data_POSCAR
  _audit_creation_date              2014-09-24
  _audit_creation_method            'ToBaCCo'
  _symmetry_space_group_name_H-M    'P1'
  _symmetry_Int_Tables_number       1
  _symmetry_cell_setting            triclinic
  loop_
  _symmetry_equiv_pos_as_xyz
 x,y,z
_cell_length_a 42.1749
_cell_length_b 42.3994
_cell_length_c 42.3312
_cell_angle_alpha 89.442400
_cell_angle_beta 89.894200
_cell_angle_gamma 88.875300
loop_
  _atom_site_label
  _atom_site_type_symbol
  _atom_site_fract_x
  _atom_site_fract_y
  _atom_site_fract_z
C1 C 0.74925 0.62048 1.03137
 C2 C 0.76707 0.63559 1.00787
 C3 C 0.79769 0.64595 1.01476
 C4 C 0.81106 0.64052 1.04480
 C5 C 0.79326 0.62405 1.06762
 C6 C 0.76220 0.61427 1.06145
 C7 C 0.75425 0.63862 0.97551
 C8 C 0.72451 0.65316 0.97013
 C9 C 0.71132 0.65388 0.93969
 C10 C 0.72828 0.63983 0.91470
 C11 C 0.75781 0.62484 0.91976
 C12 C 0.77082 0.62469 0.95028
 H13 H 0.72568 0.61259 1.02562
 H14 H 0.81106 0.65784 0.99646
 H15 H 0.71156 0.66341 0.98977
 H16 H 0.79340 0.61287 0.95475
 H17 H 0.80333 0.61958 1.09079
 H18 H 0.71812 0.63995 0.89123
 C19 C 0.73956 0.39252 0.44811
 C20 C 0.75565 0.37740 0.47316
 C21 C 0.78430 0.36094 0.46740
 C22 C 0.79643 0.35893 0.43650
 C23 C 0.77996 0.37439 0.41173
 C24 C 0.75166 0.39133 0.41726
 C25 C 0.74165 0.37845 0.50512
 C26 C 0.71093 0.36734 0.51004
 C27 C 0.69608 0.37058 0.53949
 C28 C 0.71217 0.38542 0.56409
 C29 C 0.74328 0.39605 0.55978
 C30 C 0.75798 0.39220 0.53015
 H31 H 0.71754 0.40523 0.45282
 H32 H 0.79646 0.34904 0.48678
 H33 H 0.69847 0.35650 0.49071
 H34 H 0.78167 0.40083 0.52611
 H35 H 0.78927 0.37336 0.38791
 H36 H 0.70077 0.38783 0.58692
 C37 C 0.23713 -0.11372 -0.04335
 C38 C 0.25384 -0.12713 -0.01784
 C39 C 0.28480 -0.13892 -0.02237
 C40 C 0.29972 -0.13658 -0.05206
 C41 C 0.28272 -0.12239 -0.07732
 C42 C 0.25140 -0.11112 -0.07327
 C43 C 0.24000 -0.12639 0.01421
 C44 C 0.21121 -0.14127 0.02093
 C45 C 0.19824 -0.14033 0.05164
 C46 C 0.21397 -0.12290 0.07491
 C47 C 0.24267 -0.10808 0.06848
 C48 C 0.25576 -0.11027 0.03813
 H49 H 0.21329 -0.10453 -0.03953
 H50 H 0.29744 -0.14910 -0.00234
 H51 H 0.19955 -0.15409 0.00238
 H52 H 0.27792 -0.09883 0.03280
 H53 H 0.29378 -0.12016 -0.10032
 H54 H 0.20447 -0.12158 0.09866
 C55 C 0.24655 0.12002 0.53829
 C56 C 0.26341 0.13492 0.51392
 C57 C 0.29326 0.14753 0.52020
 C58 C 0.30634 0.14528 0.55067
 C59 C 0.28948 0.12948 0.57455
 C60 C 0.25960 0.11684 0.56866
 C61 C 0.25013 0.13612 0.48166
 C62 C 0.21942 0.14845 0.47638
 C63 C 0.20572 0.14707 0.44628
 C64 C 0.22312 0.13353 0.42137
 C65 C 0.25386 0.12116 0.42620
 C66 C 0.26731 0.12280 0.45649
 H67 H 0.22366 0.11006 0.53323
 H68 H 0.30608 0.15924 0.50139
 H69 H 0.20596 0.15831 0.49589
 H70 H 0.29078 0.11286 0.46084
 H71 H 0.29930 0.12759 0.59813
 H72 H 0.21240 0.13216 0.39820
 C73 C 0.12163 0.52692 0.25306
 C74 C 0.13545 0.50191 0.27054
 C75 C 0.14558 0.50702 0.30160
 C76 C 0.14131 0.53671 0.31545
 C77 C 0.12639 0.56122 0.29809
 C78 C 0.11663 0.55682 0.26668
 C79 C 0.13768 0.47007 0.25667
 C80 C 0.15234 0.46556 0.22721
 C81 C 0.15202 0.43595 0.21272
 C82 C 0.13709 0.41074 0.22814
 C83 C 0.12231 0.41481 0.25760
 C84 C 0.12296 0.44462 0.27184
 H85 H 0.11383 0.52255 0.22915
 H86 H 0.15649 0.48780 0.31500
 H87 H 0.16323 0.48533 0.21526
 H88 H 0.11122 0.44839 0.29431
 H89 H 0.12321 0.58408 0.30898
 H90 H 0.13652 0.38794 0.21683
 C91 C -0.11599 -0.05532 0.23550
 C92 C -0.13082 -0.03041 0.25177
 C93 C -0.14596 -0.03628 0.28076
 C94 C -0.14697 -0.06715 0.29335
 C95 C -0.13177 -0.09182 0.27655
 C96 C -0.11596 -0.08613 0.24790
 C97 C -0.12962 0.00189 0.23851
 C98 C -0.14253 0.00854 0.20855
 C99 C -0.13919 0.03850 0.19446
 C100 C -0.12220 0.06149 0.21089
 C101 C -0.10986 0.05543 0.24115
 C102 C -0.11395 0.02555 0.25498
 H103 H -0.10401 -0.05042 0.21337
 H104 H -0.15722 -0.01677 0.29308
 H105 H -0.15477 -0.00990 0.19621
 H106 H -0.10402 0.02024 0.27806
 H107 H -0.13178 -0.11565 0.28596
 H108 H -0.11930 0.08472 0.20056
 C109 C 0.39560 0.46933 0.75170
 C110 C 0.37985 0.49268 0.76941
 C111 C 0.36579 0.48475 0.79851
 C112 C 0.36653 0.45329 0.80961
 C113 C 0.38214 0.43021 0.79112
 C114 C 0.39676 0.43802 0.76246
 C115 C 0.37704 0.52514 0.75670
 C116 C 0.36163 0.53075 0.72773
 C117 C 0.35885 0.56146 0.71525
 C118 C 0.37254 0.58637 0.73178
 C119 C 0.38827 0.58116 0.76062
 C120 C 0.38998 0.55038 0.77322
 H121 H 0.40637 0.47549 0.72926
 H122 H 0.35361 0.50301 0.81186
 H123 H 0.35144 0.51118 0.71527
 H124 H 0.40203 0.54578 0.79542
 H125 H 0.38323 0.40580 0.79896
 H126 H 0.37081 0.61011 0.72222
 C127 C 0.61689 1.05020 0.73545
 C128 C 0.62960 1.02471 0.75299
 C129 C 0.64241 1.02984 0.78312
 C130 C 0.64278 1.06044 0.79579
 C131 C 0.62924 1.08553 0.77793
 C132 C 0.61626 1.08074 0.74791
 C133 C 0.62889 0.99260 0.73979
 C134 C 0.64242 0.98642 0.71004
 C135 C 0.64051 0.95631 0.69677
 C136 C 0.62542 0.93228 0.71380
 C137 C 0.61170 0.93815 0.74338
 C138 C 0.61343 0.96841 0.75629
 H139 H 0.60682 1.04597 0.71238
 H140 H 0.65238 1.01000 0.79631
 H141 H 0.65388 1.00519 0.69706
 H142 H 0.60266 0.97322 0.77906
 H143 H 0.62899 1.10923 0.78725
 H144 H 0.62388 0.90893 0.70379
 C145 C -0.03896 0.24374 -0.10960
 C146 C -0.01454 0.26055 -0.12416
 C147 C -0.02117 0.29012 -0.13819
 C148 C -0.05226 0.30292 -0.13802
 C149 C -0.07617 0.28605 -0.12221
 C150 C -0.06982 0.25656 -0.10810
 C151 C 0.01801 0.24713 -0.12426
 C152 C 0.02432 0.21774 -0.13826
 C153 C 0.05509 0.20426 -0.13754
 C154 C 0.07906 0.22035 -0.12146
 C155 C 0.07307 0.24965 -0.10735
 C156 C 0.04251 0.26320 -0.10932
 H157 H -0.03363 0.22100 -0.09873
 H158 H -0.00215 0.30262 -0.14976
 H159 H 0.00523 0.20576 -0.14996
 H160 H 0.03740 0.28572 -0.09834
 H161 H -0.10023 0.29543 -0.12145
 H162 H 0.10287 0.21039 -0.12030
 C163 C 0.54549 0.23451 0.12622
 C164 C 0.52050 0.25208 0.13982
 C165 C 0.52612 0.28243 0.15124
 C166 C 0.55639 0.29539 0.14885
 C167 C 0.58114 0.27759 0.13499
 C168 C 0.57595 0.24717 0.12348
 C169 C 0.48811 0.23936 0.14032
 C170 C 0.48253 0.20940 0.15333
 C171 C 0.45221 0.19648 0.15193
 C172 C 0.42740 0.21390 0.13752
 C173 C 0.43251 0.24396 0.12450
 C174 C 0.46303 0.25659 0.12619
 H175 H 0.54088 0.21128 0.11706
 H176 H 0.50675 0.29609 0.16144
 H177 H 0.50193 0.19597 0.16397
 H178 H 0.46759 0.27955 0.11587
 H179 H 0.60446 0.28765 0.13288
 H180 H 0.40403 0.20384 0.13625
 C181 C 1.03025 0.74952 0.62432
 C182 C 1.00630 0.76694 0.63972
 C183 C 1.01272 0.79720 0.65108
 C184 C 1.04279 0.81045 0.64648
 C185 C 1.06605 0.79291 0.62982
 C186 C 1.06017 0.76242 0.61905
 C187 C 0.97408 0.75398 0.64200
 C188 C 0.96955 0.72367 0.65470
 C189 C 0.93967 0.70978 0.65340
 C190 C 0.91417 0.72668 0.63959
 C191 C 0.91826 0.75702 0.62680
 C192 C 0.94834 0.77063 0.62842
 H193 H 1.02512 0.72627 0.61547
 H194 H 0.99411 0.81035 0.66314
 H195 H 0.98957 0.71056 0.66457
 H196 H 0.95216 0.79370 0.61802
 H197 H 1.08936 0.80253 0.62598
 H198 H 0.89119 0.71582 0.63816
 C199 C 0.44774 0.72903 0.39059
 C200 C 0.47261 0.74604 0.37708
 C201 C 0.46633 0.77548 0.36276
 C202 C 0.43523 0.78783 0.36137
 C203 C 0.41054 0.77052 0.37516
 C204 C 0.41654 0.74129 0.39010
 C205 C 0.50532 0.73314 0.37817
 C206 C 0.51294 0.70462 0.36310
 C207 C 0.54426 0.69273 0.36324
 C208 C 0.56750 0.70903 0.38000
 C209 C 0.56022 0.73753 0.39517
 C210 C 0.52906 0.74970 0.39375
 H211 H 0.45291 0.70645 0.40185
 H212 H 0.48570 0.78843 0.35234
 H213 H 0.49465 0.69240 0.35042
 H214 H 0.52303 0.77178 0.40519
 H215 H 0.38653 0.78002 0.37467
 H216 H 0.59171 0.70005 0.38046
 C217 C 0.41794 -0.04709 0.27188
 H218 H 0.43523 -0.03097 0.26249
 C219 C 0.42785 -0.07512 0.28724
 H220 H 0.45295 -0.08043 0.28968
 C221 C 0.36411 -0.06010 0.28000
 H222 H 0.33924 -0.05406 0.27702
 C223 C 0.37282 -0.08792 0.29540
 H224 H 0.35428 -0.10307 0.30405
 N225 N 0.38643 -0.04024 0.26882
 C226 C 0.39046 0.03003 0.19795
 H227 H 0.37372 0.01684 0.18446
 C228 C 0.40456 0.05582 0.18364
 H229 H 0.39899 0.06126 0.15919
 C230 C 0.41564 0.04080 0.24653
 H231 H 0.41867 0.03555 0.27141
 C232 C 0.43030 0.06715 0.23303
 H233 H 0.44485 0.08187 0.24763
 Zn234 Zn 0.36713 -0.00484 0.24894
 N235 N 0.39542 0.02342 0.22908
 C236 C 0.32452 0.04268 0.27187
 N237 N 0.34439 0.01830 0.28008
 C238 C 0.35072 0.01151 0.31094
 C239 C 0.33648 0.02903 0.33493
 C240 C 0.30941 0.06069 0.29524
 C241 C 0.35621 -0.04078 0.19671
 C242 C 0.34012 -0.05418 0.17169
 C243 C 0.29141 -0.03065 0.19141
 C244 C 0.30864 -0.01719 0.21594
 N245 N 0.34057 -0.02205 0.21773
 H246 H 0.32065 0.04832 0.24718
 H247 H 0.36747 -0.00711 0.31713
 H248 H 0.34198 0.02306 0.35926
 H249 H 0.29359 0.07994 0.28829
 H250 H 0.38152 -0.04469 0.19908
 H251 H 0.35324 -0.06862 0.15501
 H252 H 0.26606 -0.02638 0.19003
 H253 H 0.29652 -0.00293 0.23337
 C254 C 0.42370 0.07555 0.20147
 C255 C 0.40501 -0.09588 0.29931
 C256 C 0.30733 -0.04905 0.16865
 C257 C 0.31546 0.05397 0.32729
 C258 C 0.07859 1.04629 0.76775
 H259 H 0.06219 1.02992 0.75765
 C260 C 0.06717 1.07305 0.78389
 H261 H 0.04186 1.07712 0.78622
 C262 C 0.13160 1.06117 0.77718
 H263 H 0.15674 1.05633 0.77451
 C264 C 0.12140 1.08770 0.79343
 H265 H 0.13908 1.10317 0.80290
 N266 N 0.11041 1.04089 0.76511
 C267 C 0.11393 0.96966 0.69526
 H268 H 0.13320 0.98130 0.68347
 C269 C 0.09987 0.94445 0.68042
 H270 H 0.10808 0.93777 0.65712
 C271 C 0.08197 0.96233 0.74074
 H272 H 0.07607 0.96873 0.76474
 C273 C 0.06704 0.93678 0.72655
 H274 H 0.04954 0.92369 0.73972
 Zn275 Zn 0.13186 1.00679 0.74568
 N276 N 0.10533 0.97784 0.72510
 C277 C 0.14712 0.98991 0.80810
 N278 N 0.15496 0.98425 0.77746
 C279 C 0.17729 0.96196 0.76991
 C280 C 0.19360 0.94528 0.79379
 C281 C 0.16248 0.97363 0.83257
 C282 C 0.14274 1.04280 0.69253
 C283 C 0.15922 1.05764 0.66824
 C284 C 0.20830 1.03880 0.69173
 C285 C 0.19076 1.02391 0.71549
 N286 N 0.15852 1.02581 0.71514
 H287 H 0.12852 1.00680 0.81375
 H288 H 0.18248 0.95716 0.74537
 H289 H 0.21150 0.92783 0.78738
 H290 H 0.15582 0.97879 0.85671
 H291 H 0.11711 1.04437 0.69319
 H292 H 0.14602 1.07070 0.65033
 H293 H 0.23393 1.03689 0.69216
 H294 H 0.20291 1.01103 0.73414
 C295 C 0.07682 0.92703 0.69636
 C296 C 0.08885 1.09394 0.79726
 C297 C 0.19244 1.05565 0.66750
 C298 C 0.18622 0.95111 0.82565
 C299 C 0.57645 0.54030 0.25932
 H300 H 0.56147 0.52125 0.25217
 C301 C 0.56362 0.56573 0.27653
 H302 H 0.53864 0.56616 0.28246
 C303 C 0.62751 0.56260 0.26147
 H304 H 0.65256 0.56092 0.25608
 C305 C 0.61588 0.58804 0.27855
 H306 H 0.63223 0.60601 0.28564
 N307 N 0.60808 0.53906 0.25281
 C308 C 0.61414 0.46526 0.18605
 H309 H 0.63104 0.47849 0.17245
 C310 C 0.60220 0.43784 0.17329
 H311 H 0.60951 0.43107 0.14973
 C312 C 0.58645 0.45642 0.23397
 H313 H 0.58161 0.46313 0.25812
 C314 C 0.57377 0.42866 0.22198
 H315 H 0.55885 0.41434 0.23695
 Zn316 Zn 0.63145 0.50543 0.23468
 N317 N 0.60673 0.47373 0.21611
 C318 C 0.65010 0.49429 0.29765
 N319 N 0.65572 0.48571 0.26723
 C320 C 0.67660 0.46192 0.26027
 C321 C 0.69325 0.44615 0.28444
 C322 C 0.66600 0.47908 0.32245
 C323 C 0.64213 0.53950 0.17951
 C324 C 0.65917 0.55399 0.15534
 C325 C 0.70774 0.53762 0.18150
 C326 C 0.68972 0.52299 0.20498
 N327 N 0.65751 0.52393 0.20337
 H328 H 0.63274 0.51252 0.30295
 H329 H 0.68010 0.45503 0.23595
 H330 H 0.70974 0.42724 0.27844
 H331 H 0.66098 0.48634 0.34642
 H332 H 0.61648 0.54035 0.17918
 H333 H 0.64641 0.56606 0.13647
 H334 H 0.73336 0.53661 0.18309
 H335 H 0.70148 0.51119 0.22456
 C336 C 0.58257 0.41860 0.19160
 C337 C 0.58372 0.58961 0.28696
 C338 C 0.69242 0.55318 0.15615
 C339 C 0.68789 0.45463 0.31606
 C340 C 0.92182 0.46084 0.76472
 H341 H 0.93783 0.47856 0.75600
 C342 C 0.93368 0.43429 0.78138
 H343 H 0.95893 0.43166 0.78543
 C344 C 0.86931 0.44270 0.77062
 H345 H 0.84417 0.44629 0.76654
 C346 C 0.87994 0.41631 0.78733
 H347 H 0.86265 0.39959 0.79564
 N348 N 0.89002 0.46458 0.76017
 C349 C 0.88857 0.53727 0.69100
 H350 H 0.87257 0.52360 0.67710
 C351 C 0.90051 0.56484 0.67798
 H352 H 0.89412 0.57128 0.65397
 C353 C 0.91378 0.54717 0.73979
 H354 H 0.91751 0.54086 0.76434
 C355 C 0.92636 0.57513 0.72757
 H356 H 0.94012 0.58999 0.74279
 Zn357 Zn 0.86824 0.49890 0.74083
 N358 N 0.89450 0.52940 0.72168
 C359 C 0.82457 0.54465 0.76468
 N360 N 0.84454 0.52025 0.77252
 C361 C 0.85072 0.51284 0.80328
 C362 C 0.83653 0.53004 0.82754
 C363 C 0.80959 0.56240 0.78832
 C364 C 0.85820 0.46366 0.68751
 C365 C 0.84203 0.44963 0.66285
 C366 C 0.79281 0.46991 0.68467
 C367 C 0.81007 0.48393 0.70885
 N368 N 0.84224 0.48092 0.70952
 H369 H 0.82077 0.55071 0.74008
 H370 H 0.86751 0.49419 0.80923
 H371 H 0.84209 0.52376 0.85178
 H372 H 0.79392 0.58186 0.78163
 H373 H 0.88374 0.46123 0.68894
 H374 H 0.85539 0.43635 0.64544
 H375 H 0.76725 0.47275 0.68427
 H376 H 0.79776 0.49714 0.72699
 C377 C 0.91858 0.58483 0.69665
 C378 C 0.91242 0.41190 0.79334
 C379 C 0.80890 0.45278 0.66105
 C380 C 0.81578 0.55532 0.82027
 C381 C 0.27544 0.42127 -0.03070
 H382 H 0.26564 0.43663 -0.01275
 C383 C 0.29100 0.43406 -0.05717
 H384 H 0.29321 0.45938 -0.05943
 C385 C 0.28453 0.36954 -0.04988
 H386 H 0.28187 0.34436 -0.04688
 C387 C 0.30020 0.38110 -0.07621
 H388 H 0.30931 0.36441 -0.09335
 N389 N 0.27285 0.38943 -0.02761
 C390 C 0.20192 0.38493 0.04271
 H391 H 0.18902 0.36904 0.02802
 C392 C 0.18723 0.39644 0.06974
 H393 H 0.16303 0.38984 0.07467
 C394 C 0.24959 0.41041 0.05567
 H395 H 0.27433 0.41458 0.05064
 C396 C 0.23566 0.42254 0.08326
 H397 H 0.24976 0.43631 0.09919
 Zn398 Zn 0.25336 0.36646 0.00525
 N399 N 0.23280 0.39132 0.03648
 C400 C 0.27717 0.31993 0.04855
 N401 N 0.28514 0.34157 0.02610
 C402 C 0.31605 0.34791 0.01991
 C403 C 0.34033 0.33198 0.03612
 C404 C 0.30082 0.30317 0.06521
 C405 C 0.20078 0.35886 -0.03218
 C406 C 0.17597 0.34395 -0.04728
 C407 C 0.19737 0.29382 -0.02881
 C408 C 0.22167 0.30981 -0.01364
 N409 N 0.22255 0.34183 -0.01515
 H410 H 0.25244 0.31596 0.05377
 H411 H 0.32209 0.36596 0.00290
 H412 H 0.36469 0.33761 0.03074
 H413 H 0.29401 0.28606 0.08300
 H414 H 0.20238 0.38428 -0.03338
 H415 H 0.15867 0.35811 -0.06025
 H416 H 0.19675 0.26834 -0.02709
 H417 H 0.23962 0.29665 -0.00062
 C418 C 0.20440 0.41451 0.09105
 C419 C 0.30384 0.41371 -0.08021
 C420 C 0.17386 0.31102 -0.04553
 C421 C 0.33294 0.30926 0.05915
 C422 C 0.75998 0.07795 1.04386
 H423 H 0.73569 0.07243 1.03834
 C424 C 0.77532 0.06289 1.06946
 H425 H 0.76274 0.04566 1.08347
 C426 C 0.80504 0.10918 1.03434
 H427 H 0.81628 0.12827 1.02194
 C428 C 0.82101 0.09496 1.05950
 H429 H 0.84455 0.10285 1.06529
 N430 N 0.77483 0.10109 1.02730
 C431 C 0.71920 0.13032 0.94521
 H432 H 0.72082 0.15511 0.95070
 C433 C 0.70354 0.12130 0.91812
 H434 H 0.69330 0.13956 0.90304
 C435 C 0.73125 0.07704 0.95866
 H436 H 0.74237 0.06008 0.97458
 C437 C 0.71575 0.06681 0.93130
 H438 H 0.71490 0.04184 0.92635
 Zn439 Zn 0.75266 0.12846 0.99886
 N440 N 0.73249 0.10843 0.96495
 C441 C 0.80450 0.14015 0.96138
 N442 N 0.78238 0.15545 0.97929
 C443 C 0.78236 0.18737 0.98221
 C444 C 0.80616 0.20499 0.96768
 C445 C 0.82883 0.15668 0.94690
 C446 C 0.69033 0.14432 1.01739
 C447 C 0.66643 0.15937 1.03474
 C448 C 0.70656 0.18758 1.06288
 C449 C 0.72982 0.17166 1.04515
 N450 N 0.72133 0.15094 1.02247
 H451 H 0.80361 0.11479 0.95906
 H452 H 0.76411 0.19920 0.99586
 H453 H 0.80613 0.23034 0.97055
 H454 H 0.84648 0.14384 0.93326
 H455 H 0.68397 0.12695 1.00015
 H456 H 0.64196 0.15375 1.03005
 H457 H 0.71376 0.20420 1.08062
 H458 H 0.75465 0.17585 1.04945
 C459 C 0.70161 0.08922 0.91065
 C460 C 0.80585 0.07230 1.07812
 C461 C 0.67433 0.18150 1.05772
 C462 C 0.83009 0.18951 0.95017
 C463 C 0.26211 0.57801 0.55466
 H464 H 0.25326 0.56082 0.53833
 C465 C 0.27845 0.56810 0.58205
 H466 H 0.28212 0.54314 0.58668
 C467 C 0.26841 0.63153 0.56860
 H468 H 0.26454 0.65627 0.56309
 C469 C 0.28468 0.62282 0.59582
 H470 H 0.29296 0.64125 0.61110
 N471 N 0.25781 0.60937 0.54849
 C472 C 0.18669 0.60574 0.47899
 H473 H 0.17328 0.62342 0.49168
 C474 C 0.17213 0.59047 0.45417
 H475 H 0.14756 0.59626 0.44891
 C476 C 0.23532 0.57888 0.46868
 H477 H 0.26029 0.57545 0.47379
 C478 C 0.22160 0.56306 0.44332
 H479 H 0.23617 0.54730 0.42918
 Zn480 Zn 0.23787 0.62863 0.51323
 N481 N 0.21793 0.60035 0.48541
 C482 C 0.26129 0.67004 0.46541
 N483 N 0.26932 0.65035 0.48981
 C484 C 0.30026 0.64400 0.49693
 C485 C 0.32449 0.65819 0.47987
 C486 C 0.28489 0.68506 0.44783
 C487 C 0.18519 0.64179 0.54965
 C488 C 0.16069 0.65911 0.56372
 C489 C 0.18166 0.70640 0.53999
 C490 C 0.20566 0.68800 0.52596
 N491 N 0.20664 0.65621 0.53066
 H492 H 0.23657 0.67403 0.45956
 H493 H 0.30638 0.62745 0.51557
 H494 H 0.34887 0.65275 0.48619
 H495 H 0.27806 0.70083 0.42866
 H496 H 0.18693 0.61654 0.55346
 H497 H 0.14373 0.64696 0.57845
 H498 H 0.18103 0.73165 0.53588
 H499 H 0.22343 0.69915 0.51150
 C500 C 0.18983 0.56970 0.43518
 C501 C 0.29019 0.59080 0.60288
 C502 C 0.15859 0.69185 0.55890
 C503 C 0.31703 0.67916 0.45504
 C504 C 0.76088 0.91652 0.45471
 H505 H 0.75120 0.93375 0.47093
 C506 C 0.77639 0.92636 0.42698
 H507 H 0.77865 0.95131 0.42203
 C508 C 0.76979 0.86295 0.44119
 H509 H 0.76711 0.83822 0.44692
 C510 C 0.78537 0.87160 0.41366
 H511 H 0.79442 0.85315 0.39840
 N512 N 0.75820 0.88518 0.46121
 C513 C 0.68726 0.89020 0.53137
 H514 H 0.67391 0.87329 0.51834
 C515 C 0.67281 0.90497 0.55693
 H516 H 0.64836 0.89967 0.56234
 C517 C 0.73571 0.91535 0.54194
 H518 H 0.76061 0.91817 0.53668
 C519 C 0.72208 0.93065 0.56805
 H520 H 0.73661 0.94546 0.58258
 Zn521 Zn 0.73866 0.86626 0.49661
 N522 N 0.71839 0.89488 0.52475
 C523 C 0.76240 0.82494 0.54487
 N524 N 0.77038 0.84396 0.52015
 C525 C 0.80129 0.84979 0.51339
 C526 C 0.82555 0.83600 0.53141
 C527 C 0.78604 0.81028 0.56337
 C528 C 0.68584 0.85426 0.46081
 C529 C 0.66114 0.83758 0.44756
 C530 C 0.68307 0.78981 0.47106
 C531 C 0.70720 0.80760 0.48438
 N532 N 0.70778 0.83934 0.47947
 H533 H 0.73766 0.82142 0.55043
 H534 H 0.80730 0.86584 0.49445
 H535 H 0.84991 0.84113 0.52550
 H536 H 0.77925 0.79520 0.58292
 H537 H 0.68724 0.87944 0.45681
 H538 H 0.64371 0.85011 0.43319
 H539 H 0.68271 0.76461 0.47539
 H540 H 0.72533 0.79604 0.49857
 C541 C 0.69051 0.92449 0.57645
 C542 C 0.78905 0.90362 0.40615
 C543 C 0.65939 0.80495 0.45275
 C544 C 0.81814 0.81592 0.55679
 C545 C -0.04298 0.25988 0.41565
 H546 H -0.02483 0.25214 0.43216
 C547 C -0.07021 0.27615 0.42645
 H548 H -0.07290 0.28088 0.45140
 C549 C -0.06148 0.26374 0.36288
 H550 H -0.05775 0.25908 0.33806
 C551 C -0.08868 0.27983 0.37248
 H552 H -0.10577 0.28714 0.35468
 N553 N -0.03912 0.25450 0.38421
 C554 C 0.03408 0.18572 0.38731
 H555 H 0.02067 0.17157 0.37132
 C556 C 0.06117 0.17255 0.40111
 H557 H 0.06752 0.14824 0.39604
 C558 C 0.04379 0.23501 0.41096
 H559 H 0.03755 0.25973 0.41348
 C560 C 0.07135 0.22267 0.42533
 H561 H 0.08603 0.23800 0.43913
 Zn562 Zn -0.00404 0.23524 0.36392
 N563 N 0.02632 0.21666 0.39165
 C564 C 0.04220 0.25914 0.32122
 N565 N 0.01718 0.26682 0.34018
 C566 C 0.00891 0.29751 0.34547
 C567 C 0.02596 0.32184 0.33161
 C568 C 0.05981 0.28287 0.30655
 C569 C -0.03888 0.18182 0.35444
 C570 C -0.05263 0.15685 0.33870
 C571 C -0.03149 0.17726 0.28968
 C572 C -0.01772 0.20174 0.30652
 N573 N -0.02135 0.20330 0.33840
 H574 H 0.04891 0.23462 0.31806
 H575 H -0.01031 0.30336 0.36137
 H576 H 0.01902 0.34602 0.33655
 H577 H 0.07982 0.27632 0.29180
 H578 H -0.04179 0.18394 0.37974
 H579 H -0.06623 0.13994 0.35211
 H580 H -0.02828 0.17624 0.26433
 H581 H -0.00427 0.21944 0.29412
 C582 C 0.08090 0.19135 0.41933
 C583 C -0.09329 0.28668 0.40455
 C584 C -0.04899 0.15424 0.30589
 C585 C 0.05195 0.31475 0.31203
 C586 C 1.04700 0.75722 0.08140
 H587 H 1.02964 0.74733 0.06579
 C588 C 1.07250 0.77419 0.06890
 H589 H 1.07460 0.77735 0.04358
 C590 C 1.06541 0.76567 0.13347
 H591 H 1.06231 0.76247 0.15866
 C592 C 1.09080 0.78274 0.12216
 H593 H 1.10729 0.79222 0.13901
 N594 N 1.04378 0.75391 0.11327
 C595 C 0.97240 0.68490 0.11758
 H596 H 0.98438 0.67272 0.13674
 C597 C 0.94679 0.67063 0.10336
 H598 H 0.94006 0.64735 0.11135
 C599 C 0.96471 0.73087 0.08602
 H600 H 0.97110 0.75486 0.08037
 C601 C 0.93885 0.71726 0.07089
 H602 H 0.92553 0.73086 0.05347
 Zn603 Zn 1.01029 0.73478 0.13541
 N604 N 0.98062 0.71469 0.10919
 C605 C 0.99393 0.79739 0.15113
 N606 N 0.98785 0.76669 0.15807
 C607 C 0.96460 0.75893 0.17890
 C608 C 0.94694 0.78258 0.19421
 C609 C 0.97676 0.82167 0.16564
 C610 C 1.04629 0.68085 0.14738
 C611 C 1.06086 0.65638 0.16450
 C612 C 1.04299 0.68116 0.21268
 C613 C 1.02823 0.70501 0.19452
 N614 N 1.02978 0.70413 0.16243
 H615 H 1.01166 0.80326 0.13372
 H616 H 0.95962 0.73437 0.18344
 H617 H 0.92856 0.77593 0.21073
 H618 H 0.98211 0.84586 0.15959
 H619 H 1.04756 0.68104 0.12185
 H620 H 1.07344 0.63786 0.15192
 H621 H 1.04130 0.68199 0.23819
 H622 H 1.01563 0.72411 0.20606
 C623 C 0.92910 0.68711 0.08035
 C624 C 1.09443 0.78769 0.08955
 C625 C 1.05920 0.65620 0.19760
 C626 C 0.95288 0.81449 0.18753
 C627 C 0.52881 0.31694 0.59716
 H628 H 0.51084 0.33006 0.60996
 C629 C 0.55340 0.33313 0.58259
 H630 H 0.55422 0.35855 0.58461
 C631 C 0.55024 0.26804 0.57986
 H632 H 0.54956 0.24263 0.57965
 C633 C 0.57499 0.28336 0.56443
 H634 H 0.59310 0.26943 0.55252
 N635 N 0.52868 0.28484 0.59715
 C636 C 0.45552 0.22025 0.62699
 H637 H 0.46349 0.21752 0.65116
 C638 C 0.43029 0.20272 0.61634
 H639 H 0.41912 0.18653 0.63265
 C640 C 0.46050 0.24534 0.57699
 H641 H 0.47243 0.26217 0.56197
 C642 C 0.43494 0.22831 0.56530
 H643 H 0.42728 0.23216 0.54115
 Zn644 Zn 0.50262 0.26361 0.62692
 N645 N 0.46987 0.24123 0.60751
 C646 C 0.45208 0.29533 0.65814
 N647 N 0.48420 0.29365 0.65516
 C648 C 0.50301 0.31428 0.67051
 C649 C 0.48953 0.33842 0.68872
 C650 C 0.43771 0.31844 0.67686
 C651 C 0.53463 0.20586 0.63374
 C652 C 0.55050 0.18098 0.64910
 C653 C 0.55189 0.21243 0.69631
 C654 C 0.53580 0.23672 0.68004
 N655 N 0.52757 0.23306 0.64927
 H656 H 0.43736 0.27916 0.64556
 H657 H 0.52849 0.31265 0.66769
 H658 H 0.50474 0.35507 0.70023
 H659 H 0.41209 0.31956 0.67867
 H660 H 0.52689 0.20299 0.60963
 H661 H 0.55542 0.15945 0.63629
 H662 H 0.55794 0.21571 0.72089
 H663 H 0.52944 0.25817 0.69224
 C664 C 0.41934 0.20683 0.58525
 C665 C 0.57761 0.31617 0.56715
 C666 C 0.55917 0.18395 0.68089
 C667 C 0.45646 0.34065 0.69195
 C668 C 0.47158 0.81699 0.89807
 H669 H 0.48821 0.83023 0.88415
 C670 C 0.44500 0.83251 0.91055
 H671 H 0.44123 0.85743 0.90571
 C672 C 0.45528 0.76846 0.92026
 H673 H 0.45866 0.74331 0.92308
 C674 C 0.42875 0.78325 0.93394
 H675 H 0.41194 0.76927 0.94710
 N676 N 0.47504 0.78512 0.90119
 C677 C 0.54885 0.71778 0.87429
 H678 H 0.53880 0.71284 0.85143
 C679 C 0.57611 0.70166 0.88397
 H680 H 0.58632 0.68399 0.86848
 C681 C 0.54820 0.74808 0.92106
 H682 H 0.53747 0.76676 0.93491
 C683 C 0.57591 0.73249 0.93171
 H684 H 0.58629 0.73916 0.95398
 Zn685 Zn 0.50221 0.76321 0.87239
 N686 N 0.53565 0.74071 0.89254
 C687 C 0.55281 0.79329 0.84144
 N688 N 0.52059 0.79243 0.84326
 C689 C 0.50213 0.81331 0.82647
 C690 C 0.51604 0.83733 0.80860
 C691 C 0.56761 0.81615 0.82303
 C692 C 0.47109 0.70616 0.86786
 C693 C 0.45541 0.68138 0.85370
 C694 C 0.45361 0.71160 0.80507
 C695 C 0.46959 0.73582 0.82016
 N696 N 0.47792 0.73271 0.85108
 H697 H 0.56730 0.77679 0.85488
 H698 H 0.47658 0.81224 0.82816
 H699 H 0.50111 0.85449 0.79629
 H700 H 0.59327 0.81677 0.82240
 H701 H 0.47889 0.70368 0.89206
 H702 H 0.45065 0.66037 0.86753
 H703 H 0.44742 0.71441 0.78037
 H704 H 0.47571 0.75680 0.80702
 C705 C 0.59052 0.70933 0.91267
 C706 C 0.42253 0.81527 0.92749
 C707 C 0.44657 0.68379 0.82183
 C708 C 0.54919 0.83898 0.80702
 N709 N 0.39767 -0.17074 0.34346
 C710 C 0.42808 -0.18148 0.34553
 N711 N 0.45134 -0.16369 0.33251
 N712 N 0.44432 -0.13636 0.31795
 C713 C 0.41375 -0.12579 0.31583
 N714 N 0.39069 -0.14358 0.32896
 N715 N 0.96199 0.34791 0.82949
 C716 C 0.93995 0.33130 0.84591
 N717 N 0.90945 0.34211 0.84552
 N718 N 0.90117 0.36784 0.82918
 C719 C 0.92294 0.38416 0.81243
 N720 N 0.95368 0.37388 0.81311
 N721 N 0.04035 1.15975 0.83043
 C722 C 0.06246 1.17572 0.84703
 N723 N 0.09259 1.16394 0.84767
 N724 N 0.10049 1.13787 0.83222
 C725 C 0.07868 1.12215 0.81533
 N726 N 0.04829 1.13346 0.81490
 N727 N 0.58478 0.65697 0.34109
 C728 C 0.55362 0.66468 0.34448
 N729 N 0.53190 0.64714 0.32911
 N730 N 0.54113 0.62298 0.31103
 C731 C 0.57245 0.61564 0.30745
 N732 N 0.59395 0.63304 0.32303
 N733 N 0.54418 0.34136 0.18273
 C734 C 0.56223 0.32779 0.15972
 N735 N 0.58621 0.34451 0.14690
 N736 N 0.59206 0.37351 0.15671
 C737 C 0.57431 0.38704 0.17988
 N738 N 0.55023 0.37037 0.19277
 N739 N 0.03023 0.85614 0.67844
 C740 C 0.05010 0.84037 0.65838
 N741 N 0.07803 0.85382 0.65061
 N742 N 0.08591 0.88152 0.66230
 C743 C 0.06636 0.89708 0.68257
 N744 N 0.03830 0.88386 0.69050
 N745 N 0.95350 0.66397 0.68785
 C746 C 0.93519 0.67701 0.66455
 N747 N 0.91234 0.65931 0.65145
 N748 N 0.90776 0.62989 0.66130
 C749 C 0.92574 0.61686 0.68477
 N750 N 0.94870 0.63452 0.69795
 N751 N 0.42304 0.14709 0.15153
 C752 C 0.44626 0.16446 0.16438
 N753 N 0.46311 0.15207 0.18907
 N754 N 0.45650 0.12357 0.20075
 C755 C 0.43310 0.10627 0.18785
 N756 N 0.41667 0.11862 0.16296
 N757 N 0.35217 0.41365 -0.15268
 C758 C 0.35149 0.44436 -0.16200
 N759 N 0.33550 0.46557 -0.14360
 N760 N 0.32062 0.45624 -0.11731
 C761 C 0.32111 0.42532 -0.10843
 N762 N 0.33736 0.40438 -0.12661
 N763 N 0.82246 0.94937 0.33907
 C764 C 0.83722 0.92628 0.32199
 N765 N 0.83617 0.89619 0.33312
 N766 N 0.82104 0.88937 0.35978
 C767 C 0.80620 0.91227 0.37677
 N768 N 0.80728 0.94252 0.36594
 N769 N 0.85407 0.07371 1.15028
 C770 C 0.84748 0.04587 1.16472
 N771 N 0.82727 0.02607 1.15003
 N772 N 0.81401 0.03407 1.12238
 C773 C 0.82082 0.06199 1.10813
 N774 N 0.84118 0.08151 1.12263
 N775 N 0.32811 0.54492 0.66827
 C776 C 0.34140 0.56820 0.68545
 N777 N 0.33790 0.59841 0.67509
 N778 N 0.32180 0.60520 0.64890
 C779 C 0.30838 0.58216 0.63175
 N780 N 0.31194 0.55176 0.64189
 N781 N 0.17877 0.52769 0.35973
 C782 C 0.15262 0.54281 0.34781
 N783 N 0.13809 0.56540 0.36542
 N784 N 0.14943 0.57295 0.39357
 C785 C 0.17590 0.55841 0.40533
 N786 N 0.19030 0.53546 0.38790
 N787 N 0.67132 0.04349 0.84295
 C788 C 0.65671 0.06657 0.82532
 N789 N 0.65644 0.09644 0.83653
 N790 N 0.67031 0.10315 0.86368
 C791 C 0.68522 0.08037 0.88113
 N792 N 0.68532 0.05025 0.87032
 N793 N 0.63990 0.92678 0.64735
 C794 C 0.65309 0.94967 0.66485
 N795 N 0.67821 0.96540 0.65270
 N796 N 0.68998 0.95799 0.62434
 C797 C 0.67676 0.93488 0.60694
 N798 N 0.65143 0.91961 0.61904
 N799 N 0.15421 0.40858 0.16201
 C800 C 0.16564 0.43137 0.18085
 N801 N 0.18964 0.44944 0.16980
 N802 N 0.20195 0.44451 0.14114
 C803 C 0.19040 0.42161 0.12233
 N804 N 0.16628 0.40386 0.13339
 N805 N -0.16624 0.33542 0.39859
 C806 C -0.17445 0.34018 0.42917
 N807 N -0.15570 0.32715 0.45217
 N808 N -0.12979 0.31014 0.44470
 C809 C -0.12178 0.30540 0.41393
 N810 N -0.14057 0.31846 0.39117
 N811 N 0.34585 0.83384 0.96592
 C812 C 0.33105 0.85214 0.94358
 N813 N 0.34720 0.85903 0.91666
 N814 N 0.37664 0.84809 0.91219
 C815 C 0.39114 0.82950 0.93430
 N816 N 0.37516 0.82243 0.96123
 N817 N 1.16027 0.84320 0.09014
 C818 C 1.17098 0.84271 0.05991
 N819 N 1.15556 0.82450 0.03874
 N820 N 1.13084 0.80728 0.04772
 C821 C 1.12072 0.80751 0.07824
 N822 N 1.13581 0.82604 0.09908
 N823 N 0.65456 0.33196 0.52902
 C824 C 0.66417 0.35781 0.54484
 N825 N 0.64445 0.37078 0.56672
 N826 N 0.61639 0.35821 0.57280
 C827 C 0.60699 0.33203 0.55743
 N828 N 0.62661 0.31917 0.53535
 N829 N 0.35073 0.15436 0.58676
 C830 C 0.33697 0.15997 0.55827
 N831 N 0.35112 0.18037 0.53791
 N832 N 0.37766 0.19488 0.54601
 C833 C 0.39110 0.18951 0.57479
 N834 N 0.37715 0.16878 0.59481
 N835 N 0.85507 0.64285 0.08037
 C836 C 0.84141 0.65144 0.05249
 N837 N 0.85738 0.67142 0.03304
 N838 N 0.88545 0.68267 0.04146
 C839 C 0.89887 0.67397 0.06948
 N840 N 0.88315 0.65374 0.08860
 N841 N 0.66461 0.66244 0.90600
 C842 C 0.67949 0.66809 0.93366
 N843 N 0.66462 0.68696 0.95513
 N844 N 0.63617 0.69990 0.94888
 C845 C 0.62143 0.69427 0.92100
 N846 N 0.63628 0.67522 0.89983
 N847 N 0.15522 0.14449 0.41806
 C848 C 0.17278 0.15818 0.44074
 N849 N 0.15963 0.18237 0.45745
 N850 N 0.13020 0.19278 0.45121
 C851 C 0.11271 0.17905 0.42836
 N852 N 0.12583 0.15466 0.41207
 N853 N 0.59816 0.13638 0.74383
 C854 C 0.60185 0.10771 0.73007
 N855 N 0.59176 0.10433 0.69986
 N856 N 0.57849 0.12858 0.68418
 C857 C 0.57471 0.15721 0.69803
 N858 N 0.58485 0.16058 0.72819
 N859 N 1.09505 0.60986 0.26329
 C860 C 1.10210 0.58176 0.24939
 N861 N 1.09477 0.57841 0.21836
 N862 N 1.08125 0.60204 0.20200
 C863 C 1.07419 0.63002 0.21597
 N864 N 1.08129 0.63343 0.24700
 N865 N 0.89807 0.85733 0.24123
 C866 C 0.90122 0.88779 0.23154
 N867 N 0.92117 0.89391 0.20713
 N868 N 0.93738 0.87065 0.19315
 C869 C 0.93434 0.84022 0.20290
 N870 N 0.91422 0.83404 0.22718
 N871 N 0.43961 0.41842 0.72755
 C872 C 0.41236 0.41299 0.74370
 N873 N 0.39992 0.38372 0.74293
 N874 N 0.41399 0.36080 0.72647
 C875 C 0.44134 0.36609 0.71052
 N876 N 0.45393 0.39533 0.71138
 N877 N 0.40565 0.63638 0.76216
 C878 C 0.40313 0.60793 0.77693
 N879 N 0.41479 0.60460 0.80668
 N880 N 0.42836 0.62872 0.82099
 C881 C 0.43093 0.65715 0.80614
 N882 N 0.41928 0.66045 0.77640
 N883 N -0.08182 0.10600 0.24196
 C884 C -0.09294 0.08057 0.25800
 N885 N -0.08899 0.07920 0.28981
 N886 N -0.07483 0.10246 0.30493
 C887 C -0.06388 0.12798 0.28889
 N888 N -0.06751 0.12917 0.25705
 N889 N 0.08392 0.39399 0.29631
 C890 C 0.10486 0.38845 0.27251
 N891 N 0.10857 0.35842 0.26191
 N892 N 0.09202 0.33496 0.27454
 C893 C 0.07088 0.34059 0.29815
 N894 N 0.06728 0.37058 0.30881
 N895 N 0.60723 0.88257 0.75933
 C896 C 0.59537 0.91255 0.76025
 N897 N 0.56784 0.91821 0.77612
 N898 N 0.55276 0.89471 0.79049
 C899 C 0.56480 0.86476 0.78975
 N900 N 0.59241 0.85920 0.77405
 N901 N 0.71387 0.59104 0.08026
 C902 C 0.74467 0.59858 0.08501
 N903 N 0.75814 0.59077 0.11327
 N904 N 0.74167 0.57616 0.13571
 C905 C 0.71088 0.56887 0.13098
 N906 N 0.69731 0.57661 0.10280
 N907 N 0.21061 1.09547 0.59175
 C908 C 0.24219 1.10051 0.59426
 N909 N 0.25743 1.09048 0.62090
 N910 N 0.24176 1.07605 0.64407
 C911 C 0.21013 1.07121 0.64164
 N912 N 0.19492 1.08120 0.61499
 N913 N 0.24526 0.90253 0.87001
 C914 C 0.23406 0.90431 0.90009
 N915 N 0.20687 0.92111 0.90540
 N916 N 0.19168 0.93570 0.88172
 C917 C 0.20291 0.93405 0.85167
 N918 N 0.22997 0.91704 0.84627
 N919 N 0.71056 0.42826 0.39652
 C920 C 0.73487 0.40762 0.39083
 N921 N 0.74362 0.40244 0.36037
 N922 N 0.72872 0.41724 0.33661
 C923 C 0.70449 0.43797 0.34234
 N924 N 0.69573 0.44314 0.37279
 N925 N 0.79216 0.41465 0.58490
 C926 C 0.76026 0.41111 0.58611
 N927 N 0.74433 0.42150 0.61207
 N928 N 0.75965 0.43488 0.63581
 C929 C 0.79159 0.43825 0.63464
 N930 N 0.80749 0.42786 0.60868
 N931 N 0.29101 -0.08689 0.09235
 C932 C 0.25926 -0.09132 0.09391
 N933 N 0.24324 -0.08111 0.11988
 N934 N 0.25834 -0.06722 0.14342
 C935 C 0.29016 -0.06320 0.14205
 N936 N 0.30614 -0.07320 0.11598
 N937 N 0.26052 0.10781 0.36982
 C938 C 0.27093 0.10500 0.40012
 N939 N 0.29643 0.08588 0.40617
 N940 N 0.31069 0.06999 0.38299
 C941 C 0.30015 0.07260 0.35274
 N942 N 0.27488 0.09202 0.34659
 N943 N 0.79815 0.58713 0.89953
 C944 C 0.77392 0.60788 0.89357
 N945 N 0.76379 0.61160 0.86327
 N946 N 0.77722 0.59520 0.83993
 C947 C 0.80123 0.57422 0.84596
 N948 N 0.81149 0.57065 0.87623
 N949 N 0.08368 0.71235 0.59993
 C950 C 0.08543 0.74414 0.60259
 N951 N 0.11118 0.75876 0.59039
 N952 N 0.13427 0.74227 0.57623
 C953 C 0.13264 0.71044 0.57384
 N954 N 0.10683 0.69585 0.58593
 N955 N 0.59553 0.20343 1.09010
 C956 C 0.60189 0.22933 1.10743
 N957 N 0.63236 0.23912 1.10882
 N958 N 0.65544 0.22376 1.09343
 C959 C 0.64899 0.19804 1.07585
 N960 N 0.61857 0.18816 1.07462
 N961 N 0.90684 0.20752 0.91252
 C962 C 0.90437 0.23917 0.90770
 N963 N 0.87743 0.25450 0.91720
 N964 N 0.85393 0.23885 0.93089
 C965 C 0.85631 0.20716 0.93545
 N966 N 0.88326 0.19185 0.92603
 N967 N 0.39678 0.69962 0.42581
 C968 C 0.39042 0.72425 0.40595
 N969 N 0.35968 0.73363 0.40182
 N970 N 0.33632 0.71913 0.41702
 C971 C 0.34274 0.69469 0.43713
 N972 N 0.37346 0.68519 0.44109
 N973 N 0.58267 0.78645 0.41596
 C974 C 0.58551 0.75488 0.41138
 N975 N 0.61254 0.73971 0.42104
 N976 N 0.63583 0.75546 0.43459
 C977 C 0.63315 0.78710 0.43880
 N978 N 0.60605 0.80224 0.42929
 N979 N 0.09730 0.29716 -0.08504
 C980 C 0.09897 0.26570 -0.09065
 N981 N 0.12522 0.24917 -0.08103
 N982 N 0.14887 0.26346 -0.06651
 C983 C 0.14735 0.29496 -0.06116
 N984 N 0.12105 0.31149 -0.07067
 N985 N 0.41240 0.28720 0.08999
 C986 C 0.40634 0.26148 0.10822
 N987 N 0.37591 0.25169 0.11050
 N988 N 0.35255 0.26692 0.09518
 C989 C 0.35868 0.29250 0.07677
 N990 N 0.38909 0.30234 0.07458
 N991 N 0.89744 0.79819 0.59032
 C992 C 0.89178 0.77339 0.60991
 N993 N 0.86157 0.76298 0.61244
 N994 N 0.83809 0.77669 0.59597
 C995 C 0.84387 0.80127 0.57610
 N996 N 0.87401 0.81180 0.57376
   
