data_POSCAR
  _audit_creation_date              2014-09-24
  _audit_creation_method            'ToBaCCo'
  _symmetry_space_group_name_H-M    'P1'
  _symmetry_Int_Tables_number       1
  _symmetry_cell_setting            triclinic
  loop_
  _symmetry_equiv_pos_as_xyz
 x,y,z
_cell_length_a 28.0766
_cell_length_b 33.5250
_cell_length_c 31.7192
_cell_angle_alpha 89.491200
_cell_angle_beta 89.641100
_cell_angle_gamma 89.821000
loop_
  _atom_site_label
  _atom_site_type_symbol
  _atom_site_fract_x
  _atom_site_fract_y
  _atom_site_fract_z
N1 N 0.28362 0.21682 0.17673
 N2 N 0.26961 0.25429 0.17417
 C3 C 0.28342 0.26974 0.13666
 C4 C 0.30782 0.24039 0.11533
 C5 C 0.30771 0.20725 0.14140
 H6 H 0.27779 0.30024 0.12645
 H7 H 0.32399 0.17860 0.13524
 Cu8 Cu 0.23806 0.27995 0.22149
 Cu9 Cu 0.26893 0.18292 0.22526
 Cu10 Cu 0.20052 0.22510 0.30443
 N11 N 0.19437 0.30172 0.26324
 N12 N 0.17977 0.27988 0.29545
 C13 C 0.14480 0.29936 0.31590
 C14 C 0.13763 0.33537 0.29579
 C15 C 0.16934 0.33611 0.26229
 H16 H 0.12313 0.28675 0.34095
 H17 H 0.17045 0.35777 0.23682
 N18 N 0.22476 0.17006 0.30746
 N19 N 0.25009 0.15363 0.27688
 C20 C 0.25889 0.11517 0.28700
 C21 C 0.23826 0.10757 0.32567
 C22 C 0.21698 0.14268 0.33806
 H23 H 0.27839 0.09423 0.26769
 H24 H 0.19664 0.14758 0.36661
 H25 H 0.20798 0.21431 0.24056
 H26 H 0.26333 0.22697 0.26991
 N27 N 0.74135 -0.21585 0.16788
 N28 N 0.75633 -0.25295 0.16478
 C29 C 0.72948 -0.27221 0.13644
 C30 C 0.69673 -0.24541 0.12059
 C31 C 0.70457 -0.21008 0.14139
 H32 H 0.73093 -0.30397 0.13076
 H33 H 0.68268 -0.18348 0.14026
 Cu34 Cu 0.80431 -0.27431 0.20265
 Cu35 Cu 0.76672 -0.17987 0.21027
 Cu36 Cu 0.82129 -0.22795 0.29469
 N37 N 0.83484 -0.30111 0.24962
 N38 N 0.84035 -0.28325 0.28609
 C39 C 0.86026 -0.30900 0.31377
 C40 C 0.86711 -0.34439 0.29298
 C41 C 0.85086 -0.33891 0.25257
 H42 H 0.86860 -0.30254 0.34624
 H43 H 0.84982 -0.36070 0.22764
 N44 N 0.79997 -0.17189 0.29662
 N45 N 0.78059 -0.15327 0.26399
 C46 C 0.77057 -0.11535 0.27469
 C47 C 0.78430 -0.11027 0.31585
 C48 C 0.80277 -0.14635 0.32910
 H49 H 0.75379 -0.09343 0.25441
 H50 H 0.81701 -0.15339 0.35988
 H51 H 0.82687 -0.20989 0.23316
 H52 H 0.76707 -0.22762 0.25065
 N53 N 0.72450 0.21025 0.81639
 N54 N 0.74697 0.24359 0.82496
 C55 C 0.72984 0.25853 0.86134
 C56 C 0.69442 0.23338 0.87554
 C57 C 0.69164 0.20302 0.84660
 H58 H 0.74152 0.28589 0.87576
 H59 H 0.66823 0.17747 0.84777
 Cu60 Cu 0.79445 0.26567 0.78662
 Cu61 Cu 0.74169 0.17784 0.76800
 Cu62 Cu 0.81225 0.22276 0.69180
 N63 N 0.82431 0.29418 0.73996
 N64 N 0.83077 0.27770 0.70277
 C65 C 0.85030 0.30472 0.67610
 C66 C 0.85606 0.33944 0.69829
 C67 C 0.83934 0.33227 0.73844
 H68 H 0.85870 0.29967 0.64325
 H69 H 0.83717 0.35319 0.76415
 N70 N 0.78972 0.16727 0.68740
 N71 N 0.76332 0.15003 0.71700
 C72 C 0.75507 0.11193 0.70626
 C73 C 0.77695 0.10530 0.66812
 C74 C 0.79860 0.14069 0.65663
 H75 H 0.73472 0.09063 0.72469
 H76 H 0.81959 0.14641 0.62853
 H77 H 0.80835 0.20171 0.75316
 H78 H 0.75482 0.22874 0.73192
 N79 N 0.28511 -0.22782 0.81651
 N80 N 0.25804 -0.25748 0.82964
 C81 C 0.27660 -0.27328 0.86513
 C82 C 0.31785 -0.25289 0.87393
 C83 C 0.32234 -0.22408 0.84280
 H84 H 0.26035 -0.29662 0.88401
 H85 H 0.34846 -0.20046 0.84128
 Cu86 Cu 0.19963 -0.27129 0.80063
 Cu87 Cu 0.26582 -0.19272 0.77030
 Cu88 Cu 0.17206 -0.22462 0.70919
 N89 N 0.15385 -0.29340 0.76146
 N90 N 0.14348 -0.27537 0.72562
 C91 C 0.11491 -0.29908 0.70288
 C92 C 0.10668 -0.33325 0.72621
 C93 C 0.13234 -0.32926 0.76280
 H94 H 0.10402 -0.29323 0.67076
 H95 H 0.13800 -0.35181 0.78687
 N96 N 0.20574 -0.17400 0.69837
 N97 N 0.24086 -0.16141 0.72238
 C98 C 0.25479 -0.12505 0.70883
 C99 C 0.22755 -0.11491 0.67449
 C100 C 0.19682 -0.14631 0.66833
 H101 H 0.28247 -0.10727 0.72284
 H102 H 0.16949 -0.14835 0.64459
 H103 H 0.19348 -0.20552 0.76801
 H104 H 0.23479 -0.23984 0.73891
 N105 N 0.74284 -0.19485 0.84402
 N106 N 0.77566 -0.21808 0.86080
 C107 C 0.76160 -0.22947 0.89975
 C108 C 0.71764 -0.21256 0.90734
 C109 C 0.70642 -0.19081 0.87156
 H110 H 0.78039 -0.25047 0.91974
 H111 H 0.67381 -0.17457 0.86546
 Cu112 Cu 0.82963 -0.23652 0.82766
 Cu113 Cu 0.74952 -0.17281 0.78719
 Cu114 Cu 0.83947 -0.21232 0.72498
 N115 N 0.86743 -0.26855 0.78909
 N116 N 0.86955 -0.26018 0.74850
 C117 C 0.89060 -0.29081 0.72826
 C118 C 0.90271 -0.31936 0.75802
 C119 C 0.88708 -0.30465 0.79611
 H120 H 0.89263 -0.29370 0.69435
 H121 H 0.88500 -0.32085 0.82572
 N122 N 0.79665 -0.16936 0.70504
 N123 N 0.76274 -0.15408 0.72917
 C124 C 0.74384 -0.12204 0.70956
 C125 C 0.76630 -0.11749 0.67120
 C126 C 0.79976 -0.14772 0.66905
 H127 H 0.71820 -0.10179 0.72337
 H128 H 0.82688 -0.15145 0.64504
 H129 H 0.78375 -0.22317 0.76474
 H130 H 0.82209 -0.17990 0.77885
 N131 N 0.28045 0.22860 0.80867
 N132 N 0.25484 0.26052 0.81723
 C133 C 0.26951 0.27591 0.85411
 C134 C 0.30690 0.25282 0.86826
 C135 C 0.31307 0.22308 0.83903
 H136 H 0.25386 0.30138 0.86970
 H137 H 0.33746 0.19812 0.84102
 Cu138 Cu 0.20471 0.27822 0.77923
 Cu139 Cu 0.26578 0.19338 0.76220
 Cu140 Cu 0.17418 0.22243 0.69596
 N141 N 0.15358 0.29441 0.74157
 N142 N 0.14120 0.27194 0.70961
 C143 C 0.10378 0.28876 0.68984
 C144 C 0.09291 0.32367 0.71024
 C145 C 0.12487 0.32672 0.74290
 H146 H 0.08586 0.27655 0.66279
 H147 H 0.12635 0.35004 0.76618
 N148 N 0.21180 0.17331 0.68749
 N149 N 0.24567 0.16160 0.71362
 C150 C 0.26141 0.12522 0.70212
 C151 C 0.23691 0.11426 0.66671
 C152 C 0.20573 0.14507 0.65801
 H153 H 0.28781 0.10766 0.71868
 H154 H 0.17914 0.14586 0.63350
 H155 H 0.23812 0.23717 0.72311
 H156 H 0.19471 0.20931 0.75700
 N157 N 0.28056 -0.21986 0.17462
 N158 N 0.25575 -0.25179 0.16517
 C159 C 0.27024 -0.26539 0.12729
 C160 C 0.30623 -0.24084 0.11311
 C161 C 0.31225 -0.21233 0.14360
 H162 H 0.25658 -0.29150 0.11173
 H163 H 0.33739 -0.18796 0.14313
 Cu164 Cu 0.20865 -0.27327 0.20438
 Cu165 Cu 0.26902 -0.18945 0.22555
 Cu166 Cu 0.18414 -0.22621 0.29529
 N167 N 0.16174 -0.29413 0.24413
 N168 N 0.15167 -0.27498 0.27918
 C169 C 0.11651 -0.29422 0.29991
 C170 C 0.10474 -0.32724 0.27683
 C171 C 0.13378 -0.32667 0.24162
 H172 H 0.10051 -0.28479 0.32929
 H173 H 0.13356 -0.34755 0.21583
 N174 N 0.22087 -0.17728 0.30585
 N175 N 0.25234 -0.16279 0.27864
 C176 C 0.26779 -0.12722 0.29237
 C177 C 0.24558 -0.11959 0.33016
 C178 C 0.21597 -0.15158 0.33807
 H179 H 0.29185 -0.10760 0.27545
 H180 H 0.19080 -0.15462 0.36383
 H181 H 0.24588 -0.23722 0.26184
 H182 H 0.19905 -0.20706 0.23461
 N183 N 0.70071 0.22349 0.18143
 N184 N 0.72164 0.25823 0.17570
 C185 C 0.70993 0.27309 0.13749
 C186 C 0.67928 0.24645 0.11924
 C187 C 0.67390 0.21538 0.14761
 H188 H 0.72220 0.30115 0.12439
 H189 H 0.65334 0.18850 0.14340
 Cu190 Cu 0.76070 0.28108 0.21939
 Cu191 Cu 0.71307 0.18961 0.23034
 Cu192 Cu 0.79573 0.22448 0.30156
 N193 N 0.81169 0.29782 0.25600
 N194 N 0.82595 0.27512 0.28758
 C195 C 0.86446 0.29166 0.30534
 C196 C 0.87399 0.32663 0.28399
 C197 C 0.84021 0.32995 0.25279
 H198 H 0.88485 0.27861 0.33081
 H199 H 0.83816 0.35261 0.22837
 N200 N 0.76120 0.17393 0.30972
 N201 N 0.73086 0.15993 0.28182
 C202 C 0.71802 0.12266 0.29338
 C203 C 0.74073 0.11348 0.33054
 C204 C 0.76782 0.14633 0.34024
 H205 H 0.69561 0.10308 0.27531
 H206 H 0.79287 0.14872 0.36584
 H207 H 0.73099 0.23375 0.27225
 H208 H 0.78026 0.21284 0.23920
 C209 C 0.22816 -0.00610 0.38719
 C210 C 0.22076 0.03024 0.40763
 C211 C 0.21287 0.03064 0.45118
 C212 C 0.21581 -0.00468 0.47580
 C213 C 0.22273 -0.04104 0.45418
 C214 C 0.22784 -0.04191 0.41027
 C215 C 0.21411 -0.00331 0.52341
 C216 C 0.20846 -0.03838 0.54807
 C217 C 0.21313 -0.03775 0.59199
 C218 C 0.22007 -0.00137 0.61247
 C219 C 0.22223 0.03419 0.58908
 C220 C 0.22037 0.03300 0.54509
 H221 H 0.23271 -0.00659 0.35328
 H222 H 0.20516 0.05919 0.46507
 H223 H 0.22536 -0.06920 0.47069
 H224 H 0.20128 -0.06685 0.53391
 H225 H 0.22202 -0.00061 0.64654
 H226 H 0.22504 0.06100 0.52866
 C227 C 0.78519 -0.00739 0.60781
 C228 C 0.79098 0.02880 0.58610
 C229 C 0.79430 0.02891 0.54216
 C230 C 0.78792 -0.00644 0.51885
 C231 C 0.78308 -0.04277 0.54159
 C232 C 0.78250 -0.04336 0.58580
 C233 C 0.78393 -0.00482 0.47152
 C234 C 0.79102 -0.03906 0.44649
 C235 C 0.78401 -0.03771 0.40274
 C236 C 0.77188 -0.00143 0.38312
 C237 C 0.76650 0.03316 0.40704
 C238 C 0.77142 0.03116 0.45076
 H239 H 0.78405 -0.00765 0.64193
 H240 H 0.80086 0.05722 0.52673
 H241 H 0.77823 -0.07077 0.52562
 H242 H 0.80201 -0.06711 0.46040
 H243 H 0.76794 0.00016 0.34922
 H244 H 0.76442 0.05818 0.46801
 C245 C 0.36895 0.23547 -0.00991
 C246 C 0.39227 0.22560 0.02767
 C247 C 0.44135 0.21855 0.02733
 C248 C 0.46890 0.22465 -0.00955
 C249 C 0.44451 0.23340 -0.04729
 C250 C 0.39491 0.23770 -0.04778
 C251 C 0.52245 0.22402 -0.00806
 C252 C 0.55052 0.21930 -0.04486
 C253 C 0.60015 0.22371 -0.04374
 C254 C 0.62279 0.23046 -0.00517
 C255 C 0.59588 0.23233 0.03202
 C256 C 0.54634 0.23008 0.03034
 H257 H 0.33062 0.23912 -0.00999
 H258 H 0.45749 0.20918 0.05662
 H259 H 0.46338 0.23761 -0.07676
 H260 H 0.53446 0.21273 -0.07485
 H261 H 0.66126 0.23223 -0.00385
 H262 H 0.52715 0.23409 0.05960
 C263 C 0.63166 0.76421 0.01624
 C264 C 0.60094 0.75052 0.04817
 C265 C 0.55189 0.75067 0.04143
 C266 C 0.53218 0.76688 0.00429
 C267 C 0.56343 0.78072 -0.02751
 C268 C 0.61300 0.77837 -0.02220
 C269 C 0.47925 0.76837 -0.00059
 C270 C 0.45712 0.76366 -0.04010
 C271 C 0.40726 0.76119 -0.04294
 C272 C 0.37941 0.76271 -0.00605
 C273 C 0.40082 0.76900 0.03302
 C274 C 0.45012 0.77299 0.03536
 H275 H 0.66980 0.76289 0.02092
 H276 H 0.52921 0.73809 0.06582
 H277 H 0.54959 0.79287 -0.05671
 H278 H 0.47826 0.76081 -0.06857
 H279 H 0.34099 0.76083 -0.00790
 H280 H 0.46559 0.77886 0.06585
 C281 C 0.00432 0.39049 0.28192
 C282 C 0.04599 0.41323 0.28454
 C283 C 0.04285 0.45498 0.28494
 C284 C -0.00190 0.47418 0.28213
 C285 C -0.04286 0.45057 0.27649
 C286 C -0.04005 0.40903 0.27760
 C287 C -0.00672 0.51832 0.28667
 C288 C -0.04827 0.53450 0.30509
 C289 C -0.05488 0.57564 0.30770
 C290 C -0.01815 0.60132 0.29509
 C291 C 0.02468 0.58591 0.27892
 C292 C 0.02963 0.54464 0.27337
 H293 H 0.00658 0.35825 0.28143
 H294 H 0.07516 0.47203 0.28874
 H295 H -0.07747 0.46421 0.27200
 H296 H -0.07638 0.51533 0.31688
 H297 H -0.02284 0.63325 0.29812
 H298 H 0.06208 0.53336 0.25920
 C299 C -0.00509 0.60484 0.72136
 C300 C 0.03387 0.58270 0.70581
 C301 C 0.02870 0.54184 0.69820
 C302 C -0.01445 0.52229 0.70693
 C303 C -0.05291 0.54471 0.72253
 C304 C -0.04884 0.58572 0.72926
 C305 C -0.01943 0.47855 0.70052
 C306 C -0.06247 0.46267 0.68564
 C307 C -0.06881 0.42144 0.68267
 C308 C -0.03090 0.39565 0.69228
 C309 C 0.01289 0.41100 0.70572
 C310 C 0.01809 0.45223 0.71063
 H311 H -0.00154 0.63652 0.72678
 H312 H 0.05870 0.52534 0.68553
 H313 H -0.08641 0.53030 0.73007
 H314 H -0.09176 0.48223 0.67728
 H315 H -0.03558 0.36374 0.68950
 H316 H 0.05141 0.46361 0.72255
 N317 N 0.33220 0.24487 0.07595
 N318 N 0.36690 0.22203 0.06672
 N319 N 0.65676 0.74479 0.10261
 N320 N 0.61816 0.73522 0.08753
 N321 N 0.66691 0.23793 -0.08682
 N322 N 0.62711 0.22036 -0.08201
 N323 N 0.34309 0.74525 -0.08718
 N324 N 0.38491 0.75931 -0.08340
 N325 N 0.09519 0.35849 0.29954
 N326 N 0.09148 0.39377 0.28484
 N327 N 0.09148 0.63297 0.71120
 N328 N 0.07915 0.60058 0.69691
 N329 N -0.11574 0.62252 0.30871
 N330 N -0.09966 0.59076 0.32235
 N331 N -0.12862 0.37362 0.68364
 N332 N -0.11449 0.40638 0.67097
 N333 N 0.23808 0.07025 0.34764
 N334 N 0.22141 0.06735 0.38492
 N335 N 0.77661 0.06861 0.64572
 N336 N 0.79206 0.06596 0.60806
 N337 N 0.23028 -0.07841 0.65113
 N338 N 0.21088 -0.07455 0.61519
 N339 N 0.77897 -0.07468 0.33980
 N340 N 0.78950 -0.07351 0.37875
 N341 N 0.68741 0.77861 -0.05746
 N342 N 0.64365 0.78862 -0.05695
 N343 N 0.33006 0.25533 -0.09195
 N344 N 0.37146 0.24045 -0.08757
 N345 N 0.33302 0.75489 0.07508
 N346 N 0.37320 0.77190 0.07087
 N347 N 0.65805 0.24968 0.07865
 N348 N 0.61800 0.23330 0.07239
 N349 N -0.09211 0.64265 0.75037
 N350 N -0.09025 0.60646 0.74414
 N351 N -0.08504 0.35095 0.28947
 N352 N -0.08250 0.38590 0.27375
 N353 N 0.05459 0.35006 0.70015
 N354 N 0.05216 0.38510 0.71513
 N355 N 0.06739 0.64547 0.28676
 N356 N 0.06354 0.61191 0.26869
 N357 N 0.76462 -0.08211 0.64593
 N358 N 0.78046 -0.08064 0.60828
 N359 N 0.24646 -0.08258 0.35198
 N360 N 0.23067 -0.07962 0.38950
 N361 N 0.74323 0.07509 0.35018
 N362 N 0.75918 0.07129 0.38744
 N363 N 0.23906 0.07634 0.64667
 N364 N 0.22396 0.07219 0.60926
   
