data_POSCAR
  _audit_creation_date              2014-09-24
  _audit_creation_method            'ToBaCCo'
  _symmetry_space_group_name_H-M    'P1'
  _symmetry_Int_Tables_number       1
  _symmetry_cell_setting            triclinic
  loop_
  _symmetry_equiv_pos_as_xyz
 x,y,z
_cell_length_a 47.1086
_cell_length_b 47.1369
_cell_length_c 47.1406
_cell_angle_alpha 89.986100
_cell_angle_beta 90.000100
_cell_angle_gamma 90.009500
loop_
  _atom_site_label
  _atom_site_type_symbol
  _atom_site_fract_x
  _atom_site_fract_y
  _atom_site_fract_z
C1 C 0.27413 0.23806 0.23766
 C2 C 0.26198 0.22591 0.26196
 C3 C 0.23798 0.23792 0.27398
 C4 C 0.22583 0.26222 0.26184
 C5 C 0.23783 0.27422 0.23783
 C6 C 0.26212 0.26208 0.22567
 C7 C 0.29740 0.23095 0.22148
 N8 N 0.29962 0.25007 0.20015
 C9 C 0.27828 0.26919 0.20239
 C10 C 0.22167 0.29750 0.23073
 N11 N 0.20033 0.29973 0.24985
 C12 C 0.20255 0.27839 0.26896
 C13 C 0.23087 0.22174 0.29725
 N14 N 0.24998 0.20040 0.29945
 C15 C 0.26909 0.20262 0.27811
 H16 H 0.31165 0.21326 0.22491
 H17 H 0.27484 0.28689 0.18815
 H18 H 0.22511 0.31175 0.21304
 H19 H 0.18830 0.27495 0.28666
 H20 H 0.21318 0.22518 0.31150
 H21 H 0.28678 0.18837 0.27465
 C22 C 0.72538 -0.23832 0.23719
 C23 C 0.73754 -0.22617 0.26148
 C24 C 0.76160 -0.23814 0.27344
 C25 C 0.77379 -0.26238 0.26127
 C26 C 0.76178 -0.27440 0.23726
 C27 C 0.73743 -0.26230 0.22516
 C28 C 0.70204 -0.23125 0.22107
 N29 N 0.69985 -0.25036 0.19974
 C30 C 0.72124 -0.26944 0.20190
 C31 C 0.77799 -0.29764 0.23011
 N32 N 0.79936 -0.29981 0.24921
 C33 C 0.79713 -0.27850 0.26835
 C34 C 0.76871 -0.22198 0.29672
 N35 N 0.74954 -0.20069 0.29898
 C36 C 0.73040 -0.20293 0.27767
 H37 H 0.68776 -0.21358 0.22458
 H38 H 0.72472 -0.28713 0.18765
 H39 H 0.77453 -0.31187 0.21241
 H40 H 0.81138 -0.27502 0.28604
 H41 H 0.78643 -0.22540 0.31094
 H42 H 0.71267 -0.18872 0.27427
 C43 C 0.72618 0.23880 0.76226
 C44 C 0.73840 0.22663 0.73802
 C45 C 0.76244 0.23864 0.72606
 C46 C 0.77454 0.26296 0.73818
 C47 C 0.76246 0.27499 0.76215
 C48 C 0.73814 0.26284 0.77425
 C49 C 0.70286 0.23167 0.77838
 N50 N 0.70058 0.25082 0.79967
 C51 C 0.72191 0.26997 0.79749
 C52 C 0.77860 0.29830 0.76927
 N53 N 0.79998 0.30050 0.75019
 C54 C 0.79784 0.27914 0.73109
 C55 C 0.76962 0.22245 0.70283
 N56 N 0.75052 0.20109 0.70060
 C57 C 0.73135 0.20333 0.72189
 H58 H 0.68864 0.21394 0.77491
 H59 H 0.72533 0.28770 0.81171
 H60 H 0.77507 0.31256 0.78694
 H61 H 0.81213 0.27566 0.71343
 H62 H 0.78734 0.22588 0.68861
 H63 H 0.71365 0.18907 0.72532
 C64 C 0.27422 -0.23895 0.76314
 C65 C 0.26208 -0.22680 0.73885
 C66 C 0.23800 -0.23873 0.72689
 C67 C 0.22577 -0.26296 0.73909
 C68 C 0.23776 -0.27497 0.76311
 C69 C 0.26213 -0.26290 0.77521
 C70 C 0.29756 -0.23188 0.77926
 N71 N 0.29972 -0.25098 0.80062
 C72 C 0.27830 -0.27004 0.79848
 C73 C 0.22150 -0.29818 0.77029
 N74 N 0.20013 -0.30033 0.75119
 C75 C 0.20240 -0.27904 0.73202
 C76 C 0.23092 -0.22258 0.70360
 N77 N 0.25012 -0.20131 0.70132
 C78 C 0.26926 -0.20357 0.72264
 H79 H 0.31186 -0.21423 0.77574
 H80 H 0.27478 -0.28771 0.81275
 H81 H 0.22493 -0.31241 0.78801
 H82 H 0.18816 -0.27555 0.71433
 H83 H 0.21319 -0.22597 0.68939
 H84 H 0.28701 -0.18938 0.72604
 C85 C 0.72546 -0.23852 0.76303
 C86 C 0.73762 -0.22637 0.73875
 C87 C 0.76167 -0.23833 0.72678
 C88 C 0.77386 -0.26259 0.73895
 C89 C 0.76184 -0.27461 0.76296
 C90 C 0.73751 -0.26251 0.77507
 C91 C 0.70213 -0.23145 0.77916
 N92 N 0.69994 -0.25057 0.80050
 C93 C 0.72132 -0.26966 0.79833
 C94 C 0.77805 -0.29786 0.77010
 N95 N 0.79941 -0.30003 0.75099
 C96 C 0.79718 -0.27871 0.73185
 C97 C 0.76878 -0.22216 0.70350
 N98 N 0.74962 -0.20087 0.70124
 C99 C 0.73048 -0.20311 0.72256
 H100 H 0.68786 -0.21377 0.77566
 H101 H 0.72480 -0.28735 0.81257
 H102 H 0.77459 -0.31210 0.78780
 H103 H 0.81143 -0.27523 0.71416
 H104 H 0.78649 -0.22558 0.68927
 H105 H 0.71275 -0.18890 0.72597
 C106 C 0.27454 0.23816 0.76237
 C107 C 0.26232 0.22598 0.73814
 C108 C 0.23826 0.23795 0.72619
 C109 C 0.22613 0.26224 0.73834
 C110 C 0.23820 0.27428 0.76229
 C111 C 0.26255 0.26217 0.77438
 C112 C 0.29789 0.23108 0.77847
 N113 N 0.30014 0.25023 0.79977
 C114 C 0.27878 0.26933 0.79761
 C115 C 0.22202 0.29754 0.76942
 N116 N 0.20062 0.29972 0.75037
 C117 C 0.20280 0.27837 0.73128
 C118 C 0.23109 0.22175 0.70296
 N119 N 0.25022 0.20043 0.70071
 C120 C 0.26940 0.20269 0.72199
 H121 H 0.31214 0.21338 0.77498
 H122 H 0.27534 0.28704 0.81183
 H123 H 0.22550 0.31181 0.78708
 H124 H 0.18850 0.27490 0.71364
 H125 H 0.21334 0.22516 0.68877
 H126 H 0.28712 0.18846 0.72540
 C127 C 0.27430 -0.23876 0.23709
 C128 C 0.26216 -0.22662 0.26137
 C129 C 0.23807 -0.23854 0.27331
 C130 C 0.22582 -0.26275 0.26111
 C131 C 0.23782 -0.27476 0.23710
 C132 C 0.26220 -0.26270 0.22502
 C133 C 0.29766 -0.23171 0.22098
 N134 N 0.29981 -0.25080 0.19962
 C135 C 0.27838 -0.26984 0.20175
 C136 C 0.22155 -0.29796 0.22992
 N137 N 0.20017 -0.30010 0.24901
 C138 C 0.20244 -0.27882 0.26817
 C139 C 0.23099 -0.22239 0.29660
 N140 N 0.25020 -0.20114 0.29890
 C141 C 0.26935 -0.20340 0.27759
 H142 H 0.31197 -0.21407 0.22450
 H143 H 0.27485 -0.28750 0.18748
 H144 H 0.22498 -0.31218 0.21220
 H145 H 0.18819 -0.27532 0.28586
 H146 H 0.21325 -0.22579 0.31081
 H147 H 0.28712 -0.18922 0.27421
 C148 C 0.72660 0.23868 0.23777
 C149 C 0.73875 0.22655 0.26207
 C150 C 0.76272 0.23860 0.27411
 C151 C 0.77483 0.26293 0.26201
 C152 C 0.76283 0.27493 0.23798
 C153 C 0.73857 0.26273 0.22580
 C154 C 0.70336 0.23152 0.22156
 N155 N 0.70112 0.25064 0.20024
 C156 C 0.72241 0.26981 0.20250
 C157 C 0.77895 0.29825 0.23089
 N158 N 0.80026 0.30050 0.25005
 C159 C 0.79808 0.27915 0.26916
 C160 C 0.76983 0.22243 0.29739
 N161 N 0.75076 0.20104 0.29956
 C162 C 0.73167 0.20324 0.27820
 H163 H 0.68914 0.21379 0.22497
 H164 H 0.72584 0.28752 0.18827
 H165 H 0.77547 0.31249 0.21319
 H166 H 0.81232 0.27571 0.28688
 H167 H 0.78750 0.22590 0.31166
 H168 H 0.71401 0.18895 0.27472
 O169 O 0.27361 0.02697 0.47252
 O170 O 0.27369 -0.02829 0.52777
 O171 O 0.27368 -0.02828 0.47251
 O172 O 0.27362 0.02697 0.52776
 O173 O 0.22667 0.02690 0.52777
 O174 O 0.22674 -0.02834 0.47252
 O175 O 0.22674 -0.02836 0.52778
 O176 O 0.22666 0.02691 0.47253
 Cu177 Cu 0.27839 -0.00065 0.50014
 Cu178 Cu 0.22197 -0.00073 0.50015
 C179 C 0.25012 0.03627 0.46320
 C180 C 0.25023 -0.03764 0.53711
 C181 C 0.25022 -0.03763 0.46318
 C182 C 0.25014 0.03626 0.53708
 O183 O 0.72676 0.02758 0.52777
 O184 O 0.72650 -0.02767 0.47252
 O185 O 0.72651 -0.02768 0.52778
 O186 O 0.72676 0.02758 0.47253
 O187 O 0.77371 0.02738 0.47253
 O188 O 0.77346 -0.02789 0.52778
 O189 O 0.77345 -0.02788 0.47252
 O190 O 0.77371 0.02737 0.52777
 Cu191 Cu 0.72190 -0.00003 0.50015
 Cu192 Cu 0.77832 -0.00028 0.50015
 C193 C 0.75028 0.03681 0.53708
 C194 C 0.74993 -0.03709 0.46319
 C195 C 0.74994 -0.03711 0.53711
 C196 C 0.75027 0.03681 0.46321
 O197 O 0.47274 0.27389 0.02676
 O198 O 0.52802 0.27407 -0.02850
 O199 O 0.47273 0.27398 -0.02849
 O200 O 0.52802 0.27399 0.02675
 O201 O 0.52809 0.22707 0.02669
 O202 O 0.47280 0.22706 -0.02855
 O203 O 0.52809 0.22715 -0.02855
 O204 O 0.47281 0.22697 0.02670
 Cu205 Cu 0.50037 0.27872 -0.00087
 Cu206 Cu 0.50046 0.22233 -0.00094
 C207 C 0.46345 0.25040 0.03606
 C208 C 0.53739 0.25064 -0.03785
 C209 C 0.46343 0.25051 -0.03784
 C210 C 0.53738 0.25053 0.03605
 O211 O 0.52757 0.72579 0.02772
 O212 O 0.47227 0.72567 -0.02752
 O213 O 0.52756 0.72576 -0.02753
 O214 O 0.47228 0.72571 0.02773
 O215 O 0.47222 0.77263 0.02768
 O216 O 0.52750 0.77267 -0.02758
 O217 O 0.47220 0.77259 -0.02756
 O218 O 0.52751 0.77271 0.02768
 Cu219 Cu 0.49992 0.72100 0.00010
 Cu220 Cu 0.49985 0.77739 0.00005
 C221 C 0.53687 0.74927 0.03702
 C222 C 0.46290 0.74911 -0.03686
 C223 C 0.53686 0.74922 -0.03688
 C224 C 0.46292 0.74916 0.03703
 O225 O 0.02725 0.47328 0.27298
 O226 O -0.02804 0.52852 0.27283
 O227 O -0.02802 0.47326 0.27305
 O228 O 0.02727 0.52853 0.27277
 O229 O 0.02721 0.52836 0.22585
 O230 O -0.02808 0.47310 0.22613
 O231 O -0.02809 0.52836 0.22592
 O232 O 0.02720 0.47311 0.22606
 Cu233 Cu -0.00038 0.50092 0.27764
 Cu234 Cu -0.00045 0.50072 0.22126
 C235 C 0.03655 0.46386 0.24954
 C236 C -0.03740 0.53776 0.24935
 C237 C -0.03737 0.46384 0.24963
 C238 C 0.03658 0.53776 0.24926
 O239 O 0.02727 0.52825 0.72750
 O240 O -0.02803 0.47299 0.72726
 O241 O -0.02803 0.52825 0.72745
 O242 O 0.02725 0.47300 0.72731
 O243 O 0.02721 0.47283 0.77422
 O244 O -0.02808 0.52808 0.77436
 O245 O -0.02807 0.47282 0.77417
 O246 O 0.02723 0.52808 0.77441
 Cu247 Cu -0.00038 0.50065 0.72264
 Cu248 Cu -0.00043 0.50044 0.77903
 C249 C 0.03659 0.53748 0.75099
 C250 C -0.03737 0.46358 0.75067
 C251 C -0.03739 0.53749 0.75093
 C252 C 0.03656 0.46359 0.75074
 C253 C 0.32063 0.25008 0.17912
 C254 C 0.33871 0.25010 0.16102
 C255 C 0.36028 0.25014 0.13940
 C256 C 0.35777 0.26818 0.11590
 C257 C 0.37874 0.26822 0.09489
 C258 C 0.40229 0.25023 0.09730
 C259 C 0.40479 0.23220 0.12080
 C260 C 0.38383 0.23215 0.14181
 C261 C 0.42386 0.25028 0.07568
 C262 C 0.44194 0.25033 0.05758
 H263 H 0.33965 0.28218 0.11383
 H264 H 0.37659 0.28225 0.07681
 H265 H 0.42292 0.21820 0.12286
 H266 H 0.38597 0.21813 0.15989
 C267 C 0.67991 0.74960 0.17989
 C268 C 0.66178 0.74957 0.16183
 C269 C 0.64016 0.74954 0.14026
 C270 C 0.64186 0.76852 0.11744
 C271 C 0.62086 0.76847 0.09647
 C272 C 0.59808 0.74943 0.09822
 C273 C 0.59638 0.73046 0.12104
 C274 C 0.61738 0.73051 0.14202
 C275 C 0.57648 0.74937 0.07663
 C276 C 0.55839 0.74932 0.05854
 H277 H 0.65939 0.78332 0.11588
 H278 H 0.62238 0.78323 0.07891
 H279 H 0.57885 0.71565 0.12260
 H280 H 0.61586 0.71574 0.15957
 C281 C 0.68064 0.25081 -0.18048
 C282 C 0.66251 0.25082 -0.16244
 C283 C 0.64085 0.25082 -0.14091
 C284 C 0.61752 0.23252 -0.14322
 C285 C 0.59648 0.23251 -0.12229
 C286 C 0.59868 0.25079 -0.09896
 C287 C 0.62200 0.26909 -0.09665
 C288 C 0.64304 0.26911 -0.11759
 C289 C 0.57704 0.25075 -0.07741
 C290 C 0.55893 0.25071 -0.05934
 H291 H 0.61561 0.21829 -0.16117
 H292 H 0.57853 0.21826 -0.12428
 H293 H 0.62391 0.28332 -0.07870
 H294 H 0.66099 0.28335 -0.11559
 C295 C 0.31965 0.74898 -0.17952
 C296 C 0.33777 0.74897 -0.16146
 C297 C 0.35941 0.74897 -0.13990
 C298 C 0.38371 0.73214 -0.14316
 C299 C 0.40475 0.73216 -0.12222
 C300 C 0.40157 0.74901 -0.09794
 C301 C 0.37727 0.76583 -0.09468
 C302 C 0.35623 0.76581 -0.11562
 C303 C 0.42322 0.74903 -0.07640
 C304 C 0.44134 0.74907 -0.05835
 H305 H 0.38638 0.71904 -0.16185
 H306 H 0.42345 0.71907 -0.12495
 H307 H 0.37460 0.77893 -0.07599
 H308 H 0.33753 0.77890 -0.11289
 C309 C 0.17931 0.32076 0.24985
 C310 C 0.16123 0.33885 0.24984
 C311 C 0.13966 0.36046 0.24980
 C312 C 0.13335 0.37526 0.27479
 C313 C 0.11239 0.39628 0.27474
 C314 C 0.09767 0.40259 0.24970
 C315 C 0.10398 0.38780 0.22471
 C316 C 0.12493 0.36678 0.22475
 C317 C 0.07612 0.42422 0.24964
 C318 C 0.05805 0.44233 0.24960
 H319 H 0.14461 0.37054 0.29427
 H320 H 0.10768 0.40759 0.29418
 H321 H 0.09272 0.39251 0.20522
 H322 H 0.12965 0.35547 0.20531
 C323 C 0.18015 0.67985 0.75122
 C324 C 0.16198 0.66184 0.75124
 C325 C 0.14028 0.64035 0.75122
 C326 C 0.12992 0.62959 0.77693
 C327 C 0.10883 0.60870 0.77690
 C328 C 0.09800 0.59849 0.75117
 C329 C 0.10836 0.60925 0.72546
 C330 C 0.12945 0.63014 0.72549
 C331 C 0.07632 0.57698 0.75113
 C332 C 0.05816 0.55895 0.75108
 H333 H 0.13814 0.63733 0.79694
 H334 H 0.10097 0.60052 0.79690
 H335 H 0.10014 0.60150 0.70544
 H336 H 0.13731 0.63831 0.70549
 C337 C -0.18070 0.68034 0.24919
 C338 C -0.16256 0.66230 0.24918
 C339 C -0.14091 0.64077 0.24920
 C340 C -0.12819 0.63245 0.27474
 C341 C -0.10714 0.61152 0.27476
 C342 C -0.09873 0.59883 0.24924
 C343 C -0.11145 0.60715 0.22369
 C344 C -0.13250 0.62808 0.22367
 C345 C -0.07708 0.57729 0.24926
 C346 C -0.05895 0.55924 0.24930
 H347 H -0.13453 0.64212 0.29460
 H348 H -0.09744 0.60524 0.29464
 H349 H -0.10511 0.59748 0.20383
 H350 H -0.14220 0.63436 0.20380
 C351 C -0.18014 0.32041 0.75021
 C352 C -0.16206 0.33853 0.75024
 C353 C -0.14050 0.36016 0.75029
 C354 C -0.11178 0.35260 0.74867
 C355 C -0.09083 0.37362 0.74874
 C356 C -0.09850 0.40229 0.75043
 C357 C -0.12722 0.40985 0.75204
 C358 C -0.14818 0.38882 0.75197
 C359 C -0.07694 0.42392 0.75050
 C360 C -0.05888 0.44204 0.75058
 H361 H -0.10561 0.33050 0.74737
 H362 H -0.06868 0.36755 0.74749
 H363 H -0.13340 0.43195 0.75335
 H364 H -0.17032 0.39490 0.75323
 C365 C 0.24997 0.17936 0.32045
 C366 C 0.24998 0.16125 0.33852
 C367 C 0.25001 0.13963 0.36008
 C368 C 0.25049 0.11092 0.35239
 C369 C 0.25051 0.08991 0.37334
 C370 C 0.25005 0.09752 0.40207
 C371 C 0.24957 0.12623 0.40976
 C372 C 0.24955 0.14724 0.38880
 C373 C 0.25006 0.07590 0.42363
 C374 C 0.25009 0.05780 0.44170
 H375 H 0.25084 0.10481 0.33024
 H376 H 0.25088 0.06778 0.36716
 H377 H 0.24922 0.13235 0.43191
 H378 H 0.24918 0.16938 0.39498
 C379 C 0.75057 0.18003 0.67962
 C380 C 0.75059 0.16191 0.66158
 C381 C 0.75060 0.14027 0.64006
 C382 C 0.75026 0.14785 0.61132
 C383 C 0.75022 0.12681 0.59039
 C384 C 0.75052 0.09811 0.59813
 C385 C 0.75086 0.09053 0.62687
 C386 C 0.75090 0.11157 0.64779
 C387 C 0.75045 0.07647 0.57660
 C388 C 0.75037 0.05835 0.55856
 H389 H 0.75002 0.16998 0.60510
 H390 H 0.74995 0.13291 0.56823
 H391 H 0.75110 0.06840 0.63308
 H392 H 0.75116 0.10547 0.66995
 C393 C 0.25015 -0.18031 0.68028
 C394 C 0.25019 -0.16225 0.66217
 C395 C 0.25024 -0.14071 0.64053
 C396 C 0.24809 -0.11203 0.64806
 C397 C 0.24811 -0.09109 0.62703
 C398 C 0.25027 -0.09874 0.59839
 C399 C 0.25243 -0.12741 0.59086
 C400 C 0.25241 -0.14836 0.61189
 C401 C 0.25027 -0.07719 0.57676
 C402 C 0.25025 -0.05914 0.55864
 H403 H 0.24640 -0.10588 0.67014
 H404 H 0.24643 -0.06898 0.63308
 H405 H 0.25411 -0.13356 0.56878
 H406 H 0.25407 -0.17047 0.60584
 C407 C 0.74953 -0.17971 0.32003
 C408 C 0.74954 -0.16165 0.33814
 C409 C 0.74956 -0.14012 0.35977
 C410 C 0.75203 -0.14776 0.38839
 C411 C 0.75208 -0.12683 0.40942
 C412 C 0.74967 -0.09816 0.40191
 C413 C 0.74720 -0.09052 0.37329
 C414 C 0.74714 -0.11146 0.35227
 C415 C 0.74975 -0.07662 0.42354
 C416 C 0.74983 -0.05857 0.44165
 H417 H 0.75391 -0.16986 0.39443
 H418 H 0.75401 -0.13297 0.43148
 H419 H 0.74532 -0.06842 0.36725
 H420 H 0.74523 -0.10531 0.33020
 C421 C 0.68000 0.74938 -0.17965
 C422 C 0.66187 0.74936 -0.16159
 C423 C 0.64023 0.74934 -0.14004
 C424 C 0.61691 0.73104 -0.14233
 C425 C 0.59589 0.73101 -0.12137
 C426 C 0.59810 0.74930 -0.09804
 C427 C 0.62143 0.76760 -0.09576
 C428 C 0.64245 0.76763 -0.11671
 C429 C 0.57648 0.74926 -0.07647
 C430 C 0.55838 0.74924 -0.05840
 H431 H 0.61498 0.71681 -0.16028
 H432 H 0.57794 0.71677 -0.12335
 H433 H 0.62335 0.78182 -0.07781
 H434 H 0.66040 0.78187 -0.11474
 C435 C 0.32010 0.25026 -0.18040
 C436 C 0.33825 0.25030 -0.16237
 C437 C 0.35991 0.25037 -0.14084
 C438 C 0.35278 0.25615 -0.11258
 C439 C 0.37383 0.25620 -0.09165
 C440 C 0.40210 0.25046 -0.09891
 C441 C 0.40923 0.24468 -0.12718
 C442 C 0.38818 0.24463 -0.14810
 C443 C 0.42375 0.25049 -0.07737
 C444 C 0.44187 0.25050 -0.05932
 H445 H 0.33099 0.26061 -0.10673
 H446 H 0.36808 0.26069 -0.06985
 H447 H 0.43102 0.24022 -0.13302
 H448 H 0.39392 0.24013 -0.16990
 C449 C 0.31974 0.74916 0.17976
 C450 C 0.33787 0.74914 0.16170
 C451 C 0.35950 0.74913 0.14015
 C452 C 0.35235 0.74332 0.11189
 C453 C 0.37338 0.74332 0.09094
 C454 C 0.40164 0.74913 0.09816
 C455 C 0.40879 0.75493 0.12642
 C456 C 0.38776 0.75493 0.14737
 C457 C 0.42327 0.74913 0.07660
 C458 C 0.44138 0.74914 0.05854
 H459 H 0.33057 0.73880 0.10607
 H460 H 0.36762 0.73881 0.06915
 H461 H 0.43058 0.75945 0.13224
 H462 H 0.39353 0.75945 0.16916
 C463 C 0.68013 0.25060 0.17919
 C464 C 0.66207 0.25058 0.16107
 C465 C 0.64051 0.25057 0.13944
 C466 C 0.64229 0.26956 0.11664
 C467 C 0.62134 0.26955 0.09561
 C468 C 0.59852 0.25055 0.09731
 C469 C 0.59674 0.23156 0.12011
 C470 C 0.61770 0.23157 0.14114
 C471 C 0.57696 0.25054 0.07568
 C472 C 0.55889 0.25054 0.05758
 H473 H 0.65984 0.28434 0.11512
 H474 H 0.62292 0.28433 0.07807
 H475 H 0.57919 0.21678 0.12163
 H476 H 0.61611 0.21680 0.15868
 C477 C -0.18066 0.68011 0.75100
 C478 C -0.16253 0.66206 0.75102
 C479 C -0.14088 0.64052 0.75102
 C480 C -0.12831 0.63201 0.77658
 C481 C -0.10727 0.61108 0.77658
 C482 C -0.09871 0.59857 0.75101
 C483 C -0.11128 0.60708 0.72545
 C484 C -0.13232 0.62801 0.72545
 C485 C -0.07706 0.57703 0.75100
 C486 C -0.05894 0.55897 0.75097
 H487 H -0.13477 0.64155 0.79647
 H488 H -0.09769 0.60466 0.79646
 H489 H -0.10482 0.59754 0.70556
 H490 H -0.14190 0.63443 0.70557
 C491 C -0.17989 0.32044 0.25007
 C492 C -0.16184 0.33858 0.25007
 C493 C -0.14031 0.36024 0.25004
 C494 C -0.11291 0.35403 0.24029
 C495 C -0.09200 0.37510 0.24023
 C496 C -0.09840 0.40246 0.24991
 C497 C -0.12580 0.40867 0.25967
 C498 C -0.14671 0.38760 0.25973
 C499 C -0.07688 0.42414 0.24982
 C500 C -0.05885 0.44228 0.24974
 H501 H -0.10774 0.33295 0.23275
 H502 H -0.07088 0.37007 0.23264
 H503 H -0.13097 0.42976 0.26720
 H504 H -0.16783 0.39264 0.26731
 C505 C 0.17957 0.32072 0.75040
 C506 C 0.16146 0.33879 0.75044
 C507 C 0.13985 0.36036 0.75050
 C508 C 0.13788 0.37940 0.77324
 C509 C 0.11688 0.40038 0.77329
 C510 C 0.09776 0.40239 0.75061
 C511 C 0.09972 0.38334 0.72788
 C512 C 0.12072 0.36237 0.72783
 C513 C 0.07616 0.42398 0.75065
 C514 C 0.05808 0.44207 0.75068
 H515 H 0.15256 0.37804 0.79088
 H516 H 0.11555 0.41500 0.79097
 H517 H 0.08505 0.38471 0.71023
 H518 H 0.12206 0.34775 0.71014
 C519 C 0.18018 0.68010 0.24896
 C520 C 0.16199 0.66209 0.24893
 C521 C 0.14028 0.64061 0.24893
 C522 C 0.14667 0.61298 0.24004
 C523 C 0.12558 0.59210 0.24007
 C524 C 0.09800 0.59876 0.24900
 C525 C 0.09161 0.62639 0.25788
 C526 C 0.11270 0.64728 0.25784
 C527 C 0.07631 0.57725 0.24908
 C528 C 0.05816 0.55923 0.24916
 H529 H 0.16793 0.60760 0.23310
 H530 H 0.13076 0.57079 0.23317
 H531 H 0.07035 0.63177 0.26482
 H532 H 0.10753 0.66858 0.26476
 C533 C 0.74961 -0.17986 0.68020
 C534 C 0.74961 -0.16180 0.66209
 C535 C 0.74963 -0.14024 0.64048
 C536 C 0.74729 -0.11158 0.64801
 C537 C 0.74733 -0.09062 0.62699
 C538 C 0.74971 -0.09824 0.59836
 C539 C 0.75205 -0.12690 0.59083
 C540 C 0.75201 -0.14785 0.61184
 C541 C 0.74978 -0.07667 0.57675
 C542 C 0.74985 -0.05861 0.55864
 H543 H 0.74544 -0.10545 0.67008
 H544 H 0.74552 -0.06853 0.63305
 H545 H 0.75390 -0.13302 0.56876
 H546 H 0.75383 -0.16995 0.60579
 C547 C 0.25025 -0.18017 0.31996
 C548 C 0.25028 -0.16213 0.33808
 C549 C 0.25030 -0.14060 0.35972
 C550 C 0.25254 -0.14827 0.38835
 C551 C 0.25254 -0.12735 0.40939
 C552 C 0.25029 -0.09867 0.40188
 C553 C 0.24805 -0.09101 0.37325
 C554 C 0.24806 -0.11193 0.35221
 C555 C 0.25027 -0.07715 0.42352
 C556 C 0.25025 -0.05911 0.44164
 H557 H 0.25429 -0.17038 0.39439
 H558 H 0.25428 -0.13351 0.43146
 H559 H 0.24630 -0.06890 0.36721
 H560 H 0.24631 -0.10576 0.33014
 C561 C 0.75076 0.18000 0.32056
 C562 C 0.75075 0.16188 0.33861
 C563 C 0.75071 0.14025 0.36016
 C564 C 0.75094 0.11154 0.35245
 C565 C 0.75087 0.09051 0.37338
 C566 C 0.75056 0.09810 0.40212
 C567 C 0.75033 0.12681 0.40983
 C568 C 0.75041 0.14784 0.38889
 C569 C 0.75045 0.07647 0.42366
 C570 C 0.75037 0.05835 0.44172
 H571 H 0.75117 0.10544 0.33029
 H572 H 0.75104 0.06838 0.36719
 H573 H 0.75009 0.13291 0.43199
 H574 H 0.75023 0.16997 0.39509
 C575 C 0.25017 0.17938 0.67973
 C576 C 0.25014 0.16126 0.66168
 C577 C 0.25012 0.13964 0.64014
 C578 C 0.25064 0.11093 0.64784
 C579 C 0.25063 0.08992 0.62690
 C580 C 0.25010 0.09752 0.59817
 C581 C 0.24958 0.12622 0.59047
 C582 C 0.24959 0.14724 0.61141
 C583 C 0.25010 0.07589 0.57663
 C584 C 0.25012 0.05779 0.55857
 H585 H 0.25106 0.10482 0.67000
 H586 H 0.25104 0.06778 0.63310
 H587 H 0.24917 0.13234 0.56831
 H588 H 0.24918 0.16938 0.60521
   
