data_POSCAR
  _audit_creation_date              2014-09-24
  _audit_creation_method            'ToBaCCo'
  _symmetry_space_group_name_H-M    'P1'
  _symmetry_Int_Tables_number       1
  _symmetry_cell_setting            triclinic
  loop_
  _symmetry_equiv_pos_as_xyz
 x,y,z
_cell_length_a 20.0418
_cell_length_b 33.1492
_cell_length_c 20.2839
_cell_angle_alpha 90.151000
_cell_angle_beta 89.827400
_cell_angle_gamma 89.887000
loop_
  _atom_site_label
  _atom_site_type_symbol
  _atom_site_fract_x
  _atom_site_fract_y
  _atom_site_fract_z
N1 N 0.11631 0.04312 0.07006
 N2 N 0.15678 0.07415 0.07763
 N3 N 0.07038 -0.04151 0.11726
 N4 N 0.07787 -0.07231 0.15772
 N5 N 0.11706 -0.04181 0.07168
 N6 N 0.15759 -0.07283 0.07986
 N7 N 0.06966 0.04337 0.11564
 N8 N 0.07705 0.07455 0.15550
 C9 C 0.13162 0.09338 0.13117
 C10 C 0.13255 -0.09146 0.13381
 N11 N -0.11927 -0.04220 0.07076
 N12 N -0.15940 -0.07335 0.07870
 N13 N -0.07393 0.04327 0.11503
 N14 N -0.08170 0.07487 0.15415
 N15 N -0.11994 0.04265 0.06916
 N16 N -0.16224 0.07578 0.07680
 N17 N -0.07328 -0.04166 0.11671
 N18 N -0.08080 -0.07242 0.15722
 Mn19 Mn -0.00181 0.00087 0.11696
 C20 C -0.13479 -0.09179 0.13291
 C21 C -0.13596 0.09446 0.13025
 N22 N 0.11817 -0.04295 -0.07028
 N23 N 0.16061 -0.07600 -0.07776
 N24 N 0.07137 0.04125 -0.11806
 N25 N 0.07894 0.07204 -0.15856
 N26 N 0.11726 0.04187 -0.07198
 N27 N 0.15731 0.07307 -0.07987
 N28 N 0.07210 -0.04375 -0.11609
 N29 N 0.07999 -0.07540 -0.15505
 Mn30 Mn 0.11801 0.00006 -0.00012
 C31 C 0.13437 -0.09482 -0.13107
 C32 C 0.13284 0.09150 -0.13415
 N33 N -0.11885 0.04135 -0.07286
 N34 N -0.15919 0.07246 -0.08097
 N35 N -0.07173 -0.04412 -0.11665
 N36 N -0.07886 -0.07574 -0.15582
 N37 N -0.11840 -0.04346 -0.07115
 N38 N -0.16044 -0.07654 -0.07906
 N39 N -0.07233 0.04087 -0.11859
 N40 N -0.07970 0.07166 -0.15908
 Mn41 Mn -0.11992 -0.00040 -0.00103
 Mn42 Mn -0.00014 -0.00146 -0.11819
 Cl43 Cl -0.00096 -0.00023 -0.00061
 C44 C -0.13417 0.09095 -0.13503
 C45 C -0.13338 -0.09528 -0.13228
 N46 N 0.61896 0.54254 0.57127
 N47 N 0.65975 0.57341 0.57894
 N48 N 0.57249 0.45777 0.61705
 N49 N 0.58002 0.42671 0.65693
 N50 N 0.61880 0.45762 0.57112
 N51 N 0.65916 0.42645 0.57846
 N52 N 0.57262 0.54271 0.61719
 N53 N 0.58062 0.57372 0.65738
 C54 C 0.63523 0.59250 0.63290
 C55 C 0.63436 0.40757 0.63227
 N56 N 0.38246 0.45789 0.57181
 N57 N 0.34204 0.42683 0.57936
 N58 N 0.42882 0.54282 0.61765
 N59 N 0.42091 0.57380 0.65797
 N60 N 0.38246 0.54281 0.57204
 N61 N 0.34171 0.57378 0.58004
 N62 N 0.42877 0.45788 0.61749
 N63 N 0.42113 0.42680 0.65737
 Mn64 Mn 0.50067 0.50031 0.61816
 C65 C 0.36675 0.40781 0.63300
 C66 C 0.36632 0.59273 0.63388
 N67 N 0.61878 0.45743 0.42910
 N68 N 0.65937 0.42636 0.42109
 N69 N 0.57250 0.54239 0.38373
 N70 N 0.58007 0.57340 0.34376
 N71 N 0.61889 0.54237 0.42930
 N72 N 0.65935 0.57339 0.42162
 N73 N 0.57242 0.45751 0.38349
 N74 N 0.58017 0.42651 0.34318
 Mn75 Mn 0.61969 0.49998 0.50020
 C76 C 0.63465 0.40745 0.36723
 C77 C 0.63450 0.59234 0.36798
 N78 N 0.38249 0.54282 0.43006
 N79 N 0.34200 0.57394 0.42261
 N80 N 0.42881 0.45784 0.38392
 N81 N 0.42100 0.42692 0.34357
 N82 N 0.38245 0.45788 0.42980
 N83 N 0.34177 0.42697 0.42195
 N84 N 0.42886 0.54272 0.38418
 N85 N 0.42120 0.57375 0.34423
 Mn86 Mn 0.38164 0.50035 0.50094
 Mn87 Mn 0.50065 0.50011 0.38304
 Cl88 Cl 0.50066 0.50019 0.50060
 C89 C 0.36677 0.59285 0.36879
 C90 C 0.36647 0.40805 0.36791
 N91 N 0.23919 0.18173 0.15685
 C92 C 0.21043 0.19924 0.21036
 N93 N 0.15586 0.18191 0.23784
 N94 N 0.13075 0.14808 0.21256
 C95 C 0.15945 0.13048 0.15900
 N96 N 0.21409 0.14789 0.13155
 C97 C 0.23741 0.23564 0.23762
 C98 C 0.26006 0.26621 0.26060
 C99 C 0.28708 0.30257 0.28795
 N100 N 0.25869 0.31984 0.34185
 N101 N 0.28394 0.35358 0.36736
 C102 C 0.33838 0.37112 0.33974
 N103 N 0.36670 0.35376 0.28578
 N104 N 0.34145 0.32003 0.26029
 N105 N 0.75937 0.81914 0.15863
 C106 C 0.78773 0.80224 0.21254
 N107 N 0.84141 0.82026 0.24038
 N108 N 0.86604 0.85417 0.21503
 C109 C 0.83775 0.87114 0.16105
 N110 N 0.78399 0.85304 0.13326
 C111 C 0.76137 0.76570 0.23970
 C112 C 0.73919 0.73497 0.26244
 C113 C 0.71263 0.69842 0.28936
 N114 N 0.74128 0.68108 0.34275
 N115 N 0.71645 0.64714 0.36782
 C116 C 0.66219 0.62947 0.34025
 N117 N 0.63362 0.64688 0.28680
 N118 N 0.65845 0.68081 0.26174
 N119 N 0.75934 0.17996 0.83942
 C120 C 0.78807 0.19705 0.78576
 N121 N 0.84222 0.17918 0.75798
 N122 N 0.86694 0.14523 0.78315
 C123 C 0.83828 0.12806 0.83689
 N124 N 0.78406 0.14601 0.86460
 C125 C 0.76160 0.23368 0.75887
 C126 C 0.73930 0.26449 0.73642
 C127 C 0.71262 0.30115 0.70986
 N128 N 0.74110 0.31849 0.65628
 N129 N 0.71621 0.35253 0.63157
 C130 C 0.66205 0.37031 0.65968
 N131 N 0.63363 0.35290 0.71332
 N132 N 0.65853 0.31886 0.73803
 N133 N 0.23826 0.81930 0.84456
 C134 C 0.20922 0.80202 0.79127
 N135 N 0.15477 0.81972 0.76426
 N136 N 0.13009 0.85371 0.78981
 C137 C 0.15905 0.87115 0.84323
 N138 N 0.21361 0.85327 0.87012
 C139 C 0.23594 0.76550 0.76374
 C140 C 0.25867 0.73484 0.74078
 C141 C 0.28600 0.69839 0.71357
 N142 N 0.25788 0.68099 0.65988
 N143 N 0.28345 0.64720 0.63450
 C144 C 0.33796 0.62973 0.66202
 N145 N 0.36602 0.64721 0.71577
 N146 N 0.34044 0.68100 0.74114
 N147 N 0.23917 0.18056 0.84081
 C148 C 0.21120 0.19760 0.78681
 N149 N 0.15754 0.17969 0.75867
 N150 N 0.13260 0.14578 0.78378
 C151 C 0.16052 0.12866 0.83784
 N152 N 0.21424 0.14665 0.86592
 C153 C 0.23801 0.23421 0.75991
 C154 C 0.26062 0.26496 0.73747
 C155 C 0.28766 0.30158 0.71084
 N156 N 0.25939 0.31912 0.65741
 N157 N 0.28456 0.35306 0.63265
 C158 C 0.33880 0.37060 0.66052
 N159 N 0.36701 0.35298 0.71401
 N160 N 0.34184 0.31903 0.73877
 N161 N 0.84757 0.81930 0.76265
 C162 C 0.79286 0.80163 0.78938
 N163 N 0.76327 0.81892 0.84260
 N164 N 0.78759 0.85284 0.86834
 C165 C 0.84238 0.87069 0.84175
 N166 N 0.87193 0.85324 0.78839
 C167 C 0.76636 0.76513 0.76168
 C168 C 0.74361 0.73450 0.73877
 C169 C 0.71607 0.69808 0.71180
 N170 N 0.66160 0.68089 0.73979
 N171 N 0.63585 0.64716 0.71469
 C172 C 0.66376 0.62950 0.66077
 N173 N 0.71830 0.64676 0.63283
 N174 N 0.74403 0.68049 0.65794
 N175 N 0.23991 0.81987 0.15994
 C176 C 0.21123 0.80271 0.21358
 N177 N 0.15678 0.82041 0.24112
 N178 N 0.13176 0.85425 0.21575
 C179 C 0.16039 0.87148 0.16204
 N180 N 0.21490 0.85370 0.13457
 C181 C 0.23807 0.76619 0.24077
 C182 C 0.26067 0.73550 0.26348
 C183 C 0.28769 0.69895 0.29039
 N184 N 0.25930 0.68164 0.34406
 N185 N 0.28446 0.64774 0.36905
 C186 C 0.33881 0.63003 0.34114
 N187 N 0.36713 0.64742 0.28740
 N188 N 0.34197 0.68132 0.26243
 N189 N 0.76072 0.18062 0.15524
 C190 C 0.78989 0.19769 0.20866
 N191 N 0.84421 0.17975 0.23551
 N192 N 0.86863 0.14576 0.20973
 C193 C 0.83955 0.12852 0.15618
 N194 N 0.78512 0.14663 0.12944
 C195 C 0.76347 0.23428 0.23646
 C196 C 0.74104 0.26499 0.25967
 C197 C 0.71403 0.30152 0.28711
 N198 N 0.74238 0.31879 0.34082
 N199 N 0.71714 0.35265 0.36635
 C200 C 0.66273 0.37033 0.33899
 N201 N 0.63445 0.35298 0.28522
 N202 N 0.65970 0.31913 0.25970
   
