data_POSCAR
  _audit_creation_date              2014-09-24
  _audit_creation_method            'ToBaCCo'
  _symmetry_space_group_name_H-M    'P1'
  _symmetry_Int_Tables_number       1
  _symmetry_cell_setting            triclinic
  loop_
  _symmetry_equiv_pos_as_xyz
 x,y,z
_cell_length_a 47.7379
_cell_length_b 29.8740
_cell_length_c 16.2808
_cell_angle_alpha 89.848900
_cell_angle_beta 90.104500
_cell_angle_gamma 89.931800
loop_
  _atom_site_label
  _atom_site_type_symbol
  _atom_site_fract_x
  _atom_site_fract_y
  _atom_site_fract_z
C1 C 0.73086 0.28056 0.54194
 C2 C 0.73276 0.28411 0.45491
 C3 C 0.75608 0.26673 0.41387
 C4 C 0.77727 0.24316 0.45558
 C5 C 0.77614 0.24021 0.54321
 C6 C 0.75258 0.25801 0.58402
 H7 H 0.75249 0.25817 0.65052
 H8 H 0.75623 0.26795 0.34725
 C9 C 0.22622 0.76822 0.54193
 C10 C 0.22629 0.76803 0.45503
 C11 C 0.24905 0.74966 0.41308
 C12 C 0.27168 0.73046 0.45524
 C13 C 0.27216 0.73062 0.54286
 C14 C 0.24894 0.74907 0.58446
 H15 H 0.24915 0.75117 0.65088
 H16 H 0.24863 0.74872 0.34647
 C17 C 0.27396 0.26153 -0.54263
 C18 C 0.27216 0.26685 -0.45659
 C19 C 0.24929 0.24914 -0.41406
 C20 C 0.22781 0.22577 -0.45468
 C21 C 0.22855 0.22256 -0.54251
 C22 C 0.25218 0.23964 -0.58427
 H23 H 0.25325 0.23789 -0.65064
 H24 H 0.24909 0.25183 -0.34763
 C25 C -0.22819 0.76501 -0.54406
 C26 C -0.23018 0.77042 -0.45814
 C27 C -0.25324 0.75295 -0.41610
 C28 C -0.27510 0.73048 -0.45724
 C29 C -0.27382 0.72712 -0.54500
 C30 C -0.24985 0.74316 -0.58609
 H31 H -0.24857 0.74072 -0.65242
 H32 H -0.25325 0.75537 -0.34970
 N33 N 0.02988 1.07803 -0.08695
 N34 N 0.05191 1.10424 -0.09663
 N35 N -0.02963 1.05040 -0.14489
 N36 N -0.05027 1.05817 -0.19701
 N37 N -0.02929 1.08074 -0.08673
 N38 N -0.04990 1.10972 -0.09714
 N39 N 0.02907 1.04749 -0.14469
 N40 N 0.05027 1.05233 -0.19571
 C41 C 0.06438 1.08780 -0.16497
 C42 C -0.06280 1.09519 -0.16624
 N43 N -0.03227 0.92285 -0.08967
 N44 N -0.05405 0.89637 -0.10106
 N45 N 0.02754 0.95137 -0.14553
 N46 N 0.04916 0.94583 -0.19483
 N47 N 0.02663 0.91934 -0.09020
 N48 N 0.04737 0.89070 -0.10118
 N49 N -0.03141 0.95404 -0.14653
 N50 N -0.05246 0.94948 -0.19848
 Mn51 Mn -0.00110 1.00080 -0.14634
 C52 C -0.06645 0.91341 -0.16926
 C53 C 0.06125 0.90778 -0.16661
 N54 N -0.02916 1.07951 0.08995
 N55 N -0.05019 1.10767 0.10052
 N56 N 0.02941 1.04581 0.14639
 N57 N 0.05041 1.05101 0.19833
 N58 N 0.02997 1.07693 0.08937
 N59 N 0.05156 1.10383 0.10030
 N60 N -0.02937 1.04835 0.14697
 N61 N -0.05033 1.05469 0.19836
 Mn62 Mn 0.00034 1.07938 0.00143
 C63 C -0.06316 1.09179 0.16857
 C64 C 0.06412 1.08725 0.16855
 N65 N 0.02687 0.91823 0.08734
 N66 N 0.04736 0.88905 0.09827
 N67 N -0.03106 0.95180 0.14543
 N68 N -0.05140 0.94521 0.19895
 N69 N -0.03204 0.92163 0.08701
 N70 N -0.05322 0.89401 0.09862
 N71 N 0.02778 0.94942 0.14398
 N72 N 0.04902 0.94261 0.19439
 Mn73 Mn -0.00273 0.91994 -0.00140
 Mn74 Mn -0.00080 0.99883 0.14665
 Cl75 Cl -0.00108 0.99974 0.00012
 C76 C 0.06103 0.90482 0.16525
 C77 C -0.06514 0.90918 0.16860
 N78 N 0.46970 0.54768 -0.14472
 N79 N 0.44907 0.55405 -0.19755
 N80 N 0.52777 0.58007 -0.08631
 N81 N 0.54895 0.60804 -0.09542
 N82 N 0.52864 0.54862 -0.14241
 N83 N 0.55056 0.55392 -0.19058
 N84 N 0.46883 0.57778 -0.08620
 N85 N 0.44746 0.60525 -0.09722
 C86 C 0.43530 0.58999 -0.16693
 C87 C 0.56296 0.59118 -0.16071
 N88 N 0.52888 0.54678 0.14578
 N89 N 0.55029 0.55286 0.19602
 N90 N 0.46899 0.57634 0.09055
 N91 N 0.44706 0.60262 0.10094
 N92 N 0.46986 0.54524 0.14764
 N93 N 0.44860 0.54965 0.19868
 N94 N 0.52785 0.57880 0.09048
 N95 N 0.54832 0.60776 0.10202
 Mn96 Mn 0.49830 0.57879 0.00216
 C97 C 0.56220 0.59109 0.16795
 C98 C 0.43456 0.58559 0.16875
 N99 N 0.52953 0.45253 -0.14461
 N100 N 0.55131 0.44837 -0.19378
 N101 N 0.47023 0.42021 -0.08981
 N102 N 0.44884 0.39292 -0.10114
 N103 N 0.47060 0.45144 -0.14668
 N104 N 0.44960 0.44615 -0.19847
 N105 N 0.52922 0.42026 -0.08975
 N106 N 0.55064 0.39289 -0.10076
 Mn107 Mn 0.49966 0.50007 -0.14555
 C108 C 0.56424 0.41096 -0.16585
 C109 C 0.43619 0.40954 -0.16933
 N110 N 0.47082 0.44884 0.14599
 N111 N 0.45053 0.44138 0.19929
 N112 N 0.52936 0.41901 0.08731
 N113 N 0.55091 0.39169 0.09682
 N114 N 0.52970 0.45035 0.14371
 N115 N 0.55152 0.44545 0.19268
 N116 N 0.47036 0.41875 0.08736
 N117 N 0.44959 0.39025 0.09875
 Mn118 Mn 0.49987 0.49780 0.14680
 Mn119 Mn 0.49973 0.41896 -0.00123
 Cl120 Cl 0.49938 0.49888 0.00058
 C121 C 0.43739 0.40484 0.16883
 C122 C 0.56453 0.40867 0.16283
 C123 C 0.34363 0.31802 0.32543
 C124 C 0.31608 0.32645 0.29946
 C125 C 0.29346 0.30751 0.34156
 C126 C 0.29807 0.27931 0.40951
 C127 C 0.32576 0.26918 0.43263
 C128 C 0.34832 0.28902 0.39194
 C129 C 0.36747 0.34038 0.28481
 C130 C 0.38573 0.36731 0.33073
 C131 C 0.40821 0.38888 0.29262
 C132 C 0.41319 0.38295 0.20837
 C133 C 0.39502 0.35571 0.16254
 C134 C 0.37210 0.33504 0.20030
 H135 H 0.27234 0.31576 0.32236
 H136 H 0.32993 0.24647 0.48311
 H137 H 0.42196 0.40962 0.32930
 H138 H 0.39838 0.35079 0.09740
 H139 H 0.36946 0.28170 0.41220
 H140 H 0.38238 0.37199 0.39595
 H141 H 0.31208 0.34878 0.24822
 H142 H 0.35822 0.31433 0.16395
 C143 C -0.15877 0.82275 0.32546
 C144 C -0.18633 0.83092 0.29935
 C145 C -0.20885 0.81147 0.34093
 C146 C -0.20413 0.78303 0.40844
 C147 C -0.17643 0.77319 0.43174
 C148 C -0.15396 0.79353 0.39155
 C149 C -0.13507 0.84535 0.28490
 C150 C -0.11671 0.87210 0.33088
 C151 C -0.09427 0.89370 0.29267
 C152 C -0.08947 0.88795 0.20830
 C153 C -0.10780 0.86101 0.16241
 C154 C -0.13065 0.84031 0.20028
 H155 H -0.23001 0.81952 0.32171
 H156 H -0.17220 0.75036 0.48200
 H157 H -0.08037 0.91419 0.32933
 H158 H -0.10456 0.85623 0.09719
 H159 H -0.13279 0.78639 0.41180
 H160 H -0.11992 0.87653 0.39622
 H161 H -0.19041 0.85339 0.24838
 H162 H -0.14461 0.81975 0.16393
 C163 C 0.65788 0.67505 0.31903
 C164 C 0.65325 0.70721 0.38000
 C165 C 0.67577 0.72517 0.42372
 C166 C 0.70348 0.71161 0.40675
 C167 C 0.70802 0.68137 0.34174
 C168 C 0.68538 0.66259 0.29953
 C169 C 0.63392 0.65338 0.27805
 C170 C 0.62922 0.60737 0.28854
 C171 C 0.60576 0.58707 0.25313
 C172 C 0.58703 0.61234 0.20512
 C173 C 0.59210 0.65823 0.19337
 C174 C 0.61518 0.67872 0.23050
 H175 H 0.67152 0.74959 0.47117
 H176 H 0.72896 0.67006 0.32685
 H177 H 0.60235 0.55160 0.26276
 H178 H 0.57791 0.67842 0.15679
 H179 H 0.68927 0.63794 0.25222
 H180 H 0.64343 0.58740 0.32549
 H181 H 0.63212 0.71744 0.39533
 H182 H 0.61851 0.71429 0.22196
 C183 C 0.15977 1.16921 0.32350
 C184 C 0.15516 1.19615 0.39236
 C185 C 0.17768 1.21523 0.43418
 C186 C 0.20557 1.20628 0.41047
 C187 C 0.20989 1.18088 0.33849
 C188 C 0.18721 1.16263 0.29552
 C189 C 0.13589 1.14718 0.28260
 C190 C 0.11801 1.11929 0.32802
 C191 C 0.09502 1.09897 0.29035
 C192 C 0.08915 1.10709 0.20712
 C193 C 0.10708 1.13495 0.16161
 C194 C 0.13050 1.15443 0.19889
 H195 H 0.17312 1.23712 0.48531
 H196 H 0.23082 1.17291 0.31759
 H197 H 0.08148 1.07769 0.32674
 H198 H 0.10303 1.14152 0.09720
 H199 H 0.19114 1.14198 0.24216
 H200 H 0.12195 1.11317 0.39264
 H201 H 0.13404 1.20255 0.41362
 H202 H 0.14405 1.17592 0.16297
 C203 C 0.66299 0.33786 -0.32306
 C204 C 0.67365 0.35915 -0.39345
 C205 C 0.69638 0.34121 -0.43595
 C206 C 0.70857 0.30013 -0.41223
 C207 C 0.69829 0.27945 -0.34025
 C208 C 0.67600 0.29811 -0.29630
 C209 C 0.63826 0.35680 -0.27879
 C210 C 0.61911 0.32861 -0.23796
 C211 C 0.59545 0.34632 -0.19916
 C212 C 0.58998 0.39240 -0.20228
 C213 C 0.60900 0.42072 -0.24221
 C214 C 0.63307 0.40326 -0.27887
 H215 H 0.70476 0.36054 -0.48637
 H216 H 0.70671 0.24780 -0.31902
 H217 H 0.58093 0.32382 -0.16904
 H218 H 0.60538 0.45651 -0.24439
 H219 H 0.66900 0.28113 -0.24129
 H220 H 0.62190 0.29267 -0.23759
 H221 H 0.66437 0.38969 -0.41681
 H222 H 0.64758 0.42642 -0.30709
 C223 C 0.15843 0.82912 -0.32254
 C224 C 0.17120 0.85174 -0.38860
 C225 C 0.19370 0.83270 -0.43046
 C226 C 0.20328 0.78961 -0.41025
 C227 C 0.19097 0.76712 -0.34370
 C228 C 0.16902 0.78678 -0.29984
 C229 C 0.13400 0.84933 -0.27880
 C230 C 0.11323 0.82209 -0.24286
 C231 C 0.08997 0.84113 -0.20418
 C232 C 0.08649 0.88768 -0.20290
 C233 C 0.10703 0.91506 -0.23817
 C234 C 0.13075 0.89618 -0.27437
 H235 H 0.20345 0.85161 -0.47942
 H236 H 0.19818 0.73407 -0.32607
 H237 H 0.07420 0.81941 -0.17773
 H238 H 0.10489 0.95116 -0.23684
 H239 H 0.16047 0.76866 -0.24806
 H240 H 0.11444 0.78599 -0.24618
 H241 H 0.16362 0.88397 -0.40939
 H242 H 0.14651 0.91856 -0.29860
 C243 C 0.34077 0.67513 -0.32423
 C244 C 0.31346 0.67149 -0.29346
 C245 C 0.29092 0.69052 -0.33621
 C246 C 0.29520 0.71375 -0.41086
 C247 C 0.32305 0.71973 -0.43773
 C248 C 0.34542 0.69992 -0.39599
 C249 C 0.36446 0.65248 -0.28282
 C250 C 0.38212 0.62401 -0.32765
 C251 C 0.40483 0.60298 -0.28944
 C252 C 0.41062 0.61083 -0.20616
 C253 C 0.39293 0.63928 -0.16121
 C254 C 0.36982 0.65956 -0.19907
 H255 H 0.27002 0.68486 -0.31272
 H256 H 0.32780 0.74043 -0.49043
 H257 H 0.41817 0.58124 -0.32543
 H258 H 0.39691 0.64569 -0.09679
 H259 H 0.36647 0.70431 -0.41939
 H260 H 0.37822 0.61790 -0.39223
 H261 H 0.30947 0.65256 -0.23789
 H262 H 0.35647 0.68150 -0.16352
 C263 C -0.15600 1.18505 -0.32061
 C264 C -0.15091 1.21181 -0.38965
 C265 C -0.17311 1.23161 -0.43212
 C266 C -0.20114 1.22358 -0.40880
 C267 C -0.20592 1.19850 -0.33648
 C268 C -0.18355 1.17950 -0.29290
 C269 C -0.13256 1.16156 -0.27995
 C270 C -0.12711 1.16773 -0.19602
 C271 C -0.10428 1.14630 -0.15884
 C272 C -0.08704 1.11759 -0.20472
 C273 C -0.09291 1.11076 -0.28825
 C274 C -0.11529 1.13298 -0.32576
 H275 H -0.16820 1.25318 -0.48362
 H276 H -0.22699 1.19128 -0.31587
 H277 H -0.10020 1.15190 -0.09421
 H278 H -0.07990 1.08886 -0.32493
 H279 H -0.18784 1.15896 -0.23948
 H280 H -0.14022 1.18972 -0.15980
 H281 H -0.12969 1.21736 -0.41076
 H282 H -0.11929 1.12764 -0.39053
 C283 C 0.66037 0.66829 -0.31663
 C284 C 0.67123 0.64747 -0.38709
 C285 C 0.69302 0.66701 -0.43137
 C286 C 0.70387 0.70918 -0.40921
 C287 C 0.69361 0.72920 -0.33683
 C288 C 0.67234 0.70895 -0.29113
 C289 C 0.63622 0.64827 -0.27159
 C290 C 0.61641 0.67570 -0.23186
 C291 C 0.59304 0.65702 -0.19323
 C292 C 0.58857 0.61072 -0.19561
 C293 C 0.60830 0.58312 -0.23409
 C294 C 0.63210 0.60158 -0.27050
 H295 H 0.70139 0.64872 -0.48310
 H296 H 0.70109 0.76160 -0.31689
 H297 H 0.57792 0.67890 -0.16423
 H298 H 0.60539 0.54718 -0.23561
 H299 H 0.66517 0.72555 -0.23603
 H300 H 0.61838 0.71177 -0.23253
 H301 H 0.66265 0.61630 -0.40948
 H302 H 0.64717 0.57909 -0.29793
 C303 C 0.16363 1.16204 -0.31706
 C304 C 0.17274 1.20537 -0.29659
 C305 C 0.19471 1.22557 -0.33947
 C306 C 0.20756 1.20355 -0.40590
 C307 C 0.19942 1.15931 -0.42344
 C308 C 0.17786 1.13881 -0.37944
 C309 C 0.13865 1.14196 -0.27638
 C310 C 0.12040 1.11415 -0.32105
 C311 C 0.09654 1.09617 -0.28423
 C312 C 0.08999 1.10629 -0.20243
 C313 C 0.10801 1.13407 -0.15742
 C314 C 0.13224 1.15141 -0.19377
 H315 H 0.20029 1.25968 -0.32412
 H316 H 0.20972 1.14050 -0.47152
 H317 H 0.08288 1.07506 -0.32047
 H318 H 0.10352 1.14199 -0.09391
 H319 H 0.17222 1.10479 -0.39496
 H320 H 0.12413 1.10695 -0.38522
 H321 H 0.16218 1.22459 -0.24964
 H322 H 0.14599 1.17200 -0.15689
 C323 C 0.33883 0.33123 -0.32458
 C324 C 0.33235 0.28594 -0.31019
 C325 C 0.31014 0.26554 -0.35143
 C326 C 0.29425 0.28975 -0.40882
 C327 C 0.30018 0.33510 -0.42239
 C328 C 0.32220 0.35573 -0.38041
 C329 C 0.36332 0.35232 -0.28342
 C330 C 0.37987 0.38383 -0.32548
 C331 C 0.40332 0.40277 -0.28786
 C332 C 0.41102 0.39014 -0.20787
 C333 C 0.39458 0.35882 -0.16549
 C334 C 0.37086 0.34033 -0.20264
 H335 H 0.30589 0.23040 -0.34065
 H336 H 0.28794 0.35432 -0.46610
 H337 H 0.41574 0.42671 -0.32206
 H338 H 0.39995 0.34886 -0.10340
 H339 H 0.32620 0.39085 -0.39182
 H340 H 0.37509 0.39321 -0.38824
 H341 H 0.34493 0.26581 -0.26883
 H342 H 0.35834 0.31683 -0.16782
 C343 C -0.16376 0.83537 -0.32564
 C344 C -0.17017 0.79006 -0.31112
 C345 C -0.19230 0.76946 -0.35248
 C346 C -0.20819 0.79349 -0.41012
 C347 C -0.20232 0.83886 -0.42382
 C348 C -0.18037 0.85968 -0.38179
 C349 C -0.13938 0.85669 -0.28415
 C350 C -0.12279 0.88825 -0.32597
 C351 C -0.09937 0.90719 -0.28806
 C352 C -0.09177 0.89453 -0.20800
 C353 C -0.10833 0.86330 -0.16579
 C354 C -0.13200 0.84481 -0.20322
 H355 H -0.19649 0.73431 -0.34158
 H356 H -0.21456 0.85796 -0.46774
 H357 H -0.08686 0.93107 -0.32213
 H358 H -0.10306 0.85329 -0.10365
 H359 H -0.17643 0.89480 -0.39335
 H360 H -0.12748 0.89761 -0.38879
 H361 H -0.15760 0.77005 -0.26953
 H362 H -0.14456 0.82131 -0.16852
 C363 C 0.33654 0.66384 0.31955
 C364 C 0.33077 0.70950 0.30609
 C365 C 0.30900 0.73067 0.34801
 C366 C 0.29294 0.70684 0.40527
 C367 C 0.29790 0.66098 0.41685
 C368 C 0.31948 0.63964 0.37431
 C369 C 0.36092 0.64213 0.27912
 C370 C 0.37717 0.61029 0.32172
 C371 C 0.40081 0.59132 0.28523
 C372 C 0.40894 0.60423 0.20587
 C373 C 0.39265 0.63561 0.16278
 C374 C 0.36878 0.65416 0.19880
 H375 H 0.30542 0.76611 0.33839
 H376 H 0.28539 0.64197 0.46003
 H377 H 0.41310 0.56729 0.31988
 H378 H 0.39832 0.64579 0.10112
 H379 H 0.32292 0.60426 0.38477
 H380 H 0.37207 0.60082 0.38415
 H381 H 0.34367 0.72933 0.26531
 H382 H 0.35649 0.67791 0.16363
 C383 C -0.15967 1.17479 0.32097
 C384 C -0.16786 1.21848 0.29886
 C385 C -0.18944 1.24027 0.34082
 C386 C -0.20277 1.21957 0.40799
 C387 C -0.19550 1.17506 0.42731
 C388 C -0.17437 1.15298 0.38424
 C389 C -0.13530 1.15267 0.28053
 C390 C -0.11779 1.12359 0.32555
 C391 C -0.09465 1.10337 0.28863
 C392 C -0.08805 1.11249 0.20640
 C393 C -0.10528 1.14159 0.16114
 C394 C -0.12883 1.16114 0.19755
 H395 H -0.19440 1.27449 0.32403
 H396 H -0.20623 1.15720 0.47595
 H397 H -0.08154 1.08131 0.32506
 H398 H -0.10074 1.14882 0.09730
 H399 H -0.16950 1.11876 0.40103
 H400 H -0.12155 1.11704 0.39000
 H401 H -0.15693 1.23666 0.25115
 H402 H -0.14202 1.18261 0.16035
 C403 C 0.66337 0.33336 0.31304
 C404 C 0.66043 0.29467 0.36136
 C405 C 0.68314 0.27821 0.40651
 C406 C 0.70916 0.29994 0.40320
 C407 C 0.71247 0.33740 0.35197
 C408 C 0.68961 0.35440 0.30811
 C409 C 0.63876 0.35294 0.27120
 C410 C 0.63160 0.39788 0.28469
 C411 C 0.60745 0.41598 0.24918
 C412 C 0.59037 0.38966 0.19830
 C413 C 0.59790 0.34500 0.18315
 C414 C 0.62176 0.32661 0.22015
 H415 H 0.68034 0.24900 0.44518
 H416 H 0.73247 0.35437 0.34845
 H417 H 0.60214 0.45058 0.26152
 H418 H 0.58502 0.32405 0.14422
 H419 H 0.69231 0.38414 0.27078
 H420 H 0.64433 0.41865 0.32438
 H421 H 0.64033 0.27810 0.36622
 H422 H 0.62700 0.29187 0.20892
 C423 C 0.15693 0.82220 0.31938
 C424 C 0.18370 0.84117 0.31208
 C425 C 0.20642 0.82260 0.35430
 C426 C 0.20254 0.78553 0.40607
 C427 C 0.17588 0.76610 0.41252
 C428 C 0.15325 0.78412 0.36892
 C429 C 0.13270 0.84326 0.27803
 C430 C 0.11508 0.81812 0.22675
 C431 C 0.09202 0.83831 0.18847
 C432 C 0.08590 0.88363 0.20260
 C433 C 0.10350 0.90864 0.25418
 C434 C 0.12687 0.88874 0.29089
 H435 H 0.22688 0.83794 0.34867
 H436 H 0.17260 0.73735 0.45201
 H437 H 0.07869 0.81833 0.14912
 H438 H 0.09927 0.94368 0.26584
 H439 H 0.13272 0.76918 0.37564
 H440 H 0.11931 0.78299 0.21596
 H441 H 0.18696 0.87044 0.27389
 H442 H 0.14012 0.90862 0.33065
   
