data_POSCAR
  _audit_creation_date              2014-09-24
  _audit_creation_method            'ToBaCCo'
  _symmetry_space_group_name_H-M    'P1'
  _symmetry_Int_Tables_number       1
  _symmetry_cell_setting            triclinic
  loop_
  _symmetry_equiv_pos_as_xyz
 x,y,z
_cell_length_a 29.3962
_cell_length_b 27.4849
_cell_length_c 27.4460
_cell_angle_alpha 89.897000
_cell_angle_beta 89.984100
_cell_angle_gamma 89.900600
loop_
  _atom_site_label
  _atom_site_type_symbol
  _atom_site_fract_x
  _atom_site_fract_y
  _atom_site_fract_z
N1 N 0.17058 1.26504 0.13196
 N2 N 0.14110 1.26620 0.16802
 C3 C 0.10767 1.29799 0.15716
 C4 C 0.11711 1.31781 0.11209
 C5 C 0.15700 1.29615 0.09688
 H6 H 0.07759 1.30407 0.17907
 H7 H 0.17339 1.30051 0.06184
 Cu8 Cu 0.14625 1.22189 0.22283
 Cu9 Cu 0.22088 1.21870 0.13024
 Cu10 Cu 0.22057 1.12905 0.21921
 N11 N 0.14082 1.16686 0.26675
 N12 N 0.17016 1.13067 0.26542
 C13 C 0.15642 1.09552 0.29632
 C14 C 0.11659 1.11081 0.31801
 C15 C 0.10733 1.15600 0.29845
 H16 H 0.17271 1.06043 0.30053
 H17 H 0.07736 1.17805 0.30466
 N18 N 0.26830 1.13398 0.16892
 N19 N 0.26843 1.16818 0.13501
 C20 C 0.30193 1.15863 0.10291
 C21 C 0.32380 1.11670 0.11751
 C22 C 0.30171 1.10182 0.15921
 H23 H 0.30782 1.17847 0.06945
 H24 H 0.30740 1.06817 0.17878
 H25 H 0.18387 1.16651 0.16708
 H26 H 0.22532 1.20261 0.20380
 N27 N 0.82877 0.73527 0.13317
 N28 N 0.85825 0.73410 0.16922
 C29 C 0.89170 0.70238 0.15837
 C30 C 0.88236 0.68262 0.11333
 C31 C 0.84241 0.70422 0.09817
 H32 H 0.92177 0.69626 0.18027
 H33 H 0.82603 0.69984 0.06317
 Cu34 Cu 0.85305 0.77832 0.22393
 Cu35 Cu 0.77842 0.78154 0.13137
 Cu36 Cu 0.77867 0.87110 0.22010
 N37 N 0.85844 0.83332 0.26771
 N38 N 0.82908 0.86949 0.26628
 C39 C 0.84281 0.90464 0.29705
 C40 C 0.88266 0.88936 0.31875
 C41 C 0.89193 0.84418 0.29933
 H42 H 0.82652 0.93972 0.30115
 H43 H 0.92192 0.82216 0.30556
 N44 N 0.73094 0.86618 0.16984
 N45 N 0.73083 0.83200 0.13604
 C46 C 0.69735 0.84158 0.10391
 C47 C 0.67547 0.88350 0.11838
 C48 C 0.69753 0.89835 0.16004
 H49 H 0.69150 0.82177 0.07049
 H50 H 0.69185 0.93200 0.17949
 H51 H 0.81539 0.83372 0.16805
 H52 H 0.77396 0.79755 0.20490
 N53 N 0.82904 1.26431 -0.13234
 N54 N 0.85851 1.26551 -0.16840
 C55 C 0.89196 1.29708 -0.15746
 C56 C 0.88262 1.31670 -0.11233
 C57 C 0.84268 1.29518 -0.09723
 H58 H 0.92201 1.30320 -0.17937
 H59 H 0.82629 1.29951 -0.06221
 Cu60 Cu 0.85329 1.22155 -0.22329
 Cu61 Cu 0.77867 1.21824 -0.13070
 Cu62 Cu 0.77888 1.12905 -0.21981
 N63 N 0.85866 1.16671 -0.26730
 N64 N 0.82930 1.13065 -0.26601
 C65 C 0.84301 1.09558 -0.29694
 C66 C 0.88287 1.11079 -0.31861
 C67 C 0.89215 1.15585 -0.29900
 H68 H 0.82671 1.06058 -0.30118
 H69 H 0.92214 1.17778 -0.30516
 N70 N 0.73116 1.13396 -0.16950
 N71 N 0.73106 1.16800 -0.13556
 C72 C 0.69756 1.15844 -0.10345
 C73 C 0.67565 1.11668 -0.11809
 C74 C 0.69772 1.10190 -0.15982
 H75 H 0.69171 1.17814 -0.06995
 H76 H 0.69202 1.06836 -0.17941
 H77 H 0.81563 1.16606 -0.16762
 H78 H 0.77420 1.20256 -0.20429
 N79 N 0.17175 0.73529 -0.13258
 N80 N 0.14230 0.73409 -0.16864
 C81 C 0.10896 0.70236 -0.15770
 C82 C 0.11834 0.68263 -0.11257
 C83 C 0.15820 0.70426 -0.09746
 H84 H 0.07893 0.69621 -0.17960
 H85 H 0.17457 0.69990 -0.06243
 Cu86 Cu 0.14738 0.77829 -0.22353
 Cu87 Cu 0.22193 0.78159 -0.13093
 Cu88 Cu 0.22141 0.87111 -0.22002
 N89 N 0.14180 0.83327 -0.26753
 N90 N 0.17103 0.86945 -0.26622
 C91 C 0.15718 0.90459 -0.29713
 C92 C 0.11739 0.88929 -0.31879
 C93 C 0.10828 0.84411 -0.29920
 H94 H 0.17334 0.93969 -0.30135
 H95 H 0.07837 0.82208 -0.30536
 N96 N 0.26912 0.86623 -0.16971
 N97 N 0.26934 0.83207 -0.13577
 C98 C 0.30278 0.84167 -0.10366
 C99 C 0.32452 0.88358 -0.11829
 C100 C 0.30242 0.89842 -0.16002
 H101 H 0.30869 0.82187 -0.07016
 H102 H 0.30800 0.93205 -0.17961
 H103 H 0.18479 0.83373 -0.16784
 H104 H 0.22638 0.79757 -0.20452
 C105 C 0.45105 0.96922 -0.03184
 C106 C 0.47485 1.00019 -0.00024
 C107 C 0.45085 1.03117 0.03128
 C108 C 0.40321 1.03115 0.03113
 C109 C 0.37964 1.00021 -0.00039
 C110 C 0.40341 0.96926 -0.03184
 C111 C 0.52483 1.00017 -0.00015
 C112 C 0.54875 1.03115 -0.03176
 C113 C 0.59639 1.03109 -0.03159
 C114 C 0.62003 1.00012 0.00004
 C115 C 0.59634 0.96918 0.03158
 C116 C 0.54871 0.96917 0.03156
 H117 H 0.46954 0.94526 -0.05618
 H118 H 0.46919 1.05511 0.05569
 H119 H 0.53035 1.05511 -0.05625
 H120 H 0.53027 0.94522 0.05598
 H121 H 0.34273 1.00021 -0.00044
 H122 H 0.65695 1.00010 0.00011
 C123 C -0.03072 0.44723 0.97167
 C124 C 0.00054 0.47272 1.00057
 C125 C 0.03182 0.44707 1.02949
 C126 C 0.03168 0.39612 1.02968
 C127 C 0.00059 0.37081 1.00061
 C128 C -0.03052 0.39628 0.97152
 C129 C 0.00051 0.52619 1.00055
 C130 C -0.03079 0.55176 1.02945
 C131 C -0.03066 0.60272 1.02958
 C132 C 0.00044 0.62810 1.00048
 C133 C 0.03157 0.60272 0.97140
 C134 C 0.03177 0.55176 0.97161
 H135 H -0.05483 0.46702 0.94922
 H136 H 0.05592 0.46674 1.05192
 H137 H -0.05489 0.53203 1.05190
 H138 H 0.05589 0.53203 0.94917
 H139 H 0.00062 0.33134 1.00063
 H140 H 0.00041 0.66757 1.00044
 C141 C 0.96829 -0.02849 0.44754
 C142 C 0.99978 0.00010 0.47305
 C143 C 1.03120 0.02869 0.44734
 C144 C 1.03095 0.02890 0.39631
 C145 C 0.99964 0.00012 0.37098
 C146 C 0.96840 -0.02867 0.39651
 C147 C 0.99986 0.00007 0.52659
 C148 C 1.03144 -0.02853 0.55217
 C149 C 1.03134 -0.02875 0.60320
 C150 C 1.00002 0.00004 0.62865
 C151 C 0.96862 0.02884 0.60325
 C152 C 0.96836 0.02866 0.55223
 H153 H 0.94408 -0.05070 0.46738
 H154 H 1.05546 0.05089 0.46701
 H155 H 1.05571 -0.05074 0.53239
 H156 H 0.94402 0.05088 0.53249
 H157 H 0.99959 0.00012 0.33146
 H158 H 1.00009 0.00002 0.66818
 C159 C 0.08880 0.34577 1.08462
 C160 C 0.06312 0.36941 1.05979
 C161 C -0.08780 0.65295 1.08444
 C162 C -0.06211 0.62936 1.05966
 C163 C -0.08758 0.34623 0.91661
 C164 C -0.06192 0.36973 0.94142
 C165 C 0.08859 0.65295 0.91641
 C166 C 0.06296 0.62936 0.94126
 C167 C 1.08822 0.08345 0.34593
 C168 C 1.06247 0.05876 0.36956
 C169 C 1.08889 -0.08333 0.65337
 C170 C 1.06302 -0.05863 0.62983
 C171 C 0.91106 -0.08325 0.34650
 C172 C 0.93684 -0.05855 0.36997
 C173 C 0.91125 0.08341 0.65351
 C174 C 0.93704 0.05871 0.62993
 C175 C 0.35427 1.08789 0.08851
 C176 C 0.37778 1.06259 0.06297
 C177 C 0.64522 1.08786 -0.08908
 C178 C 0.62176 1.06255 -0.06350
 C179 C 0.35482 0.91245 -0.08929
 C180 C 0.37817 0.93778 -0.06372
 C181 C 0.64508 0.91236 0.08925
 C182 C 0.62166 0.93769 0.06359
   
