data_POSCAR
  _audit_creation_date              2014-09-24
  _audit_creation_method            'ToBaCCo'
  _symmetry_space_group_name_H-M    'P1'
  _symmetry_Int_Tables_number       1
  _symmetry_cell_setting            triclinic
  loop_
  _symmetry_equiv_pos_as_xyz
 x,y,z
_cell_length_a 38.5991
_cell_length_b 38.4605
_cell_length_c 38.7820
_cell_angle_alpha 89.716000
_cell_angle_beta 90.751600
_cell_angle_gamma 90.428700
loop_
  _atom_site_label
  _atom_site_type_symbol
  _atom_site_fract_x
  _atom_site_fract_y
  _atom_site_fract_z
C1 C 0.19558 1.23437 0.19175
 N2 N 0.22485 1.21887 0.18052
 C3 C 0.23853 1.19113 0.19756
 N4 N 0.22250 1.17874 0.22615
 C5 C 0.19319 1.19386 0.23787
 N6 N 0.18001 1.22165 0.22046
 C7 C 0.81659 0.76212 0.18640
 N8 N 0.83017 0.77822 0.21470
 C9 C 0.81549 0.80733 0.22763
 N10 N 0.78672 0.82033 0.21178
 C11 C 0.77268 0.80463 0.18352
 N12 N 0.78780 0.77560 0.17096
 C13 C 0.81017 1.22916 -0.19651
 N14 N 0.78199 1.21484 -0.18105
 C15 C 0.76596 1.18644 -0.19480
 N16 N 0.77863 1.17220 -0.22397
 C17 C 0.80691 1.18593 -0.23963
 N18 N 0.82245 1.21452 -0.22571
 C19 C 0.18588 0.77303 -0.18404
 N20 N 0.21434 0.78977 -0.17118
 C21 C 0.22653 0.81926 -0.18628
 N22 N 0.20997 0.83205 -0.21468
 C23 C 0.18159 0.81564 -0.22817
 N24 N 0.16972 0.78619 -0.21257
 C25 C 0.55416 1.05209 -0.00659
 H26 H 0.55615 1.05256 0.02125
 C27 C 0.57781 1.07096 -0.02639
 H28 H 0.59805 1.08585 -0.01356
 C29 C 0.52656 1.03034 -0.05707
 H30 H 0.50719 1.01378 -0.06900
 C31 C 0.54967 1.04870 -0.07782
 H32 H 0.54723 1.04668 -0.10558
 N33 N 0.52923 1.03224 -0.02212
 C34 C 0.45280 1.01334 0.05788
 H35 H 0.45220 0.98522 0.05750
 C36 C 0.43074 1.03134 0.07958
 H37 H 0.41309 1.01683 0.09577
 C38 C 0.47542 1.06629 0.03579
 H39 H 0.49239 1.07976 0.01818
 C40 C 0.45356 1.08536 0.05691
 H41 H 0.45435 1.11349 0.05581
 Zn42 Zn 0.50091 1.00390 0.00612
 N43 N 0.47463 1.03092 0.03667
 C44 C 0.53330 0.97435 0.06574
 N45 N 0.53088 0.97368 0.03072
 C46 C 0.55154 0.95278 0.01185
 C47 C 0.57552 0.93104 0.02817
 C48 C 0.55708 0.95315 0.08312
 C49 C 0.44543 0.99716 -0.04000
 C50 C 0.42058 0.98038 -0.06052
 C51 C 0.44340 0.92518 -0.04122
 C52 C 0.46801 0.94305 -0.02121
 N53 N 0.46879 0.97843 -0.02125
 H54 H 0.51728 0.99175 0.08025
 H55 H 0.54958 0.95332 -0.01601
 H56 H 0.59208 0.91498 0.01265
 H57 H 0.55861 0.95394 0.11100
 H58 H 0.44621 1.02527 -0.03900
 H59 H 0.40211 0.99578 -0.07513
 H60 H 0.44334 0.89703 -0.04118
 H61 H 0.48623 0.92861 -0.00549
 C62 C 0.43072 1.06783 0.07906
 C63 C 0.57602 1.06901 -0.06253
 C64 C 0.41938 0.94391 -0.06134
 C65 C 0.57864 0.93117 0.06427
 C66 C -0.00881 0.54604 1.04813
 H67 H 0.01920 0.54558 1.04922
 C68 C -0.02686 0.56889 1.06900
 H69 H -0.01251 0.58610 1.08608
 C70 C -0.06135 0.52511 1.02331
 H71 H -0.07461 0.50841 1.00503
 C72 C -0.08045 0.54785 1.04353
 H73 H -0.10843 0.54804 1.04106
 N74 N -0.02618 0.52455 1.02607
 C75 C 0.05018 0.44425 1.00684
 H76 H 0.05087 0.44541 0.97898
 C77 C 0.07103 0.42062 1.02475
 H78 H 0.08763 0.40345 1.01046
 C79 C 0.02674 0.46454 1.05914
 H80 H 0.00906 0.48131 1.07242
 C81 C 0.04699 0.44110 1.07809
 H82 H 0.04516 0.44057 1.10592
 Zn83 Zn 0.00113 0.49642 0.99744
 N84 N 0.02894 0.46592 1.02418
 C85 C 0.06433 0.52698 0.97496
 N86 N 0.02923 0.52703 0.97134
 C87 C 0.01295 0.55076 0.95082
 C88 C 0.03212 0.57552 0.93262
 C89 C 0.08449 0.55140 0.95737
 C90 C -0.04803 0.44461 0.98374
 C91 C -0.06738 0.42110 0.96390
 C92 C -0.04291 0.44674 0.91260
 C93 C -0.02408 0.46982 0.93344
 N94 N -0.02693 0.46832 0.96833
 H95 H 0.07678 0.50856 0.99208
 H96 H -0.01504 0.55071 0.94902
 H97 H 0.01864 0.59459 0.91691
 H98 H 0.11239 0.55100 0.96060
 H99 H -0.04925 0.44354 1.01158
 H100 H -0.08334 0.40187 0.97673
 H101 H -0.04022 0.44824 0.88488
 H102 H -0.00658 0.48829 0.92169
 C103 C 0.06960 0.41884 1.06087
 C104 C -0.06315 0.57012 1.06674
 C105 C -0.06468 0.42174 0.92782
 C106 C 0.06838 0.57622 0.93600
 C107 C 1.04636 -0.00980 0.55077
 H108 H 1.04775 0.01830 0.55123
 C109 C 1.06470 -0.02923 0.57531
 H110 H 1.08012 -0.01585 0.59469
 C111 C 1.02289 -0.06118 0.52602
 H112 H 1.00596 -0.07351 0.50728
 C113 C 1.04065 -0.08162 0.55019
 H114 H 1.03774 -0.10963 0.54933
 N115 N 1.02599 -0.02594 0.52678
 C116 C 1.01062 0.05349 0.44754
 H117 H 0.98259 0.05404 0.44682
 C118 C 1.02950 0.07472 0.42527
 H119 H 1.01580 0.09151 0.40732
 C120 C 1.06235 0.02968 0.47089
 H121 H 1.07499 0.01164 0.48830
 C122 C 1.08229 0.05028 0.44880
 H123 H 1.11026 0.04834 0.44984
 Zn124 Zn 0.99892 0.00249 0.49720
 N125 N 1.02718 0.03176 0.46993
 C126 C 0.97245 0.06435 0.52696
 N127 N 0.97002 0.02906 0.52581
 C128 C 0.94819 0.01125 0.54684
 C129 C 0.92707 0.02898 0.56966
 C130 C 0.95199 0.08313 0.54965
 C131 C 0.98997 -0.04470 0.44355
 C132 C 0.97225 -0.06483 0.41912
 C133 C 0.91824 -0.04387 0.44160
 C134 C 0.93702 -0.02409 0.46560
 N135 N 0.97225 -0.02508 0.46632
 H136 H 0.99063 0.07800 0.51074
 H137 H 0.94739 -0.01686 0.54598
 H138 H 0.91011 0.01431 0.58643
 H139 H 0.95415 0.11121 0.55019
 H140 H 1.01800 -0.04447 0.44426
 H141 H 0.98693 -0.07983 0.40091
 H142 H 0.89021 -0.04304 0.44169
 H143 H 0.92338 -0.00771 0.48333
 C144 C 1.06583 0.07315 0.42560
 C145 C 1.06166 -0.06564 0.57545
 C146 C 0.93586 -0.06459 0.41790
 C147 C 0.92890 0.06540 0.57134
 C148 C 0.14940 0.31634 1.13556
 C149 C 0.18013 0.30142 1.12367
 C150 C 0.19578 0.27471 1.14258
 C151 C 0.18090 0.26235 1.17327
 C152 C 0.15029 0.27827 1.18434
 N153 N 0.13558 0.30422 1.16544
 C154 C 0.13044 0.34374 1.11609
 N155 N 0.09705 0.35036 1.12474
 C156 C 0.07741 0.37441 1.10794
 C157 C 0.09114 0.39346 1.08031
 C158 C 0.12564 0.38754 1.07121
 C159 C 0.14543 0.36295 1.08909
 H160 H 0.21923 0.26339 1.13267
 H161 H 0.13766 0.26995 1.20777
 H162 H 0.05085 0.37801 1.11570
 H163 H 0.13745 0.40221 1.05049
 H164 H 0.19176 0.30934 1.09968
 H165 H 0.17210 0.35958 1.08181
 C166 C -0.13377 0.67555 1.14333
 C167 C -0.11986 0.69117 1.17317
 C168 C -0.13662 0.71941 1.18776
 C169 C -0.16719 0.73265 1.17270
 C170 C -0.18040 0.71600 1.14301
 N171 N -0.16352 0.68854 1.12928
 C172 C -0.11622 0.64670 1.12541
 N173 N -0.12529 0.63990 1.09203
 C174 C -0.10954 0.61499 1.07319
 C175 C -0.08250 0.59538 1.08774
 C176 C -0.07330 0.60124 1.12234
 C177 C -0.09019 0.62659 1.14131
 H178 H -0.12510 0.73120 1.21053
 H179 H -0.20384 0.72496 1.13032
 H180 H -0.11739 0.61135 1.04656
 H181 H -0.05306 0.58614 1.13474
 H182 H -0.09579 0.68264 1.18481
 H183 H -0.08279 0.63004 1.16804
 C184 C -0.13606 0.31521 0.84984
 C185 C -0.12679 0.30404 0.81679
 C186 C -0.14454 0.27623 0.80158
 C187 C -0.17182 0.25964 0.81889
 C188 C -0.18100 0.27230 0.85140
 N189 N -0.16310 0.29923 0.86583
 C190 C -0.11732 0.34363 0.86810
 N191 N -0.13282 0.35917 0.89530
 C192 C -0.11691 0.38445 0.91426
 C193 C -0.08314 0.39542 0.90638
 C194 C -0.06667 0.37984 0.87843
 C195 C -0.08352 0.35395 0.85936
 H196 H -0.13681 0.26774 0.77625
 H197 H -0.20200 0.26050 0.86564
 H198 H -0.13068 0.39593 0.93544
 H199 H -0.04033 0.38689 0.87195
 H200 H -0.10631 0.31657 0.80249
 H201 H -0.06956 0.34164 0.83883
 C202 C 0.14375 0.68618 0.86775
 C203 C 0.17522 0.70083 0.87941
 C204 C 0.18937 0.72933 0.86205
 C205 C 0.17265 0.74328 0.83269
 C206 C 0.14188 0.72697 0.82116
 N207 N 0.12843 0.69951 0.83881
 C208 C 0.12624 0.65698 0.88590
 N209 N 0.09955 0.64022 0.86953
 C210 C 0.08113 0.61418 0.88468
 C211 C 0.08912 0.60357 0.91851
 C212 C 0.11657 0.62032 0.93588
 C213 C 0.13504 0.64703 0.91984
 H214 H 0.21340 0.74042 0.87186
 H215 H 0.12803 0.73632 0.79855
 H216 H 0.06031 0.60179 0.87025
 H217 H 0.12312 0.61345 0.96227
 H218 H 0.18914 0.69064 0.90153
 H219 H 0.15519 0.66008 0.93451
 C220 C 1.14050 0.15070 0.32268
 C221 C 1.12709 0.18020 0.30583
 C222 C 1.14488 0.19487 0.27820
 C223 C 1.17598 0.18023 0.26681
 C224 C 1.18867 0.15092 0.28469
 N225 N 1.17079 0.13708 0.31150
 C226 C 1.12184 0.13259 0.35086
 N227 N 1.13064 0.09921 0.35870
 C228 C 1.11391 0.08015 0.38306
 C229 C 1.08612 0.09446 0.40098
 C230 C 1.07716 0.12909 0.39403
 C231 C 1.09504 0.14830 0.36928
 H232 H 1.13373 0.21734 0.26542
 H233 H 1.21250 0.13855 0.27717
 H234 H 1.12162 0.05350 0.38756
 H235 H 1.05635 0.14133 0.40784
 H236 H 1.10266 0.19147 0.31292
 H237 H 1.08779 0.17506 0.36497
 C238 C 1.12908 -0.14136 0.68582
 C239 C 1.11766 -0.17315 0.69983
 C240 C 1.13511 -0.18749 0.72819
 C241 C 1.16428 -0.17062 0.74267
 C242 C 1.17536 -0.13933 0.72721
 N243 N 1.15771 -0.12577 0.69982
 C244 C 1.11116 -0.12384 0.65647
 N245 N 1.12758 -0.09687 0.64049
 C246 C 1.11268 -0.07841 0.61433
 C247 C 1.07902 -0.08663 0.60276
 C248 C 1.06161 -0.11442 0.61866
 C249 C 1.07742 -0.13296 0.64551
 H250 H 1.12562 -0.21186 0.73868
 H251 H 1.19778 -0.12527 0.73702
 H252 H 1.12715 -0.05735 0.60262
 H253 H 1.03533 -0.12118 0.61104
 H254 H 1.09574 -0.18723 0.68916
 H255 H 1.06272 -0.15339 0.65788
 C256 C 0.86268 -0.14094 0.31167
 C257 C 0.83241 -0.12735 0.29661
 C258 C 0.81642 -0.14470 0.26910
 C259 C 0.83050 -0.17566 0.25628
 C260 C 0.86058 -0.18863 0.27260
 N261 N 0.87564 -0.17118 0.29931
 C262 C 0.88113 -0.12244 0.34001
 N263 N 0.87032 -0.09043 0.34997
 C264 C 0.88693 -0.07184 0.37499
 C265 C 0.91658 -0.08524 0.39155
 C266 C 0.92795 -0.11835 0.38194
 C267 C 0.91037 -0.13697 0.35626
 H268 H 0.79326 -0.13351 0.25770
 H269 H 0.87250 -0.21241 0.26404
 H270 H 0.87743 -0.04628 0.38126
 H271 H 0.95035 -0.12995 0.39438
 H272 H 0.82128 -0.10340 0.30576
 H273 H 0.91971 -0.16239 0.34916
 C274 C 0.85060 0.13625 0.67477
 C275 C 0.82046 0.12247 0.68968
 C276 C 0.80558 0.13934 0.71751
 C277 C 0.82065 0.16988 0.73104
 C278 C 0.85054 0.18305 0.71499
 N279 N 0.86456 0.16605 0.68794
 C280 C 0.86898 0.11847 0.64654
 N281 N 0.90249 0.12764 0.64033
 C282 C 0.92176 0.11178 0.61599
 C283 C 0.90753 0.08453 0.59634
 C284 C 0.87283 0.07514 0.60168
 C285 C 0.85341 0.09214 0.62647
 H286 H 0.78263 0.12788 0.72881
 H287 H 0.86323 0.20649 0.72418
 H288 H 0.94847 0.11977 0.61276
 H289 H 0.86068 0.05473 0.58653
 H290 H 0.80881 0.09840 0.68096
 H291 H 0.82660 0.08462 0.62948
 C292 C 0.32632 1.13927 0.15579
 C293 C 0.31001 1.12545 0.18511
 C294 C 0.28188 1.14273 0.19918
 C295 C 0.26964 1.17363 0.18413
 C296 C 0.28689 1.18679 0.15515
 N297 N 0.31417 1.16946 0.14187
 C298 C 0.35491 1.12128 0.13807
 N299 N 0.36285 1.13146 0.10540
 C300 C 0.38756 1.11559 0.08658
 C301 C 0.40581 1.08723 0.10035
 C302 C 0.39876 1.07677 0.13427
 C303 C 0.37359 1.09379 0.15328
 H304 H 0.26928 1.13145 0.22142
 H305 H 0.27847 1.21054 0.14266
 H306 H 0.39205 1.12443 0.06047
 H307 H 0.41276 1.05542 0.14609
 H308 H 0.31790 1.10112 0.19668
 H309 H 0.36916 1.08532 0.17945
 C310 C 0.68122 1.13670 -0.14367
 C311 C 0.68925 1.12732 -0.17759
 C312 C 0.71658 1.14385 -0.19431
 C313 C 0.73579 1.17012 -0.17767
 C314 C 0.72614 1.17968 -0.14426
 N315 N 0.69962 1.16287 -0.12830
 C316 C 0.65352 1.11886 -0.12400
 N317 N 0.64005 1.13489 -0.09599
 C318 C 0.61522 1.11978 -0.07619
 C319 C 0.60250 1.08643 -0.08416
 C320 C 0.61620 1.06935 -0.11273
 C321 C 0.64169 1.08530 -0.13255
 H322 H 0.72266 1.13598 -0.22029
 H323 H 0.74006 1.19995 -0.13051
 H324 H 0.60531 1.13392 -0.05443
 H325 H 0.60785 1.04323 -0.11927
 H326 H 0.67463 1.10765 -0.19142
 H327 H 0.65247 1.07086 -0.15365
 C328 C 0.31225 0.87393 -0.14006
 C329 C 0.29489 0.88846 -0.16874
 C330 C 0.26736 0.87038 -0.18419
 C331 C 0.25675 0.83797 -0.17111
 C332 C 0.27485 0.82429 -0.14254
 N333 N 0.30157 0.84239 -0.12795
 C334 C 0.34076 0.89226 -0.12140
 N335 N 0.34987 0.88084 -0.08925
 C336 C 0.37511 0.89643 -0.06994
 C337 C 0.39281 0.92568 -0.08268
 C338 C 0.38434 0.93761 -0.11595
 C339 C 0.35858 0.92093 -0.13545
 H340 H 0.25401 0.88212 -0.20599
 H341 H 0.26764 0.79941 -0.13152
 H342 H 0.38071 0.88646 -0.04434
 H343 H 0.39790 0.95965 -0.12703
 H344 H 0.30158 0.91382 -0.17884
 H345 H 0.35322 0.93042 -0.16122
 C346 C 0.68578 0.85109 0.13168
 C347 C 0.70127 0.82149 0.11756
 C348 C 0.72920 0.80596 0.13474
 C349 C 0.74203 0.81985 0.16583
 C350 C 0.72569 0.84929 0.17916
 N351 N 0.69857 0.86395 0.16196
 C352 C 0.65711 0.87000 0.11414
 N353 N 0.65004 0.90292 0.12461
 C354 C 0.62486 0.92256 0.10960
 C355 C 0.60503 0.90935 0.08199
 C356 C 0.61139 0.87529 0.07108
 C357 C 0.63717 0.85547 0.08714
 H358 H 0.74111 0.78345 0.12331
 H359 H 0.73461 0.86095 0.20304
 H360 H 0.62101 0.94878 0.11870
 H361 H 0.59620 0.86387 0.05031
 H362 H 0.69284 0.81075 0.09315
 H363 H 0.64094 0.82913 0.07851
   
