data_POSCAR
  _audit_creation_date              2014-09-24
  _audit_creation_method            'ToBaCCo'
  _symmetry_space_group_name_H-M    'P1'
  _symmetry_Int_Tables_number       1
  _symmetry_cell_setting            triclinic
  loop_
  _symmetry_equiv_pos_as_xyz
 x,y,z
_cell_length_a 14.2518
_cell_length_b 14.2497
_cell_length_c 37.4266
_cell_angle_alpha 89.655600
_cell_angle_beta 90.306700
_cell_angle_gamma 119.746400
loop_
  _atom_site_label
  _atom_site_type_symbol
  _atom_site_fract_x
  _atom_site_fract_y
  _atom_site_fract_z
Si1 Si 0.00246 0.00026 0.50015
 Si2 Si 1.00063 0.00313 0.16648
 Si3 Si -0.00233 0.99738 0.83323
 O4 O 0.55115 -0.07745 0.03411
 O5 O 0.36495 -0.07905 -0.03567
 O6 O 0.53806 -0.09883 -0.03520
 O7 O 0.35851 -0.09746 0.03375
 O8 O 0.44519 0.08126 0.03341
 O9 O 0.62870 0.07988 -0.03610
 O10 O 0.45555 0.09966 -0.03606
 O11 O 0.63783 0.10126 0.03317
 Cu12 Cu 0.44455 -0.10562 -0.00071
 Cu13 Cu 0.55042 0.10795 -0.00148
 C14 C 0.62648 0.01326 0.04528
 C15 C 0.37922 0.01113 -0.04747
 C16 C 0.61397 -0.01081 -0.04720
 C17 C 0.37033 -0.00897 0.04519
 O18 O 0.07721 0.62691 0.70254
 O19 O 0.07720 0.44278 0.63306
 O20 O 0.10399 0.64090 0.63426
 O21 O 0.10291 0.45916 0.70336
 O22 O -0.07581 0.36593 0.70229
 O23 O -0.07478 0.55201 0.63256
 O24 O -0.10134 0.35622 0.63295
 O25 O -0.10139 0.53611 0.70185
 Cu26 Cu 0.10628 0.54906 0.66790
 Cu27 Cu -0.10564 0.44397 0.66737
 C28 C -0.01343 0.61218 0.71374
 C29 C -0.01310 0.36790 0.62137
 C30 C 0.01601 0.62869 0.62182
 C31 C 0.01461 0.38170 0.71449
 O32 O 0.63385 0.55307 0.36814
 O33 O 0.44909 0.36978 0.29852
 O34 O 0.64129 0.54188 0.29879
 O35 O 0.46120 0.36131 0.36790
 O36 O 0.36993 0.44944 0.36805
 O37 O 0.55394 0.63391 0.29842
 O38 O 0.36173 0.46180 0.29866
 O39 O 0.54257 0.64118 0.36776
 Cu40 Cu 0.55508 0.44771 0.33335
 Cu41 Cu 0.44832 0.55537 0.33321
 C42 C 0.61895 0.62871 0.37954
 C43 C 0.37358 0.38528 0.28700
 C44 C 0.62934 0.61861 0.28702
 C45 C 0.38496 0.37361 0.37957
 C46 C -0.02109 0.08843 0.52887
 C47 C -0.02434 0.15214 0.54911
 C48 C -0.02098 0.22865 0.57361
 C49 C -0.01633 0.29346 0.59510
 C50 C 0.91189 0.89147 0.19524
 C51 C 0.84748 0.82435 0.21535
 C52 C 0.77000 0.75086 0.23961
 C53 C 0.70442 0.69031 0.26091
 C54 C 0.10341 0.01867 -0.13944
 C55 C 0.17126 0.02208 -0.11931
 C56 C 0.24558 0.01872 -0.09499
 C57 C 0.30679 0.01410 -0.07363
 C58 C 0.02592 0.91154 0.52913
 C59 C 0.02895 0.84733 0.54950
 C60 C 0.02515 0.77004 0.57408
 C61 C 0.02000 0.70439 0.59560
 C62 C 0.08995 0.11426 0.19518
 C63 C 0.15466 0.18096 0.21528
 C64 C 0.23243 0.25395 0.23955
 C65 C 0.29824 0.31407 0.26087
 C66 C 0.88612 -0.02413 -0.13829
 C67 C 0.81912 -0.02589 -0.11837
 C68 C 0.74581 -0.02084 -0.09432
 C69 C 0.68544 -0.01500 -0.07317
 C70 C 0.08955 -0.01903 0.13764
 C71 C 0.15373 -0.02138 0.11738
 C72 C 0.23073 -0.01716 0.09290
 C73 C 0.29582 -0.01211 0.07143
 C74 C 0.89129 0.91083 0.47139
 C75 C 0.82444 0.84630 0.45128
 C76 C 0.75115 0.76888 0.42700
 C77 C 0.69067 0.70348 0.40568
 C78 C 0.02053 0.10407 0.80609
 C79 C 0.02485 0.17269 0.78610
 C80 C 0.02224 0.24781 0.76194
 C81 C 0.01787 0.30939 0.74067
 C82 C 0.91090 0.02556 0.13768
 C83 C 0.84600 0.02778 0.11745
 C84 C 0.76805 0.02311 0.09301
 C85 C 0.70209 0.01743 0.07155
 C86 C 0.11352 0.09012 0.47148
 C87 C 0.18023 0.15495 0.45137
 C88 C 0.25331 0.23272 0.42708
 C89 C 0.31355 0.29843 0.40573
 C90 C -0.02477 0.88570 0.80467
 C91 C -0.02719 0.81840 0.78476
 C92 C -0.02286 0.74461 0.76075
 C93 C -0.01744 0.68389 0.73966
   
