data_POSCAR
  _audit_creation_date              2014-09-24
  _audit_creation_method            'ToBaCCo'
  _symmetry_space_group_name_H-M    'P1'
  _symmetry_Int_Tables_number       1
  _symmetry_cell_setting            triclinic
  loop_
  _symmetry_equiv_pos_as_xyz
 x,y,z
_cell_length_a 26.9116
_cell_length_b 26.9789
_cell_length_c 26.8494
_cell_angle_alpha 89.915900
_cell_angle_beta 89.980200
_cell_angle_gamma 90.025700
loop_
  _atom_site_label
  _atom_site_type_symbol
  _atom_site_fract_x
  _atom_site_fract_y
  _atom_site_fract_z
N1 N 0.55322 0.10059 0.02368
 N2 N 0.58891 0.12961 0.04064
 N3 N 0.44866 0.10008 -0.02494
 N4 N 0.41294 0.12874 -0.04246
 N5 N 0.44871 0.10043 0.02399
 N6 N 0.41305 0.12935 0.04113
 N7 N 0.55317 0.10014 -0.02525
 N8 N 0.58880 0.12885 -0.04295
 C9 C 0.61085 0.14654 -0.00138
 C10 C 0.39097 0.14630 -0.00078
 N11 N 0.44851 -0.02476 -0.09957
 N12 N 0.41264 -0.04226 -0.12812
 N13 N 0.55304 0.02393 -0.10048
 N14 N 0.58821 0.04093 -0.13031
 N15 N 0.55306 -0.02472 -0.09965
 N16 N 0.59043 -0.04269 -0.13070
 N17 N 0.44853 0.02392 -0.10007
 N18 N 0.41268 0.04093 -0.12897
 Mn19 Mn 0.50086 0.06240 -0.06307
 C20 C 0.39055 -0.00081 -0.14577
 C21 C 0.61083 -0.00024 -0.14809
 N22 N 0.44897 0.02547 0.10068
 N23 N 0.41315 0.04285 0.12939
 N24 N 0.55356 -0.02297 0.10097
 N25 N 0.58875 -0.03994 0.13077
 N26 N 0.55355 0.02568 0.10017
 N27 N 0.59091 0.04368 0.13122
 N28 N 0.44907 -0.02321 0.10115
 N29 N 0.41335 -0.04035 0.13016
 Mn30 Mn 0.50110 0.06343 0.06253
 C31 C 0.39119 0.00131 0.14709
 C32 C 0.61136 0.00124 0.14855
 N33 N 0.55324 -0.09957 -0.02320
 N34 N 0.58894 -0.12839 -0.04043
 N35 N 0.44893 -0.09936 0.02601
 N36 N 0.41333 -0.12813 0.04370
 N37 N 0.44876 -0.09967 -0.02291
 N38 N 0.41306 -0.12865 -0.03989
 N39 N 0.55346 -0.09916 0.02571
 N40 N 0.58931 -0.12771 0.04317
 Mn41 Mn 0.50087 -0.06256 -0.06173
 Mn42 Mn 0.50127 -0.06156 0.06384
 Cl43 Cl 0.50100 0.00043 0.00040
 C44 C 0.61119 -0.14525 0.00142
 C45 C 0.39120 -0.14570 0.00211
 N46 N 0.10076 0.44774 0.02367
 N47 N 0.12946 0.41189 0.04081
 N48 N 0.10141 0.55245 -0.02432
 N49 N 0.13033 0.58826 -0.04123
 N50 N 0.10120 0.55198 0.02460
 N51 N 0.12998 0.58743 0.04236
 N52 N 0.10094 0.44820 -0.02525
 N53 N 0.12978 0.41269 -0.04278
 C54 C 0.14686 0.39027 -0.00111
 C55 C 0.14747 0.60982 0.00082
 N56 N -0.02280 0.55377 -0.10081
 N57 N -0.03986 0.58911 -0.13032
 N58 N 0.02547 0.44930 -0.10144
 N59 N 0.04267 0.41359 -0.13026
 N60 N -0.02334 0.44954 -0.10161
 N61 N -0.04074 0.41401 -0.13053
 N62 N 0.02598 0.55363 -0.10033
 N63 N 0.04397 0.59105 -0.13132
 Mn64 Mn 0.06383 0.50088 -0.06324
 C65 C 0.00140 0.61168 -0.14826
 C66 C 0.00090 0.39186 -0.14774
 N67 N 0.02515 0.55153 0.10022
 N68 N 0.04244 0.58698 0.12933
 N69 N -0.02408 0.44746 0.09911
 N70 N -0.04164 0.41169 0.12775
 N71 N 0.02473 0.44728 0.09930
 N72 N 0.04176 0.41138 0.12806
 N73 N -0.02366 0.55170 0.10001
 N74 N -0.04097 0.58724 0.12895
 Mn75 Mn 0.06334 0.49963 0.06234
 C76 C 0.00072 0.60899 0.14657
 C77 C -0.00010 0.38942 0.14510
 N78 N -0.09935 0.44908 -0.02599
 N79 N -0.12816 0.41363 -0.04373
 N80 N -0.09903 0.55278 0.02385
 N81 N -0.12778 0.58833 0.04143
 N82 N -0.09883 0.55334 -0.02508
 N83 N -0.12744 0.58928 -0.04216
 N84 N -0.09948 0.44855 0.02293
 N85 N -0.12838 0.41274 0.03987
 Mn86 Mn -0.06146 0.50145 -0.06375
 Mn87 Mn -0.06195 0.50011 0.06185
 Cl88 Cl 0.00095 0.50051 -0.00070
 C89 C -0.14559 0.39122 -0.00216
 C90 C -0.14480 0.61086 -0.00021
 N91 N 0.02317 0.09908 0.44777
 N92 N 0.04056 0.12781 0.41192
 N93 N -0.02579 0.09940 0.55243
 N94 N -0.04306 0.12852 0.58793
 N95 N 0.02302 0.09930 0.55250
 N96 N 0.04034 0.12832 0.58804
 N97 N -0.02564 0.09910 0.44768
 N98 N -0.04284 0.12784 0.41177
 C99 C -0.00108 0.14505 0.38971
 C100 C -0.00134 0.14584 0.60992
 N101 N -0.10172 -0.02476 0.55286
 N102 N -0.13082 -0.04182 0.58860
 N103 N -0.10151 0.02362 0.44789
 N104 N -0.13048 0.04078 0.41213
 N105 N -0.10158 -0.02507 0.44811
 N106 N -0.13059 -0.04241 0.41251
 N107 N -0.10162 0.02394 0.55262
 N108 N -0.13062 0.04137 0.58818
 Mn109 Mn -0.06402 0.06189 0.50015
 C110 C -0.14813 -0.00010 0.61039
 C111 C -0.14791 -0.00087 0.39030
 N112 N 0.09864 0.02368 0.55289
 N113 N 0.12759 0.04095 0.58857
 N114 N 0.09875 -0.02517 0.44827
 N115 N 0.12780 -0.04245 0.41265
 N116 N 0.09878 0.02352 0.44815
 N117 N 0.12782 0.04075 0.41246
 N118 N 0.09857 -0.02501 0.55303
 N119 N 0.12746 -0.04224 0.58881
 Mn120 Mn 0.06128 0.06177 0.50033
 C121 C 0.14486 -0.00064 0.61074
 C122 C 0.14522 -0.00085 0.39055
 N123 N -0.02592 -0.10068 0.44846
 N124 N -0.04316 -0.12958 0.41277
 N125 N 0.02275 -0.10050 0.55322
 N126 N 0.03997 -0.12952 0.58889
 N127 N -0.02606 -0.10043 0.55322
 N128 N -0.04343 -0.12943 0.58887
 N129 N 0.02290 -0.10066 0.44849
 N130 N 0.04024 -0.12953 0.41284
 Mn131 Mn -0.06420 -0.06312 0.50067
 Mn132 Mn 0.06112 -0.06321 0.50075
 Cl133 Cl -0.00146 -0.00067 0.50048
 C134 C -0.00142 -0.14688 0.39080
 C135 C -0.00177 -0.14685 0.61090
 C136 C -0.34933 0.18193 -0.00182
 C137 C -0.31651 0.21234 -0.00215
 C138 C -0.27882 0.24873 -0.00246
 C139 C -0.24727 0.28045 -0.00263
 C140 C -0.21108 0.31833 -0.00267
 C141 C -0.18083 0.35128 -0.00255
 C142 C 0.35135 0.81894 0.00245
 C143 C 0.31852 0.78855 0.00252
 C144 C 0.28079 0.75220 0.00238
 C145 C 0.24922 0.72051 0.00213
 C146 C 0.21300 0.68266 0.00172
 C147 C 0.18273 0.64973 0.00131
 C148 C 0.35105 0.18157 -0.00102
 C149 C 0.31815 0.21187 -0.00117
 C150 C 0.28036 0.24813 -0.00131
 C151 C 0.24872 0.27974 -0.00136
 C152 C 0.21244 0.31751 -0.00136
 C153 C 0.18213 0.35039 -0.00129
 C154 C -0.34884 0.81958 0.00151
 C155 C -0.31590 0.78933 0.00140
 C156 C -0.27809 0.75311 0.00113
 C157 C -0.24647 0.72150 0.00082
 C158 C -0.21023 0.68371 0.00042
 C159 C -0.17998 0.65080 0.00010
 C160 C 0.00061 -0.35121 0.18197
 C161 C 0.00034 -0.31836 0.21234
 C162 C -0.00012 -0.28058 0.24865
 C163 C -0.00054 -0.24894 0.28028
 C164 C -0.00100 -0.21261 0.31805
 C165 C -0.00129 -0.18224 0.35092
 C166 C 0.00073 0.35181 0.81713
 C167 C 0.00042 0.31874 0.78701
 C168 C -0.00006 0.28066 0.75101
 C169 C -0.00049 0.24876 0.71964
 C170 C -0.00095 0.21212 0.68216
 C171 C -0.00122 0.18149 0.64954
 C172 C -0.00038 0.34939 0.18035
 C173 C -0.00056 0.31641 0.21067
 C174 C -0.00071 0.27855 0.24700
 C175 C -0.00081 0.24689 0.27870
 C176 C -0.00090 0.21059 0.31661
 C177 C -0.00098 0.18029 0.34963
 C178 C 0.00029 -0.35225 0.81939
 C179 C -0.00051 -0.31933 0.78899
 C180 C -0.00118 -0.28141 0.75270
 C181 C -0.00154 -0.24960 0.72114
 C182 C -0.00177 -0.21304 0.68346
 C183 C -0.00183 -0.18246 0.65068
 C184 C 0.35040 -0.00105 0.81907
 C185 C 0.31729 -0.00110 0.78887
 C186 C 0.27923 -0.00103 0.75271
 C187 C 0.24738 -0.00091 0.72117
 C188 C 0.21086 -0.00076 0.68346
 C189 C 0.18035 -0.00066 0.65062
 C190 C -0.35270 0.00022 0.18107
 C191 C -0.31989 -0.00044 0.21163
 C192 C -0.28209 -0.00087 0.24807
 C193 C -0.25038 -0.00104 0.27976
 C194 C -0.21393 -0.00105 0.31757
 C195 C -0.18344 -0.00098 0.35043
 C196 C 0.35107 0.00134 0.18233
 C197 C 0.31797 0.00109 0.21257
 C198 C 0.27990 0.00059 0.24874
 C199 C 0.24801 0.00009 0.28027
 C200 C 0.21141 -0.00045 0.31794
 C201 C 0.18082 -0.00077 0.35074
 C202 C -0.35319 0.00075 0.81942
 C203 C -0.32034 0.00120 0.78888
 C204 C -0.28249 0.00125 0.75248
 C205 C -0.25074 0.00102 0.72082
 C206 C -0.21424 0.00058 0.68306
 C207 C -0.18370 0.00020 0.65022
   
