data_POSCAR
  _audit_creation_date              2014-09-24
  _audit_creation_method            'ToBaCCo'
  _symmetry_space_group_name_H-M    'P1'
  _symmetry_Int_Tables_number       1
  _symmetry_cell_setting            triclinic
  loop_
  _symmetry_equiv_pos_as_xyz
 x,y,z
_cell_length_a 45.2068
_cell_length_b 35.0358
_cell_length_c 21.6199
_cell_angle_alpha 91.907400
_cell_angle_beta 90.041300
_cell_angle_gamma 88.504700
loop_
  _atom_site_label
  _atom_site_type_symbol
  _atom_site_fract_x
  _atom_site_fract_y
  _atom_site_fract_z
C1 C 0.66496 0.27133 0.47134
 C2 C 0.67156 0.26093 0.53232
 C3 C 0.70015 0.24627 0.54503
 C4 C 0.72242 0.24409 0.49910
 C5 C 0.71532 0.25677 0.43951
 C6 C 0.68659 0.26902 0.42496
 C7 C 0.75316 0.22970 0.51309
 C8 C 0.77115 0.21319 0.46551
 C9 C 0.80083 0.20262 0.47619
 C10 C 0.81195 0.20580 0.53684
 C11 C 0.79392 0.21968 0.58582
 C12 C 0.76492 0.23239 0.57351
 H13 H 0.64382 0.28415 0.45978
 H14 H 0.70487 0.23669 0.59113
 H15 H 0.73209 0.25765 0.40396
 H16 H 0.76224 0.20878 0.41942
 H17 H 0.83382 0.19455 0.54717
 H18 H 0.75183 0.24442 0.61155
 C19 C 0.18396 0.80349 0.47953
 C20 C 0.19189 0.79638 0.54118
 C21 C 0.21896 0.77680 0.55214
 C22 C 0.23953 0.76913 0.50359
 C23 C 0.23199 0.78108 0.44368
 C24 C 0.20392 0.79631 0.43102
 C25 C 0.26918 0.75007 0.51440
 C26 C 0.28423 0.73090 0.46484
 C27 C 0.31333 0.71727 0.47120
 C28 C 0.32716 0.72009 0.52899
 C29 C 0.31192 0.73591 0.58100
 C30 C 0.28312 0.75134 0.57297
 H31 H 0.16237 0.81525 0.46838
 H32 H 0.22415 0.76876 0.59884
 H33 H 0.24770 0.77846 0.40601
 H34 H 0.27357 0.72655 0.42045
 H35 H 0.34888 0.70685 0.53383
 H36 H 0.27213 0.76514 0.61243
 C37 C 0.30665 0.30868 -0.50331
 C38 C 0.29530 0.29577 -0.56067
 C39 C 0.27545 0.26552 -0.56225
 C40 C 0.26737 0.24759 -0.50753
 C41 C 0.27986 0.26037 -0.45108
 C42 C 0.29865 0.29145 -0.44835
 C43 C 0.24592 0.21578 -0.50850
 C44 C 0.22728 0.21090 -0.45710
 C45 C 0.20762 0.18059 -0.45557
 C46 C 0.20710 0.15450 -0.50641
 C47 C 0.22427 0.15970 -0.55903
 C48 C 0.24382 0.19015 -0.56000
 H49 H 0.32278 0.33093 -0.50135
 H50 H 0.26610 0.25642 -0.60627
 H51 H 0.27498 0.24627 -0.40860
 H52 H 0.22745 0.23138 -0.41845
 H53 H 0.19343 0.12966 -0.50614
 H54 H 0.25789 0.19293 -0.59997
 C55 C -0.19200 0.82113 -0.48196
 C56 C -0.20411 0.81368 -0.54114
 C57 C -0.22520 0.78497 -0.54787
 C58 C -0.23291 0.76221 -0.49797
 C59 C -0.21903 0.76903 -0.44043
 C60 C -0.19969 0.79920 -0.43159
 C61 C -0.25545 0.73172 -0.50555
 C62 C -0.27212 0.72038 -0.45445
 C63 C -0.29269 0.69124 -0.46047
 C64 C -0.29821 0.67487 -0.51941
 C65 C -0.28254 0.68640 -0.57136
 C66 C -0.26089 0.71406 -0.56388
 H67 H -0.17546 0.84249 -0.47464
 H68 H -0.23581 0.78089 -0.59237
 H69 H -0.22332 0.75123 -0.40168
 H70 H -0.26945 0.73427 -0.40944
 H71 H -0.31572 0.65463 -0.52547
 H72 H -0.24831 0.72141 -0.60411
 N73 N 0.04774 1.03730 0.09816
 N74 N 0.07288 1.03850 0.12936
 N75 N -0.01188 1.08255 0.08811
 N76 N -0.02936 1.11162 0.10618
 N77 N -0.01154 1.05595 0.12950
 N78 N -0.02903 1.06588 0.17639
 N79 N 0.04700 1.06342 0.05597
 N80 N 0.07154 1.08300 0.05723
 C81 C 0.08762 1.06685 0.10264
 C82 C -0.03986 1.10069 0.16130
 N83 N -0.03677 1.05815 -0.08161
 N84 N -0.05937 1.07200 -0.11322
 N85 N 0.03154 1.06448 -0.07332
 N86 N 0.05366 1.08330 -0.09674
 N87 N 0.02214 1.03862 -0.11350
 N88 N 0.03758 1.03895 -0.16508
 N89 N -0.02723 1.08392 -0.04139
 N90 N -0.04290 1.11611 -0.04504
 Mn91 Mn 0.00995 1.07398 0.00741
 C92 C -0.06317 1.10799 -0.08928
 C93 C 0.05728 1.06663 -0.15380
 N94 N -0.02473 0.97631 0.13133
 N95 N -0.04155 0.97789 0.18114
 N96 N 0.02457 0.93133 0.05954
 N97 N 0.04128 0.89990 0.06096
 N98 N 0.03424 0.95728 0.09933
 N99 N 0.05786 0.94432 0.12855
 N100 N -0.03444 0.95084 0.09072
 N101 N -0.05816 0.93429 0.11212
 Mn102 Mn 0.01156 1.00667 0.11518
 C103 C -0.06229 0.95169 0.16858
 C104 C 0.06214 0.90866 0.10367
 N105 N 0.00893 0.95894 -0.11157
 N106 N 0.02677 0.94928 -0.15804
 N107 N -0.04957 0.95118 -0.03995
 N108 N -0.07334 0.93012 -0.04648
 N109 N -0.05011 0.97859 -0.07996
 N110 N -0.07437 0.97750 -0.11358
 N111 N 0.00963 0.93249 -0.06995
 N112 N 0.02795 0.90405 -0.08707
 Mn113 Mn -0.01404 1.00854 -0.09712
 Mn114 Mn -0.01258 0.94099 0.01018
 Cl115 Cl -0.00128 1.00754 0.00892
 C116 C 0.03835 0.91491 -0.14233
 C117 C -0.08881 0.94754 -0.09187
 N118 N 0.54164 0.55089 -0.07675
 N119 N 0.56616 0.56649 -0.09626
 N120 N 0.47354 0.55535 -0.09775
 N121 N 0.45258 0.57208 -0.13056
 N122 N 0.48385 0.57931 -0.05551
 N123 N 0.47045 0.61312 -0.05894
 N124 N 0.53167 0.52656 -0.11888
 N125 N 0.54932 0.52434 -0.16736
 C126 C 0.57077 0.54912 -0.15262
 C127 C 0.45074 0.60800 -0.10541
 N128 N 0.44863 0.45139 -0.06185
 N129 N 0.42372 0.43361 -0.07387
 N130 N 0.51046 0.44985 -0.12246
 N131 N 0.52669 0.43595 -0.16908
 N132 N 0.50685 0.42374 -0.08115
 N133 N 0.52064 0.39143 -0.09831
 N134 N 0.45248 0.47845 -0.10154
 N135 N 0.43020 0.48010 -0.14077
 Mn136 Mn 0.49198 0.50262 -0.11065
 C137 C 0.41224 0.45244 -0.12250
 C138 C 0.53292 0.39952 -0.15322
 N139 N 0.49260 0.57526 0.07627
 N140 N 0.47804 0.60718 0.09282
 N141 N 0.54629 0.52033 0.09653
 N142 N 0.56915 0.51681 0.13386
 N143 N 0.55070 0.54697 0.05644
 N144 N 0.57665 0.56274 0.06633
 N145 N 0.48818 0.54869 0.11644
 N146 N 0.47041 0.56163 0.16111
 Mn147 Mn 0.51740 0.56352 0.00013
 C148 C 0.46429 0.59811 0.14580
 C149 C 0.58802 0.54304 0.11425
 N150 N 0.51567 0.41985 0.05026
 N151 N 0.53071 0.38703 0.05154
 N152 N 0.46717 0.47183 0.11349
 N153 N 0.44973 0.47264 0.16241
 N154 N 0.45750 0.44773 0.07073
 N155 N 0.43325 0.43133 0.08969
 N156 N 0.52540 0.44393 0.09289
 N157 N 0.54747 0.42842 0.12393
 Mn158 Mn 0.48203 0.43531 -0.00549
 Mn159 Mn 0.50676 0.49622 0.10535
 Cl160 Cl 0.49951 0.49944 -0.00270
 C161 C 0.55061 0.39301 0.09747
 C162 C 0.42854 0.44759 0.14673
 C163 C 0.30532 0.31174 0.38036
 C164 C 0.31681 0.34832 0.37708
 C165 C 0.33217 0.36285 0.32231
 C166 C 0.33795 0.40200 0.32119
 C167 C 0.35491 0.41660 0.27387
 C168 C 0.36683 0.39219 0.22676
 C169 C 0.36012 0.35329 0.22641
 C170 C 0.34317 0.33862 0.27389
 C171 C 0.38702 0.40612 0.17888
 C172 C 0.40518 0.43725 0.18984
 H173 H 0.31481 0.36750 0.41722
 H174 H 0.32973 0.42134 0.35776
 H175 H 0.35874 0.44696 0.27467
 H176 H 0.36896 0.33391 0.19053
 H177 H 0.33979 0.30819 0.27347
 H178 H 0.38992 0.38916 0.13639
 H179 H 0.30351 0.29402 0.33867
 H180 H 0.40422 0.45284 0.23384
 C181 C -0.19477 0.83227 0.40564
 C182 C -0.17635 0.86379 0.40637
 C183 C -0.16151 0.87735 0.35044
 C184 C -0.15216 0.91518 0.35022
 C185 C -0.13507 0.92786 0.30156
 C186 C -0.12635 0.90260 0.25249
 C187 C -0.13677 0.86519 0.25138
 C188 C -0.15406 0.85255 0.29998
 C189 C -0.10558 0.91387 0.20355
 C190 C -0.08543 0.94297 0.21323
 H191 H -0.17258 0.87984 0.44908
 H192 H -0.15768 0.93487 0.38843
 H193 H -0.12854 0.95734 0.30314
 H194 H -0.13053 0.84521 0.21405
 H195 H -0.16031 0.82294 0.29921
 H196 H -0.10423 0.89664 0.16101
 H197 H -0.20207 0.82118 0.36094
 H198 H -0.08507 0.95890 0.25690
 C199 C 0.70980 0.67230 0.36552
 C200 C 0.69882 0.63597 0.35361
 C201 C 0.68521 0.62409 0.29403
 C202 C 0.68381 0.58502 0.27859
 C203 C 0.66750 0.57235 0.22736
 C204 C 0.65154 0.59858 0.19136
 C205 C 0.65444 0.63780 0.20454
 C206 C 0.67104 0.65051 0.25553
 C207 C 0.62994 0.58595 0.14366
 C208 C 0.61536 0.55154 0.14794
 H209 H 0.69975 0.61540 0.38994
 H210 H 0.69480 0.56415 0.30717
 H211 H 0.66692 0.54195 0.21721
 H212 H 0.64257 0.65862 0.17733
 H213 H 0.67131 0.68086 0.26653
 H214 H 0.62203 0.60639 0.11053
 H215 H 0.71281 0.69120 0.32755
 H216 H 0.62136 0.53210 0.18393
 C217 C 0.22021 1.13289 0.38770
 C218 C 0.21644 1.14542 0.32756
 C219 C 0.19825 1.12396 0.28177
 C220 C 0.18127 1.14446 0.23918
 C221 C 0.16011 1.12615 0.20240
 C222 C 0.15576 1.08667 0.20691
 C223 C 0.17393 1.06582 0.24695
 C224 C 0.19515 1.08413 0.28359
 C225 C 0.13098 1.06716 0.17510
 C226 C 0.11587 1.08207 0.12472
 H227 H 0.22154 1.17472 0.31818
 H228 H 0.18324 1.17512 0.23675
 H229 H 0.14630 1.14351 0.17308
 H230 H 0.17121 1.03538 0.25107
 H231 H 0.20852 1.06709 0.31429
 H232 H 0.12360 1.04068 0.19370
 H233 H 0.21281 1.10475 0.39845
 H234 H 0.12404 1.10675 0.10211
 C235 C 0.65149 0.26802 -0.41832
 C236 C 0.62195 0.28009 -0.42630
 C237 C 0.60462 0.30253 -0.37908
 C238 C 0.61010 0.30082 -0.31514
 C239 C 0.59420 0.32487 -0.27324
 C240 C 0.57276 0.35109 -0.29471
 C241 C 0.56714 0.35232 -0.35833
 C242 C 0.58261 0.32800 -0.39992
 C243 C 0.55677 0.37872 -0.25289
 C244 C 0.55026 0.37166 -0.19145
 H245 H 0.61176 0.27726 -0.47135
 H246 H 0.62660 0.28120 -0.29726
 H247 H 0.59936 0.32366 -0.22445
 H248 H 0.55079 0.37234 -0.37599
 H249 H 0.57801 0.33000 -0.44892
 H250 H 0.54811 0.40478 -0.27256
 H251 H 0.66009 0.26648 -0.37172
 H252 H 0.55649 0.34458 -0.17189
 C253 C 0.17387 0.80946 -0.40860
 C254 C 0.15227 0.83868 -0.41450
 C255 C 0.13340 0.85543 -0.36417
 C256 C 0.12706 0.83644 -0.30962
 C257 C 0.10728 0.85311 -0.26580
 C258 C 0.09363 0.88902 -0.27604
 C259 C 0.10053 0.90791 -0.33009
 C260 C 0.12000 0.89132 -0.37357
 C261 C 0.07191 0.90819 -0.23320
 C262 C 0.06051 0.89291 -0.17968
 H263 H 0.15051 0.85325 -0.45765
 H264 H 0.13669 0.80847 -0.30140
 H265 H 0.10269 0.83761 -0.22468
 H266 H 0.09048 0.93556 -0.33931
 H267 H 0.12440 0.90660 -0.41521
 H268 H 0.06385 0.93635 -0.24550
 H269 H 0.17884 0.79941 -0.36283
 H270 H 0.06768 0.86510 -0.16450
 C271 C 0.32390 0.73359 -0.35907
 C272 C 0.35401 0.72652 -0.34793
 C273 C 0.36542 0.70768 -0.29234
 C274 C 0.39495 0.71292 -0.27478
 C275 C 0.40830 0.68980 -0.23070
 C276 C 0.39246 0.66041 -0.20433
 C277 C 0.36261 0.65605 -0.22024
 C278 C 0.34905 0.67976 -0.26335
 C279 C 0.40755 0.63124 -0.16683
 C280 C 0.43214 0.63894 -0.13008
 H281 H 0.37004 0.73271 -0.38317
 H282 H 0.40811 0.73382 -0.29728
 H283 H 0.43153 0.69335 -0.22047
 H284 H 0.35008 0.63333 -0.20099
 H285 H 0.32646 0.67444 -0.27706
 H286 H 0.39960 0.60231 -0.16995
 H287 H 0.30908 0.73623 -0.31967
 H288 H 0.43839 0.66816 -0.12043
 C289 C -0.19605 1.21646 -0.34937
 C290 C -0.16620 1.21758 -0.33310
 C291 C -0.15374 1.19803 -0.27901
 C292 C -0.12593 1.20854 -0.25632
 C293 C -0.11118 1.18645 -0.21266
 C294 C -0.12384 1.15301 -0.19161
 C295 C -0.15202 1.14312 -0.21293
 C296 C -0.16698 1.16554 -0.25582
 C297 C -0.10679 1.12574 -0.15383
 C298 C -0.08392 1.13652 -0.11427
 H299 H -0.15080 1.23006 -0.36454
 H300 H -0.11509 1.23307 -0.27426
 H301 H -0.08916 1.19438 -0.19841
 H302 H -0.16205 1.11723 -0.19799
 H303 H -0.18802 1.15598 -0.27352
 H304 H -0.11178 1.09571 -0.15910
 H305 H -0.21226 1.20954 -0.31492
 H306 H -0.08039 1.16641 -0.10316
 C307 C 0.69102 0.67975 -0.40481
 C308 C 0.67989 0.64316 -0.39928
 C309 C 0.66255 0.63063 -0.34570
 C310 C 0.64603 0.59752 -0.35348
 C311 C 0.62885 0.58450 -0.30531
 C312 C 0.62807 0.60402 -0.24725
 C313 C 0.64489 0.63699 -0.23918
 C314 C 0.66204 0.65016 -0.28770
 C315 C 0.60898 0.59207 -0.19557
 C316 C 0.59447 0.55738 -0.19618
 H317 H 0.68342 0.62248 -0.43703
 H318 H 0.64597 0.58191 -0.39761
 H319 H 0.61585 0.55962 -0.31502
 H320 H 0.64473 0.65270 -0.19516
 H321 H 0.67494 0.67532 -0.27911
 H322 H 0.60510 0.61208 -0.15695
 H323 H 0.68863 0.70050 -0.36691
 H324 H 0.59831 0.53630 -0.23299
 C325 C 0.18935 1.17707 -0.40334
 C326 C 0.16484 1.15347 -0.40283
 C327 C 0.14662 1.14666 -0.34777
 C328 C 0.11870 1.13103 -0.35741
 C329 C 0.10165 1.12036 -0.30762
 C330 C 0.11231 1.12462 -0.24679
 C331 C 0.13963 1.14187 -0.23662
 C332 C 0.15686 1.15255 -0.28677
 C333 C 0.09525 1.11076 -0.19414
 C334 C 0.07772 1.07880 -0.20126
 H335 H 0.15728 1.14029 -0.44563
 H336 H 0.11019 1.12648 -0.40388
 H337 H 0.08016 1.10858 -0.31704
 H338 H 0.14811 1.14575 -0.19004
 H339 H 0.17846 1.16405 -0.27758
 H340 H 0.09699 1.12522 -0.14926
 H341 H 0.19364 1.19490 -0.36260
 H342 H 0.07792 1.06253 -0.24473
 C343 C 0.31048 0.30456 -0.38768
 C344 C 0.31612 0.34292 -0.37408
 C345 C 0.32882 0.35700 -0.31469
 C346 C 0.32516 0.39584 -0.29779
 C347 C 0.33903 0.41104 -0.24506
 C348 C 0.35737 0.38773 -0.20870
 C349 C 0.35992 0.34854 -0.22392
 C350 C 0.34595 0.33328 -0.27659
 C351 C 0.37576 0.40372 -0.15784
 C352 C 0.38657 0.44060 -0.15922
 H353 H 0.31016 0.36390 -0.40793
 H354 H 0.31187 0.41466 -0.32604
 H355 H 0.33568 0.44113 -0.23356
 H356 H 0.37387 0.32996 -0.19661
 H357 H 0.34974 0.30334 -0.28858
 H358 H 0.38493 0.38430 -0.12442
 H359 H 0.31267 0.28392 -0.35171
 H360 H 0.37954 0.45945 -0.19531
 C361 C -0.18709 0.80697 -0.36950
 C362 C -0.18403 0.84426 -0.34631
 C363 C -0.17088 0.85406 -0.28538
 C364 C -0.17815 0.88968 -0.25723
 C365 C -0.16372 0.90208 -0.20342
 C366 C -0.14104 0.87945 -0.17749
 C367 C -0.13494 0.84286 -0.20360
 C368 C -0.14967 0.83023 -0.25720
 C369 C -0.12164 0.89457 -0.12750
 C370 C -0.11556 0.93335 -0.12213
 H371 H -0.19253 0.86757 -0.37352
 H372 H -0.19463 0.90836 -0.27772
 H373 H -0.16989 0.92983 -0.18333
 H374 H -0.11766 0.82480 -0.18443
 H375 H -0.14329 0.80275 -0.27807
 H376 H -0.10791 0.87455 -0.10238
 H377 H -0.18254 0.78316 -0.33998
 H378 H -0.12710 0.95335 -0.15122
 C379 C 0.32839 0.69799 0.41774
 C380 C 0.35869 0.70105 0.40761
 C381 C 0.37463 0.67905 0.35802
 C382 C 0.40035 0.69382 0.33279
 C383 C 0.41691 0.67249 0.28860
 C384 C 0.40822 0.63566 0.26978
 C385 C 0.38258 0.62086 0.29526
 C386 C 0.36579 0.64241 0.33861
 C387 C 0.42654 0.61086 0.22775
 C388 C 0.44512 0.62459 0.18261
 H389 H 0.37109 0.72097 0.43618
 H390 H 0.40780 0.72177 0.34781
 H391 H 0.43703 0.68427 0.27109
 H392 H 0.37575 0.59230 0.28212
 H393 H 0.34654 0.62977 0.35852
 H394 H 0.42480 0.58023 0.23168
 H395 H 0.31509 0.68252 0.38414
 H396 H 0.44525 0.65474 0.17328
 C397 C -0.18193 1.18759 0.42657
 C398 C -0.15101 1.18521 0.42743
 C399 C -0.13376 1.16647 0.37666
 C400 C -0.10666 1.18160 0.35959
 C401 C -0.08908 1.16300 0.31415
 C402 C -0.09804 1.12839 0.28631
 C403 C -0.12504 1.11311 0.30373
 C404 C -0.14299 1.13224 0.34801
 C405 C -0.07856 1.10639 0.24282
 C406 C -0.06069 1.12364 0.19999
 H407 H -0.13880 1.19977 0.46382
 H408 H -0.09903 1.20773 0.38176
 H409 H -0.06802 1.17493 0.30253
 H410 H -0.13215 1.08622 0.28332
 H411 H -0.16351 1.11957 0.36143
 H412 H -0.07898 1.07547 0.24332
 H413 H -0.19299 1.17921 0.38389
 H414 H -0.06258 1.15413 0.19358
 C415 C 0.67979 0.28277 0.36252
 C416 C 0.65202 0.27767 0.33573
 C417 C 0.64064 0.29949 0.28302
 C418 C 0.61520 0.28684 0.25222
 C419 C 0.60078 0.30973 0.20926
 C420 C 0.61151 0.34596 0.19661
 C421 C 0.63763 0.35795 0.22555
 C422 C 0.65216 0.33494 0.26819
 C423 C 0.59422 0.37369 0.16015
 C424 C 0.57155 0.36374 0.11942
 H425 H 0.63704 0.25831 0.35700
 H426 H 0.60573 0.25983 0.26337
 H427 H 0.58038 0.29981 0.18902
 H428 H 0.64617 0.38590 0.21702
 H429 H 0.67133 0.34609 0.29193
 H430 H 0.59854 0.40373 0.16836
 H431 H 0.69674 0.29744 0.33801
 H432 H 0.56835 0.33427 0.10505
 C433 C 0.19609 0.80739 0.36765
 C434 C 0.16761 0.80234 0.34447
 C435 C 0.15541 0.82254 0.29087
 C436 C 0.12965 0.80894 0.26253
 C437 C 0.11454 0.83057 0.21888
 C438 C 0.12486 0.86651 0.20317
 C439 C 0.15120 0.87949 0.22987
 C440 C 0.16647 0.85767 0.27308
 C441 C 0.10687 0.89297 0.16577
 C442 C 0.08446 0.88120 0.12576
 H443 H 0.15278 0.78450 0.36941
 H444 H 0.12051 0.78218 0.27607
 H445 H 0.09394 0.82000 0.20051
 H446 H 0.15936 0.90730 0.21906
 H447 H 0.18585 0.86950 0.29504
 H448 H 0.11032 0.92332 0.17278
 H449 H 0.21274 0.82031 0.33974
 H450 H 0.08227 0.85133 0.11271
   
