data_POSCAR
  _audit_creation_date              2014-09-24
  _audit_creation_method            'ToBaCCo'
  _symmetry_space_group_name_H-M    'P1'
  _symmetry_Int_Tables_number       1
  _symmetry_cell_setting            triclinic
  loop_
  _symmetry_equiv_pos_as_xyz
 x,y,z
_cell_length_a 21.0959
_cell_length_b 20.9784
_cell_length_c 23.6740
_cell_angle_alpha 89.627400
_cell_angle_beta 90.499700
_cell_angle_gamma 90.343200
loop_
  _atom_site_label
  _atom_site_type_symbol
  _atom_site_fract_x
  _atom_site_fract_y
  _atom_site_fract_z
Si1 Si 1.25538 0.25785 0.25079
 Si2 Si 0.75323 -0.24922 0.24692
 Si3 Si 0.75363 0.24688 -0.25358
 Si4 Si 1.24986 -0.24712 -0.24751
 Si5 Si 0.25195 0.24520 0.74308
 Si6 Si 0.75860 0.74173 0.74989
 Si7 Si 0.75062 0.24324 0.24998
 Si8 Si 0.25802 0.73907 0.24573
 O9 O 1.12585 0.07164 0.04091
 O10 O 0.88568 -0.07287 0.04216
 O11 O 0.93149 0.12177 0.03691
 O12 O 1.07939 -0.12378 0.03698
 O13 O 0.89636 0.03443 0.06934
 O14 O 1.11254 -0.03698 0.07151
 O15 O 0.97369 -0.10988 0.07204
 O16 O 1.03880 0.10850 0.07113
 C17 C 1.09665 0.10226 0.07734
 C18 C 0.91660 -0.10050 0.08009
 C19 C 0.90313 0.09246 0.07503
 C20 C 1.10873 -0.09565 0.07531
 O21 O 1.12283 -0.07308 -0.04007
 O22 O 0.88487 0.07109 -0.04106
 O23 O 1.07927 0.12114 -0.03714
 O24 O 0.92933 -0.12361 -0.03427
 O25 O 0.89592 -0.03743 -0.06959
 O26 O 1.11292 0.03402 -0.06913
 O27 O 1.03478 -0.10962 -0.07016
 O28 O 0.97202 0.10993 -0.07048
 Co29 Co 1.10761 -0.00111 0.00100
 Co30 Co 0.90160 -0.00124 0.00008
 Co31 Co 1.00535 0.10377 0.00024
 Co32 Co 1.00441 -0.10510 0.00107
 O33 O 1.00468 -0.00080 0.00055
 C34 C 1.09180 -0.09986 -0.07837
 C35 C 0.91464 0.10080 -0.07827
 C36 C 1.10554 0.09183 -0.07597
 C37 C 0.90229 -0.09569 -0.07402
 O38 O 1.10855 0.53723 0.57099
 O39 O 0.89450 0.46707 0.56796
 O40 O 0.96736 0.60853 0.56676
 O41 O 1.04117 0.39175 0.56318
 O42 O 0.88043 0.57426 0.53438
 O43 O 1.12633 0.43141 0.53266
 O44 O 0.93460 0.38065 0.53764
 O45 O 1.07155 0.62409 0.53874
 C46 C 1.09853 0.59464 0.57798
 C47 C 0.90469 0.40953 0.57506
 C48 C 0.91038 0.59993 0.57364
 C49 C 1.09836 0.39987 0.56943
 O50 O 1.11449 0.47847 0.42819
 O51 O 0.89259 0.53235 0.42626
 O52 O 1.03514 0.61308 0.42687
 O53 O 0.96591 0.39402 0.42603
 O54 O 0.87981 0.42543 0.46142
 O55 O 1.12186 0.58308 0.46299
 O56 O 1.07575 0.38748 0.45086
 O57 O 0.92794 0.62061 0.45680
 Co58 Co 1.10627 0.50723 0.49893
 Co59 Co 0.89844 0.50038 0.49728
 Co60 Co 1.00057 0.60600 0.49698
 Co61 Co 1.00441 0.39935 0.49448
 O62 O 1.00239 0.50301 0.49665
 C63 C 1.10713 0.42160 0.41733
 C64 C 0.90108 0.58997 0.41850
 C65 C 1.09324 0.60858 0.42262
 C66 C 0.90751 0.39587 0.42368
 O67 O 0.62158 0.06586 0.53798
 O68 O 0.38326 -0.08454 0.53634
 O69 O 0.42707 0.11112 0.53375
 O70 O 0.57627 -0.13043 0.53960
 O71 O 0.39165 0.02304 0.56519
 O72 O 0.60950 -0.04183 0.57112
 O73 O 0.47044 -0.11747 0.57007
 O74 O 0.53442 0.10208 0.56746
 C75 C 0.59188 0.09483 0.57502
 C76 C 0.41302 -0.10948 0.57633
 C77 C 0.39749 0.08120 0.57082
 C78 C 0.60513 -0.10020 0.57694
 O79 O 0.62348 -0.08184 0.46307
 O80 O 0.38059 0.06017 0.45487
 O81 O 0.57446 0.11279 0.45794
 O82 O 0.43081 -0.13357 0.46112
 O83 O 0.39674 -0.04772 0.42539
 O84 O 0.61216 0.02441 0.43050
 O85 O 0.53714 -0.11758 0.42952
 O86 O 0.46732 0.10087 0.42632
 Co87 Co 0.60555 -0.00851 0.50057
 Co88 Co 0.39931 -0.01212 0.49556
 Co89 Co 0.50118 0.09523 0.49671
 Co90 Co 0.50357 -0.11318 0.49972
 O91 O 0.50239 -0.00947 0.49807
 C92 C 0.59478 -0.10940 0.42406
 C93 C 0.40947 0.09433 0.42015
 C94 C 0.60439 0.08186 0.42215
 C95 C 0.40414 -0.10591 0.42091
 O96 O 0.62665 0.57010 0.03468
 O97 O 0.38480 0.41590 0.02963
 O98 O 0.43283 0.61190 0.04038
 O99 O 0.57761 0.37443 0.03629
 O100 O 0.39248 0.52318 0.06671
 O101 O 0.61200 0.46236 0.06897
 O102 O 0.47107 0.38154 0.06318
 O103 O 0.54003 0.59919 0.06954
 C104 C 0.59814 0.59715 0.07324
 C105 C 0.41376 0.39002 0.06941
 C106 C 0.40155 0.58067 0.07568
 C107 C 0.60457 0.40418 0.07517
 O108 O 0.62812 0.42214 -0.03828
 O109 O 0.38216 0.56814 -0.03965
 O110 O 0.57556 0.61603 -0.04183
 O111 O 0.43573 0.37390 -0.04845
 O112 O 0.39542 0.46178 -0.07618
 O113 O 0.61261 0.52869 -0.07215
 O114 O 0.54248 0.39099 -0.07566
 O115 O 0.46869 0.60677 -0.06990
 Co116 Co 0.60807 0.49563 -0.00174
 Co117 Co 0.40010 0.49242 -0.00468
 Co118 Co 0.50451 0.59748 -0.00051
 Co119 Co 0.50660 0.39111 -0.00608
 O120 O 0.50456 0.49423 -0.00326
 C121 C 0.60055 0.39618 -0.07855
 C122 C 0.41106 0.59960 -0.07600
 C123 C 0.60378 0.58634 -0.07949
 C124 C 0.40454 0.40436 -0.08448
 C125 C 1.21615 0.21532 0.14169
 C126 C 1.20618 0.20918 0.19991
 C127 C 1.15658 0.16843 0.21738
 C128 C 1.11844 0.13548 0.17772
 C129 C 1.13167 0.13975 0.11973
 C130 C 1.18003 0.18118 0.10270
 C131 C 1.23554 0.16776 0.06628
 C132 C 1.27541 0.20399 0.10889
 H133 H 1.14896 0.15955 0.26164
 H134 H 1.08127 0.10388 0.19254
 H135 H 1.23222 0.19226 0.02465
 H136 H 1.24722 0.11620 0.06448
 H137 H 1.29600 0.24855 0.09111
 H138 H 1.30951 0.17288 0.13184
 C139 C 1.16300 0.73252 0.66053
 C140 C 1.19729 0.70370 0.70470
 C141 C 1.18466 0.63829 0.71480
 C142 C 1.15025 0.60144 0.67501
 C143 C 1.12436 0.63052 0.62634
 C144 C 1.12653 0.69693 0.62330
 C145 C 1.14027 0.73903 0.57412
 C146 C 1.18210 0.77697 0.61375
 H147 H 1.20249 0.61478 0.75221
 H148 H 1.14604 0.55041 0.68125
 H149 H 1.09759 0.76548 0.55958
 H150 H 1.16705 0.71465 0.54031
 H151 H 1.16453 0.82622 0.61990
 H152 H 1.23284 0.77242 0.60230
 C153 C 0.72604 0.14678 0.67079
 C154 C 0.69959 0.19486 0.70329
 C155 C 0.63465 0.20809 0.69480
 C156 C 0.59854 0.17478 0.65408
 C157 C 0.62649 0.12708 0.62118
 C158 C 0.69086 0.11466 0.62989
 C159 C 0.72087 0.05249 0.64419
 C160 C 0.75828 0.08693 0.68957
 H161 H 0.61097 0.24366 0.71918
 H162 H 0.54903 0.18670 0.64814
 H163 H 0.75093 0.03504 0.60930
 H164 H 0.68631 0.01739 0.66148
 H165 H 0.81009 0.08792 0.68166
 H166 H 0.74463 0.07133 0.73271
 C167 C 0.71970 0.70615 0.13855
 C168 C 0.70431 0.70492 0.19573
 C169 C 0.64888 0.67183 0.21187
 C170 C 0.61243 0.63813 0.17174
 C171 C 0.63266 0.63465 0.11543
 C172 C 0.68515 0.67126 0.09950
 C173 C 0.74283 0.65342 0.06736
 C174 C 0.78091 0.69182 0.11016
 H175 H 0.63413 0.67108 0.25549
 H176 H 0.57052 0.61233 0.18521
 H177 H 0.74310 0.67474 0.02426
 H178 H 0.75277 0.60145 0.06938
 H179 H 0.80305 0.73530 0.09160
 H180 H 0.81300 0.66225 0.13691
 C181 C 0.78746 -0.13893 0.18404
 C182 C 0.80827 -0.19630 0.20752
 C183 C 0.87165 -0.21415 0.19774
 C184 C 0.90955 -0.17939 0.15969
 C185 C 0.88397 -0.12744 0.12945
 C186 C 0.82405 -0.10574 0.14544
 C187 C 0.76720 -0.08605 0.11164
 C188 C 0.72703 -0.12179 0.15465
 H189 H 0.89061 -0.25769 0.21554
 H190 H 0.95644 -0.19686 0.15011
 H191 H 0.76556 -0.10807 0.06905
 H192 H 0.75973 -0.03368 0.11225
 H193 H 0.70161 -0.16352 0.13657
 H194 H 0.69739 -0.08985 0.18064
 C195 C 0.84709 0.27052 0.66205
 C196 C 0.80350 0.29785 0.69887
 C197 C 0.80282 0.36505 0.70195
 C198 C 0.83846 0.40267 0.66374
 C199 C 0.87640 0.37358 0.62250
 C200 C 0.88320 0.30745 0.62563
 C201 C 0.88093 0.25909 0.57988
 C202 C 0.84004 0.21916 0.61882
 H203 H 0.77273 0.38872 0.73193
 H204 H 0.83364 0.45402 0.66458
 H205 H 0.92807 0.23770 0.57204
 H206 H 0.85525 0.27603 0.54143
 H207 H 0.86313 0.17400 0.63217
 H208 H 0.79104 0.21479 0.60181
 C209 C 0.27958 -0.14842 0.67534
 C210 C 0.30428 -0.19673 0.70964
 C211 C 0.36791 -0.21397 0.70185
 C212 C 0.40494 -0.18319 0.66052
 C213 C 0.37851 -0.13618 0.62491
 C214 C 0.31496 -0.12037 0.63268
 C215 C 0.28708 -0.05637 0.64282
 C216 C 0.24946 -0.08657 0.69029
 H217 H 0.38906 -0.25143 0.72712
 H218 H 0.45370 -0.19673 0.65594
 H219 H 0.25701 -0.04003 0.60683
 H220 H 0.32285 -0.02133 0.65786
 H221 H 0.19748 -0.08663 0.68232
 H222 H 0.26445 -0.06837 0.73226
 C223 C 0.37372 0.30249 0.20502
 C224 C 0.30771 0.30868 0.20666
 C225 C 0.27938 0.35294 0.16960
 C226 C 0.31468 0.38123 0.12604
 C227 C 0.37950 0.36733 0.11972
 C228 C 0.40883 0.33140 0.16248
 C229 C 0.45324 0.27656 0.15910
 C230 C 0.41530 0.24511 0.20608
 H231 H 0.22878 0.36122 0.17094
 H232 H 0.29020 0.41059 0.09520
 H233 H 0.50193 0.29002 0.17265
 H234 H 0.44972 0.25104 0.11816
 H235 H 0.44267 0.24098 0.24619
 H236 H 0.39044 0.20080 0.19300
 C237 C 0.78154 0.14331 -0.17895
 C238 C 0.80633 0.19409 -0.21046
 C239 C 0.87218 0.20587 -0.20528
 C240 C 0.90908 0.17311 -0.16427
 C241 C 0.88047 0.12878 -0.12711
 C242 C 0.81716 0.11275 -0.13802
 C243 C 0.76119 0.10188 -0.10094
 C244 C 0.72121 0.13258 -0.14748
 H245 H 0.89449 0.24331 -0.22975
 H246 H 0.95864 0.18576 -0.15917
 H247 H 0.76362 0.13084 -0.06178
 H248 H 0.74988 0.05077 -0.09420
 H249 H 0.69714 0.17627 -0.13349
 H250 H 0.68962 0.09790 -0.16941
 C251 C 0.79704 0.63173 0.29292
 C252 C 0.80335 0.69814 0.29152
 C253 C 0.85235 0.72579 0.32376
 C254 C 0.88751 0.68924 0.36220
 C255 C 0.87443 0.62387 0.36936
 C256 C 0.83212 0.59519 0.33113
 C257 C 0.77817 0.55067 0.34163
 C258 C 0.73951 0.59090 0.30063
 H259 H 0.86233 0.77619 0.32071
 H260 H 0.92212 0.71317 0.38880
 H261 H 0.76084 0.55261 0.38581
 H262 H 0.78778 0.50219 0.32538
 H263 H 0.70025 0.61650 0.32154
 H264 H 0.72612 0.56504 0.26141
 C265 C 0.28423 0.14624 0.31434
 C266 C 0.30179 0.20900 0.30203
 C267 C 0.35189 0.23611 0.33370
 C268 C 0.38770 0.19873 0.37171
 C269 C 0.37353 0.13367 0.37936
 C270 C 0.31922 0.10955 0.35256
 C271 C 0.31396 0.05228 0.31616
 C272 C 0.27551 0.09169 0.27488
 H273 H 0.36544 0.28537 0.32745
 H274 H 0.42671 0.22053 0.39463
 H275 H 0.28567 0.01389 0.33670
 H276 H 0.36069 0.03849 0.29882
 H277 H 0.22553 0.07505 0.27201
 H278 H 0.29932 0.09947 0.23364
 C279 C 0.31084 0.64024 -0.20342
 C280 C 0.29826 0.70520 -0.19591
 C281 C 0.32254 0.73419 -0.14665
 C282 C 0.36054 0.69998 -0.10820
 C283 C 0.37564 0.63607 -0.11834
 C284 C 0.34779 0.60605 -0.16486
 C285 C 0.37948 0.56953 -0.21038
 C286 C 0.33932 0.60662 -0.25256
 H287 H 0.31367 0.78363 -0.13790
 H288 H 0.37867 0.72362 -0.07080
 H289 H 0.36737 0.51794 -0.20873
 H290 H 0.43102 0.58042 -0.21332
 H291 H 0.30471 0.57575 -0.27528
 H292 H 0.36759 0.63860 -0.28027
 C293 C 1.13264 -0.20332 -0.20284
 C294 C 1.19795 -0.19281 -0.20723
 C295 C 1.22395 -0.14034 -0.17832
 C296 C 1.18759 -0.10650 -0.13931
 C297 C 1.12436 -0.12460 -0.12845
 C298 C 1.09648 -0.16982 -0.16437
 C299 C 1.05639 -0.22680 -0.15135
 C300 C 1.09612 -0.26350 -0.19323
 H301 H 1.27353 -0.12800 -0.18290
 H302 H 1.21045 -0.06940 -0.11475
 H303 H 1.00673 -0.22041 -0.16602
 H304 H 1.06206 -0.24375 -0.10700
 H305 H 1.06896 -0.27830 -0.23146
 H306 H 1.12529 -0.30154 -0.17318
 C307 C 1.14293 0.31934 0.29162
 C308 C 1.20910 0.31600 0.29323
 C309 C 1.24117 0.36132 0.32709
 C310 C 1.20763 0.39972 0.36528
 C311 C 1.14134 0.39385 0.36959
 C312 C 1.11015 0.35831 0.32826
 C313 C 1.05572 0.31414 0.33250
 C314 C 1.09214 0.26953 0.29497
 H315 H 1.29225 0.36488 0.32647
 H316 H 1.23381 0.43007 0.39418
 H317 H 1.01353 0.33483 0.31106
 H318 H 1.04914 0.29525 0.37604
 H319 H 1.06816 0.26098 0.25369
 H320 H 1.10729 0.22662 0.31906
 C321 C 0.73293 -0.17011 0.34057
 C322 C 0.70389 -0.20034 0.29468
 C323 C 0.63716 -0.19924 0.29070
 C324 C 0.60082 -0.16970 0.33252
 C325 C 0.63066 -0.13906 0.37829
 C326 C 0.69691 -0.13993 0.38132
 C327 C 0.74073 -0.08405 0.38431
 C328 C 0.77978 -0.11614 0.33958
 H329 H 0.61263 -0.22014 0.25516
 H330 H 0.54970 -0.16961 0.32837
 H331 H 0.76543 -0.08099 0.42588
 H332 H 0.71826 -0.03909 0.36941
 H333 H 0.82737 -0.12992 0.35565
 H334 H 0.77991 -0.08980 0.29867
 C335 C 0.72338 0.29359 -0.14574
 C336 C 0.70912 0.29751 -0.20330
 C337 C 0.65737 0.33562 -0.22015
 C338 C 0.62013 0.36674 -0.17964
 C339 C 0.63670 0.36346 -0.12200
 C340 C 0.68823 0.32579 -0.10611
 C341 C 0.74556 0.34250 -0.07179
 C342 C 0.78422 0.30717 -0.11526
 H343 H 0.64599 0.34190 -0.26447
 H344 H 0.58028 0.39537 -0.19342
 H345 H 0.74539 0.31873 -0.02968
 H346 H 0.75540 0.39464 -0.07118
 H347 H 0.80634 0.26312 -0.09799
 H348 H 0.81650 0.33865 -0.13991
 C349 C 1.16110 0.22670 -0.16974
 C350 C 1.20014 0.19682 -0.20887
 C351 C 1.19717 0.12959 -0.21081
 C352 C 1.16395 0.09453 -0.16906
 C353 C 1.13180 0.12621 -0.12539
 C354 C 1.12690 0.19250 -0.13004
 C355 C 1.13356 0.24361 -0.08688
 C356 C 1.17214 0.28075 -0.13005
 H357 H 1.22272 0.10373 -0.24256
 H358 H 1.16620 0.04298 -0.16939
 H359 H 1.16165 0.22834 -0.04934
 H360 H 1.08739 0.26623 -0.07737
 H361 H 1.22255 0.28581 -0.11683
 H362 H 1.14873 0.32530 -0.14467
 C363 C 1.14232 0.71364 0.29794
 C364 C 1.20601 0.69660 0.29108
 C365 C 1.23117 0.65087 0.32845
 C366 C 1.19408 0.62234 0.37031
 C367 C 1.12969 0.63775 0.37594
 C368 C 1.10476 0.68460 0.33956
 C369 C 1.04897 0.67966 0.30071
 C370 C 1.08959 0.71037 0.25543
 H371 H 1.27970 0.63610 0.32509
 H372 H 1.21594 0.58723 0.39786
 H373 H 1.00943 0.71061 0.31414
 H374 H 1.03542 0.62949 0.29134
 H375 H 1.07253 0.75833 0.24247
 H376 H 1.10028 0.67792 0.21983
 C377 C 0.63834 0.18529 0.29487
 C378 C 0.70460 0.18809 0.29547
 C379 C 0.73723 0.14666 0.33252
 C380 C 0.70403 0.10903 0.37185
 C381 C 0.63777 0.11376 0.37592
 C382 C 0.60579 0.14939 0.33468
 C383 C 0.55394 0.19685 0.33901
 C384 C 0.58935 0.23645 0.29527
 H385 H 0.78855 0.14544 0.33281
 H386 H 0.73044 0.07989 0.40166
 H387 H 0.55210 0.21968 0.38121
 H388 H 0.50821 0.17751 0.32281
 H389 H 0.60754 0.28247 0.31183
 H390 H 0.56341 0.23991 0.25437
 C391 C 0.71092 0.62614 -0.20139
 C392 C 0.70486 0.69245 -0.20583
 C393 C 0.65565 0.72142 -0.17587
 C394 C 0.61935 0.68587 -0.13712
 C395 C 0.63182 0.62063 -0.12769
 C396 C 0.67501 0.59104 -0.16334
 C397 C 0.72835 0.54711 -0.14952
 C398 C 0.76796 0.58551 -0.19098
 H399 H 0.64736 0.77207 -0.18016
 H400 H 0.58442 0.71034 -0.11213
 H401 H 0.71854 0.49758 -0.16375
 H402 H 0.74509 0.55144 -0.10503
 H403 H 0.78130 0.55746 -0.22867
 H404 H 0.80764 0.61186 -0.17047
 C405 C 0.80252 -0.14092 -0.20168
 C406 C 0.80777 -0.20744 -0.20242
 C407 C 0.85229 -0.23563 -0.16568
 C408 C 0.88519 -0.19871 -0.12546
 C409 C 0.87476 -0.13248 -0.12140
 C410 C 0.83569 -0.10427 -0.16239
 C411 C 0.78159 -0.05996 -0.15500
 C412 C 0.74500 -0.09999 -0.19734
 H413 H 0.85976 -0.28657 -0.16632
 H414 H 0.91653 -0.22263 -0.09583
 H415 H 0.79283 -0.01158 -0.17140
 H416 H 0.76158 -0.06211 -0.11173
 H417 H 0.73437 -0.07324 -0.23691
 H418 H 0.70389 -0.12555 -0.17860
 C419 C 0.77422 0.34384 0.32693
 C420 C 0.79964 0.29153 0.29898
 C421 C 0.86212 0.27386 0.31219
 C422 C 0.89665 0.30682 0.35385
 C423 C 0.87116 0.36032 0.38078
 C424 C 0.80939 0.37822 0.36628
 C425 C 0.75328 0.38534 0.40385
 C426 C 0.71505 0.34806 0.36059
 H427 H 0.88291 0.23224 0.29313
 H428 H 0.94128 0.28767 0.36786
 H429 H 0.73796 0.43569 0.40744
 H430 H 0.75902 0.35971 0.44484
 H431 H 0.67824 0.37719 0.33886
 H432 H 0.69868 0.30088 0.37665
 C433 C 0.33812 -0.24555 0.33790
 C434 C 0.30970 -0.21631 0.29056
 C435 C 0.31784 -0.15003 0.28418
 C436 C 0.35006 -0.11428 0.32564
 C437 C 0.37470 -0.14324 0.37460
 C438 C 0.36921 -0.20951 0.37937
 C439 C 0.42265 -0.25526 0.38453
 C440 C 0.39071 -0.29357 0.33859
 H441 H 0.30000 -0.12544 0.24712
 H442 H 0.35746 -0.06438 0.31875
 H443 H 0.42314 -0.27992 0.42623
 H444 H 0.46888 -0.23441 0.37166
 H445 H 0.37625 -0.34143 0.35411
 H446 H 0.41788 -0.29393 0.29855
 C447 C 0.35460 0.27050 -0.18156
 C448 C 0.30339 0.29645 -0.21143
 C449 C 0.28346 0.35829 -0.19675
 C450 C 0.31736 0.39468 -0.15690
 C451 C 0.37159 0.36973 -0.13014
 C452 C 0.38809 0.30667 -0.14203
 C453 C 0.45054 0.28200 -0.16068
 C454 C 0.41442 0.24269 -0.20391
 H455 H 0.24056 0.37820 -0.21463
 H456 H 0.30041 0.44171 -0.14631
 H457 H 0.47405 0.25263 -0.12743
 H458 H 0.48094 0.31965 -0.17988
 H459 H 0.41786 0.19069 -0.19541
 H460 H 0.42390 0.25728 -0.24831
 C461 C 1.18145 -0.15727 0.21230
 C462 C 1.21546 -0.21154 0.19686
 C463 C 1.21409 -0.22552 0.13824
 C464 C 1.17968 -0.18738 0.09916
 C465 C 1.14643 -0.13275 0.11665
 C466 C 1.14997 -0.11934 0.17413
 C467 C 1.12312 -0.07744 0.21812
 C468 C 1.15883 -0.11947 0.26140
 H469 H 1.23851 -0.26635 0.12170
 H470 H 1.17924 -0.20075 0.05503
 H471 H 1.07071 -0.08204 0.22078
 H472 H 1.14177 -0.02786 0.21523
 H473 H 1.12673 -0.14734 0.28926
 H474 H 1.19757 -0.09356 0.28368
 C475 C 1.14322 0.27528 0.67804
 C476 C 1.20127 0.29790 0.69875
 C477 C 1.22740 0.35305 0.67355
 C478 C 1.19389 0.38672 0.63155
 C479 C 1.13337 0.36602 0.61410
 C480 C 1.10978 0.30902 0.63692
 C481 C 1.04747 0.29595 0.66385
 C482 C 1.08370 0.26006 0.70944
 H483 H 1.27459 0.36917 0.68500
 H484 H 1.21509 0.42904 0.61309
 H485 H 1.01703 0.26439 0.63750
 H486 H 1.02414 0.33983 0.67933
 H487 H 1.07312 0.20809 0.71008
 H488 H 1.08164 0.28378 0.75123
 C489 C 0.64804 -0.22418 0.68716
 C490 C 0.71114 -0.20874 0.69994
 C491 C 0.73785 -0.15452 0.67404
 C492 C 0.70208 -0.11703 0.63631
 C493 C 0.63947 -0.13417 0.62209
 C494 C 0.61321 -0.18813 0.64823
 C495 C 0.58579 -0.24618 0.62093
 C496 C 0.62275 -0.28525 0.66352
 H497 H 0.78677 -0.14154 0.68210
 H498 H 0.72493 -0.07744 0.61515
 H499 H 0.60248 -0.25260 0.57690
 H500 H 0.53400 -0.25127 0.62608
 H501 H 0.65927 -0.31434 0.64273
 H502 H 0.59225 -0.31131 0.69410
 C503 C 0.65374 0.26749 0.16960
 C504 C 0.69923 0.29486 0.20507
 C505 C 0.70599 0.36190 0.20333
 C506 C 0.67218 0.39874 0.16333
 C507 C 0.63207 0.36903 0.12346
 C508 C 0.62125 0.30345 0.12986
 C509 C 0.62092 0.25048 0.08799
 C510 C 0.65652 0.21090 0.13185
 H511 H 0.74047 0.38600 0.22956
 H512 H 0.68098 0.44961 0.16108
 H513 H 0.64957 0.26171 0.04993
 H514 H 0.57226 0.23225 0.07929
 H515 H 0.70548 0.19900 0.11880
 H516 H 0.62824 0.17016 0.14851
 C517 C 0.84624 0.22660 0.16758
 C518 C 0.80286 0.19609 0.20307
 C519 C 0.80074 0.12888 0.20218
 C520 C 0.83623 0.09453 0.16257
 C521 C 0.87374 0.12673 0.12233
 C522 C 0.88070 0.19283 0.12818
 C523 C 0.87600 0.24519 0.08538
 C524 C 0.83824 0.28221 0.12853
 H525 H 0.76924 0.10261 0.22963
 H526 H 0.83131 0.04318 0.16141
 H527 H 0.84761 0.23134 0.04754
 H528 H 0.92293 0.26710 0.07624
 H529 H 0.78821 0.28994 0.11525
 H530 H 0.86343 0.32537 0.14422
 C531 C 0.87413 0.69809 0.70204
 C532 C 0.80877 0.68884 0.70710
 C533 C 0.78081 0.63860 0.67646
 C534 C 0.81513 0.60643 0.63505
 C535 C 0.87831 0.62377 0.62396
 C536 C 0.90831 0.66595 0.66145
 C537 C 0.95014 0.72223 0.65042
 C538 C 0.91256 0.75753 0.69481
 H539 H 0.73180 0.62567 0.68270
 H540 H 0.79107 0.57090 0.60957
 H541 H 0.94400 0.74208 0.60707
 H542 H 0.99998 0.71326 0.66359
 H543 H 0.88457 0.79777 0.67711
 H544 H 0.94102 0.76896 0.73320
 C545 C 0.28768 0.20120 0.63392
 C546 C 0.29638 0.19368 0.69240
 C547 C 0.33333 0.14149 0.71085
 C548 C 0.36525 0.10269 0.67161
 C549 C 0.36073 0.11564 0.61322
 C550 C 0.31937 0.16344 0.59569
 C551 C 0.32910 0.21626 0.55446
 C552 C 0.29522 0.25834 0.59612
 H553 H 0.33822 0.13118 0.75549
 H554 H 0.39551 0.06472 0.68696
 H555 H 0.30199 0.20865 0.51457
 H556 H 0.37985 0.22938 0.54912
 H557 H 0.24908 0.27560 0.57920
 H558 H 0.32671 0.29553 0.61469
 C559 C 0.27872 0.63023 0.18301
 C560 C 0.30486 0.68620 0.20584
 C561 C 0.36174 0.70904 0.18201
 C562 C 0.39382 0.67374 0.14090
 C563 C 0.36972 0.61475 0.12188
 C564 C 0.31040 0.59554 0.14204
 C565 C 0.28956 0.53315 0.16570
 C566 C 0.25611 0.57033 0.21125
 H567 H 0.38130 0.75475 0.19444
 H568 H 0.43771 0.69265 0.12406
 H569 H 0.32974 0.50409 0.18200
 H570 H 0.25601 0.50818 0.13686
 H571 H 0.27780 0.56218 0.25353
 H572 H 0.20364 0.56531 0.20942
   
