data_POSCAR
  _audit_creation_date              2014-09-24
  _audit_creation_method            'ToBaCCo'
  _symmetry_space_group_name_H-M    'P1'
  _symmetry_Int_Tables_number       1
  _symmetry_cell_setting            triclinic
  loop_
  _symmetry_equiv_pos_as_xyz
 x,y,z
_cell_length_a 18.2332
_cell_length_b 18.2267
_cell_length_c 22.9545
_cell_angle_alpha 90.355300
_cell_angle_beta 89.642200
_cell_angle_gamma 89.985200
loop_
  _atom_site_label
  _atom_site_type_symbol
  _atom_site_fract_x
  _atom_site_fract_y
  _atom_site_fract_z
O1 O 0.07581 0.57068 1.05337
 O2 O 0.07519 0.43340 0.94430
 O3 O 0.04170 0.57478 0.94123
 O4 O 0.04282 0.42784 1.05612
 O5 O -0.07764 0.43565 1.05624
 O6 O -0.07862 0.56848 0.94505
 O7 O -0.04529 0.42583 0.94421
 O8 O -0.04460 0.57761 1.05661
 Cu9 Cu 0.06828 0.50194 0.99886
 Cu10 Cu -0.07094 0.50199 1.00054
 C11 C 0.01862 0.60016 1.07348
 C12 C 0.01769 0.40326 0.92602
 C13 C -0.02152 0.59681 0.92394
 C14 C -0.02011 0.40595 1.07466
 O15 O 0.43480 0.07552 0.55711
 O16 O 0.56866 0.07820 0.44553
 O17 O 0.42637 0.04483 0.44468
 O18 O 0.57682 0.04249 0.55656
 O19 O 0.56990 -0.07795 0.55248
 O20 O 0.43378 -0.07570 0.44382
 O21 O 0.57539 -0.04211 0.44080
 O22 O 0.42716 -0.04496 0.55612
 Cu23 Cu 0.50167 0.06965 0.50113
 Cu24 Cu 0.50175 -0.06960 0.49827
 C25 C 0.40513 0.01774 0.57533
 C26 C 0.59755 0.02141 0.42403
 C27 C 0.40406 -0.01789 0.42595
 C28 C 0.59930 -0.02098 0.57278
 C29 C -0.09511 0.01862 0.27879
 C30 C -0.02783 0.03212 0.25164
 C31 C -0.01476 0.09863 0.22373
 C32 C -0.06932 0.15255 0.22176
 C33 C -0.13765 0.13832 0.24903
 C34 C -0.15106 0.07129 0.27813
 C35 C 0.02878 -0.02454 0.25139
 C36 C 0.01545 -0.09146 0.22357
 C37 C 0.06909 -0.14637 0.22225
 C38 C 0.13669 -0.13287 0.25030
 C39 C 0.15036 -0.06529 0.27898
 C40 C 0.09567 -0.01137 0.27869
 H41 H -0.10239 -0.03252 0.30187
 H42 H 0.03721 0.10671 0.20155
 H43 H -0.03610 -0.09923 0.20115
 H44 H 0.10359 0.04022 0.30148
 H45 H -0.18029 0.17947 0.24749
 H46 H 0.17858 -0.17491 0.24984
 C47 C -0.01541 -0.09907 0.77779
 C48 C -0.02829 -0.03196 0.75082
 C49 C -0.09441 -0.01880 0.72255
 C50 C -0.14857 -0.07306 0.72003
 C51 C -0.13497 -0.14130 0.74702
 C52 C -0.06836 -0.15475 0.77659
 C53 C 0.02831 0.02467 0.75158
 C54 C 0.09563 0.01141 0.72423
 C55 C 0.15030 0.06530 0.72368
 C56 C 0.13612 0.13297 0.75216
 C57 C 0.06811 0.14662 0.78024
 C58 C 0.01447 0.09173 0.77916
 H59 H 0.03536 -0.10632 0.80128
 H60 H -0.10209 0.03310 0.70064
 H61 H 0.10385 -0.04021 0.70147
 H62 H -0.03749 0.09969 0.80146
 H63 H -0.17634 -0.18371 0.74502
 H64 H 0.17795 0.17504 0.75240
 C65 C -0.02853 -0.30666 0.14723
 C66 C 0.02906 -0.33757 0.11462
 C67 C 0.09991 -0.30742 0.12028
 C68 C 0.11283 -0.24712 0.15621
 C69 C 0.05554 -0.21512 0.18834
 C70 C -0.01530 -0.24631 0.18411
 H71 H -0.08346 -0.32887 0.14414
 H72 H 0.14586 -0.32924 0.09557
 H73 H 0.16751 -0.22404 0.15700
 H74 H -0.06071 -0.22376 0.20898
 C75 C -0.10038 0.31199 0.12015
 C76 C -0.03005 0.34362 0.11524
 C77 C 0.02739 0.31386 0.14782
 C78 C 0.01439 0.25341 0.18422
 C79 C -0.05597 0.22095 0.18787
 C80 C -0.11299 0.25155 0.15548
 H81 H -0.14610 0.33271 0.09524
 H82 H 0.08193 0.33714 0.14518
 H83 H 0.05958 0.23190 0.20925
 H84 H -0.16721 0.22739 0.15564
 C85 C 0.31161 -0.03107 0.64774
 C86 C 0.34277 0.02718 0.61661
 C87 C 0.31237 0.09787 0.62354
 C88 C 0.25161 0.11006 0.65918
 C89 C 0.21940 0.05220 0.68994
 C90 C 0.25081 -0.01855 0.68448
 H91 H 0.33392 -0.08592 0.64359
 H92 H 0.33424 0.14431 0.59990
 H93 H 0.22839 0.16469 0.66076
 H94 H 0.22812 -0.06443 0.70826
 C95 C -0.30730 -0.10250 0.61715
 C96 C -0.33853 -0.03191 0.61324
 C97 C -0.30886 0.02499 0.64701
 C98 C -0.24882 0.01131 0.68348
 C99 C -0.21670 -0.05925 0.68612
 C100 C -0.24728 -0.11583 0.65268
 H101 H -0.32812 -0.14784 0.59142
 H102 H -0.33190 0.07969 0.64523
 H103 H -0.22731 0.05614 0.70936
 H104 H -0.22339 -0.17021 0.65224
 C105 C 0.02846 -0.31178 0.85538
 C106 C -0.03081 -0.34632 0.88330
 C107 C -0.10239 -0.32066 0.87160
 C108 C -0.11422 -0.26032 0.83608
 C109 C -0.05528 -0.22418 0.80941
 C110 C 0.01625 -0.25201 0.81827
 H111 H 0.08413 -0.33030 0.86251
 H112 H -0.15017 -0.34529 0.89183
 H113 H -0.16981 -0.24043 0.83176
 H114 H 0.06320 -0.22711 0.79721
 C115 C 0.09845 0.30908 0.88038
 C116 C 0.02776 0.33990 0.88583
 C117 C -0.02980 0.30850 0.85407
 C118 C -0.01656 0.24723 0.81797
 C119 C 0.05422 0.21568 0.81377
 C120 C 0.11133 0.24793 0.84532
 H121 H 0.14433 0.33108 0.90460
 H122 H -0.08461 0.33112 0.85713
 H123 H -0.06185 0.22439 0.79360
 H124 H 0.16590 0.22453 0.84467
 C125 C -0.31919 0.10327 0.37270
 C126 C -0.34477 0.03141 0.38369
 C127 C -0.30921 -0.02739 0.35555
 C128 C -0.24860 -0.01444 0.31890
 C129 C -0.22096 0.05737 0.31073
 C130 C -0.25804 0.11582 0.33767
 H131 H -0.34454 0.15072 0.39315
 H132 H -0.32759 -0.08325 0.36217
 H133 H -0.22294 -0.06102 0.29762
 H134 H -0.23836 0.17159 0.33392
 C135 C 0.31090 -0.09785 0.37902
 C136 C 0.34160 -0.02726 0.38542
 C137 C 0.31101 0.03090 0.35412
 C138 C 0.25055 0.01839 0.31765
 C139 C 0.21898 -0.05226 0.31258
 C140 C 0.25053 -0.11003 0.34356
 H141 H 0.33235 -0.14419 0.40281
 H142 H 0.33360 0.08565 0.35786
 H143 H 0.22830 0.06418 0.29371
 H144 H 0.22709 -0.16456 0.34222
   
