data_POSCAR
  _audit_creation_date              2014-09-24
  _audit_creation_method            'ToBaCCo'
  _symmetry_space_group_name_H-M    'P1'
  _symmetry_Int_Tables_number       1
  _symmetry_cell_setting            triclinic
  loop_
  _symmetry_equiv_pos_as_xyz
 x,y,z
_cell_length_a 21.1083
_cell_length_b 35.9287
_cell_length_c 21.3834
_cell_angle_alpha 90.138200
_cell_angle_beta 89.834300
_cell_angle_gamma 89.891600
loop_
  _atom_site_label
  _atom_site_type_symbol
  _atom_site_fract_x
  _atom_site_fract_y
  _atom_site_fract_z
N1 N 0.10994 0.04199 0.06545
 N2 N 0.14823 0.07070 0.07246
 N3 N 0.06639 -0.03609 0.11039
 N4 N 0.07341 -0.06456 0.14869
 N5 N 0.11070 -0.03637 0.06714
 N6 N 0.14908 -0.06505 0.07482
 N7 N 0.06567 0.04223 0.10871
 N8 N 0.07257 0.07108 0.14636
 C9 C 0.12429 0.08849 0.12318
 C10 C 0.12527 -0.08226 0.12596
 N11 N -0.11369 -0.03677 0.06628
 N12 N -0.15169 -0.06556 0.07376
 N13 N -0.07066 0.04212 0.10814
 N14 N -0.07790 0.07139 0.14500
 N15 N -0.11434 0.04151 0.06462
 N16 N -0.15434 0.07216 0.07160
 N17 N -0.07002 -0.03626 0.10988
 N18 N -0.07706 -0.06468 0.14823
 Mn19 Mn -0.00217 0.00300 0.11004
 C20 C -0.12828 -0.08259 0.12515
 C21 C -0.12933 0.08949 0.12218
 N22 N 0.11173 -0.03750 -0.06750
 N23 N 0.15186 -0.06808 -0.07432
 N24 N 0.06725 0.04014 -0.11300
 N25 N 0.07430 0.06860 -0.15136
 N26 N 0.11082 0.04075 -0.06928
 N27 N 0.14872 0.06960 -0.07671
 N28 N 0.06798 -0.03829 -0.11095
 N29 N 0.07532 -0.06761 -0.14765
 Mn30 Mn 0.11157 0.00223 -0.00104
 C31 C 0.12686 -0.08555 -0.12475
 C32 C 0.12542 0.08661 -0.12817
 N33 N -0.11332 0.04024 -0.07009
 N34 N -0.15153 0.06898 -0.07773
 N35 N -0.06859 -0.03866 -0.11148
 N36 N -0.07523 -0.06796 -0.14837
 N37 N -0.11289 -0.03801 -0.06830
 N38 N -0.15264 -0.06862 -0.07551
 N39 N -0.06919 0.03977 -0.11350
 N40 N -0.07611 0.06821 -0.15186
 Mn41 Mn -0.11431 0.00176 -0.00188
 Mn42 Mn -0.00063 0.00071 -0.11304
 Cl43 Cl -0.00138 0.00193 -0.00149
 C44 C -0.12777 0.08605 -0.12900
 C45 C -0.12691 -0.08601 -0.12585
 N46 N 0.61249 0.54136 0.56685
 N47 N 0.65107 0.56992 0.57411
 N48 N 0.56833 0.46311 0.61011
 N49 N 0.57536 0.43438 0.64782
 N50 N 0.61234 0.46299 0.56658
 N51 N 0.65055 0.43417 0.57345
 N52 N 0.56845 0.54146 0.61036
 N53 N 0.57585 0.57011 0.64843
 C54 C 0.62764 0.58751 0.62525
 C55 C 0.62691 0.41670 0.62440
 N56 N 0.38791 0.46324 0.56715
 N57 N 0.34964 0.43452 0.57417
 N58 N 0.43195 0.54157 0.61075
 N59 N 0.42458 0.57018 0.64894
 N60 N 0.38793 0.54161 0.56748
 N61 N 0.34937 0.57025 0.57502
 N62 N 0.43189 0.46321 0.61048
 N63 N 0.42474 0.43446 0.64818
 Mn64 Mn 0.50016 0.50234 0.61120
 C65 C 0.37317 0.41692 0.62499
 C66 C 0.37282 0.58771 0.62607
 N67 N 0.61236 0.46290 0.43187
 N68 N 0.65077 0.43417 0.42435
 N69 N 0.56843 0.54131 0.38892
 N70 N 0.57553 0.56998 0.35112
 N71 N 0.61246 0.54128 0.43216
 N72 N 0.65077 0.56997 0.42501
 N73 N 0.56834 0.46299 0.38860
 N74 N 0.57556 0.43435 0.35045
 Mn75 Mn 0.61321 0.50213 0.49937
 C76 C 0.62722 0.41671 0.37330
 C77 C 0.62714 0.58749 0.37418
 N78 N 0.38800 0.54169 0.43279
 N79 N 0.34970 0.57048 0.42584
 N80 N 0.43197 0.46329 0.38895
 N81 N 0.42469 0.43472 0.35078
 N82 N 0.38793 0.46332 0.43244
 N83 N 0.34942 0.43475 0.42508
 N84 N 0.43205 0.54161 0.38929
 N85 N 0.42493 0.57032 0.35153
 Mn86 Mn 0.38716 0.50247 0.49997
 Mn87 Mn 0.50020 0.50230 0.38819
 Cl88 Cl 0.50018 0.50231 0.49969
 C89 C 0.37331 0.58798 0.37487
 C90 C 0.37296 0.41727 0.37388
 C91 C 0.19844 0.18666 0.19759
 N92 N 0.14676 0.17045 0.22377
 N93 N 0.12320 0.13911 0.20004
 C94 C 0.15049 0.12285 0.14932
 N95 N 0.20214 0.13903 0.12310
 N96 N 0.22571 0.17038 0.14683
 C97 C 0.22434 0.22120 0.22377
 N98 N 0.27595 0.23749 0.19760
 N99 N 0.29946 0.26883 0.22142
 C100 C 0.27220 0.28502 0.27226
 N101 N 0.22058 0.26874 0.29842
 N102 N 0.19707 0.23740 0.27459
 C103 C 0.29820 0.31950 0.29857
 N104 N 0.27112 0.33563 0.34957
 N105 N 0.29487 0.36687 0.37355
 C106 C 0.34650 0.38308 0.34734
 N107 N 0.37357 0.36699 0.29636
 N108 N 0.34984 0.33575 0.27239
 C109 C 0.79856 0.81923 0.20009
 N110 N 0.77154 0.83507 0.14910
 N111 N 0.79476 0.86645 0.12528
 C112 C 0.84580 0.88311 0.15165
 N113 N 0.87282 0.86732 0.20264
 N114 N 0.84961 0.83594 0.22646
 C115 C 0.77312 0.78458 0.22616
 N116 N 0.80032 0.76862 0.27694
 N117 N 0.77727 0.73712 0.30052
 C118 C 0.72620 0.72046 0.27414
 N119 N 0.69901 0.73643 0.22337
 N120 N 0.72206 0.76792 0.19979
 C121 C 0.70070 0.68579 0.30008
 N122 N 0.64944 0.66930 0.27377
 N123 N 0.62612 0.63789 0.29735
 C124 C 0.65324 0.62185 0.34805
 N125 N 0.70450 0.63829 0.37440
 N126 N 0.72784 0.66972 0.35081
 C127 C 0.79876 0.18432 0.79643
 N128 N 0.85012 0.16770 0.77001
 N129 N 0.87345 0.13628 0.79367
 C130 C 0.84621 0.12037 0.84454
 N131 N 0.79485 0.13694 0.87095
 N132 N 0.77152 0.16836 0.84730
 C133 C 0.77320 0.21904 0.77061
 N134 N 0.72194 0.23566 0.79721
 N135 N 0.69880 0.26722 0.77393
 C136 C 0.72607 0.28331 0.72321
 N137 N 0.77733 0.26670 0.69659
 N138 N 0.80048 0.23513 0.71988
 C139 C 0.70050 0.31808 0.69760
 N140 N 0.72765 0.33422 0.64684
 N141 N 0.70429 0.36574 0.62356
 C142 C 0.65298 0.38222 0.65025
 N143 N 0.62583 0.36612 0.70098
 N144 N 0.64918 0.33461 0.72426
 C145 C 0.19747 0.81876 0.80262
 N146 N 0.22500 0.83494 0.85309
 N147 N 0.20177 0.86642 0.87694
 C148 C 0.15012 0.88292 0.85121
 N149 N 0.12258 0.86670 0.80071
 N150 N 0.14583 0.83520 0.77685
 C151 C 0.22325 0.78410 0.77636
 N152 N 0.19602 0.76790 0.72572
 N153 N 0.21961 0.73648 0.70187
 C154 C 0.27125 0.72014 0.72781
 N155 N 0.29844 0.73633 0.77845
 N156 N 0.27487 0.76774 0.80229
 C157 C 0.29743 0.68560 0.70147
 N158 N 0.34911 0.66934 0.72748
 N159 N 0.37306 0.63807 0.70350
 C160 C 0.34617 0.62194 0.65267
 N161 N 0.29449 0.63816 0.62664
 N162 N 0.27053 0.66943 0.65062
 C163 C 0.19931 0.18491 0.79737
 N164 N 0.22599 0.16894 0.84843
 N165 N 0.20251 0.13756 0.87204
 C166 C 0.15151 0.12098 0.84542
 N167 N 0.12479 0.13690 0.79436
 N168 N 0.14828 0.16830 0.77075
 C169 C 0.22515 0.21961 0.77154
 N170 N 0.19836 0.23576 0.72069
 N171 N 0.22179 0.26725 0.69739
 C172 C 0.27288 0.28375 0.72408
 N173 N 0.29966 0.26759 0.77491
 N174 N 0.27623 0.23611 0.79821
 C175 C 0.29880 0.31847 0.69840
 N176 N 0.35006 0.33483 0.72498
 N177 N 0.37368 0.36626 0.70166
 C178 C 0.34686 0.38247 0.65093
 N179 N 0.29561 0.36615 0.62432
 N180 N 0.27199 0.33471 0.64764
 C181 C 0.80329 0.81836 0.80107
 N182 N 0.85514 0.83474 0.77546
 N183 N 0.87819 0.86620 0.79943
 C184 C 0.85020 0.88246 0.84990
 N185 N 0.79836 0.86602 0.87545
 N186 N 0.77536 0.83459 0.85150
 C187 C 0.77758 0.78372 0.77476
 N188 N 0.72580 0.76752 0.80077
 N189 N 0.70223 0.73617 0.77700
 C190 C 0.72955 0.71986 0.72632
 N191 N 0.78137 0.73604 0.70029
 N192 N 0.80496 0.76740 0.72408
 C193 C 0.70329 0.68534 0.70010
 N194 N 0.73020 0.66902 0.64917
 N195 N 0.70616 0.63779 0.62536
 C196 C 0.65439 0.62175 0.65165
 N197 N 0.62748 0.63803 0.70255
 N198 N 0.65151 0.66925 0.72635
 C199 C 0.19952 0.81967 0.20102
 N200 N 0.14790 0.83616 0.22721
 N201 N 0.12432 0.86748 0.20339
 C202 C 0.15154 0.88345 0.15254
 N203 N 0.20314 0.86701 0.12634
 N204 N 0.22672 0.83569 0.15016
 C205 C 0.22540 0.78505 0.22711
 N206 N 0.27690 0.76855 0.20075
 N207 N 0.30033 0.73711 0.22430
 C208 C 0.27312 0.72102 0.27506
 N209 N 0.22162 0.73752 0.30144
 N210 N 0.19819 0.76896 0.27789
 C211 C 0.29902 0.68635 0.30098
 N212 N 0.27194 0.67022 0.35181
 N213 N 0.29553 0.63881 0.37532
 C214 C 0.34702 0.62240 0.34882
 N215 N 0.37411 0.63850 0.29803
 N216 N 0.35052 0.66990 0.27452
 C217 C 0.80064 0.18522 0.19553
 N218 N 0.77302 0.16922 0.14493
 N219 N 0.79604 0.13774 0.12084
 C220 C 0.84757 0.12103 0.14645
 N221 N 0.87520 0.13707 0.19708
 N222 N 0.85215 0.16857 0.22117
 C223 C 0.77511 0.21993 0.22206
 N224 N 0.80250 0.23596 0.27278
 N225 N 0.77920 0.26740 0.29684
 C226 C 0.72767 0.28396 0.27105
 N227 N 0.70031 0.26794 0.22033
 N228 N 0.72360 0.23650 0.19628
 C229 C 0.70179 0.31858 0.29759
 N230 N 0.65022 0.33503 0.27169
 N231 N 0.62656 0.36636 0.29578
 C232 C 0.65363 0.38238 0.34663
 N233 N 0.70519 0.36597 0.37257
 N234 N 0.72886 0.33463 0.34846
   
