data_POSCAR
  _audit_creation_date              2014-09-24
  _audit_creation_method            'ToBaCCo'
  _symmetry_space_group_name_H-M    'P1'
  _symmetry_Int_Tables_number       1
  _symmetry_cell_setting            triclinic
  loop_
  _symmetry_equiv_pos_as_xyz
 x,y,z
_cell_length_a 18.3850
_cell_length_b 25.8106
_cell_length_c 26.0834
_cell_angle_alpha 90.007100
_cell_angle_beta 90.116000
_cell_angle_gamma 89.941800
loop_
  _atom_site_label
  _atom_site_type_symbol
  _atom_site_fract_x
  _atom_site_fract_y
  _atom_site_fract_z
O1 O 0.28158 0.29878 0.18201
 O2 O 0.33012 0.20639 0.28388
 O3 O 0.28414 0.19441 0.19448
 O4 O 0.33160 0.30274 0.27939
 O5 O 0.21732 0.30719 0.30519
 O6 O 0.16769 0.20752 0.21040
 O7 O 0.21427 0.20361 0.30639
 O8 O 0.17027 0.30606 0.21286
 Cu9 Cu 0.31734 0.25195 0.23039
 Cu10 Cu 0.18115 0.25576 0.26234
 C11 C 0.21836 0.31869 0.18046
 C12 C 0.27958 0.18808 0.31142
 C13 C 0.21774 0.18258 0.18772
 C14 C 0.28287 0.32244 0.30773
 O15 O 0.83307 0.29867 0.21363
 O16 O 0.78162 0.20599 0.31429
 O17 O 0.83032 0.19713 0.22003
 O18 O 0.78626 0.30378 0.30830
 O19 O 0.67194 0.30185 0.28186
 O20 O 0.71935 0.20088 0.18768
 O21 O 0.67055 0.20161 0.28216
 O22 O 0.71846 0.30303 0.18839
 Cu23 Cu 0.81959 0.25112 0.26623
 Cu24 Cu 0.68391 0.25156 0.23161
 C25 C 0.78399 0.31807 0.18519
 C26 C 0.71691 0.18892 0.31612
 C27 C 0.78276 0.18131 0.18840
 C28 C 0.72092 0.31941 0.31154
 O29 O 0.83188 0.69919 0.77471
 O30 O 0.78660 0.80817 0.69016
 O31 O 0.83350 0.79903 0.78605
 O32 O 0.78499 0.71039 0.68066
 O33 O 0.67193 0.70707 0.70929
 O34 O 0.71876 0.80070 0.81070
 O35 O 0.67239 0.80571 0.71648
 O36 O 0.71846 0.69700 0.80252
 Cu37 Cu 0.82091 0.75461 0.73082
 Cu38 Cu 0.68427 0.75252 0.76360
 C39 C 0.78274 0.67891 0.80212
 C40 C 0.72112 0.82356 0.68695
 C41 C 0.78412 0.81586 0.81565
 C42 C 0.71978 0.69467 0.67647
 O43 O 0.16460 0.80225 0.78247
 O44 O 0.21545 0.70809 0.68301
 O45 O 0.16575 0.70581 0.78185
 O46 O 0.21567 0.81232 0.69506
 O47 O 0.33179 0.79999 0.71368
 O48 O 0.28136 0.69585 0.80255
 O49 O 0.32807 0.70355 0.71225
 O50 O 0.27915 0.80239 0.80847
 Cu51 Cu 0.17997 0.75525 0.73097
 Cu52 Cu 0.31534 0.75123 0.76418
 C53 C 0.21450 0.81985 0.81107
 C54 C 0.27977 0.69027 0.68009
 C55 C 0.21512 0.68281 0.80729
 C56 C 0.28222 0.82472 0.69022
 C57 C 0.93343 -0.07950 -0.07372
 C58 C 0.99911 -0.09007 -0.09882
 C59 C 1.06568 -0.06951 -0.08261
 C60 C 1.06699 -0.03502 -0.04026
 C61 C 1.00140 -0.02403 -0.01364
 C62 C 0.93532 -0.04863 -0.02849
 C63 C 0.87495 -0.04356 0.00413
 C64 C 0.87482 -0.00784 0.04409
 C65 C 0.93634 0.02245 0.05465
 C66 C 1.00214 0.01070 0.02892
 C67 C 1.13163 -0.01183 -0.02295
 C68 C 1.13150 0.02384 0.01689
 C69 C 1.06826 0.03407 0.04517
 C70 C 1.06824 0.06751 0.08859
 C71 C 1.00131 0.08245 0.10958
 C72 C 0.93513 0.06250 0.09178
 H73 H 0.82802 -0.06828 0.00060
 H74 H 0.82682 -0.00555 0.06790
 H75 H 1.18371 -0.02043 -0.03959
 H76 H 1.18175 0.04404 0.02387
 H77 H 0.99864 -0.11459 -0.13259
 H78 H 1.00062 0.11102 0.14003
 C79 C 0.43511 0.42946 0.41718
 C80 C 0.50182 0.41181 0.39807
 C81 C 0.56836 0.43022 0.41673
 C82 C 0.56833 0.47141 0.45278
 C83 C 0.50152 0.48836 0.47427
 C84 C 0.43517 0.46504 0.45866
 C85 C 0.37191 0.47627 0.48663
 C86 C 0.37151 0.51475 0.52394
 C87 C 0.43430 0.54378 0.53471
 C88 C 0.50098 0.52850 0.51177
 C89 C 0.63274 0.49637 0.46779
 C90 C 0.63251 0.53448 0.50539
 C91 C 0.56717 0.55255 0.52683
 C92 C 0.56582 0.59303 0.56368
 C93 C 0.49915 0.60859 0.58437
 C94 C 0.43330 0.58581 0.56969
 H95 H 0.32256 0.45423 0.48142
 H96 H 0.32169 0.52042 0.54511
 H97 H 0.68436 0.48758 0.45022
 H98 H 0.68478 0.54891 0.51741
 H99 H 0.50204 0.38248 0.36832
 H100 H 0.49833 0.64064 0.61129
 C101 C -0.06717 0.42658 0.07459
 C102 C 0.00005 0.41051 0.09432
 C103 C 0.06603 0.42952 0.07547
 C104 C 0.06467 0.46878 0.03758
 C105 C -0.00190 0.48158 0.01310
 C106 C -0.06815 0.46001 0.03121
 C107 C -0.13269 0.47217 0.00499
 C108 C -0.13320 0.50714 -0.03556
 C109 C -0.06839 0.52835 -0.05485
 C110 C -0.00195 0.51605 -0.02965
 C111 C 0.12694 0.49748 0.02527
 C112 C 0.12626 0.53286 -0.01490
 C113 C 0.06429 0.53933 -0.04590
 C114 C 0.06507 0.57056 -0.09081
 C115 C -0.00106 0.58195 -0.11496
 C116 C -0.06762 0.56251 -0.09756
 H117 H -0.18379 0.45420 0.01454
 H118 H -0.18567 0.51708 -0.05099
 H119 H 0.17614 0.49433 0.04784
 H120 H 0.17438 0.55609 -0.01995
 H121 H 0.00102 0.38237 0.12517
 H122 H -0.00089 0.60654 -0.14868
 C123 C 0.43363 0.93837 0.58779
 C124 C 0.50047 0.91780 0.60358
 C125 C 0.56628 0.93260 0.58120
 C126 C 0.56584 0.97159 0.54280
 C127 C 0.49852 0.99174 0.52472
 C128 C 0.43209 0.97444 0.54664
 C129 C 0.36646 0.99322 0.52615
 C130 C 0.36570 1.03027 0.48756
 C131 C 0.43030 1.04740 0.46452
 C132 C 0.49766 1.02914 0.48438
 C133 C 0.63053 0.99121 0.52200
 C134 C 0.62960 1.02647 0.48192
 C135 C 0.56421 1.04802 0.46398
 C136 C 0.56309 1.08738 0.42590
 C137 C 0.49621 1.10273 0.40524
 C138 C 0.42997 1.08266 0.42270
 H139 H 0.31434 0.97920 0.53880
 H140 H 0.31333 1.04576 0.47699
 H141 H 0.68325 0.98033 0.53660
 H142 H 0.68133 1.03547 0.46479
 H143 H 0.50121 0.88895 0.63381
 H144 H 0.49573 1.13127 0.37474
 C145 C 1.19906 0.14127 0.15613
 C146 C 1.24552 0.10191 0.14200
 C147 C 1.20309 0.06747 0.11590
 C148 C 1.13473 0.08994 0.11305
 O149 O 1.13213 0.13393 0.13915
 H150 H 1.30209 0.09709 0.15258
 H151 H 1.21996 0.02960 0.10273
 C152 C 0.69788 0.66416 0.63168
 C153 C 0.73126 0.66696 0.58454
 C154 C 0.68703 0.64007 0.55204
 C155 C 0.63125 0.62121 0.58221
 O156 O 0.63698 0.63714 0.63027
 H157 H 0.77912 0.68907 0.57442
 H158 H 0.69296 0.63703 0.51089
 C159 C -0.19657 0.35931 0.14905
 C160 C -0.23940 0.40184 0.13888
 C161 C -0.19752 0.43330 0.10903
 C162 C -0.13313 0.40658 0.10131
 O163 O -0.13215 0.36225 0.12697
 H164 H -0.29273 0.41039 0.15422
 H165 H -0.21122 0.47219 0.09695
 C166 C 0.30276 0.86922 0.65869
 C167 C 0.26529 0.91538 0.65735
 C168 C 0.30869 0.94835 0.63029
 C169 C 0.36814 0.91914 0.61533
 O170 O 0.36524 0.87151 0.63400
 H171 H 0.21506 0.92480 0.67683
 H172 H 0.29949 0.98935 0.62453
 C173 C -0.19834 0.63364 -0.16688
 C174 C -0.23642 0.58777 -0.16664
 C175 C -0.19328 0.55376 -0.14027
 C176 C -0.13337 0.58216 -0.12468
 O177 O -0.13583 0.63020 -0.14228
 H178 H -0.28670 0.57920 -0.18653
 H179 H -0.20280 0.51267 -0.13573
 C180 C 0.29796 1.14738 0.34820
 C181 C 0.25906 1.10233 0.35437
 C182 C 0.30237 1.07131 0.38389
 C183 C 0.36332 1.10066 0.39531
 O184 O 0.36112 1.14628 0.37225
 H185 H 0.20832 1.09182 0.33602
 H186 H 0.29233 1.03107 0.39302
 C187 C 1.19672 -0.13719 -0.15470
 C188 C 1.23178 -0.09013 -0.15560
 C189 C 1.18818 -0.05744 -0.12826
 C190 C 1.13110 -0.08761 -0.11099
 O191 O 1.13538 -0.13558 -0.12863
 H192 H 1.27957 -0.07983 -0.17750
 H193 H 1.19508 -0.01599 -0.12450
 C194 C 0.70065 0.35607 0.35200
 C195 C 0.73923 0.36243 0.39685
 C196 C 0.69596 0.39226 0.42726
 C197 C 0.63512 0.40360 0.39801
 O198 O 0.63743 0.38041 0.35273
 H199 H 0.79012 0.34423 0.40750
 H200 H 0.70590 0.40169 0.46707
 C201 C 0.80224 -0.14822 -0.14656
 C202 C 0.75366 -0.11556 -0.12272
 C203 C 0.79533 -0.08382 -0.09284
 C204 C 0.86617 -0.10157 -0.09791
 O205 O 0.87002 -0.13967 -0.13196
 H206 H 0.69563 -0.11265 -0.12924
 H207 H 0.77576 -0.05019 -0.07241
 C208 C 0.30323 0.36349 0.34368
 C209 C 0.26022 0.40537 0.35576
 C210 C 0.30307 0.43633 0.38556
 C211 C 0.36825 0.40994 0.39116
 O212 O 0.36854 0.36629 0.36452
 H213 H 0.20593 0.41374 0.34194
 H214 H 0.28920 0.47467 0.39917
 C215 C 0.19611 0.64272 -0.15965
 C216 C 0.24365 0.60603 -0.14083
 C217 C 0.20150 0.57252 -0.11347
 C218 C 0.13180 0.59292 -0.11489
 O219 O 0.12856 0.63466 -0.14444
 H220 H 0.30122 0.60237 -0.14867
 H221 H 0.21969 0.53658 -0.09643
 C222 C 0.69561 1.15818 0.35726
 C223 C 0.73442 1.15382 0.40233
 C224 C 0.69010 1.12734 0.43480
 C225 C 0.62903 1.11464 0.40636
 O226 O 0.63165 1.13492 0.35969
 H227 H 0.78620 1.17140 0.41172
 H228 H 0.70012 1.12055 0.47512
 C229 C 0.19893 0.35566 0.14000
 C230 C 0.23924 0.36483 0.09652
 C231 C 0.19642 0.39584 0.06665
 C232 C 0.13374 0.40440 0.09477
 O233 O 0.13522 0.37925 0.13894
 H234 H 0.29139 0.34828 0.08645
 H235 H 0.20792 0.40778 0.02776
 C236 C 0.70006 0.85906 0.64567
 C237 C 0.73398 0.86002 0.59868
 C238 C 0.68931 0.88836 0.56783
 C239 C 0.63270 0.90460 0.59881
 O240 O 0.63835 0.88533 0.64575
 H241 H 0.78197 0.83872 0.58715
 H242 H 0.69528 0.89351 0.52690
 C243 C 0.80257 0.14092 0.15128
 C244 C 0.76139 0.12745 0.10922
 C245 C 0.80386 0.09412 0.08186
 C246 C 0.86739 0.08851 0.10995
 O247 O 0.86663 0.11769 0.15174
 H248 H 0.70876 0.14266 0.09819
 H249 H 0.79150 0.07887 0.04422
 C250 C 0.29997 0.65523 0.63817
 C251 C 0.25867 0.64655 0.59491
 C252 C 0.30188 0.61766 0.56343
 C253 C 0.36576 0.60965 0.59044
 O254 O 0.36481 0.63335 0.63543
 H255 H 0.20536 0.66204 0.58614
 H256 H 0.28959 0.60643 0.52440
   
