data_POSCAR
  _audit_creation_date              2014-09-24
  _audit_creation_method            'ToBaCCo'
  _symmetry_space_group_name_H-M    'P1'
  _symmetry_Int_Tables_number       1
  _symmetry_cell_setting            triclinic
  loop_
  _symmetry_equiv_pos_as_xyz
 x,y,z
_cell_length_a 31.2037
_cell_length_b 31.2228
_cell_length_c 31.4163
_cell_angle_alpha 88.636500
_cell_angle_beta 91.904800
_cell_angle_gamma 89.512700
loop_
  _atom_site_label
  _atom_site_type_symbol
  _atom_site_fract_x
  _atom_site_fract_y
  _atom_site_fract_z
C1 C -0.00887 0.45707 0.22396
 C2 C 0.03299 0.45716 0.25049
 C3 C 0.03744 0.49057 0.27723
 C4 C -0.00095 0.52199 0.27460
 C5 C -0.04418 0.46047 0.25627
 C6 C -0.04003 0.49365 0.28308
 C7 C -0.01055 0.50090 0.20047
 C8 C -0.00623 0.53478 0.22697
 H9 H 0.05770 0.43298 0.24722
 H10 H 0.00204 0.54951 0.29622
 H11 H -0.07174 0.43956 0.25639
 H12 H -0.01621 0.50523 0.16649
 C13 C 0.02205 0.46442 0.76824
 C14 C -0.01600 0.46559 0.74062
 C15 C -0.02094 0.50354 0.71446
 C16 C 0.01439 0.53383 0.72090
 C17 C 0.05750 0.47125 0.74033
 C18 C 0.05358 0.50886 0.71371
 C19 C 0.02025 0.50369 0.79264
 C20 C 0.01543 0.54256 0.76683
 H21 H -0.04095 0.44173 0.74305
 H22 H 0.01103 0.56195 0.69896
 H23 H 0.08672 0.45212 0.74253
 H24 H 0.02938 0.50426 0.82609
 C25 C 0.22190 -0.00404 0.46414
 C26 C 0.25283 0.03382 0.46596
 C27 C 0.27805 0.03502 0.50205
 C28 C 0.27096 -0.00289 0.53340
 C29 C 0.25171 -0.04318 0.47044
 C30 C 0.27670 -0.04306 0.50657
 C31 C 0.19725 -0.00196 0.50557
 C32 C 0.22260 -0.00148 0.54198
 H33 H 0.25447 0.05810 0.44089
 H34 H 0.29240 -0.00227 0.56227
 H35 H 0.25405 -0.06881 0.44806
 H36 H 0.16258 -0.00262 0.50576
 C37 C 0.76914 0.00740 0.45211
 C38 C 0.75011 -0.03474 0.45169
 C39 C 0.72525 -0.04515 0.48787
 C40 C 0.72301 -0.00999 0.51758
 C41 C 0.73130 0.03861 0.45705
 C42 C 0.70728 0.02955 0.49140
 C43 C 0.79411 0.00947 0.49502
 C44 C 0.76998 -0.00011 0.52922
 H45 H 0.75313 -0.05563 0.42491
 H46 H 0.70382 -0.01571 0.54614
 H47 H 0.72850 0.06958 0.44103
 H48 H 0.82786 0.01714 0.49789
 C49 C 0.44727 0.23235 0.99564
 C50 C 0.44800 0.25718 1.03392
 C51 C 0.48544 0.28291 1.04020
 C52 C 0.51594 0.27837 1.00557
 C53 C 0.45373 0.26302 0.96104
 C54 C 0.49088 0.28900 0.96621
 C55 C 0.48688 0.20709 0.99801
 C56 C 0.52545 0.23198 1.00378
 H57 H 0.42426 0.25256 1.05797
 H58 H 0.54392 0.29945 1.00954
 H59 H 0.43694 0.26129 0.93037
 H60 H 0.48731 0.17367 0.98976
 C61 C 0.45294 0.76688 1.00513
 C62 C 0.45624 0.74507 0.96246
 C63 C 0.49252 0.72159 0.95830
 C64 C 0.52257 0.72132 0.99831
 C65 C 0.45814 0.73072 1.03858
 C66 C 0.49449 0.70692 1.03544
 C67 C 0.49232 0.79149 1.00970
 C68 C 0.53108 0.76674 1.00545
 H69 H 0.43242 0.74963 0.93680
 H70 H 0.55087 0.70032 0.99458
 H71 H 0.43725 0.72734 1.06532
 H72 H 0.49308 0.82375 1.02116
 B73 B 0.98922 1.04465 0.02092
 B74 B 0.98829 1.04355 -0.03340
 B75 B 1.03370 1.02646 -0.00510
 B76 B 1.01765 1.00040 0.04068
 B77 B 0.96271 1.00003 0.04093
 B78 B 0.94363 1.02638 -0.00557
 B79 B 0.98868 0.95356 -0.02961
 B80 B 0.99026 0.95498 0.02572
 B81 B 0.94452 0.97092 -0.00346
 B82 B 0.96026 0.99828 -0.04851
 B83 B 1.01577 0.99776 -0.04851
 B84 B 1.03399 0.97145 -0.00259
 B85 B 0.55095 0.49706 0.47690
 B86 B 0.55138 0.49759 0.53184
 B87 B 0.53269 0.54174 0.50382
 B88 B 0.50532 0.52406 0.45832
 B89 B 0.50709 0.46859 0.45911
 B90 B 0.53548 0.45116 0.50594
 B91 B 0.46152 0.49548 0.52956
 B92 B 0.46160 0.49531 0.47447
 B93 B 0.48016 0.45075 0.50391
 B94 B 0.50765 0.46923 0.54871
 B95 B 0.50543 0.52401 0.54717
 B96 B 0.47696 0.54046 0.50121
 C97 C 0.98580 1.33775 0.15586
 C98 C 0.99577 1.37586 0.13377
 C99 C 0.99652 1.41498 0.15483
 C100 C 0.98765 1.41641 0.19843
 C101 C 0.97920 1.37769 0.22039
 C102 C 0.97740 1.33915 0.19926
 C103 C 0.98531 1.29611 0.13478
 N104 N 0.96035 1.26399 0.14959
 N105 N 0.96124 1.22552 0.13234
 C106 C 0.98757 1.21747 0.09993
 N107 N 1.01248 1.24962 0.08497
 N108 N 1.01130 1.28828 0.10199
 C109 C 0.98873 1.17466 0.08124
 C110 C 1.02434 1.16097 0.05943
 C111 C 1.02429 1.12122 0.04008
 C112 C 0.98977 1.09225 0.04330
 C113 C 0.95288 1.10936 0.06136
 C114 C 0.95264 1.14859 0.08168
 H115 H 1.00290 1.37540 0.10028
 H116 H 1.00508 1.44354 0.13711
 H117 H 0.97434 1.37708 0.25436
 H118 H 0.97066 1.31014 0.21733
 H119 H 1.05165 1.18175 0.05567
 H120 H 1.04901 1.11725 0.01816
 H121 H 0.92242 1.09703 0.05330
 H122 H 0.92301 1.16006 0.09458
 C123 C 0.98918 0.66557 0.18096
 C124 C 0.95462 0.63803 0.17254
 C125 C 0.95614 0.59535 0.18733
 C126 C 0.99184 0.57975 0.21143
 C127 C 1.02596 0.60728 0.22044
 C128 C 1.02484 0.64968 0.20514
 C129 C 0.98898 0.71008 0.16340
 N130 N 1.02636 0.73151 0.15927
 N131 N 1.02670 0.77079 0.14184
 C132 C 0.98965 0.79053 0.12814
 N133 N 0.95214 0.76937 0.13275
 N134 N 0.95183 0.72988 0.14991
 C135 C 0.99062 0.83298 0.10611
 C136 C 0.95439 0.85973 0.10323
 C137 C 0.95507 0.89836 0.07970
 C138 C 0.99147 0.91147 0.05707
 C139 C 1.02780 0.88407 0.06144
 C140 C 1.02759 0.84610 0.08574
 H141 H 0.92681 0.64921 0.15380
 H142 H 0.92939 0.57453 0.18016
 H143 H 1.05405 0.59571 0.23830
 H144 H 1.05199 0.67000 0.21216
 H145 H 0.92530 0.85070 0.11888
 H146 H 0.92607 0.91755 0.07841
 H147 H 1.05619 0.88958 0.04432
 H148 H 1.05604 0.82593 0.08678
 C149 C 1.02208 1.34149 -0.16809
 C150 C 1.03588 1.34619 -0.20988
 C151 C 1.03671 1.38641 -0.22977
 C152 C 1.02503 1.42383 -0.20820
 C153 C 1.01087 1.41875 -0.16612
 C154 C 1.00980 1.37818 -0.14631
 C155 C 1.01831 1.29821 -0.14850
 N156 N 0.99953 1.29253 -0.11047
 N157 N 0.99440 1.25336 -0.09390
 C158 C 1.00779 1.21824 -0.11466
 N159 N 1.02694 1.22393 -0.15249
 N160 N 1.03201 1.26311 -0.16909
 C161 C 1.00122 1.17480 -0.09649
 C162 C 1.01742 1.13842 -0.11572
 C163 C 1.01167 1.09767 -0.09746
 C164 C 0.99057 1.09111 -0.05880
 C165 C 0.97197 1.12847 -0.04229
 C166 C 0.97761 1.16918 -0.05996
 H167 H 1.04485 1.31858 -0.22792
 H168 H 1.04552 1.38804 -0.26283
 H169 H 0.99897 1.44555 -0.14869
 H170 H 0.99835 1.37551 -0.11420
 H171 H 1.03492 1.14128 -0.14483
 H172 H 1.02473 1.07219 -0.11438
 H173 H 0.95102 1.12728 -0.01624
 H174 H 0.96284 1.19623 -0.04500
 C175 C 1.00523 0.66616 -0.17862
 C176 C 1.01366 0.66239 -0.22196
 C177 C 1.01706 0.62201 -0.24016
 C178 C 1.01223 0.58397 -0.21544
 C179 C 1.00336 0.58838 -0.17196
 C180 C 1.00003 0.62862 -0.15397
 C181 C 1.00197 0.70866 -0.15868
 N182 N 0.99624 0.71112 -0.11619
 N183 N 0.99351 0.74886 -0.09771
 C184 C 0.99632 0.78597 -0.12080
 N185 N 1.00199 0.78368 -0.16342
 N186 N 1.00478 0.74577 -0.18198
 C187 C 0.99355 0.82767 -0.09928
 C188 C 0.99323 0.86681 -0.12186
 C189 C 0.99053 0.90554 -0.10031
 C190 C 0.98809 0.90741 -0.05546
 C191 C 0.98831 0.86711 -0.03409
 C192 C 0.99081 0.82848 -0.05509
 H193 H 1.01802 0.69069 -0.24189
 H194 H 1.02469 0.62153 -0.27335
 H195 H 0.99751 0.56099 -0.15139
 H196 H 0.99300 0.63015 -0.12051
 H197 H 0.99452 0.86767 -0.15627
 H198 H 0.98802 0.93349 -0.11991
 H199 H 0.98656 0.86330 -0.00094
 H200 H 0.99085 0.79902 -0.03617
 C201 C 1.14760 0.99732 0.34387
 C202 C 1.16026 0.95829 0.36378
 C203 C 1.18187 0.95751 0.40348
 C204 C 1.19277 0.99587 0.42386
 C205 C 1.17652 1.03462 0.40560
 C206 C 1.15460 1.03539 0.36595
 C207 C 1.12855 0.99821 0.29987
 N208 N 1.11098 1.03475 0.28230
 N209 N 1.09530 1.03575 0.24229
 C210 C 1.09683 1.00035 0.21798
 N211 N 1.11438 0.96383 0.23556
 N212 N 1.12988 0.96279 0.27561
 C213 C 1.07938 1.00142 0.17340
 C214 C 1.08705 0.96764 0.14610
 C215 C 1.06920 0.96803 0.10467
 C216 C 1.04308 1.00209 0.08809
 C217 C 1.03559 1.03568 0.11676
 C218 C 1.05375 1.03567 0.15801
 H219 H 1.15396 0.92819 0.34844
 H220 H 1.19032 0.92660 0.41764
 H221 H 1.18182 1.06466 0.42136
 H222 H 1.14428 1.06600 0.35208
 H223 H 1.10667 0.94044 0.15681
 H224 H 1.07622 0.94088 0.08633
 H225 H 1.01339 1.06110 0.10964
 H226 H 1.04612 1.06192 0.17846
 C227 C 1.16957 0.99790 -0.33227
 C228 C 1.20948 0.97831 -0.33889
 C229 C 1.22690 0.97877 -0.37954
 C230 C 1.20493 0.99899 -0.41449
 C231 C 1.16546 1.01924 -0.40757
 C232 C 1.14802 1.01861 -0.36716
 C233 C 1.14954 0.99627 -0.28985
 N234 N 1.10822 1.00917 -0.28632
 N235 N 1.08944 1.00750 -0.24895
 C236 C 1.11099 0.99294 -0.21313
 N237 N 1.15252 0.98015 -0.21640
 N238 N 1.17136 0.98167 -0.25404
 C239 C 1.08872 0.99141 -0.17187
 C240 C 1.11048 0.98532 -0.13238
 C241 C 1.08819 0.98682 -0.09413
 C242 C 1.04315 0.99411 -0.09348
 C243 C 1.02271 0.99936 -0.13412
 C244 C 1.04446 0.99795 -0.17196
 H245 H 1.22690 0.96194 -0.31284
 H246 H 1.25708 0.96233 -0.38369
 H247 H 1.14799 1.03590 -0.43339
 H248 H 1.11743 1.03444 -0.36336
 H249 H 1.14496 0.98091 -0.13085
 H250 H 1.10770 0.98554 -0.06537
 H251 H 0.98955 1.00579 -0.13815
 H252 H 1.02609 1.00271 -0.20159
 C253 C 0.84660 1.01927 0.34044
 C254 C 0.85881 0.99129 0.37432
 C255 C 0.83451 0.98904 0.41077
 C256 C 0.79737 1.01458 0.41414
 C257 C 0.78593 1.04330 0.38041
 C258 C 0.81050 1.04589 0.34431
 C259 C 0.86876 1.01852 0.29975
 N260 N 0.85814 1.04773 0.26851
 N261 N 0.87432 1.04484 0.23015
 C262 C 0.90175 1.01259 0.22128
 N263 N 0.91333 0.98383 0.25278
 N264 N 0.89706 0.98672 0.29132
 C265 C 0.91636 1.00810 0.17747
 C266 C 0.94886 0.97963 0.16753
 C267 C 0.96188 0.97672 0.12552
 C268 C 0.94281 1.00110 0.09065
 C269 C 0.90999 1.02920 0.10307
 C270 C 0.89701 1.03263 0.14465
 H271 H 0.88645 0.97033 0.37226
 H272 H 0.84386 0.96617 0.43591
 H273 H 0.75722 1.06274 0.38040
 H274 H 0.79995 1.06758 0.31859
 H275 H 0.96511 0.96027 0.19227
 H276 H 0.98865 0.95573 0.12204
 H277 H 0.89277 1.05037 0.08280
 H278 H 0.87144 1.05510 0.15090
 C279 C 0.81705 0.99769 -0.34130
 C280 C 0.78933 0.96563 -0.35587
 C281 C 0.77426 0.96627 -0.39818
 C282 C 0.78707 0.99865 -0.42663
 C283 C 0.81523 1.03033 -0.41234
 C284 C 0.82993 1.03000 -0.36997
 C285 C 0.83255 0.99776 -0.29648
 N286 N 0.85135 1.03317 -0.28049
 N287 N 0.86632 1.03331 -0.24043
 C288 C 0.86318 0.99807 -0.21464
 N289 N 0.84414 0.96262 -0.23050
 N290 N 0.82895 0.96254 -0.27064
 C291 C 0.88250 0.99808 -0.17116
 C292 C 0.88779 0.96023 -0.14671
 C293 C 0.91074 0.96039 -0.10775
 C294 C 0.92953 0.99818 -0.09192
 C295 C 0.92147 1.03607 -0.11625
 C296 C 0.89855 1.03615 -0.15484
 H297 H 0.77890 0.94034 -0.33453
 H298 H 0.75284 0.94126 -0.40875
 H299 H 0.82513 1.05584 -0.43370
 H300 H 0.85145 1.05504 -0.35973
 H301 H 0.87518 0.93023 -0.15807
 H302 H 0.91330 0.93039 -0.09023
 H303 H 0.93553 1.06573 -0.10838
 H304 H 0.89501 1.06613 -0.17271
 C305 C 1.32758 1.16550 -0.00980
 C306 C 1.33194 1.20492 -0.03124
 C307 C 1.37080 1.22646 -0.02970
 C308 C 1.40762 1.20826 -0.00846
 C309 C 1.40256 1.16883 0.01385
 C310 C 1.36309 1.14775 0.01310
 C311 C 1.28537 1.14447 -0.01003
 N312 N 1.27398 1.11864 0.02300
 N313 N 1.23490 1.10180 0.02369
 C314 C 1.20582 1.10991 -0.00873
 N315 N 1.21743 1.13527 -0.04199
 N316 N 1.25633 1.15240 -0.04250
 C317 C 1.16232 1.09173 -0.00770
 C318 C 1.13787 1.08648 -0.04525
 C319 C 1.09750 1.06757 -0.04415
 C320 C 1.07990 1.05241 -0.00594
 C321 C 1.10376 1.06211 0.03180
 C322 C 1.14446 1.08015 0.03098
 H323 H 1.30472 1.22007 -0.04797
 H324 H 1.37121 1.25811 -0.04442
 H325 H 1.42883 1.15465 0.03282
 H326 H 1.36031 1.11764 0.03058
 H327 H 1.15029 1.09609 -0.07578
 H328 H 1.08140 1.06419 -0.07409
 H329 H 1.09168 1.05633 0.06264
 H330 H 1.16168 1.08560 0.06084
 C331 C 0.64975 1.17325 0.00288
 C332 C 0.61320 1.14896 0.01095
 C333 C 0.57276 1.16840 0.01185
 C334 C 0.56726 1.21306 0.00494
 C335 C 0.60462 1.23747 -0.00125
 C336 C 0.64505 1.21777 -0.00285
 C337 C 0.69234 1.15200 0.00044
 N338 N 0.72567 1.17226 -0.01793
 N339 N 0.76363 1.15270 -0.02061
 C340 C 0.76990 1.11211 -0.00487
 N341 N 0.73660 1.09196 0.01359
 N342 N 0.69863 1.11140 0.01603
 C343 C 0.81226 1.09039 -0.00696
 C344 C 0.82177 1.05396 0.01835
 C345 C 0.86210 1.03440 0.01752
 C346 C 0.89557 1.05042 -0.00748
 C347 C 0.88345 1.08457 -0.03581
 C348 C 0.84336 1.10505 -0.03472
 H349 H 0.61566 1.11460 0.01611
 H350 H 0.54615 1.14784 0.01902
 H351 H 0.60346 1.27169 -0.00634
 H352 H 0.67272 1.23754 -0.00858
 H353 H 0.79818 1.04049 0.03921
 H354 H 0.86667 1.00560 0.03691
 H355 H 0.90369 1.09608 -0.05985
 H356 H 0.83647 1.13192 -0.05638
 C357 C 1.32789 0.82920 0.00221
 C358 C 1.33205 0.78450 0.00270
 C359 C 1.37249 0.76527 0.00523
 C360 C 1.40998 0.79011 0.00705
 C361 C 1.40562 0.83508 0.00667
 C362 C 1.36499 0.85430 0.00472
 C363 C 1.28504 0.84953 -0.00103
 N364 N 1.27966 0.89092 0.00992
 N365 N 1.24092 0.90905 0.00797
 C366 C 1.20603 0.88666 -0.00529
 N367 N 1.21141 0.84539 -0.01676
 N368 N 1.25018 0.82715 -0.01457
 C369 C 1.16308 0.90661 -0.00531
 C370 C 1.12874 0.89098 -0.02995
 C371 C 1.08837 0.91085 -0.02943
 C372 C 1.08043 0.94614 -0.00312
 C373 C 1.11596 0.96093 0.02087
 C374 C 1.15622 0.94194 0.01991
 H375 H 1.30405 0.76428 0.00102
 H376 H 1.37462 0.73064 0.00472
 H377 H 1.43301 0.85591 0.00665
 H378 H 1.36270 0.88894 0.00407
 H379 H 1.13333 0.86414 -0.05060
 H380 H 1.06491 0.89904 -0.05142
 H381 H 1.11336 0.98663 0.04203
 H382 H 1.18190 0.95474 0.03973
 C383 C 0.65531 0.82196 0.00156
 C384 C 0.65075 0.77809 0.01083
 C385 C 0.61005 0.75988 0.01292
 C386 C 0.57254 0.78511 0.00599
 C387 C 0.57758 0.82943 -0.00202
 C388 C 0.61823 0.84743 -0.00440
 C389 C 0.69830 0.84122 -0.00243
 N390 N 0.70216 0.88229 -0.01683
 N391 N 0.74057 0.89990 -0.02053
 C392 C 0.77688 0.87723 -0.01003
 N393 N 0.77311 0.83609 0.00437
 N394 N 0.73461 0.81841 0.00796
 C395 C 0.81933 0.89783 -0.01273
 C396 C 0.85689 0.87724 0.00260
 C397 C 0.89604 0.89886 0.00306
 C398 C 0.89924 0.94263 -0.00870
 C399 C 0.86200 0.95976 -0.03028
 C400 C 0.82279 0.93877 -0.03099
 H401 H 0.67869 0.75761 0.01615
 H402 H 0.60868 0.72615 0.02111
 H403 H 0.55035 0.85047 -0.00860
 H404 H 0.62049 0.88144 -0.01146
 H405 H 0.85620 0.84440 0.01442
 H406 H 0.92313 0.87999 0.01245
 H407 H 0.86211 0.98997 -0.04732
 H408 H 0.79516 0.95491 -0.04598
 C409 C 0.84818 0.50502 0.35552
 C410 C 0.87455 0.46844 0.36019
 C411 C 0.91351 0.46661 0.33987
 C412 C 0.92693 0.50124 0.31449
 C413 C 0.90274 0.53927 0.31281
 C414 C 0.86354 0.54119 0.33326
 C415 C 0.80372 0.50382 0.37066
 N416 N 0.77899 0.53980 0.37008
 N417 N 0.73841 0.53813 0.38181
 C418 C 0.72064 0.50040 0.39411
 N419 N 0.74532 0.46439 0.39465
 N420 N 0.78598 0.46609 0.38308
 C421 C 0.67604 0.49920 0.40873
 C422 C 0.65419 0.46065 0.41491
 C423 C 0.61345 0.46092 0.43253
 C424 C 0.59515 0.49825 0.44872
 C425 C 0.61400 0.53636 0.43403
 C426 C 0.65417 0.53727 0.41611
 H427 H 0.86415 0.44033 0.37771
 H428 H 0.93187 0.43697 0.34155
 H429 H 0.91238 0.56613 0.29298
 H430 H 0.84413 0.57001 0.32939
 H431 H 0.66792 0.43059 0.40526
 H432 H 0.59462 0.43234 0.43025
 H433 H 0.59959 0.56653 0.43752
 H434 H 0.66829 0.56807 0.40888
 C435 C 0.15826 0.49913 0.34593
 C436 C 0.13698 0.45981 0.34266
 C437 C 0.09663 0.45767 0.32258
 C438 C 0.07636 0.49474 0.30517
 C439 C 0.09586 0.53455 0.31146
 C440 C 0.13670 0.53674 0.33134
 C441 C 0.20333 0.49987 0.36250
 N442 N 0.22589 0.53691 0.36416
 N443 N 0.26696 0.53662 0.37749
 C444 C 0.28719 0.49925 0.38939
 N445 N 0.26453 0.46240 0.38776
 N446 N 0.22362 0.46270 0.37453
 C447 C 0.33246 0.49831 0.40536
 C448 C 0.35202 0.45937 0.41797
 C449 C 0.39286 0.45832 0.43728
 C450 C 0.41602 0.49597 0.44575
 C451 C 0.39739 0.53452 0.42873
 C452 C 0.35623 0.53586 0.40960
 H453 H 0.15205 0.43024 0.35429
 H454 H 0.08179 0.42661 0.31955
 H455 H 0.08063 0.56373 0.29935
 H456 H 0.15187 0.56765 0.33404
 H457 H 0.33496 0.42948 0.41499
 H458 H 0.40268 0.42789 0.45053
 H459 H 0.41462 0.56404 0.42844
 H460 H 0.34299 0.56644 0.39848
 C461 C 0.85949 0.51811 0.64783
 C462 C 0.88082 0.55458 0.66296
 C463 C 0.92215 0.55080 0.68227
 C464 C 0.94173 0.51014 0.68844
 C465 C 0.92087 0.47440 0.67116
 C466 C 0.88077 0.47839 0.65094
 C467 C 0.81479 0.51958 0.63016
 N468 N 0.80073 0.48726 0.60540
 N469 N 0.75991 0.48519 0.59237
 C470 C 0.73096 0.51514 0.60366
 N471 N 0.74495 0.54801 0.62807
 N472 N 0.78611 0.55016 0.64113
 C473 C 0.68538 0.51105 0.58909
 C474 C 0.65297 0.53900 0.60154
 C475 C 0.61068 0.53475 0.58527
 C476 C 0.59878 0.50168 0.55695
 C477 C 0.63247 0.47553 0.54457
 C478 C 0.67429 0.47915 0.56042
 H479 H 0.86531 0.58573 0.66053
 H480 H 0.93702 0.57910 0.69518
 H481 H 0.93551 0.44281 0.67331
 H482 H 0.86572 0.44965 0.63921
 H483 H 0.66050 0.56522 0.62236
 H484 H 0.58903 0.56057 0.59166
 H485 H 0.62770 0.45437 0.51972
 H486 H 0.69832 0.45773 0.54845
 C487 C 0.16232 0.53211 0.64124
 C488 C 0.14333 0.49171 0.64239
 C489 C 0.10619 0.48498 0.66455
 C490 C 0.08591 0.51880 0.68508
 C491 C 0.10253 0.56040 0.68054
 C492 C 0.14142 0.56677 0.65982
 C493 C 0.20503 0.53551 0.62281
 N494 N 0.23859 0.55269 0.64503
 N495 N 0.27871 0.54743 0.63228
 C496 C 0.28670 0.52455 0.59701
 N497 N 0.25288 0.50864 0.57437
 N498 N 0.21303 0.51368 0.58713
 C499 C 0.33099 0.51494 0.58384
 C500 C 0.33685 0.49023 0.54798
 C501 C 0.37771 0.48093 0.53447
 C502 C 0.41515 0.49692 0.55420
 C503 C 0.40882 0.51727 0.59351
 C504 C 0.36758 0.52699 0.60763
 H505 H 0.15861 0.46450 0.62815
 H506 H 0.09362 0.45275 0.66623
 H507 H 0.08790 0.58707 0.69617
 H508 H 0.15555 0.59832 0.65900
 H509 H 0.30978 0.47733 0.53020
 H510 H 0.37923 0.45866 0.50996
 H511 H 0.43497 0.52371 0.61508
 H512 H 0.36448 0.54339 0.63736
 C513 C 0.51820 0.63820 0.15236
 C514 C 0.48670 0.62418 0.12287
 C515 C 0.48156 0.64415 0.08279
 C516 C 0.50830 0.67790 0.07099
 C517 C 0.54207 0.68966 0.09877
 C518 C 0.54691 0.67007 0.13928
 C519 C 0.51813 0.62223 0.19728
 N520 N 0.54224 0.64105 0.22839
 N521 N 0.53924 0.62865 0.26914
 C522 C 0.51182 0.59707 0.28046
 N523 N 0.48815 0.57809 0.24927
 N524 N 0.49112 0.59045 0.20869
 C525 C 0.50764 0.58286 0.32560
 C526 C 0.47972 0.54963 0.33555
 C527 C 0.47746 0.53359 0.37707
 C528 C 0.50315 0.54939 0.41112
 C529 C 0.52847 0.58535 0.40096
 C530 C 0.53118 0.60147 0.35903
 H531 H 0.46417 0.59957 0.13161
 H532 H 0.45495 0.63510 0.06196
 H533 H 0.56249 0.71627 0.09051
 H534 H 0.57171 0.68139 0.16104
 H535 H 0.46045 0.53457 0.31092
 H536 H 0.45755 0.50602 0.38070
 H537 H 0.54592 0.60233 0.42519
 H538 H 0.55196 0.62835 0.35287
 C539 C 0.50948 0.66708 0.83600
 C540 C 0.49736 0.71018 0.83950
 C541 C 0.49427 0.72827 0.87935
 C542 C 0.50296 0.70370 0.91675
 C543 C 0.51759 0.66140 0.91354
 C544 C 0.52078 0.64314 0.87339
 C545 C 0.50851 0.64712 0.79367
 N546 N 0.52415 0.60693 0.78889
 N547 N 0.52235 0.58879 0.75097
 C548 C 0.50462 0.60987 0.71625
 N549 N 0.48882 0.65002 0.72101
 N550 N 0.49074 0.66824 0.75895
 C551 C 0.50363 0.58951 0.67413
 C552 C 0.47987 0.60685 0.63907
 C553 C 0.48005 0.58686 0.59951
 C554 C 0.50503 0.54964 0.59289
 C555 C 0.52751 0.53280 0.62938
 C556 C 0.52704 0.55198 0.66874
 H557 H 0.48922 0.72981 0.81146
 H558 H 0.48386 0.76136 0.88099
 H559 H 0.52449 0.64193 0.94197
 H560 H 0.53059 0.60989 0.87175
 H561 H 0.46035 0.63535 0.64234
 H562 H 0.45878 0.60008 0.57527
 H563 H 0.54865 0.50613 0.62792
 H564 H 0.54614 0.53758 0.69481
 C565 C 0.49996 0.34763 0.15763
 C566 C 0.45939 0.33893 0.13972
 C567 C 0.45503 0.31970 0.10038
 C568 C 0.49116 0.30763 0.07737
 C569 C 0.53199 0.31911 0.09397
 C570 C 0.53630 0.33876 0.13381
 C571 C 0.50314 0.36432 0.20154
 N572 N 0.53876 0.38452 0.21661
 N573 N 0.54040 0.39961 0.25607
 C574 C 0.50669 0.39477 0.28216
 N575 N 0.47138 0.37426 0.26710
 N576 N 0.46964 0.35949 0.22772
 C577 C 0.50768 0.41195 0.32590
 C578 C 0.47735 0.39919 0.35528
 C579 C 0.47712 0.41652 0.39595
 C580 C 0.50797 0.44606 0.41069
 C581 C 0.53570 0.46095 0.37846
 C582 C 0.53674 0.44344 0.33792
 H583 H 0.43058 0.34667 0.15636
 H584 H 0.42271 0.31473 0.08810
 H585 H 0.56088 0.31067 0.07791
 H586 H 0.56810 0.34545 0.14667
 H587 H 0.45305 0.37606 0.34675
 H588 H 0.45154 0.40621 0.41458
 H589 H 0.55474 0.48904 0.38218
 H590 H 0.55890 0.45638 0.31524
 C591 C 0.51653 0.36464 0.85696
 C592 C 0.55096 0.34652 0.88153
 C593 C 0.54352 0.32463 0.92032
 C594 C 0.50129 0.31876 0.93375
 C595 C 0.46766 0.33964 0.91040
 C596 C 0.47520 0.36258 0.87307
 C597 C 0.52146 0.38257 0.81320
 N598 N 0.48904 0.40637 0.79474
 N599 N 0.48925 0.41763 0.75374
 C600 C 0.52182 0.40554 0.72903
 N601 N 0.55520 0.38287 0.74759
 N602 N 0.55493 0.37143 0.78889
 C603 C 0.51898 0.41581 0.68266
 C604 C 0.55487 0.41597 0.65702
 C605 C 0.55091 0.42983 0.61416
 C606 C 0.51100 0.44452 0.59574
 C607 C 0.47512 0.43952 0.62115
 C608 C 0.47895 0.42621 0.66364
 H609 H 0.58329 0.34802 0.87012
 H610 H 0.57026 0.30915 0.93729
 H611 H 0.43487 0.33746 0.92054
 H612 H 0.44785 0.37658 0.85558
 H613 H 0.58618 0.40693 0.67035
 H614 H 0.57966 0.43046 0.59617
 H615 H 0.44348 0.44631 0.60965
 H616 H 0.45009 0.42455 0.68182
 C617 C 0.67842 0.82969 0.51194
 C618 C 0.66027 0.86501 0.53176
 C619 C 0.67546 0.90630 0.52394
 C620 C 0.70900 0.91340 0.49568
 C621 C 0.72697 0.87757 0.47600
 C622 C 0.71207 0.83642 0.48423
 C623 C 0.66115 0.78627 0.51845
 N624 N 0.68180 0.75150 0.50352
 N625 N 0.66465 0.71272 0.50654
 C626 C 0.62611 0.70719 0.52456
 N627 N 0.60583 0.74184 0.54013
 N628 N 0.62304 0.78058 0.53724
 C629 C 0.60480 0.66526 0.52376
 C630 C 0.56129 0.66232 0.53181
 C631 C 0.53998 0.62380 0.52668
 C632 C 0.55989 0.58683 0.51129
 C633 C 0.60514 0.58937 0.50956
 C634 C 0.62703 0.62796 0.51395
 H635 H 0.63399 0.86086 0.55309
 H636 H 0.65937 0.93244 0.53893
 H637 H 0.75382 0.88054 0.45530
 H638 H 0.72681 0.80987 0.46844
 H639 H 0.54320 0.68997 0.54158
 H640 H 0.50761 0.62429 0.53533
 H641 H 0.62481 0.56142 0.50589
 H642 H 0.66139 0.62833 0.51015
 C643 C 0.64114 0.14082 0.52944
 C644 C 0.67688 0.12523 0.55349
 C645 C 0.69600 0.08633 0.54357
 C646 C 0.68027 0.06317 0.50880
 C647 C 0.64318 0.07744 0.48622
 C648 C 0.62325 0.11578 0.49695
 C649 C 0.62655 0.18531 0.53402
 N650 N 0.58451 0.19624 0.52840
 N651 N 0.57223 0.23722 0.52835
 C652 C 0.60165 0.26871 0.53310
 N653 N 0.64363 0.25777 0.53885
 N654 N 0.65581 0.21680 0.53955
 C655 C 0.58853 0.31394 0.52928
 C656 C 0.61204 0.34295 0.50563
 C657 C 0.59772 0.38520 0.49896
 C658 C 0.55890 0.40146 0.51550
 C659 C 0.53866 0.37090 0.54284
 C660 C 0.55201 0.32838 0.54844
 H661 H 0.69115 0.14410 0.57865
 H662 H 0.72501 0.07605 0.56091
 H663 H 0.63109 0.06013 0.45893
 H664 H 0.59593 0.12744 0.47775
 H665 H 0.64154 0.33273 0.49147
 H666 H 0.62062 0.40304 0.48254
 H667 H 0.51001 0.37768 0.55916
 H668 H 0.53350 0.30672 0.56789
 C669 C 0.34249 0.83715 0.51851
 C670 C 0.35943 0.87104 0.49410
 C671 C 0.34034 0.91172 0.49350
 C672 C 0.30441 0.91965 0.51779
 C673 C 0.28915 0.88693 0.54448
 C674 C 0.30803 0.84598 0.54488
 C675 C 0.35893 0.79263 0.51391
 N676 N 0.33999 0.75861 0.53332
 N677 N 0.35389 0.71867 0.52745
 C678 C 0.38714 0.71104 0.50168
 N679 N 0.40599 0.74508 0.48241
 N680 N 0.39213 0.78487 0.48825
 C681 C 0.40441 0.66698 0.49620
 C682 C 0.44132 0.66088 0.47305
 C683 C 0.46134 0.62085 0.47257
 C684 C 0.44706 0.58514 0.49634
 C685 C 0.40587 0.59043 0.51342
 C686 C 0.38564 0.63076 0.51472
 H687 H 0.38605 0.86565 0.47359
 H688 H 0.35191 0.93633 0.47199
 H689 H 0.26075 0.89221 0.56264
 H690 H 0.29433 0.82080 0.56426
 H691 H 0.45636 0.68755 0.45693
 H692 H 0.49105 0.62018 0.45759
 H693 H 0.38839 0.56456 0.52630
 H694 H 0.35557 0.63353 0.53072
 C695 C 0.35180 0.14986 0.51561
 C696 C 0.32662 0.13488 0.54920
 C697 C 0.30490 0.09574 0.54630
 C698 C 0.30749 0.07129 0.50953
 C699 C 0.33413 0.08525 0.47695
 C700 C 0.35624 0.12383 0.48006
 C701 C 0.37156 0.19316 0.51608
 N702 N 0.39932 0.20506 0.48564
 N703 N 0.41544 0.24442 0.48431
 C704 C 0.40439 0.27390 0.51320
 N705 N 0.37676 0.26202 0.54385
 N706 N 0.36070 0.22252 0.54526
 C707 C 0.42205 0.31808 0.51082
 C708 C 0.40817 0.35031 0.53757
 C709 C 0.42553 0.39160 0.53524
 C710 C 0.45654 0.40317 0.50534
 C711 C 0.47141 0.36926 0.48035
 C712 C 0.45411 0.32818 0.48225
 H713 H 0.32273 0.15393 0.57718
 H714 H 0.28421 0.08579 0.57164
 H715 H 0.33667 0.06689 0.44830
 H716 H 0.37544 0.13403 0.45365
 H717 H 0.38427 0.34356 0.56096
 H718 H 0.41495 0.41329 0.55831
 H719 H 0.49908 0.37325 0.46107
 H720 H 0.46720 0.30389 0.46222
   
