data_POSCAR
  _audit_creation_date              2014-09-24
  _audit_creation_method            'ToBaCCo'
  _symmetry_space_group_name_H-M    'P1'
  _symmetry_Int_Tables_number       1
  _symmetry_cell_setting            triclinic
  loop_
  _symmetry_equiv_pos_as_xyz
 x,y,z
_cell_length_a 35.5804
_cell_length_b 35.3133
_cell_length_c 15.0725
_cell_angle_alpha 89.976000
_cell_angle_beta 89.849600
_cell_angle_gamma 119.544500
loop_
  _atom_site_label
  _atom_site_type_symbol
  _atom_site_fract_x
  _atom_site_fract_y
  _atom_site_fract_z
C1 C 0.12190 0.44834 0.49237
 C2 C 0.14993 0.46197 0.41911
 C3 C 0.19201 0.46927 0.42998
 C4 C 0.20484 0.45838 0.51027
 C5 C 0.17704 0.44843 0.58523
 C6 C 0.13628 0.44575 0.57759
 C7 C 0.24601 0.45600 0.51375
 C8 C 0.26516 0.45593 0.59574
 C9 C 0.30074 0.44920 0.59926
 C10 C 0.31954 0.44559 0.52046
 C11 C 0.30385 0.44919 0.43758
 C12 C 0.26609 0.45246 0.43472
 H13 H 0.08980 0.44408 0.48420
 H14 H 0.21377 0.48155 0.37398
 H15 H 0.18620 0.44216 0.64940
 H16 H 0.25286 0.46088 0.65759
 H17 H 0.34841 0.44268 0.52428
 H18 H 0.25280 0.45187 0.37019
 C19 C 0.57004 -0.31652 0.50562
 C20 C 0.56811 -0.29805 0.42413
 C21 C 0.56223 -0.26148 0.42470
 C22 C 0.55645 -0.24464 0.50521
 C23 C 0.55243 -0.26797 0.58457
 C24 C 0.55977 -0.30356 0.58610
 C25 C 0.55561 -0.20254 0.50824
 C26 C 0.56703 -0.17856 0.58773
 C27 C 0.56496 -0.14046 0.59546
 C28 C 0.55416 -0.12375 0.52220
 C29 C 0.54317 -0.14598 0.44109
 C30 C 0.54371 -0.18569 0.43440
 H31 H 0.57523 -0.34427 0.50540
 H32 H 0.56356 -0.24563 0.36245
 H33 H 0.54294 -0.25890 0.64559
 H34 H 0.57746 -0.18913 0.64530
 H35 H 0.55236 -0.09418 0.53015
 H36 H 0.53358 -0.20369 0.37296
 C37 C 1.32654 0.87097 0.46826
 C38 C 1.30364 0.85056 0.39123
 C39 C 1.26966 0.80760 0.39604
 C40 C 1.25810 0.78413 0.47684
 C41 C 1.28493 0.80453 0.55171
 C42 C 1.31928 0.84778 0.54739
 C43 C 1.21696 0.74045 0.48327
 C44 C 1.20006 0.72109 0.56681
 C45 C 1.15783 0.68621 0.57507
 C46 C 1.13222 0.66979 0.49894
 C47 C 1.14950 0.68420 0.41407
 C48 C 1.19198 0.71914 0.40676
 H49 H 1.35292 0.90420 0.46487
 H50 H 1.25166 0.79403 0.33605
 H51 H 1.28029 0.78732 0.61336
 H52 H 1.21783 0.73437 0.62726
 H53 H 1.09964 0.64272 0.50549
 H54 H 1.20470 0.72907 0.34075
 C55 C 0.87388 0.55299 0.51619
 C56 C 0.85229 0.54171 0.43470
 C57 C 0.81207 0.54031 0.42787
 C58 C 0.79384 0.55052 0.50176
 C59 C 0.81653 0.56129 0.58261
 C60 C 0.85574 0.56170 0.59019
 C61 C 0.75181 0.55065 0.49573
 C62 C 0.72596 0.54414 0.57232
 C63 C 0.68968 0.55017 0.56965
 C64 C 0.67796 0.56008 0.48747
 C65 C 0.70011 0.56170 0.40914
 C66 C 0.73765 0.55841 0.41397
 H67 H 0.90414 0.55294 0.52373
 H68 H 0.79474 0.53003 0.36586
 H69 H 0.80428 0.56969 0.64064
 H70 H 0.73420 0.53491 0.63458
 H71 H 0.64902 0.56283 0.48290
 H72 H 0.75565 0.56231 0.35354
 C73 C 0.43139 0.31549 0.52458
 C74 C 0.43622 0.29979 0.44275
 C75 C 0.44198 0.26336 0.44135
 C76 C 0.44718 0.24469 0.52072
 C77 C 0.44620 0.26405 0.60218
 C78 C 0.43743 0.29884 0.60507
 C79 C 0.45331 0.20532 0.51738
 C80 C 0.44624 0.17791 0.59242
 C81 C 0.44773 0.13872 0.58419
 C82 C 0.45282 0.12581 0.49891
 C83 C 0.46253 0.15344 0.42629
 C84 C 0.46504 0.19373 0.43648
 H85 H 0.42678 0.34360 0.52490
 H86 H 0.44195 0.25003 0.37701
 H87 H 0.45249 0.25253 0.66368
 H88 H 0.43888 0.18610 0.65671
 H89 H 0.45232 0.09518 0.48877
 H90 H 0.47500 0.21494 0.37937
 C91 C 0.66807 0.13180 0.50887
 C92 C 0.68417 0.14679 0.42336
 C93 C 0.72318 0.18636 0.41440
 C94 C 0.74752 0.20977 0.48995
 C95 C 0.72977 0.19346 0.57465
 C96 C 0.68996 0.15558 0.58371
 C97 C 0.79105 0.25046 0.48095
 C98 C 0.81064 0.27964 0.55305
 C99 C 0.85175 0.31717 0.54484
 C100 C 0.87272 0.32590 0.46230
 C101 C 0.85342 0.29858 0.38975
 C102 C 0.81358 0.26082 0.39947
 H103 H 0.63736 0.10228 0.51784
 H104 H 0.73373 0.19843 0.34808
 H105 H 0.74651 0.20907 0.63491
 H106 H 0.79372 0.27448 0.61519
 H107 H 0.90349 0.35527 0.45254
 H108 H 0.80091 0.24012 0.34209
 O109 O 0.97216 0.55137 -0.11565
 O110 O 1.03117 0.53330 0.16600
 O111 O 0.91749 0.49643 0.07416
 O112 O 1.09470 0.56211 -0.09197
 O113 O 0.95409 0.48179 0.17138
 O114 O 1.04449 0.57545 -0.10396
 O115 O 1.06738 0.57312 0.05577
 O116 O 0.91183 0.49481 -0.09216
 C117 C 0.93267 0.53245 -0.12161
 C118 C 1.05720 0.57001 0.13563
 C119 C 0.92808 0.49543 0.15282
 C120 C 1.08189 0.58579 -0.12478
 O121 O 1.03440 0.49945 -0.17976
 O122 O 0.97126 0.42163 0.09376
 O123 O 0.91576 0.42400 -0.09770
 O124 O 1.10615 0.52889 0.05858
 O125 O 1.04600 0.47181 0.09250
 O126 O 0.95725 0.47451 -0.19314
 O127 O 1.05968 0.48046 -0.06698
 O128 O 0.91138 0.41961 0.06938
 Co129 Co 1.00164 0.52321 -0.13826
 Co130 Co 1.00005 0.47881 0.11977
 Co131 Co 0.92191 0.46258 -0.01121
 Co132 Co 1.06037 0.52498 -0.00320
 O133 O 0.99362 0.49777 -0.01147
 C134 C 1.05266 0.47928 -0.14875
 C135 C 0.93158 0.40173 0.09840
 C136 C 0.92859 0.43558 -0.17574
 C137 C 1.08525 0.49633 0.11227
 O138 O 0.49671 0.44805 -0.15671
 O139 O 0.46031 0.51308 0.18589
 O140 O 0.50846 0.42798 0.10993
 O141 O 0.42685 0.51172 -0.07691
 O142 O 0.46538 0.44712 0.17010
 O143 O 0.43613 0.46041 -0.12933
 O144 O 0.42000 0.49750 0.07576
 O145 O 0.48623 0.41311 -0.03885
 C146 C 0.47887 0.41265 -0.11860
 C147 C 0.42323 0.49484 0.15653
 C148 C 0.47730 0.41969 0.16169
 C149 C 0.41270 0.47690 -0.12016
 O150 O 0.48937 0.54378 -0.16062
 O151 O 0.54980 0.49591 0.17336
 O152 O 0.56557 0.48439 -0.09520
 O153 O 0.49678 0.57709 0.10466
 O154 O 0.54377 0.56089 0.15256
 O155 O 0.55075 0.53166 -0.15096
 O156 O 0.50958 0.58420 -0.04948
 O157 O 0.58289 0.50558 0.05384
 Co158 Co 0.49370 0.49635 -0.13343
 Co159 Co 0.50427 0.50395 0.15482
 Co160 Co 0.53241 0.46174 0.00785
 Co161 Co 0.46664 0.53873 0.01331
 O162 O 0.49922 0.50020 0.01063
 C163 C 0.51073 0.58081 -0.13071
 C164 C 0.58456 0.51328 0.13364
 C165 C 0.57534 0.51621 -0.14660
 C166 C 0.53112 0.58768 0.14645
 O167 O 0.57634 0.04564 -0.09383
 O168 O 0.48047 -0.04541 0.17852
 O169 O 0.57274 0.06800 0.06468
 O170 O 0.49589 -0.08787 -0.08409
 O171 O 0.53182 0.03220 0.17382
 O172 O 0.55228 -0.02701 -0.10547
 O173 O 0.49560 -0.08245 0.08233
 O174 O 0.56280 0.09601 -0.08398
 C175 C 0.58668 0.08321 -0.11516
 C176 C 0.49410 -0.07173 0.16075
 C177 C 0.56872 0.05771 0.14462
 C178 C 0.53348 -0.06670 -0.11261
 O179 O 0.47675 -0.04205 -0.18690
 O180 O 0.47189 0.04773 0.09736
 O181 O 0.48202 0.06130 -0.06127
 O182 O 0.41962 -0.08815 0.07415
 O183 O 0.42190 -0.02753 0.09704
 O184 O 0.50161 0.03588 -0.17319
 O185 O 0.42575 -0.08370 -0.09254
 O186 O 0.52966 0.10772 0.06511
 Co187 Co 0.52477 0.00276 -0.13015
 Co188 Co 0.47825 0.00121 0.12564
 Co189 Co 0.52555 0.06150 0.00401
 Co190 Co 0.46303 -0.07778 -0.00463
 O191 O 0.49817 -0.00560 -0.00451
 C192 C 0.43791 -0.07102 -0.17036
 C193 C 0.49664 0.08717 0.11733
 C194 C 0.48143 0.05433 -0.14302
 C195 C 0.40196 -0.06748 0.10220
 N196 N 1.16290 0.49618 0.27444
 C197 C 1.13534 0.46877 0.33751
 N198 N 1.09233 0.44909 0.32190
 N199 N 1.07731 0.45697 0.24805
 C200 C 1.10435 0.48566 0.18727
 N201 N 1.14764 0.50498 0.20093
 N202 N 0.58141 0.65114 0.34438
 C203 C 0.56749 0.68069 0.34479
 N204 N 0.54678 0.68372 0.27151
 N205 N 0.53760 0.65608 0.20393
 C206 C 0.54996 0.62531 0.20612
 N207 N 0.57309 0.62429 0.27641
 N208 N 0.34271 -0.08440 0.30629
 C209 C 0.31839 -0.12840 0.30957
 N210 N 0.31556 -0.15164 0.23546
 N211 N 0.33938 -0.13187 0.16400
 C212 C 0.36549 -0.08803 0.16314
 N213 N 0.36544 -0.06462 0.23422
 N214 N 0.85764 0.52716 0.27491
 C215 C 0.87156 0.52960 0.35973
 N216 N 0.90418 0.52091 0.37528
 N217 N 0.92214 0.51020 0.30946
 C218 C 0.90841 0.50795 0.22489
 N219 N 0.87578 0.51661 0.20875
 N220 N 0.46648 0.32644 0.29272
 C221 C 0.44036 0.32494 0.36042
 N222 N 0.42351 0.35205 0.35704
 N223 N 0.43322 0.38020 0.29041
 C224 C 0.46039 0.38269 0.22436
 N225 N 0.47644 0.35485 0.22617
 N226 N 0.62470 0.08077 0.35699
 C227 C 0.65848 0.12155 0.34509
 N228 N 0.66572 0.13923 0.26218
 N229 N 0.63910 0.11763 0.19526
 C230 C 0.60451 0.07734 0.20858
 N231 N 0.59823 0.05932 0.29053
 N232 N 0.45223 0.12860 -0.25720
 C233 C 0.44752 0.11371 -0.34214
 N234 N 0.44815 0.07601 -0.35639
 N235 N 0.45558 0.05547 -0.29090
 C236 C 0.46237 0.07133 -0.20729
 N237 N 0.45973 0.10789 -0.19105
 N238 N 0.66724 0.52512 -0.27903
 C239 C 0.66401 0.54475 -0.35433
 N240 N 0.63370 0.55750 -0.35646
 N241 N 0.60731 0.55028 -0.28808
 C242 C 0.60963 0.52958 -0.21427
 N243 N 0.64021 0.51717 -0.21078
 N244 N 0.85317 0.33771 -0.30146
 C245 C 0.87121 0.34648 -0.38391
 N246 N 0.90866 0.38467 -0.39636
 N247 N 0.92698 0.41288 -0.33025
 C248 C 0.90889 0.40395 -0.24826
 N249 N 0.87171 0.36577 -0.23500
 N250 N 0.53825 -0.14785 -0.25342
 C251 C 0.56634 -0.12211 -0.31702
 N252 N 0.58814 -0.07843 -0.30512
 N253 N 0.58081 -0.06100 -0.23360
 C254 C 0.55099 -0.08655 -0.17232
 N255 N 0.53043 -0.13036 -0.18251
 N256 N 0.32775 0.47930 -0.25229
 C257 C 0.32151 0.44959 -0.31604
 N258 N 0.34081 0.42491 -0.30690
 N259 N 0.36694 0.43101 -0.23898
 C260 C 0.37489 0.46209 -0.17753
 N261 N 0.35419 0.48561 -0.18445
 N262 N 1.16585 0.66215 -0.27981
 C263 C 1.14085 0.66669 -0.34265
 N264 N 1.09778 0.64800 -0.32790
 N265 N 1.08020 0.62493 -0.25495
 C266 C 1.10444 0.61805 -0.19496
 N267 N 1.14785 0.63751 -0.20787
 N268 N 0.85015 0.53595 -0.25794
 C269 C 0.87478 0.56410 -0.32261
 N270 N 0.91828 0.58653 -0.31264
 N271 N 0.93661 0.57966 -0.24230
 C272 C 0.91216 0.54972 -0.18013
 N273 N 0.86853 0.52866 -0.18813
 N274 N 0.42681 0.35109 -0.31440
 C275 C 0.43886 0.32015 -0.31492
 N276 N 0.45690 0.31450 -0.23991
 N277 N 0.46574 0.34119 -0.17062
 C278 C 0.45587 0.37376 -0.17326
 N279 N 0.43529 0.37735 -0.24546
 N280 N 0.66250 0.10224 -0.29623
 C281 C 0.66974 0.14099 -0.32896
 N282 N 0.65240 0.16272 -0.28638
 N283 N 0.62768 0.14567 -0.21460
 C284 C 0.61985 0.10648 -0.18276
 N285 N 0.63825 0.08548 -0.22409
 N286 N 1.07279 0.44304 -0.36073
 C287 C 1.11139 0.44471 -0.34790
 N288 N 1.12745 0.45166 -0.26382
 N289 N 1.10694 0.45912 -0.19733
 C290 C 1.06946 0.45959 -0.21229
 N291 N 1.05247 0.45053 -0.29487
 N292 N 0.55866 0.63601 -0.33861
 C293 C 0.55374 0.67174 -0.33577
 N294 N 0.53952 0.68046 -0.25831
 N295 N 0.52884 0.65348 -0.18875
 C296 C 0.53241 0.61696 -0.19387
 N297 N 0.54792 0.60916 -0.26974
 N298 N 0.38909 -0.09555 -0.39277
 C299 C 0.34971 -0.13108 -0.37759
 N300 N 0.33949 -0.14657 -0.29334
 N301 N 0.36746 -0.12712 -0.22738
 C302 C 0.40677 -0.09163 -0.24303
 N303 N 0.41709 -0.07628 -0.32707
 N304 N 0.52758 -0.14132 0.28172
 C305 C 0.52947 -0.12775 0.36677
 N306 N 0.51935 -0.09592 0.38308
 N307 N 0.50798 -0.07825 0.31777
 C308 C 0.50644 -0.09154 0.23293
 N309 N 0.51635 -0.12349 0.21610
 N310 N 0.32274 0.46804 0.27775
 C311 C 0.32980 0.45351 0.35642
 N312 N 0.36517 0.44860 0.36341
 N313 N 0.39312 0.45928 0.29682
 C314 C 0.38689 0.47495 0.21948
 N315 N 0.35077 0.47856 0.21039
 N316 N 1.14163 0.66538 0.25287
 C317 C 1.12347 0.66019 0.33483
 N318 N 1.08157 0.62884 0.34549
 N319 N 1.05942 0.60255 0.27908
 C320 C 1.07788 0.60666 0.19825
 N321 N 1.11932 0.63902 0.18596
 N322 N 0.50451 0.16479 0.28880
 C323 C 0.46946 0.13899 0.33974
 N324 N 0.44237 0.09765 0.31339
 N325 N 0.45037 0.08223 0.23982
 C326 C 0.48595 0.10733 0.19026
 N327 N 0.51277 0.14911 0.21527
 N328 N 0.65099 0.57497 0.31802
 C329 C 0.67990 0.56058 0.32291
 N330 N 0.68212 0.53663 0.25443
 N331 N 0.65459 0.52523 0.18662
 C332 C 0.62410 0.53771 0.18485
 N333 N 0.62358 0.56357 0.25068
 N334 N 0.84792 0.31832 0.23745
 C335 C 0.87220 0.31385 0.30151
 N336 N 0.91557 0.33304 0.28986
 N337 N 0.93418 0.35747 0.21862
 C338 C 0.91020 0.36405 0.15711
 N339 N 0.86662 0.34324 0.16670
   
