data_POSCAR
  _audit_creation_date              2014-09-24
  _audit_creation_method            'ToBaCCo'
  _symmetry_space_group_name_H-M    'P1'
  _symmetry_Int_Tables_number       1
  _symmetry_cell_setting            triclinic
  loop_
  _symmetry_equiv_pos_as_xyz
 x,y,z
_cell_length_a 26.7807
_cell_length_b 31.5740
_cell_length_c 30.5854
_cell_angle_alpha 90.290600
_cell_angle_beta 90.752600
_cell_angle_gamma 88.928800
loop_
  _atom_site_label
  _atom_site_type_symbol
  _atom_site_fract_x
  _atom_site_fract_y
  _atom_site_fract_z
O1 O 0.31896 0.38015 0.04075
 O2 O 0.39142 0.30458 -0.02890
 O3 O 0.35841 0.37869 -0.04070
 O4 O 0.37305 0.30860 0.05280
 O5 O 0.30239 0.27717 0.03572
 O6 O 0.28542 0.35154 -0.05793
 O7 O 0.32066 0.27266 -0.04512
 O8 O 0.25015 0.34617 0.02326
 Cu9 Cu 0.36606 0.34724 0.00880
 Cu10 Cu 0.28292 0.31009 -0.01336
 C11 C 0.27190 0.37552 0.04377
 C12 C 0.36752 0.27548 -0.04874
 C13 C 0.32062 0.37693 -0.06587
 C14 C 0.34178 0.27984 0.05943
 O15 O 0.63655 0.60060 0.01890
 O16 O 0.61633 0.68102 -0.06570
 O17 O 0.67208 0.61265 -0.05760
 O18 O 0.58363 0.67199 0.01181
 O19 O 0.64598 0.70770 0.04128
 O20 O 0.73407 0.64794 -0.02715
 O21 O 0.67850 0.71776 -0.03746
 O22 O 0.69722 0.63803 0.04877
 Cu23 Cu 0.62084 0.63780 -0.02588
 Cu24 Cu 0.69535 0.68180 0.00881
 C25 C 0.67087 0.60506 0.04745
 C26 C 0.64308 0.71367 -0.06516
 C27 C 0.71849 0.61915 -0.05269
 C28 C 0.59977 0.70039 0.03767
 O29 O 0.62337 0.40751 0.97065
 O30 O 0.55106 0.33460 1.03341
 O31 O 0.60649 0.39798 1.05986
 O32 O 0.57821 0.33619 0.95960
 O33 O 0.64625 0.29750 0.97374
 O34 O 0.68013 0.36606 1.06540
 O35 O 0.62045 0.29985 1.05281
 O36 O 0.69244 0.36911 0.97927
 Cu37 Cu 0.58496 0.37540 1.00580
 Cu38 Cu 0.66718 0.33019 1.01966
 C39 C 0.66864 0.40002 0.96167
 C40 C 0.57284 0.30364 1.05200
 C41 C 0.64808 0.39227 1.07987
 C42 C 0.60583 0.30362 0.95255
 O43 O 0.41052 0.66699 1.05317
 O44 O 0.39579 0.60188 0.95334
 O45 O 0.43753 0.67453 0.97339
 O46 O 0.37359 0.59363 1.03571
 O47 O 0.30137 0.62762 1.02712
 O48 O 0.36527 0.70479 0.95513
 O49 O 0.32072 0.63049 0.94301
 O50 O 0.34000 0.70127 1.03703
 Cu51 Cu 0.41150 0.63083 1.00484
 Cu52 Cu 0.32451 0.66901 0.98849
 C53 C 0.37813 0.69578 1.06149
 C54 C 0.35476 0.60423 0.93208
 C55 C 0.41289 0.70382 0.95430
 C56 C 0.32740 0.59750 1.04387
 O57 O 0.05472 0.38432 0.42785
 O58 O -0.05391 0.43800 0.37775
 O59 O -0.04032 0.37517 0.43217
 O60 O 0.04400 0.44152 0.36929
 O61 O 0.04279 0.39493 0.31521
 O62 O -0.04113 0.32747 0.37912
 O63 O -0.05498 0.39130 0.32378
 O64 O 0.05413 0.33590 0.37536
 Cu65 Cu 0.00062 0.41475 0.40669
 Cu66 Cu -0.00005 0.35793 0.34266
 C67 C 0.07243 0.35074 0.41076
 C68 C -0.07311 0.42412 0.34254
 C69 C -0.05364 0.33940 0.41722
 C70 C 0.05875 0.42905 0.33200
 O71 O 0.03880 0.67393 0.61919
 O72 O -0.04134 0.58933 0.65570
 O73 O -0.05617 0.66263 0.61470
 O74 O 0.05154 0.60884 0.67160
 O75 O 0.03506 0.64757 0.73027
 O76 O -0.07419 0.69425 0.67721
 O77 O -0.05391 0.62351 0.71794
 O78 O 0.02266 0.71113 0.67896
 Cu79 Cu -0.00037 0.63012 0.63428
 Cu80 Cu -0.01980 0.67314 0.70666
 C81 C 0.04457 0.70668 0.64248
 C82 C -0.05968 0.59112 0.69360
 C83 C -0.08389 0.68741 0.63727
 C84 C 0.06071 0.61918 0.71129
 O85 O 0.94570 0.62812 0.41565
 O86 O 1.04768 0.59848 0.34057
 O87 O 1.04254 0.63365 0.41969
 O88 O 0.95119 0.59100 0.33945
 O89 O 0.94572 0.65420 0.30884
 O90 O 1.03450 0.69655 0.38889
 O91 O 1.04374 0.66220 0.31108
 O92 O 0.94050 0.69090 0.38402
 Cu93 Cu 0.99791 0.60637 0.38186
 Cu94 Cu 0.99096 0.68202 0.34451
 C95 C 0.92615 0.66501 0.41265
 C96 C 1.06282 0.62521 0.31304
 C97 C 1.05233 0.67291 0.41889
 C98 C 0.93228 0.61593 0.31105
 O99 O 0.96587 0.31432 0.60855
 O100 O 1.04829 0.39701 0.65034
 O101 O 1.05635 0.32627 0.60017
 O102 O 0.94961 0.37761 0.65498
 O103 O 0.97070 0.34529 0.71658
 O104 O 1.08268 0.30064 0.66362
 O105 O 1.06340 0.36257 0.71192
 O106 O 0.98831 0.27531 0.66557
 Cu107 Cu 1.00472 0.35931 0.62357
 Cu108 Cu 1.02642 0.31613 0.69513
 C109 C 0.96494 0.27978 0.62932
 C110 C 1.07009 0.39419 0.68741
 C111 C 1.08794 0.30481 0.62265
 C112 C 0.94127 0.36935 0.69475
 O113 O 0.31427 -0.04690 0.39929
 O114 O 0.39926 0.02491 0.34222
 O115 O 0.31945 0.03602 0.39168
 O116 O 0.39973 -0.05409 0.36057
 O117 O 0.35737 -0.05983 0.29830
 O118 O 0.27709 0.03122 0.32955
 O119 O 0.35613 0.01547 0.28074
 O120 O 0.27372 -0.05603 0.33666
 Cu121 Cu 0.36171 -0.00872 0.37993
 Cu122 Cu 0.30940 -0.01690 0.30658
 C123 C 0.28090 -0.06524 0.37651
 C124 C 0.39312 0.03055 0.30124
 C125 C 0.28587 0.04981 0.36568
 C126 C 0.39341 -0.07128 0.32343
 O127 O 0.59562 0.06271 0.64939
 O128 O 0.61991 -0.03380 0.58585
 O129 O 0.57512 -0.01463 0.65934
 O130 O 0.64292 0.04514 0.57832
 O131 O 0.71444 0.03614 0.61410
 O132 O 0.64605 -0.02582 0.69576
 O133 O 0.69155 -0.04343 0.62141
 O134 O 0.66725 0.05420 0.68535
 Cu135 Cu 0.60177 0.01568 0.61426
 Cu136 Cu 0.68703 0.00375 0.65802
 C137 C 0.62674 0.07474 0.67816
 C138 C 0.66017 -0.05471 0.59227
 C139 C 0.59895 -0.02938 0.69211
 C140 C 0.68930 0.05154 0.58233
 O141 O 0.40844 0.96214 0.66561
 O142 O 0.37624 1.03483 0.57427
 O143 O 0.42756 1.04324 0.64254
 O144 O 0.36865 0.95621 0.58548
 O145 O 0.29710 0.96923 0.61849
 O146 O 0.35839 1.05718 0.67907
 O147 O 0.30548 1.05033 0.60772
 O148 O 0.33680 0.97767 0.69716
 Cu149 Cu 0.40232 0.99634 0.61564
 Cu150 Cu 0.31747 1.01488 0.65418
 C151 C 0.37776 0.95715 0.69652
 C152 C 0.33489 1.05529 0.57607
 C153 C 0.40308 1.06612 0.66912
 C154 C 0.32316 0.94829 0.59095
 O155 O 0.66509 1.05129 0.37643
 O156 O 0.61606 0.95989 0.31630
 O157 O 0.67266 0.96221 0.38918
 O158 O 0.61655 1.03762 0.30974
 O159 O 0.68738 1.03494 0.27324
 O160 O 0.73771 0.95313 0.34622
 O161 O 0.68746 0.95470 0.28087
 O162 O 0.74045 1.03879 0.35102
 Cu163 Cu 0.63741 1.00219 0.35441
 Cu164 Cu 0.72112 0.99752 0.31040
 C165 C 0.71026 1.06183 0.37272
 C166 C 0.64338 0.94210 0.28764
 C167 C 0.71189 0.94157 0.37823
 C168 C 0.64284 1.04877 0.27770
 C169 C 0.80712 0.75501 0.49479
 C170 C 0.79815 0.76370 0.53953
 C171 C 0.76618 0.79815 0.55010
 C172 C 0.74486 0.82463 0.51798
 C173 C 0.75695 0.81779 0.47375
 C174 C 0.78706 0.78250 0.46294
 H175 H 0.79532 0.77621 0.42894
 H176 H 0.75736 0.80463 0.58395
 C177 C 0.18516 0.24020 0.47460
 C178 C 0.19780 0.23085 0.51869
 C179 C 0.22897 0.19566 0.52734
 C180 C 0.24534 0.16828 0.49420
 C181 C 0.22776 0.17456 0.45076
 C182 C 0.19896 0.21128 0.44152
 H183 H 0.18768 0.21783 0.40807
 H184 H 0.24101 0.18923 0.56061
 C185 C 0.15352 0.78994 0.54670
 C186 C 0.14697 0.77593 0.50280
 C187 C 0.16867 0.79883 0.46901
 C188 C 0.20014 0.83299 0.47717
 C189 C 0.21123 0.84362 0.52112
 C190 C 0.18629 0.82343 0.55490
 H191 H 0.19437 0.83290 0.58828
 H192 H 0.16220 0.78872 0.43559
 C193 C 0.86215 0.19958 0.52427
 C194 C 0.85937 0.21923 0.48247
 C195 C 0.82965 0.20077 0.44950
 C196 C 0.80020 0.16564 0.45827
 C197 C 0.79909 0.14901 0.50120
 C198 C 0.83216 0.16485 0.53286
 H199 H 0.83309 0.15165 0.56545
 H200 H 0.82761 0.21489 0.41732
 C201 C 0.46890 0.86132 0.79925
 C202 C 0.51996 0.87055 0.79376
 C203 C 0.55637 0.84595 0.81521
 C204 C 0.54354 0.81466 0.84510
 C205 C 0.49225 0.80735 0.85353
 C206 C 0.45568 0.82981 0.82916
 H207 H 0.41656 0.82444 0.83525
 H208 H 0.59537 0.85296 0.81052
 C209 C 0.47566 0.13146 0.20475
 C210 C 0.52524 0.14107 0.19340
 C211 C 0.53335 0.17373 0.16397
 C212 C 0.49377 0.19595 0.14392
 C213 C 0.44386 0.18683 0.15525
 C214 C 0.43574 0.15502 0.18614
 H215 H 0.39777 0.14700 0.19402
 H216 H 0.57127 0.18037 0.15457
 C217 C 0.53572 0.17961 0.76910
 C218 C 0.48376 0.17201 0.76602
 C219 C 0.45265 0.18561 0.80005
 C220 C 0.47180 0.20707 0.83684
 C221 C 0.52302 0.21680 0.83835
 C222 C 0.55392 0.20356 0.80425
 H223 H 0.59369 0.20874 0.80739
 H224 H 0.41317 0.17884 0.79818
 C225 C 0.54018 0.83147 0.21379
 C226 C 0.49000 0.83233 0.22814
 C227 C 0.45384 0.80951 0.20478
 C228 C 0.46587 0.78594 0.16754
 C229 C 0.51562 0.78541 0.15267
 C230 C 0.55214 0.80711 0.17658
 H231 H 0.58993 0.80700 0.16442
 H232 H 0.41556 0.81007 0.21584
 C233 C 0.78055 0.46976 0.85525
 C234 C 0.79854 0.51150 0.85529
 C235 C 0.83089 0.52402 0.82275
 C236 C 0.84620 0.49623 0.78949
 C237 C 0.83103 0.45358 0.79102
 C238 C 0.79800 0.44079 0.82360
 H239 H 0.78456 0.40864 0.82339
 H240 H 0.84215 0.55670 0.82281
 C241 C 0.20675 0.48075 0.15248
 C242 C 0.22179 0.52318 0.14844
 C243 C 0.20333 0.55370 0.17799
 C244 C 0.17272 0.54231 0.21304
 C245 C 0.16313 0.49877 0.21995
 C246 C 0.17801 0.46901 0.18830
 H247 H 0.16814 0.43612 0.19197
 H248 H 0.21339 0.58649 0.17389
 C249 C 0.74623 0.51732 0.16634
 C250 C 0.73931 0.47662 0.18413
 C251 C 0.76910 0.46302 0.21972
 C252 C 0.80339 0.49038 0.24003
 C253 C 0.80862 0.53203 0.22363
 C254 C 0.78119 0.54394 0.18614
 H255 H 0.78713 0.57490 0.17245
 H256 H 0.76373 0.43177 0.23312
 C257 C 0.27305 0.51687 0.81780
 C258 C 0.26662 0.47240 0.81592
 C259 C 0.22868 0.45598 0.78870
 C260 C 0.19579 0.48315 0.76517
 C261 C 0.19960 0.52743 0.77089
 C262 C 0.23905 0.54349 0.79582
 H263 H 0.24128 0.57744 0.80061
 H264 H 0.22483 0.42200 0.78590
 N265 N 0.17502 0.43484 0.09551
 N266 N 0.19077 0.40655 0.06654
 C267 C 0.24094 0.40433 0.07033
 C268 C 0.25561 0.43203 0.10297
 N269 N 0.21323 0.45082 0.11745
 H270 H 0.29286 0.43636 0.11607
 N271 N 0.69715 0.50694 0.09884
 N272 N 0.67508 0.52933 0.06741
 C273 C 0.68264 0.57028 0.07727
 C274 C 0.71015 0.57232 0.11551
 N275 N 0.71816 0.53196 0.12842
 H276 H 0.72332 0.60057 0.13177
 N277 N 0.69628 0.47715 0.88203
 N278 N 0.66582 0.45950 0.90990
 C279 C 0.69168 0.42778 0.92959
 C280 C 0.73939 0.42631 0.91255
 N281 N 0.74072 0.45827 0.88346
 H282 H 0.76972 0.40433 0.92018
 N283 N 0.35861 0.53267 0.84157
 N284 N 0.38181 0.55597 0.87150
 C285 C 0.34588 0.57567 0.89494
 C286 C 0.30006 0.56362 0.87870
 N287 N 0.30956 0.53610 0.84605
 H288 H 0.26338 0.57348 0.88976
 N289 N 0.17243 0.31677 0.48042
 N290 N 0.14346 0.34716 0.46364
 C291 C 0.11381 0.32873 0.43339
 C292 C 0.12528 0.28600 0.43220
 N293 N 0.16151 0.27973 0.46256
 H294 H 0.10731 0.26161 0.41297
 N295 N 0.14212 0.77830 0.62483
 N296 N 0.11254 0.75835 0.65200
 C297 C 0.07839 0.73878 0.62689
 C298 C 0.08775 0.74735 0.58374
 N299 N 0.12849 0.77164 0.58351
 H300 H 0.06604 0.73699 0.55582
 N301 N 0.83050 0.67936 0.49192
 N302 N 0.86160 0.65401 0.47007
 C303 C 0.88733 0.67902 0.44310
 C304 C 0.87149 0.72019 0.44922
 N305 N 0.83655 0.71930 0.48024
 H306 H 0.88423 0.74823 0.43279
 N307 N 0.93413 0.18639 0.57198
 N308 N 0.96077 0.20568 0.60275
 C309 C 0.93937 0.24420 0.60873
 C310 C 0.89880 0.24783 0.58079
 N311 N 0.89761 0.21168 0.55747
 H312 H 0.87308 0.27448 0.57785
 N313 N 0.48503 0.05722 0.22528
 N314 N 0.46493 0.02972 0.25206
 C315 C 0.43102 0.05142 0.27589
 C316 C 0.42983 0.09287 0.26211
 N317 N 0.46490 0.09540 0.23116
 H318 H 0.40439 0.11810 0.27196
 N319 N 0.61698 0.17360 0.73360
 N320 N 0.64380 0.14562 0.71093
 C321 C 0.61414 0.11226 0.70396
 C322 C 0.56883 0.12038 0.72291
 N323 N 0.57147 0.15936 0.74059
 H324 H 0.53805 0.09886 0.72527
 N325 N 0.38863 0.89913 0.79584
 N326 N 0.36326 0.92506 0.76940
 C327 C 0.38985 0.92787 0.73242
 C328 C 0.43163 0.90212 0.73656
 N329 N 0.43022 0.88549 0.77702
 H330 H 0.46134 0.89763 0.71323
 N331 N 0.62739 0.84480 0.23095
 N332 N 0.65616 0.87403 0.24866
 C333 C 0.62552 0.90494 0.26357
 C334 C 0.57683 0.89376 0.25441
 N335 N 0.57950 0.85561 0.23425
 H336 H 0.54340 0.91260 0.26014
 N337 N 0.40421 0.18832 0.88471
 N338 N 0.37558 0.20543 0.91524
 C339 C 0.39338 0.24428 0.92364
 C340 C 0.43376 0.25066 0.89704
 N341 N 0.43944 0.21483 0.87329
 H342 H 0.45339 0.27983 0.89252
 N343 N 0.62420 0.81266 0.88284
 N344 N 0.65298 0.78627 0.90591
 C345 C 0.63002 0.74868 0.90548
 C346 C 0.58636 0.75274 0.88130
 N347 N 0.58352 0.79341 0.86856
 H348 H 0.55796 0.72923 0.87601
 N349 N 0.38352 0.78381 0.13332
 N350 N 0.35827 0.76017 0.10515
 C351 C 0.38620 0.72487 0.09822
 C352 C 0.42874 0.72707 0.12382
 N353 N 0.42648 0.76496 0.14412
 H354 H 0.46043 0.70526 0.12417
 N355 N 0.48323 0.22496 0.07052
 N356 N 0.50391 0.25339 0.04520
 C357 C 0.54155 0.27039 0.06868
 C358 C 0.54336 0.25192 0.10917
 N359 N 0.50556 0.22438 0.10937
 H360 H 0.56887 0.25832 0.13605
 N361 N 0.32454 0.12855 0.48781
 N362 N 0.34991 0.09832 0.50902
 C363 C 0.32065 0.08584 0.54196
 C364 C 0.27682 0.10919 0.54034
 N365 N 0.28035 0.13513 0.50592
 H366 H 0.24582 0.10824 0.56267
 N367 N 0.72183 0.16264 0.41833
 N368 N 0.69496 0.13339 0.39824
 C369 C 0.72575 0.09983 0.39123
 C370 C 0.77268 0.10965 0.40704
 N371 N 0.76840 0.14887 0.42451
 H372 H 0.80494 0.08865 0.41024
 N373 N 0.66475 0.86267 0.51270
 N374 N 0.64059 0.89428 0.53238
 C375 C 0.67108 0.90839 0.56452
 C376 C 0.71469 0.88460 0.56399
 N377 N 0.70945 0.85677 0.53091
 H378 H 0.74747 0.88786 0.58474
 N379 N 0.21773 0.84005 0.39962
 N380 N 0.23715 0.86675 0.37164
 C381 C 0.25250 0.90026 0.39516
 C382 C 0.24158 0.89350 0.43844
 N383 N 0.22034 0.85505 0.44015
 H384 H 0.24754 0.91524 0.46530
 N385 N 0.14978 0.48252 0.69613
 N386 N 0.11626 0.45999 0.67463
 C387 C 0.10445 0.42765 0.70081
 C388 C 0.13219 0.43090 0.73917
 N389 N 0.15953 0.46608 0.73508
 H390 H 0.13261 0.40986 0.76701
 N391 N 0.16981 0.61350 0.24563
 N392 N 0.14104 0.63710 0.27148
 C393 C 0.10256 0.61276 0.28282
 C394 C 0.10802 0.57408 0.26260
 N395 N 0.15110 0.57519 0.24035
 H396 H 0.08212 0.54822 0.26329
 N397 N 0.82420 0.49373 0.31778
 N398 N 0.85672 0.47667 0.34589
 C399 C 0.88348 0.44716 0.32375
 C400 C 0.86613 0.44644 0.28101
 N401 N 0.82963 0.47634 0.27863
 H402 H 0.88047 0.42799 0.25385
 N403 N 0.87386 0.49670 0.71315
 N404 N 0.89788 0.52169 0.68615
 C405 C 0.91306 0.55502 0.71017
 C406 C 0.89858 0.54941 0.75253
 N407 N 0.87400 0.51261 0.75335
 H408 H 0.90537 0.57048 0.77987
 N409 N 0.82219 0.56136 0.91193
 N410 N 0.80232 0.59249 0.93550
 C411 C 0.75294 0.59296 0.92648
 C412 C 0.74310 0.56123 0.89665
 N413 N 0.78718 0.54160 0.88911
 H414 H 0.70793 0.55496 0.88037
 N415 N 0.34409 0.44928 0.85189
 N416 N 0.35919 0.42493 0.88467
 C417 C 0.31917 0.40338 0.89778
 C418 C 0.27881 0.41498 0.87134
 N419 N 0.29594 0.44443 0.84362
 H420 H 0.24026 0.40584 0.87442
 N421 N 0.30358 0.51572 0.11619
 N422 N 0.33309 0.53527 0.08884
 C423 C 0.30667 0.56829 0.07217
 C424 C 0.25949 0.56835 0.09044
 N425 N 0.25911 0.53457 0.11742
 H426 H 0.22934 0.59129 0.08592
 N427 N 0.65235 0.46216 0.16825
 N428 N 0.62633 0.44115 0.13833
 C429 C 0.65901 0.41528 0.11765
 C430 C 0.70572 0.42024 0.13667
 N431 N 0.70011 0.45032 0.16764
 H432 H 0.74111 0.40766 0.12519
 N433 N 0.80603 0.74385 0.61593
 N434 N 0.83751 0.72477 0.64336
 C435 C 0.87441 0.70777 0.61912
 C436 C 0.86483 0.71743 0.57580
 N437 N 0.82139 0.74008 0.57503
 H438 H 0.88997 0.71228 0.54888
 N439 N 0.88114 0.29185 0.50087
 N440 N 0.90323 0.32496 0.48394
 C441 C 0.91896 0.31315 0.44402
 C442 C 0.90575 0.27134 0.43705
 N443 N 0.88310 0.25897 0.47396
 H444 H 0.91272 0.25173 0.40857
 N445 N 0.19814 0.25155 0.59548
 N446 N 0.16872 0.26978 0.62476
 C447 C 0.12869 0.28529 0.60269
 C448 C 0.13434 0.27576 0.55886
 N449 N 0.17852 0.25468 0.55554
 H450 H 0.10685 0.28036 0.53300
 N451 N 0.13047 0.69975 0.50699
 N452 N 0.10630 0.67055 0.48399
 C453 C 0.08192 0.69121 0.45136
 C454 C 0.09110 0.73374 0.45557
 N455 N 0.12103 0.73803 0.49082
 H456 H 0.07815 0.75919 0.43440
 N457 N 0.51402 0.94562 0.77563
 N458 N 0.53443 0.97311 0.74903
 C459 C 0.57055 0.95188 0.72731
 C460 C 0.57170 0.91038 0.74114
 N461 N 0.53514 0.90765 0.77080
 H462 H 0.59496 0.88442 0.72944
 N463 N 0.49404 0.85558 0.30485
 N464 N 0.46805 0.88037 0.33176
 C465 C 0.42949 0.89678 0.30809
 C466 C 0.43284 0.88182 0.26606
 N467 N 0.47375 0.85666 0.26514
 H468 H 0.40853 0.88921 0.23845
 N469 N 0.60686 0.10738 0.18348
 N470 N 0.63977 0.08324 0.20493
 C471 C 0.62090 0.07720 0.24494
 C472 C 0.57591 0.09878 0.24771
 N473 N 0.56788 0.11653 0.20832
 H474 H 0.55116 0.10067 0.27538
 N475 N 0.47583 0.15747 0.68792
 N476 N 0.45509 0.12947 0.66133
 C477 C 0.42684 0.10441 0.68615
 C478 C 0.43077 0.11795 0.72903
 N479 N 0.46235 0.15077 0.72875
 H480 H 0.41563 0.10337 0.75782
 N481 N 0.50185 0.76754 0.07561
 N482 N 0.52238 0.74379 0.04466
 C483 C 0.56439 0.72659 0.06213
 C484 C 0.56949 0.74075 0.10458
 N485 N 0.52901 0.76545 0.11207
 H486 H 0.59893 0.73307 0.12797
 N487 N 0.36168 0.18530 0.11984
 N488 N 0.33236 0.20947 0.09465
 C489 C 0.35382 0.24767 0.09273
 C490 C 0.39668 0.24632 0.11830
 N491 N 0.40121 0.20650 0.13360
 H492 H 0.42399 0.27094 0.12223
 N493 N 0.57764 0.20639 0.90060
 N494 N 0.60314 0.22897 0.92937
 C495 C 0.58901 0.26974 0.92352
 C496 C 0.55362 0.27156 0.89038
 N497 N 0.54701 0.23116 0.87751
 H498 H 0.53589 0.29939 0.87610
 N499 N 0.50064 0.78283 0.92868
 N500 N 0.48016 0.75608 0.95596
 C501 C 0.44144 0.73829 0.93477
 C502 C 0.43886 0.75506 0.89292
 N503 N 0.47729 0.78221 0.89029
 H504 H 0.41339 0.74691 0.86657
 N505 N 0.73725 0.83284 0.39773
 N506 N 0.72695 0.86504 0.37154
 C507 C 0.72332 0.89986 0.39690
 C508 C 0.73179 0.88805 0.43985
 N509 N 0.74019 0.84560 0.43898
 H510 H 0.73424 0.90860 0.46816
 N511 N 0.29794 0.86386 0.51744
 N512 N 0.32890 0.89088 0.53601
 C513 C 0.30180 0.91447 0.56428
 C514 C 0.25313 0.90121 0.56259
 N515 N 0.25225 0.87000 0.53245
 H516 H 0.22163 0.91285 0.58126
 N517 N 0.23662 0.15443 0.37373
 N518 N 0.24967 0.12122 0.34940
 C519 C 0.25905 0.08902 0.37720
 C520 C 0.25105 0.10338 0.41901
 N521 N 0.23815 0.14471 0.41587
 H522 H 0.25479 0.08490 0.44852
 N523 N 0.71595 0.11971 0.49504
 N524 N 0.68585 0.09426 0.51568
 C525 C 0.71223 0.07796 0.54944
 C526 C 0.75982 0.09417 0.54879
 N527 N 0.76074 0.12007 0.51378
 H528 H 0.78984 0.08877 0.57224
 N529 N 0.82732 0.60524 0.24042
 N530 N 0.85964 0.62868 0.26222
 C531 C 0.89251 0.60175 0.28140
 C532 C 0.87957 0.56082 0.27036
 N533 N 0.83807 0.56431 0.24490
 H534 H 0.89945 0.53196 0.27911
 N535 N 0.82311 0.41464 0.72257
 N536 N 0.85207 0.39296 0.69529
 C537 C 0.89686 0.38793 0.71545
 C538 C 0.89463 0.40725 0.75592
 N539 N 0.84800 0.42350 0.75906
 H540 H 0.92479 0.41185 0.77928
 N541 N 0.13381 0.57352 0.79669
 N542 N 0.09766 0.59891 0.78217
 C543 C 0.09841 0.59697 0.73818
 C544 C 0.13669 0.56962 0.72594
 N545 N 0.15736 0.55520 0.76368
 H546 H 0.14886 0.56209 0.69320
 N547 N 0.15398 0.49901 0.29924
 N548 N 0.12644 0.48159 0.32970
 C549 C 0.09581 0.45433 0.30915
 C550 C 0.10569 0.45532 0.26488
 N551 N 0.14162 0.48427 0.26002
 H552 H 0.08742 0.43800 0.23876
   
