data_POSCAR
  _audit_creation_date              2014-09-24
  _audit_creation_method            'ToBaCCo'
  _symmetry_space_group_name_H-M    'P1'
  _symmetry_Int_Tables_number       1
  _symmetry_cell_setting            triclinic
  loop_
  _symmetry_equiv_pos_as_xyz
 x,y,z
_cell_length_a 49.9890
_cell_length_b 50.2313
_cell_length_c 50.1851
_cell_angle_alpha 89.969300
_cell_angle_beta 89.976700
_cell_angle_gamma 89.977000
loop_
  _atom_site_label
  _atom_site_type_symbol
  _atom_site_fract_x
  _atom_site_fract_y
  _atom_site_fract_z
O1 O 0.35113 0.31842 -0.03097
 O2 O 0.31780 0.35344 0.02380
 O3 O 0.35273 0.31521 0.02047
 O4 O 0.31479 0.35544 -0.02759
 O5 O 0.28261 0.32525 -0.02785
 O6 O 0.32059 0.28496 0.02057
 O7 O 0.28537 0.32350 0.02392
 O8 O 0.31925 0.28792 -0.03123
 Cu9 Cu 0.33734 0.33863 -0.00359
 Cu10 Cu 0.29869 0.30233 -0.00368
 C11 C 0.34114 0.29716 -0.04018
 C12 C 0.29589 0.34467 0.03297
 C13 C 0.34319 0.29323 0.02852
 C14 C 0.29217 0.34731 -0.03563
 O15 O 0.65257 0.68398 -0.02454
 O16 O 0.68925 0.65052 0.02925
 O17 O 0.65191 0.68692 0.02696
 O18 O 0.68996 0.64811 -0.02203
 O19 O 0.72099 0.67946 -0.02346
 O20 O 0.68265 0.71854 0.02589
 O21 O 0.72035 0.68180 0.02815
 O22 O 0.68329 0.71562 -0.02598
 Cu23 Cu 0.66780 0.66428 0.00261
 Cu24 Cu 0.70491 0.70211 0.00110
 C25 C 0.66157 0.70547 -0.03428
 C26 C 0.71124 0.66007 0.03738
 C27 C 0.66058 0.70942 0.03443
 C28 C 0.71200 0.65700 -0.03079
 O29 O 0.67649 0.35688 0.97590
 O30 O 0.64036 0.32176 1.02911
 O31 O 0.67632 0.35896 1.02760
 O32 O 0.64061 0.31920 0.97765
 O33 O 0.67248 0.28868 0.97898
 O34 O 0.70839 0.32867 1.02922
 O35 O 0.67220 0.29122 1.03074
 O36 O 0.70861 0.32663 0.97723
 Cu37 Cu 0.65527 0.34227 1.00235
 Cu38 Cu 0.69371 0.30575 1.00413
 C39 C 0.69872 0.34790 0.96771
 C40 C 0.65001 0.30052 1.03881
 C41 C 0.69835 0.35058 1.03687
 C42 C 0.65025 0.29710 0.97015
 O43 O 0.31944 0.64679 0.97209
 O44 O 0.35480 0.68068 1.02644
 O45 O 0.31692 0.64519 1.02360
 O46 O 0.35633 0.68332 0.97502
 O47 O 0.32558 0.71500 0.97495
 O48 O 0.28606 0.67674 1.02387
 O49 O 0.32423 0.71251 1.02670
 O50 O 0.28843 0.67819 0.97202
 Cu51 Cu 0.33993 0.66082 0.99927
 Cu52 Cu 0.30294 0.69880 0.99940
 C53 C 0.29789 0.65650 0.96302
 C54 C 0.34579 0.70243 1.03555
 C55 C 0.29475 0.65436 1.03179
 C56 C 0.34780 0.70571 0.96700
 O57 O 0.02983 0.31445 0.34859
 O58 O -0.02343 0.34728 0.31051
 O59 O -0.02184 0.31166 0.34837
 O60 O 0.02809 0.34922 0.31025
 O61 O 0.02977 0.31711 0.28015
 O62 O -0.02054 0.27933 0.31851
 O63 O -0.02210 0.31530 0.28028
 O64 O 0.03153 0.28204 0.31883
 Cu65 Cu 0.00297 0.33385 0.33245
 Cu66 Cu 0.00476 0.29512 0.29643
 C67 C 0.03957 0.29266 0.34036
 C68 C -0.03142 0.33725 0.28876
 C69 C -0.02938 0.28902 0.34014
 C70 C 0.03712 0.33974 0.28864
 O71 O 0.02298 0.68934 0.65228
 O72 O -0.03032 0.65146 0.68529
 O73 O -0.02854 0.68968 0.65039
 O74 O 0.02135 0.65158 0.68803
 O75 O 0.02014 0.68149 0.72032
 O76 O -0.03013 0.71984 0.68246
 O77 O -0.03193 0.68128 0.71766
 O78 O 0.02174 0.71961 0.68423
 Cu79 Cu -0.00344 0.66749 0.66580
 Cu80 Cu -0.00513 0.70357 0.70448
 C81 C 0.03102 0.71108 0.66226
 C82 C -0.04003 0.65977 0.70709
 C83 C -0.03752 0.71132 0.65983
 C84 C 0.02893 0.65985 0.71066
 O85 O 0.97390 0.67310 0.36334
 O86 O 1.02651 0.63693 0.32700
 O87 O 1.02580 0.67316 0.36394
 O88 O 0.97460 0.63626 0.32699
 O89 O 0.97441 0.66726 0.29568
 O90 O 1.02592 0.70451 0.33299
 O91 O 1.02659 0.66805 0.29582
 O92 O 0.97375 0.70432 0.33225
 Cu93 Cu 1.00021 0.65174 0.34844
 Cu94 Cu 1.00016 0.68920 0.31102
 C95 C 0.96500 0.69485 0.35403
 C96 C 1.03538 0.64629 0.30524
 C97 C 1.03444 0.69508 0.35487
 C98 C 0.96592 0.64537 0.30509
 O99 O 0.97320 0.32081 0.64344
 O100 O 1.02685 0.35591 0.67885
 O101 O 1.02492 0.31863 0.64277
 O102 O 0.97512 0.35673 0.68088
 O103 O 0.97487 0.32555 0.71200
 O104 O 1.02499 0.28744 0.67388
 O105 O 1.02691 0.32499 0.71022
 O106 O 0.97296 0.28936 0.67429
 Cu107 Cu 1.00003 0.34114 0.65838
 Cu108 Cu 0.99992 0.30368 0.69575
 C109 C 0.96421 0.29906 0.65258
 C110 C 1.03576 0.34668 0.70061
 C111 C 1.03317 0.29648 0.65173
 C112 C 0.96678 0.34773 0.70300
 O113 O 0.31076 -0.02967 0.34902
 O114 O 0.34738 0.02420 0.31567
 O115 O 0.30986 0.02156 0.35141
 O116 O 0.34826 -0.02725 0.31276
 O117 O 0.31765 -0.02631 0.28097
 O118 O 0.27895 0.02286 0.31990
 O119 O 0.31679 0.02551 0.28387
 O120 O 0.27979 -0.02870 0.31758
 Cu121 Cu 0.33217 -0.00298 0.33534
 Cu122 Cu 0.29522 -0.00163 0.29731
 C123 C 0.28884 -0.03788 0.33937
 C124 C 0.33843 0.03389 0.29411
 C125 C 0.28782 0.03023 0.34241
 C126 C 0.33972 -0.03476 0.29020
 O127 O 0.68228 -0.02414 0.64706
 O128 O 0.64888 0.03066 0.68197
 O129 O 0.68525 0.02721 0.64494
 O130 O 0.64727 -0.02073 0.68526
 O131 O 0.67936 -0.02077 0.71558
 O132 O 0.71740 0.02754 0.67520
 O133 O 0.68073 0.03098 0.71253
 O134 O 0.71467 -0.02418 0.67707
 Cu135 Cu 0.66269 0.00326 0.66179
 Cu136 Cu 0.70130 0.00343 0.69818
 C137 C 0.70418 -0.03326 0.65589
 C138 C 0.65885 0.03990 0.70324
 C139 C 0.70785 0.03526 0.65310
 C140 C 0.65678 -0.02873 0.70728
 O141 O 0.32316 1.02444 0.64370
 O142 O 0.35936 0.97131 0.67883
 O143 O 0.32337 0.97279 0.64163
 O144 O 0.35912 1.02272 0.68133
 O145 O 0.32730 1.02140 0.71194
 O146 O 0.29134 0.97117 0.67200
 O147 O 0.32757 0.96969 0.70945
 O148 O 0.29109 1.02313 0.67403
 Cu149 Cu 0.34442 0.99803 0.65829
 Cu150 Cu 0.30604 0.99627 0.69491
 C151 C 0.30094 1.03263 0.65272
 C152 C 0.34975 0.96163 0.70011
 C153 C 0.30136 0.96351 0.65007
 C154 C 0.34952 1.03022 0.70348
 O155 O 0.64581 0.97460 0.31908
 O156 O 0.68106 1.02892 0.35309
 O157 O 0.64410 1.02597 0.31659
 O158 O 0.68373 0.97745 0.35454
 O159 O 0.71453 0.97737 0.32291
 O160 O 0.67478 1.02623 0.28483
 O161 O 0.71202 1.02917 0.32161
 O162 O 0.67632 0.97452 0.28716
 Cu163 Cu 0.66062 1.00174 0.33901
 Cu164 Cu 0.69754 1.00184 0.30092
 C165 C 0.65482 0.96558 0.29727
 C166 C 0.70258 1.03807 0.34337
 C167 C 0.65255 1.03407 0.29418
 C168 C 0.70589 0.96936 0.34529
 C169 C 0.87488 0.77623 0.50271
 C170 C 0.86278 0.78277 0.47855
 C171 C 0.84233 0.80188 0.47782
 C172 C 0.83469 0.81571 0.50125
 C173 C 0.84797 0.80924 0.52530
 C174 C 0.86734 0.78919 0.52606
 C175 C 0.81344 0.83694 0.50072
 C176 C 0.80002 0.84469 0.52436
 C177 C 0.78145 0.86554 0.52416
 C178 C 0.77472 0.87789 0.50021
 C179 C 0.78696 0.87005 0.47651
 C180 C 0.80662 0.85018 0.47675
 H181 H 0.89041 0.76114 0.50330
 H182 H 0.83266 0.80565 0.45894
 H183 H 0.84380 0.81976 0.54361
 H184 H 0.80379 0.83486 0.54314
 H185 H 0.76007 0.89384 0.50006
 H186 H 0.81663 0.84561 0.45821
 C187 C 0.12509 0.22452 0.49930
 C188 C 0.13733 0.21644 0.47569
 C189 C 0.15728 0.19689 0.47628
 C190 C 0.16418 0.18390 0.50042
 C191 C 0.15101 0.19211 0.52402
 C192 C 0.13210 0.21269 0.52344
 C193 C 0.18441 0.16167 0.50081
 C194 C 0.19753 0.15400 0.52468
 C195 C 0.21571 0.13272 0.52484
 C196 C 0.22208 0.11973 0.50112
 C197 C 0.20987 0.12728 0.47733
 C198 C 0.19069 0.14753 0.47723
 H199 H 0.10983 0.23988 0.49883
 H200 H 0.16709 0.19205 0.45772
 H201 H 0.15485 0.18250 0.54290
 H202 H 0.19395 0.16432 0.54323
 H203 H 0.23652 0.10359 0.50118
 H204 H 0.18072 0.15176 0.45861
 C205 C 0.12172 0.77471 0.50629
 C206 C 0.13004 0.78821 0.52910
 C207 C 0.14972 0.80799 0.52720
 C208 C 0.16236 0.81358 0.50252
 C209 C 0.15403 0.79901 0.47986
 C210 C 0.13338 0.78032 0.48169
 C211 C 0.18381 0.83448 0.50032
 C212 C 0.19006 0.84651 0.47551
 C213 C 0.21036 0.86564 0.47357
 C214 C 0.22374 0.87405 0.49643
 C215 C 0.21747 0.86305 0.52115
 C216 C 0.19823 0.84292 0.52306
 H217 H 0.10596 0.75992 0.50766
 H218 H 0.15464 0.81896 0.54504
 H219 H 0.16333 0.80191 0.46064
 H220 H 0.17920 0.84154 0.45759
 H221 H 0.23893 0.88943 0.49501
 H222 H 0.19478 0.83411 0.54240
 C223 C 0.87981 0.22378 0.49685
 C224 C 0.86688 0.21696 0.52052
 C225 C 0.84595 0.19840 0.52019
 C226 C 0.83864 0.18526 0.49626
 C227 C 0.85261 0.19209 0.47269
 C228 C 0.87252 0.21165 0.47295
 C229 C 0.81704 0.16437 0.49592
 C230 C 0.80395 0.15716 0.47191
 C231 C 0.78475 0.13683 0.47160
 C232 C 0.77726 0.12445 0.49532
 C233 C 0.78934 0.13165 0.51928
 C234 C 0.80951 0.15094 0.51957
 H235 H 0.89574 0.23845 0.49706
 H236 H 0.83565 0.19450 0.53871
 H237 H 0.84854 0.18221 0.45401
 H238 H 0.80838 0.16705 0.45331
 H239 H 0.76213 0.10896 0.49511
 H240 H 0.81932 0.15493 0.53832
 C241 C 0.50350 0.87662 0.77700
 C242 C 0.47990 0.86346 0.78372
 C243 C 0.48034 0.84288 0.80256
 C244 C 0.50432 0.83615 0.81606
 C245 C 0.52785 0.85033 0.80932
 C246 C 0.52746 0.86992 0.78949
 C247 C 0.50472 0.81491 0.83722
 C248 C 0.52890 0.80219 0.84470
 C249 C 0.52928 0.78329 0.86523
 C250 C 0.50548 0.77573 0.87759
 C251 C 0.48134 0.78746 0.87013
 C252 C 0.48097 0.80735 0.85060
 H253 H 0.50317 0.89231 0.76213
 H254 H 0.46186 0.83241 0.80641
 H255 H 0.54656 0.84668 0.81946
 H256 H 0.54757 0.80670 0.83484
 H257 H 0.50578 0.76084 0.89326
 H258 H 0.46207 0.81691 0.84639
 C259 C 0.49431 0.12270 0.22424
 C260 C 0.47048 0.13498 0.21666
 C261 C 0.47082 0.15557 0.19783
 C262 C 0.49499 0.16319 0.18518
 C263 C 0.51878 0.14988 0.19275
 C264 C 0.51844 0.13030 0.21259
 C265 C 0.49538 0.18443 0.16402
 C266 C 0.51934 0.19799 0.15737
 C267 C 0.51978 0.21688 0.13684
 C268 C 0.49620 0.22360 0.12366
 C269 C 0.47224 0.21107 0.13028
 C270 C 0.47185 0.19119 0.14982
 H271 H 0.49404 0.10700 0.23910
 H272 H 0.45211 0.16536 0.19331
 H273 H 0.53768 0.15419 0.18324
 H274 H 0.53781 0.19415 0.16787
 H275 H 0.49653 0.23851 0.10800
 H276 H 0.45316 0.18101 0.15340
 C277 C 0.50301 0.12416 0.77542
 C278 C 0.52633 0.13736 0.78298
 C279 C 0.52516 0.15794 0.80178
 C280 C 0.50069 0.16460 0.81441
 C281 C 0.47746 0.15038 0.80686
 C282 C 0.47859 0.13082 0.78706
 C283 C 0.49946 0.18582 0.83554
 C284 C 0.47500 0.19848 0.84212
 C285 C 0.47380 0.21734 0.86263
 C286 C 0.49711 0.22494 0.87585
 C287 C 0.52154 0.21328 0.86926
 C288 C 0.52269 0.19342 0.84976
 H289 H 0.50391 0.10848 0.76058
 H290 H 0.54345 0.16846 0.80627
 H291 H 0.45840 0.15397 0.81636
 H292 H 0.45672 0.19396 0.83159
 H293 H 0.49619 0.23983 0.89149
 H294 H 0.54175 0.18391 0.84622
 C295 C 0.49955 0.87836 0.22257
 C296 C 0.52368 0.86624 0.21569
 C297 C 0.52402 0.84567 0.19684
 C298 C 0.50030 0.83791 0.18346
 C299 C 0.47620 0.85108 0.19036
 C300 C 0.47581 0.87063 0.21023
 C301 C 0.50070 0.81661 0.16232
 C302 C 0.47699 0.80313 0.15474
 C303 C 0.47730 0.78416 0.13429
 C304 C 0.50140 0.77725 0.12212
 C305 C 0.52514 0.78969 0.12968
 C306 C 0.52477 0.80968 0.14912
 H307 H 0.49927 0.89401 0.23747
 H308 H 0.54292 0.83599 0.19292
 H309 H 0.45761 0.84667 0.18033
 H310 H 0.45811 0.80707 0.16446
 H311 H 0.50166 0.76227 0.10654
 H312 H 0.54335 0.81977 0.15340
 C313 C 0.77708 0.49954 0.88032
 C314 C 0.78352 0.47583 0.86738
 C315 C 0.80172 0.47599 0.84610
 C316 C 0.81481 0.49984 0.83840
 C317 C 0.80846 0.52342 0.85250
 C318 C 0.78925 0.52331 0.87274
 C319 C 0.83510 0.50021 0.81619
 C320 C 0.84203 0.52432 0.80319
 C321 C 0.86202 0.52487 0.78364
 C322 C 0.87425 0.50128 0.77559
 C323 C 0.86722 0.47717 0.78745
 C324 C 0.84828 0.47662 0.80802
 H325 H 0.76262 0.49947 0.89646
 H326 H 0.80535 0.45744 0.83582
 H327 H 0.81840 0.54203 0.84825
 H328 H 0.83224 0.54287 0.80800
 H329 H 0.88953 0.50172 0.76023
 H330 H 0.84442 0.45777 0.81765
 C331 C 0.22611 0.50051 0.12209
 C332 C 0.21922 0.47658 0.13435
 C333 C 0.20057 0.47639 0.15514
 C334 C 0.18721 0.50004 0.16292
 C335 C 0.19419 0.52400 0.14978
 C336 C 0.21394 0.52423 0.12997
 C337 C 0.16586 0.49950 0.18406
 C338 C 0.15819 0.52289 0.19793
 C339 C 0.13767 0.52215 0.21698
 C340 C 0.12551 0.49802 0.22342
 C341 C 0.13305 0.47471 0.21042
 C342 C 0.15250 0.47548 0.19042
 H343 H 0.24082 0.50066 0.10618
 H344 H 0.19670 0.45761 0.16490
 H345 H 0.18424 0.54254 0.15437
 H346 H 0.16791 0.54174 0.19423
 H347 H 0.10992 0.49741 0.23847
 H348 H 0.15667 0.45721 0.17988
 C349 C 0.77593 0.50287 0.12535
 C350 C 0.78938 0.52567 0.13376
 C351 C 0.80965 0.52369 0.15292
 C352 C 0.81582 0.49890 0.16499
 C353 C 0.80136 0.47620 0.15655
 C354 C 0.78212 0.47815 0.13639
 C355 C 0.83723 0.49667 0.18594
 C356 C 0.84985 0.47200 0.19155
 C357 C 0.86952 0.47010 0.21136
 C358 C 0.87783 0.49288 0.22488
 C359 C 0.86618 0.51747 0.21927
 C360 C 0.84556 0.51930 0.20053
 H361 H 0.76075 0.50432 0.10996
 H362 H 0.82057 0.54157 0.15789
 H363 H 0.80475 0.45688 0.16538
 H364 H 0.84492 0.45418 0.18056
 H365 H 0.89358 0.49151 0.23969
 H366 H 0.83626 0.53851 0.19763
 C367 C 0.22301 0.50347 0.87564
 C368 C 0.21544 0.52716 0.86327
 C369 C 0.19621 0.52681 0.84297
 C370 C 0.18314 0.50280 0.83577
 C371 C 0.19075 0.47918 0.84918
 C372 C 0.21097 0.47951 0.86845
 C373 C 0.16148 0.50245 0.81492
 C374 C 0.15414 0.47855 0.80178
 C375 C 0.13318 0.47823 0.78324
 C376 C 0.12023 0.50188 0.77644
 C377 C 0.12754 0.52575 0.78859
 C378 C 0.14748 0.52600 0.80813
 H379 H 0.23816 0.50372 0.89111
 H380 H 0.19172 0.54539 0.83308
 H381 H 0.18098 0.46042 0.84519
 H382 H 0.16445 0.46005 0.80566
 H383 H 0.10429 0.50168 0.76178
 H384 H 0.15155 0.54465 0.81803
 C385 C 0.28250 0.35991 0.05314
 C386 C 0.27191 0.37446 0.06907
 C387 C 0.26015 0.39330 0.08635
 C388 C 0.25051 0.41074 0.09978
 C389 C 0.23954 0.43253 0.11378
 C390 C 0.23029 0.45215 0.12412
 C391 C 0.72659 0.64492 0.05622
 C392 C 0.73891 0.63028 0.07080
 C393 C 0.75243 0.61119 0.08649
 C394 C 0.76297 0.59344 0.09881
 C395 C 0.77392 0.57113 0.11205
 C396 C 0.78185 0.55095 0.12242
 C397 C 0.71320 0.36281 0.94798
 C398 C 0.72494 0.37675 0.93226
 C399 C 0.73825 0.39465 0.91503
 C400 C 0.74924 0.41127 0.90155
 C401 C 0.76166 0.43226 0.88745
 C402 C 0.77187 0.45146 0.87717
 C403 C 0.28361 0.64181 0.94302
 C404 C 0.27212 0.62779 0.92722
 C405 C 0.25919 0.60959 0.91005
 C406 C 0.24857 0.59264 0.89673
 C407 C 0.23660 0.57124 0.88290
 C408 C 0.22675 0.55175 0.87285
 C409 C 0.05924 0.27949 0.35652
 C410 C 0.07472 0.26897 0.37165
 C411 C 0.09150 0.25719 0.39100
 C412 C 0.10449 0.24750 0.40878
 C413 C 0.11798 0.23649 0.43092
 C414 C 0.12783 0.22729 0.45084
 C415 C 0.04991 0.72668 0.64741
 C416 C 0.06468 0.73907 0.63298
 C417 C 0.08074 0.75253 0.61412
 C418 C 0.09346 0.76291 0.59653
 C419 C 0.10724 0.77357 0.57437
 C420 C 0.11811 0.78118 0.55429
 C421 C 0.94519 0.70925 0.36892
 C422 C 0.92928 0.72117 0.38250
 C423 C 0.91170 0.73489 0.39975
 C424 C 0.89787 0.74638 0.41573
 C425 C 0.88337 0.75952 0.43599
 C426 C 0.87280 0.77038 0.45466
 C427 C 0.94463 0.28485 0.63719
 C428 C 0.92925 0.27345 0.62261
 C429 C 0.91258 0.26065 0.60381
 C430 C 0.89965 0.25014 0.58646
 C431 C 0.88620 0.23824 0.56474
 C432 C 0.87637 0.22839 0.54512
 C433 C 0.35388 0.05396 0.28078
 C434 C 0.36839 0.06987 0.27006
 C435 C 0.38705 0.08720 0.25799
 C436 C 0.40433 0.10069 0.24805
 C437 C 0.42603 0.11475 0.23680
 C438 C 0.44572 0.12503 0.22748
 C439 C 0.64415 0.05996 0.71738
 C440 C 0.62987 0.07570 0.72865
 C441 C 0.61114 0.09263 0.74117
 C442 C 0.59363 0.10562 0.75137
 C443 C 0.57152 0.11890 0.76279
 C444 C 0.55147 0.12842 0.77216
 C445 C 0.36494 0.94186 0.71417
 C446 C 0.37913 0.92618 0.72562
 C447 C 0.39738 0.90913 0.73865
 C448 C 0.41434 0.89592 0.74947
 C449 C 0.43574 0.88231 0.76177
 C450 C 0.45526 0.87255 0.77196
 C451 C 0.63949 0.94575 0.28343
 C452 C 0.62500 0.93015 0.27225
 C453 C 0.60633 0.91322 0.25961
 C454 C 0.58911 0.90006 0.24915
 C455 C 0.56755 0.88631 0.23724
 C456 C 0.54808 0.87618 0.22731
 C457 C 0.35583 0.28298 0.93977
 C458 C 0.37013 0.27169 0.92406
 C459 C 0.38888 0.25915 0.90716
 C460 C 0.40643 0.24896 0.89422
 C461 C 0.42857 0.23755 0.88099
 C462 C 0.44865 0.22817 0.87152
 C463 C 0.64609 0.71885 0.94569
 C464 C 0.63154 0.72962 0.92984
 C465 C 0.61284 0.74174 0.91259
 C466 C 0.59552 0.75173 0.89918
 C467 C 0.57377 0.76304 0.88523
 C468 C 0.55406 0.77241 0.87505
 C469 C 0.36117 0.71625 0.05536
 C470 C 0.37573 0.72742 0.07091
 C471 C 0.39447 0.74007 0.08776
 C472 C 0.41176 0.75054 0.10083
 C473 C 0.43338 0.76248 0.11445
 C474 C 0.45288 0.77246 0.12447
 C475 C 0.63484 0.28646 0.05859
 C476 C 0.62064 0.27500 0.07427
 C477 C 0.60236 0.26198 0.09132
 C478 C 0.58539 0.25117 0.10451
 C479 C 0.56396 0.23886 0.11808
 C480 C 0.54443 0.22866 0.12780
 C481 C 0.28642 0.05232 0.63781
 C482 C 0.27462 0.06801 0.62389
 C483 C 0.26125 0.08521 0.60600
 C484 C 0.25020 0.09866 0.58940
 C485 C 0.23769 0.11272 0.56841
 C486 C 0.22742 0.12297 0.54922
 C487 C 0.71610 0.05695 0.35730
 C488 C 0.72767 0.07279 0.37121
 C489 C 0.74069 0.08999 0.38932
 C490 C 0.75139 0.10334 0.40621
 C491 C 0.76345 0.11720 0.42755
 C492 C 0.77337 0.12726 0.44701
 C493 C 0.71762 0.94657 0.64069
 C494 C 0.72827 0.93066 0.62617
 C495 C 0.74013 0.91339 0.60737
 C496 C 0.74986 0.89998 0.58997
 C497 C 0.76094 0.88601 0.56819
 C498 C 0.77028 0.87570 0.54859
 C499 C 0.27349 0.94325 0.35448
 C500 C 0.26115 0.92865 0.36908
 C501 C 0.24758 0.91292 0.38812
 C502 C 0.23698 0.90059 0.40584
 C503 C 0.22596 0.88734 0.42812
 C504 C 0.21796 0.87697 0.44828
 C505 C 0.05534 0.36195 0.71493
 C506 C 0.07074 0.37645 0.72642
 C507 C 0.08744 0.39515 0.73931
 C508 C 0.10038 0.41243 0.74990
 C509 C 0.11385 0.43409 0.76187
 C510 C 0.12369 0.45366 0.77176
 C511 C 0.05519 0.63147 0.29078
 C512 C 0.07112 0.61795 0.27882
 C513 C 0.08871 0.60077 0.26504
 C514 C 0.10256 0.58484 0.25350
 C515 C 0.11707 0.56463 0.24031
 C516 C 0.12765 0.54600 0.22941
 C517 C 0.94968 0.35203 0.27308
 C518 C 0.93491 0.36639 0.26064
 C519 C 0.91884 0.38520 0.24713
 C520 C 0.90611 0.40275 0.23671
 C521 C 0.89231 0.42487 0.22602
 C522 C 0.88144 0.44493 0.21840
 C523 C 0.94028 0.64369 0.72031
 C524 C 0.92477 0.62863 0.73088
 C525 C 0.90796 0.60936 0.74272
 C526 C 0.89493 0.59164 0.75246
 C527 C 0.88141 0.56956 0.76352
 C528 C 0.87154 0.54968 0.77276
 C529 C 0.72652 0.64149 0.95247
 C530 C 0.73878 0.62633 0.93845
 C531 C 0.75214 0.60699 0.92304
 C532 C 0.76253 0.58927 0.91064
 C533 C 0.77336 0.56729 0.89689
 C534 C 0.78134 0.54763 0.88567
 C535 C 0.27769 0.36308 0.94784
 C536 C 0.26523 0.37817 0.93390
 C537 C 0.25136 0.39716 0.91848
 C538 C 0.24035 0.41448 0.90602
 C539 C 0.22864 0.43600 0.89223
 C540 C 0.21984 0.45535 0.88108
 C541 C 0.27986 0.63940 0.04871
 C542 C 0.26714 0.62491 0.06306
 C543 C 0.25313 0.60644 0.07899
 C544 C 0.24214 0.58940 0.09186
 C545 C 0.23064 0.56802 0.10604
 C546 C 0.22218 0.54863 0.11738
 C547 C 0.71156 0.36580 0.05488
 C548 C 0.72292 0.38031 0.07026
 C549 C 0.73581 0.39857 0.08727
 C550 C 0.74659 0.41526 0.10072
 C551 C 0.75902 0.43603 0.11496
 C552 C 0.76956 0.45475 0.12565
 C553 C 0.94550 0.72595 0.64472
 C554 C 0.93136 0.73838 0.62980
 C555 C 0.91596 0.75193 0.61060
 C556 C 0.90370 0.76246 0.59285
 C557 C 0.89032 0.77338 0.57069
 C558 C 0.87955 0.78136 0.55077
 C559 C 0.95360 0.27465 0.35552
 C560 C 0.93933 0.26249 0.37056
 C561 C 0.92361 0.24920 0.38975
 C562 C 0.91096 0.23881 0.40734
 C563 C 0.89696 0.22791 0.42917
 C564 C 0.88557 0.21979 0.44871
 C565 C 0.05035 0.28188 0.63674
 C566 C 0.06485 0.26919 0.62237
 C567 C 0.08089 0.25492 0.60416
 C568 C 0.09380 0.24349 0.58743
 C569 C 0.10802 0.23125 0.56647
 C570 C 0.11941 0.22200 0.54744
 C571 C 0.05262 0.70883 0.36942
 C572 C 0.06806 0.72054 0.38362
 C573 C 0.08502 0.73370 0.40177
 C574 C 0.09834 0.74461 0.41850
 C575 C 0.11237 0.75710 0.43939
 C576 C 0.12285 0.76768 0.45822
 C577 C 0.64115 0.95347 0.72327
 C578 C 0.62680 0.93911 0.73613
 C579 C 0.60855 0.92302 0.75027
 C580 C 0.59174 0.90988 0.76135
 C581 C 0.57066 0.89523 0.77290
 C582 C 0.55153 0.88334 0.78134
 C583 C 0.35616 0.94778 0.27459
 C584 C 0.37152 0.93406 0.26216
 C585 C 0.39109 0.91901 0.24857
 C586 C 0.40899 0.90694 0.23794
 C587 C 0.43121 0.89362 0.22678
 C588 C 0.45110 0.88286 0.21849
 C589 C 0.63598 0.05162 0.27886
 C590 C 0.62078 0.06551 0.26646
 C591 C 0.60157 0.08083 0.25270
 C592 C 0.58405 0.09316 0.24179
 C593 C 0.56230 0.10679 0.23019
 C594 C 0.54277 0.11780 0.22145
 C595 C 0.36483 0.04826 0.71949
 C596 C 0.37917 0.06262 0.73234
 C597 C 0.39755 0.07854 0.74647
 C598 C 0.41450 0.09144 0.75760
 C599 C 0.43567 0.10578 0.76935
 C600 C 0.45476 0.11746 0.77816
 C601 C 0.64428 0.72508 0.05199
 C602 C 0.62904 0.73756 0.06580
 C603 C 0.60960 0.75121 0.08096
 C604 C 0.59178 0.76189 0.09312
 C605 C 0.56966 0.77310 0.10654
 C606 C 0.54982 0.78142 0.11738
 C607 C 0.35879 0.27728 0.04639
 C608 C 0.37310 0.26443 0.06079
 C609 C 0.39129 0.25029 0.07696
 C610 C 0.40805 0.23922 0.09016
 C611 C 0.42909 0.22766 0.10488
 C612 C 0.44819 0.21921 0.11682
 C613 C 0.63499 0.28107 0.95208
 C614 C 0.62071 0.26820 0.93768
 C615 C 0.60240 0.25403 0.92171
 C616 C 0.58551 0.24286 0.90877
 C617 C 0.56439 0.23106 0.89437
 C618 C 0.54534 0.22222 0.88265
 C619 C 0.36427 0.72109 0.94939
 C620 C 0.37937 0.73353 0.93543
 C621 C 0.39847 0.74732 0.92001
 C622 C 0.41591 0.75826 0.90758
 C623 C 0.43758 0.76988 0.89384
 C624 C 0.45705 0.77862 0.88272
 C625 C 0.72168 0.95147 0.36104
 C626 C 0.73435 0.93715 0.37559
 C627 C 0.74826 0.92122 0.39413
 C628 C 0.75916 0.90833 0.41123
 C629 C 0.77053 0.89412 0.43266
 C630 C 0.77887 0.88273 0.45209
 C631 C 0.28743 0.94446 0.63400
 C632 C 0.27616 0.92911 0.61940
 C633 C 0.26338 0.91213 0.60103
 C634 C 0.25270 0.89870 0.58426
 C635 C 0.24039 0.88447 0.56340
 C636 C 0.22995 0.87380 0.54461
 C637 C 0.27239 0.04787 0.35875
 C638 C 0.26012 0.06178 0.37401
 C639 C 0.24679 0.07709 0.39345
 C640 C 0.23643 0.08943 0.41125
 C641 C 0.22566 0.10313 0.43330
 C642 C 0.21773 0.11434 0.45299
 C643 C 0.72314 0.05268 0.63638
 C644 C 0.73554 0.06652 0.62115
 C645 C 0.74931 0.08183 0.60199
 C646 C 0.76023 0.09421 0.58455
 C647 C 0.77183 0.10792 0.56292
 C648 C 0.78055 0.11903 0.54349
 C649 C 0.94670 0.63001 0.29057
 C650 C 0.93132 0.61571 0.27892
 C651 C 0.91442 0.59747 0.26581
 C652 C 0.90115 0.58068 0.25494
 C653 C 0.88716 0.55975 0.24248
 C654 C 0.87671 0.54091 0.23192
 C655 C 0.94863 0.36356 0.71843
 C656 C 0.93420 0.37803 0.73109
 C657 C 0.91824 0.39632 0.74532
 C658 C 0.90539 0.41311 0.75672
 C659 C 0.89123 0.43412 0.76893
 C660 C 0.87988 0.45317 0.77815
 C661 C 0.04689 0.64358 0.72585
 C662 C 0.06106 0.62842 0.73796
 C663 C 0.07666 0.60910 0.75119
 C664 C 0.08923 0.59143 0.76153
 C665 C 0.10316 0.56954 0.77238
 C666 C 0.11450 0.54998 0.78046
 C667 C 0.05508 0.35570 0.27318
 C668 C 0.06915 0.37074 0.26083
 C669 C 0.08448 0.39005 0.24737
 C670 C 0.09669 0.40787 0.23691
 C671 C 0.11005 0.43008 0.22609
 C672 C 0.12081 0.45000 0.21817
   
