data_POSCAR
  _audit_creation_date              2014-09-24
  _audit_creation_method            'ToBaCCo'
  _symmetry_space_group_name_H-M    'P1'
  _symmetry_Int_Tables_number       1
  _symmetry_cell_setting            triclinic
  loop_
  _symmetry_equiv_pos_as_xyz
 x,y,z
_cell_length_a 40.1557
_cell_length_b 40.1037
_cell_length_c 50.1439
_cell_angle_alpha 89.769200
_cell_angle_beta 90.866900
_cell_angle_gamma 90.402800
loop_
  _atom_site_label
  _atom_site_type_symbol
  _atom_site_fract_x
  _atom_site_fract_y
  _atom_site_fract_z
C1 C 1.19888 0.26417 0.29001
 H2 H 1.19824 0.23721 0.28923
 C3 C 1.17937 0.28097 0.30834
 H4 H 1.16331 0.26675 0.32136
 C5 C 1.22096 0.31531 0.27406
 H6 H 1.23784 0.32856 0.26114
 C7 C 1.20186 0.33314 0.29209
 H8 H 1.20425 0.36003 0.29280
 N9 N 1.21908 0.28145 0.27331
 C10 C 1.23827 0.21345 0.20780
 H11 H 1.26520 0.21308 0.20874
 C12 C 1.22131 0.19685 0.18725
 H13 H 1.23545 0.18371 0.17243
 C14 C 1.18742 0.23286 0.22517
 H15 H 1.17437 0.24761 0.23959
 C16 C 1.16944 0.21664 0.20491
 H17 H 1.14255 0.21840 0.20437
 Zn18 Zn 1.24679 0.25650 0.25080
 N19 N 1.22123 0.23101 0.22621
 C20 C 1.27310 0.19528 0.27108
 N21 N 1.27343 0.22901 0.27307
 C22 C 1.29198 0.24461 0.29213
 C23 C 1.31171 0.22633 0.30994
 C24 C 1.29238 0.17585 0.28854
 C25 C 1.25799 0.30517 0.21226
 C26 C 1.27623 0.32462 0.19450
 C27 C 1.32689 0.30232 0.21388
 C28 C 1.30764 0.28330 0.23132
 N29 N 1.27383 0.28500 0.23014
 H30 H 1.25786 0.18328 0.25594
 H31 H 1.29111 0.27149 0.29368
 H32 H 1.32448 0.24039 0.32534
 H33 H 1.29213 0.14931 0.28507
 H34 H 1.23105 0.30562 0.21150
 H35 H 1.26313 0.34047 0.18038
 H36 H 1.35372 0.29989 0.21455
 H37 H 1.31974 0.26643 0.24516
 C38 C 1.18643 0.19857 0.18545
 C39 C 1.18087 0.31593 0.30968
 C40 C 1.31116 0.32300 0.19492
 C41 C 1.31250 0.19100 0.30870
 C42 C 0.70335 -0.23556 0.29120
 H43 H 0.70430 -0.26251 0.29156
 C44 C 0.68414 -0.21870 0.30973
 H45 H 0.66995 -0.23295 0.32406
 C46 C 0.72087 -0.18440 0.27202
 H47 H 0.73578 -0.17109 0.25768
 C48 C 0.70198 -0.16652 0.29019
 H49 H 0.70260 -0.13954 0.28958
 N50 N 0.72107 -0.21831 0.27275
 C51 C 0.73764 -0.28861 0.20840
 H52 H 0.76450 -0.28694 0.20735
 C53 C 0.71992 -0.30851 0.19031
 H54 H 0.73341 -0.32252 0.17561
 C55 C 0.68762 -0.27215 0.22891
 H56 H 0.67509 -0.25737 0.24361
 C57 C 0.66887 -0.29178 0.21118
 H58 H 0.64197 -0.29188 0.21244
 Zn59 Zn 0.74792 -0.24318 0.24945
 N60 N 0.72139 -0.27106 0.22727
 C61 C 0.77591 -0.30311 0.26979
 N62 N 0.77709 -0.26924 0.27096
 C63 C 0.79725 -0.25328 0.28890
 C64 C 0.81730 -0.27151 0.30662
 C65 C 0.79553 -0.32229 0.28711
 C66 C 0.75336 -0.19642 0.20861
 C67 C 0.76892 -0.17673 0.18940
 C68 C 0.82224 -0.19458 0.20701
 C69 C 0.80562 -0.21397 0.22593
 N70 N 0.77176 -0.21454 0.22636
 H71 H 0.75923 -0.31542 0.25584
 H72 H 0.79721 -0.22633 0.28978
 H73 H 0.83257 -0.25834 0.32116
 H74 H 0.79423 -0.34921 0.28581
 H75 H 0.72645 -0.19771 0.20917
 H76 H 0.75375 -0.16245 0.17552
 H77 H 0.84917 -0.19509 0.20654
 H78 H 0.81979 -0.22918 0.23977
 C79 C 0.68503 -0.31014 0.19144
 C80 C 0.68337 -0.18368 0.30944
 C81 C 0.80383 -0.17587 0.18823
 C82 C 0.81637 -0.30654 0.30603
 C83 C 0.70419 0.26395 -0.20852
 H84 H 0.70563 0.23707 -0.20709
 C85 C 0.68456 0.28153 -0.19083
 H86 H 0.67048 0.26792 -0.17604
 C87 C 0.72126 0.31421 -0.22947
 H88 H 0.73626 0.32686 -0.24412
 C89 C 0.70190 0.33284 -0.21211
 H90 H 0.70216 0.35978 -0.21362
 N91 N 0.72200 0.28040 -0.22734
 C92 C 0.74085 0.20411 -0.28670
 H93 H 0.76780 0.20420 -0.28681
 C94 C 0.72294 0.18403 -0.30463
 H95 H 0.73633 0.16879 -0.31859
 C96 C 0.69077 0.22546 -0.26938
 H97 H 0.67827 0.24221 -0.25610
 C98 C 0.67191 0.20581 -0.28693
 H99 H 0.64500 0.20713 -0.28645
 Zn100 Zn 0.75016 0.25396 -0.24817
 N101 N 0.72461 0.22434 -0.26961
 C102 C 0.77821 0.19699 -0.22218
 N103 N 0.77786 0.23085 -0.22371
 C104 C 0.79518 0.24995 -0.20589
 C105 C 0.81383 0.23512 -0.18545
 C106 C 0.79654 0.18109 -0.20197
 C107 C 0.75915 0.29822 -0.29050
 C108 C 0.77651 0.31751 -0.30895
 C109 C 0.82793 0.30022 -0.28775
 C110 C 0.80945 0.28133 -0.26972
 N111 N 0.77570 0.28079 -0.27132
 H112 H 0.76370 0.18230 -0.23620
 H113 H 0.79382 0.27684 -0.20725
 H114 H 0.82675 0.25084 -0.17110
 H115 H 0.79654 0.15411 -0.20099
 H116 H 0.73225 0.29667 -0.29172
 H117 H 0.76175 0.32934 -0.32442
 H118 H 0.85457 0.30074 -0.28452
 H119 H 0.82223 0.26700 -0.25448
 C120 C 0.68796 0.18504 -0.30511
 C121 C 0.68352 0.31646 -0.19230
 C122 C 0.81183 0.31895 -0.30820
 C123 C 0.81445 0.20024 -0.18313
 C124 C 1.20735 -0.23590 -0.20699
 H125 H 1.20615 -0.26285 -0.20736
 C126 C 1.19068 -0.21840 -0.18729
 H127 H 1.17612 -0.23210 -0.17287
 C128 C 1.22829 -0.18548 -0.22521
 H129 H 1.24371 -0.17281 -0.23958
 C130 C 1.21198 -0.16697 -0.20586
 H131 H 1.21496 -0.14012 -0.20563
 N132 N 1.22569 -0.21932 -0.22543
 C133 C 1.23729 -0.28975 -0.29073
 H134 H 1.26415 -0.28938 -0.29212
 C135 C 1.21828 -0.30908 -0.30841
 H136 H 1.23075 -0.32332 -0.32354
 C137 C 1.18855 -0.27055 -0.26979
 H138 H 1.17707 -0.25521 -0.25490
 C139 C 1.16854 -0.28950 -0.28714
 H140 H 1.14175 -0.28896 -0.28510
 Zn141 Zn 1.25056 -0.24548 -0.24924
 N142 N 1.22229 -0.27126 -0.27174
 C143 C 1.27562 -0.30738 -0.22971
 N144 N 1.27780 -0.27359 -0.22794
 C145 C 1.29819 -0.25867 -0.20961
 C146 C 1.31777 -0.27786 -0.19230
 C147 C 1.29475 -0.32755 -0.21275
 C148 C 1.26099 -0.19758 -0.28903
 C149 C 1.27908 -0.17824 -0.30703
 C150 C 1.32981 -0.20181 -0.28887
 C151 C 1.31075 -0.22068 -0.27121
 N152 N 1.27698 -0.21818 -0.27154
 H153 H 1.25873 -0.31881 -0.24398
 H154 H 1.29891 -0.23175 -0.20828
 H155 H 1.33340 -0.26548 -0.17755
 H156 H 1.29283 -0.35439 -0.21454
 H157 H 1.23407 -0.19656 -0.28920
 H158 H 1.26583 -0.16250 -0.32114
 H159 H 1.35666 -0.20403 -0.28821
 H160 H 1.32300 -0.23769 -0.25758
 C161 C 1.18340 -0.30919 -0.30673
 C162 C 1.19312 -0.18347 -0.18639
 C163 C 1.31398 -0.18036 -0.30722
 C164 C 1.31611 -0.31281 -0.19367
 C165 C 0.25761 0.19719 0.70906
 H166 H 0.23070 0.19632 0.70782
 C167 C 0.27642 0.17913 0.69099
 H168 H 0.26372 0.16453 0.67578
 C169 C 0.30668 0.21862 0.72969
 H170 H 0.31840 0.23448 0.74449
 C171 C 0.32646 0.20101 0.71198
 H172 H 0.35331 0.20301 0.71374
 N173 N 0.27290 0.21629 0.72802
 C174 C 0.19860 0.22840 0.78983
 H175 H 0.19837 0.25532 0.79120
 C176 C 0.17878 0.20926 0.80674
 H177 H 0.16435 0.22237 0.82133
 C178 C 0.22016 0.17980 0.77016
 H179 H 0.23651 0.16837 0.75600
 C180 C 0.20086 0.15960 0.78675
 H181 H 0.20216 0.13294 0.78397
 Zn182 Zn 0.24531 0.24172 0.75042
 N183 N 0.21852 0.21355 0.77184
 C184 C 0.18454 0.26695 0.72835
 N185 N 0.21838 0.26871 0.72783
 C186 C 0.23426 0.28886 0.71017
 C187 C 0.21606 0.30881 0.69242
 C188 C 0.16534 0.28645 0.71091
 C189 C 0.29111 0.25298 0.79219
 C190 C 0.31023 0.27147 0.81042
 C191 C 0.28806 0.32194 0.79087
 C192 C 0.26939 0.30249 0.77299
 N193 N 0.27142 0.26865 0.77381
 H194 H 0.17233 0.25027 0.74210
 H195 H 0.26120 0.28929 0.70983
 H196 H 0.22923 0.32437 0.67833
 H197 H 0.13845 0.28500 0.71183
 H198 H 0.29179 0.22603 0.79273
 H199 H 0.32543 0.25849 0.82508
 H200 H 0.28637 0.34884 0.78967
 H201 H 0.25309 0.31452 0.75865
 C202 C 0.17950 0.17405 0.80559
 C203 C 0.31135 0.18099 0.69224
 C204 C 0.30884 0.30647 0.80993
 C205 C 0.18109 0.30778 0.69264
 C206 C 0.75810 0.70016 0.70870
 H207 H 0.73116 0.69982 0.70799
 C208 C 0.77598 0.68109 0.69070
 H209 H 0.76256 0.66621 0.67606
 C210 C 0.80818 0.72136 0.72787
 H211 H 0.82067 0.73755 0.74203
 C212 C 0.82705 0.70273 0.71022
 H213 H 0.85396 0.70428 0.71141
 N214 N 0.77434 0.71967 0.72688
 C215 C 0.70328 0.73665 0.79022
 H216 H 0.70387 0.76362 0.79082
 C217 C 0.68410 0.71886 0.80845
 H218 H 0.67096 0.73302 0.82321
 C219 C 0.72233 0.68657 0.77117
 H220 H 0.73751 0.67406 0.75676
 C221 C 0.70360 0.66770 0.78908
 H222 H 0.70403 0.64090 0.78701
 Zn223 Zn 0.74825 0.74675 0.74910
 N224 N 0.72171 0.72040 0.77196
 C225 C 0.68752 0.77313 0.72806
 N226 N 0.72131 0.77347 0.72648
 C227 C 0.73713 0.79216 0.70780
 C228 C 0.71893 0.81212 0.69010
 C229 C 0.66832 0.79271 0.71070
 C230 C 0.79551 0.75838 0.78952
 C231 C 0.81581 0.77701 0.80677
 C232 C 0.79492 0.82731 0.78599
 C233 C 0.77503 0.80770 0.76912
 N234 N 0.77588 0.77387 0.77101
 H235 H 0.67536 0.75759 0.74266
 H236 H 0.76400 0.79145 0.70667
 H237 H 0.73201 0.82655 0.67521
 H238 H 0.64148 0.79246 0.71247
 H239 H 0.79521 0.73145 0.79091
 H240 H 0.83093 0.76421 0.82160
 H241 H 0.79418 0.85419 0.78400
 H242 H 0.75876 0.81962 0.75470
 C243 C 0.68395 0.68361 0.80836
 C244 C 0.81095 0.68237 0.69122
 C245 C 0.81566 0.81198 0.80516
 C246 C 0.68403 0.81262 0.69145
 C247 C 0.76914 0.19276 0.20804
 H248 H 0.74226 0.19241 0.20611
 C249 C 0.78820 0.17236 0.19181
 H250 H 0.77576 0.15657 0.17725
 C251 C 0.81789 0.21493 0.22863
 H252 H 0.82943 0.23189 0.24272
 C253 C 0.83792 0.19497 0.21279
 H254 H 0.86472 0.19641 0.21527
 N255 N 0.78414 0.21334 0.22612
 C256 C 0.70981 0.23241 0.28665
 H257 H 0.71013 0.25939 0.28653
 C258 C 0.68992 0.21519 0.30475
 H259 H 0.67514 0.22916 0.31865
 C260 C 0.72993 0.18160 0.26936
 H261 H 0.74592 0.16860 0.25583
 C262 C 0.71043 0.16336 0.28717
 H263 H 0.71119 0.13639 0.28677
 Zn264 Zn 0.75651 0.24122 0.24658
 N265 N 0.72911 0.21550 0.26931
 C266 C 0.69626 0.26545 0.22325
 N267 N 0.73009 0.26668 0.22248
 C268 C 0.74607 0.28549 0.20396
 C269 C 0.72794 0.30477 0.18567
 C270 C 0.67715 0.28430 0.20532
 C271 C 0.80109 0.25499 0.28848
 C272 C 0.81957 0.27448 0.30643
 C273 C 0.79928 0.32379 0.28383
 C274 C 0.78120 0.30334 0.26629
 N275 N 0.78254 0.26959 0.26882
 H276 H 0.68395 0.24984 0.23773
 H277 H 0.77300 0.28555 0.20348
 H278 H 0.74114 0.31942 0.17100
 H279 H 0.65026 0.28343 0.20657
 H280 H 0.80117 0.22811 0.29038
 H281 H 0.83370 0.26235 0.32221
 H282 H 0.79805 0.35059 0.28139
 H283 H 0.76576 0.31455 0.25094
 C284 C 0.69011 0.18017 0.30522
 C285 C 0.82312 0.17335 0.19402
 C286 C 0.81872 0.30940 0.30430
 C287 C 0.69297 0.30443 0.18626
 C288 C 0.26643 0.69462 0.21228
 H289 H 0.23949 0.69402 0.21161
 C290 C 0.28443 0.67541 0.19447
 H291 H 0.27110 0.66015 0.18004
 C292 C 0.31635 0.71674 0.23106
 H293 H 0.32867 0.73337 0.24498
 C294 C 0.33535 0.69797 0.21358
 H295 H 0.36225 0.69987 0.21462
 N296 N 0.28253 0.71468 0.23013
 C297 C 0.21056 0.73266 0.29250
 H298 H 0.21084 0.75964 0.29258
 C299 C 0.19096 0.71520 0.31063
 H300 H 0.17637 0.72896 0.32479
 C301 C 0.23036 0.68210 0.27451
 H302 H 0.24608 0.66931 0.26064
 C303 C 0.21115 0.66361 0.29234
 H304 H 0.21184 0.63665 0.29165
 Zn305 Zn 0.25592 0.74199 0.25167
 N306 N 0.22949 0.71599 0.27477
 C307 C 0.19493 0.76616 0.22959
 N308 N 0.22873 0.76740 0.22835
 C309 C 0.24437 0.78585 0.20943
 C310 C 0.22591 0.80454 0.19103
 C311 C 0.17548 0.78451 0.21157
 C312 C 0.30253 0.75587 0.29204
 C313 C 0.32161 0.77543 0.30952
 C314 C 0.29912 0.82455 0.28814
 C315 C 0.28058 0.80393 0.27109
 N316 N 0.28266 0.77028 0.27325
 H317 H 0.18294 0.75065 0.24430
 H318 H 0.27128 0.78601 0.20870
 H319 H 0.23885 0.81946 0.17636
 H320 H 0.14861 0.78291 0.21262
 H321 H 0.30305 0.72897 0.29377
 H322 H 0.33548 0.76225 0.32480
 H323 H 0.29740 0.85102 0.28448
 H324 H 0.26432 0.81500 0.25622
 C325 C 0.19108 0.68019 0.31069
 C326 C 0.31937 0.67710 0.19487
 C327 C 0.32023 0.81075 0.30820
 C328 C 0.19098 0.80400 0.19194
 O329 O 1.04920 0.03328 0.03331
 O330 O 0.93459 -0.03317 0.01188
 O331 O 0.98739 0.04872 0.03354
 O332 O 1.03581 -0.06892 0.02306
 O333 O 0.94079 0.02580 0.02286
 O334 O 1.05506 -0.02311 0.03905
 O335 O 0.97460 -0.06260 0.02982
 O336 O 1.03586 0.07208 0.00776
 C337 C 1.05225 0.06305 0.02747
 C338 C 0.94529 -0.05265 0.02984
 C339 C 0.95819 0.04202 0.03920
 C340 C 1.05159 -0.05360 0.04065
 O341 O 1.06884 -0.03291 -0.01339
 O342 O 0.95465 0.03919 -0.02949
 O343 O 1.01438 0.04619 -0.03519
 O344 O 0.96532 -0.06574 -0.02194
 O345 O 0.95284 -0.01842 -0.03917
 O346 O 1.06242 0.02773 -0.02106
 O347 O 1.02769 -0.06523 -0.02780
 O348 O 0.97559 0.08212 -0.00901
 Co349 Co 1.05448 0.00108 0.00864
 Co350 Co 0.95065 0.00271 -0.00750
 Co351 Co 0.99985 0.04554 -0.00089
 Co352 Co 1.00085 -0.05979 0.00082
 O353 O 1.00303 -0.00485 0.00111
 C354 C 1.05734 -0.05524 -0.02893
 C355 C 0.95270 0.07007 -0.02467
 C356 C 1.04467 0.04136 -0.03906
 C357 C 0.95401 -0.04910 -0.04100
 O358 O 1.06057 0.53840 0.52098
 O359 O 0.93263 0.46262 0.51697
 O360 O 0.95895 0.56446 0.51750
 O361 O 1.03416 0.43652 0.51979
 O362 O 0.93929 0.51853 0.53163
 O363 O 1.05273 0.48223 0.53535
 O364 O 0.97797 0.44368 0.53304
 O365 O 1.01445 0.55758 0.53409
 C366 C 1.04444 0.55340 0.53820
 C367 C 0.94786 0.44807 0.53541
 C368 C 0.94369 0.54863 0.53495
 C369 C 1.04852 0.45200 0.53817
 O370 O 1.06032 0.46159 0.48380
 O371 O 0.93482 0.53980 0.47984
 O372 O 1.03726 0.56390 0.48333
 O373 O 0.95798 0.43750 0.48101
 O374 O 0.94089 0.48367 0.46543
 O375 O 1.05544 0.51775 0.46919
 O376 O 1.01438 0.44362 0.46775
 O377 O 0.98155 0.55821 0.46671
 Co378 Co 1.05142 0.50005 0.50216
 Co379 Co 0.94274 0.50109 0.49864
 Co380 Co 0.99796 0.55515 0.50040
 Co381 Co 0.99622 0.44622 0.50040
 O382 O 0.99708 0.50064 0.50040
 C383 C 1.04465 0.44734 0.46542
 C384 C 0.95143 0.55469 0.46262
 C385 C 1.05204 0.54796 0.46589
 C386 C 0.94441 0.45345 0.46252
 O387 O 0.56378 0.04173 0.51750
 O388 O 0.43552 -0.03479 0.51751
 O389 O 0.46224 0.06719 0.51767
 O390 O 0.53713 -0.06017 0.51862
 O391 O 0.44303 0.02121 0.53227
 O392 O 0.55669 -0.01417 0.53300
 O393 O 0.48135 -0.05336 0.53279
 O394 O 0.51841 0.06049 0.53225
 C395 C 0.54852 0.05618 0.53547
 C396 C 0.45127 -0.04929 0.53567
 C397 C 0.44749 0.05134 0.53545
 C398 C 0.55211 -0.04426 0.53646
 O399 O 0.56229 -0.03595 0.48178
 O400 O 0.43621 0.04257 0.48084
 O401 O 0.53848 0.06642 0.48042
 O402 O 0.45999 -0.05967 0.48101
 O403 O 0.44174 -0.01357 0.46601
 O404 O 0.55635 0.02002 0.46634
 O405 O 0.51594 -0.05398 0.46674
 O406 O 0.48214 0.06050 0.46592
 Co407 Co 0.55388 0.00295 0.49964
 Co408 Co 0.44502 0.00380 0.49917
 Co409 Co 0.50024 0.05782 0.49910
 Co410 Co 0.49868 -0.05098 0.49975
 O411 O 0.49946 0.00341 0.49941
 C412 C 0.54615 -0.05051 0.46385
 C413 C 0.45188 0.05683 0.46279
 C414 C 0.55272 0.05019 0.46282
 C415 C 0.44571 -0.04371 0.46286
 O416 O 0.56287 0.53599 0.01953
 O417 O 0.43695 0.45881 0.01824
 O418 O 0.46077 0.56094 0.01706
 O419 O 0.53885 0.43371 0.01759
 O420 O 0.44293 0.51486 0.03210
 O421 O 0.55685 0.47954 0.03320
 O422 O 0.48316 0.44012 0.03294
 O423 O 0.51674 0.55479 0.03320
 C424 C 0.54683 0.55074 0.03697
 C425 C 0.45320 0.44461 0.03631
 C426 C 0.44675 0.54506 0.03510
 C427 C 0.55364 0.44917 0.03573
 O428 O 0.56253 0.46007 -0.01894
 O429 O 0.43654 0.53523 -0.02003
 O430 O 0.53857 0.56186 -0.01756
 O431 O 0.46063 0.43334 -0.01827
 O432 O 0.44274 0.47911 -0.03386
 O433 O 0.55659 0.51628 -0.03267
 O434 O 0.51629 0.44070 -0.03351
 O435 O 0.48262 0.55482 -0.03374
 Co436 Co 0.55396 0.49793 0.00023
 Co437 Co 0.44551 0.49706 -0.00084
 Co438 Co 0.49967 0.55215 -0.00027
 Co439 Co 0.49972 0.44295 -0.00030
 O440 O 0.49972 0.49754 -0.00029
 C441 C 0.54624 0.44563 -0.03690
 C442 C 0.45257 0.55022 -0.03756
 C443 C 0.55291 0.54650 -0.03552
 C444 C 0.44601 0.44883 -0.03648
 C445 C 1.12421 0.18344 0.12886
 C446 C 1.13412 0.15214 0.11977
 C447 C 1.16090 0.13591 0.13227
 C448 C 1.17778 0.15089 0.15370
 C449 C 1.16807 0.18237 0.16299
 C450 C 1.14106 0.19848 0.15032
 C451 C 1.11639 0.13610 0.09814
 C452 C 1.10164 0.12161 0.08051
 C453 C 1.08441 0.10313 0.06070
 C454 C 1.06972 0.08578 0.04479
 H455 H 1.10347 0.19620 0.11937
 H456 H 1.16863 0.11156 0.12553
 H457 H 1.19819 0.13767 0.16322
 H458 H 1.13328 0.22293 0.15675
 C459 C 1.15437 0.62027 0.64807
 C460 C 1.12527 0.63360 0.63679
 C461 C 1.11462 0.66525 0.64451
 C462 C 1.13321 0.68368 0.66319
 C463 C 1.16279 0.67071 0.67434
 C464 C 1.17300 0.63866 0.66673
 C465 C 1.10705 0.61534 0.61658
 C466 C 1.09220 0.60037 0.59926
 C467 C 1.07522 0.58333 0.57849
 C468 C 1.06102 0.56931 0.56033
 H469 H 1.16284 0.59580 0.64226
 H470 H 1.09222 0.67589 0.63580
 H471 H 1.12490 0.70841 0.66837
 H472 H 1.19539 0.62778 0.67522
 C473 C 0.62253 0.16268 0.64251
 C474 C 0.63204 0.13044 0.63550
 C475 C 0.65955 0.11570 0.64820
 C476 C 0.67763 0.13327 0.66772
 C477 C 0.66836 0.16580 0.67478
 C478 C 0.64052 0.18025 0.66199
 C479 C 0.61400 0.11301 0.61476
 C480 C 0.59882 0.09913 0.59706
 C481 C 0.58108 0.08360 0.57597
 C482 C 0.56607 0.07085 0.55764
 H483 H 0.60140 0.17440 0.63269
 H484 H 0.66714 0.09075 0.64291
 H485 H 0.69874 0.12136 0.67738
 H486 H 0.63307 0.20545 0.66661
 C487 C 0.61952 0.63231 0.16067
 C488 C 0.62917 0.63208 0.13396
 C489 C 0.65697 0.65065 0.12608
 C490 C 0.67510 0.66938 0.14477
 C491 C 0.66568 0.66980 0.17169
 C492 C 0.63764 0.65108 0.17944
 C493 C 0.61051 0.61319 0.11442
 C494 C 0.59534 0.59789 0.09747
 C495 C 0.57805 0.58066 0.07700
 C496 C 0.56363 0.56660 0.05899
 H497 H 0.59803 0.61800 0.16698
 H498 H 0.66454 0.65080 0.10543
 H499 H 0.69620 0.68395 0.13808
 H500 H 0.62998 0.65063 0.20005
 C501 C 0.82422 -0.13883 0.12053
 C502 C 0.85389 -0.12160 0.12619
 C503 C 0.86694 -0.12156 0.15225
 C504 C 0.85054 -0.13891 0.17252
 C505 C 0.82084 -0.15655 0.16697
 C506 C 0.80779 -0.15616 0.14075
 C507 C 0.87162 -0.10508 0.10509
 C508 C 0.88704 -0.09190 0.08743
 C509 C 0.90601 -0.07728 0.06691
 C510 C 0.92325 -0.06556 0.04971
 H511 H 0.81402 -0.13925 0.10040
 H512 H 0.88993 -0.10836 0.15686
 H513 H 0.86103 -0.13841 0.19253
 H514 H 0.78527 -0.16990 0.13571
 C515 C 0.88127 0.34870 0.64941
 C516 C 0.86547 0.37329 0.63424
 C517 C 0.83208 0.38040 0.63861
 C518 C 0.81430 0.36272 0.65787
 C519 C 0.82949 0.33711 0.67341
 C520 C 0.86373 0.33090 0.66873
 C521 C 0.88330 0.39056 0.61363
 C522 C 0.89817 0.40453 0.59609
 C523 C 0.91551 0.42030 0.57524
 C524 C 0.93030 0.43327 0.55718
 H525 H 0.90714 0.34275 0.64597
 H526 H 0.81967 0.39973 0.62711
 H527 H 0.78901 0.37061 0.66094
 H528 H 0.87715 0.31105 0.67860
 C529 C 0.37884 -0.15821 0.64123
 C530 C 0.36987 -0.12558 0.63442
 C531 C 0.34300 -0.11057 0.64703
 C532 C 0.32499 -0.12821 0.66621
 C533 C 0.33365 -0.16114 0.67303
 C534 C 0.36090 -0.17588 0.66039
 C535 C 0.38772 -0.10796 0.61399
 C536 C 0.40256 -0.09372 0.59654
 C537 C 0.41977 -0.07765 0.57572
 C538 C 0.43428 -0.06443 0.55762
 H539 H 0.39948 -0.17014 0.63149
 H540 H 0.33584 -0.08532 0.64191
 H541 H 0.30439 -0.11605 0.67579
 H542 H 0.36790 -0.20134 0.66488
 C543 C 0.33868 0.35950 0.12893
 C544 C 0.36907 0.37445 0.13608
 C545 C 0.38039 0.37316 0.16260
 C546 C 0.36145 0.35673 0.18189
 C547 C 0.33093 0.34144 0.17483
 C548 C 0.31973 0.34311 0.14813
 C549 C 0.38867 0.39051 0.11594
 C550 C 0.40447 0.40349 0.09846
 C551 C 0.42221 0.41819 0.07735
 C552 C 0.43672 0.43040 0.05883
 H553 H 0.32977 0.36022 0.10843
 H554 H 0.40389 0.38469 0.16834
 H555 H 0.37056 0.35612 0.20231
 H556 H 0.29666 0.33110 0.14196
 C557 C 0.83570 0.14209 -0.12555
 C558 C 0.86668 0.15470 -0.11713
 C559 C 0.88080 0.18193 -0.13046
 C560 C 0.86397 0.19660 -0.15206
 C561 C 0.83277 0.18414 -0.16065
 C562 C 0.81883 0.15669 -0.14715
 C563 C 0.88443 0.13897 -0.09541
 C564 C 0.89955 0.12503 -0.07771
 C565 C 0.91761 0.10752 -0.05786
 C566 C 0.93341 0.09125 -0.04195
 H567 H 0.82459 0.12094 -0.11542
 H568 H 0.90491 0.19171 -0.12425
 H569 H 0.87551 0.21745 -0.16222
 H570 H 0.79465 0.14684 -0.15303
 C571 C 0.88656 0.66483 0.35226
 C572 C 0.87235 0.63644 0.36394
 C573 C 0.84014 0.62640 0.35638
 C574 C 0.82211 0.64474 0.33738
 C575 C 0.83603 0.67348 0.32565
 C576 C 0.86854 0.68324 0.33324
 C577 C 0.89032 0.61813 0.38425
 C578 C 0.90490 0.60298 0.40161
 C579 C 0.92150 0.58558 0.42238
 C580 C 0.93533 0.57116 0.44052
 H581 H 0.91147 0.67285 0.35796
 H582 H 0.82880 0.60460 0.36541
 H583 H 0.79697 0.63684 0.33232
 H584 H 0.88010 0.70501 0.32438
 C585 C 0.37652 0.16869 0.35995
 C586 C 0.36921 0.13511 0.36431
 C587 C 0.34364 0.11979 0.34962
 C588 C 0.32507 0.13806 0.33088
 C589 C 0.33141 0.17254 0.32638
 C590 C 0.35808 0.18715 0.34132
 C591 C 0.38739 0.11678 0.38446
 C592 C 0.40250 0.10212 0.40179
 C593 C 0.42000 0.08568 0.42258
 C594 C 0.43472 0.07222 0.44073
 H595 H 0.39660 0.18075 0.37101
 H596 H 0.33756 0.09376 0.35303
 H597 H 0.30459 0.12497 0.32134
 H598 H 0.36620 0.21258 0.33821
 C599 C 0.38659 0.65664 -0.14881
 C600 C 0.37203 0.62854 -0.13701
 C601 C 0.33957 0.61901 -0.14430
 C602 C 0.32156 0.63775 -0.16307
 C603 C 0.33580 0.66635 -0.17474
 C604 C 0.36863 0.67543 -0.16756
 C605 C 0.38986 0.61033 -0.11663
 C606 C 0.40457 0.59563 -0.09913
 C607 C 0.42154 0.57908 -0.07815
 C608 C 0.43582 0.56556 -0.05982
 H609 H 0.41170 0.66424 -0.14329
 H610 H 0.32799 0.59741 -0.13517
 H611 H 0.29620 0.63037 -0.16790
 H612 H 0.38041 0.69707 -0.17644
 C613 C 1.16120 -0.15925 -0.11831
 C614 C 1.14537 -0.12903 -0.12402
 C615 C 1.14539 -0.11637 -0.15008
 C616 C 1.16102 -0.13393 -0.17038
 C617 C 1.17676 -0.16450 -0.16487
 C618 C 1.17680 -0.17686 -0.13856
 C619 C 1.12824 -0.11166 -0.10327
 C620 C 1.11333 -0.09772 -0.08590
 C621 C 1.09500 -0.08213 -0.06569
 C622 C 1.07841 -0.06947 -0.04868
 H623 H 1.16134 -0.16930 -0.09822
 H624 H 1.13304 -0.09308 -0.15476
 H625 H 1.16028 -0.12392 -0.19046
 H626 H 1.18916 -0.20002 -0.13357
 C627 C 1.14100 0.33906 0.37512
 C628 C 1.12591 0.36940 0.36854
 C629 C 1.12846 0.38219 0.34263
 C630 C 1.14616 0.36475 0.32339
 C631 C 1.16150 0.33426 0.32985
 C632 C 1.15866 0.32159 0.35594
 C633 C 1.10807 0.38737 0.38851
 C634 C 1.09333 0.40194 0.40563
 C635 C 1.07626 0.41842 0.42607
 C636 C 1.06179 0.43195 0.44387
 H637 H 1.13928 0.32900 0.39514
 H638 H 1.11681 0.40563 0.33731
 H639 H 1.14760 0.37496 0.30342
 H640 H 1.17061 0.29848 0.36167
 C641 C 0.62801 -0.11887 0.34118
 C642 C 0.62754 -0.12992 0.36769
 C643 C 0.64512 -0.15858 0.37511
 C644 C 0.66315 -0.17610 0.35617
 C645 C 0.66386 -0.16520 0.32947
 C646 C 0.64606 -0.13636 0.32218
 C647 C 0.60928 -0.11187 0.38740
 C648 C 0.59429 -0.09713 0.40431
 C649 C 0.57711 -0.08034 0.42457
 C650 C 0.56277 -0.06646 0.44227
 H651 H 0.61443 -0.09675 0.33520
 H652 H 0.64505 -0.16729 0.39559
 H653 H 0.67699 -0.19788 0.36253
 H654 H 0.64580 -0.12754 0.30175
 C655 C 0.64661 0.34366 -0.12692
 C656 C 0.62791 0.37133 -0.13490
 C657 C 0.62745 0.38135 -0.16167
 C658 C 0.64560 0.36360 -0.18045
 C659 C 0.66432 0.33560 -0.17260
 C660 C 0.66470 0.32592 -0.14560
 C661 C 0.60931 0.38916 -0.11537
 C662 C 0.59415 0.40324 -0.09827
 C663 C 0.57694 0.41878 -0.07751
 C664 C 0.56267 0.43136 -0.05921
 H665 H 0.64725 0.33581 -0.10621
 H666 H 0.61300 0.40275 -0.16803
 H667 H 0.64464 0.37146 -0.20113
 H668 H 0.67933 0.30484 -0.13886
 C669 C 1.11240 0.14763 -0.14722
 C670 C 1.12246 0.11540 -0.14045
 C671 C 1.15075 0.10206 -0.15213
 C672 C 1.16923 0.12102 -0.17022
 C673 C 1.15995 0.15406 -0.17693
 C674 C 1.13078 0.16674 -0.16522
 C675 C 1.10470 0.09685 -0.12044
 C676 C 1.09015 0.08227 -0.10299
 C677 C 1.07360 0.06646 -0.08168
 C678 C 1.06001 0.05421 -0.06268
 H679 H 1.09038 0.15818 -0.13841
 H680 H 1.15900 0.07721 -0.14681
 H681 H 1.19173 0.11001 -0.17765
 H682 H 1.12128 0.19113 -0.17031
 C683 C 1.16535 0.61556 0.36200
 C684 C 1.13341 0.62641 0.36837
 C685 C 1.12001 0.65440 0.35551
 C686 C 1.13859 0.67169 0.33653
 C687 C 1.17088 0.66119 0.33017
 C688 C 1.18398 0.63279 0.34300
 C689 C 1.11482 0.60936 0.38864
 C690 C 1.09966 0.59522 0.40592
 C691 C 1.08244 0.57877 0.42649
 C692 C 1.06825 0.56472 0.44435
 H693 H 1.17602 0.59401 0.37194
 H694 H 1.09529 0.66298 0.36029
 H695 H 1.12767 0.69319 0.32674
 H696 H 1.20890 0.62435 0.33881
 C697 C 0.66443 0.11632 0.35724
 C698 C 0.63251 0.12728 0.36359
 C699 C 0.61908 0.15505 0.35045
 C700 C 0.63761 0.17203 0.33122
 C701 C 0.66988 0.16143 0.32489
 C702 C 0.68299 0.13323 0.33801
 C703 C 0.61403 0.11057 0.38415
 C704 C 0.59905 0.09669 0.40170
 C705 C 0.58214 0.08050 0.42262
 C706 C 0.56833 0.06668 0.44081
 H707 H 0.67514 0.09494 0.36738
 H708 H 0.59439 0.16374 0.35520
 H709 H 0.62666 0.19338 0.32124
 H710 H 0.70791 0.12471 0.33388
 C711 C 0.65652 0.61423 -0.14629
 C712 C 0.62925 0.62864 -0.13394
 C713 C 0.61952 0.66086 -0.14104
 C714 C 0.63720 0.67884 -0.16019
 C715 C 0.66524 0.66496 -0.17275
 C716 C 0.67429 0.63204 -0.16549
 C717 C 0.61182 0.61070 -0.11345
 C718 C 0.59763 0.59583 -0.09599
 C719 C 0.58151 0.57856 -0.07522
 C720 C 0.56819 0.56389 -0.05723
 H721 H 0.66445 0.58934 -0.14075
 H722 H 0.59822 0.67218 -0.13174
 H723 H 0.62793 0.70324 -0.16554
 H724 H 0.69605 0.62021 -0.17348
 C725 C 0.88789 -0.15902 -0.15084
 C726 C 0.87472 -0.13024 -0.13951
 C727 C 0.84259 -0.11992 -0.14669
 C728 C 0.82354 -0.13847 -0.16493
 C729 C 0.83637 -0.16768 -0.17621
 C730 C 0.86886 -0.17763 -0.16910
 C731 C 0.89351 -0.11205 -0.11965
 C732 C 0.90859 -0.09707 -0.10249
 C733 C 0.92539 -0.07990 -0.08176
 C734 C 0.93894 -0.06559 -0.06347
 H735 H 0.91272 -0.16725 -0.14538
 H736 H 0.83208 -0.09781 -0.13788
 H737 H 0.79846 -0.13041 -0.16970
 H738 H 0.87958 -0.19976 -0.17769
 C739 C 0.88604 0.34087 0.35210
 C740 C 0.87118 0.36949 0.36229
 C741 C 0.83956 0.37895 0.35306
 C742 C 0.82269 0.35968 0.33393
 C743 C 0.83722 0.33061 0.32380
 C744 C 0.86921 0.32154 0.33299
 C745 C 0.88783 0.38849 0.38289
 C746 C 0.90139 0.40405 0.40054
 C747 C 0.91683 0.42180 0.42165
 C748 C 0.92963 0.43652 0.44009
 H749 H 0.91052 0.33331 0.35911
 H750 H 0.82774 0.40095 0.36092
 H751 H 0.79793 0.36709 0.32757
 H752 H 0.88123 0.29955 0.32534
 C753 C 0.34637 -0.11609 0.34894
 C754 C 0.37288 -0.12936 0.36366
 C755 C 0.38254 -0.16220 0.35940
 C756 C 0.36547 -0.18200 0.34077
 C757 C 0.33791 -0.16948 0.32580
 C758 C 0.32916 -0.13568 0.33024
 C759 C 0.38935 -0.10972 0.38390
 C760 C 0.40276 -0.09371 0.40132
 C761 C 0.41805 -0.07556 0.42223
 C762 C 0.43082 -0.06065 0.44055
 H763 H 0.33845 -0.09070 0.35233
 H764 H 0.40335 -0.17263 0.37055
 H765 H 0.37525 -0.20668 0.33774
 H766 H 0.30778 -0.12425 0.32077
 C767 C 0.33283 0.37372 -0.14007
 C768 C 0.36523 0.36430 -0.13283
 C769 C 0.37938 0.33621 -0.14449
 C770 C 0.36116 0.31749 -0.16322
 C771 C 0.32849 0.32665 -0.17054
 C772 C 0.31458 0.35507 -0.15880
 C773 C 0.38358 0.38302 -0.11295
 C774 C 0.39856 0.39853 -0.09600
 C775 C 0.41565 0.41643 -0.07574
 C776 C 0.42978 0.43142 -0.05805
 H777 H 0.32155 0.39531 -0.13106
 H778 H 0.40444 0.32868 -0.13904
 H779 H 0.37272 0.29601 -0.17213
 H780 H 0.28935 0.36252 -0.16370
 C781 C 1.16145 -0.15702 0.12686
 C782 C 1.13313 -0.13991 0.13495
 C783 C 1.12353 -0.14121 0.16165
 C784 C 1.14227 -0.15953 0.18023
 C785 C 1.17088 -0.17671 0.17229
 C786 C 1.18022 -0.17531 0.14538
 C787 C 1.11417 -0.12095 0.11576
 C788 C 1.09886 -0.10520 0.09923
 C789 C 1.08164 -0.08697 0.07935
 C790 C 1.06756 -0.07160 0.06192
 H791 H 1.16903 -0.15625 0.10622
 H792 H 1.10167 -0.12796 0.16811
 H793 H 1.13468 -0.15985 0.20086
 H794 H 1.20182 -0.18868 0.13859
 C795 C 1.15327 0.38015 0.64878
 C796 C 1.12499 0.36666 0.63610
 C797 C 1.11460 0.33420 0.64232
 C798 C 1.13257 0.31518 0.66095
 C799 C 1.16128 0.32837 0.67357
 C800 C 1.17129 0.36118 0.66739
 C801 C 1.10737 0.38569 0.61604
 C802 C 1.09307 0.40139 0.59886
 C803 C 1.07690 0.41945 0.57825
 C804 C 1.06363 0.43453 0.56020
 H805 H 1.16155 0.40525 0.64412
 H806 H 1.09285 0.32343 0.63252
 H807 H 1.12445 0.28989 0.66499
 H808 H 1.19301 0.37220 0.67701
 C809 C 0.61666 -0.16001 0.64235
 C810 C 0.62811 -0.12824 0.63515
 C811 C 0.65733 -0.11543 0.64684
 C812 C 0.67528 -0.13447 0.66543
 C813 C 0.66424 -0.16664 0.67253
 C814 C 0.63456 -0.17909 0.66095
 C815 C 0.61065 -0.10932 0.61499
 C816 C 0.59650 -0.09377 0.59767
 C817 C 0.58050 -0.07598 0.57687
 C818 C 0.56729 -0.06122 0.55866
 H819 H 0.59417 -0.17023 0.63329
 H820 H 0.66642 -0.09087 0.64140
 H821 H 0.69778 -0.12403 0.67427
 H822 H 0.62564 -0.20391 0.66576
 C823 C 0.66507 0.37626 0.14184
 C824 C 0.63592 0.36316 0.13022
 C825 C 0.62526 0.33098 0.13705
 C826 C 0.64370 0.31192 0.15534
 C827 C 0.67315 0.32479 0.16704
 C828 C 0.68357 0.35723 0.16012
 C829 C 0.61740 0.38240 0.11083
 C830 C 0.60216 0.39826 0.09427
 C831 C 0.58472 0.41648 0.07444
 C832 C 0.57025 0.43166 0.05704
 H833 H 0.67357 0.40114 0.13670
 H834 H 0.60283 0.32052 0.12807
 H835 H 0.63524 0.28690 0.15997
 H836 H 0.70587 0.36802 0.16903
 C837 C 0.85305 0.10118 0.15193
 C838 C 0.88181 0.11485 0.14071
 C839 C 0.89195 0.14720 0.14755
 C840 C 0.87320 0.16600 0.16523
 C841 C 0.84392 0.15272 0.17628
 C842 C 0.83424 0.11995 0.16962
 C843 C 0.89979 0.09662 0.12092
 C844 C 0.91434 0.08226 0.10356
 C845 C 0.93065 0.06668 0.08224
 C846 C 0.94377 0.05462 0.06312
 H847 H 0.84489 0.07621 0.14671
 H848 H 0.91400 0.15816 0.13880
 H849 H 0.88110 0.19128 0.16962
 H850 H 0.81208 0.10886 0.17804
 C851 C 0.83854 0.61345 0.64498
 C852 C 0.86624 0.62823 0.63300
 C853 C 0.87629 0.66041 0.64041
 C854 C 0.85854 0.67787 0.65956
 C855 C 0.83044 0.66336 0.67154
 C856 C 0.82073 0.63087 0.66413
 C857 C 0.88381 0.61079 0.61258
 C858 C 0.89819 0.59638 0.59518
 C859 C 0.91458 0.57967 0.57450
 C860 C 0.92814 0.56549 0.55657
 H861 H 0.83056 0.58854 0.63939
 H862 H 0.89760 0.67215 0.63115
 H863 H 0.86636 0.70300 0.66454
 H864 H 0.79946 0.61889 0.67322
 C865 C 0.34126 0.11385 0.64523
 C866 C 0.36916 0.12929 0.63405
 C867 C 0.37863 0.16132 0.64232
 C868 C 0.36012 0.17798 0.66149
 C869 C 0.33179 0.16282 0.67262
 C870 C 0.32270 0.13047 0.66438
 C871 C 0.38741 0.11263 0.61355
 C872 C 0.40216 0.09869 0.59608
 C873 C 0.41875 0.08231 0.57529
 C874 C 0.43227 0.06825 0.55725
 H875 H 0.33370 0.08905 0.63900
 H876 H 0.40009 0.17358 0.63371
 H877 H 0.36752 0.20302 0.66713
 H878 H 0.30129 0.11796 0.67281
 C879 C 0.34679 0.60829 0.14853
 C880 C 0.37383 0.62347 0.13591
 C881 C 0.38375 0.65574 0.14315
 C882 C 0.36643 0.67298 0.16268
 C883 C 0.33887 0.65814 0.17519
 C884 C 0.32941 0.62548 0.16805
 C885 C 0.39059 0.60640 0.11488
 C886 C 0.40416 0.59225 0.09694
 C887 C 0.41950 0.57581 0.07563
 C888 C 0.43217 0.56178 0.05721
 H889 H 0.33892 0.58330 0.14308
 H890 H 0.40455 0.66778 0.13341
 H891 H 0.37403 0.69823 0.16747
 H892 H 0.30856 0.61326 0.17755
   
