data_POSCAR
  _audit_creation_date              2014-09-24
  _audit_creation_method            'ToBaCCo'
  _symmetry_space_group_name_H-M    'P1'
  _symmetry_Int_Tables_number       1
  _symmetry_cell_setting            triclinic
  loop_
  _symmetry_equiv_pos_as_xyz
 x,y,z
_cell_length_a 21.7402
_cell_length_b 21.7227
_cell_length_c 36.1986
_cell_angle_alpha 89.876900
_cell_angle_beta 93.033100
_cell_angle_gamma 89.996600
loop_
  _atom_site_label
  _atom_site_type_symbol
  _atom_site_fract_x
  _atom_site_fract_y
  _atom_site_fract_z
C1 C -0.00365 0.36847 1.03392
 C2 C -0.00058 0.33716 1.00040
 C3 C 0.00252 0.36884 0.96699
 C4 C 0.00279 0.43384 0.96665
 C5 C -0.00052 0.46638 1.00047
 C6 C -0.00387 0.43360 1.03431
 C7 C -0.00733 0.46681 1.06745
 C8 C -0.00757 0.53090 1.06741
 C9 C -0.00415 0.56433 1.03423
 C10 C -0.00048 0.53176 1.00043
 C11 C 0.00629 0.46707 0.93348
 C12 C 0.00661 0.53116 0.93345
 C13 C 0.00324 0.56446 0.96660
 C14 C 0.00346 0.62959 0.96694
 C15 C -0.00039 0.66107 1.00035
 C16 C -0.00428 0.62947 1.03381
 H17 H -0.00998 0.44338 1.09376
 H18 H -0.01037 0.55414 1.09370
 H19 H 0.00891 0.44371 0.90722
 H20 H 0.00944 0.55449 0.90713
 H21 H -0.00059 0.28713 1.00025
 H22 H -0.00036 0.71113 1.00032
 C23 C 0.37536 0.00922 0.53598
 C24 C 0.33961 0.00966 0.50279
 C25 C 0.36676 0.01024 0.46870
 C26 C 0.43158 0.01023 0.46739
 C27 C 0.46849 0.01008 0.50094
 C28 C 0.44028 0.00971 0.53543
 C29 C 0.47765 0.00970 0.56832
 C30 C 0.54163 0.00998 0.56742
 C31 C 0.57062 0.01006 0.53356
 C32 C 0.53368 0.01004 0.50000
 C33 C 0.46042 0.01021 0.43353
 C34 C 0.52438 0.00985 0.43260
 C35 C 0.56181 0.00973 0.46548
 C36 C 0.62670 0.00916 0.46487
 C37 C 0.66257 0.00948 0.49801
 C38 C 0.63555 0.00999 0.53218
 H39 H 0.45767 0.00951 0.59509
 H40 H 0.56828 0.00999 0.59355
 H41 H 0.43368 0.01033 0.40743
 H42 H 0.54430 0.00972 0.40581
 H43 H 0.28974 0.00929 0.50350
 H44 H 0.71245 0.00905 0.49710
 C45 C 0.10486 0.00336 0.26871
 H46 H 0.10994 0.00267 0.23915
 C47 C 0.15709 0.00611 0.29298
 H48 H 0.20258 0.00725 0.28216
 C49 C 0.03956 0.00332 0.31916
 H50 H -0.00613 0.00326 0.32942
 C51 C 0.09035 0.00614 0.34427
 H52 H 0.08343 0.00744 0.37369
 N53 N 0.04754 0.00092 0.28215
 C54 C -0.07239 -0.08874 0.19781
 H55 H -0.11107 -0.05735 0.19722
 C56 C -0.07300 -0.13894 0.17379
 H57 H -0.11221 -0.14625 0.15456
 C58 C 0.02704 -0.11628 0.22256
 H59 H 0.06599 -0.10730 0.24151
 C60 C 0.02831 -0.16707 0.19896
 H61 H 0.06852 -0.19659 0.19955
 Zn62 Zn -0.02246 -0.00347 0.24862
 N63 N -0.02210 -0.07731 0.22077
 C64 C -0.01859 0.05569 0.17917
 N65 N -0.02008 0.06527 0.21626
 C66 C -0.01749 0.12322 0.23059
 C67 C -0.01515 0.17442 0.20715
 C68 C -0.01625 0.10539 0.15488
 C69 C -0.10487 -0.05316 0.29694
 C70 C -0.15364 -0.05384 0.32050
 C71 C -0.18370 0.04704 0.29778
 C72 C -0.13431 0.04583 0.27456
 N73 N -0.09504 -0.00305 0.27541
 H74 H -0.01869 0.00954 0.16823
 H75 H -0.01736 0.12959 0.26023
 H76 H -0.01354 0.22040 0.21867
 H77 H -0.01536 0.09716 0.12539
 H78 H -0.07321 -0.09158 0.29684
 H79 H -0.15957 -0.09287 0.33865
 H80 H -0.21336 0.08710 0.29807
 H81 H -0.12649 0.08469 0.25678
 C82 C -0.02171 -0.17779 0.17390
 C83 C 0.14961 0.00712 0.33113
 C84 C -0.19267 -0.00279 0.32144
 C85 C -0.01479 0.16525 0.16892
 C86 C 0.01705 0.12263 0.76878
 H87 H 0.01714 0.12917 0.73914
 C88 C 0.01458 0.17370 0.79218
 H89 H 0.01309 0.21975 0.78064
 C90 C 0.01773 0.05481 0.82022
 H91 H 0.01772 0.00860 0.83118
 C92 C 0.01525 0.10437 0.84448
 H93 H 0.01416 0.09597 0.87396
 N94 N 0.01951 0.06460 0.78314
 C95 C 0.10491 -0.05337 0.70275
 H96 H 0.07322 -0.09177 0.70275
 C97 C 0.15397 -0.05399 0.67941
 H98 H 0.16009 -0.09292 0.66131
 C99 C 0.13422 0.04543 0.72521
 H100 H 0.12627 0.08418 0.74295
 C101 C 0.18390 0.04672 0.70221
 H102 H 0.21364 0.08672 0.70204
 Zn103 Zn 0.02214 -0.00399 0.75086
 N104 N 0.09489 -0.00340 0.72422
 C105 C -0.03970 0.00281 0.68023
 N106 N -0.04776 0.00039 0.71725
 C107 C -0.10511 0.00281 0.73062
 C108 C -0.15729 0.00557 0.70631
 C109 C -0.09044 0.00564 0.65508
 C110 C 0.07206 -0.08928 0.80187
 C111 C 0.07260 -0.13939 0.82609
 C112 C -0.02870 -0.16751 0.80098
 C113 C -0.02736 -0.11682 0.77717
 N114 N 0.02179 -0.07789 0.77885
 H115 H 0.00603 0.00276 0.67002
 H116 H -0.11025 0.00210 0.76019
 H117 H -0.20281 0.00669 0.71710
 H118 H -0.08346 0.00697 0.62567
 H119 H 0.11074 -0.05791 0.80237
 H120 H 0.11177 -0.14665 0.84537
 H121 H -0.06894 -0.19697 0.80050
 H122 H -0.06630 -0.10784 0.75819
 C123 C 0.19312 -0.00300 0.67863
 C124 C 0.01395 0.16430 0.83041
 C125 C 0.02127 -0.17816 0.82612
 C126 C -0.14973 0.00660 0.66817
 C127 C -0.00821 -0.33612 0.06521
 C128 C -0.01163 -0.30348 0.09192
 C129 C -0.01547 -0.26247 0.12190
 C130 C -0.01850 -0.22512 0.14631
 C131 C -0.00624 0.33359 0.06530
 C132 C -0.00833 0.29969 0.09162
 C133 C -0.01061 0.25630 0.12058
 C134 C -0.01251 0.21628 0.14361
 C135 C 0.34307 0.00740 0.56985
 C136 C 0.31307 0.00544 0.59690
 C137 C 0.27455 0.00275 0.62704
 C138 C 0.23889 0.00021 0.65138
 C139 C -0.32583 0.00994 0.56327
 C140 C -0.28927 0.00970 0.58950
 C141 C -0.24349 0.00909 0.61863
 C142 C -0.20199 0.00820 0.64206
 C143 C 0.00744 -0.33594 0.93548
 C144 C 0.01092 -0.30335 0.90867
 C145 C 0.01484 -0.26249 0.87852
 C146 C 0.01796 -0.22529 0.85394
 C147 C 0.00525 0.33223 0.93382
 C148 C 0.00735 0.29836 0.90759
 C149 C 0.00966 0.25508 0.87869
 C150 C 0.01160 0.21519 0.85569
 C151 C -0.34118 0.00740 0.43093
 C152 C -0.31143 0.00549 0.40379
 C153 C -0.27331 0.00286 0.37346
 C154 C -0.23802 0.00036 0.34893
 C155 C 0.32598 0.01028 0.43584
 C156 C 0.28930 0.01010 0.40968
 C157 C 0.24345 0.00954 0.38060
 C158 C 0.20190 0.00869 0.35720
   
