data_POSCAR
  _audit_creation_date              2014-09-24
  _audit_creation_method            'ToBaCCo'
  _symmetry_space_group_name_H-M    'P1'
  _symmetry_Int_Tables_number       1
  _symmetry_cell_setting            triclinic
  loop_
  _symmetry_equiv_pos_as_xyz
 x,y,z
_cell_length_a 45.4359
_cell_length_b 45.4360
_cell_length_c 33.9132
_cell_angle_alpha 89.967700
_cell_angle_beta 89.971400
_cell_angle_gamma 89.951200
loop_
  _atom_site_label
  _atom_site_type_symbol
  _atom_site_fract_x
  _atom_site_fract_y
  _atom_site_fract_z
O1 O 0.02831 0.29641 -0.03753
 O2 O -0.02955 0.29609 0.03909
 O3 O 0.02812 0.29647 0.03922
 O4 O -0.02934 0.29636 -0.03763
 O5 O -0.02896 0.24782 -0.03753
 O6 O 0.02816 0.24794 0.03898
 O7 O -0.02906 0.24760 0.03885
 O8 O 0.02824 0.24787 -0.03743
 Cu9 Cu -0.00063 0.30123 0.00080
 Cu10 Cu -0.00038 0.24298 0.00072
 C11 C 0.03830 0.27209 -0.05038
 C12 C -0.03942 0.27169 0.05188
 C13 C 0.03814 0.27215 0.05200
 C14 C -0.03915 0.27200 -0.05049
 O15 O 0.47124 0.79676 0.53815
 O16 O 0.52884 0.79658 0.46138
 O17 O 0.47117 0.79655 0.46141
 O18 O 0.52892 0.79646 0.53812
 O19 O 0.52858 0.74792 0.53804
 O20 O 0.47137 0.74801 0.46165
 O21 O 0.52862 0.74804 0.46163
 O22 O 0.47133 0.74822 0.53807
 Cu23 Cu 0.50005 0.80148 0.49976
 Cu24 Cu 0.49996 0.74322 0.49985
 C25 C 0.46126 0.77245 0.55100
 C26 C 0.53876 0.77221 0.44862
 C27 C 0.46125 0.77220 0.44864
 C28 C 0.53877 0.77207 0.55096
 O29 O 1.02989 0.70434 0.03823
 O30 O 0.97223 0.70414 -0.03857
 O31 O 1.02992 0.70431 -0.03850
 O32 O 0.97221 0.70406 0.03819
 O33 O 0.97219 0.75259 0.03802
 O34 O 1.02950 0.75280 -0.03834
 O35 O 0.97225 0.75267 -0.03840
 O36 O 1.02944 0.75282 0.03805
 Cu37 Cu 1.00108 0.69933 -0.00016
 Cu38 Cu 1.00082 0.75754 -0.00017
 C39 C 1.03976 0.72871 0.05109
 C40 C 0.96222 0.72847 -0.05139
 C41 C 1.03983 0.72868 -0.05133
 C42 C 0.96217 0.72837 0.05098
 O43 O 0.47114 0.20297 0.46157
 O44 O 0.52867 0.20299 0.53836
 O45 O 0.47102 0.20304 0.53832
 O46 O 0.52880 0.20314 0.46164
 O47 O 0.52846 0.25168 0.46181
 O48 O 0.47119 0.25158 0.53815
 O49 O 0.52840 0.25153 0.53820
 O50 O 0.47124 0.25151 0.46175
 Cu51 Cu 0.49991 0.19814 0.49997
 Cu52 Cu 0.49981 0.25641 0.49998
 C53 C 0.46120 0.22731 0.44875
 C54 C 0.53853 0.22734 0.55118
 C55 C 0.46108 0.22740 0.55114
 C56 C 0.53866 0.22753 0.44884
 O57 O 0.70357 0.02826 -0.03748
 O58 O 0.70389 -0.02958 0.03913
 O59 O 0.70368 0.02810 0.03925
 O60 O 0.70354 -0.02938 -0.03760
 O61 O 0.75208 -0.02917 -0.03770
 O62 O 0.75222 0.02794 0.03881
 O63 O 0.75238 -0.02929 0.03868
 O64 O 0.75211 0.02803 -0.03759
 Cu65 Cu 0.69878 -0.00065 0.00087
 Cu66 Cu 0.75702 -0.00062 0.00053
 C67 C 0.72789 0.03817 -0.05043
 C68 C 0.72829 -0.03956 0.05182
 C69 C 0.72805 0.03802 0.05193
 C70 C 0.72786 -0.03925 -0.05058
 O71 O 0.20341 0.47151 0.53880
 O72 O 0.20330 0.52908 0.46196
 O73 O 0.20351 0.47140 0.46206
 O74 O 0.20346 0.52919 0.53871
 O75 O 0.25200 0.52895 0.53848
 O76 O 0.25205 0.47168 0.46216
 O77 O 0.25184 0.52893 0.46206
 O78 O 0.25195 0.47170 0.53856
 Cu79 Cu 0.19853 0.50030 0.50039
 Cu80 Cu 0.25679 0.50032 0.50031
 C81 C 0.22778 0.46158 0.55157
 C82 C 0.22762 0.53902 0.44910
 C83 C 0.22789 0.46151 0.44924
 C84 C 0.22782 0.53910 0.55148
 O85 O 0.29561 0.97134 -0.03981
 O86 O 0.29584 1.02902 0.03698
 O87 O 0.29601 0.97136 0.03693
 O88 O 0.29564 1.02905 -0.03976
 O89 O 0.24716 1.02886 -0.03925
 O90 O 0.24747 0.97153 0.03711
 O91 O 0.24731 1.02876 0.03715
 O92 O 0.24713 0.97158 -0.03930
 Cu93 Cu 0.30066 1.00019 -0.00147
 Cu94 Cu 0.24245 1.00018 -0.00106
 C95 C 0.27124 0.96135 -0.05248
 C96 C 0.27151 1.03889 0.04999
 C97 C 0.27172 0.96143 0.04991
 C98 C 0.27127 1.03909 -0.05240
 O99 O 0.79708 0.52853 0.53826
 O100 O 0.79700 0.47097 0.46154
 O101 O 0.79696 0.52863 0.46153
 O102 O 0.79680 0.47088 0.53827
 O103 O 0.74826 0.47128 0.53809
 O104 O 0.74842 0.52849 0.46168
 O105 O 0.74846 0.47128 0.46170
 O106 O 0.74854 0.52850 0.53808
 Cu107 Cu 0.80186 0.49974 0.49990
 Cu108 Cu 0.74359 0.49991 0.49989
 C109 C 0.77275 0.53852 0.55106
 C110 C 0.77264 0.46112 0.44873
 C111 C 0.77262 0.53857 0.44869
 C112 C 0.77240 0.46106 0.55108
 C113 C 0.19370 0.21558 0.16081
 C114 C 0.21438 0.19365 0.16172
 C115 C 0.23495 0.20159 0.19000
 N116 N 0.22736 0.22764 0.20636
 C117 C 0.20216 0.23630 0.18864
 C118 C 0.26053 0.18513 0.19905
 C119 C 0.28212 0.19347 0.22700
 C120 C 0.30900 0.17937 0.23170
 C121 C 0.32392 0.19416 0.26082
 C122 C 0.30583 0.21697 0.27325
 N123 N 0.28019 0.21604 0.25294
 C124 C 0.31360 0.23774 0.30256
 C125 C 0.29747 0.26354 0.31159
 C126 C 0.30594 0.28427 0.33938
 C127 C 0.28530 0.30625 0.33840
 C128 C 0.26473 0.29830 0.31012
 N129 N 0.27229 0.27222 0.29383
 C130 C 0.23917 0.31479 0.30103
 C131 C 0.21755 0.30641 0.27316
 C132 C 0.19065 0.32048 0.26851
 C133 C 0.17570 0.30565 0.23946
 C134 C 0.19379 0.28285 0.22701
 N135 N 0.21945 0.28382 0.24724
 C136 C 0.18599 0.26206 0.19774
 H137 H 0.17452 0.21607 0.14191
 H138 H 0.21431 0.17414 0.14341
 H139 H 0.23795 0.27119 0.24168
 H140 H 0.31723 0.16058 0.21545
 H141 H 0.34582 0.18892 0.27125
 H142 H 0.32511 0.28378 0.35830
 H143 H 0.28540 0.32578 0.35667
 H144 H 0.15378 0.31087 0.22908
 H145 H 0.26170 0.22869 0.25847
 H146 H 0.18243 0.33928 0.28475
 C147 C 0.69443 0.71528 0.33895
 C148 C 0.71514 0.69338 0.33780
 C149 C 0.73566 0.70151 0.30950
 N150 N 0.72800 0.72762 0.29337
 C151 C 0.70281 0.73615 0.31125
 C152 C 0.76128 0.68516 0.30027
 C153 C 0.78285 0.69366 0.27235
 C154 C 0.80977 0.67967 0.26755
 C155 C 0.82464 0.69459 0.23846
 C156 C 0.80648 0.71738 0.22616
 N157 N 0.78084 0.71630 0.24650
 C158 C 0.81418 0.73826 0.19691
 C159 C 0.79795 0.76403 0.18805
 C160 C 0.80629 0.78486 0.16028
 C161 C 0.78558 0.80676 0.16144
 C162 C 0.76510 0.79868 0.18981
 N163 N 0.77278 0.77258 0.20597
 C164 C 0.73951 0.81506 0.19909
 C165 C 0.71795 0.80658 0.22706
 C166 C 0.69107 0.82063 0.23194
 C167 C 0.67620 0.80570 0.26101
 C168 C 0.69432 0.78286 0.27323
 N169 N 0.71994 0.78391 0.25285
 C170 C 0.68660 0.76194 0.30243
 H171 H 0.67526 0.71564 0.35792
 H172 H 0.71513 0.67379 0.35597
 H173 H 0.73845 0.77125 0.25821
 H174 H 0.81807 0.66085 0.28370
 H175 H 0.84656 0.68945 0.22798
 H176 H 0.82543 0.78448 0.14126
 H177 H 0.78558 0.82633 0.14323
 H178 H 0.65430 0.81087 0.27154
 H179 H 0.76230 0.72889 0.24105
 H180 H 0.68280 0.83948 0.21584
 C181 C 0.69374 0.28516 0.33815
 C182 C 0.71566 0.30581 0.33924
 C183 C 0.73650 0.29734 0.31153
 N184 N 0.72793 0.27217 0.29373
 C185 C 0.70182 0.26460 0.30990
 C186 C 0.76230 0.31348 0.30263
 C187 C 0.78318 0.30570 0.27341
 C188 C 0.80600 0.32379 0.26109
 C189 C 0.82090 0.30888 0.23202
 C190 C 0.80685 0.28201 0.22724
 N191 N 0.78420 0.28008 0.25309
 C192 C 0.81529 0.26043 0.19931
 C193 C 0.79890 0.23486 0.19015
 C194 C 0.80695 0.21433 0.16184
 C195 C 0.78505 0.19366 0.16081
 C196 C 0.76425 0.20207 0.18860
 N197 N 0.77283 0.22725 0.20641
 C198 C 0.73849 0.18591 0.19757
 C199 C 0.71763 0.19368 0.22681
 C200 C 0.69484 0.17557 0.23919
 C201 C 0.67992 0.19051 0.26822
 C202 C 0.69392 0.21741 0.27290
 N203 N 0.71656 0.21934 0.24704
 C204 C 0.68543 0.23902 0.30075
 H205 H 0.67415 0.28524 0.35634
 H206 H 0.71606 0.32498 0.35816
 H207 H 0.72915 0.23786 0.24151
 H208 H 0.81119 0.34568 0.27156
 H209 H 0.83972 0.31711 0.21586
 H210 H 0.82650 0.21428 0.14359
 H211 H 0.78464 0.17450 0.14187
 H212 H 0.66111 0.18227 0.28440
 H213 H 0.77156 0.26159 0.25855
 H214 H 0.68970 0.15365 0.22879
 C215 C 0.19338 0.78547 0.16100
 C216 C 0.21533 0.80608 0.15983
 C217 C 0.23608 0.79770 0.18768
 N218 N 0.22743 0.77260 0.20567
 C219 C 0.20134 0.76500 0.18946
 C220 C 0.26187 0.81385 0.19655
 C221 C 0.28268 0.80613 0.22588
 C222 C 0.30550 0.82423 0.23815
 C223 C 0.32033 0.80937 0.26734
 C224 C 0.30625 0.78252 0.27224
 N225 N 0.28365 0.78055 0.24635
 C226 C 0.31464 0.76099 0.30030
 C227 C 0.29818 0.73547 0.30959
 C228 C 0.30618 0.71497 0.33799
 C229 C 0.28423 0.69435 0.33914
 C230 C 0.26346 0.70275 0.31134
 N231 N 0.27209 0.72788 0.29340
 C232 C 0.23766 0.68661 0.30249
 C233 C 0.21682 0.69436 0.27320
 C234 C 0.19397 0.67629 0.26098
 C235 C 0.17913 0.69115 0.23181
 C236 C 0.19324 0.71798 0.22686
 N237 N 0.21586 0.71993 0.25271
 C238 C 0.18487 0.73950 0.19878
 H239 H 0.17385 0.78552 0.14274
 H240 H 0.21581 0.82518 0.14075
 H241 H 0.22854 0.73841 0.25804
 H242 H 0.31072 0.84609 0.22757
 H243 H 0.33913 0.81762 0.28349
 H244 H 0.32573 0.71492 0.35622
 H245 H 0.28378 0.67523 0.35819
 H246 H 0.16030 0.68292 0.21569
 H247 H 0.27101 0.76205 0.24097
 H248 H 0.18873 0.65443 0.27158
 C249 C 0.71456 0.30613 0.66185
 C250 C 0.69390 0.28422 0.66074
 C251 C 0.70227 0.26342 0.68855
 N252 N 0.72741 0.27201 0.70645
 C253 C 0.73504 0.29809 0.69023
 C254 C 0.68610 0.23765 0.69746
 C255 C 0.69380 0.21681 0.72676
 C256 C 0.67567 0.19400 0.73905
 C257 C 0.69052 0.17912 0.76820
 C258 C 0.71738 0.19316 0.77305
 N259 N 0.71938 0.21578 0.74717
 C260 C 0.73890 0.18472 0.80106
 C261 C 0.76444 0.20113 0.81032
 C262 C 0.78491 0.19310 0.83873
 C263 C 0.80556 0.21502 0.83985
 C264 C 0.79720 0.23580 0.81202
 N265 N 0.77208 0.22721 0.79410
 C266 C 0.81338 0.26157 0.80310
 C267 C 0.80569 0.28240 0.77378
 C268 C 0.82383 0.30518 0.76146
 C269 C 0.80899 0.32005 0.73231
 C270 C 0.78211 0.30603 0.72748
 N271 N 0.78010 0.28343 0.75338
 C272 C 0.76059 0.31448 0.69947
 H273 H 0.71454 0.32569 0.64360
 H274 H 0.67478 0.28381 0.64172
 H275 H 0.76158 0.27083 0.75882
 H276 H 0.65380 0.18883 0.72851
 H277 H 0.68224 0.16032 0.78436
 H278 H 0.78493 0.17355 0.85699
 H279 H 0.82468 0.21544 0.85888
 H280 H 0.81728 0.33885 0.71613
 H281 H 0.73789 0.22840 0.74175
 H282 H 0.84571 0.31035 0.77199
 C283 C 0.28510 0.69415 0.66199
 C284 C 0.30575 0.71608 0.66080
 C285 C 0.29732 0.73692 0.68850
 N286 N 0.27217 0.72834 0.70642
 C287 C 0.26458 0.70222 0.69032
 C288 C 0.31346 0.76273 0.69728
 C289 C 0.30569 0.78365 0.72644
 C290 C 0.32374 0.80654 0.73858
 C291 C 0.30883 0.82147 0.76763
 C292 C 0.28200 0.80738 0.77258
 N293 N 0.28008 0.78468 0.74684
 C294 C 0.26043 0.81584 0.80055
 C295 C 0.23493 0.79938 0.80992
 C296 C 0.21444 0.80742 0.83831
 C297 C 0.19384 0.78545 0.83957
 C298 C 0.20225 0.76463 0.81184
 N299 N 0.22735 0.77325 0.79384
 C300 C 0.18612 0.73880 0.80309
 C301 C 0.19385 0.71793 0.77385
 C302 C 0.17577 0.69508 0.76167
 C303 C 0.19064 0.68019 0.73255
 C304 C 0.21749 0.69426 0.72762
 N305 N 0.21944 0.71692 0.75341
 C306 C 0.23904 0.68581 0.69962
 H307 H 0.28517 0.67456 0.64384
 H308 H 0.32489 0.71647 0.64180
 H309 H 0.23793 0.72958 0.75876
 H310 H 0.34561 0.81174 0.72802
 H311 H 0.31705 0.84034 0.78367
 H312 H 0.21437 0.82700 0.85647
 H313 H 0.17473 0.78502 0.85864
 H314 H 0.18240 0.66134 0.71648
 H315 H 0.26161 0.77199 0.74153
 H316 H 0.15390 0.68988 0.77226
 C317 C 0.19297 0.21470 0.83856
 C318 C 0.21480 0.19391 0.83964
 C319 C 0.23564 0.20223 0.81187
 N320 N 0.22717 0.22746 0.79404
 C321 C 0.20111 0.23520 0.81025
 C322 C 0.26136 0.18593 0.80295
 C323 C 0.28226 0.19361 0.77370
 C324 C 0.30500 0.17541 0.76137
 C325 C 0.31996 0.19028 0.73230
 C326 C 0.30602 0.21723 0.72755
 N327 N 0.28338 0.21926 0.75340
 C328 C 0.31456 0.23880 0.69964
 C329 C 0.29825 0.26446 0.69045
 C330 C 0.30640 0.28497 0.66215
 C331 C 0.28455 0.30574 0.66105
 C332 C 0.26370 0.29741 0.68879
 N333 N 0.27218 0.27219 0.70664
 C334 C 0.23796 0.31369 0.69768
 C335 C 0.21708 0.30602 0.72694
 C336 C 0.19432 0.32421 0.73925
 C337 C 0.17938 0.30937 0.76835
 C338 C 0.19334 0.28242 0.77314
 N339 N 0.21597 0.28038 0.74728
 C340 C 0.18481 0.26087 0.80107
 H341 H 0.17341 0.21474 0.85680
 H342 H 0.21513 0.17474 0.85860
 H343 H 0.22853 0.26182 0.74184
 H344 H 0.31010 0.15348 0.77182
 H345 H 0.33875 0.18196 0.71614
 H346 H 0.32597 0.28494 0.64393
 H347 H 0.28422 0.32491 0.64208
 H348 H 0.16059 0.31769 0.78451
 H349 H 0.27083 0.23783 0.75886
 H350 H 0.18921 0.34614 0.72877
 C351 C 0.80686 0.78523 0.83813
 C352 C 0.78483 0.80581 0.83930
 C353 C 0.76407 0.79736 0.81154
 N354 N 0.77278 0.77226 0.79362
 C355 C 0.79891 0.76473 0.80977
 C356 C 0.73821 0.81346 0.80269
 C357 C 0.71739 0.80571 0.77342
 C358 C 0.69452 0.82379 0.76116
 C359 C 0.67970 0.80891 0.73203
 C360 C 0.69384 0.78208 0.72716
 N361 N 0.71647 0.78013 0.75302
 C362 C 0.68547 0.76053 0.69917
 C363 C 0.70197 0.73501 0.68994
 C364 C 0.69400 0.71449 0.66162
 C365 C 0.71599 0.69387 0.66052
 C366 C 0.73676 0.70231 0.68827
 N367 N 0.72809 0.72745 0.70613
 C368 C 0.76260 0.68619 0.69717
 C369 C 0.78345 0.69398 0.72637
 C370 C 0.80635 0.67593 0.73860
 C371 C 0.82122 0.69085 0.76766
 C372 C 0.80707 0.71768 0.77252
 N373 N 0.78440 0.71959 0.74673
 C374 C 0.81545 0.73924 0.80047
 H375 H 0.82643 0.78533 0.85633
 H376 H 0.78433 0.82492 0.85833
 H377 H 0.77168 0.73805 0.74133
 H378 H 0.68926 0.84566 0.77170
 H379 H 0.66086 0.81715 0.71589
 H380 H 0.67444 0.71440 0.64341
 H381 H 0.71646 0.67472 0.64154
 H382 H 0.84009 0.68264 0.78376
 H383 H 0.72916 0.76164 0.75843
 H384 H 0.81161 0.65405 0.72809
 C385 C 0.26951 0.11071 0.13227
 C386 C 0.24339 0.09692 0.12073
 C387 C 0.24415 0.07316 0.09466
 C388 C 0.27112 0.06283 0.07963
 C389 C 0.29737 0.07643 0.09201
 C390 C 0.29654 0.10028 0.11814
 C391 C 0.26805 0.13644 0.15691
 C392 C 0.26538 0.15839 0.17658
 H393 H 0.22235 0.10488 0.13136
 H394 H 0.22355 0.06321 0.08580
 H395 H 0.31847 0.06903 0.08093
 H396 H 0.31689 0.11089 0.12676
 C397 C 0.77099 0.61071 0.63260
 C398 C 0.74480 0.59703 0.62115
 C399 C 0.74547 0.57310 0.59537
 C400 C 0.77240 0.56251 0.58059
 C401 C 0.79872 0.57597 0.59299
 C402 C 0.79799 0.59999 0.61880
 C403 C 0.76967 0.63675 0.65660
 C404 C 0.76718 0.65902 0.67562
 H405 H 0.72379 0.60524 0.63153
 H406 H 0.72482 0.56325 0.58648
 H407 H 0.81980 0.56836 0.58209
 H408 H 0.81839 0.61053 0.62737
 C409 C 0.73050 0.88964 0.13260
 C410 C 0.70342 0.90095 0.12005
 C411 C 0.70254 0.92483 0.09394
 C412 C 0.72882 0.93762 0.07985
 C413 C 0.75589 0.92632 0.09351
 C414 C 0.75665 0.90255 0.11957
 C415 C 0.73191 0.86388 0.15721
 C416 C 0.73459 0.84188 0.17680
 H417 H 0.68303 0.89103 0.12990
 H418 H 0.68127 0.93285 0.08427
 H419 H 0.77663 0.93548 0.08362
 H420 H 0.77774 0.89390 0.12903
 C421 C 0.22972 0.38925 0.63304
 C422 C 0.20270 0.39999 0.61937
 C423 C 0.20191 0.42406 0.59359
 C424 C 0.22819 0.43755 0.58108
 C425 C 0.25516 0.42694 0.59573
 C426 C 0.25588 0.40296 0.62147
 C427 C 0.23107 0.36318 0.65704
 C428 C 0.23352 0.34090 0.67608
 H429 H 0.18232 0.38944 0.62802
 H430 H 0.18080 0.43167 0.58281
 H431 H 0.27579 0.43681 0.58674
 H432 H 0.27692 0.39474 0.63174
 C433 C 0.88979 0.26942 0.13267
 C434 C 0.90098 0.29650 0.12000
 C435 C 0.92486 0.29741 0.09389
 C436 C 0.93775 0.27114 0.07991
 C437 C 0.92658 0.24406 0.09368
 C438 C 0.90281 0.24328 0.11974
 C439 C 0.86404 0.26798 0.15731
 C440 C 0.84208 0.26530 0.17694
 H441 H 0.89098 0.31689 0.12978
 H442 H 0.93278 0.31868 0.08413
 H443 H 0.93582 0.22333 0.08387
 H444 H 0.89425 0.22219 0.12929
 C445 C 0.38897 0.77087 0.63255
 C446 C 0.39974 0.79783 0.61876
 C447 C 0.42379 0.79850 0.59294
 C448 C 0.43723 0.77216 0.58052
 C449 C 0.42659 0.74524 0.59528
 C450 C 0.40263 0.74464 0.62106
 C451 C 0.36292 0.76962 0.65660
 C452 C 0.34065 0.76721 0.67567
 H453 H 0.38923 0.81826 0.62734
 H454 H 0.43144 0.81957 0.58207
 H455 H 0.43642 0.72457 0.58637
 H456 H 0.39438 0.72364 0.63143
 C457 C 0.11041 0.73071 0.13207
 C458 C 0.09746 0.75690 0.11914
 C459 C 0.07374 0.75621 0.09301
 C460 C 0.06254 0.72918 0.07917
 C461 C 0.07536 0.70286 0.09315
 C462 C 0.09918 0.70367 0.11933
 C463 C 0.13613 0.73205 0.15677
 C464 C 0.15808 0.73466 0.17642
 H465 H 0.10605 0.77796 0.12874
 H466 H 0.06456 0.77697 0.08321
 H467 H 0.06741 0.68162 0.08335
 H468 H 0.10913 0.68325 0.12909
 C469 C 0.61069 0.22925 0.63275
 C470 C 0.59690 0.25541 0.62128
 C471 C 0.57297 0.25469 0.59550
 C472 C 0.56251 0.22773 0.58072
 C473 C 0.57608 0.20145 0.59313
 C474 C 0.60010 0.20224 0.61896
 C475 C 0.63672 0.23063 0.65678
 C476 C 0.65896 0.23313 0.67584
 H477 H 0.60501 0.27644 0.63166
 H478 H 0.56303 0.27532 0.58659
 H479 H 0.56857 0.18035 0.58224
 H480 H 0.61073 0.18186 0.62754
 C481 C 0.72985 0.11012 0.86747
 C482 C 0.75597 0.09624 0.87889
 C483 C 0.75522 0.07244 0.90490
 C484 C 0.72826 0.06215 0.91997
 C485 C 0.70200 0.07583 0.90768
 C486 C 0.70283 0.09974 0.88161
 C487 C 0.73132 0.13593 0.84295
 C488 C 0.73401 0.15793 0.82338
 H489 H 0.77701 0.10418 0.86824
 H490 H 0.77583 0.06242 0.91370
 H491 H 0.68091 0.06846 0.91879
 H492 H 0.68248 0.11043 0.87307
 C493 C 0.22933 0.61121 0.36740
 C494 C 0.25553 0.59751 0.37890
 C495 C 0.25488 0.57358 0.40474
 C496 C 0.22795 0.56302 0.41954
 C497 C 0.20163 0.57650 0.40710
 C498 C 0.20235 0.60052 0.38123
 C499 C 0.23063 0.63723 0.34328
 C500 C 0.23310 0.65947 0.32416
 H501 H 0.27654 0.60570 0.36850
 H502 H 0.27554 0.56372 0.41366
 H503 H 0.18056 0.56891 0.41800
 H504 H 0.18194 0.61106 0.37263
 C505 C 0.26919 0.89051 0.86684
 C506 C 0.29624 0.90188 0.87934
 C507 C 0.29706 0.92578 0.90540
 C508 C 0.27075 0.93854 0.91949
 C509 C 0.24371 0.92720 0.90588
 C510 C 0.24300 0.90341 0.87987
 C511 C 0.26785 0.86472 0.84229
 C512 C 0.26525 0.84270 0.82277
 H513 H 0.31666 0.89198 0.86949
 H514 H 0.31831 0.93382 0.91503
 H515 H 0.22295 0.93633 0.91578
 H516 H 0.22194 0.89472 0.87046
 C517 C 0.77071 0.38894 0.36720
 C518 C 0.74455 0.40273 0.37868
 C519 C 0.74527 0.42666 0.40446
 C520 C 0.77224 0.43714 0.41921
 C521 C 0.79852 0.42357 0.40679
 C522 C 0.79773 0.39954 0.38097
 C523 C 0.76933 0.36290 0.34321
 C524 C 0.76683 0.34064 0.32419
 H525 H 0.72351 0.39461 0.36832
 H526 H 0.72465 0.43660 0.41337
 H527 H 0.81962 0.43108 0.41766
 H528 H 0.81810 0.38892 0.37239
 C529 C 0.11023 0.27008 0.86749
 C530 C 0.09981 0.29711 0.88157
 C531 C 0.07590 0.29795 0.90764
 C532 C 0.06227 0.27171 0.92002
 C533 C 0.07261 0.24474 0.90502
 C534 C 0.09640 0.24397 0.87900
 C535 C 0.13603 0.26859 0.84296
 C536 C 0.15802 0.26584 0.82340
 H537 H 0.11046 0.31746 0.87296
 H538 H 0.06850 0.31905 0.91870
 H539 H 0.06262 0.22413 0.91388
 H540 H 0.10437 0.22292 0.86840
 C541 C 0.61108 0.77024 0.36714
 C542 C 0.60034 0.79727 0.38078
 C543 C 0.57628 0.79806 0.40658
 C544 C 0.56280 0.77178 0.41912
 C545 C 0.57341 0.74481 0.40451
 C546 C 0.59738 0.74408 0.37875
 C547 C 0.63714 0.76888 0.34311
 C548 C 0.65941 0.76642 0.32405
 H549 H 0.61088 0.81764 0.37210
 H550 H 0.56865 0.81917 0.41733
 H551 H 0.56355 0.72418 0.41352
 H552 H 0.60561 0.72304 0.36850
 C553 C 0.89019 0.73042 0.86667
 C554 C 0.90079 0.70339 0.88057
 C555 C 0.92473 0.70258 0.90656
 C556 C 0.93824 0.72886 0.91904
 C557 C 0.92774 0.75582 0.90421
 C558 C 0.90390 0.75656 0.87827
 C559 C 0.86435 0.73184 0.84221
 C560 C 0.84231 0.73446 0.82272
 H561 H 0.89025 0.68302 0.87189
 H562 H 0.93226 0.68148 0.91748
 H563 H 0.93762 0.77645 0.91316
 H564 H 0.89580 0.77760 0.86782
 C565 C 0.38908 0.22919 0.36710
 C566 C 0.40282 0.25535 0.37854
 C567 C 0.42673 0.25464 0.40435
 C568 C 0.43724 0.22769 0.41919
 C569 C 0.42372 0.20140 0.40681
 C570 C 0.39972 0.20218 0.38096
 C571 C 0.36304 0.23057 0.34310
 C572 C 0.34078 0.23311 0.32408
 H573 H 0.39467 0.27638 0.36812
 H574 H 0.43663 0.27527 0.41323
 H575 H 0.43127 0.18031 0.41774
 H576 H 0.38913 0.18180 0.37241
 C577 C 0.72966 0.88877 0.86757
 C578 C 0.75582 0.90255 0.87890
 C579 C 0.75514 0.92641 0.90479
 C580 C 0.72821 0.93683 0.91981
 C581 C 0.70191 0.92327 0.90754
 C582 C 0.70266 0.89931 0.88161
 C583 C 0.73103 0.86279 0.84346
 C584 C 0.73357 0.84057 0.82435
 H585 H 0.77684 0.89447 0.86834
 H586 H 0.77577 0.93635 0.91358
 H587 H 0.68084 0.93074 0.91861
 H588 H 0.68229 0.88869 0.87314
 C589 C 0.23016 0.38941 0.36743
 C590 C 0.20308 0.39989 0.38131
 C591 C 0.20217 0.42385 0.40727
 C592 C 0.22838 0.43748 0.41972
 C593 C 0.25539 0.42709 0.40493
 C594 C 0.25624 0.40323 0.37902
 C595 C 0.23168 0.36359 0.34295
 C596 C 0.23437 0.34158 0.32340
 H597 H 0.18276 0.38926 0.37263
 H598 H 0.18103 0.43129 0.41817
 H599 H 0.27597 0.43707 0.41386
 H600 H 0.27732 0.39523 0.36857
 C601 C 0.26937 0.11034 0.86756
 C602 C 0.29639 0.09878 0.87993
 C603 C 0.29715 0.07471 0.90572
 C604 C 0.27080 0.06198 0.91969
 C605 C 0.24379 0.07348 0.90614
 C606 C 0.24315 0.09745 0.88039
 C607 C 0.26815 0.13640 0.84353
 C608 C 0.26577 0.15870 0.82450
 H609 H 0.31683 0.10869 0.87024
 H610 H 0.31838 0.06654 0.91530
 H611 H 0.22301 0.06436 0.91594
 H612 H 0.22211 0.10630 0.87107
 C613 C 0.77048 0.61051 0.36658
 C614 C 0.79753 0.60010 0.38061
 C615 C 0.79841 0.57619 0.40666
 C616 C 0.77218 0.56254 0.41908
 C617 C 0.74520 0.57285 0.40412
 C618 C 0.74439 0.59666 0.37811
 C619 C 0.76895 0.63633 0.34209
 C620 C 0.76621 0.65834 0.32255
 H621 H 0.81786 0.61077 0.37198
 H622 H 0.81953 0.56880 0.41769
 H623 H 0.72461 0.56285 0.41301
 H624 H 0.72332 0.60462 0.36755
 C625 C 0.11084 0.73055 0.86825
 C626 C 0.09786 0.75677 0.88098
 C627 C 0.07398 0.75613 0.90688
 C628 C 0.06267 0.72912 0.92068
 C629 C 0.07549 0.70277 0.90683
 C630 C 0.09947 0.70354 0.88089
 C631 C 0.13680 0.73180 0.84402
 C632 C 0.15900 0.73425 0.82483
 H633 H 0.10657 0.77781 0.87146
 H634 H 0.06480 0.77691 0.91658
 H635 H 0.06745 0.68155 0.91660
 H636 H 0.10944 0.68309 0.87128
 C637 C 0.61074 0.22989 0.36697
 C638 C 0.59682 0.25595 0.37854
 C639 C 0.57297 0.25508 0.40446
 C640 C 0.56267 0.22805 0.41930
 C641 C 0.57639 0.20185 0.40685
 C642 C 0.60035 0.20280 0.38087
 C643 C 0.63658 0.23146 0.34254
 C644 C 0.65861 0.23418 0.32304
 H645 H 0.60476 0.27704 0.36807
 H646 H 0.56292 0.27564 0.41339
 H647 H 0.56902 0.18071 0.41778
 H648 H 0.61106 0.18249 0.37221
 C649 C 0.88875 0.27000 0.86786
 C650 C 0.90257 0.24386 0.87934
 C651 C 0.92648 0.24460 0.90515
 C652 C 0.93690 0.27157 0.91995
 C653 C 0.92331 0.29784 0.90752
 C654 C 0.89931 0.29703 0.88166
 C655 C 0.86274 0.26861 0.84381
 C656 C 0.84051 0.26610 0.82474
 H657 H 0.89448 0.22282 0.86895
 H658 H 0.93643 0.22399 0.91407
 H659 H 0.93079 0.31895 0.91842
 H660 H 0.88867 0.31739 0.87307
 C661 C 0.38924 0.77005 0.36667
 C662 C 0.39969 0.79710 0.38055
 C663 C 0.42362 0.79798 0.40656
 C664 C 0.43725 0.77175 0.41907
 C665 C 0.42689 0.74475 0.40427
 C666 C 0.40306 0.74395 0.37832
 C667 C 0.36343 0.76854 0.34217
 C668 C 0.34143 0.76585 0.32262
 H669 H 0.38906 0.81744 0.37184
 H670 H 0.43104 0.81910 0.41746
 H671 H 0.43687 0.72416 0.41324
 H672 H 0.39508 0.72288 0.36787
 C673 C 0.27018 0.88923 0.13161
 C674 C 0.24397 0.90299 0.12028
 C675 C 0.24457 0.92691 0.09444
 C676 C 0.27146 0.93742 0.07946
 C677 C 0.29780 0.92388 0.09171
 C678 C 0.29713 0.89986 0.11759
 C679 C 0.26890 0.86321 0.15573
 C680 C 0.26644 0.84098 0.17486
 H681 H 0.22297 0.89484 0.13082
 H682 H 0.22390 0.93682 0.08567
 H683 H 0.31885 0.93142 0.08066
 H684 H 0.31755 0.88927 0.12605
 C685 C 0.76992 0.38907 0.63310
 C686 C 0.74388 0.40304 0.62152
 C687 C 0.74480 0.42686 0.59555
 C688 C 0.77185 0.43708 0.58067
 C689 C 0.79802 0.42331 0.59313
 C690 C 0.79702 0.39938 0.61915
 C691 C 0.76829 0.36326 0.65759
 C692 C 0.76551 0.34127 0.67714
 H693 H 0.72278 0.39516 0.63202
 H694 H 0.72426 0.43695 0.58662
 H695 H 0.81917 0.43062 0.58217
 H696 H 0.81731 0.38863 0.62783
 C697 C 0.73008 0.11031 0.13327
 C698 C 0.70304 0.09964 0.11966
 C699 C 0.70222 0.07557 0.09393
 C700 C 0.72849 0.06202 0.08143
 C701 C 0.75548 0.07255 0.09604
 C702 C 0.75623 0.09653 0.12172
 C703 C 0.73148 0.13640 0.15716
 C704 C 0.73399 0.15870 0.17609
 H705 H 0.68268 0.11026 0.12830
 H706 H 0.68111 0.06801 0.08317
 H707 H 0.77609 0.06262 0.08705
 H708 H 0.77728 0.10470 0.13196
 C709 C 0.22998 0.61114 0.63339
 C710 C 0.20292 0.60067 0.61952
 C711 C 0.20204 0.57674 0.59353
 C712 C 0.22827 0.56310 0.58102
 C713 C 0.25527 0.57347 0.59581
 C714 C 0.25608 0.59731 0.62175
 C715 C 0.23148 0.63696 0.65785
 C716 C 0.23418 0.65898 0.67736
 H717 H 0.18259 0.61131 0.62823
 H718 H 0.18092 0.56931 0.58264
 H719 H 0.27587 0.56349 0.58685
 H720 H 0.27715 0.60530 0.63218
 C721 C 0.88975 0.73005 0.13232
 C722 C 0.90347 0.75624 0.12090
 C723 C 0.92747 0.75560 0.09520
 C724 C 0.93810 0.72868 0.08045
 C725 C 0.92462 0.70235 0.09281
 C726 C 0.90052 0.70306 0.11855
 C727 C 0.86367 0.73134 0.15629
 C728 C 0.84138 0.73379 0.17532
 H729 H 0.89522 0.77725 0.13125
 H730 H 0.93733 0.77626 0.08633
 H731 H 0.93226 0.68128 0.08194
 H732 H 0.88997 0.68266 0.12709
 C733 C 0.38915 0.22956 0.63326
 C734 C 0.40299 0.25565 0.62169
 C735 C 0.42679 0.25483 0.59567
 C736 C 0.43711 0.22784 0.58074
 C737 C 0.42347 0.20162 0.59319
 C738 C 0.39957 0.20250 0.61926
 C739 C 0.36335 0.23109 0.65778
 C740 C 0.34135 0.23384 0.67734
 H741 H 0.39503 0.27671 0.63223
 H742 H 0.43678 0.27542 0.58675
 H743 H 0.43087 0.18050 0.58219
 H744 H 0.38892 0.18217 0.62792
 C745 C 0.11035 0.27043 0.13350
 C746 C 0.09961 0.29742 0.11971
 C747 C 0.07556 0.29814 0.09392
 C748 C 0.06211 0.27182 0.08155
 C749 C 0.07271 0.24489 0.09634
 C750 C 0.09666 0.24424 0.12209
 C751 C 0.13644 0.26912 0.15741
 C752 C 0.15875 0.26663 0.17633
 H753 H 0.11016 0.31782 0.12824
 H754 H 0.06795 0.31922 0.08302
 H755 H 0.06286 0.22424 0.08747
 H756 H 0.10489 0.22322 0.13246
 C757 C 0.61083 0.76969 0.63284
 C758 C 0.60042 0.79678 0.61891
 C759 C 0.57648 0.79773 0.59293
 C760 C 0.56278 0.77155 0.58051
 C761 C 0.57310 0.74452 0.59536
 C762 C 0.59694 0.74363 0.62128
 C763 C 0.63665 0.76811 0.65731
 C764 C 0.65866 0.76538 0.67685
 H765 H 0.61110 0.81708 0.62756
 H766 H 0.56909 0.81887 0.58199
 H767 H 0.56307 0.72396 0.58646
 H768 H 0.60489 0.72254 0.63177
   
