data_POSCAR
  _audit_creation_date              2014-09-24
  _audit_creation_method            'ToBaCCo'
  _symmetry_space_group_name_H-M    'P1'
  _symmetry_Int_Tables_number       1
  _symmetry_cell_setting            triclinic
  loop_
  _symmetry_equiv_pos_as_xyz
 x,y,z
_cell_length_a 62.5964
_cell_length_b 62.7363
_cell_length_c 62.9476
_cell_angle_alpha 89.999500
_cell_angle_beta 89.963900
_cell_angle_gamma 90.001300
loop_
  _atom_site_label
  _atom_site_type_symbol
  _atom_site_fract_x
  _atom_site_fract_y
  _atom_site_fract_z
N1 N 0.28419 0.24100 0.22517
 N2 N 0.27522 0.25793 0.21665
 C3 C 0.28657 0.26383 0.19942
 C4 C 0.30348 0.24985 0.19709
 C5 C 0.30151 0.23558 0.21369
 H6 H 0.28289 0.27726 0.18930
 H7 H 0.31188 0.22222 0.21709
 Cu8 Cu 0.24964 0.27057 0.22899
 Cu9 Cu 0.27271 0.22718 0.25041
 Cu10 Cu 0.22784 0.25005 0.27333
 N11 N 0.22459 0.28340 0.24220
 N12 N 0.21631 0.27540 0.25968
 C13 C 0.19938 0.28725 0.26555
 C14 C 0.19688 0.30349 0.25095
 C15 C 0.21312 0.30061 0.23634
 H16 H 0.18950 0.28422 0.27933
 H17 H 0.21631 0.31037 0.22254
 N18 N 0.24176 0.22432 0.28481
 N19 N 0.25876 0.21553 0.27600
 C20 C 0.26428 0.19813 0.28729
 C21 C 0.25012 0.19594 0.30397
 C22 C 0.23606 0.21278 0.30195
 H23 H 0.27762 0.18777 0.28372
 H24 H 0.22263 0.21624 0.31220
 H25 H 0.24143 0.23682 0.24646
 H26 H 0.25891 0.25431 0.26297
 N27 N 0.71451 -0.24259 0.22516
 N28 N 0.72303 -0.25994 0.21705
 C29 C 0.71158 -0.26596 0.19994
 C30 C 0.69503 -0.25159 0.19725
 C31 C 0.69733 -0.23700 0.21356
 H32 H 0.71508 -0.27961 0.19005
 H33 H 0.68742 -0.22319 0.21658
 Cu34 Cu 0.74861 -0.27243 0.22949
 Cu35 Cu 0.72673 -0.22805 0.24969
 Cu36 Cu 0.77327 -0.24944 0.27087
 N37 N 0.77419 -0.28492 0.24193
 N38 N 0.78446 -0.27508 0.25729
 C39 C 0.80228 -0.28609 0.26208
 C40 C 0.80300 -0.30400 0.24929
 C41 C 0.78488 -0.30285 0.23677
 H42 H 0.81365 -0.28164 0.27424
 H43 H 0.78015 -0.31397 0.22453
 N44 N 0.75929 -0.22373 0.28245
 N45 N 0.74155 -0.21564 0.27446
 C46 C 0.73579 -0.19852 0.28606
 C47 C 0.75054 -0.19581 0.30214
 C48 C 0.76520 -0.21202 0.29941
 H49 H 0.72180 -0.18884 0.28322
 H50 H 0.77903 -0.21511 0.30922
 H51 H 0.75777 -0.23772 0.24441
 H52 H 0.74160 -0.25430 0.26302
 N53 N 0.71632 0.24099 0.77539
 N54 N 0.72533 0.25787 0.78395
 C55 C 0.71416 0.26359 0.80136
 C56 C 0.69726 0.24958 0.80370
 C57 C 0.69910 0.23546 0.78696
 H58 H 0.71787 0.27698 0.81151
 H59 H 0.68867 0.22216 0.78349
 Cu60 Cu 0.75054 0.27078 0.77113
 Cu61 Cu 0.72751 0.22741 0.74987
 Cu62 Cu 0.77236 0.25035 0.72685
 N63 N 0.77594 0.28336 0.75836
 N64 N 0.78412 0.27548 0.74078
 C65 C 0.80113 0.28725 0.73497
 C66 C 0.80382 0.30332 0.74977
 C67 C 0.78760 0.30037 0.76443
 H68 H 0.81088 0.28429 0.72108
 H69 H 0.78447 0.31002 0.77832
 N70 N 0.75818 0.22483 0.71517
 N71 N 0.74120 0.21601 0.72402
 C72 C 0.73553 0.19873 0.71261
 C73 C 0.74958 0.19664 0.69582
 C74 C 0.76370 0.21341 0.69789
 H75 H 0.72221 0.18837 0.71621
 H76 H 0.77710 0.21688 0.68760
 H77 H 0.75883 0.23706 0.75373
 H78 H 0.74130 0.25444 0.73718
 N79 N 0.28492 -0.24301 0.77490
 N80 N 0.27660 -0.26057 0.78279
 C81 C 0.28808 -0.26661 0.79988
 C82 C 0.30445 -0.25209 0.80273
 C83 C 0.30200 -0.23736 0.78659
 H84 H 0.28472 -0.28037 0.80967
 H85 H 0.31175 -0.22341 0.78378
 Cu86 Cu 0.25115 -0.27307 0.77010
 Cu87 Cu 0.27263 -0.22833 0.75047
 Cu88 Cu 0.22609 -0.24977 0.72924
 N89 N 0.22541 -0.28551 0.75793
 N90 N 0.21501 -0.27553 0.74274
 C91 C 0.19711 -0.28647 0.73805
 C92 C 0.19646 -0.30446 0.75074
 C93 C 0.21470 -0.30342 0.76311
 H94 H 0.18565 -0.28191 0.72603
 H95 H 0.21951 -0.31464 0.77525
 N96 N 0.24000 -0.22396 0.71775
 N97 N 0.25773 -0.21585 0.72578
 C98 C 0.26344 -0.19868 0.71424
 C99 C 0.24869 -0.19594 0.69817
 C100 C 0.23406 -0.21220 0.70083
 H101 H 0.27743 -0.18899 0.71708
 H102 H 0.22026 -0.21530 0.69100
 H103 H 0.24168 -0.23824 0.75573
 H104 H 0.25785 -0.25443 0.73680
 N105 N 0.71624 -0.24153 0.77563
 N106 N 0.72531 -0.25834 0.78425
 C107 C 0.71412 -0.26408 0.80164
 C108 C 0.69719 -0.25012 0.80393
 C109 C 0.69900 -0.23602 0.78717
 H110 H 0.71786 -0.27744 0.81184
 H111 H 0.68855 -0.22276 0.78367
 Cu112 Cu 0.75059 -0.27120 0.77154
 Cu113 Cu 0.72741 -0.22794 0.75012
 Cu114 Cu 0.77219 -0.25090 0.72707
 N115 N 0.77586 -0.28384 0.75862
 N116 N 0.78394 -0.27602 0.74097
 C117 C 0.80089 -0.28782 0.73509
 C118 C 0.80364 -0.30385 0.74990
 C119 C 0.78751 -0.30087 0.76465
 H120 H 0.81058 -0.28489 0.72116
 H121 H 0.78444 -0.31049 0.77858
 N122 N 0.75804 -0.22539 0.71542
 N123 N 0.74109 -0.21655 0.72428
 C124 C 0.73541 -0.19929 0.71287
 C125 C 0.74944 -0.19723 0.69607
 C126 C 0.76356 -0.21400 0.69812
 H127 H 0.72210 -0.18892 0.71647
 H128 H 0.77693 -0.21750 0.68781
 H129 H 0.74119 -0.25502 0.73752
 H130 H 0.75873 -0.23752 0.75390
 N131 N 0.28446 0.24147 0.77492
 N132 N 0.27619 0.25903 0.78282
 C133 C 0.28756 0.26491 0.80002
 C134 C 0.30382 0.25030 0.80291
 C135 C 0.30141 0.23565 0.78672
 H136 H 0.28429 0.27872 0.80977
 H137 H 0.31118 0.22172 0.78385
 Cu138 Cu 0.25127 0.27250 0.77005
 Cu139 Cu 0.27246 0.22728 0.75022
 Cu140 Cu 0.22632 0.24888 0.72886
 N141 N 0.22518 0.28415 0.75785
 N142 N 0.21492 0.27425 0.74252
 C143 C 0.19700 0.28514 0.73783
 C144 C 0.19619 0.30296 0.75068
 C145 C 0.21431 0.30191 0.76315
 H146 H 0.18564 0.28071 0.72567
 H147 H 0.21898 0.31311 0.77535
 N148 N 0.24035 0.22335 0.71711
 N149 N 0.25797 0.21515 0.72523
 C150 C 0.26372 0.19801 0.71367
 C151 C 0.24908 0.19540 0.69748
 C152 C 0.23449 0.21169 0.70010
 H153 H 0.27758 0.18818 0.71666
 H154 H 0.22070 0.21482 0.69025
 H155 H 0.25806 0.25377 0.73669
 H156 H 0.24166 0.23772 0.75567
 N157 N 0.28415 -0.24127 0.22483
 N158 N 0.27512 -0.25811 0.21623
 C159 C 0.28634 -0.26387 0.19887
 C160 C 0.30327 -0.24991 0.19659
 C161 C 0.30141 -0.23578 0.21331
 H162 H 0.28260 -0.27724 0.18869
 H163 H 0.31186 -0.22250 0.21681
 Cu164 Cu 0.24979 -0.27095 0.22885
 Cu165 Cu 0.27290 -0.22763 0.25026
 Cu166 Cu 0.22798 -0.25049 0.27315
 N167 N 0.22447 -0.28354 0.24173
 N168 N 0.21626 -0.27561 0.25927
 C169 C 0.19925 -0.28737 0.26507
 C170 C 0.19661 -0.30346 0.25035
 C171 C 0.21284 -0.30058 0.23572
 H172 H 0.18946 -0.28440 0.27892
 H173 H 0.21595 -0.31029 0.22186
 N174 N 0.24211 -0.22499 0.28482
 N175 N 0.25912 -0.21619 0.27603
 C176 C 0.26477 -0.19893 0.28746
 C177 C 0.25066 -0.19683 0.30419
 C178 C 0.23652 -0.21358 0.30208
 H179 H 0.27812 -0.18858 0.28392
 H180 H 0.22310 -0.21706 0.31233
 H181 H 0.25905 -0.25470 0.26285
 H182 H 0.24160 -0.23723 0.24631
 N183 N 0.71475 0.24140 0.22544
 N184 N 0.72330 0.25874 0.21732
 C185 C 0.71187 0.26474 0.20020
 C186 C 0.69531 0.25041 0.19755
 C187 C 0.69757 0.23584 0.21385
 H188 H 0.71535 0.27838 0.19028
 H189 H 0.68761 0.22208 0.21686
 Cu190 Cu 0.74881 0.27127 0.22978
 Cu191 Cu 0.72684 0.22699 0.25008
 Cu192 Cu 0.77314 0.24863 0.27152
 N193 N 0.77431 0.28381 0.24227
 N194 N 0.78438 0.27418 0.25789
 C195 C 0.80209 0.28531 0.26279
 C196 C 0.80294 0.30300 0.24977
 C197 C 0.78506 0.30165 0.23699
 H198 H 0.81332 0.28108 0.27514
 H199 H 0.78051 0.31265 0.22457
 N200 N 0.75915 0.22295 0.28311
 N201 N 0.74152 0.21475 0.27498
 C202 C 0.73578 0.19760 0.28655
 C203 C 0.75043 0.19499 0.30273
 C204 C 0.76501 0.21129 0.30011
 H205 H 0.72187 0.18782 0.28362
 H206 H 0.77877 0.21445 0.31000
 H207 H 0.74153 0.25335 0.26336
 H208 H 0.75791 0.23668 0.24501
 C209 C 0.25979 0.06489 0.51148
 C210 C 0.25980 0.06492 0.48970
 C211 C 0.25337 0.04475 0.48338
 N212 N 0.24939 0.03242 0.50055
 C213 C 0.25335 0.04470 0.51775
 C214 C 0.25020 0.03835 0.46211
 C215 C 0.24662 0.01693 0.45613
 C216 C 0.23878 0.01052 0.43655
 C217 C 0.23876 -0.01138 0.43656
 C218 C 0.24659 -0.01779 0.45615
 N219 N 0.25136 -0.00043 0.46800
 C220 C 0.25017 -0.03921 0.46214
 C221 C 0.25335 -0.04565 0.48339
 C222 C 0.25981 -0.06583 0.48965
 C223 C 0.25981 -0.06586 0.51143
 C224 C 0.25337 -0.04570 0.51776
 N225 N 0.24939 -0.03338 0.50059
 C226 C 0.25024 -0.03930 0.53903
 C227 C 0.24669 -0.01788 0.54503
 C228 C 0.23888 -0.01147 0.56464
 C229 C 0.23885 0.01043 0.56463
 C230 C 0.24664 0.01683 0.54501
 N231 N 0.25140 -0.00052 0.53316
 C232 C 0.25017 0.03826 0.53901
 H233 H 0.26409 0.07821 0.52152
 H234 H 0.26413 0.07826 0.47969
 H235 H 0.25961 -0.00051 0.51879
 H236 H 0.23359 0.02057 0.42356
 H237 H 0.23357 -0.02143 0.42358
 H238 H 0.26414 -0.07915 0.47961
 H239 H 0.26414 -0.07921 0.52144
 H240 H 0.23366 0.02048 0.57762
 H241 H 0.25959 -0.00044 0.48233
 H242 H 0.23372 -0.02152 0.57764
 C243 C 0.73980 0.06482 0.48906
 C244 C 0.73979 0.06485 0.51083
 C245 C 0.74622 0.04468 0.51715
 N246 N 0.75018 0.03235 0.49997
 C247 C 0.74622 0.04464 0.48278
 C248 C 0.74940 0.03827 0.53841
 C249 C 0.75293 0.01684 0.54440
 C250 C 0.76076 0.01043 0.56399
 C251 C 0.76076 -0.01148 0.56398
 C252 C 0.75293 -0.01788 0.54438
 N253 N 0.74819 -0.00051 0.53253
 C254 C 0.74937 -0.03930 0.53838
 C255 C 0.74619 -0.04573 0.51711
 C256 C 0.73974 -0.06591 0.51084
 C257 C 0.73974 -0.06593 0.48906
 C258 C 0.74618 -0.04577 0.48274
 N259 N 0.75015 -0.03345 0.49991
 C260 C 0.74931 -0.03936 0.46147
 C261 C 0.75286 -0.01793 0.45547
 C262 C 0.76067 -0.01153 0.43587
 C263 C 0.76071 0.01038 0.43589
 C264 C 0.75292 0.01677 0.45551
 N265 N 0.74815 -0.00058 0.46736
 C266 C 0.74939 0.03819 0.46152
 H267 H 0.73550 0.07815 0.47902
 H268 H 0.73547 0.07819 0.52084
 H269 H 0.73994 -0.00057 0.48172
 H270 H 0.76595 0.02047 0.57698
 H271 H 0.76594 -0.02153 0.57695
 H272 H 0.73541 -0.07923 0.52087
 H273 H 0.73541 -0.07927 0.47905
 H274 H 0.76590 0.02043 0.42291
 H275 H 0.73998 -0.00051 0.51818
 H276 H 0.76583 -0.02157 0.42286
 C277 C 0.51081 0.26031 0.06505
 C278 C 0.48891 0.26030 0.06507
 C279 C 0.48258 0.25387 0.04497
 N280 N 0.49985 0.24991 0.03270
 C281 C 0.51713 0.25387 0.04494
 C282 C 0.46119 0.25068 0.03860
 C283 C 0.45517 0.24715 0.01725
 C284 C 0.43546 0.23937 0.01085
 C285 C 0.43548 0.23937 -0.01098
 C286 C 0.45521 0.24716 -0.01735
 N287 N 0.46712 0.25188 -0.00005
 C288 C 0.46126 0.25074 -0.03869
 C289 C 0.48265 0.25393 -0.04509
 C290 C 0.48897 0.26042 -0.06518
 C291 C 0.51088 0.26042 -0.06520
 C292 C 0.51721 0.25392 -0.04512
 N293 N 0.49993 0.24992 -0.03286
 C294 C 0.53860 0.25074 -0.03875
 C295 C 0.54461 0.24717 -0.01740
 C296 C 0.56430 0.23935 -0.01102
 C297 C 0.56428 0.23933 0.01081
 C298 C 0.54457 0.24715 0.01719
 N299 N 0.53267 0.25190 -0.00010
 C300 C 0.53851 0.25068 0.03854
 H301 H 0.52089 0.26463 0.07833
 H302 H 0.47883 0.26462 0.07837
 H303 H 0.51824 0.26010 -0.00010
 H304 H 0.42238 0.23421 0.02086
 H305 H 0.42242 0.23422 -0.02100
 H306 H 0.47889 0.26479 -0.07844
 H307 H 0.52095 0.26480 -0.07848
 H308 H 0.57733 0.23415 0.02083
 H309 H 0.48156 0.26004 -0.00005
 H310 H 0.57737 0.23417 -0.02103
 C311 C 0.48940 0.73905 0.06546
 C312 C 0.51130 0.73904 0.06545
 C313 C 0.51763 0.74547 0.04534
 N314 N 0.50035 0.74944 0.03309
 C315 C 0.48307 0.74548 0.04535
 C316 C 0.53901 0.74864 0.03894
 C317 C 0.54502 0.75216 0.01757
 C318 C 0.56473 0.75993 0.01114
 C319 C 0.56467 0.75997 -0.01069
 C320 C 0.54493 0.75221 -0.01703
 N321 N 0.53304 0.74747 0.00030
 C322 C 0.53885 0.74868 -0.03837
 C323 C 0.51745 0.74552 -0.04474
 C324 C 0.51112 0.73911 -0.06485
 C325 C 0.48922 0.73913 -0.06484
 C326 C 0.48289 0.74555 -0.04473
 N327 N 0.50018 0.74949 -0.03247
 C328 C 0.46151 0.74869 -0.03831
 C329 C 0.45551 0.75222 -0.01695
 C330 C 0.43581 0.76000 -0.01051
 C331 C 0.43587 0.76001 0.01132
 C332 C 0.45560 0.75224 0.01765
 N333 N 0.46749 0.74752 0.00032
 C334 C 0.46168 0.74868 0.03898
 H335 H 0.47932 0.73474 0.07876
 H336 H 0.52138 0.73473 0.07873
 H337 H 0.48194 0.73935 0.00029
 H338 H 0.57782 0.76506 0.02113
 H339 H 0.57772 0.76513 -0.02073
 H340 H 0.52119 0.73479 -0.07814
 H341 H 0.47914 0.73484 -0.07813
 H342 H 0.42282 0.76516 0.02137
 H343 H 0.51859 0.73931 0.00031
 H344 H 0.42271 0.76513 -0.02049
 C345 C 0.06557 0.51101 0.24254
 C346 C 0.06561 0.48914 0.24256
 C347 C 0.04493 0.48279 0.24730
 N348 N 0.03237 0.50003 0.25038
 C349 C 0.04488 0.51731 0.24728
 C350 C 0.03839 0.46155 0.25085
 C351 C 0.01687 0.45590 0.25474
 C352 C 0.01011 0.43672 0.26338
 C353 C -0.01184 0.43689 0.26293
 C354 C -0.01795 0.45595 0.25356
 N355 N -0.00034 0.46752 0.24880
 C356 C -0.03912 0.46161 0.24799
 C357 C -0.04480 0.48286 0.24314
 C358 C -0.06336 0.48914 0.23292
 C359 C -0.06338 0.51101 0.23287
 C360 C -0.04485 0.51737 0.24311
 N361 N -0.03345 0.50013 0.24925
 C362 C -0.03922 0.53865 0.24798
 C363 C -0.01803 0.54423 0.25361
 C364 C -0.01187 0.56321 0.26313
 C365 C 0.01008 0.56331 0.26358
 C366 C 0.01679 0.54418 0.25481
 N367 N -0.00044 0.53264 0.24879
 C368 C 0.03829 0.53852 0.25087
 H369 H 0.07941 0.52102 0.24000
 H370 H 0.07947 0.47917 0.24003
 H371 H -0.00014 0.51892 0.23951
 H372 H 0.01985 0.42380 0.26931
 H373 H -0.02202 0.42423 0.26871
 H374 H -0.07554 0.47910 0.22597
 H375 H -0.07557 0.52098 0.22585
 H376 H 0.01985 0.57617 0.26961
 H377 H -0.00005 0.48130 0.23960
 H378 H -0.02201 0.57584 0.26905
 C379 C 0.06240 0.48905 0.76720
 C380 C 0.06243 0.51091 0.76725
 C381 C 0.04388 0.51729 0.75705
 N382 N 0.03246 0.50006 0.75093
 C383 C 0.04381 0.48278 0.75701
 C384 C 0.03825 0.53857 0.75220
 C385 C 0.01706 0.54419 0.74662
 C386 C 0.01091 0.56320 0.73716
 C387 C -0.01104 0.56332 0.73671
 C388 C -0.01778 0.54416 0.74542
 N389 N -0.00055 0.53260 0.75140
 C390 C -0.03929 0.53850 0.74931
 C391 C -0.04589 0.51727 0.75284
 C392 C -0.06659 0.51096 0.75754
 C393 C -0.06663 0.48910 0.75751
 C394 C -0.04595 0.48274 0.75281
 N395 N -0.03338 0.49999 0.74976
 C396 C -0.03941 0.46149 0.74928
 C397 C -0.01789 0.45583 0.74542
 C398 C -0.01112 0.43663 0.73682
 C399 C 0.01083 0.43680 0.73727
 C400 C 0.01694 0.45587 0.74661
 N401 N -0.00067 0.46746 0.75134
 C402 C 0.03812 0.46153 0.75216
 H403 H 0.07460 0.47900 0.77411
 H404 H 0.07464 0.52088 0.77425
 H405 H -0.00096 0.48125 0.76051
 H406 H 0.02105 0.57584 0.73126
 H407 H -0.02079 0.57621 0.73072
 H408 H -0.08043 0.52097 0.76008
 H409 H -0.08051 0.47913 0.76001
 H410 H 0.02100 0.42412 0.73152
 H411 H -0.00086 0.51884 0.76064
 H412 H -0.02084 0.42369 0.73091
 C413 C 0.35024 0.25000 0.14956
 N414 N 0.35093 0.23549 0.16555
 N415 N 0.33605 0.23547 0.18069
 C416 C 0.31996 0.24998 0.18043
 N417 N 0.31929 0.26451 0.16446
 N418 N 0.33415 0.26451 0.14930
 C419 C 0.36665 0.24999 0.13285
 N420 N 0.36552 0.26391 0.11637
 N421 N 0.38044 0.26391 0.10126
 C422 C 0.39706 0.25003 0.10210
 N423 N 0.39818 0.23611 0.11858
 N424 N 0.38324 0.23607 0.13366
 C425 C 0.41361 0.25012 0.08555
 N426 N 0.43087 0.23712 0.08712
 N427 N 0.44597 0.23728 0.07220
 C428 C 0.44434 0.25042 0.05514
 N429 N 0.42703 0.26337 0.05352
 N430 N 0.41196 0.26325 0.06848
 C431 C 0.64960 0.74873 0.15013
 N432 N 0.64939 0.76374 0.16565
 N433 N 0.66412 0.76363 0.18092
 C434 C 0.67959 0.74846 0.18130
 N435 N 0.67977 0.73341 0.16577
 N436 N 0.66507 0.73356 0.15046
 C437 C 0.63332 0.74887 0.13333
 N438 N 0.63425 0.73473 0.11702
 N439 N 0.61941 0.73485 0.10184
 C440 C 0.60308 0.74908 0.10244
 N441 N 0.60215 0.76321 0.11876
 N442 N 0.61701 0.76313 0.13390
 C443 C 0.58659 0.74911 0.08585
 N444 N 0.56940 0.76221 0.08738
 N445 N 0.55431 0.76210 0.07247
 C446 C 0.55588 0.74889 0.05544
 N447 N 0.57312 0.73586 0.05385
 N448 N 0.58818 0.73594 0.06880
 C449 C 0.65012 0.25000 -0.14915
 N450 N 0.64943 0.23557 -0.16520
 N451 N 0.66447 0.23542 -0.18019
 C452 C 0.68073 0.24973 -0.17970
 N453 N 0.68141 0.26419 -0.16367
 N454 N 0.66640 0.26431 -0.14865
 C455 C 0.63355 0.25011 -0.13261
 N456 N 0.63469 0.26391 -0.11603
 N457 N 0.61967 0.26395 -0.10102
 C458 C 0.60294 0.25021 -0.10205
 N459 N 0.60179 0.23643 -0.11864
 N460 N 0.61683 0.23636 -0.13363
 C461 C 0.58632 0.25028 -0.08557
 N462 N 0.56901 0.23736 -0.08726
 N463 N 0.55386 0.23750 -0.07240
 C464 C 0.55548 0.25054 -0.05527
 N465 N 0.57284 0.26340 -0.05351
 N466 N 0.58797 0.26330 -0.06841
 C467 C 0.35065 0.74846 -0.14926
 N468 N 0.33498 0.73350 -0.14934
 N469 N 0.32029 0.73327 -0.16466
 C470 C 0.32071 0.74804 -0.18042
 N471 N 0.33636 0.76301 -0.18032
 N472 N 0.35108 0.76320 -0.16505
 C473 C 0.36695 0.74867 -0.13247
 N474 N 0.38331 0.76287 -0.13315
 N475 N 0.39820 0.76299 -0.11803
 C476 C 0.39725 0.74896 -0.10164
 N477 N 0.38086 0.73479 -0.10092
 N478 N 0.36599 0.73464 -0.11607
 C479 C 0.41380 0.74900 -0.08510
 N480 N 0.41227 0.73586 -0.06803
 N481 N 0.42738 0.73582 -0.05313
 C482 C 0.44461 0.74887 -0.05479
 N483 N 0.44611 0.76204 -0.07184
 N484 N 0.43097 0.76212 -0.08671
 C485 C 0.14960 0.35063 0.25083
 N486 N 0.15141 0.33688 0.26739
 N487 N 0.16646 0.32187 0.26741
 C488 C 0.18034 0.32012 0.25092
 N489 N 0.17858 0.33390 0.23438
 N490 N 0.16345 0.34885 0.23432
 C491 C 0.13294 0.36712 0.25082
 N492 N 0.12961 0.37940 0.23337
 N493 N 0.11447 0.39434 0.23337
 C494 C 0.10218 0.39760 0.25086
 N495 N 0.10554 0.38535 0.26831
 N496 N 0.12060 0.37035 0.26827
 C497 C 0.08556 0.41412 0.25089
 N498 N 0.07487 0.41901 0.26902
 N499 N 0.05984 0.43406 0.26905
 C500 C 0.05485 0.44463 0.25091
 N501 N 0.06555 0.43976 0.23278
 N502 N 0.08065 0.42480 0.23278
 C503 C 0.15002 0.64925 0.75165
 N504 N 0.14719 0.66743 0.74031
 N505 N 0.16234 0.68235 0.73987
 C506 C 0.18073 0.67980 0.75103
 N507 N 0.18347 0.66166 0.76249
 N508 N 0.16847 0.64658 0.76265
 C509 C 0.13339 0.63277 0.75200
 N510 N 0.13859 0.61199 0.75504
 N511 N 0.12349 0.59701 0.75509
 C512 C 0.10264 0.60232 0.75246
 N513 N 0.09743 0.62313 0.74960
 N514 N 0.11255 0.63807 0.74921
 C515 C 0.08602 0.58584 0.75255
 N516 N 0.06573 0.59061 0.75846
 N517 N 0.05067 0.57561 0.75859
 C518 C 0.05519 0.55533 0.75245
 N519 N 0.07552 0.55068 0.74640
 N520 N 0.09067 0.56558 0.74661
 C521 C -0.15069 0.64958 0.24850
 N522 N -0.16906 0.64702 0.23734
 N523 N -0.18402 0.66214 0.23747
 C524 C -0.18131 0.68022 0.24904
 N525 N -0.16300 0.68265 0.26036
 N526 N -0.14790 0.66769 0.25995
 C527 C -0.13411 0.63306 0.24818
 N528 N -0.11328 0.63828 0.25114
 N529 N -0.09819 0.62330 0.25072
 C530 C -0.10345 0.60253 0.24768
 N531 N -0.12430 0.59729 0.24490
 N532 N -0.13935 0.61231 0.24496
 C533 C -0.08688 0.58600 0.24756
 N534 N -0.09160 0.56574 0.25342
 N535 N -0.07648 0.55080 0.25364
 C536 C -0.05612 0.55543 0.24768
 N537 N -0.05153 0.57571 0.24161
 N538 N -0.06656 0.59075 0.24172
 C539 C -0.15008 0.34997 0.74968
 N540 N -0.16442 0.34866 0.76582
 N541 N -0.17940 0.33356 0.76584
 C542 C -0.18052 0.31913 0.74978
 N543 N -0.16612 0.32043 0.73368
 N544 N -0.15122 0.33560 0.73361
 C545 C -0.13359 0.36664 0.74960
 N546 N -0.12095 0.36957 0.73230
 N547 N -0.10600 0.38467 0.73220
 C548 C -0.10304 0.39734 0.74944
 N549 N -0.11565 0.39439 0.76676
 N550 N -0.13069 0.37936 0.76681
 C551 C -0.08648 0.41393 0.74936
 N552 N -0.08174 0.42480 0.76740
 N553 N -0.06669 0.43981 0.76736
 C554 C -0.05587 0.44455 0.74926
 N555 N -0.06069 0.43377 0.73119
 N556 N -0.07566 0.41867 0.73126
 C557 C 0.24995 0.14870 0.35088
 N558 N 0.26443 0.14813 0.33482
 N559 N 0.26448 0.16317 0.31987
 C560 C 0.25003 0.17930 0.32041
 N561 N 0.23553 0.17985 0.33645
 N562 N 0.23550 0.16484 0.35142
 C563 C 0.24991 0.13216 0.36740
 N564 N 0.23603 0.13326 0.38395
 N565 N 0.23600 0.11828 0.39896
 C566 C 0.24982 0.10164 0.39795
 N567 N 0.26369 0.10053 0.38139
 N568 N 0.26375 0.11553 0.36641
 C569 C 0.24983 0.08517 0.41453
 N570 N 0.26290 0.06796 0.41298
 N571 N 0.26298 0.05308 0.42807
 C572 C 0.25006 0.05489 0.44531
 N573 N 0.23696 0.07208 0.44684
 N574 N 0.23684 0.08693 0.43172
 C575 C 0.74974 0.14919 0.64912
 N576 N 0.73526 0.14870 0.66518
 N577 N 0.73519 0.16383 0.68004
 C578 C 0.74961 0.17998 0.67939
 N579 N 0.76410 0.18046 0.66334
 N580 N 0.76415 0.16535 0.64846
 C581 C 0.74981 0.13253 0.63271
 N582 N 0.76369 0.13352 0.61616
 N583 N 0.76372 0.11846 0.60123
 C584 C 0.74989 0.10183 0.60233
 N585 N 0.73603 0.10081 0.61890
 N586 N 0.73597 0.11589 0.63380
 C587 C 0.74986 0.08527 0.58583
 N588 N 0.73678 0.06809 0.58745
 N589 N 0.73668 0.05313 0.57243
 C590 C 0.74961 0.05485 0.55519
 N591 N 0.76273 0.07202 0.55358
 N592 N 0.76286 0.08695 0.56863
 C593 C 0.24918 -0.14930 0.65065
 N594 N 0.23420 -0.16495 0.65060
 N595 N 0.23400 -0.17977 0.66577
 C596 C 0.24882 -0.17951 0.68151
 N597 N 0.26382 -0.16388 0.68154
 N598 N 0.26398 -0.14903 0.66641
 C599 C 0.24937 -0.13292 0.63396
 N600 N 0.26357 -0.11658 0.63469
 N601 N 0.26369 -0.10167 0.61961
 C602 C 0.24964 -0.10259 0.60321
 N603 N 0.23547 -0.11896 0.60245
 N604 N 0.23532 -0.13384 0.61756
 C605 C 0.24976 -0.08616 0.58658
 N606 N 0.23668 -0.08782 0.56946
 N607 N 0.23684 -0.07296 0.55435
 C608 C 0.25006 -0.05586 0.55582
 N609 N 0.26309 -0.05416 0.57298
 N610 N 0.26297 -0.06906 0.58806
 C611 C 0.75008 -0.14926 0.34975
 N612 N 0.76506 -0.16491 0.34976
 N613 N 0.76523 -0.17971 0.33457
 C614 C 0.75040 -0.17942 0.31884
 N615 N 0.73540 -0.16380 0.31886
 N616 N 0.73526 -0.14897 0.33401
 C617 C 0.74994 -0.13289 0.36645
 N618 N 0.73575 -0.11653 0.36576
 N619 N 0.73568 -0.10164 0.38085
 C620 C 0.74976 -0.10259 0.39723
 N621 N 0.76392 -0.11896 0.39794
 N622 N 0.76403 -0.13382 0.38282
 C623 C 0.74967 -0.08618 0.41388
 N624 N 0.76278 -0.08786 0.43097
 N625 N 0.76265 -0.07301 0.44610
 C626 C 0.74944 -0.05591 0.44467
 N627 N 0.73639 -0.05418 0.42753
 N628 N 0.73648 -0.06906 0.41243
 C629 C 0.65014 0.74956 -0.14887
 N630 N 0.66637 0.73521 -0.14840
 N631 N 0.68136 0.73529 -0.16344
 C632 C 0.68067 0.74975 -0.17947
 N633 N 0.66445 0.76411 -0.17993
 N634 N 0.64945 0.76401 -0.16491
 C635 C 0.63361 0.74948 -0.13231
 N636 N 0.61694 0.76330 -0.13325
 N637 N 0.60193 0.76322 -0.11824
 C638 C 0.60306 0.74937 -0.10172
 N639 N 0.61974 0.73557 -0.10076
 N640 N 0.63473 0.73561 -0.11579
 C641 C 0.58648 0.74926 -0.08522
 N642 N 0.58810 0.73613 -0.06816
 N643 N 0.57299 0.73598 -0.05325
 C644 C 0.55568 0.74891 -0.05490
 N645 N 0.55408 0.76207 -0.07195
 N646 N 0.56921 0.76225 -0.08683
 C647 C 0.35028 0.25013 -0.14938
 N648 N 0.35072 0.23536 -0.16513
 N649 N 0.33590 0.23540 -0.18030
 C650 C 0.32013 0.25025 -0.18032
 N651 N 0.31969 0.26504 -0.16458
 N652 N 0.33448 0.26497 -0.14937
 C653 C 0.36665 0.25010 -0.13268
 N654 N 0.36561 0.26413 -0.11629
 N655 N 0.38053 0.26413 -0.10120
 C656 C 0.39705 0.25014 -0.10199
 N657 N 0.39809 0.23611 -0.11838
 N658 N 0.38315 0.23607 -0.13343
 C659 C 0.41362 0.25023 -0.08549
 N660 N 0.43085 0.23719 -0.08709
 N661 N 0.44598 0.23735 -0.07223
 C662 C 0.44441 0.25054 -0.05520
 N663 N 0.42714 0.26353 -0.05355
 N664 N 0.41203 0.26340 -0.06845
 C665 C 0.35037 0.74968 0.14945
 N666 N 0.33414 0.73533 0.14899
 N667 N 0.31914 0.73544 0.16402
 C668 C 0.31980 0.74993 0.18002
 N669 N 0.33602 0.76428 0.18047
 N670 N 0.35104 0.76415 0.16547
 C671 C 0.36690 0.74958 0.13289
 N672 N 0.38357 0.76340 0.13383
 N673 N 0.39859 0.76331 0.11883
 C674 C 0.39746 0.74944 0.10232
 N675 N 0.38078 0.73564 0.10136
 N676 N 0.36578 0.73570 0.11639
 C677 C 0.41405 0.74931 0.08583
 N678 N 0.41243 0.73617 0.06878
 N679 N 0.42754 0.73600 0.05387
 C680 C 0.44485 0.74893 0.05551
 N681 N 0.44646 0.76210 0.07255
 N682 N 0.43132 0.76230 0.08743
 C683 C 0.64902 0.25022 0.14968
 N684 N 0.66491 0.26496 0.14963
 N685 N 0.67964 0.26506 0.16490
 C686 C 0.67903 0.25040 0.18076
 N687 N 0.66316 0.23565 0.18079
 N688 N 0.64841 0.23558 0.16555
 C689 C 0.63273 0.25014 0.13291
 N690 N 0.61623 0.23612 0.13363
 N691 N 0.60137 0.23609 0.11849
 C692 C 0.60250 0.25005 0.10205
 N693 N 0.61902 0.26405 0.10131
 N694 N 0.63385 0.26411 0.11648
 C695 C 0.58602 0.25008 0.08547
 N696 N 0.58768 0.26324 0.06842
 N697 N 0.57264 0.26336 0.05346
 C698 C 0.55535 0.25039 0.05506
 N699 N 0.55371 0.23720 0.07208
 N700 N 0.56879 0.23703 0.08700
 C701 C -0.15015 0.64967 0.74973
 N702 N -0.16443 0.65096 0.76592
 N703 N -0.17946 0.66600 0.76597
 C704 C -0.18069 0.68038 0.74988
 N705 N -0.16635 0.67909 0.73372
 N706 N -0.15140 0.66399 0.73362
 C707 C -0.13361 0.63308 0.74963
 N708 N -0.12104 0.63016 0.73229
 N709 N -0.10603 0.61510 0.73218
 C710 C -0.10298 0.60250 0.74945
 N711 N -0.11553 0.60545 0.76680
 N712 N -0.13061 0.62043 0.76687
 C713 C -0.08638 0.58598 0.74937
 N714 N -0.08154 0.57522 0.76744
 N715 N -0.06646 0.56024 0.76741
 C716 C -0.05573 0.55543 0.74929
 N717 N -0.06065 0.56610 0.73118
 N718 N -0.07565 0.58116 0.73124
 C719 C -0.15016 0.35039 0.24893
 N720 N -0.17008 0.35445 0.24146
 N721 N -0.18500 0.33930 0.24160
 C722 C -0.18061 0.31966 0.24951
 N723 N -0.16074 0.31564 0.25713
 N724 N -0.14573 0.33070 0.25670
 C725 C -0.13367 0.36698 0.24857
 N726 N -0.11265 0.36167 0.24884
 N727 N -0.09766 0.37674 0.24838
 C728 C -0.10317 0.39766 0.24793
 N729 N -0.12419 0.40298 0.24780
 N730 N -0.13917 0.38790 0.24796
 C731 C -0.08667 0.41424 0.24771
 N732 N -0.09123 0.43432 0.25429
 N733 N -0.07615 0.44929 0.25442
 C734 C -0.05599 0.44486 0.24769
 N735 N -0.05156 0.42478 0.24090
 N736 N -0.06655 0.40972 0.24105
 C737 C 0.14918 0.35027 0.75144
 N738 N 0.14474 0.33051 0.74383
 N739 N 0.15977 0.31548 0.74343
 C740 C 0.17969 0.31958 0.75092
 N741 N 0.18409 0.33929 0.75864
 N742 N 0.16915 0.35442 0.75876
 C743 C 0.13268 0.36686 0.75176
 N744 N 0.13817 0.38779 0.75226
 N745 N 0.12317 0.40286 0.75233
 C746 C 0.10215 0.39753 0.75221
 N747 N 0.09666 0.37660 0.75187
 N748 N 0.11166 0.36153 0.75150
 C749 C 0.08564 0.41411 0.75237
 N750 N 0.06554 0.40962 0.75908
 N751 N 0.05056 0.42469 0.75924
 C752 C 0.05499 0.44476 0.75242
 N753 N 0.07513 0.44917 0.74563
 N754 N 0.09020 0.43418 0.74574
 C755 C 0.14949 0.64932 0.25053
 N756 N 0.15143 0.66298 0.26713
 N757 N 0.16643 0.67804 0.26703
 C758 C 0.18008 0.67993 0.25038
 N759 N 0.17818 0.66623 0.23379
 N760 N 0.16312 0.65122 0.23384
 C761 C 0.13288 0.63280 0.25061
 N762 N 0.12935 0.62065 0.23312
 N763 N 0.11420 0.60574 0.23318
 C764 C 0.10209 0.60237 0.25076
 N765 N 0.10566 0.61448 0.26828
 N766 N 0.12074 0.62946 0.26819
 C767 C 0.08544 0.58591 0.25083
 N768 N 0.07491 0.58090 0.26902
 N769 N 0.05987 0.56588 0.26908
 C770 C 0.05472 0.55544 0.25090
 N771 N 0.06524 0.56045 0.23271
 N772 N 0.08035 0.57540 0.23268
 C773 C 0.74960 -0.14992 0.64928
 N774 N 0.73511 -0.14939 0.66533
 N775 N 0.73504 -0.16448 0.68022
 C776 C 0.74947 -0.18063 0.67962
 N777 N 0.76396 -0.18115 0.66358
 N778 N 0.76401 -0.16608 0.64866
 C779 C 0.74967 -0.13332 0.63283
 N780 N 0.76357 -0.13435 0.61631
 N781 N 0.76359 -0.11934 0.60134
 C782 C 0.74974 -0.10272 0.60237
 N783 N 0.73585 -0.10167 0.61892
 N784 N 0.73580 -0.11671 0.63387
 C785 C 0.74972 -0.08622 0.58584
 N786 N 0.73661 -0.06906 0.58739
 N787 N 0.73654 -0.05412 0.57235
 C788 C 0.74954 -0.05585 0.55516
 N789 N 0.76268 -0.07300 0.55362
 N790 N 0.76278 -0.08791 0.56869
 C791 C 0.25036 -0.14960 0.35106
 N792 N 0.26490 -0.14905 0.33506
 N793 N 0.26502 -0.16411 0.32014
 C794 C 0.25058 -0.18024 0.32066
 N795 N 0.23603 -0.18078 0.33664
 N796 N 0.23593 -0.16575 0.35158
 C797 C 0.25024 -0.13304 0.36754
 N798 N 0.23628 -0.13412 0.38402
 N799 N 0.23620 -0.11913 0.39901
 C800 C 0.25004 -0.10250 0.39804
 N801 N 0.26398 -0.10141 0.38155
 N802 N 0.26409 -0.11642 0.36657
 C803 C 0.24998 -0.08603 0.41460
 N804 N 0.26307 -0.06884 0.41310
 N805 N 0.26309 -0.05394 0.42817
 C806 C 0.25006 -0.05573 0.44533
 N807 N 0.23694 -0.07290 0.44682
 N808 N 0.23689 -0.08777 0.43172
 C809 C 0.75011 0.14826 0.35011
 N810 N 0.76501 0.16398 0.35022
 N811 N 0.76514 0.17884 0.33511
 C812 C 0.75033 0.17856 0.31936
 N813 N 0.73541 0.16286 0.31927
 N814 N 0.73531 0.14796 0.33435
 C815 C 0.75001 0.13184 0.36674
 N816 N 0.73584 0.11547 0.36599
 N817 N 0.73579 0.10054 0.38104
 C818 C 0.74988 0.10146 0.39740
 N819 N 0.76402 0.11784 0.39817
 N820 N 0.76410 0.13275 0.38309
 C821 C 0.74981 0.08502 0.41400
 N822 N 0.76296 0.08666 0.43106
 N823 N 0.76283 0.07179 0.44617
 C824 C 0.74956 0.05473 0.44474
 N825 N 0.73647 0.05304 0.42763
 N826 N 0.73657 0.06794 0.41255
 C827 C 0.24946 0.14862 0.65014
 N828 N 0.23455 0.16433 0.65000
 N829 N 0.23440 0.17921 0.66510
 C830 C 0.24919 0.17894 0.68087
 N831 N 0.26412 0.16325 0.68099
 N832 N 0.26423 0.14834 0.66591
 C833 C 0.24955 0.13215 0.63356
 N834 N 0.26369 0.11576 0.63437
 N835 N 0.26371 0.10076 0.61939
 C836 C 0.24961 0.10162 0.60303
 N837 N 0.23549 0.11803 0.60220
 N838 N 0.23544 0.13300 0.61721
 C839 C 0.24967 0.08513 0.58649
 N840 N 0.23653 0.08673 0.56941
 N841 N 0.23669 0.07185 0.55432
 C842 C 0.24996 0.05479 0.55579
 N843 N 0.26302 0.05313 0.57292
 N844 N 0.26291 0.06805 0.58797
   
