data_POSCAR
  _audit_creation_date              2014-09-24
  _audit_creation_method            'ToBaCCo'
  _symmetry_space_group_name_H-M    'P1'
  _symmetry_Int_Tables_number       1
  _symmetry_cell_setting            triclinic
  loop_
  _symmetry_equiv_pos_as_xyz
 x,y,z
_cell_length_a 10.7546
_cell_length_b 10.6391
_cell_length_c 10.7241
_cell_angle_alpha 87.117000
_cell_angle_beta 91.440200
_cell_angle_gamma 91.870100
loop_
  _atom_site_label
  _atom_site_type_symbol
  _atom_site_fract_x
  _atom_site_fract_y
  _atom_site_fract_z
Si1 Si -0.01433 0.47401 0.25538
 Si2 Si 0.00458 0.50703 0.74635
 Si3 Si 0.25708 -0.00402 0.52890
 Si4 Si 0.76054 0.01648 0.50986
 Si5 Si 0.50906 0.24615 1.00322
 Si6 Si 0.49888 0.76043 0.98206
 B7 B 1.00892 1.11491 0.09156
 B8 B 1.09571 0.98256 0.13105
 B9 B 0.93393 0.97665 0.14045
 B10 B 0.87342 1.06697 0.02103
 B11 B 0.99173 1.13109 -0.06496
 B12 B 1.12872 1.07917 -0.00070
 B13 B 0.99266 0.87472 -0.08191
 B14 B 0.91048 1.00439 -0.11469
 B15 B 1.06604 1.01216 -0.12618
 B16 B 1.12727 0.91859 -0.01064
 B17 B 1.00720 0.85699 0.07625
 B18 B 0.87414 0.90911 0.01056
 B19 B 0.61901 0.52033 0.40179
 B20 B 0.62900 0.51723 0.56047
 B21 B 0.57073 0.64380 0.47808
 B22 B 0.48618 0.59167 0.35546
 B23 B 0.49123 0.43326 0.35858
 B24 B 0.57925 0.38496 0.48472
 B25 B 0.37146 0.49873 0.56698
 B26 B 0.36468 0.50369 0.40960
 B27 B 0.42153 0.37560 0.48984
 B28 B 0.50600 0.42692 0.61500
 B29 B 0.49882 0.58671 0.60978
 B30 B 0.41356 0.63283 0.48324
 C31 C 0.95268 1.32947 0.16374
 C32 C 1.02685 1.23176 0.17406
 H33 H 0.87770 1.33602 0.09495
 H34 H 1.10535 1.23274 0.23920
 C35 C 0.98727 0.61251 0.12763
 C36 C 1.01828 0.73126 0.15666
 H37 H 1.03780 0.53262 0.17315
 H38 H 0.96344 0.67186 0.09574
 C39 C 1.03894 1.36490 -0.14469
 C40 C 0.96850 1.25894 -0.14610
 H41 H 1.11507 1.37499 -0.07770
 H42 H 0.88897 1.25679 -0.20991
 C43 C 0.99584 0.64371 -0.14375
 C44 C 0.98251 0.76438 -0.17890
 H45 H 0.99730 0.57626 -0.21045
 H46 H 0.96873 0.78925 -0.27751
 C47 C 1.16399 1.01469 0.37018
 C48 C 1.19724 0.96820 0.26496
 H49 H 1.23632 1.01482 0.43193
 H50 H 1.14699 0.97534 0.19880
 C51 C 1.15532 0.95262 -0.32679
 C52 C 1.13268 1.04164 -0.25053
 H53 H 1.20810 0.97492 -0.39855
 H54 H 1.16459 1.13808 -0.27154
 C55 C 0.83858 1.04148 0.35040
 C56 C 0.86941 0.95084 0.27431
 H57 H 0.86085 1.13828 0.32388
 H58 H 0.85568 0.85330 0.30556
 C59 C 0.87220 1.02549 -0.34995
 C60 C 0.82425 1.01152 -0.23563
 H61 H 0.81734 1.02673 -0.42995
 H62 H 0.72450 0.99914 -0.22420
 C63 C 1.36053 1.14638 0.04559
 C64 C 1.25350 1.16317 -0.01856
 H65 H 1.36810 1.07561 0.12120
 H66 H 1.25461 1.23184 -0.09617
 C67 C 0.65253 1.14368 -0.03247
 C68 C 0.75004 1.13603 0.04609
 H69 H 0.57320 1.16845 0.00825
 H70 H 0.74079 1.16885 0.13930
 C71 C 1.35714 0.87532 -0.04599
 C72 C 1.24355 0.83255 -0.01676
 H73 H 1.43066 0.83114 -0.00716
 H74 H 1.23312 0.73838 0.02650
 C75 C 0.64374 0.84912 0.04281
 C76 C 0.75445 0.82135 0.00105
 H77 H 0.63231 0.92351 0.10641
 H78 H 0.76098 0.74162 -0.05717
 C79 C 0.84603 0.49026 0.36303
 C80 C 0.73785 0.53288 0.31839
 H81 H 0.92243 0.48712 0.31022
 H82 H 0.72849 0.56860 0.22203
 C83 C 0.13385 0.44743 0.35614
 C84 C 0.23974 0.51009 0.32814
 H85 H 0.12794 0.38131 0.43617
 H86 H 0.24025 0.57469 0.24667
 C87 C 0.85677 0.46731 0.64876
 C88 C 0.75700 0.54087 0.64086
 H89 H 0.85584 0.38103 0.59911
 H90 H 0.76344 0.62699 0.69084
 C91 C 0.14275 0.53891 0.63742
 C92 C 0.25018 0.47757 0.65227
 H93 H 0.13200 0.61191 0.56437
 H94 H 0.25519 0.40406 0.72550
 C95 C 0.46358 0.64409 0.11805
 C96 C 0.47713 0.68207 0.23406
 H97 H 0.44055 0.54828 0.09671
 H98 H 0.48970 0.78222 0.24659
 C99 C 0.54936 0.65822 0.84115
 C100 C 0.48741 0.66486 0.72954
 H101 H 0.52465 0.71146 0.91802
 H102 H 0.56445 0.62349 0.78213
 C103 C 0.55490 0.33615 0.15000
 C104 C 0.47097 0.35357 0.23689
 H105 H 0.64882 0.37439 0.15772
 H106 H 0.37712 0.31738 0.21994
 C107 C 0.47251 0.36747 0.85941
 C108 C 0.51979 0.34752 0.74427
 H109 H 0.48309 0.30784 0.94375
 H110 H 0.46611 0.40647 0.79951
 C111 C 0.67765 0.85645 0.54162
 C112 C 0.64527 0.77593 0.45421
 H113 H 0.65759 0.83201 0.63836
 H114 H 0.66624 0.80315 0.35865
 C115 C 0.64896 0.15141 0.53113
 C116 C 0.66036 0.26308 0.46750
 H117 H 0.58957 0.14023 0.61045
 H118 H 0.72613 0.27146 0.39300
 C119 C 0.36845 0.86197 0.52654
 C120 C 0.33240 0.75414 0.47570
 H121 H 0.45053 0.87046 0.58488
 H122 H 0.24398 0.74910 0.42496
 C123 C 0.34726 0.14942 0.56442
 C124 C 0.34512 0.24653 0.48092
 H125 H 0.39414 0.15530 0.65431
 H126 H 0.29068 0.23543 0.39582
   
