data_POSCAR
  _audit_creation_date              2014-09-24
  _audit_creation_method            'ToBaCCo'
  _symmetry_space_group_name_H-M    'P1'
  _symmetry_Int_Tables_number       1
  _symmetry_cell_setting            triclinic
  loop_
  _symmetry_equiv_pos_as_xyz
 x,y,z
_cell_length_a 23.8129
_cell_length_b 30.9341
_cell_length_c 23.8313
_cell_angle_alpha 89.956000
_cell_angle_beta 89.849200
_cell_angle_gamma 89.953100
loop_
  _atom_site_label
  _atom_site_type_symbol
  _atom_site_fract_x
  _atom_site_fract_y
  _atom_site_fract_z
C1 C 0.28584 0.29590 0.21321
 C2 C 0.25033 0.27324 0.24993
 C3 C 0.21494 0.29601 0.28664
 C4 C 0.21508 0.34128 0.28663
 C5 C 0.25056 0.36380 0.24993
 C6 C 0.28593 0.34118 0.21323
 C7 C 0.25020 0.22576 0.24995
 C8 C 0.28696 0.20295 0.28509
 C9 C 0.28676 0.15768 0.28517
 C10 C 0.24982 0.13520 0.25011
 C11 C 0.21307 0.15787 0.21497
 C12 C 0.21324 0.20314 0.21489
 H13 H 0.31321 0.27832 0.18482
 H14 H 0.18749 0.27852 0.31503
 H15 H 0.31552 0.22042 0.31222
 H16 H 0.18481 0.22076 0.18772
 H17 H 0.25065 0.39886 0.24993
 H18 H 0.24968 0.10013 0.25018
 C19 C 0.78490 0.79781 0.21281
 C20 C 0.74987 0.77502 0.24984
 C21 C 0.71475 0.79762 0.28697
 C22 C 0.71461 0.84292 0.28707
 C23 C 0.74968 0.86561 0.25004
 C24 C 0.78484 0.84311 0.21292
 C25 C 0.75004 0.72752 0.24980
 C26 C 0.78652 0.70484 0.28539
 C27 C 0.78669 0.65956 0.28533
 C28 C 0.75039 0.63697 0.24977
 C29 C 0.71390 0.65950 0.21422
 C30 C 0.71374 0.70478 0.21419
 H31 H 0.81204 0.78022 0.18418
 H32 H 0.68771 0.77989 0.31555
 H33 H 0.81460 0.72240 0.31291
 H34 H 0.68552 0.72229 0.18670
 H35 H 0.74961 0.90072 0.25013
 H36 H 0.75052 0.60190 0.24976
 C37 C 0.78510 0.29589 0.71459
 C38 C 0.74984 0.27325 0.75156
 C39 C 0.71459 0.29602 0.78842
 C40 C 0.71460 0.34133 0.78828
 C41 C 0.74990 0.36382 0.75130
 C42 C 0.78512 0.34116 0.71450
 C43 C 0.74983 0.22575 0.75163
 C44 C 0.78640 0.20302 0.78708
 C45 C 0.78649 0.15771 0.78704
 C46 C 0.74995 0.13517 0.75155
 C47 C 0.71340 0.15780 0.71615
 C48 C 0.71334 0.20307 0.71617
 H49 H 0.81235 0.27830 0.68611
 H50 H 0.68735 0.27843 0.81695
 H51 H 0.81461 0.22065 0.81444
 H52 H 0.68509 0.22063 0.68876
 H53 H 0.75003 0.39890 0.75108
 H54 H 0.74989 0.10009 0.75139
 C55 C 0.28644 0.79716 0.71293
 C56 C 0.25088 0.77444 0.74952
 C57 C 0.21522 0.79713 0.78605
 C58 C 0.21512 0.84240 0.78601
 C59 C 0.25064 0.86502 0.74942
 C60 C 0.28632 0.84247 0.71284
 C61 C 0.25093 0.72695 0.74954
 C62 C 0.28787 0.70422 0.78459
 C63 C 0.28784 0.65894 0.78462
 C64 C 0.25094 0.63640 0.74960
 C65 C 0.21403 0.65899 0.71457
 C66 C 0.21400 0.70427 0.71454
 H67 H 0.31396 0.77953 0.68470
 H68 H 0.18773 0.77956 0.81433
 H69 H 0.31641 0.72173 0.81168
 H70 H 0.18544 0.72182 0.68744
 H71 H 0.25043 0.90011 0.74949
 H72 H 0.25094 0.60133 0.74963
 C73 C 0.07597 0.06590 0.02322
 H74 H 0.07775 0.06829 -0.02204
 C75 C 0.11001 0.09241 0.05619
 H76 H 0.13828 0.11523 0.03635
 C77 C 0.03728 0.03310 0.10457
 H78 H 0.00853 0.01032 0.12338
 C79 C 0.07053 0.05901 0.13905
 H80 H 0.06774 0.05571 0.18423
 N81 N 0.04138 0.03635 0.04772
 C82 C 0.02183 -0.06532 -0.07781
 H83 H -0.02346 -0.06762 -0.07972
 C84 C 0.05506 -0.09184 -0.11182
 H85 H 0.03540 -0.11457 -0.14020
 C86 C 0.10298 -0.03280 -0.03877
 H87 H 0.12161 -0.01015 -0.00988
 C88 C 0.13771 -0.05872 -0.07198
 H89 H 0.18291 -0.05554 -0.06901
 Zn90 Zn -0.00166 0.00022 0.00015
 N91 N 0.04611 -0.03591 -0.04304
 C92 C -0.04041 0.03354 -0.10415
 N93 N -0.04472 0.03653 -0.04731
 C94 C -0.07944 0.06600 -0.02276
 C95 C -0.11335 0.09271 -0.05570
 C96 C -0.07353 0.05966 -0.13860
 C97 C -0.02485 -0.06561 0.07780
 C98 C -0.05792 -0.09223 0.11183
 C99 C -0.14077 -0.05892 0.07245
 C100 C -0.10619 -0.03290 0.03920
 N101 N -0.04930 -0.03606 0.04325
 H102 H -0.01157 0.01084 -0.12299
 H103 H -0.08137 0.06819 0.02251
 H104 H -0.14169 0.11548 -0.03583
 H105 H -0.07055 0.05657 -0.18380
 H106 H 0.02045 -0.06794 0.07954
 H107 H -0.03812 -0.11506 0.14005
 H108 H -0.18598 -0.05569 0.06969
 H109 H -0.12495 -0.01012 0.01050
 C110 C 0.11352 -0.08819 -0.10920
 C111 C 0.10760 0.08861 0.11461
 C112 C -0.11640 -0.08853 0.10946
 C113 C -0.11068 0.08920 -0.11414
 C114 C 0.07751 0.56613 0.52317
 H115 H 0.07928 0.56839 0.47790
 C116 C 0.11141 0.59283 0.55601
 H117 H 0.13960 0.61565 0.53606
 C118 C 0.03886 0.53351 0.60468
 H119 H 0.01017 0.51074 0.62359
 C120 C 0.07199 0.55961 0.63903
 H121 H 0.06917 0.55646 0.68423
 N122 N 0.04298 0.53660 0.54782
 C123 C 0.02287 0.43472 0.42278
 H124 H -0.02244 0.43254 0.42106
 C125 C 0.05584 0.40792 0.38893
 H126 H 0.03597 0.38510 0.36082
 C127 C 0.10431 0.46720 0.46129
 H128 H 0.12314 0.48994 0.48993
 C129 C 0.13880 0.44099 0.42821
 H130 H 0.18403 0.44404 0.43101
 Zn131 Zn -0.00013 0.50043 0.50043
 N132 N 0.04743 0.46422 0.45723
 C133 C -0.03890 0.53375 0.39618
 N134 N -0.04326 0.53669 0.45303
 C135 C -0.07793 0.56617 0.47760
 C136 C -0.11171 0.59299 0.44467
 C137 C -0.07189 0.55997 0.36175
 C138 C -0.02296 0.43458 0.57801
 C139 C -0.05585 0.40770 0.61184
 C140 C -0.13891 0.44085 0.57264
 C141 C -0.10450 0.46713 0.53958
 N142 N -0.04760 0.46415 0.54361
 H143 H -0.01008 0.51102 0.37734
 H144 H -0.07989 0.56833 0.52287
 H145 H -0.14000 0.61579 0.46455
 H146 H -0.06885 0.55694 0.31655
 H147 H 0.02235 0.43241 0.57970
 H148 H -0.03592 0.38484 0.63991
 H149 H -0.18415 0.44390 0.56988
 H150 H -0.12339 0.48993 0.51099
 C151 C 0.11432 0.41138 0.39137
 C152 C 0.10893 0.58923 0.61445
 C153 C -0.11435 0.41116 0.60943
 C154 C -0.10896 0.58956 0.38623
 C155 C 0.57827 0.06494 0.52358
 H156 H 0.58032 0.06721 0.47832
 C157 C 0.61199 0.09164 0.55663
 H158 H 0.64030 0.11446 0.53686
 C159 C 0.53912 0.03235 0.60485
 H160 H 0.51030 0.00960 0.62360
 C161 C 0.57204 0.05845 0.63941
 H162 H 0.56892 0.05530 0.68459
 N163 N 0.54359 0.03542 0.54802
 C164 C 0.52410 -0.06649 0.42275
 H165 H 0.47881 -0.06883 0.42102
 C166 C 0.55724 -0.09298 0.38862
 H167 H 0.53750 -0.11574 0.36034
 C168 C 0.60534 -0.03381 0.46137
 H169 H 0.62404 -0.01107 0.49011
 C170 C 0.63999 -0.05970 0.42803
 H171 H 0.68520 -0.05643 0.43076
 Zn172 Zn 0.50069 -0.00082 0.50044
 N173 N 0.54847 -0.03700 0.45735
 C174 C 0.46197 0.03230 0.39600
 N175 N 0.45766 0.03540 0.45284
 C176 C 0.42293 0.06491 0.47728
 C177 C 0.38900 0.09154 0.44425
 C178 C 0.42883 0.05833 0.36146
 C179 C 0.47732 -0.06650 0.57829
 C180 C 0.44415 -0.09304 0.61233
 C181 C 0.36142 -0.05983 0.57257
 C182 C 0.39609 -0.03389 0.53932
 N183 N 0.45296 -0.03703 0.54355
 H184 H 0.49082 0.00956 0.37724
 H185 H 0.42099 0.06719 0.52254
 H186 H 0.36064 0.11433 0.46404
 H187 H 0.43182 0.05515 0.31628
 H188 H 0.52261 -0.06881 0.58017
 H189 H 0.46387 -0.11580 0.64070
 H190 H 0.31622 -0.05661 0.56966
 H191 H 0.37741 -0.01118 0.51047
 C192 C 0.61570 -0.08923 0.39095
 C193 C 0.60915 0.08806 0.61507
 C194 C 0.38569 -0.08935 0.60978
 C195 C 0.39165 0.08790 0.38582
 C196 C 0.57929 0.56567 0.02209
 H197 H 0.58133 0.56775 -0.02319
 C198 C 0.61294 0.59255 0.05495
 H199 H 0.64121 0.61532 0.03503
 C200 C 0.54014 0.53339 0.10358
 H201 H 0.51133 0.51070 0.12247
 C202 C 0.57300 0.55967 0.13795
 H203 H 0.56985 0.55673 0.18316
 N204 N 0.54461 0.53624 0.04673
 C205 C 0.52448 0.43402 -0.07792
 H206 H 0.47917 0.43192 -0.07968
 C207 C 0.55741 0.40704 -0.11158
 H208 H 0.53750 0.38417 -0.13959
 C209 C 0.60597 0.46648 -0.03949
 H210 H 0.62483 0.48929 -0.01096
 C211 C 0.64042 0.44009 -0.07238
 H212 H 0.68565 0.44308 -0.06956
 Zn213 Zn 0.50155 0.49997 -0.00061
 N214 N 0.54908 0.46359 -0.04360
 C215 C 0.46270 0.53306 -0.10501
 N216 N 0.45851 0.53617 -0.04817
 C217 C 0.42399 0.56578 -0.02364
 C218 C 0.39018 0.59255 -0.05659
 C219 C 0.42966 0.55923 -0.13948
 C220 C 0.47844 0.43436 0.07724
 C221 C 0.44541 0.40759 0.11109
 C222 C 0.36251 0.44071 0.07154
 C223 C 0.39706 0.46688 0.03846
 N224 N 0.45393 0.46386 0.04264
 H225 H 0.49138 0.51022 -0.12383
 H226 H 0.42216 0.56805 0.02163
 H227 H 0.36201 0.61544 -0.03673
 H228 H 0.43254 0.55607 -0.18467
 H229 H 0.52374 0.43214 0.07906
 H230 H 0.46524 0.38477 0.13931
 H231 H 0.31729 0.44380 0.06863
 H232 H 0.37827 0.48963 0.00972
 C233 C 0.61590 0.41039 -0.10907
 C234 C 0.61004 0.58923 0.11341
 C235 C 0.38693 0.41109 0.10851
 C236 C 0.39274 0.58895 -0.11502
 C237 C 0.17872 -0.13411 -0.17656
 C238 C 0.14871 -0.11363 -0.14561
 C239 C 0.17897 0.36493 0.32415
 C240 C 0.14922 0.38563 0.35508
 C241 C 0.68053 -0.13491 0.32295
 C242 C 0.65074 -0.11454 0.35425
 C243 C 0.68049 0.36375 -0.17617
 C244 C 0.65076 0.38451 -0.14525
 C245 C -0.17804 0.13538 -0.17879
 C246 C -0.14706 0.11481 -0.14902
 C247 C -0.17596 0.63599 0.32156
 C248 C -0.14514 0.61531 0.35135
 C249 C 0.32430 0.13404 0.32115
 C250 C 0.35528 0.11345 0.35088
 C251 C 0.32547 0.63532 -0.17949
 C252 C 0.35645 0.61465 -0.14986
 C253 C -0.18113 -0.13454 0.17718
 C254 C -0.15137 -0.11402 0.14601
 C255 C -0.17884 0.36470 0.67679
 C256 C -0.14916 0.38538 0.64576
 C257 C 0.32064 -0.13524 0.67733
 C258 C 0.35057 -0.11477 0.64628
 C259 C 0.32214 0.36473 0.17570
 C260 C 0.35197 0.38538 0.14478
 C261 C 0.17532 0.13443 0.17910
 C262 C 0.14416 0.11399 0.14947
 C263 C 0.17636 0.63544 0.67875
 C264 C 0.14532 0.61484 0.64919
 C265 C 0.67608 0.13426 0.67992
 C266 C 0.64530 0.11368 0.65006
 C267 C 0.67672 0.63585 0.17800
 C268 C 0.64605 0.61509 0.14824
   
