data_POSCAR
  _audit_creation_date              2014-09-24
  _audit_creation_method            'ToBaCCo'
  _symmetry_space_group_name_H-M    'P1'
  _symmetry_Int_Tables_number       1
  _symmetry_cell_setting            triclinic
  loop_
  _symmetry_equiv_pos_as_xyz
 x,y,z
_cell_length_a 45.7919
_cell_length_b 43.7807
_cell_length_c 8.1656
_cell_angle_alpha 89.809100
_cell_angle_beta 90.043300
_cell_angle_gamma 90.067000
loop_
  _atom_site_label
  _atom_site_type_symbol
  _atom_site_fract_x
  _atom_site_fract_y
  _atom_site_fract_z
O1 O 0.22860 0.27667 -0.01554
 O2 O 0.28314 0.21860 0.09905
 O3 O 0.22780 0.21765 0.02216
 O4 O 0.28381 0.27767 0.06767
 O5 O 0.27245 0.28247 0.32940
 O6 O 0.21672 0.22262 0.28418
 O7 O 0.27203 0.22340 0.36112
 O8 O 0.21743 0.28142 0.24646
 Cu9 Cu 0.25711 0.24711 0.01756
 Cu10 Cu 0.24340 0.25305 0.33094
 C11 C 0.21354 0.28868 0.09760
 C12 C 0.28700 0.21130 0.24779
 C13 C 0.21264 0.21019 0.14613
 C14 C 0.28774 0.29000 0.20633
 O15 O 0.78455 0.27866 0.42459
 O16 O 0.72924 0.21897 0.49802
 O17 O 0.78383 0.21944 0.40405
 O18 O 0.72967 0.27822 0.51327
 O19 O 0.71679 0.28094 0.25258
 O20 O 0.77067 0.22229 0.14386
 O21 O 0.71616 0.22186 0.23773
 O22 O 0.77152 0.28146 0.16418
 Cu23 Cu 0.75827 0.24851 0.48582
 Cu24 Cu 0.74238 0.25194 0.17378
 C25 C 0.78756 0.28996 0.28242
 C26 C 0.71311 0.21058 0.38001
 C27 C 0.78658 0.21113 0.25618
 C28 C 0.71385 0.28929 0.40007
 O29 O 0.71781 0.71799 0.74911
 O30 O 0.77153 0.77698 0.85773
 O31 O 0.71705 0.77709 0.76329
 O32 O 0.77260 0.71781 0.83757
 O33 O 0.78558 0.72063 0.57721
 O34 O 0.73013 0.78000 0.50308
 O35 O 0.78467 0.77983 0.59760
 O36 O 0.73065 0.72074 0.48846
 Cu37 Cu 0.74334 0.74715 0.82771
 Cu38 Cu 0.75921 0.75060 0.51575
 C39 C 0.71485 0.70963 0.60162
 C40 C 0.78739 0.78821 0.74541
 C41 C 0.71401 0.78834 0.62094
 C42 C 0.78867 0.70939 0.71948
 O43 O 0.21714 0.77683 0.71597
 O44 O 0.27237 0.71669 0.66802
 O45 O 0.21737 0.71797 0.75127
 O46 O 0.27234 0.77581 0.63843
 O47 O 0.28361 0.78024 0.90059
 O48 O 0.22870 0.72232 1.01334
 O49 O 0.28389 0.72113 0.92984
 O50 O 0.22836 0.78140 0.97816
 Cu51 Cu 0.24353 0.74628 0.66777
 Cu52 Cu 0.25744 0.75175 0.98130
 C53 C 0.21324 0.78912 0.85448
 C54 C 0.28769 0.70896 0.79072
 C55 C 0.21348 0.71056 0.89989
 C56 C 0.28743 0.78772 0.75207
 C57 C 0.99854 0.08152 0.06292
 C58 C 1.02476 0.06542 0.06442
 C59 C 1.02473 0.03367 0.04506
 C60 C 0.99846 0.01751 0.01415
 C61 C 0.97220 0.03462 0.00916
 C62 C 0.97227 0.06614 0.03781
 C63 C 0.99849 -0.01666 -0.01204
 C64 C 0.97227 -0.03390 -0.00711
 C65 C 0.97240 -0.06542 -0.03557
 C66 C 0.99871 -0.08068 -0.06047
 C67 C 1.02489 -0.06445 -0.06214
 C68 C 1.02479 -0.03270 -0.04290
 H69 H 0.99858 0.10604 0.08186
 H70 H 1.04546 0.02218 0.05563
 H71 H 0.95141 0.02409 -0.01680
 H72 H 0.95146 -0.02347 0.01874
 H73 H 0.99879 -0.10520 -0.07925
 H74 H 1.04550 -0.02111 -0.05360
 C75 C 0.49969 0.58063 0.55417
 C76 C 0.52535 0.56556 0.51032
 C77 C 0.52513 0.53397 0.48509
 C78 C 0.49938 0.51678 0.50999
 C79 C 0.47375 0.53237 0.55706
 C80 C 0.47385 0.56414 0.57612
 C81 C 0.49934 0.48286 0.48806
 C82 C 0.47370 0.46727 0.44036
 C83 C 0.47375 0.43550 0.42147
 C84 C 0.49952 0.41902 0.44418
 C85 C 0.52519 0.43407 0.48873
 C86 C 0.52504 0.46567 0.51377
 H87 H 0.49985 0.60517 0.57210
 H88 H 0.54511 0.52306 0.44580
 H89 H 0.45369 0.52003 0.58080
 H90 H 0.45369 0.47961 0.41603
 H91 H 0.49963 0.39446 0.42646
 H92 H 0.54503 0.47658 0.55347
 C93 C -0.00040 0.41942 0.04365
 C94 C -0.02621 0.43581 0.06629
 C95 C -0.02614 0.46770 0.05198
 C96 C -0.00037 0.48357 0.00857
 C97 C 0.02538 0.46645 -0.01694
 C98 C 0.02543 0.43469 0.00382
 C99 C -0.00030 0.51768 -0.00911
 C100 C 0.02555 0.53474 0.01576
 C101 C 0.02572 0.56651 -0.00503
 C102 C -0.00009 0.58183 -0.04421
 C103 C -0.02599 0.56550 -0.06619
 C104 C -0.02605 0.53361 -0.05193
 H105 H -0.00038 0.39478 0.05816
 H106 H -0.04621 0.47986 0.07663
 H107 H 0.04551 0.47748 -0.05332
 H108 H 0.04567 0.52366 0.05161
 H109 H 0.00003 0.60647 -0.05868
 H110 H -0.04618 0.52150 -0.07614
 C111 C 0.49945 0.91864 0.54227
 C112 C 0.47338 0.93481 0.55791
 C113 C 0.47338 0.96673 0.54567
 C114 C 0.49936 0.98291 0.50899
 C115 C 0.52538 0.96588 0.48930
 C116 C 0.52548 0.93412 0.51025
 C117 C 0.49936 1.01715 0.49226
 C118 C 0.52539 1.03425 0.51180
 C119 C 0.52549 1.06600 0.49079
 C120 C 0.49945 1.08143 0.45897
 C121 C 0.47336 1.06519 0.44346
 C122 C 0.47337 1.03327 0.45574
 H123 H 0.49952 0.89398 0.55610
 H124 H 0.45303 0.97855 0.56671
 H125 H 0.54574 0.97687 0.45739
 H126 H 0.54577 1.02330 0.54347
 H127 H 0.49951 1.10609 0.44522
 H128 H 0.45301 1.02140 0.43474
 C129 C 1.14553 0.15115 0.11320
 C130 C 1.13234 0.14859 -0.05896
 C131 C 1.10840 0.13015 -0.06595
 C132 C 1.09998 0.11608 0.09994
 C133 C 1.09635 0.14336 0.21552
 C134 C 1.12027 0.16178 0.22253
 C135 C 1.15161 0.11810 0.16675
 C136 C 1.12762 0.09962 0.15976
 C137 C 1.17093 0.17149 0.12134
 C138 C 1.19099 0.18924 0.13095
 C139 C 1.07388 0.09674 0.09144
 C140 C 1.05178 0.08190 0.08134
 H141 H 1.14107 0.16017 -0.16604
 H142 H 1.09662 0.12594 -0.17912
 H143 H 1.07672 0.14778 0.28610
 H144 H 1.12113 0.18198 0.29913
 H145 H 1.17284 0.10994 0.20667
 H146 H 1.12828 0.07564 0.19365
 C147 C 0.64663 0.65083 0.52597
 C148 C 0.62027 0.66685 0.44771
 C149 C 0.59609 0.64881 0.43716
 C150 C 0.60064 0.61650 0.50588
 C151 C 0.61146 0.62122 0.68185
 C152 C 0.63560 0.63924 0.69238
 C153 C 0.65134 0.62192 0.42328
 C154 C 0.62710 0.60383 0.41271
 C155 C 0.67225 0.67071 0.54156
 C156 C 0.69234 0.68801 0.56381
 C157 C 0.57432 0.59746 0.49818
 C158 C 0.55219 0.58255 0.49961
 H159 H 0.62057 0.69031 0.40418
 H160 H 0.57569 0.65682 0.38468
 H161 H 0.60111 0.61121 0.78896
 H162 H 0.64592 0.64464 0.80853
 H163 H 0.67185 0.61617 0.36446
 H164 H 0.62683 0.58256 0.34476
 C165 C -0.14494 0.35008 0.20493
 C166 C -0.14384 0.36407 0.03247
 C167 C -0.12030 0.38257 0.00723
 C168 C -0.10015 0.38526 0.15694
 C169 C -0.09202 0.35226 0.20115
 C170 C -0.11552 0.33379 0.22633
 C171 C -0.14362 0.37745 0.32196
 C172 C -0.12004 0.39597 0.29671
 C173 C -0.16996 0.32969 0.23183
 C174 C -0.18978 0.31202 0.25434
 C175 C -0.07449 0.40466 0.12843
 C176 C -0.05278 0.41948 0.10192
 H177 H -0.16015 0.35988 -0.06143
 H178 H -0.11644 0.39422 -0.10832
 H179 H -0.06971 0.34411 0.21207
 H180 H -0.11334 0.30982 0.25852
 H181 H -0.15978 0.38191 0.41608
 H182 H -0.11600 0.41629 0.36915
 C183 C 0.35452 0.84775 0.66480
 C184 C 0.37956 0.84132 0.78518
 C185 C 0.40302 0.86006 0.76486
 C186 C 0.39922 0.88344 0.62616
 C187 C 0.37090 0.90053 0.66715
 C188 C 0.34737 0.88174 0.68747
 C189 C 0.36840 0.84561 0.49426
 C190 C 0.39190 0.86437 0.47395
 C191 C 0.32957 0.82714 0.68857
 C192 C 0.30986 0.80947 0.71373
 C193 C 0.42486 0.90314 0.60421
 C194 C 0.44664 0.91822 0.58463
 H195 H 0.37890 0.82361 0.87849
 H196 H 0.42244 0.85840 0.84075
 H197 H 0.36946 0.92517 0.67908
 H198 H 0.32576 0.89029 0.71678
 H199 H 0.36045 0.83074 0.39785
 H200 H 0.40408 0.86555 0.36010
 C201 C -0.14483 0.65090 -0.20404
 C202 C -0.13757 0.64587 -0.02247
 C203 C -0.11399 0.62750 0.00273
 C204 C -0.09994 0.61595 -0.15610
 C205 C -0.09297 0.64488 -0.25521
 C206 C -0.11654 0.66324 -0.28036
 C207 C -0.14847 0.61869 -0.27529
 C208 C -0.12484 0.60029 -0.25006
 C209 C -0.16991 0.67114 -0.23100
 C210 C -0.18979 0.68871 -0.25366
 C211 C -0.07424 0.59666 -0.12773
 C212 C -0.05253 0.58186 -0.10144
 H213 H -0.14990 0.65581 0.07755
 H214 H -0.10612 0.62171 0.12439
 H215 H -0.07141 0.65045 -0.30185
 H216 H -0.11515 0.68453 -0.34848
 H217 H -0.16787 0.61102 -0.33973
 H218 H -0.12398 0.57686 -0.29295
 C219 C 0.35419 1.15158 0.33606
 C220 C 0.34970 1.11928 0.26743
 C221 C 0.37331 1.10066 0.28788
 C222 C 0.39905 1.11620 0.37488
 C223 C 0.38635 1.12818 0.53642
 C224 C 0.36276 1.14679 0.51600
 C225 C 0.38200 1.16345 0.25239
 C226 C 0.40554 1.14488 0.27275
 C227 C 0.32916 1.17202 0.31212
 C228 C 0.30941 1.18960 0.28668
 C229 C 0.42478 1.09667 0.39701
 C230 C 0.44660 1.08171 0.41671
 H231 H 0.32975 1.11170 0.20820
 H232 H 0.37360 1.07715 0.24613
 H233 H 0.39506 1.12247 0.65633
 H234 H 0.35127 1.15700 0.61832
 H235 H 0.38309 1.18460 0.18283
 H236 H 0.42678 1.15014 0.22066
 C237 C 1.14538 -0.15026 -0.11106
 C238 C 1.14873 -0.12062 -0.21060
 C239 C 1.12484 -0.10207 -0.20355
 C240 C 1.10002 -0.11504 -0.09770
 C241 C 1.11396 -0.12136 0.07015
 C242 C 1.13781 -0.13988 0.06310
 C243 C 1.11737 -0.16517 -0.17637
 C244 C 1.09356 -0.14668 -0.16934
 C245 C 1.17066 -0.17070 -0.11924
 C246 C 1.19060 -0.18854 -0.12890
 C247 C 1.07400 -0.09565 -0.08914
 C248 C 1.05193 -0.08083 -0.07904
 H249 H 1.16813 -0.11474 -0.28032
 H250 H 1.12375 -0.08030 -0.26725
 H251 H 1.10585 -0.11204 0.18445
 H252 H 1.15014 -0.14643 0.17125
 H253 H 1.11635 -0.18824 -0.22449
 H254 H 1.07215 -0.15390 -0.21148
 C255 C 0.64588 0.34824 0.47509
 C256 C 0.64904 0.37864 0.38254
 C257 C 0.62499 0.39684 0.39290
 C258 C 0.60016 0.38285 0.49475
 C259 C 0.61393 0.37539 0.66174
 C260 C 0.63802 0.35715 0.65140
 C261 C 0.61808 0.33357 0.40553
 C262 C 0.59409 0.35173 0.41586
 C263 C 0.67136 0.32823 0.45974
 C264 C 0.69137 0.31089 0.43771
 C265 C 0.57400 0.40204 0.50210
 C266 C 0.55196 0.41705 0.50020
 H267 H 0.66844 0.38529 0.31488
 H268 H 0.62381 0.41909 0.33420
 H269 H 0.60556 0.38374 0.77756
 H270 H 0.65029 0.34986 0.75836
 H271 H 0.61731 0.31087 0.35247
 H272 H 0.57279 0.34458 0.37170
 C273 C 0.85373 -0.15201 -0.14921
 C274 C 0.85731 -0.14345 0.03198
 C275 C 0.88070 -0.12492 0.06144
 C276 C 0.89814 -0.11682 -0.09327
 C277 C 0.87573 -0.10290 -0.21181
 C278 C 0.85236 -0.12141 -0.24125
 C279 C 0.88308 -0.16611 -0.19852
 C280 C 0.90639 -0.14764 -0.16913
 C281 C 0.82900 -0.17235 -0.18272
 C282 C 0.80952 -0.18993 -0.21387
 C283 C 0.92368 -0.09735 -0.06435
 C284 C 0.94550 -0.08228 -0.04723
 H285 H 0.84276 -0.15120 0.12845
 H286 H 0.88619 -0.11679 0.18310
 H287 H 0.87800 -0.08047 -0.26754
 H288 H 0.83462 -0.11487 -0.32232
 H289 H 0.88535 -0.18864 -0.25224
 H290 H 0.92862 -0.15437 -0.19761
 C291 C 0.35544 0.35015 0.27177
 C292 C 0.35888 0.36001 0.45095
 C293 C 0.38235 0.37847 0.47745
 C294 C 0.40011 0.38530 0.32219
 C295 C 0.37800 0.39860 0.19981
 C296 C 0.35447 0.38009 0.17326
 C297 C 0.38472 0.33540 0.22673
 C298 C 0.40818 0.35386 0.25320
 C299 C 0.33047 0.32979 0.24488
 C300 C 0.31059 0.31209 0.22580
 C301 C 0.42568 0.40464 0.35266
 C302 C 0.44731 0.41936 0.38184
 H303 H 0.34413 0.35314 0.54844
 H304 H 0.38771 0.38742 0.59766
 H305 H 0.38059 0.42056 0.13939
 H306 H 0.33689 0.38619 0.09010
 H307 H 0.38685 0.31248 0.17783
 H308 H 0.43039 0.34675 0.22685
 C309 C 0.14640 0.65285 -0.02402
 C310 C 0.15296 0.61895 -0.05450
 C311 C 0.12895 0.60059 -0.04304
 C312 C 0.10077 0.61796 -0.00230
 C313 C 0.09826 0.64266 -0.13519
 C314 C 0.12218 0.66096 -0.14659
 C315 C 0.13162 0.65377 0.14465
 C316 C 0.10760 0.63541 0.15608
 C317 C 0.17187 0.67299 -0.04056
 C318 C 0.19194 0.69033 -0.06378
 C319 C 0.07463 0.59860 0.00619
 C320 C 0.05258 0.58351 0.00525
 H321 H 0.17453 0.61015 -0.08262
 H322 H 0.12995 0.57606 -0.06131
 H323 H 0.07932 0.64552 -0.21386
 H324 H 0.12372 0.67946 -0.23510
 H325 H 0.13936 0.66755 0.24613
 H326 H 0.09476 0.63346 0.26734
 C327 C 0.64611 1.15217 0.44539
 C328 C 0.65039 1.12013 0.37355
 C329 C 0.62645 1.10177 0.38897
 C330 C 0.60061 1.11728 0.47474
 C331 C 0.59493 1.14646 0.37520
 C332 C 0.61879 1.16477 0.35982
 C333 C 0.63679 1.14676 0.62382
 C334 C 0.61284 1.12840 0.63925
 C335 C 0.67149 1.17237 0.42648
 C336 C 0.69151 1.18990 0.40653
 C337 C 0.57453 1.09795 0.48862
 C338 C 0.55246 1.08292 0.49349
 H339 H 0.67044 1.11252 0.31581
 H340 H 0.62600 1.07845 0.34431
 H341 H 0.57397 1.15223 0.32111
 H342 H 0.61825 1.18621 0.29266
 H343 H 0.64803 1.15642 0.72869
 H344 H 0.60357 1.12233 0.75729
 C345 C 0.14561 0.34787 0.02004
 C346 C 0.15007 0.37939 0.09804
 C347 C 0.12618 0.39785 0.08710
 C348 C 0.10018 0.38296 -0.00074
 C349 C 0.09455 0.35312 0.09312
 C350 C 0.11837 0.33472 0.10401
 C351 C 0.13609 0.35449 -0.15693
 C352 C 0.11216 0.37298 -0.16789
 C353 C 0.17097 0.32761 0.03610
 C354 C 0.19095 0.31019 0.05884
 C355 C 0.07416 0.40244 -0.00864
 C356 C 0.05220 0.41760 -0.00717
 H357 H 0.17021 0.38659 0.15672
 H358 H 0.12587 0.42085 0.13633
 H359 H 0.07364 0.34699 0.14669
 H360 H 0.11785 0.31284 0.16703
 H361 H 0.14718 0.34554 -0.26392
 H362 H 0.10275 0.37987 -0.28432
 C363 C 0.64586 0.84788 0.55445
 C364 C 0.65278 0.87936 0.48038
 C365 C 0.62888 0.89777 0.46521
 C366 C 0.60047 0.88284 0.52559
 C367 C 0.60686 0.87302 0.70263
 C368 C 0.63068 0.85467 0.71777
 C369 C 0.62185 0.83452 0.44453
 C370 C 0.59800 0.85289 0.42941
 C371 C 0.67119 0.82767 0.57306
 C372 C 0.69121 0.81017 0.59280
 C373 C 0.57446 0.90221 0.51194
 C374 C 0.55243 0.91724 0.50725
 H375 H 0.67450 0.88656 0.44344
 H376 H 0.63012 0.92076 0.41542
 H377 H 0.59382 0.87993 0.80715
 H378 H 0.63804 0.84587 0.83522
 H379 H 0.62344 0.81255 0.38396
 H380 H 0.57917 0.84665 0.35590
 C381 C 0.85324 0.15192 0.15093
 C382 C 0.88205 0.16458 0.21860
 C383 C 0.90546 0.14630 0.18935
 C384 C 0.89783 0.11708 0.09521
 C385 C 0.88246 0.12813 -0.06128
 C386 C 0.85899 0.14647 -0.03195
 C387 C 0.85036 0.11990 0.22646
 C388 C 0.87382 0.10156 0.19712
 C389 C 0.82840 0.17205 0.18430
 C390 C 0.80882 0.18946 0.21541
 C391 C 0.92345 0.09780 0.06642
 C392 C 0.94532 0.08287 0.04939
 H393 H 0.88391 0.18602 0.28433
 H394 H 0.92735 0.15210 0.22992
 H395 H 0.88935 0.12204 -0.18407
 H396 H 0.84577 0.15610 -0.12966
 H397 H 0.83159 0.11231 0.29690
 H398 H 0.87514 0.07826 0.24230
 C399 C 0.35533 0.64895 0.72413
 C400 C 0.38185 0.65697 0.83080
 C401 C 0.40538 0.63864 0.80451
 C402 C 0.40011 0.61408 0.67408
 C403 C 0.39018 0.63170 0.52114
 C404 C 0.36666 0.65001 0.54743
 C405 C 0.34930 0.61502 0.75877
 C406 C 0.37289 0.59665 0.73239
 C407 C 0.33031 0.66920 0.75099
 C408 C 0.31045 0.68685 0.77037
 C409 C 0.42575 0.59489 0.64391
 C410 C 0.44741 0.58025 0.61515
 H411 H 0.38209 0.67537 0.91963
 H412 H 0.42578 0.64134 0.87082
 H413 H 0.40067 0.62990 0.40236
 H414 H 0.35701 0.66389 0.45116
 H415 H 0.32840 0.60622 0.80034
 H416 H 0.37222 0.57211 0.75147
   
