data_POSCAR
  _audit_creation_date              2014-09-24
  _audit_creation_method            'ToBaCCo'
  _symmetry_space_group_name_H-M    'P1'
  _symmetry_Int_Tables_number       1
  _symmetry_cell_setting            triclinic
  loop_
  _symmetry_equiv_pos_as_xyz
 x,y,z
_cell_length_a 33.9913
_cell_length_b 34.5716
_cell_length_c 34.7187
_cell_angle_alpha 91.889400
_cell_angle_beta 88.091100
_cell_angle_gamma 90.764100
loop_
  _atom_site_label
  _atom_site_type_symbol
  _atom_site_fract_x
  _atom_site_fract_y
  _atom_site_fract_z
C1 C 0.26366 0.46792 0.99649
 C2 C 0.23596 0.46609 1.03237
 C3 C 0.21611 0.49972 1.04037
 C4 C 0.22570 0.53168 1.01176
 C5 C 0.23715 0.47987 0.96421
 C6 C 0.21731 0.51331 0.97214
 C7 C 0.29041 0.50320 1.00391
 C8 C 0.27054 0.53665 1.01194
 H9 H 0.23304 0.44073 1.04971
 H10 H 0.20952 0.55901 1.01809
 H11 H 0.23261 0.46187 0.93859
 H12 H 0.32214 0.50192 1.00041
 C13 C 0.72261 0.54081 0.01513
 C14 C 0.75250 0.53569 0.04662
 C15 C 0.77464 0.50300 0.04163
 C16 C 0.76473 0.47865 0.00507
 C17 C 0.74708 0.53934 -0.02257
 C18 C 0.76898 0.50706 -0.02817
 C19 C 0.69832 0.50328 0.01458
 C20 C 0.72011 0.47055 0.00936
 H21 H 0.75610 0.55683 0.06991
 H22 H 0.78244 0.45201 0.00069
 H23 H 0.74681 0.56205 -0.04335
 H24 H 0.66646 0.50320 0.01611
 C25 C 0.06933 0.22843 0.51300
 C26 C 0.07386 0.25172 0.47905
 C27 C 0.03986 0.27363 0.47118
 C28 C 0.00758 0.26879 0.49964
 C29 C 0.05808 0.25724 0.54582
 C30 C 0.02574 0.27859 0.53883
 C31 C 0.03194 0.20394 0.50728
 C32 C -0.00060 0.22505 0.50040
 H33 H 0.10089 0.25317 0.46167
 H34 H -0.01909 0.28593 0.49507
 H35 H 0.07370 0.25956 0.57248
 H36 H 0.03119 0.17308 0.51159
 C37 C 0.94093 0.77604 0.52186
 C38 C 0.93478 0.74752 0.48788
 C39 C 0.96555 0.72349 0.47994
 C40 C 0.99996 0.72991 0.50755
 C41 C 0.95004 0.75055 0.55546
 C42 C 0.98072 0.72604 0.54809
 C43 C 0.97969 0.79707 0.51254
 C44 C 1.01085 0.77318 0.50509
 H45 H 0.90769 0.74561 0.47230
 H46 H 1.02524 0.71031 0.50194
 H47 H 0.93397 0.75269 0.58285
 H48 H 0.98235 0.82827 0.51499
 C49 C 0.51403 0.03747 0.21832
 C50 C 0.47742 0.02754 0.24352
 C51 C 0.48044 -0.00671 0.26176
 C52 C 0.51934 -0.02762 0.25263
 C53 C 0.54825 0.03638 0.24592
 C54 C 0.55115 0.00213 0.26397
 C55 C 0.51997 0.00437 0.19202
 C56 C 0.52245 -0.03165 0.21087
 H57 H 0.45333 0.04738 0.24875
 H58 H 0.52164 -0.05542 0.26762
 H59 H 0.56694 0.06132 0.25153
 H60 H 0.51985 0.00685 0.16105
 C61 C 0.50170 -0.04286 0.76567
 C62 C 0.47031 -0.04294 0.73501
 C63 C 0.47035 -0.01007 0.71412
 C64 C 0.50217 0.01983 0.72601
 C65 C 0.54048 -0.03505 0.74369
 C66 C 0.54113 -0.00253 0.72297
 C67 C 0.49452 -0.00591 0.79031
 C68 C 0.49488 0.02708 0.76967
 H69 H 0.44923 -0.06640 0.73166
 H70 H 0.50234 0.04670 0.70935
 H71 H 0.56584 -0.05362 0.74489
 H72 H 0.48911 -0.00616 0.82121
 C73 C 0.32742 -0.02455 0.44294
 H74 H 0.34132 -0.02390 0.47049
 C75 C 0.35064 -0.02134 0.40926
 H76 H 0.38220 -0.01839 0.41160
 C77 C 0.26936 -0.02509 0.40701
 H78 H 0.23767 -0.02534 0.40626
 C79 C 0.29144 -0.02152 0.37267
 H80 H 0.27650 -0.01954 0.34574
 N81 N 0.28750 -0.02578 0.44135
 C82 C 0.20691 0.03843 0.51727
 H83 H 0.19825 0.01752 0.53856
 C84 C 0.18625 0.07300 0.51535
 H85 H 0.16165 0.07831 0.53532
 C86 C 0.24734 0.05517 0.46326
 H87 H 0.27084 0.04804 0.44268
 C88 C 0.22719 0.08970 0.45999
 H89 H 0.23526 0.10874 0.43678
 Zn90 Zn 0.25675 -0.02101 0.48790
 N91 N 0.23613 0.02977 0.49079
 C92 C 0.29565 -0.00011 0.55695
 N93 N 0.28912 -0.02932 0.53059
 C94 C 0.30757 -0.06384 0.53266
 C95 C 0.33359 -0.07004 0.56209
 C96 C 0.32182 -0.00493 0.58666
 C97 C 0.18286 -0.04481 0.46434
 C98 C 0.14872 -0.06730 0.46159
 C99 C 0.17649 -0.11301 0.50383
 C100 C 0.21027 -0.08937 0.50594
 N101 N 0.21297 -0.05606 0.48606
 H102 H 0.28105 0.02726 0.55465
 H103 H 0.30274 -0.08632 0.51086
 H104 H 0.34812 -0.09766 0.56315
 H105 H 0.32620 0.01862 0.60743
 H106 H 0.18493 -0.01771 0.44971
 H107 H 0.12500 -0.05738 0.44446
 H108 H 0.17472 -0.13887 0.52052
 H109 H 0.23393 -0.09752 0.52387
 C110 C 0.19579 0.09862 0.48571
 C111 C 0.33254 -0.01919 0.37356
 C112 C 0.14510 -0.10191 0.48134
 C113 C 0.34151 -0.04023 0.58923
 C114 C 0.69729 0.06680 0.53600
 H115 H 0.70365 0.08731 0.51370
 C116 C 0.66595 0.07332 0.56246
 H117 H 0.64856 0.09920 0.56078
 C118 C 0.71031 0.00664 0.56348
 H119 H 0.72644 -0.02009 0.56271
 C120 C 0.67958 0.01215 0.59064
 H121 H 0.67266 -0.01075 0.61034
 N122 N 0.71835 0.03363 0.53667
 C123 C 0.82644 0.04371 0.46714
 H124 H 0.82195 0.01805 0.44907
 C125 C 0.86170 0.06434 0.46407
 H126 H 0.88441 0.05440 0.44359
 C127 C 0.80242 0.08714 0.51650
 H128 H 0.77939 0.09531 0.53729
 C129 C 0.83730 0.10906 0.51404
 H130 H 0.84099 0.13388 0.53344
 Zn131 Zn 0.75353 0.02210 0.49470
 N132 N 0.79778 0.05522 0.49308
 C133 C 0.73781 0.05142 0.42170
 N134 N 0.72531 0.02712 0.44970
 C135 C 0.69121 0.00646 0.44693
 C136 C 0.66859 0.00895 0.41444
 C137 C 0.71608 0.05481 0.38866
 C138 C 0.79796 -0.03669 0.52500
 C139 C 0.81955 -0.07083 0.52336
 C140 C 0.78954 -0.08829 0.46301
 C141 C 0.76842 -0.05395 0.46589
 N142 N 0.77342 -0.02868 0.49625
 H143 H 0.76449 0.06835 0.42495
 H144 H 0.68164 -0.01193 0.47015
 H145 H 0.64116 -0.00719 0.41342
 H146 H 0.72635 0.07420 0.36649
 H147 H 0.80236 -0.01552 0.54815
 H148 H 0.84041 -0.07543 0.54555
 H149 H 0.78640 -0.10735 0.43787
 H150 H 0.74982 -0.04663 0.44268
 C151 C 0.86745 0.09745 0.48753
 C152 C 0.65662 0.04572 0.59010
 C153 C 0.81598 -0.09680 0.49156
 C154 C 0.68133 0.03305 0.38451
 C155 C 0.45679 0.18504 1.03258
 H156 H 0.43766 0.18628 1.00838
 C157 C 0.45185 0.15555 1.05875
 H158 H 0.42876 0.13408 1.05450
 C159 C 0.51068 0.21128 1.06675
 H160 H 0.53405 0.23263 1.06921
 C161 C 0.50688 0.18211 1.09363
 H162 H 0.52789 0.18167 1.11626
 N163 N 0.48564 0.21225 1.03711
 C164 C 0.43590 0.30466 0.97291
 H165 H 0.45574 0.30660 0.94802
 C166 C 0.40528 0.33123 0.97858
 H167 H 0.40187 0.35338 0.95769
 C168 C 0.41884 0.27589 1.03226
 H169 H 0.42515 0.25561 1.05414
 C170 C 0.38832 0.30196 1.03920
 H171 H 0.37101 0.30077 1.06592
 Zn172 Zn 0.48959 0.24916 0.99830
 N173 N 0.44232 0.27794 0.99984
 C174 C 0.47178 0.21346 0.92434
 N175 N 0.49872 0.21936 0.95216
 C176 C 0.53180 0.19778 0.95256
 C177 C 0.53818 0.16788 0.92534
 C178 C 0.47705 0.18356 0.89630
 C179 C 0.52716 0.30734 1.04054
 C180 C 0.55417 0.33696 1.04861
 C181 C 0.58972 0.32023 0.98914
 C182 C 0.56180 0.29084 0.98211
 N183 N 0.53122 0.28508 1.00770
 H184 H 0.44504 0.23012 0.92536
 H185 H 0.55214 0.20232 0.97564
 H186 H 0.56395 0.15004 0.92736
 H187 H 0.45425 0.17788 0.87579
 H188 H 0.50225 0.30259 1.06011
 H189 H 0.54985 0.35485 1.07459
 H190 H 0.61294 0.32507 0.96774
 H191 H 0.56394 0.27355 0.95564
 C192 C 0.38154 0.33045 1.01259
 C193 C 0.47694 0.15372 1.08982
 C194 C 0.58581 0.34400 1.02273
 C195 C 0.51024 0.15966 0.89737
 C196 C 0.45172 0.80464 -0.04971
 H197 H 0.43733 0.80639 -0.02145
 C198 C 0.44115 0.82995 -0.07798
 H199 H 0.41839 0.85101 -0.07138
 C200 C 0.50050 0.77646 -0.09173
 H201 H 0.52420 0.75616 -0.09660
 C202 C 0.49091 0.80133 -0.12088
 H203 H 0.50679 0.79893 -0.14835
 N204 N 0.48131 0.77902 -0.05678
 C205 C 0.46769 0.69506 0.03353
 H206 H 0.49594 0.69847 0.04678
 C207 C 0.44239 0.66488 0.04419
 H208 H 0.45115 0.64535 0.06602
 C209 C 0.42342 0.71453 -0.01326
 H210 H 0.41696 0.73283 -0.03680
 C211 C 0.39715 0.68480 -0.00340
 H212 H 0.37083 0.68088 -0.01980
 Zn213 Zn 0.49809 0.75212 -0.01381
 N214 N 0.45811 0.71874 0.00489
 C215 C 0.49639 0.79131 0.05994
 N216 N 0.51169 0.79034 0.02328
 C217 C 0.53610 0.81882 0.01031
 C218 C 0.54548 0.85041 0.03430
 C219 C 0.50557 0.82211 0.08528
 C220 C 0.53699 0.68993 -0.05088
 C221 C 0.56529 0.66103 -0.05464
 C222 C 0.60369 0.69573 -0.00712
 C223 C 0.57478 0.72413 -0.00445
 N224 N 0.54190 0.72034 -0.02563
 H225 H 0.47643 0.76868 0.06936
 H226 H 0.54752 0.81736 -0.01916
 H227 H 0.56437 0.87315 0.02297
 H228 H 0.49196 0.82236 0.11384
 H229 H 0.51016 0.68719 -0.06670
 H230 H 0.56038 0.63638 -0.07405
 H231 H 0.62931 0.69916 0.01038
 H232 H 0.57779 0.74816 0.01597
 C233 C 0.40691 0.65905 0.02527
 C234 C 0.46168 0.82942 -0.11365
 C235 C 0.59845 0.66303 -0.03164
 C236 C 0.53014 0.85260 0.07233
 C237 C 1.05087 0.44756 0.22859
 H238 H 1.04233 0.42462 0.24761
 C239 C 1.08106 0.44122 0.20095
 H240 H 1.09588 0.41364 0.19952
 C241 C 1.04069 0.51034 0.20583
 H242 H 1.02415 0.53690 0.20745
 C243 C 1.07070 0.50522 0.17768
 H244 H 1.07644 0.52810 0.15772
 N245 N 1.03163 0.48188 0.23085
 C246 C 0.95025 0.42584 0.30423
 H247 H 0.92476 0.43225 0.28786
 C248 C 0.94818 0.39642 0.33107
 H249 H 0.92095 0.38011 0.33476
 C250 C 1.01600 0.44043 0.32052
 H251 H 1.04200 0.45853 0.31696
 C252 C 1.01560 0.41086 0.34686
 H253 H 1.04157 0.40743 0.36345
 Zn254 Zn 0.98867 0.48952 0.26654
 N255 N 0.98397 0.44696 0.29940
 C256 C 0.93354 0.46694 0.21094
 N257 N 0.94291 0.49545 0.23716
 C258 C 0.92222 0.52888 0.24003
 C259 C 0.89088 0.53465 0.21590
 C260 C 0.90254 0.47166 0.18595
 C261 C 1.03070 0.55527 0.29830
 C262 C 1.03666 0.58531 0.32565
 C263 C 0.97354 0.56978 0.35557
 C264 C 0.96885 0.54008 0.32782
 N265 N 0.99703 0.53352 0.29974
 H266 H 0.95068 0.44077 0.20895
 H267 H 0.93052 0.55159 0.26038
 H268 H 0.87502 0.56164 0.21844
 H269 H 0.89566 0.44845 0.16556
 H270 H 1.05336 0.54887 0.27656
 H271 H 1.06371 0.60220 0.32432
 H272 H 0.95102 0.57343 0.37809
 H273 H 0.94292 0.52161 0.32904
 C274 C 0.98130 0.38811 0.35252
 C275 C 1.09157 0.47024 0.17515
 C276 C 1.00777 0.59310 0.35461
 C277 C 0.88105 0.50622 0.18794
 C278 C -0.03033 0.46299 0.81808
 H279 H -0.00523 0.44480 0.81128
 C280 C -0.05602 0.45424 0.84900
 H281 H -0.05077 0.42905 0.86576
 C282 C -0.06656 0.51905 0.80574
 H283 H -0.06970 0.54515 0.78996
 C284 C -0.09297 0.51133 0.83622
 H285 H -0.11598 0.53195 0.84324
 N286 N -0.03612 0.49485 0.79706
 C287 C 0.03536 0.47644 0.69193
 H288 H 0.05071 0.50406 0.69258
 C289 C 0.04513 0.44870 0.66346
 H290 H 0.06808 0.45500 0.64209
 C291 C -0.01230 0.43424 0.72000
 H292 H -0.03434 0.42877 0.74239
 C293 C -0.00403 0.40580 0.69136
 H294 H -0.01939 0.37820 0.69220
 Zn295 Zn 0.00227 0.50771 0.75857
 N296 N 0.00810 0.46836 0.72015
 C297 C 0.08047 0.48989 0.77514
 N298 N 0.05058 0.51491 0.78340
 C299 C 0.05368 0.54312 0.81141
 C300 C 0.08778 0.54662 0.83278
 C301 C 0.11508 0.49260 0.79540
 C302 C -0.04651 0.55096 0.71452
 C303 C -0.05680 0.58058 0.69066
 C304 C 0.00598 0.61170 0.70237
 C305 C 0.01470 0.58188 0.72685
 N306 N -0.01143 0.55222 0.73224
 H307 H 0.07717 0.46680 0.75380
 H308 H 0.02929 0.56238 0.81766
 H309 H 0.08959 0.56915 0.85503
 H310 H 0.13820 0.47189 0.78892
 H311 H -0.06618 0.52644 0.71838
 H312 H -0.08482 0.57912 0.67667
 H313 H 0.02712 0.63498 0.69806
 H314 H 0.04289 0.58170 0.74036
 C315 C 0.02560 0.41287 0.66314
 C316 C -0.08799 0.47840 0.85827
 C317 C -0.03007 0.61090 0.68368
 C318 C 0.11872 0.52055 0.82518
 C319 C 0.10419 0.20397 0.52177
 C320 C 0.12187 0.18103 0.49493
 C321 C 0.15023 0.15167 0.50543
 C322 C 0.17098 0.13214 0.47804
 H323 H 0.11372 0.18250 0.46509
 H324 H 0.15318 0.14524 0.53552
 H325 H 0.11181 0.20146 0.55167
 H326 H 0.16929 0.14067 0.44835
 C327 C 0.69784 0.57670 0.01980
 C328 C 0.67343 0.58624 -0.00778
 C329 C 0.64910 0.62118 -0.00454
 C330 C 0.62605 0.63016 -0.03345
 H331 H 0.67159 0.56779 -0.03355
 H332 H 0.64931 0.63866 0.02190
 H333 H 0.69972 0.59467 0.04586
 H334 H 0.62548 0.61100 -0.05882
 C335 C 0.90738 -0.19668 0.53082
 C336 C 0.89035 -0.17739 0.50328
 C337 C 0.86107 -0.14733 0.51290
 C338 C 0.84221 -0.13037 0.48494
 H339 H 0.89913 -0.18292 0.47332
 H340 H 0.85565 -0.13871 0.54284
 H341 H 0.89929 -0.19015 0.56078
 H342 H 0.84677 -0.14114 0.45545
 C343 C 0.28631 0.43168 0.98575
 C344 C 0.30778 0.41343 1.01086
 C345 C 0.33402 0.38160 0.99783
 C346 C 0.35247 0.36085 1.02334
 H347 H 0.30699 0.42295 1.04095
 H348 H 0.33840 0.37543 0.96721
 H349 H 0.28811 0.42235 0.95561
 H350 H 0.34586 0.36624 1.05382
 C351 C 0.95910 0.20871 0.49878
 C352 C 0.95201 0.17111 0.49172
 C353 C 0.91193 0.15469 0.49393
 C354 C 0.90614 0.11723 0.48502
 H355 H 0.97613 0.15173 0.48461
 H356 H 0.88751 0.17305 0.50294
 H357 H 0.93465 0.22820 0.50402
 H358 H 0.93099 0.10016 0.47432
 C359 C 0.28937 0.57521 0.01575
 C360 C 0.32676 0.58040 0.02561
 C361 C 0.34586 0.61874 0.02366
 C362 C 0.38353 0.62351 0.03285
 H363 H 0.34404 0.55599 0.03357
 H364 H 0.32944 0.64252 0.01296
 H365 H 0.27189 0.60010 0.00951
 H366 H 0.39857 0.59960 0.04517
 C367 C 0.05204 -0.21259 0.50021
 C368 C 0.06066 -0.17649 0.48951
 C369 C 0.10097 -0.16006 0.48987
 C370 C 0.10707 -0.12338 0.47962
 H371 H 0.03725 -0.15783 0.48126
 H372 H 0.12484 -0.17746 0.49930
 H373 H 0.07560 -0.23194 0.50659
 H374 H 0.08232 -0.10766 0.46925
 C375 C 0.70239 0.43124 1.00534
 C376 C 0.66681 0.42265 1.02079
 C377 C 0.64658 0.38522 1.01331
 C378 C 0.61138 0.37836 1.03048
 H379 H 0.65149 0.44413 1.03885
 H380 H 0.65991 0.36426 0.99324
 H381 H 0.71880 0.40919 0.98907
 H382 H 0.60003 0.39973 1.05144
 C383 C 0.51218 0.07564 1.19871
 C384 C 0.48736 0.08183 1.17063
 C385 C 0.49050 0.11761 1.14889
 C386 C 0.47199 0.12063 1.11579
 H387 H 0.46670 0.05926 1.16199
 H388 H 0.50949 0.14062 1.15950
 H389 H 0.53301 0.09832 1.20668
 H390 H 0.45273 0.09703 1.10667
 C391 C -0.00541 0.69834 0.57612
 C392 C -0.02863 0.68564 0.60508
 C393 C -0.01499 0.65764 0.63258
 C394 C -0.04088 0.64103 0.65696
 H395 H -0.05889 0.69493 0.60807
 H396 H 0.01574 0.64964 0.63195
 H397 H 0.02405 0.68705 0.57189
 H398 H -0.07187 0.64764 0.65531
 C399 C 0.50379 0.92065 -0.21188
 C400 C 0.47414 0.90692 -0.18991
 C401 C 0.48063 0.87283 -0.16655
 C402 C 0.45334 0.85982 -0.14138
 H403 H 0.44612 0.92159 -0.18813
 H404 H 0.50948 0.85988 -0.16830
 H405 H 0.53158 0.90551 -0.21263
 H406 H 0.42537 0.87452 -0.13842
 C407 C 1.04013 0.29815 0.43978
 C408 C 1.00706 0.31645 0.42628
 C409 C 1.01130 0.34282 0.39679
 C410 C 0.97870 0.35862 0.37962
 H411 H 0.97790 0.31000 0.43792
 H412 H 1.04079 0.35020 0.38663
 H413 H 1.06803 0.30236 0.42427
 H414 H 0.94986 0.34654 0.38680
 C415 C 0.52489 0.93205 0.19194
 C416 C 0.53224 0.92706 0.15237
 C417 C 0.52871 0.89080 0.13416
 C418 C 0.53831 0.88601 0.09491
 H419 H 0.54061 0.95156 0.13516
 H420 H 0.51822 0.86669 0.15089
 H421 H 0.52094 0.90651 0.20906
 H422 H 0.55300 0.91004 0.08078
 C423 C 0.00888 0.30771 0.56638
 C424 C 0.03142 0.32784 0.59079
 C425 C 0.01500 0.35698 0.61830
 C426 C 0.03908 0.38280 0.63495
 H427 H 0.06300 0.32369 0.58980
 H428 H -0.01647 0.35779 0.62433
 H429 H -0.02223 0.31387 0.56534
 H430 H 0.07007 0.38302 0.62637
 C431 C 0.48956 0.06638 0.78728
 C432 C 0.50147 0.07550 0.82283
 C433 C 0.49626 0.11437 0.84117
 C434 C 0.51501 0.12340 0.87364
 H435 H 0.51616 0.05387 0.83888
 H436 H 0.47723 0.13492 0.82841
 H437 H 0.47738 0.08854 0.77001
 H438 H 0.53520 0.10238 0.88409
 C439 C 0.96242 0.69265 0.44960
 C440 C 0.99281 0.67299 0.43373
 C441 C 0.98553 0.64260 0.40377
 C442 C 1.01481 0.62433 0.38420
 H443 H 1.02260 0.67933 0.44229
 H444 H 0.95527 0.63562 0.39727
 H445 H 0.93321 0.68642 0.43911
 H446 H 1.04496 0.63319 0.38932
 C447 C 1.18771 0.50682 0.07295
 C448 C 1.17147 0.47919 0.09459
 C449 C 1.14165 0.48935 0.12497
 C450 C 1.12288 0.46203 0.14521
 H451 H 1.17896 0.44912 0.08928
 H452 H 1.13519 0.51961 0.13052
 H453 H 1.17857 0.53649 0.07829
 H454 H 1.13114 0.43208 0.13988
 C455 C 0.57776 0.00874 0.70212
 C456 C 0.57984 0.03163 0.67189
 C457 C 0.61762 0.03441 0.64991
 C458 C 0.62087 0.05045 0.61545
 H459 H 0.55374 0.04501 0.66156
 H460 H 0.64302 0.02059 0.66125
 H461 H 0.60437 -0.00549 0.71029
 H462 H 0.59619 0.06598 0.60479
 C463 C -0.20769 0.50136 0.93561
 C464 C -0.17467 0.48089 0.93205
 C465 C -0.15094 0.48287 0.89578
 C466 C -0.11386 0.47045 0.89250
 H467 H -0.16374 0.46581 0.95629
 H468 H -0.16370 0.49681 0.87174
 H469 H -0.21643 0.51791 0.91135
 H470 H -0.10175 0.45490 0.91590
 C471 C 0.45301 -0.02075 0.29215
 C472 C 0.41625 -0.00831 0.29807
 C473 C 0.39292 -0.02103 0.33191
 C474 C 0.35537 -0.01091 0.33766
 H475 H 0.40375 0.01195 0.27887
 H476 H 0.40711 -0.03824 0.35283
 H477 H 0.46416 -0.04214 0.31102
 H478 H 0.34086 0.00437 0.31545
 C479 C 0.18745 0.52874 0.94709
 C480 C 0.18802 0.52138 0.90909
 C481 C 0.15468 0.53143 0.88561
 C482 C 0.15424 0.51982 0.84853
 H483 H 0.21240 0.50578 0.89534
 H484 H 0.12913 0.54475 0.89966
 H485 H 0.16399 0.54589 0.96052
 H486 H 0.17971 0.50488 0.83600
 C487 C 0.57934 -0.00573 0.29407
 C488 C 0.60821 0.01877 0.30411
 C489 C 0.63242 0.01111 0.33710
 C490 C 0.65831 0.03762 0.34969
 H491 H 0.61340 0.04538 0.28916
 H492 H 0.62827 -0.01602 0.35147
 H493 H 0.57524 -0.03237 0.30940
 H494 H 0.66301 0.06382 0.33371
 C495 C 0.80597 0.49154 0.06773
 C496 C 0.81093 0.50770 0.10295
 C497 C 0.84315 0.49608 0.12759
 C498 C 0.84830 0.51398 0.16199
 H499 H 0.79114 0.52991 0.11413
 H500 H 0.86324 0.47392 0.11684
 H501 H 0.82540 0.46852 0.05757
 H502 H 0.82844 0.53713 0.17092
 C503 C 0.44199 -0.00210 0.68385
 C504 C 0.41859 -0.02919 0.66772
 C505 C 0.39055 -0.01952 0.63797
 C506 C 0.36967 -0.04743 0.61992
 H507 H 0.42022 -0.05902 0.67594
 H508 H 0.38773 0.01041 0.63037
 H509 H 0.44087 0.02731 0.67408
 H510 H 0.37468 -0.07731 0.62677
   
