data_POSCAR
  _audit_creation_date              2014-09-24
  _audit_creation_method            'ToBaCCo'
  _symmetry_space_group_name_H-M    'P1'
  _symmetry_Int_Tables_number       1
  _symmetry_cell_setting            triclinic
  loop_
  _symmetry_equiv_pos_as_xyz
 x,y,z
_cell_length_a 35.6227
_cell_length_b 35.4689
_cell_length_c 35.5360
_cell_angle_alpha 93.885300
_cell_angle_beta 92.180800
_cell_angle_gamma 91.875200
loop_
  _atom_site_label
  _atom_site_type_symbol
  _atom_site_fract_x
  _atom_site_fract_y
  _atom_site_fract_z
C1 C 0.73061 0.68350 0.98456
 H2 H 0.76067 0.68504 0.98120
 C3 C 0.70714 0.70450 0.96244
 H4 H 0.71979 0.72287 0.94304
 C5 C 0.67818 0.65622 1.01305
 H6 H 0.66691 0.63613 1.03156
 C7 C 0.65357 0.67654 0.99117
 H8 H 0.62363 0.67204 0.99373
 N9 N 0.71593 0.65965 1.00896
 C10 C 0.82308 0.63423 1.06396
 H11 H 0.82299 0.60378 1.05912
 C12 C 0.85572 0.65395 1.07833
 H13 H 0.88071 0.63862 1.08469
 C14 C 0.79071 0.69138 1.06160
 H15 H 0.76533 0.70589 1.05500
 C16 C 0.82227 0.71203 1.07720
 H17 H 0.82107 0.74241 1.08233
 Zn18 Zn 0.74998 0.62604 1.02981
 N19 N 0.79190 0.65326 1.05448
 C20 C 0.80080 0.59581 0.97569
 N21 N 0.76487 0.59572 0.98740
 C22 C 0.73636 0.57759 0.96610
 C23 C 0.74321 0.55957 0.93104
 C24 C 0.80904 0.57738 0.94118
 C25 C 0.70752 0.61330 1.09307
 C26 C 0.68828 0.59211 1.11844
 C27 C 0.70960 0.53518 1.08605
 C28 C 0.72768 0.55751 1.06079
 N29 N 0.72609 0.59580 1.06453
 H30 H 0.82292 0.61163 0.99193
 H31 H 0.70793 0.57859 0.97572
 H32 H 0.72001 0.54625 0.91395
 H33 H 0.83756 0.57879 0.93173
 H34 H 0.70715 0.64385 1.09574
 H35 H 0.67375 0.60721 1.14062
 H36 H 0.71113 0.50484 1.08167
 H37 H 0.74305 0.54416 1.03817
 C38 C 0.85550 0.69335 1.08480
 C39 C 0.66795 0.70030 0.96463
 C40 C 0.68903 0.55227 1.11534
 C41 C 0.77985 0.55981 0.91806
 C42 C 0.71600 0.32580 0.50197
 H43 H 0.74181 0.31845 0.48879
 C44 C 0.69186 0.29710 0.51262
 H45 H 0.69974 0.26814 0.50721
 C46 C 0.67604 0.37248 0.52692
 H47 H 0.67044 0.40205 0.53285
 C48 C 0.65087 0.34461 0.53785
 H49 H 0.62564 0.35317 0.55160
 N50 N 0.70741 0.36265 0.50852
 C51 C 0.81801 0.38255 0.48398
 H52 H 0.82431 0.39820 0.51075
 C53 C 0.84725 0.36731 0.46333
 H54 H 0.87589 0.37133 0.47450
 C55 C 0.77334 0.35976 0.43597
 H56 H 0.74441 0.35727 0.42542
 C57 C 0.80155 0.34428 0.41443
 H58 H 0.79384 0.32931 0.38758
 Zn59 Zn 0.74109 0.40090 0.49417
 N60 N 0.78192 0.37848 0.46998
 C61 C 0.77203 0.40953 0.56659
 N62 N 0.75793 0.42954 0.53836
 C63 C 0.75484 0.46766 0.54282
 C64 C 0.76662 0.48721 0.57697
 C65 C 0.78414 0.42784 0.60100
 C66 C 0.68084 0.42696 0.44842
 C67 C 0.66658 0.44263 0.41601
 C68 C 0.72922 0.46608 0.40443
 C69 C 0.74209 0.45098 0.43760
 N70 N 0.71817 0.43078 0.45815
 H71 H 0.77361 0.37914 0.56232
 H72 H 0.74318 0.48284 0.51998
 H73 H 0.76438 0.51760 0.57986
 H74 H 0.79488 0.41111 0.62310
 H75 H 0.66237 0.41010 0.46443
 H76 H 0.63714 0.43798 0.40771
 H77 H 0.74896 0.48034 0.38728
 H78 H 0.77173 0.45307 0.44561
 C79 C 0.83912 0.34829 0.42784
 C80 C 0.65845 0.30625 0.53031
 C81 C 0.69122 0.46117 0.39293
 C82 C 0.78154 0.46721 0.60661
 C83 C 0.20997 -0.16786 0.01986
 H84 H 0.22685 -0.14973 0.03999
 C85 C 0.17965 -0.18890 0.03232
 H86 H 0.17349 -0.18587 0.06190
 C87 C 0.19755 -0.19308 -0.04289
 H88 H 0.20452 -0.19470 -0.07221
 C89 C 0.16680 -0.21458 -0.03164
 H90 H 0.15073 -0.23256 -0.05262
 N91 N 0.21792 -0.16958 -0.01733
 C92 C 0.32842 -0.14804 -0.06204
 H93 H 0.32520 -0.11962 -0.07068
 C94 C 0.36156 -0.16680 -0.06910
 H95 H 0.38374 -0.15245 -0.08316
 C96 C 0.30349 -0.20064 -0.03232
 H97 H 0.28080 -0.21354 -0.01779
 C98 C 0.33628 -0.22036 -0.03861
 H99 H 0.33811 -0.24868 -0.02931
 Zn100 Zn 0.25721 -0.13699 -0.03306
 N101 N 0.30033 -0.16504 -0.04377
 C102 C 0.30502 -0.09851 0.02314
 N103 N 0.26981 -0.09936 0.00681
 C104 C 0.24313 -0.07606 0.02059
 C105 C 0.25136 -0.05104 0.05224
 C106 C 0.31422 -0.07442 0.05504
 C107 C 0.23918 -0.13726 -0.11036
 C108 C 0.22592 -0.12354 -0.14410
 C109 C 0.21856 -0.06282 -0.11085
 C110 C 0.23216 -0.07775 -0.07779
 N111 N 0.24119 -0.11469 -0.07786
 H112 H 0.32576 -0.11749 0.01235
 H113 H 0.21500 -0.07792 0.00787
 H114 H 0.22947 -0.03366 0.06358
 H115 H 0.34213 -0.07493 0.06813
 H116 H 0.24784 -0.16618 -0.11011
 H117 H 0.22433 -0.14292 -0.16890
 H118 H 0.21127 -0.03345 -0.10927
 H119 H 0.23508 -0.05972 -0.05210
 C120 C 0.36598 -0.20336 -0.05704
 C121 C 0.15704 -0.21215 0.00635
 C122 C 0.21449 -0.08590 -0.14479
 C123 C 0.28707 -0.05071 0.07029
 C124 C 0.19235 0.20482 0.46025
 H125 H 0.21732 0.20747 0.44422
 C126 C 0.16278 0.22912 0.45452
 H127 H 0.16540 0.25051 0.43433
 C128 C 0.15720 0.17261 0.50416
 H129 H 0.15393 0.14955 0.52214
 C130 C 0.12754 0.19687 0.50009
 H131 H 0.10224 0.19226 0.51535
 N132 N 0.18897 0.17681 0.48445
 C133 C 0.29428 0.15419 0.53457
 H134 H 0.28095 0.13741 0.55474
 C135 C 0.33222 0.16477 0.54071
 H136 H 0.34702 0.15651 0.56585
 C137 C 0.29268 0.18200 0.47584
 H138 H 0.27772 0.18712 0.44979
 C139 C 0.33072 0.19274 0.48067
 H140 H 0.34414 0.20732 0.45873
 Zn141 Zn 0.22689 0.14010 0.48901
 N142 N 0.27527 0.16262 0.50236
 C143 C 0.26133 0.08888 0.43991
 N144 N 0.23245 0.11295 0.44182
 C145 C 0.21244 0.12113 0.41017
 C146 C 0.22255 0.10627 0.37462
 C147 C 0.27209 0.07313 0.40509
 C148 C 0.20966 0.12407 0.56207
 C149 C 0.19902 0.10279 0.59160
 C150 C 0.19548 0.04707 0.54843
 C151 C 0.20632 0.06959 0.51952
 N152 N 0.21313 0.10739 0.52684
 H153 H 0.27717 0.08335 0.46541
 H154 H 0.18955 0.14029 0.41222
 H155 H 0.20685 0.11376 0.34970
 H156 H 0.29608 0.05521 0.40432
 H157 H 0.21503 0.15423 0.56711
 H158 H 0.19690 0.11698 0.61930
 H159 H 0.18961 0.01719 0.54191
 H160 H 0.20887 0.05693 0.49123
 C161 C 0.35114 0.18337 0.51308
 C162 C 0.12986 0.22511 0.47456
 C163 C 0.19153 0.06375 0.58506
 C164 C 0.25323 0.08253 0.37173
 C165 C 0.22499 0.50832 0.21891
 H166 H 0.23802 0.52374 0.24355
 C167 C 0.24709 0.49498 0.18949
 H168 H 0.27721 0.50030 0.19165
 C169 C 0.16992 0.48205 0.18624
 H170 H 0.13976 0.47704 0.18538
 C171 C 0.19088 0.46781 0.15660
 H172 H 0.17650 0.45243 0.13262
 N173 N 0.18716 0.50155 0.21669
 C174 C 0.20638 0.50352 0.31610
 H175 H 0.20933 0.47653 0.30083
 C176 C 0.22394 0.51032 0.35173
 H177 H 0.23975 0.48797 0.36318
 C178 C 0.18105 0.56445 0.31976
 H179 H 0.16419 0.58546 0.30731
 C180 C 0.19821 0.57251 0.35557
 H181 H 0.19438 0.59985 0.37003
 Zn182 Zn 0.15564 0.51522 0.25643
 N183 N 0.18452 0.52996 0.30127
 C184 C 0.14751 0.43838 0.26246
 N185 N 0.12764 0.47048 0.26520
 C186 C 0.09102 0.46951 0.27471
 C187 C 0.07355 0.43532 0.28314
 C188 C 0.13127 0.40384 0.27053
 C189 C 0.13126 0.56962 0.20813
 C190 C 0.11188 0.60064 0.19675
 C191 C 0.07915 0.60210 0.25499
 C192 C 0.09916 0.57074 0.26526
 N193 N 0.12487 0.55529 0.24193
 H194 H 0.17641 0.43953 0.25432
 H195 H 0.07549 0.49516 0.27637
 H196 H 0.04453 0.43516 0.29108
 H197 H 0.14842 0.37925 0.26915
 H198 H 0.15204 0.55753 0.19004
 H199 H 0.11772 0.61104 0.16961
 H200 H 0.05956 0.61438 0.27442
 H201 H 0.09503 0.55953 0.29240
 C202 C 0.21925 0.54485 0.37244
 C203 C 0.22998 0.47411 0.15806
 C204 C 0.08566 0.61771 0.22039
 C205 C 0.09397 0.40196 0.28153
 C206 C -0.15384 0.04980 0.22743
 H207 H -0.15565 0.05812 0.25698
 C208 C -0.17216 0.07069 0.20102
 H209 H -0.18792 0.09450 0.21139
 C210 C -0.13261 0.00767 0.17906
 H211 H -0.11685 -0.01676 0.17057
 C212 C -0.15161 0.02719 0.15149
 H213 H -0.14967 0.01755 0.12211
 N214 N -0.13299 0.02005 0.21620
 C215 C -0.12476 -0.01896 0.32706
 H216 H -0.10032 -0.00205 0.33756
 C217 C -0.14667 -0.03762 0.35232
 H218 H -0.13897 -0.03474 0.38217
 C219 C -0.16315 -0.04517 0.27523
 H220 H -0.16912 -0.04817 0.24508
 C221 C -0.18549 -0.06465 0.29941
 H222 H -0.20895 -0.08233 0.28758
 Zn223 Zn -0.10231 -0.00075 0.25431
 N224 N -0.13330 -0.02312 0.28930
 C225 C -0.08977 0.06522 0.30211
 N226 N -0.07210 0.03960 0.27939
 C227 C -0.03487 0.04440 0.27286
 C228 C -0.01485 0.07720 0.28707
 C229 C -0.07089 0.09824 0.31690
 C230 C -0.07241 -0.07377 0.24463
 C231 C -0.04859 -0.10106 0.22976
 C232 C -0.02311 -0.05470 0.19004
 C233 C -0.04789 -0.02859 0.20504
 N234 N -0.07140 -0.03820 0.23236
 H235 H -0.11879 0.06026 0.30863
 H236 H -0.02070 0.02353 0.25573
 H237 H 0.01425 0.08111 0.28007
 H238 H -0.08593 0.11831 0.33439
 H239 H -0.09131 -0.08093 0.26633
 H240 H -0.04937 -0.12911 0.24005
 H241 H -0.00443 -0.04637 0.16851
 H242 H -0.04801 -0.00035 0.19529
 C243 C -0.17709 -0.06131 0.33844
 C244 C -0.17030 0.06038 0.16222
 C245 C -0.02311 -0.09133 0.20263
 C246 C -0.03323 0.10514 0.30849
 C247 C 0.36384 0.53204 0.73350
 H248 H 0.37413 0.54147 0.76171
 C249 C 0.34041 0.55482 0.71350
 H250 H 0.33357 0.58206 0.72647
 C251 C 0.36117 0.48500 0.68269
 H252 H 0.36935 0.45772 0.67097
 C253 C 0.33750 0.50702 0.66155
 H254 H 0.32741 0.49628 0.63364
 N255 N 0.37318 0.49762 0.71824
 C256 C 0.38819 0.43799 0.82008
 H257 H 0.41755 0.43107 0.82013
 C258 C 0.36631 0.42935 0.85044
 H259 H 0.37914 0.41606 0.87401
 C260 C 0.33594 0.46432 0.78953
 H261 H 0.32379 0.47718 0.76547
 C262 C 0.31319 0.45623 0.81908
 H263 H 0.28386 0.46318 0.81720
 Zn264 Zn 0.40287 0.46991 0.75076
 N265 N 0.37297 0.45616 0.79094
 C266 C 0.44392 0.51796 0.80512
 N267 N 0.44281 0.50367 0.76858
 C268 C 0.46426 0.51937 0.74249
 C269 C 0.48644 0.55205 0.75233
 C270 C 0.46548 0.55067 0.81608
 C271 C 0.39135 0.39845 0.71608
 C272 C 0.40009 0.36325 0.69960
 C273 C 0.46566 0.38344 0.70268
 C274 C 0.45566 0.41831 0.71956
 N275 N 0.41896 0.42504 0.72582
 H276 H 0.42589 0.50590 0.82522
 H277 H 0.46192 0.50821 0.71337
 H278 H 0.50149 0.56538 0.73061
 H279 H 0.46465 0.56252 0.84490
 H280 H 0.36244 0.40455 0.72163
 H281 H 0.37756 0.34263 0.69201
 H282 H 0.49499 0.37825 0.69823
 H283 H 0.47719 0.43968 0.72808
 C284 C 0.32845 0.43928 0.85042
 C285 C 0.32642 0.54219 0.67727
 C286 C 0.43766 0.35527 0.69293
 C287 C 0.48597 0.56890 0.78920
 C288 C 0.68090 0.94417 0.69425
 H289 H 0.66963 0.92104 0.70908
 C290 C 0.70107 0.93632 0.66181
 H291 H 0.70472 0.90714 0.65213
 C292 C 0.69080 1.00986 0.68942
 H293 H 0.68685 1.03855 0.70001
 C294 C 0.71122 1.00331 0.65693
 H295 H 0.72204 1.02730 0.64297
 N296 N 0.67479 0.98053 0.70663
 C297 C 0.66105 1.03981 0.81225
 H298 H 0.63944 1.05790 0.80251
 C299 C 0.67986 1.04901 0.84710
 H300 H 0.67228 1.07450 0.86300
 C301 C 0.69486 0.98377 0.80399
 H302 H 0.70024 0.95813 0.78709
 C303 C 0.71371 0.99137 0.83904
 H304 H 0.73409 0.97151 0.84784
 Zn305 Zn 0.64080 0.99108 0.74631
 N306 N 0.66872 1.00757 0.79151
 C307 C 0.60854 0.93808 0.79248
 N308 N 0.61264 0.94630 0.75596
 C309 C 0.59755 0.92287 0.72696
 C310 C 0.57975 0.88851 0.73414
 C311 C 0.59026 0.90447 0.80092
 C312 C 0.57078 1.01812 0.72021
 C313 C 0.54716 1.04378 0.70385
 C314 C 0.59788 1.09078 0.71108
 C315 C 0.62041 1.06434 0.72740
 N316 N 0.60704 1.02840 0.73072
 H317 H 0.61982 0.95741 0.81523
 H318 H 0.60028 0.93036 0.69817
 H319 H 0.56891 0.86967 0.71071
 H320 H 0.58830 0.89802 0.83014
 H321 H 0.56038 0.98959 0.72320
 H322 H 0.51897 1.03445 0.69430
 H323 H 0.60950 1.11896 0.70818
 H324 H 0.64887 1.07250 0.73689
 C325 C 0.70621 1.02429 0.86158
 C326 C 0.71565 0.96615 0.64204
 C327 C 0.56101 1.08038 0.69819
 C328 C 0.57641 0.87881 0.77152
 C329 C 0.05743 0.23691 -0.14798
 H330 H 0.06820 0.26576 -0.14292
 C331 C 0.07992 0.20949 -0.16464
 H332 H 0.10766 0.21786 -0.17305
 C333 C 0.00831 0.19123 -0.14228
 H334 H -0.01925 0.18407 -0.13261
 C335 C 0.02982 0.16290 -0.15902
 H336 H 0.01838 0.13416 -0.16221
 N337 N 0.02249 0.22736 -0.13692
 C338 C -0.03815 0.33150 -0.12311
 H339 H -0.04680 0.32892 -0.09451
 C340 C -0.04880 0.36244 -0.14261
 H341 H -0.06548 0.38361 -0.12849
 C342 C -0.00519 0.30695 -0.17548
 H343 H 0.01160 0.28506 -0.18819
 C344 C -0.01524 0.33756 -0.19612
 H345 H -0.00620 0.33865 -0.22474
 Zn346 Zn -0.00326 0.26509 -0.10918
 N347 N -0.01639 0.30479 -0.13950
 C348 C 0.04638 0.26050 -0.04571
 N349 N 0.03046 0.28455 -0.06943
 C350 C 0.04305 0.32118 -0.06947
 C351 C 0.07387 0.33439 -0.04646
 C352 C 0.07730 0.27269 -0.02195
 C353 C -0.07610 0.23692 -0.11939
 C354 C -0.11130 0.22266 -0.11045
 C355 C -0.08945 0.22357 -0.04521
 C356 C -0.05469 0.23849 -0.05544
 N357 N -0.04866 0.24448 -0.09211
 H358 H 0.03655 0.23124 -0.04692
 H359 H 0.03085 0.33975 -0.08902
 H360 H 0.08424 0.36325 -0.04805
 H361 H 0.09086 0.25264 -0.00476
 H362 H -0.07053 0.24210 -0.14834
 H363 H -0.13186 0.21667 -0.13335
 H364 H -0.09327 0.21922 -0.01577
 H365 H -0.03263 0.24523 -0.03409
 C366 C -0.03724 0.36592 -0.17960
 C367 C 0.06640 0.17179 -0.16984
 C368 C -0.11865 0.21544 -0.07288
 C369 C 0.09214 0.30974 -0.02321
 C370 C 0.44700 0.18404 0.17439
 H371 H 0.42986 0.20864 0.17411
 C372 C 0.43515 0.15287 0.19356
 H373 H 0.40918 0.15391 0.20841
 C374 C 0.50102 0.15227 0.15450
 H375 H 0.52625 0.15163 0.13863
 C376 C 0.49064 0.12088 0.17395
 H377 H 0.50815 0.09649 0.17275
 N378 N 0.47928 0.18313 0.15500
 C379 C 0.52938 0.29556 0.14311
 H380 H 0.53928 0.29111 0.11481
 C381 C 0.53764 0.32997 0.16379
 H382 H 0.55362 0.35185 0.15101
 C383 C 0.49520 0.27297 0.19334
 H384 H 0.47852 0.25089 0.20480
 C385 C 0.50262 0.30698 0.21490
 H386 H 0.49167 0.31036 0.24287
 Zn387 Zn 0.49294 0.22453 0.12592
 N388 N 0.50779 0.26820 0.15775
 C389 C 0.45135 0.27107 0.08015
 N390 N 0.45098 0.23679 0.09515
 C391 C 0.42000 0.21318 0.09115
 C392 C 0.38681 0.22506 0.07427
 C393 C 0.41884 0.28398 0.06281
 C394 C 0.52831 0.20346 0.05764
 C395 C 0.55855 0.19269 0.03581
 C396 C 0.59896 0.19962 0.09219
 C397 C 0.56804 0.21011 0.11286
 N398 N 0.53354 0.21148 0.09548
 H399 H 0.47638 0.28919 0.08311
 H400 H 0.42057 0.18551 0.10206
 H401 H 0.36213 0.20630 0.07248
 H402 H 0.41929 0.31215 0.05288
 H403 H 0.50055 0.20477 0.04448
 H404 H 0.55353 0.18552 0.00594
 H405 H 0.62605 0.19887 0.10685
 H406 H 0.57141 0.21690 0.14296
 C407 C 0.52332 0.33636 0.19981
 C408 C 0.45716 0.12081 0.19348
 C409 C 0.59445 0.19029 0.05315
 C410 C 0.38564 0.26138 0.06098
 C411 C 0.96279 0.73026 0.70956
 H412 H 0.96411 0.76001 0.71837
 C413 C 0.94914 0.70429 0.73401
 H414 H 0.94025 0.71438 0.76159
 C415 C 0.97150 0.68091 0.66265
 H416 H 0.97919 0.67218 0.63430
 C417 C 0.95854 0.65399 0.68634
 H418 H 0.95635 0.62459 0.67589
 N419 N 0.97261 0.71828 0.67423
 C420 C 1.03314 0.81596 0.65568
 H421 H 1.05364 0.79963 0.64079
 C422 C 1.04295 0.85263 0.67024
 H423 H 1.07107 0.86373 0.66633
 C424 C 0.97128 0.82194 0.67691
 H425 H 0.94314 0.80996 0.67873
 C426 C 0.97989 0.85879 0.69191
 H427 H 0.95829 0.87445 0.70595
 Zn428 Zn 0.98375 0.75246 0.63729
 N429 N 0.99790 0.80121 0.65953
 C430 C 0.93970 0.78502 0.58180
 N431 N 0.93998 0.75758 0.60670
 C432 C 0.90827 0.73691 0.61293
 C433 C 0.87423 0.74442 0.59477
 C434 C 0.90617 0.79357 0.56309
 C435 C 1.05440 0.72337 0.62891
 C436 C 1.08447 0.70731 0.61059
 C437 C 1.04958 0.70962 0.55119
 C438 C 1.02006 0.72577 0.57075
 N439 N 1.02314 0.73246 0.60891
 H440 H 0.96522 0.80138 0.57779
 H441 H 0.90893 0.71540 0.63302
 H442 H 0.84935 0.72790 0.60068
 H443 H 0.90639 0.81659 0.54463
 H444 H 1.05587 0.72863 0.65929
 H445 H 1.10913 0.70091 0.62733
 H446 H 1.04637 0.70413 0.52091
 H447 H 0.99463 0.73262 0.55550
 C448 C 1.01617 0.87465 0.68863
 C449 C 0.94610 0.66573 0.72210
 C450 C 1.08235 0.70009 0.57118
 C451 C 0.87262 0.77378 0.57026
 C452 C 0.51459 0.70100 0.37075
 H453 H 0.53407 0.71404 0.39218
 C454 C 0.52560 0.66989 0.34805
 H455 H 0.55374 0.65982 0.35189
 C456 C 0.45442 0.69806 0.33983
 H457 H 0.42659 0.70871 0.33675
 C458 C 0.46429 0.66710 0.31645
 H459 H 0.44363 0.65437 0.29593
 N460 N 0.47970 0.71491 0.36585
 C461 C 0.45807 0.82617 0.35481
 H462 H 0.48638 0.83419 0.36486
 C463 C 0.43767 0.85087 0.33346
 H464 H 0.45130 0.87727 0.32729
 C465 C 0.40616 0.78269 0.35206
 H466 H 0.39333 0.75680 0.36068
 C467 C 0.38485 0.80627 0.33079
 H468 H 0.35639 0.79675 0.32293
 Zn469 Zn 0.46597 0.75889 0.39512
 N470 N 0.44212 0.79267 0.36347
 C471 C 0.53868 0.79162 0.39962
 N472 N 0.50916 0.78195 0.42052
 C473 C 0.51129 0.78648 0.45885
 C474 C 0.54444 0.80069 0.47768
 C475 C 0.57233 0.80575 0.41724
 C476 C 0.40862 0.77357 0.44442
 C477 C 0.37722 0.76468 0.46478
 C478 C 0.39313 0.69886 0.45827
 C479 C 0.42373 0.70890 0.43719
 N480 N 0.43037 0.74566 0.43016
 H481 H 0.53640 0.78721 0.36919
 H482 H 0.48751 0.77843 0.47491
 H483 H 0.54536 0.80393 0.50817
 H484 H 0.59555 0.81218 0.39977
 H485 H 0.41454 0.80255 0.43820
 H486 H 0.35918 0.78697 0.47461
 H487 H 0.38731 0.66933 0.46250
 H488 H 0.44133 0.68725 0.42530
 C489 C 0.40019 0.84129 0.32122
 C490 C 0.50046 0.65296 0.32003
 C491 C 0.36887 0.72687 0.47124
 C492 C 0.57577 0.81009 0.45687
 C493 C 0.35348 -0.04735 0.25833
 C494 C 0.33611 -0.04996 0.21823
 C495 C 0.32888 -0.01607 0.20441
 C496 C 0.33994 0.01800 0.23222
 C497 C 0.38883 -0.02172 0.25613
 C498 C 0.38197 0.01254 0.24223
 C499 C 0.32677 -0.02371 0.28188
 C500 C 0.31963 0.01049 0.26868
 H501 H 0.33055 -0.07666 0.20200
 H502 H 0.33390 0.04563 0.22100
 H503 H 0.41677 -0.03079 0.26284
 H504 H 0.31506 -0.03329 0.30740
 C505 C 0.11727 1.05207 0.76649
 C506 C 0.13557 1.05741 0.72882
 C507 C 0.14145 1.02477 0.70788
 C508 C 0.12865 0.98924 0.72693
 C509 C 0.08114 1.02809 0.75578
 C510 C 0.08710 0.99512 0.73516
 C511 C 0.14159 1.02749 0.78654
 C512 C 0.14864 0.99257 0.76621
 H513 H 0.14273 1.08513 0.71966
 H514 H 0.13327 0.96285 0.70982
 H515 H 0.05375 1.03548 0.76536
 H516 H 0.15218 1.03469 0.81517
 C517 C 0.56431 0.53910 0.25975
 C518 C 0.58635 0.54372 0.22678
 C519 C 0.60835 0.51220 0.21609
 C520 C 0.60337 0.47988 0.24244
 C521 C 0.54062 0.50250 0.25126
 C522 C 0.56079 0.47148 0.24254
 C523 C 0.59264 0.52958 0.29118
 C524 C 0.61316 0.49881 0.28195
 H525 H 0.58655 0.56951 0.21214
 H526 H 0.61980 0.45445 0.23581
 H527 H 0.51037 0.50121 0.25358
 H528 H 0.59743 0.54637 0.31758
 C529 C 0.89568 0.47981 0.77579
 C530 C 0.87105 0.47298 0.73951
 C531 C 0.84670 0.50098 0.73332
 C532 C 0.84888 0.53310 0.76464
 C533 C 0.91490 0.51875 0.77251
 C534 C 0.89029 0.54661 0.76710
 C535 C 0.86783 0.48622 0.80747
 C536 C 0.84326 0.51379 0.80129
 H537 H 0.87392 0.44860 0.71996
 H538 H 0.82922 0.55617 0.76049
 H539 H 0.94505 0.52392 0.77524
 H540 H 0.86779 0.47120 0.83294
 C541 C 0.27329 0.39520 -0.02958
 C542 C 0.23260 0.37967 -0.02976
 C543 C 0.22297 0.36432 0.00277
 C544 C 0.25523 0.36611 0.03279
 C545 C 0.27763 0.42301 0.00514
 C546 C 0.26817 0.40800 0.03769
 C547 C 0.29737 0.36183 -0.01969
 C548 C 0.28768 0.34651 0.01291
 H549 H 0.21380 0.37944 -0.05444
 H550 H 0.24801 0.35424 0.05978
 H551 H 0.28671 0.45233 0.00381
 H552 H 0.31956 0.35096 -0.03684
 C553 C 0.77504 0.11232 1.04582
 C554 C 0.73598 0.12901 1.04956
 C555 C 0.71896 0.13814 1.01678
 C556 C 0.74244 0.12907 0.98229
 C557 C 0.76916 0.07918 1.01922
 C558 C 0.75113 0.08699 0.98394
 C559 C 0.79709 0.13964 1.02644
 C560 C 0.78088 0.14938 0.99129
 H561 H 0.72273 0.13234 1.07644
 H562 H 0.72855 0.13647 0.95574
 H563 H 0.77743 0.05116 1.02537
 H564 H 0.82504 0.14935 1.03657
 C565 C 0.25512 0.60693 0.57544
 C566 C 0.21506 0.62133 0.57591
 C567 C 0.20325 0.63616 0.54335
 C568 C 0.23263 0.63450 0.51280
 C569 C 0.25476 0.57829 0.54115
 C570 C 0.24329 0.59276 0.50824
 C571 C 0.27964 0.64029 0.56436
 C572 C 0.26781 0.65470 0.53172
 H573 H 0.19776 0.61991 0.60017
 H574 H 0.22379 0.64650 0.48601
 H575 H 0.26318 0.54940 0.54277
 H576 H 0.30487 0.65067 0.58027
 C577 C 0.76293 0.88417 0.45161
 C578 C 0.72194 0.86950 0.44989
 C579 C 0.70920 0.85902 0.48334
 C580 C 0.73888 0.86452 0.51583
 C581 C 0.76446 0.91680 0.48257
 C582 C 0.75163 0.90645 0.51633
 C583 C 0.78532 0.85298 0.46867
 C584 C 0.77287 0.84273 0.50225
 H585 H 0.70457 0.86830 0.42417
 H586 H 0.72925 0.85588 0.54323
 H587 H 0.77354 0.94541 0.47781
 H588 H 0.80973 0.84105 0.45576
 C589 C -0.03926 0.29635 0.37889
 C590 C -0.04115 0.25599 0.36055
 C591 C -0.00707 0.24136 0.35356
 C592 C 0.02601 0.26905 0.36520
 C593 C -0.01371 0.29422 0.41451
 C594 C 0.02063 0.27973 0.40735
 C595 C -0.01620 0.31937 0.35265
 C596 C 0.01781 0.30514 0.34529
 H597 H -0.06746 0.24000 0.35552
 H598 H 0.05383 0.25791 0.35897
 H599 H -0.02242 0.30226 0.44262
 H600 H -0.02607 0.34490 0.34106
 C601 C 1.05056 0.75203 0.08677
 C602 C 1.06335 0.72556 0.11653
 C603 C 1.04294 0.72726 0.14829
 C604 C 1.01178 0.75650 0.14754
 C605 C 1.00840 0.74184 0.07946
 C606 C 0.98814 0.74448 0.11135
 C607 C 1.05170 0.79126 0.10741
 C608 C 1.03174 0.79389 0.13911
 H609 H 1.08493 0.70533 0.11126
 H610 H 0.99532 0.75877 0.17340
 H611 H 0.99556 0.73370 0.05193
 H612 H 1.06552 0.81551 0.09625
 C613 C 0.54834 0.23170 0.57912
 C614 C 0.55335 0.19724 0.60204
 C615 C 0.52113 0.18359 0.61626
 C616 C 0.48635 0.20602 0.60587
 C617 C 0.51793 0.21963 0.54887
 C618 C 0.48523 0.20657 0.56254
 C619 C 0.52957 0.26062 0.60587
 C620 C 0.49694 0.24721 0.61993
 H621 H 0.58052 0.18531 0.60699
 H622 H 0.46010 0.19458 0.61690
 H623 H 0.52146 0.22414 0.51939
 H624 H 0.54087 0.28898 0.61283
 C625 C 0.48737 0.74915 0.88913
 C626 C 0.48223 0.71109 0.86606
 C627 C 0.51163 0.70210 0.84418
 C628 C 0.54346 0.73247 0.84699
 C629 C 0.52483 0.74634 0.91147
 C630 C 0.55422 0.73786 0.88935
 C631 C 0.49566 0.77825 0.86003
 C632 C 0.52478 0.76923 0.83788
 H633 H 0.45761 0.69266 0.86773
 H634 H 0.56750 0.72556 0.82921
 H635 H 0.52783 0.75127 0.94186
 H636 H 0.48069 0.80406 0.85759
 N637 N 0.32932 -0.10975 0.27158
 N638 N 0.34199 -0.14111 0.28907
 C639 C 0.37823 -0.13387 0.30083
 C640 C 0.38917 -0.09786 0.29062
 C641 C 0.35784 -0.08385 0.27238
 H642 H 0.41599 -0.08320 0.29664
 H643 H 0.30194 -0.10704 0.26072
 H644 H 0.32493 -0.16501 0.29227
 N645 N 0.95074 0.44051 0.75739
 N646 N 0.96811 0.41058 0.76856
 C647 C 0.95157 0.39882 0.79944
 C648 C 0.92244 0.42245 0.80811
 C649 C 0.92285 0.44860 0.78088
 H650 H 0.90298 0.42001 0.83046
 H651 H 0.95775 0.45496 0.73384
 H652 H 0.99102 0.39885 0.75520
 N653 N 0.14165 1.11339 0.79950
 N654 N 0.12870 1.14474 0.81555
 C655 C 0.09084 1.14191 0.81473
 C656 C 0.07929 1.10691 0.79746
 C657 C 0.11247 1.08969 0.78810
 H658 H 0.05076 1.09619 0.79166
 H659 H 0.17011 1.10849 0.79611
 H660 H 0.14586 1.16735 0.82712
 N661 N 0.51274 0.58276 0.24416
 N662 N 0.49580 0.61210 0.25970
 C663 C 0.51184 0.62121 0.29424
 C664 C 0.54036 0.59645 0.30084
 C665 C 0.53991 0.57236 0.26835
 H666 H 0.55837 0.59593 0.32595
 H667 H 0.50572 0.57004 0.21733
 H668 H 0.47406 0.62581 0.24633
 N669 N 0.51171 0.42309 0.25569
 N670 N 0.50233 0.38755 0.24511
 C671 C 0.52732 0.37414 0.22044
 C672 C 0.55416 0.40261 0.21544
 C673 C 0.54300 0.43320 0.23820
 H674 H 0.57766 0.40170 0.19702
 H675 H 0.49664 0.44002 0.27452
 H676 H 0.47832 0.37343 0.25378
 N677 N 0.01978 0.97218 0.72516
 N678 N 0.00117 0.94052 0.71308
 C679 C 0.02608 0.91391 0.70380
 C680 C 0.06209 0.92955 0.71035
 C681 C 0.05694 0.96649 0.72381
 H682 H 0.08838 0.91569 0.70654
 H683 H 0.00694 0.99721 0.73366
 H684 H -0.02810 0.93777 0.71077
 N685 N 0.88284 0.61577 0.77867
 N686 N 0.89810 0.64731 0.76743
 C687 C 0.92687 0.63851 0.74522
 C688 C 0.93048 0.59957 0.74292
 C689 C 0.90189 0.58636 0.76430
 H690 H 0.94937 0.58295 0.72599
 H691 H 0.85912 0.61448 0.79499
 H692 H 0.88739 0.67406 0.77311
 N693 N 0.44951 0.03481 0.24101
 N694 N 0.46912 0.06301 0.22798
 C695 C 0.44523 0.08712 0.21303
 C696 C 0.40864 0.07365 0.21686
 C697 C 0.41253 0.04009 0.23447
 H698 H 0.38307 0.08577 0.20657
 H699 H 0.46175 0.01219 0.25353
 H700 H 0.49845 0.06539 0.22928
 N701 N 0.26060 0.44210 -0.07748
 N702 N 0.27465 0.45366 -0.10866
 C703 C 0.30495 0.43333 -0.11693
 C704 C 0.31039 0.40763 -0.08959
 C705 C 0.28144 0.41409 -0.06515
 H706 H 0.33232 0.38739 -0.08779
 H707 H 0.23726 0.45357 -0.06463
 H708 H 0.26396 0.47581 -0.12321
 N709 N 0.77034 0.86734 0.38278
 N710 N 0.78538 0.88148 0.35324
 C711 C 0.80143 0.91562 0.36393
 C712 C 0.79617 0.92362 0.40221
 C713 C 0.77599 0.89224 0.41300
 H714 H 0.80607 0.94839 0.41965
 H715 H 0.75678 0.84074 0.38228
 H716 H 0.78555 0.86719 0.32657
 N717 N 0.79274 0.13478 1.11049
 N718 N 0.80648 0.12028 1.14343
 C719 C 0.81423 0.08369 1.13542
 C720 C 0.80539 0.07420 1.09715
 C721 C 0.79126 0.10686 1.08271
 H722 H 0.80785 0.04685 1.08228
 H723 H 0.78426 0.16253 1.10853
 H724 H 0.81152 0.13656 1.16880
 N725 N 0.26133 0.61000 0.64623
 N726 N 0.28020 0.59349 0.67281
 C727 C 0.30024 0.56567 0.65650
 C728 C 0.29342 0.56428 0.61774
 C729 C 0.26836 0.59274 0.61243
 H730 H 0.30635 0.54646 0.59635
 H731 H 0.24467 0.63335 0.65130
 H732 H 0.27925 0.60162 0.70153
 N733 N 0.26486 0.54072 0.46425
 N734 N 0.25927 0.52863 0.42846
 C735 C 0.23461 0.55110 0.41190
 C736 C 0.22440 0.57895 0.43858
 C737 C 0.24400 0.57118 0.47136
 H738 H 0.20455 0.60100 0.43512
 H739 H 0.28311 0.52838 0.48314
 H740 H 0.27251 0.50541 0.41600
 N741 N 0.75548 0.02426 0.95190
 N742 N 0.74363 0.00683 0.91685
 C743 C 0.72393 0.03191 0.89780
 C744 C 0.72339 0.06568 0.92021
 C745 C 0.74347 0.05994 0.95359
 H746 H 0.71020 0.09131 0.91294
 H747 H 0.77161 0.01137 0.97217
 H748 H 0.74842 -0.02133 0.90861
 N749 N 0.76457 0.96792 0.55494
 N750 N 0.75546 0.98343 0.58812
 C751 C 0.73366 0.95851 0.60534
 C752 C 0.72886 0.92573 0.58189
 C753 C 0.74878 0.93279 0.55019
 H754 H 0.71184 0.90086 0.58666
 H755 H 0.78136 0.98139 0.53609
 H756 H 0.76425 1.01065 0.59851
 N757 N 0.29381 0.45985 0.08326
 N758 N 0.28387 0.47716 0.11525
 C759 C 0.25241 0.45976 0.12642
 C760 C 0.24241 0.42951 0.10077
 C761 C 0.26918 0.43082 0.07379
 H762 H 0.21784 0.41069 0.10039
 H763 H 0.31649 0.46853 0.06777
 H764 H 0.29739 0.50161 0.12793
 N765 N -0.10220 0.31438 0.35391
 N766 N -0.13391 0.32766 0.36631
 C767 C -0.13061 0.33363 0.40417
 C768 C -0.09493 0.32381 0.41635
 C769 C -0.07789 0.31155 0.38345
 H770 H -0.08346 0.32484 0.44502
 H771 H -0.09735 0.30729 0.32554
 H772 H -0.15703 0.33294 0.34875
 N773 N 0.44493 0.73564 0.94206
 N774 N 0.41309 0.74742 0.95583
 C775 C 0.40132 0.77653 0.93644
 C776 C 0.42712 0.78357 0.90923
 C777 C 0.45440 0.75696 0.91368
 H778 H 0.42523 0.80406 0.88813
 H779 H 0.45959 0.71286 0.95158
 H780 H 0.39991 0.73549 0.97815
 N781 N 1.06419 0.74719 0.01658
 N782 N 1.09249 0.75692 -0.00428
 C783 C 1.12249 0.76817 0.01861
 C784 C 1.11283 0.76437 0.05560
 C785 C 1.07554 0.75178 0.05327
 H786 H 1.12925 0.77283 0.08118
 H787 H 1.03718 0.73977 0.00559
 H788 H 1.09016 0.75817 -0.03354
 N789 N 0.60383 0.22047 0.53928
 N790 N 0.63238 0.23955 0.52630
 C791 C 0.63170 0.27588 0.54020
 C792 C 0.60116 0.27984 0.56320
 C793 C 0.58425 0.24397 0.56179
 H794 H 0.59209 0.30530 0.57808
 H795 H 0.59739 0.19188 0.53207
 H796 H 0.65103 0.22769 0.50730
 N797 N 0.44995 0.19793 0.50004
 N798 N 0.41476 0.19292 0.48721
 C799 C 0.39235 0.19045 0.51670
 C800 C 0.41447 0.19390 0.54988
 C801 C 0.45087 0.19883 0.53809
 H802 H 0.40516 0.19376 0.57849
 H803 H 0.47269 0.20051 0.48262
 H804 H 0.40662 0.19050 0.45858
 N805 N 0.92417 0.75597 0.13479
 N806 N 0.88931 0.74293 0.12753
 C807 C 0.88945 0.71498 0.09996
 C808 C 0.92601 0.71034 0.08874
 C809 C 0.94714 0.73709 0.11152
 H810 H 0.93579 0.69041 0.06719
 H811 H 0.93180 0.77776 0.15509
 H812 H 0.86598 0.75275 0.14166
 N813 N 0.62371 0.74012 0.88440
 N814 N 0.65360 0.73066 0.90425
 C815 C 0.64259 0.71803 0.93725
 C816 C 0.60371 0.72014 0.93841
 C817 C 0.59295 0.73397 0.90423
 H818 H 0.58548 0.71099 0.95994
 H819 H 0.62457 0.75000 0.85742
 H820 H 0.68072 0.73138 0.89417
 N821 N 0.04202 0.27178 0.47436
 N822 N 0.07090 0.25733 0.49210
 C823 C 0.09678 0.24783 0.46677
 C824 C 0.08385 0.25679 0.43141
 C825 C 0.04870 0.27144 0.43723
 H826 H 0.09713 0.25048 0.40497
 H827 H 0.01754 0.27985 0.48749
 H828 H 0.07211 0.25291 0.52087
 N829 N 0.48993 0.13240 0.65100
 N830 N 0.50037 0.10533 0.67263
 C831 C 0.53818 0.10694 0.67722
 C832 C 0.55224 0.13624 0.65745
 C833 C 0.52085 0.15165 0.64106
 H834 H 0.58141 0.14465 0.65480
 H835 H 0.46207 0.13696 0.64288
 H836 H 0.48171 0.08626 0.68398
 N837 N 1.02366 0.69446 0.20551
 N838 N 1.03463 0.66544 0.22421
 C839 C 1.06589 0.65168 0.20884
 C840 C 1.07522 0.67338 0.17932
 C841 C 1.04770 0.70000 0.17783
 H842 H 1.09846 0.66986 0.16090
 H843 H 0.99937 0.70918 0.21107
 H844 H 1.02000 0.65475 0.24629
 N845 N 1.05222 0.86031 0.15890
 N846 N 1.03755 0.89069 0.17504
 C847 C 1.00348 0.88109 0.18731
 C848 C 0.99642 0.84261 0.17918
 C849 C 1.02778 0.83065 0.16042
 H850 H 0.97079 0.82659 0.18335
 H851 H 1.07813 0.86041 0.14610
 H852 H 1.05049 0.91763 0.17675
 N853 N 0.44183 0.25732 0.66066
 N854 N 0.42624 0.28566 0.67954
 C855 C 0.44721 0.31753 0.67645
 C856 C 0.47773 0.30896 0.65473
 C857 C 0.47312 0.27043 0.64497
 H858 H 0.49936 0.32833 0.64619
 H859 H 0.43075 0.22965 0.65882
 H860 H 0.40173 0.28284 0.69446
 N861 N 0.53789 0.65804 0.79435
 N862 N 0.53154 0.62286 0.78019
 C863 C 0.50337 0.60702 0.79868
 C864 C 0.49119 0.63346 0.82561
 C865 C 0.51365 0.66550 0.82190
 H866 H 0.46849 0.63011 0.84460
 H867 H 0.55805 0.67659 0.78455
 H868 H 0.54627 0.61021 0.75814
 N869 N 0.03026 0.18457 0.33490
 N870 N 0.02342 0.14865 0.32346
 C871 C -0.01409 0.14188 0.32080
 C872 C -0.03173 0.17508 0.33074
 C873 C -0.00275 0.20152 0.33956
 H874 H -0.06161 0.17938 0.33120
 H875 H 0.05723 0.19675 0.33967
 H876 H 0.04432 0.12923 0.31822
 N877 N 0.07240 0.30616 0.30338
 N878 N 0.09210 0.33150 0.28609
 C879 C 0.07736 0.36580 0.29294
 C880 C 0.04661 0.36180 0.31521
 C881 C 0.04464 0.32368 0.32140
 H882 H 0.02932 0.38376 0.32706
 H883 H 0.07805 0.27742 0.30265
 H884 H 0.11528 0.32498 0.27009
 N885 N 0.55242 0.78023 0.77607
 N886 N 0.56536 0.80917 0.75825
 C887 C 0.56062 0.84132 0.77979
 C888 C 0.54324 0.83239 0.81250
 C889 C 0.53866 0.79339 0.80898
 H890 H 0.53669 0.85128 0.83637
 H891 H 0.55368 0.75194 0.76605
 H892 H 0.57883 0.80658 0.73266
 N893 N 0.65216 0.48184 0.17353
 N894 N 0.67461 0.49303 0.14463
 C895 C 0.66988 0.53027 0.14085
 C896 C 0.64387 0.54307 0.16670
 C897 C 0.63350 0.51215 0.18657
 H898 H 0.63383 0.57140 0.17081
 H899 H 0.65047 0.45439 0.18234
 H900 H 0.69287 0.47519 0.13041
 N901 N 0.16707 0.99306 0.64920
 N902 N 0.18005 1.00326 0.61686
 C903 C 0.17909 1.04121 0.61631
 C904 C 0.16475 1.05556 0.64982
 C905 C 0.15749 1.02426 0.66997
 H906 H 0.15962 1.08476 0.65809
 H907 H 0.16525 0.96512 0.65666
 H908 H 0.18984 0.98436 0.59598
 N909 N 0.17541 0.93009 0.76310
 N910 N 0.19406 0.90787 0.78822
 C911 C 0.19872 0.92798 0.82187
 C912 C 0.18356 0.96343 0.81842
 C913 C 0.16891 0.96352 0.78157
 H914 H 0.18184 0.98589 0.84030
 H915 H 0.16784 0.92101 0.73524
 H916 H 0.20191 0.88035 0.78099
 N917 N 0.67679 0.47447 0.29442
 N918 N 0.69784 0.46589 0.32383
 C919 C 0.67825 0.47177 0.35530
 C920 C 0.64332 0.48511 0.34553
 C921 C 0.64365 0.48641 0.30668
 H922 H 0.62060 0.49199 0.36389
 H923 H 0.68515 0.47225 0.26652
 H924 H 0.72465 0.45499 0.32208
 N925 N 0.80100 0.53028 0.68935
 N926 N 0.78419 0.52161 0.65593
 C927 C 0.79445 0.48694 0.64314
 C928 C 0.81887 0.47307 0.66974
 C929 C 0.82239 0.50135 0.69862
 H930 H 0.83270 0.44637 0.66797
 H931 H 0.79782 0.55583 0.70503
 H932 H 0.76579 0.53923 0.64255
 N933 N 0.29125 0.01340 0.15365
 N934 N 0.27967 0.00398 0.11827
 C935 C 0.29521 -0.02881 0.10678
 C936 C 0.31735 -0.04074 0.13611
 C937 C 0.31385 -0.01354 0.16542
 H938 H 0.33245 -0.06670 0.13659
 H939 H 0.28248 0.03697 0.16976
 H940 H 0.26102 0.01952 0.10265
 N941 N 0.27998 0.06775 0.27504
 N942 N 0.26190 0.08624 0.30203
 C943 C 0.26661 0.06873 0.33437
 C944 C 0.28839 0.03762 0.32738
 C945 C 0.29634 0.03794 0.28953
 H946 H 0.29783 0.01790 0.34733
 H947 H 0.28098 0.07561 0.24730
 H948 H 0.24757 0.11102 0.29837
 N949 N 0.78045 0.53667 0.81838
 N950 N 0.76342 0.54800 0.84931
 C951 C 0.78707 0.54478 0.87938
 C952 C 0.82040 0.53016 0.86705
 C953 C 0.81498 0.52553 0.82825
 H954 H 0.84570 0.52545 0.88366
 H955 H 0.76878 0.53724 0.79102
 H956 H 0.73677 0.55943 0.84947
 N957 N 0.15162 0.66600 0.50687
 N958 N 0.11987 0.68287 0.51419
 C959 C 0.11408 0.68249 0.55148
 C960 C 0.14340 0.66425 0.56837
 C961 C 0.16667 0.65434 0.53928
 H962 H 0.14765 0.65946 0.59791
 H963 H 0.16263 0.66296 0.48008
 H964 H 0.10317 0.69513 0.49390
 N965 N 0.66124 0.16146 0.98376
 N966 N 0.62855 0.17517 0.99330
 C967 C 0.62684 0.17716 1.03126
 C968 C 0.65998 0.16406 1.04629
 C969 C 0.68109 0.15431 1.01539
 H970 H 0.66739 0.16139 1.07573
 H971 H 0.66932 0.15701 0.95594
 H972 H 0.60808 0.18314 0.97389
 N973 N 0.78704 0.17708 0.93080
 N974 N 0.81559 0.19532 0.91246
 C975 C 0.84606 0.19990 0.93641
 C976 C 0.83714 0.18515 0.97048
 C977 C 0.80034 0.17055 0.96568
 H978 H 0.85575 0.18330 0.99494
 H979 H 0.76081 0.16928 0.91813
 H980 H 0.81246 0.20367 0.88498
 N981 N 0.27330 0.71251 0.49614
 N982 N 0.30025 0.73210 0.48088
 C983 C 0.33342 0.71639 0.48851
 C984 C 0.32741 0.68592 0.51012
 C985 C 0.28898 0.68450 0.51424
 H986 H 0.34772 0.66622 0.51960
 H987 H 0.24469 0.71781 0.49343
 H988 H 0.29562 0.75455 0.46390
 N989 N 0.65608 0.83382 0.52000
 N990 N 0.62099 0.82118 0.51310
 C991 C 0.61205 0.82335 0.47607
 C992 C 0.64296 0.83819 0.45889
 C993 C 0.67034 0.84433 0.48755
 H994 H 0.64539 0.84349 0.42949
 H995 H 0.66975 0.83467 0.54655
 H996 H 0.60411 0.81053 0.53356
 N997 N 0.17798 0.32133 0.03381
 N998 N 0.14352 0.30676 0.02696
 C999 C 0.12856 0.32166 -0.00388
 C1000 C 0.15471 0.34674 -0.01714
 C1001 C 0.18584 0.34552 0.00723
 H1002 H 0.15209 0.36208 -0.04234
 H1003 H 0.19602 0.31358 0.05556
 H1004 H 0.13095 0.28647 0.04284
 N1005 N 0.29009 0.28884 0.04902
 N1006 N 0.31577 0.26596 0.06104
 C1007 C 0.34945 0.27668 0.04837
 C1008 C 0.34470 0.30749 0.02676
 C1009 C 0.30674 0.31437 0.02817
 H1010 H 0.36604 0.32400 0.01371
 H1011 H 0.26182 0.28731 0.05573
 H1012 H 0.31036 0.24470 0.07923
 N1013 N 0.77623 0.79641 0.55196
 N1014 N 0.80246 0.77801 0.56965
 C1015 C 0.83592 0.78535 0.55455
 C1016 C 0.83041 0.80912 0.52556
 C1017 C 0.79231 0.81566 0.52510
 H1018 H 0.85135 0.82175 0.50859
 H1019 H 0.74801 0.79624 0.55890
 H1020 H 0.79742 0.76226 0.59282
   
