data_POSCAR
  _audit_creation_date              2014-09-24
  _audit_creation_method            'ToBaCCo'
  _symmetry_space_group_name_H-M    'P1'
  _symmetry_Int_Tables_number       1
  _symmetry_cell_setting            triclinic
  loop_
  _symmetry_equiv_pos_as_xyz
 x,y,z
_cell_length_a 32.0582
_cell_length_b 33.3445
_cell_length_c 39.1340
_cell_angle_alpha 90.094000
_cell_angle_beta 90.133800
_cell_angle_gamma 119.858400
loop_
  _atom_site_label
  _atom_site_type_symbol
  _atom_site_fract_x
  _atom_site_fract_y
  _atom_site_fract_z
C1 C 0.03653 0.54339 1.32014
 C2 C -0.00698 0.51484 1.33707
 C3 C -0.05145 0.49578 1.32032
 C4 C -0.05256 0.50008 1.28433
 C5 C -0.00879 0.52523 1.26604
 C6 C 0.03592 0.54766 1.28394
 C7 C 0.07872 0.56936 1.26476
 C8 C 0.07785 0.57034 1.22927
 C9 C 0.03426 0.54796 1.21121
 C10 C -0.00958 0.52556 1.22961
 C11 C -0.09581 0.47552 1.26584
 C12 C -0.09654 0.47625 1.23045
 C13 C -0.05404 0.50149 1.21161
 C14 C -0.05413 0.49952 1.17531
 C15 C -0.01027 0.52096 1.15791
 C16 C 0.03342 0.54607 1.17516
 H17 H 0.11368 0.58394 1.27668
 H18 H 0.11198 0.58736 1.21604
 H19 H -0.12958 0.45319 1.27837
 H20 H -0.13082 0.45463 1.21814
 H21 H -0.00669 0.51112 1.36462
 H22 H -0.01008 0.51955 1.13019
 C23 C 0.53504 0.48893 1.17861
 C24 C 0.51255 0.50993 1.16173
 C25 C 0.48568 0.52556 1.17950
 C26 C 0.48178 0.52113 1.21542
 C27 C 0.50473 0.50015 1.23302
 C28 C 0.53116 0.48365 1.21449
 C29 C 0.55095 0.46037 1.23205
 C30 C 0.54579 0.45417 1.26724
 C31 C 0.52190 0.47224 1.28663
 C32 C 0.49975 0.49412 1.26903
 C33 C 0.45510 0.53659 1.23408
 C34 C 0.44996 0.53049 1.26929
 C35 C 0.47149 0.50889 1.28716
 C36 C 0.46410 0.50027 1.32252
 C37 C 0.48497 0.47773 1.33942
 C38 C 0.51587 0.46564 1.32265
 H39 H 0.56977 0.44575 1.21861
 H40 H 0.55934 0.43347 1.27874
 H41 H 0.43750 0.55310 1.22152
 H42 H 0.42812 0.54213 1.28232
 H43 H 0.51466 0.51276 1.13408
 H44 H 0.47979 0.47284 1.36682
 C45 C 0.49491 0.95808 1.32123
 C46 C 0.50800 0.99936 1.33898
 C47 C 0.53385 1.04276 1.32336
 C48 C 0.54040 1.04489 1.28736
 C49 C 0.52434 1.00346 1.26827
 C50 C 0.50229 0.95993 1.28523
 C51 C 0.48396 0.91942 1.26524
 C52 C 0.48868 0.92137 1.22991
 C53 C 0.50981 0.96380 1.21272
 C54 C 0.52806 1.00539 1.23190
 C55 C 0.55770 1.08685 1.26957
 C56 C 0.56126 1.08869 1.23418
 C57 C 0.54766 1.04863 1.21467
 C58 C 0.54828 1.04968 1.17828
 C59 C 0.52964 1.00798 1.16020
 C60 C 0.51170 0.96563 1.17671
 H61 H 0.46374 0.88542 1.27633
 H62 H 0.47391 0.88900 1.21604
 H63 H 0.56629 1.11865 1.28263
 H64 H 0.57273 1.12180 1.22236
 H65 H 0.50279 0.99797 1.36645
 H66 H 0.52995 1.00839 1.13244
 C67 C 1.04379 0.55466 0.82512
 C68 C 0.99905 0.53079 0.84141
 C69 C 0.95588 0.51239 0.82322
 C70 C 0.95658 0.51528 0.78721
 C71 C 1.00131 0.53667 0.76982
 C72 C 1.04511 0.55648 0.78874
 C73 C 1.08847 0.57277 0.77070
 C74 C 1.08928 0.57194 0.73525
 C75 C 1.04673 0.55445 0.71589
 C76 C 1.00213 0.53572 0.73343
 C77 C 0.91369 0.49503 0.76812
 C78 C 0.91449 0.49420 0.73261
 C79 C 0.95821 0.51367 0.71476
 C80 C 0.95922 0.50932 0.67887
 C81 C 1.00324 0.52617 0.66221
 C82 C 1.04709 0.55042 0.67972
 H83 H 1.12231 0.58405 0.78366
 H84 H 1.12369 0.58293 0.72338
 H85 H 0.87895 0.47826 0.78050
 H86 H 0.88030 0.47662 0.71937
 H87 H 0.99753 0.52822 0.86909
 H88 H 1.00322 0.52249 0.63463
 C89 C 0.43688 0.49125 0.82083
 C90 C 0.45577 0.46784 0.83904
 C91 C 0.47478 0.44351 0.82234
 C92 C 0.47645 0.44342 0.78629
 C93 C 0.45799 0.46747 0.76738
 C94 C 0.43763 0.49112 0.78466
 C95 C 0.42000 0.51507 0.76535
 C96 C 0.42274 0.51618 0.72978
 C97 C 0.44353 0.49367 0.71222
 C98 C 0.46112 0.46891 0.73116
 C99 C 0.49760 0.42127 0.76875
 C100 C 0.50076 0.42278 0.73331
 C101 C 0.48266 0.44627 0.71399
 C102 C 0.48681 0.44895 0.67799
 C103 C 0.47023 0.47429 0.65977
 C104 C 0.44815 0.49600 0.67625
 H105 H 0.40446 0.53366 0.77763
 H106 H 0.40912 0.53552 0.71613
 H107 H 0.51267 0.40315 0.78231
 H108 H 0.51832 0.40592 0.72128
 H109 H 0.45553 0.46843 0.86677
 H110 H 0.47341 0.47612 0.63214
 C111 C 0.50215 -0.05079 0.81822
 C112 C 0.51925 -0.00832 0.83530
 C113 C 0.54723 0.03386 0.81882
 C114 C 0.55574 0.03461 0.78341
 C115 C 0.53637 -0.00765 0.76499
 C116 C 0.50950 -0.05056 0.78227
 C117 C 0.48770 -0.09152 0.76262
 C118 C 0.49474 -0.09074 0.72747
 C119 C 0.52233 -0.04882 0.71018
 C120 C 0.54300 -0.00685 0.72903
 C121 C 0.58171 0.07665 0.76578
 C122 C 0.58852 0.07734 0.73069
 C123 C 0.56928 0.03605 0.71183
 C124 C 0.57552 0.03657 0.67611
 C125 C 0.55668 -0.00505 0.65813
 C126 C 0.52959 -0.04759 0.67446
 H127 H 0.46371 -0.12469 0.77391
 H128 H 0.47780 -0.12341 0.71390
 H129 H 0.59647 0.10956 0.77887
 H130 H 0.60897 0.11065 0.71842
 H131 H 0.51388 -0.00784 0.86265
 H132 H 0.56087 -0.00423 0.63058
 O133 O 0.41166 0.66738 0.97252
 O134 O 0.40228 0.73969 0.96124
 C135 C 0.37854 0.76035 0.95727
 O136 O 0.34262 0.75210 0.97575
 O137 O 0.26670 0.67030 0.96567
 C138 C 0.24481 0.62673 0.96193
 O139 O 0.25485 0.60036 0.97938
 O140 O 0.33798 0.60677 0.96515
 C141 C 0.38211 0.63009 0.95725
 O142 O 0.41445 0.68377 1.04012
 O143 O 0.40831 0.75775 1.02942
 C144 C 0.37756 0.76087 1.04818
 O145 O 0.33257 0.73665 1.04334
 O146 O 0.25380 0.65800 1.03366
 C147 C 0.25163 0.62561 1.05200
 O148 O 0.27742 0.60735 1.04647
 O149 O 0.35821 0.60990 1.03265
 C150 C 0.39550 0.64136 1.04765
 Cr151 Cr 0.40664 0.71082 1.00088
 Cr152 Cr 0.30034 0.70320 1.00451
 Cr153 Cr 0.30827 0.60851 1.00577
 O154 O 0.33853 0.67412 1.00368
 O155 O 0.58617 0.32403 0.95531
 O156 O 0.58300 0.24480 0.96339
 C157 C 0.61235 0.23573 0.94850
 O158 O 0.65665 0.25556 0.95602
 O159 O 0.73748 0.33252 0.96583
 C160 C 0.74709 0.37045 0.95165
 O161 O 0.72647 0.39330 0.95952
 O162 O 0.64610 0.39441 0.96845
 C163 C 0.60927 0.36743 0.95094
 O164 O 0.58124 0.33153 1.02340
 O165 O 0.58200 0.25398 1.03113
 C166 C 0.60614 0.23454 1.03892
 O167 O 0.64533 0.24342 1.02454
 O168 O 0.72568 0.32047 1.03362
 C169 C 0.74601 0.36280 1.04172
 O170 O 0.73652 0.39148 1.02767
 O171 O 0.65474 0.38870 1.03641
 C172 C 0.60972 0.36638 1.04125
 Cr173 Cr 0.58609 0.29003 0.99339
 Cr174 Cr 0.68973 0.28936 0.99499
 Cr175 Cr 0.68950 0.38914 0.99786
 O176 O 0.65521 0.32277 0.99546
 O177 O 0.65340 0.39562 0.53079
 O178 O 0.73495 0.39568 0.53640
 C179 C 0.75711 0.37383 0.54298
 O180 O 0.74782 0.33618 0.52826
 O181 O 0.67001 0.25893 0.54231
 C182 C 0.62760 0.24016 0.55377
 O183 O 0.59540 0.24748 0.54149
 O184 O 0.59752 0.32603 0.54833
 C185 C 0.61943 0.36965 0.55064
 O186 O 0.65479 0.38499 0.46286
 O187 O 0.73917 0.39083 0.46805
 C188 C 0.74780 0.36195 0.45330
 O189 O 0.72739 0.31972 0.46127
 O190 O 0.64963 0.24250 0.47496
 C191 C 0.60790 0.23130 0.46388
 O192 O 0.58408 0.25021 0.47379
 O193 O 0.58344 0.32823 0.48062
 C194 C 0.60920 0.36202 0.46102
 Cr195 Cr 0.69422 0.38899 0.49968
 Cr196 Cr 0.69712 0.29066 0.50180
 Cr197 Cr 0.59302 0.28941 0.51071
 O198 O 0.66144 0.32283 0.50393
 O199 O 0.35156 0.60157 0.52439
 O200 O 0.27041 0.59832 0.53672
 C201 C 0.24708 0.61835 0.54462
 O202 O 0.25285 0.65464 0.53001
 O203 O 0.33273 0.73229 0.53938
 C204 C 0.37780 0.75418 0.54460
 O205 O 0.40751 0.74961 0.52587
 O206 O 0.41178 0.67391 0.53184
 C207 C 0.38975 0.63128 0.53936
 O208 O 0.33577 0.60259 0.45672
 O209 O 0.25322 0.59759 0.46979
 C210 C 0.24126 0.62459 0.45550
 O211 O 0.26171 0.66768 0.46185
 O212 O 0.33991 0.74838 0.47181
 C213 C 0.37697 0.75885 0.45399
 O214 O 0.40142 0.73873 0.45720
 O215 O 0.40857 0.66457 0.46328
 C216 C 0.37942 0.62727 0.44811
 Cr217 Cr 0.30417 0.60283 0.49682
 Cr218 Cr 0.29837 0.69953 0.50054
 Cr219 Cr 0.40447 0.70519 0.49462
 O220 O 0.33567 0.66910 0.49725
 C221 C 0.43798 0.58000 0.37198
 C222 C 0.39478 0.54912 0.38831
 N223 N 0.37387 0.50313 0.38159
 C224 C 0.39453 0.48656 0.35956
 C225 C 0.43796 0.51738 0.34348
 N226 N 0.45856 0.56348 0.35002
 N227 N 0.45983 0.62575 0.37955
 C228 C 0.44088 0.64207 0.40312
 C229 C 0.39804 0.61124 0.42001
 N230 N 0.37575 0.56540 0.41186
 H231 H 0.37778 0.44970 0.35507
 H232 H 0.45949 0.67868 0.40897
 C233 C 0.42630 0.87290 0.38696
 C234 C 0.44218 0.84084 0.38317
 N235 N 0.47456 0.84750 0.35837
 C236 C 0.49153 0.88459 0.33706
 C237 C 0.47570 0.91703 0.34075
 N238 N 0.44395 0.91034 0.36624
 N239 N 0.39374 0.86638 0.41148
 C240 C 0.37642 0.82929 0.43261
 C241 C 0.39300 0.79747 0.42958
 N242 N 0.42568 0.80414 0.40477
 H243 H 0.51871 0.88972 0.31849
 H244 H 0.35080 0.82536 0.45213
 C245 C 0.12207 0.56184 0.38834
 C246 C 0.15677 0.60860 0.38430
 N247 N 0.15150 0.63312 0.35863
 C248 C 0.11338 0.61287 0.33667
 C249 C 0.07851 0.56572 0.34055
 N250 N 0.08378 0.54198 0.36692
 N251 N 0.12710 0.53683 0.41358
 C252 C 0.16542 0.55640 0.43507
 C253 C 0.20020 0.60345 0.43157
 N254 N 0.19490 0.62865 0.40623
 H255 H 0.10938 0.63389 0.31732
 H256 H 0.16826 0.53549 0.45507
 C257 C 0.53792 0.40459 0.39141
 C258 C 0.58692 0.41939 0.38735
 N259 N 0.61154 0.44851 0.36137
 C260 C 0.58931 0.46328 0.33914
 C261 C 0.53994 0.44851 0.34309
 N262 N 0.51602 0.41998 0.36971
 N263 N 0.51300 0.37541 0.41719
 C264 C 0.53492 0.36043 0.43933
 C265 C 0.58436 0.37588 0.43594
 N266 N 0.60923 0.40515 0.40987
 H267 H 0.61059 0.48805 0.31968
 H268 H 0.51407 0.33744 0.45982
 C269 C 0.54581 0.12066 0.39335
 C270 C 0.59404 0.15548 0.39023
 N271 N 0.62103 0.15321 0.36446
 C272 C 0.60198 0.11775 0.34155
 C273 C 0.55369 0.08218 0.34477
 N274 N 0.52719 0.08448 0.37116
 N275 N 0.51837 0.12357 0.41854
 C276 C 0.53712 0.15965 0.44093
 C277 C 0.58587 0.19374 0.43860
 N278 N 0.61322 0.19075 0.41323
 H279 H 0.62498 0.11631 0.32194
 H280 H 0.51461 0.16103 0.46094
 C281 C 0.86377 0.41976 0.38446
 C282 C 0.82789 0.43216 0.38292
 N283 N 0.83186 0.46434 0.35998
 C284 C 0.87008 0.48469 0.33845
 C285 C 0.90680 0.47318 0.34044
 N286 N 0.90280 0.44131 0.36391
 N287 N 0.85911 0.38648 0.40656
 C288 C 0.82043 0.36541 0.42758
 C289 C 0.78556 0.37923 0.42724
 N290 N 0.79018 0.41244 0.40486
 H291 H 0.87270 0.51086 0.32084
 H292 H 0.81802 0.33960 0.44547
 C293 C 0.54840 0.41429 1.11488
 C294 C 0.59859 0.43506 1.11202
 N295 N 0.62727 0.47192 1.13221
 C296 C 0.60795 0.48917 1.15486
 C297 C 0.55774 0.46886 1.15715
 N298 N 0.52924 0.43186 1.13706
 N299 N 0.51955 0.37762 1.09483
 C300 C 0.53848 0.36089 1.07166
 C301 C 0.58875 0.38214 1.06798
 N302 N 0.61767 0.41874 1.08851
 H303 H 0.63136 0.51897 1.17035
 H304 H 0.51435 0.33180 1.05583
 C305 C 0.86229 0.42273 1.11064
 C306 C 0.82472 0.43268 1.11304
 N307 N 0.82709 0.46340 1.13686
 C308 C 0.86544 0.48472 1.15842
 C309 C 0.90384 0.47574 1.15551
 N310 N 0.90132 0.44526 1.13123
 N311 N 0.85934 0.39096 1.08758
 C312 C 0.82070 0.36909 1.06639
 C313 C 0.78412 0.38058 1.06763
 N314 N 0.78702 0.41219 1.09100
 H315 H 0.86682 0.50976 1.17671
 H316 H 0.81957 0.34455 1.04774
 C317 C 0.55248 0.12611 1.11040
 C318 C 0.59904 0.16396 1.11415
 N319 N 0.62716 0.16462 1.14044
 C320 C 0.61090 0.12893 1.16303
 C321 C 0.56470 0.09011 1.15865
 N322 N 0.53703 0.08988 1.13206
 N323 N 0.52369 0.12574 1.08479
 C324 C 0.53960 0.16140 1.06238
 C325 C 0.58692 0.19840 1.06506
 N326 N 0.61566 0.19888 1.09099
 H327 H 0.63472 0.12977 1.18302
 H328 H 0.51620 0.16009 1.04188
 C329 C 0.46284 0.60087 1.12218
 C330 C 0.41446 0.57148 1.11313
 N331 N 0.38957 0.52910 1.12777
 C332 C 0.41110 0.51452 1.15069
 C333 C 0.45983 0.54334 1.15899
 N334 N 0.48460 0.58593 1.14449
 N335 N 0.48766 0.64330 1.10771
 C336 C 0.46649 0.65763 1.08433
 C337 C 0.41846 0.62781 1.07440
 N338 N 0.39355 0.58539 1.08925
 H339 H 0.39093 0.48021 1.16150
 H340 H 0.48736 0.69153 1.07302
 C341 C 0.14440 0.57136 1.12833
 C342 C 0.15166 0.60917 1.10827
 N343 N 0.12210 0.62709 1.11191
 C344 C 0.08506 0.60848 1.13443
 C345 C 0.07712 0.57016 1.15410
 N346 N 0.10713 0.55249 1.15068
 N347 N 0.17357 0.55304 1.12410
 C348 C 0.20933 0.57044 1.10042
 C349 C 0.21598 0.60769 1.07976
 N350 N 0.18702 0.62626 1.08452
 H351 H 0.06128 0.62270 1.13643
 H352 H 0.23166 0.55479 1.09736
 C353 C 0.42841 0.86124 1.12705
 C354 C 0.46061 0.85523 1.10631
 N355 N 0.50868 0.88332 1.11064
 C356 C 0.52601 0.91765 1.13445
 C357 C 0.49387 0.92426 1.15479
 N358 N 0.44570 0.89575 1.15064
 N359 N 0.38037 0.83370 1.12228
 C360 C 0.36297 0.80065 1.09750
 C361 C 0.39510 0.79505 1.07622
 N362 N 0.44329 0.82244 1.08142
 H363 H 0.56446 0.94042 1.13690
 H364 H 0.32445 0.77940 1.09422
 C365 C 0.56813 0.43296 0.61943
 C366 C 0.54567 0.38458 0.61713
 N367 N 0.50538 0.35808 0.63566
 C368 C 0.48637 0.37783 0.65622
 C369 C 0.50852 0.42626 0.65821
 N370 N 0.54889 0.45264 0.63962
 N371 N 0.60811 0.45953 0.60075
 C372 C 0.62640 0.43999 0.57944
 C373 C 0.60338 0.39151 0.57630
 N374 N 0.56359 0.36496 0.59553
 H375 H 0.45384 0.35609 0.67039
 H376 H 0.65799 0.46221 0.56454
 C377 C 0.58589 0.13773 0.62984
 C378 C 0.62859 0.15258 0.61139
 N379 N 0.65462 0.13098 0.61596
 C380 C 0.63948 0.09471 0.63782
 C381 C 0.59647 0.07948 0.65594
 N382 N 0.57079 0.10155 0.65161
 N383 N 0.55891 0.15811 0.62436
 C384 C 0.57226 0.19226 0.60083
 C385 C 0.61455 0.20669 0.58181
 N386 N 0.64196 0.18668 0.58790
 H387 H 0.66012 0.07724 0.64049
 H388 H 0.54967 0.20743 0.59665
 C389 C 0.87027 0.42987 0.61552
 C390 C 0.83995 0.44872 0.61160
 N391 N 0.84779 0.48579 0.63087
 C392 C 0.88481 0.50503 0.65372
 C393 C 0.91546 0.48643 0.65738
 N394 N 0.90744 0.44935 0.63798
 N395 N 0.86274 0.39300 0.59630
 C396 C 0.82631 0.37408 0.57313
 C397 C 0.79613 0.39315 0.56864
 N398 N 0.80374 0.43013 0.58817
 H399 H 0.89102 0.53513 0.66830
 H400 H 0.82143 0.34476 0.55810
 C401 C 0.44298 0.57948 0.61628
 C402 C 0.39422 0.55579 0.60687
 N403 N 0.36371 0.51489 0.62195
 C404 C 0.37990 0.49618 0.64575
 C405 C 0.42888 0.51908 0.65448
 N406 N 0.45940 0.56031 0.63951
 N407 N 0.47329 0.62060 0.60129
 C408 C 0.45714 0.63891 0.57705
 C409 C 0.40862 0.61449 0.56680
 N410 N 0.37838 0.57354 0.58221
 H411 H 0.35517 0.46306 0.65694
 H412 H 0.48213 0.67155 0.56534
 C413 C 0.43755 0.85278 0.62443
 C414 C 0.46656 0.84212 0.60389
 N415 N 0.51495 0.86529 0.60847
 C416 C 0.53584 0.89930 0.63235
 C417 C 0.50710 0.91078 0.65252
 N418 N 0.45844 0.88706 0.64813
 N419 N 0.38919 0.83005 0.61929
 C420 C 0.36856 0.79743 0.59429
 C421 C 0.39769 0.78738 0.57319
 N422 N 0.44605 0.80993 0.57884
 H423 H 0.57462 0.91812 0.63498
 H424 H 0.32998 0.78014 0.59061
 C425 C 0.13245 0.55997 0.61442
 C426 C 0.16787 0.60674 0.61711
 N427 N 0.16383 0.63356 0.64153
 C428 C 0.12583 0.61577 0.66335
 C429 C 0.08938 0.56914 0.66010
 N430 N 0.09366 0.54270 0.63527
 N431 N 0.13707 0.53270 0.59072
 C432 C 0.17530 0.55028 0.56918
 C433 C 0.20962 0.59755 0.57072
 N434 N 0.20509 0.62476 0.59473
 H435 H 0.12296 0.63835 0.68194
 H436 H 0.17777 0.52806 0.55006
 C437 C 0.43420 0.57442 0.88240
 C438 C 0.38460 0.55689 0.88635
 N439 N 0.35313 0.52026 0.86705
 C440 C 0.36904 0.49993 0.84432
 C441 C 0.41862 0.51665 0.84106
 N442 N 0.45001 0.55359 0.86025
 N443 N 0.46573 0.61093 0.90166
 C444 C 0.44997 0.63047 0.92508
 C445 C 0.40026 0.61217 0.92998
 N446 N 0.36876 0.57583 0.91021
 H447 H 0.34332 0.47011 0.82979
 H448 H 0.47605 0.65921 0.94033
 C449 C 0.12602 0.56771 0.89443
 C450 C 0.16375 0.61303 0.88948
 N451 N 0.16147 0.63826 0.86310
 C452 C 0.12330 0.62007 0.84122
 C453 C 0.08519 0.57449 0.84605
 N454 N 0.08747 0.54996 0.87313
 N455 N 0.12854 0.54206 0.92037
 C456 C 0.16710 0.55979 0.94179
 C457 C 0.20449 0.60563 0.93752
 N458 N 0.20179 0.63121 0.91138
 H459 H 0.12199 0.64152 0.82099
 H460 H 0.16791 0.53868 0.96248
 C461 C 0.43052 0.86968 0.88600
 C462 C 0.44241 0.83468 0.88287
 N463 N 0.47245 0.83718 0.85753
 C464 C 0.49113 0.87310 0.83511
 C465 C 0.47979 0.90878 0.83835
 N466 N 0.45008 0.90605 0.86425
 N467 N 0.40027 0.86723 0.91112
 C468 C 0.38166 0.83149 0.93358
 C469 C 0.39467 0.79703 0.93131
 N470 N 0.42481 0.79950 0.90582
 H471 H 0.51660 0.87494 0.81619
 H472 H 0.35811 0.83081 0.95362
 C473 C 0.55590 0.42852 0.88178
 C474 C 0.53217 0.38028 0.88576
 N475 N 0.49065 0.35344 0.86832
 C476 C 0.47171 0.37276 0.84722
 C477 C 0.49519 0.42104 0.84363
 N478 N 0.53677 0.44776 0.86106
 N479 N 0.59729 0.45546 0.89913
 C480 C 0.61592 0.43649 0.92066
 C481 C 0.59183 0.38823 0.92542
 N482 N 0.55048 0.36123 0.90760
 H483 H 0.43844 0.35083 0.83370
 H484 H 0.64878 0.45908 0.93438
 C485 C 0.86132 0.42798 0.88060
 C486 C 0.83278 0.44847 0.88605
 N487 N 0.84354 0.48825 0.86949
 C488 C 0.88188 0.50870 0.84801
 C489 C 0.91098 0.48867 0.84313
 N490 N 0.89992 0.44873 0.85962
 N491 N 0.85082 0.38837 0.89710
 C492 C 0.81337 0.36844 0.91920
 C493 C 0.78532 0.38939 0.92557
 N494 N 0.79569 0.42896 0.90857
 H495 H 0.89034 0.54080 0.83551
 H496 H 0.80635 0.33710 0.93224
 C497 C 0.55605 0.12574 0.87698
 C498 C 0.60574 0.15135 0.88341
 N499 N 0.63551 0.13911 0.86771
 C500 C 0.61777 0.10223 0.84605
 C501 C 0.56797 0.07624 0.83997
 N502 N 0.53828 0.08862 0.85573
 N503 N 0.52620 0.13776 0.89267
 C504 C 0.54363 0.17393 0.91486
 C505 C 0.59329 0.19911 0.92212
 N506 N 0.62320 0.18720 0.90595
 H507 H 0.64205 0.09270 0.83415
 H508 H 0.51871 0.18223 0.92725
   
