data_POSCAR
  _audit_creation_date              2014-09-24
  _audit_creation_method            'ToBaCCo'
  _symmetry_space_group_name_H-M    'P1'
  _symmetry_Int_Tables_number       1
  _symmetry_cell_setting            triclinic
  loop_
  _symmetry_equiv_pos_as_xyz
 x,y,z
_cell_length_a 34.0586
_cell_length_b 32.7957
_cell_length_c 66.2975
_cell_angle_alpha 89.864600
_cell_angle_beta 89.196600
_cell_angle_gamma 120.294600
loop_
  _atom_site_label
  _atom_site_type_symbol
  _atom_site_fract_x
  _atom_site_fract_y
  _atom_site_fract_z
C1 C 0.01636 0.08031 0.50644
 H2 H 0.04048 0.09309 0.49398
 C3 C 0.00993 0.11249 0.51757
 H4 H 0.02967 0.14959 0.51353
 C5 C -0.03851 0.01683 0.52660
 H6 H -0.05718 -0.02059 0.53007
 C7 C -0.04582 0.04799 0.53829
 H8 H -0.07021 0.03416 0.55071
 N9 N -0.00696 0.03354 0.51131
 C10 C 0.03187 -0.07494 0.50584
 H11 H 0.03406 -0.07719 0.48970
 C12 C 0.03709 -0.10648 0.51807
 H13 H 0.04265 -0.13298 0.51106
 C14 C 0.02256 -0.03761 0.53450
 H15 H 0.01719 -0.01059 0.54093
 C16 C 0.02799 -0.06824 0.54734
 H17 H 0.02593 -0.06481 0.56350
 Zn18 Zn 0.00731 -0.00714 0.49640
 N19 N 0.02278 -0.04262 0.51411
 C20 C 0.09908 0.05785 0.48770
 N21 N 0.05775 0.03102 0.47918
 C22 C 0.05156 0.03506 0.45920
 C23 C 0.08767 0.06753 0.44701
 C24 C 0.13594 0.09146 0.47612
 C25 C -0.08507 -0.05500 0.48347
 C26 C -0.12192 -0.08760 0.47213
 C27 C -0.07155 -0.10813 0.45478
 C28 C -0.03600 -0.07545 0.46649
 N29 N -0.04317 -0.04988 0.48065
 H30 H 0.10287 0.05443 0.50368
 H31 H 0.01818 0.01466 0.45283
 H32 H 0.08169 0.07106 0.43128
 H33 H 0.16826 0.11350 0.48328
 H34 H -0.09021 -0.03406 0.49458
 H35 H -0.15486 -0.09098 0.47490
 H36 H -0.06410 -0.12758 0.44367
 H37 H -0.00226 -0.06976 0.46386
 C38 C 0.03386 -0.10426 0.53911
 C39 C -0.02086 0.09668 0.53399
 C40 C -0.11568 -0.11516 0.45751
 C41 C 0.13025 0.09698 0.45555
 C42 C 1.05578 0.02488 0.12726
 H43 H 1.04450 0.04912 0.12299
 C44 C 1.08695 0.02044 0.11498
 H45 H 1.09891 0.04107 0.10116
 C46 C 1.05543 -0.02933 0.15108
 H47 H 1.04384 -0.04759 0.16544
 C48 C 1.08681 -0.03474 0.13926
 H49 H 1.09876 -0.05774 0.14458
 N50 N 1.04115 0.00063 0.14502
 C51 C 0.95456 0.05843 0.14928
 H52 H 0.97197 0.08458 0.16071
 C53 C 0.92123 0.06022 0.13781
 H54 H 0.91341 0.08789 0.14061
 C55 C 0.94315 -0.00948 0.13179
 H56 H 0.95204 -0.03640 0.12935
 C57 C 0.90998 -0.00887 0.11996
 H58 H 0.89341 -0.03587 0.10869
 Zn59 Zn 1.00592 0.01577 0.16239
 N60 N 0.96430 0.02340 0.14631
 C61 C 1.03212 0.09207 0.19043
 N62 N 1.04661 0.07236 0.17625
 C63 C 1.09172 0.09129 0.17196
 C64 C 1.12413 0.13054 0.18228
 C65 C 1.06366 0.13133 0.20135
 C66 C 0.94277 -0.07805 0.17300
 C67 C 0.91184 -0.11512 0.18545
 C68 C 0.94200 -0.06372 0.21410
 C69 C 0.97272 -0.02773 0.20110
 N70 N 0.97151 -0.03493 0.18085
 H71 H 0.99616 0.07649 0.19374
 H72 H 1.10308 0.07550 0.16079
 H73 H 1.15973 0.14408 0.17870
 H74 H 1.05157 0.14583 0.21290
 H75 H 0.94296 -0.08346 0.15696
 H76 H 0.88831 -0.14861 0.17871
 H77 H 0.94246 -0.05672 0.23007
 H78 H 0.99644 0.00625 0.20722
 C79 C 0.89810 0.02589 0.12305
 C80 C 1.10366 -0.00891 0.12112
 C81 C 0.91023 -0.10777 0.20623
 C82 C 1.11045 0.15073 0.19744
 C83 C 0.03942 0.97603 0.87679
 H84 H 0.00443 0.94975 0.88023
 C85 C 0.07401 0.97976 0.88901
 H86 H 0.06510 0.95641 0.90197
 C87 C 0.09315 1.03674 0.85509
 H88 H 0.10028 1.05808 0.84159
 C89 C 0.12895 1.04155 0.86689
 H90 H 0.16356 1.06709 0.86242
 N91 N 0.04951 1.00383 0.86006
 C92 C -0.09307 0.95193 0.85378
 H93 H -0.10050 0.92981 0.84072
 C94 C -0.12887 0.95002 0.86519
 H95 H -0.16346 0.92612 0.86064
 C96 C -0.03915 1.01031 0.87524
 H97 H -0.00406 1.03412 0.87902
 C98 C -0.07366 1.00951 0.88707
 H99 H -0.06422 1.03290 0.89986
 Zn100 Zn 0.00111 0.99103 0.84268
 N101 N -0.04918 0.98227 0.85880
 C102 C -0.04383 0.92025 0.81255
 N103 N -0.01271 0.93608 0.82754
 C104 C 0.01156 0.91451 0.83155
 C105 C 0.00539 0.87596 0.82034
 C106 C -0.05085 0.88179 0.80077
 C107 C 0.02254 1.08331 0.83369
 C108 C 0.02810 1.12074 0.82159
 C109 C 0.02729 1.07706 0.79217
 C110 C 0.02142 1.04021 0.80488
 N111 N 0.01781 1.04340 0.82522
 H112 H -0.06221 0.93837 0.80931
 H113 H 0.03658 0.92756 0.84324
 H114 H 0.02571 0.86005 0.82380
 H115 H -0.07512 0.87025 0.78870
 H116 H 0.02035 1.08549 0.84987
 H117 H 0.03018 1.15145 0.82870
 H118 H 0.02844 1.07315 0.77600
 H119 H 0.01853 1.00863 0.79841
 C120 C -0.11945 0.97965 0.88198
 C121 C 0.11959 1.01221 0.88393
 C122 C 0.02932 1.11741 0.80051
 C123 C -0.02573 0.85934 0.80454
 C124 C 0.46705 0.00286 -0.00847
 C125 C 0.46717 0.00424 0.01289
 C126 C 0.50342 0.00542 0.02319
 C127 C 0.53935 0.00487 0.01283
 C128 C 0.53887 0.00272 -0.00852
 C129 C 0.50282 0.00200 -0.01883
 H130 H 0.50256 0.00072 -0.03518
 H131 H 0.50365 0.00673 0.03954
 C132 C -0.01779 0.44339 0.65867
 C133 C -0.01720 0.44261 0.68002
 C134 C -0.01861 0.47889 0.69066
 C135 C -0.01889 0.51662 0.68073
 C136 C -0.01667 0.51887 0.65937
 C137 C -0.01701 0.48167 0.64874
 H138 H -0.01617 0.48267 0.63238
 H139 H -0.01898 0.47813 0.70702
 C140 C 0.53424 0.55399 0.31957
 C141 C 0.53087 0.55396 0.34089
 C142 C 0.49190 0.51815 0.35074
 C143 C 0.45622 0.48164 0.34000
 C144 C 0.45844 0.48318 0.31861
 C145 C 0.49775 0.51876 0.30879
 H146 H 0.49949 0.51975 0.29244
 H147 H 0.49069 0.51734 0.36709
 C148 C -0.02918 0.19612 0.57086
 N149 N -0.00327 0.20975 0.55374
 N150 N -0.00136 0.17801 0.54195
 C151 C -0.02528 0.13129 0.54675
 N152 N -0.05155 0.11759 0.56385
 N153 N -0.05348 0.14941 0.57568
 C154 C -0.02940 0.23190 0.58407
 N155 N -0.05441 0.21957 0.60149
 N156 N -0.05329 0.25265 0.61355
 C157 C -0.02704 0.29916 0.60862
 N158 N -0.00220 0.31134 0.59119
 N159 N -0.00336 0.27836 0.57915
 C160 C -0.02488 0.33609 0.62184
 N161 N 0.00279 0.38226 0.61683
 N162 N 0.00525 0.41615 0.62867
 C163 C -0.01968 0.40524 0.64606
 N164 N -0.04781 0.35898 0.65098
 N165 N -0.05021 0.32501 0.63913
 C166 C 0.80342 0.78923 0.24209
 N167 N 0.81192 0.77867 0.22335
 N168 N 0.84643 0.81107 0.21214
 C169 C 0.87400 0.85523 0.21927
 N170 N 0.86574 0.86553 0.23815
 N171 N 0.83110 0.83318 0.24934
 C172 C 0.76393 0.75415 0.25398
 N173 N 0.75226 0.76604 0.27176
 N174 N 0.71559 0.73454 0.28220
 C175 C 0.68927 0.68999 0.27524
 N176 N 0.70107 0.67808 0.25751
 N177 N 0.73763 0.70960 0.24705
 C178 C 0.64876 0.65515 0.28666
 N179 N 0.62469 0.60977 0.28040
 N180 N 0.58831 0.57790 0.29085
 C181 C 0.57458 0.59010 0.30798
 N182 N 0.59823 0.63577 0.31402
 N183 N 0.63475 0.66765 0.30361
 C184 C 0.22446 0.01186 -0.08365
 N185 N 0.18034 -0.01635 -0.07789
 N186 N 0.14722 -0.01558 -0.08800
 C187 C 0.15682 0.01346 -0.10425
 N188 N 0.20109 0.04194 -0.10991
 N189 N 0.23428 0.04119 -0.09979
 C190 C 0.26073 0.00984 -0.07278
 N191 N 0.30496 0.03739 -0.07860
 N192 N 0.33770 0.03508 -0.06880
 C193 C 0.32738 0.00507 -0.05286
 N194 N 0.28316 -0.02247 -0.04705
 N195 N 0.25044 -0.02016 -0.05685
 C196 C 0.36346 0.00308 -0.04181
 N197 N 0.35310 -0.02635 -0.02566
 N198 N 0.38590 -0.02699 -0.01520
 C199 C 0.43031 0.00197 -0.02044
 N200 N 0.44059 0.03068 -0.03685
 N201 N 0.40779 0.03131 -0.04731
 C202 C 0.02769 0.78845 0.57601
 N203 N 0.03496 0.82956 0.58420
 N204 N 0.03780 0.86410 0.57250
 C205 C 0.03383 0.85898 0.55215
 N206 N 0.02709 0.81801 0.54402
 N207 N 0.02398 0.78341 0.55571
 C208 C 0.02205 0.74916 0.58879
 N209 N 0.00658 0.70578 0.58074
 N210 N 0.00015 0.66955 0.59225
 C211 C 0.00919 0.67535 0.61224
 N212 N 0.02494 0.71880 0.62032
 N213 N 0.03107 0.75504 0.60881
 C214 C 0.00180 0.63503 0.62478
 N215 N 0.01764 0.64130 0.64386
 N216 N 0.01138 0.60449 0.65498
 C217 C -0.01154 0.55994 0.64757
 N218 N -0.02713 0.55393 0.62843
 N219 N -0.02061 0.59069 0.61727
 C220 C 0.21068 0.25896 0.23234
 N221 N 0.22200 0.24377 0.21543
 N222 N 0.19001 0.21016 0.20423
 C223 C 0.14531 0.19027 0.20942
 N224 N 0.13389 0.20587 0.22626
 N225 N 0.16599 0.23959 0.23752
 C226 C 0.24673 0.29433 0.24504
 N227 N 0.23680 0.30939 0.26242
 N228 N 0.27006 0.34022 0.27413
 C229 C 0.31436 0.35695 0.26888
 N230 N 0.32415 0.34199 0.25148
 N231 N 0.29099 0.31129 0.23980
 C232 C 0.35137 0.38994 0.28186
 N233 N 0.39520 0.40425 0.27675
 N234 N 0.42904 0.43358 0.28851
 C235 C 0.42039 0.44957 0.30592
 N236 N 0.37653 0.43577 0.31089
 N237 N 0.34262 0.40630 0.29914
 C238 C 0.77849 -0.01522 -0.08583
 N239 N 0.82263 0.01220 -0.08067
 N240 N 0.85539 0.01011 -0.09096
 C241 C 0.84551 -0.01947 -0.10685
 N242 N 0.80113 -0.04713 -0.11190
 N243 N 0.76829 -0.04506 -0.10160
 C244 C 0.74264 -0.01204 -0.07462
 N245 N 0.69830 -0.03914 -0.07966
 N246 N 0.66598 -0.03590 -0.06948
 C247 C 0.67683 -0.00539 -0.05391
 N248 N 0.72116 0.02169 -0.04889
 N249 N 0.75346 0.01845 -0.05906
 C250 C 0.64122 -0.00225 -0.04247
 N251 N 0.65214 0.02798 -0.02681
 N252 N 0.61976 0.02997 -0.01610
 C253 C 0.57522 0.00158 -0.02058
 N254 N 0.56442 -0.02802 -0.03648
 N255 N 0.59679 -0.03000 -0.04720
 C256 C 0.21065 -0.00805 0.08848
 N257 N 0.19317 -0.03525 0.10537
 N258 N 0.15866 -0.03625 0.11555
 C259 C 0.14023 -0.01018 0.10923
 N260 N 0.15762 0.01668 0.09224
 N261 N 0.19209 0.01772 0.08206
 C262 C 0.24960 -0.00557 0.07754
 N263 N 0.26773 0.02299 0.06107
 N264 N 0.30338 0.02580 0.05122
 C265 C 0.32228 0.00021 0.05749
 N266 N 0.30416 -0.02837 0.07396
 N267 N 0.26850 -0.03115 0.08383
 C268 C 0.36106 0.00273 0.04638
 N269 N 0.37895 -0.02415 0.05216
 N270 N 0.41308 -0.02310 0.04164
 C271 C 0.43045 0.00471 0.02491
 N272 N 0.41318 0.03237 0.01940
 N273 N 0.37903 0.03129 0.02991
 C274 C 0.77934 0.78746 0.42407
 N275 N 0.77214 0.81318 0.43810
 N276 N 0.80642 0.84511 0.44903
 C277 C 0.84933 0.85265 0.44640
 N278 N 0.85614 0.82667 0.43229
 N279 N 0.82197 0.79484 0.42136
 C280 C 0.74188 0.75220 0.41195
 N281 N 0.75001 0.72790 0.39755
 N282 N 0.71627 0.69594 0.38644
 C283 C 0.67312 0.68703 0.38936
 N284 N 0.66493 0.71128 0.40378
 N285 N 0.69872 0.74332 0.41488
 C286 C 0.63611 0.65207 0.37695
 N287 N 0.59269 0.64215 0.38010
 N288 N 0.55927 0.61089 0.36864
 C289 C 0.56811 0.58869 0.35350
 N290 N 0.61144 0.59809 0.35055
 N291 N 0.64484 0.62930 0.36203
 C292 C 0.02401 0.21857 0.76356
 N293 N 0.01728 0.21793 0.78380
 N294 N 0.02010 0.18652 0.79551
 C295 C 0.02959 0.15433 0.78747
 N296 N 0.03660 0.15519 0.76720
 N297 N 0.03402 0.18683 0.75547
 C298 C 0.01871 0.25200 0.75073
 N299 N 0.03008 0.25705 0.73079
 N300 N 0.02429 0.28690 0.71924
 C301 C 0.00657 0.31243 0.72720
 N302 N -0.00481 0.30727 0.74711
 N303 N 0.00124 0.27772 0.75867
 C304 C -0.00035 0.34513 0.71462
 N305 N -0.02392 0.36510 0.72209
 N306 N -0.02993 0.39523 0.71093
 C307 C -0.01267 0.40663 0.69182
 N308 N 0.01136 0.38695 0.68444
 N309 N 0.01714 0.35651 0.69557
 C310 C 0.79163 0.02162 0.09013
 N311 N 0.80658 -0.00885 0.08613
 N312 N 0.84061 -0.00707 0.09647
 C313 C 0.86120 0.02529 0.11120
 N314 N 0.84633 0.05597 0.11513
 N315 N 0.81219 0.05417 0.10479
 C316 C 0.75352 0.01881 0.07887
 N317 N 0.73731 0.04818 0.08308
 N318 N 0.70253 0.04521 0.07288
 C319 C 0.68267 0.01275 0.05812
 N320 N 0.69890 -0.01658 0.05392
 N321 N 0.73364 -0.01364 0.06412
 C322 C 0.64471 0.00980 0.04669
 N323 N 0.62583 -0.02172 0.03154
 N324 N 0.59212 -0.02364 0.02085
 C325 C 0.57618 0.00606 0.02484
 N326 N 0.59454 0.03699 0.04024
 N327 N 0.62826 0.03893 0.05093
 C328 C 0.23198 0.20835 0.42095
 N329 N 0.23276 0.20990 0.44141
 N330 N 0.20112 0.17395 0.45240
 C331 C 0.16732 0.13520 0.44337
 N332 N 0.16678 0.13363 0.42289
 N333 N 0.19861 0.16941 0.41189
 C334 C 0.26563 0.24879 0.40883
 N335 N 0.26923 0.24489 0.38859
 N336 N 0.29907 0.28192 0.37753
 C337 C 0.32605 0.32432 0.38627
 N338 N 0.32239 0.32823 0.40650
 N339 N 0.29281 0.29111 0.41758
 C340 C 0.35876 0.36520 0.37408
 N341 N 0.38004 0.40915 0.38203
 N342 N 0.41010 0.44617 0.37104
 C343 C 0.42006 0.44077 0.35165
 N344 N 0.39906 0.39660 0.34385
 N345 N 0.36872 0.35960 0.35477
 C346 C -0.03402 0.75096 0.76797
 N347 N -0.00872 0.76411 0.78486
 N348 N -0.00683 0.79795 0.79654
 C349 C -0.03015 0.82010 0.79185
 N350 N -0.05585 0.80664 0.77499
 N351 N -0.05775 0.77269 0.76326
 C352 C -0.03409 0.71483 0.75489
 N353 N -0.05829 0.70127 0.73762
 N354 N -0.05687 0.66932 0.72568
 C355 C -0.03113 0.64994 0.73058
 N356 N -0.00713 0.66345 0.74786
 N357 N -0.00858 0.69526 0.75977
 C358 C -0.02843 0.61537 0.71746
 N359 N -0.00097 0.59816 0.72240
 N360 N 0.00218 0.56712 0.71061
 C361 C -0.02179 0.55224 0.69334
 N362 N -0.04976 0.56901 0.68851
 N363 N -0.05287 0.60019 0.70031
   
