data_POSCAR
  _audit_creation_date              2014-09-24
  _audit_creation_method            'ToBaCCo'
  _symmetry_space_group_name_H-M    'P1'
  _symmetry_Int_Tables_number       1
  _symmetry_cell_setting            triclinic
  loop_
  _symmetry_equiv_pos_as_xyz
 x,y,z
_cell_length_a 47.5580
_cell_length_b 47.5254
_cell_length_c 47.5502
_cell_angle_alpha 90.168000
_cell_angle_beta 89.984000
_cell_angle_gamma 90.106300
loop_
  _atom_site_label
  _atom_site_type_symbol
  _atom_site_fract_x
  _atom_site_fract_y
  _atom_site_fract_z
C1 C 0.31426 0.31369 -0.01558
 C2 C 0.31460 0.31344 0.01310
 C3 C 0.29558 0.33161 0.03002
 C4 C 0.33485 0.29586 0.02904
 C5 C 0.33226 0.29444 -0.03245
 C6 C 0.29676 0.33404 -0.03147
 C7 C 0.30701 0.34998 0.05021
 C8 C 0.28957 0.36798 0.06555
 C9 C 0.26049 0.36771 0.06104
 C10 C 0.24884 0.34901 0.04141
 C11 C 0.26628 0.33092 0.02606
 C12 C 0.36395 0.29843 0.02455
 C13 C 0.38279 0.28181 0.03970
 C14 C 0.37277 0.26267 0.05969
 C15 C 0.34382 0.26033 0.06457
 C16 C 0.32496 0.27692 0.04940
 C17 C 0.33146 0.26517 -0.02832
 C18 C 0.34966 0.24752 -0.04328
 C19 C 0.36864 0.25894 -0.06275
 C20 C 0.36893 0.28804 -0.06751
 C21 C 0.35078 0.30565 -0.05253
 C22 C 0.27750 0.32425 -0.05164
 C23 C 0.26066 0.34323 -0.06642
 C24 C 0.26308 0.37217 -0.06134
 C25 C 0.28262 0.38209 -0.04163
 C26 C 0.29949 0.36315 -0.02687
 H27 H 0.32951 0.35077 0.05365
 H28 H 0.29880 0.38234 0.08071
 H29 H 0.22635 0.34855 0.03783
 H30 H 0.25701 0.31658 0.01093
 H31 H 0.37202 0.31335 0.00936
 H32 H 0.40516 0.28393 0.03591
 H33 H 0.30261 0.27483 0.05332
 H34 H 0.31699 0.25607 -0.01327
 H35 H 0.34905 0.22505 -0.03941
 H36 H 0.38342 0.29725 -0.08252
 H37 H 0.35166 0.32813 -0.05609
 H38 H 0.27527 0.30191 -0.05564
 H39 H 0.24570 0.33534 -0.08172
 H40 H 0.28482 0.40445 -0.03768
 H41 H 0.31463 0.37114 -0.01182
 H42 H 0.33586 0.24569 0.08008
 C43 C 0.68696 0.68754 -0.01417
 C44 C 0.68714 0.68673 0.01449
 C45 C 0.70457 0.66612 0.03012
 C46 C 0.66894 0.70553 0.03160
 C47 C 0.66683 0.70539 -0.02992
 C48 C 0.70592 0.66956 -0.03131
 C49 C 0.70183 0.63709 0.02508
 C50 C 0.71845 0.61791 0.03981
 C51 C 0.73775 0.62751 0.05991
 C52 C 0.74023 0.65638 0.06536
 C53 C 0.72363 0.67559 0.05062
 C54 C 0.65033 0.69381 0.05130
 C55 C 0.63203 0.71103 0.06652
 C56 C 0.63226 0.74018 0.06239
 C57 C 0.65128 0.75212 0.04333
 C58 C 0.66966 0.73489 0.02810
 C59 C 0.67685 0.72456 -0.04999
 C60 C 0.65807 0.74112 -0.06531
 C61 C 0.62909 0.73849 -0.06086
 C62 C 0.61894 0.71920 -0.04109
 C63 C 0.63769 0.70262 -0.02578
 C64 C 0.73521 0.67005 -0.02729
 C65 C 0.75257 0.65211 -0.04289
 C66 C 0.74082 0.63378 -0.06281
 C67 C 0.71176 0.63372 -0.06736
 C68 C 0.69441 0.65157 -0.05178
 H69 H 0.68682 0.62933 0.00978
 H70 H 0.71621 0.59560 0.03558
 H71 H 0.75499 0.66403 0.08097
 H72 H 0.72585 0.69788 0.05495
 H73 H 0.64951 0.67125 0.05437
 H74 H 0.61743 0.70158 0.08124
 H75 H 0.68418 0.74438 0.01335
 H76 H 0.69923 0.72678 -0.05365
 H77 H 0.66614 0.75588 -0.08066
 H78 H 0.59654 0.71686 -0.03763
 H79 H 0.62952 0.68751 -0.01085
 H80 H 0.74453 0.68411 -0.01193
 H81 H 0.77505 0.65237 -0.03927
 H82 H 0.70246 0.61963 -0.08273
 H83 H 0.67191 0.65094 -0.05525
 H84 H 0.65171 0.77466 0.04005
 C85 C 0.68756 0.31291 1.01365
 C86 C 0.68743 0.31340 0.98498
 C87 C 0.70469 0.33388 0.96893
 C88 C 0.66901 0.29438 0.96826
 C89 C 0.66767 0.29505 1.02978
 C90 C 0.70661 0.33119 1.03046
 C91 C 0.70201 0.36296 0.97367
 C92 C 0.71841 0.38203 0.95846
 C93 C 0.73741 0.37225 0.93818
 C94 C 0.73983 0.34334 0.93304
 C95 C 0.72346 0.32424 0.94826
 C96 C 0.65018 0.30587 0.94868
 C97 C 0.63172 0.28847 0.93379
 C98 C 0.63199 0.25936 0.93813
 C99 C 0.65121 0.24764 0.95708
 C100 C 0.66975 0.26504 0.97198
 C101 C 0.67799 0.27599 1.04975
 C102 C 0.65944 0.25931 1.06530
 C103 C 0.63040 0.26172 1.06118
 C104 C 0.61996 0.28094 1.04153
 C105 C 0.63848 0.29764 1.02600
 C106 C 0.73587 0.33091 1.02619
 C107 C 0.75332 0.34892 1.04169
 C108 C 0.74170 0.36716 1.06178
 C109 C 0.71263 0.36705 1.06651
 C110 C 0.69522 0.34912 1.05102
 H111 H 0.68721 0.37084 0.98910
 H112 H 0.71623 0.40437 0.96247
 H113 H 0.75437 0.33556 0.91730
 H114 H 0.72562 0.30192 0.94415
 H115 H 0.64933 0.32841 0.94543
 H116 H 0.61697 0.29776 0.91915
 H117 H 0.68443 0.25572 0.98664
 H118 H 0.70041 0.27391 1.05313
 H119 H 0.66772 0.24460 1.08054
 H120 H 0.59751 0.28310 1.03832
 H121 H 0.63010 0.31267 1.01113
 H122 H 0.74511 0.31690 1.01077
 H123 H 0.77578 0.34872 1.03787
 H124 H 0.70334 0.38102 1.08199
 H125 H 0.67275 0.34959 1.05470
 H126 H 0.65168 0.22512 0.96052
 C127 C 0.31372 0.68630 1.01758
 C128 C 0.31382 0.68677 0.98889
 C129 C 0.29466 0.66864 0.97204
 C130 C 0.33391 0.70451 0.97281
 C131 C 0.33196 0.70538 1.03442
 C132 C 0.29621 0.66589 1.03353
 C133 C 0.30595 0.65044 0.95166
 C134 C 0.28839 0.63257 0.93625
 C135 C 0.25933 0.63281 0.94088
 C136 C 0.24782 0.65132 0.96074
 C137 C 0.26539 0.66928 0.97616
 C138 C 0.36307 0.70203 0.97693
 C139 C 0.38175 0.71847 0.96127
 C140 C 0.37152 0.73733 0.94116
 C141 C 0.34251 0.73967 0.93676
 C142 C 0.32380 0.72327 0.95242
 C143 C 0.33127 0.73469 1.03056
 C144 C 0.34955 0.75218 1.04569
 C145 C 0.36846 0.74056 1.06503
 C146 C 0.36867 0.71144 1.06949
 C147 C 0.35046 0.69397 1.05436
 C148 C 0.27731 0.67563 1.05403
 C149 C 0.26063 0.65663 1.06906
 C150 C 0.26285 0.62767 1.06391
 C151 C 0.28203 0.61781 1.04379
 C152 C 0.29872 0.63680 1.02879
 H153 H 0.32843 0.64969 0.94809
 H154 H 0.29751 0.61835 0.92092
 H155 H 0.22535 0.65174 0.96442
 H156 H 0.25622 0.68350 0.99145
 H157 H 0.37131 0.68725 0.99211
 H158 H 0.40416 0.71635 0.96472
 H159 H 0.30142 0.72528 0.94877
 H160 H 0.31682 0.74394 1.01564
 H161 H 0.34906 0.77469 1.04209
 H162 H 0.38314 0.70215 1.08440
 H163 H 0.35125 0.67146 1.05772
 H164 H 0.27526 0.69796 1.05814
 H165 H 0.24599 0.66457 1.08464
 H166 H 0.28413 0.59547 1.03970
 H167 H 0.31361 0.62884 1.01349
 H168 H 0.33437 0.75410 0.92117
 C169 C -0.01606 0.31382 0.31417
 C170 C 0.01262 0.31359 0.31407
 C171 C 0.02891 0.29612 0.33410
 C172 C 0.02921 0.33180 0.29483
 C173 C -0.03223 0.33408 0.29682
 C174 C -0.03264 0.29469 0.33252
 C175 C 0.02492 0.29885 0.36327
 C176 C 0.04060 0.28251 0.38192
 C177 C 0.06061 0.26351 0.37163
 C178 C 0.06495 0.26097 0.34261
 C179 C 0.04926 0.27729 0.32393
 C180 C 0.04949 0.35019 0.30603
 C181 C 0.06464 0.36813 0.28842
 C182 C 0.05985 0.36778 0.25938
 C183 C 0.04009 0.34909 0.24795
 C184 C 0.02493 0.33106 0.26558
 C185 C -0.05255 0.32417 0.27779
 C186 C -0.06756 0.34304 0.26104
 C187 C -0.06256 0.37202 0.26334
 C188 C -0.04269 0.38205 0.28269
 C189 C -0.02771 0.36320 0.29945
 C190 C -0.02848 0.26541 0.33184
 C191 C -0.04326 0.24788 0.35027
 C192 C -0.06257 0.25942 0.36935
 C193 C -0.06732 0.28850 0.36956
 C194 C -0.05253 0.30601 0.35119
 H195 H 0.00977 0.31371 0.37154
 H196 H 0.03721 0.28477 0.40434
 H197 H 0.08046 0.24642 0.33444
 H198 H 0.05280 0.27510 0.30153
 H199 H 0.05318 0.35103 0.32850
 H200 H 0.07990 0.38248 0.29748
 H201 H 0.00973 0.31669 0.25647
 H202 H -0.05647 0.30181 0.27565
 H203 H -0.08297 0.33498 0.24626
 H204 H -0.03874 0.40443 0.28485
 H205 H -0.01253 0.37127 0.31443
 H206 H -0.01358 0.25621 0.31726
 H207 H -0.03945 0.22541 0.34976
 H208 H -0.08222 0.29774 0.38415
 H209 H -0.05612 0.32850 0.35199
 H210 H 0.03630 0.34857 0.22549
 C211 C -0.01398 0.68694 0.68662
 C212 C 0.01470 0.68720 0.68633
 C213 C 0.03070 0.70447 0.66583
 C214 C 0.03144 0.66921 0.70557
 C215 C -0.03001 0.66674 0.70419
 C216 C -0.03076 0.70590 0.66838
 C217 C 0.02614 0.70144 0.63678
 C218 C 0.04107 0.71803 0.61768
 C219 C 0.06091 0.73756 0.62740
 C220 C 0.06593 0.74029 0.65630
 C221 C 0.05098 0.72373 0.67543
 C222 C 0.05145 0.65060 0.69438
 C223 C 0.06632 0.63249 0.71201
 C224 C 0.06152 0.63291 0.74105
 C225 C 0.04213 0.65193 0.75248
 C226 C 0.02726 0.67012 0.73484
 C227 C -0.05032 0.67668 0.72319
 C228 C -0.06558 0.65783 0.73978
 C229 C -0.06084 0.62883 0.73735
 C230 C -0.04088 0.61877 0.71813
 C231 C -0.02565 0.63761 0.70152
 C232 C -0.02664 0.73520 0.66889
 C233 C -0.04185 0.75258 0.65072
 C234 C -0.06151 0.74085 0.63210
 C235 C -0.06617 0.71174 0.63203
 C236 C -0.05097 0.69439 0.65012
 H237 H 0.01100 0.68628 0.62894
 H238 H 0.03717 0.71561 0.59536
 H239 H 0.08133 0.75525 0.66403
 H240 H 0.05493 0.72617 0.69774
 H241 H 0.05505 0.64963 0.67190
 H242 H 0.08130 0.61790 0.70295
 H243 H 0.01225 0.68464 0.74394
 H244 H -0.05412 0.69905 0.72532
 H245 H -0.08105 0.66590 0.75446
 H246 H -0.03714 0.59639 0.71589
 H247 H -0.01050 0.62952 0.68655
 H248 H -0.01149 0.74453 0.68315
 H249 H -0.03809 0.77508 0.65109
 H250 H -0.08134 0.70237 0.61778
 H251 H -0.05453 0.67188 0.64947
 H252 H 0.03833 0.65251 0.77494
 C253 C 1.01442 0.68568 0.31235
 C254 C 0.98575 0.68609 0.31310
 C255 C 0.97013 0.70388 0.33355
 C256 C 0.96852 0.66794 0.29429
 C257 C 1.03012 0.66529 0.29455
 C258 C 1.03157 0.70480 0.33025
 C259 C 0.97492 0.70143 0.36261
 C260 C 0.95999 0.71819 0.38164
 C261 C 0.93994 0.73736 0.37185
 C262 C 0.93479 0.73960 0.34295
 C263 C 0.94972 0.72286 0.32390
 C264 C 0.94833 0.64982 0.30598
 C265 C 0.93265 0.63187 0.28874
 C266 C 0.93681 0.63197 0.25961
 C267 C 0.95644 0.65044 0.24770
 C268 C 0.97213 0.66847 0.26494
 C269 C 1.05049 0.67505 0.27552
 C270 C 1.06562 0.65608 0.25888
 C271 C 1.06070 0.62710 0.26124
 C272 C 1.04065 0.61721 0.28044
 C273 C 1.02554 0.63618 0.29711
 C274 C 1.02769 0.73411 0.32953
 C275 C 1.04305 0.75164 0.34757
 C276 C 1.06263 0.74006 0.36625
 C277 C 1.06711 0.71094 0.36647
 C278 C 1.05175 0.69343 0.34850
 H279 H 0.99013 0.68648 0.37052
 H280 H 0.96401 0.71614 0.40396
 H281 H 0.91923 0.75426 0.33516
 H282 H 0.94557 0.72487 0.30160
 H283 H 0.94515 0.64916 0.32853
 H284 H 0.91752 0.61767 0.29817
 H285 H 0.98724 0.68264 0.25547
 H286 H 1.05449 0.69739 0.27344
 H287 H 1.08115 0.66404 0.24422
 H288 H 1.03674 0.59484 0.28266
 H289 H 1.01037 0.62819 0.31209
 H290 H 1.01256 0.74332 0.31527
 H291 H 1.03943 0.77415 0.34710
 H292 H 1.08221 0.70168 0.38078
 H293 H 1.05512 0.67091 0.34929
 H294 H 0.95976 0.65074 0.22516
 C295 C 1.01515 0.31361 0.68650
 C296 C 0.98648 0.31357 0.68660
 C297 C 0.96990 0.29438 0.66820
 C298 C 0.97017 0.33366 0.70411
 C299 C 1.03170 0.33209 0.70562
 C300 C 1.03145 0.29619 0.66633
 C301 C 0.94970 0.30567 0.64991
 C302 C 0.93452 0.28812 0.63184
 C303 C 0.93919 0.25906 0.63195
 C304 C 0.95889 0.24754 0.65053
 C305 C 0.97409 0.26510 0.66869
 C306 C 0.97424 0.36283 0.70146
 C307 C 0.95863 0.38154 0.71792
 C308 C 0.93862 0.37130 0.73694
 C309 C 0.93419 0.34228 0.73937
 C310 C 0.94981 0.32354 0.72294
 C311 C 1.02757 0.33155 0.73490
 C312 C 1.04262 0.34989 0.75240
 C313 C 1.06212 0.36871 0.74083
 C314 C 1.06679 0.36885 0.71177
 C315 C 1.05175 0.35059 0.69427
 C316 C 1.05191 0.27746 0.67632
 C317 C 1.06752 0.26109 0.65752
 C318 C 1.06298 0.26347 0.62851
 C319 C 1.04285 0.28241 0.61840
 C320 C 1.02727 0.29880 0.63720
 H321 H 0.94608 0.32815 0.64926
 H322 H 0.91932 0.29725 0.61757
 H323 H 0.96261 0.22507 0.65086
 H324 H 0.98923 0.25593 0.68297
 H325 H 0.98941 0.37106 0.68661
 H326 H 0.96209 0.40397 0.71575
 H327 H 0.94622 0.30114 0.72506
 H328 H 1.01255 0.31712 0.74411
 H329 H 1.03891 0.34954 0.77487
 H330 H 1.08185 0.38329 0.70259
 H331 H 1.05533 0.35128 0.67179
 H332 H 1.05559 0.27537 0.69870
 H333 H 1.08310 0.24662 0.66563
 H334 H 1.03925 0.28462 0.59601
 H335 H 1.01201 0.31357 0.62906
 H336 H 0.91867 0.33416 0.75394
 C337 C 0.31303 -0.01403 0.31160
 C338 C 0.31259 0.01465 0.31196
 C339 C 0.33084 0.03160 0.29313
 C340 C 0.29490 0.03059 0.33220
 C341 C 0.29390 -0.03093 0.32960
 C342 C 0.33358 -0.02991 0.29422
 C343 C 0.34897 0.05187 0.30477
 C344 C 0.36705 0.06727 0.28753
 C345 C 0.36708 0.06274 0.25845
 C346 C 0.34862 0.04303 0.24657
 C347 C 0.33045 0.02761 0.26382
 C348 C 0.29752 0.02627 0.36131
 C349 C 0.28107 0.04170 0.38017
 C350 C 0.26206 0.06178 0.37016
 C351 C 0.25960 0.06642 0.34120
 C352 C 0.27603 0.05097 0.32231
 C353 C 0.26462 -0.02700 0.32879
 C354 C 0.24709 -0.04206 0.34699
 C355 C 0.25866 -0.06138 0.36591
 C356 C 0.28772 -0.06593 0.36624
 C357 C 0.30524 -0.05087 0.34812
 C358 C 0.32404 -0.05036 0.27510
 C359 C 0.34320 -0.06545 0.25865
 C360 C 0.37211 -0.06039 0.26135
 C361 C 0.38177 -0.04031 0.28072
 C362 C 0.36262 -0.02525 0.29717
 H363 H 0.34953 0.05532 0.32729
 H364 H 0.38124 0.08248 0.29692
 H365 H 0.34842 0.03943 0.22406
 H366 H 0.31628 0.01242 0.25439
 H367 H 0.31241 0.01109 0.36938
 H368 H 0.28327 0.03809 0.40255
 H369 H 0.27393 0.05477 0.29996
 H370 H 0.25543 -0.01205 0.31434
 H371 H 0.22461 -0.03846 0.34649
 H372 H 0.29688 -0.08085 0.38077
 H373 H 0.32774 -0.05427 0.34902
 H374 H 0.30174 -0.05441 0.27273
 H375 H 0.33543 -0.08101 0.24386
 H376 H 0.40408 -0.03631 0.28318
 H377 H 0.37041 -0.00999 0.31225
 H378 H 0.24506 0.08200 0.33324
 C379 C 0.68503 -0.01446 0.68677
 C380 C 0.68518 0.01424 0.68650
 C381 C 0.66700 0.03097 0.70569
 C382 C 0.70274 0.03031 0.66624
 C383 C 0.70429 -0.03118 0.66868
 C384 C 0.66480 -0.03065 0.70426
 C385 C 0.64852 0.05102 0.69447
 C386 C 0.63032 0.06596 0.71206
 C387 C 0.63053 0.06120 0.74109
 C388 C 0.64940 0.04176 0.75255
 C389 C 0.66767 0.02681 0.73496
 C390 C 0.70028 0.02569 0.63713
 C391 C 0.71716 0.04066 0.61829
 C392 C 0.73645 0.06060 0.62830
 C393 C 0.73861 0.06568 0.65725
 C394 C 0.72176 0.05070 0.67612
 C395 C 0.73356 -0.02698 0.66956
 C396 C 0.75123 -0.04214 0.65155
 C397 C 0.73985 -0.06182 0.63274
 C398 C 0.71080 -0.06657 0.63228
 C399 C 0.69313 -0.05142 0.65021
 C400 C 0.67473 -0.05113 0.72299
 C401 C 0.65590 -0.06670 0.73934
 C402 C 0.62690 -0.06211 0.73696
 C403 C 0.61685 -0.04194 0.71804
 C404 C 0.63568 -0.02639 0.70167
 H405 H 0.64774 0.05461 0.67200
 H406 H 0.61585 0.08098 0.70297
 H407 H 0.64982 0.03799 0.77500
 H408 H 0.68210 0.01179 0.74409
 H409 H 0.68533 0.01048 0.62905
 H410 H 0.71516 0.03670 0.59593
 H411 H 0.72379 0.05471 0.69846
 H412 H 0.74262 -0.01181 0.68399
 H413 H 0.77370 -0.03837 0.65215
 H414 H 0.70177 -0.08177 0.61783
 H415 H 0.67066 -0.05505 0.64928
 H416 H 0.69709 -0.05488 0.72508
 H417 H 0.66399 -0.08231 0.75380
 H418 H 0.59447 -0.03827 0.71583
 H419 H 0.62756 -0.01113 0.68689
 H420 H 0.75337 0.08116 0.66523
 C421 C 0.31264 1.01342 0.68617
 C422 C 0.31260 0.98473 0.68592
 C423 C 0.33258 0.96828 0.70330
 C424 C 0.29351 0.96832 0.66729
 C425 C 0.29540 1.02993 0.66611
 C426 C 0.33096 1.02981 0.70558
 C427 C 0.36175 0.97242 0.70082
 C428 C 0.38035 0.95683 0.71730
 C429 C 0.37002 0.93675 0.73618
 C430 C 0.34101 0.93220 0.73840
 C431 C 0.32238 0.94780 0.72195
 C432 C 0.30484 0.94828 0.64874
 C433 C 0.28738 0.93337 0.63037
 C434 C 0.25835 0.93816 0.63044
 C435 C 0.24678 0.95766 0.64929
 C436 C 0.26426 0.97259 0.66775
 C437 C 0.27664 1.05035 0.67627
 C438 C 0.26045 1.06615 0.65758
 C439 C 0.26303 1.06183 0.62856
 C440 C 0.28197 1.04176 0.61828
 C441 C 0.29820 1.02598 0.63694
 C442 C 0.33017 1.02541 0.73480
 C443 C 0.34835 1.04033 0.75258
 C444 C 0.36724 1.05995 0.74134
 C445 C 0.36764 1.06486 0.71234
 C446 C 0.34955 1.04996 0.69457
 H447 H 0.37005 0.98769 0.68612
 H448 H 0.40277 0.96038 0.71529
 H449 H 0.33281 0.91662 0.75285
 H450 H 0.29998 0.94415 0.72394
 H451 H 0.32731 0.94461 0.64811
 H452 H 0.29655 0.91831 0.61590
 H453 H 0.25504 0.98760 0.68222
 H454 H 0.27441 1.05386 0.69868
 H455 H 0.24594 1.08171 0.66574
 H456 H 0.28426 1.03839 0.59585
 H457 H 0.31299 1.01075 0.62868
 H458 H 0.31567 1.01031 0.74376
 H459 H 0.34779 1.03644 0.77501
 H460 H 0.38214 1.08002 0.70342
 H461 H 0.35043 1.05374 0.67213
 H462 H 0.22433 0.96145 0.64959
 C463 C 0.68729 1.01425 0.31407
 C464 C 0.68788 0.98556 0.31437
 C465 C 0.66986 0.96850 0.29531
 C466 C 0.70561 0.96976 0.33462
 C467 C 0.70621 1.03136 0.33219
 C468 C 0.66690 1.03000 0.29645
 C469 C 0.65154 0.94833 0.30670
 C470 C 0.63347 0.93305 0.28924
 C471 C 0.63364 0.93761 0.26018
 C472 C 0.65237 0.95717 0.24855
 C473 C 0.67052 0.97245 0.26602
 C474 C 0.70306 0.97427 0.36374
 C475 C 0.71974 0.95914 0.38257
 C476 C 0.73891 0.93916 0.37254
 C477 C 0.74126 0.93429 0.34357
 C478 C 0.72461 0.94943 0.32472
 C479 C 0.73553 1.02766 0.33149
 C480 C 0.75288 1.04313 0.34959
 C481 C 0.74111 1.06265 0.36833
 C482 C 0.71198 1.06693 0.36857
 C483 C 0.69465 1.05145 0.35054
 C484 C 0.67662 1.05042 0.27749
 C485 C 0.65763 1.06543 0.26088
 C486 C 0.62872 1.06035 0.26323
 C487 C 0.61885 1.04030 0.28239
 C488 C 0.63782 1.02529 0.29903
 H489 H 0.65078 0.94490 0.32920
 H490 H 0.61909 0.91796 0.29845
 H491 H 0.65273 0.96079 0.22607
 H492 H 0.68483 0.98758 0.25678
 H493 H 0.68810 0.98942 0.37184
 H494 H 0.71761 0.96295 0.40495
 H495 H 0.72669 0.94549 0.30236
 H496 H 0.74488 1.01261 0.31715
 H497 H 0.77540 1.03967 0.34910
 H498 H 0.70258 1.08197 0.38292
 H499 H 0.67213 1.05470 0.35132
 H500 H 0.69894 1.05451 0.27539
 H501 H 0.66549 1.08100 0.24623
 H502 H 0.59651 1.03633 0.28452
 H503 H 0.62986 1.01006 0.31396
 H504 H 0.75593 0.91880 0.33558
 O505 O 0.87799 0.83789 0.47411
 O506 O 0.83966 0.87732 0.52887
 O507 O 0.87841 0.83867 0.52887
 O508 O 0.83911 0.87679 0.47414
 O509 O 0.80626 0.84381 0.47472
 O510 O 0.84551 0.80573 0.52938
 O511 O 0.80681 0.84432 0.52938
 O512 O 0.84509 0.80497 0.47470
 Cu513 Cu 0.86212 0.86099 0.50138
 Cu514 Cu 0.82261 0.82138 0.50205
 C515 C 0.86810 0.81467 0.46531
 C516 C 0.81674 0.86745 0.53835
 C517 C 0.86857 0.81576 0.53835
 C518 C 0.81594 0.86684 0.46535
 O519 O 0.12530 0.16503 0.47295
 O520 O 0.16433 0.12629 0.52732
 O521 O 0.12566 0.16520 0.52758
 O522 O 0.16398 0.12613 0.47268
 O523 O 0.19696 0.15899 0.47248
 O524 O 0.15867 0.19804 0.52735
 O525 O 0.19732 0.15915 0.52709
 O526 O 0.15831 0.19788 0.47274
 Cu527 Cu 0.14148 0.14234 0.50015
 Cu528 Cu 0.18115 0.18183 0.49989
 C529 C 0.13514 0.18808 0.46380
 C530 C 0.18749 0.13610 0.53626
 C531 C 0.13561 0.18830 0.53660
 C532 C 0.18702 0.13590 0.46344
 O533 O 0.15946 0.87818 0.47055
 O534 O 0.12116 0.83815 0.52473
 O535 O 0.15926 0.87776 0.52540
 O536 O 0.12120 0.83889 0.47000
 O537 O 0.15458 0.80655 0.46968
 O538 O 0.19259 0.84537 0.52500
 O539 O 0.15456 0.80583 0.52431
 O540 O 0.19277 0.84577 0.47025
 Cu541 Cu 0.13691 0.86153 0.49773
 Cu542 Cu 0.17700 0.82264 0.49730
 C543 C 0.18257 0.86867 0.46123
 C544 C 0.13136 0.81516 0.53356
 C545 C 0.18238 0.86813 0.53452
 C546 C 0.13146 0.81614 0.46053
 O547 O 0.87784 0.15982 0.52763
 O548 O 0.83923 0.12188 0.47201
 O549 O 0.87829 0.16040 0.47277
 O550 O 0.83821 0.12165 0.52674
 O551 O 0.80585 0.15500 0.52661
 O552 O 0.84580 0.19363 0.47278
 O553 O 0.80681 0.15518 0.47197
 O554 O 0.84541 0.19310 0.52754
 Cu555 Cu 0.86169 0.13760 0.49983
 Cu556 Cu 0.82273 0.17760 0.49975
 C557 C 0.86818 0.18291 0.53691
 C558 C 0.81648 0.13211 0.46265
 C559 C 0.86874 0.18356 0.46363
 C560 C 0.81516 0.13173 0.53565
 O561 O 0.52693 0.83658 0.87470
 O562 O 0.47182 0.87432 0.83568
 O563 O 0.47231 0.83610 0.87505
 O564 O 0.52647 0.87488 0.83542
 O565 O 0.52654 0.84148 0.80294
 O566 O 0.47239 0.80271 0.84257
 O567 O 0.47191 0.84090 0.80321
 O568 O 0.52699 0.80320 0.84219
 Cu569 Cu 0.49937 0.85885 0.85849
 Cu570 Cu 0.49946 0.81870 0.81945
 C571 C 0.53612 0.81342 0.86511
 C572 C 0.46270 0.86406 0.81276
 C573 C 0.46335 0.81276 0.86559
 C574 C 0.53552 0.86480 0.81241
 O575 O 0.52871 0.16219 0.12408
 O576 O 0.47277 0.12363 0.16123
 O577 O 0.47412 0.16276 0.12297
 O578 O 0.52750 0.12326 0.16278
 O579 O 0.52702 0.15605 0.19587
 O580 O 0.47371 0.19547 0.15614
 O581 O 0.47233 0.15639 0.19436
 O582 O 0.52825 0.19495 0.15722
 Cu583 Cu 0.50086 0.13963 0.13944
 Cu584 Cu 0.50032 0.17899 0.17927
 C585 C 0.53772 0.18521 0.13424
 C586 C 0.46312 0.13351 0.18407
 C587 C 0.46501 0.18585 0.13280
 C588 C 0.53618 0.13294 0.18612
 O589 O 0.52603 0.12079 0.84122
 O590 O 0.47130 0.15994 0.87991
 O591 O 0.47121 0.12063 0.84147
 O592 O 0.52616 0.15987 0.87982
 O593 O 0.52607 0.19243 0.84668
 O594 O 0.47120 0.15325 0.80839
 O595 O 0.47131 0.19247 0.84675
 O596 O 0.52591 0.15343 0.80817
 Cu597 Cu 0.49867 0.13702 0.86396
 Cu598 Cu 0.49860 0.17618 0.82418
 C599 C 0.53518 0.13053 0.81813
 C600 C 0.46209 0.18284 0.86984
 C601 C 0.46198 0.13031 0.81841
 C602 C 0.53540 0.18277 0.86970
 O603 O 0.52817 0.87784 0.16143
 O604 O 0.47251 0.83932 0.12343
 O605 O 0.47346 0.87812 0.16242
 O606 O 0.52736 0.83904 0.12267
 O607 O 0.52757 0.80618 0.15551
 O608 O 0.47376 0.84520 0.19519
 O609 O 0.47282 0.80647 0.15626
 O610 O 0.52839 0.84492 0.19421
 Cu611 Cu 0.50031 0.86189 0.13915
 Cu612 Cu 0.50063 0.82236 0.17858
 C613 C 0.53764 0.86788 0.18426
 C614 C 0.46331 0.81636 0.13342
 C615 C 0.46463 0.86831 0.18559
 C616 C 0.53661 0.81604 0.13244
 O617 O 0.83717 0.47428 0.87528
 O618 O 0.87678 0.52807 0.83601
 O619 O 0.83852 0.52905 0.87523
 O620 O 0.87582 0.47343 0.83625
 O621 O 0.84268 0.47387 0.80362
 O622 O 0.80539 0.52946 0.84261
 O623 O 0.84360 0.52846 0.80342
 O624 O 0.80407 0.47474 0.84262
 Cu625 Cu 0.86040 0.50113 0.85901
 Cu626 Cu 0.82057 0.50165 0.81980
 C627 C 0.81387 0.46552 0.86562
 C628 C 0.86690 0.53724 0.81301
 C629 C 0.81564 0.53862 0.86550
 C630 C 0.86567 0.46444 0.81325
 O631 O 0.16142 0.47184 0.12235
 O632 O 0.12297 0.52649 0.16180
 O633 O 0.16240 0.52662 0.12339
 O634 O 0.12221 0.47174 0.16064
 O635 O 0.15471 0.47082 0.19388
 O636 O 0.19482 0.52562 0.15669
 O637 O 0.15545 0.52550 0.19504
 O638 O 0.19387 0.47091 0.15565
 Cu639 Cu 0.13898 0.49933 0.13868
 Cu640 Cu 0.17798 0.49816 0.17866
 C641 C 0.18415 0.46217 0.13236
 C642 C 0.13261 0.53507 0.18518
 C643 C 0.18549 0.53524 0.13366
 C644 C 0.13170 0.46204 0.18359
 O645 O 0.87711 0.47215 0.16262
 O646 O 0.83776 0.52528 0.12227
 O647 O 0.87638 0.52689 0.16120
 O648 O 0.83914 0.47053 0.12301
 O649 O 0.80585 0.47058 0.15549
 O650 O 0.84311 0.52693 0.19370
 O651 O 0.80454 0.52525 0.15483
 O652 O 0.84376 0.47225 0.19505
 Cu653 Cu 0.86096 0.49870 0.13899
 Cu654 Cu 0.82096 0.49875 0.17804
 C655 C 0.86708 0.46331 0.18571
 C656 C 0.81445 0.53417 0.13175
 C657 C 0.86609 0.53636 0.18393
 C658 C 0.81616 0.46112 0.13274
 O659 O 0.16013 0.52881 0.87932
 O660 O 0.12201 0.47340 0.84052
 O661 O 0.16135 0.47408 0.87883
 O662 O 0.12133 0.52830 0.84061
 O663 O 0.15404 0.52890 0.80755
 O664 O 0.19393 0.47482 0.84564
 O665 O 0.15466 0.47410 0.80742
 O666 O 0.19277 0.52946 0.84619
 Cu667 Cu 0.13788 0.50105 0.86314
 Cu668 Cu 0.17711 0.50187 0.82334
 C669 C 0.18293 0.53842 0.86934
 C670 C 0.13188 0.46443 0.81740
 C671 C 0.18449 0.46542 0.86873
 C672 C 0.13100 0.53777 0.81762
 C673 C 0.24285 0.38709 0.07623
 C674 C 0.22865 0.40377 0.08901
 C675 C 0.21262 0.42377 0.10404
 C676 C 0.19939 0.44115 0.11694
 C677 C 0.75480 0.60773 0.07511
 C678 C 0.76893 0.59107 0.08790
 C679 C 0.78520 0.57143 0.10299
 C680 C 0.79878 0.55452 0.11602
 C681 C 0.75427 0.39192 0.92255
 C682 C 0.76828 0.40850 0.90947
 C683 C 0.78448 0.42810 0.89418
 C684 C 0.79807 0.44505 0.88113
 C685 C 0.24160 0.61357 0.92559
 C686 C 0.22736 0.59695 0.91271
 C687 C 0.21133 0.57698 0.89760
 C688 C 0.19813 0.55956 0.88468
 C689 C 0.07684 0.24683 0.39087
 C690 C 0.09040 0.23300 0.40716
 C691 C 0.10617 0.21704 0.42650
 C692 C 0.11950 0.20365 0.44332
 C693 C 0.07613 0.75472 0.60769
 C694 C 0.08881 0.76896 0.59101
 C695 C 0.10361 0.78541 0.57126
 C696 C 0.11626 0.79918 0.55418
 C697 C 0.92447 0.75450 0.39149
 C698 C 0.91151 0.76871 0.40805
 C699 C 0.89634 0.78510 0.42766
 C700 C 0.88342 0.79880 0.44467
 C701 C 0.92408 0.24133 0.61253
 C702 C 0.91132 0.22713 0.59579
 C703 C 0.89631 0.21116 0.57568
 C704 C 0.88346 0.19803 0.55816
 C705 C 0.38663 0.07791 0.24107
 C706 C 0.40355 0.09065 0.22718
 C707 C 0.42388 0.10560 0.21160
 C708 C 0.44163 0.11836 0.19879
 C709 C 0.61089 0.07587 0.75889
 C710 C 0.59400 0.08820 0.77324
 C711 C 0.57380 0.10275 0.78946
 C712 C 0.55628 0.11532 0.80281
 C713 C 0.38924 0.92077 0.75315
 C714 C 0.40557 0.90752 0.76721
 C715 C 0.42502 0.89216 0.78344
 C716 C 0.44199 0.87922 0.79702
 C717 C 0.61402 0.92269 0.24256
 C718 C 0.59708 0.91019 0.22840
 C719 C 0.57674 0.89553 0.21246
 C720 C 0.55904 0.88295 0.19933
 C721 C 0.38648 0.24272 0.92398
 C722 C 0.40333 0.22822 0.91173
 C723 C 0.42349 0.21184 0.89732
 C724 C 0.44099 0.19834 0.88487
 C725 C 0.60972 0.75526 0.92314
 C726 C 0.59332 0.76909 0.90972
 C727 C 0.57382 0.78495 0.89405
 C728 C 0.55683 0.79817 0.88076
 C729 C 0.38708 0.75730 0.07906
 C730 C 0.40400 0.77161 0.09147
 C731 C 0.42430 0.78774 0.10602
 C732 C 0.44196 0.80105 0.11849
 C733 C 0.61127 0.24469 0.07725
 C734 C 0.59499 0.23061 0.09062
 C735 C 0.57557 0.21441 0.10610
 C736 C 0.55856 0.20088 0.11911
 C737 C 0.24638 0.07809 0.60929
 C738 C 0.23256 0.09162 0.59298
 C739 C 0.21658 0.10733 0.57361
 C740 C 0.20315 0.12058 0.55676
 C741 C 0.75772 0.07701 0.38679
 C742 C 0.77190 0.08970 0.40359
 C743 C 0.78792 0.10452 0.42376
 C744 C 0.80117 0.11714 0.44135
 C745 C 0.75771 0.92319 0.61342
 C746 C 0.77208 0.91056 0.59676
 C747 C 0.78823 0.89567 0.57678
 C748 C 0.80151 0.88285 0.55939
 C749 C 0.24097 0.92389 0.38552
 C750 C 0.22676 0.91148 0.40242
 C751 C 0.21078 0.89681 0.42264
 C752 C 0.19764 0.88409 0.44017
 C753 C 0.07702 0.38835 0.75851
 C754 C 0.08955 0.40526 0.77272
 C755 C 0.10428 0.42552 0.78877
 C756 C 0.11687 0.44314 0.80205
 C757 C 0.07557 0.60857 0.24514
 C758 C 0.08873 0.59208 0.23102
 C759 C 0.10411 0.57256 0.21471
 C760 C 0.11718 0.55563 0.20105
 C761 C 0.92299 0.39043 0.24688
 C762 C 0.91024 0.40685 0.23243
 C763 C 0.89532 0.42627 0.21575
 C764 C 0.88249 0.44306 0.20182
 C765 C 0.92426 0.61043 0.75344
 C766 C 0.91109 0.59400 0.76753
 C767 C 0.89569 0.57454 0.78375
 C768 C 0.88254 0.55766 0.79731
 C769 C 0.75830 0.61444 0.92182
 C770 C 0.77228 0.59770 0.90891
 C771 C 0.78795 0.57755 0.89377
 C772 C 0.80083 0.55995 0.88084
 C773 C 0.24562 0.39172 0.92361
 C774 C 0.23115 0.40827 0.91107
 C775 C 0.21446 0.42788 0.89639
 C776 C 0.20054 0.44487 0.88381
 C777 C 0.24652 0.60913 0.07845
 C778 C 0.23216 0.59259 0.09124
 C779 C 0.21556 0.57296 0.10612
 C780 C 0.20164 0.55593 0.11875
 C781 C 0.75835 0.38542 0.07636
 C782 C 0.77246 0.40208 0.08934
 C783 C 0.78826 0.42215 0.10455
 C784 C 0.80124 0.43973 0.11749
 C785 C 0.92426 0.75747 0.61367
 C786 C 0.91161 0.77162 0.59693
 C787 C 0.89671 0.78755 0.57687
 C788 C 0.88391 0.80067 0.55943
 C789 C 0.92365 0.24264 0.38805
 C790 C 0.91137 0.22830 0.40497
 C791 C 0.89680 0.21213 0.42518
 C792 C 0.88415 0.19882 0.44265
 C793 C 0.07819 0.24757 0.61016
 C794 C 0.09158 0.23362 0.59374
 C795 C 0.10712 0.21752 0.57424
 C796 C 0.12024 0.20401 0.55726
 C797 C 0.07681 0.75684 0.38472
 C798 C 0.08933 0.77117 0.40153
 C799 C 0.10399 0.78736 0.42170
 C800 C 0.11651 0.80072 0.43927
 C801 C 0.60853 0.92266 0.75283
 C802 C 0.59216 0.90921 0.76677
 C803 C 0.57278 0.89356 0.78293
 C804 C 0.55596 0.88033 0.79653
 C805 C 0.39081 0.92492 0.24535
 C806 C 0.40746 0.91193 0.23130
 C807 C 0.42713 0.89674 0.21507
 C808 C 0.44413 0.88376 0.20144
 C809 C 0.60916 0.07589 0.24620
 C810 C 0.59269 0.08893 0.23206
 C811 C 0.57326 0.10424 0.21571
 C812 C 0.55647 0.11734 0.20202
 C813 C 0.38667 0.07477 0.75930
 C814 C 0.40340 0.08731 0.77369
 C815 C 0.42346 0.10214 0.78987
 C816 C 0.44091 0.11493 0.80316
 C817 C 0.61248 0.75759 0.07728
 C818 C 0.59547 0.77165 0.08976
 C819 C 0.57518 0.78756 0.10445
 C820 C 0.55764 0.80075 0.11713
 C821 C 0.39220 0.24565 0.07536
 C822 C 0.40859 0.23154 0.08850
 C823 C 0.42797 0.21527 0.10391
 C824 C 0.44474 0.20164 0.11710
 C825 C 0.61206 0.24176 0.92355
 C826 C 0.59492 0.22756 0.91133
 C827 C 0.57444 0.21149 0.89696
 C828 C 0.55671 0.19818 0.88459
 C829 C 0.39079 0.75400 0.92481
 C830 C 0.40704 0.76781 0.91109
 C831 C 0.42628 0.78377 0.89507
 C832 C 0.44300 0.79716 0.88151
 C833 C 0.75597 0.92350 0.39198
 C834 C 0.77011 0.91040 0.40840
 C835 C 0.78643 0.89512 0.42787
 C836 C 0.80009 0.88214 0.44479
 C837 C 0.24071 0.92334 0.61072
 C838 C 0.22654 0.91083 0.59376
 C839 C 0.21060 0.89607 0.57346
 C840 C 0.19748 0.88336 0.55582
 C841 C 0.24537 0.07785 0.38963
 C842 C 0.23158 0.09130 0.40612
 C843 C 0.21571 0.10698 0.42570
 C844 C 0.20243 0.12027 0.44273
 C845 C 0.75391 0.07590 0.60885
 C846 C 0.76840 0.08867 0.59241
 C847 C 0.78511 0.10361 0.57294
 C848 C 0.79906 0.11641 0.55607
 C849 C 0.92139 0.61253 0.24218
 C850 C 0.90853 0.59572 0.22815
 C851 C 0.89358 0.57551 0.21228
 C852 C 0.88094 0.55783 0.19915
 C853 C 0.92255 0.39062 0.75381
 C854 C 0.90921 0.40703 0.76780
 C855 C 0.89377 0.42656 0.78395
 C856 C 0.88079 0.44362 0.79750
 C857 C 0.07609 0.61332 0.75887
 C858 C 0.08837 0.59646 0.77319
 C859 C 0.10293 0.57628 0.78931
 C860 C 0.11559 0.55879 0.80252
 C861 C 0.07496 0.38705 0.24159
 C862 C 0.08776 0.40367 0.22737
 C863 C 0.10291 0.42362 0.21146
 C864 C 0.11599 0.44100 0.19844
   
