data_POSCAR
  _audit_creation_date              2014-09-24
  _audit_creation_method            'ToBaCCo'
  _symmetry_space_group_name_H-M    'P1'
  _symmetry_Int_Tables_number       1
  _symmetry_cell_setting            triclinic
  loop_
  _symmetry_equiv_pos_as_xyz
 x,y,z
_cell_length_a 27.3270
_cell_length_b 27.3444
_cell_length_c 48.1339
_cell_angle_alpha 89.991000
_cell_angle_beta 93.086600
_cell_angle_gamma 89.965900
loop_
  _atom_site_label
  _atom_site_type_symbol
  _atom_site_fract_x
  _atom_site_fract_y
  _atom_site_fract_z
C1 C -0.00073 0.62948 0.99998
 C2 C -0.01124 0.60402 1.02409
 C3 C -0.01253 0.55279 1.02392
 C4 C -0.00077 0.52615 0.99998
 C5 C 0.01102 0.55278 0.97604
 C6 C 0.00976 0.60401 0.97587
 C7 C -0.00078 0.47117 0.99998
 C8 C -0.00684 0.44452 0.97482
 C9 C -0.00557 0.39332 0.97486
 C10 C -0.00078 0.36787 0.99998
 C11 C 0.00401 0.39330 1.02510
 C12 C 0.00528 0.44449 1.02513
 H13 H -0.00072 0.66921 0.99998
 H14 H -0.02304 0.53424 1.04253
 H15 H 0.02151 0.53423 0.95743
 H16 H -0.01285 0.46293 0.95506
 H17 H -0.00078 0.32819 0.99998
 H18 H 0.01130 0.46288 1.04490
 C19 C 0.37087 0.01044 0.50098
 C20 C 0.39926 0.00286 0.52556
 C21 C 0.45045 0.00188 0.52514
 C22 C 0.47415 0.01097 0.50023
 C23 C 0.44455 0.01982 0.47571
 C24 C 0.39336 0.01827 0.47602
 C25 C 0.52912 0.01096 0.49980
 C26 C 0.55281 0.00189 0.47489
 C27 C 0.60403 0.00286 0.47444
 C28 C 0.63243 0.01038 0.49905
 C29 C 0.60992 0.01818 0.52404
 C30 C 0.55869 0.01977 0.52433
 H31 H 0.33120 0.01009 0.50125
 H32 H 0.47116 -0.00640 0.54433
 H33 H 0.46064 0.02812 0.45623
 H34 H 0.53196 -0.00638 0.45573
 H35 H 0.67215 0.01003 0.49878
 H36 H 0.54244 0.02808 0.54377
 C37 C 0.07690 0.00189 0.26246
 H38 H 0.07937 0.00133 0.24010
 C39 C 0.11943 0.00633 0.27978
 H40 H 0.15486 0.00881 0.27081
 C41 C 0.02775 0.00057 0.30159
 H42 H -0.00798 -0.00061 0.31008
 C43 C 0.06924 0.00497 0.31960
 H44 H 0.06527 0.00648 0.34186
 N45 N 0.03224 -0.00132 0.27358
 C46 C -0.06679 -0.07061 0.21116
 H47 H -0.09694 -0.04494 0.21118
 C48 C -0.06961 -0.11120 0.19358
 H49 H -0.10194 -0.11681 0.17992
 C50 C 0.01264 -0.09416 0.22852
 H51 H 0.04454 -0.08746 0.24221
 C52 C 0.01132 -0.13527 0.21123
 H53 H 0.04244 -0.15986 0.21144
 Zn54 Zn -0.02461 -0.00435 0.24928
 N55 N -0.02571 -0.06229 0.22772
 C56 C -0.02287 0.04478 0.19759
 N57 N -0.02348 0.05102 0.22562
 C58 C -0.01987 0.09636 0.23726
 C59 C -0.01610 0.13776 0.22043
 C60 C -0.01919 0.08509 0.18007
 C61 C -0.08815 -0.04529 0.28603
 C62 C -0.12757 -0.04776 0.30322
 C63 C -0.15352 0.03215 0.28676
 C64 C -0.11354 0.03313 0.26981
 N65 N -0.08128 -0.00486 0.27022
 H66 H -0.02432 0.00854 0.18871
 H67 H -0.01936 0.10023 0.25964
 H68 H -0.01306 0.17371 0.22981
 H69 H -0.01850 0.07970 0.15779
 H70 H -0.06219 -0.07515 0.28572
 H71 H -0.13198 -0.07955 0.31629
 H72 H -0.17839 0.06301 0.28691
 H73 H -0.10795 0.06452 0.25674
 C74 C -0.02997 -0.14350 0.19338
 C75 C 0.11546 0.00788 0.30862
 C76 C -0.16021 -0.00846 0.30384
 C77 C -0.01567 0.13196 0.19157
 C78 C 0.01930 0.09651 0.76276
 H79 H 0.01902 0.10040 0.74038
 C80 C 0.01537 0.13790 0.77957
 H81 H 0.01245 0.17387 0.77019
 C82 C 0.02189 0.04489 0.80242
 H83 H 0.02324 0.00864 0.81129
 C84 C 0.01804 0.08519 0.81992
 H85 H 0.01714 0.07978 0.84219
 N86 N 0.02278 0.05115 0.77439
 C87 C 0.08817 -0.04515 0.71423
 H88 H 0.06222 -0.07500 0.71444
 C89 C 0.12780 -0.04765 0.69718
 H90 H 0.13237 -0.07943 0.68413
 C91 C 0.11336 0.03324 0.73053
 H92 H 0.10762 0.06463 0.74358
 C93 C 0.15354 0.03224 0.71372
 H94 H 0.17841 0.06307 0.71367
 Zn95 Zn 0.02420 -0.00420 0.75075
 N96 N 0.08111 -0.00473 0.73000
 C97 C -0.02762 0.00078 0.69827
 N98 N -0.03241 -0.00114 0.72626
 C99 C -0.07721 0.00205 0.73722
 C100 C -0.11958 0.00648 0.71976
 C101 C -0.06894 0.00517 0.68013
 C102 C 0.06608 -0.07049 0.78899
 C103 C 0.06877 -0.11110 0.80657
 C104 C -0.01199 -0.13515 0.78867
 C105 C -0.01318 -0.09403 0.77138
 N106 N 0.02513 -0.06216 0.77230
 H107 H 0.00822 -0.00039 0.68992
 H108 H -0.07993 0.00147 0.75956
 H109 H -0.15511 0.00894 0.72861
 H110 H -0.06472 0.00668 0.65789
 H111 H 0.09620 -0.04483 0.78907
 H112 H 0.10098 -0.11672 0.82032
 H113 H -0.04308 -0.15974 0.78836
 H114 H -0.04496 -0.08731 0.75759
 C115 C 0.16044 -0.00837 0.69668
 C116 C 0.01465 0.13207 0.80842
 C117 C 0.02915 -0.14340 0.80663
 C118 C -0.11529 0.00805 0.69094
 C119 C -0.02766 -0.31581 0.09245
 N120 N 0.00915 -0.31425 0.11249
 N121 N 0.00743 -0.28279 0.13356
 C122 C -0.03115 -0.25190 0.13521
 N123 N -0.06805 -0.25359 0.11523
 N124 N -0.06632 -0.28505 0.09416
 C125 C -0.02356 -0.34642 0.06848
 C126 C -0.01861 -0.37051 0.04784
 C127 C -0.03115 -0.21531 0.15658
 C128 C -0.03072 -0.18326 0.17378
 C129 C 0.00452 0.31050 0.09551
 N130 N -0.03726 0.30642 0.10933
 N131 N -0.04032 0.27405 0.12987
 C132 C -0.00170 0.24475 0.13720
 N133 N 0.04014 0.24898 0.12346
 N134 N 0.04320 0.28134 0.10292
 C135 C 0.00602 0.34177 0.07163
 C136 C 0.00595 0.36626 0.05080
 C137 C -0.00648 0.20681 0.15747
 C138 C -0.01069 0.17345 0.17355
 C139 C 0.32508 -0.00824 0.59651
 N140 N 0.32038 0.03186 0.61274
 N141 N 0.29080 0.03111 0.63386
 C142 C 0.26498 -0.00978 0.63939
 N143 N 0.26982 -0.04994 0.62322
 N144 N 0.29940 -0.04918 0.60210
 C145 C 0.35333 -0.00587 0.57227
 C146 C 0.37526 -0.00267 0.55128
 C147 C 0.22998 -0.00932 0.66056
 C148 C 0.19906 -0.00882 0.67750
 C149 C -0.30149 0.02465 0.59282
 N150 N -0.29928 -0.01397 0.61053
 N151 N -0.26505 -0.01584 0.63130
 C152 C -0.23195 0.02084 0.63497
 N153 N -0.23428 0.05956 0.61732
 N154 N -0.26851 0.06142 0.59655
 C155 C -0.33511 0.02423 0.56887
 C156 C -0.36174 0.02228 0.54810
 C157 C -0.19242 0.01681 0.65571
 C158 C -0.15793 0.01294 0.67226
 C159 C 0.02633 -0.31580 0.90753
 N160 N 0.06513 -0.28527 0.90579
 N161 N 0.06694 -0.25380 0.88472
 C162 C 0.02999 -0.25186 0.86478
 N163 N -0.00873 -0.28252 0.86646
 N164 N -0.01054 -0.31400 0.88752
 C165 C 0.02216 -0.34642 0.93149
 C166 C 0.01716 -0.37051 0.95213
 C167 C 0.03009 -0.21525 0.84342
 C168 C 0.02977 -0.18318 0.82623
 C169 C -0.00597 0.31057 0.90444
 N170 N 0.03577 0.30662 0.89058
 N171 N 0.03890 0.27426 0.87005
 C172 C 0.00039 0.24485 0.86276
 N173 N -0.04143 0.24895 0.87654
 N174 N -0.04456 0.28130 0.89708
 C175 C -0.00753 0.34183 0.92832
 C176 C -0.00749 0.36630 0.94915
 C177 C 0.00526 0.20691 0.84250
 C178 C 0.00956 0.17356 0.82643
 C179 C -0.32365 -0.00808 0.40465
 N180 N -0.29788 -0.04899 0.39906
 N181 N -0.26854 -0.04981 0.37783
 C182 C -0.26405 -0.00975 0.36154
 N183 N -0.28996 0.03110 0.36706
 N184 N -0.31930 0.03192 0.38829
 C185 C -0.35162 -0.00562 0.42899
 C186 C -0.37333 -0.00234 0.45007
 C187 C -0.22930 -0.00934 0.34023
 C188 C -0.19859 -0.00888 0.32317
 C189 C 0.30263 0.02481 0.40611
 N190 N 0.30020 -0.01394 0.38850
 N191 N 0.26576 -0.01590 0.36785
 C192 C 0.23266 0.02083 0.36419
 N193 N 0.23521 0.05967 0.38173
 N194 N 0.26965 0.06162 0.40239
 C195 C 0.33650 0.02450 0.42994
 C196 C 0.36334 0.02265 0.45063
 C197 C 0.19293 0.01673 0.34359
 C198 C 0.15827 0.01282 0.32716
   
