data_POSCAR
  _audit_creation_date              2014-09-24
  _audit_creation_method            'ToBaCCo'
  _symmetry_space_group_name_H-M    'P1'
  _symmetry_Int_Tables_number       1
  _symmetry_cell_setting            triclinic
  loop_
  _symmetry_equiv_pos_as_xyz
 x,y,z
_cell_length_a 48.6988
_cell_length_b 48.6786
_cell_length_c 13.8019
_cell_angle_alpha 90.040300
_cell_angle_beta 89.821600
_cell_angle_gamma 120.994000
loop_
  _atom_site_label
  _atom_site_type_symbol
  _atom_site_fract_x
  _atom_site_fract_y
  _atom_site_fract_z
C1 C 0.21443 0.49176 0.44992
 C2 C 0.21425 0.49040 0.55417
 C3 C 0.24033 0.49084 0.60063
 C4 C 0.26670 0.49398 0.54906
 C5 C 0.26563 0.49322 0.44620
 C6 C 0.23962 0.49199 0.39903
 H7 H 0.23891 0.49109 0.32050
 H8 H 0.24159 0.49148 0.67905
 C9 C 0.52610 -0.26530 0.44032
 C10 C 0.52531 -0.26599 0.54381
 C11 C 0.52634 -0.24075 0.59601
 C12 C 0.52701 -0.21456 0.55027
 C13 C 0.52603 -0.21464 0.44697
 C14 C 0.52600 -0.23941 0.39463
 H15 H 0.52479 -0.23853 0.31655
 H16 H 0.52521 -0.24265 0.67428
 C17 C 1.26081 0.79377 0.44503
 C18 C 1.26227 0.79355 0.54886
 C19 C 1.23593 0.77061 0.60259
 C20 C 1.20931 0.74532 0.55721
 C21 C 1.20936 0.74266 0.45530
 C22 C 1.23415 0.76725 0.40060
 H23 H 1.23300 0.76419 0.32290
 H24 H 1.23679 0.77164 0.68114
 C25 C 0.77334 0.51517 0.45282
 C26 C 0.77682 0.52214 0.55387
 C27 C 0.75197 0.52368 0.60186
 C28 C 0.72394 0.51819 0.55410
 C29 C 0.72051 0.50952 0.45419
 C30 C 0.74531 0.50875 0.40534
 H31 H 0.74310 0.50383 0.32814
 H32 H 0.75315 0.52634 0.67959
 C33 C 0.50680 0.27831 0.44948
 C34 C 0.50138 0.27812 0.55066
 C35 C 0.49538 0.25103 0.60513
 C36 C 0.49623 0.22492 0.56265
 C37 C 0.50233 0.22633 0.46080
 C38 C 0.50781 0.25294 0.40680
 H39 H 0.51061 0.25283 0.32875
 H40 H 0.49219 0.25164 0.68249
 C41 C 0.76011 0.19553 0.44557
 C42 C 0.75957 0.19295 0.54758
 C43 C 0.78460 0.21752 0.60158
 C44 C 0.80948 0.24563 0.55734
 C45 C 0.80892 0.24803 0.45394
 C46 C 0.78485 0.22268 0.40026
 H47 H 0.78488 0.22451 0.32189
 H48 H 0.78275 0.21560 0.67965
 N49 N 1.03045 0.49528 -0.16855
 N50 N 1.05327 0.50466 -0.23396
 N51 N 0.96659 0.43773 -0.09555
 N52 N 0.94741 0.40687 -0.11482
 N53 N 0.96383 0.45530 -0.16256
 N54 N 0.94305 0.43714 -0.22886
 N55 N 1.03370 0.47835 -0.10057
 N56 N 1.05895 0.47568 -0.11821
 C57 C 1.07097 0.49246 -0.20162
 C58 C 0.93271 0.40705 -0.19802
 N59 N 0.96596 0.45929 0.17756
 N60 N 0.94247 0.44216 0.23940
 N61 N 1.03517 0.48101 0.10882
 N62 N 1.06076 0.47887 0.12487
 N63 N 1.03329 0.49998 0.17274
 N64 N 1.05765 0.51152 0.23323
 N65 N 0.96833 0.44056 0.11380
 N66 N 0.94690 0.41021 0.13130
 Mn67 Mn 1.00101 0.45909 0.00679
 C68 C 0.93086 0.41161 0.20952
 C69 C 1.07464 0.49824 0.20239
 N70 N 0.95687 0.51035 -0.16938
 N71 N 0.93442 0.50141 -0.23559
 N72 N 1.02268 0.56960 -0.11124
 N73 N 1.04717 0.59915 -0.12504
 N74 N 1.02360 0.55001 -0.17480
 N75 N 1.04841 0.56535 -0.23278
 N76 N 0.95522 0.52957 -0.10601
 N77 N 0.93143 0.53416 -0.12748
 Mn78 Mn 0.99360 0.50270 -0.16930
 C79 C 0.91852 0.51616 -0.20813
 C80 C 1.06286 0.59593 -0.20180
 N81 N 1.02641 0.55527 0.16617
 N82 N 1.05026 0.57402 0.22464
 N83 N 0.95647 0.53211 0.10353
 N84 N 0.93016 0.53325 0.11672
 N85 N 0.95901 0.51451 0.17101
 N86 N 0.93435 0.50281 0.23081
 N87 N 1.02330 0.57230 0.09808
 N88 N 1.04448 0.60307 0.10925
 Mn89 Mn 0.99617 0.50729 0.17310
 Mn90 Mn 0.98938 0.55126 -0.00391
 Cl91 Cl 0.99500 0.50506 0.00183
 C92 C 1.06121 0.60374 0.18817
 C93 C 0.91661 0.51473 0.19630
 N94 N 0.45520 0.42331 0.10560
 N95 N 0.44893 0.39377 0.11840
 N96 N 0.44405 0.47570 0.18486
 N97 N 0.43020 0.48356 0.25289
 N98 N 0.42290 0.45695 0.12030
 N99 N 0.39419 0.45170 0.14184
 N100 N 0.47764 0.44308 0.16544
 N101 N 0.48766 0.42768 0.21960
 C102 C 0.46958 0.39703 0.18903
 C103 C 0.39919 0.46842 0.22455
 N104 N 0.52029 0.55558 0.10160
 N105 N 0.52676 0.58495 0.12100
 N106 N 0.53730 0.50341 0.15374
 N107 N 0.55547 0.49731 0.20987
 N108 N 0.55454 0.52372 0.08499
 N109 N 0.58493 0.53231 0.09312
 N110 N 0.50369 0.53596 0.17259
 N111 N 0.49842 0.55133 0.24184
 Mn112 Mn 0.49075 0.48948 0.17028
 C113 C 0.51278 0.58181 0.20878
 C114 C 0.58507 0.51540 0.17068
 N115 N 0.41665 0.45584 -0.08687
 N116 N 0.38779 0.45216 -0.08799
 N117 N 0.46764 0.44118 -0.17087
 N118 N 0.47740 0.42590 -0.22744
 N119 N 0.44938 0.42226 -0.10090
 N120 N 0.44607 0.39370 -0.10811
 N121 N 0.43424 0.47450 -0.15811
 N122 N 0.41801 0.48427 -0.20918
 Mn123 Mn 0.43566 0.43934 0.00951
 C124 C 0.38907 0.47006 -0.16496
 C125 C 0.46344 0.39620 -0.18770
 N126 N 0.54838 0.52225 -0.12247
 N127 N 0.57733 0.52815 -0.14470
 N128 N 0.49335 0.53434 -0.17042
 N129 N 0.48366 0.54919 -0.22837
 N130 N 0.51448 0.55451 -0.10815
 N131 N 0.52024 0.58381 -0.12340
 N132 N 0.52719 0.50198 -0.18443
 N133 N 0.54113 0.49370 -0.25074
 Mn134 Mn 0.53471 0.53943 -0.01112
 Mn135 Mn 0.48059 0.48790 -0.17220
 Cl136 Cl 0.48548 0.48911 -0.00083
 C137 C 0.57238 0.51017 -0.22498
 C138 C 0.50056 0.57997 -0.19798
 N139 N 0.44154 -0.02449 0.11839
 N140 N 0.41138 -0.04616 0.13895
 N141 N 0.50175 0.04098 0.17285
 N142 N 0.51448 0.06595 0.23121
 N143 N 0.48240 0.04272 0.11054
 N144 N 0.48099 0.06876 0.12600
 N145 N 0.46089 -0.02578 0.18175
 N146 N 0.44460 -0.04784 0.24775
 C147 C 0.41380 -0.06044 0.22016
 C148 C 0.50137 0.08307 0.20109
 N149 N 0.57306 0.03065 0.09488
 N150 N 0.60363 0.05317 0.10391
 N151 N 0.51537 -0.03374 0.17128
 N152 N 0.50461 -0.05791 0.23272
 N153 N 0.53281 -0.03630 0.10321
 N154 N 0.53483 -0.06203 0.11724
 N155 N 0.55591 0.03341 0.16343
 N156 N 0.57397 0.05806 0.21957
 Mn157 Mn 0.50848 0.00365 0.17321
 C158 C 0.60360 0.07013 0.18198
 C159 C 0.51697 -0.07530 0.19798
 N160 N 0.47840 0.04025 -0.09917
 N161 N 0.47590 0.06560 -0.11697
 N162 N 0.45375 -0.03088 -0.15769
 N163 N 0.43421 -0.05483 -0.21475
 N164 N 0.43752 -0.02650 -0.08951
 N165 N 0.40655 -0.04698 -0.09888
 N166 N 0.49441 0.03619 -0.16886
 N167 N 0.50330 0.05860 -0.23544
 Mn168 Mn 0.45968 0.00812 0.01014
 C169 C 0.49176 0.07685 -0.20227
 C170 C 0.40487 -0.06459 -0.17684
 N171 N 0.52868 -0.03916 -0.10547
 N172 N 0.53345 -0.06287 -0.12691
 N173 N 0.54940 0.02897 -0.17845
 N174 N 0.56579 0.05061 -0.24574
 N175 N 0.56881 0.02783 -0.11489
 N176 N 0.59898 0.04856 -0.13763
 N177 N 0.50919 -0.03787 -0.16844
 N178 N 0.50039 -0.06045 -0.23449
 Mn179 Mn 0.55121 -0.00422 -0.00557
 Mn180 Mn 0.50159 -0.00099 -0.16931
 Cl181 Cl 0.50524 0.00163 0.00194
 C182 C 0.51536 -0.07611 -0.20709
 C183 C 0.59667 0.06269 -0.21922
 C184 C 1.15564 0.50983 0.35114
 C185 C 1.13987 0.48531 0.28268
 N186 N 1.14979 0.46418 0.26831
 C187 C 1.17427 0.46600 0.32096
 C188 C 1.18919 0.48963 0.39346
 N189 N 1.18008 0.51166 0.40338
 N190 N 1.14545 0.53066 0.36722
 C191 C 1.11983 0.52780 0.31889
 C192 C 1.10366 0.50302 0.25099
 N193 N 1.11433 0.48249 0.23386
 H194 H 1.18126 0.44845 0.30874
 H195 H 1.11202 0.54454 0.33400
 C196 C 0.51516 0.65672 0.37061
 C197 C 0.52613 0.66199 0.27477
 N198 N 0.53737 0.69135 0.23471
 C199 C 0.53785 0.71557 0.28582
 C200 C 0.52665 0.71047 0.38306
 N201 N 0.51587 0.68087 0.42141
 N202 N 0.50367 0.62749 0.41154
 C203 C 0.50263 0.60311 0.36061
 C204 C 0.51377 0.60818 0.26431
 N205 N 0.52538 0.63769 0.22354
 H206 H 0.54810 0.73869 0.25112
 H207 H 0.49331 0.58004 0.39534
 C208 C 0.33779 -0.13490 0.37870
 C209 C 0.33357 -0.13041 0.28110
 N210 N 0.30517 -0.15093 0.23815
 C211 C 0.28096 -0.17590 0.28815
 C212 C 0.28508 -0.18077 0.38728
 N213 N 0.31366 -0.15940 0.42816
 N214 N 0.36611 -0.11510 0.42262
 C215 C 0.39069 -0.09090 0.37277
 C216 C 0.38670 -0.08602 0.27470
 N217 N 0.35804 -0.10588 0.23090
 H218 H 0.25867 -0.19070 0.25062
 H219 H 0.41312 -0.07556 0.40960
 C220 C 0.83242 0.49844 0.33742
 C221 C 0.85160 0.52685 0.28499
 N222 N 0.84417 0.55017 0.28563
 C223 C 0.81875 0.54662 0.33764
 C224 C 0.79988 0.51848 0.39144
 N225 N 0.80677 0.49470 0.38818
 N226 N 0.84066 0.47574 0.34058
 C227 C 0.86739 0.48025 0.29447
 C228 C 0.88660 0.50859 0.24171
 N229 N 0.87806 0.53117 0.23762
 H230 H 0.81358 0.56574 0.33836
 H231 H 0.87364 0.46193 0.29913
 C232 C 0.47366 0.32251 0.32783
 C233 C 0.50084 0.34718 0.28087
 N234 N 0.52879 0.34729 0.28285
 C235 C 0.53097 0.32422 0.33174
 C236 C 0.50435 0.30084 0.38403
 N237 N 0.47618 0.30029 0.37955
 N238 N 0.44543 0.32170 0.32331
 C239 C 0.44324 0.34481 0.27510
 C240 C 0.47072 0.37033 0.23237
 N241 N 0.49894 0.37090 0.23578
 H242 H 0.55360 0.32506 0.33414
 H243 H 0.42059 0.34395 0.27327
 C244 C 0.68203 0.14725 0.32261
 C245 C 0.68582 0.12387 0.27488
 N246 N 0.71415 0.12487 0.28183
 C247 C 0.73867 0.14793 0.33533
 C248 C 0.73460 0.17088 0.38432
 N249 N 0.70652 0.17028 0.37527
 N250 N 0.65352 0.14580 0.31897
 C251 C 0.62835 0.12172 0.27094
 C252 C 0.63183 0.09809 0.22379
 N253 N 0.66066 0.09984 0.22609
 H254 H 0.76095 0.14815 0.34072
 H255 H 0.60565 0.12079 0.27066
 C256 C 0.50148 0.15564 -0.36070
 C257 C 0.48602 0.14783 -0.27066
 N258 N 0.47397 0.16565 -0.23612
 C259 C 0.47676 0.19093 -0.28747
 C260 C 0.49217 0.19883 -0.37922
 N261 N 0.50405 0.18057 -0.41160
 N262 N 0.51367 0.13819 -0.39647
 C263 C 0.51100 0.11300 -0.34613
 C264 C 0.49527 0.10471 -0.25582
 N265 N 0.48311 0.12244 -0.21992
 H266 H 0.46586 0.20361 -0.25782
 H267 H 0.52093 0.09950 -0.37687
 C268 C 0.64533 0.50582 -0.37733
 C269 C 0.65233 0.52387 -0.29235
 N270 N 0.68289 0.54010 -0.25939
 C271 C 0.70677 0.53891 -0.30711
 C272 C 0.69998 0.52057 -0.39312
 N273 N 0.66911 0.50474 -0.42485
 N274 N 0.61486 0.48954 -0.41107
 C275 C 0.59094 0.49050 -0.36330
 C276 C 0.59782 0.50867 -0.27795
 N277 N 0.62850 0.52500 -0.24450
 H278 H 0.73084 0.55327 -0.27945
 H279 H 0.56684 0.47726 -0.39185
 C280 C 0.86891 0.32702 -0.36585
 C281 C 0.87599 0.32256 -0.27110
 N282 N 0.86164 0.29237 -0.23446
 C283 C 0.84022 0.26658 -0.28795
 C284 C 0.83275 0.27102 -0.38382
 N285 N 0.84788 0.30145 -0.41860
 N286 N 0.88255 0.35688 -0.40356
 C287 C 0.90307 0.38277 -0.35037
 C288 C 0.91048 0.37867 -0.25501
 N289 N 0.89683 0.34849 -0.21737
 H290 H 0.83013 0.24303 -0.25621
 H291 H 0.91356 0.40633 -0.38270
 C292 C 0.51449 -0.14954 -0.37275
 C293 C 0.52836 -0.14207 -0.28060
 N294 N 0.54181 -0.15845 -0.24551
 C295 C 0.54185 -0.18212 -0.29819
 C296 C 0.52808 -0.18973 -0.39196
 N297 N 0.51490 -0.17281 -0.42541
 N298 N 0.50067 -0.13357 -0.40824
 C299 C 0.50021 -0.11024 -0.35560
 C300 C 0.51449 -0.10225 -0.26345
 N301 N 0.52829 -0.11844 -0.22806
 H302 H 0.55372 -0.19376 -0.26804
 H303 H 0.48914 -0.09780 -0.38605
 C304 C 0.31260 0.47811 -0.27425
 C305 C 0.34383 0.49721 -0.31052
 N306 N 0.34942 0.51739 -0.38556
 C307 C 0.32495 0.51832 -0.42909
 C308 C 0.29311 0.49729 -0.39845
 N309 N 0.28801 0.47866 -0.31863
 N310 N 0.30716 0.45791 -0.19902
 C311 C 0.33146 0.45549 -0.15976
 C312 C 0.36253 0.47374 -0.19859
 N313 N 0.36793 0.49447 -0.27239
 H314 H 0.33027 0.53479 -0.48866
 H315 H 0.32640 0.43889 -0.10078
 C316 C 1.14669 0.66716 -0.34157
 C317 C 1.13016 0.67612 -0.27764
 N318 N 1.14060 0.70774 -0.26583
 C319 C 1.16645 0.73063 -0.31615
 C320 C 1.18237 0.72147 -0.38219
 N321 N 1.17224 0.68990 -0.39162
 N322 N 1.13639 0.63580 -0.35521
 C323 C 1.10995 0.61277 -0.30883
 C324 C 1.09281 0.62138 -0.24590
 N325 N 1.10350 0.65303 -0.23091
 H326 H 1.17406 0.75563 -0.30658
 H327 H 1.10224 0.58789 -0.32194
 C328 C 0.84329 0.51210 -0.37105
 C329 C 0.85309 0.52939 -0.28426
 N330 N 0.83822 0.54492 -0.25326
 C331 C 0.81371 0.54361 -0.30449
 C332 C 0.80341 0.52594 -0.39204
 N333 N 0.81899 0.51089 -0.42198
 N334 N 0.85788 0.49639 -0.40263
 C335 C 0.88198 0.49718 -0.35107
 C336 C 0.89203 0.51455 -0.26388
 N337 N 0.87730 0.53036 -0.23255
 H338 H 0.80326 0.55712 -0.27800
 H339 H 0.89321 0.48446 -0.37823
 C340 C 0.47612 0.32166 -0.29139
 C341 C 0.49519 0.35313 -0.32608
 N342 N 0.51791 0.35970 -0.39386
 C343 C 0.52157 0.33603 -0.43174
 C344 C 0.50096 0.30387 -0.40280
 N345 N 0.47947 0.29784 -0.33014
 N346 N 0.45377 0.31527 -0.22207
 C347 C 0.44942 0.33887 -0.18666
 C348 C 0.46799 0.37027 -0.22310
 N349 N 0.49064 0.37662 -0.29164
 H350 H 0.54081 0.34248 -0.48277
 H351 H 0.43135 0.33307 -0.13162
 C352 C 0.67587 0.13441 -0.37621
 C353 C 0.68050 0.11911 -0.29731
 N354 N 0.71075 0.12757 -0.27153
 C355 C 0.73660 0.15074 -0.32095
 C356 C 0.73205 0.16625 -0.39993
 N357 N 0.70162 0.15763 -0.42482
 N358 N 0.64572 0.12600 -0.40261
 C359 C 0.61986 0.10294 -0.35346
 C360 C 0.62431 0.08767 -0.27379
 N361 N 0.65466 0.09616 -0.24765
 H362 H 0.76044 0.15701 -0.29887
 H363 H 0.59609 0.09675 -0.37615
 C364 C 1.14892 0.50107 -0.36131
 C365 C 1.13955 0.48360 -0.27474
 N366 N 1.15528 0.46883 -0.24485
 C367 C 1.17984 0.47069 -0.29802
 C368 C 1.18894 0.48774 -0.38696
 N369 N 1.17306 0.50259 -0.41405
 N370 N 1.13354 0.51597 -0.39240
 C371 C 1.10881 0.51394 -0.34101
 C372 C 1.09881 0.49600 -0.25472
 N373 N 1.11458 0.48129 -0.22313
 H374 H 1.19103 0.45776 -0.27275
 H375 H 1.09689 0.52598 -0.36807
 C376 C 0.49772 0.65495 -0.34121
 C377 C 0.52540 0.66075 -0.29192
 N378 N 0.55215 0.69037 -0.29544
 C379 C 0.55262 0.71437 -0.34723
 C380 C 0.52513 0.70848 -0.39780
 N381 N 0.49804 0.67903 -0.39162
 N382 N 0.47140 0.62503 -0.34110
 C383 C 0.47157 0.60052 -0.29453
 C384 C 0.49916 0.60628 -0.24470
 N385 N 0.52541 0.63639 -0.24408
 H386 H 0.57429 0.73772 -0.34989
 H387 H 0.45039 0.57679 -0.29637
 C388 C 0.31848 -0.13677 -0.30088
 C389 C 0.34634 -0.13860 -0.30581
 N390 N 0.34542 -0.16377 -0.35139
 C391 C 0.31809 -0.18681 -0.39436
 C392 C 0.29083 -0.18388 -0.39489
 N393 N 0.29146 -0.15923 -0.34637
 N394 N 0.31914 -0.11217 -0.25253
 C395 C 0.34649 -0.08907 -0.20979
 C396 C 0.37469 -0.09015 -0.21796
 N397 N 0.37390 -0.11504 -0.26559
 H398 H 0.31798 -0.20643 -0.43171
 H399 H 0.34644 -0.06959 -0.17211
 C400 C 0.50550 -0.15773 0.33692
 C401 C 0.53381 -0.13689 0.28632
 N402 N 0.55851 -0.14231 0.28694
 C403 C 0.55639 -0.16733 0.33731
 C404 C 0.52831 -0.18791 0.38930
 N405 N 0.50315 -0.18309 0.38553
 N406 N 0.48142 -0.15142 0.34038
 C407 C 0.48444 -0.12506 0.29599
 C408 C 0.51259 -0.10439 0.24438
 N409 N 0.53656 -0.11096 0.24025
 H410 H 0.57654 -0.17095 0.33789
 H411 H 0.46503 -0.12036 0.30048
 C412 C 0.32435 0.46989 0.37201
 C413 C 0.33688 0.48732 0.28589
 N414 N 0.32520 0.50539 0.25134
 C415 C 0.30180 0.50719 0.29977
 C416 C 0.28936 0.48999 0.38671
 N417 N 0.30067 0.47126 0.41928
 N418 N 0.33694 0.45294 0.40912
 C419 C 0.36157 0.45260 0.36376
 C420 C 0.37379 0.46962 0.27696
 N421 N 0.36105 0.48647 0.23955
 H422 H 0.29368 0.52259 0.27209
 H423 H 0.37124 0.43886 0.39429
 C424 C 1.13668 0.68841 0.31203
 C425 C 1.13610 0.65929 0.31878
 N426 N 1.16024 0.65847 0.36475
 C427 C 1.18464 0.68530 0.40600
 C428 C 1.18433 0.71401 0.40423
 N429 N 1.16060 0.71505 0.35562
 N430 N 1.11315 0.68944 0.26277
 C431 C 1.08891 0.66263 0.22064
 C432 C 1.08770 0.63328 0.23009
 N433 N 1.11146 0.63236 0.27891
 H434 H 1.20361 0.68409 0.44261
 H435 H 1.07038 0.66407 0.18199
 C436 C 0.51788 0.16654 0.34583
 C437 C 0.48869 0.14661 0.29832
 N438 N 0.46488 0.15327 0.30406
 C439 C 0.46881 0.17879 0.35597
 C440 C 0.49788 0.19861 0.40397
 N441 N 0.52201 0.19235 0.39629
 N442 N 0.54119 0.15915 0.34342
 C443 C 0.53659 0.13260 0.29619
 C444 C 0.50752 0.11276 0.24798
 N445 N 0.48428 0.12038 0.24977
 H446 H 0.44945 0.18356 0.36017
 H447 H 0.55542 0.12701 0.29626
 C448 C 0.66836 0.52583 0.29968
 C449 C 0.63945 0.49615 0.30183
 N450 N 0.63833 0.47082 0.34709
 C451 C 0.66464 0.47404 0.39222
 C452 C 0.69295 0.50423 0.39534
 N453 N 0.69428 0.52933 0.34753
 N454 N 0.66981 0.55086 0.25167
 C455 C 0.64355 0.54772 0.20671
 C456 C 0.61425 0.51850 0.21236
 N457 N 0.61293 0.49329 0.25961
 H458 H 0.66311 0.45371 0.42930
 H459 H 0.64528 0.56815 0.16963
 C460 C 0.85592 0.32991 0.34843
 C461 C 0.88003 0.32820 0.29768
 N462 N 0.88001 0.30029 0.29679
 C463 C 0.85722 0.27409 0.34566
 C464 C 0.83333 0.27585 0.39755
 N465 N 0.83283 0.30358 0.39560
 N466 N 0.85675 0.35819 0.35301
 C467 C 0.88069 0.38494 0.30934
 C468 C 0.90459 0.38320 0.25732
 N469 N 0.90354 0.35473 0.25235
 H470 H 0.85789 0.25221 0.34502
 H471 H 0.88089 0.40723 0.31439
   
