data_POSCAR
  _audit_creation_date              2014-09-24
  _audit_creation_method            'ToBaCCo'
  _symmetry_space_group_name_H-M    'P1'
  _symmetry_Int_Tables_number       1
  _symmetry_cell_setting            triclinic
  loop_
  _symmetry_equiv_pos_as_xyz
 x,y,z
_cell_length_a 20.6572
_cell_length_b 21.4347
_cell_length_c 20.5416
_cell_angle_alpha 89.490600
_cell_angle_beta 89.520300
_cell_angle_gamma 91.294300
loop_
  _atom_site_label
  _atom_site_type_symbol
  _atom_site_fract_x
  _atom_site_fract_y
  _atom_site_fract_z
C1 C 0.29060 0.37762 1.39347
 C2 C 0.31053 0.31955 1.41885
 C3 C 0.36400 0.28857 1.39202
 C4 C 0.39499 0.31513 1.33666
 C5 C 0.37576 0.37201 1.30993
 C6 C 0.32499 0.40399 1.33998
 H7 H 0.28652 0.29929 1.46129
 H8 H 0.43321 0.29116 1.31182
 H9 H 0.31063 0.44874 1.32093
 C10 C 1.23100 0.64341 0.87869
 C11 C 1.20449 0.69867 0.90182
 C12 C 1.15621 0.72962 0.86768
 C13 C 1.13321 0.70421 0.80873
 C14 C 1.16012 0.64934 0.78395
 C15 C 1.20885 0.61971 0.81869
 H16 H 1.22173 0.71823 0.94723
 H17 H 1.09686 0.72791 0.78078
 H18 H 1.22826 0.57806 0.79772
 C19 C 0.70820 -0.13286 0.12443
 C20 C 0.68196 -0.18565 0.09281
 C21 C 0.62647 -0.21739 0.11730
 C22 C 0.59676 -0.19526 0.17441
 C23 C 0.62216 -0.14309 0.20674
 C24 C 0.67824 -0.11281 0.18194
 H25 H 0.70504 -0.20381 0.04980
 H26 H 0.55511 -0.21912 0.19590
 H27 H 0.69979 -0.07407 0.20809
 C28 C -0.21367 1.13680 -0.36752
 C29 C -0.19244 1.19240 -0.39882
 C30 C -0.14101 1.22835 -0.37312
 C31 C -0.10862 1.20593 -0.31791
 C32 C -0.12733 1.14924 -0.28874
 C33 C -0.18119 1.11605 -0.31242
 H34 H -0.21807 1.20988 -0.44071
 H35 H -0.06666 1.23060 -0.29892
 H36 H -0.19881 1.07417 -0.28757
 C37 C 0.69636 0.62424 0.61697
 C38 C 0.66647 0.59734 0.67234
 C39 C 0.60742 0.61884 0.69651
 C40 C 0.57728 0.66814 0.66344
 C41 C 0.60619 0.69545 0.60715
 C42 C 0.66530 0.67278 0.58390
 H43 H 0.68936 0.55858 0.69644
 H44 H 0.53160 0.68528 0.68143
 H45 H 0.68737 0.69459 0.54129
 C46 C 0.78360 0.34297 0.14630
 C47 C 0.81217 0.28801 0.12448
 C48 C 0.86571 0.26290 0.15697
 C49 C 0.88849 0.29257 0.21297
 C50 C 0.86296 0.34910 0.23377
 C51 C 0.81044 0.37463 0.20003
 H52 H 0.79064 0.26382 0.08368
 H53 H 0.92865 0.27287 0.23931
 H54 H 0.78814 0.41655 0.21767
 C55 C 0.29990 0.12358 0.87839
 C56 C 0.32464 0.09915 0.82018
 C57 C 0.36713 0.13472 0.78060
 C58 C 0.38907 0.19325 0.80117
 C59 C 0.37090 0.21580 0.86206
 C60 C 0.32493 0.18185 0.90025
 H61 H 0.30669 0.05448 0.80256
 H62 H 0.42213 0.22059 0.77040
 H63 H 0.30912 0.20099 0.94615
 C64 C 0.22165 0.85337 0.36258
 C65 C 0.20436 0.88847 0.30726
 C66 C 0.14910 0.87214 0.27174
 C67 C 0.11026 0.82068 0.29161
 C68 C 0.12810 0.78401 0.34491
 C69 C 0.18415 0.80058 0.37984
 H70 H 0.23437 0.92758 0.29048
 H71 H 0.06752 0.80773 0.26413
 H72 H 0.19689 0.77453 0.42314
 Zn73 Zn 0.07889 0.96964 0.00350
 Zn74 Zn -0.04770 0.95135 -0.06355
 Zn75 Zn -0.04533 1.00688 0.06881
 Zn76 Zn 0.00698 1.08000 -0.04282
 O77 O -0.00154 1.00176 -0.00844
 O78 O 0.09137 0.90022 -0.04445
 O79 O -0.11989 0.91822 -0.02741
 O80 O 0.00024 0.97803 0.13499
 O81 O -0.00324 0.88711 -0.09274
 O82 O 0.09091 0.94741 0.08729
 O83 O -0.11756 0.96002 0.07048
 O84 O -0.03714 1.13668 0.00088
 O85 O -0.07207 0.99151 -0.13470
 O86 O -0.07169 1.08411 0.08799
 O87 O -0.02586 1.08483 -0.12205
 O88 O 0.08939 1.10795 -0.04799
 O89 O 0.14370 1.02449 -0.01814
 C90 C 0.05401 0.87000 -0.08254
 C91 C -0.14429 0.92487 0.02881
 C92 C 0.05497 0.95264 0.13753
 C93 C -0.06828 1.13390 0.05412
 C94 C -0.05986 1.04655 -0.15467
 C95 C 0.14245 1.08089 -0.03796
 Zn96 Zn 0.48866 -0.07873 0.46179
 Zn97 Zn 0.54029 -0.01001 0.57516
 Zn98 Zn 0.54933 0.04869 0.44241
 Zn99 Zn 0.42309 0.03715 0.50913
 O100 O 0.50041 -0.00097 0.49715
 O101 O 0.51428 -0.14254 0.51430
 O102 O 0.61513 0.03391 0.57806
 O103 O 0.57441 0.00902 0.37112
 O104 O 0.55666 -0.08939 0.59603
 O105 O 0.53327 -0.08632 0.38703
 O106 O 0.62159 0.07642 0.47939
 O107 O 0.41839 0.11293 0.47244
 O108 O 0.49205 0.01576 0.64148
 O109 O 0.50970 0.11805 0.41609
 O110 O 0.40321 0.04811 0.59304
 O111 O 0.35925 -0.00517 0.47138
 O112 O 0.40571 -0.09223 0.43881
 C113 C 0.54305 -0.14089 0.56889
 C114 C 0.64409 0.06854 0.53589
 C115 C 0.56625 -0.04698 0.35317
 C116 C 0.45629 0.14133 0.43291
 C117 C 0.43609 0.03855 0.64393
 C118 C 0.35716 -0.05687 0.44201
 Zn119 Zn 0.99813 0.43055 0.47694
 Zn120 Zn 1.08320 0.53530 0.52000
 Zn121 Zn 0.95976 0.56143 0.44640
 Zn122 Zn 0.95641 0.51347 0.58360
 O123 O 0.99942 0.51039 0.50632
 O124 O 1.07764 0.40009 0.46432
 O125 O 1.10464 0.59786 0.46769
 O126 O 0.92926 0.51916 0.37688
 O127 O 1.14144 0.47655 0.50030
 O128 O 0.95570 0.42252 0.40206
 O129 O 1.01475 0.62161 0.41521
 O130 O 0.88316 0.55434 0.57698
 O131 O 1.09790 0.56539 0.60134
 O132 O 0.88849 0.59806 0.47904
 O133 O 1.00056 0.55313 0.64580
 O134 O 0.93452 0.43799 0.61546
 O135 O 0.95886 0.37756 0.53223
 C136 C 1.13370 0.42278 0.47550
 C137 C 1.07461 0.63080 0.42702
 C138 C 0.92865 0.46122 0.36446
 C139 C 0.85933 0.58868 0.53309
 C140 C 1.05865 0.57302 0.64863
 C141 C 0.93587 0.38488 0.58895
 Zn142 Zn 0.47847 0.47205 0.92404
 Zn143 Zn 0.58289 0.53316 1.00058
 Zn144 Zn 0.44461 0.54026 1.04564
 Zn145 Zn 0.51482 0.41948 1.05349
 O146 O 0.50518 0.49128 1.00611
 O147 O 0.53101 0.50317 0.86031
 O148 O 0.58047 0.60696 1.03956
 O149 O 0.37845 0.55918 0.99295
 O150 O 0.60749 0.55038 0.91806
 O151 O 0.40408 0.50582 0.90517
 O152 O 0.47846 0.61306 1.07234
 O153 O 0.46806 0.41972 1.12753
 O154 O 0.64752 0.49248 1.03947
 O155 O 0.41025 0.50503 1.11803
 O156 O 0.59786 0.40662 1.07704
 O157 O 0.48515 0.35149 1.01111
 O158 O 0.46181 0.39021 0.91387
 C159 C 0.58178 0.53757 0.86373
 C160 C 0.53549 0.63585 1.06795
 C161 C 0.36689 0.54177 0.93516
 C162 C 0.42510 0.45599 1.14900
 C163 C 0.64879 0.44067 1.06986
 C164 C 0.46245 0.34488 0.95423
 C165 C 1.23781 0.41073 0.41921
 C166 C 1.19060 0.38600 0.45757
 H167 H 1.23217 0.45863 0.40298
 H168 H 1.18850 0.33662 0.46877
 C169 C 0.27975 0.61566 0.91602
 C170 C 0.31059 0.56383 0.89955
 H171 H 0.29489 0.63899 0.96022
 H172 H 0.29900 0.53846 0.85595
 C173 C -0.23562 0.89980 0.10257
 C174 C -0.20446 0.89026 0.04593
 H175 H -0.21644 0.93613 0.13392
 H176 H -0.22243 0.85745 0.01048
 C177 C 0.72810 0.10093 0.61246
 C178 C 0.70436 0.10211 0.55230
 H179 H 0.70423 0.07160 0.64910
 H180 H 0.72850 0.12918 0.51417
 C181 C 0.38373 0.23164 0.42043
 C182 C 0.43855 0.20198 0.40455
 H183 H 0.35311 0.21103 0.45839
 H184 H 0.47325 0.22191 0.37032
 C185 C 0.87804 0.28442 0.59576
 C186 C 0.91152 0.33027 0.62530
 H187 H 0.86284 0.29206 0.54592
 H188 H 0.91943 0.32952 0.67731
 C189 C 0.13396 0.78931 -0.10476
 C190 C 0.07589 0.81324 -0.11567
 H191 H 0.16574 0.81265 -0.07049
 H192 H 0.04204 0.78950 -0.14746
 C193 C 0.60540 0.72801 1.08543
 C194 C 0.54982 0.69641 1.09817
 H195 H 0.63673 0.71005 1.04763
 H196 H 0.51364 0.71408 1.13102
 C197 C 0.41005 0.39444 1.24979
 C198 C 0.39080 0.44081 1.21074
 H199 H 0.45258 0.36908 1.23531
 H200 H 0.34873 0.46761 1.22267
 C201 C 0.59089 -0.12354 0.26825
 C202 C 0.59627 -0.06550 0.29144
 H203 H 0.56126 -0.15791 0.29451
 H204 H 0.62275 -0.02957 0.26436
 C205 C -0.09137 1.12709 -0.23188
 C206 C -0.08855 1.06669 -0.21577
 H207 H -0.06682 1.16179 -0.20230
 H208 H -0.11098 1.03121 -0.24584
 C209 C 1.14039 0.62248 0.72067
 C210 C 1.07894 0.60604 0.70840
 H211 H 1.17821 0.60946 0.68686
 H212 H 1.04201 0.61535 0.74463
 C213 C 0.76068 0.60029 0.59808
 C214 C 0.79595 0.61725 0.54533
 H215 H 0.78030 0.56554 0.63064
 H216 H 0.77830 0.65042 0.51015
 C217 C 0.72228 0.36255 1.11590
 C218 C 0.71060 0.42173 1.09933
 H219 H 0.68702 0.32632 1.10390
 H220 H 0.74791 0.45732 1.10644
 C221 C 0.24863 1.08994 -0.09070
 C222 C 0.20337 1.11560 -0.05289
 H223 H 0.23965 1.04212 -0.10585
 H224 H 0.20495 1.16515 -0.04317
 C225 C 0.27572 -0.13113 0.40052
 C226 C 0.29830 -0.07265 0.40615
 H227 H 0.29717 -0.16713 0.43032
 H228 H 0.27218 -0.03409 0.38540
 C229 C 0.57665 -0.25139 0.57226
 C230 C 0.56152 -0.19886 0.60314
 H231 H 0.57565 -0.25225 0.51953
 H232 H 0.56914 -0.19619 0.65520
 C233 C 1.08685 0.72985 0.36523
 C234 C 1.11248 0.68075 0.39495
 H235 H 1.03510 0.73126 0.35731
 H236 H 1.16450 0.67836 0.40011
 C237 C -0.10322 1.20871 0.13625
 C238 C -0.10344 1.18921 0.07460
 H239 H -0.07271 1.18446 0.17051
 H240 H -0.12514 1.21691 0.03661
 C241 C 0.39842 0.27672 0.88209
 C242 C 0.43334 0.28381 0.93628
 H243 H 0.39480 0.31529 0.84794
 H244 H 0.43868 0.24453 0.96924
 C245 C 0.57672 0.58890 0.75528
 C246 C 0.61168 0.56467 0.80409
 H247 H 0.52442 0.58919 0.75978
 H248 H 0.66388 0.57046 0.80360
 C249 C 0.38649 0.11283 0.71594
 C250 C 0.41018 0.05616 0.70735
 H251 H 0.38678 0.14595 0.67570
 H252 H 0.41717 0.02540 0.74874
 C253 C 0.13413 0.90704 0.21189
 C254 C 0.07413 0.92549 0.20004
 H255 H 0.17297 0.91770 0.17749
 H256 H 0.03677 0.91843 0.23695
 C257 C 0.89122 0.37690 0.29315
 C258 C 0.89528 0.43815 0.30556
 H259 H 0.91382 0.34473 0.32656
 H260 H 0.87495 0.47159 0.27209
   
