data_POSCAR
  _audit_creation_date              2014-09-24
  _audit_creation_method            'ToBaCCo'
  _symmetry_space_group_name_H-M    'P1'
  _symmetry_Int_Tables_number       1
  _symmetry_cell_setting            triclinic
  loop_
  _symmetry_equiv_pos_as_xyz
 x,y,z
_cell_length_a 41.9618
_cell_length_b 41.6762
_cell_length_c 41.9928
_cell_angle_alpha 89.977000
_cell_angle_beta 89.968200
_cell_angle_gamma 90.029300
loop_
  _atom_site_label
  _atom_site_type_symbol
  _atom_site_fract_x
  _atom_site_fract_y
  _atom_site_fract_z
C1 C 0.27291 0.25009 0.22653
 N2 N 0.27293 0.22716 0.24947
 C3 C 0.25001 0.22715 0.27227
 N4 N 0.22707 0.25008 0.27214
 C5 C 0.22705 0.27301 0.24920
 N6 N 0.24997 0.27302 0.22640
 C7 C 0.72616 -0.25064 0.22574
 N8 N 0.72598 -0.22779 0.24876
 C9 C 0.74888 -0.22774 0.27156
 N10 N 0.77196 -0.25053 0.27135
 C11 C 0.77214 -0.27338 0.24834
 N12 N 0.74924 -0.27343 0.22553
 C13 C 0.72732 0.25056 0.77278
 N14 N 0.75025 0.27353 0.77284
 C15 C 0.77312 0.27356 0.74999
 N16 N 0.77306 0.25062 0.72707
 C17 C 0.75013 0.22765 0.72701
 N18 N 0.72726 0.22762 0.74987
 C19 C 0.27451 -0.25014 0.77487
 N20 N 0.27475 -0.22734 0.75179
 C21 C 0.25187 -0.22732 0.72897
 N22 N 0.22874 -0.25008 0.72924
 C23 C 0.22849 -0.27287 0.75232
 N24 N 0.25138 -0.27290 0.77514
 C25 C 0.72599 -0.25067 0.77428
 N26 N 0.74904 -0.27350 0.77445
 C27 C 0.77190 -0.27350 0.75158
 N28 N 0.77171 -0.25066 0.72854
 C29 C 0.74867 -0.22782 0.72836
 N30 N 0.72581 -0.22783 0.75123
 C31 C 0.27307 0.25000 0.77339
 N32 N 0.25008 0.27288 0.77352
 C33 C 0.22720 0.27287 0.75070
 N34 N 0.22731 0.24998 0.72773
 C35 C 0.25031 0.22709 0.72759
 N36 N 0.27318 0.22710 0.75042
 C37 C 0.27373 -0.25071 0.22545
 N38 N 0.27393 -0.22790 0.24850
 C39 C 0.25100 -0.22785 0.27130
 N40 N 0.22786 -0.25061 0.27105
 C41 C 0.22765 -0.27343 0.24800
 N42 N 0.25059 -0.27347 0.22520
 C43 C 0.72775 0.25089 0.22677
 N44 N 0.75066 0.27388 0.22669
 C45 C 0.77353 0.27391 0.24953
 N46 N 0.77349 0.25094 0.27245
 C47 C 0.75057 0.22795 0.27253
 N48 N 0.72771 0.22792 0.24969
 O49 O 0.22480 0.03021 0.46898
 O50 O 0.22536 -0.03219 0.53101
 O51 O 0.22497 0.03024 0.53096
 O52 O 0.22516 -0.03223 0.46900
 O53 O 0.27787 -0.03189 0.46881
 O54 O 0.27768 0.03059 0.53078
 O55 O 0.27807 -0.03185 0.53083
 O56 O 0.27751 0.03055 0.46879
 Cu57 Cu 0.21974 -0.00104 0.50000
 Cu58 Cu 0.28311 -0.00062 0.49978
 C59 C 0.25106 0.04091 0.45842
 C60 C 0.25180 -0.04252 0.54142
 C61 C 0.25129 0.04095 0.54133
 C62 C 0.25155 -0.04258 0.45842
 O63 O 0.72288 0.03080 0.53077
 O64 O 0.72253 -0.03162 0.46880
 O65 O 0.72247 -0.03164 0.53082
 O66 O 0.72295 0.03083 0.46880
 O67 O 0.77566 0.03051 0.46883
 O68 O 0.77518 -0.03196 0.53084
 O69 O 0.77524 -0.03194 0.46883
 O70 O 0.77559 0.03048 0.53080
 Cu71 Cu 0.71738 -0.00038 0.49979
 Cu72 Cu 0.78074 -0.00077 0.49983
 C73 C 0.74929 0.04117 0.54124
 C74 C 0.74883 -0.04229 0.45834
 C75 C 0.74875 -0.04232 0.54132
 C76 C 0.74938 0.04121 0.45835
 O77 O 0.46949 0.22374 0.03105
 O78 O 0.53150 0.22381 -0.03097
 O79 O 0.53153 0.22385 0.03102
 O80 O 0.46947 0.22370 -0.03093
 O81 O 0.46941 0.27677 -0.03099
 O82 O 0.53147 0.27692 0.03096
 O83 O 0.53144 0.27688 -0.03102
 O84 O 0.46944 0.27682 0.03099
 Cu85 Cu 0.50051 0.21841 0.00005
 Cu86 Cu 0.50044 0.28221 -0.00002
 C87 C 0.45900 0.25027 0.04147
 C88 C 0.54193 0.25035 -0.04146
 C89 C 0.54197 0.25041 0.04144
 C90 C 0.45897 0.25021 -0.04141
 O91 O 0.53129 0.72274 0.03128
 O92 O 0.46930 0.72285 -0.03069
 O93 O 0.53132 0.72281 -0.03071
 O94 O 0.46925 0.72275 0.03129
 O95 O 0.46930 0.77582 0.03134
 O96 O 0.53138 0.77588 -0.03066
 O97 O 0.46935 0.77593 -0.03064
 O98 O 0.53134 0.77581 0.03133
 Cu99 Cu 0.50029 0.71742 0.00029
 Cu100 Cu 0.50035 0.78123 0.00035
 C101 C 0.54177 0.74926 0.04176
 C102 C 0.45886 0.74941 -0.04112
 C103 C 0.54182 0.74935 -0.04115
 C104 C 0.45879 0.74928 0.04176
 O105 O 0.03063 0.46984 0.22182
 O106 O -0.03138 0.53227 0.22159
 O107 O 0.03069 0.53228 0.22150
 O108 O -0.03139 0.46982 0.22191
 O109 O -0.03134 0.47007 0.27458
 O110 O 0.03074 0.53253 0.27416
 O111 O -0.03133 0.53252 0.27426
 O112 O 0.03067 0.47009 0.27449
 Cu113 Cu -0.00037 0.50104 0.21638
 Cu114 Cu -0.00031 0.50134 0.27970
 C115 C 0.04111 0.45944 0.24819
 C116 C -0.04184 0.54289 0.24788
 C117 C 0.04122 0.54291 0.24776
 C118 C -0.04184 0.45941 0.24831
 O119 O 0.03036 0.53204 0.72584
 O120 O -0.03168 0.46961 0.72519
 O121 O -0.03170 0.53205 0.72561
 O122 O 0.03034 0.46962 0.72541
 O123 O 0.03013 0.46924 0.77808
 O124 O -0.03192 0.53168 0.77828
 O125 O -0.03190 0.46923 0.77786
 O126 O 0.03015 0.53167 0.77851
 Cu127 Cu -0.00065 0.50088 0.72019
 Cu128 Cu -0.00091 0.50042 0.78351
 C129 C 0.04075 0.54236 0.75228
 C130 C -0.04226 0.45888 0.75142
 C131 C -0.04230 0.54238 0.75198
 C132 C 0.04071 0.45890 0.75171
 C133 C 0.38995 0.25021 0.11020
 C134 C 0.35747 0.25257 0.10141
 C135 C 0.33344 0.25255 0.12528
 C136 C 0.34205 0.25016 0.15780
 C137 C 0.37454 0.24780 0.16659
 C138 C 0.39857 0.24784 0.14271
 C139 C 0.43090 0.24547 0.15207
 C140 C 0.43925 0.24314 0.18410
 C141 C 0.41576 0.24309 0.20744
 C142 C 0.38374 0.24539 0.19893
 C143 C 0.30112 0.25495 0.11591
 C144 C 0.29279 0.25727 0.08387
 C145 C 0.31629 0.25728 0.06052
 C146 C 0.34829 0.25496 0.06905
 C147 C 0.31750 0.25012 0.18219
 C148 C 0.29713 0.25010 0.20244
 C149 C 0.41448 0.25023 0.08583
 C150 C 0.43483 0.25025 0.06557
 H151 H 0.45003 0.24541 0.13478
 H152 H 0.46409 0.24135 0.19083
 H153 H 0.42236 0.24127 0.23229
 H154 H 0.36634 0.24526 0.21796
 H155 H 0.28199 0.25505 0.13319
 H156 H 0.26796 0.25909 0.07712
 H157 H 0.30969 0.25909 0.03566
 H158 H 0.36569 0.25506 0.05003
 C159 C 0.61068 0.74920 0.11056
 C160 C 0.64320 0.74713 0.10180
 C161 C 0.66716 0.74714 0.12571
 C162 C 0.65845 0.74924 0.15823
 C163 C 0.62592 0.75132 0.16698
 C164 C 0.60196 0.75129 0.14307
 C165 C 0.56959 0.75337 0.15239
 C166 C 0.56114 0.75543 0.18442
 C167 C 0.58457 0.75547 0.20780
 C168 C 0.61662 0.75344 0.19932
 C169 C 0.69952 0.74504 0.11638
 C170 C 0.70795 0.74300 0.08434
 C171 C 0.68452 0.74299 0.06096
 C172 C 0.65248 0.74503 0.06945
 C173 C 0.68293 0.74927 0.18266
 C174 C 0.70326 0.74931 0.20293
 C175 C 0.58621 0.74920 0.08614
 C176 C 0.56590 0.74922 0.06587
 H177 H 0.55050 0.75342 0.13507
 H178 H 0.53627 0.75700 0.19112
 H179 H 0.57788 0.75708 0.23265
 H180 H 0.63397 0.75356 0.21838
 H181 H 0.71861 0.74495 0.13369
 H182 H 0.73281 0.74141 0.07762
 H183 H 0.69119 0.74141 0.03610
 H184 H 0.63513 0.74494 0.05040
 C185 C 0.61074 0.25045 -0.11042
 C186 C 0.64325 0.25309 -0.10179
 C187 C 0.66717 0.25313 -0.12577
 C188 C 0.65843 0.25050 -0.15824
 C189 C 0.62591 0.24786 -0.16686
 C190 C 0.60199 0.24784 -0.14288
 C191 C 0.56964 0.24519 -0.15207
 C192 C 0.56116 0.24262 -0.18405
 C193 C 0.58455 0.24262 -0.20750
 C194 C 0.61659 0.24520 -0.19915
 C195 C 0.69951 0.25582 -0.11656
 C196 C 0.70798 0.25838 -0.08457
 C197 C 0.68459 0.25834 -0.06112
 C198 C 0.65256 0.25573 -0.06949
 C199 C 0.68287 0.25051 -0.18273
 C200 C 0.70317 0.25053 -0.20306
 C201 C 0.58632 0.25040 -0.08593
 C202 C 0.56605 0.25037 -0.06561
 H203 H 0.55059 0.24508 -0.13470
 H204 H 0.53630 0.24062 -0.19065
 H205 H 0.57784 0.24062 -0.23231
 H206 H 0.63390 0.24509 -0.21825
 H207 H 0.71857 0.25596 -0.13393
 H208 H 0.73282 0.26042 -0.07795
 H209 H 0.69128 0.26033 -0.03630
 H210 H 0.63524 0.25581 -0.05039
 C211 C 0.38996 0.74961 -0.10992
 C212 C 0.39870 0.75159 -0.14243
 C213 C 0.37474 0.75167 -0.16635
 C214 C 0.34220 0.74976 -0.15760
 C215 C 0.33347 0.74777 -0.12508
 C216 C 0.35742 0.74770 -0.10116
 C217 C 0.34813 0.74571 -0.06880
 C218 C 0.31607 0.74384 -0.06031
 C219 C 0.29265 0.74389 -0.08370
 C220 C 0.30110 0.74583 -0.11574
 C221 C 0.38406 0.75369 -0.19870
 C222 C 0.41613 0.75556 -0.20717
 C223 C 0.43955 0.75547 -0.18378
 C224 C 0.43108 0.75351 -0.15175
 C225 C 0.31772 0.74980 -0.18204
 C226 C 0.29740 0.74983 -0.20231
 C227 C 0.41442 0.74952 -0.08550
 C228 C 0.43473 0.74946 -0.06522
 H229 H 0.36548 0.74558 -0.04975
 H230 H 0.30939 0.74233 -0.03545
 H231 H 0.26778 0.74243 -0.07699
 H232 H 0.28201 0.74579 -0.13306
 H233 H 0.36671 0.75385 -0.21775
 H234 H 0.42283 0.75709 -0.23202
 H235 H 0.46443 0.75692 -0.19048
 H236 H 0.45016 0.75352 -0.13443
 C237 C 0.11008 0.39018 0.24850
 C238 C 0.14261 0.39906 0.24672
 C239 C 0.16661 0.37501 0.24685
 C240 C 0.15793 0.34222 0.24879
 C241 C 0.12539 0.33335 0.25057
 C242 C 0.10139 0.35741 0.25042
 C243 C 0.06903 0.34797 0.25221
 C244 C 0.06060 0.31567 0.25411
 C245 C 0.08407 0.29215 0.25426
 C246 C 0.11612 0.30074 0.25252
 C247 C 0.19897 0.38447 0.24503
 C248 C 0.20737 0.41677 0.24315
 C249 C 0.18391 0.44029 0.24303
 C250 C 0.15186 0.43168 0.24479
 C251 C 0.18245 0.31764 0.24894
 C252 C 0.20281 0.29725 0.24906
 C253 C 0.08558 0.41475 0.24838
 C254 C 0.06526 0.43516 0.24829
 H255 H 0.04991 0.36538 0.25217
 H256 H 0.03573 0.30888 0.25546
 H257 H 0.07740 0.26710 0.25574
 H258 H 0.13350 0.28157 0.25272
 H259 H 0.21809 0.36705 0.24505
 H260 H 0.23223 0.42358 0.24178
 H261 H 0.19055 0.46536 0.24157
 H262 H 0.13448 0.45085 0.24461
 C263 C 0.11032 0.61107 0.75284
 C264 C 0.14276 0.60184 0.75441
 C265 C 0.16702 0.62565 0.75443
 C266 C 0.15870 0.65855 0.75287
 C267 C 0.12626 0.66777 0.75135
 C268 C 0.10199 0.64396 0.75134
 C269 C 0.06973 0.65375 0.74981
 C270 C 0.06166 0.68614 0.74833
 C271 C 0.08538 0.70943 0.74832
 C272 C 0.11735 0.70049 0.74982
 C273 C 0.19928 0.61584 0.75601
 C274 C 0.20732 0.58344 0.75752
 C275 C 0.18360 0.56016 0.75749
 C276 C 0.15165 0.56911 0.75595
 C277 C 0.18349 0.68287 0.75274
 C278 C 0.20406 0.70307 0.75258
 C279 C 0.08556 0.58675 0.75268
 C280 C 0.06505 0.56651 0.75252
 H281 H 0.05042 0.63653 0.74975
 H282 H 0.03686 0.69321 0.74717
 H283 H 0.07899 0.73456 0.74717
 H284 H 0.13494 0.71949 0.74975
 H285 H 0.21859 0.63306 0.75611
 H286 H 0.23211 0.57636 0.75872
 H287 H 0.18997 0.53501 0.75866
 H288 H 0.13405 0.55012 0.75600
 C289 C -0.11127 0.61169 0.24773
 C290 C -0.10285 0.64456 0.24920
 C291 C -0.12705 0.66841 0.24927
 C292 C -0.15953 0.65924 0.24784
 C293 C -0.16793 0.62636 0.24632
 C294 C -0.14373 0.60251 0.24627
 C295 C -0.15271 0.56979 0.24476
 C296 C -0.18469 0.56089 0.24333
 C297 C -0.20836 0.58421 0.24336
 C298 C -0.20022 0.61660 0.24484
 C299 C -0.11806 0.70112 0.25078
 C300 C -0.08607 0.71000 0.25218
 C301 C -0.06240 0.68668 0.25211
 C302 C -0.07056 0.65430 0.25064
 C303 C -0.18425 0.68360 0.24798
 C304 C -0.20477 0.70383 0.24813
 C305 C -0.08656 0.58733 0.24776
 C306 C -0.06610 0.56706 0.24780
 H307 H -0.13516 0.55077 0.24466
 H308 H -0.19113 0.53576 0.24218
 H309 H -0.23317 0.57717 0.24225
 H310 H -0.21949 0.63385 0.24480
 H311 H -0.13560 0.72014 0.25090
 H312 H -0.07961 0.73513 0.25332
 H313 H -0.03758 0.69370 0.25319
 H314 H -0.05129 0.63705 0.25065
 C315 C -0.11124 0.38957 0.75071
 C316 C -0.14377 0.39841 0.75241
 C317 C -0.16777 0.37433 0.75221
 C318 C -0.15908 0.34155 0.75031
 C319 C -0.12654 0.33272 0.74859
 C320 C -0.10254 0.35680 0.74880
 C321 C -0.07017 0.34740 0.74708
 C322 C -0.06174 0.31512 0.74520
 C323 C -0.08520 0.29157 0.74498
 C324 C -0.11727 0.30012 0.74665
 C325 C -0.20013 0.38375 0.75395
 C326 C -0.20854 0.41604 0.75581
 C327 C -0.18508 0.43959 0.75598
 C328 C -0.15303 0.43102 0.75431
 C329 C -0.18359 0.31695 0.75016
 C330 C -0.20395 0.29653 0.75006
 C331 C -0.08674 0.41416 0.75096
 C332 C -0.06641 0.43459 0.75116
 H333 H -0.05106 0.36484 0.74717
 H334 H -0.03687 0.30836 0.74390
 H335 H -0.07854 0.26653 0.74351
 H336 H -0.13464 0.28093 0.74640
 H337 H -0.21925 0.36632 0.75388
 H338 H -0.23341 0.42282 0.75711
 H339 H -0.19173 0.46465 0.75743
 H340 H -0.13565 0.45021 0.75453
 C341 C 0.25049 0.11008 0.38936
 C342 C 0.25202 0.10115 0.35686
 C343 C 0.25189 0.12518 0.33283
 C344 C 0.25020 0.15799 0.34144
 C345 C 0.24864 0.16690 0.37395
 C346 C 0.24880 0.14288 0.39798
 C347 C 0.24724 0.15237 0.43031
 C348 C 0.24557 0.18468 0.43867
 C349 C 0.24541 0.20817 0.41517
 C350 C 0.24692 0.19953 0.38315
 C351 C 0.25345 0.11566 0.30051
 C352 C 0.25510 0.08334 0.29217
 C353 C 0.25522 0.05985 0.31567
 C354 C 0.25371 0.06851 0.34768
 C355 C 0.25011 0.18253 0.31690
 C356 C 0.25005 0.20291 0.29652
 C357 C 0.25068 0.08555 0.41389
 C358 C 0.25085 0.06516 0.43425
 H359 H 0.24729 0.13497 0.44945
 H360 H 0.24439 0.19151 0.46352
 H361 H 0.24410 0.23324 0.42178
 H362 H 0.24673 0.21868 0.36574
 H363 H 0.25342 0.13305 0.28137
 H364 H 0.25628 0.07650 0.26733
 H365 H 0.25650 0.03477 0.30907
 H366 H 0.25388 0.04936 0.36509
 C367 C 0.74967 0.11044 0.61016
 C368 C 0.74789 0.10156 0.64267
 C369 C 0.74800 0.12563 0.66664
 C370 C 0.74990 0.15842 0.65796
 C371 C 0.75170 0.16728 0.62545
 C372 C 0.75157 0.14321 0.60147
 C373 C 0.75336 0.15265 0.56913
 C374 C 0.75523 0.18494 0.56070
 C375 C 0.75537 0.20847 0.58415
 C376 C 0.75363 0.19988 0.61618
 C377 C 0.74618 0.11617 0.69898
 C378 C 0.74432 0.08387 0.70738
 C379 C 0.74422 0.06034 0.68393
 C380 C 0.74597 0.06894 0.65191
 C381 C 0.75000 0.18300 0.68246
 C382 C 0.75007 0.20340 0.70280
 C383 C 0.74953 0.08586 0.58568
 C384 C 0.74942 0.06545 0.56537
 H385 H 0.75333 0.13522 0.55003
 H386 H 0.75658 0.19172 0.53585
 H387 H 0.75683 0.23352 0.57749
 H388 H 0.75381 0.21906 0.63355
 H389 H 0.74618 0.13359 0.71808
 H390 H 0.74294 0.07707 0.73223
 H391 H 0.74277 0.03528 0.69058
 H392 H 0.74582 0.04977 0.63455
 C393 C 0.25231 -0.11123 0.61093
 C394 C 0.25097 -0.14412 0.60260
 C395 C 0.25099 -0.16794 0.62683
 C396 C 0.25237 -0.15871 0.65926
 C397 C 0.25376 -0.12581 0.66759
 C398 C 0.25373 -0.10200 0.64335
 C399 C 0.25511 -0.06926 0.65225
 C400 C 0.25649 -0.06031 0.68418
 C401 C 0.25654 -0.08359 0.70789
 C402 C 0.25519 -0.11600 0.69983
 C403 C 0.24961 -0.20066 0.61792
 C404 C 0.24826 -0.20960 0.58597
 C405 C 0.24825 -0.18631 0.56227
 C406 C 0.24958 -0.15391 0.57034
 C407 C 0.25225 -0.18304 0.68403
 C408 C 0.25211 -0.20325 0.70457
 C409 C 0.25216 -0.08691 0.58619
 C410 C 0.25201 -0.06666 0.56570
 H411 H 0.25514 -0.05027 0.63467
 H412 H 0.25754 -0.03516 0.69056
 H413 H 0.25762 -0.07651 0.73266
 H414 H 0.25529 -0.13322 0.71912
 H415 H 0.24957 -0.21966 0.63549
 H416 H 0.24721 -0.23474 0.57957
 H417 H 0.24720 -0.19337 0.53748
 H418 H 0.24951 -0.13669 0.55106
 C419 C 0.74853 -0.11121 0.38908
 C420 C 0.74743 -0.10211 0.35661
 C421 C 0.74741 -0.12602 0.33249
 C422 C 0.74852 -0.15889 0.34098
 C423 C 0.74959 -0.16799 0.37346
 C424 C 0.74959 -0.14408 0.39759
 C425 C 0.75068 -0.15374 0.42989
 C426 C 0.75173 -0.18612 0.43813
 C427 C 0.75174 -0.20950 0.41454
 C428 C 0.75069 -0.20069 0.38254
 C429 C 0.74630 -0.11633 0.30019
 C430 C 0.74523 -0.08394 0.29197
 C431 C 0.74525 -0.06056 0.31556
 C432 C 0.74633 -0.06940 0.34755
 C433 C 0.74860 -0.18332 0.31633
 C434 C 0.74871 -0.20360 0.29587
 C435 C 0.74861 -0.08679 0.41371
 C436 C 0.74870 -0.06648 0.43413
 H437 H 0.75072 -0.13644 0.44910
 H438 H 0.75255 -0.19308 0.46296
 H439 H 0.75257 -0.23462 0.42106
 H440 H 0.75074 -0.21976 0.36506
 H441 H 0.74623 -0.13363 0.28098
 H442 H 0.74439 -0.07696 0.26715
 H443 H 0.74443 -0.03544 0.30906
 H444 H 0.74630 -0.05033 0.36503
 C445 C 0.61068 0.74938 -0.11014
 C446 C 0.60191 0.75151 -0.14263
 C447 C 0.62583 0.75152 -0.16662
 C448 C 0.65838 0.74937 -0.15798
 C449 C 0.66714 0.74723 -0.12548
 C450 C 0.64322 0.74724 -0.10149
 C451 C 0.65256 0.74510 -0.06917
 C452 C 0.68462 0.74299 -0.06077
 C453 C 0.70800 0.74296 -0.08423
 C454 C 0.69951 0.74505 -0.11624
 C455 C 0.61647 0.75369 -0.19893
 C456 C 0.58440 0.75578 -0.20730
 C457 C 0.56102 0.75576 -0.18385
 C458 C 0.56953 0.75366 -0.15185
 C459 C 0.68283 0.74934 -0.18249
 C460 C 0.70313 0.74933 -0.20283
 C461 C 0.58625 0.74938 -0.08564
 C462 C 0.56596 0.74937 -0.06531
 H463 H 0.63525 0.74502 -0.05006
 H464 H 0.69134 0.74137 -0.03594
 H465 H 0.73287 0.74132 -0.07759
 H466 H 0.71857 0.74494 -0.13361
 H467 H 0.63378 0.75379 -0.21804
 H468 H 0.57767 0.75742 -0.23213
 H469 H 0.53614 0.75739 -0.19047
 H470 H 0.55047 0.75374 -0.13447
 C471 C 0.38996 0.25009 -0.11016
 C472 C 0.35746 0.25241 -0.10139
 C473 C 0.33346 0.25239 -0.12528
 C474 C 0.34211 0.25004 -0.15780
 C475 C 0.37463 0.24772 -0.16656
 C476 C 0.39863 0.24775 -0.14268
 C477 C 0.43097 0.24541 -0.15202
 C478 C 0.43937 0.24311 -0.18404
 C479 C 0.41591 0.24306 -0.20740
 C480 C 0.38388 0.24533 -0.19890
 C481 C 0.30113 0.25475 -0.11592
 C482 C 0.29275 0.25704 -0.08388
 C483 C 0.31621 0.25704 -0.06053
 C484 C 0.34823 0.25476 -0.06904
 C485 C 0.31760 0.25002 -0.18221
 C486 C 0.29725 0.25001 -0.20248
 C487 C 0.41447 0.25012 -0.08577
 C488 C 0.43481 0.25016 -0.06550
 H489 H 0.45008 0.24535 -0.13472
 H490 H 0.46422 0.24134 -0.19076
 H491 H 0.42256 0.24126 -0.23224
 H492 H 0.36651 0.24520 -0.21793
 H493 H 0.28202 0.25484 -0.13321
 H494 H 0.26791 0.25882 -0.07715
 H495 H 0.30957 0.25882 -0.03567
 H496 H 0.36560 0.25486 -0.05001
 C497 C 0.38963 0.74921 0.11045
 C498 C 0.35713 0.74731 0.10161
 C499 C 0.33307 0.74729 0.12546
 C500 C 0.34166 0.74920 0.15802
 C501 C 0.37418 0.75110 0.16686
 C502 C 0.39823 0.75110 0.14300
 C503 C 0.43057 0.75301 0.15241
 C504 C 0.43892 0.75488 0.18448
 C505 C 0.41540 0.75489 0.20780
 C506 C 0.38337 0.75303 0.19923
 C507 C 0.30074 0.74536 0.11603
 C508 C 0.29242 0.74351 0.08396
 C509 C 0.31593 0.74353 0.06064
 C510 C 0.34795 0.74540 0.06923
 C511 C 0.31708 0.74922 0.18240
 C512 C 0.29668 0.74925 0.20265
 C513 C 0.41420 0.74923 0.08609
 C514 C 0.43458 0.74925 0.06585
 H515 H 0.44973 0.75308 0.13515
 H516 H 0.46377 0.75632 0.19125
 H517 H 0.42200 0.75635 0.23267
 H518 H 0.36595 0.75312 0.21824
 H519 H 0.28159 0.74526 0.13330
 H520 H 0.26757 0.74205 0.07718
 H521 H 0.30935 0.74209 0.03576
 H522 H 0.36538 0.74534 0.05022
 C523 C 0.61094 0.25062 0.11024
 C524 C 0.64343 0.25331 0.10150
 C525 C 0.66741 0.25339 0.12541
 C526 C 0.65875 0.25076 0.15791
 C527 C 0.62625 0.24807 0.16664
 C528 C 0.60228 0.24801 0.14273
 C529 C 0.56995 0.24530 0.15204
 C530 C 0.56154 0.24273 0.18404
 C531 C 0.58498 0.24277 0.20741
 C532 C 0.61700 0.24541 0.19896
 C533 C 0.69972 0.25612 0.11608
 C534 C 0.70811 0.25869 0.08407
 C535 C 0.68467 0.25859 0.06069
 C536 C 0.65266 0.25594 0.06917
 C537 C 0.68325 0.25080 0.18234
 C538 C 0.70358 0.25085 0.20263
 C539 C 0.58645 0.25052 0.08582
 C540 C 0.56613 0.25046 0.06555
 H541 H 0.55085 0.24515 0.13473
 H542 H 0.53670 0.24068 0.19073
 H543 H 0.57833 0.24076 0.23225
 H544 H 0.63436 0.24533 0.21800
 H545 H 0.71882 0.25631 0.13339
 H546 H 0.73294 0.26076 0.07736
 H547 H 0.69131 0.26059 0.03585
 H548 H 0.63530 0.25599 0.05013
 C549 C -0.11167 0.61130 0.75209
 C550 C -0.10320 0.64416 0.75061
 C551 C -0.12736 0.66806 0.75055
 C552 C -0.15986 0.65896 0.75199
 C553 C -0.16832 0.62609 0.75351
 C554 C -0.14415 0.60219 0.75355
 C555 C -0.15320 0.56949 0.75506
 C556 C -0.18519 0.56064 0.75649
 C557 C -0.20882 0.58401 0.75646
 C558 C -0.20062 0.61639 0.75499
 C559 C -0.11830 0.70075 0.74903
 C560 C -0.08629 0.70958 0.74763
 C561 C -0.06267 0.68621 0.74769
 C562 C -0.07089 0.65384 0.74916
 C563 C -0.18455 0.68338 0.75187
 C564 C -0.20504 0.70366 0.75174
 C565 C -0.08700 0.58688 0.75208
 C566 C -0.06655 0.56658 0.75204
 H567 H -0.13569 0.55044 0.75515
 H568 H -0.19168 0.53552 0.75763
 H569 H -0.23364 0.57702 0.75758
 H570 H -0.21986 0.63367 0.75503
 H571 H -0.13581 0.71980 0.74892
 H572 H -0.07979 0.73469 0.74648
 H573 H -0.03784 0.69319 0.74660
 H574 H -0.05165 0.63656 0.74915
 C575 C -0.11084 0.39004 0.24883
 C576 C -0.14338 0.39887 0.24719
 C577 C -0.16737 0.37477 0.24736
 C578 C -0.15868 0.34198 0.24919
 C579 C -0.12613 0.33317 0.25085
 C580 C -0.10214 0.35727 0.25066
 C581 C -0.06976 0.34787 0.25232
 C582 C -0.06132 0.31559 0.25413
 C583 C -0.08477 0.29203 0.25432
 C584 C -0.11684 0.30057 0.25271
 C585 C -0.19974 0.38418 0.24569
 C586 C -0.20816 0.41648 0.24390
 C587 C -0.18471 0.44004 0.24374
 C588 C -0.15265 0.43148 0.24536
 C589 C -0.18320 0.31736 0.24934
 C590 C -0.20355 0.29692 0.24944
 C591 C -0.08634 0.41466 0.24863
 C592 C -0.06600 0.43510 0.24848
 H593 H -0.05066 0.36532 0.25224
 H594 H -0.03644 0.30883 0.25538
 H595 H -0.07810 0.26698 0.25573
 H596 H -0.13421 0.28137 0.25294
 H597 H -0.21885 0.36674 0.24574
 H598 H -0.23303 0.42325 0.24264
 H599 H -0.19137 0.46509 0.24236
 H600 H -0.13528 0.45067 0.24516
 C601 C 0.10987 0.38978 0.75144
 C602 C 0.14238 0.39874 0.75324
 C603 C 0.16645 0.37474 0.75310
 C604 C 0.15787 0.34193 0.75115
 C605 C 0.12535 0.33298 0.74936
 C606 C 0.10129 0.35697 0.74952
 C607 C 0.06895 0.34744 0.74772
 C608 C 0.06062 0.31513 0.74582
 C609 C 0.08415 0.29167 0.74566
 C610 C 0.11618 0.30035 0.74741
 C611 C 0.19877 0.38430 0.75494
 C612 C 0.20708 0.41662 0.75684
 C613 C 0.18355 0.44008 0.75697
 C614 C 0.15153 0.43138 0.75520
 C615 C 0.18247 0.31741 0.75097
 C616 C 0.20289 0.29707 0.75084
 C617 C 0.08529 0.41429 0.75155
 C618 C 0.06491 0.43465 0.75163
 H619 H 0.04978 0.36480 0.74777
 H620 H 0.03577 0.30826 0.74447
 H621 H 0.07756 0.26660 0.74418
 H622 H 0.13361 0.28122 0.74720
 H623 H 0.21794 0.36694 0.75492
 H624 H 0.23192 0.42350 0.75823
 H625 H 0.19013 0.46516 0.75845
 H626 H 0.13410 0.45050 0.75538
 C627 C 0.11079 0.61170 0.24742
 C628 C 0.14323 0.60251 0.24578
 C629 C 0.16749 0.62634 0.24579
 C630 C 0.15916 0.65923 0.24746
 C631 C 0.12670 0.66841 0.24907
 C632 C 0.10245 0.64458 0.24904
 C633 C 0.07018 0.65435 0.25065
 C634 C 0.06209 0.68673 0.25226
 C635 C 0.08580 0.71003 0.25230
 C636 C 0.11777 0.70112 0.25073
 C637 C 0.19975 0.61656 0.24413
 C638 C 0.20782 0.58417 0.24250
 C639 C 0.18411 0.56087 0.24250
 C640 C 0.15215 0.56979 0.24411
 C641 C 0.18395 0.68358 0.24761
 C642 C 0.20451 0.70380 0.24777
 C643 C 0.08603 0.58735 0.24751
 C644 C 0.06552 0.56709 0.24761
 H645 H 0.05088 0.63711 0.25069
 H646 H 0.03729 0.69377 0.25348
 H647 H 0.07940 0.73516 0.25356
 H648 H 0.13535 0.72013 0.25083
 H649 H 0.21905 0.63379 0.24406
 H650 H 0.23261 0.57711 0.24124
 H651 H 0.19049 0.53573 0.24124
 H652 H 0.13457 0.55079 0.24403
 C653 C 0.74833 -0.11128 0.61066
 C654 C 0.74980 -0.14414 0.60221
 C655 C 0.74980 -0.16805 0.62637
 C656 C 0.74830 -0.15896 0.65884
 C657 C 0.74678 -0.12609 0.66727
 C658 C 0.74680 -0.10219 0.64311
 C659 C 0.74528 -0.06949 0.65213
 C660 C 0.74378 -0.06066 0.68410
 C661 C 0.74375 -0.08403 0.70772
 C662 C 0.74523 -0.11641 0.69954
 C663 C 0.75131 -0.20073 0.61733
 C664 C 0.75277 -0.20954 0.58535
 C665 C 0.75277 -0.18617 0.56174
 C666 C 0.75130 -0.15380 0.56993
 C667 C 0.74839 -0.18339 0.68352
 C668 C 0.74850 -0.20368 0.70401
 C669 C 0.74844 -0.08685 0.58600
 C670 C 0.74857 -0.06653 0.56556
 H671 H 0.74523 -0.05043 0.63463
 H672 H 0.74263 -0.03554 0.69057
 H673 H 0.74258 -0.07705 0.73252
 H674 H 0.74514 -0.13370 0.71877
 H675 H 0.75137 -0.21980 0.63483
 H676 H 0.75391 -0.23465 0.57887
 H677 H 0.75390 -0.19313 0.53693
 H678 H 0.75136 -0.13651 0.55070
 C679 C 0.25164 -0.11146 0.38906
 C680 C 0.25027 -0.14433 0.39750
 C681 C 0.25019 -0.16821 0.37333
 C682 C 0.25149 -0.15908 0.34087
 C683 C 0.25290 -0.12620 0.33244
 C684 C 0.25296 -0.10232 0.35661
 C685 C 0.25435 -0.06961 0.34760
 C686 C 0.25565 -0.06073 0.31563
 C687 C 0.25560 -0.08407 0.29200
 C688 C 0.25424 -0.11646 0.30016
 C689 C 0.24879 -0.20091 0.38236
 C690 C 0.24752 -0.20977 0.41434
 C691 C 0.24761 -0.18643 0.43797
 C692 C 0.24896 -0.15405 0.42979
 C693 C 0.25135 -0.18348 0.31617
 C694 C 0.25120 -0.20374 0.29567
 C695 C 0.25163 -0.08707 0.41374
 C696 C 0.25161 -0.06677 0.43419
 H697 H 0.25445 -0.05057 0.36511
 H698 H 0.25670 -0.03560 0.30917
 H699 H 0.25661 -0.07706 0.26719
 H700 H 0.25426 -0.13373 0.28093
 H701 H 0.24867 -0.21995 0.36485
 H702 H 0.24646 -0.23489 0.42082
 H703 H 0.24662 -0.19343 0.46278
 H704 H 0.24897 -0.13678 0.44902
 C705 C 0.74995 0.11057 0.38940
 C706 C 0.75151 0.14335 0.39811
 C707 C 0.75170 0.16745 0.37413
 C708 C 0.75031 0.15862 0.34160
 C709 C 0.74877 0.12582 0.33290
 C710 C 0.74860 0.10172 0.35688
 C711 C 0.74706 0.06910 0.34761
 C712 C 0.74572 0.06052 0.31557
 C713 C 0.74588 0.08407 0.29213
 C714 C 0.74739 0.11638 0.30055
 C715 C 0.75328 0.20006 0.38342
 C716 C 0.75462 0.20862 0.41547
 C717 C 0.75443 0.18506 0.43891
 C718 C 0.75290 0.15277 0.43047
 C719 C 0.75044 0.18324 0.31710
 C720 C 0.75052 0.20367 0.29675
 C721 C 0.74974 0.08596 0.41389
 C722 C 0.74957 0.06552 0.43421
 H723 H 0.74687 0.04990 0.36497
 H724 H 0.74455 0.03545 0.30890
 H725 H 0.74484 0.07729 0.26727
 H726 H 0.74745 0.13382 0.28145
 H727 H 0.75349 0.21926 0.36607
 H728 H 0.75582 0.23368 0.42215
 H729 H 0.75548 0.19183 0.46378
 H730 H 0.75281 0.13532 0.44956
 C731 C 0.25100 0.11012 0.61040
 C732 C 0.25261 0.10117 0.64290
 C733 C 0.25247 0.12517 0.66694
 C734 C 0.25071 0.15799 0.65835
 C735 C 0.24910 0.16693 0.62584
 C736 C 0.24925 0.14293 0.60180
 C737 C 0.24763 0.15245 0.56947
 C738 C 0.24591 0.18476 0.56113
 C739 C 0.24574 0.20824 0.58463
 C740 C 0.24732 0.19957 0.61665
 C741 C 0.25411 0.11563 0.69925
 C742 C 0.25583 0.08330 0.70758
 C743 C 0.25596 0.05983 0.68408
 C744 C 0.25438 0.06852 0.65207
 C745 C 0.25055 0.18253 0.68291
 C746 C 0.25043 0.20288 0.70331
 C747 C 0.25112 0.08559 0.58585
 C748 C 0.25121 0.06521 0.56550
 H749 H 0.24769 0.13507 0.55033
 H750 H 0.24469 0.19162 0.53629
 H751 H 0.24440 0.23331 0.57803
 H752 H 0.24712 0.21870 0.63406
 H753 H 0.25409 0.13300 0.71840
 H754 H 0.25707 0.07644 0.73241
 H755 H 0.25730 0.03475 0.69066
 H756 H 0.25455 0.04939 0.63466
   
