data_POSCAR
  _audit_creation_date              2014-09-24
  _audit_creation_method            'ToBaCCo'
  _symmetry_space_group_name_H-M    'P1'
  _symmetry_Int_Tables_number       1
  _symmetry_cell_setting            triclinic
  loop_
  _symmetry_equiv_pos_as_xyz
 x,y,z
_cell_length_a 39.2564
_cell_length_b 39.2119
_cell_length_c 39.2839
_cell_angle_alpha 89.951000
_cell_angle_beta 90.007800
_cell_angle_gamma 89.959700
loop_
  _atom_site_label
  _atom_site_type_symbol
  _atom_site_fract_x
  _atom_site_fract_y
  _atom_site_fract_z
O1 O 0.21704 1.02894 0.46334
 O2 O 0.22389 0.96213 0.52902
 O3 O 0.21890 1.02828 0.53004
 O4 O 0.22170 0.96289 0.46276
 O5 O 0.27771 0.96712 0.46114
 O6 O 0.27484 1.03252 0.52842
 O7 O 0.27990 0.96626 0.52724
 O8 O 0.27306 1.03355 0.46229
 Cu9 Cu 0.21477 0.99523 0.49647
 Cu10 Cu 0.28197 1.00031 0.49460
 C11 C 0.24391 1.04260 0.45155
 C12 C 0.25311 0.95266 0.53926
 C13 C 0.24637 1.04157 0.54093
 C14 C 0.25022 0.95375 0.45048
 O15 O 0.77706 -0.02578 0.47173
 O16 O 0.77411 0.03870 0.53972
 O17 O 0.77935 -0.02762 0.53847
 O18 O 0.77250 0.04048 0.47447
 O19 O 0.71648 0.03517 0.47481
 O20 O 0.72342 -0.03199 0.54032
 O21 O 0.71806 0.03397 0.54158
 O22 O 0.72116 -0.03115 0.47431
 Cu23 Cu 0.78141 0.00665 0.50593
 Cu24 Cu 0.71414 0.00111 0.50786
 C25 C 0.74962 -0.03950 0.46144
 C26 C 0.74553 0.04745 0.55207
 C27 C 0.75266 -0.04132 0.55069
 C28 C 0.74335 0.04952 0.46384
 O29 O 0.22441 0.46331 0.96031
 O30 O 0.21947 0.52885 1.02716
 O31 O 0.22318 0.52901 0.96043
 O32 O 0.22112 0.46240 1.02647
 O33 O 0.27697 0.46547 1.03130
 O34 O 0.27940 0.52968 0.96300
 O35 O 0.27565 0.53180 1.02856
 O36 O 0.28048 0.46282 0.96511
 Cu37 Cu 0.21639 0.49585 0.99339
 Cu38 Cu 0.28378 0.49749 0.99726
 C39 C 0.25328 0.45167 0.95157
 C40 C 0.24669 0.54178 1.03894
 C41 C 0.25168 0.54042 0.95023
 C42 C 0.24867 0.45264 1.04045
 O43 O 0.46346 0.22114 1.03377
 O44 O 0.53305 0.22352 0.97134
 O45 O 0.53025 0.22332 1.03695
 O46 O 0.46675 0.22257 0.96762
 O47 O 0.46537 0.27880 0.96848
 O48 O 0.52817 0.27948 1.03803
 O49 O 0.53152 0.27981 0.97153
 O50 O 0.46227 0.27741 1.03492
 Cu51 Cu 0.49842 0.21700 1.00242
 Cu52 Cu 0.49667 0.28450 1.00329
 C53 C 0.45100 0.24879 1.04507
 C54 C 0.54423 0.25200 0.96080
 C55 C 0.54025 0.25158 1.04930
 C56 C 0.45531 0.25064 0.95609
 O57 O 0.47191 0.77720 -0.03427
 O58 O 0.53612 0.77869 0.03341
 O59 O 0.53828 0.77737 -0.03247
 O60 O 0.46958 0.77618 0.03210
 O61 O 0.47064 0.71994 0.03175
 O62 O 0.53911 0.72119 -0.03183
 O63 O 0.53672 0.72240 0.03454
 O64 O 0.47287 0.72096 -0.03460
 Cu65 Cu 0.50378 0.78298 -0.00030
 Cu66 Cu 0.50493 0.71551 -0.00002
 C67 C 0.46148 0.74902 -0.04622
 C68 C 0.54749 0.75093 0.04552
 C69 C 0.55056 0.74930 -0.04316
 C70 C 0.45840 0.74771 0.04296
 O71 O 1.02455 0.46787 0.21754
 O72 O 0.95879 0.53464 0.22204
 O73 O 1.02515 0.53488 0.21705
 O74 O 0.95837 0.46924 0.22182
 O75 O 0.96331 0.46829 0.27783
 O76 O 1.02937 0.53502 0.27299
 O77 O 0.96339 0.53518 0.27810
 O78 O 1.02954 0.46882 0.27350
 Cu79 Cu 0.99156 0.50168 0.21395
 Cu80 Cu 0.99679 0.50181 0.28123
 C81 C 1.03820 0.45686 0.24476
 C82 C 0.94970 0.54605 0.25087
 C83 C 1.03858 0.54648 0.24414
 C84 C 0.94933 0.45770 0.25062
 O85 O -0.02973 0.46732 0.77692
 O86 O 0.03834 0.53149 0.77719
 O87 O -0.02790 0.53355 0.77662
 O88 O 0.03683 0.46494 0.77625
 O89 O 0.03775 0.46659 0.72014
 O90 O -0.02886 0.53245 0.72055
 O91 O 0.03772 0.53277 0.72106
 O92 O -0.02807 0.46578 0.72073
 Cu93 Cu 0.00441 0.49928 0.78238
 Cu94 Cu 0.00456 0.49954 0.71500
 C95 C -0.04019 0.45529 0.74882
 C96 C 0.04956 0.54331 0.74926
 C97 C -0.03972 0.54457 0.74853
 C98 C 0.04850 0.45420 0.74800
 O99 O 0.46173 0.96834 0.21515
 O100 O 0.52650 1.03589 0.21850
 O101 O 0.52815 0.96976 0.21735
 O102 O 0.46023 1.03428 0.21595
 O103 O 0.45799 1.03333 0.27200
 O104 O 0.52669 0.96911 0.27348
 O105 O 0.52411 1.03557 0.27462
 O106 O 0.46048 0.96669 0.27131
 Cu107 Cu 0.49438 1.00213 0.21113
 Cu108 Cu 0.49210 1.00106 0.27850
 C109 C 0.45004 0.95597 0.24265
 C110 C 0.53631 1.04738 0.24709
 C111 C 0.53919 0.95848 0.24560
 C112 C 0.44732 1.04488 0.24366
 O113 O 1.03091 0.21907 0.53390
 O114 O 0.96168 0.22179 0.47013
 O115 O 1.02788 0.21898 0.46736
 O116 O 0.96483 0.21922 0.53614
 O117 O 0.96617 0.27544 0.53763
 O118 O 1.02919 0.27521 0.46770
 O119 O 0.96301 0.27801 0.47157
 O120 O 1.03265 0.27533 0.53374
 Cu121 Cu 0.99627 0.21414 0.50177
 Cu122 Cu 0.99790 0.28163 0.50278
 C123 C 1.04364 0.24689 0.54459
 C124 C 0.95040 0.25053 0.46012
 C125 C 1.03925 0.24688 0.45558
 C126 C 0.95461 0.24721 0.54868
 O127 O -0.02638 0.77800 0.53602
 O128 O 0.03546 0.77684 0.46522
 O129 O -0.03035 0.77961 0.46973
 O130 O 0.04010 0.77654 0.53104
 O131 O 0.03604 0.72039 0.53316
 O132 O -0.03109 0.72340 0.46747
 O133 O 0.03547 0.72056 0.46677
 O134 O -0.03020 0.72190 0.53330
 Cu135 Cu 0.00485 0.78341 0.50067
 Cu136 Cu 0.00243 0.71590 0.50009
 C137 C -0.03936 0.75010 0.54622
 C138 C 0.04642 0.74837 0.45432
 C139 C -0.04252 0.75215 0.45774
 C140 C 0.04992 0.74802 0.54276
 O141 O 0.78217 0.47174 1.04034
 O142 O 0.78195 0.53871 0.97458
 O143 O 0.77942 0.53818 1.04079
 O144 O 0.78451 0.47215 0.97433
 O145 O 0.72839 0.46967 0.97267
 O146 O 0.72332 0.53622 1.03822
 O147 O 0.72588 0.53565 0.97173
 O148 O 0.72603 0.46994 1.03865
 Cu149 Cu 0.78766 0.50549 1.00772
 Cu150 Cu 0.72027 0.50275 1.00516
 C151 C 0.75414 0.45932 1.05070
 C152 C 0.75388 0.54836 0.96168
 C153 C 0.75045 0.54848 1.05089
 C154 C 0.75728 0.45947 0.96229
 O155 O 0.46862 1.03039 0.77456
 O156 O 0.53776 0.96719 0.77710
 O157 O 0.53503 1.03407 0.77692
 O158 O 0.47172 0.96467 0.77343
 O159 O 0.47570 0.96440 0.71737
 O160 O 0.53674 1.03520 0.72080
 O161 O 0.54197 0.96944 0.72107
 O162 O 0.47119 1.03119 0.71851
 Cu163 Cu 0.50316 0.99904 0.78116
 Cu164 Cu 0.50655 0.99998 0.71380
 C165 C 0.45792 1.04163 0.74616
 C166 C 0.55177 0.95768 0.74958
 C167 C 0.54641 1.04676 0.74936
 C168 C 0.46304 0.95262 0.74471
 C169 C 0.23998 0.22197 0.27041
 C170 C 0.21469 0.24760 0.27034
 C171 C 0.21514 0.27329 0.24516
 C172 C 0.24093 0.27347 0.22008
 C173 C 0.26609 0.24771 0.22009
 C174 C 0.26560 0.22189 0.24519
 C175 C 0.74716 0.78046 0.28130
 C176 C 0.72215 0.78042 0.25553
 C177 C 0.72168 0.75405 0.23116
 C178 C 0.74601 0.72756 0.23261
 C179 C 0.77120 0.72753 0.25839
 C180 C 0.77187 0.75422 0.28264
 C181 C 0.74933 0.22769 0.73175
 C182 C 0.72410 0.22954 0.75743
 C183 C 0.72649 0.25447 0.78319
 C184 C 0.75353 0.27818 0.78298
 C185 C 0.77833 0.27704 0.75687
 C186 C 0.77640 0.25155 0.73141
 C187 C 0.26129 0.76882 0.71660
 C188 C 0.23521 0.74392 0.71717
 C189 C 0.23484 0.71894 0.74324
 C190 C 0.26073 0.71859 0.76840
 C191 C 0.28640 0.74386 0.76800
 C192 C 0.28673 0.76876 0.74201
 C193 C 0.22512 0.24364 0.72344
 C194 C 0.24990 0.21755 0.72359
 C195 C 0.27579 0.21753 0.74850
 C196 C 0.27675 0.24337 0.77355
 C197 C 0.25139 0.26915 0.77394
 C198 C 0.22570 0.26941 0.74859
 C199 C 0.78487 0.75422 0.73054
 C200 C 0.76025 0.78051 0.73150
 C201 C 0.73490 0.78058 0.75719
 C202 C 0.73442 0.75420 0.78188
 C203 C 0.75948 0.72822 0.78102
 C204 C 0.78456 0.72809 0.75528
 C205 C 0.22082 0.74954 0.26862
 C206 C 0.21953 0.72456 0.24270
 C207 C 0.24520 0.72362 0.21730
 C208 C 0.27131 0.74856 0.21727
 C209 C 0.27159 0.77426 0.24247
 C210 C 0.24678 0.77441 0.26847
 C211 C 0.76595 0.25432 0.28353
 C212 C 0.74006 0.22912 0.28326
 C213 C 0.71582 0.22869 0.25657
 C214 C 0.71738 0.25333 0.23035
 C215 C 0.74325 0.27831 0.23053
 C216 C 0.76742 0.27909 0.25728
 C217 C 0.23819 0.11815 0.37345
 C218 C 0.21078 0.09568 0.37821
 C219 C 0.21235 0.07133 0.40411
 C220 C 0.24134 0.06903 0.42488
 C221 C 0.26808 0.09213 0.41939
 N222 N 0.26575 0.11596 0.39435
 C223 C 0.23772 0.14439 0.34653
 N224 N 0.25251 0.17520 0.35265
 C225 C 0.25327 0.20035 0.32883
 C226 C 0.23922 0.19479 0.29657
 C227 C 0.22434 0.16318 0.28942
 C228 C 0.22329 0.13794 0.31445
 H229 H 0.19116 0.05400 0.40756
 H230 H 0.29073 0.09140 0.43509
 H231 H 0.26504 0.22454 0.33493
 H232 H 0.21347 0.15822 0.26458
 H233 H 0.18822 0.09721 0.36243
 H234 H 0.21200 0.11348 0.30856
 C235 C 0.75112 0.88589 0.38241
 C236 C 0.77845 0.90876 0.38547
 C237 C 0.77823 0.93292 0.41155
 C238 C 0.75066 0.93462 0.43419
 C239 C 0.72390 0.91123 0.43027
 N240 N 0.72493 0.88759 0.40503
 C241 C 0.75043 0.85949 0.35572
 N242 N 0.73657 0.82850 0.36298
 C243 C 0.73521 0.80300 0.33962
 C244 C 0.74779 0.80832 0.30671
 C245 C 0.76146 0.84019 0.29834
 C246 C 0.76308 0.86583 0.32288
 H247 H 0.79940 0.95048 0.41378
 H248 H 0.70233 0.91151 0.44743
 H249 H 0.72433 0.77863 0.34665
 H250 H 0.77117 0.84498 0.27298
 H251 H 0.79999 0.90761 0.36830
 H252 H 0.77358 0.89043 0.31610
 C253 C 0.74372 0.12307 0.62967
 C254 C 0.72082 0.09570 0.63140
 C255 C 0.72088 0.07122 0.60563
 C256 C 0.74433 0.07361 0.57884
 C257 C 0.76688 0.10134 0.57813
 N258 N 0.76579 0.12532 0.60306
 C259 C 0.74444 0.14935 0.65627
 N260 N 0.74422 0.18286 0.64725
 C261 C 0.74527 0.20820 0.67082
 C262 C 0.74765 0.20027 0.70558
 C263 C 0.74852 0.16585 0.71527
 C264 C 0.74638 0.14031 0.69072
 H265 H 0.70314 0.05011 0.60694
 H266 H 0.78506 0.10411 0.55760
 H267 H 0.74440 0.23450 0.66247
 H268 H 0.75093 0.15883 0.74182
 H269 H 0.70289 0.09356 0.65225
 H270 H 0.74709 0.11379 0.69843
 C271 C 0.26080 0.87367 0.61402
 C272 C 0.29048 0.88627 0.59852
 C273 C 0.28798 0.91212 0.57423
 C274 C 0.25605 0.92550 0.56528
 C275 C 0.22704 0.91247 0.58164
 N276 N 0.23013 0.88736 0.60534
 C277 C 0.26195 0.84641 0.64005
 N278 N 0.23667 0.84478 0.66375
 C279 C 0.23599 0.82040 0.68836
 C280 C 0.26167 0.79561 0.68983
 C281 C 0.28765 0.79639 0.66543
 C282 C 0.28794 0.82174 0.64052
 H283 H 0.31106 0.92157 0.56244
 H284 H 0.20193 0.92222 0.57571
 H285 H 0.21549 0.82034 0.70678
 H286 H 0.30748 0.77718 0.66555
 H287 H 0.31544 0.87681 0.60541
 H288 H 0.30789 0.82147 0.62154
 C289 C 0.37029 0.24611 0.11773
 C290 C 0.37488 0.21845 0.09556
 C291 C 0.40148 0.21917 0.07202
 C292 C 0.42306 0.24760 0.07015
 C293 C 0.41754 0.27477 0.09272
 N294 N 0.39186 0.27321 0.11589
 C295 C 0.34299 0.24609 0.14346
 N296 N 0.34937 0.25920 0.17491
 C297 C 0.32530 0.25976 0.19977
 C298 C 0.29255 0.24725 0.19324
 C299 C 0.28516 0.23421 0.16093
 C300 C 0.31044 0.23330 0.13600
 H301 H 0.40495 0.19768 0.05505
 H302 H 0.43387 0.29699 0.09227
 H303 H 0.33158 0.27013 0.22451
 H304 H 0.25996 0.22456 0.15522
 H305 H 0.35850 0.19629 0.09683
 H306 H 0.30445 0.22328 0.11104
 C307 C 0.38674 0.74954 0.87456
 C308 C 0.39769 0.78045 0.88884
 C309 C 0.42206 0.78017 0.91459
 C310 C 0.43581 0.74923 0.92619
 C311 C 0.42465 0.71887 0.91085
 N312 N 0.40079 0.71979 0.88572
 C313 C 0.36059 0.74864 0.84746
 N314 N 0.36066 0.72250 0.82461
 C315 C 0.33740 0.72038 0.79901
 C316 C 0.31217 0.74544 0.79561
 C317 C 0.31118 0.77216 0.81916
 C318 C 0.33528 0.77389 0.84510
 H319 H 0.43014 0.80425 0.92538
 H320 H 0.43480 0.69447 0.91881
 H321 H 0.33858 0.69925 0.78133
 H322 H 0.29152 0.79149 0.81760
 H323 H 0.38801 0.80472 0.87997
 H324 H 0.33356 0.79441 0.86340
 C325 C 0.62315 0.75435 0.12335
 C326 C 0.61973 0.78188 0.10082
 C327 C 0.59483 0.78079 0.07558
 C328 C 0.57371 0.75213 0.07239
 C329 C 0.57800 0.72506 0.09537
 N330 N 0.60209 0.72696 0.12021
 C331 C 0.64887 0.75483 0.15066
 N332 N 0.64078 0.74207 0.18188
 C333 C 0.66342 0.74207 0.20808
 C334 C 0.69638 0.75477 0.20321
 C335 C 0.70545 0.76756 0.17123
 C336 C 0.68165 0.76790 0.14491
 H337 H 0.59229 0.80223 0.05835
 H338 H 0.56197 0.70266 0.09390
 H339 H 0.65589 0.73182 0.23254
 H340 H 0.73089 0.77727 0.16677
 H341 H 0.63573 0.80425 0.10307
 H342 H 0.68898 0.77766 0.12018
 C343 C 0.62512 0.25350 0.88833
 C344 C 0.62127 0.22524 0.90988
 C345 C 0.59475 0.22474 0.93345
 C346 C 0.57240 0.25254 0.93596
 C347 C 0.57725 0.28045 0.91411
 N348 N 0.60292 0.28008 0.89085
 C349 C 0.65202 0.25435 0.86219
 N350 N 0.64500 0.26802 0.83109
 C351 C 0.66840 0.26852 0.80559
 C352 C 0.70102 0.25511 0.81100
 C353 C 0.70913 0.24167 0.84299
 C354 C 0.68461 0.24104 0.86865
 H355 H 0.59183 0.20271 0.94984
 H356 H 0.56033 0.30224 0.91510
 H357 H 0.66159 0.27925 0.78112
 H358 H 0.73425 0.23130 0.84785
 H359 H 0.63808 0.20341 0.90801
 H360 H 0.69112 0.23054 0.89330
 C361 C 0.11243 0.37737 0.24177
 C362 C 0.08995 0.38147 0.21427
 C363 C 0.06603 0.40781 0.21493
 C364 C 0.06418 0.42969 0.24309
 C365 C 0.08728 0.42484 0.26995
 N366 N 0.11068 0.39933 0.26851
 C367 C 0.13825 0.35005 0.24218
 N368 N 0.16922 0.35628 0.25650
 C369 C 0.19411 0.33219 0.25773
 C370 C 0.18811 0.29960 0.24455
 C371 C 0.15625 0.29230 0.23036
 C372 C 0.13127 0.31757 0.22888
 H373 H 0.04869 0.41076 0.19368
 H374 H 0.08688 0.44140 0.29198
 H375 H 0.21849 0.33839 0.26901
 H376 H 0.15094 0.26719 0.22019
 H377 H 0.09115 0.36484 0.19232
 H378 H 0.10665 0.31159 0.21802
 C379 C 0.88420 0.37774 0.75112
 C380 C 0.91070 0.37555 0.72732
 C381 C 0.93510 0.40138 0.72597
 C382 C 0.93350 0.42866 0.74895
 C383 C 0.90669 0.42975 0.77251
 N384 N 0.88271 0.40478 0.77273
 C385 C 0.85770 0.35143 0.75280
 N386 N 0.82437 0.36084 0.75169
 C387 C 0.79878 0.33757 0.75284
 C388 C 0.80624 0.30271 0.75607
 C389 C 0.84046 0.29261 0.75811
 C390 C 0.86631 0.31688 0.75591
 H391 H 0.95555 0.39974 0.70754
 H392 H 0.90462 0.45061 0.79042
 H393 H 0.77265 0.34621 0.75110
 H394 H 0.84708 0.26597 0.76115
 H395 H 0.91218 0.35435 0.70971
 H396 H 0.89269 0.30891 0.75723
 C397 C 0.12754 0.61935 0.75015
 C398 C 0.11378 0.60772 0.78104
 C399 C 0.08835 0.58293 0.78071
 C400 C 0.07659 0.56956 0.74974
 C401 C 0.09129 0.58156 0.71944
 N402 N 0.11611 0.60571 0.72040
 C403 C 0.15464 0.64549 0.74909
 N404 N 0.17655 0.64596 0.72220
 C405 C 0.20217 0.66913 0.71965
 C406 C 0.20663 0.69376 0.74509
 C407 C 0.18406 0.69420 0.77267
 C408 C 0.15804 0.67016 0.77479
 H409 H 0.07798 0.57421 0.80472
 H410 H 0.08317 0.57176 0.69500
 H411 H 0.21917 0.66822 0.69798
 H412 H 0.18661 0.71323 0.79247
 H413 H 0.12287 0.61707 0.80528
 H414 H 0.14055 0.67137 0.79603
 C415 C 0.87181 0.62130 0.25635
 C416 C 0.86876 0.59456 0.23292
 C417 C 0.89453 0.57016 0.23081
 C418 C 0.92268 0.57196 0.25267
 C419 C 0.92455 0.59887 0.27609
 N420 N 0.89959 0.62293 0.27702
 C421 C 0.84572 0.64807 0.25821
 N422 N 0.85511 0.68133 0.25534
 C423 C 0.83186 0.70704 0.25558
 C424 C 0.79708 0.69979 0.25948
 C425 C 0.78705 0.66569 0.26335
 C426 C 0.81126 0.63970 0.26222
 H427 H 0.89228 0.54965 0.21249
 H428 H 0.94610 0.60110 0.29313
 H429 H 0.84046 0.73304 0.25226
 H430 H 0.76045 0.65925 0.26679
 H431 H 0.84700 0.59299 0.21604
 H432 H 0.80329 0.61338 0.26473
 C433 C 0.12335 0.24613 0.61850
 C434 C 0.11984 0.27414 0.59654
 C435 C 0.09376 0.27433 0.57246
 C436 C 0.07152 0.24648 0.56982
 C437 C 0.07602 0.21884 0.59210
 N438 N 0.10126 0.21950 0.61584
 C439 C 0.15007 0.24549 0.64490
 N440 N 0.14286 0.23224 0.67614
 C441 C 0.16628 0.23164 0.70167
 C442 C 0.19911 0.24442 0.69610
 C443 C 0.20735 0.25747 0.66399
 C444 C 0.18281 0.25832 0.63837
 H445 H 0.09110 0.29619 0.55579
 H446 H 0.05914 0.19704 0.59106
 H447 H 0.15940 0.22106 0.72618
 H448 H 0.23269 0.26714 0.65894
 H449 H 0.13659 0.29598 0.59845
 H450 H 0.18949 0.26842 0.61360
 C451 C 0.88423 0.75060 0.62346
 C452 C 0.88609 0.72320 0.60063
 C453 C 0.91128 0.72296 0.57565
 C454 C 0.93430 0.75017 0.57303
 C455 C 0.93160 0.77713 0.59636
 N456 N 0.90716 0.77653 0.62091
 C457 C 0.85817 0.75147 0.65045
 N458 N 0.86663 0.76327 0.68193
 C459 C 0.84376 0.76414 0.70793
 C460 C 0.81021 0.75327 0.70260
 C461 C 0.80074 0.74164 0.67031
 C462 C 0.82473 0.74045 0.64419
 H463 H 0.91252 0.70165 0.55816
 H464 H 0.94911 0.79842 0.59533
 H465 H 0.85163 0.77348 0.73262
 H466 H 0.77488 0.73332 0.66549
 H467 H 0.86861 0.70192 0.60242
 H468 H 0.81711 0.73151 0.61926
 C469 C 0.12197 0.74681 0.37621
 C470 C 0.11859 0.71866 0.39802
 C471 C 0.09362 0.71900 0.42326
 C472 C 0.07237 0.74751 0.42714
 C473 C 0.07652 0.77511 0.40474
 N474 N 0.10068 0.77397 0.37996
 C475 C 0.14790 0.74732 0.34906
 N476 N 0.14012 0.76149 0.31835
 C477 C 0.16289 0.76238 0.29227
 C478 C 0.19566 0.74898 0.29671
 C479 C 0.20450 0.73497 0.32826
 C480 C 0.18059 0.73383 0.35446
 H481 H 0.09120 0.69717 0.44000
 H482 H 0.06039 0.79742 0.40673
 H483 H 0.15553 0.77361 0.26818
 H484 H 0.22979 0.72469 0.33240
 H485 H 0.13473 0.69643 0.39528
 H486 H 0.18775 0.72302 0.37880
 C487 C 0.86927 0.25532 0.38751
 C488 C 0.88232 0.28555 0.40151
 C489 C 0.90871 0.28389 0.42520
 C490 C 0.92233 0.25227 0.43500
 C491 C 0.90877 0.22264 0.42023
 N492 N 0.88307 0.22491 0.39709
 C493 C 0.84177 0.25568 0.36171
 N494 N 0.83933 0.22913 0.33951
 C495 C 0.81523 0.22801 0.31468
 C496 C 0.79173 0.25471 0.31123
 C497 C 0.79320 0.28195 0.33419
 C498 C 0.81811 0.28254 0.35949
 H499 H 0.91853 0.30744 0.43570
 H500 H 0.91862 0.19774 0.42690
 H501 H 0.81461 0.20653 0.29741
 H502 H 0.77505 0.30270 0.33245
 H503 H 0.87294 0.31032 0.39383
 H504 H 0.81841 0.30359 0.37725
 C505 C 0.25577 0.37323 0.87676
 C506 C 0.27847 0.37174 0.90429
 C507 C 0.27836 0.39790 0.92840
 C508 C 0.25503 0.42481 0.92549
 C509 C 0.23274 0.42529 0.89758
 N510 N 0.23388 0.40000 0.87397
 C511 C 0.25501 0.34613 0.85095
 N512 N 0.25649 0.35454 0.81737
 C513 C 0.25559 0.33051 0.79245
 C514 C 0.25206 0.29590 0.80086
 C515 C 0.24988 0.28685 0.83534
 C516 C 0.25187 0.31185 0.86048
 H517 H 0.29586 0.39672 0.94969
 H518 H 0.21462 0.44588 0.89443
 H519 H 0.25774 0.33839 0.76614
 H520 H 0.24677 0.26042 0.84272
 H521 H 0.29623 0.35074 0.90688
 H522 H 0.25024 0.30462 0.88705
 C523 C 0.75334 0.37993 0.12540
 C524 C 0.78452 0.39101 0.11180
 C525 C 0.78484 0.41706 0.08757
 C526 C 0.75422 0.43210 0.07680
 C527 C 0.72364 0.42050 0.09127
 N528 N 0.72400 0.39522 0.11495
 C529 C 0.75141 0.35288 0.15156
 N530 N 0.72462 0.35289 0.17357
 C531 C 0.72121 0.32913 0.19852
 C532 C 0.74559 0.30330 0.20219
 C533 C 0.77310 0.30232 0.17954
 C534 C 0.77613 0.32704 0.15416
 H535 H 0.80903 0.42535 0.07724
 H536 H 0.69946 0.43152 0.08388
 H537 H 0.69989 0.33080 0.21589
 H538 H 0.79227 0.28256 0.18172
 H539 H 0.80849 0.38026 0.12016
 H540 H 0.79733 0.32559 0.13664
 C541 C 0.75470 0.62317 0.88271
 C542 C 0.72697 0.60079 0.88549
 C543 C 0.72648 0.57663 0.91158
 C544 C 0.75377 0.57440 0.93452
 C545 C 0.78100 0.59729 0.93088
 N546 N 0.78065 0.62101 0.90560
 C547 C 0.75598 0.64944 0.85588
 N548 N 0.76912 0.68070 0.86331
 C549 C 0.77057 0.70614 0.83981
 C550 C 0.75884 0.70047 0.80664
 C551 C 0.74598 0.66830 0.79814
 C552 C 0.74425 0.64275 0.82279
 H553 H 0.70498 0.55945 0.91356
 H554 H 0.80238 0.59657 0.94827
 H555 H 0.78083 0.73072 0.84695
 H556 H 0.73693 0.66323 0.77259
 H557 H 0.70565 0.60231 0.86807
 H558 H 0.73429 0.61795 0.81594
 C559 C 0.24329 0.61854 0.11543
 C560 C 0.21959 0.59183 0.11638
 C561 C 0.22010 0.56709 0.09085
 C562 C 0.24478 0.56854 0.06511
 C563 C 0.26808 0.59565 0.06515
 N564 N 0.26656 0.61993 0.08980
 C565 C 0.24356 0.64497 0.14191
 N566 N 0.24317 0.67845 0.13279
 C567 C 0.24343 0.70388 0.15631
 C568 C 0.24502 0.69609 0.19115
 C569 C 0.24622 0.66170 0.20095
 C570 C 0.24493 0.63606 0.17642
 H571 H 0.20179 0.54645 0.09161
 H572 H 0.28727 0.59767 0.04546
 H573 H 0.24232 0.73013 0.14785
 H574 H 0.24806 0.65477 0.22757
 H575 H 0.20075 0.59037 0.13647
 H576 H 0.24571 0.60957 0.18422
 C577 C 0.37953 0.11460 0.74536
 C578 C 0.39688 0.10732 0.71509
 C579 C 0.42244 0.08254 0.71506
 C580 C 0.43151 0.06579 0.74544
 C581 C 0.41353 0.07425 0.77529
 N582 N 0.38816 0.09781 0.77442
 C583 C 0.35240 0.14051 0.74623
 N584 N 0.35607 0.17001 0.72828
 C585 C 0.33211 0.19503 0.72897
 C586 C 0.30226 0.19065 0.74797
 C587 C 0.29769 0.16035 0.76623
 C588 C 0.32302 0.13539 0.76588
 H589 H 0.43549 0.07706 0.69139
 H590 H 0.41929 0.06195 0.79930
 H591 H 0.33622 0.21822 0.71458
 H592 H 0.27471 0.15624 0.78091
 H593 H 0.39039 0.12033 0.69163
 H594 H 0.31952 0.11211 0.78031
 C595 C 0.37337 0.87905 0.23956
 C596 C 0.37737 0.90108 0.21170
 C597 C 0.40278 0.92589 0.21251
 C598 C 0.42379 0.92912 0.24120
 C599 C 0.41904 0.90648 0.26848
 N600 N 0.39446 0.88212 0.26688
 C601 C 0.34686 0.85249 0.23971
 N602 N 0.35396 0.82136 0.25339
 C603 C 0.33049 0.79589 0.25424
 C604 C 0.29767 0.80149 0.24144
 C605 C 0.28958 0.83344 0.22780
 C606 C 0.31422 0.85898 0.22661
 H607 H 0.40567 0.94286 0.19093
 H608 H 0.43499 0.90798 0.29091
 H609 H 0.33728 0.77144 0.26511
 H610 H 0.26428 0.83844 0.21797
 H611 H 0.36134 0.89886 0.18939
 H612 H 0.30765 0.88369 0.21619
 C613 C 0.61181 0.12564 0.25119
 C614 C 0.60675 0.10755 0.22081
 C615 C 0.58188 0.08224 0.21937
 C616 C 0.56230 0.07457 0.24824
 C617 C 0.56818 0.09320 0.27819
 N618 N 0.59235 0.11801 0.27887
 C619 C 0.63822 0.15241 0.25343
 N620 N 0.66384 0.15314 0.23007
 C621 C 0.68882 0.17703 0.23081
 C622 C 0.68867 0.20238 0.25590
 C623 C 0.66272 0.20217 0.28036
 C624 C 0.63752 0.17707 0.27934
 H625 H 0.57822 0.06845 0.19578
 H626 H 0.55351 0.08819 0.30097
 H627 H 0.70889 0.17614 0.21196
 H628 H 0.66204 0.22140 0.30012
 H629 H 0.62169 0.11304 0.19830
 H630 H 0.61752 0.17720 0.29832
 C631 C 0.63199 0.88471 0.75369
 C632 C 0.63413 0.91181 0.73050
 C633 C 0.60763 0.93550 0.72875
 C634 C 0.57967 0.93264 0.75075
 C635 C 0.57873 0.90539 0.77388
 N636 N 0.60437 0.88207 0.77445
 C637 C 0.65879 0.85860 0.75532
 N638 N 0.65011 0.82510 0.75315
 C639 C 0.67387 0.79988 0.75381
 C640 C 0.70851 0.80788 0.75760
 C641 C 0.71784 0.84226 0.76065
 C642 C 0.69309 0.86775 0.75901
 H643 H 0.60915 0.95627 0.71062
 H644 H 0.55736 0.90230 0.79101
 H645 H 0.66579 0.77366 0.75102
 H646 H 0.74431 0.84931 0.76391
 H647 H 0.65574 0.91420 0.71353
 H648 H 0.70052 0.89426 0.76104
 C649 C 0.76023 0.88366 0.62707
 C650 C 0.78997 0.89854 0.61391
 C651 C 0.78752 0.92325 0.58845
 C652 C 0.75549 0.93332 0.57587
 C653 C 0.72639 0.91734 0.58945
 N654 N 0.72950 0.89327 0.61420
 C655 C 0.76130 0.85741 0.65416
 N656 N 0.73527 0.83455 0.65649
 C657 C 0.73441 0.80987 0.68081
 C658 C 0.76068 0.80746 0.70484
 C659 C 0.78747 0.83096 0.70332
 C660 C 0.78793 0.85595 0.67805
 H661 H 0.81078 0.93445 0.57872
 H662 H 0.70113 0.92392 0.58055
 H663 H 0.71331 0.79212 0.68140
 H664 H 0.80785 0.83006 0.72189
 H665 H 0.81496 0.89090 0.62269
 H666 H 0.80852 0.87425 0.67779
 C667 C 0.24550 0.37735 0.11672
 C668 C 0.27651 0.39327 0.10899
 C669 C 0.27768 0.41808 0.08354
 C670 C 0.24787 0.42760 0.06604
 C671 C 0.21724 0.41118 0.07492
 N672 N 0.21691 0.38673 0.09946
 C673 C 0.24355 0.35062 0.14322
 N674 N 0.26797 0.34886 0.16782
 C675 C 0.26738 0.32478 0.19270
 C676 C 0.24136 0.30037 0.19346
 C677 C 0.21605 0.30152 0.16836
 C678 C 0.21685 0.32682 0.14339
 H679 H 0.30195 0.42990 0.07779
 H680 H 0.19357 0.41744 0.06221
 H681 H 0.28723 0.32460 0.21182
 H682 H 0.19585 0.28273 0.16804
 H683 H 0.29974 0.38630 0.12216
 H684 H 0.19716 0.32739 0.12409
 C685 C 0.24416 0.11457 0.61948
 C686 C 0.21369 0.09921 0.60883
 C687 C 0.21432 0.07521 0.58261
 C688 C 0.24528 0.06616 0.56697
 C689 C 0.27516 0.08243 0.57833
 N690 N 0.27380 0.10596 0.60370
 C691 C 0.24489 0.14047 0.64683
 N692 N 0.26917 0.16526 0.64590
 C693 C 0.27135 0.18992 0.67012
 C694 C 0.24851 0.19019 0.69750
 C695 C 0.22356 0.16477 0.69930
 C696 C 0.22159 0.13988 0.67400
 H697 H 0.19051 0.06369 0.57475
 H698 H 0.29965 0.07664 0.56704
 H699 H 0.29066 0.20946 0.66785
 H700 H 0.20562 0.16432 0.72024
 H701 H 0.18950 0.10606 0.62015
 H702 H 0.20245 0.12015 0.67605
 C703 C 0.25271 0.87647 0.37361
 C704 C 0.28331 0.88759 0.38846
 C705 C 0.28254 0.91294 0.41338
 C706 C 0.25142 0.92722 0.42367
 C707 C 0.22145 0.91564 0.40794
 N708 N 0.22286 0.89106 0.38357
 C709 C 0.25205 0.84979 0.34697
 N710 N 0.22637 0.84996 0.32363
 C711 C 0.22414 0.82625 0.29847
 C712 C 0.24854 0.80029 0.29604
 C713 C 0.27483 0.79916 0.32010
 C714 C 0.27676 0.82387 0.34555
 H715 H 0.30629 0.92125 0.42466
 H716 H 0.19692 0.92614 0.41488
 H717 H 0.20347 0.82774 0.28028
 H718 H 0.29374 0.77906 0.31918
 H719 H 0.30765 0.87733 0.38059
 H720 H 0.29697 0.82221 0.36420
 C721 C 0.73796 0.12869 0.38983
 C722 C 0.76058 0.13175 0.41724
 C723 C 0.76238 0.10573 0.44138
 C724 C 0.74098 0.07726 0.43871
 C725 C 0.71817 0.07547 0.41130
 N726 N 0.71761 0.10068 0.38746
 C727 C 0.73702 0.15479 0.36297
 N728 N 0.74029 0.14522 0.32985
 C729 C 0.74123 0.16840 0.30411
 C730 C 0.73822 0.20337 0.31112
 C731 C 0.73396 0.21363 0.34505
 C732 C 0.73385 0.18944 0.37110
 H733 H 0.78028 0.10790 0.46226
 H734 H 0.70152 0.05367 0.40837
 H735 H 0.74471 0.15960 0.27824
 H736 H 0.73111 0.24036 0.35133
 H737 H 0.77729 0.15362 0.41942
 H738 H 0.73106 0.19761 0.39728
 C739 C 0.62833 0.74894 0.88303
 C740 C 0.61514 0.71795 0.89505
 C741 C 0.58954 0.71812 0.91962
 C742 C 0.57677 0.74910 0.93242
 C743 C 0.59111 0.77959 0.92000
 N744 N 0.61622 0.77872 0.89611
 C745 C 0.65526 0.74981 0.85667
 N746 N 0.67838 0.77574 0.85663
 C747 C 0.70387 0.77770 0.83320
 C748 C 0.70686 0.75272 0.80785
 C749 C 0.68290 0.72631 0.80693
 C750 C 0.65719 0.72467 0.83130
 H751 H 0.57974 0.69385 0.92845
 H752 H 0.58246 0.80413 0.92920
 H753 H 0.72179 0.79863 0.83435
 H754 H 0.68398 0.70714 0.78714
 H755 H 0.62477 0.69374 0.88600
 H756 H 0.63867 0.70430 0.82981
 C757 C 0.11162 0.24489 0.37422
 C758 C 0.09584 0.21452 0.38467
 C759 C 0.07229 0.21525 0.41120
 C760 C 0.06431 0.24610 0.42745
 C761 C 0.08082 0.27588 0.41641
 N762 N 0.10387 0.27451 0.39058
 C763 C 0.13722 0.24530 0.34661
 N764 N 0.16209 0.26952 0.34700
 C765 C 0.18684 0.27093 0.32283
 C766 C 0.18731 0.24708 0.29632
 C767 C 0.16158 0.22247 0.29484
 C768 C 0.13649 0.22144 0.31993
 H769 H 0.06036 0.19160 0.41900
 H770 H 0.07561 0.30018 0.42839
 H771 H 0.20632 0.29038 0.32446
 H772 H 0.16100 0.20409 0.27429
 H773 H 0.10204 0.19029 0.37306
 H774 H 0.11659 0.20247 0.31810
 C775 C 0.61498 0.25272 0.12598
 C776 C 0.59732 0.28275 0.11825
 C777 C 0.57276 0.28252 0.09256
 C778 C 0.56488 0.25209 0.07528
 C779 C 0.58279 0.22234 0.08452
 N780 N 0.60735 0.22351 0.10893
 C781 C 0.64167 0.25254 0.15234
 N782 N 0.63630 0.26907 0.18234
 C783 C 0.66002 0.26943 0.20755
 C784 C 0.69146 0.25321 0.20284
 C785 C 0.69779 0.23651 0.17199
 C786 C 0.67266 0.23561 0.14684
 H787 H 0.55971 0.30613 0.08658
 H788 H 0.57788 0.19830 0.07192
 H789 H 0.65449 0.28253 0.23116
 H790 H 0.72194 0.22385 0.16767
 H791 H 0.60301 0.30631 0.13146
 H792 H 0.67756 0.22242 0.12313
 C793 C 0.38230 0.25011 0.87510
 C794 C 0.39687 0.28108 0.88556
 C795 C 0.42067 0.28123 0.91195
 C796 C 0.43011 0.25065 0.92801
 C797 C 0.41484 0.22025 0.91689
 N798 N 0.39153 0.22078 0.89127
 C799 C 0.35625 0.24862 0.84787
 N800 N 0.33268 0.22315 0.84856
 C801 C 0.30755 0.22059 0.82488
 C802 C 0.30527 0.24450 0.79845
 C803 C 0.32956 0.27057 0.79677
 C804 C 0.35511 0.27274 0.82138
 H805 H 0.43162 0.30531 0.91982
 H806 H 0.42118 0.19612 0.92869
 H807 H 0.28891 0.20040 0.82713
 H808 H 0.32850 0.28935 0.77657
 H809 H 0.38951 0.30508 0.87411
 H810 H 0.37383 0.29287 0.81941
 C811 C 0.37952 0.74447 0.11822
 C812 C 0.39506 0.71409 0.10744
 C813 C 0.42071 0.71525 0.08291
 C814 C 0.43103 0.74655 0.06892
 C815 C 0.41462 0.77633 0.08012
 N816 N 0.38957 0.77455 0.10402
 C817 C 0.35200 0.74459 0.14405
 N818 N 0.32874 0.77039 0.14380
 C819 C 0.30278 0.77210 0.16666
 C820 C 0.29934 0.74697 0.19184
 C821 C 0.32311 0.72038 0.19290
 C822 C 0.34947 0.71906 0.16911
 H823 H 0.43242 0.69157 0.07489
 H824 H 0.42158 0.80098 0.06986
 H825 H 0.28476 0.79293 0.16512
 H826 H 0.32131 0.70080 0.21229
 H827 H 0.38718 0.68955 0.11724
 H828 H 0.36793 0.69865 0.17088
 C829 C 0.88463 0.62083 0.74836
 C830 C 0.89571 0.60682 0.71742
 C831 C 0.92085 0.58166 0.71747
 C832 C 0.93511 0.57015 0.74828
 C833 C 0.92342 0.58514 0.77869
 N834 N 0.89903 0.60981 0.77792
 C835 C 0.85825 0.64783 0.74958
 N836 N 0.85887 0.67100 0.77541
 C837 C 0.83565 0.69666 0.77782
 C838 C 0.80982 0.69987 0.75341
 C839 C 0.80814 0.67591 0.72707
 C840 C 0.83233 0.64992 0.72497
 H841 H 0.92904 0.57126 0.69327
 H842 H 0.93367 0.57744 0.80310
 H843 H 0.83746 0.71468 0.79860
 H844 H 0.78807 0.67734 0.70821
 H845 H 0.88561 0.61558 0.69332
 H846 H 0.83033 0.63143 0.70465
 C847 C 0.36875 0.11786 0.24170
 C848 C 0.38163 0.10497 0.21100
 C849 C 0.40779 0.08092 0.21164
 C850 C 0.42116 0.06936 0.24283
 C851 C 0.40756 0.08313 0.27300
 N852 N 0.38228 0.10684 0.27165
 C853 C 0.34147 0.14383 0.24221
 N854 N 0.34109 0.16749 0.26758
 C855 C 0.31706 0.19244 0.26917
 C856 C 0.29143 0.19426 0.24443
 C857 C 0.29080 0.16974 0.21857
 C858 C 0.31584 0.14455 0.21726
 H859 H 0.41742 0.07138 0.18762
 H860 H 0.41707 0.07532 0.29767
 H861 H 0.31814 0.21102 0.28950
 H862 H 0.27097 0.17021 0.19941
 H863 H 0.37212 0.11382 0.18669
 H864 H 0.31483 0.12564 0.19725
 C865 C 0.11308 0.62359 0.23946
 C866 C 0.09813 0.61166 0.20926
 C867 C 0.07352 0.58601 0.21073
 C868 C 0.06358 0.57209 0.24223
 C869 C 0.07946 0.58465 0.27180
 N870 N 0.10349 0.60951 0.26964
 C871 C 0.13973 0.65029 0.23948
 N872 N 0.16265 0.65096 0.26551
 C873 C 0.18797 0.67451 0.26727
 C874 C 0.19110 0.69950 0.24193
 C875 C 0.16756 0.69971 0.21514
 C876 C 0.14184 0.67518 0.21378
 H877 H 0.06234 0.57714 0.18713
 H878 H 0.07296 0.57474 0.29670
 H879 H 0.20598 0.67339 0.28810
 H880 H 0.16926 0.71879 0.19526
 H881 H 0.10574 0.62144 0.18465
 H882 H 0.12364 0.67612 0.19313
 C883 C 0.87044 0.38326 0.25518
 C884 C 0.86846 0.40964 0.23117
 C885 C 0.89450 0.43375 0.22949
 C886 C 0.92195 0.43208 0.25227
 C887 C 0.92279 0.40551 0.27620
 N888 N 0.89754 0.38172 0.27676
 C889 C 0.84374 0.35699 0.25686
 N890 N 0.85255 0.32342 0.25633
 C891 C 0.82877 0.29820 0.25651
 C892 C 0.79395 0.30630 0.25790
 C893 C 0.78448 0.34076 0.25937
 C894 C 0.80927 0.36618 0.25835
 H895 H 0.89301 0.45395 0.21072
 H896 H 0.94377 0.40331 0.29395
 H897 H 0.83698 0.27188 0.25527
 H898 H 0.75789 0.34791 0.26100
 H899 H 0.84729 0.41119 0.21354
 H900 H 0.80168 0.39273 0.25907
 C901 C 0.12477 0.37609 0.74561
 C902 C 0.11372 0.39123 0.71514
 C903 C 0.08891 0.41663 0.71605
 C904 C 0.07481 0.42708 0.74718
 C905 C 0.08617 0.41099 0.77707
 N906 N 0.11043 0.38619 0.77554
 C907 C 0.15120 0.34908 0.74583
 N908 N 0.15141 0.32557 0.77141
 C909 C 0.17480 0.29995 0.77286
 C910 C 0.19988 0.29714 0.74762
 C911 C 0.20062 0.32140 0.72149
 C912 C 0.17640 0.34737 0.72046
 H913 H 0.08073 0.42803 0.69230
 H914 H 0.07580 0.41804 0.80160
 H915 H 0.17381 0.28177 0.79358
 H916 H 0.22020 0.32039 0.70210
 H917 H 0.12360 0.38323 0.69071
 H918 H 0.17793 0.36617 0.70036
 C919 C 0.87801 0.75673 0.38348
 C920 C 0.89370 0.78694 0.39447
 C921 C 0.91953 0.78539 0.41875
 C922 C 0.92983 0.75387 0.43221
 C923 C 0.91317 0.72428 0.42093
 N924 N 0.88796 0.72644 0.39726
 C925 C 0.85078 0.75705 0.35750
 N926 N 0.82674 0.73200 0.35784
 C927 C 0.80116 0.73072 0.33452
 C928 C 0.79909 0.75546 0.30884
 C929 C 0.82382 0.78112 0.30764
 C930 C 0.84964 0.78209 0.33192
 H931 H 0.93145 0.80890 0.42692
 H932 H 0.92010 0.69949 0.43087
 H933 H 0.78256 0.71040 0.33589
 H934 H 0.82336 0.80009 0.28760
 H935 H 0.88585 0.81160 0.38489
 H936 H 0.86889 0.80173 0.33007
 C937 C 0.87995 0.24546 0.62794
 C938 C 0.89321 0.21470 0.61535
 C939 C 0.91765 0.21539 0.58966
 C940 C 0.92895 0.24659 0.57626
 C941 C 0.91489 0.27679 0.58933
 N942 N 0.89098 0.27547 0.61437
 C943 C 0.85364 0.24608 0.65488
 N944 N 0.83202 0.27321 0.65667
 C945 C 0.80713 0.27542 0.68062
 C946 C 0.80315 0.24938 0.70476
 C947 C 0.82531 0.22142 0.70375
 C948 C 0.85060 0.21966 0.67892
 H949 H 0.92754 0.19143 0.58017
 H950 H 0.92269 0.30139 0.57957
 H951 H 0.79047 0.29742 0.68088
 H952 H 0.82316 0.20117 0.72240
 H953 H 0.88440 0.19026 0.62460
 H954 H 0.86788 0.19818 0.67911
 C955 C 0.13070 0.74565 0.61491
 C956 C 0.13234 0.76844 0.58748
 C957 C 0.10567 0.76946 0.56407
 C958 C 0.07800 0.74715 0.56751
 C959 C 0.07757 0.72437 0.59504
 N960 N 0.10340 0.72451 0.61812
 C961 C 0.15785 0.74482 0.64059
 N962 N 0.14972 0.74808 0.67409
 C963 C 0.17391 0.74819 0.69884
 C964 C 0.20840 0.74402 0.69036
 C965 C 0.21717 0.74006 0.65599
 C966 C 0.19200 0.74095 0.63097
 H967 H 0.10681 0.78733 0.54305
 H968 H 0.05642 0.70701 0.59856
 H969 H 0.16628 0.75156 0.72509
 H970 H 0.24349 0.73639 0.64859
 H971 H 0.15372 0.78567 0.58462
 H972 H 0.19898 0.73811 0.60445
 C973 C 0.74467 0.62392 0.12917
 C974 C 0.71462 0.60898 0.11679
 C975 C 0.71651 0.58447 0.09116
 C976 C 0.74819 0.57480 0.07773
 C977 C 0.77759 0.59067 0.09049
 N978 N 0.77510 0.61455 0.11543
 C979 C 0.74417 0.65008 0.15624
 N980 N 0.77003 0.67318 0.15780
 C981 C 0.77121 0.69799 0.18191
 C982 C 0.74541 0.70032 0.20641
 C983 C 0.71888 0.67651 0.20577
 C984 C 0.71812 0.65136 0.18075
 H985 H 0.69315 0.57311 0.08190
 H986 H 0.80252 0.58416 0.08070
 H987 H 0.79214 0.71595 0.18191
 H988 H 0.69893 0.67734 0.22479
 H989 H 0.68984 0.61644 0.12625
 H990 H 0.69772 0.63284 0.18112
 C991 C 0.25564 0.61497 0.87160
 C992 C 0.23140 0.58882 0.86975
 C993 C 0.22964 0.56473 0.89584
 C994 C 0.25262 0.56625 0.92310
 C995 C 0.27666 0.59268 0.92385
 N996 N 0.27731 0.61640 0.89859
 C997 C 0.25774 0.64104 0.84485
 N998 N 0.25650 0.67461 0.85348
 C999 C 0.25758 0.69974 0.82964
 C1000 C 0.26083 0.69152 0.79503
 C1001 C 0.26294 0.65705 0.78578
 C1002 C 0.26089 0.63171 0.81059
 H1003 H 0.21081 0.54460 0.89446
 H1004 H 0.29457 0.59473 0.94471
 H1005 H 0.25549 0.72606 0.83765
 H1006 H 0.26570 0.64984 0.75932
 H1007 H 0.21376 0.58739 0.84859
 H1008 H 0.26216 0.60513 0.80322
 C1009 C 0.76103 0.38089 0.88705
 C1010 C 0.79142 0.39199 0.90235
 C1011 C 0.79030 0.41777 0.92682
 C1012 C 0.75906 0.43250 0.93608
 C1013 C 0.72936 0.42087 0.91995
 N1014 N 0.73111 0.39587 0.89612
 C1015 C 0.76041 0.35406 0.86068
 N1016 N 0.73409 0.35371 0.83810
 C1017 C 0.73139 0.32980 0.81327
 C1018 C 0.75600 0.30411 0.81038
 C1019 C 0.78315 0.30359 0.83350
 C1020 C 0.78550 0.32853 0.85870
 H1021 H 0.81386 0.42613 0.93848
 H1022 H 0.70474 0.43166 0.92613
 H1023 H 0.71023 0.33099 0.79565
 H1024 H 0.80240 0.28384 0.83200
 H1025 H 0.81585 0.38144 0.89518
 H1026 H 0.80631 0.32731 0.87670
 C1027 C 0.61965 0.88487 0.24708
 C1028 C 0.60993 0.89992 0.21610
 C1029 C 0.58364 0.92385 0.21564
 C1030 C 0.56693 0.93290 0.24589
 C1031 C 0.57721 0.91707 0.27628
 N1032 N 0.60281 0.89367 0.27607
 C1033 C 0.64697 0.85893 0.24889
 N1034 N 0.64601 0.83515 0.27419
 C1035 C 0.66990 0.81018 0.27704
 C1036 C 0.69670 0.80832 0.25361
 C1037 C 0.69878 0.83294 0.22790
 C1038 C 0.67398 0.85829 0.22540
 H1039 H 0.57641 0.93524 0.19157
 H1040 H 0.56487 0.92311 0.30016
 H1041 H 0.66778 0.79158 0.29731
 H1042 H 0.71956 0.83242 0.20977
 H1043 H 0.62193 0.89288 0.19233
 H1044 H 0.67628 0.87731 0.20558
 C1045 C 0.61774 0.12910 0.75168
 C1046 C 0.60432 0.11811 0.72044
 C1047 C 0.58105 0.09133 0.71982
 C1048 C 0.57104 0.07529 0.75016
 C1049 C 0.58515 0.08691 0.78088
 N1050 N 0.60799 0.11301 0.78083
 C1051 C 0.64344 0.15661 0.75347
 N1052 N 0.66643 0.15644 0.77943
 C1053 C 0.69172 0.17998 0.78179
 C1054 C 0.69491 0.20547 0.75697
 C1055 C 0.67099 0.20683 0.73060
 C1056 C 0.64517 0.18252 0.72876
 H1057 H 0.57102 0.08309 0.69549
 H1058 H 0.57829 0.07515 0.80484
 H1059 H 0.70990 0.17822 0.80243
 H1060 H 0.67268 0.22642 0.71122
 H1061 H 0.61223 0.12939 0.69658
 H1062 H 0.62682 0.18416 0.70828
 C1063 C 0.39016 0.87208 0.74095
 C1064 C 0.41354 0.87584 0.71420
 C1065 C 0.43721 0.90235 0.71523
 C1066 C 0.43797 0.92466 0.74311
 C1067 C 0.41422 0.91993 0.76938
 N1068 N 0.39098 0.89433 0.76750
 C1069 C 0.36416 0.84500 0.74058
 N1070 N 0.33241 0.85196 0.75270
 C1071 C 0.30730 0.82813 0.75311
 C1072 C 0.31385 0.79503 0.74150
 C1073 C 0.34643 0.78706 0.72944
 C1074 C 0.37164 0.81210 0.72865
 H1075 H 0.45510 0.90523 0.69444
 H1076 H 0.41380 0.93684 0.79115
 H1077 H 0.28235 0.83487 0.76272
 H1078 H 0.35216 0.76157 0.72049
 H1079 H 0.41310 0.85890 0.69245
 H1080 H 0.39683 0.80565 0.71946
   
