data_POSCAR
  _audit_creation_date              2014-09-24
  _audit_creation_method            'ToBaCCo'
  _symmetry_space_group_name_H-M    'P1'
  _symmetry_Int_Tables_number       1
  _symmetry_cell_setting            triclinic
  loop_
  _symmetry_equiv_pos_as_xyz
 x,y,z
_cell_length_a 29.9552
_cell_length_b 29.9553
_cell_length_c 29.7472
_cell_angle_alpha 89.948100
_cell_angle_beta 89.948400
_cell_angle_gamma 89.828500
loop_
  _atom_site_label
  _atom_site_type_symbol
  _atom_site_fract_x
  _atom_site_fract_y
  _atom_site_fract_z
O1 O 0.04253 0.28838 -0.04301
 O2 O -0.04445 0.28864 0.04462
 O3 O 0.04249 0.28861 0.04450
 O4 O -0.04439 0.28837 -0.04292
 O5 O -0.04416 0.21454 -0.04263
 O6 O 0.04269 0.21477 0.04476
 O7 O -0.04423 0.21481 0.04488
 O8 O 0.04273 0.21455 -0.04273
 Cu9 Cu -0.00098 0.29596 0.00078
 Cu10 Cu -0.00073 0.20721 0.00110
 C11 C 0.05732 0.25142 -0.05764
 C12 C -0.05903 0.25176 0.05954
 C13 C 0.05727 0.25172 0.05936
 C14 C -0.05893 0.25141 -0.05753
 O15 O 0.54307 0.78889 0.45599
 O16 O 0.45615 0.78908 0.54366
 O17 O 0.54315 0.78889 0.54357
 O18 O 0.45607 0.78891 0.45606
 O19 O 0.45622 0.71509 0.45622
 O20 O 0.54327 0.71507 0.54369
 O21 O 0.45629 0.71525 0.54380
 O22 O 0.54320 0.71507 0.45613
 Cu23 Cu 0.49959 0.79638 0.49981
 Cu24 Cu 0.49976 0.70768 0.49997
 C25 C 0.55782 0.75195 0.44127
 C26 C 0.44155 0.75220 0.55853
 C27 C 0.55792 0.75196 0.55839
 C28 C 0.44144 0.75199 0.44137
 O29 O 1.04505 0.71152 0.04373
 O30 O 0.95817 0.71161 -0.04397
 O31 O 1.04517 0.71177 -0.04390
 O32 O 0.95806 0.71154 0.04361
 O33 O 0.95781 0.78536 0.04366
 O34 O 1.04487 0.78559 -0.04380
 O35 O 0.95789 0.78544 -0.04389
 O36 O 1.04477 0.78533 0.04380
 Cu37 Cu 1.00165 0.70417 -0.00014
 Cu38 Cu 1.00132 0.79287 -0.00005
 C39 C 1.05957 0.74841 0.05859
 C40 C 0.94334 0.74854 -0.05872
 C41 C 1.05972 0.74873 -0.05864
 C42 C 0.94322 0.74842 0.05839
 O43 O 0.54358 0.21058 0.54375
 O44 O 0.45681 0.21070 0.45620
 O45 O 0.54374 0.21084 0.45622
 O46 O 0.45665 0.21057 0.54375
 O47 O 0.45639 0.28440 0.54382
 O48 O 0.54344 0.28467 0.45633
 O49 O 0.45654 0.28453 0.45631
 O50 O 0.54329 0.28441 0.54384
 Cu51 Cu 0.50022 0.20321 0.49997
 Cu52 Cu 0.49989 0.29196 0.50008
 C53 C 0.55807 0.24748 0.55856
 C54 C 0.44204 0.24764 0.44149
 C55 C 0.55829 0.24781 0.44151
 C56 C 0.44183 0.24745 0.55855
 O57 O 0.71160 -0.04283 0.04315
 O58 O 0.71138 0.04410 -0.04452
 O59 O 0.71158 -0.04283 -0.04437
 O60 O 0.71154 0.04410 0.04302
 O61 O 0.78538 0.04397 0.04286
 O62 O 0.78542 -0.04292 -0.04449
 O63 O 0.78520 0.04399 -0.04465
 O64 O 0.78543 -0.04294 0.04300
 Cu65 Cu 0.70406 0.00065 -0.00067
 Cu66 Cu 0.79281 0.00052 -0.00084
 C67 C 0.74855 -0.05756 0.05786
 C68 C 0.74826 0.05873 -0.05938
 C69 C 0.74852 -0.05755 -0.05916
 C70 C 0.74846 0.05869 0.05768
 O71 O 0.21074 0.54374 0.45674
 O72 O 0.21092 0.45683 0.54444
 O73 O 0.21085 0.54384 0.54436
 O74 O 0.21093 0.45675 0.45686
 O75 O 0.28476 0.45665 0.45677
 O76 O 0.28467 0.54371 0.54424
 O77 O 0.28475 0.45672 0.54432
 O78 O 0.28457 0.54362 0.45665
 Cu79 Cu 0.20342 0.50031 0.50062
 Cu80 Cu 0.29213 0.50017 0.50049
 C81 C 0.24763 0.55833 0.44188
 C82 C 0.24786 0.44208 0.55916
 C83 C 0.24776 0.55847 0.55908
 C84 C 0.24787 0.44199 0.44205
 O85 O 0.28830 0.95658 -0.04515
 O86 O 0.28852 1.04351 0.04251
 O87 O 0.28837 0.95653 0.04243
 O88 O 0.28838 1.04360 -0.04511
 O89 O 0.21456 1.04390 -0.04495
 O90 O 0.21454 0.95687 0.04256
 O91 O 0.21470 1.04382 0.04264
 O92 O 0.21449 0.95690 -0.04499
 Cu93 Cu 0.29583 1.00003 -0.00136
 Cu94 Cu 0.20713 1.00041 -0.00118
 C95 C 0.25136 0.94202 -0.05984
 C96 C 0.25164 1.05832 0.05740
 C97 C 0.25144 0.94201 0.05727
 C98 C 0.25147 1.05846 -0.05980
 O99 O 0.78919 0.54290 0.54392
 O100 O 0.78914 0.45613 0.45640
 O101 O 0.78920 0.54305 0.45640
 O102 O 0.78894 0.45596 0.54393
 O103 O 0.71511 0.45632 0.54389
 O104 O 0.71536 0.54337 0.45640
 O105 O 0.71530 0.45647 0.45638
 O106 O 0.71535 0.54324 0.54390
 Cu107 Cu 0.79658 0.49947 0.50017
 Cu108 Cu 0.70782 0.49989 0.50015
 C109 C 0.75227 0.55772 0.55867
 C110 C 0.75221 0.44167 0.44162
 C111 C 0.75231 0.55790 0.44163
 C112 C 0.75197 0.44144 0.55867
 C113 C 0.25010 0.21673 0.21655
 C114 C 0.21672 0.24997 0.21683
 C115 C 0.21681 0.28285 0.25030
 C116 C 0.24986 0.28295 0.28357
 C117 C 0.28322 0.24969 0.28333
 C118 C 0.28315 0.21682 0.24984
 H119 H 0.30886 0.19124 0.24969
 H120 H 0.19109 0.30842 0.25045
 C121 C 0.75040 0.78338 0.21635
 C122 C 0.78377 0.75013 0.21645
 C123 C 0.78363 0.71716 0.24987
 C124 C 0.75056 0.71699 0.28320
 C125 C 0.71718 0.75023 0.28310
 C126 C 0.71732 0.78321 0.24967
 H127 H 0.69163 0.80881 0.24960
 H128 H 0.80933 0.69156 0.24995
 C129 C 0.78369 0.25033 0.21616
 C130 C 0.75042 0.21720 0.21611
 C131 C 0.71746 0.21728 0.24954
 C132 C 0.71732 0.25010 0.28303
 C133 C 0.75057 0.28326 0.28306
 C134 C 0.78354 0.28316 0.24964
 H135 H 0.80915 0.30870 0.24970
 H136 H 0.69185 0.19174 0.24948
 C137 C 0.21623 0.74988 0.21584
 C138 C 0.24946 0.78308 0.21584
 C139 C 0.28233 0.78296 0.24933
 C140 C 0.28245 0.75008 0.28285
 C141 C 0.24922 0.71688 0.28287
 C142 C 0.21634 0.71699 0.24937
 H143 H 0.19077 0.69142 0.24940
 H144 H 0.30790 0.80853 0.24930
 C145 C 0.71659 0.24903 0.71701
 C146 C 0.74972 0.28230 0.71705
 C147 C 0.78255 0.28218 0.75053
 C148 C 0.78267 0.24921 0.78395
 C149 C 0.74956 0.21591 0.78390
 C150 C 0.71672 0.21604 0.75042
 H151 H 0.69120 0.19042 0.75037
 H152 H 0.80807 0.30780 0.75059
 C153 C 0.28269 0.75096 0.71721
 C154 C 0.24955 0.71767 0.71740
 C155 C 0.21669 0.71787 0.75096
 C156 C 0.21653 0.75091 0.78429
 C157 C 0.24963 0.78424 0.78407
 C158 C 0.28250 0.78402 0.75052
 H159 H 0.30802 0.80964 0.75034
 H160 H 0.19118 0.69224 0.75114
 C161 C 0.24961 0.28259 0.71720
 C162 C 0.28282 0.24919 0.71708
 C163 C 0.28265 0.21612 0.75041
 C164 C 0.24969 0.21600 0.78385
 C165 C 0.21646 0.24939 0.78396
 C166 C 0.21664 0.28247 0.75064
 H167 H 0.19106 0.30818 0.75072
 H168 H 0.30823 0.19040 0.75033
 C169 C 0.75072 0.71684 0.71651
 C170 C 0.71738 0.75011 0.71646
 C171 C 0.71755 0.78313 0.74976
 C172 C 0.75060 0.78330 0.78305
 C173 C 0.78397 0.75005 0.78310
 C174 C 0.78380 0.71702 0.74980
 H175 H 0.80945 0.69139 0.74979
 H176 H 0.69188 0.80877 0.74977
 C177 C 0.25169 0.09212 0.09159
 C178 C 0.25163 0.12052 0.12030
 C179 C 0.25139 0.15384 0.15389
 C180 C 0.25096 0.18237 0.18247
 C181 C 0.75228 0.59159 0.59265
 C182 C 0.75219 0.62012 0.62115
 C183 C 0.75194 0.65360 0.65443
 C184 C 0.75153 0.68231 0.68275
 C185 C 0.74865 0.90854 0.09195
 C186 C 0.74881 0.88001 0.12054
 C187 C 0.74912 0.84654 0.15396
 C188 C 0.74957 0.81787 0.18241
 C189 C 0.24795 0.40813 0.59319
 C190 C 0.24810 0.37953 0.62171
 C191 C 0.24840 0.34596 0.65502
 C192 C 0.24882 0.31719 0.68338
 C193 C 0.90888 0.25182 0.09178
 C194 C 0.88034 0.25177 0.12037
 C195 C 0.84686 0.25155 0.15378
 C196 C 0.81819 0.25114 0.18222
 C197 C 0.40767 0.75225 0.59263
 C198 C 0.37916 0.75222 0.62125
 C199 C 0.34574 0.75205 0.65471
 C200 C 0.31711 0.75170 0.68321
 C201 C 0.09156 0.74838 0.09094
 C202 C 0.11997 0.74844 0.11965
 C203 C 0.15330 0.74865 0.15322
 C204 C 0.18185 0.74905 0.18179
 C205 C 0.59188 0.24745 0.59261
 C206 C 0.62033 0.24754 0.62119
 C207 C 0.65368 0.24779 0.65460
 C208 C 0.68225 0.24821 0.68306
 C209 C 0.74819 0.09079 0.90835
 C210 C 0.74822 0.11931 0.87974
 C211 C 0.74841 0.15276 0.84630
 C212 C 0.74878 0.18142 0.81784
 C213 C 0.24759 0.59215 0.40771
 C214 C 0.24766 0.62058 0.37901
 C215 C 0.24791 0.65392 0.34547
 C216 C 0.24834 0.68249 0.31691
 C217 C 0.25126 0.90986 0.90799
 C218 C 0.25111 0.88123 0.87950
 C219 C 0.25082 0.84763 0.84621
 C220 C 0.25040 0.81885 0.81788
 C221 C 0.75218 0.40788 0.40755
 C222 C 0.75207 0.37945 0.37895
 C223 C 0.75180 0.34613 0.34552
 C224 C 0.75138 0.31758 0.31703
 C225 C 0.09125 0.25129 0.90830
 C226 C 0.11980 0.25110 0.87973
 C227 C 0.15329 0.25073 0.84634
 C228 C 0.18197 0.25025 0.81790
 C229 C 0.59175 0.75187 0.40722
 C230 C 0.62032 0.75173 0.37867
 C231 C 0.65386 0.75145 0.34532
 C232 C 0.68260 0.75103 0.31694
 C233 C 0.90941 0.74859 0.90722
 C234 C 0.88084 0.74869 0.87867
 C235 C 0.84730 0.74893 0.84532
 C236 C 0.81856 0.74930 0.81695
 C237 C 0.40823 0.24771 0.40744
 C238 C 0.37977 0.24788 0.37887
 C239 C 0.34637 0.24824 0.34551
 C240 C 0.31771 0.24875 0.31713
 C241 C 0.74859 0.90855 0.90690
 C242 C 0.74879 0.88000 0.87842
 C243 C 0.74920 0.84651 0.84516
 C244 C 0.74972 0.81781 0.81684
 C245 C 0.24795 0.40804 0.40801
 C246 C 0.24814 0.37949 0.37945
 C247 C 0.24851 0.34602 0.34604
 C248 C 0.24900 0.31737 0.31758
 C249 C 0.25143 0.09059 0.90800
 C250 C 0.25129 0.11917 0.87945
 C251 C 0.25097 0.15270 0.84610
 C252 C 0.25051 0.18144 0.81771
 C253 C 0.75234 0.59183 0.40759
 C254 C 0.75222 0.62038 0.37901
 C255 C 0.75190 0.65385 0.34560
 C256 C 0.75142 0.68252 0.31715
 C257 C 0.09178 0.74887 0.90910
 C258 C 0.12026 0.74910 0.88045
 C259 C 0.15363 0.74953 0.84694
 C260 C 0.18220 0.75005 0.81838
 C261 C 0.59222 0.24796 0.40746
 C262 C 0.62076 0.24821 0.37888
 C263 C 0.65422 0.24866 0.34547
 C264 C 0.68287 0.24920 0.31700
 C265 C 0.90726 0.25128 0.90844
 C266 C 0.87883 0.25105 0.87985
 C267 C 0.84551 0.25063 0.84642
 C268 C 0.81697 0.25010 0.81794
 C269 C 0.40750 0.75194 0.40732
 C270 C 0.37897 0.75177 0.37875
 C271 C 0.34551 0.75141 0.34533
 C272 C 0.31687 0.75093 0.31685
 C273 C 0.25139 0.90809 0.09133
 C274 C 0.25122 0.87957 0.11992
 C275 C 0.25085 0.84613 0.15336
 C276 C 0.25035 0.81750 0.18184
 C277 C 0.75182 0.40749 0.59270
 C278 C 0.75157 0.37893 0.62126
 C279 C 0.75113 0.34544 0.65465
 C280 C 0.75059 0.31677 0.68309
 C281 C 0.74850 0.09253 0.09169
 C282 C 0.74868 0.12099 0.12026
 C283 C 0.74905 0.15433 0.15366
 C284 C 0.74956 0.18289 0.18213
 C285 C 0.24778 0.59241 0.59313
 C286 C 0.24792 0.62096 0.62170
 C287 C 0.24824 0.65445 0.65509
 C288 C 0.24870 0.68314 0.68351
 C289 C 0.90924 0.74839 0.09239
 C290 C 0.88064 0.74851 0.12091
 C291 C 0.84709 0.74883 0.15423
 C292 C 0.81834 0.74929 0.18260
 C293 C 0.40791 0.24741 0.59262
 C294 C 0.37938 0.24752 0.62121
 C295 C 0.34593 0.24784 0.65464
 C296 C 0.31728 0.24831 0.68312
 C297 C 0.09121 0.25176 0.09326
 C298 C 0.11981 0.25165 0.12169
 C299 C 0.15337 0.25133 0.15487
 C300 C 0.18214 0.25085 0.18313
 C301 C 0.59191 0.75190 0.59239
 C302 C 0.62051 0.75173 0.62091
 C303 C 0.65407 0.75138 0.65423
 C304 C 0.68281 0.75092 0.68260
   
