data_POSCAR
  _audit_creation_date              2014-09-24
  _audit_creation_method            'ToBaCCo'
  _symmetry_space_group_name_H-M    'P1'
  _symmetry_Int_Tables_number       1
  _symmetry_cell_setting            triclinic
  loop_
  _symmetry_equiv_pos_as_xyz
 x,y,z
_cell_length_a 27.1732
_cell_length_b 27.6555
_cell_length_c 28.4053
_cell_angle_alpha 89.971900
_cell_angle_beta 90.490700
_cell_angle_gamma 84.261700
loop_
  _atom_site_label
  _atom_site_type_symbol
  _atom_site_fract_x
  _atom_site_fract_y
  _atom_site_fract_z
C1 C 1.21800 0.21286 0.19764
 C2 C 1.24355 0.25003 0.16953
 C3 C 1.27010 0.27973 0.19624
 C4 C 1.26917 0.26779 0.24993
 C5 C 1.25968 0.18495 0.22591
 C6 C 1.28678 0.21280 0.25369
 C7 C 1.18730 0.24289 0.23409
 C8 C 1.21356 0.27082 0.26267
 H9 H 1.24266 0.25106 0.13132
 H10 H 1.29086 0.29103 0.27191
 H11 H 1.26304 0.14556 0.22839
 H12 H 1.14739 0.24305 0.23586
 C13 C 0.71296 -0.28220 0.19778
 C14 C 0.74858 -0.25539 0.16856
 C15 C 0.77708 -0.22659 0.19411
 C16 C 0.76582 -0.22682 0.24773
 C17 C 0.74513 -0.30922 0.23560
 C18 C 0.77293 -0.28108 0.26214
 C19 C 0.68214 -0.24219 0.22455
 C20 C 0.70914 -0.21274 0.25097
 H21 H 0.74788 -0.25602 0.13036
 H22 H 0.78809 -0.20323 0.26866
 H23 H 0.74562 -0.34814 0.24125
 H24 H 0.64222 -0.24133 0.22702
 C25 C 0.72243 0.22224 -0.30109
 C26 C 0.76124 0.24348 -0.32658
 C27 C 0.79010 0.27378 -0.29842
 C28 C 0.77381 0.27640 -0.24871
 C29 C 0.74747 0.19665 -0.26165
 C30 C 0.77568 0.22577 -0.23220
 C31 C 0.69315 0.26358 -0.28022
 C32 C 0.72067 0.29362 -0.25053
 H33 H 0.76303 0.24276 -0.36478
 H34 H 0.79569 0.29926 -0.22667
 H35 H 0.74753 0.15767 -0.25634
 H36 H 0.65293 0.26700 -0.28083
 C37 C 1.21849 -0.28048 -0.30341
 C38 C 1.25815 -0.25830 -0.33149
 C39 C 1.28644 -0.22953 -0.30559
 C40 C 1.27140 -0.22569 -0.25304
 C41 C 1.24588 -0.30662 -0.26220
 C42 C 1.27399 -0.27872 -0.23578
 C43 C 1.18848 -0.23713 -0.28135
 C44 C 1.21537 -0.20859 -0.25392
 H45 H 1.25940 -0.26051 -0.36962
 H46 H 1.29364 -0.20216 -0.23202
 H47 H 1.24465 -0.34518 -0.25544
 H48 H 1.14830 -0.23396 -0.28124
 C49 C 0.22244 0.21280 0.80517
 C50 C 0.24484 0.24984 0.83132
 C51 C 0.27286 0.28048 0.80306
 C52 C 0.27413 0.26612 0.75293
 C53 C 0.19259 0.24008 0.76587
 C54 C 0.21920 0.26732 0.73743
 C55 C 0.26545 0.18402 0.78014
 C56 C 0.29280 0.21113 0.75214
 H57 H 0.24349 0.25189 0.86948
 H58 H 0.29617 0.28822 0.73044
 H59 H 0.15272 0.24008 0.76279
 H60 H 0.26896 0.14457 0.77906
 C61 C 0.71562 0.71793 0.80161
 C62 C 0.74998 0.74396 0.82922
 C63 C 0.78017 0.77337 0.80169
 C64 C 0.76833 0.77175 0.75068
 C65 C 0.68623 0.75576 0.77493
 C66 C 0.71459 0.78618 0.74683
 C67 C 0.74632 0.69105 0.76671
 C68 C 0.77460 0.71996 0.73756
 H69 H 0.74874 0.74545 0.86741
 H70 H 0.79074 0.79447 0.72931
 H71 H 0.64626 0.75681 0.77172
 H72 H 0.74879 0.65168 0.76352
 C73 C 0.72263 0.21847 0.30244
 C74 C 0.74995 0.25505 0.32963
 C75 C 0.77922 0.28106 0.30253
 C76 C 0.77634 0.26898 0.24912
 C77 C 0.69305 0.24864 0.26532
 C78 C 0.72059 0.27416 0.23627
 C79 C 0.76250 0.18781 0.27503
 C80 C 0.79095 0.21368 0.24686
 H81 H 0.74665 0.25967 0.36748
 H82 H 0.79853 0.29081 0.22655
 H83 H 0.65304 0.24990 0.26250
 H84 H 0.76358 0.14848 0.27349
 C85 C 0.21991 0.71548 0.30426
 C86 C 0.24684 0.75228 0.33167
 C87 C 0.27598 0.77878 0.30470
 C88 C 0.27306 0.76701 0.25117
 C89 C 0.18998 0.74570 0.26739
 C90 C 0.21718 0.77174 0.23842
 C91 C 0.26024 0.68555 0.27652
 C92 C 0.28832 0.71184 0.24846
 H93 H 0.24451 0.75574 0.36970
 H94 H 0.29491 0.78930 0.22873
 H95 H 0.14997 0.74671 0.26480
 H96 H 0.26217 0.64617 0.27496
 N97 N 1.08770 0.03170 0.04889
 N98 N 1.12235 0.06081 0.05705
 N99 N 1.04892 -0.06459 0.07926
 N100 N 1.06254 -0.09242 0.11567
 N101 N 1.08339 -0.06860 0.04683
 N102 N 1.12161 -0.09851 0.06116
 N103 N 1.05359 0.03665 0.08130
 N104 N 1.06399 0.06957 0.11253
 C105 C 1.10696 0.08445 0.09673
 C106 C 1.10754 -0.11380 0.10373
 N107 N 0.90717 -0.04442 0.04823
 N108 N 0.87162 -0.07199 0.05845
 N109 N 0.94799 0.05159 0.08188
 N110 N 0.94044 0.08273 0.11664
 N111 N 0.91129 0.05668 0.05133
 N112 N 0.87717 0.09097 0.06539
 N113 N 0.94222 -0.04936 0.08057
 N114 N 0.93136 -0.08020 0.11353
 Mn115 Mn 0.99810 -0.00644 0.08102
 C116 C 0.88741 -0.09439 0.09918
 C117 C 0.89647 0.10750 0.10585
 N118 N 1.08108 -0.06461 -0.05576
 N119 N 1.11861 -0.09345 -0.07249
 N120 N 1.05073 0.04314 -0.08272
 N121 N 1.06167 0.07695 -0.11266
 N122 N 1.08572 0.03546 -0.05076
 N123 N 1.12128 0.06353 -0.05784
 N124 N 1.04576 -0.05749 -0.08778
 N125 N 1.05839 -0.08149 -0.12647
 Mn126 Mn 1.08461 -0.01686 -0.00274
 C127 C 1.10342 -0.10424 -0.11634
 C128 C 1.10567 0.08953 -0.09627
 N129 N 0.90937 0.06107 -0.05072
 N130 N 0.87489 0.09654 -0.06193
 N131 N 0.93904 -0.04302 -0.08755
 N132 N 0.92838 -0.07368 -0.12100
 N133 N 0.90523 -0.04055 -0.05460
 N134 N 0.87075 -0.06956 -0.06485
 N135 N 0.94467 0.05817 -0.08214
 N136 N 0.93544 0.09158 -0.11491
 Mn137 Mn 0.90762 0.00813 -0.00146
 Mn138 Mn 0.99496 0.00026 -0.08533
 Cl139 Cl 0.99619 -0.00421 -0.00214
 C140 C 0.89223 0.11604 -0.10172
 C141 C 0.88572 -0.09021 -0.10638
 N142 N 1.08775 0.53791 0.55300
 N143 N 1.12105 0.56856 0.56026
 N144 N 1.05168 0.44100 0.58531
 N145 N 1.06507 0.41241 0.62132
 N146 N 1.08611 0.43713 0.55284
 N147 N 1.12394 0.40640 0.56654
 N148 N 1.05394 0.54204 0.58578
 N149 N 1.06360 0.57529 0.61676
 C150 C 1.10539 0.59166 0.60006
 C151 C 1.10985 0.39064 0.60894
 N152 N 0.90981 0.45875 0.55393
 N153 N 0.87491 0.43049 0.56457
 N154 N 0.94764 0.55585 0.58700
 N155 N 0.93765 0.58661 0.62196
 N156 N 0.91235 0.56079 0.55494
 N157 N 0.87759 0.59523 0.56752
 N158 N 0.94491 0.45463 0.58622
 N159 N 0.93482 0.42393 0.61951
 Mn160 Mn 0.99954 0.49836 0.58633
 C161 C 0.89123 0.40881 0.60557
 C162 C 0.89430 0.61180 0.60913
 N163 N 1.08526 0.43894 0.45023
 N164 N 1.12249 0.40825 0.43566
 N165 N 1.05256 0.54577 0.42120
 N166 N 1.06254 0.57933 0.39068
 N167 N 1.08740 0.53963 0.45341
 N168 N 1.12216 0.56851 0.44579
 N169 N 1.05020 0.44429 0.41787
 N170 N 1.06256 0.41681 0.38100
 Mn171 Mn 1.08683 0.48812 0.50241
 C172 C 1.10741 0.39406 0.39274
 C173 C 1.10596 0.59340 0.40683
 N174 N 0.91115 0.56239 0.45238
 N175 N 0.87531 0.59582 0.43934
 N176 N 0.94316 0.45826 0.41813
 N177 N 0.93193 0.42894 0.38392
 N178 N 0.90909 0.46095 0.45089
 N179 N 0.87386 0.43326 0.43975
 N180 N 0.94667 0.55933 0.42108
 N181 N 0.93624 0.59091 0.38681
 Mn182 Mn 0.91000 0.51066 0.50304
 Mn183 Mn 0.99808 0.50189 0.41931
 Cl184 Cl 0.99842 0.49934 0.50275
 C185 C 0.89203 0.61422 0.39877
 C186 C 0.88880 0.41336 0.39798
 N187 N 0.44400 0.09054 0.45425
 N188 N 0.43306 0.12536 0.42302
 N189 N 0.41304 0.05711 0.55289
 N190 N 0.37961 0.06898 0.58556
 N191 N 0.44616 0.08854 0.55254
 N192 N 0.43620 0.12262 0.58444
 N193 N 0.41095 0.05902 0.45346
 N194 N 0.37666 0.07152 0.42119
 C195 C 0.39107 0.11303 0.40248
 C196 C 0.39479 0.10989 0.60501
 N197 N 0.45424 -0.08340 0.55032
 N198 N 0.44492 -0.11890 0.57891
 N199 N 0.41546 -0.04657 0.45213
 N200 N 0.37900 -0.05659 0.42381
 N201 N 0.45173 -0.08181 0.45107
 N202 N 0.44090 -0.11621 0.42159
 N203 N 0.41773 -0.04836 0.55086
 N204 N 0.38253 -0.05966 0.57944
 Mn205 Mn 0.41374 0.00533 0.50234
 C206 C 0.40041 -0.10338 0.59741
 C207 C 0.39571 -0.09975 0.40421
 N208 N 0.55191 0.08212 0.55157
 N209 N 0.56375 0.11798 0.57852
 N210 N 0.58561 0.04839 0.45209
 N211 N 0.62152 0.05977 0.42464
 N212 N 0.54992 0.08408 0.45346
 N213 N 0.56083 0.12071 0.42725
 N214 N 0.58842 0.04723 0.55014
 N215 N 0.62620 0.05888 0.57570
 Mn216 Mn 0.49795 0.08646 0.50296
 C217 C 0.60991 0.10276 0.59373
 C218 C 0.60514 0.10465 0.40900
 N219 N 0.55872 -0.08746 0.44993
 N220 N 0.56931 -0.12017 0.41671
 N221 N 0.59379 -0.05729 0.54910
 N222 N 0.62875 -0.06826 0.58101
 N223 N 0.56121 -0.08926 0.54934
 N224 N 0.57308 -0.12283 0.58176
 N225 N 0.59141 -0.05563 0.45046
 N226 N 0.62522 -0.06582 0.41792
 Mn227 Mn 0.50646 -0.08596 0.50016
 Mn228 Mn 0.59006 -0.00441 0.50045
 Cl229 Cl 0.50193 0.00023 0.50150
 C230 C 0.61080 -0.10600 0.39689
 C231 C 0.61527 -0.10913 0.60134
 N232 N 0.58671 0.53481 0.04895
 N233 N 0.61947 0.56592 0.05719
 N234 N 0.55087 0.43564 0.07790
 N235 N 0.56492 0.40700 0.11356
 N236 N 0.58586 0.43398 0.04597
 N237 N 0.62476 0.40476 0.05989
 N238 N 0.55353 0.53669 0.08230
 N239 N 0.56292 0.56903 0.11441
 C240 C 0.60404 0.58712 0.09810
 C241 C 0.61065 0.38756 0.10167
 N242 N 0.40805 0.45542 0.04838
 N243 N 0.37119 0.42975 0.05901
 N244 N 0.44817 0.55029 0.08362
 N245 N 0.44006 0.58053 0.11910
 N246 N 0.41209 0.55642 0.05250
 N247 N 0.37778 0.59039 0.06690
 N248 N 0.44347 0.44880 0.08022
 N249 N 0.43143 0.41832 0.11322
 Mn250 Mn 0.49901 0.49262 0.08127
 C251 C 0.38636 0.40626 0.09928
 C252 C 0.39635 0.60583 0.10815
 N253 N 0.58377 0.43829 -0.05640
 N254 N 0.62197 0.41014 -0.07292
 N255 N 0.55035 0.54469 -0.08382
 N256 N 0.56023 0.57795 -0.11477
 N257 N 0.58507 0.53937 -0.05140
 N258 N 0.61944 0.56880 -0.05927
 N259 N 0.54800 0.44360 -0.08812
 N260 N 0.56124 0.41927 -0.12660
 Mn261 Mn 0.58559 0.48646 -0.00320
 C262 C 0.60700 0.39792 -0.11648
 C263 C 0.60333 0.59306 -0.09876
 N264 N 0.41017 0.56098 -0.04980
 N265 N 0.37522 0.59591 -0.06109
 N266 N 0.44021 0.45631 -0.08655
 N267 N 0.42816 0.42603 -0.11993
 N268 N 0.40640 0.46001 -0.05357
 N269 N 0.37074 0.43258 -0.06363
 N270 N 0.44498 0.55782 -0.08173
 N271 N 0.43537 0.59106 -0.11451
 Mn272 Mn 0.40872 0.50833 -0.00067
 Mn273 Mn 0.49574 0.50041 -0.08536
 Cl274 Cl 0.49721 0.49645 -0.00202
 C275 C 0.39208 0.61513 -0.10115
 C276 C 0.38468 0.41124 -0.10501
 C277 C 1.18748 0.17875 0.16884
 C278 C 1.21767 0.14795 0.13205
 C279 C 1.19108 0.11684 0.10790
 C280 C 1.13648 0.11915 0.12262
 C281 C 1.13823 0.11020 0.17588
 C282 C 1.16451 0.14137 0.20003
 C283 C 1.14338 0.20409 0.14089
 C284 C 1.11659 0.17283 0.11686
 H285 H 1.25664 0.15045 0.12558
 H286 H 1.20762 0.09278 0.08094
 H287 H 1.12018 0.08188 0.19326
 H288 H 1.16860 0.13966 0.23807
 H289 H 1.13419 0.24319 0.14000
 H290 H 1.08449 0.18517 0.09545
 C291 C 1.18723 0.68569 0.66913
 C292 C 1.15845 0.70862 0.62644
 C293 C 1.13091 0.67735 0.60340
 C294 C 1.13463 0.62634 0.62538
 C295 C 1.19018 0.60932 0.62678
 C296 C 1.21775 0.64052 0.64933
 C297 C 1.14758 0.66536 0.69992
 C298 C 1.12008 0.63443 0.67703
 H299 H 1.15966 0.74605 0.61539
 H300 H 1.10847 0.68797 0.57260
 H301 H 1.20655 0.57571 0.61121
 H302 H 1.25766 0.63369 0.65283
 H303 H 1.14180 0.67448 0.73677
 H304 H 1.09096 0.61722 0.69441
 C305 C 0.69292 0.19050 0.67030
 C306 C 0.72238 0.14839 0.64971
 C307 C 0.69374 0.11737 0.62303
 C308 C 0.64109 0.13432 0.62150
 C309 C 0.62571 0.13887 0.67034
 C310 C 0.65415 0.16964 0.69734
 C311 C 0.66679 0.21502 0.63018
 C312 C 0.63845 0.18394 0.60322
 H313 H 0.76228 0.14131 0.65332
 H314 H 0.71046 0.08527 0.60507
 H315 H 0.59600 0.12049 0.68537
 H316 H 0.64737 0.17624 0.73454
 H317 H 0.66870 0.25291 0.62101
 H318 H 0.61776 0.19647 0.57190
 C319 C 0.68248 0.68320 0.16975
 C320 C 0.64945 0.70691 0.13007
 C321 C 0.62323 0.67502 0.10623
 C322 C 0.63224 0.62249 0.12437
 C323 C 0.68850 0.60988 0.12207
 C324 C 0.71473 0.64170 0.14545
 C325 C 0.64691 0.65738 0.20084
 C326 C 0.62072 0.62573 0.17717
 H327 H 0.64691 0.74534 0.12157
 H328 H 0.59825 0.68617 0.07732
 H329 H 0.70631 0.57866 0.10351
 H330 H 0.75488 0.63771 0.14665
 H331 H 0.64283 0.66342 0.23843
 H332 H 0.59448 0.60482 0.19467
 C333 C 0.80835 -0.19128 0.16978
 C334 C 0.83153 -0.21049 0.12307
 C335 C 0.85737 -0.17818 0.10007
 C336 C 0.85883 -0.12966 0.12577
 C337 C 0.80439 -0.11103 0.13372
 C338 C 0.77810 -0.14316 0.15660
 C339 C 0.85269 -0.17615 0.19827
 C340 C 0.87904 -0.14388 0.17534
 H341 H 0.82981 -0.24717 0.11006
 H342 H 0.87667 -0.18712 0.06743
 H343 H 0.78796 -0.07541 0.12262
 H344 H 0.73927 -0.13491 0.16503
 H345 H 0.86351 -0.19046 0.23280
 H346 H 0.91170 -0.13050 0.19084
 C347 C 0.81777 0.30897 0.67848
 C348 C 0.84580 0.28871 0.63441
 C349 C 0.86942 0.32206 0.61047
 C350 C 0.86429 0.37267 0.63279
 C351 C 0.80840 0.38658 0.63682
 C352 C 0.78416 0.35344 0.66053
 C353 C 0.85811 0.33050 0.70792
 C354 C 0.88225 0.36389 0.68411
 H355 H 0.84866 0.25081 0.62387
 H356 H 0.89146 0.31270 0.57948
 H357 H 0.78947 0.41988 0.62254
 H358 H 0.74455 0.35864 0.66641
 H359 H 0.86850 0.31937 0.74355
 H360 H 0.91218 0.38148 0.70012
 C361 C 0.31861 -0.19550 0.67013
 C362 C 0.28839 -0.14865 0.65332
 C363 C 0.31523 -0.11761 0.62978
 C364 C 0.37021 -0.13610 0.62497
 C365 C 0.38840 -0.14685 0.67570
 C366 C 0.36139 -0.17804 0.69943
 C367 C 0.34403 -0.21742 0.62564
 C368 C 0.37030 -0.18628 0.60189
 H369 H 0.24912 -0.14045 0.65980
 H370 H 0.29870 -0.08299 0.61621
 H371 H 0.42020 -0.13193 0.69130
 H372 H 0.37072 -0.19011 0.73503
 H373 H 0.34318 -0.25489 0.61457
 H374 H 0.39072 -0.19708 0.57028
 C375 C 0.30179 0.31526 0.17239
 C376 C 0.34895 0.28953 0.15046
 C377 C 0.37683 0.31962 0.12659
 C378 C 0.35543 0.37311 0.12648
 C379 C 0.30247 0.37258 0.10711
 C380 C 0.27457 0.34290 0.13112
 C381 C 0.32027 0.35591 0.20293
 C382 C 0.34832 0.38605 0.17891
 H383 H 0.35968 0.25079 0.15379
 H384 H 0.41118 0.30651 0.10951
 H385 H 0.28740 0.39481 0.07789
 H386 H 0.23593 0.34051 0.12234
 H387 H 0.31093 0.36190 0.23963
 H388 H 0.36310 0.41695 0.19546
 C389 C 0.80690 0.20185 -0.19625
 C390 C 0.83475 0.23190 -0.16092
 C391 C 0.86323 0.20386 -0.12906
 C392 C 0.86100 0.14875 -0.13538
 C393 C 0.80579 0.14188 -0.13331
 C394 C 0.77760 0.16978 -0.16454
 C395 C 0.84747 0.16675 -0.21850
 C396 C 0.87526 0.13896 -0.18708
 H397 H 0.83177 0.27124 -0.15967
 H398 H 0.88450 0.21944 -0.10144
 H399 H 0.78981 0.11796 -0.10866
 H400 H 0.73765 0.16969 -0.16595
 H401 H 0.85410 0.16420 -0.25614
 H402 H 0.90511 0.11265 -0.19841
 C403 C 0.80604 0.69487 0.30069
 C404 C 0.77623 0.66895 0.33720
 C405 C 0.80437 0.64284 0.36995
 C406 C 0.86019 0.64488 0.36384
 C407 C 0.87033 0.62835 0.31283
 C408 C 0.84263 0.65458 0.28015
 C409 C 0.83864 0.72585 0.33050
 C410 C 0.86706 0.69953 0.36356
 H411 H 0.73615 0.67082 0.33717
 H412 H 0.78815 0.62270 0.39764
 H413 H 0.89734 0.59859 0.30292
 H414 H 0.84655 0.64736 0.24272
 H415 H 0.83964 0.76469 0.32646
 H416 H 0.89192 0.71608 0.38738
 C417 C 0.31678 0.18841 0.29413
 C418 C 0.28324 0.17332 0.33382
 C419 C 0.30790 0.14889 0.36983
 C420 C 0.36411 0.14153 0.36328
 C421 C 0.37173 0.11642 0.31552
 C422 C 0.34756 0.14098 0.27938
 C423 C 0.35447 0.21779 0.31898
 C424 C 0.37928 0.19327 0.35525
 H425 H 0.24335 0.18184 0.33382
 H426 H 0.28910 0.13652 0.40048
 H427 H 0.39551 0.08295 0.31026
 H428 H 0.35136 0.12852 0.24324
 H429 H 0.36206 0.25403 0.30857
 H430 H 0.40739 0.20910 0.37586
 C431 C 0.30677 0.69715 -0.19759
 C432 C 0.27661 0.67255 -0.16046
 C433 C 0.30458 0.64595 -0.12801
 C434 C 0.36043 0.64641 -0.13520
 C435 C 0.36927 0.62925 -0.18620
 C436 C 0.34189 0.65597 -0.21853
 C437 C 0.34076 0.72743 -0.16861
 C438 C 0.36904 0.70062 -0.13586
 H439 H 0.23648 0.67620 -0.15954
 H440 H 0.28822 0.62689 -0.09963
 H441 H 0.39520 0.59871 -0.19643
 H442 H 0.34509 0.64850 -0.25599
 H443 H 0.34262 0.76614 -0.17278
 H444 H 0.39474 0.71653 -0.11244
 C445 C 1.18830 -0.17849 -0.21621
 C446 C 1.21676 -0.14231 -0.18841
 C447 C 1.18881 -0.11739 -0.15482
 C448 C 1.13525 -0.13106 -0.15243
 C449 C 1.11500 -0.12288 -0.20286
 C450 C 1.14289 -0.14725 -0.23605
 C451 C 1.16795 -0.21091 -0.17837
 C452 C 1.14017 -0.18609 -0.14515
 H453 H 1.25463 -0.13543 -0.19524
 H454 H 1.20312 -0.08982 -0.13284
 H455 H 1.08260 -0.09849 -0.21221
 H456 H 1.13429 -0.14332 -0.27335
 H457 H 1.17506 -0.25024 -0.17774
 H458 H 1.12354 -0.20403 -0.11617
 C459 C 1.18749 0.30389 0.29954
 C460 C 1.21901 0.31908 0.34132
 C461 C 1.19314 0.34914 0.37272
 C462 C 1.13808 0.36118 0.35949
 C463 C 1.13881 0.38181 0.30928
 C464 C 1.16446 0.35193 0.27810
 C465 C 1.14411 0.28155 0.32335
 C466 C 1.11819 0.31163 0.35410
 H467 H 1.25769 0.30629 0.34677
 H468 H 1.21012 0.36226 0.40432
 H469 H 1.12115 0.41730 0.29919
 H470 H 1.16865 0.36191 0.24148
 H471 H 1.13579 0.24432 0.31826
 H472 H 1.08763 0.30029 0.37436
 C473 C 0.68415 -0.18191 0.28983
 C474 C 0.71253 -0.14075 0.30936
 C475 C 0.68864 -0.11522 0.34502
 C476 C 0.63841 -0.13307 0.35778
 C477 C 0.60923 -0.13102 0.31130
 C478 C 0.63318 -0.15611 0.27569
 C479 C 0.67411 -0.21278 0.33304
 C480 C 0.65035 -0.18735 0.36847
 H481 H 0.74730 -0.13113 0.29546
 H482 H 0.70365 -0.08451 0.36168
 H483 H 0.57349 -0.11025 0.30636
 H484 H 0.61789 -0.15612 0.24026
 H485 H 0.68487 -0.25154 0.33554
 H486 H 0.64102 -0.20437 0.40122
 C487 C 0.69407 0.32243 -0.21500
 C488 C 0.64832 0.35294 -0.23549
 C489 C 0.61975 0.37755 -0.20283
 C490 C 0.63956 0.37063 -0.15217
 C491 C 0.64531 0.31567 -0.14403
 C492 C 0.67374 0.29049 -0.17667
 C493 C 0.72152 0.35983 -0.18758
 C494 C 0.69289 0.38497 -0.15456
 H495 H 0.64005 0.35647 -0.27289
 H496 H 0.58722 0.40151 -0.21274
 H497 H 0.62872 0.29802 -0.11486
 H498 H 0.68137 0.25122 -0.17518
 H499 H 0.75903 0.36782 -0.19456
 H500 H 0.70644 0.41349 -0.13327
 C501 C 1.19067 0.18004 -0.16634
 C502 C 1.16926 0.14130 -0.19744
 C503 C 1.14138 0.11150 -0.17384
 C504 C 1.13674 0.12298 -0.12126
 C505 C 1.19050 0.12115 -0.10298
 C506 C 1.21865 0.15093 -0.12662
 C507 C 1.14517 0.20680 -0.14223
 C508 C 1.11685 0.17683 -0.11880
 H509 H 1.17556 0.13767 -0.23502
 H510 H 1.12412 0.08247 -0.19117
 H511 H 1.20536 0.09845 -0.07401
 H512 H 1.25723 0.15361 -0.11782
 H513 H 1.13623 0.24593 -0.14334
 H514 H 1.08370 0.19025 -0.09992
 C515 C 1.18852 0.68334 0.33352
 C516 C 1.21830 0.65254 0.37104
 C517 C 1.19097 0.62290 0.39571
 C518 C 1.13614 0.62664 0.38065
 C519 C 1.11789 0.68078 0.38527
 C520 C 1.14546 0.71060 0.36071
 C521 C 1.16395 0.64627 0.30296
 C522 C 1.13695 0.61655 0.32762
 H523 H 1.25752 0.65403 0.37767
 H524 H 1.20712 0.59905 0.42330
 H525 H 1.08635 0.69446 0.40629
 H526 H 1.13752 0.74985 0.36071
 H527 H 1.16750 0.64372 0.26497
 H528 H 1.11773 0.58855 0.31074
 C529 C 0.69058 0.18796 0.33222
 C530 C 0.64876 0.21785 0.35867
 C531 C 0.62005 0.19036 0.38429
 C532 C 0.63601 0.13549 0.38128
 C533 C 0.63590 0.12352 0.32874
 C534 C 0.66430 0.15103 0.30294
 C535 C 0.71940 0.15743 0.37054
 C536 C 0.69077 0.13006 0.39635
 H537 H 0.64256 0.25723 0.35759
 H538 H 0.58936 0.20640 0.40515
 H539 H 0.61499 0.09608 0.31310
 H540 H 0.66763 0.14710 0.26503
 H541 H 0.75879 0.15775 0.37705
 H542 H 0.70571 0.10702 0.42508
 C543 C 0.68548 0.68561 -0.17096
 C544 C 0.65262 0.65939 -0.20097
 C545 C 0.62426 0.62739 -0.17583
 C546 C 0.63335 0.62726 -0.12515
 C547 C 0.68670 0.61528 -0.11962
 C548 C 0.71534 0.64740 -0.14449
 C549 C 0.65260 0.71021 -0.13572
 C550 C 0.62390 0.67793 -0.11052
 H551 H 0.64982 0.66317 -0.23900
 H552 H 0.59905 0.60517 -0.19356
 H553 H 0.70376 0.58493 -0.09902
 H554 H 0.75552 0.64325 -0.14350
 H555 H 0.64985 0.74902 -0.12890
 H556 H 0.59786 0.69042 -0.08328
 C557 C 0.80905 -0.19144 -0.17589
 C558 C 0.83248 -0.20866 -0.12818
 C559 C 0.85748 -0.17501 -0.10570
 C560 C 0.85808 -0.12710 -0.13271
 C561 C 0.87881 -0.14251 -0.18144
 C562 C 0.85341 -0.17620 -0.20388
 C563 C 0.77789 -0.14336 -0.16462
 C564 C 0.80338 -0.10993 -0.14222
 H565 H 0.83172 -0.24507 -0.11410
 H566 H 0.87687 -0.18265 -0.07254
 H567 H 0.91148 -0.12924 -0.19651
 H568 H 0.86537 -0.19179 -0.23742
 H569 H 0.73901 -0.13603 -0.17392
 H570 H 0.78618 -0.07427 -0.13246
 C571 C 0.81053 0.31711 0.32559
 C572 C 0.83698 0.29649 0.37070
 C573 C 0.86259 0.32870 0.39426
 C574 C 0.86055 0.37856 0.37059
 C575 C 0.87854 0.36770 0.31996
 C576 C 0.85238 0.33546 0.29639
 C577 C 0.77920 0.36343 0.34159
 C578 C 0.80528 0.39552 0.36502
 H579 H 0.83684 0.25913 0.38241
 H580 H 0.88370 0.31900 0.42610
 H581 H 0.90964 0.38323 0.30420
 H582 H 0.86210 0.32339 0.26110
 H583 H 0.73982 0.37063 0.33447
 H584 H 0.78818 0.43008 0.37796
 C585 C 0.30969 -0.18749 0.32848
 C586 C 0.35066 -0.16765 0.29899
 C587 C 0.37904 -0.13808 0.32376
 C588 C 0.36399 -0.13094 0.37559
 C589 C 0.30868 -0.11251 0.37356
 C590 C 0.28049 -0.14200 0.34903
 C591 C 0.33786 -0.21215 0.37083
 C592 C 0.36552 -0.18262 0.39554
 H593 H 0.35800 -0.17668 0.26246
 H594 H 0.40974 -0.12181 0.30807
 H595 H 0.29289 -0.07897 0.38966
 H596 H 0.24090 -0.13346 0.34421
 H597 H 0.33693 -0.25013 0.38013
 H598 H 0.38743 -0.19540 0.42605
 C599 C 0.30204 0.31588 -0.17505
 C600 C 0.31579 0.35547 -0.20514
 C601 C 0.34488 0.38873 -0.18097
 C602 C 0.35437 0.37639 -0.13139
 C603 C 0.30535 0.37380 -0.11128
 C604 C 0.27653 0.34107 -0.13542
 C605 C 0.34876 0.29320 -0.15553
 C606 C 0.37749 0.32648 -0.13154
 H607 H 0.30139 0.36304 -0.24040
 H608 H 0.35522 0.42168 -0.19735
 H609 H 0.28966 0.39735 -0.08351
 H610 H 0.23769 0.33951 -0.12742
 H611 H 0.36140 0.25486 -0.15920
 H612 H 0.41327 0.31523 -0.11559
 C613 C 1.19140 -0.19732 0.19982
 C614 C 1.16426 -0.15076 0.22001
 C615 C 1.13754 -0.12301 0.18766
 C616 C 1.13992 -0.14421 0.13764
 C617 C 1.19568 -0.15197 0.12669
 C618 C 1.22278 -0.17994 0.15941
 C619 C 1.15113 -0.22338 0.17430
 C620 C 1.12402 -0.19543 0.14237
 H621 H 1.16677 -0.13999 0.25665
 H622 H 1.11728 -0.08848 0.19677
 H623 H 1.21225 -0.13763 0.09569
 H624 H 1.26218 -0.18977 0.15568
 H625 H 1.14572 -0.26139 0.17947
 H626 H 1.09531 -0.20930 0.12091
 C627 C 1.19288 0.30055 0.70074
 C628 C 1.16757 0.34686 0.72320
 C629 C 1.14098 0.37679 0.69239
 C630 C 1.14170 0.35787 0.64153
 C631 C 1.19714 0.34886 0.62947
 C632 C 1.22402 0.31871 0.66059
 C633 C 1.15110 0.27700 0.67489
 C634 C 1.12419 0.30712 0.64450
 H635 H 1.17111 0.35578 0.76023
 H636 H 1.12184 0.41129 0.70318
 H637 H 1.21367 0.36408 0.59889
 H638 H 1.26316 0.30793 0.65598
 H639 H 1.14454 0.23911 0.67859
 H640 H 1.09449 0.29517 0.62299
 C641 C 0.69064 -0.18495 0.70917
 C642 C 0.63968 -0.15911 0.72281
 C643 C 0.61517 -0.13433 0.68692
 C644 C 0.64371 -0.13639 0.64059
 C645 C 0.69398 -0.11826 0.65357
 C646 C 0.71844 -0.14349 0.68955
 C647 C 0.68020 -0.21600 0.66596
 C648 C 0.65582 -0.19070 0.63028
 H649 H 0.62490 -0.15847 0.75822
 H650 H 0.57954 -0.11347 0.69166
 H651 H 0.70847 -0.08734 0.63701
 H652 H 0.75302 -0.13309 0.70380
 H653 H 0.69143 -0.25470 0.66348
 H654 H 0.64633 -0.20781 0.59749
 C655 C 0.69510 0.30485 0.19754
 C656 C 0.72652 0.32282 0.15743
 C657 C 0.69926 0.35056 0.12463
 C658 C 0.64342 0.35746 0.13530
 C659 C 0.62824 0.30596 0.13968
 C660 C 0.65548 0.27825 0.17166
 C661 C 0.66724 0.35103 0.21774
 C662 C 0.64040 0.37852 0.18535
 H663 H 0.76604 0.31358 0.15397
 H664 H 0.71578 0.36528 0.09379
 H665 H 0.59993 0.29173 0.11797
 H666 H 0.65061 0.24010 0.17668
 H667 H 0.66942 0.36178 0.25441
 H668 H 0.61970 0.41283 0.19445
 C669 C 0.82066 0.18783 0.20803
 C670 C 0.78759 0.17467 0.16664
 C671 C 0.81227 0.14873 0.13197
 C672 C 0.86795 0.13824 0.14175
 C673 C 0.88630 0.18841 0.15039
 C674 C 0.86145 0.21454 0.18523
 C675 C 0.84774 0.13929 0.22470
 C676 C 0.87159 0.11321 0.19012
 H677 H 0.74809 0.18546 0.16460
 H678 H 0.79381 0.13735 0.10043
 H679 H 0.91648 0.20192 0.13120
 H680 H 0.87099 0.25004 0.19606
 H681 H 0.84937 0.12694 0.26102
 H682 H 0.89242 0.07830 0.19706
 C683 C 0.80665 0.69610 0.70237
 C684 C 0.83102 0.72660 0.66523
 C685 C 0.86039 0.69910 0.63411
 C686 C 0.86267 0.64387 0.64281
 C687 C 0.87906 0.63740 0.69462
 C688 C 0.85010 0.66459 0.72540
 C689 C 0.77929 0.66038 0.67249
 C690 C 0.80847 0.63296 0.64213
 H691 H 0.82500 0.76581 0.66223
 H692 H 0.87943 0.71510 0.60547
 H693 H 0.91112 0.61379 0.70637
 H694 H 0.85782 0.66413 0.76299
 H695 H 0.73976 0.65757 0.67430
 H696 H 0.79377 0.60671 0.61882
 C697 C 0.32225 0.18580 0.71249
 C698 C 0.28822 0.17145 0.67234
 C699 C 0.31233 0.14673 0.63665
 C700 C 0.36848 0.13835 0.64402
 C701 C 0.38473 0.18966 0.65232
 C702 C 0.36052 0.21446 0.68826
 C703 C 0.35217 0.13786 0.72768
 C704 C 0.37579 0.11297 0.69183
 H705 H 0.24840 0.18054 0.67185
 H706 H 0.29315 0.13471 0.60577
 H707 H 0.41323 0.20497 0.63224
 H708 H 0.36903 0.25035 0.69897
 H709 H 0.35590 0.12532 0.76388
 H710 H 0.39901 0.07912 0.69735
 C711 C 0.31877 0.68618 0.20978
 C712 C 0.34709 0.63843 0.22705
 C713 C 0.37160 0.61232 0.19280
 C714 C 0.36730 0.63651 0.14404
 C715 C 0.31147 0.64553 0.13432
 C716 C 0.28618 0.67148 0.16865
 C717 C 0.35875 0.71357 0.18644
 C718 C 0.38423 0.68743 0.15193
 H719 H 0.34894 0.62661 0.26353
 H720 H 0.39326 0.57798 0.20022
 H721 H 0.29330 0.63312 0.10304
 H722 H 0.24651 0.68127 0.16652
 H723 H 0.36727 0.74960 0.19664
 H724 H 0.41395 0.70144 0.13247
   
