data_POSCAR
  _audit_creation_date              2014-09-24
  _audit_creation_method            'ToBaCCo'
  _symmetry_space_group_name_H-M    'P1'
  _symmetry_Int_Tables_number       1
  _symmetry_cell_setting            triclinic
  loop_
  _symmetry_equiv_pos_as_xyz
 x,y,z
_cell_length_a 30.7730
_cell_length_b 31.3136
_cell_length_c 42.0391
_cell_angle_alpha 93.237400
_cell_angle_beta 88.582500
_cell_angle_gamma 68.138900
loop_
  _atom_site_label
  _atom_site_type_symbol
  _atom_site_fract_x
  _atom_site_fract_y
  _atom_site_fract_z
C1 C -0.02422 0.50544 0.98552
 C2 C -0.02791 0.51357 1.01789
 C3 C -0.01484 0.55023 1.03403
 C4 C -0.03928 0.48151 1.03823
 C5 C -0.02185 0.46030 0.97108
 C6 C -0.01616 0.53797 0.96396
 C7 C 0.02811 0.55369 1.02620
 C8 C 0.04104 0.58750 1.04151
 C9 C 0.01198 0.61875 1.06615
 C10 C -0.03116 0.61406 1.07404
 C11 C -0.04408 0.58029 1.05831
 C12 C -0.00584 0.45441 1.05833
 C13 C -0.01247 0.41783 1.07255
 C14 C -0.05274 0.40795 1.06693
 C15 C -0.08757 0.43720 1.04853
 C16 C -0.08096 0.47374 1.03441
 C17 C -0.05892 0.45655 0.95396
 C18 C -0.05819 0.41301 0.94347
 C19 C -0.02009 0.37275 0.94968
 C20 C 0.01779 0.37715 0.96569
 C21 C 0.01680 0.42043 0.97637
 C22 C -0.04569 0.58481 0.96612
 C23 C -0.03537 0.61594 0.94767
 C24 C 0.00482 0.60071 0.92700
 C25 C 0.03334 0.55361 0.92406
 C26 C 0.02271 0.52245 0.94217
 H27 H 0.05191 0.53011 1.00800
 H28 H 0.07328 0.58947 1.03244
 H29 H -0.05470 0.63455 1.09339
 H30 H -0.07699 0.57748 1.06526
 H31 H 0.02665 0.45977 1.06140
 H32 H 0.01508 0.39576 1.08646
 H33 H -0.10732 0.49463 1.01919
 H34 H -0.08905 0.48713 0.94981
 H35 H -0.08800 0.41083 0.93134
 H36 H 0.04830 0.34708 0.97007
 H37 H 0.04588 0.42291 0.98931
 H38 H -0.07608 0.59737 0.98261
 H39 H -0.05777 0.65214 0.95040
 H40 H 0.06427 0.54103 0.90805
 H41 H 0.04596 0.48650 0.94009
 H42 H -0.11936 0.43099 1.04432
 C43 C 0.50356 0.00864 0.48578
 C44 C 0.50010 0.00773 0.51802
 C45 C 0.46455 -0.00611 0.53440
 C46 C 0.53305 0.02004 0.53825
 C47 C 0.54194 0.01865 0.47004
 C48 C 0.46953 0.00028 0.46464
 C49 C 0.43745 0.02128 0.56070
 C50 C 0.40513 0.00784 0.57712
 C51 C 0.39910 -0.03331 0.56754
 C52 C 0.42649 -0.06076 0.54122
 C53 C 0.45927 -0.04762 0.52514
 C54 C 0.53319 0.06483 0.53946
 C55 C 0.56761 0.07503 0.55565
 C56 C 0.60261 0.04056 0.57085
 C57 C 0.60109 -0.00384 0.57063
 C58 C 0.56642 -0.01391 0.55460
 C59 C 0.58851 -0.01253 0.47046
 C60 C 0.62484 -0.00198 0.45681
 C61 C 0.61512 0.04011 0.44283
 C62 C 0.56837 0.07099 0.44215
 C63 C 0.53202 0.06014 0.45541
 C64 C 0.48325 -0.04056 0.44500
 C65 C 0.45227 -0.04804 0.42375
 C66 C 0.40747 -0.01390 0.42069
 C67 C 0.39395 0.02714 0.44062
 C68 C 0.42458 0.03392 0.46262
 H69 H 0.44144 0.05308 0.56862
 H70 H 0.38550 0.02936 0.59768
 H71 H 0.42261 -0.09244 0.53293
 H72 H 0.48099 -0.07031 0.50575
 H73 H 0.50729 0.09154 0.52720
 H74 H 0.56715 0.10979 0.55592
 H75 H 0.56680 -0.04868 0.55377
 H76 H 0.59663 -0.04477 0.48162
 H77 H 0.66061 -0.02622 0.45775
 H78 H 0.55999 0.10343 0.43122
 H79 H 0.49623 0.08453 0.45492
 H80 H 0.51792 -0.06686 0.44637
 H81 H 0.46370 -0.08067 0.40972
 H82 H 0.36028 0.05466 0.43871
 H83 H 0.41381 0.06594 0.47740
 H84 H 0.62776 -0.03134 0.58175
 C85 C 0.10002 0.00324 0.24759
 H86 H 0.09734 0.00258 0.22196
 C87 C 0.14328 -0.00460 0.26060
 H88 H 0.17321 -0.00986 0.24462
 C89 C 0.06351 0.01207 0.29908
 H90 H 0.03229 0.01843 0.31397
 C91 C 0.10646 0.00334 0.31314
 H92 H 0.10769 0.00250 0.33881
 N93 N 0.06115 0.01150 0.26680
 C94 C -0.02210 -0.03977 0.20350
 H95 H -0.05475 -0.01085 0.20259
 C96 C -0.01527 -0.08054 0.18503
 H97 H -0.04232 -0.08167 0.16941
 C98 C 0.05230 -0.07385 0.22505
 H99 H 0.07826 -0.07190 0.24122
 C100 C 0.06039 -0.11528 0.20728
 H101 H 0.09262 -0.14437 0.21006
 Zn102 Zn 0.00421 0.01956 0.24662
 N103 N 0.01205 -0.03660 0.22238
 C104 C -0.05004 0.08169 0.20299
 N105 N -0.01035 0.06992 0.21964
 C106 C 0.01817 0.09421 0.21776
 C107 C 0.00863 0.12999 0.19739
 C108 C -0.06102 0.11736 0.18244
 C109 C -0.04655 -0.00284 0.29506
 C110 C -0.08333 0.00485 0.31758
 C111 C -0.11651 0.08415 0.30396
 C112 C -0.07904 0.07500 0.28186
 N113 N -0.04522 0.03199 0.27766
 H114 H -0.07392 0.06419 0.20610
 H115 H 0.04842 0.08621 0.23205
 H116 H 0.03266 0.14779 0.19564
 H117 H -0.09291 0.12616 0.16960
 H118 H -0.01907 -0.03669 0.29131
 H119 H -0.08355 -0.02323 0.33137
 H120 H -0.14360 0.11837 0.30631
 H121 H -0.07712 0.10232 0.26800
 C122 C 0.02678 -0.11886 0.18643
 C123 C 0.14729 -0.00540 0.29382
 C124 C -0.11913 0.04882 0.32215
 C125 C -0.03115 0.14166 0.17908
 C126 C -0.01306 0.07135 0.77632
 H127 H -0.01269 0.07751 0.75127
 C128 C -0.01556 0.10627 0.79937
 H129 H -0.01615 0.13875 0.79148
 C130 C -0.00942 0.02017 0.81639
 H131 H -0.00615 -0.01361 0.82307
 C132 C -0.01356 0.05449 0.84020
 H133 H -0.01493 0.04654 0.86481
 N134 N -0.00871 0.02889 0.78511
 C135 C 0.06766 -0.06280 0.70304
 H136 H 0.04531 -0.08190 0.69826
 C137 C 0.10873 -0.07271 0.68425
 H138 H 0.11761 -0.09917 0.66482
 C139 C 0.08353 -0.00548 0.73439
 H140 H 0.07442 0.01987 0.75440
 C141 C 0.12459 -0.01385 0.71592
 H142 H 0.14648 0.00541 0.72181
 Zn143 Zn -0.00027 -0.01882 0.75289
 N144 N 0.05569 -0.02956 0.72755
 C145 C -0.04650 0.00396 0.69502
 N146 N -0.05296 0.00037 0.72676
 C147 C -0.09684 0.01206 0.74034
 C148 C -0.13599 0.02576 0.72163
 C149 C -0.08459 0.01770 0.67549
 C150 C 0.04821 -0.11024 0.76935
 C151 C 0.05589 -0.15010 0.78523
 C152 C -0.02352 -0.11640 0.80745
 C153 C -0.02998 -0.07738 0.79063
 N154 N 0.00589 -0.07456 0.77234
 H155 H -0.01188 -0.00347 0.68461
 H156 H -0.10171 0.01153 0.76579
 H157 H -0.17060 0.03484 0.73285
 H158 H -0.07842 0.01928 0.65019
 H159 H 0.07689 -0.10754 0.75548
 H160 H 0.08990 -0.17789 0.78219
 H161 H -0.05193 -0.11678 0.82298
 H162 H -0.06300 -0.04855 0.79356
 C163 C 0.13765 -0.04794 0.69057
 C164 C -0.01530 0.09803 0.83197
 C165 C 0.02017 -0.15326 0.80525
 C166 C -0.13003 0.02844 0.68869
 C167 C 0.00689 -0.27655 0.11476
 C168 C 0.05286 -0.28106 0.11194
 C169 C 0.08687 -0.31798 0.09490
 C170 C 0.07304 -0.35168 0.07991
 C171 C 0.02519 -0.34833 0.08156
 C172 C -0.00799 -0.30936 0.09988
 O173 O -0.01992 -0.23876 0.13225
 C174 C 0.01002 -0.21913 0.14065
 C175 C 0.05501 -0.24365 0.12875
 C176 C 0.09192 -0.22929 0.13433
 C177 C 0.08211 -0.18803 0.15312
 C178 C 0.03604 -0.16214 0.16616
 C179 C -0.00053 -0.17811 0.15959
 H180 H 0.12313 -0.32117 0.09352
 H181 H 0.10105 -0.38115 0.06845
 H182 H -0.04504 -0.30254 0.10172
 H183 H 0.12699 -0.24902 0.12445
 H184 H 0.11041 -0.17605 0.15716
 H185 H -0.03597 -0.15966 0.16929
 C186 C -0.04530 0.30971 0.11781
 C187 C -0.06112 0.28358 0.09723
 C188 C -0.07540 0.29644 0.06693
 C189 C -0.07317 0.33785 0.05742
 C190 C -0.05686 0.36548 0.07816
 C191 C -0.04280 0.35101 0.10886
 O192 O -0.03260 0.29089 0.14529
 C193 C -0.04046 0.25201 0.14194
 C194 C -0.05792 0.24590 0.11298
 C195 C -0.06783 0.20712 0.10428
 C196 C -0.05928 0.17319 0.12632
 C197 C -0.04116 0.17853 0.15642
 C198 C -0.03185 0.21883 0.16423
 H199 H -0.08729 0.27509 0.05102
 H200 H -0.08307 0.34779 0.03359
 H201 H -0.03019 0.37121 0.12525
 H202 H -0.08119 0.20289 0.08123
 H203 H -0.06587 0.14234 0.11961
 H204 H -0.01840 0.22434 0.18701
 C205 C 0.29135 -0.02943 0.61523
 C206 C 0.30184 -0.07562 0.61840
 C207 C 0.34323 -0.10961 0.60574
 C208 C 0.37510 -0.09541 0.58914
 C209 C 0.36498 -0.04789 0.58519
 C210 C 0.32219 -0.01457 0.59852
 O211 O 0.25055 -0.00262 0.62948
 C212 C 0.23492 -0.03253 0.64190
 C213 C 0.26484 -0.07769 0.63568
 C214 C 0.25507 -0.11458 0.64631
 C215 C 0.21278 -0.10448 0.66413
 C216 C 0.18161 -0.05812 0.67118
 C217 C 0.19300 -0.02170 0.65983
 H218 H 0.35096 -0.14575 0.60880
 H219 H 0.40794 -0.12150 0.57986
 H220 H 0.31281 0.02188 0.59578
 H221 H 0.27914 -0.14985 0.64111
 H222 H 0.20466 -0.13264 0.67289
 H223 H 0.16974 0.01398 0.66461
 C224 C -0.30012 0.03732 0.62533
 C225 C -0.28150 0.06481 0.61010
 C226 C -0.29956 0.08612 0.58262
 C227 C -0.33823 0.07857 0.57022
 C228 C -0.35814 0.05019 0.58539
 C229 C -0.33876 0.02961 0.61357
 O230 O -0.27661 0.01879 0.65036
 C231 C -0.24232 0.03485 0.65090
 C232 C -0.24375 0.06321 0.62681
 C233 C -0.21018 0.08244 0.62226
 C234 C -0.17338 0.07162 0.64321
 C235 C -0.17073 0.04194 0.66806
 C236 C -0.20619 0.02380 0.67208
 H237 H -0.28388 0.10707 0.57079
 H238 H -0.35170 0.09379 0.54827
 H239 H -0.35297 0.00787 0.62584
 H240 H -0.21192 0.10450 0.60302
 H241 H -0.14686 0.08621 0.64000
 H242 H -0.20478 0.00042 0.69039
 C243 C 0.00036 -0.30099 0.87722
 C244 C 0.04572 -0.30327 0.87904
 C245 C 0.07919 -0.33600 0.89569
 C246 C 0.06532 -0.36774 0.91113
 C247 C 0.01862 -0.36594 0.90990
 C248 C -0.01436 -0.33190 0.89273
 O249 O -0.02573 -0.26742 0.85993
 C250 C 0.00381 -0.24800 0.85078
 C251 C 0.04787 -0.26857 0.86195
 C252 C 0.08401 -0.25334 0.85573
 C253 C 0.07442 -0.21536 0.83718
 C254 C 0.02940 -0.19366 0.82482
 C255 C -0.00639 -0.21049 0.83191
 H256 H 0.11467 -0.33706 0.89677
 H257 H 0.09071 -0.39330 0.92448
 H258 H -0.05015 -0.32988 0.89129
 H259 H 0.11826 -0.26979 0.86514
 H260 H 0.10202 -0.20248 0.83297
 H261 H -0.04103 -0.19521 0.82284
 C262 C -0.03271 0.27256 0.90121
 C263 C -0.01153 0.23724 0.92041
 C264 C 0.00521 0.24409 0.94986
 C265 C 0.00069 0.28912 0.95972
 C266 C -0.01947 0.32615 0.93989
 C267 C -0.03714 0.31761 0.91038
 O268 O -0.04526 0.25836 0.87382
 C269 C -0.03133 0.21305 0.87572
 C270 C -0.01027 0.19843 0.90366
 C271 C 0.00948 0.15222 0.90981
 C272 C 0.00755 0.11964 0.88617
 C273 C -0.01479 0.13353 0.85713
 C274 C -0.03480 0.18135 0.85219
 H275 H 0.02152 0.21573 0.96462
 H276 H 0.01325 0.29501 0.98275
 H277 H -0.05218 0.34476 0.89445
 H278 H 0.02693 0.14150 0.93168
 H279 H 0.02479 0.08358 0.89037
 H280 H -0.05235 0.19382 0.83068
 C281 C -0.27585 0.03241 0.39567
 C282 C -0.27509 0.07540 0.40338
 C283 C -0.30889 0.10823 0.42379
 C284 C -0.34497 0.09625 0.43672
 C285 C -0.34638 0.05202 0.42924
 C286 C -0.31106 0.01961 0.40852
 O287 O -0.24133 0.00683 0.37509
 C288 C -0.21820 0.03422 0.36973
 C289 C -0.23729 0.07649 0.38653
 C290 C -0.21891 0.11062 0.38410
 C291 C -0.17946 0.10090 0.36332
 C292 C -0.15943 0.05775 0.34527
 C293 C -0.17916 0.02389 0.34886
 H294 H -0.30773 0.14194 0.42937
 H295 H -0.37162 0.12122 0.45273
 H296 H -0.31158 -0.01416 0.40207
 H297 H -0.23447 0.14361 0.39761
 H298 H -0.16452 0.12700 0.36139
 H299 H -0.16543 -0.00907 0.33516
 C300 C 0.29827 -0.00692 0.37727
 C301 C 0.31816 -0.03405 0.34991
 C302 C 0.36629 -0.05492 0.34393
 C303 C 0.39521 -0.04768 0.36717
 C304 C 0.37586 -0.02073 0.39619
 C305 C 0.32634 -0.00010 0.40108
 O306 O 0.25174 0.01110 0.37768
 C307 C 0.24214 -0.00521 0.34999
 C308 C 0.28157 -0.03329 0.33226
 C309 C 0.27972 -0.05438 0.30266
 C310 C 0.23539 -0.04585 0.29065
 C311 C 0.19386 -0.01576 0.30789
 C312 C 0.19765 0.00448 0.33826
 H313 H 0.38109 -0.07541 0.32190
 H314 H 0.43269 -0.06255 0.36208
 H315 H 0.30989 0.02038 0.42279
 H316 H 0.31129 -0.07683 0.28934
 H317 H 0.23367 -0.06304 0.26793
 H318 H 0.16714 0.02794 0.35209
   
