data_POSCAR
  _audit_creation_date              2014-09-24
  _audit_creation_method            'ToBaCCo'
  _symmetry_space_group_name_H-M    'P1'
  _symmetry_Int_Tables_number       1
  _symmetry_cell_setting            triclinic
  loop_
  _symmetry_equiv_pos_as_xyz
 x,y,z
_cell_length_a 25.0636
_cell_length_b 25.3068
_cell_length_c 24.4938
_cell_angle_alpha 92.618300
_cell_angle_beta 91.817900
_cell_angle_gamma 88.654700
loop_
  _atom_site_label
  _atom_site_type_symbol
  _atom_site_fract_x
  _atom_site_fract_y
  _atom_site_fract_z
C1 C 0.30565 0.34576 0.22340
 H2 H 0.30581 0.35444 0.26691
 C3 C 0.33851 0.37422 0.19086
 H4 H 0.36400 0.40435 0.20964
 C5 C 0.27176 0.29734 0.14538
 H6 H 0.24531 0.26802 0.12727
 C7 C 0.30455 0.32421 0.11153
 H8 H 0.30370 0.31455 0.06797
 N9 N 0.27344 0.30766 0.20047
 C10 C 0.15961 0.28521 0.32829
 H11 H 0.16573 0.24317 0.33292
 C12 C 0.12582 0.31417 0.36315
 H13 H 0.10552 0.29450 0.39464
 C14 C 0.17885 0.36240 0.28171
 H15 H 0.19961 0.38084 0.24985
 C16 C 0.14550 0.39296 0.31595
 H17 H 0.14049 0.43503 0.31047
 Zn18 Zn 0.23179 0.26640 0.24597
 N19 N 0.18522 0.30956 0.28857
 C20 C 0.28001 0.17625 0.29451
 N21 N 0.27724 0.23008 0.29607
 C22 C 0.30495 0.25916 0.33512
 C23 C 0.33918 0.23430 0.37258
 C24 C 0.31396 0.14988 0.33083
 C25 C 0.13708 0.21927 0.20198
 C26 C 0.10716 0.18194 0.17136
 C27 C 0.18931 0.14152 0.13913
 C28 C 0.21765 0.17963 0.17023
 N29 N 0.19141 0.21698 0.20167
 H30 H 0.25593 0.15337 0.26540
 H31 H 0.30006 0.30166 0.33775
 H32 H 0.36162 0.25773 0.40302
 H33 H 0.31676 0.10705 0.32837
 H34 H 0.11681 0.24979 0.22625
 H35 H 0.06398 0.18352 0.17249
 H36 H 0.21064 0.11132 0.11521
 H37 H 0.26083 0.17902 0.17000
 C38 C 0.11872 0.36857 0.35703
 C39 C 0.33806 0.36349 0.13421
 C40 C 0.13352 0.14201 0.14040
 C41 C 0.34464 0.17910 0.36962
 C42 C 0.82417 0.84183 0.22224
 H43 H 0.82471 0.85293 0.26543
 C44 C 0.85608 0.86839 0.18726
 H45 H 0.88121 0.89983 0.20395
 C46 C 0.79151 0.78676 0.14838
 H47 H 0.76584 0.75536 0.13319
 C48 C 0.82393 0.81119 0.11225
 H49 H 0.82229 0.79873 0.06932
 N50 N 0.79273 0.80178 0.20243
 C51 C 0.67303 0.79217 0.32784
 H52 H 0.67223 0.75000 0.33197
 C53 C 0.63791 0.82476 0.35769
 H54 H 0.61077 0.80747 0.38507
 C55 C 0.70661 0.86608 0.28504
 H56 H 0.73200 0.88214 0.25551
 C57 C 0.67271 0.90023 0.31481
 H58 H 0.67312 0.94236 0.30884
 Zn59 Zn 0.75064 0.76513 0.25080
 N60 N 0.70650 0.81303 0.29221
 C61 C 0.77225 0.68919 0.32897
 N62 N 0.79534 0.72584 0.29891
 C63 C 0.84902 0.73328 0.30236
 C64 C 0.88130 0.70447 0.33841
 C65 C 0.80294 0.65985 0.36570
 C66 C 0.65393 0.73100 0.20125
 C67 C 0.61991 0.69596 0.17270
 C68 C 0.69442 0.63437 0.16144
 C69 C 0.72707 0.67054 0.19048
 N70 N 0.70628 0.71759 0.20999
 H71 H 0.73012 0.68187 0.32375
 H72 H 0.86708 0.76139 0.27723
 H73 H 0.92393 0.71070 0.34102
 H74 H 0.78415 0.63074 0.38938
 H75 H 0.63849 0.76892 0.21642
 H76 H 0.57819 0.70674 0.16623
 H77 H 0.71100 0.59679 0.14636
 H78 H 0.76892 0.66107 0.19783
 C79 C 0.63715 0.87933 0.35076
 C80 C 0.85766 0.85192 0.13174
 C81 C 0.64014 0.64693 0.15305
 C82 C 0.85795 0.66792 0.37102
 C83 C 0.83955 0.32358 0.74273
 H84 H 0.84309 0.32718 0.78688
 C85 C 0.86846 0.35680 0.71104
 H86 H 0.89406 0.38632 0.73076
 C87 C 0.80078 0.28183 0.66294
 H88 H 0.77472 0.25239 0.64418
 C89 C 0.82899 0.31403 0.62981
 H90 H 0.82387 0.30980 0.58576
 N91 N 0.80517 0.28821 0.71836
 C92 C 0.68384 0.26897 0.84014
 H93 H 0.68396 0.22626 0.84095
 C94 C 0.64881 0.29926 0.87270
 H95 H 0.62237 0.27995 0.89927
 C96 C 0.71790 0.34645 0.80440
 H97 H 0.74409 0.36472 0.77700
 C98 C 0.68342 0.37825 0.83629
 H99 H 0.68403 0.42089 0.83424
 Zn100 Zn 0.76220 0.24790 0.76280
 N101 N 0.71802 0.29283 0.80741
 C102 C 0.80826 0.20904 0.86159
 N103 N 0.80772 0.20443 0.80608
 C104 C 0.83888 0.16752 0.77965
 C105 C 0.86827 0.13014 0.80895
 C106 C 0.83817 0.17328 0.89269
 C107 C 0.67874 0.23113 0.68621
 C108 C 0.64229 0.20269 0.65290
 C109 C 0.68069 0.12163 0.68689
 C110 C 0.71632 0.15161 0.71973
 N111 N 0.71525 0.20537 0.71827
 H112 H 0.78452 0.23971 0.88197
 H113 H 0.83938 0.16596 0.73545
 H114 H 0.89281 0.10138 0.78651
 H115 H 0.83535 0.17673 0.93673
 H116 H 0.67812 0.27390 0.68651
 H117 H 0.61354 0.22351 0.62733
 H118 H 0.68182 0.07889 0.68826
 H119 H 0.74421 0.13173 0.74671
 C120 C 0.64866 0.35448 0.87096
 C121 C 0.86207 0.35297 0.65398
 C122 C 0.64312 0.14734 0.65330
 C123 C 0.86668 0.13088 0.86657
 C124 C 0.34414 0.83412 0.71492
 H125 H 0.34198 0.84169 0.75863
 C126 C 0.36913 0.87011 0.68330
 H127 H 0.38552 0.90560 0.70297
 C128 C 0.32347 0.77967 0.63626
 H129 H 0.30502 0.74460 0.61812
 C130 C 0.35084 0.81308 0.60353
 H131 H 0.35438 0.80277 0.56039
 N132 N 0.31944 0.79146 0.69070
 C133 C 0.20024 0.77081 0.81391
 H134 H 0.20085 0.72836 0.81606
 C135 C 0.16789 0.80138 0.84893
 H136 H 0.14396 0.78210 0.87789
 C137 C 0.22785 0.84759 0.77198
 H138 H 0.24911 0.86566 0.74041
 C139 C 0.19693 0.87978 0.80706
 H140 H 0.19631 0.92227 0.80332
 Zn141 Zn 0.27664 0.74961 0.73348
 N142 N 0.23085 0.79421 0.77744
 C143 C 0.29789 0.66705 0.80489
 N144 N 0.32085 0.70718 0.77966
 C145 C 0.37370 0.71740 0.78807
 C146 C 0.40494 0.68806 0.82478
 C147 C 0.32768 0.63650 0.84123
 C148 C 0.18663 0.72899 0.66699
 C149 C 0.14810 0.69815 0.63929
 C150 C 0.20490 0.62091 0.65217
 C151 C 0.24253 0.65328 0.67948
 N152 N 0.23213 0.70606 0.68758
 H153 H 0.25634 0.65845 0.79670
 H154 H 0.39154 0.74896 0.76727
 H155 H 0.44652 0.69745 0.83238
 H156 H 0.30868 0.60498 0.86131
 H157 H 0.17940 0.77102 0.67395
 H158 H 0.11117 0.71644 0.62467
 H159 H 0.21253 0.57867 0.64744
 H160 H 0.27930 0.63601 0.69547
 C161 C 0.16768 0.85672 0.84715
 C162 C 0.37131 0.86067 0.62647
 C163 C 0.15669 0.64340 0.63291
 C164 C 0.38142 0.64792 0.85270
 Si165 Si 0.00697 -0.02280 -0.00321
 Si166 Si -0.01908 0.50870 0.51452
 Si167 Si 0.48928 0.02353 0.49379
 Si168 Si 0.49574 0.49576 0.01222
 C169 C 0.13994 -0.11624 -0.05646
 C170 C 0.13583 -0.11006 -0.11369
 C171 C 0.09873 -0.07332 -0.13440
 C172 C 0.06339 -0.04586 -0.10015
 C173 C 0.06214 -0.05584 -0.04441
 C174 C 0.10207 -0.09013 -0.02169
 C175 C 0.18129 -0.14758 -0.03299
 C176 C 0.18357 -0.15560 0.02290
 C177 C 0.14506 -0.13248 0.05644
 C178 C 0.10488 -0.10012 0.03452
 H179 H 0.21262 -0.16560 -0.05736
 H180 H 0.21526 -0.18001 0.04022
 H181 H 0.14653 -0.13931 0.09977
 H182 H 0.07613 -0.08358 0.06215
 H183 H 0.09596 -0.06693 -0.17784
 H184 H 0.03572 -0.01781 -0.11819
 C185 C 0.02707 0.40123 0.38515
 C186 C 0.08313 0.39981 0.39362
 C187 C 0.10612 0.42747 0.43863
 C188 C 0.07467 0.45767 0.47452
 C189 C 0.01917 0.46243 0.46595
 C190 C -0.00537 0.43233 0.42178
 C191 C 0.00264 0.37257 0.34067
 C192 C -0.05263 0.37389 0.33264
 C193 C -0.08444 0.40372 0.36848
 C194 C -0.06123 0.43262 0.41247
 H195 H 0.02598 0.34895 0.31179
 H196 H -0.07086 0.35166 0.29844
 H197 H -0.12738 0.40464 0.36209
 H198 H -0.08764 0.45518 0.43861
 H199 H 0.14895 0.42547 0.44619
 H200 H 0.09453 0.47722 0.50932
 C201 C 0.55902 -0.05487 0.35368
 C202 C 0.59863 -0.08588 0.38069
 C203 C 0.60075 -0.08561 0.43769
 C204 C 0.56624 -0.05351 0.46830
 C205 C 0.52897 -0.01935 0.44343
 C206 C 0.52337 -0.02157 0.38505
 C207 C 0.55276 -0.05802 0.29604
 C208 C 0.51313 -0.02859 0.26947
 C209 C 0.47807 0.00329 0.29963
 C210 C 0.48255 0.00618 0.35650
 H211 H 0.57757 -0.08395 0.27082
 H212 H 0.50892 -0.03139 0.22532
 H213 H 0.44645 0.02517 0.27890
 H214 H 0.45221 0.02902 0.37664
 H215 H 0.62996 -0.11016 0.45884
 H216 H 0.56990 -0.05459 0.51242
 C217 C 0.63051 0.40216 -0.03838
 C218 C 0.61403 0.38728 -0.09255
 C219 C 0.56275 0.40142 -0.11152
 C220 C 0.52850 0.43187 -0.07847
 C221 C 0.54457 0.45006 -0.02567
 C222 C 0.59495 0.43206 -0.00382
 C223 C 0.68149 0.38683 -0.01756
 C224 C 0.69659 0.39878 0.03669
 C225 C 0.66101 0.42510 0.07136
 C226 C 0.61064 0.44099 0.05169
 H227 H 0.70989 0.36508 -0.04283
 H228 H 0.73566 0.38655 0.05219
 H229 H 0.67226 0.43279 0.11397
 H230 H 0.58414 0.45839 0.08132
 H231 H 0.54919 0.38891 -0.15241
 H232 H 0.48916 0.44197 -0.09489
 C233 C -0.10426 0.03820 -0.12126
 C234 C -0.10688 0.09310 -0.10405
 C235 C -0.08012 0.10844 -0.05462
 C236 C -0.04706 0.07334 -0.02664
 C237 C -0.03909 0.02090 -0.04589
 C238 C -0.06972 0.00233 -0.09246
 C239 C -0.13948 0.01683 -0.16261
 C240 C -0.13710 -0.03657 -0.17886
 C241 C -0.10114 -0.07051 -0.15319
 C242 C -0.06844 -0.05158 -0.11006
 H243 H -0.17072 0.04051 -0.18150
 H244 H -0.16398 -0.05185 -0.21095
 H245 H -0.09956 -0.11208 -0.16577
 H246 H -0.04278 -0.07997 -0.09050
 H247 H -0.08133 0.14912 -0.03884
 H248 H -0.02766 0.08812 0.01080
 C249 C -0.11510 0.63970 0.46612
 C250 C -0.10901 0.63604 0.40881
 C251 C -0.07291 0.59898 0.38623
 C252 C -0.04558 0.56328 0.41891
 C253 C -0.05403 0.56271 0.47520
 C254 C -0.08714 0.60306 0.49979
 C255 C -0.14837 0.67922 0.49063
 C256 C -0.15466 0.68220 0.54700
 C257 C -0.12806 0.64609 0.57988
 C258 C -0.09471 0.60694 0.55670
 H259 H -0.16938 0.70837 0.46656
 H260 H -0.18033 0.71267 0.56526
 H261 H -0.13333 0.64835 0.62363
 H262 H -0.07564 0.57968 0.58387
 H263 H -0.06707 0.59658 0.34253
 H264 H -0.01821 0.53551 0.39924
 C265 C 0.43860 0.15221 0.39967
 C266 C 0.38268 0.15109 0.40604
 C267 C 0.36183 0.11809 0.44388
 C268 C 0.39492 0.08373 0.47270
 C269 C 0.44982 0.08024 0.46372
 C270 C 0.47270 0.11707 0.42937
 C271 C 0.46116 0.18570 0.36240
 C272 C 0.51608 0.18557 0.35539
 C273 C 0.54946 0.15170 0.38457
 C274 C 0.52818 0.11757 0.42082
 H275 H 0.43677 0.21207 0.33809
 H276 H 0.53278 0.21159 0.32683
 H277 H 0.59208 0.15138 0.37859
 H278 H 0.55580 0.09127 0.44104
 H279 H 0.31915 0.11745 0.44954
 H280 H 0.37664 0.05808 0.50041
 C281 C 0.39445 0.61725 -0.05072
 C282 C 0.41187 0.61844 -0.10507
 C283 C 0.45709 0.58856 -0.12027
 C284 C 0.48260 0.55468 -0.08393
 C285 C 0.46279 0.54811 -0.03179
 C286 C 0.41944 0.58147 -0.01400
 C287 C 0.35274 0.65137 -0.03201
 C288 C 0.33452 0.64897 0.02089
 C289 C 0.35753 0.61293 0.05617
 C290 C 0.39947 0.57974 0.03906
 H291 H 0.33428 0.68067 -0.05775
 H292 H 0.30240 0.67518 0.03454
 H293 H 0.34303 0.61083 0.09716
 H294 H 0.41546 0.55271 0.06785
 H295 H 0.47188 0.59030 -0.16122
 H296 H 0.51774 0.53301 -0.09745
 C297 C -0.07279 -0.15196 0.06114
 C298 C -0.10844 -0.12328 0.09638
 C299 C -0.11092 -0.06794 0.09542
 C300 C -0.07925 -0.04093 0.06109
 C301 C -0.04194 -0.06773 0.02791
 C302 C -0.04113 -0.12414 0.02480
 C303 C -0.06517 -0.20744 0.06367
 C304 C -0.03184 -0.23540 0.02771
 C305 C -0.00534 -0.20892 -0.01131
 C306 C -0.00997 -0.15409 -0.01290
 H307 H -0.08395 -0.22984 0.09397
 H308 H -0.02701 -0.27789 0.02979
 H309 H 0.01930 -0.23093 -0.04033
 H310 H 0.00988 -0.13651 -0.04524
 H311 H -0.13825 -0.04514 0.12116
 H312 H -0.08170 0.00192 0.06323
 C313 C -0.14395 0.42899 0.59027
 C314 C -0.11298 0.39152 0.61949
 C315 C -0.05774 0.38880 0.61366
 C316 C -0.03274 0.42299 0.58014
 C317 C -0.06191 0.46139 0.55130
 C318 C -0.11880 0.46246 0.55383
 C319 C -0.19976 0.43373 0.59664
 C320 C -0.23074 0.46817 0.56551
 C321 C -0.20702 0.49767 0.52691
 C322 C -0.15196 0.49447 0.52071
 H323 H -0.22000 0.41097 0.62571
 H324 H -0.27347 0.47110 0.57052
 H325 H -0.23145 0.52294 0.50127
 H326 H -0.13693 0.51555 0.48797
 H327 H -0.03370 0.35996 0.63541
 H328 H 0.01037 0.42039 0.57809
 C329 C 0.37304 -0.08387 0.54147
 C330 C 0.39615 -0.10005 0.59199
 C331 C 0.44518 -0.07906 0.61009
 C332 C 0.47081 -0.04250 0.58010
 C333 C 0.44972 -0.02668 0.52963
 C334 C 0.40196 -0.05015 0.50835
 C335 C 0.32138 -0.09939 0.52337
 C336 C 0.30133 -0.08726 0.47163
 C337 C 0.33196 -0.05915 0.43718
 C338 C 0.38167 -0.04074 0.45529
 H339 H 0.29557 -0.12029 0.54905
 H340 H 0.26198 -0.10006 0.45809
 H341 H 0.31670 -0.05063 0.39660
 H342 H 0.40351 -0.01867 0.42751
 H343 H 0.46416 -0.09120 0.64799
 H344 H 0.50832 -0.02741 0.59648
 C345 C 0.35463 0.42096 0.05397
 C346 C 0.37381 0.39215 0.09917
 C347 C 0.42892 0.38810 0.10998
 C348 C 0.46458 0.41514 0.07962
 C349 C 0.44626 0.44792 0.03809
 C350 C 0.39167 0.44552 0.02072
 C351 C 0.29948 0.42621 0.04102
 C352 C 0.28169 0.45015 -0.00656
 C353 C 0.31835 0.46826 -0.04241
 C354 C 0.37283 0.46534 -0.02935
 H355 H 0.26965 0.41187 0.06726
 H356 H 0.23936 0.45332 -0.01638
 H357 H 0.30455 0.48458 -0.08058
 H358 H 0.39978 0.47675 -0.05982
 H359 H 0.44443 0.36480 0.14321
 H360 H 0.50641 0.41336 0.09158
 C361 C 0.07567 0.06099 0.13728
 C362 C 0.10306 0.10003 0.11025
 C363 C 0.10372 0.09800 0.05328
 C364 C 0.07581 0.05962 0.02267
 C365 C 0.04607 0.02160 0.04760
 C366 C 0.04797 0.02047 0.10600
 C367 C 0.07702 0.06039 0.19500
 C368 C 0.05215 0.02082 0.22169
 C369 C 0.02691 -0.01966 0.19160
 C370 C 0.02549 -0.02032 0.13468
 H371 H 0.09796 0.08991 0.22014
 H372 H 0.05362 0.02083 0.26591
 H373 H 0.00919 -0.05140 0.21247
 H374 H 0.00909 -0.05479 0.11452
 H375 H 0.12545 0.12704 0.03221
 H376 H 0.07653 0.06060 -0.02149
 C377 C 0.07900 0.58245 0.64155
 C378 C 0.11390 0.60966 0.60882
 C379 C 0.10603 0.60769 0.55221
 C380 C 0.06540 0.57791 0.52743
 C381 C 0.03082 0.54892 0.55810
 C382 C 0.03600 0.55307 0.61637
 C383 C 0.08515 0.58533 0.69914
 C384 C 0.04926 0.56095 0.73156
 C385 C 0.00607 0.53444 0.70745
 C386 C -0.00089 0.53103 0.65073
 H387 H 0.11735 0.60686 0.71965
 H388 H 0.05433 0.56365 0.77565
 H389 H -0.02275 0.51704 0.73289
 H390 H -0.03683 0.51321 0.63522
 H391 H 0.13186 0.62922 0.52687
 H392 H 0.06161 0.57694 0.48321
 C393 C 0.54919 0.11745 0.62908
 C394 C 0.60446 0.11644 0.61885
 C395 C 0.62366 0.08621 0.57427
 C396 C 0.58898 0.05836 0.53879
 C397 C 0.53377 0.05930 0.54674
 C398 C 0.51343 0.08876 0.59289
 C399 C 0.52886 0.14587 0.67517
 C400 C 0.47448 0.14671 0.68521
 C401 C 0.43946 0.11904 0.65001
 C402 C 0.45852 0.09027 0.60454
 H403 H 0.55477 0.16729 0.70411
 H404 H 0.45948 0.16868 0.72067
 H405 H 0.39725 0.11953 0.65818
 H406 H 0.42959 0.06885 0.57956
 H407 H 0.66592 0.08521 0.56609
 H408 H 0.60591 0.03737 0.50386
 C409 C 0.56376 0.58303 0.15053
 C410 C 0.60425 0.60899 0.12380
 C411 C 0.60956 0.60072 0.06758
 C412 C 0.57526 0.56761 0.03737
 C413 C 0.53437 0.54118 0.06205
 C414 C 0.52766 0.54957 0.11956
 C415 C 0.55884 0.58952 0.20777
 C416 C 0.51838 0.56501 0.23407
 C417 C 0.48203 0.53401 0.20400
 C418 C 0.48644 0.52651 0.14759
 H419 H 0.58630 0.61333 0.23275
 H420 H 0.51496 0.57047 0.27792
 H421 H 0.45003 0.51574 0.22445
 H422 H 0.45611 0.50369 0.12704
 H423 H 0.64036 0.62053 0.04673
 H424 H 0.58139 0.56222 -0.00614
   
