data_POSCAR
  _audit_creation_date              2014-09-24
  _audit_creation_method            'ToBaCCo'
  _symmetry_space_group_name_H-M    'P1'
  _symmetry_Int_Tables_number       1
  _symmetry_cell_setting            triclinic
  loop_
  _symmetry_equiv_pos_as_xyz
 x,y,z
_cell_length_a 35.0227
_cell_length_b 35.0319
_cell_length_c 35.1016
_cell_angle_alpha 90.009500
_cell_angle_beta 89.982200
_cell_angle_gamma 89.865700
loop_
  _atom_site_label
  _atom_site_type_symbol
  _atom_site_fract_x
  _atom_site_fract_y
  _atom_site_fract_z
C1 C 0.37387 0.31768 0.34615
 C2 C 0.34559 0.31777 0.37444
 C3 C 0.31763 0.34577 0.37446
 C4 C 0.31759 0.37405 0.34618
 C5 C 0.34552 0.37395 0.31828
 C6 C 0.37383 0.34560 0.31826
 C7 C 0.40272 0.29240 0.33743
 N8 N 0.42006 0.30433 0.30497
 C9 C 0.40264 0.33685 0.29305
 C10 C 0.33684 0.40278 0.29308
 N11 N 0.30435 0.42027 0.30502
 C12 C 0.29236 0.40295 0.33747
 C13 C 0.29245 0.33715 0.40331
 N14 N 0.30447 0.30465 0.42068
 C15 C 0.33695 0.29260 0.40327
 H16 H 0.40976 0.26654 0.35282
 H17 H 0.40959 0.35228 0.26724
 H18 H 0.35228 0.40969 0.26727
 H19 H 0.26651 0.41004 0.35288
 H20 H 0.26658 0.35262 0.41031
 H21 H 0.35241 0.26673 0.41024
 C22 C 0.37386 0.81755 -0.15545
 C23 C 0.34566 0.81773 -0.12706
 C24 C 0.31770 0.84571 -0.12706
 C25 C 0.31755 0.87388 -0.15544
 C26 C 0.34538 0.87373 -0.18343
 C27 C 0.37373 0.84538 -0.18344
 C28 C 0.40277 0.79230 -0.16407
 N29 N 0.42009 0.80408 -0.19666
 C30 C 0.40258 0.83661 -0.20863
 C31 C 0.33659 0.90254 -0.20864
 N32 N 0.30403 0.92003 -0.19667
 C33 C 0.29227 0.90275 -0.16406
 C34 C 0.29262 0.83723 -0.09810
 N35 N 0.30470 0.80481 -0.08061
 C36 C 0.33713 0.79268 -0.09808
 H37 H 0.40987 0.76660 -0.14842
 H38 H 0.40949 0.85210 -0.23442
 H39 H 0.35206 0.90942 -0.23446
 H40 H 0.26655 0.90982 -0.14841
 H41 H 0.26679 0.85275 -0.09107
 H42 H 0.35261 0.76685 -0.09104
 C43 C 0.87381 0.31755 -0.15526
 C44 C 0.84562 0.31770 -0.12689
 C45 C 0.81763 0.34567 -0.12686
 C46 C 0.81750 0.37388 -0.15521
 C47 C 0.84535 0.37375 -0.18320
 C48 C 0.87369 0.34539 -0.18323
 C49 C 0.90267 0.29227 -0.16391
 N50 N 0.91998 0.30403 -0.19651
 C51 C 0.90251 0.33659 -0.20845
 C52 C 0.83662 0.40261 -0.20837
 N53 N 0.80409 0.42014 -0.19639
 C54 C 0.79226 0.40281 -0.16382
 C55 C 0.79257 0.33710 -0.09789
 N56 N 0.80469 0.30466 -0.08046
 C57 C 0.83711 0.29260 -0.09796
 H58 H 0.90972 0.26654 -0.14829
 H59 H 0.90941 0.35207 -0.23425
 H60 H 0.85215 0.40952 -0.23414
 H61 H 0.76655 0.40991 -0.14818
 H62 H 0.76672 0.35258 -0.09082
 H63 H 0.85263 0.26677 -0.09098
 C64 C 0.87420 0.81795 0.34541
 C65 C 0.84600 0.81808 0.37379
 C66 C 0.81799 0.84602 0.37380
 C67 C 0.81780 0.87421 0.34542
 C68 C 0.84566 0.87409 0.31745
 C69 C 0.87404 0.84579 0.31745
 C70 C 0.90313 0.79272 0.33671
 N71 N 0.92039 0.80457 0.30411
 C72 C 0.90284 0.83709 0.29221
 C73 C 0.83689 0.90284 0.29220
 N74 N 0.80432 0.92032 0.30410
 C75 C 0.79251 0.90307 0.33672
 C76 C 0.79292 0.83747 0.40277
 N77 N 0.80506 0.80507 0.42023
 C78 C 0.83750 0.79301 0.40276
 H79 H 0.91026 0.76700 0.35230
 H80 H 0.90968 0.85261 0.26642
 H81 H 0.85241 0.90970 0.26641
 H82 H 0.76675 0.91014 0.35231
 H83 H 0.76706 0.85295 0.40980
 H84 H 0.85303 0.76719 0.40979
 C85 C 0.62614 0.68248 0.34601
 C86 C 0.65441 0.68242 0.37430
 C87 C 0.68234 0.65438 0.37435
 C88 C 0.68235 0.62605 0.34612
 C89 C 0.65443 0.62612 0.31823
 C90 C 0.62616 0.65451 0.31817
 C91 C 0.59731 0.70777 0.33724
 N92 N 0.57997 0.69578 0.30480
 C93 C 0.59737 0.66322 0.29294
 C94 C 0.66309 0.59723 0.29308
 N95 N 0.69555 0.57972 0.30504
 C96 C 0.70755 0.59710 0.33746
 C97 C 0.70751 0.66300 0.40319
 N98 N 0.69552 0.69553 0.42054
 C99 C 0.66307 0.70761 0.40311
 H100 H 0.59030 0.73367 0.35258
 H101 H 0.59042 0.64776 0.26716
 H102 H 0.64764 0.59028 0.26728
 H103 H 0.73339 0.59001 0.35287
 H104 H 0.73333 0.64747 0.41023
 H105 H 0.64763 0.73350 0.41008
 C106 C 0.62593 0.18240 -0.15515
 C107 C 0.65413 0.18226 -0.12678
 C108 C 0.68209 0.15428 -0.12678
 C109 C 0.68224 0.12608 -0.15513
 C110 C 0.65442 0.12619 -0.18311
 C111 C 0.62606 0.15453 -0.18311
 C112 C 0.59698 0.20761 -0.16377
 N113 N 0.57965 0.19577 -0.19633
 C114 C 0.59719 0.16324 -0.20829
 C115 C 0.66322 0.09734 -0.20829
 N116 N 0.69576 0.07986 -0.19630
 C117 C 0.70751 0.09718 -0.16371
 C118 C 0.70719 0.16278 -0.09785
 N119 N 0.69514 0.19521 -0.08038
 C120 C 0.66271 0.20734 -0.09782
 H121 H 0.58987 0.23332 -0.14814
 H122 H 0.59028 0.14771 -0.23405
 H123 H 0.64774 0.09042 -0.23409
 H124 H 0.73322 0.09012 -0.14806
 H125 H 0.73302 0.14725 -0.09085
 H126 H 0.64724 0.23320 -0.09078
 C127 C 0.12609 0.68234 -0.15507
 C128 C 0.15430 0.68220 -0.12674
 C129 C 0.18228 0.65424 -0.12675
 C130 C 0.18240 0.62601 -0.15511
 C131 C 0.15452 0.62614 -0.18305
 C132 C 0.12619 0.65450 -0.18304
 C133 C 0.09720 0.70761 -0.16366
 N134 N 0.07986 0.69584 -0.19623
 C135 C 0.09734 0.66328 -0.20821
 C136 C 0.16322 0.59726 -0.20823
 N137 N 0.19575 0.57973 -0.19630
 C138 C 0.20761 0.59707 -0.16375
 C139 C 0.20738 0.66281 -0.09782
 N140 N 0.19528 0.69526 -0.08038
 C141 C 0.16283 0.70731 -0.09782
 H142 H 0.09015 0.73334 -0.14802
 H143 H 0.09041 0.64779 -0.23400
 H144 H 0.14767 0.59035 -0.23399
 H145 H 0.23334 0.58996 -0.14814
 H146 H 0.23324 0.64734 -0.09080
 H147 H 0.14732 0.73315 -0.09082
 C148 C 0.12616 0.18243 0.34492
 C149 C 0.15429 0.18223 0.37335
 C150 C 0.18230 0.15427 0.37334
 C151 C 0.18253 0.12614 0.34489
 C152 C 0.15473 0.12632 0.31690
 C153 C 0.12637 0.15463 0.31691
 C154 C 0.09729 0.20771 0.33621
 N155 N 0.08011 0.19594 0.30355
 C156 C 0.09764 0.16341 0.29163
 C157 C 0.16354 0.09759 0.29161
 N158 N 0.19610 0.08010 0.30350
 C159 C 0.20785 0.09731 0.33616
 C160 C 0.20729 0.16274 0.40238
 N161 N 0.19511 0.19510 0.41992
 C162 C 0.16273 0.20723 0.40240
 H163 H 0.09017 0.23343 0.35183
 H164 H 0.09085 0.14795 0.26579
 H165 H 0.14807 0.09078 0.26578
 H166 H 0.23358 0.09021 0.35177
 H167 H 0.23311 0.14723 0.40944
 H168 H 0.14718 0.23302 0.40948
 C169 C 0.62598 0.31769 0.65406
 C170 C 0.65427 0.31772 0.62577
 C171 C 0.68214 0.34566 0.62577
 C172 C 0.68211 0.37392 0.65405
 C173 C 0.65419 0.37390 0.68197
 C174 C 0.62594 0.34560 0.68197
 C175 C 0.59721 0.29245 0.66275
 N176 N 0.57982 0.30438 0.69523
 C177 C 0.59715 0.33687 0.70719
 C178 C 0.66289 0.40268 0.70720
 N179 N 0.69537 0.42005 0.69524
 C180 C 0.70732 0.40271 0.66275
 C181 C 0.70738 0.33699 0.59697
 N182 N 0.69549 0.30451 0.57959
 C183 C 0.66302 0.29251 0.59696
 H184 H 0.59027 0.26661 0.64734
 H185 H 0.59017 0.35227 0.73303
 H186 H 0.64750 0.40962 0.73305
 H187 H 0.73317 0.40967 0.64734
 H188 H 0.73320 0.35244 0.59000
 H189 H 0.64766 0.26666 0.58997
 C190 C 0.62545 0.81751 1.15481
 C191 C 0.65361 0.81759 1.12640
 C192 C 0.68152 0.84548 1.12637
 C193 C 0.68167 0.87364 1.15474
 C194 C 0.65388 0.87360 1.18278
 C195 C 0.62556 0.84534 1.18281
 C196 C 0.59661 0.79234 1.16347
 N197 N 0.57930 0.80418 1.19608
 C198 C 0.59676 0.83666 1.20804
 C199 C 0.66275 0.90234 1.20800
 N200 N 0.69520 0.91967 1.19591
 C201 C 0.70696 0.90236 1.16335
 C202 C 0.70661 0.83691 1.09741
 N203 N 0.69459 0.80452 1.07996
 C204 C 0.66219 0.79249 1.09743
 H205 H 0.58955 0.76665 1.14783
 H206 H 0.58986 0.85217 1.23385
 H207 H 0.64747 0.90929 1.23393
 H208 H 0.73273 0.90933 1.14780
 H209 H 0.73241 0.85235 1.09039
 H210 H 0.64676 0.76668 1.09040
 C211 C 0.12559 0.31725 1.15474
 C212 C 0.15368 0.31744 1.12627
 C213 C 0.18143 0.34550 1.12611
 C214 C 0.18144 0.37376 1.15441
 C215 C 0.15369 0.37360 1.18250
 C216 C 0.12558 0.34514 1.18267
 C217 C 0.09697 0.29188 1.16352
 N218 N 0.07968 0.30364 1.19617
 C219 C 0.09693 0.33628 1.20801
 C220 C 0.16236 0.40249 1.20762
 N221 N 0.19465 0.42005 1.19544
 C222 C 0.20652 0.40272 1.16292
 C223 C 0.20651 0.33697 1.09712
 N224 N 0.19461 0.30446 1.07978
 C225 C 0.16232 0.29232 1.09736
 H226 H 0.09007 0.26610 1.14796
 H227 H 0.08999 0.35178 1.23381
 H228 H 0.14706 0.40940 1.23354
 H229 H 0.23220 0.40985 1.14731
 H230 H 0.23221 0.35252 1.08998
 H231 H 0.14700 0.26641 1.09046
 C232 C 0.12633 0.81857 0.65464
 C233 C 0.15451 0.81868 0.62627
 C234 C 0.18249 0.84651 0.62634
 C235 C 0.18266 0.87460 0.65482
 C236 C 0.15483 0.87450 0.68282
 C237 C 0.12648 0.84629 0.68273
 C238 C 0.09753 0.79334 0.66325
 N239 N 0.08029 0.80510 0.69586
 C240 C 0.09774 0.83747 0.70798
 C241 C 0.16364 0.90315 0.70816
 N242 N 0.19620 0.92051 0.69626
 C243 C 0.20796 0.90330 0.66357
 C244 C 0.20758 0.83792 0.59738
 N245 N 0.19548 0.80559 0.57985
 C246 C 0.16303 0.79363 0.59727
 H247 H 0.09047 0.76763 0.64768
 H248 H 0.09087 0.85270 0.73394
 H249 H 0.14818 0.90999 0.73401
 H250 H 0.23369 0.91030 0.64796
 H251 H 0.23345 0.85328 0.59040
 H252 H 0.14753 0.76788 0.59020
 C253 C 0.37408 0.68187 0.65381
 C254 C 0.34584 0.68189 0.62551
 C255 C 0.31786 0.65406 0.62552
 C256 C 0.31776 0.62583 0.65385
 C257 C 0.34564 0.62582 0.68178
 C258 C 0.37398 0.65402 0.68177
 C259 C 0.40286 0.70708 0.66251
 N260 N 0.42014 0.69519 0.69503
 C261 C 0.40273 0.66275 0.70702
 C262 C 0.33686 0.59710 0.70704
 N263 N 0.30435 0.57979 0.69510
 C264 C 0.29246 0.59712 0.66259
 C265 C 0.29269 0.66283 0.59668
 N266 N 0.30476 0.69525 0.57930
 C267 C 0.33725 0.70711 0.59669
 H268 H 0.40987 0.73289 0.64708
 H269 H 0.40961 0.64741 0.73291
 H270 H 0.35223 0.59015 0.73289
 H271 H 0.26662 0.59017 0.64717
 H272 H 0.26680 0.64751 0.58970
 H273 H 0.35274 0.73290 0.58972
 C274 C 0.37368 0.18145 1.15420
 C275 C 0.34541 0.18146 1.12593
 C276 C 0.31735 0.15370 1.12606
 C277 C 0.31719 0.12558 1.15449
 C278 C 0.34511 0.12556 1.18238
 C279 C 0.37355 0.15367 1.18223
 C280 C 0.40262 0.20654 1.16276
 N281 N 0.41995 0.19463 1.19526
 C282 C 0.40242 0.16231 1.20737
 C283 C 0.33630 0.09691 1.20770
 N284 N 0.30364 0.07966 1.19591
 C285 C 0.29183 0.09695 1.16329
 C286 C 0.29220 0.16237 1.09720
 N287 N 0.30432 0.19469 1.07967
 C288 C 0.33684 0.20657 1.09699
 H289 H 0.40973 0.23226 1.14723
 H290 H 0.40933 0.14698 1.23325
 H291 H 0.35183 0.08998 1.23348
 H292 H 0.26602 0.09005 1.14777
 H293 H 0.26629 0.14706 1.09029
 H294 H 0.35238 0.23229 1.08989
 C295 C 0.87404 0.68230 1.15428
 C296 C 0.84585 0.68213 1.12593
 C297 C 0.81809 0.65408 1.12587
 C298 C 0.81817 0.62583 1.15415
 C299 C 0.84600 0.62598 1.18213
 C300 C 0.87412 0.65441 1.18221
 C301 C 0.90267 0.70768 1.16302
 N302 N 0.92001 0.69584 1.19553
 C303 C 0.90280 0.66328 1.20747
 C304 C 0.83739 0.59714 1.20730
 N305 N 0.80504 0.57961 1.19525
 C306 C 0.79309 0.59691 1.16276
 C307 C 0.79291 0.66264 1.09700
 N308 N 0.80474 0.69516 1.07965
 C309 C 0.83710 0.70728 1.09710
 H310 H 0.90955 0.73352 1.14760
 H311 H 0.90981 0.64792 1.23331
 H312 H 0.85276 0.59024 1.23317
 H313 H 0.76733 0.58979 1.14727
 H314 H 0.76716 0.64710 1.08996
 H315 H 0.85239 0.73320 1.09016
 C316 C 0.87474 0.18246 0.65490
 C317 C 0.84669 0.18223 0.62639
 C318 C 0.81889 0.15422 0.62630
 C319 C 0.81876 0.12608 0.65468
 C320 C 0.84644 0.12628 0.68281
 C321 C 0.87462 0.15467 0.68292
 C322 C 0.90339 0.20781 0.66368
 N323 N 0.92056 0.19611 0.69639
 C324 C 0.90322 0.16355 0.70829
 C325 C 0.83758 0.09758 0.70807
 N326 N 0.80524 0.08010 0.69592
 C327 C 0.79353 0.09729 0.66328
 C328 C 0.79384 0.16270 0.59730
 N329 N 0.80577 0.19514 0.57990
 C330 C 0.83808 0.20730 0.59743
 H331 H 0.91038 0.23352 0.64806
 H332 H 0.91005 0.14812 0.73416
 H333 H 0.85277 0.09076 0.73407
 H334 H 0.76783 0.09021 0.64769
 H335 H 0.76810 0.14717 0.59023
 H336 H 0.85341 0.23318 0.59047
 C337 C 0.31702 0.37336 0.65512
 C338 C 0.31707 0.34507 0.62685
 C339 C 0.34504 0.31709 0.62684
 C340 C 0.37333 0.31703 0.65512
 C341 C 0.37328 0.34496 0.68302
 C342 C 0.34493 0.37331 0.68302
 C343 C 0.29187 0.40239 0.66366
 N344 N 0.30387 0.41985 0.69603
 C345 C 0.33630 0.40231 0.70808
 C346 C 0.40228 0.33632 0.70808
 N347 N 0.41981 0.30389 0.69604
 C348 C 0.40235 0.29189 0.66366
 C349 C 0.33651 0.29201 0.59790
 N350 N 0.30408 0.30410 0.58044
 C351 C 0.29199 0.33653 0.59790
 H352 H 0.26610 0.40952 0.64816
 H353 H 0.35178 0.40938 0.73382
 H354 H 0.40933 0.35181 0.73382
 H355 H 0.40948 0.26611 0.64816
 H356 H 0.35204 0.26620 0.59083
 H357 H 0.26618 0.35207 0.59084
 C358 C 0.31764 0.87493 0.15357
 C359 C 0.31769 0.84660 0.12531
 C360 C 0.34576 0.81872 0.12524
 C361 C 0.37415 0.81879 0.15341
 C362 C 0.37410 0.84675 0.18127
 C363 C 0.34567 0.87499 0.18135
 C364 C 0.29236 0.90380 0.16231
 N365 N 0.30442 0.92124 0.19468
 C366 C 0.33700 0.90386 0.20652
 C367 C 0.40306 0.83816 0.20636
 N368 N 0.42057 0.80569 0.19440
 C369 C 0.40315 0.79364 0.16202
 C370 C 0.33715 0.79350 0.09645
 N371 N 0.30459 0.80541 0.07912
 C372 C 0.29247 0.83787 0.09653
 H373 H 0.26645 0.91079 0.14698
 H374 H 0.35254 0.91091 0.23223
 H375 H 0.41003 0.85362 0.23214
 H376 H 0.41020 0.76778 0.14664
 H377 H 0.35273 0.76771 0.08941
 H378 H 0.26655 0.85327 0.08958
 C379 C 0.81839 0.37354 0.15389
 C380 C 0.81843 0.34527 0.12561
 C381 C 0.84641 0.31730 0.12555
 C382 C 0.87475 0.31726 0.15379
 C383 C 0.87471 0.34520 0.18168
 C384 C 0.84635 0.37350 0.18173
 C385 C 0.79315 0.40243 0.16260
 N386 N 0.80515 0.41980 0.19502
 C387 C 0.83767 0.40236 0.20692
 C388 C 0.90363 0.33657 0.20679
 N389 N 0.92114 0.30410 0.19483
 C390 C 0.90373 0.29208 0.16243
 C391 C 0.83776 0.29217 0.09667
 N392 N 0.80526 0.30425 0.07932
 C393 C 0.79324 0.33670 0.09678
 H394 H 0.76728 0.40948 0.14723
 H395 H 0.85315 0.40933 0.23269
 H396 H 0.91062 0.35205 0.23256
 H397 H 0.91082 0.26625 0.14701
 H398 H 0.85324 0.26633 0.08959
 H399 H 0.76739 0.35221 0.08982
 C400 C 0.81787 0.87413 0.65508
 C401 C 0.81806 0.84597 0.62668
 C402 C 0.84605 0.81801 0.62667
 C403 C 0.87422 0.81785 0.65506
 C404 C 0.87404 0.84565 0.68308
 C405 C 0.84568 0.87398 0.68309
 C406 C 0.79264 0.90305 0.66369
 N407 N 0.80448 0.92036 0.69620
 C408 C 0.83690 0.90282 0.70828
 C409 C 0.90289 0.83690 0.70825
 N410 N 0.92046 0.80450 0.69616
 C411 C 0.90317 0.79264 0.66365
 C412 C 0.83758 0.79298 0.59766
 N413 N 0.80517 0.80509 0.58017
 C414 C 0.79303 0.83749 0.59768
 H415 H 0.76691 0.91022 0.64813
 H416 H 0.85226 0.90977 0.73412
 H417 H 0.90982 0.85226 0.73410
 H418 H 0.91035 0.76692 0.64809
 H419 H 0.85310 0.76716 0.59060
 H420 H 0.76720 0.85299 0.59065
 C421 C 0.68288 0.62640 0.65501
 C422 C 0.68282 0.65467 0.62672
 C423 C 0.65483 0.68263 0.62671
 C424 C 0.62654 0.68270 0.65499
 C425 C 0.62659 0.65480 0.68291
 C426 C 0.65495 0.62646 0.68292
 C427 C 0.70803 0.59740 0.66358
 N428 N 0.69602 0.57996 0.69597
 C429 C 0.66358 0.59750 0.70800
 C430 C 0.59759 0.66345 0.70797
 N431 N 0.58005 0.69587 0.69592
 C432 C 0.59751 0.70785 0.66353
 C433 C 0.66337 0.70771 0.59777
 N434 N 0.69582 0.69564 0.58031
 C435 C 0.70792 0.66321 0.59777
 H436 H 0.73382 0.59026 0.64809
 H437 H 0.64808 0.59045 0.73374
 H438 H 0.59053 0.64799 0.73373
 H439 H 0.59038 0.73361 0.64802
 H440 H 0.64783 0.73351 0.59071
 H441 H 0.73375 0.64771 0.59072
 C442 C 0.68292 0.12545 0.15413
 C443 C 0.68278 0.15367 0.12578
 C444 C 0.65467 0.18151 0.12570
 C445 C 0.62633 0.18150 0.15393
 C446 C 0.62646 0.15364 0.18187
 C447 C 0.65493 0.12545 0.18198
 C448 C 0.70823 0.09663 0.16291
 N449 N 0.69623 0.07929 0.19536
 C450 C 0.66365 0.09668 0.20721
 C451 C 0.59752 0.16225 0.20698
 N452 N 0.57993 0.19464 0.19495
 C453 C 0.59729 0.20662 0.16252
 C454 C 0.66317 0.20664 0.09679
 N455 N 0.69571 0.19471 0.07942
 C456 C 0.70792 0.16234 0.09690
 H457 H 0.73411 0.08959 0.14754
 H458 H 0.64814 0.08968 0.23296
 H459 H 0.59060 0.14684 0.23281
 H460 H 0.59015 0.23241 0.14706
 H461 H 0.64754 0.23239 0.08971
 H462 H 0.73385 0.14696 0.08993
 C463 C 0.18172 0.62651 0.15392
 C464 C 0.18177 0.65485 0.12570
 C465 C 0.15395 0.68299 0.12583
 C466 C 0.12574 0.68318 0.15421
 C467 C 0.12571 0.65520 0.18204
 C468 C 0.15386 0.62669 0.18189
 C469 C 0.20680 0.59744 0.16247
 N470 N 0.19480 0.58009 0.19491
 C471 C 0.16244 0.59774 0.20698
 C472 C 0.09694 0.66397 0.20729
 N473 N 0.07959 0.69656 0.19545
 C474 C 0.09695 0.70852 0.16300
 C475 C 0.16262 0.70810 0.09696
 N476 N 0.19498 0.69587 0.07943
 C477 C 0.20689 0.66332 0.09677
 H478 H 0.23258 0.59025 0.14699
 H479 H 0.14703 0.59084 0.23282
 H480 H 0.08991 0.64847 0.23303
 H481 H 0.08994 0.73440 0.14763
 H482 H 0.14726 0.73404 0.09001
 H483 H 0.23262 0.64767 0.08965
 C484 C 0.18166 0.12535 0.65448
 C485 C 0.18156 0.15358 0.62617
 C486 C 0.15358 0.18155 0.62619
 C487 C 0.12535 0.18167 0.65453
 C488 C 0.12545 0.15380 0.68248
 C489 C 0.15380 0.12545 0.68246
 C490 C 0.20689 0.09643 0.66307
 N491 N 0.19501 0.07906 0.69553
 C492 C 0.16255 0.09657 0.70760
 C493 C 0.09658 0.16257 0.70765
 N494 N 0.07908 0.19502 0.69562
 C495 C 0.09644 0.20690 0.66315
 C496 C 0.16214 0.20667 0.59729
 N497 N 0.19460 0.19461 0.57984
 C498 C 0.20667 0.16215 0.59725
 H499 H 0.23267 0.08932 0.64755
 H500 H 0.14717 0.08959 0.73343
 H501 H 0.08960 0.14718 0.73348
 H502 H 0.08934 0.23268 0.64765
 H503 H 0.14666 0.23253 0.59030
 H504 H 0.23253 0.14667 0.59023
 C505 C 0.31776 0.62654 0.34509
 C506 C 0.31779 0.65483 0.37336
 C507 C 0.34568 0.68275 0.37329
 C508 C 0.37390 0.68277 0.34494
 C509 C 0.37388 0.65485 0.31703
 C510 C 0.34562 0.62654 0.31710
 C511 C 0.29262 0.59764 0.33658
 N512 N 0.30455 0.58019 0.30415
 C513 C 0.33694 0.59761 0.29203
 C514 C 0.40274 0.66351 0.29186
 N515 N 0.42015 0.69595 0.30386
 C516 C 0.40275 0.70793 0.33630
 C517 C 0.33708 0.70790 0.40219
 N518 N 0.30469 0.69590 0.41968
 C519 C 0.29268 0.66346 0.40229
 H520 H 0.26687 0.59062 0.35213
 H521 H 0.35234 0.59056 0.26621
 H522 H 0.40978 0.64806 0.26607
 H523 H 0.40979 0.73370 0.35178
 H524 H 0.35253 0.73371 0.40917
 H525 H 0.26691 0.64800 0.40938
 C526 C 0.31807 0.12494 0.84593
 C527 C 0.31795 0.15330 0.87412
 C528 C 0.34591 0.18115 0.87420
 C529 C 0.37438 0.18100 0.84610
 C530 C 0.37449 0.15301 0.81825
 C531 C 0.34615 0.12480 0.81816
 C532 C 0.29288 0.09613 0.83722
 N533 N 0.30499 0.07863 0.80487
 C534 C 0.33755 0.09592 0.79301
 C535 C 0.40348 0.16159 0.79320
 N536 N 0.42084 0.19405 0.80520
 C537 C 0.40329 0.20612 0.83753
 C538 C 0.33711 0.20644 0.90292
 N539 N 0.30453 0.19459 0.92017
 C540 C 0.29260 0.16211 0.90280
 H541 H 0.26695 0.08924 0.85253
 H542 H 0.35310 0.08881 0.76730
 H543 H 0.41057 0.14612 0.76744
 H544 H 0.41019 0.23199 0.85292
 H545 H 0.35256 0.23223 0.90995
 H546 H 0.26672 0.14675 0.90972
 C547 C 0.81868 0.62521 0.84635
 C548 C 0.81845 0.65366 0.87445
 C549 C 0.84631 0.68160 0.87447
 C550 C 0.87479 0.68146 0.84637
 C551 C 0.87501 0.65340 0.81860
 C552 C 0.84676 0.62509 0.81859
 C553 C 0.79355 0.59635 0.83768
 N554 N 0.80570 0.57883 0.80537
 C555 C 0.83823 0.59615 0.79349
 C556 C 0.90396 0.66202 0.79353
 N557 N 0.92120 0.69457 0.80544
 C558 C 0.90361 0.70666 0.83775
 C559 C 0.83739 0.70696 0.90309
 N560 N 0.80483 0.69505 0.92033
 C561 C 0.79303 0.66247 0.90306
 H562 H 0.76761 0.58948 0.85298
 H563 H 0.85377 0.58907 0.76776
 H564 H 0.91112 0.64650 0.76781
 H565 H 0.91043 0.73258 0.85307
 H566 H 0.85274 0.73282 0.91006
 H567 H 0.76720 0.64704 0.91000
 C568 C 0.81927 0.12518 0.34595
 C569 C 0.81924 0.15351 0.37416
 C570 C 0.84709 0.18146 0.37408
 C571 C 0.87536 0.18143 0.34578
 C572 C 0.87540 0.15346 0.31792
 C573 C 0.84716 0.12514 0.31800
 C574 C 0.79409 0.09633 0.33740
 N575 N 0.80602 0.07888 0.30497
 C576 C 0.83846 0.09624 0.29290
 C577 C 0.90423 0.16213 0.29271
 N578 N 0.92157 0.19463 0.30463
 C579 C 0.90416 0.20663 0.33706
 C580 C 0.83836 0.20671 0.40287
 N581 N 0.80592 0.19472 0.42029
 C582 C 0.79403 0.16220 0.40298
 H583 H 0.76829 0.08938 0.35289
 H584 H 0.85384 0.08921 0.26706
 H585 H 0.91126 0.14666 0.26693
 H586 H 0.91112 0.23248 0.35246
 H587 H 0.85372 0.23258 0.40980
 H588 H 0.76823 0.14675 0.41002
 C589 C 0.68221 0.37363 0.34568
 C590 C 0.68227 0.34534 0.37392
 C591 C 0.65441 0.31738 0.37392
 C592 C 0.62612 0.31737 0.34566
 C593 C 0.62605 0.34531 0.31778
 C594 C 0.65429 0.37363 0.31779
 C595 C 0.70736 0.40249 0.33706
 N596 N 0.69536 0.41989 0.30464
 C597 C 0.66292 0.40249 0.29265
 C598 C 0.59719 0.33665 0.29264
 N599 N 0.57985 0.30417 0.30461
 C600 C 0.59729 0.29218 0.33701
 C601 C 0.66316 0.29220 0.40274
 N602 N 0.69560 0.30424 0.42011
 C603 C 0.70749 0.33672 0.40273
 H604 H 0.73318 0.40949 0.35249
 H605 H 0.64748 0.40950 0.26685
 H606 H 0.59014 0.35211 0.26687
 H607 H 0.59033 0.26635 0.35243
 H608 H 0.64779 0.26636 0.40975
 H609 H 0.73327 0.35221 0.40972
 C610 C 0.68110 0.87500 0.84646
 C611 C 0.68117 0.84660 0.87460
 C612 C 0.65326 0.81871 0.87455
 C613 C 0.62490 0.81886 0.84636
 C614 C 0.62484 0.84688 0.81857
 C615 C 0.65313 0.87514 0.81861
 C616 C 0.70633 0.90379 0.83783
 N617 N 0.69434 0.92129 0.80546
 C618 C 0.66182 0.90402 0.79349
 C619 C 0.59600 0.83825 0.79339
 N620 N 0.57868 0.80573 0.80526
 C621 C 0.59611 0.79367 0.83765
 C622 C 0.66204 0.79334 0.90318
 N623 N 0.69458 0.80519 0.92050
 C624 C 0.70648 0.83774 0.90326
 H625 H 0.73222 0.91065 0.85321
 H626 H 0.64639 0.91109 0.76771
 H627 H 0.58898 0.85373 0.76761
 H628 H 0.58921 0.76776 0.85296
 H629 H 0.64664 0.76748 0.91009
 H630 H 0.73234 0.85311 0.91024
 C631 C 0.18093 0.37453 0.84615
 C632 C 0.18107 0.34610 0.87427
 C633 C 0.15321 0.31814 0.87419
 C634 C 0.12486 0.31824 0.84600
 C635 C 0.12474 0.34628 0.81822
 C636 C 0.15296 0.37462 0.81830
 C637 C 0.20606 0.40343 0.83757
 N638 N 0.19400 0.42095 0.80523
 C639 C 0.16154 0.40358 0.79324
 C640 C 0.09587 0.33765 0.79307
 N641 N 0.07858 0.30510 0.80494
 C642 C 0.09607 0.29303 0.83730
 C643 C 0.16201 0.29282 0.90287
 N644 N 0.19449 0.30474 0.92023
 C645 C 0.20636 0.33731 0.90298
 H646 H 0.23193 0.41035 0.85295
 H647 H 0.14608 0.41064 0.76748
 H648 H 0.08877 0.35316 0.76734
 H649 H 0.08918 0.26713 0.85262
 H650 H 0.14664 0.26695 0.90978
 H651 H 0.23216 0.35274 0.91001
 C652 C 0.18172 0.87550 0.34589
 C653 C 0.18175 0.84723 0.37416
 C654 C 0.15375 0.81941 0.37426
 C655 C 0.12537 0.81950 0.34611
 C656 C 0.12533 0.84740 0.31820
 C657 C 0.15369 0.87559 0.31809
 C658 C 0.20696 0.90425 0.33711
 N659 N 0.19491 0.92167 0.30471
 C660 C 0.16236 0.90438 0.29287
 C661 C 0.09642 0.83876 0.29311
 N662 N 0.07903 0.80633 0.30514
 C663 C 0.09649 0.79435 0.33754
 C664 C 0.16246 0.79417 0.40303
 N665 N 0.19503 0.80600 0.42029
 C666 C 0.20704 0.83843 0.40288
 H667 H 0.23286 0.91117 0.35244
 H668 H 0.14685 0.91142 0.26712
 H669 H 0.08940 0.85416 0.26729
 H670 H 0.08954 0.76853 0.35298
 H671 H 0.14698 0.76839 0.41006
 H672 H 0.23295 0.85375 0.40978
 O673 O 0.25372 1.03853 0.20132
 O674 O 0.20123 0.96431 0.25383
 O675 O 0.20135 1.03878 0.25372
 O676 O 0.25348 0.96407 0.20122
 O677 O 0.29817 0.96396 0.24555
 O678 O 0.24593 1.03860 0.29812
 O679 O 0.24592 0.96414 0.29816
 O680 O 0.29831 1.03842 0.24571
 Cu681 Cu 0.22297 1.00143 0.22308
 Cu682 Cu 0.27656 1.00125 0.27632
 C683 C 0.28487 1.05142 0.21466
 C684 C 0.21474 0.95138 0.28485
 C685 C 0.21481 1.05171 0.28477
 C686 C 0.28464 0.95110 0.21453
 O687 O 0.25325 0.53741 0.70164
 O688 O 0.20045 0.46357 0.75435
 O689 O 0.20092 0.53810 0.75412
 O690 O 0.25308 0.46294 0.70215
 O691 O 0.29762 0.46290 0.74663
 O692 O 0.24542 0.53799 0.79860
 O693 O 0.24501 0.46348 0.79882
 O694 O 0.29778 0.53737 0.74614
 Cu695 Cu 0.22245 0.50051 0.72362
 Cu696 Cu 0.27591 0.50043 0.77701
 C697 C 0.28441 0.55018 0.71501
 C698 C 0.21386 0.45070 0.78543
 C699 C 0.21437 0.55115 0.78513
 C700 C 0.28415 0.44992 0.71565
 O701 O 0.70253 0.03674 0.24634
 O702 O 0.75460 -0.03803 0.29883
 O703 O 0.75494 0.03646 0.29876
 O704 O 0.70193 -0.03768 0.24673
 O705 O 0.74642 -0.03807 0.20217
 O706 O 0.79945 0.03608 0.25423
 O707 O 0.79908 -0.03840 0.25431
 O708 O 0.74707 0.03635 0.20182
 Cu709 Cu 0.72405 -0.00056 0.27714
 Cu710 Cu 0.77748 -0.00106 0.22368
 C711 C 0.71600 0.04945 0.21522
 C712 C 0.78565 -0.05125 0.28540
 C713 C 0.78609 0.04912 0.28527
 C714 C 0.71524 -0.05068 0.21566
 O715 O 0.75440 0.46185 0.79855
 O716 O 0.70223 0.53695 0.74659
 O717 O 0.70191 0.46248 0.74626
 O718 O 0.75469 0.53635 0.79890
 O719 O 0.79928 0.53626 0.75443
 O720 O 0.74645 0.46243 0.70175
 O721 O 0.74681 0.53689 0.70212
 O722 O 0.79891 0.46175 0.75406
 Cu723 Cu 0.72385 0.49942 0.77704
 Cu724 Cu 0.77734 0.49932 0.72364
 C725 C 0.78545 0.44870 0.78506
 C726 C 0.71573 0.54991 0.71560
 C727 C 0.71529 0.44967 0.71513
 C728 C 0.78586 0.54911 0.78552
 O729 O 0.24558 0.46268 0.20159
 O730 O 0.29817 0.53722 0.25353
 O731 O 0.29798 0.46276 0.25401
 O732 O 0.24564 0.53715 0.20131
 O733 O 0.20109 0.53746 0.24580
 O734 O 0.25342 0.46309 0.29850
 O735 O 0.25362 0.53754 0.29804
 O736 O 0.20103 0.46297 0.24610
 Cu737 Cu 0.27631 0.49990 0.22314
 Cu738 Cu 0.22281 0.50030 0.27657
 C739 C 0.21446 0.44992 0.21509
 C740 C 0.28474 0.55030 0.28453
 C741 C 0.28453 0.45006 0.28513
 C742 C 0.21455 0.55020 0.21471
 O743 O 0.75409 1.03775 0.70219
 O744 O 0.70101 0.96383 0.75453
 O745 O 0.70119 1.03832 0.75410
 O746 O 0.75362 0.96332 0.70230
 O747 O 0.79800 0.96321 0.74694
 O748 O 0.74551 1.03821 0.79876
 O749 O 0.74540 0.96373 0.79917
 O750 O 0.79843 1.03765 0.74688
 Cu751 Cu 0.72303 1.00081 0.72381
 Cu752 Cu 0.77627 1.00068 0.77743
 C753 C 0.78520 1.05049 0.71571
 C754 C 0.71429 0.95097 0.78568
 C755 C 0.71450 1.05134 0.78517
 C756 C 0.78465 0.95031 0.71587
 O757 O 0.74647 0.53689 0.29855
 O758 O 0.79880 0.46242 0.24594
 O759 O 0.79875 0.53686 0.24604
 O760 O 0.74632 0.46245 0.29828
 O761 O 0.70170 0.46264 0.25387
 O762 O 0.75414 0.53700 0.20162
 O763 O 0.75417 0.46257 0.20154
 O764 O 0.70186 0.53708 0.25414
 Cu765 Cu 0.77707 0.49963 0.27666
 Cu766 Cu 0.72348 0.49984 0.22334
 C767 C 0.71534 0.54988 0.28520
 C768 C 0.78532 0.44961 0.21488
 C769 C 0.78527 0.54980 0.21502
 C770 C 0.71517 0.44968 0.28488
 O771 O 0.24603 -0.03822 0.70153
 O772 O 0.29860 0.03601 0.75396
 O773 O 0.29861 -0.03849 0.75369
 O774 O 0.24600 0.03626 0.70171
 O775 O 0.20149 0.03621 0.74625
 O776 O 0.25418 -0.03847 0.79826
 O777 O 0.25407 0.03601 0.79848
 O778 O 0.20160 -0.03828 0.74610
 Cu779 Cu 0.27676 -0.00109 0.72326
 Cu780 Cu 0.22339 -0.00113 0.77674
 C781 C 0.21496 -0.05121 0.71498
 C782 C 0.28518 0.04887 0.78506
 C783 C 0.28526 -0.05152 0.78475
 C784 C 0.21488 0.04916 0.71521
 O785 O 0.24551 0.29819 0.96274
 O786 O 0.29799 0.24560 1.03701
 O787 O 0.29802 0.24560 0.96271
 O788 O 0.24551 0.29812 1.03705
 O789 O 0.20098 0.25362 1.03703
 O790 O 0.25348 0.20112 0.96268
 O791 O 0.25344 0.20112 1.03698
 O792 O 0.20098 0.25370 0.96272
 Cu793 Cu 0.27623 0.27634 0.99986
 Cu794 Cu 0.22275 0.22293 0.99983
 C795 C 0.21438 0.28482 0.94990
 C796 C 0.28454 0.21451 1.04986
 C797 C 0.28462 0.21450 0.94985
 C798 C 0.21441 0.28469 1.04993
 O799 O 0.24607 0.79930 0.46277
 O800 O 0.29848 0.74631 0.53681
 O801 O 0.29849 0.74670 0.46249
 O802 O 0.24630 0.79915 0.53708
 O803 O 0.20164 0.75479 0.53702
 O804 O 0.25383 0.70232 0.46244
 O805 O 0.25381 0.70196 0.53674
 O806 O 0.20141 0.75493 0.46273
 Cu807 Cu 0.27683 0.77731 0.49979
 Cu808 Cu 0.22319 0.72405 0.49972
 C809 C 0.21489 0.78603 0.44994
 C810 C 0.28497 0.71522 0.54960
 C811 C 0.28496 0.71568 0.44956
 C812 C 0.21518 0.78580 0.54996
 O813 O 0.29844 0.75408 -0.03773
 O814 O 0.24592 0.70198 0.03674
 O815 O 0.24610 0.70164 -0.03761
 O816 O 0.29835 0.75437 0.03661
 O817 O 0.25371 0.79896 0.03644
 O818 O 0.20147 0.74624 -0.03778
 O819 O 0.20130 0.74660 0.03657
 O820 O 0.25380 0.79868 -0.03790
 Cu821 Cu 0.27668 0.72354 -0.00047
 Cu822 Cu 0.22309 0.77709 -0.00069
 C823 C 0.28494 0.78516 -0.05072
 C824 C 0.21478 0.71552 0.04956
 C825 C 0.21499 0.71508 -0.05056
 C826 C 0.28484 0.78553 0.04937
 O827 O 0.29812 0.25365 0.46321
 O828 O 0.24556 0.20098 0.53722
 O829 O 0.24581 0.20120 0.46286
 O830 O 0.29795 0.25336 0.53755
 O831 O 0.25331 0.29795 0.53758
 O832 O 0.20116 0.24579 0.46289
 O833 O 0.20091 0.24557 0.53725
 O834 O 0.25348 0.29824 0.46324
 Cu835 Cu 0.27633 0.22283 0.50021
 Cu836 Cu 0.22273 0.27635 0.50025
 C837 C 0.28465 0.28481 0.45040
 C838 C 0.21439 0.21442 0.55008
 C839 C 0.21473 0.21473 0.44992
 C840 C 0.28441 0.28443 0.55050
 O841 O 0.74561 0.79862 0.96295
 O842 O 0.79820 0.74609 1.03709
 O843 O 0.79815 0.74607 0.96283
 O844 O 0.74548 0.79831 1.03723
 O845 O 0.70104 0.75373 1.03716
 O846 O 0.75371 0.70149 0.96276
 O847 O 0.75378 0.70148 1.03704
 O848 O 0.70116 0.75405 0.96286
 Cu849 Cu 0.77632 0.77675 1.00001
 Cu850 Cu 0.72296 0.72321 0.99993
 C851 C 0.71451 0.78522 0.95010
 C852 C 0.78486 0.71495 1.04991
 C853 C 0.78483 0.71493 0.94997
 C854 C 0.71441 0.78481 1.05009
 O855 O 0.74656 0.29803 0.46272
 O856 O 0.79926 0.24593 0.53713
 O857 O 0.79930 0.24574 0.46282
 O858 O 0.74650 0.29818 0.53701
 O859 O 0.70213 0.25351 0.53706
 O860 O 0.75493 0.20108 0.46288
 O861 O 0.75490 0.20127 0.53718
 O862 O 0.70219 0.25337 0.46277
 Cu863 Cu 0.77736 0.27646 0.49990
 Cu864 Cu 0.72409 0.22282 0.49998
 C865 C 0.71550 0.28450 0.44988
 C866 C 0.78594 0.21482 0.55004
 C867 C 0.78600 0.21457 0.45001
 C868 C 0.71542 0.28468 0.54987
 O869 O 0.74647 0.20109 0.03656
 O870 O 0.79855 0.25371 -0.03784
 O871 O 0.79886 0.25347 0.03650
 O872 O 0.74612 0.20136 -0.03779
 O873 O 0.70151 0.24598 -0.03754
 O874 O 0.75424 0.29808 0.03678
 O875 O 0.75394 0.29833 -0.03757
 O876 O 0.70183 0.24568 0.03681
 Cu877 Cu 0.77697 0.22293 -0.00068
 Cu878 Cu 0.72341 0.27649 -0.00034
 C879 C 0.71538 0.21453 0.04957
 C880 C 0.78502 0.28487 -0.05060
 C881 C 0.78541 0.28456 0.04951
 C882 C 0.71496 0.21489 -0.05054
 O883 O 0.79889 0.75424 0.46301
 O884 O 0.74662 0.70186 0.53748
 O885 O 0.74648 0.70184 0.46314
 O886 O 0.79897 0.75428 0.53738
 O887 O 0.75432 0.79887 0.53743
 O888 O 0.70185 0.74644 0.46319
 O889 O 0.70198 0.74646 0.53753
 O890 O 0.75425 0.79883 0.46307
 Cu891 Cu 0.77722 0.72359 0.50024
 Cu892 Cu 0.72363 0.77713 0.50030
 C893 C 0.78536 0.78534 0.45013
 C894 C 0.71551 0.71535 0.55041
 C895 C 0.71533 0.71531 0.45031
 C896 C 0.78546 0.78538 0.55029
 O897 O 0.96406 0.24563 0.29821
 O898 O 1.03837 0.29821 0.24594
 O899 O 0.96387 0.29789 0.24567
 O900 O 1.03854 0.24572 0.29821
 O901 O 1.03882 0.20120 0.25375
 O902 O 0.96409 0.25327 0.20126
 O903 O 1.03858 0.25368 0.20148
 O904 O 0.96431 0.20101 0.25380
 Cu905 Cu 1.00117 0.27633 0.27645
 Cu906 Cu 1.00148 0.22282 0.22313
 C907 C 0.95133 0.21447 0.28483
 C908 C 1.05143 0.28482 0.21488
 C909 C 0.95106 0.28438 0.21463
 C910 C 1.05170 0.21464 0.28483
 O911 O 0.46337 0.24504 0.79883
 O912 O 0.53733 0.29783 0.74623
 O913 O 0.46283 0.29764 0.74665
 O914 O 0.53791 0.24542 0.79860
 O915 O 0.53804 0.20095 0.75410
 O916 O 0.46291 0.25311 0.70214
 O917 O 0.53740 0.25332 0.70171
 O918 O 0.46350 0.20051 0.75433
 Cu919 Cu 0.50035 0.27593 0.77705
 Cu920 Cu 0.50047 0.22250 0.72362
 C921 C 0.45060 0.21390 0.78542
 C922 C 0.55017 0.28447 0.71510
 C923 C 0.44988 0.28417 0.71565
 C924 C 0.55108 0.21439 0.78511
 O925 O 0.03626 0.24600 0.70183
 O926 O -0.03854 0.29859 0.75382
 O927 O 0.03597 0.29864 0.75404
 O928 O -0.03823 0.24598 0.70167
 O929 O -0.03827 0.20159 0.74625
 O930 O 0.03600 0.25416 0.79858
 O931 O -0.03850 0.25420 0.79840
 O932 O 0.03623 0.20153 0.74638
 Cu933 Cu -0.00112 0.27675 0.72338
 Cu934 Cu -0.00113 0.22343 0.77687
 C935 C 0.04917 0.21490 0.71532
 C936 C -0.05156 0.28526 0.78489
 C937 C 0.04883 0.28526 0.78514
 C938 C -0.05120 0.21491 0.71512
 O939 O 0.46263 0.29792 0.25400
 O940 O 0.53708 0.24554 0.20140
 O941 O 0.46261 0.24552 0.20158
 O942 O 0.53708 0.29787 0.25384
 O943 O 0.53723 0.25327 0.29826
 O944 O 0.46274 0.20094 0.24602
 O945 O 0.53723 0.20094 0.24582
 O946 O 0.46278 0.25332 0.29844
 Cu947 Cu 0.49982 0.27619 0.22325
 Cu948 Cu 0.50001 0.22263 0.27658
 C949 C 0.44983 0.28447 0.28509
 C950 C 0.55005 0.21442 0.21476
 C951 C 0.44978 0.21441 0.21500
 C952 C 0.55004 0.28439 0.28486
 O953 O 1.03778 0.79840 0.74681
 O954 O 0.96373 0.74555 0.79915
 O955 O 1.03824 0.74560 0.79878
 O956 O 0.96331 0.79807 0.74689
 O957 O 0.96341 0.75364 0.70228
 O958 O 1.03835 0.70123 0.75416
 O959 O 0.96384 0.70111 0.75455
 O960 O 1.03787 0.75401 0.70217
 Cu961 Cu 1.00076 0.77634 0.77739
 Cu962 Cu 1.00088 0.72304 0.72382
 C963 C 1.05063 0.78512 0.71566
 C964 C 0.95095 0.71445 0.78567
 C965 C 1.05136 0.71457 0.78522
 C966 C 0.95041 0.78468 0.71582
 O967 O 0.53770 0.79903 0.24566
 O968 O 0.46285 0.74683 0.29761
 O969 O 0.53730 0.74681 0.29818
 O970 O 0.46316 0.79934 0.24532
 O971 O 0.46334 0.75472 0.20091
 O972 O 0.53755 0.70222 0.25373
 O973 O 0.46309 0.70221 0.25319
 O974 O 0.53785 0.75449 0.20122
 Cu975 Cu 0.50022 0.77749 0.27613
 Cu976 Cu 0.50049 0.72395 0.22280
 C977 C 0.55083 0.78556 0.21467
 C978 C 0.45004 0.71571 0.28417
 C979 C 0.55026 0.71566 0.28485
 C980 C 0.45039 0.78587 0.21425
 O981 O -0.03820 0.79943 0.25437
 O982 O 0.03670 0.74745 0.20193
 O983 O -0.03773 0.74703 0.20198
 O984 O 0.03632 0.79985 0.25435
 O985 O 0.03659 0.75528 0.29879
 O986 O -0.03747 0.70248 0.24645
 O987 O 0.03695 0.70287 0.24638
 O988 O -0.03791 0.75490 0.29881
 Cu989 Cu -0.00076 0.77793 0.22372
 Cu990 Cu -0.00042 0.72443 0.27708
 C991 C -0.05112 0.78595 0.28542
 C992 C 0.04974 0.71636 0.21531
 C993 C -0.05039 0.71584 0.21538
 C994 C 0.04929 0.78645 0.28538
 O995 O 0.53627 0.75468 0.79875
 O996 O 0.46250 0.70181 0.74610
 O997 O 0.53697 0.70214 0.74650
 O998 O 0.46179 0.75438 0.79832
 O999 O 0.46173 0.79882 0.75379
 O1000 O 0.53697 0.74665 0.70199
 O1001 O 0.46250 0.74628 0.70155
 O1002 O 0.53623 0.79919 0.75425
 Cu1003 Cu 0.49939 0.72380 0.77689
 Cu1004 Cu 0.49936 0.77720 0.72343
 C1005 C 0.54904 0.78583 0.78538
 C1006 C 0.44973 0.71514 0.71494
 C1007 C 0.54998 0.71560 0.71551
 C1008 C 0.44865 0.78541 0.78480
   
