data_POSCAR
  _audit_creation_date              2014-09-24
  _audit_creation_method            'ToBaCCo'
  _symmetry_space_group_name_H-M    'P1'
  _symmetry_Int_Tables_number       1
  _symmetry_cell_setting            triclinic
  loop_
  _symmetry_equiv_pos_as_xyz
 x,y,z
_cell_length_a 35.9800
_cell_length_b 37.7641
_cell_length_c 37.1244
_cell_angle_alpha 90.189700
_cell_angle_beta 90.291900
_cell_angle_gamma 90.062700
loop_
  _atom_site_label
  _atom_site_type_symbol
  _atom_site_fract_x
  _atom_site_fract_y
  _atom_site_fract_z
Si1 Si 0.25080 0.24965 0.24876
 Si2 Si 0.75067 0.75043 0.25167
 Si3 Si 0.75046 0.25182 0.75054
 Si4 Si 0.25034 0.75094 0.74984
 C5 C 0.05069 0.05247 0.01176
 H6 H 0.05151 0.05352 -0.01735
 C7 C 0.07247 0.07575 0.03221
 H8 H 0.09026 0.09474 0.01887
 C9 C 0.02628 0.02668 0.06481
 H10 H 0.00788 0.00792 0.07746
 C11 C 0.04759 0.04949 0.08626
 H12 H 0.04581 0.04794 0.11533
 N13 N 0.02857 0.02824 0.02826
 C14 C 0.01435 -0.05703 -0.05030
 H15 H -0.01566 -0.05882 -0.05122
 C16 C 0.03585 -0.07992 -0.07120
 H17 H 0.02242 -0.09935 -0.08843
 C18 C 0.06862 -0.02970 -0.02656
 H19 H 0.08134 -0.01047 -0.00878
 C20 C 0.09115 -0.05209 -0.04700
 H21 H 0.12111 -0.04975 -0.04520
 Zn22 Zn -0.00023 -0.00224 -0.00142
 N23 N 0.03093 -0.03220 -0.02894
 C24 C -0.02721 0.02401 -0.06845
 N25 N -0.02947 0.02674 -0.03195
 C26 C -0.05183 0.05123 -0.01609
 C27 C -0.07382 0.07363 -0.03713
 C28 C -0.04874 0.04590 -0.09048
 C29 C -0.01390 -0.05553 0.04900
 C30 C -0.03500 -0.07801 0.07063
 C31 C -0.09077 -0.05181 0.04590
 C32 C -0.06865 -0.02980 0.02473
 N33 N -0.03092 -0.03169 0.02701
 H34 H -0.00863 0.00505 -0.08060
 H35 H -0.05262 0.05324 0.01298
 H36 H -0.09173 0.09290 -0.02428
 H37 H -0.04691 0.04349 -0.11950
 H38 H 0.01612 -0.05687 0.04985
 H39 H -0.02123 -0.09666 0.08832
 H40 H -0.12078 -0.04998 0.04414
 H41 H -0.08169 -0.01136 0.00647
 C42 C 0.07459 -0.07729 -0.06965
 C43 C 0.07100 0.07411 0.06980
 C44 C -0.07378 -0.07599 0.06917
 C45 C -0.07233 0.07083 -0.07466
 C46 C 0.05374 0.55397 0.51315
 H47 H 0.05445 0.55488 0.48404
 C48 C 0.07556 0.57738 0.53341
 H49 H 0.09330 0.59631 0.51992
 C50 C 0.02944 0.52853 0.56643
 H51 H 0.01102 0.50988 0.57923
 C52 C 0.05079 0.55146 0.58768
 H53 H 0.04904 0.55012 0.61677
 N54 N 0.03162 0.52988 0.52985
 C55 C 0.01619 0.44451 0.45164
 H56 H -0.01382 0.44286 0.45106
 C57 C 0.03731 0.42150 0.43050
 H58 H 0.02356 0.40213 0.41345
 C59 C 0.07090 0.47161 0.47470
 H60 H 0.08393 0.49083 0.49228
 C61 C 0.09305 0.44910 0.45400
 H62 H 0.12304 0.45132 0.45543
 Zn63 Zn 0.00246 0.49949 0.50046
 N64 N 0.03318 0.46928 0.47276
 C65 C -0.02477 0.52575 0.43354
 N66 N -0.02677 0.52859 0.47005
 C67 C -0.04885 0.55326 0.48599
 C68 C -0.07085 0.57572 0.46504
 C69 C -0.04630 0.54771 0.41159
 C70 C -0.01133 0.44644 0.55114
 C71 C -0.03249 0.42413 0.57289
 C72 C -0.08818 0.45060 0.54827
 C73 C -0.06599 0.47243 0.52698
 N74 N -0.02827 0.47032 0.52914
 H75 H -0.00639 0.50665 0.42133
 H76 H -0.04943 0.55534 0.51506
 H77 H -0.08856 0.59511 0.47794
 H78 H -0.04472 0.54518 0.38257
 H79 H 0.01869 0.44492 0.55189
 H80 H -0.01879 0.40541 0.59056
 H81 H -0.11818 0.45258 0.54658
 H82 H -0.07898 0.49089 0.50872
 C83 C 0.07607 0.42397 0.43157
 C84 C 0.07414 0.57600 0.57101
 C85 C -0.07126 0.42636 0.57153
 C86 C -0.06964 0.57280 0.42750
 C87 C 0.54987 0.05328 0.51654
 H88 H 0.55073 0.05522 0.48748
 C89 C 0.57177 0.07582 0.53773
 H90 H 0.58967 0.09512 0.52501
 C91 C 0.52522 0.02606 0.56873
 H92 H 0.50667 0.00704 0.58076
 C93 C 0.54664 0.04809 0.59090
 H94 H 0.54478 0.04570 0.61991
 N95 N 0.52756 0.02870 0.53224
 C96 C 0.51248 -0.05414 0.45121
 H97 H 0.48246 -0.05574 0.45047
 C98 C 0.53364 -0.07658 0.42951
 H99 H 0.51994 -0.09550 0.41190
 C100 C 0.56712 -0.02775 0.47525
 H101 H 0.58010 -0.00906 0.49345
 C102 C 0.58933 -0.04972 0.45401
 H103 H 0.61932 -0.04763 0.45566
 Zn104 Zn 0.49853 -0.00066 0.50162
 N105 N 0.52940 -0.02999 0.47312
 C106 C 0.47216 0.02771 0.43540
 N107 N 0.46952 0.02938 0.47194
 C108 C 0.44703 0.05346 0.48830
 C109 C 0.42525 0.07646 0.46771
 C110 C 0.45088 0.05023 0.41382
 C111 C 0.48471 -0.05544 0.55023
 C112 C 0.46362 -0.07854 0.57117
 C113 C 0.40785 -0.05131 0.54761
 C114 C 0.42999 -0.02870 0.52710
 N115 N 0.46771 -0.03082 0.52915
 H116 H 0.49086 0.00910 0.42286
 H117 H 0.44594 0.05463 0.51740
 H118 H 0.40720 0.09534 0.48092
 H119 H 0.45298 0.04859 0.38476
 H120 H 0.51473 -0.05693 0.55090
 H121 H 0.47738 -0.09781 0.58816
 H122 H 0.37785 -0.04929 0.54607
 H123 H 0.41695 -0.00960 0.50955
 C124 C 0.57241 -0.07422 0.43083
 C125 C 0.57022 0.07307 0.57525
 C126 C 0.42484 -0.07632 0.56996
 C127 C 0.42712 0.07471 0.43013
 C128 C 0.54934 0.55592 0.01385
 H129 H 0.54984 0.55782 -0.01521
 C130 C 0.57126 0.57867 0.03477
 H131 H 0.58884 0.59810 0.02184
 C132 C 0.52551 0.52858 0.06635
 H133 H 0.50726 0.50943 0.07860
 C134 C 0.54697 0.55083 0.08825
 H135 H 0.54546 0.54846 0.11729
 N136 N 0.52742 0.53119 0.02983
 C137 C 0.51199 0.44831 -0.05111
 H138 H 0.48197 0.44660 -0.05164
 C139 C 0.53310 0.42589 -0.07288
 H140 H 0.51935 0.40689 -0.09037
 C141 C 0.56669 0.47489 -0.02741
 H142 H 0.57972 0.49363 -0.00930
 C143 C 0.58883 0.45295 -0.04874
 H144 H 0.61883 0.45512 -0.04724
 Zn145 Zn 0.49823 0.50167 -0.00046
 N146 N 0.52897 0.47252 -0.02931
 C147 C 0.47081 0.53004 -0.06632
 N148 N 0.46869 0.53160 -0.02974
 C149 C 0.44639 0.55559 -0.01300
 C150 C 0.42432 0.57864 -0.03322
 C151 C 0.44922 0.55262 -0.08753
 C152 C 0.48524 0.44679 0.04830
 C153 C 0.46448 0.42353 0.06938
 C154 C 0.40834 0.45044 0.04629
 C155 C 0.43015 0.47322 0.02564
 N156 N 0.46790 0.47132 0.02738
 H157 H 0.48936 0.51150 -0.07915
 H158 H 0.44572 0.55667 0.01611
 H159 H 0.40644 0.59748 -0.01970
 H160 H 0.45092 0.55110 -0.11662
 H161 H 0.51528 0.44548 0.04872
 H162 H 0.47852 0.40430 0.08622
 H163 H 0.37832 0.45227 0.04497
 H164 H 0.41683 0.49226 0.00821
 C165 C 0.57187 0.42834 -0.07177
 C166 C 0.57014 0.57599 0.07231
 C167 C 0.42569 0.42549 0.06846
 C168 C 0.42569 0.57704 -0.07083
 C169 C 0.17791 -0.21742 -0.17319
 C170 C 0.18047 -0.18046 -0.17433
 C171 C 0.20503 -0.16433 -0.19834
 C172 C 0.22661 -0.18498 -0.22149
 C173 C 0.22352 -0.22210 -0.22117
 C174 C 0.19949 -0.23813 -0.19630
 C175 C 0.15776 -0.15900 -0.15111
 C176 C 0.13869 -0.14072 -0.13201
 C177 C 0.11636 -0.11897 -0.11000
 C178 C 0.09730 -0.10012 -0.09147
 H179 H 0.15917 -0.23021 -0.15454
 H180 H 0.20750 -0.13575 -0.19919
 H181 H 0.24567 -0.17164 -0.23929
 H182 H 0.19708 -0.26671 -0.19497
 C183 C 0.20394 0.33606 0.30096
 C184 C 0.17994 0.32014 0.32567
 C185 C 0.17762 0.28317 0.32741
 C186 C 0.19901 0.26224 0.30433
 C187 C 0.22263 0.27810 0.27911
 C188 C 0.22532 0.31514 0.27787
 C189 C 0.15763 0.34180 0.34905
 C190 C 0.13893 0.36022 0.36836
 C191 C 0.11705 0.38211 0.39065
 C192 C 0.09836 0.40105 0.40944
 H193 H 0.20613 0.36463 0.29954
 H194 H 0.15926 0.27055 0.34654
 H195 H 0.19698 0.23368 0.30599
 H196 H 0.24390 0.32806 0.25927
 C197 C 0.67824 -0.17203 0.28843
 C198 C 0.67680 -0.17822 0.32554
 C199 C 0.69728 -0.20607 0.34047
 C200 C 0.71932 -0.22747 0.31844
 C201 C 0.72134 -0.22106 0.28125
 C202 C 0.70028 -0.19341 0.26639
 C203 C 0.65427 -0.15609 0.34826
 C204 C 0.63546 -0.13748 0.36727
 C205 C 0.61349 -0.11559 0.38949
 C206 C 0.59476 -0.09680 0.40839
 H207 H 0.66229 -0.15070 0.27652
 H208 H 0.69614 -0.21131 0.36912
 H209 H 0.73436 -0.24915 0.33060
 H210 H 0.70063 -0.18831 0.23781
 C211 C 0.67791 0.28745 -0.17059
 C212 C 0.67638 0.32398 -0.17660
 C213 C 0.69682 0.33885 -0.20473
 C214 C 0.71892 0.31734 -0.22659
 C215 C 0.72103 0.28073 -0.22036
 C216 C 0.70002 0.26593 -0.19243
 C217 C 0.65377 0.34619 -0.15402
 C218 C 0.63491 0.36486 -0.13512
 C219 C 0.61291 0.38684 -0.11302
 C220 C 0.59417 0.40570 -0.09418
 H221 H 0.66199 0.27560 -0.14906
 H222 H 0.69560 0.36706 -0.20984
 H223 H 0.73392 0.32945 -0.24849
 H224 H 0.70043 0.23779 -0.18747
 C225 C -0.15982 0.20463 -0.19720
 C226 C -0.17658 0.17708 -0.17808
 C227 C -0.21500 0.17181 -0.18080
 C228 C -0.23659 0.19423 -0.20225
 C229 C -0.22008 0.22238 -0.22091
 C230 C -0.18141 0.22704 -0.21867
 C231 C -0.15432 0.15412 -0.15589
 C232 C -0.13559 0.13498 -0.13728
 C233 C -0.11361 0.11264 -0.11548
 C234 C -0.09480 0.09359 -0.09687
 H235 H -0.13005 0.20874 -0.19559
 H236 H -0.22823 0.15029 -0.16649
 H237 H -0.26609 0.18914 -0.20466
 H238 H -0.16761 0.24776 -0.23342
 C239 C -0.17343 0.71442 0.32761
 C240 C -0.17531 0.67756 0.32393
 C241 C -0.19953 0.66247 0.29853
 C242 C -0.22169 0.68413 0.27681
 C243 C -0.21968 0.72112 0.28016
 C244 C -0.19558 0.73608 0.30589
 C245 C -0.15254 0.65523 0.34628
 C246 C -0.13348 0.63647 0.36496
 C247 C -0.11122 0.61441 0.38678
 C248 C -0.09224 0.59550 0.40537
 H249 H -0.15493 0.72640 0.34729
 H250 H -0.20134 0.63397 0.29558
 H251 H -0.24036 0.67182 0.25760
 H252 H -0.19401 0.76454 0.30924
 C253 C 0.32539 0.21609 0.32668
 C254 C 0.32280 0.17913 0.32490
 C255 C 0.29831 0.16324 0.30027
 C256 C 0.27668 0.18416 0.27734
 C257 C 0.27958 0.22120 0.27867
 C258 C 0.30374 0.23704 0.30376
 C259 C 0.34525 0.15743 0.34820
 C260 C 0.36403 0.13894 0.36744
 C261 C 0.38598 0.11693 0.38962
 C262 C 0.40473 0.09784 0.40826
 H263 H 0.34412 0.22870 0.34574
 H264 H 0.29591 0.13466 0.29881
 H265 H 0.25768 0.17127 0.25885
 H266 H 0.30594 0.26560 0.30550
 C267 C 0.32326 0.71878 -0.17330
 C268 C 0.32036 0.68185 -0.17468
 C269 C 0.29551 0.66591 -0.19890
 C270 C 0.27395 0.68672 -0.22198
 C271 C 0.27735 0.72382 -0.22140
 C272 C 0.30170 0.73967 -0.19636
 C273 C 0.34297 0.66018 -0.15149
 C274 C 0.36190 0.64163 -0.13246
 C275 C 0.38408 0.61951 -0.11062
 C276 C 0.40303 0.60030 -0.09230
 H277 H 0.34223 0.73143 -0.15449
 H278 H 0.29277 0.63735 -0.19993
 H279 H 0.25464 0.67351 -0.23990
 H280 H 0.30433 0.76822 -0.19481
 C281 C -0.16006 -0.19829 0.20353
 C282 C -0.17706 -0.17939 0.17560
 C283 C -0.21550 -0.18196 0.17034
 C284 C -0.23690 -0.20305 0.19317
 C285 C -0.22014 -0.22149 0.22172
 C286 C -0.18144 -0.21939 0.22635
 C287 C -0.15502 -0.15746 0.15233
 C288 C -0.13648 -0.13899 0.13301
 C289 C -0.11470 -0.11723 0.11059
 C290 C -0.09606 -0.09852 0.09162
 H291 H -0.13027 -0.19676 0.20764
 H292 H -0.22892 -0.16780 0.14854
 H293 H -0.26643 -0.20534 0.18808
 H294 H -0.16747 -0.23397 0.24735
 C295 C -0.17412 0.32659 0.71408
 C296 C -0.17606 0.32299 0.67658
 C297 C -0.20020 0.29803 0.66117
 C298 C -0.22222 0.27665 0.68316
 C299 C -0.22014 0.27993 0.72079
 C300 C -0.19612 0.30522 0.73606
 C301 C -0.15346 0.34502 0.65393
 C302 C -0.13455 0.36351 0.63498
 C303 C -0.11246 0.38525 0.61283
 C304 C -0.09364 0.40392 0.59397
 H305 H -0.15568 0.34593 0.72631
 H306 H -0.20206 0.29514 0.63217
 H307 H -0.24083 0.25777 0.67059
 H308 H -0.19450 0.30850 0.76502
 C309 C 0.28281 -0.17963 0.67313
 C310 C 0.32162 -0.18168 0.67444
 C311 C 0.33885 -0.20499 0.69851
 C312 C 0.31742 -0.22584 0.72154
 C313 C 0.27844 -0.22326 0.72102
 C314 C 0.26134 -0.20045 0.69611
 C315 C 0.34374 -0.15959 0.65140
 C316 C 0.36228 -0.14084 0.63236
 C317 C 0.38400 -0.11862 0.61036
 C318 C 0.40259 -0.09944 0.59181
 H319 H 0.26916 -0.16183 0.65446
 H320 H 0.36887 -0.20703 0.69950
 H321 H 0.33162 -0.24390 0.73942
 H322 H 0.23132 -0.19841 0.69465
 C323 C 0.34056 0.29610 0.19705
 C324 C 0.32330 0.31906 0.17262
 C325 C 0.28446 0.32057 0.17078
 C326 C 0.26300 0.29949 0.19354
 C327 C 0.28017 0.27697 0.21854
 C328 C 0.31909 0.27502 0.21983
 C329 C 0.34539 0.34137 0.14976
 C330 C 0.36384 0.36032 0.13083
 C331 C 0.38538 0.38277 0.10890
 C332 C 0.40375 0.40214 0.09036
 H333 H 0.37060 0.29457 0.19856
 H334 H 0.27079 0.33814 0.15190
 H335 H 0.23298 0.30100 0.19187
 H336 H 0.33302 0.25733 0.23831
 C337 C 0.15975 0.20350 0.19773
 C338 C 0.17637 0.18040 0.17303
 C339 C 0.21516 0.17869 0.17080
 C340 C 0.23721 0.19971 0.19344
 C341 C 0.22069 0.22237 0.21871
 C342 C 0.18181 0.22452 0.22039
 C343 C 0.15365 0.15815 0.15032
 C344 C 0.13465 0.13927 0.13154
 C345 C 0.11244 0.11687 0.10981
 C346 C 0.09352 0.09751 0.09146
 H347 H 0.12976 0.20518 0.19954
 H348 H 0.22833 0.16101 0.15171
 H349 H 0.26719 0.19806 0.19147
 H350 H 0.16835 0.24232 0.23906
 C351 C 0.21712 0.68146 0.67269
 C352 C 0.17832 0.68339 0.67413
 C353 C 0.16133 0.70677 0.69827
 C354 C 0.18299 0.72775 0.72132
 C355 C 0.22196 0.72523 0.72075
 C356 C 0.23882 0.70242 0.69569
 C357 C 0.15596 0.66098 0.65126
 C358 C 0.13723 0.64191 0.63243
 C359 C 0.11528 0.61926 0.61074
 C360 C 0.09653 0.59966 0.59249
 H361 H 0.23058 0.66361 0.65397
 H362 H 0.13131 0.70870 0.69936
 H363 H 0.16896 0.74582 0.73930
 H364 H 0.26882 0.70043 0.69420
 C365 C 0.71411 0.17245 0.68182
 C366 C 0.67574 0.17825 0.67955
 C367 C 0.65967 0.20616 0.69889
 C368 C 0.68188 0.22825 0.72033
 C369 C 0.72035 0.22257 0.72255
 C370 C 0.73632 0.19451 0.70325
 C371 C 0.65293 0.15573 0.65722
 C372 C 0.63389 0.13687 0.63844
 C373 C 0.61166 0.11476 0.61643
 C374 C 0.59274 0.09581 0.59763
 H375 H 0.72685 0.15095 0.66696
 H376 H 0.63002 0.21093 0.69729
 H377 H 0.66898 0.24983 0.73483
 H378 H 0.76598 0.18979 0.70466
 C379 C 0.65978 0.69994 0.20516
 C380 C 0.67577 0.68088 0.17678
 C381 C 0.71411 0.68303 0.17087
 C382 C 0.73637 0.70405 0.19332
 C383 C 0.72048 0.72304 0.22187
 C384 C 0.68204 0.72096 0.22763
 C385 C 0.65294 0.65878 0.15403
 C386 C 0.63388 0.64008 0.13510
 C387 C 0.61164 0.61798 0.11310
 C388 C 0.59270 0.59893 0.09444
 H389 H 0.63015 0.69841 0.21002
 H390 H 0.72679 0.66837 0.14903
 H391 H 0.76601 0.70536 0.18853
 H392 H 0.66919 0.73524 0.24959
   
