data_POSCAR
  _audit_creation_date              2014-09-24
  _audit_creation_method            'ToBaCCo'
  _symmetry_space_group_name_H-M    'P1'
  _symmetry_Int_Tables_number       1
  _symmetry_cell_setting            triclinic
  loop_
  _symmetry_equiv_pos_as_xyz
 x,y,z
_cell_length_a 37.5431
_cell_length_b 38.0214
_cell_length_c 37.7532
_cell_angle_alpha 89.993900
_cell_angle_beta 89.959800
_cell_angle_gamma 90.090500
loop_
  _atom_site_label
  _atom_site_type_symbol
  _atom_site_fract_x
  _atom_site_fract_y
  _atom_site_fract_z
O1 O 0.32810 0.36297 0.03469
 O2 O 0.37441 0.32126 -0.03874
 O3 O 0.32621 0.36998 -0.03304
 O4 O 0.37674 0.31529 0.02823
 O5 O 0.33610 0.27327 0.02493
 O6 O 0.28334 0.33015 -0.03545
 O7 O 0.33274 0.28035 -0.04276
 O8 O 0.28568 0.32267 0.03264
 Cu9 Cu 0.35537 0.34647 -0.00198
 Cu10 Cu 0.30507 0.29747 -0.00535
 C11 C 0.29857 0.35086 0.04548
 C12 C 0.36258 0.29308 -0.05225
 C13 C 0.29576 0.36020 -0.04368
 C14 C 0.36614 0.28451 0.03562
 O15 O 0.67370 0.63168 0.03515
 O16 O 0.62351 0.68068 -0.03085
 O17 O 0.67455 0.63456 -0.03239
 O18 O 0.62520 0.68008 0.03660
 O19 O 0.66644 0.72150 0.03930
 O20 O 0.71516 0.67661 -0.03364
 O21 O 0.66272 0.72410 -0.02897
 O22 O 0.71641 0.67180 0.03466
 Cu23 Cu 0.64526 0.65265 0.00200
 Cu24 Cu 0.69441 0.70283 0.00288
 C25 C 0.70417 0.64226 0.04481
 C26 C 0.63329 0.71133 -0.03965
 C27 C 0.70368 0.64689 -0.04406
 C28 C 0.63663 0.70891 0.04905
 O29 O 0.63601 0.32220 1.02261
 O30 O 0.67647 0.37742 0.95489
 O31 O 0.63079 0.32641 0.95520
 O32 O 0.68329 0.37197 1.02205
 O33 O 0.72725 0.33394 1.01542
 O34 O 0.67365 0.28746 0.94713
 O35 O 0.72034 0.33936 0.94770
 O36 O 0.67796 0.28207 1.01559
 Cu37 Cu 0.65241 0.35326 0.98945
 Cu38 Cu 0.70425 0.30659 0.98106
 C39 C 0.64887 0.29223 1.02951
 C40 C 0.70564 0.36862 0.94057
 C41 C 0.64265 0.29895 0.94028
 C42 C 0.71470 0.36192 1.02897
 O43 O 0.36669 0.67445 1.04613
 O44 O 0.31485 0.63206 0.97677
 O45 O 0.36165 0.68198 0.97898
 O46 O 0.32000 0.62379 1.04323
 O47 O 0.27654 0.66188 1.05227
 O48 O 0.31976 0.72193 0.98718
 O49 O 0.27071 0.66961 0.98500
 O50 O 0.32409 0.71344 1.05526
 Cu51 Cu 0.34509 0.64940 1.01052
 Cu52 Cu 0.29338 0.69587 1.02052
 C53 C 0.35504 0.70162 1.06173
 C54 C 0.28336 0.64215 0.97048
 C55 C 0.34895 0.71224 0.97313
 C56 C 0.29056 0.63189 1.05748
 O57 O 0.02381 0.31499 0.37029
 O58 O -0.04470 0.36693 0.32683
 O59 O -0.04325 0.31993 0.37682
 O60 O 0.02304 0.36162 0.32036
 O61 O 0.01578 0.32066 0.27948
 O62 O -0.05165 0.27769 0.33749
 O63 O -0.05274 0.32560 0.28646
 O64 O 0.01619 0.27188 0.33172
 Cu65 Cu -0.00955 0.34507 0.35235
 Cu66 Cu -0.01861 0.29468 0.30453
 C67 C 0.03016 0.28398 0.35988
 C68 C -0.05959 0.35593 0.29882
 C69 C -0.05763 0.29112 0.36775
 C70 C 0.02976 0.34933 0.28992
 O71 O 0.04549 0.67599 0.62099
 O72 O -0.02403 0.63657 0.67525
 O73 O -0.02179 0.68370 0.62574
 O74 O 0.04373 0.62952 0.67134
 O75 O 0.05225 0.67096 0.71150
 O76 O -0.01415 0.72645 0.66467
 O77 O -0.01649 0.67730 0.71635
 O78 O 0.05391 0.71812 0.66047
 Cu79 Cu 0.01006 0.65231 0.64448
 Cu80 Cu 0.01932 0.70251 0.69248
 C81 C 0.06071 0.70416 0.63064
 C82 C -0.03110 0.64907 0.70551
 C83 C -0.02787 0.71478 0.63620
 C84 C 0.05859 0.64042 0.69943
 O85 O 1.03526 0.62290 0.32062
 O86 O 0.96886 0.67497 0.36719
 O87 O 0.96758 0.62569 0.31959
 O88 O 1.03682 0.67411 0.36587
 O89 O 1.03995 0.71319 0.32271
 O90 O 0.96666 0.66547 0.27694
 O91 O 0.97123 0.71618 0.32593
 O92 O 1.03519 0.66062 0.27601
 Cu93 Cu 1.00199 0.64561 0.34757
 Cu94 Cu 1.00334 0.69296 0.29595
 C95 C 1.04507 0.63171 0.28979
 C96 C 0.96015 0.70504 0.35573
 C97 C 0.95610 0.63644 0.28996
 C98 C 1.04960 0.70224 0.35303
 O99 O 0.96163 0.32707 0.63584
 O100 O 1.03377 0.37303 0.68029
 O101 O 1.02964 0.32446 0.63225
 O102 O 0.96628 0.37671 0.68292
 O103 O 0.96762 0.33810 0.72670
 O104 O 1.02863 0.28268 0.67295
 O105 O 1.03567 0.33258 0.72227
 O106 O 0.95988 0.28705 0.67821
 Cu107 Cu 0.99780 0.35418 0.65363
 Cu108 Cu 0.99787 0.30585 0.70431
 C109 C 0.94911 0.29881 0.64856
 C110 C 1.04614 0.36169 0.70933
 C111 C 1.03875 0.29419 0.64295
 C112 C 0.95784 0.36754 0.71407
 O113 O 0.37616 0.04714 0.32372
 O114 O 0.32100 -0.02065 0.36420
 O115 O 0.37015 -0.01933 0.31606
 O116 O 0.32594 0.04613 0.37107
 O117 O 0.28510 0.05487 0.32989
 O118 O 0.33061 -0.01141 0.27347
 O119 O 0.27939 -0.01290 0.32357
 O120 O 0.33608 0.05590 0.28179
 Cu121 Cu 0.35226 0.01253 0.34785
 Cu122 Cu 0.30354 0.02216 0.29787
 C123 C 0.36634 0.06228 0.29548
 C124 C 0.29039 -0.02737 0.35190
 C125 C 0.35906 -0.02542 0.28498
 C126 C 0.29768 0.06100 0.36051
 O127 O 0.67506 -0.04628 0.63177
 O128 O 0.63260 0.02185 0.68462
 O129 O 0.68225 0.02043 0.63700
 O130 O 0.62520 -0.04439 0.67971
 O131 O 0.66509 -0.05291 0.72187
 O132 O 0.72373 0.01283 0.67779
 O133 O 0.67183 0.01411 0.72756
 O134 O 0.71579 -0.05479 0.67310
 Cu135 Cu 0.64991 -0.01137 0.65411
 Cu136 Cu 0.69842 -0.02072 0.70435
 C137 C 0.70309 -0.06135 0.64261
 C138 C 0.64356 0.02821 0.71567
 C139 C 0.71310 0.02668 0.64901
 C140 C 0.63451 -0.05860 0.70861
 O141 O 0.36236 0.96176 0.67455
 O142 O 0.31902 1.03444 0.62945
 O143 O 0.36807 1.02885 0.67749
 O144 O 0.31475 0.96792 0.62520
 O145 O 0.27141 0.96976 0.66485
 O146 O 0.32737 1.02916 0.71984
 O147 O 0.27718 1.03688 0.67057
 O148 O 0.32058 0.96136 0.71577
 Cu149 Cu 0.34523 0.99813 0.64773
 Cu150 Cu 0.29489 0.99926 0.69711
 C151 C 0.34978 0.94985 0.70330
 C152 C 0.29018 1.04714 0.64124
 C153 C 0.35766 1.03839 0.70791
 C154 C 0.28346 0.96003 0.63493
 O155 O 0.63160 0.96858 0.32406
 O156 O 0.68063 1.03318 0.37590
 O157 O 0.63456 1.03566 0.32469
 O158 O 0.68020 0.96623 0.37290
 O159 O 0.72256 0.96437 0.33230
 O160 O 0.67770 1.03774 0.28493
 O161 O 0.72509 1.03204 0.33749
 O162 O 0.67271 0.96990 0.28211
 Cu163 Cu 0.65253 1.00091 0.35328
 Cu164 Cu 0.70392 1.00103 0.30504
 C165 C 0.64264 0.95959 0.29370
 C166 C 0.71181 1.04214 0.36679
 C167 C 0.64754 1.04791 0.29624
 C168 C 0.70954 0.95416 0.36164
 C169 C 0.91630 0.77594 0.49692
 C170 C 0.89761 0.78215 0.46568
 C171 C 0.86628 0.80201 0.46667
 C172 C 0.85391 0.81689 0.49889
 C173 C 0.87269 0.80854 0.53047
 C174 C 0.90294 0.78703 0.52950
 C175 C 0.82120 0.83989 0.49942
 C176 C 0.80286 0.84730 0.53150
 C177 C 0.77280 0.86902 0.53162
 C178 C 0.75920 0.88139 0.49969
 C179 C 0.77708 0.87568 0.46790
 C180 C 0.80832 0.85563 0.46776
 H181 H 0.94013 0.75987 0.49618
 H182 H 0.85157 0.80489 0.44231
 H183 H 0.86434 0.81815 0.55600
 H184 H 0.81144 0.83679 0.55659
 H185 H 0.73551 0.89767 0.49987
 H186 H 0.82247 0.85320 0.44299
 C187 C 0.08428 0.22494 0.50287
 C188 C 0.09818 0.21317 0.47075
 C189 C 0.12834 0.19163 0.47068
 C190 C 0.14663 0.18384 0.50263
 C191 C 0.13357 0.19902 0.53446
 C192 C 0.10224 0.21897 0.53460
 C193 C 0.17947 0.16103 0.50274
 C194 C 0.19227 0.14594 0.53473
 C195 C 0.22339 0.12573 0.53498
 C196 C 0.24134 0.11935 0.50335
 C197 C 0.22797 0.13128 0.47120
 C198 C 0.19799 0.15308 0.47087
 H199 H 0.06051 0.24112 0.50287
 H200 H 0.13701 0.18157 0.44544
 H201 H 0.14769 0.19627 0.55918
 H202 H 0.17813 0.14889 0.55943
 H203 H 0.26491 0.10289 0.50350
 H204 H 0.18963 0.16317 0.44555
 C205 C 0.12248 0.75489 0.48658
 C206 C 0.13314 0.76944 0.51858
 C207 C 0.15319 0.80036 0.51866
 C208 C 0.16036 0.81891 0.48671
 C209 C 0.14619 0.80486 0.45472
 C210 C 0.12771 0.77276 0.45477
 C211 C 0.18125 0.85297 0.48707
 C212 C 0.19469 0.86813 0.45533
 C213 C 0.21367 0.89995 0.45606
 C214 C 0.22024 0.91642 0.48845
 C215 C 0.21004 0.90074 0.52018
 C216 C 0.18938 0.87020 0.51948
 H217 H 0.10731 0.73058 0.48675
 H218 H 0.16232 0.80935 0.54408
 H219 H 0.14840 0.81870 0.42987
 H220 H 0.19157 0.85529 0.43004
 H221 H 0.23589 0.94041 0.48913
 H222 H 0.18053 0.86038 0.54469
 C223 C 0.88196 0.24198 0.51129
 C224 C 0.87196 0.22749 0.54371
 C225 C 0.85061 0.19719 0.54439
 C226 C 0.84096 0.17985 0.51238
 C227 C 0.85470 0.19371 0.48014
 C228 C 0.87436 0.22493 0.47962
 C229 C 0.81788 0.14719 0.51220
 C230 C 0.80311 0.13444 0.48001
 C231 C 0.78374 0.10305 0.47897
 C232 C 0.77757 0.08459 0.51021
 C233 C 0.78821 0.09824 0.54284
 C234 C 0.80927 0.12874 0.54385
 H235 H 0.89796 0.26575 0.51081
 H236 H 0.84234 0.18764 0.56997
 H237 H 0.85117 0.18042 0.45519
 H238 H 0.80560 0.14878 0.45553
 H239 H 0.76182 0.06066 0.50940
 H240 H 0.81815 0.13760 0.56947
 C241 C 0.48774 0.88304 0.75948
 C242 C 0.45510 0.87267 0.77369
 C243 C 0.45432 0.85095 0.80369
 C244 C 0.48643 0.84113 0.82104
 C245 C 0.51892 0.85481 0.80734
 C246 C 0.51956 0.87486 0.77633
 C247 C 0.48643 0.81790 0.85358
 C248 C 0.51874 0.80324 0.86638
 C249 C 0.51966 0.78384 0.89779
 C250 C 0.48815 0.77751 0.91618
 C251 C 0.45538 0.78805 0.90238
 C252 C 0.45450 0.80914 0.87190
 H253 H 0.48829 0.89945 0.73597
 H254 H 0.42856 0.84259 0.81306
 H255 H 0.54401 0.85092 0.82057
 H256 H 0.54343 0.80587 0.85210
 H257 H 0.48887 0.76176 0.94012
 H258 H 0.42878 0.81793 0.86297
 C259 C 0.51157 0.12149 0.24327
 C260 C 0.47945 0.13265 0.22893
 C261 C 0.47953 0.15306 0.19817
 C262 C 0.51174 0.16021 0.17963
 C263 C 0.54377 0.14569 0.19346
 C264 C 0.54361 0.12684 0.22541
 C265 C 0.51167 0.18148 0.14577
 C266 C 0.54378 0.19516 0.13122
 C267 C 0.54353 0.21419 0.09939
 C268 C 0.51125 0.22052 0.08226
 C269 C 0.47908 0.21033 0.09748
 C270 C 0.47930 0.18969 0.12811
 H271 H 0.51131 0.10607 0.26745
 H272 H 0.45410 0.16257 0.18927
 H273 H 0.56877 0.14795 0.17954
 H274 H 0.56897 0.19215 0.14459
 H275 H 0.51095 0.23613 0.05821
 H276 H 0.45382 0.18085 0.13765
 C277 C 0.50146 0.08388 0.77673
 C278 C 0.53398 0.09797 0.78756
 C279 C 0.53449 0.12861 0.80813
 C280 C 0.50250 0.14700 0.81588
 C281 C 0.47031 0.13364 0.80137
 C282 C 0.46976 0.10201 0.78244
 C283 C 0.50256 0.18036 0.83762
 C284 C 0.47026 0.19426 0.85143
 C285 C 0.46995 0.22607 0.87002
 C286 C 0.50180 0.24380 0.87606
 C287 C 0.53425 0.22922 0.86612
 C288 C 0.53474 0.19835 0.84592
 H289 H 0.50110 0.05986 0.76125
 H290 H 0.56008 0.13762 0.81729
 H291 H 0.44555 0.14775 0.80371
 H292 H 0.44528 0.18045 0.84893
 H293 H 0.50155 0.26798 0.89131
 H294 H 0.56040 0.18890 0.83748
 C295 C 0.49967 0.91627 0.22320
 C296 C 0.53102 0.89757 0.21748
 C297 C 0.52993 0.86614 0.19826
 C298 C 0.49755 0.85365 0.18344
 C299 C 0.46585 0.87250 0.19126
 C300 C 0.46689 0.90293 0.21219
 C301 C 0.49708 0.82070 0.16117
 C302 C 0.46486 0.80239 0.15387
 C303 C 0.46502 0.77186 0.13312
 C304 C 0.49732 0.75795 0.12167
 C305 C 0.52916 0.77598 0.12693
 C306 C 0.52905 0.80752 0.14599
 H307 H 0.50047 0.94017 0.23887
 H308 H 0.55436 0.85143 0.19588
 H309 H 0.44018 0.86401 0.18175
 H310 H 0.43949 0.81137 0.16369
 H311 H 0.49736 0.73396 0.10612
 H312 H 0.55389 0.82169 0.14800
 C313 C 0.75778 0.51360 0.88531
 C314 C 0.77034 0.48228 0.87118
 C315 C 0.79901 0.48289 0.84765
 C316 C 0.81763 0.51467 0.84033
 C317 C 0.80506 0.54608 0.85658
 C318 C 0.77476 0.54549 0.87837
 C319 C 0.85040 0.51457 0.81706
 C320 C 0.86466 0.54619 0.80273
 C321 C 0.89582 0.54563 0.78217
 C322 C 0.91228 0.51356 0.77477
 C323 C 0.89732 0.48197 0.78596
 C324 C 0.86765 0.48251 0.80825
 H325 H 0.73516 0.51293 0.90320
 H326 H 0.80638 0.45817 0.83588
 H327 H 0.81867 0.57087 0.85323
 H328 H 0.85171 0.57120 0.80671
 H329 H 0.93582 0.51301 0.75811
 H330 H 0.85866 0.45751 0.81821
 C331 C 0.24119 0.48678 0.11219
 C332 C 0.22830 0.45447 0.12411
 C333 C 0.19976 0.45353 0.14808
 C334 C 0.18244 0.48509 0.15861
 C335 C 0.19497 0.51724 0.14387
 C336 C 0.22477 0.51809 0.12175
 C337 C 0.15106 0.48490 0.18372
 C338 C 0.13898 0.51673 0.19924
 C339 C 0.10803 0.51770 0.21972
 C340 C 0.08968 0.48664 0.22666
 C341 C 0.10295 0.45428 0.21530
 C342 C 0.13281 0.45338 0.19293
 H343 H 0.26363 0.48751 0.09410
 H344 H 0.19141 0.42812 0.15765
 H345 H 0.18176 0.54191 0.14865
 H346 H 0.15337 0.54107 0.19618
 H347 H 0.06602 0.48743 0.24314
 H348 H 0.14121 0.42804 0.18328
 C349 C 0.77276 0.50030 0.08851
 C350 C 0.77926 0.53123 0.10722
 C351 C 0.79992 0.53014 0.13800
 C352 C 0.81554 0.49822 0.14964
 C353 C 0.80702 0.46693 0.13086
 C354 C 0.78469 0.46794 0.10117
 C355 C 0.83998 0.49782 0.18127
 C356 C 0.84779 0.46610 0.19954
 C357 C 0.87134 0.46604 0.22827
 C358 C 0.88539 0.49769 0.24050
 C359 C 0.87856 0.52923 0.22308
 C360 C 0.85667 0.52927 0.19312
 H361 H 0.75619 0.50114 0.06501
 H362 H 0.80310 0.55426 0.15273
 H363 H 0.81740 0.44167 0.13870
 H364 H 0.83619 0.44130 0.19183
 H365 H 0.90319 0.49757 0.26311
 H366 H 0.85351 0.55383 0.17914
 C367 C 0.22673 0.50070 0.91236
 C368 C 0.21398 0.53260 0.89930
 C369 C 0.19190 0.53276 0.86943
 C370 C 0.18457 0.50118 0.85072
 C371 C 0.20087 0.46973 0.86285
 C372 C 0.22125 0.46943 0.89390
 C373 C 0.16086 0.50094 0.81851
 C374 C 0.14531 0.46908 0.80630
 C375 C 0.12443 0.46851 0.77563
 C376 C 0.11767 0.49977 0.75766
 C377 C 0.12999 0.53185 0.77052
 C378 C 0.15254 0.53246 0.80004
 H379 H 0.24315 0.50056 0.93599
 H380 H 0.18090 0.55766 0.86134
 H381 H 0.19845 0.44543 0.84827
 H382 H 0.14850 0.44470 0.82060
 H383 H 0.10074 0.49937 0.73439
 H384 H 0.16302 0.55763 0.80811
 C385 C 0.24118 0.41733 0.06754
 C386 C 0.28179 0.41319 0.06538
 C387 C 0.27755 0.37317 0.07049
 C388 C 0.23683 0.37725 0.07258
 C389 C 0.28089 0.37750 0.11087
 C390 C 0.28511 0.41766 0.10575
 C391 C 0.24444 0.42208 0.10792
 C392 C 0.23968 0.38216 0.11343
 H393 H 0.22490 0.43389 0.04955
 H394 H 0.29902 0.42654 0.04558
 H395 H 0.21709 0.36037 0.05877
 H396 H 0.29734 0.36079 0.12853
 H397 H 0.30504 0.43447 0.11939
 H398 H 0.22215 0.36963 0.13348
 C399 C 0.72160 0.56427 0.08622
 C400 C 0.71845 0.60165 0.10188
 C401 C 0.72662 0.61701 0.06511
 C402 C 0.72976 0.57976 0.04942
 C403 C 0.76679 0.61750 0.07312
 C404 C 0.75900 0.60153 0.11032
 C405 C 0.76178 0.56434 0.09430
 C406 C 0.76993 0.57991 0.05757
 H407 H 0.70299 0.54217 0.09156
 H408 H 0.69713 0.61088 0.12000
 H409 H 0.71772 0.57072 0.02413
 H410 H 0.78514 0.63976 0.06764
 H411 H 0.77122 0.61035 0.13557
 H412 H 0.79113 0.57071 0.03929
 C413 C 0.75733 0.44136 0.92506
 C414 C 0.71700 0.43436 0.92596
 C415 C 0.72415 0.39525 0.91807
 C416 C 0.76450 0.40217 0.91727
 C417 C 0.72131 0.40214 0.87805
 C418 C 0.71427 0.44155 0.88587
 C419 C 0.75460 0.44866 0.88503
 C420 C 0.76211 0.40965 0.87687
 H421 H 0.77215 0.45766 0.94451
 H422 H 0.69851 0.44486 0.94634
 H423 H 0.78501 0.38572 0.93040
 H424 H 0.70633 0.38560 0.85894
 H425 H 0.69366 0.45801 0.87290
 H426 H 0.78079 0.39961 0.85645
 C427 C 0.22552 0.60483 0.90493
 C428 C 0.21996 0.61514 0.94453
 C429 C 0.26064 0.61806 0.94891
 C430 C 0.26650 0.60832 0.90986
 C431 C 0.26252 0.57896 0.95962
 C432 C 0.22192 0.57571 0.95501
 C433 C 0.22785 0.56584 0.91596
 C434 C 0.26848 0.56925 0.92055
 H435 H 0.21002 0.61533 0.88227
 H436 H 0.20020 0.63444 0.95448
 H437 H 0.28494 0.62193 0.89138
 H438 H 0.27780 0.56808 0.98229
 H439 H 0.20363 0.56207 0.97363
 H440 H 0.28866 0.55023 0.91081
 C441 C 0.09471 0.22618 0.39827
 C442 C 0.05526 0.22091 0.38654
 C443 C 0.05099 0.26112 0.38438
 C444 C 0.08991 0.26670 0.39554
 C445 C 0.03893 0.26217 0.42342
 C446 C 0.04343 0.22202 0.42592
 C447 C 0.08235 0.22765 0.43722
 C448 C 0.07789 0.26784 0.43457
 H449 H 0.11782 0.21110 0.38804
 H450 H 0.04588 0.20184 0.36633
 H451 H 0.10893 0.28518 0.38283
 H452 H 0.01580 0.27706 0.43398
 H453 H 0.02428 0.20368 0.43866
 H454 H 0.08708 0.28733 0.45449
 C455 C 0.07752 0.74902 0.55416
 C456 C 0.08308 0.71054 0.56541
 C457 C 0.08398 0.72245 0.60438
 C458 C 0.07841 0.76091 0.59315
 C459 C 0.12465 0.72700 0.60267
 C460 C 0.12385 0.71520 0.56327
 C461 C 0.11825 0.75361 0.55190
 C462 C 0.11939 0.76587 0.59080
 H463 H 0.05794 0.75810 0.53413
 H464 H 0.06804 0.68779 0.55458
 H465 H 0.05945 0.77958 0.60559
 H466 H 0.14379 0.71775 0.62302
 H467 H 0.14267 0.69647 0.55072
 H468 H 0.13448 0.78878 0.60115
 C469 C 0.89492 0.76129 0.39500
 C470 C 0.93262 0.76805 0.37912
 C471 C 0.93994 0.72827 0.38036
 C472 C 0.90269 0.72112 0.39565
 C473 C 0.95543 0.73183 0.41796
 C474 C 0.94795 0.77162 0.41706
 C475 C 0.91072 0.76448 0.43255
 C476 C 0.91815 0.72467 0.43335
 H477 H 0.86985 0.77363 0.38568
 H478 H 0.93868 0.78566 0.35644
 H479 H 0.88418 0.70020 0.38655
 H480 H 0.98056 0.71968 0.42748
 H481 H 0.96664 0.79240 0.42612
 H482 H 0.91228 0.70675 0.45584
 C483 C 0.88741 0.23453 0.61615
 C484 C 0.92865 0.23842 0.61727
 C485 C 0.92451 0.27783 0.62557
 C486 C 0.88366 0.27441 0.62510
 C487 C 0.92473 0.28652 0.58569
 C488 C 0.92889 0.24720 0.57742
 C489 C 0.88800 0.24372 0.57636
 C490 C 0.88387 0.28305 0.58494
 H491 H 0.87183 0.21291 0.62846
 H492 H 0.94729 0.22018 0.63075
 H493 H 0.86522 0.28575 0.64503
 H494 H 0.94007 0.30781 0.57248
 H495 H 0.94777 0.23606 0.55774
 H496 H 0.86539 0.30144 0.57142
 C497 C 0.43495 0.12367 0.28389
 C498 C 0.39520 0.12519 0.27257
 C499 C 0.39284 0.08501 0.27679
 C500 C 0.43217 0.08341 0.28821
 C501 C 0.40352 0.07969 0.23783
 C502 C 0.40654 0.12015 0.23321
 C503 C 0.44580 0.11830 0.24499
 C504 C 0.44287 0.07809 0.24925
 H505 H 0.44814 0.14190 0.30275
 H506 H 0.37521 0.14436 0.28235
 H507 H 0.44312 0.06821 0.31082
 H508 H 0.39043 0.06134 0.21902
 H509 H 0.39611 0.13542 0.21042
 H510 H 0.46254 0.05849 0.23962
 C511 C 0.56925 0.07631 0.73239
 C512 C 0.60863 0.08784 0.73256
 C513 C 0.61957 0.04943 0.73884
 C514 C 0.58019 0.03788 0.73876
 C515 C 0.61817 0.05465 0.77927
 C516 C 0.60666 0.09359 0.77329
 C517 C 0.56735 0.08172 0.77280
 C518 C 0.57843 0.04332 0.77913
 H519 H 0.54898 0.08508 0.71290
 H520 H 0.62125 0.10607 0.71330
 H521 H 0.56909 0.01479 0.72449
 H522 H 0.63870 0.04567 0.79836
 H523 H 0.61741 0.11668 0.78777
 H524 H 0.56575 0.02496 0.79823
 C525 C 0.41486 0.88663 0.71756
 C526 C 0.37430 0.88476 0.72506
 C527 C 0.37269 0.92519 0.72410
 C528 C 0.41302 0.92706 0.71655
 C529 C 0.37981 0.92717 0.76419
 C530 C 0.38204 0.88633 0.76563
 C531 C 0.42226 0.88859 0.75758
 C532 C 0.42011 0.92903 0.75654
 H533 H 0.42949 0.86991 0.69835
 H534 H 0.35511 0.86672 0.71200
 H535 H 0.42646 0.94384 0.69649
 H536 H 0.36517 0.94401 0.78327
 H537 H 0.36952 0.86931 0.78604
 H538 H 0.43907 0.94746 0.76944
 C539 C 0.60192 0.89471 0.23853
 C540 C 0.61844 0.93153 0.23085
 C541 C 0.61734 0.93972 0.27075
 C542 C 0.60142 0.90333 0.27878
 C543 C 0.57977 0.95546 0.26689
 C544 C 0.58050 0.94711 0.22698
 C545 C 0.56439 0.91075 0.23502
 C546 C 0.56373 0.91904 0.27493
 H547 H 0.61093 0.86955 0.22666
 H548 H 0.64131 0.93677 0.21296
 H549 H 0.61031 0.88542 0.30024
 H550 H 0.57062 0.98070 0.27857
 H551 H 0.57164 0.96517 0.20563
 H552 H 0.54103 0.91398 0.29311
 C553 C 0.42413 0.27840 0.87987
 C554 C 0.38494 0.26584 0.88342
 C555 C 0.38670 0.27328 0.92342
 C556 C 0.42556 0.28588 0.91995
 C557 C 0.39938 0.23549 0.93068
 C558 C 0.39831 0.22766 0.89030
 C559 C 0.43708 0.24072 0.88717
 C560 C 0.43825 0.24814 0.92724
 H561 H 0.43457 0.29601 0.85883
 H562 H 0.36270 0.27334 0.86561
 H563 H 0.43734 0.30984 0.93203
 H564 H 0.38903 0.21799 0.95187
 H565 H 0.38733 0.20350 0.87792
 H566 H 0.46025 0.24082 0.94545
 C567 C 0.59097 0.76487 0.89519
 C568 C 0.60707 0.77285 0.93233
 C569 C 0.60719 0.73319 0.94039
 C570 C 0.59167 0.72487 0.90368
 C571 C 0.56944 0.73575 0.95619
 C572 C 0.56896 0.77543 0.94796
 C573 C 0.55327 0.76710 0.91127
 C574 C 0.55379 0.72745 0.91943
 H575 H 0.59983 0.77699 0.86993
 H576 H 0.62934 0.79131 0.93772
 H577 H 0.60133 0.70395 0.88558
 H578 H 0.56056 0.72373 0.98153
 H579 H 0.55933 0.79626 0.96619
 H580 H 0.53167 0.70875 0.91418
 C581 C 0.39194 0.76521 0.12063
 C582 C 0.38926 0.76062 0.07982
 C583 C 0.38026 0.72147 0.08500
 C584 C 0.38225 0.72562 0.12550
 C585 C 0.42006 0.71190 0.08347
 C586 C 0.42906 0.75101 0.07826
 C587 C 0.43167 0.75521 0.11879
 C588 C 0.42244 0.71613 0.12402
 H589 H 0.38057 0.78733 0.13609
 H590 H 0.37545 0.77879 0.06138
 H591 H 0.36263 0.71497 0.14474
 H592 H 0.43215 0.69003 0.06816
 H593 H 0.44835 0.76148 0.05856
 H594 H 0.43633 0.69789 0.14232
 C595 C 0.58931 0.22437 0.04630
 C596 C 0.58756 0.26410 0.03871
 C597 C 0.62635 0.26815 0.05139
 C598 C 0.62843 0.22839 0.05883
 C599 C 0.61352 0.27529 0.08939
 C600 C 0.57469 0.27133 0.07669
 C601 C 0.57624 0.23155 0.08426
 C602 C 0.61499 0.23516 0.09732
 H603 H 0.57912 0.20340 0.02852
 H604 H 0.57607 0.27598 0.01438
 H605 H 0.65091 0.21096 0.05137
 H606 H 0.62371 0.29637 0.10702
 H607 H 0.55243 0.28913 0.08394
 H608 H 0.62614 0.22302 0.12163
 C609 C 0.22460 0.10545 0.60632
 C610 C 0.23143 0.06514 0.60534
 C611 C 0.27001 0.07146 0.61756
 C612 C 0.26357 0.11136 0.61924
 C613 C 0.28242 0.07444 0.57877
 C614 C 0.24390 0.06810 0.56653
 C615 C 0.23750 0.10806 0.56763
 C616 C 0.27596 0.11439 0.58016
 H617 H 0.20055 0.11836 0.61740
 H618 H 0.21329 0.04460 0.61596
 H619 H 0.27186 0.12896 0.64120
 H620 H 0.30621 0.06183 0.56680
 H621 H 0.23576 0.05011 0.54481
 H622 H 0.29426 0.13478 0.56952
 C623 C 0.77545 0.05334 0.42972
 C624 C 0.73532 0.04477 0.42930
 C625 C 0.73253 0.06065 0.39188
 C626 C 0.77262 0.06900 0.39189
 C627 C 0.72382 0.09694 0.40744
 C628 C 0.72668 0.08115 0.44505
 C629 C 0.76678 0.08963 0.44552
 C630 C 0.76428 0.10574 0.40811
 H631 H 0.79669 0.03535 0.43916
 H632 H 0.72337 0.01945 0.43802
 H633 H 0.79131 0.06392 0.36968
 H634 H 0.70245 0.11478 0.39800
 H635 H 0.70776 0.08608 0.46711
 H636 H 0.77633 0.13098 0.39944
 C637 C 0.75328 0.92323 0.56883
 C638 C 0.71347 0.91895 0.57739
 C639 C 0.72287 0.91595 0.61697
 C640 C 0.76271 0.92022 0.60842
 C641 C 0.72581 0.87572 0.61376
 C642 C 0.71650 0.87868 0.57381
 C643 C 0.75627 0.88298 0.56503
 C644 C 0.76609 0.87967 0.60453
 H645 H 0.76461 0.94299 0.55029
 H646 H 0.69190 0.93517 0.56571
 H647 H 0.78156 0.93757 0.62286
 H648 H 0.71431 0.85636 0.63259
 H649 H 0.69756 0.86148 0.55930
 H650 H 0.78793 0.86335 0.61551
 C651 C 0.27092 0.92367 0.42477
 C652 C 0.27432 0.91213 0.38575
 C653 C 0.26661 0.95013 0.37417
 C654 C 0.26312 0.96165 0.41313
 C655 C 0.22637 0.94244 0.37255
 C656 C 0.23373 0.90394 0.38474
 C657 C 0.23067 0.91585 0.42368
 C658 C 0.22291 0.95381 0.41184
 H659 H 0.28938 0.91602 0.44639
 H660 H 0.29562 0.89508 0.37477
 H661 H 0.27520 0.98559 0.42501
 H662 H 0.20826 0.95028 0.35071
 H663 H 0.22142 0.87999 0.37321
 H664 H 0.20173 0.97099 0.42282
 C665 C 0.06623 0.43630 0.75553
 C666 C 0.07270 0.42415 0.71724
 C667 C 0.07029 0.38560 0.72962
 C668 C 0.06380 0.39773 0.76798
 C669 C 0.11073 0.38460 0.73593
 C670 C 0.11319 0.42341 0.72356
 C671 C 0.10673 0.43584 0.76180
 C672 C 0.10468 0.39740 0.77469
 H673 H 0.04773 0.45762 0.76358
 H674 H 0.05966 0.43579 0.69360
 H675 H 0.04320 0.38691 0.78609
 H676 H 0.12883 0.36305 0.72766
 H677 H 0.13358 0.43426 0.70524
 H678 H 0.11800 0.38667 0.79858
 C679 C 0.11083 0.58834 0.23763
 C680 C 0.07360 0.60407 0.22898
 C681 C 0.06523 0.60518 0.26884
 C682 C 0.10202 0.59001 0.27783
 C683 C 0.04922 0.56789 0.26706
 C684 C 0.05778 0.56644 0.22718
 C685 C 0.09457 0.55110 0.23615
 C686 C 0.08609 0.55256 0.27600
 H687 H 0.13634 0.59674 0.22539
 H688 H 0.06833 0.62562 0.20987
 H689 H 0.12007 0.60004 0.29881
 H690 H 0.02362 0.55950 0.27919
 H691 H 0.03954 0.55646 0.20634
 H692 H 0.09116 0.53114 0.29534
 C693 C 0.87796 0.39349 0.23844
 C694 C 0.91883 0.38689 0.23833
 C695 C 0.91773 0.38123 0.27866
 C696 C 0.87722 0.38720 0.27924
 C697 C 0.92439 0.42073 0.28490
 C698 C 0.92544 0.42645 0.24461
 C699 C 0.88495 0.43290 0.24510
 C700 C 0.88386 0.42699 0.28539
 H701 H 0.85865 0.38250 0.21913
 H702 H 0.93341 0.37015 0.21911
 H703 H 0.85756 0.37071 0.29365
 H704 H 0.94362 0.43242 0.30390
 H705 H 0.94546 0.44269 0.23036
 H706 H 0.86943 0.44375 0.30471
 C707 C 0.89963 0.61668 0.76245
 C708 C 0.93881 0.62854 0.76930
 C709 C 0.94600 0.62710 0.72917
 C710 C 0.90733 0.61585 0.72194
 C711 C 0.95743 0.58832 0.73227
 C712 C 0.95009 0.58946 0.77234
 C713 C 0.91146 0.57793 0.76509
 C714 C 0.91878 0.57703 0.72496
 H715 H 0.87563 0.62818 0.77510
 H716 H 0.94719 0.65008 0.78731
 H717 H 0.88986 0.62697 0.70106
 H718 H 0.98141 0.57640 0.71992
 H719 H 0.96774 0.57837 0.79310
 H720 H 0.91062 0.55570 0.70656
 C721 C 0.72047 0.58744 0.89063
 C722 C 0.71460 0.58588 0.93095
 C723 C 0.72448 0.62514 0.93348
 C724 C 0.73033 0.62695 0.89321
 C725 C 0.76387 0.61562 0.93942
 C726 C 0.75393 0.57629 0.93683
 C727 C 0.75976 0.57746 0.89646
 C728 C 0.77015 0.61667 0.89865
 H729 H 0.70255 0.57563 0.87048
 H730 H 0.69184 0.57245 0.94406
 H731 H 0.72041 0.64802 0.87543
 H732 H 0.78157 0.62743 0.95976
 H733 H 0.76364 0.55541 0.95498
 H734 H 0.79328 0.62905 0.88519
 C735 C 0.27938 0.43759 0.91631
 C736 C 0.27086 0.42206 0.95308
 C737 C 0.27483 0.38486 0.93751
 C738 C 0.28345 0.40018 0.90083
 C739 C 0.23484 0.38365 0.92874
 C740 C 0.23081 0.42124 0.94413
 C741 C 0.23934 0.43682 0.90746
 C742 C 0.24307 0.39962 0.89165
 H743 H 0.29772 0.45996 0.91121
 H744 H 0.28229 0.43141 0.97852
 H745 H 0.30528 0.39124 0.88316
 H746 H 0.21668 0.36117 0.93399
 H747 H 0.20909 0.43018 0.96193
 H748 H 0.23150 0.39048 0.86622
 C749 C 0.22661 0.59011 0.10891
 C750 C 0.26545 0.60228 0.11661
 C751 C 0.27212 0.60550 0.07660
 C752 C 0.23365 0.59403 0.06853
 C753 C 0.28477 0.56702 0.07475
 C754 C 0.27799 0.56345 0.11488
 C755 C 0.23959 0.55171 0.10686
 C756 C 0.24627 0.55541 0.06681
 H757 H 0.20247 0.59947 0.12300
 H758 H 0.27357 0.62182 0.13690
 H759 H 0.21557 0.60687 0.04920
 H760 H 0.30876 0.55708 0.06076
 H761 H 0.29619 0.55056 0.13406
 H762 H 0.23829 0.53608 0.04624
 C763 C 0.77615 0.42594 0.04478
 C764 C 0.77684 0.38628 0.05460
 C765 C 0.73617 0.38469 0.04959
 C766 C 0.73551 0.42395 0.03950
 C767 C 0.73000 0.39382 0.08872
 C768 C 0.77100 0.39608 0.09429
 C769 C 0.76996 0.43532 0.08393
 C770 C 0.72929 0.43314 0.07871
 H771 H 0.79512 0.43936 0.02669
 H772 H 0.79620 0.36663 0.04456
 H773 H 0.72088 0.43565 0.01682
 H774 H 0.71089 0.38040 0.10667
 H775 H 0.78585 0.38478 0.11700
 H776 H 0.70951 0.45251 0.08853
 C777 C 0.92434 0.73148 0.56364
 C778 C 0.96356 0.73705 0.57407
 C779 C 0.95234 0.73685 0.61332
 C780 C 0.91320 0.73133 0.60295
 C781 C 0.94773 0.77707 0.61263
 C782 C 0.95868 0.77726 0.57295
 C783 C 0.91952 0.77173 0.56234
 C784 C 0.90804 0.77189 0.60159
 H785 H 0.91482 0.71250 0.54337
 H786 H 0.98655 0.72265 0.56255
 H787 H 0.89458 0.71232 0.61547
 H788 H 0.95743 0.79563 0.63317
 H789 H 0.97739 0.79615 0.56038
 H790 H 0.88505 0.78648 0.61274
 C791 C 0.88119 0.27752 0.43364
 C792 C 0.92143 0.28562 0.43210
 C793 C 0.92216 0.27270 0.39345
 C794 C 0.88204 0.26471 0.39461
 C795 C 0.93093 0.23513 0.40577
 C796 C 0.93010 0.24802 0.44453
 C797 C 0.88993 0.24002 0.44623
 C798 C 0.89045 0.22676 0.40764
 H799 H 0.86059 0.29489 0.44540
 H800 H 0.93412 0.30986 0.44260
 H801 H 0.86249 0.27180 0.37377
 H802 H 0.95169 0.21787 0.39410
 H803 H 0.94999 0.24107 0.46513
 H804 H 0.87765 0.20235 0.39773
 C805 C 0.10350 0.24021 0.60515
 C806 C 0.09515 0.28026 0.60432
 C807 C 0.05779 0.27258 0.61905
 C808 C 0.06569 0.23292 0.62055
 C809 C 0.04282 0.26879 0.58129
 C810 C 0.08025 0.27643 0.56639
 C811 C 0.08827 0.23673 0.56738
 C812 C 0.05093 0.22908 0.58237
 H813 H 0.12863 0.22828 0.61485
 H814 H 0.11321 0.30147 0.61364
 H815 H 0.05958 0.21523 0.64314
 H816 H 0.01763 0.28055 0.57142
 H817 H 0.08620 0.29440 0.54397
 H818 H 0.03272 0.20798 0.57308
 C819 C 0.10530 0.76919 0.38373
 C820 C 0.11246 0.73065 0.37152
 C821 C 0.07244 0.72258 0.37484
 C822 C 0.06482 0.76068 0.38626
 C823 C 0.07727 0.71147 0.41376
 C824 C 0.11736 0.71958 0.41076
 C825 C 0.10981 0.75757 0.42262
 C826 C 0.06966 0.74951 0.42522
 H827 H 0.11703 0.79319 0.37168
 H828 H 0.12985 0.72266 0.34914
 H829 H 0.04291 0.77741 0.37602
 H830 H 0.06595 0.68780 0.42687
 H831 H 0.13909 0.70266 0.42106
 H832 H 0.05183 0.75728 0.44736
 C833 C 0.56565 0.88121 0.72323
 C834 C 0.56828 0.92095 0.71552
 C835 C 0.60720 0.92058 0.72835
 C836 C 0.60492 0.88093 0.73597
 C837 C 0.59512 0.92917 0.76632
 C838 C 0.55609 0.92947 0.75351
 C839 C 0.55335 0.88980 0.76114
 C840 C 0.59220 0.88919 0.77432
 H841 H 0.55323 0.86136 0.70554
 H842 H 0.55809 0.93401 0.69126
 H843 H 0.62533 0.86117 0.72853
 H844 H 0.60752 0.94917 0.78386
 H845 H 0.53595 0.94957 0.76080
 H846 H 0.60194 0.87608 0.79872
 C847 C 0.39429 0.90893 0.22673
 C848 C 0.39264 0.91448 0.26750
 C849 C 0.38269 0.95321 0.26155
 C850 C 0.38374 0.94818 0.22108
 C851 C 0.42233 0.96376 0.26154
 C852 C 0.43229 0.92501 0.26759
 C853 C 0.43389 0.91980 0.22712
 C854 C 0.42376 0.95852 0.22111
 H855 H 0.38290 0.88620 0.21216
 H856 H 0.37964 0.89646 0.28672
 H857 H 0.36336 0.95782 0.20216
 H858 H 0.43405 0.98648 0.27593
 H859 H 0.45238 0.91559 0.28695
 H860 H 0.43680 0.97667 0.20204
 C861 C 0.58811 0.11609 0.27875
 C862 C 0.58550 0.07638 0.28636
 C863 C 0.62460 0.07205 0.27483
 C864 C 0.62750 0.11171 0.26723
 C865 C 0.61282 0.06496 0.23644
 C866 C 0.57368 0.06927 0.24805
 C867 C 0.57597 0.10902 0.24047
 C868 C 0.61501 0.10504 0.22843
 H869 H 0.57774 0.13723 0.29620
 H870 H 0.57271 0.06474 0.31018
 H871 H 0.64993 0.12896 0.27533
 H872 H 0.62317 0.04365 0.21919
 H873 H 0.55148 0.05160 0.24016
 H874 H 0.62692 0.11702 0.20436
 C875 C 0.39891 0.10390 0.76157
 C876 C 0.39926 0.09450 0.72151
 C877 C 0.38352 0.05820 0.73033
 C878 C 0.38258 0.06719 0.77006
 C879 C 0.42114 0.04265 0.73428
 C880 C 0.43702 0.07899 0.72547
 C881 C 0.43652 0.08807 0.76521
 C882 C 0.42060 0.05180 0.77405
 H883 H 0.38981 0.12926 0.77294
 H884 H 0.39021 0.11194 0.69974
 H885 H 0.35983 0.06221 0.78817
 H886 H 0.43029 0.01722 0.72303
 H887 H 0.45961 0.08382 0.70709
 H888 H 0.42965 0.03425 0.79574
 C889 C 0.56032 0.75354 0.06922
 C890 C 0.59901 0.76663 0.06513
 C891 C 0.61228 0.72914 0.07284
 C892 C 0.57364 0.71609 0.07693
 C893 C 0.61436 0.73720 0.11271
 C894 C 0.60041 0.77508 0.10539
 C895 C 0.56185 0.76158 0.10916
 C896 C 0.57540 0.72419 0.11687
 H897 H 0.53801 0.76028 0.05116
 H898 H 0.60893 0.78394 0.04358
 H899 H 0.56209 0.69178 0.06533
 H900 H 0.63690 0.73029 0.13039
 H901 H 0.61121 0.79957 0.11726
 H902 H 0.56545 0.70673 0.13828
 C903 C 0.43137 0.22024 0.04507
 C904 C 0.39256 0.22089 0.05931
 C905 C 0.39180 0.26107 0.05437
 C906 C 0.43018 0.26044 0.03991
 C907 C 0.40566 0.26679 0.09218
 C908 C 0.40701 0.22631 0.09759
 C909 C 0.44536 0.22601 0.08290
 C910 C 0.44410 0.26621 0.07779
 H911 H 0.44217 0.20109 0.02566
 H912 H 0.37093 0.20247 0.05164
 H913 H 0.43977 0.27459 0.01598
 H914 H 0.39486 0.28605 0.11148
 H915 H 0.39749 0.21205 0.12145
 H916 H 0.46544 0.28503 0.08529
 C917 C 0.56841 0.25015 0.92212
 C918 C 0.60811 0.23993 0.92216
 C919 C 0.61788 0.27886 0.91682
 C920 C 0.57821 0.28906 0.91676
 C921 C 0.61732 0.27425 0.87633
 C922 C 0.60686 0.23488 0.88133
 C923 C 0.56725 0.24550 0.88158
 C924 C 0.57728 0.28437 0.87622
 H925 H 0.54821 0.24025 0.94120
 H926 H 0.62095 0.22181 0.94133
 H927 H 0.56595 0.31131 0.93138
 H928 H 0.63781 0.28437 0.85771
 H929 H 0.61841 0.21240 0.86653
 H930 H 0.56437 0.30261 0.85722
 C931 C 0.41168 0.77804 0.95784
 C932 C 0.37175 0.77706 0.94715
 C933 C 0.37169 0.73683 0.95199
 C934 C 0.41124 0.73787 0.96290
 C935 C 0.38221 0.73142 0.91303
 C936 C 0.38287 0.77196 0.90765
 C937 C 0.42237 0.77253 0.91890
 C938 C 0.42172 0.73230 0.92394
 H939 H 0.42402 0.79721 0.97632
 H940 H 0.35080 0.79526 0.95679
 H941 H 0.42318 0.72383 0.98579
 H942 H 0.36990 0.71212 0.89467
 H943 H 0.37133 0.78625 0.88476
 H944 H 0.44236 0.71362 0.91452
 C945 C 0.72445 0.88680 0.42251
 C946 C 0.71717 0.92662 0.42427
 C947 C 0.72994 0.93028 0.38567
 C948 C 0.73718 0.89053 0.38361
 C949 C 0.76825 0.93720 0.39837
 C950 C 0.75545 0.93352 0.43703
 C951 C 0.76267 0.89369 0.43550
 C952 C 0.77589 0.89703 0.39697
 H953 H 0.70643 0.86594 0.43270
 H954 H 0.69298 0.93868 0.43604
 H955 H 0.72946 0.87304 0.36135
 H956 H 0.78611 0.95821 0.38821
 H957 H 0.76298 0.95137 0.45907
 H958 H 0.80027 0.88471 0.38594
 C959 C 0.21920 0.95179 0.56901
 C960 C 0.21971 0.93653 0.60717
 C961 C 0.26032 0.94195 0.60847
 C962 C 0.25984 0.95743 0.57075
 C963 C 0.26673 0.90492 0.59361
 C964 C 0.22583 0.89905 0.59174
 C965 C 0.22566 0.91474 0.55405
 C966 C 0.26628 0.92031 0.55582
 H967 H 0.19965 0.97107 0.55863
 H968 H 0.20077 0.94324 0.62872
 H969 H 0.27396 0.98165 0.56210
 H970 H 0.28638 0.88572 0.60396
 H971 H 0.21167 0.87489 0.60041
 H972 H 0.28559 0.91374 0.53454
 C973 C 0.28440 0.12089 0.42929
 C974 C 0.28723 0.08057 0.42590
 C975 C 0.27784 0.08344 0.38632
 C976 C 0.27511 0.12370 0.38933
 C977 C 0.23798 0.07940 0.39486
 C978 C 0.24738 0.07656 0.43449
 C979 C 0.24460 0.11685 0.43804
 C980 C 0.23482 0.11998 0.39853
 H981 H 0.30344 0.13806 0.44370
 H982 H 0.30871 0.06424 0.43759
 H983 H 0.28672 0.14287 0.37038
 H984 H 0.21903 0.06209 0.38052
 H985 H 0.23593 0.05698 0.45315
 H986 H 0.21309 0.13638 0.38744
 C987 C 0.73208 0.07604 0.57646
 C988 C 0.73815 0.03737 0.58668
 C989 C 0.73732 0.04804 0.62605
 C990 C 0.73138 0.08670 0.61582
 C991 C 0.77801 0.05329 0.62574
 C992 C 0.77879 0.04283 0.58599
 C993 C 0.77277 0.08149 0.57559
 C994 C 0.77238 0.09249 0.61491
 H995 H 0.71294 0.08527 0.55609
 H996 H 0.72402 0.01453 0.57483
 H997 H 0.71175 0.10468 0.62826
 H998 H 0.79669 0.04383 0.64641
 H999 H 0.79828 0.02474 0.57350
 H1000 H 0.78673 0.11533 0.62640
 C1001 C 0.93706 0.56164 0.24303
 C1002 C 0.93897 0.60037 0.23089
 C1003 C 0.93261 0.61212 0.26938
 C1004 C 0.93076 0.57345 0.28148
 C1005 C 0.89211 0.61269 0.26340
 C1006 C 0.89803 0.60029 0.22451
 C1007 C 0.89651 0.56173 0.23707
 C1008 C 0.89021 0.57377 0.27547
 H1009 H 0.95570 0.54056 0.23466
 H1010 H 0.95928 0.61159 0.21272
 H1011 H 0.94415 0.56184 0.30494
 H1012 H 0.87384 0.63397 0.27197
 H1013 H 0.88442 0.61112 0.20082
 H1014 H 0.87009 0.56257 0.29386
 C1015 C 0.94946 0.43438 0.77625
 C1016 C 0.93474 0.39621 0.77695
 C1017 C 0.93923 0.39412 0.73648
 C1018 C 0.95417 0.43189 0.73577
 C1019 C 0.90130 0.40797 0.73070
 C1020 C 0.89635 0.41061 0.77148
 C1021 C 0.91150 0.44833 0.77047
 C1022 C 0.91614 0.44582 0.72999
 H1023 H 0.96931 0.44549 0.79496
 H1024 H 0.94245 0.37539 0.79606
 H1025 H 0.97816 0.44070 0.72096
 H1026 H 0.88157 0.39689 0.71185
 H1027 H 0.87242 0.40189 0.78637
 H1028 H 0.90861 0.46642 0.71055
 C1029 C 0.11925 0.57250 0.71386
 C1030 C 0.07842 0.57570 0.71106
 C1031 C 0.08131 0.61518 0.71964
 C1032 C 0.12209 0.61234 0.72234
 C1033 C 0.07735 0.60746 0.75944
 C1034 C 0.07448 0.56793 0.75086
 C1035 C 0.11529 0.56454 0.75361
 C1036 C 0.11846 0.60397 0.76258
 H1037 H 0.13662 0.55788 0.69517
 H1038 H 0.06186 0.56364 0.68993
 H1039 H 0.14146 0.63096 0.71038
 H1040 H 0.05983 0.62204 0.77803
 H1041 H 0.05470 0.54958 0.76263
 H1042 H 0.13513 0.61543 0.78394
 C1043 C 0.04657 0.41231 0.22534
 C1044 C 0.05622 0.37263 0.22530
 C1045 C 0.05177 0.37184 0.26586
 C1046 C 0.04192 0.41119 0.26582
 C1047 C 0.09128 0.38106 0.27110
 C1048 C 0.09628 0.38244 0.23021
 C1049 C 0.08606 0.42172 0.23064
 C1050 C 0.08143 0.42038 0.27119
 H1051 H 0.02814 0.42541 0.20654
 H1052 H 0.04574 0.35262 0.20660
 H1053 H 0.01942 0.42335 0.28048
 H1054 H 0.10959 0.36800 0.29005
 H1055 H 0.11884 0.37080 0.21527
 H1056 H 0.09169 0.44012 0.29032
   
