data_POSCAR
  _audit_creation_date              2014-09-24
  _audit_creation_method            'ToBaCCo'
  _symmetry_space_group_name_H-M    'P1'
  _symmetry_Int_Tables_number       1
  _symmetry_cell_setting            triclinic
  loop_
  _symmetry_equiv_pos_as_xyz
 x,y,z
_cell_length_a 35.9578
_cell_length_b 35.9673
_cell_length_c 35.9319
_cell_angle_alpha 89.844500
_cell_angle_beta 90.000200
_cell_angle_gamma 89.999900
loop_
  _atom_site_label
  _atom_site_type_symbol
  _atom_site_fract_x
  _atom_site_fract_y
  _atom_site_fract_z
N1 N 0.18885 0.18943 0.19036
 N2 N -0.17917 0.82129 0.17745
 N3 N -0.17921 0.17876 -0.17749
 N4 N 0.18884 0.81058 -0.19035
 N5 N 0.18372 1.18573 0.81406
 N6 N 0.81392 0.81589 0.81633
 N7 N 0.18367 0.81432 1.18590
 N8 N 0.81396 1.18408 1.18363
 N9 N 0.53771 1.06588 0.95922
 N10 N 0.56645 1.08835 0.95532
 N11 N 0.46028 1.03978 0.93325
 N12 N 0.43214 1.04433 0.91005
 N13 N 0.45944 1.06509 0.95951
 N14 N 0.43048 1.08724 0.95519
 N15 N 0.53864 1.03942 0.93414
 N16 N 0.56832 1.04287 0.91278
 C17 C 0.58522 1.07368 0.92622
 C18 C 0.41381 1.07403 0.92414
 N19 N 0.45964 0.93445 0.96040
 N20 N 0.43127 0.91165 0.95579
 N21 N 0.53821 0.95936 0.93445
 N22 N 0.56659 0.95459 0.91170
 N23 N 0.53828 0.93398 0.96079
 N24 N 0.56714 0.91158 0.95701
 N25 N 0.46036 0.95962 0.93388
 N26 N 0.43285 0.95433 0.91017
 Mn27 Mn 0.49941 0.99958 0.93348
 C28 C 0.41490 0.92437 0.92429
 C29 C 0.58442 0.92472 0.92615
 N30 N 0.45965 1.06555 1.03961
 N31 N 0.43127 1.08835 1.04422
 N32 N 0.53822 1.04063 1.06555
 N33 N 0.56660 1.04540 1.08830
 N34 N 0.53828 1.06601 1.03922
 N35 N 0.56715 1.08841 1.04299
 N36 N 0.46036 1.04038 1.06613
 N37 N 0.43286 1.04567 1.08983
 Mn38 Mn 0.49870 1.06611 0.99939
 C39 C 0.41491 1.07563 1.07571
 C40 C 0.58443 1.07527 1.07384
 N41 N 0.53771 0.93412 1.04078
 N42 N 0.56645 0.91164 1.04468
 N43 N 0.46028 0.96022 1.06675
 N44 N 0.43214 0.95568 1.08995
 N45 N 0.45943 0.93491 1.04050
 N46 N 0.43047 0.91277 1.04481
 N47 N 0.53864 0.96057 1.06586
 N48 N 0.56832 0.95713 1.08721
 Mn49 Mn 0.49869 0.93389 1.00061
 Mn50 Mn 0.49941 1.00042 1.06652
 Cl51 Cl 0.49902 1.00000 1.00000
 C52 C 0.58523 0.92632 1.07378
 C53 C 0.41380 0.92598 1.07586
 N54 N 0.03849 0.45996 0.06520
 N55 N 0.04312 0.43140 0.08786
 N56 N 0.06459 0.53848 0.04055
 N57 N 0.08755 0.56665 0.04554
 N58 N 0.03833 0.53852 0.06598
 N59 N 0.04240 0.56711 0.08860
 N60 N 0.06471 0.46064 0.03978
 N61 N 0.08828 0.43296 0.04481
 C62 C 0.07434 0.41492 0.07482
 C63 C 0.07331 0.58428 0.07557
 N64 N 0.03849 0.54005 -0.06519
 N65 N 0.04312 0.56861 -0.08786
 N66 N 0.06459 0.46152 -0.04055
 N67 N 0.08755 0.43336 -0.04554
 N68 N 0.03833 0.46148 -0.06597
 N69 N 0.04240 0.43290 -0.08860
 N70 N 0.06471 0.53937 -0.03977
 N71 N 0.08828 0.56705 -0.04480
 Mn72 Mn 0.06508 0.50000 0.00000
 C73 C 0.07434 0.58509 -0.07481
 C74 C 0.07332 0.41574 -0.07558
 N75 N -0.04180 0.53808 0.06632
 N76 N -0.04550 0.56687 0.08872
 N77 N -0.06764 0.46060 0.03996
 N78 N -0.09069 0.43235 0.04440
 N79 N -0.04137 0.45976 0.06530
 N80 N -0.04550 0.43065 0.08738
 N81 N -0.06718 0.53891 0.04007
 N82 N -0.08851 0.56856 0.04354
 Mn83 Mn -0.00157 0.49906 0.06618
 C84 C -0.07479 0.58556 0.07417
 C85 C -0.07649 0.41390 0.07407
 N86 N -0.04180 0.46193 -0.06632
 N87 N -0.04551 0.43315 -0.08872
 N88 N -0.06764 0.53941 -0.03996
 N89 N -0.09069 0.56765 -0.04440
 N90 N -0.04137 0.54025 -0.06529
 N91 N -0.04550 0.56935 -0.08738
 N92 N -0.06719 0.46110 -0.04006
 N93 N -0.08852 0.43145 -0.04353
 Mn94 Mn -0.00157 0.50095 -0.06618
 Mn95 Mn -0.06788 0.50000 0.00000
 Cl96 Cl -0.00149 0.50000 0.00000
 C97 C -0.07480 0.41446 -0.07417
 C98 C -0.07649 0.58610 -0.07408
 N99 N 1.03641 0.06579 0.53941
 N100 N 1.04139 0.08881 0.56750
 N101 N 1.06171 0.04035 0.46106
 N102 N 1.08462 0.04507 0.43277
 N103 N 1.03630 0.06656 0.46147
 N104 N 1.04157 0.09021 0.43381
 N105 N 1.06173 0.03950 0.53969
 N106 N 1.08432 0.04357 0.56838
 C107 C 1.07132 0.07454 0.58537
 C108 C 1.07177 0.07632 0.41611
 N109 N 1.03641 -0.06578 0.46059
 N110 N 1.04138 -0.08880 0.43249
 N111 N 1.06170 -0.04034 0.53894
 N112 N 1.08461 -0.04506 0.56724
 N113 N 1.03629 -0.06655 0.53853
 N114 N 1.04156 -0.09020 0.56619
 N115 N 1.06173 -0.03950 0.46031
 N116 N 1.08431 -0.04356 0.43162
 Mn117 Mn 1.06219 0.00000 0.50000
 C118 C 1.07131 -0.07453 0.41463
 C119 C 1.07175 -0.07631 0.58389
 N120 N 0.95596 0.06642 0.46145
 N121 N 0.95153 0.08940 0.43307
 N122 N 0.93026 0.03994 0.53922
 N123 N 0.90804 0.04360 0.56822
 N124 N 0.95651 0.06531 0.53982
 N125 N 0.95322 0.08656 0.56952
 N126 N 0.93058 0.04016 0.46081
 N127 N 0.90853 0.04426 0.43170
 Mn128 Mn 0.99624 0.06647 0.50052
 C129 C 0.92184 0.07520 0.41477
 C130 C 0.92272 0.07282 0.58680
 N131 N 0.95595 -0.06641 0.53855
 N132 N 0.95152 -0.08939 0.56692
 N133 N 0.93026 -0.03993 0.46078
 N134 N 0.90804 -0.04358 0.43177
 N135 N 0.95650 -0.06530 0.46017
 N136 N 0.95322 -0.08654 0.43047
 N137 N 0.93057 -0.04015 0.53919
 N138 N 0.90852 -0.04425 0.56829
 Mn139 Mn 0.99623 -0.06646 0.49947
 Mn140 Mn 0.92992 0.00001 0.50000
 Cl141 Cl 0.99617 0.00001 0.50000
 C142 C 0.92183 -0.07520 0.58522
 C143 C 0.92273 -0.07280 0.41319
 C144 C 1.13907 0.14140 0.28652
 C145 C 1.15560 0.11822 0.25985
 C146 C 1.17145 0.13414 0.22796
 C147 C 1.17220 0.17307 0.22327
 C148 C 1.15614 0.19589 0.25082
 C149 C 1.13890 0.18018 0.28210
 C150 C 1.12159 0.12473 0.31970
 C151 C 1.10389 0.14781 0.34573
 C152 C 1.08687 0.13171 0.37699
 C153 C 1.08865 0.09305 0.38276
 C154 C 1.10694 0.07037 0.35672
 C155 C 1.12299 0.08604 0.32478
 C156 C 1.12137 0.20242 0.30898
 C157 C 1.10387 0.18648 0.34011
 C158 C 1.15601 0.07959 0.26566
 C159 C 1.14031 0.06382 0.29779
 H160 H 1.12094 0.23238 0.30580
 H161 H 1.09044 0.20460 0.36006
 H162 H 1.16884 0.06141 0.24538
 H163 H 1.14159 0.03400 0.30145
 H164 H 1.18326 0.11631 0.20677
 H165 H 1.15687 0.22585 0.24767
 H166 H 1.07303 0.14923 0.39721
 H167 H 1.10808 0.04053 0.36103
 C168 C 0.86449 -0.13148 0.27669
 C169 C 0.82589 -0.13179 0.27092
 C170 C 0.81166 -0.14773 0.23837
 C171 C 0.83576 -0.16211 0.21099
 C172 C 0.87450 -0.16069 0.21691
 C173 C 0.88898 -0.14608 0.25003
 C174 C 0.87951 -0.11592 0.31148
 C175 C 0.91801 -0.11710 0.31800
 C176 C 0.93202 -0.10325 0.35164
 C177 C 0.90788 -0.08733 0.37798
 C178 C 0.86951 -0.08554 0.37069
 C179 C 0.85506 -0.10044 0.33770
 C180 C 0.92740 -0.14609 0.25721
 C181 C 0.94165 -0.13213 0.29077
 C182 C 0.80227 -0.11632 0.29791
 C183 C 0.81664 -0.10059 0.33060
 H184 H 0.94657 -0.15736 0.23690
 H185 H 0.97141 -0.13303 0.29540
 H186 H 0.77244 -0.11625 0.29368
 H187 H 0.79749 -0.08883 0.35065
 H188 H 0.78183 -0.14911 0.23436
 H189 H 0.89325 -0.17140 0.19590
 H190 H 0.96165 -0.10432 0.35713
 H191 H 0.85090 -0.07346 0.39109
 C192 C 0.86446 0.13153 0.72329
 C193 C 0.88895 0.14612 0.74995
 C194 C 0.87447 0.16073 0.78306
 C195 C 0.83573 0.16216 0.78898
 C196 C 0.81163 0.14777 0.76159
 C197 C 0.82586 0.13183 0.72904
 C198 C 0.87949 0.11596 0.68849
 C199 C 0.85504 0.10047 0.66227
 C200 C 0.86950 0.08557 0.62929
 C201 C 0.90787 0.08736 0.62201
 C202 C 0.93200 0.10329 0.64834
 C203 C 0.91799 0.11714 0.68198
 C204 C 0.80225 0.11636 0.70205
 C205 C 0.81662 0.10063 0.66937
 C206 C 0.92737 0.14613 0.74277
 C207 C 0.94162 0.13218 0.70921
 H208 H 0.77241 0.11629 0.70628
 H209 H 0.79748 0.08887 0.64931
 H210 H 0.94654 0.15741 0.76308
 H211 H 0.97139 0.13308 0.70459
 H212 H 0.89321 0.17145 0.80407
 H213 H 0.78180 0.14915 0.76560
 H214 H 0.85089 0.07349 0.60889
 H215 H 0.96164 0.10435 0.64286
 C216 C 1.13904 -0.14139 0.71350
 C217 C 1.15556 -0.11820 0.74017
 C218 C 1.17141 -0.13413 0.77206
 C219 C 1.17217 -0.17306 0.77674
 C220 C 1.15614 -0.19588 0.74919
 C221 C 1.13890 -0.18017 0.71791
 C222 C 1.12156 -0.12472 0.68032
 C223 C 1.10388 -0.14780 0.65427
 C224 C 1.08686 -0.13170 0.62302
 C225 C 1.08863 -0.09305 0.61726
 C226 C 1.10690 -0.07035 0.64330
 C227 C 1.12294 -0.08602 0.67524
 C228 C 1.12138 -0.20241 0.69101
 C229 C 1.10387 -0.18647 0.65989
 C230 C 1.15595 -0.07957 0.73437
 C231 C 1.14025 -0.06381 0.70225
 H232 H 1.12096 -0.23238 0.69419
 H233 H 1.09047 -0.20459 0.63993
 H234 H 1.16877 -0.06140 0.75466
 H235 H 1.14151 -0.03399 0.69859
 H236 H 1.18321 -0.11630 0.79326
 H237 H 1.15688 -0.22584 0.75233
 H238 H 1.07303 -0.14922 0.60278
 H239 H 1.10803 -0.04052 0.63900
 C240 C 0.28505 1.14090 1.14167
 C241 C 0.28118 1.14087 1.18054
 C242 C 0.24976 1.15752 1.19649
 C243 C 0.22163 1.17286 1.17382
 C244 C 0.22578 1.17195 1.13480
 C245 C 0.25773 1.15666 1.11863
 C246 C 0.31838 1.12412 1.12475
 C247 C 0.32289 1.12537 1.08593
 C248 C 0.35494 1.10992 1.07001
 C249 C 0.38164 1.09235 1.09260
 C250 C 0.37647 1.09077 1.13138
 C251 C 0.34512 1.10720 1.14770
 C252 C 0.26296 1.15694 1.07989
 C253 C 0.29518 1.14187 1.06386
 C254 C 0.30876 1.12413 1.20264
 C255 C 0.34004 1.10728 1.18648
 H256 H 0.24214 1.16917 1.06182
 H257 H 0.29833 1.14296 1.03394
 H258 H 0.30602 1.12381 1.23267
 H259 H 0.36054 1.09444 1.20449
 H260 H 0.24704 1.15844 1.22650
 H261 H 0.20416 1.18330 1.11710
 H262 H 0.35878 1.11088 1.04009
 H263 H 0.39720 1.07745 1.14881
 C264 C 0.28504 0.85911 0.85834
 C265 C 0.28115 0.85916 0.81947
 C266 C 0.24974 0.84252 0.80352
 C267 C 0.22161 0.82715 0.82619
 C268 C 0.22577 0.82805 0.86521
 C269 C 0.25772 0.84333 0.88138
 C270 C 0.31837 0.87588 0.87526
 C271 C 0.32289 0.87462 0.91407
 C272 C 0.35494 0.89007 0.92999
 C273 C 0.38163 0.90766 0.90740
 C274 C 0.37645 0.90925 0.86863
 C275 C 0.34510 0.89282 0.85231
 C276 C 0.26297 0.84304 0.92012
 C277 C 0.29519 0.85811 0.93615
 C278 C 0.30873 0.87592 0.79737
 C279 C 0.34001 0.89277 0.81353
 H280 H 0.24215 0.83079 0.93818
 H281 H 0.29835 0.85699 0.96606
 H282 H 0.30598 0.87625 0.76734
 H283 H 0.36050 0.90562 0.79552
 H284 H 0.24701 0.84161 0.77351
 H285 H 0.20416 0.81669 0.88291
 H286 H 0.35879 0.88909 0.95991
 H287 H 0.39717 0.92258 0.85119
 C288 C 0.72184 0.86630 1.13076
 C289 C 0.74897 0.89039 1.14510
 C290 C 0.78211 0.87547 1.15925
 C291 C 0.78759 0.83665 1.16056
 C292 C 0.75983 0.81295 1.14627
 C293 C 0.72722 0.82764 1.13078
 C294 C 0.68693 0.88180 1.11585
 C295 C 0.66021 0.85774 1.10066
 C296 C 0.62715 0.87264 1.08632
 C297 C 0.62030 0.91107 1.08833
 C298 C 0.64709 0.93481 1.10404
 C299 C 0.68081 0.92035 1.11735
 C300 C 0.69973 0.80444 1.11559
 C301 C 0.66693 0.81926 1.10046
 C302 C 0.74218 0.92887 1.14543
 C303 C 0.70853 0.94358 1.13208
 H304 H 0.70365 0.77457 1.11531
 H305 H 0.64648 0.80042 1.08890
 H306 H 0.76286 0.94774 1.15652
 H307 H 0.70423 0.97337 1.13321
 H308 H 0.80341 0.89390 1.16990
 H309 H 0.76352 0.78308 1.14757
 H310 H 0.60641 0.85433 1.07437
 H311 H 0.64195 0.96449 1.10525
 C312 C 0.72181 1.13373 0.86920
 C313 C 0.72719 1.17238 0.86919
 C314 C 0.75979 1.18708 0.85370
 C315 C 0.78755 1.16339 0.83941
 C316 C 0.78208 1.12457 0.84071
 C317 C 0.74894 1.10964 0.85486
 C318 C 0.68691 1.11822 0.88412
 C319 C 0.68079 1.07967 0.88262
 C320 C 0.64708 1.06520 0.89594
 C321 C 0.62029 1.08894 0.91166
 C322 C 0.62714 1.12737 0.91367
 C323 C 0.66018 1.14228 0.89932
 C324 C 0.74216 1.07116 0.85453
 C325 C 0.70852 1.05645 0.86789
 C326 C 0.69970 1.19558 0.88438
 C327 C 0.66690 1.18075 0.89952
 H328 H 0.76285 1.05229 0.84344
 H329 H 0.70422 1.02665 0.86676
 H330 H 0.70361 1.22545 0.88467
 H331 H 0.64645 1.19959 0.91108
 H332 H 0.76347 1.21695 0.85240
 H333 H 0.80338 1.10614 0.83005
 H334 H 0.64194 1.03552 0.89473
 H335 H 0.60640 1.14568 0.92562
 C336 C 0.14016 0.28515 0.14069
 C337 C 0.17904 0.28174 0.14166
 C338 C 0.19495 0.25046 0.15867
 C339 C 0.17228 0.22207 0.17350
 C340 C 0.13329 0.22571 0.17158
 C341 C 0.11711 0.25748 0.15583
 C342 C 0.12327 0.31836 0.12355
 C343 C 0.08442 0.32239 0.12379
 C344 C 0.06851 0.35441 0.10818
 C345 C 0.09118 0.38154 0.09140
 C346 C 0.13000 0.37678 0.09067
 C347 C 0.14628 0.34547 0.10732
 C348 C 0.07834 0.26221 0.15501
 C349 C 0.06230 0.29428 0.13954
 C350 C 0.20118 0.30965 0.12552
 C351 C 0.18506 0.34083 0.10835
 H352 H 0.06026 0.24109 0.16669
 H353 H 0.03236 0.29701 0.13972
 H354 H 0.23122 0.30725 0.12597
 H355 H 0.20311 0.36162 0.09605
 H356 H 0.22494 0.24801 0.16030
 H357 H 0.11565 0.20383 0.18250
 H358 H 0.03856 0.35796 0.10846
 H359 H 0.14746 0.39785 0.07794
 C360 C -0.13238 0.27788 -0.13323
 C361 C -0.13231 0.27228 -0.17187
 C362 C -0.14796 0.23969 -0.18631
 C363 C -0.16249 0.21214 -0.16237
 C364 C -0.16134 0.21789 -0.12357
 C365 C -0.14702 0.25101 -0.10890
 C366 C -0.11720 0.31274 -0.11799
 C367 C -0.11878 0.31908 -0.07947
 C368 C -0.10526 0.35276 -0.06526
 C369 C -0.08928 0.37931 -0.08923
 C370 C -0.08714 0.37222 -0.12763
 C371 C -0.10170 0.33919 -0.14228
 C372 C -0.14742 0.25802 -0.07044
 C373 C -0.13383 0.29163 -0.05600
 C374 C -0.11681 0.29950 -0.19532
 C375 C -0.10144 0.33225 -0.18074
 H376 H -0.15873 0.23755 -0.05138
 H377 H -0.13503 0.29611 -0.02621
 H378 H -0.11645 0.29541 -0.22518
 H379 H -0.08965 0.35248 -0.19976
 H380 H -0.14913 0.23585 -0.21618
 H381 H -0.17215 0.19676 -0.10493
 H382 H -0.10659 0.35808 -0.03560
 H383 H -0.07500 0.39277 -0.14611
 C384 C 0.14015 0.71486 -0.14068
 C385 C 0.11709 0.74253 -0.15582
 C386 C 0.13328 0.77430 -0.17157
 C387 C 0.17226 0.77794 -0.17349
 C388 C 0.19494 0.74955 -0.15867
 C389 C 0.17903 0.71827 -0.14165
 C390 C 0.12326 0.68165 -0.12354
 C391 C 0.14627 0.65454 -0.10732
 C392 C 0.12999 0.62322 -0.09067
 C393 C 0.09118 0.61847 -0.09139
 C394 C 0.06850 0.64560 -0.10817
 C395 C 0.08441 0.67762 -0.12378
 C396 C 0.20118 0.69036 -0.12553
 C397 C 0.18506 0.65917 -0.10836
 C398 C 0.07833 0.73780 -0.15499
 C399 C 0.06229 0.70573 -0.13952
 H400 H 0.23121 0.69276 -0.12598
 H401 H 0.20311 0.63838 -0.09606
 H402 H 0.06024 0.75892 -0.16667
 H403 H 0.03234 0.70300 -0.13970
 H404 H 0.11563 0.79619 -0.18248
 H405 H 0.22493 0.75200 -0.16030
 H406 H 0.14746 0.60216 -0.07794
 H407 H 0.03855 0.64205 -0.10845
 C408 C -0.13234 0.72216 0.13321
 C409 C -0.14698 0.74902 0.10887
 C410 C -0.16130 0.78215 0.12354
 C411 C -0.16244 0.78790 0.16234
 C412 C -0.14792 0.76035 0.18628
 C413 C -0.13227 0.72776 0.17185
 C414 C -0.11717 0.68729 0.11798
 C415 C -0.10167 0.66084 0.14227
 C416 C -0.08712 0.62781 0.12762
 C417 C -0.08926 0.62071 0.08922
 C418 C -0.10524 0.64726 0.06525
 C419 C -0.11875 0.68094 0.07945
 C420 C -0.11677 0.70055 0.19530
 C421 C -0.10141 0.66779 0.18072
 C422 C -0.14738 0.74200 0.07042
 C423 C -0.13380 0.70840 0.05598
 H424 H -0.11641 0.70464 0.22516
 H425 H -0.08962 0.64756 0.19975
 H426 H -0.15870 0.76248 0.05136
 H427 H -0.13500 0.70391 0.02619
 H428 H -0.17211 0.80327 0.10489
 H429 H -0.14909 0.76420 0.21615
 H430 H -0.07497 0.60726 0.14611
 H431 H -0.10657 0.64193 0.03559
 C432 C 1.13511 0.13835 0.71717
 C433 C 1.15030 0.11493 0.74454
 C434 C 1.16556 0.13066 0.77676
 C435 C 1.16696 0.16959 0.78115
 C436 C 1.15203 0.19262 0.75304
 C437 C 1.13549 0.17713 0.72133
 C438 C 1.11860 0.12193 0.68342
 C439 C 1.10237 0.14529 0.65658
 C440 C 1.08632 0.12948 0.62476
 C441 C 1.08764 0.09080 0.61920
 C442 C 1.10444 0.06778 0.64607
 C443 C 1.11945 0.08320 0.67860
 C444 C 1.11935 0.19964 0.69368
 C445 C 1.10277 0.18396 0.66200
 C446 C 1.15007 0.07627 0.73903
 C447 C 1.13518 0.06072 0.70648
 H448 H 1.11935 0.22961 0.69664
 H449 H 1.09044 0.20229 0.64145
 H450 H 1.16178 0.05790 0.75991
 H451 H 1.13581 0.03086 0.70320
 H452 H 1.17661 0.11271 0.79836
 H453 H 1.15331 0.22257 0.75594
 H454 H 1.07355 0.14725 0.60395
 H455 H 1.10516 0.03793 0.64196
 C456 C 0.86054 -0.13789 0.71925
 C457 C 0.86165 -0.17650 0.72466
 C458 C 0.84569 -0.19182 0.75683
 C459 C 0.82961 -0.16885 0.78451
 C460 C 0.82966 -0.12985 0.77854
 C461 C 0.84441 -0.11441 0.74582
 C462 C 0.87644 -0.12174 0.68495
 C463 C 0.87417 -0.08321 0.67891
 C464 C 0.88864 -0.06812 0.64588
 C465 C 0.90623 -0.09120 0.61966
 C466 C 0.90891 -0.12965 0.62644
 C467 C 0.89349 -0.14518 0.65881
 C468 C 0.84321 -0.07590 0.73909
 C469 C 0.85756 -0.06060 0.70607
 C470 C 0.87859 -0.19910 0.69768
 C471 C 0.89452 -0.18368 0.66547
 H472 H 0.83076 -0.05745 0.75936
 H473 H 0.85577 -0.03081 0.70184
 H474 H 0.87971 -0.22896 0.70158
 H475 H 0.90747 -0.20208 0.64547
 H476 H 0.84520 -0.22179 0.75999
 H477 H 0.81842 -0.11143 0.79954
 H478 H 0.88683 -0.03844 0.64085
 H479 H 0.92225 -0.14750 0.60617
 C480 C 1.13507 -0.13831 0.28281
 C481 C 1.13546 -0.17710 0.27864
 C482 C 1.15199 -0.19258 0.24693
 C483 C 1.16691 -0.16955 0.21881
 C484 C 1.16551 -0.13062 0.22321
 C485 C 1.15025 -0.11489 0.25543
 C486 C 1.11856 -0.12190 0.31656
 C487 C 1.11941 -0.08317 0.32138
 C488 C 1.10441 -0.06776 0.35392
 C489 C 1.08762 -0.09078 0.38079
 C490 C 1.08631 -0.12946 0.37523
 C491 C 1.10234 -0.14527 0.34340
 C492 C 1.15001 -0.07624 0.26094
 C493 C 1.13513 -0.06069 0.29349
 C494 C 1.11933 -0.19961 0.30629
 C495 C 1.10275 -0.18394 0.33797
 H496 H 1.16171 -0.05786 0.24006
 H497 H 1.13574 -0.03083 0.29677
 H498 H 1.11933 -0.22958 0.30333
 H499 H 1.09044 -0.20227 0.35853
 H500 H 1.15328 -0.22253 0.24403
 H501 H 1.17655 -0.11266 0.20161
 H502 H 1.10512 -0.03791 0.35803
 H503 H 1.07355 -0.14724 0.39603
 C504 C 0.86058 0.13788 0.28072
 C505 C 0.86169 0.17648 0.27531
 C506 C 0.84573 0.19181 0.24314
 C507 C 0.82964 0.16883 0.21545
 C508 C 0.82970 0.12983 0.22143
 C509 C 0.84445 0.11439 0.25415
 C510 C 0.87648 0.12174 0.31502
 C511 C 0.87420 0.08320 0.32107
 C512 C 0.88867 0.06812 0.35410
 C513 C 0.90626 0.09120 0.38032
 C514 C 0.90893 0.12965 0.37353
 C515 C 0.89352 0.14518 0.34116
 C516 C 0.84325 0.07588 0.26089
 C517 C 0.85760 0.06059 0.29391
 C518 C 0.87862 0.19909 0.30229
 C519 C 0.89455 0.18367 0.33450
 H520 H 0.83080 0.05744 0.24061
 H521 H 0.85581 0.03080 0.29815
 H522 H 0.87974 0.22895 0.29838
 H523 H 0.90750 0.20208 0.35450
 H524 H 0.84523 0.22177 0.23998
 H525 H 0.81846 0.11141 0.20043
 H526 H 0.88686 0.03844 0.35914
 H527 H 0.92227 0.14751 0.39380
 C528 C 0.13657 0.28326 -0.13838
 C529 C 0.17534 0.27867 -0.13837
 C530 C 0.19074 0.24673 -0.15450
 C531 C 0.16764 0.21879 -0.16941
 C532 C 0.12870 0.22361 -0.16838
 C533 C 0.11307 0.25608 -0.15354
 C534 C 0.12028 0.31724 -0.12228
 C535 C 0.08158 0.32248 -0.12349
 C536 C 0.06632 0.35520 -0.10874
 C537 C 0.08943 0.38182 -0.09184
 C538 C 0.12807 0.37587 -0.09026
 C539 C 0.14374 0.34387 -0.10603
 C540 C 0.07443 0.26203 -0.15374
 C541 C 0.05898 0.29481 -0.13926
 C542 C 0.19794 0.30615 -0.12227
 C543 C 0.18238 0.33804 -0.10608
 H544 H 0.05601 0.24130 -0.16548
 H545 H 0.02907 0.29842 -0.14022
 H546 H 0.22789 0.30287 -0.12198
 H547 H 0.20077 0.35844 -0.09374
 H548 H 0.22069 0.24355 -0.15551
 H549 H 0.11067 0.20217 -0.17941
 H550 H 0.03650 0.35962 -0.10967
 H551 H 0.14591 0.39648 -0.07744
 C552 C -0.13961 0.28056 0.13615
 C553 C -0.11628 0.25439 0.15330
 C554 C -0.13176 0.22185 0.16827
 C555 C -0.17071 0.21572 0.16771
 C556 C -0.19357 0.24304 0.15065
 C557 C -0.17814 0.27495 0.13432
 C558 C -0.12338 0.31464 0.11996
 C559 C -0.14661 0.34035 0.10186
 C560 C -0.13096 0.37255 0.08625
 C561 C -0.09262 0.37959 0.08976
 C562 C -0.06978 0.35379 0.10839
 C563 C -0.08497 0.32096 0.12309
 C564 C -0.20057 0.30150 0.11634
 C565 C -0.18503 0.33348 0.10008
 C566 C -0.07788 0.26139 0.15534
 C567 C -0.06257 0.29427 0.14083
 H568 H -0.23038 0.29744 0.11463
 H569 H -0.20328 0.35314 0.08631
 H570 H -0.05955 0.24147 0.16865
 H571 H -0.03296 0.29882 0.14343
 H572 H -0.11339 0.20111 0.18020
 H573 H -0.22353 0.23980 0.15063
 H574 H -0.14865 0.39249 0.07211
 H575 H -0.04018 0.35900 0.11087
 C576 C -0.13963 0.71942 -0.13617
 C577 C -0.11630 0.74559 -0.15334
 C578 C -0.13179 0.77813 -0.16831
 C579 C -0.17074 0.78426 -0.16774
 C580 C -0.19359 0.75694 -0.15068
 C581 C -0.17816 0.72503 -0.13435
 C582 C -0.12339 0.68535 -0.11998
 C583 C -0.14662 0.65964 -0.10187
 C584 C -0.13097 0.62745 -0.08625
 C585 C -0.09263 0.62041 -0.08977
 C586 C -0.06979 0.64621 -0.10840
 C587 C -0.08498 0.67904 -0.12312
 C588 C -0.20059 0.69848 -0.11635
 C589 C -0.18504 0.66651 -0.10009
 C590 C -0.07791 0.73860 -0.15538
 C591 C -0.06259 0.70571 -0.14086
 H592 H -0.23039 0.70255 -0.11465
 H593 H -0.20329 0.64686 -0.08632
 H594 H -0.05958 0.75851 -0.16869
 H595 H -0.03298 0.70117 -0.14347
 H596 H -0.11342 0.79887 -0.18024
 H597 H -0.22355 0.76017 -0.15066
 H598 H -0.14866 0.60751 -0.07211
 H599 H -0.04019 0.64100 -0.11089
 C600 C 0.13654 0.71678 0.13835
 C601 C 0.11304 0.74396 0.15351
 C602 C 0.12867 0.77643 0.16834
 C603 C 0.16760 0.78126 0.16937
 C604 C 0.19071 0.75332 0.15446
 C605 C 0.17531 0.72137 0.13834
 C606 C 0.12026 0.68279 0.12225
 C607 C 0.14372 0.65616 0.10600
 C608 C 0.12805 0.62416 0.09025
 C609 C 0.08942 0.61820 0.09183
 C610 C 0.06630 0.64482 0.10873
 C611 C 0.08155 0.67754 0.12348
 C612 C 0.19791 0.69390 0.12223
 C613 C 0.18236 0.66200 0.10604
 C614 C 0.07440 0.73800 0.15372
 C615 C 0.05895 0.70521 0.13924
 H616 H 0.22786 0.69719 0.12194
 H617 H 0.20075 0.64160 0.09371
 H618 H 0.05597 0.75872 0.16545
 H619 H 0.02905 0.70159 0.14021
 H620 H 0.11063 0.79787 0.17938
 H621 H 0.22065 0.75651 0.15546
 H622 H 0.14590 0.60355 0.07742
 H623 H 0.03649 0.64039 0.10967
 C624 C 0.28118 1.13729 0.86090
 C625 C 0.25420 1.15274 0.88449
 C626 C 0.22182 1.16801 0.86895
 C627 C 0.21687 1.16913 0.83003
 C628 C 0.24463 1.15396 0.80682
 C629 C 0.27650 1.13744 0.82213
 C630 C 0.31508 1.12076 0.87712
 C631 C 0.34156 1.10430 0.85362
 C632 C 0.37357 1.08830 0.86926
 C633 C 0.37964 1.08988 0.90791
 C634 C 0.35307 1.10687 0.93105
 C635 C 0.32041 1.12186 0.91582
 C636 C 0.30379 1.12107 0.79947
 C637 C 0.33561 1.10450 0.81496
 C638 C 0.26024 1.15277 0.92312
 C639 C 0.29292 1.13787 0.93847
 H640 H 0.30042 1.12088 0.76950
 H641 H 0.35588 1.09201 0.79651
 H642 H 0.23968 1.16469 0.94162
 H643 H 0.29665 1.13873 0.96832
 H644 H 0.20052 1.17921 0.88706
 H645 H 0.24132 1.15501 0.77686
 H646 H 0.39414 1.07543 0.85138
 H647 H 0.35757 1.10784 0.96087
 C648 C 0.28115 0.86276 1.13908
 C649 C 0.25416 0.84731 1.11549
 C650 C 0.22178 0.83205 1.13101
 C651 C 0.21683 0.83092 1.16994
 C652 C 0.24458 0.84609 1.19315
 C653 C 0.27646 0.86260 1.17785
 C654 C 0.31505 0.87928 1.12286
 C655 C 0.34153 0.89573 1.14637
 C656 C 0.37355 0.91172 1.13073
 C657 C 0.37963 0.91015 1.09208
 C658 C 0.35305 0.89317 1.06894
 C659 C 0.32038 0.87819 1.08416
 C660 C 0.30375 0.87896 1.20052
 C661 C 0.33558 0.89553 1.18503
 C662 C 0.26020 0.84730 1.07686
 C663 C 0.29289 0.86219 1.06151
 H664 H 0.30038 0.87915 1.23048
 H665 H 0.35585 0.90800 1.20348
 H666 H 0.23965 0.83538 1.05835
 H667 H 0.29662 0.86133 1.03166
 H668 H 0.20048 0.82085 1.11290
 H669 H 0.24128 0.84503 1.22311
 H670 H 0.39412 0.92458 1.14861
 H671 H 0.35755 0.89220 1.03912
 C672 C 0.71770 1.13692 1.13687
 C673 C 0.72286 1.13569 1.17554
 C674 C 0.75479 1.15175 1.19102
 C675 C 0.78250 1.16809 1.16816
 C676 C 0.77689 1.16801 1.12908
 C677 C 0.74436 1.15319 1.11347
 C678 C 0.68357 1.12104 1.12058
 C679 C 0.67773 1.12347 1.08198
 C680 C 0.64483 1.10899 1.06677
 C681 C 0.61859 1.09124 1.08981
 C682 C 0.62518 1.08844 1.12831
 C683 C 0.65738 1.10384 1.14395
 C684 C 0.73787 1.15452 1.07490
 C685 C 0.70498 1.14019 1.05946
 C686 C 0.69583 1.11859 1.19805
 C687 C 0.66379 1.10264 1.18249
 H688 H 0.75823 1.16708 1.05652
 H689 H 0.70093 1.14209 1.02963
 H690 H 0.69954 1.11736 1.22796
 H691 H 0.64374 1.08955 1.20082
 H692 H 0.75771 1.15218 1.22103
 H693 H 0.79798 1.17936 1.11075
 H694 H 0.63994 1.11086 1.03704
 H695 H 0.60490 1.07493 1.14612
 C696 C 0.71767 0.86305 0.86311
 C697 C 0.74434 0.84678 0.88650
 C698 C 0.77686 0.83197 0.87089
 C699 C 0.78247 0.83189 0.83181
 C700 C 0.75476 0.84822 0.80895
 C701 C 0.72282 0.86428 0.82444
 C702 C 0.68355 0.87894 0.87941
 C703 C 0.65735 0.89613 0.85604
 C704 C 0.62516 0.91154 0.87168
 C705 C 0.61858 0.90875 0.91018
 C706 C 0.64481 0.89099 0.93322
 C707 C 0.67772 0.87651 0.91800
 C708 C 0.69579 0.88138 0.80193
 C709 C 0.66376 0.89733 0.81749
 C710 C 0.73786 0.84546 0.92508
 C711 C 0.70497 0.85979 0.94052
 H712 H 0.69950 0.88261 0.77202
 H713 H 0.64370 0.91042 0.79916
 H714 H 0.75822 0.83291 0.94345
 H715 H 0.70093 0.85790 0.97035
 H716 H 0.79796 0.82062 0.88922
 H717 H 0.75767 0.84779 0.77894
 H718 H 0.60487 0.92504 0.85388
 H719 H 0.63993 0.88913 0.96295
   
