data_POSCAR
  _audit_creation_date              2014-09-24
  _audit_creation_method            'ToBaCCo'
  _symmetry_space_group_name_H-M    'P1'
  _symmetry_Int_Tables_number       1
  _symmetry_cell_setting            triclinic
  loop_
  _symmetry_equiv_pos_as_xyz
 x,y,z
_cell_length_a 20.0742
_cell_length_b 20.0501
_cell_length_c 50.6714
_cell_angle_alpha 90.633400
_cell_angle_beta 89.630500
_cell_angle_gamma 120.122900
loop_
  _atom_site_label
  _atom_site_type_symbol
  _atom_site_fract_x
  _atom_site_fract_y
  _atom_site_fract_z
C1 C -0.04184 0.04246 0.51682
 C2 C -0.10499 -0.01377 0.49775
 C3 C -0.08360 -0.05840 0.48345
 C4 C -0.00185 -0.04255 0.48940
 C5 C -0.02276 -0.00839 0.53372
 C6 C -0.00270 -0.05358 0.51944
 C7 C 0.02912 0.08896 0.49965
 C8 C 0.05007 0.04489 0.48524
 H9 H -0.16212 -0.02060 0.49673
 H10 H 0.01595 -0.07830 0.47774
 H11 H -0.03405 -0.01555 0.55482
 H12 H 0.05753 0.15129 0.49776
 C13 C 0.94908 -0.08867 0.18418
 C14 C 1.00657 -0.09486 0.16543
 C15 C 1.05052 -0.02877 0.15136
 C16 C 1.03273 0.03623 0.15738
 C17 C 0.99529 -0.02133 0.20055
 C18 C 1.04205 0.04721 0.18590
 C19 C 0.90178 -0.06678 0.16651
 C20 C 0.94530 -0.00154 0.15241
 H21 H 1.01434 -0.14467 0.16435
 H22 H 1.06781 0.08978 0.14589
 H23 H 1.00372 -0.02497 0.22156
 H24 H 0.83962 -0.10177 0.16438
 C25 C 0.09345 1.04923 0.85093
 C26 C 0.10077 1.11179 0.83186
 C27 C 0.03503 1.08960 0.81759
 C28 C -0.03102 1.00773 0.82359
 C29 C 0.02292 1.03016 0.86788
 C30 C -0.04204 1.00931 0.85364
 C31 C 0.06953 0.97780 0.83378
 C32 C 0.00478 0.95606 0.81942
 H33 H 0.15105 1.16914 0.83083
 H34 H -0.08433 0.98929 0.81196
 H35 H 0.02646 1.04202 0.88897
 H36 H 0.10351 0.94951 0.83193
 O37 O 0.44060 -0.00009 -0.02401
 O38 O 0.57099 -0.00912 0.02512
 O39 O 0.43777 -0.01428 0.02710
 O40 O 0.56403 -0.01035 -0.02597
 O41 O 0.63066 0.11709 -0.02405
 O42 O 0.50195 0.11307 0.02950
 O43 O 0.63562 0.11824 0.02744
 O44 O 0.50678 0.12729 -0.02157
 Cu45 Cu 0.49666 -0.02116 0.00050
 Cu46 Cu 0.57544 0.13167 0.00321
 C47 C 0.45235 0.06550 -0.03120
 C48 C 0.62616 0.05349 0.03427
 C49 C 0.44724 0.04808 0.03703
 C50 C 0.61833 0.05346 -0.03410
 O51 O -0.11008 0.51683 0.64191
 O52 O -0.10542 0.39463 0.69544
 O53 O -0.11174 0.52260 0.69342
 O54 O -0.11928 0.38317 0.64434
 O55 O 0.00798 0.44545 0.64236
 O56 O 0.01548 0.58643 0.69157
 O57 O 0.02179 0.45892 0.69351
 O58 O 0.01723 0.57879 0.64047
 Cu59 Cu -0.12436 0.44817 0.66912
 Cu60 Cu 0.02830 0.52353 0.66696
 C61 C -0.04661 0.56823 0.63208
 C62 C -0.04039 0.40586 0.70319
 C63 C -0.04733 0.57866 0.70051
 C64 C -0.05731 0.39079 0.63492
 O65 O 0.60442 0.49194 0.36017
 O66 O 0.47896 0.36437 0.30648
 O67 O 0.61276 0.48929 0.30897
 O68 O 0.47627 0.35733 0.35797
 O69 O 0.41272 0.42092 0.35742
 O70 O 0.55074 0.55446 0.30832
 O71 O 0.41729 0.42991 0.30634
 O72 O 0.54033 0.55498 0.35954
 Cu73 Cu 0.54922 0.41910 0.33360
 Cu74 Cu 0.47412 0.49658 0.33300
 C75 C 0.59385 0.54594 0.36859
 C76 C 0.42713 0.37641 0.29729
 C77 C 0.60484 0.54384 0.30026
 C78 C 0.42088 0.36583 0.36571
 C79 C -0.06023 0.09220 0.53295
 C80 C -0.06835 0.13588 0.54729
 C81 C -0.07141 0.18903 0.56497
 C82 C -0.07016 0.23533 0.58059
 C83 C -0.06587 0.28990 0.59931
 C84 C -0.06152 0.33631 0.61551
 C85 C 0.89989 0.84290 0.19994
 C86 C 0.85668 0.79067 0.21395
 C87 C 0.80409 0.73380 0.23126
 C88 C 0.75828 0.68812 0.24660
 C89 C 0.70432 0.63711 0.26502
 C90 C 0.65850 0.59452 0.28103
 C91 C 0.16122 0.06839 -0.13297
 C92 C 0.21263 0.07697 -0.11865
 C93 C 0.26825 0.08036 -0.10101
 C94 C 0.31266 0.07921 -0.08541
 C95 C 0.36205 0.07483 -0.06674
 C96 C 0.40324 0.07022 -0.05057
 C97 C -0.00557 0.88059 0.53171
 C98 C -0.01194 0.82654 0.54396
 C99 C -0.02207 0.76550 0.56023
 C100 C -0.03116 0.71580 0.57542
 C101 C -0.04054 0.66080 0.59441
 C102 C -0.04571 0.61677 0.61136
 C103 C 0.10616 0.10565 0.19758
 C104 C 0.16170 0.15281 0.20969
 C105 C 0.22441 0.20335 0.22577
 C106 C 0.27545 0.24381 0.24081
 C107 C 0.33197 0.28946 0.25967
 C108 C 0.37723 0.32848 0.27656
 C109 C 0.89446 0.01202 -0.13408
 C110 C 0.84621 0.01831 -0.12186
 C111 C 0.79450 0.02841 -0.10566
 C112 C 0.75313 0.03754 -0.09054
 C113 C 0.70657 0.04702 -0.07163
 C114 C 0.66690 0.05233 -0.05475
 C115 C 0.11383 -0.01711 0.13462
 C116 C 0.16754 -0.00503 0.12063
 C117 C 0.23050 0.01026 0.10407
 C118 C 0.28347 0.02290 0.08961
 C119 C 0.34383 0.03583 0.07209
 C120 C 0.39294 0.04383 0.05650
 C121 C 0.86433 0.87867 0.46656
 C122 C 0.82235 0.82514 0.45246
 C123 C 0.77430 0.76229 0.43579
 C124 C 0.73363 0.70937 0.42125
 C125 C 0.68580 0.64907 0.40368
 C126 C 0.64433 0.60004 0.38806
 C127 C 0.02434 0.14106 0.80077
 C128 C 0.01279 0.18242 0.78673
 C129 C -0.00218 0.22962 0.77015
 C130 C -0.01473 0.26945 0.75568
 C131 C -0.02773 0.31619 0.73819
 C132 C -0.03588 0.35665 0.72262
 C133 C 0.90978 0.02234 0.13290
 C134 C 0.87327 0.03548 0.11710
 C135 C 0.82480 0.04454 0.09921
 C136 C 0.78037 0.04852 0.08430
 C137 C 0.72637 0.05046 0.06706
 C138 C 0.68005 0.05144 0.05226
 C139 C 0.10938 0.08010 0.46546
 C140 C 0.15880 0.11653 0.44943
 C141 C 0.21590 0.16511 0.43127
 C142 C 0.26381 0.20977 0.41616
 C143 C 0.31906 0.26421 0.39873
 C144 C 0.36571 0.31106 0.38381
 C145 C -0.01906 0.89584 0.79978
 C146 C -0.03199 0.84565 0.78386
 C147 C -0.04061 0.78764 0.76582
 C148 C -0.04413 0.73890 0.75080
 C149 C -0.04546 0.68263 0.73345
 C150 C -0.04590 0.63504 0.71857
   
