data_POSCAR
  _audit_creation_date              2014-09-24
  _audit_creation_method            'ToBaCCo'
  _symmetry_space_group_name_H-M    'P1'
  _symmetry_Int_Tables_number       1
  _symmetry_cell_setting            triclinic
  loop_
  _symmetry_equiv_pos_as_xyz
 x,y,z
_cell_length_a 18.0024
_cell_length_b 18.4585
_cell_length_c 17.8521
_cell_angle_alpha 89.444100
_cell_angle_beta 89.868800
_cell_angle_gamma 88.828200
loop_
  _atom_site_label
  _atom_site_type_symbol
  _atom_site_fract_x
  _atom_site_fract_y
  _atom_site_fract_z
C1 C -0.09955 0.51026 0.25595
 C2 C -0.02820 0.52728 0.23216
 C3 C -0.01027 0.59843 0.21421
 C4 C -0.06154 0.65577 0.22449
 C5 C -0.13123 0.63828 0.25860
 C6 C -0.15111 0.56515 0.27209
 C7 C 0.03021 0.47130 0.23315
 C8 C 0.01754 0.40428 0.20155
 C9 C 0.07049 0.34839 0.20647
 C10 C 0.13851 0.36069 0.24511
 C11 C 0.15128 0.42990 0.27748
 C12 C 0.09661 0.48400 0.27043
 H13 H -0.11195 0.45454 0.27042
 H14 H 0.04377 0.60697 0.18968
 H15 H -0.03432 0.39554 0.17241
 H16 H 0.10502 0.53615 0.29629
 H17 H -0.17072 0.68031 0.27452
 H18 H 0.18027 0.31782 0.24967
 C19 C -0.10498 0.48660 0.73857
 C20 C -0.03345 0.47608 0.76538
 C21 C -0.00836 0.40771 0.78855
 C22 C -0.05205 0.34631 0.78075
 C23 C -0.12433 0.35720 0.74803
 C24 C -0.15084 0.42805 0.72826
 C25 C 0.01935 0.53447 0.75827
 C26 C 0.00044 0.60377 0.78239
 C27 C 0.04975 0.66071 0.77291
 C28 C 0.11992 0.64437 0.73873
 C29 C 0.14167 0.57278 0.71828
 C30 C 0.08802 0.51979 0.72500
 H31 H -0.12256 0.53997 0.71865
 H32 H 0.04847 0.40333 0.80720
 H33 H -0.05194 0.61129 0.81134
 H34 H 0.09748 0.46631 0.70291
 H35 H -0.16086 0.31229 0.73927
 H36 H 0.15617 0.68789 0.72547
 C37 C 0.29985 -0.09412 0.50867
 C38 C 0.26679 -0.02760 0.52404
 C39 C 0.23040 -0.01633 0.59190
 C40 C 0.22323 -0.07264 0.64415
 C41 C 0.25344 -0.14247 0.62658
 C42 C 0.29361 -0.15258 0.55830
 C43 C 0.26544 0.02868 0.46622
 C44 C 0.24225 0.01207 0.39387
 C45 C 0.22962 0.06712 0.34086
 C46 C 0.24626 0.13946 0.35998
 C47 C 0.27595 0.15450 0.43121
 C48 C 0.28303 0.09925 0.48434
 H49 H 0.32833 -0.10111 0.45546
 H50 H 0.20560 0.03649 0.60332
 H51 H 0.22626 -0.04293 0.38163
 H52 H 0.30475 0.11086 0.53951
 H53 H 0.24796 -0.18697 0.66609
 H54 H 0.23835 0.18290 0.31931
 C55 C 0.70207 -0.10098 0.48137
 C56 C 0.72621 -0.03124 0.46535
 C57 C 0.75353 -0.01347 0.39522
 C58 C 0.76188 -0.06648 0.34150
 C59 C 0.74021 -0.13790 0.35729
 C60 C 0.70808 -0.15601 0.42796
 C61 C 0.73143 0.02098 0.52497
 C62 C 0.76914 0.00097 0.58989
 C63 C 0.77318 0.04811 0.65017
 C64 C 0.73799 0.11801 0.64316
 C65 C 0.70506 0.13992 0.57393
 C66 C 0.70170 0.09040 0.51592
 H67 H 0.67712 -0.11051 0.53566
 H68 H 0.77419 0.04050 0.38439
 H69 H 0.79243 -0.05355 0.59421
 H70 H 0.67395 0.10536 0.46395
 H71 H 0.75201 -0.17868 0.31559
 H72 H 0.73947 0.15593 0.68904
 C73 C 0.49135 0.25717 1.11558
 C74 C 0.48057 0.23180 1.04413
 C75 C 0.41499 0.19854 1.02440
 C76 C 0.35663 0.19141 1.07646
 C77 C 0.37120 0.21449 1.15159
 C78 C 0.43841 0.24823 1.17042
 C79 C 0.53724 0.24791 0.98932
 C80 C 0.61105 0.23483 1.00853
 C81 C 0.66814 0.25841 0.96246
 C82 C 0.64884 0.29980 0.89798
 C83 C 0.57347 0.31103 0.87653
 C84 C 0.51825 0.28366 0.92308
 H85 H 0.54048 0.28826 1.12697
 H86 H 0.41149 0.18018 0.96757
 H87 H 0.62272 0.20220 1.05810
 H88 H 0.46012 0.29064 0.90932
 H89 H 0.33204 0.20752 1.19653
 H90 H 0.69305 0.32286 0.86503
 C91 C 0.52145 0.70889 1.08543
 C92 C 0.53219 0.75160 1.02197
 C93 C 0.59689 0.78967 1.01195
 C94 C 0.65443 0.78367 1.06400
 C95 C 0.64521 0.73781 1.12828
 C96 C 0.57653 0.70191 1.13977
 C97 C 0.47413 0.75758 0.96631
 C98 C 0.40714 0.79028 0.98549
 C99 C 0.34661 0.78964 0.93680
 C100 C 0.35512 0.75352 0.86649
 C101 C 0.42606 0.72371 0.84562
 C102 C 0.48465 0.72700 0.89643
 H103 H 0.46923 0.68130 1.09288
 H104 H 0.60286 0.82329 0.96211
 H105 H 0.40149 0.81379 1.04080
 H106 H 0.53829 0.70256 0.88279
 H107 H 0.68862 0.73325 1.17009
 H108 H 0.30872 0.75076 0.82815
 B109 B 0.99442 1.08101 0.04340
 B110 B 1.04057 1.00376 0.08026
 B111 B 0.94528 1.00736 0.07575
 B112 B 0.92049 1.05421 -0.00637
 B113 B 1.00082 1.07577 -0.05508
 B114 B 1.07400 1.04817 0.00167
 B115 B 0.99808 0.92608 -0.04688
 B116 B 0.95077 1.00007 -0.08044
 B117 B 1.04904 0.99935 -0.07687
 B118 B 1.07356 0.95382 0.00551
 B119 B 0.99320 0.92864 0.05134
 B120 B 0.91841 0.95869 -0.00148
 B121 B 0.57742 0.49184 0.44717
 B122 B 0.58118 0.49856 0.54333
 B123 B 0.55096 0.57171 0.48981
 B124 B 0.49839 0.53927 0.41665
 B125 B 0.49523 0.44653 0.42551
 B126 B 0.54640 0.42066 0.50302
 B127 B 0.42668 0.50674 0.55234
 B128 B 0.42083 0.50077 0.45512
 B129 B 0.45054 0.42627 0.50757
 B130 B 0.50436 0.45739 0.58097
 B131 B 0.50674 0.55153 0.57326
 B132 B 0.45517 0.57671 0.49433
 C133 C 1.00662 1.22862 0.20381
 C134 C 1.05048 1.28050 0.16737
 C135 C 1.04725 1.28160 0.08881
 C136 C 1.01295 1.22541 0.05037
 C137 C 0.99156 1.16170 0.08658
 C138 C 0.97362 1.17274 0.16256
 H139 H 0.99484 1.23336 0.26309
 H140 H 1.06443 1.32917 0.05781
 H141 H 0.99067 1.23740 -0.00344
 H142 H 0.93429 1.13862 0.19066
 C143 C 0.89886 0.77675 0.18076
 C144 C 0.95559 0.72650 0.19625
 C145 C 1.02881 0.74803 0.17702
 C146 C 1.04194 0.81225 0.13572
 C147 C 0.98310 0.85634 0.10857
 C148 C 0.91285 0.83919 0.13970
 H149 H 0.84162 0.76723 0.19542
 H150 H 1.07708 0.71673 0.19479
 H151 H 1.09856 0.82675 0.12688
 H152 H 0.86489 0.87367 0.13245
 C153 C 0.94781 1.21261 -0.22077
 C154 C 0.97735 1.27715 -0.19516
 C155 C 1.03789 1.26927 -0.14424
 C156 C 1.05544 1.20209 -0.11013
 C157 C 1.00793 1.14337 -0.11830
 C158 C 0.96664 1.14680 -0.18574
 H159 H 0.90839 1.21211 -0.26640
 H160 H 1.06800 1.31466 -0.12328
 H161 H 1.09748 1.20202 -0.06767
 H162 H 0.93743 1.10200 -0.20689
 C163 C 0.95836 0.75281 -0.17684
 C164 C 1.03166 0.73008 -0.19676
 C165 C 1.08792 0.77798 -0.18068
 C166 C 1.07362 0.83851 -0.13829
 C167 C 1.00490 0.85534 -0.10461
 C168 C 0.94542 0.81584 -0.13404
 H169 H 0.91045 0.72371 -0.19564
 H170 H 1.14558 0.76753 -0.19413
 H171 H 1.12140 0.86767 -0.12720
 H172 H 0.88880 0.83443 -0.12750
 C173 C 1.20563 0.99032 0.23177
 C174 C 1.18794 1.05025 0.27728
 C175 C 1.11670 1.07993 0.27158
 C176 C 1.06737 1.05326 0.21940
 C177 C 1.08891 1.00650 0.16093
 C178 C 1.15698 0.96923 0.17451
 H179 H 1.25713 0.95997 0.24024
 H180 H 1.09631 1.11858 0.31255
 H181 H 1.01161 1.06726 0.22896
 H182 H 1.17225 0.92140 0.14494
 C183 C 1.21834 0.94906 -0.21661
 C184 C 1.18211 0.94557 -0.28558
 C185 C 1.11127 0.97800 -0.29048
 C186 C 1.07536 1.00570 -0.22692
 C187 C 1.10405 0.99687 -0.15426
 C188 C 1.18085 0.97707 -0.15340
 H189 H 1.27611 0.93207 -0.21187
 H190 H 1.08406 0.98371 -0.34437
 H191 H 1.02440 1.03290 -0.23678
 H192 H 1.21266 0.98062 -0.10421
 C193 C 0.77365 0.99091 0.21564
 C194 C 0.80555 0.95266 0.27541
 C195 C 0.88218 0.94393 0.27848
 C196 C 0.92597 0.96757 0.21931
 C197 C 0.89567 1.00216 0.15432
 C198 C 0.81800 1.01505 0.15643
 H199 H 0.71424 1.00149 0.21437
 H200 H 0.90813 0.91599 0.32560
 H201 H 0.98221 0.94763 0.22166
 H202 H 0.78876 1.04061 0.11176
 C203 C 0.78009 1.03544 -0.21400
 C204 C 0.81043 1.02310 -0.28458
 C205 C 0.87540 0.97856 -0.28804
 C206 C 0.91509 0.96013 -0.22263
 C207 C 0.89380 0.98938 -0.15314
 C208 C 0.81854 1.01222 -0.15002
 H209 H 0.72639 1.06239 -0.20787
 H210 H 0.89892 0.96206 -0.34122
 H211 H 0.96479 0.92739 -0.22849
 H212 H 0.79206 1.02478 -0.09876
 C213 C 1.22668 1.16130 0.10351
 C214 C 1.28644 1.16356 0.05341
 C215 C 1.27115 1.14056 -0.02106
 C216 C 1.20287 1.10995 -0.04012
 C217 C 1.14838 1.09720 0.01434
 C218 C 1.16055 1.13015 0.08385
 H219 H 1.22796 1.18423 0.15868
 H220 H 1.30971 1.14622 -0.06673
 H221 H 1.19228 1.09973 -0.09813
 H222 H 1.11891 1.13420 0.12537
 C223 C 0.76583 1.20611 0.04528
 C224 C 0.74001 1.22876 -0.02596
 C225 C 0.78072 1.20617 -0.08776
 C226 C 0.83433 1.15217 -0.07961
 C227 C 0.85464 1.11941 -0.01101
 C228 C 0.82427 1.15494 0.05209
 H229 H 0.74008 1.22682 0.09584
 H230 H 0.76486 1.22158 -0.14432
 H231 H 0.85303 1.13273 -0.13041
 H232 H 0.84325 1.14279 0.10752
 C233 C 1.28522 0.89476 -0.00609
 C234 C 1.28100 0.82549 -0.03837
 C235 C 1.21315 0.79006 -0.03269
 C236 C 1.15019 0.82653 -0.00322
 C237 C 1.15037 0.90236 0.00915
 C238 C 1.22121 0.93224 0.01745
 H239 H 1.33767 0.92241 -0.00365
 H240 H 1.20885 0.73413 -0.04971
 H241 H 1.09885 0.79724 -0.00122
 H242 H 1.22792 0.98644 0.03709
 C243 C 0.71035 0.90001 0.03599
 C244 C 0.71787 0.82488 0.04881
 C245 C 0.78522 0.79123 0.02914
 C246 C 0.84480 0.83259 0.00279
 C247 C 0.84158 0.90972 0.00033
 C248 C 0.77088 0.94131 0.01311
 H249 H 0.65752 0.92748 0.04599
 H250 H 0.79207 0.73291 0.03396
 H251 H 0.89700 0.80365 -0.00356
 H252 H 0.76141 0.99874 0.00898
 C253 C 0.73632 0.49226 0.28544
 C254 C 0.78417 0.54580 0.31151
 C255 C 0.77412 0.56957 0.38445
 C256 C 0.71648 0.54304 0.42854
 C257 C 0.65904 0.49867 0.40003
 C258 C 0.67421 0.47078 0.32791
 H259 H 0.74500 0.46927 0.23041
 H260 H 0.81287 0.60671 0.40903
 H261 H 0.71498 0.56453 0.48405
 H262 H 0.63846 0.43430 0.30096
 C263 C 0.27608 0.48816 0.28716
 C264 C 0.21843 0.44982 0.32130
 C265 C 0.21617 0.44873 0.39976
 C266 C 0.27488 0.47627 0.44215
 C267 C 0.34015 0.50269 0.40857
 C268 C 0.33528 0.51495 0.32983
 H269 H 0.27624 0.49606 0.22696
 H270 H 0.16860 0.42656 0.42856
 H271 H 0.26978 0.47284 0.50149
 H272 H 0.37946 0.53763 0.29812
 C273 C 0.77627 0.42074 0.61136
 C274 C 0.78014 0.44379 0.68516
 C275 C 0.72899 0.49777 0.70866
 C276 C 0.67131 0.52271 0.66121
 C277 C 0.66156 0.49347 0.58917
 C278 C 0.71987 0.44683 0.56422
 H279 H 0.81878 0.38454 0.58900
 H280 H 0.73440 0.52143 0.76361
 H281 H 0.63465 0.56387 0.68247
 H282 H 0.72286 0.42895 0.50807
 C283 C 0.27134 0.60552 0.67580
 C284 C 0.21791 0.55283 0.68768
 C285 C 0.24036 0.48046 0.67156
 C286 C 0.30754 0.46486 0.63431
 C287 C 0.35454 0.51996 0.60954
 C288 C 0.33751 0.58875 0.63928
 H289 H 0.26326 0.66117 0.69203
 H290 H 0.20803 0.43451 0.68820
 H291 H 0.32415 0.40928 0.62899
 H292 H 0.37132 0.63394 0.62924
 C293 C 0.56406 0.58481 0.21129
 C294 C 0.55571 0.66051 0.20850
 C295 C 0.50739 0.69280 0.26090
 C296 C 0.47822 0.65224 0.32084
 C297 C 0.49984 0.57904 0.33300
 C298 C 0.53398 0.54472 0.27123
 H299 H 0.59236 0.55651 0.16631
 H300 H 0.49160 0.74951 0.25503
 H301 H 0.44039 0.67958 0.35724
 H302 H 0.53833 0.48690 0.26915
 C303 C 0.46414 0.61000 0.78207
 C304 C 0.44307 0.68319 0.77545
 C305 C 0.46328 0.71930 0.70912
 C306 C 0.49490 0.68057 0.64844
 C307 C 0.50419 0.60395 0.65009
 C308 C 0.49707 0.57301 0.72217
 H309 H 0.45982 0.58244 0.83574
 H310 H 0.45645 0.77762 0.70480
 H311 H 0.51073 0.71161 0.60085
 H312 H 0.52309 0.52258 0.73564
 C313 C 0.52355 0.29331 0.27133
 C314 C 0.45141 0.28598 0.24200
 C315 C 0.39371 0.32428 0.27548
 C316 C 0.40838 0.37167 0.33293
 C317 C 0.48109 0.38935 0.35611
 C318 C 0.53769 0.34388 0.32734
 H319 H 0.56950 0.26074 0.25003
 H320 H 0.33667 0.31750 0.25816
 H321 H 0.36052 0.38454 0.36497
 H322 H 0.59223 0.34360 0.35032
 C323 C 0.60364 0.34767 0.74623
 C324 C 0.55244 0.34697 0.80420
 C325 C 0.48128 0.37796 0.79020
 C326 C 0.46325 0.40832 0.71979
 C327 C 0.51674 0.41347 0.66214
 C328 C 0.58696 0.38183 0.67944
 H329 H 0.65725 0.32048 0.75057
 H330 H 0.43965 0.38140 0.83378
 H331 H 0.41074 0.43522 0.71582
 H332 H 0.63040 0.37669 0.63970
 C333 C 0.67024 0.74819 0.51929
 C334 C 0.67995 0.77430 0.44477
 C335 C 0.65810 0.72923 0.38701
 C336 C 0.62188 0.66560 0.40261
 C337 C 0.60205 0.64351 0.47582
 C338 C 0.63353 0.68303 0.53414
 H339 H 0.69251 0.77653 0.56667
 H340 H 0.66615 0.74295 0.32861
 H341 H 0.61696 0.63092 0.35577
 H342 H 0.63041 0.66392 0.59128
 C343 C 0.59854 0.22593 0.58796
 C344 C 0.66921 0.21167 0.55935
 C345 C 0.69577 0.25713 0.50193
 C346 C 0.65504 0.31918 0.47863
 C347 C 0.58759 0.33945 0.51359
 C348 C 0.55790 0.28708 0.56404
 H349 H 0.57390 0.18887 0.62787
 H350 H 0.74779 0.24387 0.47419
 H351 H 0.67835 0.35195 0.43454
 H352 H 0.50414 0.29525 0.58979
 C353 C 0.29051 0.71822 0.52634
 C354 C 0.32949 0.78225 0.53694
 C355 C 0.40324 0.78406 0.51116
 C356 C 0.44012 0.72129 0.48763
 C357 C 0.40595 0.65349 0.49058
 C358 C 0.32747 0.65600 0.49828
 H359 H 0.23166 0.71630 0.53882
 H360 H 0.43402 0.83391 0.51240
 H361 H 0.49678 0.72713 0.47122
 H362 H 0.29540 0.60775 0.49437
 C363 C 0.38801 0.22541 0.43939
 C364 C 0.31150 0.22307 0.44940
 C365 C 0.27379 0.27636 0.49094
 C366 C 0.30869 0.33758 0.51907
 C367 C 0.39292 0.34620 0.50321
 C368 C 0.42914 0.28245 0.46500
 H369 H 0.41673 0.18183 0.41017
 H370 H 0.21531 0.27009 0.50297
 H371 H 0.35476 0.35549 0.51672
 H372 H 0.48577 0.28109 0.44752
   
