data_POSCAR
  _audit_creation_date              2014-09-24
  _audit_creation_method            'ToBaCCo'
  _symmetry_space_group_name_H-M    'P1'
  _symmetry_Int_Tables_number       1
  _symmetry_cell_setting            triclinic
  loop_
  _symmetry_equiv_pos_as_xyz
 x,y,z
_cell_length_a 36.5039
_cell_length_b 36.0317
_cell_length_c 14.9187
_cell_angle_alpha 89.976900
_cell_angle_beta 89.955200
_cell_angle_gamma 121.168200
loop_
  _atom_site_label
  _atom_site_type_symbol
  _atom_site_fract_x
  _atom_site_fract_y
  _atom_site_fract_z
C1 C 0.47817 0.96023 0.54849
 C2 C 0.46967 0.96018 0.45569
 C3 C 0.48526 0.99966 0.41037
 C4 C 0.51077 1.03998 0.45316
 C5 C 0.51877 1.04039 0.54697
 C6 C 0.50343 1.00047 0.59161
 H7 H 0.50732 1.00066 0.66364
 H8 H 0.48059 0.99857 0.33843
 C9 C 0.03883 0.51543 0.54671
 C10 C 0.03917 0.51237 0.45276
 C11 C 0.00045 0.49423 0.40534
 C12 C -0.03908 0.47911 0.44936
 C13 C -0.03898 0.48246 0.54454
 C14 C -0.00006 0.50094 0.59138
 H15 H -0.00031 0.50317 0.66379
 H16 H 0.00153 0.49403 0.33280
 C17 C 0.48365 0.52322 0.54978
 C18 C 0.48312 0.52218 0.45457
 C19 C 0.50387 0.50412 0.40915
 C20 C 0.52480 0.48636 0.45490
 C21 C 0.52487 0.48617 0.55015
 C22 C 0.50449 0.50500 0.59536
 H23 H 0.50474 0.50535 0.66798
 H24 H 0.50363 0.50378 0.33642
 O25 O 0.39801 0.65617 -0.07485
 O26 O 0.39428 0.72585 -0.10256
 C27 C 0.37375 0.74474 -0.11721
 O28 O 0.34025 0.73650 -0.07446
 O29 O 0.27079 0.66149 -0.10300
 C30 C 0.25219 0.62134 -0.11973
 O31 O 0.25874 0.59516 -0.07558
 O32 O 0.33208 0.60079 -0.10372
 C33 C 0.37198 0.62230 -0.11828
 O34 O 0.39583 0.66764 0.10303
 O35 O 0.39557 0.73927 0.07509
 C36 C 0.36837 0.74433 0.11784
 O37 O 0.32851 0.72227 0.10324
 O38 O 0.25720 0.64873 0.07603
 C39 C 0.25246 0.61632 0.12014
 O40 O 0.27277 0.59743 0.10307
 O41 O 0.34431 0.59937 0.07390
 C42 C 0.37704 0.62723 0.11719
 Cr43 Cr 0.39352 0.69592 0.00018
 Cr44 Cr 0.30036 0.69105 0.00039
 Cr45 Cr 0.30305 0.60060 -0.00051
 O46 O 0.33233 0.66255 0.00005
 O47 O 0.60424 0.34820 -0.07653
 O48 O 0.60393 0.27636 -0.10516
 C49 C 0.62266 0.25556 -0.11882
 O50 O 0.65507 0.26176 -0.07475
 O51 O 0.72704 0.33498 -0.10188
 C52 C 0.74815 0.37543 -0.11632
 O53 O 0.74253 0.40248 -0.07319
 O54 O 0.67148 0.40164 -0.10263
 C55 C 0.63172 0.38191 -0.11854
 O56 O 0.60430 0.33527 0.10111
 O57 O 0.60059 0.26171 0.07241
 C58 C 0.62624 0.25472 0.11620
 O59 O 0.66627 0.27510 0.10297
 O60 O 0.74008 0.34652 0.07586
 C61 C 0.74751 0.38008 0.11896
 O62 O 0.72824 0.40027 0.10444
 O63 O 0.65874 0.40261 0.07502
 C64 C 0.62495 0.37560 0.11683
 Cr65 Cr 0.60568 0.30660 -0.00196
 Cr66 Cr 0.69598 0.30584 0.00055
 Cr67 Cr 0.69897 0.39930 0.00090
 O68 O 0.66688 0.33726 -0.00011
 C69 C 0.42433 0.84634 -0.29183
 C70 C 0.46630 0.88022 -0.27681
 C71 C 0.48412 0.91755 -0.32980
 C72 C 0.46036 0.92162 -0.39971
 C73 C 0.41792 0.88707 -0.41368
 C74 C 0.40020 0.84978 -0.36041
 C75 C 0.40557 0.80911 -0.23369
 C76 C 0.39055 0.77899 -0.18218
 H77 H 0.48523 0.87793 -0.22359
 H78 H 0.51699 0.94280 -0.31720
 H79 H 0.39754 0.88949 -0.46298
 H80 H 0.36737 0.82403 -0.37153
 C81 C 0.15568 0.56783 -0.30358
 C82 C 0.11821 0.53162 -0.27173
 C83 C 0.08037 0.51423 -0.32042
 C84 C 0.07941 0.53275 -0.40237
 C85 C 0.11828 0.56704 -0.44101
 C86 C 0.15591 0.58556 -0.38766
 C87 C 0.19217 0.58836 -0.24452
 C88 C 0.22048 0.60403 -0.18949
 H89 H 0.11785 0.51764 -0.20715
 H90 H 0.05170 0.48657 -0.29329
 H91 H 0.11621 0.58995 -0.50701
 H92 H 0.18439 0.61477 -0.41065
 C93 C 0.42487 0.57613 -0.29256
 C94 C 0.46520 0.58351 -0.26971
 C95 C 0.48446 0.56619 -0.32195
 C96 C 0.46392 0.54133 -0.39902
 C97 C 0.42304 0.53398 -0.42098
 C98 C 0.40379 0.55136 -0.36828
 C99 C 0.40481 0.59264 -0.23537
 C100 C 0.38920 0.60637 -0.18383
 H101 H 0.48176 0.60255 -0.21104
 H102 H 0.51613 0.57337 -0.30310
 H103 H 0.40497 0.51324 -0.47648
 H104 H 0.37218 0.54481 -0.38568
 C105 C 0.57320 0.15392 -0.29263
 C106 C 0.54531 0.14854 -0.36234
 C107 C 0.52744 0.11126 -0.41560
 C108 C 0.53745 0.07877 -0.40044
 C109 C 0.56536 0.08465 -0.32913
 C110 C 0.58316 0.12194 -0.27621
 C111 C 0.59057 0.19132 -0.23528
 C112 C 0.60522 0.22148 -0.18404
 H113 H 0.53688 0.17282 -0.37474
 H114 H 0.50472 0.10734 -0.46684
 H115 H 0.57451 0.06100 -0.31565
 H116 H 0.60465 0.12575 -0.22215
 C117 C 0.84766 0.42606 -0.29290
 C118 C 0.85346 0.40033 -0.35482
 C119 C 0.89018 0.41869 -0.40853
 C120 C 0.92129 0.46302 -0.40102
 C121 C 0.91520 0.48861 -0.33887
 C122 C 0.87853 0.47023 -0.28529
 C123 C 0.81119 0.40706 -0.23399
 C124 C 0.78171 0.39206 -0.18185
 H125 H 0.82994 0.36604 -0.36069
 H126 H 0.89460 0.39832 -0.45523
 H127 H 0.93889 0.52279 -0.33193
 H128 H 0.87447 0.49036 -0.23720
 C129 C 0.58254 0.43217 -0.29199
 C130 C 0.54274 0.42597 -0.26820
 C131 C 0.52393 0.44376 -0.32035
 C132 C 0.54438 0.46794 -0.39830
 C133 C 0.58479 0.47422 -0.42110
 C134 C 0.60360 0.45635 -0.36846
 C135 C 0.60181 0.41462 -0.23537
 C136 C 0.61634 0.39969 -0.18407
 H137 H 0.52617 0.40735 -0.20901
 H138 H 0.49258 0.43734 -0.30082
 H139 H 0.60281 0.49440 -0.47739
 H140 H 0.63481 0.46195 -0.38666
 C141 C 0.84853 0.42814 0.29077
 C142 C 0.85371 0.45416 0.36483
 C143 C 0.89069 0.47113 0.41736
 C144 C 0.92308 0.46203 0.39710
 C145 C 0.91745 0.43618 0.32123
 C146 C 0.88049 0.41929 0.26909
 C147 C 0.81128 0.41141 0.23454
 C148 C 0.78130 0.39715 0.18387
 H149 H 0.82948 0.46188 0.38125
 H150 H 0.89450 0.49276 0.47160
 H151 H 0.94098 0.42770 0.30351
 H152 H 0.87687 0.39927 0.21164
 C153 C 0.57149 0.15254 0.28930
 C154 C 0.52897 0.12017 0.27328
 C155 C 0.50897 0.08311 0.32713
 C156 C 0.53105 0.07790 0.39901
 C157 C 0.57422 0.11068 0.41339
 C158 C 0.59411 0.14770 0.35927
 C159 C 0.59206 0.18992 0.23166
 C160 C 0.60834 0.22024 0.18069
 H161 H 0.51121 0.12354 0.21896
 H162 H 0.47570 0.05918 0.31404
 H163 H 0.59314 0.10722 0.46485
 H164 H 0.62730 0.17226 0.37132
 C165 C 0.57745 0.42701 0.29209
 C166 C 0.54600 0.40215 0.35600
 C167 C 0.52880 0.42134 0.40955
 C168 C 0.54315 0.46563 0.39982
 C169 C 0.57458 0.49027 0.33542
 C170 C 0.59170 0.47108 0.28207
 C171 C 0.59415 0.40739 0.23393
 C172 C 0.60827 0.39220 0.18219
 H173 H 0.53451 0.36794 0.36379
 H174 H 0.50421 0.40172 0.45815
 H175 H 0.58593 0.52440 0.32679
 H176 H 0.61582 0.49054 0.23247
 C177 C 0.15704 0.56271 0.30703
 C178 C 0.12073 0.52396 0.28037
 C179 C 0.08274 0.50692 0.32862
 C180 C 0.08042 0.52847 0.40471
 C181 C 0.11858 0.56545 0.43964
 C182 C 0.15623 0.58320 0.38643
 C183 C 0.19297 0.58317 0.24633
 C184 C 0.22095 0.59892 0.19044
 H185 H 0.12123 0.50780 0.21951
 H186 H 0.05484 0.47740 0.30501
 H187 H 0.18373 0.61424 0.40493
 C188 C 0.41453 0.84541 0.29301
 C189 C 0.39749 0.87240 0.29102
 C190 C 0.41525 0.90962 0.34435
 C191 C 0.45014 0.92009 0.40058
 C192 C 0.46715 0.89288 0.40214
 C193 C 0.44933 0.85566 0.34880
 C194 C 0.39764 0.80846 0.23442
 C195 C 0.38397 0.77848 0.18281
 H196 H 0.37076 0.86493 0.24755
 H197 H 0.40179 0.93025 0.34198
 H198 H 0.49445 0.90072 0.44400
 H199 H 0.46303 0.83523 0.35017
 C200 C 0.42771 0.57874 0.29165
 C201 C 0.41417 0.53479 0.28283
 C202 C 0.43227 0.51656 0.33604
 C203 C 0.46400 0.54202 0.39910
 C204 C 0.47769 0.58620 0.40752
 C205 C 0.45950 0.60445 0.35411
 C206 C 0.40988 0.59735 0.23379
 C207 C 0.39481 0.61167 0.18231
 H208 H 0.38979 0.51468 0.23434
 H209 H 0.42139 0.48248 0.32846
 H210 H 0.50247 0.60646 0.45509
 H211 H 0.47046 0.63857 0.36096
   
