data_POSCAR
  _audit_creation_date              2014-09-24
  _audit_creation_method            'ToBaCCo'
  _symmetry_space_group_name_H-M    'P1'
  _symmetry_Int_Tables_number       1
  _symmetry_cell_setting            triclinic
  loop_
  _symmetry_equiv_pos_as_xyz
 x,y,z
_cell_length_a 56.4756
_cell_length_b 55.3079
_cell_length_c 19.3597
_cell_angle_alpha 90.682400
_cell_angle_beta 90.239400
_cell_angle_gamma 120.159900
loop_
  _atom_site_label
  _atom_site_type_symbol
  _atom_site_fract_x
  _atom_site_fract_y
  _atom_site_fract_z
C1 C 0.21149 0.54576 0.50515
 C2 C 0.22090 0.54022 0.44305
 C3 C 0.24411 0.53690 0.44571
 C4 C 0.25923 0.54150 0.50788
 C5 C 0.24910 0.54736 0.56843
 C6 C 0.22434 0.54752 0.56883
 C7 C 0.28504 0.53965 0.51068
 C8 C 0.29586 0.53706 0.57465
 C9 C 0.32002 0.53600 0.57778
 C10 C 0.33284 0.53548 0.51704
 C11 C 0.32279 0.53774 0.45255
 C12 C 0.29936 0.54055 0.44992
 H13 H 0.19201 0.54509 0.50455
 H14 H 0.25064 0.53154 0.39862
 H15 H 0.26048 0.55248 0.61633
 H16 H 0.28580 0.53539 0.62302
 H17 H 0.35074 0.53315 0.52061
 H18 H 0.29290 0.54386 0.40016
 C19 C 0.45148 -0.33390 0.49474
 C20 C 0.45173 -0.32040 0.43363
 C21 C 0.44398 -0.29982 0.43698
 C22 C 0.43582 -0.29310 0.50035
 C23 C 0.43255 -0.30990 0.55818
 C24 C 0.44239 -0.32867 0.55743
 C25 C 0.43449 -0.26663 0.50942
 C26 C 0.43844 -0.25392 0.57587
 C27 C 0.44037 -0.22787 0.58462
 C28 C 0.43935 -0.21354 0.52717
 C29 C 0.43640 -0.22489 0.46065
 C30 C 0.43277 -0.25186 0.45204
 H31 H 0.45676 -0.35022 0.49293
 H32 H 0.44665 -0.28771 0.39137
 H33 H 0.42474 -0.30664 0.60603
 H34 H 0.44174 -0.26302 0.62130
 H35 H 0.44193 -0.19286 0.53419
 H36 H 0.43001 -0.26035 0.40020
 C37 C 1.32922 0.78231 0.50609
 C38 C 1.31538 0.77563 0.44192
 C39 C 1.28801 0.75349 0.43916
 C40 C 1.27483 0.73766 0.49827
 C41 C 1.29026 0.74387 0.56012
 C42 C 1.31679 0.76704 0.56563
 C43 C 1.24463 0.71645 0.49716
 C44 C 1.22937 0.70867 0.55894
 C45 C 1.20090 0.68981 0.55871
 C46 C 1.18748 0.67986 0.49454
 C47 C 1.20188 0.68757 0.43246
 C48 C 1.23042 0.70495 0.43429
 H49 H 1.34993 0.79966 0.51005
 H50 H 1.27651 0.75034 0.39200
 H51 H 1.28162 0.73128 0.60530
 H52 H 1.23915 0.71842 0.60748
 H53 H 1.16585 0.66454 0.49232
 H54 H 1.24122 0.70967 0.38601
 C55 C 0.79558 0.46385 0.50426
 C56 C 0.78715 0.46920 0.44149
 C57 C 0.76111 0.46595 0.43436
 C58 C 0.74261 0.45661 0.48991
 C59 C 0.75161 0.45108 0.55353
 C60 C 0.77824 0.45529 0.56103
 C61 C 0.71534 0.45523 0.48268
 C62 C 0.70170 0.45705 0.54179
 C63 C 0.67831 0.45977 0.53623
 C64 C 0.66859 0.46082 0.46993
 C65 C 0.68124 0.45852 0.41049
 C66 C 0.70392 0.45475 0.41679
 H67 H 0.81631 0.46764 0.50966
 H68 H 0.75620 0.47199 0.38594
 H69 H 0.73844 0.44378 0.59789
 H70 H 0.71046 0.45894 0.59254
 H71 H 0.65050 0.46267 0.46367
 H72 H 0.71283 0.45233 0.36982
 C73 C 0.51249 0.31679 0.50458
 C74 C 0.50985 0.30413 0.44031
 C75 C 0.51654 0.28325 0.43260
 C76 C 0.52826 0.27626 0.48787
 C77 C 0.53327 0.29137 0.55148
 C78 C 0.52392 0.31055 0.56133
 C79 C 0.53278 0.25178 0.48001
 C80 C 0.53152 0.23605 0.53817
 C81 C 0.53020 0.21003 0.53098
 C82 C 0.53011 0.19979 0.46400
 C83 C 0.53231 0.21535 0.40568
 C84 C 0.53471 0.24169 0.41381
 H85 H 0.50712 0.33303 0.50901
 H86 H 0.51245 0.27276 0.38289
 H87 H 0.54293 0.28723 0.59445
 H88 H 0.52887 0.24258 0.58896
 H89 H 0.52913 0.17986 0.45643
 H90 H 0.53687 0.25346 0.36778
 C91 C 0.67472 0.20306 0.50401
 C92 C 0.69106 0.21085 0.44524
 C93 C 0.71784 0.23344 0.44887
 C94 C 0.72836 0.24934 0.51033
 C95 C 0.71141 0.24104 0.56949
 C96 C 0.68493 0.21751 0.56657
 C97 C 0.75744 0.27303 0.51306
 C98 C 0.77232 0.28050 0.57580
 C99 C 0.80024 0.30088 0.57850
 C100 C 0.81345 0.31358 0.51680
 C101 C 0.79927 0.30695 0.45362
 C102 C 0.77111 0.28722 0.45242
 H103 H 0.65441 0.18470 0.50200
 H104 H 0.73041 0.23802 0.40354
 H105 H 0.71859 0.25229 0.61814
 H106 H 0.76278 0.26928 0.62230
 H107 H 0.83466 0.33020 0.51826
 H108 H 0.76014 0.28274 0.40377
 O109 O 0.97935 0.44395 0.13897
 O110 O 0.94292 0.43459 0.06828
 C111 C 0.95356 0.42943 0.12166
 O112 O 1.02087 0.56622 0.11085
 O113 O 1.05754 0.57027 0.05087
 C114 C 1.04668 0.57949 0.09496
 O115 O 0.94855 0.50601 0.11429
 O116 O 0.92836 0.46421 0.05464
 C117 C 0.92760 0.48179 0.09812
 O118 O 1.05315 0.50034 0.12879
 O119 O 1.07296 0.53946 0.06136
 C120 C 1.07377 0.52409 0.11048
 Zr121 Zr 1.01204 0.47971 0.09265
 O122 O 1.01526 0.48287 0.20161
 O123 O 1.02460 0.44960 0.09085
 Zr124 Zr 0.98919 0.52587 0.07813
 O125 O 0.99054 0.53188 0.18659
 O126 O 0.97268 0.55246 0.06467
 O127 O 0.97775 0.48455 0.09977
 O128 O 1.02277 0.52137 0.09778
 O129 O 1.05380 0.49486 -0.11593
 O130 O 1.07316 0.53716 -0.05810
 C131 C 1.07394 0.51996 -0.10259
 O132 O 0.94883 0.49693 -0.13612
 O133 O 0.92876 0.45883 -0.06540
 C134 C 0.92829 0.47315 -0.11736
 O135 O 1.02072 0.55851 -0.13353
 O136 O 1.05767 0.56697 -0.06607
 C137 C 1.04646 0.57323 -0.11618
 O138 O 0.98107 0.43621 -0.11899
 O139 O 0.94432 0.43014 -0.05566
 C140 C 0.95542 0.42217 -0.10254
 Zr141 Zr 1.01288 0.47450 -0.07919
 O142 O 1.01609 0.46877 -0.18611
 O143 O 1.02522 0.44486 -0.05894
 Zr144 Zr 0.98928 0.52009 -0.09471
 O145 O 0.99137 0.51943 -0.20381
 O146 O 0.97210 0.54639 -0.10004
 Zr147 Zr 0.96231 0.46834 0.00008
 Zr148 Zr 1.03922 0.53180 -0.00201
 O149 O 1.02302 0.51509 -0.10076
 O150 O 0.97846 0.47812 -0.10033
 O151 O 1.03766 0.49308 0.00723
 O152 O 0.96498 0.50753 -0.00876
 O153 O 0.99106 0.45494 0.00833
 O154 O 1.01076 0.54569 -0.01017
 H155 H 1.03398 0.53173 0.13883
 H156 H 0.94788 0.50833 -0.01257
 H157 H 1.03395 0.52310 -0.14290
 H158 H 0.98400 0.43459 0.01230
 H159 H 0.98673 0.56960 0.04194
 H160 H 0.98534 0.56455 -0.07828
 H161 H 0.98254 0.49959 -0.21890
 H162 H 1.00884 0.47943 -0.20999
 H163 H 1.04442 0.45526 -0.04194
 H164 H 1.02630 0.44565 0.13982
 H165 H 1.00183 0.48815 0.21738
 H166 H 0.98043 0.51318 0.20755
 O167 O 0.46286 0.49706 0.15401
 O168 O 0.46008 0.52761 0.07953
 C169 C 0.45460 0.51434 0.13717
 O170 O 0.57901 0.53991 0.09302
 O171 O 0.56822 0.49892 0.03631
 C172 C 0.58401 0.52005 0.07640
 O173 O 0.53756 0.57509 0.11622
 O174 O 0.49741 0.56662 0.06467
 C175 C 0.51751 0.58005 0.10840
 O176 O 0.49557 0.45283 0.13076
 O177 O 0.52906 0.45827 0.05467
 C178 C 0.51377 0.44701 0.10798
 Zr179 Zr 0.48595 0.48321 0.09665
 O180 O 0.48954 0.48218 0.20517
 O181 O 0.44769 0.44583 0.10002
 Zr182 Zr 0.54474 0.54449 0.07008
 O183 O 0.55625 0.55109 0.17581
 O184 O 0.57952 0.58283 0.04385
 O185 O 0.50424 0.52653 0.10080
 O186 O 0.52822 0.50267 0.09214
 O187 O 0.47813 0.44134 -0.10736
 O188 O 0.51997 0.45164 -0.06323
 C189 C 0.49781 0.43591 -0.09921
 O190 O 0.52182 0.56524 -0.13622
 O191 O 0.48970 0.56205 -0.05924
 C192 C 0.50481 0.57259 -0.11347
 O193 O 0.56172 0.52936 -0.14576
 O194 O 0.55959 0.49339 -0.08328
 C195 C 0.56892 0.51098 -0.13391
 O196 O 0.44129 0.48083 -0.10223
 O197 O 0.45087 0.52116 -0.04393
 C198 C 0.43573 0.50014 -0.08529
 Zr199 Zr 0.47391 0.47516 -0.07239
 O200 O 0.46433 0.46581 -0.17858
 O201 O 0.43796 0.43829 -0.04372
 Zr202 Zr 0.53234 0.53640 -0.09938
 O203 O 0.52662 0.53068 -0.20780
 O204 O 0.56779 0.57600 -0.11293
 Zr205 Zr 0.48837 0.53055 0.00528
 Zr206 Zr 0.53024 0.48934 -0.00893
 O207 O 0.51412 0.49335 -0.10343
 O208 O 0.48982 0.51726 -0.09614
 O209 O 0.48822 0.46213 0.00976
 O210 O 0.53045 0.55706 -0.01196
 O211 O 0.46333 0.48718 0.01844
 O212 O 0.55568 0.53276 -0.02120
 H213 H 0.53719 0.49886 0.13120
 H214 H 0.53754 0.57745 -0.01478
 H215 H 0.51707 0.48537 -0.14642
 H216 H 0.44363 0.47987 0.02746
 H217 H 0.58884 0.59173 0.08816
 H218 H 0.58309 0.57595 -0.08793
 H219 H 0.50808 0.52732 -0.21892
 H220 H 0.47247 0.48389 -0.20246
 H221 H 0.42804 0.42926 -0.08737
 H222 H 0.44348 0.44203 0.14966
 H223 H 0.50752 0.49835 0.21829
 H224 H 0.53916 0.54351 0.20259
 O225 O 0.51834 -0.03014 0.15401
 O226 O 0.48742 -0.06683 0.08578
 C227 C 0.50238 -0.05676 0.14108
 O228 O 0.46271 0.03415 0.07918
 O229 O 0.50094 0.06535 0.02041
 C230 C 0.48015 0.05933 0.05972
 O231 O 0.43718 -0.04060 0.11851
 O232 O 0.44772 -0.07209 0.07047
 C233 C 0.43475 -0.06518 0.11445
 O234 O 0.55291 0.04750 0.12498
 O235 O 0.54339 0.07144 0.04353
 C236 C 0.55610 0.07032 0.09821
 Zr237 Zr 0.52556 0.00539 0.09598
 O238 O 0.52378 0.01348 0.20235
 O239 O 0.56367 0.00747 0.11190
 Zr240 Zr 0.46218 -0.00400 0.06296
 O241 O 0.45327 0.00267 0.16500
 O242 O 0.42277 -0.01300 0.03077
 O243 O 0.48381 -0.02255 0.10053
 O244 O 0.50271 0.02499 0.08498
 O245 O 0.56366 0.03658 -0.11032
 O246 O 0.54920 0.06636 -0.07208
 C247 C 0.56622 0.06122 -0.10493
 O248 O 0.44960 -0.05364 -0.14517
 O249 O 0.45287 -0.07823 -0.05467
 C250 C 0.44487 -0.07670 -0.11643
 O251 O 0.47360 0.02258 -0.15771
 O252 O 0.50614 0.05988 -0.09404
 C253 C 0.48923 0.04922 -0.14610
 O254 O 0.52984 -0.04143 -0.09795
 O255 O 0.49300 -0.07205 -0.03411
 C256 C 0.51221 -0.06650 -0.07827
 Zr257 Zr 0.53303 -0.00253 -0.07265
 O258 O 0.54062 -0.00437 -0.17897
 O259 O 0.57064 -0.00012 -0.04664
 Zr260 Zr 0.46951 -0.01235 -0.10452
 O261 O 0.46944 -0.01581 -0.21333
 O262 O 0.42826 -0.02196 -0.11278
 Zr263 Zr 0.48116 -0.04453 0.00841
 Zr264 Zr 0.51399 0.03790 -0.01737
 O265 O 0.51128 0.01570 -0.10890
 O266 O 0.49246 -0.03200 -0.09441
 O267 O 0.54399 0.02708 0.00647
 O268 O 0.45138 -0.03365 -0.01516
 O269 O 0.52402 -0.02232 0.02135
 O270 O 0.47103 0.01616 -0.03106
 H271 H 0.50564 0.03889 0.12167
 H272 H 0.43216 -0.04925 -0.01779
 H273 H 0.51812 0.02598 -0.15258
 H274 H 0.53312 -0.03318 0.03237
 H275 H 0.41326 -0.01264 0.07330
 H276 H 0.42814 -0.00425 -0.10610
 H277 H 0.48774 -0.01253 -0.22606
 H278 H 0.52333 -0.01917 -0.20027
 H279 H 0.58302 0.01883 -0.02734
 H280 H 0.57793 0.02466 0.08980
 H281 H 0.50509 -0.00006 0.21785
 H282 H 0.46931 0.00644 0.19371
 C283 C 1.19255 0.55175 0.36937
 C284 C 1.17470 0.54570 0.31290
 C285 C 1.16942 0.52344 0.26714
 C286 C 1.18379 0.50907 0.27579
 C287 C 1.20211 0.51566 0.33141
 C288 C 1.20581 0.53624 0.38095
 C289 C 1.14941 0.51553 0.21476
 C290 C 1.13495 0.52993 0.20727
 C291 C 1.14176 0.55349 0.25024
 C292 C 1.16150 0.56114 0.30282
 C293 C 1.12799 0.56844 0.24163
 C294 C 1.10678 0.55941 0.19311
 C295 C 1.09893 0.53535 0.15260
 C296 C 1.11324 0.52078 0.15908
 H297 H 1.19608 0.56869 0.40452
 H298 H 1.18031 0.49217 0.24061
 H299 H 1.21164 0.50305 0.33808
 H300 H 1.14467 0.49784 0.18101
 H301 H 1.16601 0.57863 0.33713
 H302 H 1.13304 0.58658 0.27392
 H303 H 1.09544 0.57034 0.18985
 H304 H 1.10705 0.50207 0.12796
 C305 C 0.48087 0.66530 0.37315
 C306 C 0.48643 0.65366 0.31526
 C307 C 0.47101 0.64859 0.25383
 C308 C 0.45174 0.65757 0.25006
 C309 C 0.44673 0.66989 0.30792
 C310 C 0.46015 0.67245 0.37146
 C311 C 0.47483 0.63422 0.19820
 C312 C 0.49431 0.62547 0.20335
 C313 C 0.51090 0.63247 0.26355
 C314 C 0.50676 0.64631 0.31902
 C315 C 0.53100 0.62489 0.26846
 C316 C 0.53400 0.60936 0.21575
 C317 C 0.51672 0.60065 0.15705
 C318 C 0.49717 0.60931 0.15048
 H319 H 0.49275 0.66868 0.42009
 H320 H 0.44002 0.65438 0.20298
 H321 H 0.43081 0.67530 0.30418
 H322 H 0.46240 0.62946 0.15171
 H323 H 0.51896 0.65078 0.36589
 H324 H 0.54403 0.63039 0.31401
 H325 H 0.54919 0.60311 0.22277
 H326 H 0.48374 0.60287 0.10554
 C327 C 0.34810 -0.17954 0.38988
 C328 C 0.36160 -0.16342 0.33252
 C329 C 0.35592 -0.17574 0.26581
 C330 C 0.33609 -0.20413 0.25787
 C331 C 0.32222 -0.22007 0.31542
 C332 C 0.32836 -0.20818 0.38275
 C333 C 0.36983 -0.15931 0.20847
 C334 C 0.38860 -0.13053 0.21727
 C335 C 0.39351 -0.11840 0.28445
 C336 C 0.38040 -0.13493 0.34138
 C337 C 0.41124 -0.08973 0.29403
 C338 C 0.42383 -0.07294 0.23769
 C339 C 0.41950 -0.08444 0.17060
 C340 C 0.40222 -0.11344 0.16044
 H341 H 0.35223 -0.16909 0.43983
 H342 H 0.33128 -0.21402 0.20713
 H343 H 0.30754 -0.24204 0.30712
 H344 H 0.36566 -0.16875 0.15719
 H345 H 0.38448 -0.12546 0.39268
 H346 H 0.41521 -0.08020 0.34516
 H347 H 0.43756 -0.05077 0.24687
 H348 H 0.39897 -0.12243 0.10882
 C349 C 0.80642 0.46098 0.33521
 C350 C 0.82833 0.46968 0.28963
 C351 C 0.85030 0.49765 0.29313
 C352 C 0.84949 0.51667 0.34017
 C353 C 0.82789 0.50765 0.38627
 C354 C 0.80666 0.47972 0.38479
 C355 C 0.87333 0.50582 0.25208
 C356 C 0.87496 0.48625 0.20883
 C357 C 0.85264 0.45859 0.20327
 C358 C 0.82930 0.45052 0.24332
 C359 C 0.85440 0.43929 0.15917
 C360 C 0.87848 0.44704 0.12303
 C361 C 0.90128 0.47407 0.13126
 C362 C 0.89903 0.49377 0.17290
 H363 H 0.79007 0.43932 0.33508
 H364 H 0.86612 0.53816 0.34333
 H365 H 0.82824 0.52214 0.42499
 H366 H 0.89043 0.52709 0.25588
 H367 H 0.81241 0.42913 0.24039
 H368 H 0.83737 0.41809 0.15355
 H369 H 0.87934 0.43172 0.08954
 H370 H 0.91624 0.51488 0.17871
 C371 C 0.52417 0.34232 0.35826
 C372 C 0.51854 0.35614 0.30662
 C373 C 0.49221 0.34337 0.27546
 C374 C 0.47226 0.31632 0.29522
 C375 C 0.47809 0.30267 0.34740
 C376 C 0.50389 0.31597 0.37982
 C377 C 0.48615 0.35820 0.22687
 C378 C 0.50604 0.38566 0.21004
 C379 C 0.53259 0.39787 0.24014
 C380 C 0.53867 0.38298 0.28776
 C381 C 0.55248 0.42522 0.22400
 C382 C 0.54603 0.44065 0.17954
 C383 C 0.51983 0.42899 0.14997
 C384 C 0.49976 0.40149 0.16510
 H385 H 0.54410 0.35243 0.38363
 H386 H 0.45202 0.30609 0.27170
 H387 H 0.46231 0.28224 0.36395
 H388 H 0.46586 0.34871 0.20365
 H389 H 0.55887 0.39261 0.31169
 H390 H 0.57277 0.43494 0.24721
 H391 H 0.56112 0.46222 0.17048
 H392 H 0.47940 0.39268 0.14270
 C393 C 0.65475 0.18851 0.35528
 C394 C 0.64236 0.16964 0.30015
 C395 C 0.65573 0.15635 0.27001
 C396 C 0.68197 0.16333 0.29351
 C397 C 0.69417 0.18217 0.34883
 C398 C 0.68025 0.19419 0.38111
 C399 C 0.64219 0.13554 0.21905
 C400 C 0.61531 0.12759 0.19905
 C401 C 0.60253 0.14185 0.22732
 C402 C 0.61625 0.16297 0.27708
 C403 C 0.57564 0.13380 0.20801
 C404 C 0.56113 0.11107 0.16329
 C405 C 0.57330 0.09638 0.13647
 C406 C 0.60050 0.10478 0.15370
 H407 H 0.64417 0.19807 0.37986
 H408 H 0.69263 0.15355 0.27072
 H409 H 0.71391 0.18641 0.36837
 H410 H 0.65209 0.12479 0.19710
 H411 H 0.60613 0.17334 0.30000
 H412 H 0.56548 0.14428 0.22982
 H413 H 0.53979 0.10379 0.15299
 H414 H 0.60970 0.09305 0.13365
 C415 C 0.51150 0.16441 -0.41474
 C416 C 0.50905 0.14795 -0.35805
 C417 C 0.52341 0.16062 -0.29598
 C418 C 0.53900 0.18986 -0.29091
 C419 C 0.54068 0.20630 -0.34720
 C420 C 0.52753 0.19377 -0.41062
 C421 C 0.52188 0.14380 -0.24035
 C422 C 0.50565 0.11454 -0.24595
 C423 C 0.49038 0.10220 -0.30736
 C424 C 0.49233 0.11891 -0.36298
 C425 C 0.47362 0.07320 -0.31285
 C426 C 0.47255 0.05633 -0.25899
 C427 C 0.48842 0.06804 -0.19853
 C428 C 0.50465 0.09732 -0.19181
 H429 H 0.49989 0.15418 -0.46137
 H430 H 0.55002 0.20003 -0.24359
 H431 H 0.55343 0.22878 -0.34186
 H432 H 0.53333 0.15343 -0.19309
 H433 H 0.48097 0.10928 -0.41040
 H434 H 0.46163 0.06350 -0.35933
 H435 H 0.45977 0.03390 -0.26589
 H436 H 0.51691 0.10665 -0.14546
 C437 C 0.65440 0.48059 -0.40599
 C438 C 0.64131 0.48376 -0.34859
 C439 C 0.63842 0.46864 -0.28794
 C440 C 0.65007 0.45146 -0.28513
 C441 C 0.66397 0.44903 -0.34227
 C442 C 0.66565 0.46299 -0.40429
 C443 C 0.62399 0.47108 -0.23162
 C444 C 0.61317 0.48908 -0.23522
 C445 C 0.61753 0.50508 -0.29535
 C446 C 0.63123 0.50211 -0.35153
 C447 C 0.60789 0.52375 -0.29927
 C448 C 0.59328 0.52618 -0.24512
 C449 C 0.58749 0.50967 -0.18574
 C450 C 0.59785 0.49128 -0.18060
 H451 H 0.65675 0.49291 -0.45128
 H452 H 0.64837 0.43985 -0.23894
 H453 H 0.67219 0.43512 -0.33876
 H454 H 0.62120 0.45907 -0.18543
 H455 H 0.63394 0.51405 -0.39788
 H456 H 0.61130 0.53627 -0.34480
 H457 H 0.58577 0.54060 -0.25133
 H458 H 0.59367 0.47852 -0.13522
 C459 C 0.84283 0.31752 -0.35595
 C460 C 0.85871 0.33040 -0.29692
 C461 C 0.84665 0.33520 -0.23851
 C462 C 0.81833 0.32480 -0.23826
 C463 C 0.80248 0.31164 -0.29732
 C464 C 0.81485 0.30926 -0.35823
 C465 C 0.86329 0.35141 -0.18295
 C466 C 0.89180 0.36314 -0.18607
 C467 C 0.90348 0.35658 -0.24257
 C468 C 0.88681 0.33993 -0.29720
 C469 C 0.93189 0.36821 -0.24575
 C470 C 0.94880 0.38814 -0.19675
 C471 C 0.93756 0.39660 -0.14345
 C472 C 0.90895 0.38282 -0.13617
 H473 H 0.85249 0.31438 -0.40077
 H474 H 0.80864 0.32791 -0.19353
 H475 H 0.78102 0.30551 -0.29669
 H476 H 0.85424 0.35612 -0.13924
 H477 H 0.89593 0.33581 -0.34174
 H478 H 0.94110 0.36306 -0.28821
 H479 H 0.97076 0.39803 -0.20297
 H480 H 0.89999 0.38894 -0.09498
 C481 C 0.47262 -0.19074 -0.33411
 C482 C 0.47769 -0.17403 -0.27472
 C483 C 0.45633 -0.18060 -0.22748
 C484 C 0.43057 -0.20452 -0.23917
 C485 C 0.42565 -0.22092 -0.29896
 C486 C 0.44648 -0.21374 -0.34726
 C487 C 0.46065 -0.16238 -0.17156
 C488 C 0.48569 -0.13721 -0.16402
 C489 C 0.50732 -0.13127 -0.20984
 C490 C 0.50334 -0.14999 -0.26407
 C491 C 0.53203 -0.10585 -0.20338
 C492 C 0.53448 -0.08541 -0.15623
 C493 C 0.51247 -0.09026 -0.11366
 C494 C 0.48869 -0.11690 -0.11502
 H495 H 0.48861 -0.18515 -0.37191
 H496 H 0.41394 -0.20984 -0.20365
 H497 H 0.40532 -0.23849 -0.30902
 H498 H 0.44400 -0.16692 -0.13661
 H499 H 0.51972 -0.14504 -0.30027
 H500 H 0.54890 -0.10112 -0.23762
 H501 H 0.55313 -0.06523 -0.15574
 H502 H 0.47149 -0.12096 -0.08267
 C503 C 0.33236 0.51226 -0.33243
 C504 C 0.34886 0.51379 -0.27625
 C505 C 0.36617 0.53983 -0.24300
 C506 C 0.36525 0.56355 -0.26377
 C507 C 0.34879 0.56188 -0.31988
 C508 C 0.33287 0.53642 -0.35553
 C509 C 0.38492 0.54194 -0.19193
 C510 C 0.38682 0.51839 -0.17454
 C511 C 0.36824 0.49208 -0.20500
 C512 C 0.34929 0.48991 -0.25512
 C513 C 0.36975 0.46846 -0.18743
 C514 C 0.39075 0.47113 -0.14442
 C515 C 0.41070 0.49744 -0.11777
 C516 C 0.40786 0.52087 -0.13030
 H517 H 0.32010 0.49264 -0.36029
 H518 H 0.37794 0.58353 -0.23818
 H519 H 0.34942 0.58071 -0.33754
 H520 H 0.39879 0.56206 -0.16804
 H521 H 0.33573 0.46987 -0.27993
 H522 H 0.35540 0.44809 -0.20936
 H523 H 0.39204 0.45259 -0.13438
 H524 H 0.42292 0.54117 -0.10957
 C525 C 1.15802 0.67200 -0.37636
 C526 C 1.14232 0.65890 -0.31814
 C527 C 1.15462 0.65394 -0.26057
 C528 C 1.18281 0.66370 -0.26076
 C529 C 1.19842 0.67688 -0.31891
 C530 C 1.18607 0.68022 -0.37889
 C531 C 1.13838 0.63857 -0.20486
 C532 C 1.10995 0.62788 -0.20664
 C533 C 1.09795 0.63404 -0.26294
 C534 C 1.11424 0.64976 -0.31792
 C535 C 1.06960 0.62327 -0.26499
 C536 C 1.05298 0.60491 -0.21438
 C537 C 1.06443 0.59719 -0.16030
 C538 C 1.09314 0.60987 -0.15501
 H539 H 1.14817 0.67574 -0.41976
 H540 H 1.19266 0.66030 -0.21678
 H541 H 1.21976 0.68256 -0.31810
 H542 H 1.14768 0.63403 -0.16152
 H543 H 1.10485 0.65383 -0.36190
 H544 H 1.06012 0.62805 -0.30744
 H545 H 1.03101 0.59578 -0.21947
 H546 H 1.10231 0.60419 -0.11361
 C547 C 0.80432 0.43994 -0.36416
 C548 C 0.82249 0.44570 -0.30838
 C549 C 0.82629 0.46624 -0.25841
 C550 C 0.81031 0.47909 -0.26237
 C551 C 0.79232 0.47329 -0.31826
 C552 C 0.79005 0.45457 -0.37099
 C553 C 0.84692 0.47459 -0.20757
 C554 C 0.86383 0.46271 -0.20632
 C555 C 0.85879 0.44087 -0.25366
 C556 C 0.83813 0.43248 -0.30422
 C557 C 0.87522 0.42850 -0.25131
 C558 C 0.89723 0.43852 -0.20476
 C559 C 0.90323 0.46107 -0.16012
 C560 C 0.88627 0.47286 -0.16013
 H561 H 0.80270 0.42554 -0.40491
 H562 H 0.81275 0.49470 -0.22421
 H563 H 0.78177 0.48502 -0.32300
 H564 H 0.85046 0.49102 -0.17070
 H565 H 0.83496 0.41644 -0.34198
 H566 H 0.87149 0.41158 -0.28667
 H567 H 0.91027 0.42938 -0.20542
 H568 H 0.89089 0.49023 -0.12531
 C569 C 0.50373 0.32747 -0.35394
 C570 C 0.50622 0.34459 -0.29746
 C571 C 0.53127 0.35924 -0.26072
 C572 C 0.55258 0.35408 -0.27755
 C573 C 0.54959 0.33602 -0.33308
 C574 C 0.52566 0.32387 -0.37448
 C575 C 0.53459 0.37920 -0.20956
 C576 C 0.51286 0.38408 -0.19457
 C577 C 0.48724 0.36742 -0.22818
 C578 C 0.48414 0.34797 -0.27926
 C579 C 0.46515 0.37109 -0.21237
 C580 C 0.46861 0.39227 -0.16704
 C581 C 0.49434 0.41065 -0.13675
 C582 C 0.51632 0.40581 -0.14878
 H583 H 0.48458 0.31713 -0.38299
 H584 H 0.57182 0.36461 -0.24916
 H585 H 0.56681 0.33353 -0.34690
 H586 H 0.55413 0.39136 -0.18305
 H587 H 0.46472 0.33610 -0.30662
 H588 H 0.44531 0.35810 -0.23684
 H589 H 0.45111 0.39487 -0.15791
 H590 H 0.53620 0.41959 -0.12541
 C591 C 0.67199 0.18485 -0.33587
 C592 C 0.65240 0.16717 -0.28827
 C593 C 0.62956 0.17032 -0.27363
 C594 C 0.62721 0.19169 -0.30576
 C595 C 0.64644 0.20867 -0.35475
 C596 C 0.66870 0.20508 -0.37074
 C597 C 0.60890 0.15126 -0.22987
 C598 C 0.61043 0.12862 -0.20239
 C599 C 0.63353 0.12586 -0.21665
 C600 C 0.65451 0.14537 -0.25842
 C601 C 0.63490 0.10304 -0.19094
 C602 C 0.61321 0.08250 -0.15353
 C603 C 0.58984 0.08453 -0.13990
 C604 C 0.58884 0.10807 -0.16319
 H605 H 0.68878 0.18158 -0.34965
 H606 H 0.60982 0.19440 -0.29548
 H607 H 0.64332 0.22377 -0.38243
 H608 H 0.59117 0.15339 -0.21949
 H609 H 0.67196 0.14289 -0.27001
 H610 H 0.65247 0.10066 -0.20134
 H611 H 0.61463 0.06476 -0.13575
 H612 H 0.57084 0.10977 -0.15342
 C613 C 1.19313 0.55699 -0.36278
 C614 C 1.17610 0.55106 -0.30548
 C615 C 1.17696 0.53438 -0.25193
 C616 C 1.19637 0.52575 -0.25416
 C617 C 1.21344 0.53189 -0.31117
 C618 C 1.21115 0.54641 -0.36811
 C619 C 1.15782 0.52582 -0.19842
 C620 C 1.13786 0.53383 -0.19799
 C621 C 1.13826 0.55205 -0.24945
 C622 C 1.15740 0.56060 -0.30258
 C623 C 1.11884 0.56066 -0.24852
 C624 C 1.09849 0.55042 -0.19888
 C625 C 1.09724 0.53155 -0.14933
 C626 C 1.11707 0.52343 -0.14823
 H627 H 1.19197 0.56959 -0.40365
 H628 H 1.19760 0.51324 -0.21317
 H629 H 1.22673 0.52304 -0.31262
 H630 H 1.15793 0.51229 -0.15847
 H631 H 1.15706 0.57382 -0.34308
 H632 H 1.11896 0.57474 -0.28717
 H633 H 1.08303 0.55649 -0.20054
 H634 H 1.11605 0.50887 -0.10972
 C635 C 0.46906 0.65717 -0.37284
 C636 C 0.47274 0.64480 -0.31465
 C637 C 0.45243 0.63360 -0.26355
 C638 C 0.42968 0.63736 -0.26935
 C639 C 0.42645 0.65062 -0.32718
 C640 C 0.44558 0.65958 -0.38122
 C641 C 0.45524 0.61865 -0.20862
 C642 C 0.47840 0.61536 -0.20445
 C643 C 0.49958 0.62890 -0.25317
 C644 C 0.49655 0.64332 -0.30779
 C645 C 0.52324 0.62708 -0.24839
 C646 C 0.52526 0.61023 -0.19921
 C647 C 0.50352 0.59444 -0.15407
 C648 C 0.48054 0.59809 -0.15458
 H649 H 0.48506 0.66562 -0.41123
 H650 H 0.41432 0.62992 -0.22951
 H651 H 0.40827 0.65241 -0.33110
 H652 H 0.43929 0.60918 -0.17038
 H653 H 0.51247 0.65275 -0.34626
 H654 H 0.53986 0.63792 -0.28437
 H655 H 0.54364 0.60868 -0.19870
 H656 H 0.46394 0.58654 -0.11913
 C657 C 0.35891 -0.20644 -0.35921
 C658 C 0.37145 -0.18837 -0.30247
 C659 C 0.35528 -0.18784 -0.24759
 C660 C 0.32690 -0.20614 -0.24957
 C661 C 0.31440 -0.22261 -0.30854
 C662 C 0.33018 -0.22198 -0.36545
 C663 C 0.36740 -0.16767 -0.19441
 C664 C 0.39503 -0.14674 -0.19840
 C665 C 0.41116 -0.14747 -0.25338
 C666 C 0.39955 -0.16895 -0.30330
 C667 C 0.43824 -0.12574 -0.26008
 C668 C 0.44889 -0.10288 -0.21468
 C669 C 0.43304 -0.10185 -0.16045
 C670 C 0.40638 -0.12412 -0.15099
 H671 H 0.37152 -0.20650 -0.40119
 H672 H 0.31416 -0.20612 -0.20790
 H673 H 0.29225 -0.23421 -0.31122
 H674 H 0.35490 -0.16702 -0.15285
 H675 H 0.41191 -0.16920 -0.34577
 H676 H 0.45088 -0.12599 -0.30173
 H677 H 0.46964 -0.08584 -0.22184
 H678 H 0.39416 -0.12312 -0.10921
 C679 C 0.46335 -0.17954 0.40136
 C680 C 0.46719 -0.16106 0.34821
 C681 C 0.44801 -0.16987 0.29309
 C682 C 0.42550 -0.19728 0.29190
 C683 C 0.42186 -0.21565 0.34542
 C684 C 0.44054 -0.20674 0.40098
 C685 C 0.45163 -0.15107 0.24054
 C686 C 0.47418 -0.12369 0.24265
 C687 C 0.49335 -0.11504 0.29778
 C688 C 0.48977 -0.13381 0.35008
 C689 C 0.51567 -0.08762 0.30013
 C690 C 0.51889 -0.06874 0.24869
 C691 C 0.49999 -0.07703 0.19365
 C692 C 0.47772 -0.10468 0.19088
 H693 H 0.47809 -0.17269 0.44365
 H694 H 0.41062 -0.20440 0.25001
 H695 H 0.40416 -0.23653 0.34434
 H696 H 0.43686 -0.15767 0.19837
 H697 H 0.50441 -0.12714 0.39257
 H698 H 0.53050 -0.08070 0.34214
 H699 H 0.53613 -0.04760 0.25217
 H700 H 0.46273 -0.11131 0.14927
 C701 C 0.36503 0.54720 0.38853
 C702 C 0.37758 0.54104 0.33438
 C703 C 0.36179 0.52504 0.27680
 C704 C 0.33367 0.51583 0.27423
 C705 C 0.32107 0.52100 0.33004
 C706 C 0.33650 0.53611 0.38859
 C707 C 0.37414 0.51761 0.22427
 C708 C 0.40174 0.52490 0.23044
 C709 C 0.41740 0.54080 0.28854
 C710 C 0.40541 0.54937 0.33908
 C711 C 0.44464 0.54726 0.29622
 C712 C 0.45618 0.53759 0.24755
 C713 C 0.44090 0.52197 0.18975
 C714 C 0.41386 0.51605 0.18043
 H715 H 0.37739 0.55960 0.43227
 H716 H 0.32121 0.50354 0.23052
 H717 H 0.29906 0.51204 0.32862
 H718 H 0.36204 0.50526 0.18011
 H719 H 0.41744 0.56147 0.38363
 H720 H 0.45693 0.55950 0.34022
 H721 H 0.47732 0.54286 0.25411
 H722 H 0.40227 0.50426 0.13513
 C723 C 1.16110 0.67518 0.35697
 C724 C 1.14516 0.66253 0.29757
 C725 C 1.15538 0.65244 0.24493
 C726 C 1.18146 0.65549 0.25230
 C727 C 1.19689 0.66744 0.31255
 C728 C 1.18669 0.67697 0.36592
 C729 C 1.13887 0.63828 0.18741
 C730 C 1.11174 0.63264 0.18394
 C731 C 1.10153 0.64286 0.23624
 C732 C 1.11862 0.65851 0.29176
 C733 C 1.07390 0.63567 0.23439
 C734 C 1.05600 0.61646 0.18486
 C735 C 1.06573 0.60502 0.13496
 C736 C 1.09404 0.61484 0.13210
 H737 H 1.15321 0.68289 0.39728
 H738 H 1.18951 0.64773 0.21256
 H739 H 1.21639 0.66832 0.31830
 H740 H 1.14652 0.63007 0.14766
 H741 H 1.11072 0.66605 0.33250
 H742 H 1.06576 0.64342 0.27391
 H743 H 1.03436 0.60947 0.18792
 H744 H 1.10197 0.60636 0.09384
 C745 C 0.50464 0.17871 0.31733
 C746 C 0.50257 0.16326 0.25725
 C747 C 0.52581 0.17169 0.21537
 C748 C 0.55039 0.19624 0.23298
 C749 C 0.55227 0.21148 0.29325
 C750 C 0.52960 0.20241 0.33654
 C751 C 0.52439 0.15474 0.15879
 C752 C 0.50036 0.12900 0.14541
 C753 C 0.47691 0.12129 0.18596
 C754 C 0.47801 0.13871 0.24063
 C755 C 0.45318 0.09540 0.17407
 C756 C 0.45350 0.07607 0.12769
 C757 C 0.47733 0.08247 0.09091
 C758 C 0.49999 0.10985 0.09602
 H759 H 0.48714 0.17165 0.35096
 H760 H 0.56842 0.20307 0.20154
 H761 H 0.57169 0.22963 0.30763
 H762 H 0.54244 0.16076 0.12788
 H763 H 0.46018 0.13233 0.27267
 H764 H 0.43491 0.08934 0.20401
 H765 H 0.43552 0.05543 0.12380
 H766 H 0.51828 0.11535 0.06670
 C767 C 0.67379 0.48801 0.32694
 C768 C 0.66007 0.49077 0.26953
 C769 C 0.64355 0.46723 0.22674
 C770 C 0.64211 0.44161 0.24065
 C771 C 0.65581 0.43905 0.29827
 C772 C 0.67121 0.46206 0.34259
 C773 C 0.62791 0.46943 0.17287
 C774 C 0.62808 0.49469 0.16258
 C775 C 0.64537 0.51837 0.20416
 C776 C 0.66153 0.51638 0.25652
 C777 C 0.64523 0.54339 0.19514
 C778 C 0.62654 0.54440 0.14957
 C779 C 0.60792 0.52059 0.11088
 C780 C 0.61003 0.49626 0.11457
 H781 H 0.68550 0.50575 0.36152
 H782 H 0.62958 0.42333 0.20847
 H783 H 0.65336 0.41883 0.31010
 H784 H 0.61464 0.45118 0.14124
 H785 H 0.67428 0.53444 0.28927
 H786 H 0.65859 0.56181 0.22602
 H787 H 0.62584 0.56359 0.14712
 H788 H 0.59614 0.47783 0.08436
 C789 C 0.84134 0.32662 0.38029
 C790 C 0.85721 0.34298 0.32535
 C791 C 0.84583 0.35355 0.27756
 C792 C 0.81855 0.34711 0.28517
 C793 C 0.80303 0.33121 0.34099
 C794 C 0.81440 0.32124 0.38990
 C795 C 0.86213 0.37094 0.22424
 C796 C 0.88984 0.37844 0.21939
 C797 C 0.90108 0.36770 0.26718
 C798 C 0.88460 0.34971 0.31910
 C799 C 0.92889 0.37582 0.26364
 C800 C 0.94574 0.39524 0.21497
 C801 C 0.93502 0.40649 0.16780
 C802 C 0.90680 0.39734 0.16920
 H803 H 0.85024 0.31862 0.41677
 H804 H 0.80947 0.35504 0.24907
 H805 H 0.78246 0.32760 0.34721
 H806 H 0.85350 0.37929 0.18791
 H807 H 0.89334 0.34169 0.35604
 H808 H 0.93781 0.36775 0.29986
 H809 H 0.96732 0.40180 0.21491
 H810 H 0.89829 0.40585 0.13330
   
