data_POSCAR
  _audit_creation_date              2014-09-24
  _audit_creation_method            'ToBaCCo'
  _symmetry_space_group_name_H-M    'P1'
  _symmetry_Int_Tables_number       1
  _symmetry_cell_setting            triclinic
  loop_
  _symmetry_equiv_pos_as_xyz
 x,y,z
_cell_length_a 43.7847
_cell_length_b 42.0025
_cell_length_c 42.2647
_cell_angle_alpha 87.421100
_cell_angle_beta 89.821900
_cell_angle_gamma 90.127000
loop_
  _atom_site_label
  _atom_site_type_symbol
  _atom_site_fract_x
  _atom_site_fract_y
  _atom_site_fract_z
C1 C 0.17959 0.52127 1.02602
 H2 H 0.17755 0.54090 1.00868
 C3 C 0.15830 0.51772 1.05054
 H4 H 0.14041 0.53528 1.05100
 C5 C 0.20577 0.47489 1.04445
 H6 H 0.22404 0.45798 1.04168
 C7 C 0.18511 0.47044 1.06955
 H8 H 0.18814 0.45009 1.08594
 N9 N 0.20280 0.50017 1.02350
 C10 C 0.27400 0.55061 0.96957
 H11 H 0.27586 0.53540 0.94966
 C12 C 0.29437 0.57587 0.97246
 H13 H 0.31128 0.58040 0.95410
 C14 C 0.24948 0.56278 1.01761
 H15 H 0.23244 0.55710 1.03553
 C16 C 0.26937 0.58839 1.02140
 H17 H 0.26726 0.60250 1.04213
 Zn18 Zn 0.22926 0.50672 0.98838
 N19 N 0.25232 0.54438 0.99209
 C20 C 0.20439 0.53565 0.93196
 N21 N 0.20477 0.50917 0.95166
 C22 C 0.18623 0.48394 0.94669
 C23 C 0.16672 0.48431 0.92067
 C24 C 0.18508 0.53718 0.90569
 C25 C 0.27887 0.47079 1.00977
 C26 C 0.30259 0.44876 1.00848
 C27 C 0.28245 0.43194 0.95875
 C28 C 0.25923 0.45447 0.96095
 N29 N 0.25785 0.47328 0.98625
 H30 H 0.21874 0.55580 0.93679
 H31 H 0.18648 0.46352 0.96324
 H32 H 0.15203 0.46392 0.91822
 H33 H 0.18507 0.55859 0.89039
 H34 H 0.27755 0.48653 1.02930
 H35 H 0.31883 0.44815 1.02762
 H36 H 0.28319 0.41742 0.93820
 H37 H 0.24282 0.45736 0.94204
 C38 C 0.29263 0.59466 0.99909
 C39 C 0.16078 0.49193 1.07312
 C40 C 0.30484 0.42893 0.98248
 C41 C 0.16596 0.51125 0.89948
 C42 C 0.79304 0.51432 -0.04684
 H43 H 0.79696 0.53424 -0.03199
 C44 C 0.81080 0.51089 -0.07396
 H45 H 0.82781 0.52886 -0.08000
 C46 C 0.76537 0.46734 -0.05694
 H47 H 0.74798 0.45013 -0.04998
 C48 C 0.78265 0.46295 -0.08425
 H49 H 0.77819 0.44247 -0.09823
 N50 N 0.77075 0.49281 -0.03894
 C51 C 0.70789 0.54307 0.02136
 H52 H 0.70795 0.52705 0.04214
 C53 C 0.68751 0.56860 0.01948
 H54 H 0.67207 0.57160 0.03909
 C55 C 0.72643 0.55621 -0.03030
 H56 H 0.74080 0.55065 -0.05011
 C57 C 0.70651 0.58212 -0.03315
 H58 H 0.70613 0.59654 -0.05504
 Zn59 Zn 0.74876 0.49853 -0.00093
 N60 N 0.72660 0.53719 -0.00340
 C61 C 0.78181 0.52335 0.05081
 N62 N 0.77747 0.49793 0.03248
 C63 C 0.79490 0.47135 0.03622
 C64 C 0.81744 0.46931 0.05944
 C65 C 0.80438 0.52249 0.07424
 C66 C 0.69656 0.46493 -0.01599
 C67 C 0.67305 0.44258 -0.01249
 C68 C 0.69668 0.42240 0.03592
 C69 C 0.71974 0.44525 0.03145
 N70 N 0.71940 0.46573 0.00562
 H71 H 0.76810 0.54453 0.04699
 H72 H 0.79132 0.45170 0.02095
 H73 H 0.83096 0.44776 0.06184
 H74 H 0.80719 0.54329 0.08805
 H75 H 0.69651 0.48202 -0.03593
 H76 H 0.65535 0.44342 -0.03018
 H77 H 0.69745 0.40635 0.05670
 H78 H 0.73760 0.44681 0.04887
 C79 C 0.68643 0.58841 -0.00826
 C80 C 0.80596 0.48462 -0.09286
 C81 C 0.67284 0.42063 0.01380
 C82 C 0.82271 0.49507 0.07886
 C83 C -0.00099 0.28485 0.45176
 H84 H -0.01743 0.28466 0.47094
 C85 C -0.00240 0.30859 0.42755
 H86 H -0.02037 0.32599 0.42905
 C87 C 0.04303 0.26273 0.42882
 H88 H 0.06126 0.24545 0.42987
 C89 C 0.04254 0.28596 0.40413
 H90 H 0.06034 0.28565 0.38624
 N91 N 0.02150 0.26262 0.45205
 C92 C -0.00890 0.18604 0.51789
 H93 H 0.01135 0.18461 0.53248
 C94 C -0.03339 0.16559 0.52453
 H95 H -0.03176 0.14833 0.54429
 C96 C -0.03536 0.21041 0.47443
 H97 H -0.03590 0.22791 0.45490
 C98 C -0.06048 0.19025 0.48018
 H99 H -0.08018 0.19302 0.46500
 Zn100 Zn 0.02454 0.23439 0.48816
 N101 N -0.01039 0.20812 0.49346
 C102 C 0.00529 0.26021 0.54541
 N103 N 0.02824 0.26012 0.52367
 C104 C 0.05195 0.28095 0.52486
 C105 C 0.05299 0.30324 0.54842
 C106 C 0.00533 0.28210 0.56929
 C107 C 0.05631 0.18630 0.45993
 C108 C 0.07878 0.16337 0.45592
 C109 C 0.10469 0.18207 0.50195
 C110 C 0.08167 0.20487 0.50493
 N111 N 0.05813 0.20653 0.48402
 H112 H -0.01388 0.24422 0.54358
 H113 H 0.06958 0.28089 0.50687
 H114 H 0.07185 0.31999 0.54847
 H115 H -0.01391 0.28164 0.58531
 H116 H 0.03705 0.18779 0.44396
 H117 H 0.07656 0.14747 0.43655
 H118 H 0.12267 0.18132 0.51937
 H119 H 0.08231 0.22074 0.52436
 C120 C -0.05964 0.16743 0.50564
 C121 C 0.01988 0.30974 0.40321
 C122 C 0.10338 0.16066 0.47714
 C123 C 0.02923 0.30453 0.57084
 C124 C 0.96665 0.71164 0.54590
 H125 H 0.94899 0.71222 0.52803
 C126 C 0.96576 0.68847 0.57071
 H127 H 0.94682 0.67193 0.57195
 C128 C 1.01293 0.73247 0.56528
 H129 H 1.03184 0.74890 0.56265
 C130 C 1.01287 0.70987 0.59048
 H131 H 1.03159 0.70954 0.60720
 N132 N 0.99013 0.73287 0.54350
 C133 C 0.96165 0.81070 0.47866
 H134 H 0.98113 0.81051 0.46286
 C135 C 0.93866 0.83315 0.47354
 H136 H 0.94062 0.85029 0.45370
 C137 C 0.93575 0.78852 0.52381
 H138 H 0.93487 0.77110 0.54340
 C139 C 0.91218 0.81079 0.51965
 H140 H 0.89315 0.80971 0.53600
 Zn141 Zn 0.99299 0.76033 0.50680
 N142 N 0.95971 0.78880 0.50324
 C143 C 0.96936 0.73565 0.45118
 N144 N 0.99338 0.73402 0.47144
 C145 C 1.01574 0.71187 0.46944
 C146 C 1.01499 0.68913 0.44641
 C147 C 0.96604 0.71425 0.42727
 C148 C 1.02767 0.80712 0.53276
 C149 C 1.05192 0.82800 0.53687
 C150 C 1.07709 0.80612 0.49178
 C151 C 1.05221 0.78544 0.48865
 N152 N 1.02831 0.78618 0.50921
 H153 H 0.95165 0.75307 0.45422
 H154 H 1.03400 0.71128 0.48664
 H155 H 1.03299 0.67154 0.44593
 H156 H 0.94621 0.71609 0.41205
 H157 H 1.00814 0.80751 0.54848
 H158 H 1.05073 0.84430 0.55599
 H159 H 1.09552 0.80487 0.47487
 H160 H 1.05194 0.76903 0.46967
 C161 C 0.91358 0.83357 0.49418
 C162 C 0.98952 0.68703 0.59309
 C163 C 1.07723 0.82784 0.51637
 C164 C 0.98860 0.68786 0.42285
 C165 C 0.46746 -0.02739 0.29436
 H166 H 0.48228 -0.04799 0.29561
 C167 C 0.44224 -0.02601 0.31458
 H168 H 0.43755 -0.04618 0.33066
 C169 C 0.45582 0.02361 0.27137
 H170 H 0.46154 0.04322 0.25501
 C171 C 0.43041 0.02600 0.29116
 H172 H 0.41659 0.04737 0.28955
 N173 N 0.47380 -0.00277 0.27338
 C174 C 0.53475 -0.04215 0.20356
 H175 H 0.55345 -0.02543 0.20526
 C176 C 0.53605 -0.06579 0.18155
 H177 H 0.55615 -0.06702 0.16661
 C178 C 0.48575 -0.05968 0.22067
 H179 H 0.46595 -0.05669 0.23556
 C180 C 0.48589 -0.08365 0.19871
 H181 H 0.46590 -0.09864 0.19773
 Zn182 Zn 0.51016 -0.00465 0.24923
 N183 N 0.50999 -0.03961 0.22267
 C184 C 0.56205 -0.03344 0.27881
 N185 N 0.54311 -0.00782 0.27794
 C186 C 0.54635 0.01577 0.29863
 C187 C 0.56996 0.01471 0.32076
 C188 C 0.58592 -0.03557 0.30060
 C189 C 0.49279 0.03542 0.19887
 C190 C 0.49429 0.06090 0.17663
 C191 C 0.53983 0.07918 0.20244
 C192 C 0.53748 0.05317 0.22412
 N193 N 0.51402 0.03211 0.22210
 H194 H 0.55854 -0.05247 0.26286
 H195 H 0.53044 0.03546 0.29793
 H196 H 0.57127 0.03385 0.33690
 H197 H 0.60073 -0.05621 0.30077
 H198 H 0.47470 0.01795 0.19752
 H199 H 0.47684 0.06205 0.15869
 H200 H 0.55871 0.09567 0.20455
 H201 H 0.55462 0.04968 0.24225
 C202 C 0.51137 -0.08695 0.17847
 C203 C 0.42365 0.00131 0.31353
 C204 C 0.51811 0.08350 0.17815
 C205 C 0.59045 -0.01121 0.32186
 C206 C 0.54658 -0.00490 0.71389
 H207 H 0.53076 -0.02430 0.71059
 C208 C 0.57159 -0.00054 0.69362
 H209 H 0.57510 -0.01727 0.67524
 C210 C 0.56121 0.03987 0.74253
 H211 H 0.55683 0.05590 0.76127
 C212 C 0.58655 0.04509 0.72281
 H213 H 0.60165 0.06497 0.72675
 N214 N 0.54193 0.01507 0.73786
 C215 C 0.48635 -0.03843 0.80746
 H216 H 0.46736 -0.02221 0.80956
 C217 C 0.48810 -0.06574 0.82745
 H218 H 0.47028 -0.06983 0.84489
 C219 C 0.53358 -0.05077 0.78349
 H220 H 0.55171 -0.04440 0.76701
 C221 C 0.53617 -0.07844 0.80287
 H222 H 0.55619 -0.09332 0.80077
 Zn223 Zn 0.50661 0.00823 0.76318
 N224 N 0.50892 -0.03142 0.78611
 C225 C 0.45406 -0.01614 0.73272
 N226 N 0.47272 0.00950 0.73548
 C227 C 0.46936 0.03619 0.71648
 C228 C 0.44649 0.03788 0.69358
 C229 C 0.43093 -0.01559 0.70993
 C230 C 0.52592 0.03966 0.81578
 C231 C 0.52608 0.06234 0.83883
 C232 C 0.48005 0.08498 0.81592
 C233 C 0.48081 0.06172 0.79326
 N234 N 0.50379 0.04000 0.79333
 H235 H 0.45758 -0.03740 0.74759
 H236 H 0.48490 0.05600 0.71876
 H237 H 0.44457 0.05937 0.67854
 H238 H 0.41707 -0.03672 0.70821
 H239 H 0.54370 0.02183 0.81552
 H240 H 0.54424 0.06170 0.85621
 H241 H 0.46170 0.10209 0.81464
 H242 H 0.46307 0.06118 0.77559
 C243 C 0.51338 -0.08621 0.82534
 C244 C 0.59177 0.02502 0.69775
 C245 C 0.50310 0.08564 0.83916
 C246 C 0.42700 0.01171 0.68965
 C247 C 0.26832 -0.01978 0.50666
 C248 C 0.74709 0.01406 0.50736
 C249 C 0.48433 0.26527 1.00313
 C250 C 0.49213 0.73698 0.01196
 C251 C 0.99548 0.51184 0.25052
 C252 C -0.01338 0.47604 0.74028
 C253 C 0.12479 0.13615 0.47297
 C254 C 0.15035 0.12983 0.49211
 C255 C 0.17057 0.10189 0.48830
 C256 C 0.20017 0.10247 0.50094
 C257 C 0.21949 0.07615 0.49902
 C258 C 0.20944 0.04843 0.48468
 C259 C 0.18006 0.04798 0.47160
 C260 C 0.16069 0.07424 0.47362
 C261 C 0.22870 0.01957 0.48330
 C262 C 0.25089 0.01163 0.50601
 H263 H 0.15659 0.14593 0.51024
 H264 H 0.20840 0.12341 0.51235
 H265 H 0.24230 0.07775 0.50858
 H266 H 0.17175 0.02689 0.46052
 H267 H 0.13779 0.07227 0.46443
 H268 H 0.22362 0.00264 0.46542
 H269 H 0.12108 0.12099 0.45330
 H270 H 0.25484 0.02771 0.52489
 C271 C 0.66324 0.61388 -0.01323
 C272 C 0.64496 0.62530 0.01095
 C273 C 0.61843 0.64675 0.00544
 C274 C 0.60559 0.66155 0.03143
 C275 C 0.57927 0.68012 0.02796
 C276 C 0.56513 0.68443 -0.00180
 C277 C 0.57804 0.66973 -0.02784
 C278 C 0.60433 0.65106 -0.02434
 C279 C 0.53616 0.70234 -0.00637
 C280 C 0.52371 0.72230 0.01589
 H281 H 0.65014 0.61839 0.03529
 H282 H 0.61567 0.65827 0.05473
 H283 H 0.56982 0.69009 0.04895
 H284 H 0.56743 0.67227 -0.05094
 H285 H 0.61279 0.63937 -0.04485
 H286 H 0.52366 0.69940 -0.02816
 H287 H 0.66041 0.62370 -0.03713
 H288 H 0.53616 0.72654 0.03735
 C289 C 0.88978 -0.14196 0.48787
 C290 C 0.86796 -0.13296 0.50991
 C291 C 0.84640 -0.10630 0.50348
 C292 C 0.81899 -0.10549 0.52071
 C293 C 0.79849 -0.08026 0.51584
 C294 C 0.80529 -0.05505 0.49387
 C295 C 0.83257 -0.05597 0.47651
 C296 C 0.85305 -0.08112 0.48140
 C297 C 0.78480 -0.02737 0.48858
 C298 C 0.76426 -0.01725 0.51139
 H299 H 0.86632 -0.14564 0.53268
 H300 H 0.81334 -0.12454 0.53787
 H301 H 0.77732 -0.08082 0.52910
 H302 H 0.83839 -0.03676 0.45957
 H303 H 0.87435 -0.08018 0.46839
 H304 H 0.78782 -0.01263 0.46708
 H305 H 0.89025 -0.12980 0.46476
 H306 H 0.76323 -0.02992 0.53425
 C307 C 0.32864 0.40686 0.97877
 C308 C 0.35272 0.40161 1.00012
 C309 C 0.37777 0.37874 0.99504
 C310 C 0.39433 0.36709 1.02143
 C311 C 0.41812 0.34547 1.01792
 C312 C 0.42587 0.33499 0.98780
 C313 C 0.41010 0.34749 0.96124
 C314 C 0.38622 0.36913 0.96475
 C315 C 0.45055 0.31158 0.98344
 C316 C 0.45847 0.28877 1.00703
 H317 H 0.35313 0.41341 1.02226
 H318 H 0.38875 0.37463 1.04493
 H319 H 0.43061 0.33746 1.03882
 H320 H 0.41609 0.34026 0.93773
 H321 H 0.37489 0.37855 0.94366
 H322 H 0.46190 0.31124 0.96064
 H323 H 0.32808 0.39283 0.95792
 H324 H 0.44579 0.28798 1.02908
 C325 C 0.91487 0.14517 0.51373
 C326 C 0.88983 0.13977 0.49422
 C327 C 0.86617 0.11530 0.50206
 C328 C 0.83768 0.11767 0.48703
 C329 C 0.81528 0.09429 0.49264
 C330 C 0.82096 0.06790 0.51351
 C331 C 0.84947 0.06550 0.52845
 C332 C 0.87186 0.08883 0.52280
 C333 C 0.79903 0.04115 0.51821
 C334 C 0.76825 0.04284 0.50941
 H335 H 0.88712 0.15377 0.47233
 H336 H 0.83286 0.13753 0.47057
 H337 H 0.79406 0.09660 0.47976
 H338 H 0.85470 0.04513 0.54412
 H339 H 0.89383 0.08530 0.53398
 H340 H 0.80793 0.01896 0.52835
 H341 H 0.91641 0.13193 0.53621
 H342 H 0.75854 0.06589 0.50297
 C343 C 0.31486 0.62047 0.00438
 C344 C 0.34473 0.61979 -0.00733
 C345 C 0.36805 0.64448 -0.00168
 C346 C 0.39887 0.63716 -0.00685
 C347 C 0.42168 0.65987 -0.00274
 C348 C 0.41411 0.69056 0.00672
 C349 C 0.38327 0.69800 0.01161
 C350 C 0.36042 0.67525 0.00749
 C351 C 0.43735 0.71589 0.00977
 C352 C 0.46872 0.71013 0.01275
 H353 H 0.35209 0.59921 -0.01983
 H354 H 0.40534 0.61378 -0.01437
 H355 H 0.44499 0.65341 -0.00788
 H356 H 0.37678 0.72163 0.01837
 H357 H 0.33692 0.68222 0.01079
 H358 H 0.42951 0.74037 0.00932
 H359 H 0.30819 0.63887 0.02010
 H360 H 0.47668 0.68580 0.01563
 C361 C 0.10103 -0.15031 0.52136
 C362 C 0.12796 -0.14728 0.50349
 C363 C 0.15166 -0.12294 0.50949
 C364 C 0.18168 -0.12802 0.49916
 C365 C 0.20455 -0.10546 0.50397
 C366 C 0.19775 -0.07707 0.51896
 C367 C 0.16782 -0.07204 0.52946
 C368 C 0.14492 -0.09450 0.52452
 C369 C 0.22115 -0.05228 0.52386
 C370 C 0.24612 -0.04731 0.50357
 H371 H 0.13289 -0.16379 0.48530
 H372 H 0.18752 -0.14965 0.48752
 H373 H 0.22754 -0.11055 0.49627
 H374 H 0.16199 -0.05029 0.54091
 H375 H 0.12194 -0.08902 0.53190
 H376 H 0.21738 -0.03568 0.54237
 H377 H 0.09836 -0.13492 0.54103
 H378 H 0.24865 -0.06240 0.48360
 C379 C 0.64971 0.39756 1.01923
 C380 C 0.62554 0.39214 0.99845
 C381 C 0.60080 0.36859 1.00504
 C382 C 0.58336 0.35859 0.97952
 C383 C 0.55914 0.33727 0.98445
 C384 C 0.55180 0.32532 1.01516
 C385 C 0.56886 0.33571 1.04081
 C386 C 0.59317 0.35710 1.03588
 C387 C 0.52565 0.30343 1.02126
 C388 C 0.51375 0.28408 0.99823
 H389 H 0.62485 0.40446 0.97551
 H390 H 0.58834 0.36750 0.95560
 H391 H 0.54583 0.33099 0.96414
 H392 H 0.56329 0.32734 1.06475
 H393 H 0.60529 0.36504 1.05633
 H394 H 0.51539 0.30235 1.04465
 H395 H 0.65116 0.38262 1.04070
 H396 H 0.52470 0.28392 0.97526
 C397 C 0.52128 0.10986 1.15650
 C398 C 0.50117 0.11712 1.13148
 C399 C 0.50450 0.14500 1.10897
 C400 C 0.47893 0.15447 1.09105
 C401 C 0.48067 0.18016 1.06909
 C402 C 0.50813 0.19722 1.06460
 C403 C 0.53400 0.18735 1.08188
 C404 C 0.53226 0.16152 1.10397
 C405 C 0.51051 0.22419 1.04096
 C406 C 0.48529 0.24295 1.03236
 H407 H 0.48104 0.10279 1.12840
 H408 H 0.45743 0.14183 1.09393
 H409 H 0.46060 0.18602 1.05518
 H410 H 0.55557 0.19969 1.07830
 H411 H 0.55280 0.15434 1.11643
 H412 H 0.53248 0.22923 1.03001
 H413 H 0.54032 0.12580 1.15989
 H414 H 0.46396 0.23842 1.04482
 C415 C -0.00835 0.66181 0.61867
 C416 C -0.02363 0.63258 0.61832
 C417 C -0.01734 0.60582 0.64141
 C418 C -0.03973 0.58225 0.64691
 C419 C -0.03408 0.55591 0.66746
 C420 C -0.00572 0.55255 0.68282
 C421 C 0.01683 0.57582 0.67690
 C422 C 0.01113 0.60223 0.65650
 C423 C 0.00167 0.52446 0.70378
 C424 C -0.02045 0.50637 0.72050
 H425 H -0.04049 0.62856 0.60029
 H426 H -0.06161 0.58412 0.63508
 H427 H -0.05166 0.53790 0.67048
 H428 H 0.03904 0.57348 0.68800
 H429 H 0.02943 0.61917 0.65195
 H430 H 0.02554 0.51834 0.70664
 H431 H 0.00760 0.66579 0.63761
 H432 H -0.04411 0.51328 0.71795
 C433 C 0.51788 0.88554 -0.15279
 C434 C 0.49502 0.87253 -0.13293
 C435 C 0.50014 0.84674 -0.10835
 C436 C 0.47456 0.83248 -0.09345
 C437 C 0.47798 0.80942 -0.06889
 C438 C 0.50727 0.79979 -0.05873
 C439 C 0.53288 0.81404 -0.07359
 C440 C 0.52945 0.83728 -0.09808
 C441 C 0.51202 0.77668 -0.03160
 C442 C 0.48922 0.75624 -0.01930
 H443 H 0.47193 0.88130 -0.13548
 H444 H 0.45171 0.83963 -0.10048
 H445 H 0.45752 0.80011 -0.05749
 H446 H 0.55570 0.80748 -0.06592
 H447 H 0.54987 0.84816 -0.10811
 H448 H 0.53441 0.77587 -0.02080
 H449 H 0.54020 0.87461 -0.15270
 H450 H 0.46751 0.75569 -0.03133
 C451 C 1.02120 0.33295 0.37987
 C452 C 1.00032 0.35808 0.37556
 C453 C 1.00461 0.38478 0.35174
 C454 C 0.97899 0.40248 0.34173
 C455 C 0.98211 0.42879 0.32052
 C456 C 1.01107 0.43806 0.30882
 C457 C 1.03676 0.42063 0.31913
 C458 C 1.03364 0.39424 0.34032
 C459 C 1.01541 0.46672 0.28747
 C460 C 0.99217 0.47985 0.26847
 H461 H 0.97943 0.35837 0.38916
 H462 H 0.95645 0.39612 0.35061
 H463 H 0.96184 0.44224 0.31421
 H464 H 1.05938 0.42763 0.31095
 H465 H 1.05409 0.38201 0.34834
 H466 H 1.03768 0.47804 0.28665
 H467 H 1.03989 0.33216 0.36305
 H468 H 0.97027 0.46790 0.26796
 C469 C 0.51312 0.89131 0.15585
 C470 C 0.49069 0.86872 0.14909
 C471 C 0.49386 0.84735 0.12229
 C472 C 0.47909 0.81763 0.12379
 C473 C 0.48219 0.79674 0.09910
 C474 C 0.49989 0.80545 0.07224
 C475 C 0.51417 0.83538 0.07053
 C476 C 0.51097 0.85626 0.09507
 C477 C 0.50511 0.78378 0.04614
 C478 C 0.48581 0.75848 0.03926
 H479 H 0.47086 0.86518 0.16409
 H480 H 0.46563 0.81030 0.14440
 H481 H 0.47135 0.77360 0.10161
 H482 H 0.52775 0.84273 0.04999
 H483 H 0.52168 0.87946 0.09237
 H484 H 0.52493 0.78838 0.03128
 H485 H 0.53375 0.89120 0.14163
 H486 H 0.46519 0.75472 0.05312
 C487 C 0.02967 0.32896 0.59267
 C488 C 0.00738 0.33348 0.61598
 C489 C 0.00657 0.36174 0.63579
 C490 C -0.00966 0.35986 0.66453
 C491 C -0.01157 0.38621 0.68355
 C492 C 0.00250 0.41522 0.67394
 C493 C 0.01849 0.41715 0.64508
 C494 C 0.02038 0.39084 0.62609
 C495 C 0.00234 0.44352 0.69365
 C496 C -0.01688 0.44757 0.71970
 H497 H -0.01004 0.31569 0.62081
 H498 H -0.02068 0.33779 0.67246
 H499 H -0.02358 0.38341 0.70587
 H500 H 0.02949 0.43921 0.63708
 H501 H 0.03218 0.39371 0.60363
 H502 H 0.01871 0.46220 0.68759
 H503 H 0.04853 0.34568 0.59101
 H504 H -0.03448 0.43014 0.72553
 C505 C 0.50465 0.10862 0.86233
 C506 C 0.48339 0.13296 0.86653
 C507 C 0.48766 0.15707 0.89066
 C508 C 0.46199 0.17119 0.90413
 C509 C 0.46540 0.19341 0.92759
 C510 C 0.49472 0.20223 0.93767
 C511 C 0.52034 0.18860 0.92363
 C512 C 0.51692 0.16647 0.90025
 C513 C 0.49987 0.22437 0.96342
 C514 C 0.47794 0.24514 0.97490
 H515 H 0.46230 0.13382 0.85334
 H516 H 0.43921 0.16448 0.89698
 H517 H 0.44502 0.20287 0.93813
 H518 H 0.54317 0.19511 0.93078
 H519 H 0.53729 0.15705 0.88958
 H520 H 0.52250 0.22471 0.97366
 H521 H 0.52378 0.10707 0.87853
 H522 H 0.45533 0.24580 0.96467
 C523 C 0.98313 0.66246 0.39661
 C524 C 1.00278 0.63744 0.39091
 C525 C 0.99584 0.61395 0.36684
 C526 C 1.01848 0.59228 0.35851
 C527 C 1.01275 0.57003 0.33563
 C528 C 0.98413 0.56894 0.32069
 C529 C 0.96116 0.58993 0.32967
 C530 C 0.96698 0.61245 0.35233
 C531 C 0.97775 0.54597 0.29599
 C532 C 1.00024 0.53710 0.27463
 H533 H 1.02391 0.63508 0.40412
 H534 H 1.04074 0.59267 0.36961
 H535 H 1.03064 0.55345 0.33000
 H536 H 0.93884 0.58928 0.31872
 H537 H 0.94886 0.62855 0.35850
 H538 H 0.95467 0.53712 0.29347
 H539 H 0.98772 0.67440 0.41059
 H540 H 1.02288 0.54725 0.27680
 C541 C 1.14110 0.48685 0.09771
 C542 C 1.11598 0.50622 0.10437
 C543 C 1.09506 0.50054 0.13174
 C544 C 1.07662 0.52588 0.14076
 C545 C 1.05621 0.52202 0.16603
 C546 C 1.05381 0.49262 0.18314
 C547 C 1.07159 0.46694 0.17370
 C548 C 1.09210 0.47080 0.14828
 C549 C 1.03195 0.48796 0.20979
 C550 C 1.02266 0.51316 0.22806
 H551 H 1.11152 0.52757 0.09004
 H552 H 1.07793 0.54886 0.12811
 H553 H 1.04190 0.54199 0.17152
 H554 H 1.06963 0.44387 0.18606
 H555 H 1.10500 0.45029 0.14147
 H556 H 1.02297 0.46427 0.21504
 H557 H 1.14533 0.46655 0.11378
 H558 H 1.03308 0.53630 0.22333
 C559 C 0.61845 0.03112 0.67671
 C560 C 0.61928 0.02148 0.64552
 C561 C 0.64556 0.02662 0.62371
 C562 C 0.64090 0.02238 0.59135
 C563 C 0.66512 0.02524 0.56991
 C564 C 0.69475 0.03207 0.58043
 C565 C 0.69937 0.03728 0.61260
 C566 C 0.67508 0.03431 0.63417
 C567 C 0.72094 0.03352 0.55822
 C568 C 0.72203 0.01409 0.53225
 H569 H 0.59909 0.01060 0.63595
 H570 H 0.61841 0.01666 0.58259
 H571 H 0.66054 0.02216 0.54508
 H572 H 0.72199 0.04272 0.62119
 H573 H 0.67983 0.03724 0.65895
 H574 H 0.74016 0.04863 0.56348
 H575 H 0.63693 0.04531 0.68555
 H576 H 0.70407 -0.00346 0.53011
 C577 C -0.17549 0.47921 0.87844
 C578 C -0.14615 0.49182 0.87391
 C579 C -0.12654 0.48635 0.84599
 C580 C -0.09547 0.49422 0.84781
 C581 C -0.07598 0.49032 0.82212
 C582 C -0.08707 0.47819 0.79384
 C583 C -0.11825 0.47076 0.79174
 C584 C -0.13784 0.47473 0.81754
 C585 C -0.06702 0.47506 0.76580
 C586 C -0.03525 0.47288 0.76831
 H587 H -0.13611 0.50513 0.89259
 H588 H -0.08621 0.50372 0.86919
 H589 H -0.05244 0.49769 0.82436
 H590 H -0.12749 0.46201 0.77002
 H591 H -0.16178 0.46924 0.81473
 H592 H -0.07741 0.47524 0.74256
 H593 H -0.18458 0.46307 0.86159
 H594 H -0.02564 0.46852 0.79170
 C595 C 0.39738 0.00508 0.33528
 C596 C 0.39481 -0.01153 0.36461
 C597 C 0.36983 -0.00709 0.38788
 C598 C 0.37227 -0.02274 0.41783
 C599 C 0.34952 -0.01963 0.44070
 C600 C 0.32359 -0.00087 0.43407
 C601 C 0.32123 0.01522 0.40439
 C602 C 0.34393 0.01196 0.38137
 C603 C 0.29911 0.00271 0.45788
 C604 C 0.29188 -0.02168 0.48029
 H605 H 0.41285 -0.02779 0.37185
 H606 H 0.39198 -0.03736 0.42368
 H607 H 0.35262 -0.03152 0.46370
 H608 H 0.30152 0.02995 0.39884
 H609 H 0.34072 0.02427 0.35865
 H610 H 0.28608 0.02457 0.45682
 H611 H 0.38090 0.02325 0.32865
 H612 H 0.30415 -0.04400 0.47940
 C613 C 0.14622 0.51376 0.87324
 C614 C 0.12824 0.48874 0.86272
 C615 C 0.10473 0.49275 0.83775
 C616 C 0.09418 0.46558 0.82302
 C617 C 0.07015 0.46766 0.80139
 C618 C 0.05609 0.49715 0.79397
 C619 C 0.06687 0.52441 0.80843
 C620 C 0.09093 0.52231 0.83010
 C621 C 0.02853 0.49988 0.77380
 C622 C 0.01880 0.47622 0.75384
 H623 H 0.13167 0.46477 0.87235
 H624 H 0.10411 0.44245 0.82882
 H625 H 0.06206 0.44584 0.79172
 H626 H 0.05613 0.54731 0.80352
 H627 H 0.09772 0.54367 0.84163
 H628 H 0.01419 0.52067 0.77600
 H629 H 0.14528 0.53644 0.86005
 H630 H 0.03341 0.45598 0.75011
 C631 C 0.61465 -0.01423 0.34365
 C632 C 0.62333 0.00920 0.36441
 C633 C 0.64737 0.00435 0.38871
 C634 C 0.66110 0.03121 0.40122
 C635 C 0.68257 0.02787 0.42549
 C636 C 0.69081 -0.00258 0.43782
 C637 C 0.67706 -0.02946 0.42534
 C638 C 0.65556 -0.02611 0.40104
 C639 C 0.71153 -0.00708 0.46526
 C640 C 0.73150 0.01645 0.47527
 H641 H 0.61326 0.03264 0.36243
 H642 H 0.65484 0.05495 0.39251
 H643 H 0.69169 0.04930 0.43513
 H644 H 0.68257 -0.05314 0.43482
 H645 H 0.64476 -0.04739 0.39285
 H646 H 0.71025 -0.02949 0.47895
 H647 H 0.62788 -0.03599 0.34382
 H648 H 0.73443 0.03807 0.46065
 C649 C 0.84635 0.49223 0.10137
 C650 C 0.85537 0.51576 0.12199
 C651 C 0.88171 0.51151 0.14386
 C652 C 0.88324 0.52957 0.17101
 C653 C 0.90758 0.52574 0.19230
 C654 C 0.93099 0.50382 0.18663
 C655 C 0.92971 0.48623 0.15925
 C656 C 0.90562 0.49022 0.13792
 C657 C 0.95653 0.49760 0.20888
 C658 C 0.96709 0.51904 0.23081
 H659 H 0.84255 0.53759 0.12329
 H660 H 0.86528 0.54632 0.17604
 H661 H 0.90757 0.53936 0.21342
 H662 H 0.94761 0.46940 0.15419
 H663 H 0.90618 0.47683 0.11669
 H664 H 0.96866 0.47534 0.20692
 H665 H 0.85846 0.46979 0.10283
 H666 H 0.95679 0.54241 0.23150
 C667 C 0.40544 0.01374 0.66496
 C668 C 0.38481 -0.01031 0.65734
 C669 C 0.36510 -0.00786 0.62883
 C670 C 0.33806 -0.02586 0.62815
 C671 C 0.31922 -0.02441 0.60139
 C672 C 0.32736 -0.00513 0.57458
 C673 C 0.35448 0.01266 0.57524
 C674 C 0.37328 0.01115 0.60187
 C675 C 0.30828 -0.00226 0.54571
 C676 C 0.28543 -0.02384 0.53779
 H677 H 0.38213 -0.03138 0.67270
 H678 H 0.33132 -0.04085 0.64852
 H679 H 0.29824 -0.03803 0.60212
 H680 H 0.36139 0.02755 0.55485
 H681 H 0.39446 0.02446 0.60086
 H682 H 0.31332 0.01728 0.52886
 H683 H 0.40497 0.03571 0.65055
 H684 H 0.28086 -0.04459 0.55320
   
