data_POSCAR
  _audit_creation_date              2014-09-24
  _audit_creation_method            'ToBaCCo'
  _symmetry_space_group_name_H-M    'P1'
  _symmetry_Int_Tables_number       1
  _symmetry_cell_setting            triclinic
  loop_
  _symmetry_equiv_pos_as_xyz
 x,y,z
_cell_length_a 50.7200
_cell_length_b 51.0219
_cell_length_c 29.2440
_cell_angle_alpha 89.966700
_cell_angle_beta 90.045600
_cell_angle_gamma 119.952300
loop_
  _atom_site_label
  _atom_site_type_symbol
  _atom_site_fract_x
  _atom_site_fract_y
  _atom_site_fract_z
C1 C 0.44641 0.90806 0.47509
 C2 C 0.44505 0.90793 0.52189
 C3 C 0.46864 0.93566 0.53657
 N4 N 0.48406 0.95288 0.50023
 C5 C 0.47047 0.93601 0.46267
 C6 C 0.47632 0.94447 0.58282
 C7 C 0.49632 0.97508 0.59516
 C8 C 0.51249 0.98424 0.63588
 C9 C 0.52798 1.01526 0.63590
 C10 C 0.52096 1.02438 0.59519
 N11 N 0.50193 0.99972 0.57015
 C12 C 0.53153 1.05496 0.58288
 C13 C 0.53263 1.06379 0.53665
 C14 C 0.53671 1.09146 0.52202
 C15 C 0.53792 1.09137 0.47521
 C16 C 0.53410 1.06351 0.46274
 N17 N 0.53087 1.04665 0.50027
 C18 C 0.53504 1.05458 0.41742
 C19 C 0.52567 1.02442 0.40525
 C20 C 0.53150 1.01544 0.36351
 C21 C 0.51598 0.98433 0.36350
 C22 C 0.50115 0.97523 0.40523
 N23 N 0.50727 0.99979 0.43054
 C24 C 0.48040 0.94501 0.41736
 H25 H 0.43126 0.88979 0.45274
 H26 H 0.42841 0.88954 0.54266
 H27 H 0.49638 0.99973 0.46068
 H28 H 0.51327 0.97003 0.66272
 H29 H 0.54298 1.02950 0.66276
 H30 H 0.53841 1.10978 0.54283
 H31 H 0.54099 1.10961 0.45290
 H32 H 0.51522 0.97005 0.33559
 H33 H 0.49098 0.99969 0.53999
 H34 H 0.54502 1.02981 0.33561
 C35 C 0.09212 0.53825 0.47576
 C36 C 0.09239 0.53803 0.52261
 C37 C 0.06440 0.53375 0.53685
 N38 N 0.04692 0.53094 0.50016
 C39 C 0.06386 0.53369 0.46288
 C40 C 0.05549 0.53303 0.58300
 C41 C 0.02466 0.52231 0.59514
 C42 C 0.01503 0.52814 0.63641
 C43 C -0.01622 0.51242 0.63587
 C44 C -0.02487 0.49778 0.59407
 N45 N 0.00010 0.50397 0.56930
 C46 C -0.05520 0.47742 0.58130
 C47 C -0.06420 0.46865 0.53570
 C48 C -0.09227 0.44500 0.52255
 C49 C -0.09251 0.44495 0.47569
 C50 C -0.06475 0.46900 0.46174
 N51 N -0.04739 0.48334 0.49862
 C52 C -0.05593 0.47788 0.41574
 C53 C -0.02522 0.49855 0.40397
 C54 C -0.01584 0.51487 0.36341
 C55 C 0.01540 0.53065 0.36394
 C56 C 0.02430 0.52395 0.40505
 N57 N -0.00052 0.50454 0.42944
 C58 C 0.05475 0.53388 0.41741
 H59 H 0.11053 0.54121 0.45369
 H60 H 0.11102 0.54044 0.54370
 H61 H -0.00044 0.49336 0.45918
 H62 H 0.02905 0.54222 0.66419
 H63 H -0.03091 0.51174 0.66323
 H64 H -0.11056 0.42927 0.54445
 H65 H -0.11098 0.42885 0.45442
 H66 H 0.02994 0.54531 0.33704
 H67 H 0.00026 0.49349 0.53887
 H68 H -0.03003 0.51531 0.33611
 C69 C 0.43945 0.53217 0.47513
 C70 C 0.43919 0.53222 0.52197
 C71 C 0.46206 0.52663 0.53623
 N72 N 0.47588 0.52264 0.49951
 C73 C 0.46198 0.52592 0.46222
 C74 C 0.47023 0.52578 0.58242
 C75 C 0.48970 0.51436 0.59492
 C76 C 0.50509 0.52014 0.63622
 C77 C 0.51957 0.50352 0.63658
 C78 C 0.51342 0.48848 0.59493
 N79 N 0.49508 0.49521 0.56979
 C80 C 0.52217 0.46689 0.58300
 C81 C 0.52114 0.45684 0.53752
 C82 C 0.52868 0.43530 0.52403
 C83 C 0.52854 0.43507 0.47713
 C84 C 0.52106 0.45652 0.46341
 N85 N 0.51676 0.46990 0.50028
 C86 C 0.52093 0.46524 0.41764
 C87 C 0.51132 0.48576 0.40420
 C88 C 0.51579 0.49866 0.36107
 C89 C 0.50157 0.51559 0.36082
 C90 C 0.48877 0.51254 0.40375
 N91 N 0.49470 0.49424 0.42991
 C92 C 0.47014 0.52459 0.41654
 H93 H 0.42446 0.53586 0.45308
 H94 H 0.42365 0.53566 0.54301
 H95 H 0.48490 0.48528 0.46142
 H96 H 0.50559 0.53459 0.66368
 H97 H 0.53267 0.50244 0.66493
 H98 H 0.53476 0.42186 0.54549
 H99 H 0.53413 0.42127 0.45563
 H100 H 0.50039 0.52834 0.33206
 H101 H 0.48382 0.48452 0.53982
 H102 H 0.52771 0.49586 0.33250
 O103 O 0.37767 0.66768 -0.05394
 O104 O 0.38036 0.71930 -0.04016
 C105 C 0.36166 0.72421 -0.06229
 O106 O 0.33350 0.71108 -0.05317
 O107 O 0.28175 0.66182 -0.03936
 C108 C 0.27688 0.63844 -0.06178
 O109 O 0.29022 0.62362 -0.05305
 O110 O 0.33980 0.62112 -0.03915
 C111 C 0.36296 0.63957 -0.06225
 O112 O 0.37921 0.65947 0.03722
 O113 O 0.37924 0.70989 0.05103
 C114 C 0.36543 0.72422 0.06000
 O115 O 0.34226 0.72044 0.03763
 O116 O 0.29167 0.66996 0.05186
 C117 C 0.27715 0.64188 0.06047
 O118 O 0.28084 0.62272 0.03769
 O119 O 0.33174 0.62292 0.05169
 C120 C 0.36002 0.63667 0.06014
 Cr121 Cr 0.37744 0.68828 -0.00144
 Cr122 Cr 0.31308 0.68993 -0.00076
 Cr123 Cr 0.31154 0.62429 -0.00073
 O124 O 0.33402 0.66752 -0.00104
 O125 O 0.61864 0.33719 -0.03960
 O126 O 0.62159 0.28824 -0.05354
 C127 C 0.63669 0.27522 -0.06240
 O128 O 0.66032 0.28028 -0.04008
 O129 O 0.70937 0.33213 -0.05387
 C130 C 0.72252 0.36020 -0.06242
 O131 O 0.71752 0.37852 -0.03963
 O132 O 0.66534 0.37553 -0.05325
 C133 C 0.63713 0.36059 -0.06211
 O134 O 0.62032 0.32895 0.05146
 O135 O 0.62086 0.27878 0.03724
 C136 C 0.64035 0.27529 0.05984
 O137 O 0.66858 0.28991 0.05107
 O138 O 0.71911 0.34057 0.03691
 C139 C 0.72253 0.36320 0.05992
 O140 O 0.70771 0.37660 0.05158
 O141 O 0.65687 0.37631 0.03773
 C142 C 0.63395 0.35699 0.06037
 Cr143 Cr 0.62205 0.30919 -0.00111
 Cr144 Cr 0.68843 0.31149 -0.00147
 Cr145 Cr 0.68607 0.37507 -0.00091
 O146 O 0.66551 0.33191 -0.00126
 C147 C 0.44168 0.87799 -0.31217
 C148 C 0.44050 0.90479 -0.30779
 C149 C 0.45210 0.92672 -0.34217
 C150 C 0.46460 0.92214 -0.38232
 C151 C 0.46557 0.89512 -0.38664
 C152 C 0.45447 0.87345 -0.35184
 C153 C 0.42968 0.85493 -0.27549
 N154 N 0.43897 0.83425 -0.27172
 N155 N 0.42831 0.81363 -0.23849
 C156 C 0.40772 0.81271 -0.20790
 N157 N 0.39833 0.83331 -0.21180
 N158 N 0.40917 0.85407 -0.24481
 C159 C 0.39582 0.78982 -0.17098
 C160 C 0.36824 0.78224 -0.14919
 C161 C 0.35697 0.76067 -0.11428
 C162 C 0.37333 0.74661 -0.09984
 C163 C 0.40099 0.75427 -0.12148
 C164 C 0.41199 0.77546 -0.15698
 H165 H 0.43087 0.90898 -0.27752
 H166 H 0.45065 0.94706 -0.33783
 H167 H 0.47571 0.89110 -0.41646
 H168 H 0.45572 0.85302 -0.35617
 H169 H 0.35520 0.79281 -0.15938
 H170 H 0.33563 0.75528 -0.09814
 H171 H 0.41400 0.74368 -0.11122
 H172 H 0.43336 0.78091 -0.17303
 C173 C 0.12226 0.56494 -0.31187
 C174 C 0.09546 0.53684 -0.30774
 C175 C 0.07342 0.52648 -0.34216
 C176 C 0.07788 0.54369 -0.38206
 C177 C 0.10492 0.57177 -0.38618
 C178 C 0.12670 0.58236 -0.35134
 C179 C 0.14542 0.57598 -0.27513
 N180 N 0.16603 0.60591 -0.27098
 N181 N 0.18673 0.61583 -0.23767
 C182 C 0.18781 0.59620 -0.20738
 N183 N 0.16728 0.56626 -0.21166
 N184 N 0.14644 0.55637 -0.24474
 C185 C 0.21079 0.60714 -0.17040
 C186 C 0.21861 0.58730 -0.14898
 C187 C 0.24031 0.59756 -0.11406
 C188 C 0.25427 0.62776 -0.09924
 C189 C 0.24634 0.64759 -0.12047
 C190 C 0.22502 0.63744 -0.15597
 H191 H 0.09135 0.52294 -0.27766
 H192 H 0.05310 0.50460 -0.33805
 H193 H 0.10887 0.58593 -0.41593
 H194 H 0.14715 0.60411 -0.35548
 H195 H 0.20814 0.56386 -0.15949
 H196 H 0.24589 0.58174 -0.09825
 H197 H 0.25683 0.67102 -0.10990
 H198 H 0.21938 0.65324 -0.17173
 C199 C 0.43724 0.55970 -0.31279
 C200 C 0.43514 0.53129 -0.30832
 C201 C 0.44609 0.52024 -0.34269
 C202 C 0.45914 0.53713 -0.38276
 C203 C 0.46115 0.56557 -0.38714
 C204 C 0.45045 0.57674 -0.35254
 C205 C 0.42584 0.57149 -0.27610
 N206 N 0.43247 0.60079 -0.27626
 N207 N 0.42239 0.61142 -0.24309
 C208 C 0.40515 0.59317 -0.20843
 N209 N 0.39844 0.56385 -0.20836
 N210 N 0.40861 0.55326 -0.24143
 C211 C 0.39409 0.60502 -0.17136
 C212 C 0.37212 0.58521 -0.14006
 C213 C 0.36184 0.59639 -0.10490
 C214 C 0.37349 0.62767 -0.09995
 C215 C 0.39544 0.64749 -0.13127
 C216 C 0.40551 0.63629 -0.16668
 H217 H 0.42513 0.51758 -0.27813
 H218 H 0.44377 0.49809 -0.33835
 H219 H 0.47169 0.57955 -0.41695
 H220 H 0.45250 0.59875 -0.35703
 H221 H 0.36276 0.56099 -0.14277
 H222 H 0.34494 0.58051 -0.08134
 H223 H 0.40479 0.67171 -0.12854
 H224 H 0.42248 0.65219 -0.19013
 C225 C 0.56330 0.12135 -0.31202
 C226 C 0.53528 0.09445 -0.30766
 C227 C 0.52497 0.07255 -0.34207
 C228 C 0.54212 0.07726 -0.38222
 C229 C 0.57014 0.10438 -0.38651
 C230 C 0.58069 0.12602 -0.35168
 C231 C 0.57431 0.14437 -0.27532
 N232 N 0.60436 0.16515 -0.27144
 N233 N 0.61426 0.18575 -0.23820
 C234 C 0.59450 0.18657 -0.20772
 N235 N 0.56444 0.16588 -0.21173
 N236 N 0.55457 0.14513 -0.24473
 C237 C 0.60543 0.20946 -0.17083
 C238 C 0.58534 0.21698 -0.14930
 C239 C 0.59559 0.23860 -0.11447
 C240 C 0.62604 0.25275 -0.09984
 C241 C 0.64611 0.24513 -0.12120
 C242 C 0.63597 0.22390 -0.15663
 H243 H 0.52142 0.09016 -0.27740
 H244 H 0.50316 0.05214 -0.33776
 H245 H 0.58435 0.10850 -0.41634
 H246 H 0.60240 0.14653 -0.35599
 H247 H 0.56170 0.20635 -0.15965
 H248 H 0.57957 0.24394 -0.09855
 H249 H 0.66974 0.25578 -0.11078
 H250 H 0.65196 0.21849 -0.17248
 C251 C 0.87694 0.44175 -0.31287
 C252 C 0.89894 0.43272 -0.31615
 C253 C 0.92102 0.44441 -0.35048
 C254 C 0.92128 0.46503 -0.38240
 C255 C 0.89931 0.47397 -0.37954
 C256 C 0.87741 0.46256 -0.34490
 C257 C 0.85373 0.42956 -0.27618
 N258 N 0.83700 0.44288 -0.26606
 N259 N 0.81629 0.43202 -0.23281
 C260 C 0.81133 0.40729 -0.20845
 N261 N 0.82799 0.39392 -0.21869
 N262 N 0.84880 0.40487 -0.25176
 C263 C 0.78837 0.39519 -0.17140
 C264 C 0.77836 0.36615 -0.15351
 C265 C 0.75681 0.35472 -0.11844
 C266 C 0.74504 0.37222 -0.10004
 C267 C 0.75507 0.40128 -0.11787
 C268 C 0.77637 0.41257 -0.15335
 H269 H 0.89929 0.41684 -0.29193
 H270 H 0.93789 0.43734 -0.35229
 H271 H 0.89930 0.48993 -0.40398
 H272 H 0.86073 0.46988 -0.34343
 H273 H 0.78706 0.35213 -0.16677
 H274 H 0.74960 0.33227 -0.10542
 H275 H 0.74633 0.41526 -0.10457
 H276 H 0.78366 0.43506 -0.16631
 C277 C 0.55690 0.43416 -0.31378
 C278 C 0.57379 0.46431 -0.32886
 C279 C 0.56236 0.47513 -0.36293
 C280 C 0.53377 0.45604 -0.38266
 C281 C 0.51706 0.42578 -0.36821
 C282 C 0.52843 0.41500 -0.33396
 C283 C 0.56885 0.42288 -0.27706
 N284 N 0.55138 0.39486 -0.25889
 N285 N 0.56205 0.38489 -0.22556
 C286 C 0.59068 0.40249 -0.20903
 N287 N 0.60817 0.43047 -0.22730
 N288 N 0.59748 0.44045 -0.26054
 C289 C 0.60255 0.39155 -0.17170
 C290 C 0.63309 0.40868 -0.15778
 C291 C 0.64430 0.39856 -0.12241
 C292 C 0.62521 0.37112 -0.09989
 C293 C 0.59467 0.35395 -0.11384
 C294 C 0.58350 0.36401 -0.14941
 H295 H 0.59583 0.47967 -0.31421
 H296 H 0.57589 0.49841 -0.37411
 H297 H 0.49502 0.41062 -0.38312
 H298 H 0.51488 0.39163 -0.32334
 H299 H 0.64844 0.42996 -0.17423
 H300 H 0.66794 0.41237 -0.11257
 H301 H 0.57937 0.33267 -0.09734
 H302 H 0.55985 0.35025 -0.15921
 C303 C 0.87736 0.44328 0.31032
 C304 C 0.87215 0.45481 0.35080
 C305 C 0.89397 0.46607 0.38557
 C306 C 0.92174 0.46633 0.38065
 C307 C 0.92696 0.45501 0.33980
 C308 C 0.90500 0.44347 0.30526
 C309 C 0.85415 0.43114 0.27354
 N310 N 0.85653 0.41507 0.23836
 N311 N 0.83570 0.40417 0.20528
 C312 C 0.81166 0.40897 0.20585
 N313 N 0.80930 0.42508 0.24099
 N314 N 0.83007 0.43588 0.27419
 C315 C 0.78864 0.39704 0.16881
 C316 C 0.76730 0.40681 0.16436
 C317 C 0.74588 0.39588 0.12901
 C318 C 0.74512 0.37469 0.09754
 C319 C 0.76627 0.36469 0.10226
 C320 C 0.78787 0.37585 0.13734
 H321 H 0.85113 0.45508 0.35575
 H322 H 0.88941 0.47528 0.41596
 H323 H 0.94783 0.45441 0.33499
 H324 H 0.90978 0.43480 0.27449
 H325 H 0.76729 0.42316 0.18796
 H326 H 0.72983 0.40396 0.12645
 H327 H 0.76633 0.34841 0.07857
 H328 H 0.80390 0.36775 0.13987
 C329 C 0.56700 0.12181 0.31096
 C330 C 0.53657 0.09813 0.31166
 C331 C 0.52627 0.07631 0.34620
 C332 C 0.54613 0.07781 0.38079
 C333 C 0.57646 0.10138 0.38039
 C334 C 0.58685 0.12316 0.34573
 C335 C 0.57793 0.14486 0.27413
 N336 N 0.60793 0.16580 0.27028
 N337 N 0.61772 0.18638 0.23701
 C338 C 0.59794 0.18697 0.20624
 N339 N 0.56795 0.16607 0.21017
 N340 N 0.55816 0.14545 0.24336
 C341 C 0.60883 0.20977 0.16906
 C342 C 0.58800 0.21233 0.14030
 C343 C 0.59822 0.23368 0.10506
 C344 C 0.62953 0.25288 0.09754
 C345 C 0.65037 0.25035 0.12634
 C346 C 0.64014 0.22911 0.16175
 H347 H 0.52068 0.09635 0.28542
 H348 H 0.50277 0.05825 0.34610
 H349 H 0.59208 0.10280 0.40686
 H350 H 0.61039 0.14108 0.34629
 H351 H 0.56372 0.19787 0.14500
 H352 H 0.58153 0.23500 0.08354
 H353 H 0.67464 0.26484 0.12161
 H354 H 0.65682 0.22774 0.18320
 C355 C 0.55544 0.43131 0.31296
 C356 C 0.52445 0.41533 0.32509
 C357 C 0.51325 0.42633 0.35922
 C358 C 0.53286 0.45334 0.38195
 C359 C 0.56377 0.46924 0.37041
 C360 C 0.57498 0.45839 0.33609
 C361 C 0.56726 0.42000 0.27615
 N362 N 0.59604 0.43733 0.26005
 N363 N 0.60657 0.42734 0.22663
 C364 C 0.58882 0.39956 0.20793
 N365 N 0.56008 0.38218 0.22413
 N366 N 0.54951 0.39221 0.25747
 C367 C 0.60048 0.38856 0.17046
 C368 C 0.58367 0.35847 0.15515
 C369 C 0.59460 0.34818 0.11963
 C370 C 0.62249 0.36778 0.09835
 C371 C 0.63931 0.39786 0.11370
 C372 C 0.62849 0.40809 0.14942
 H373 H 0.50877 0.39446 0.30794
 H374 H 0.48930 0.41387 0.36788
 H375 H 0.57913 0.49015 0.38779
 H376 H 0.59896 0.47122 0.32775
 H377 H 0.56205 0.34279 0.17066
 H378 H 0.58105 0.32488 0.10864
 H379 H 0.66095 0.41352 0.09820
 H380 H 0.64202 0.43140 0.16030
 C381 C 0.12247 0.56674 0.31108
 C382 C 0.12365 0.58619 0.34613
 C383 C 0.10172 0.57552 0.38074
 C384 C 0.07818 0.54528 0.38085
 C385 C 0.07683 0.52583 0.34593
 C386 C 0.09880 0.53641 0.31144
 C387 C 0.14571 0.57796 0.27433
 N388 N 0.14650 0.55856 0.24331
 N389 N 0.16730 0.56860 0.21021
 C390 C 0.18817 0.59848 0.20662
 N391 N 0.18738 0.61790 0.23763
 N392 N 0.16662 0.60784 0.27081
 C393 C 0.21117 0.60964 0.16953
 C394 C 0.23045 0.64083 0.16251
 C395 C 0.25186 0.65130 0.12717
 C396 C 0.25461 0.63083 0.09816
 C397 C 0.23548 0.59964 0.10540
 C398 C 0.21397 0.58918 0.14057
 H399 H 0.14156 0.60964 0.34695
 H400 H 0.10301 0.59084 0.40741
 H401 H 0.05878 0.50242 0.34555
 H402 H 0.09714 0.52083 0.28496
 H403 H 0.22890 0.65723 0.18414
 H404 H 0.26629 0.67547 0.12264
 H405 H 0.23697 0.58323 0.08371
 H406 H 0.19956 0.56501 0.14505
 C407 C 0.44534 0.87778 0.31093
 C408 C 0.46393 0.87662 0.34571
 C409 C 0.47526 0.89840 0.38036
 C410 C 0.46834 0.92179 0.38073
 C411 C 0.44989 0.92311 0.34613
 C412 C 0.43843 0.90128 0.31161
 C413 C 0.43327 0.85472 0.27414
 N414 N 0.41278 0.85391 0.24342
 N415 N 0.40197 0.83326 0.21027
 C416 C 0.41124 0.81257 0.20632
 N417 N 0.43174 0.81338 0.23704
 N418 N 0.44250 0.83398 0.27027
 C419 C 0.39935 0.78975 0.16917
 C420 C 0.41151 0.77066 0.16177
 C421 C 0.40053 0.74941 0.12637
 C422 C 0.37700 0.74663 0.09769
 C423 C 0.36469 0.76558 0.10532
 C424 C 0.37579 0.78693 0.14053
 H425 H 0.46966 0.85883 0.34630
 H426 H 0.48952 0.89712 0.40684
 H427 H 0.44432 0.94103 0.34601
 H428 H 0.42426 0.90292 0.28536
 H429 H 0.42969 0.77222 0.18314
 H430 H 0.41046 0.73511 0.12156
 H431 H 0.34656 0.76406 0.08388
 H432 H 0.36583 0.80119 0.14532
 C433 C 0.43662 0.55878 0.31055
 C434 C 0.42495 0.52747 0.31561
 C435 C 0.43595 0.51640 0.34995
 C436 C 0.45855 0.53639 0.38009
 C437 C 0.47015 0.56760 0.37547
 C438 C 0.45940 0.57873 0.34083
 C439 C 0.42514 0.57052 0.27386
 N440 N 0.44030 0.60033 0.26252
 N441 N 0.43006 0.61082 0.22931
 C442 C 0.40416 0.59197 0.20620
 N443 N 0.38896 0.56220 0.21765
 N444 N 0.39926 0.55168 0.25070
 C445 C 0.39279 0.60358 0.16915
 C446 C 0.36315 0.58577 0.15190
 C447 C 0.35244 0.59662 0.11682
 C448 C 0.37125 0.62539 0.09780
 C449 C 0.40090 0.64320 0.11501
 C450 C 0.41150 0.63249 0.15047
 H451 H 0.40750 0.51151 0.29278
 H452 H 0.42681 0.49223 0.35319
 H453 H 0.48763 0.58328 0.39855
 H454 H 0.46878 0.60295 0.33798
 H455 H 0.34811 0.56346 0.16565
 H456 H 0.32950 0.58230 0.10428
 H457 H 0.41590 0.66553 0.10125
 H458 H 0.43447 0.64675 0.16291
   
