data_POSCAR
  _audit_creation_date              2014-09-24
  _audit_creation_method            'ToBaCCo'
  _symmetry_space_group_name_H-M    'P1'
  _symmetry_Int_Tables_number       1
  _symmetry_cell_setting            triclinic
  loop_
  _symmetry_equiv_pos_as_xyz
 x,y,z
_cell_length_a 38.3219
_cell_length_b 38.5846
_cell_length_c 38.0825
_cell_angle_alpha 89.467800
_cell_angle_beta 89.606300
_cell_angle_gamma 92.291800
loop_
  _atom_site_label
  _atom_site_type_symbol
  _atom_site_fract_x
  _atom_site_fract_y
  _atom_site_fract_z
C1 C 0.59306 0.63490 0.66519
 C2 C 0.56888 0.66122 0.66633
 C3 C 0.57136 0.68919 0.64254
 C4 C 0.59866 0.69104 0.61763
 C5 C 0.62336 0.66518 0.61654
 C6 C 0.62053 0.63694 0.64038
 C7 C 0.59038 0.60683 0.68880
 C8 C 0.61541 0.58111 0.68897
 C9 C 0.64283 0.58336 0.66392
 C10 C 0.64535 0.61094 0.63960
 C11 C 0.67254 0.61308 0.61468
 C12 C 0.67547 0.64118 0.59089
 C13 C 0.65105 0.66728 0.59226
 H14 H 0.54798 0.65995 0.68570
 H15 H 0.60122 0.71301 0.59973
 H16 H 0.56908 0.60550 0.70776
 H17 H 0.66188 0.56350 0.66237
 H18 H 0.69188 0.59335 0.61441
 H19 H 0.65350 0.68910 0.57413
 C20 C 0.88809 0.36636 0.16932
 C21 C 0.91275 0.34050 0.17088
 C22 C 0.91822 0.31858 0.14214
 C23 C 0.89765 0.32251 0.11176
 C24 C 0.87239 0.34781 0.11011
 C25 C 0.86767 0.36990 0.13892
 C26 C 0.88355 0.38883 0.19767
 C27 C 0.85845 0.41440 0.19611
 C28 C 0.83772 0.41725 0.16612
 C29 C 0.84247 0.39553 0.13734
 C30 C 0.82247 0.39913 0.10697
 C31 C 0.82672 0.37705 0.07834
 C32 C 0.85177 0.35141 0.08002
 H33 H 0.92820 0.33785 0.19445
 H34 H 0.90013 0.30549 0.08958
 H35 H 0.89913 0.38610 0.22111
 H36 H 0.81826 0.43689 0.16500
 H37 H 0.80329 0.41901 0.10565
 H38 H 0.85578 0.33479 0.05770
 C39 C 0.39841 0.12482 -0.15168
 C40 C 0.42944 0.14501 -0.14815
 C41 C 0.43134 0.17279 -0.12467
 C42 C 0.40211 0.17984 -0.10374
 C43 C 0.37115 0.15940 -0.10639
 C44 C 0.36920 0.13192 -0.13064
 C45 C 0.39613 0.09791 -0.17620
 C46 C 0.36466 0.07802 -0.18044
 C47 C 0.33581 0.08529 -0.15901
 C48 C 0.33802 0.11161 -0.13387
 C49 C 0.30953 0.11786 -0.11183
 C50 C 0.31170 0.14450 -0.08688
 C51 C 0.34221 0.16572 -0.08495
 H52 H 0.45203 0.13955 -0.16419
 H53 H 0.40370 0.20071 -0.08490
 H54 H 0.41868 0.09382 -0.19261
 H55 H 0.31150 0.07017 -0.16166
 H56 H 0.28561 0.10211 -0.11417
 H57 H 0.34371 0.18654 -0.06601
 C58 C 0.10436 0.87091 0.33799
 C59 C 0.07704 0.84563 0.33694
 C60 C 0.07431 0.81874 0.36220
 C61 C 0.10024 0.81712 0.38833
 C62 C 0.12810 0.84180 0.38922
 C63 C 0.13008 0.86894 0.36416
 C64 C 0.10665 0.89785 0.31295
 C65 C 0.13465 0.92257 0.31349
 C66 C 0.16043 0.92013 0.33928
 C67 C 0.15819 0.89372 0.36483
 C68 C 0.18392 0.89132 0.39068
 C69 C 0.18215 0.86417 0.41560
 C70 C 0.15438 0.83940 0.41450
 H71 H 0.05753 0.84717 0.31652
 H72 H 0.09994 0.79614 0.40736
 H73 H 0.08719 0.89900 0.29250
 H74 H 0.18222 0.93895 0.33946
 H75 H 0.20580 0.91001 0.39075
 H76 H 0.15320 0.81831 0.43355
 N77 N 0.07141 0.17634 0.09276
 N78 N 0.05693 0.16599 0.12265
 C79 C 0.02994 0.18617 0.12991
 C80 C 0.02737 0.21021 0.10294
 C81 C 0.05392 0.20312 0.07978
 H82 H 0.01284 0.18301 0.15251
 H83 H 0.05995 0.21645 0.05525
 Cu84 Cu 0.07344 0.12595 0.14824
 Cu85 Cu 0.11177 0.15447 0.07277
 Cu86 Cu 0.14098 0.08225 0.11645
 N87 N 0.08929 0.08416 0.17127
 N88 N 0.11619 0.06777 0.15914
 C89 C 0.12187 0.04026 0.17999
 C90 C 0.09701 0.03920 0.20651
 C91 C 0.07662 0.06727 0.20008
 H92 H 0.14204 0.02194 0.17565
 H93 H 0.05427 0.07473 0.21532
 N94 N 0.16277 0.10078 0.07290
 N95 N 0.15224 0.12884 0.05667
 C96 C 0.17271 0.13522 0.02823
 C97 C 0.19700 0.10973 0.02643
 C98 C 0.18985 0.08830 0.05495
 H99 H 0.16972 0.15636 0.00980
 H100 H 0.20358 0.06535 0.06206
 H101 H 0.09906 0.10591 0.09365
 H102 H 0.13018 0.13427 0.11917
 N103 N 0.42193 0.83545 0.58989
 N104 N 0.43780 0.84616 0.61854
 C105 C 0.46453 0.82555 0.62527
 C106 C 0.46555 0.80080 0.59928
 C107 C 0.43833 0.80796 0.57715
 H108 H 0.48223 0.82860 0.64710
 H109 H 0.43080 0.79390 0.55377
 Cu110 Cu 0.42248 0.88644 0.64380
 Cu111 Cu 0.38069 0.85738 0.57190
 Cu112 Cu 0.35148 0.92796 0.61792
 N113 N 0.40591 0.92603 0.66932
 N114 N 0.37751 0.94151 0.65972
 C115 C 0.37170 0.96764 0.68194
 C116 C 0.39810 0.96868 0.70656
 C117 C 0.41941 0.94210 0.69769
 H118 H 0.35053 0.98522 0.67967
 H119 H 0.44304 0.93519 0.71094
 N120 N 0.32875 0.91030 0.57500
 N121 N 0.33945 0.88300 0.55793
 C122 C 0.31841 0.87709 0.53025
 C123 C 0.29350 0.90204 0.52979
 C124 C 0.30092 0.92275 0.55833
 H125 H 0.32140 0.85663 0.51141
 H126 H 0.28691 0.94517 0.56631
 H127 H 0.39242 0.90625 0.59152
 H128 H 0.36430 0.87645 0.61955
 N129 N 0.91698 0.66854 0.41273
 N130 N 0.92898 0.66081 0.38147
 C131 C 0.95706 0.68168 0.37381
 C132 C 0.96302 0.70345 0.40201
 C133 C 0.93730 0.69427 0.42629
 H134 H 0.97255 0.68040 0.35005
 H135 H 0.93347 0.70578 0.45174
 Cu136 Cu 0.90833 0.62270 0.35483
 Cu137 Cu 0.87481 0.64605 0.43257
 Cu138 Cu 0.83693 0.57847 0.38474
 N139 N 0.89534 0.57682 0.33743
 N140 N 0.86687 0.55994 0.34860
 C141 C 0.86288 0.53004 0.33090
 C142 C 0.89064 0.52796 0.30764
 C143 C 0.91083 0.55795 0.31264
 H144 H 0.84147 0.51126 0.33484
 H145 H 0.93455 0.56582 0.29866
 N146 N 0.81743 0.59447 0.42945
 N147 N 0.83175 0.62024 0.44762
 C148 C 0.81191 0.62548 0.47626
 C149 C 0.78400 0.60161 0.47620
 C150 C 0.78845 0.58222 0.44636
 H151 H 0.81742 0.64506 0.49579
 H152 H 0.77155 0.56102 0.43746
 H153 H 0.88099 0.59885 0.40798
 H154 H 0.85293 0.63087 0.38610
 N155 N 0.58830 0.32117 -0.11605
 N156 N 0.57168 0.34615 -0.13160
 C157 C 0.53784 0.33621 -0.13511
 C158 C 0.53312 0.30305 -0.12151
 C159 C 0.56570 0.29420 -0.10964
 H160 H 0.51825 0.35157 -0.14742
 H161 H 0.57248 0.27022 -0.09694
 Cu162 Cu 0.59611 0.38826 -0.14818
 Cu163 Cu 0.63787 0.32575 -0.10512
 Cu164 Cu 0.67634 0.40755 -0.11847
 N165 N 0.62654 0.42302 -0.17141
 N166 N 0.65839 0.43003 -0.16020
 C167 C 0.67374 0.45470 -0.18094
 C168 C 0.65012 0.46380 -0.20631
 C169 C 0.62038 0.44318 -0.19955
 H170 H 0.69995 0.46556 -0.17750
 H171 H 0.59625 0.44256 -0.21413
 N172 N 0.69645 0.37271 -0.08772
 N173 N 0.68265 0.34103 -0.08364
 C174 C 0.70174 0.32380 -0.06012
 C175 C 0.72853 0.34587 -0.04869
 C176 C 0.72451 0.37662 -0.06692
 H177 H 0.69551 0.29780 -0.05054
 H178 H 0.74027 0.40036 -0.06476
 H179 H 0.63330 0.37765 -0.09784
 H180 H 0.65391 0.36506 -0.14024
 C181 C -0.05636 0.29327 0.14531
 C182 C -0.04384 0.27490 0.11860
 C183 C -0.01765 0.24861 0.12472
 C184 C 0.00120 0.23672 0.09810
 H185 H -0.05153 0.27968 0.09179
 H186 H -0.01337 0.23941 0.15126
 H187 H -0.04519 0.28913 0.17106
 H188 H -0.00190 0.24743 0.07195
 C189 C 0.54614 0.71700 0.64548
 C190 C 0.53386 0.73373 0.61757
 C191 C 0.50902 0.76147 0.62211
 C192 C 0.49037 0.77292 0.59518
 H193 H 0.54156 0.72651 0.59127
 H194 H 0.50550 0.77215 0.64805
 H195 H 0.53622 0.72283 0.67141
 H196 H 0.49252 0.76088 0.56971
 C197 C 1.04635 0.79399 0.35964
 C198 C 1.03659 0.77119 0.38502
 C199 C 1.00781 0.74544 0.37941
 C200 C 0.99139 0.72980 0.40663
 H201 H 1.04862 0.77182 0.41061
 H202 H 0.99968 0.73966 0.35282
 H203 H 1.03088 0.79406 0.33587
 H204 H 0.99815 0.73728 0.43317
 C205 C 0.46445 0.19358 -0.12205
 C206 C 0.46541 0.22786 -0.11716
 C207 C 0.49892 0.24785 -0.11650
 C208 C 0.50005 0.28229 -0.12063
 H209 H 0.44132 0.24153 -0.11518
 H210 H 0.52290 0.23411 -0.11390
 H211 H 0.48865 0.18065 -0.12664
 H212 H 0.47608 0.29561 -0.12508
 C213 C 0.13871 -0.04999 0.28625
 C214 C 0.11165 -0.03419 0.27214
 C215 C 0.11732 -0.00766 0.24443
 C216 C 0.09197 0.01320 0.23487
 H217 H 0.08529 -0.04047 0.28129
 H218 H 0.14280 -0.00500 0.23197
 H219 H 0.16503 -0.04164 0.27849
 H220 H 0.06708 0.01167 0.24859
 C221 C 0.61166 0.55410 -0.28592
 C222 C 0.63647 0.53193 -0.27765
 C223 C 0.62979 0.50502 -0.25050
 C224 C 0.65611 0.49000 -0.23427
 H225 H 0.66233 0.53427 -0.28916
 H226 H 0.60304 0.49839 -0.24285
 H227 H 0.58742 0.55204 -0.27097
 H228 H 0.68283 0.49821 -0.24051
 C229 C 0.36038 1.05188 0.79410
 C230 C 0.38638 1.03850 0.77548
 C231 C 0.37889 1.01269 0.74802
 C232 C 0.40426 0.99375 0.73494
 H233 H 0.41343 1.04563 0.78048
 H234 H 0.35239 1.00906 0.73859
 H235 H 0.33413 1.04132 0.78961
 H236 H 0.43031 0.99618 0.74578
 C237 C 0.85278 0.43811 0.22563
 C238 C 0.87911 0.45276 0.24377
 C239 C 0.87223 0.47839 0.27110
 C240 C 0.89740 0.50062 0.28201
 H241 H 0.90588 0.44727 0.23717
 H242 H 0.84582 0.48018 0.28108
 H243 H 0.82636 0.44595 0.23066
 H244 H 0.92329 0.50002 0.27044
 C245 C 0.28246 0.15047 -0.06246
 C246 C 0.26388 0.12421 -0.04744
 C247 C 0.23616 0.13043 -0.02159
 C248 C 0.22422 0.10485 -0.00030
 H249 H 0.27019 0.09768 -0.05309
 H250 H 0.22628 0.15624 -0.01928
 H251 H 0.27788 0.17686 -0.05462
 H252 H 0.23567 0.07964 -0.00159
 C253 C 0.70464 0.64470 0.56534
 C254 C 0.71801 0.61751 0.54928
 C255 C 0.74698 0.62244 0.52392
 C256 C 0.75534 0.59718 0.50202
 H257 H 0.70699 0.59158 0.55411
 H258 H 0.76105 0.64736 0.52265
 H259 H 0.71430 0.67066 0.55830
 H260 H 0.73998 0.57298 0.50209
 C261 C 0.80539 0.38242 0.04669
 C262 C 0.79426 0.35666 0.02580
 C263 C 0.77141 0.36394 -0.00408
 C264 C 0.75357 0.33856 -0.02060
 H265 H 0.80056 0.33009 0.03160
 H266 H 0.76796 0.39075 -0.01152
 H267 H 0.79670 0.40841 0.04165
 H268 H 0.75583 0.31189 -0.01199
 C269 C 0.20987 0.86002 0.44193
 C270 C 0.22641 0.88694 0.45730
 C271 C 0.25412 0.88137 0.48308
 C272 C 0.26552 0.90687 0.50409
 H273 H 0.21906 0.91319 0.45141
 H274 H 0.26488 0.85589 0.48522
 H275 H 0.21582 0.83389 0.44998
 H276 H 0.25341 0.93177 0.50312
   
