data_POSCAR
  _audit_creation_date              2014-09-24
  _audit_creation_method            'ToBaCCo'
  _symmetry_space_group_name_H-M    'P1'
  _symmetry_Int_Tables_number       1
  _symmetry_cell_setting            triclinic
  loop_
  _symmetry_equiv_pos_as_xyz
 x,y,z
_cell_length_a 34.4568
_cell_length_b 37.8621
_cell_length_c 18.7858
_cell_angle_alpha 89.896600
_cell_angle_beta 90.228500
_cell_angle_gamma 115.368800
loop_
  _atom_site_label
  _atom_site_type_symbol
  _atom_site_fract_x
  _atom_site_fract_y
  _atom_site_fract_z
C1 C 0.40818 0.88073 0.46561
 C2 C 0.40730 0.88104 0.53843
 C3 C 0.43846 0.91716 0.55995
 N4 N 0.45796 0.93903 0.50249
 C5 C 0.43927 0.91689 0.44473
 C6 C 0.44903 0.92918 0.63153
 C7 C 0.47672 0.96835 0.64991
 C8 C 0.49960 0.97935 0.71331
 C9 C 0.52112 1.01925 0.71257
 C10 C 0.51116 1.03181 0.64857
 N11 N 0.48448 1.00055 0.60999
 C12 C 0.52617 1.07165 0.62884
 C13 C 0.53014 1.08370 0.55680
 C14 C 0.53948 1.12132 0.53371
 C15 C 0.54054 1.12060 0.46083
 C16 C 0.53142 1.08253 0.44160
 N17 N 0.52531 1.06004 0.50032
 C18 C 0.52972 1.06952 0.37073
 C19 C 0.51475 1.02975 0.35147
 C20 C 0.51942 1.01668 0.28455
 C21 C 0.49725 0.97663 0.28526
 C22 C 0.47978 0.96628 0.35271
 N23 N 0.49061 0.99885 0.39269
 C24 C 0.45137 0.92799 0.37346
 H25 H 0.38805 0.85656 0.43208
 H26 H 0.38575 0.85739 0.57146
 H27 H 0.47781 1.00031 0.44191
 H28 H 0.50111 0.96052 0.75559
 H29 H 0.54224 1.03704 0.75417
 H30 H 0.54424 1.14658 0.56571
 H31 H 0.54666 1.14520 0.42597
 H32 H 0.49366 0.95746 0.24058
 H33 H 0.46896 1.00150 0.56285
 H34 H 0.53631 1.03424 0.23936
 C35 C -0.13112 0.44604 0.53339
 C36 C -0.13021 0.44541 0.46059
 C37 C -0.08766 0.45720 0.44113
 N38 N -0.06250 0.46507 0.50012
 C39 C -0.08911 0.45824 0.55669
 C40 C -0.07279 0.46138 0.36977
 C41 C -0.02848 0.47985 0.35212
 C42 C -0.01140 0.47490 0.28809
 C43 C 0.03176 0.49901 0.28983
 C44 C 0.04021 0.51772 0.35524
 N45 N 0.00328 0.50592 0.39295
 C46 C 0.08095 0.54643 0.37654
 C47 C 0.09122 0.55965 0.44715
 C48 C 0.13017 0.58897 0.46896
 C49 C 0.12933 0.58946 0.54183
 C50 C 0.08985 0.56047 0.56207
 N51 N 0.06673 0.54224 0.50411
 C52 C 0.07783 0.54812 0.63264
 C53 C 0.03647 0.51980 0.65176
 C54 C 0.02617 0.50186 0.71785
 C55 C -0.01692 0.47779 0.71656
 C56 C -0.03226 0.48214 0.65023
 N57 N 0.00056 0.50769 0.61081
 C58 C -0.07606 0.46361 0.62920
 H59 H -0.15946 0.43954 0.56526
 H60 H -0.15775 0.43837 0.42610
 H61 H -0.00249 0.51922 0.56198
 H62 H -0.02831 0.45586 0.24440
 H63 H 0.05424 0.50239 0.24742
 H64 H 0.15703 0.60723 0.43606
 H65 H 0.15547 0.60815 0.57580
 H66 H -0.03493 0.45920 0.75991
 H67 H -0.00102 0.51799 0.44024
 H68 H 0.04725 0.50570 0.76286
 C69 C 0.58062 0.43990 0.53626
 C70 C 0.57798 0.43798 0.46346
 C71 C 0.54666 0.44995 0.44395
 N72 N 0.52985 0.45888 0.50244
 C73 C 0.55072 0.45291 0.55899
 C74 C 0.53368 0.45169 0.37310
 C75 C 0.50457 0.46738 0.35365
 C76 C 0.48506 0.46267 0.28747
 C77 C 0.46221 0.48483 0.28762
 C78 C 0.46831 0.50251 0.35399
 N79 N 0.49421 0.49167 0.39384
 C80 C 0.45361 0.53081 0.37339
 C81 C 0.45662 0.54578 0.44313
 C82 C 0.44842 0.57741 0.46121
 C83 C 0.45374 0.58193 0.53339
 C84 C 0.46403 0.55234 0.55762
 N85 N 0.46580 0.53028 0.50225
 C86 C 0.47079 0.54554 0.62981
 C87 C 0.48556 0.51727 0.65005
 C88 C 0.47778 0.49888 0.71588
 C89 C 0.49793 0.47462 0.71602
 C90 C 0.51762 0.47868 0.65029
 N91 N 0.50943 0.50439 0.60975
 C92 C 0.54333 0.45935 0.63082
 H93 H 0.60277 0.43330 0.56849
 H94 H 0.59733 0.42920 0.42887
 H95 H 0.52310 0.51558 0.56064
 H96 H 0.48767 0.44562 0.24311
 H97 H 0.44424 0.48831 0.24297
 H98 H 0.43979 0.59565 0.42625
 H99 H 0.45068 0.60475 0.56406
 H100 H 0.49769 0.45574 0.75951
 H101 H 0.50835 0.50386 0.44202
 H102 H 0.45892 0.50215 0.75914
 O103 O 0.40239 0.66767 -0.06540
 O104 O 0.40039 0.73472 -0.09113
 C105 C 0.38147 0.75658 -0.10082
 O106 O 0.35178 0.75619 -0.06042
 O107 O 0.27893 0.69387 -0.07622
 C108 C 0.25787 0.65745 -0.08652
 O109 O 0.26430 0.63177 -0.05119
 O110 O 0.33419 0.62524 -0.08139
 C111 C 0.37341 0.63932 -0.09837
 O112 O 0.40710 0.68328 0.07461
 O113 O 0.40967 0.75217 0.04957
 C114 C 0.38519 0.76148 0.08816
 O115 O 0.34468 0.74596 0.08128
 O116 O 0.26995 0.68573 0.06581
 C117 C 0.26350 0.65491 0.10080
 O118 O 0.28334 0.63412 0.08828
 O119 O 0.35251 0.62447 0.05923
 C120 C 0.38723 0.64733 0.09003
 Cr121 Cr 0.40260 0.70869 -0.00778
 Cr122 Cr 0.31245 0.71919 0.00260
 Cr123 Cr 0.30987 0.63096 0.00372
 O124 O 0.34160 0.68623 0.00008
 O125 O 0.59612 0.31841 -0.06182
 O126 O 0.60608 0.25498 -0.08094
 C127 C 0.63114 0.23994 -0.09796
 O128 O 0.66635 0.24737 -0.06616
 O129 O 0.73098 0.31445 -0.08254
 C130 C 0.74555 0.35062 -0.09576
 O131 O 0.73602 0.37398 -0.05929
 O132 O 0.65922 0.37020 -0.07750
 C133 C 0.62024 0.34983 -0.09370
 O134 O 0.59908 0.30850 0.08109
 O135 O 0.60685 0.24384 0.06042
 C136 C 0.63618 0.23804 0.09243
 O137 O 0.67564 0.25603 0.07700
 O138 O 0.74276 0.32207 0.06099
 C139 C 0.74570 0.35188 0.09581
 O140 O 0.72346 0.37039 0.08230
 O141 O 0.64790 0.36972 0.06377
 C142 C 0.61572 0.34452 0.09641
 Cr143 Cr 0.60457 0.28274 -0.00021
 Cr144 Cr 0.70251 0.28610 -0.00252
 Cr145 Cr 0.69061 0.36868 0.00228
 O146 O 0.66584 0.31244 -0.00008
 C147 C 0.42188 0.83854 -0.26878
 C148 C 0.40474 0.84607 -0.20611
 N149 N 0.40235 0.88068 -0.19827
 C150 C 0.41655 0.90831 -0.25019
 C151 C 0.43347 0.90088 -0.31375
 N152 N 0.43533 0.86580 -0.32125
 N153 N 0.42565 0.80444 -0.27552
 C154 C 0.41309 0.77752 -0.22222
 C155 C 0.39532 0.78476 -0.15978
 N156 N 0.39146 0.81892 -0.15350
 H157 H 0.41387 0.93551 -0.24256
 H158 H 0.41651 0.75059 -0.22882
 C159 C 0.15902 0.61561 -0.24106
 C160 C 0.17624 0.59119 -0.21199
 N161 N 0.16126 0.55353 -0.23398
 C162 C 0.12958 0.53904 -0.28366
 C163 C 0.11159 0.56311 -0.31181
 N164 N 0.12699 0.60102 -0.29012
 N165 N 0.17487 0.65355 -0.22012
 C166 C 0.20708 0.66816 -0.17112
 C167 C 0.22391 0.64357 -0.14112
 N168 N 0.20793 0.60561 -0.16257
 H169 H 0.11840 0.50903 -0.30106
 H170 H 0.21899 0.69846 -0.15516
 C171 C 0.40983 0.58641 -0.26686
 C172 C 0.43731 0.60276 -0.20862
 N173 N 0.47532 0.60016 -0.20502
 C174 C 0.48707 0.58174 -0.25689
 C175 C 0.45986 0.56558 -0.31608
 N176 N 0.42188 0.56868 -0.31938
 N177 N 0.37106 0.58767 -0.26909
 C178 C 0.35846 0.60447 -0.21549
 C179 C 0.38618 0.62135 -0.15755
 N180 N 0.42513 0.62021 -0.15578
 H181 H 0.51773 0.58034 -0.25265
 H182 H 0.32732 0.60497 -0.21838
 C183 C 0.59143 0.15882 -0.26686
 C184 C 0.56484 0.15422 -0.20781
 N185 N 0.52626 0.12273 -0.20395
 C186 C 0.51299 0.09541 -0.25636
 C187 C 0.53905 0.10009 -0.31662
 N188 N 0.57771 0.13207 -0.32030
 N189 N 0.63095 0.18943 -0.26887
 C190 C 0.64499 0.21570 -0.21451
 C191 C 0.61790 0.21163 -0.15637
 N192 N 0.57836 0.18099 -0.15461
 H193 H 0.48194 0.07062 -0.25179
 H194 H 0.67657 0.23990 -0.21719
 C195 C 0.83190 0.39669 -0.26716
 C196 C 0.83355 0.41993 -0.20805
 N197 N 0.86418 0.45726 -0.20468
 C198 C 0.89366 0.47235 -0.25731
 C199 C 0.89237 0.44923 -0.31694
 N200 N 0.86090 0.41193 -0.32047
 N201 N 0.80221 0.35887 -0.26917
 C202 C 0.77416 0.34320 -0.21460
 C203 C 0.77546 0.36654 -0.15562
 N204 N 0.80509 0.40453 -0.15417
 H205 H 0.91768 0.50230 -0.25308
 H206 H 0.75082 0.31295 -0.21754
 C207 C 0.57124 0.39260 -0.26224
 C208 C 0.59368 0.41690 -0.20543
 N209 N 0.59911 0.45452 -0.20388
 C210 C 0.58294 0.46904 -0.25646
 C211 C 0.56106 0.44511 -0.31449
 N212 N 0.55611 0.40737 -0.31594
 N213 N 0.56412 0.35441 -0.26185
 C214 C 0.57860 0.33950 -0.20727
 C215 C 0.60211 0.36412 -0.15151
 N216 N 0.60918 0.40233 -0.15215
 H217 H 0.58786 0.49924 -0.25379
 H218 H 0.57272 0.30903 -0.20817
 C219 C 0.83549 0.39486 0.26372
 C220 C 0.83763 0.41834 0.20459
 N221 N 0.86939 0.45514 0.20074
 C222 C 0.89925 0.46964 0.25333
 C223 C 0.89687 0.44664 0.31379
 N224 N 0.86461 0.40969 0.31734
 N225 N 0.80468 0.35745 0.26600
 C226 C 0.77582 0.34254 0.21187
 C227 C 0.77723 0.36640 0.15371
 N228 N 0.80814 0.40383 0.15158
 H229 H 0.92394 0.49929 0.24895
 H230 H 0.75150 0.31266 0.21480
 C231 C 0.59858 0.15270 0.25552
 C232 C 0.56824 0.15508 0.20798
 N233 N 0.52631 0.12939 0.21381
 C234 C 0.51328 0.10141 0.26520
 C235 C 0.54349 0.09914 0.31320
 N236 N 0.58554 0.12497 0.30730
 N237 N 0.64058 0.17810 0.24900
 C238 C 0.65369 0.20579 0.19702
 C239 C 0.62334 0.20848 0.14955
 N240 N 0.58123 0.18293 0.15652
 H241 H 0.47966 0.08129 0.26907
 H242 H 0.68739 0.22565 0.19318
 C243 C 0.55979 0.38448 0.25922
 C244 C 0.58917 0.41076 0.21112
 N245 N 0.59929 0.44948 0.21606
 C246 C 0.58142 0.46318 0.26710
 C247 C 0.55232 0.43704 0.31571
 N248 N 0.54221 0.39818 0.31068
 N249 N 0.54927 0.34570 0.25352
 C250 C 0.56674 0.33195 0.20183
 C251 C 0.59644 0.35822 0.15380
 N252 N 0.60690 0.39710 0.15995
 H253 H 0.59008 0.49420 0.27029
 H254 H 0.55768 0.30087 0.19854
 C255 C 0.16214 0.61272 0.24987
 C256 C 0.18431 0.59044 0.23135
 N257 N 0.17199 0.55420 0.25948
 C258 C 0.13841 0.53918 0.30539
 C259 C 0.11599 0.56129 0.32361
 N260 N 0.12857 0.59773 0.29567
 N261 N 0.17449 0.64893 0.22163
 C262 C 0.20777 0.66379 0.17507
 C263 C 0.22979 0.64139 0.15570
 N264 N 0.21745 0.60520 0.18478
 H265 H 0.12936 0.51038 0.32783
 H266 H 0.21653 0.69257 0.15277
 C267 C 0.44051 0.85171 0.24039
 C268 C 0.39761 0.83905 0.21854
 N269 N 0.37362 0.85631 0.24591
 C270 C 0.39051 0.88552 0.29463
 C271 C 0.43316 0.89775 0.31758
 N272 N 0.45728 0.88059 0.28967
 N273 N 0.46460 0.83474 0.21222
 C274 C 0.44775 0.80565 0.16315
 C275 C 0.40463 0.79261 0.14167
 N276 N 0.38067 0.80977 0.17015
 H277 H 0.37075 0.89873 0.31617
 H278 H 0.46773 0.79269 0.14157
 C279 C 0.44108 0.59985 0.24465
 C280 C 0.39991 0.57746 0.21675
 N281 N 0.37718 0.54020 0.23983
 C282 C 0.39378 0.52435 0.28967
 C283 C 0.43511 0.54664 0.31725
 N284 N 0.45776 0.58396 0.29395
 N285 N 0.46357 0.63726 0.22252
 C286 C 0.44686 0.65338 0.17351
 C287 C 0.40573 0.63101 0.14480
 N288 N 0.38328 0.59343 0.16733
 H289 H 0.37498 0.49473 0.30785
 H290 H 0.46571 0.68326 0.15676
   
