data_POSCAR
  _audit_creation_date              2014-09-24
  _audit_creation_method            'ToBaCCo'
  _symmetry_space_group_name_H-M    'P1'
  _symmetry_Int_Tables_number       1
  _symmetry_cell_setting            triclinic
  loop_
  _symmetry_equiv_pos_as_xyz
 x,y,z
_cell_length_a 33.8766
_cell_length_b 33.7881
_cell_length_c 33.6603
_cell_angle_alpha 90.146500
_cell_angle_beta 89.561900
_cell_angle_gamma 90.796900
loop_
  _atom_site_label
  _atom_site_type_symbol
  _atom_site_fract_x
  _atom_site_fract_y
  _atom_site_fract_z
N1 N 0.24659 0.14476 0.15842
 N2 N 0.24099 0.17224 0.13152
 C3 C 0.26901 0.16915 0.10305
 C4 C 0.29350 0.13834 0.11294
 C5 C 0.27846 0.12353 0.14822
 H6 H 0.27205 0.18843 0.07759
 H7 H 0.29023 0.09952 0.16548
 Cu8 Cu 0.19891 0.21067 0.13758
 Cu9 Cu 0.21338 0.13998 0.20564
 Cu10 Cu 0.13136 0.20004 0.21107
 N11 N 0.15478 0.24671 0.14328
 N12 N 0.12783 0.24169 0.17124
 C13 C 0.10075 0.27035 0.16825
 C14 C 0.11150 0.29472 0.13694
 C15 C 0.14588 0.27893 0.12178
 H16 H 0.07571 0.27385 0.18800
 H17 H 0.16315 0.29034 0.09710
 N18 N 0.14065 0.15644 0.24873
 N19 N 0.17173 0.13337 0.24634
 C20 C 0.17002 0.10684 0.27614
 C21 C 0.13662 0.11394 0.29865
 C22 C 0.11868 0.14556 0.28056
 H23 H 0.19188 0.08454 0.28166
 H24 H 0.09183 0.15974 0.29020
 H25 H 0.16419 0.16086 0.17712
 H26 H 0.19143 0.19743 0.20872
 N27 N 0.75170 -0.15163 0.16240
 N28 N 0.75745 -0.17872 0.13490
 C29 C 0.72938 -0.17550 0.10693
 C30 C 0.70454 -0.14508 0.11788
 C31 C 0.71957 -0.13060 0.15321
 H32 H 0.72663 -0.19436 0.08107
 H33 H 0.70786 -0.10671 0.17100
 Cu34 Cu 0.80000 -0.21672 0.13969
 Cu35 Cu 0.78574 -0.14635 0.20860
 Cu36 Cu 0.86761 -0.20677 0.21198
 N37 N 0.84282 -0.25423 0.14523
 N38 N 0.86996 -0.24930 0.17262
 C39 C 0.89640 -0.27859 0.16954
 C40 C 0.88494 -0.30344 0.13884
 C41 C 0.85083 -0.28715 0.12407
 H42 H 0.92150 -0.28208 0.18881
 H43 H 0.83324 -0.29851 0.09979
 N44 N 0.85935 -0.16232 0.24931
 N45 N 0.82830 -0.13917 0.24778
 C46 C 0.83095 -0.11190 0.27697
 C47 C 0.86495 -0.11859 0.29819
 C48 C 0.88221 -0.15076 0.27997
 H49 H 0.80942 -0.08926 0.28288
 H50 H 0.90931 -0.16476 0.28866
 H51 H 0.83482 -0.16716 0.17912
 H52 H 0.80753 -0.20385 0.21076
 N53 N 0.74591 0.15211 0.83404
 N54 N 0.75082 0.17954 0.86140
 C55 C 0.72185 0.17575 0.88889
 C56 C 0.69742 0.14456 0.87781
 C57 C 0.71349 0.13026 0.84288
 H58 H 0.71817 0.19477 0.91449
 H59 H 0.70217 0.10605 0.82502
 Cu60 Cu 0.79336 0.21889 0.85731
 Cu61 Cu 0.78100 0.14785 0.78824
 Cu62 Cu 0.86394 0.20907 0.78683
 N63 N 0.83826 0.25547 0.85375
 N64 N 0.86641 0.25067 0.82711
 C65 C 0.89404 0.27936 0.83175
 C66 C 0.88234 0.30363 0.86274
 C67 C 0.84685 0.28764 0.87603
 H68 H 0.92019 0.28281 0.81339
 H69 H 0.82874 0.29868 0.90011
 N70 N 0.85570 0.16544 0.74844
 N71 N 0.82433 0.14180 0.74941
 C72 C 0.82717 0.11510 0.71976
 C73 C 0.86162 0.12269 0.69878
 C74 C 0.87896 0.15480 0.71762
 H75 H 0.80543 0.09229 0.71332
 H76 H 0.90641 0.16936 0.70929
 H77 H 0.82907 0.16944 0.81916
 H78 H 0.80379 0.20560 0.78646
 N79 N 0.25450 -0.14466 0.84370
 N80 N 0.24951 -0.17323 0.86980
 C81 C 0.27940 -0.17176 0.89600
 C82 C 0.30449 -0.14084 0.88552
 C83 C 0.28789 -0.12431 0.85218
 H84 H 0.28306 -0.19197 0.92051
 H85 H 0.29932 -0.09937 0.83539
 Cu86 Cu 0.20504 -0.21031 0.86626
 Cu87 Cu 0.21735 -0.13603 0.80067
 Cu88 Cu 0.13816 -0.20180 0.79357
 N89 N 0.16110 -0.24784 0.86111
 N90 N 0.13442 -0.24360 0.83332
 C91 C 0.10713 -0.27281 0.83665
 C92 C 0.11755 -0.29691 0.86793
 C93 C 0.15197 -0.28028 0.88277
 H94 H 0.08207 -0.27669 0.81724
 H95 H 0.16897 -0.29107 0.90745
 N96 N 0.14695 -0.15766 0.75609
 N97 N 0.17667 -0.13216 0.75919
 C98 C 0.17464 -0.10575 0.72932
 C99 C 0.14238 -0.11542 0.70619
 C100 C 0.12554 -0.14843 0.72389
 H101 H 0.19555 -0.08183 0.72411
 H102 H 0.09975 -0.16461 0.71377
 H103 H 0.16870 -0.16145 0.82833
 H104 H 0.19883 -0.19443 0.79592
 N105 N 0.70588 -0.19778 0.78847
 N106 N 0.71160 -0.22533 0.81525
 C107 C 0.68691 -0.21961 0.84615
 C108 C 0.66415 -0.18712 0.83782
 C109 C 0.67663 -0.17412 0.80089
 H110 H 0.68553 -0.23778 0.87255
 H111 H 0.66626 -0.14858 0.78493
 Cu112 Cu 0.75002 -0.26660 0.80686
 Cu113 Cu 0.73894 -0.19339 0.74112
 Cu114 Cu 0.82895 -0.23965 0.75225
 N115 N 0.79742 -0.29793 0.80603
 N116 N 0.82891 -0.28613 0.78605
 C117 C 0.85904 -0.31019 0.79420
 C118 C 0.84543 -0.33886 0.82033
 C119 C 0.80610 -0.33051 0.82699
 H120 H 0.88864 -0.30674 0.78233
 H121 H 0.78598 -0.34564 0.84713
 N122 N 0.81904 -0.20017 0.71076
 N123 N 0.78507 -0.18188 0.70714
 C124 C 0.78832 -0.15495 0.67786
 C125 C 0.82582 -0.15729 0.66181
 C126 C 0.84444 -0.18635 0.68300
 H127 H 0.76522 -0.13512 0.66898
 H128 H 0.87461 -0.19580 0.67924
 H129 H 0.77051 -0.24696 0.73974
 H130 H 0.78256 -0.20869 0.77805
 N131 N 0.29812 0.20407 0.78607
 N132 N 0.29123 0.23000 0.81438
 C133 C 0.31555 0.22326 0.84496
 C134 C 0.33928 0.19186 0.83477
 C135 C 0.32777 0.18055 0.79714
 H136 H 0.31607 0.24002 0.87238
 H137 H 0.33903 0.15616 0.77974
 Cu138 Cu 0.25218 0.27093 0.80798
 Cu139 Cu 0.26602 0.20114 0.73853
 Cu140 Cu 0.17548 0.24661 0.75013
 N141 N 0.20541 0.30322 0.80631
 N142 N 0.17501 0.29281 0.78443
 C143 C 0.14514 0.31763 0.79157
 C144 C 0.15774 0.34529 0.81909
 C145 C 0.19617 0.33553 0.82775
 H146 H 0.11624 0.31530 0.77826
 H147 H 0.21521 0.34969 0.84934
 N148 N 0.18638 0.20768 0.70816
 N149 N 0.22059 0.18978 0.70426
 C150 C 0.21776 0.16248 0.67520
 C151 C 0.18028 0.16415 0.65963
 C152 C 0.16124 0.19323 0.68080
 H153 H 0.24098 0.14250 0.66651
 H154 H 0.13083 0.20195 0.67764
 H155 H 0.23413 0.25450 0.73943
 H156 H 0.22094 0.21443 0.77544
 N157 N 0.29979 -0.19906 0.20917
 N158 N 0.29127 -0.22377 0.18011
 C159 C 0.31719 -0.21814 0.15012
 C160 C 0.34364 -0.18885 0.16139
 C161 C 0.33205 -0.17754 0.19910
 H162 H 0.31677 -0.23391 0.12213
 H163 H 0.34511 -0.15441 0.21721
 Cu164 Cu 0.24696 -0.26048 0.18449
 Cu165 Cu 0.26698 -0.19521 0.25676
 Cu166 Cu 0.17563 -0.24307 0.25056
 N167 N 0.20366 -0.29801 0.19204
 N168 N 0.17494 -0.28999 0.21716
 C169 C 0.14594 -0.31720 0.21327
 C170 C 0.15740 -0.34398 0.18457
 C171 C 0.19426 -0.33121 0.17180
 H172 H 0.11815 -0.31685 0.22931
 H173 H 0.21165 -0.34377 0.14794
 N174 N 0.18866 -0.20418 0.29199
 N175 N 0.22286 -0.18504 0.29373
 C176 C 0.22125 -0.15815 0.32328
 C177 C 0.18470 -0.16155 0.34144
 C178 C 0.16490 -0.19108 0.32121
 H179 H 0.24471 -0.13751 0.33084
 H180 H 0.13486 -0.20114 0.32643
 H181 H 0.23476 -0.24875 0.25490
 H182 H 0.21873 -0.20672 0.22324
 N183 N 0.70182 0.18480 0.20119
 N184 N 0.70086 0.21779 0.18060
 C185 C 0.67198 0.21496 0.15350
 C186 C 0.65359 0.17853 0.15797
 C187 C 0.67300 0.16016 0.18855
 H188 H 0.66546 0.23726 0.13160
 H189 H 0.66802 0.13032 0.19922
 Cu190 Cu 0.73871 0.26040 0.18919
 Cu191 Cu 0.74378 0.17416 0.23848
 Cu192 Cu 0.80111 0.25512 0.26571
 N193 N 0.78505 0.29455 0.19258
 N194 N 0.81025 0.29157 0.22189
 C195 C 0.84045 0.31717 0.21586
 C196 C 0.83344 0.33737 0.18107
 C197 C 0.79800 0.32256 0.16712
 H198 H 0.86551 0.32082 0.23532
 H199 H 0.78336 0.33071 0.13995
 N200 N 0.79967 0.20559 0.29591
 N201 N 0.77945 0.17402 0.28428
 C202 C 0.78714 0.14380 0.30885
 C203 C 0.81324 0.15723 0.33730
 C204 C 0.82047 0.19651 0.32846
 H205 H 0.77475 0.11425 0.30625
 H206 H 0.84053 0.21653 0.34361
 H207 H 0.74387 0.23165 0.25575
 H208 H 0.78528 0.21725 0.22202
 C209 C 0.13763 -0.01688 0.39790
 C210 C 0.12608 0.02027 0.41208
 C211 C 0.12060 0.02583 0.45314
 C212 C 0.12864 -0.00473 0.48038
 C213 C 0.13945 -0.04191 0.46515
 C214 C 0.14328 -0.04824 0.42426
 C215 C 0.12845 0.00259 0.52431
 C216 C 0.12262 -0.02868 0.55165
 C217 C 0.12793 -0.02270 0.59262
 C218 C 0.13711 0.01540 0.60664
 C219 C 0.14041 0.04723 0.58022
 C220 C 0.13671 0.04067 0.53940
 H221 H 0.14054 -0.02192 0.36625
 H222 H 0.11080 0.05439 0.46352
 H223 H 0.14628 -0.06613 0.48475
 H224 H 0.11465 -0.05803 0.54138
 H225 H 0.13998 0.02068 0.63823
 H226 H 0.14177 0.06550 0.51974
 C227 C 0.86958 -0.01114 0.60323
 C228 C 0.87906 0.02645 0.58815
 C229 C 0.88461 0.03117 0.54701
 C230 C 0.87862 -0.00088 0.52053
 C231 C 0.87020 -0.03850 0.53668
 C232 C 0.86624 -0.04378 0.57772
 C233 C 0.87812 0.00527 0.47644
 C234 C 0.88599 -0.02597 0.44964
 C235 C 0.87995 -0.02150 0.40863
 C236 C 0.86826 0.01529 0.39399
 C237 C 0.86238 0.04729 0.41983
 C238 C 0.86670 0.04193 0.46077
 H239 H 0.86645 -0.01535 0.63498
 H240 H 0.89267 0.06020 0.53591
 H241 H 0.86508 -0.06387 0.51769
 H242 H 0.89586 -0.05426 0.46039
 H243 H 0.86491 0.01928 0.36232
 H244 H 0.85947 0.06634 0.48020
 C245 C 0.39148 0.13787 -0.02026
 C246 C 0.40527 0.12623 0.01704
 C247 C 0.44592 0.12047 0.02224
 C248 C 0.47322 0.12848 -0.00874
 C249 C 0.45841 0.13970 -0.04596
 C250 C 0.41786 0.14371 -0.05202
 C251 C 0.51687 0.12786 -0.00178
 C252 C 0.54386 0.12215 -0.03343
 C253 C 0.58471 0.12708 -0.02787
 C254 C 0.59892 0.13560 0.01024
 C255 C 0.57280 0.13885 0.04248
 C256 C 0.53212 0.13560 0.03631
 H257 H 0.36013 0.14100 -0.02499
 H258 H 0.45599 0.11050 0.05086
 H259 H 0.47815 0.14684 -0.07036
 H260 H 0.53343 0.11465 -0.06281
 H261 H 0.63038 0.13819 0.01519
 H262 H 0.51274 0.14071 0.06141
 C263 C 0.61019 0.85983 -0.01415
 C264 C 0.59584 0.86964 0.02373
 C265 C 0.55512 0.87511 0.02930
 C266 C 0.52827 0.86867 -0.00207
 C267 C 0.54366 0.85948 -0.03991
 C268 C 0.58431 0.85575 -0.04622
 C269 C 0.48450 0.86890 0.00497
 C270 C 0.45798 0.87647 -0.02624
 C271 C 0.41704 0.87139 -0.02088
 C272 C 0.40228 0.86099 0.01673
 C273 C 0.42790 0.85549 0.04866
 C274 C 0.46871 0.85886 0.04251
 H275 H 0.64164 0.85689 -0.01901
 H276 H 0.54462 0.88361 0.05847
 H277 H 0.52429 0.85369 -0.06469
 H278 H 0.46884 0.88551 -0.05514
 H279 H 0.37073 0.85846 0.02150
 H280 H 0.48784 0.85206 0.06706
 C281 C -0.01967 0.39150 0.13129
 C282 C 0.01813 0.40605 0.12159
 C283 C 0.02393 0.44699 0.11648
 C284 C -0.00707 0.47380 0.12332
 C285 C -0.04486 0.45821 0.13223
 C286 C -0.05135 0.41738 0.13564
 C287 C 0.00042 0.51763 0.12422
 C288 C -0.03016 0.54478 0.11736
 C289 C -0.02427 0.58557 0.12370
 C290 C 0.01322 0.59962 0.13465
 C291 C 0.04452 0.57344 0.13945
 C292 C 0.03784 0.53275 0.13488
 H293 H -0.02479 0.35993 0.13406
 H294 H 0.05303 0.45769 0.10810
 H295 H -0.06940 0.47750 0.13823
 H296 H -0.05898 0.53449 0.10799
 H297 H 0.01834 0.63111 0.13815
 H298 H 0.06189 0.51313 0.14128
 C299 C -0.01393 0.60708 0.87288
 C300 C 0.02308 0.59294 0.88388
 C301 C 0.02775 0.55215 0.88996
 C302 C -0.00360 0.52507 0.88273
 C303 C -0.04063 0.54027 0.87239
 C304 C -0.04602 0.58099 0.86797
 C305 C 0.00296 0.48129 0.88247
 C306 C -0.02850 0.45408 0.88890
 C307 C -0.02346 0.41332 0.88256
 C308 C 0.01398 0.39936 0.87216
 C309 C 0.04609 0.42562 0.86778
 C310 C 0.04031 0.46630 0.87238
 H311 H -0.01808 0.63857 0.86936
 H312 H 0.05628 0.54177 0.89921
 H313 H -0.06528 0.52071 0.86590
 H314 H -0.05736 0.46433 0.89773
 H315 H 0.01832 0.36789 0.86851
 H316 H 0.06497 0.48604 0.86622
 N317 N 0.38449 0.09691 0.08036
 N318 N 0.35513 0.09919 0.10649
 C319 C 0.32941 0.12551 0.09200
 C320 C 0.34382 0.13920 0.05609
 N321 N 0.37824 0.12060 0.04981
 H322 H 0.33111 0.16137 0.03708
 N323 N 0.61699 0.89839 0.08698
 N324 N 0.64609 0.89529 0.11286
 C325 C 0.67078 0.86766 0.09845
 C326 C 0.65603 0.85406 0.06272
 N327 N 0.62246 0.87402 0.05661
 H328 H 0.66802 0.83140 0.04350
 N329 N 0.60502 0.10145 -0.09282
 N330 N 0.63467 0.10512 -0.11855
 C331 C 0.66087 0.13081 -0.10244
 C332 C 0.64646 0.14266 -0.06596
 N333 N 0.61157 0.12363 -0.06098
 H334 H 0.65961 0.16374 -0.04554
 N335 N 0.39758 0.89966 -0.08462
 N336 N 0.36802 0.89735 -0.11018
 C337 C 0.34144 0.87135 -0.09495
 C338 C 0.35553 0.85788 -0.05922
 N339 N 0.39059 0.87632 -0.05372
 H340 H 0.34194 0.83627 -0.03957
 N341 N 0.08205 0.38619 0.09434
 N342 N 0.10753 0.35694 0.09748
 C343 C 0.09184 0.33086 0.12364
 C344 C 0.05585 0.34491 0.13632
 N345 N 0.05074 0.37948 0.11729
 H346 H 0.03585 0.33177 0.15795
 N347 N 0.08557 0.61516 0.91317
 N348 N 0.11155 0.64473 0.90976
 C349 C 0.09808 0.66887 0.88117
 C350 C 0.06292 0.65330 0.86731
 N351 N 0.05608 0.61986 0.88808
 H352 H 0.04445 0.66477 0.84403
 N353 N -0.08628 0.60760 0.09468
 N354 N -0.11126 0.63735 0.09788
 C355 C -0.09677 0.66199 0.12599
 C356 C -0.06199 0.64650 0.13979
 N357 N -0.05641 0.61261 0.11946
 H358 H -0.04296 0.65834 0.16275
 N359 N -0.08721 0.39110 0.90983
 N360 N -0.11317 0.36170 0.90530
 C361 C -0.09846 0.33754 0.87702
 C362 C -0.06254 0.35292 0.86452
 N363 N -0.05653 0.38629 0.88575
 H364 H -0.04308 0.34147 0.84170
 N365 N 0.09450 0.08127 0.39060
 N366 N 0.09618 0.10670 0.36066
 C367 C 0.12398 0.09346 0.33521
 C368 C 0.13919 0.05907 0.35036
 N369 N 0.11999 0.05238 0.38491
 H370 H 0.16248 0.04116 0.33790
 N371 N 0.90769 0.09003 0.60899
 N372 N 0.90420 0.11616 0.63824
 C373 C 0.87593 0.10204 0.66304
 C374 C 0.86230 0.06636 0.64820
 N375 N 0.88291 0.05984 0.61450
 H376 H 0.83927 0.04734 0.66036
 N377 N 0.10015 -0.08638 0.61413
 N378 N 0.10296 -0.11162 0.64404
 C379 C 0.12954 -0.09603 0.66948
 C380 C 0.14285 -0.06034 0.65434
 N381 N 0.12374 -0.05532 0.61980
 H382 H 0.16474 -0.04037 0.66686
 N383 N 0.91031 -0.08347 0.38725
 N384 N 0.90738 -0.10982 0.35810
 C385 C 0.87890 -0.09711 0.33363
 C386 C 0.86457 -0.06206 0.34859
 N387 N 0.88497 -0.05447 0.38200
 H388 H 0.84106 -0.04430 0.33678
 N389 N 0.58435 0.86479 -0.11802
 N390 N 0.60522 0.85441 -0.14973
 C391 C 0.63402 0.83071 -0.13670
 C392 C 0.63043 0.82698 -0.09610
 N393 N 0.59912 0.84875 -0.08559
 H394 H 0.64889 0.81040 -0.07619
 N395 N 0.41922 0.13890 -0.12424
 N396 N 0.39874 0.15078 -0.15528
 C397 C 0.36940 0.17331 -0.14084
 C398 C 0.37225 0.17479 -0.10009
 N399 N 0.40368 0.15286 -0.09090
 H400 H 0.35319 0.18991 -0.07922
 N401 N 0.42842 0.86026 0.12102
 N402 N 0.40646 0.84939 0.15198
 C403 C 0.37581 0.82820 0.13740
 C404 C 0.37945 0.82649 0.09670
 N405 N 0.41259 0.84694 0.08760
 H406 H 0.35972 0.81222 0.07577
 N407 N 0.57482 0.12440 0.11326
 N408 N 0.59611 0.13382 0.14486
 C409 C 0.62290 0.16118 0.13279
 C410 C 0.61774 0.16810 0.09292
 N411 N 0.58752 0.14453 0.08185
 H412 H 0.63485 0.18751 0.07366
 N413 N -0.11785 0.58146 0.87355
 N414 N -0.14799 0.60289 0.86158
 C415 C -0.13274 0.63159 0.83805
 C416 C -0.09241 0.62724 0.83597
 N417 N -0.08430 0.59577 0.85865
 H418 H -0.07097 0.64549 0.82022
 N419 N -0.12248 0.41599 0.12559
 N420 N -0.15399 0.39498 0.13662
 C421 C -0.14122 0.36732 0.16209
 C422 C -0.10101 0.37171 0.16622
 N423 N -0.09046 0.40235 0.14290
 H424 H -0.08134 0.35417 0.18399
 N425 N 0.11809 0.42785 0.87084
 N426 N 0.14879 0.40705 0.85864
 C427 C 0.13408 0.37635 0.83754
 C428 C 0.09359 0.37875 0.83727
 N429 N 0.08472 0.41121 0.85847
 H430 H 0.07267 0.35876 0.82323
 N431 N 0.11642 0.57216 0.13485
 N432 N 0.14747 0.59362 0.14603
 C433 C 0.13336 0.62389 0.16778
 C434 C 0.09286 0.62059 0.16949
 N435 N 0.08340 0.58802 0.14847
 H436 H 0.07231 0.64033 0.18392
 N437 N 0.88065 -0.11395 0.58226
 N438 N 0.87108 -0.14496 0.60453
 C439 C 0.84325 -0.13271 0.63042
 C440 C 0.83617 -0.09330 0.62371
 N441 N 0.86015 -0.08271 0.59347
 H442 H 0.81650 -0.07396 0.63990
 N443 N 0.13303 -0.11957 0.42309
 N444 N 0.14304 -0.15064 0.40137
 C445 C 0.16866 -0.13727 0.37352
 C446 C 0.17387 -0.09710 0.37842
 N447 N 0.15105 -0.08720 0.40964
 H448 H 0.19126 -0.07688 0.36027
 N449 N 0.86285 0.11950 0.42162
 N450 N 0.85048 0.14973 0.40026
 C451 C 0.83116 0.13410 0.36896
 C452 C 0.83214 0.09349 0.37156
 N453 N 0.85228 0.08552 0.40479
 H454 H 0.81962 0.07194 0.35123
 N455 N 0.12504 0.11727 0.58309
 N456 N 0.13454 0.14921 0.60402
 C457 C 0.16287 0.13826 0.62946
 C458 C 0.17029 0.09868 0.62392
 N459 N 0.14602 0.08670 0.59477
 H460 H 0.19040 0.08019 0.64016
   
