data_POSCAR
  _audit_creation_date              2014-09-24
  _audit_creation_method            'ToBaCCo'
  _symmetry_space_group_name_H-M    'P1'
  _symmetry_Int_Tables_number       1
  _symmetry_cell_setting            triclinic
  loop_
  _symmetry_equiv_pos_as_xyz
 x,y,z
_cell_length_a 18.0446
_cell_length_b 17.8492
_cell_length_c 18.4371
_cell_angle_alpha 90.169200
_cell_angle_beta 90.254000
_cell_angle_gamma 90.025100
loop_
  _atom_site_label
  _atom_site_type_symbol
  _atom_site_fract_x
  _atom_site_fract_y
  _atom_site_fract_z
C1 C 0.42152 1.00101 -0.65137
 C2 C 0.49055 0.99844 -0.68691
 C3 C 0.55882 0.99631 -0.64902
 C4 C 0.55672 1.00093 -0.57179
 C5 C 0.48798 0.99592 -0.53475
 C6 C 0.42019 0.99670 -0.57437
 C7 C 0.35318 0.99877 -0.53541
 C8 C 0.35236 0.99492 -0.46019
 C9 C 0.41854 0.99186 -0.42011
 C10 C 0.48702 0.99370 -0.45736
 C11 C 0.62091 1.01584 -0.53047
 C12 C 0.62006 1.01253 -0.45515
 C13 C 0.55451 0.99603 -0.41743
 C14 C 0.55390 0.98757 -0.34050
 C15 C 0.48473 0.98649 -0.30506
 C16 C 0.41769 0.98987 -0.34352
 H17 H 0.30015 1.00443 -0.56215
 H18 H 0.29896 0.99546 -0.43365
 H19 H 0.67287 1.02991 -0.55607
 H20 H 0.67148 1.02360 -0.42670
 H21 H 0.49044 0.99619 -0.74571
 H22 H 0.48258 0.98216 -0.24644
 C23 C -0.67471 1.44107 -0.03471
 C24 C -0.70777 1.51184 -0.03563
 C25 C -0.66549 1.57633 -0.02360
 C26 C -0.58775 1.57074 -0.01692
 C27 C -0.55320 1.50014 -0.02486
 C28 C -0.59685 1.43468 -0.03241
 C29 C -0.56161 1.36452 -0.03513
 C30 C -0.48501 1.35927 -0.03457
 C31 C -0.44081 1.42378 -0.02901
 C32 C -0.47494 1.49475 -0.02263
 C33 C -0.54382 1.63381 -0.00175
 C34 C -0.46784 1.62752 0.00529
 C35 C -0.43129 1.55986 -0.01079
 C36 C -0.35272 1.55429 -0.01115
 C37 C -0.32040 1.48358 -0.02347
 C38 C -0.36322 1.41873 -0.02841
 H39 H -0.59244 1.31275 -0.03852
 H40 H -0.46080 1.30392 -0.03849
 H41 H -0.56764 1.68876 0.00634
 H42 H -0.43881 1.67693 0.02369
 H43 H -0.76776 1.51598 -0.03783
 H44 H -0.26062 1.47821 -0.02671
 C45 C -0.02223 0.43098 0.34977
 C46 C -0.01816 0.50012 0.31345
 C47 C -0.01385 0.56797 0.35162
 C48 C -0.01180 0.56765 0.42810
 C49 C -0.01901 0.49903 0.46567
 C50 C -0.02863 0.43128 0.42645
 C51 C -0.04797 0.36621 0.46469
 C52 C -0.04911 0.36586 0.53995
 C53 C -0.02795 0.42962 0.58018
 C54 C -0.01772 0.49814 0.54269
 C55 C -0.00447 0.63448 0.46790
 C56 C -0.00295 0.63371 0.54326
 C57 C -0.00844 0.56599 0.58185
 C58 C -0.00908 0.56465 0.65854
 C59 C -0.01426 0.49587 0.69472
 C60 C -0.02060 0.42748 0.65699
 H61 H -0.06262 0.31495 0.43658
 H62 H -0.06571 0.31453 0.56636
 H63 H 0.00014 0.68817 0.44112
 H64 H 0.00212 0.68702 0.57089
 H65 H -0.01597 0.50134 0.25469
 H66 H -0.01114 0.49599 0.75352
 O67 O -0.20472 0.98115 -0.08959
 O68 O 0.17795 1.00610 -0.09714
 O69 O -0.02495 1.09489 -0.18549
 O70 O -0.00925 0.89060 -0.18264
 O71 O 0.00087 0.80339 -0.09089
 O72 O -0.02676 1.18584 -0.09686
 O73 O 0.08696 0.99599 -0.18546
 O74 O -0.11822 0.98978 -0.18132
 Zr75 Zr -0.01421 0.99413 -0.12585
 O76 O 0.05979 0.93366 -0.06352
 O77 O -0.08461 1.05678 -0.06208
 C78 C -0.18600 0.98461 -0.15741
 C79 C 0.15578 1.00033 -0.16384
 C80 C -0.02719 1.16423 -0.16415
 C81 C -0.00436 0.82242 -0.15845
 H82 H 0.07807 1.10083 -0.09669
 O83 O 0.04921 1.06728 -0.06496
 H84 H -0.10456 0.88952 -0.08910
 O85 O -0.07411 0.92411 -0.05983
 O86 O 0.18227 1.01496 0.09691
 O87 O -0.19980 0.98466 0.10521
 O88 O 0.07189 1.19666 0.00242
 O89 O 0.10150 0.81429 -0.00029
 O90 O -0.09136 0.79609 0.00667
 O91 O -0.12367 1.17953 -0.00369
 O92 O -0.01196 1.10289 0.18948
 O93 O -0.00580 0.89864 0.19272
 O94 O -0.02142 1.19013 0.09792
 O95 O 0.00370 0.80826 0.10351
 O96 O 0.17015 1.11419 -0.00070
 O97 O -0.20879 1.08296 -0.00022
 O98 O -0.19034 0.87673 0.01262
 O99 O 0.18668 0.91057 -0.00197
 O100 O 0.09571 1.00735 0.18874
 O101 O -0.10921 0.99570 0.19340
 Zr102 Zr 0.11903 1.00716 0.00106
 Zr103 Zr -0.14139 0.98589 0.00650
 Zr104 Zr -0.02071 1.12631 0.00148
 Zr105 Zr -0.00083 0.86771 0.00512
 Zr106 Zr -0.00834 0.99962 0.13294
 O107 O -0.07161 0.92529 0.07257
 O108 O 0.05262 1.07078 0.06792
 C109 C 0.16341 1.01393 0.16467
 C110 C -0.17816 0.98997 0.17232
 C111 C 0.14165 1.18103 0.00107
 C112 C 0.16794 0.84048 -0.00321
 C113 C -0.16096 0.80978 0.01216
 C114 C -0.19024 1.15306 -0.00540
 C115 C -0.01616 1.17118 0.16565
 C116 C -0.00194 0.82975 0.17037
 H117 H -0.11469 1.09126 0.09923
 O118 O -0.08143 1.05982 0.06949
 H119 H 0.09656 0.90684 0.09960
 O120 O 0.06223 0.93669 0.06935
 C121 C 0.34516 1.07176 0.25911
 C122 C 0.35597 1.00933 0.30597
 C123 C 0.30045 0.95390 0.30858
 C124 C 0.23635 0.95878 0.26592
 C125 C 0.22591 1.01821 0.21756
 C126 C 0.28032 1.07574 0.21443
 C127 C 0.39593 1.13225 0.25789
 C128 C 0.38543 1.19268 0.21144
 C129 C 0.32353 1.19538 0.16657
 C130 C 0.27085 1.13829 0.16865
 H131 H 0.44372 1.13424 0.29339
 H132 H 0.42527 1.23804 0.21070
 H133 H 0.31602 1.24261 0.13078
 H134 H 0.22223 1.14416 0.13496
 H135 H 0.30762 0.90518 0.34284
 H136 H 0.19614 0.91374 0.26817
 C137 C -0.31235 0.94430 0.32911
 C138 C -0.37348 0.99188 0.31036
 C139 C -0.36592 1.03735 0.24862
 C140 C -0.30145 1.03723 0.20742
 C141 C -0.23955 0.99394 0.22672
 C142 C -0.24345 0.95007 0.29082
 C143 C -0.31914 0.88785 0.38236
 C144 C -0.25777 0.84665 0.40501
 C145 C -0.18887 0.85923 0.37401
 C146 C -0.18180 0.90931 0.31658
 H147 H -0.37187 0.87508 0.40705
 H148 H -0.26369 0.80470 0.44678
 H149 H -0.14122 0.82752 0.39233
 H150 H -0.12781 0.91424 0.29234
 H151 H -0.41002 1.07493 0.23222
 H152 H -0.29990 1.07207 0.15937
 C153 C -0.32056 0.93216 -0.31320
 C154 C -0.38006 0.98263 -0.29775
 C155 C -0.37362 1.02905 -0.23637
 C156 C -0.31013 1.02897 -0.19341
 C157 C -0.24890 0.98393 -0.21017
 C158 C -0.25364 0.93495 -0.27095
 C159 C -0.32790 0.87533 -0.36642
 C160 C -0.26954 0.82679 -0.38167
 C161 C -0.20308 0.83277 -0.34379
 C162 C -0.19526 0.88555 -0.28847
 H163 H -0.37918 0.86689 -0.39585
 H164 H -0.27619 0.78373 -0.42260
 H165 H -0.15800 0.79478 -0.35589
 H166 H -0.14359 0.88565 -0.25895
 H167 H -0.41767 1.06755 -0.22209
 H168 H -0.30892 1.06513 -0.14614
 C169 C 0.31203 1.06456 -0.28841
 C170 C 0.34727 0.99494 -0.30174
 C171 C 0.31550 0.92908 -0.27475
 C172 C 0.25060 0.93146 -0.23371
 C173 C 0.21550 0.99972 -0.21858
 C174 C 0.24597 1.06693 -0.24628
 C175 C 0.34190 1.13221 -0.31500
 C176 C 0.30746 1.20051 -0.30054
 C177 C 0.24328 1.20281 -0.25907
 C178 C 0.21285 1.13680 -0.23186
 H179 H 0.39205 1.13294 -0.34696
 H180 H 0.33079 1.25194 -0.32144
 H181 H 0.21672 1.25600 -0.24807
 H182 H 0.16282 1.14089 -0.19998
 H183 H 0.34187 0.87552 -0.28463
 H184 H 0.22889 0.87980 -0.21154
 C185 C 0.24124 1.36406 0.04410
 C186 C 0.27709 1.37541 -0.02320
 C187 C 0.27001 1.32215 -0.07852
 C188 C 0.22957 1.25708 -0.06725
 C189 C 0.19158 1.24561 -0.00247
 C190 C 0.19602 1.29970 0.05369
 C191 C 0.25054 1.41467 0.10260
 C192 C 0.21410 1.40334 0.16793
 C193 C 0.16838 1.34150 0.17652
 C194 C 0.15900 1.28995 0.12023
 H195 H 0.28655 1.46289 0.09905
 H196 H 0.22171 1.44250 0.21229
 H197 H 0.14141 1.33313 0.22766
 H198 H 0.12452 1.24155 0.12998
 H199 H 0.29772 1.33018 -0.12995
 H200 H 0.22608 1.21608 -0.11003
 C201 C 0.29349 0.68279 0.05209
 C202 C 0.29768 0.64471 -0.01566
 C203 C 0.26563 0.67635 -0.07761
 C204 C 0.23009 0.74500 -0.07372
 C205 C 0.22505 0.78340 -0.00777
 C206 C 0.25735 0.75334 0.05569
 C207 C 0.32140 0.65087 0.11678
 C208 C 0.31525 0.68868 0.18281
 C209 C 0.28075 0.75834 0.18596
 C210 C 0.25162 0.79047 0.12317
 H211 H 0.34754 0.59633 0.11698
 H212 H 0.33706 0.66362 0.23184
 H213 H 0.27600 0.78732 0.23738
 H214 H 0.22474 0.84446 0.12784
 H215 H 0.26807 0.64759 -0.12943
 H216 H 0.20279 0.76657 -0.12182
 C217 C -0.24353 0.61403 0.04790
 C218 C -0.30573 0.61704 0.00040
 C219 C -0.31811 0.68304 -0.03932
 C220 C -0.27399 0.74601 -0.02956
 C221 C -0.20992 0.74295 0.01302
 C222 C -0.19190 0.67442 0.04934
 C223 C -0.23259 0.55311 0.09591
 C224 C -0.16663 0.54504 0.13414
 C225 C -0.11169 0.59871 0.12778
 C226 C -0.12490 0.66365 0.08813
 H227 H -0.27459 0.51082 0.10417
 H228 H -0.15815 0.49695 0.16862
 H229 H -0.05972 0.59174 0.15645
 H230 H -0.08197 0.70466 0.09055
 H231 H -0.36245 0.68609 -0.07904
 H232 H -0.28721 0.79612 -0.06006
 C233 C -0.30030 1.30956 -0.09079
 C234 C -0.32515 1.34556 -0.02702
 C235 C -0.31434 1.31169 0.04061
 C236 C -0.27601 1.24443 0.04627
 C237 C -0.24791 1.20946 -0.01564
 C238 C -0.26105 1.24083 -0.08501
 C239 C -0.31234 1.34104 -0.15994
 C240 C -0.28615 1.30523 -0.22213
 C241 C -0.24741 1.23800 -0.21651
 C242 C -0.23432 1.20621 -0.14864
 H243 H -0.34195 1.39335 -0.16638
 H244 H -0.29569 1.32990 -0.27491
 H245 H -0.22679 1.21069 -0.26488
 H246 H -0.20324 1.15443 -0.14637
 H247 H -0.33385 1.33887 0.08957
 H248 H -0.26451 1.22173 0.09961
 C249 C 0.03387 1.30572 0.32228
 C250 C -0.01895 1.36375 0.30855
 C251 C -0.06790 1.35559 0.24979
 C252 C -0.06717 1.29191 0.20639
 C253 C -0.01687 1.23361 0.21902
 C254 C 0.03456 1.24009 0.27737
 C255 C 0.09078 1.31455 0.37484
 C256 C 0.14441 1.25948 0.38520
 C257 C 0.14427 1.19540 0.34236
 C258 C 0.09074 1.18604 0.28849
 H259 H 0.09625 1.36498 0.40691
 H260 H 0.18748 1.26747 0.42552
 H261 H 0.18710 1.15357 0.34959
 H262 H 0.09608 1.13732 0.25443
 H263 H -0.10867 1.39842 0.23827
 H264 H -0.10649 1.28832 0.16188
 C265 C 0.02339 1.29567 -0.32192
 C266 C -0.02023 1.35950 -0.30269
 C267 C -0.06499 1.35505 -0.24083
 C268 C -0.06789 1.29045 -0.19941
 C269 C -0.02887 1.22556 -0.21895
 C270 C 0.01491 1.22676 -0.28323
 C271 C 0.07835 1.29989 -0.37633
 C272 C 0.11566 1.23613 -0.39970
 C273 C 0.10134 1.16746 -0.36766
 C274 C 0.05316 1.16283 -0.30896
 H275 H 0.09287 1.35243 -0.40160
 H276 H 0.15610 1.24007 -0.44267
 H277 H 0.13036 1.11793 -0.38620
 H278 H 0.04780 1.10845 -0.28481
 H279 H -0.09919 1.40197 -0.22436
 H280 H -0.10129 1.29157 -0.15073
 C281 C -0.07731 0.65405 -0.26496
 C282 C -0.01119 0.63071 -0.29967
 C283 C 0.05346 0.67382 -0.29166
 C284 C 0.05418 0.73757 -0.24765
 C285 C -0.00972 0.76013 -0.21086
 C286 C -0.07648 0.71903 -0.22007
 C287 C -0.14502 0.61553 -0.27606
 C288 C -0.21016 0.64062 -0.24398
 C289 C -0.20925 0.70391 -0.20003
 C290 C -0.14309 0.74204 -0.18688
 H291 H -0.14869 0.56680 -0.31095
 H292 H -0.26177 0.61135 -0.25398
 H293 H -0.26047 0.72437 -0.17730
 H294 H -0.14541 0.79115 -0.15287
 H295 H 0.10422 0.65688 -0.31829
 H296 H 0.10547 0.76843 -0.24070
 C297 C -0.08015 0.67478 0.28903
 C298 C -0.01346 0.63886 0.30987
 C299 C 0.05477 0.66947 0.28937
 C300 C 0.05775 0.73407 0.24714
 C301 C -0.00741 0.76951 0.22431
 C302 C -0.07713 0.74005 0.24501
 C303 C -0.14991 0.64533 0.30849
 C304 C -0.21518 0.67823 0.28329
 C305 C -0.21226 0.74075 0.23846
 C306 C -0.14406 0.77178 0.21968
 H307 H -0.15455 0.59610 0.34230
 H308 H -0.26827 0.65469 0.29805
 H309 H -0.26305 0.76569 0.21852
 H310 H -0.14425 0.82026 0.18458
 H311 H 0.10600 0.64226 0.30512
 H312 H 0.11122 0.75527 0.23022
   
