data_POSCAR
  _audit_creation_date              2014-09-24
  _audit_creation_method            'ToBaCCo'
  _symmetry_space_group_name_H-M    'P1'
  _symmetry_Int_Tables_number       1
  _symmetry_cell_setting            triclinic
  loop_
  _symmetry_equiv_pos_as_xyz
 x,y,z
_cell_length_a 54.6480
_cell_length_b 52.3685
_cell_length_c 54.6660
_cell_angle_alpha 90.005400
_cell_angle_beta 91.053600
_cell_angle_gamma 89.792200
loop_
  _atom_site_label
  _atom_site_type_symbol
  _atom_site_fract_x
  _atom_site_fract_y
  _atom_site_fract_z
C1 C 0.24504 0.49822 0.99954
 C2 C 0.74891 0.49275 -0.00544
 C3 C -0.00099 0.25464 0.50456
 C4 C 1.00249 0.75289 0.49054
 C5 C 0.49686 0.00512 0.25680
 C6 C 0.50444 -0.01439 0.74838
 C7 C 0.29171 0.02552 0.47635
 H8 H 0.29305 0.03915 0.49118
 C9 C 0.30859 0.02612 0.45751
 H10 H 0.32303 0.04022 0.45813
 C11 C 0.27182 -0.01016 0.45834
 H12 H 0.25768 -0.02448 0.45892
 C13 C 0.28827 -0.01018 0.43907
 H14 H 0.28626 -0.02430 0.42472
 N15 N 0.27379 0.00759 0.47643
 C16 C 0.21718 0.03994 0.52247
 H17 H 0.21638 0.02566 0.53673
 C18 C 0.20145 0.06098 0.52292
 H19 H 0.18856 0.06291 0.53763
 C20 C 0.23424 0.05425 0.48536
 H21 H 0.24676 0.05132 0.47054
 C22 C 0.21848 0.07531 0.48483
 H23 H 0.21919 0.08868 0.46975
 Zn24 Zn 0.25291 0.00723 0.50365
 N25 N 0.23335 0.03711 0.50403
 C26 C 0.27201 0.02245 0.55043
 N27 N 0.27317 0.00499 0.53206
 C28 C 0.28985 -0.01433 0.53280
 C29 C 0.30599 -0.01688 0.55272
 C30 C 0.28769 0.02050 0.57082
 C31 C 0.21380 -0.02034 0.48382
 C32 C 0.19640 -0.03973 0.48206
 C33 C 0.21545 -0.06010 0.51724
 C34 C 0.23237 -0.04018 0.51846
 N35 N 0.23132 -0.02089 0.50179
 H36 H 0.25909 0.03806 0.54930
 H37 H 0.29072 -0.02765 0.51771
 H38 H 0.31942 -0.03212 0.55262
 H39 H 0.28617 0.03437 0.58540
 H40 H 0.21323 -0.00463 0.47097
 H41 H 0.18261 -0.03899 0.46760
 H42 H 0.21633 -0.07514 0.53082
 H43 H 0.24609 -0.04002 0.53293
 C44 C 0.20188 0.07883 0.50381
 C45 C 0.30707 0.00806 0.43854
 C46 C 0.19706 -0.05991 0.49897
 C47 C 0.30503 0.00065 0.57216
 C48 C 0.71239 0.02001 0.53860
 H49 H 0.71019 0.03541 0.52554
 C50 C 0.69732 0.01885 0.55892
 H51 H 0.68349 0.03343 0.56144
 C52 C 0.73228 -0.01844 0.55052
 H53 H 0.74566 -0.03315 0.54698
 C54 C 0.71738 -0.02053 0.57089
 H55 H 0.71963 -0.03671 0.58306
 N56 N 0.72953 0.00160 0.53486
 C57 C 0.78582 0.03291 0.48829
 H58 H 0.78691 0.01770 0.47496
 C59 C 0.80287 0.05268 0.48812
 H60 H 0.81696 0.05277 0.47444
 C61 C 0.76663 0.05083 0.52287
 H62 H 0.75296 0.04971 0.53681
 C63 C 0.78307 0.07122 0.52310
 H64 H 0.78182 0.08569 0.53718
 Zn65 Zn 0.74802 0.00290 0.50597
 N66 N 0.76828 0.03221 0.50560
 C67 C 0.72699 0.02134 0.46130
 N68 N 0.72570 0.00328 0.47910
 C69 C 0.70762 -0.01448 0.47886
 C70 C 0.68993 -0.01464 0.46012
 C71 C 0.70974 0.02180 0.44211
 C72 C 0.78856 -0.02623 0.52002
 C73 C 0.80576 -0.04593 0.51898
 C74 C 0.78189 -0.06517 0.48626
 C75 C 0.76529 -0.04486 0.48768
 N76 N 0.76892 -0.02593 0.50439
 H77 H 0.74133 0.03548 0.46198
 H78 H 0.70680 -0.02837 0.49347
 H79 H 0.67543 -0.02864 0.46061
 H80 H 0.71130 0.03611 0.42794
 H81 H 0.79106 -0.01085 0.53302
 H82 H 0.82144 -0.04574 0.53138
 H83 H 0.77901 -0.07992 0.47263
 H84 H 0.74974 -0.04410 0.47520
 C85 C 0.80166 0.07206 0.50577
 C86 C 0.69957 -0.00178 0.57520
 C87 C 0.80258 -0.06563 0.50184
 C88 C 0.69081 0.00369 0.44137
 C89 C 0.47859 0.20507 1.02074
 H90 H 0.46456 0.20451 1.00652
 C91 C 0.47769 0.18804 1.04036
 H92 H 0.46267 0.17467 1.04131
 C93 C 0.51524 0.22313 1.03662
 H94 H 0.53020 0.23635 1.03486
 C95 C 0.51503 0.20651 1.05658
 H96 H 0.52983 0.20726 1.07000
 N97 N 0.49699 0.22240 1.01937
 C98 C 0.47009 0.28630 0.97519
 H99 H 0.48506 0.28802 0.96262
 C100 C 0.45106 0.30415 0.97457
 H101 H 0.45135 0.31952 0.96132
 C102 C 0.45167 0.26430 1.00792
 H103 H 0.45218 0.24907 1.02122
 C104 C 0.43209 0.28153 1.00770
 H105 H 0.41764 0.27936 1.02083
 Zn106 Zn 0.49730 0.24437 0.99175
 N107 N 0.47006 0.26684 0.99166
 C108 C 0.47973 0.22709 0.94518
 N109 N 0.49653 0.22350 0.96355
 C110 C 0.51293 0.20395 0.96294
 C111 C 0.51268 0.18680 0.94341
 C112 C 0.47904 0.21054 0.92511
 C113 C 0.52938 0.28123 1.01096
 C114 C 0.54980 0.29715 1.01169
 C115 C 0.56212 0.27961 0.97293
 C116 C 0.54166 0.26371 0.97316
 N117 N 0.52586 0.26471 0.99207
 H118 H 0.46666 0.24256 0.94617
 H119 H 0.52600 0.20150 0.97787
 H120 H 0.52574 0.17121 0.94330
 H121 H 0.46535 0.21336 0.91078
 H122 H 0.51629 0.28194 1.02557
 H123 H 0.55249 0.30961 1.02729
 H124 H 0.57405 0.27893 0.95735
 H125 H 0.53820 0.25093 0.95798
 C126 C 0.43173 0.30183 0.99095
 C127 C 0.49604 0.18869 1.05868
 C128 C 0.56649 0.29664 0.99240
 C129 C 0.49548 0.18993 0.92426
 C130 C 0.48273 0.78087 -0.02618
 H131 H 0.46732 0.78117 -0.01403
 C132 C 0.48228 0.79581 -0.04730
 H133 H 0.46619 0.80723 -0.05145
 C134 C 0.52220 0.76517 -0.03546
 H135 H 0.53788 0.75351 -0.03053
 C136 C 0.52266 0.78007 -0.05664
 H137 H 0.53887 0.77976 -0.06772
 N138 N 0.50238 0.76579 -0.02079
 C139 C 0.47040 0.71055 0.02891
 H140 H 0.48199 0.71302 0.04498
 C141 C 0.45114 0.69311 0.02930
 H142 H 0.44774 0.68283 0.04605
 C143 C 0.46090 0.72125 -0.01226
 H144 H 0.46516 0.73173 -0.02864
 C145 C 0.44179 0.70363 -0.01286
 H146 H 0.43167 0.70088 -0.02985
 Zn147 Zn 0.50182 0.74692 0.00863
 N148 N 0.47463 0.72454 0.00849
 C149 C 0.48111 0.77124 0.05020
 N150 N 0.50024 0.77081 0.03462
 C151 C 0.51844 0.78838 0.03636
 C152 C 0.51826 0.80687 0.05476
 C153 C 0.48021 0.78937 0.06889
 C154 C 0.53169 0.70685 -0.00498
 C155 C 0.55127 0.68974 -0.00386
 C156 C 0.56770 0.71305 0.03084
 C157 C 0.54756 0.72956 0.02928
 N158 N 0.53014 0.72623 0.01146
 H159 H 0.46637 0.75772 0.04809
 H160 H 0.53311 0.78805 0.02334
 H161 H 0.53283 0.82080 0.05567
 H162 H 0.46505 0.78908 0.08136
 H163 H 0.51749 0.70457 -0.01885
 H164 H 0.55217 0.67435 -0.01706
 H165 H 0.58135 0.71571 0.04523
 H166 H 0.54577 0.74477 0.04247
 C167 C 0.43654 0.68930 0.00815
 C168 C 0.50252 0.79571 -0.06283
 C169 C 0.56953 0.69271 0.01426
 C170 C 0.49899 0.80748 0.07141
 C171 C 1.02991 0.47375 0.20811
 H172 H 1.01790 0.45742 0.20909
 C173 C 1.04944 0.47355 0.19199
 H174 H 1.05253 0.45699 0.18058
 C175 C 1.04015 0.51559 0.22128
 H176 H 1.03622 0.53205 0.23247
 C177 C 1.05950 0.51644 0.20496
 H178 H 1.07061 0.53347 0.20386
 N179 N 1.02586 0.49442 0.22257
 C180 C 0.97962 0.46198 0.27891
 H181 H 0.96446 0.47531 0.27811
 C182 C 0.97943 0.44179 0.29555
 H183 H 0.96404 0.43963 0.30758
 C184 C 1.01869 0.44936 0.26504
 H185 H 1.03423 0.45274 0.25359
 C186 C 1.01942 0.42915 0.28171
 H187 H 1.03537 0.41683 0.28263
 Zn188 Zn 0.99834 0.49414 0.24304
 N189 N 0.99890 0.46519 0.26383
 C190 C 0.95357 0.47490 0.22277
 N191 N 0.97016 0.49421 0.22237
 C192 C 0.96776 0.51383 0.20622
 C193 C 0.94778 0.51490 0.18998
 C194 C 0.93328 0.47523 0.20687
 C195 C 1.01744 0.52405 0.28053
 C196 C 1.01869 0.54391 0.29749
 C197 C 0.98181 0.56181 0.27933
 C198 C 0.98109 0.54139 0.26286
 N199 N 0.99883 0.52309 0.26371
 H200 H 0.95612 0.45905 0.23517
 H201 H 0.98152 0.52862 0.20590
 H202 H 0.94642 0.53053 0.17706
 H203 H 0.92012 0.45987 0.20770
 H204 H 1.03118 0.50912 0.28090
 H205 H 1.03361 0.54432 0.31080
 H206 H 0.96743 0.57609 0.27868
 H207 H 0.96617 0.54003 0.24971
 C208 C 0.99960 0.42521 0.29719
 C209 C 1.06432 0.49519 0.19020
 C210 C 1.00068 0.56306 0.29707
 C211 C 0.93016 0.49544 0.19018
 C212 C -0.03827 0.49382 0.78852
 H213 H -0.02314 0.48061 0.79090
 C214 C -0.05852 0.49208 0.80357
 H215 H -0.05848 0.47767 0.81775
 C216 C -0.05567 0.52948 0.76793
 H217 H -0.05433 0.54434 0.75436
 C218 C -0.07654 0.52811 0.78226
 H219 H -0.09124 0.54163 0.77894
 N220 N -0.03718 0.51227 0.77111
 C221 C 0.01366 0.48032 0.71880
 H222 H 0.02870 0.49361 0.72053
 C223 C 0.01531 0.45967 0.70279
 H224 H 0.03214 0.45698 0.69299
 C225 C -0.02619 0.46790 0.73003
 H226 H -0.04251 0.47148 0.74038
 C227 C -0.02565 0.44746 0.71361
 H228 H -0.04184 0.43579 0.71148
 Zn229 Zn -0.00818 0.51298 0.75270
 N230 N -0.00669 0.48382 0.73232
 C231 C 0.03597 0.49508 0.77582
 N232 N 0.01845 0.51362 0.77547
 C233 C 0.01866 0.53275 0.79232
 C234 C 0.03715 0.53390 0.81028
 C235 C 0.05503 0.49578 0.79316
 C236 C -0.02548 0.54444 0.71467
 C237 C -0.02495 0.56442 0.69779
 C238 C 0.01358 0.57803 0.71577
 C239 C 0.01203 0.55813 0.73270
 N240 N -0.00731 0.54182 0.73185
 H241 H 0.03511 0.47949 0.76295
 H242 H 0.00430 0.54703 0.79187
 H243 H 0.03708 0.54922 0.82359
 H244 H 0.06881 0.48086 0.79326
 H245 H -0.04024 0.53074 0.71389
 H246 H -0.03942 0.56615 0.68409
 H247 H 0.02925 0.59063 0.71631
 H248 H 0.02662 0.55530 0.74603
 C249 C -0.00467 0.44301 0.69963
 C250 C -0.07817 0.50928 0.80052
 C251 C -0.00510 0.58129 0.69809
 C252 C 0.05568 0.51531 0.81070
 C253 C 0.06773 0.21117 0.50246
 C254 C 0.06520 0.23084 0.51962
 C255 C 0.04376 0.24548 0.52016
 C256 C 0.02369 0.23986 0.50439
 C257 C 0.02725 0.22113 0.48615
 C258 C 0.04884 0.20689 0.48531
 C259 C 0.08965 0.19455 0.50285
 C260 C 0.10244 0.18969 0.48132
 C261 C 0.12215 0.17260 0.48145
 C262 C 0.12916 0.15957 0.50302
 C263 C 0.11647 0.16487 0.52465
 C264 C 0.09708 0.18234 0.52458
 C265 C 0.14886 0.13980 0.50280
 C266 C 0.16403 0.13565 0.52353
 C267 C 0.18140 0.11598 0.52381
 C268 C 0.18432 0.10037 0.50320
 C269 C 0.16976 0.10487 0.48225
 C270 C 0.15208 0.12420 0.48210
 H271 H 0.07996 0.23503 0.53248
 H272 H 0.04336 0.26126 0.53283
 H273 H 0.01285 0.21707 0.47285
 H274 H 0.05050 0.19200 0.47168
 H275 H 0.09713 0.19911 0.46439
 H276 H 0.13179 0.16952 0.46458
 H277 H 0.12093 0.15493 0.54150
 H278 H 0.08726 0.18559 0.54134
 H279 H 0.16252 0.14757 0.53961
 H280 H 0.19263 0.11297 0.54009
 H281 H 0.17152 0.09285 0.46624
 H282 H 0.14046 0.12637 0.46599
 C283 C 0.70053 0.55801 0.00956
 C284 C 0.72550 0.56159 0.00512
 C285 C 0.74071 0.54068 0.00036
 C286 C 0.73132 0.51557 -0.00087
 C287 C 0.70642 0.51222 0.00493
 C288 C 0.69128 0.53306 0.00958
 C289 C 0.68387 0.58001 0.01377
 C290 C 0.66482 0.57802 0.03060
 C291 C 0.64737 0.59739 0.03254
 C292 C 0.64872 0.61934 0.01792
 C293 C 0.66846 0.62205 0.00205
 C294 C 0.68584 0.60253 -0.00008
 C295 C 0.62863 0.63838 0.01799
 C296 C 0.63355 0.66468 0.01899
 C297 C 0.61433 0.68244 0.01829
 C298 C 0.58996 0.67415 0.01611
 C299 C 0.58510 0.64786 0.01522
 C300 C 0.60423 0.63016 0.01629
 H301 H 0.73336 0.58054 0.00559
 H302 H 0.75995 0.54410 -0.00267
 H303 H 0.69826 0.49357 0.00638
 H304 H 0.67213 0.52955 0.01301
 H305 H 0.66313 0.56124 0.04201
 H306 H 0.63254 0.59505 0.04522
 H307 H 0.66980 0.63874 -0.00954
 H308 H 0.70017 0.60458 -0.01335
 H309 H 0.65222 0.67145 0.02037
 H310 H 0.61849 0.70263 0.01890
 H311 H 0.56646 0.64101 0.01374
 H312 H 0.59996 0.61001 0.01523
 C313 C 0.93737 -0.19663 0.49012
 C314 C 0.96069 -0.18660 0.48604
 C315 C 0.98131 -0.20234 0.48596
 C316 C 0.97958 -0.22900 0.49000
 C317 C 0.95595 -0.23870 0.49477
 C318 C 0.93525 -0.22289 0.49463
 C319 C 0.91564 -0.17940 0.49012
 C320 C 0.89676 -0.18280 0.50698
 C321 C 0.87737 -0.16531 0.50806
 C322 C 0.87663 -0.14398 0.49250
 C323 C 0.89502 -0.14101 0.47517
 C324 C 0.91419 -0.15859 0.47387
 C325 C 0.85745 -0.12415 0.49498
 C326 C 0.86405 -0.09829 0.49617
 C327 C 0.84620 -0.07938 0.49861
 C328 C 0.82135 -0.08592 0.49960
 C329 C 0.81467 -0.11178 0.49826
 C330 C 0.83262 -0.13078 0.49621
 H331 H 0.96317 -0.16630 0.48332
 H332 H 0.99847 -0.19289 0.48301
 H333 H 0.95350 -0.25882 0.49856
 H334 H 0.91754 -0.23133 0.49785
 H335 H 0.89741 -0.19844 0.51992
 H336 H 0.86344 -0.16792 0.52167
 H337 H 0.89462 -0.12493 0.46270
 H338 H 0.92803 -0.15574 0.46023
 H339 H 0.88309 -0.09272 0.49546
 H340 H 0.85179 -0.05957 0.49940
 H341 H 0.79562 -0.11727 0.49909
 H342 H 0.82711 -0.15060 0.49525
 C343 C 0.29602 0.43375 0.99361
 C344 C 0.29080 0.44972 0.97354
 C345 C 0.27403 0.46975 0.97548
 C346 C 0.26110 0.47395 0.99724
 C347 C 0.26645 0.45779 1.01735
 C348 C 0.28352 0.43797 1.01549
 C349 C 0.31528 0.41362 0.99216
 C350 C 0.31299 0.39041 1.00486
 C351 C 0.33162 0.37205 1.00435
 C352 C 0.35293 0.37629 0.99090
 C353 C 0.35498 0.39927 0.97781
 C354 C 0.33651 0.41774 0.97857
 C355 C 0.37310 0.35707 0.99081
 C356 C 0.39769 0.36494 0.99031
 C357 C 0.41666 0.34699 0.99015
 C358 C 0.41153 0.32077 0.99084
 C359 C 0.38705 0.31280 0.99155
 C360 C 0.36803 0.33074 0.99137
 H361 H 0.29989 0.44699 0.95630
 H362 H 0.27127 0.48231 0.95993
 H363 H 0.25841 0.46098 1.03500
 H364 H 0.28763 0.42661 1.03160
 H365 H 0.29677 0.38640 1.01526
 H366 H 0.32948 0.35474 1.01489
 H367 H 0.37090 0.40306 0.96690
 H368 H 0.33916 0.43550 0.96886
 H369 H 0.40237 0.38500 0.99044
 H370 H 0.43541 0.35362 0.98995
 H371 H 0.38264 0.29266 0.99185
 H372 H 0.34935 0.32395 0.99134
 C373 C 0.93565 0.20378 0.51137
 C374 C 0.93254 0.22988 0.50619
 C375 C 0.95282 0.24592 0.50420
 C376 C 0.97693 0.23632 0.50674
 C377 C 0.97969 0.21044 0.51362
 C378 C 0.95949 0.19440 0.51533
 C379 C 0.91430 0.18621 0.51229
 C380 C 0.91435 0.16548 0.52869
 C381 C 0.89540 0.14766 0.52810
 C382 C 0.87574 0.15039 0.51144
 C383 C 0.87505 0.17159 0.49574
 C384 C 0.89422 0.18924 0.49604
 C385 C 0.85658 0.13054 0.50983
 C386 C 0.83166 0.13715 0.51007
 C387 C 0.81372 0.11815 0.50886
 C388 C 0.82045 0.09233 0.50684
 C389 C 0.84537 0.08580 0.50627
 C390 C 0.86326 0.10471 0.50794
 H391 H 0.91440 0.23799 0.50383
 H392 H 0.94969 0.26593 0.50025
 H393 H 0.99741 0.20223 0.51793
 H394 H 0.96270 0.17444 0.51948
 H395 H 0.92913 0.16287 0.54191
 H396 H 0.89612 0.13165 0.54064
 H397 H 0.86011 0.17398 0.48263
 H398 H 0.89367 0.20475 0.48295
 H399 H 0.82611 0.15695 0.51158
 H400 H 0.79460 0.12361 0.50926
 H401 H 0.85100 0.06601 0.50493
 H402 H 0.88237 0.09919 0.50752
 C403 C 0.30169 0.55730 0.00226
 C404 C 0.28574 0.55589 -0.01804
 C405 C 0.26760 0.53717 -0.01928
 C406 C 0.26409 0.52010 0.00039
 C407 C 0.28084 0.52137 0.02039
 C408 C 0.29930 0.53970 0.02133
 C409 C 0.32122 0.57670 0.00327
 C410 C 0.34567 0.56935 0.00711
 C411 C 0.36420 0.58765 0.00788
 C412 C 0.35861 0.61381 0.00535
 C413 C 0.33395 0.62106 0.00173
 C414 C 0.31550 0.60266 0.00044
 C415 C 0.37839 0.63337 0.00638
 C416 C 0.37659 0.65583 -0.00767
 C417 C 0.39518 0.67408 -0.00678
 C418 C 0.41635 0.67019 0.00780
 C419 C 0.41817 0.64770 0.02181
 C420 C 0.39936 0.62969 0.02130
 H421 H 0.28782 0.56885 -0.03330
 H422 H 0.25690 0.53592 -0.03603
 H423 H 0.27957 0.50800 0.03542
 H424 H 0.31163 0.54027 0.03705
 H425 H 0.35047 0.54935 0.00909
 H426 H 0.38294 0.58120 0.01010
 H427 H 0.32879 0.64097 0.00022
 H428 H 0.29668 0.60872 -0.00233
 H429 H 0.36097 0.65925 -0.01968
 H430 H 0.39283 0.69131 -0.01751
 H431 H 0.43428 0.64372 0.03297
 H432 H 0.40129 0.61293 0.03274
 C433 C 0.06634 -0.19610 0.49192
 C434 C 0.05804 -0.20708 0.51367
 C435 C 0.03826 -0.22394 0.51337
 C436 C 0.02610 -0.23053 0.49121
 C437 C 0.03477 -0.21939 0.46944
 C438 C 0.05466 -0.20276 0.46978
 C439 C 0.08629 -0.17683 0.49244
 C440 C 0.08512 -0.15547 0.47689
 C441 C 0.10342 -0.13694 0.47773
 C442 C 0.12328 -0.13913 0.49432
 C443 C 0.12457 -0.16059 0.50977
 C444 C 0.10632 -0.17924 0.50881
 C445 C 0.14230 -0.11890 0.49567
 C446 C 0.16710 -0.12517 0.49970
 C447 C 0.18489 -0.10604 0.50089
 C448 C 0.17829 -0.08027 0.49787
 C449 C 0.15353 -0.07398 0.49389
 C450 C 0.13575 -0.09304 0.49291
 H451 H 0.06630 -0.20196 0.53114
 H452 H 0.03228 -0.23109 0.53078
 H453 H 0.02558 -0.22293 0.45206
 H454 H 0.06067 -0.19485 0.45262
 H455 H 0.06980 -0.15276 0.46431
 H456 H 0.10201 -0.12089 0.46530
 H457 H 0.13948 -0.16277 0.52294
 H458 H 0.10793 -0.19559 0.52086
 H459 H 0.17284 -0.14489 0.50156
 H460 H 0.20388 -0.11143 0.50374
 H461 H 0.14787 -0.05424 0.49194
 H462 H 0.11678 -0.08746 0.49032
 C463 C 0.70489 0.42307 0.98979
 C464 C 0.70211 0.44262 0.97247
 C465 C 0.71691 0.46426 0.97376
 C466 C 0.73469 0.46719 0.99266
 C467 C 0.73897 0.44615 1.00839
 C468 C 0.72387 0.42469 1.00732
 C469 C 0.68697 0.40199 0.99057
 C470 C 0.67565 0.39596 1.01269
 C471 C 0.65692 0.37793 1.01322
 C472 C 0.64943 0.36528 0.99173
 C473 C 0.66133 0.37061 0.96976
 C474 C 0.67980 0.38901 0.96914
 C475 C 0.62848 0.34751 0.99207
 C476 C 0.63020 0.32313 0.98162
 C477 C 0.61024 0.30649 0.98196
 C478 C 0.58798 0.31410 0.99238
 C479 C 0.58634 0.33869 1.00263
 C480 C 0.60642 0.35510 1.00265
 H481 H 0.68773 0.44173 0.95860
 H482 H 0.71369 0.47946 0.96065
 H483 H 0.75371 0.44602 1.02180
 H484 H 0.72687 0.40936 1.02035
 H485 H 0.68070 0.40590 1.02940
 H486 H 0.64807 0.37401 1.03038
 H487 H 0.65575 0.36116 0.95295
 H488 H 0.68831 0.39333 0.95190
 H489 H 0.64712 0.31683 0.97351
 H490 H 0.61239 0.28758 0.97430
 H491 H 0.56941 0.34553 1.01027
 H492 H 0.60457 0.37399 1.01050
 C493 C 0.49594 0.06473 1.20056
 C494 C 0.51806 0.05356 1.20857
 C495 C 0.51835 0.03515 1.22707
 C496 C 0.49662 0.02784 1.23873
 C497 C 0.47440 0.03867 1.23001
 C498 C 0.47414 0.05710 1.21154
 C499 C 0.49553 0.08345 1.18012
 C500 C 0.47696 0.08259 1.16199
 C501 C 0.47680 0.09985 1.14250
 C502 C 0.49522 0.11836 1.14062
 C503 C 0.51373 0.11931 1.15881
 C504 C 0.51388 0.10206 1.17832
 C505 C 0.49524 0.13645 1.11966
 C506 C 0.50171 0.16217 1.12317
 C507 C 0.50190 0.17911 1.10341
 C508 C 0.49558 0.17074 1.07970
 C509 C 0.48903 0.14506 1.07620
 C510 C 0.48889 0.12811 1.09594
 H511 H 0.53511 0.05840 1.19994
 H512 H 0.53563 0.02617 1.23193
 H513 H 0.45701 0.03250 1.23698
 H514 H 0.45674 0.06521 1.20568
 H515 H 0.46273 0.06829 1.16265
 H516 H 0.46213 0.09878 1.12895
 H517 H 0.52834 0.13316 1.15776
 H518 H 0.52832 0.10336 1.19210
 H519 H 0.50631 0.16930 1.14126
 H520 H 0.50668 0.19887 1.10675
 H521 H 0.48445 0.13795 1.05809
 H522 H 0.48422 0.10833 1.09255
 C523 C 0.00174 0.70428 0.55670
 C524 C 0.01515 0.69712 0.53615
 C525 C 0.01537 0.71241 0.51525
 C526 C 0.00214 0.73563 0.51388
 C527 C -0.00978 0.74354 0.53544
 C528 C -0.01048 0.72792 0.55616
 C529 C 0.00071 0.68712 0.57847
 C530 C -0.00112 0.69708 0.60233
 C531 C -0.00203 0.68076 0.62258
 C532 C -0.00056 0.65424 0.61943
 C533 C 0.00131 0.64420 0.59579
 C534 C 0.00163 0.66040 0.57553
 C535 C -0.00105 0.63684 0.64065
 C536 C 0.01831 0.61965 0.64493
 C537 C 0.01734 0.60217 0.66419
 C538 C -0.00328 0.60123 0.67910
 C539 C -0.02258 0.61856 0.67494
 C540 C -0.02133 0.63648 0.65602
 H541 H 0.02585 0.67969 0.53618
 H542 H 0.02629 0.70559 0.50047
 H543 H -0.01860 0.76201 0.53654
 H544 H -0.02085 0.73439 0.57167
 H545 H -0.00145 0.71747 0.60548
 H546 H -0.00339 0.68883 0.64075
 H547 H 0.00213 0.62373 0.59300
 H548 H 0.00232 0.65187 0.55752
 H549 H 0.03409 0.61967 0.63323
 H550 H 0.03232 0.58882 0.66699
 H551 H -0.03863 0.61811 0.68627
 H552 H -0.03649 0.64953 0.65289
 C553 C 0.50695 0.91698 -0.20569
 C554 C 0.52550 0.93535 -0.20426
 C555 C 0.52486 0.95660 -0.21965
 C556 C 0.50538 0.96042 -0.23665
 C557 C 0.48815 0.94051 -0.23952
 C558 C 0.48869 0.91938 -0.22391
 C559 C 0.50577 0.89641 -0.18715
 C560 C 0.48359 0.89132 -0.17555
 C561 C 0.48276 0.87386 -0.15629
 C562 C 0.50404 0.86094 -0.14841
 C563 C 0.52605 0.86528 -0.16059
 C564 C 0.52695 0.88301 -0.17969
 C565 C 0.50345 0.84395 -0.12678
 C566 C 0.51468 0.81981 -0.12713
 C567 C 0.51421 0.80403 -0.10650
 C568 C 0.50277 0.81222 -0.08498
 C569 C 0.49172 0.83652 -0.08471
 C570 C 0.49194 0.85212 -0.10540
 H571 H 0.53993 0.93392 -0.19047
 H572 H 0.53900 0.97090 -0.21749
 H573 H 0.47401 0.94101 -0.25354
 H574 H 0.47464 0.90495 -0.22592
 H575 H 0.46706 0.90157 -0.18077
 H576 H 0.46553 0.87067 -0.14732
 H577 H 0.54273 0.85564 -0.15477
 H578 H 0.54424 0.88651 -0.18843
 H579 H 0.52352 0.81303 -0.14348
 H580 H 0.52257 0.78530 -0.10751
 H581 H 0.48326 0.84375 -0.06835
 H582 H 0.48352 0.87085 -0.10454
 C583 C 1.00077 0.29992 0.43706
 C584 C 0.98363 0.28011 0.43914
 C585 C 0.98313 0.26488 0.46018
 C586 C 0.99920 0.26970 0.48017
 C587 C 1.01726 0.28859 0.47720
 C588 C 1.01802 0.30341 0.45609
 C589 C 1.00057 0.31727 0.41547
 C590 C 1.00662 0.34321 0.41842
 C591 C 1.00695 0.35961 0.39834
 C592 C 1.00081 0.35063 0.37487
 C593 C 0.99428 0.32492 0.37180
 C594 C 0.99434 0.30833 0.39188
 C595 C 1.00109 0.36835 0.35382
 C596 C 0.98069 0.37046 0.33795
 C597 C 0.98029 0.38873 0.31929
 C598 C 1.00047 0.40483 0.31593
 C599 C 1.02116 0.40211 0.33131
 C600 C 1.02140 0.38417 0.35020
 H601 H 0.97023 0.27661 0.42472
 H602 H 0.97007 0.24948 0.46053
 H603 H 1.03062 0.29222 0.49165
 H604 H 1.03217 0.31773 0.45477
 H605 H 1.01083 0.35101 0.43634
 H606 H 1.01162 0.37949 0.40120
 H607 H 0.98957 0.31759 0.35380
 H608 H 0.98988 0.28845 0.38884
 H609 H 0.96479 0.35854 0.34050
 H610 H 0.96418 0.39042 0.30755
 H611 H 1.03686 0.41444 0.32920
 H612 H 1.03737 0.38277 0.36216
 C613 C 0.49635 0.94266 0.20346
 C614 C 0.47448 0.95454 0.21034
 C615 C 0.47468 0.97401 0.22779
 C616 C 0.49669 0.98175 0.23949
 C617 C 0.51868 0.97038 0.23166
 C618 C 0.51845 0.95083 0.21427
 C619 C 0.49627 0.92240 0.18446
 C620 C 0.51122 0.90067 0.18721
 C621 C 0.51146 0.88180 0.16913
 C622 C 0.49680 0.88428 0.14784
 C623 C 0.48178 0.90599 0.14516
 C624 C 0.48150 0.92482 0.16327
 C625 C 0.49731 0.86442 0.12843
 C626 C 0.47568 0.85713 0.11604
 C627 C 0.47621 0.83866 0.09760
 C628 C 0.49839 0.82702 0.09112
 C629 C 0.52001 0.83425 0.10357
 C630 C 0.51948 0.85274 0.12199
 H631 H 0.45715 0.94881 0.20216
 H632 H 0.45752 0.98325 0.23201
 H633 H 0.53625 0.97693 0.23850
 H634 H 0.53570 0.94266 0.20869
 H635 H 0.52256 0.89813 0.20349
 H636 H 0.52292 0.86511 0.17194
 H637 H 0.47059 0.90870 0.12881
 H638 H 0.47009 0.94155 0.16045
 H639 H 0.45826 0.86556 0.12073
 H640 H 0.45927 0.83375 0.08818
 H641 H 0.53735 0.82545 0.09922
 H642 H 0.53651 0.85813 0.13098
 C643 C -0.00748 0.30720 0.56687
 C644 C -0.00011 0.28167 0.57049
 C645 C 0.00095 0.26469 0.55072
 C646 C -0.00356 0.27315 0.52653
 C647 C -0.01318 0.29805 0.52350
 C648 C -0.01509 0.31468 0.54325
 C649 C -0.00679 0.32627 0.58722
 C650 C -0.00229 0.35216 0.58215
 C651 C -0.00184 0.37032 0.60078
 C652 C -0.00498 0.36317 0.62531
 C653 C -0.00913 0.33722 0.63053
 C654 C -0.01026 0.31906 0.61171
 C655 C -0.00403 0.38286 0.64509
 C656 C -0.01807 0.38040 0.66628
 C657 C -0.01780 0.39947 0.68423
 C658 C -0.00395 0.42186 0.68125
 C659 C 0.01022 0.42414 0.66014
 C660 C 0.01052 0.40479 0.64261
 H661 H 0.00548 0.27484 0.58841
 H662 H 0.00642 0.24511 0.55418
 H663 H -0.01956 0.30493 0.50585
 H664 H -0.02259 0.33353 0.53985
 H665 H 0.00115 0.35858 0.56373
 H666 H 0.00079 0.39008 0.59573
 H667 H -0.01131 0.33079 0.64916
 H668 H -0.01406 0.29943 0.61645
 H669 H -0.02972 0.36401 0.66888
 H670 H -0.02856 0.39658 0.70040
 H671 H 0.02083 0.44111 0.65670
 H672 H 0.02217 0.40723 0.62700
 C673 C 0.49459 0.05289 0.79547
 C674 C 0.49388 0.02824 0.80541
 C675 C 0.49696 0.00681 0.79070
 C676 C 0.50180 0.00917 0.76546
 C677 C 0.50135 0.03406 0.75543
 C678 C 0.49820 0.05560 0.77024
 C679 C 0.49178 0.07544 0.81170
 C680 C 0.50659 0.09713 0.80898
 C681 C 0.50581 0.11702 0.82608
 C682 C 0.49034 0.11545 0.84626
 C683 C 0.47474 0.09437 0.84833
 C684 C 0.47534 0.07468 0.83118
 C685 C 0.49146 0.13481 0.86599
 C686 C 0.49312 0.12693 0.89053
 C687 C 0.49456 0.14488 0.90935
 C688 C 0.49412 0.17111 0.90407
 C689 C 0.49228 0.17907 0.87955
 C690 C 0.49119 0.16105 0.86063
 H691 H 0.49108 0.02541 0.82478
 H692 H 0.49498 -0.01149 0.79948
 H693 H 0.50366 0.03680 0.73597
 H694 H 0.49825 0.07435 0.76190
 H695 H 0.51954 0.09823 0.79427
 H696 H 0.51809 0.13305 0.82416
 H697 H 0.46231 0.09296 0.86348
 H698 H 0.46322 0.05857 0.83344
 H699 H 0.49362 0.10682 0.89513
 H700 H 0.49574 0.13825 0.92810
 H701 H 0.49202 0.19920 0.87504
 H702 H 0.48987 0.16757 0.84185
 C703 C 1.00403 0.70109 0.42654
 C704 C 0.98192 0.71212 0.43382
 C705 C 0.98124 0.72910 0.45353
 C706 C 1.00265 0.73542 0.46720
 C707 C 1.02491 0.72469 0.45897
 C708 C 1.02559 0.70799 0.43910
 C709 C 1.00447 0.68182 0.40650
 C710 C 1.02044 0.66075 0.40798
 C711 C 1.02024 0.64206 0.38976
 C712 C 1.00384 0.64374 0.36969
 C713 C 0.98808 0.66498 0.36802
 C714 C 0.98846 0.68384 0.38614
 C715 C 1.00291 0.62313 0.35092
 C716 C 0.99843 0.62883 0.32607
 C717 C 0.99748 0.60933 0.30857
 C718 C 1.00128 0.58379 0.31551
 C719 C 1.00572 0.57807 0.34028
 C720 C 1.00638 0.59747 0.35779
 H721 H 0.96486 0.70717 0.42466
 H722 H 0.96354 0.73671 0.45760
 H723 H 1.04209 0.72880 0.46831
 H724 H 1.04312 0.70038 0.43367
 H725 H 1.03280 0.65834 0.42352
 H726 H 1.03296 0.62624 0.39146
 H727 H 0.97505 0.66680 0.35296
 H728 H 0.97616 0.69998 0.38418
 H729 H 0.99602 0.64838 0.32006
 H730 H 0.99424 0.61425 0.28954
 H731 H 1.00831 0.55848 0.34617
 H732 H 1.00928 0.59227 0.37679
 C733 C 1.19524 0.49695 0.06168
 C734 C 1.19606 0.47676 0.04477
 C735 C 1.21257 0.47709 0.02559
 C736 C 1.22886 0.49764 0.02249
 C737 C 1.22746 0.51819 0.03915
 C738 C 1.21135 0.51755 0.05869
 C739 C 1.17708 0.49692 0.08175
 C740 C 1.16670 0.51989 0.09007
 C741 C 1.14927 0.51982 0.10844
 C742 C 1.14123 0.49675 0.11868
 C743 C 1.15167 0.47377 0.11042
 C744 C 1.16951 0.47388 0.09243
 C745 C 1.12177 0.49662 0.13748
 C746 C 1.12145 0.47775 0.15586
 C747 C 1.10273 0.47722 0.17294
 C748 C 1.08427 0.49587 0.17240
 C749 C 1.08467 0.51497 0.15447
 C750 C 1.10303 0.51519 0.13702
 H751 H 1.18349 0.46090 0.04587
 H752 H 1.21237 0.46134 0.01276
 H753 H 1.23830 0.53522 0.03704
 H754 H 1.21145 0.53343 0.07135
 H755 H 1.17165 0.53803 0.08211
 H756 H 1.14213 0.53797 0.11458
 H757 H 1.14579 0.45555 0.11750
 H758 H 1.17734 0.45581 0.08692
 H759 H 1.13576 0.46346 0.15723
 H760 H 1.10279 0.46242 0.18678
 H761 H 1.07040 0.52937 0.15362
 H762 H 1.10219 0.52965 0.12290
 C763 C 0.57068 -0.01513 0.70408
 C764 C 0.56725 0.00447 0.72126
 C765 C 0.54684 0.00456 0.73634
 C766 C 0.52866 -0.01444 0.73397
 C767 C 0.53336 -0.03507 0.71806
 C768 C 0.55392 -0.03537 0.70335
 C769 C 0.59101 -0.01408 0.68633
 C770 C 0.58734 -0.02303 0.66226
 C771 C 0.60602 -0.02167 0.64527
 C772 C 0.62871 -0.01098 0.65176
 C773 C 0.63250 -0.00188 0.67568
 C774 C 0.61389 -0.00358 0.69286
 C775 C 0.64809 -0.00898 0.63330
 C776 C 0.66024 0.01424 0.62957
 C777 C 0.67719 0.01657 0.61084
 C778 C 0.68257 -0.00441 0.59582
 C779 C 0.67091 -0.02782 0.60004
 C780 C 0.65372 -0.03003 0.61850
 H781 H 0.57997 0.02022 0.72265
 H782 H 0.54554 0.01979 0.74954
 H783 H 0.52045 -0.05065 0.71638
 H784 H 0.55645 -0.05137 0.69111
 H785 H 0.56982 -0.03060 0.65631
 H786 H 0.60253 -0.02843 0.62681
 H787 H 0.64994 0.00629 0.68113
 H788 H 0.61753 0.00316 0.71128
 H789 H 0.65606 0.03078 0.64065
 H790 H 0.68605 0.03477 0.60802
 H791 H 0.67459 -0.04422 0.58859
 H792 H 0.64468 -0.04817 0.62112
 C793 C -0.21008 0.49753 0.92657
 C794 C -0.22770 0.51619 0.93163
 C795 C -0.24176 0.51452 0.95268
 C796 C -0.23760 0.49475 0.96991
 C797 C -0.22080 0.47530 0.96373
 C798 C -0.20722 0.47670 0.94242
 C799 C -0.19374 0.50034 0.90554
 C800 C -0.19108 0.48046 0.88861
 C801 C -0.17414 0.48245 0.86985
 C802 C -0.15906 0.50411 0.86801
 C803 C -0.16218 0.52417 0.88486
 C804 C -0.17950 0.52239 0.90325
 C805 C -0.13942 0.50532 0.84944
 C806 C -0.13220 0.52881 0.83943
 C807 C -0.11255 0.53009 0.82347
 C808 C -0.09985 0.50785 0.81665
 C809 C -0.10767 0.48427 0.82596
 C810 C -0.12697 0.48304 0.84231
 H811 H -0.23059 0.53208 0.91921
 H812 H -0.25568 0.52889 0.95516
 H813 H -0.21761 0.45934 0.97600
 H814 H -0.19380 0.46197 0.93877
 H815 H -0.20204 0.46335 0.89001
 H816 H -0.17278 0.46688 0.85693
 H817 H -0.15066 0.54092 0.88446
 H818 H -0.18108 0.53781 0.91635
 H819 H -0.14159 0.54634 0.84404
 H820 H -0.10699 0.54867 0.81698
 H821 H -0.09880 0.46663 0.82076
 H822 H -0.13166 0.46461 0.84980
 C823 C 0.43755 0.00638 0.30973
 C824 C 0.44566 -0.01684 0.29987
 C825 C 0.46428 -0.01733 0.28269
 C826 C 0.47491 0.00549 0.27424
 C827 C 0.46747 0.02859 0.28519
 C828 C 0.44878 0.02909 0.30227
 C829 C 0.41786 0.00685 0.32817
 C830 C 0.41907 0.02380 0.34811
 C831 C 0.40063 0.02416 0.36548
 C832 C 0.38062 0.00748 0.36341
 C833 C 0.37938 -0.00949 0.34352
 C834 C 0.39776 -0.00976 0.32606
 C835 C 0.36127 0.00763 0.38211
 C836 C 0.35196 -0.01540 0.39119
 C837 C 0.33425 -0.01527 0.40932
 C838 C 0.32534 0.00792 0.41869
 C839 C 0.33443 0.03095 0.40932
 C840 C 0.35223 0.03081 0.39129
 H841 H 0.43806 -0.03478 0.30592
 H842 H 0.47061 -0.03574 0.27640
 H843 H 0.47617 0.04643 0.28051
 H844 H 0.44311 0.04734 0.30960
 H845 H 0.43451 0.03649 0.35056
 H846 H 0.40227 0.03716 0.38082
 H847 H 0.36402 -0.02233 0.34130
 H848 H 0.39606 -0.02276 0.31073
 H849 H 0.35882 -0.03355 0.38468
 H850 H 0.32798 -0.03335 0.41640
 H851 H 0.32765 0.04914 0.41581
 H852 H 0.35880 0.04885 0.38437
 C853 C 0.18881 0.50616 0.94151
 C854 C 0.19487 0.52668 0.95701
 C855 C 0.21280 0.52391 0.97537
 C856 C 0.22622 0.50097 0.97813
 C857 C 0.21924 0.48013 0.96318
 C858 C 0.20101 0.48276 0.94511
 C859 C 0.16956 0.50887 0.92199
 C860 C 0.17155 0.49559 0.89975
 C861 C 0.15323 0.49747 0.88169
 C862 C 0.13255 0.51305 0.88514
 C863 C 0.13074 0.52668 0.90722
 C864 C 0.14890 0.52447 0.92546
 C865 C 0.11285 0.51469 0.86596
 C866 C 0.08814 0.51729 0.87245
 C867 C 0.06962 0.51808 0.85446
 C868 C 0.07535 0.51584 0.82964
 C869 C 0.09993 0.51341 0.82305
 C870 C 0.11849 0.51309 0.84097
 H871 H 0.18586 0.54501 0.95493
 H872 H 0.21649 0.53994 0.98739
 H873 H 0.22719 0.46138 0.96576
 H874 H 0.19607 0.46615 0.93434
 H875 H 0.18735 0.48372 0.89619
 H876 H 0.15515 0.48634 0.86515
 H877 H 0.11532 0.53918 0.91044
 H878 H 0.14649 0.53473 0.94244
 H879 H 0.08298 0.51809 0.89145
 H880 H 0.05074 0.51969 0.85997
 H881 H 0.10478 0.51194 0.80397
 H882 H 0.13728 0.51169 0.83519
 C883 C 0.55706 0.00548 0.31095
 C884 C 0.54564 -0.01742 0.30391
 C885 C 0.52670 -0.01742 0.28643
 C886 C 0.51917 0.00531 0.27460
 C887 C 0.53005 0.02837 0.28252
 C888 C 0.54892 0.02839 0.30014
 C889 C 0.57696 0.00549 0.32990
 C890 C 0.59712 0.02194 0.32792
 C891 C 0.61585 0.02182 0.34571
 C892 C 0.61493 0.00512 0.36578
 C893 C 0.59479 -0.01128 0.36781
 C894 C 0.57599 -0.01104 0.35014
 C895 C 0.63482 0.00481 0.38463
 C896 C 0.64393 -0.01847 0.39384
 C897 C 0.66229 -0.01883 0.41197
 C898 C 0.67186 0.00410 0.42146
 C899 C 0.66286 0.02739 0.41207
 C900 C 0.64461 0.02773 0.39380
 H901 H 0.55135 -0.03544 0.31189
 H902 H 0.51786 -0.03538 0.28215
 H903 H 0.52369 0.04657 0.27549
 H904 H 0.55668 0.04649 0.30580
 H905 H 0.59863 0.03465 0.31240
 H906 H 0.63129 0.03448 0.34355
 H907 H 0.59339 -0.02404 0.38331
 H908 H 0.56051 -0.02357 0.35255
 H909 H 0.63700 -0.03643 0.38683
 H910 H 0.66912 -0.03710 0.41842
 H911 H 0.66952 0.04540 0.41922
 H912 H 0.63773 0.04595 0.38724
 C913 C 0.79919 0.49702 0.05807
 C914 C 0.80786 0.50136 0.03447
 C915 C 0.79215 0.49994 0.01413
 C916 C 0.76720 0.49348 0.01662
 C917 C 0.75846 0.49047 0.04064
 C918 C 0.77428 0.49172 0.06099
 C919 C 0.81625 0.49801 0.07945
 C920 C 0.83404 0.51726 0.08121
 C921 C 0.85118 0.51729 0.10046
 C922 C 0.85097 0.49802 0.11833
 C923 C 0.83283 0.47909 0.11689
 C924 C 0.81558 0.47914 0.09768
 C925 C 0.87026 0.49718 0.13778
 C926 C 0.88165 0.47396 0.14413
 C927 C 0.90086 0.47334 0.16135
 C928 C 0.90905 0.49593 0.17267
 C929 C 0.89729 0.51908 0.16669
 C930 C 0.87813 0.51971 0.14941
 H931 H 0.82697 0.50572 0.03167
 H932 H 0.79984 0.50448 -0.00338
 H933 H 0.73924 0.48682 0.04357
 H934 H 0.76696 0.48891 0.07906
 H935 H 0.83481 0.53221 0.06756
 H936 H 0.86506 0.53200 0.10096
 H937 H 0.83209 0.46415 0.13055
 H938 H 0.80215 0.46400 0.09669
 H939 H 0.87623 0.45635 0.13520
 H940 H 0.90976 0.45526 0.16526
 H941 H 0.90286 0.53674 0.17542
 H942 H 0.86945 0.53783 0.14514
 C943 C 0.43959 -0.01002 0.69984
 C944 C 0.43719 -0.01197 0.72525
 C945 C 0.45799 -0.01324 0.74052
 C946 C 0.48181 -0.01292 0.73080
 C947 C 0.48377 -0.00911 0.70528
 C948 C 0.46303 -0.00821 0.69009
 C949 C 0.41787 -0.00979 0.68328
 C950 C 0.41744 -0.02530 0.66232
 C951 C 0.39765 -0.02431 0.64586
 C952 C 0.37799 -0.00758 0.64987
 C953 C 0.37822 0.00769 0.67102
 C954 C 0.39793 0.00644 0.68770
 C955 C 0.35790 -0.00546 0.63141
 C956 C 0.34987 0.01860 0.62321
 C957 C 0.33244 0.02061 0.60426
 C958 C 0.32250 -0.00142 0.59327
 C959 C 0.33000 -0.02549 0.60211
 C960 C 0.34760 -0.02748 0.62087
 H961 H 0.41924 -0.01304 0.73325
 H962 H 0.45554 -0.01499 0.76005
 H963 H 0.50117 -0.00645 0.69664
 H964 H 0.46530 -0.00570 0.67059
 H965 H 0.43253 -0.03811 0.65862
 H966 H 0.39803 -0.03611 0.62960
 H967 H 0.36321 0.02065 0.67457
 H968 H 0.39792 0.01866 0.70369
 H969 H 0.35776 0.03587 0.63083
 H970 H 0.32739 0.03944 0.59770
 H971 H 0.32234 -0.04284 0.59446
 H972 H 0.35327 -0.04626 0.62710
   
