data_POSCAR
  _audit_creation_date              2014-09-24
  _audit_creation_method            'ToBaCCo'
  _symmetry_space_group_name_H-M    'P1'
  _symmetry_Int_Tables_number       1
  _symmetry_cell_setting            triclinic
  loop_
  _symmetry_equiv_pos_as_xyz
 x,y,z
_cell_length_a 41.9458
_cell_length_b 43.0200
_cell_length_c 62.2600
_cell_angle_alpha 89.941900
_cell_angle_beta 89.831400
_cell_angle_gamma 119.539100
loop_
  _atom_site_label
  _atom_site_type_symbol
  _atom_site_fract_x
  _atom_site_fract_y
  _atom_site_fract_z
C1 C -0.02120 0.49587 1.24847
 C2 C 0.01557 0.51821 1.24880
 C3 C 0.03639 0.53024 1.26913
 C4 C 0.03653 0.53237 1.22864
 C5 C -0.04138 0.48633 1.22794
 C6 C -0.04272 0.48012 1.26840
 C7 C 0.02773 0.54852 1.28459
 C8 C 0.04702 0.55914 1.30392
 C9 C 0.07576 0.55171 1.30850
 C10 C 0.08442 0.53378 1.29231
 C11 C 0.06517 0.52346 1.27301
 C12 C 0.04531 0.56650 1.22140
 C13 C 0.06572 0.58031 1.20257
 C14 C 0.07808 0.56034 1.19079
 C15 C 0.06891 0.52595 1.19814
 C16 C 0.04816 0.51204 1.21686
 C17 C -0.04659 0.45607 1.21666
 C18 C -0.06563 0.44695 1.19723
 C19 C -0.08039 0.46764 1.18894
 C20 C -0.07477 0.49816 1.20037
 C21 C -0.05512 0.50759 1.21959
 C22 C -0.03389 0.45986 1.28239
 C23 C -0.05318 0.44665 1.30167
 C24 C -0.08171 0.45338 1.30723
 C25 C -0.09116 0.47274 1.29286
 C26 C -0.07193 0.48587 1.27363
 H27 H 0.00564 0.55420 1.28179
 H28 H 0.03747 0.57136 1.31553
 H29 H 0.10729 0.52897 1.29372
 H30 H 0.07267 0.50986 1.26109
 H31 H 0.03625 0.58235 1.23033
 H32 H 0.07170 0.60659 1.19719
 H33 H 0.04160 0.48564 1.22235
 H34 H -0.03568 0.43968 1.22284
 H35 H -0.06855 0.42382 1.18867
 H36 H -0.08609 0.51447 1.19471
 H37 H -0.05097 0.53125 1.22808
 H38 H -0.01174 0.45470 1.27850
 H39 H -0.04523 0.43191 1.31245
 H40 H -0.11344 0.47779 1.29653
 H41 H -0.07938 0.50126 1.26309
 H42 H 0.07843 0.51005 1.18971
 C43 C 0.50579 0.48980 1.24538
 C44 C 0.48643 0.50766 1.24589
 C45 C 0.47611 0.51804 1.26647
 C46 C 0.47486 0.51826 1.22591
 C47 C 0.51609 0.47943 1.22483
 C48 C 0.51721 0.47904 1.26535
 C49 C 0.45625 0.49272 1.28249
 C50 C 0.44883 0.50356 1.30219
 C51 C 0.46049 0.53984 1.30607
 C52 C 0.47902 0.56482 1.28960
 C53 C 0.48674 0.55403 1.27006
 C54 C 0.43778 0.50782 1.22303
 C55 C 0.42613 0.51720 1.20437
 C56 C 0.45137 0.53733 1.18815
 C57 C 0.48867 0.54830 1.19123
 C58 C 0.50034 0.53908 1.21001
 C59 C 0.55311 0.49099 1.22053
 C60 C 0.56356 0.48176 1.20132
 C61 C 0.53715 0.46049 1.18605
 C62 C 0.49995 0.44843 1.19054
 C63 C 0.48950 0.45772 1.20980
 C64 C 0.53780 0.50404 1.28125
 C65 C 0.54592 0.49278 1.30054
 C66 C 0.53428 0.45640 1.30411
 C67 C 0.51517 0.43177 1.28770
 C68 C 0.50672 0.44298 1.26856
 H69 H 0.44712 0.46469 1.27990
 H70 H 0.43467 0.48361 1.31451
 H71 H 0.48758 0.59281 1.29181
 H72 H 0.50166 0.57393 1.25781
 H73 H 0.41774 0.49211 1.23522
 H74 H 0.39735 0.50897 1.20274
 H75 H 0.52921 0.54806 1.21210
 H76 H 0.57399 0.50746 1.23202
 H77 H 0.59234 0.49091 1.19853
 H78 H 0.47898 0.43215 1.17907
 H79 H 0.46072 0.44805 1.21298
 H80 H 0.54685 0.53212 1.27891
 H81 H 0.56052 0.51246 1.31284
 H82 H 0.50662 0.40373 1.28965
 H83 H 0.49124 0.42332 1.25639
 H84 H 0.50879 0.56362 1.17902
 C85 C 0.52061 1.01797 1.25563
 C86 C 0.49820 0.98189 1.25578
 C87 C 0.48477 0.96103 1.27598
 C88 C 0.48669 0.96111 1.23551
 C89 C 0.53441 1.03795 1.23520
 C90 C 0.53233 1.03946 1.27562
 C91 C 0.50905 0.96224 1.29179
 C92 C 0.49579 0.94156 1.31043
 C93 C 0.45774 0.91876 1.31371
 C94 C 0.43374 0.91781 1.29749
 C95 C 0.44712 0.93851 1.27893
 C96 C 0.49522 0.93383 1.23214
 C97 C 0.48640 0.91521 1.21277
 C98 C 0.46878 0.92346 1.19637
 C99 C 0.45920 0.95008 1.20005
 C100 C 0.46787 0.96858 1.21952
 C101 C 0.52380 1.06284 1.22921
 C102 C 0.53452 1.08024 1.20941
 C103 C 0.55674 1.07360 1.19511
 C104 C 0.56830 1.04927 1.20175
 C105 C 0.55715 1.03163 1.22151
 C106 C 0.50677 1.03823 1.29061
 C107 C 0.51845 1.05896 1.30923
 C108 C 0.55618 1.08192 1.31330
 C109 C 0.58151 1.08305 1.29783
 C110 C 0.56969 1.06224 1.27931
 H111 H 0.53833 0.97919 1.28967
 H112 H 0.51567 0.94462 1.32245
 H113 H 0.40451 0.89989 1.29841
 H114 H 0.42796 0.93679 1.26673
 H115 H 0.50939 0.92744 1.24439
 H116 H 0.49342 0.89433 1.21061
 H117 H 0.46044 0.98911 1.22200
 H118 H 0.50658 1.06832 1.23976
 H119 H 0.52617 1.09977 1.20577
 H120 H 0.58447 1.04225 1.19137
 H121 H 0.56568 1.01250 1.22599
 H122 H 0.47770 1.02111 1.28792
 H123 H 0.49757 1.05573 1.32065
 H124 H 0.61061 1.10109 1.29933
 H125 H 0.58988 1.06396 1.26775
 H126 H 0.44576 0.95716 1.18771
 C127 C 1.01559 0.49714 0.75171
 C128 C 0.97829 0.47988 0.75218
 C129 C 0.95633 0.46625 0.73226
 C130 C 0.95757 0.47324 0.77263
 C131 C 1.03751 0.50716 0.77173
 C132 C 1.03631 0.50633 0.73116
 C133 C 0.93081 0.47704 0.72690
 C134 C 0.91033 0.46483 0.70807
 C135 C 0.91474 0.44127 0.69435
 C136 C 0.93979 0.42989 0.69998
 C137 C 0.96036 0.44222 0.71880
 C138 C 0.96402 0.50142 0.78655
 C139 C 0.94460 0.49461 0.80588
 C140 C 0.91826 0.45951 0.81156
 C141 C 0.91136 0.43152 0.79734
 C142 C 0.93073 0.43835 0.77805
 C143 C 1.03332 0.48114 0.78675
 C144 C 1.05424 0.49083 0.80550
 C145 C 1.07988 0.52700 0.80982
 C146 C 1.08388 0.55285 0.79438
 C147 C 1.06321 0.54296 0.77556
 C148 C 1.06095 0.49394 0.72713
 C149 C 1.07995 0.50155 0.70766
 C150 C 1.07520 0.52227 0.69165
 C151 C 1.05075 0.53522 0.69617
 C152 C 1.03164 0.52734 0.71565
 H153 H 0.92708 0.49529 0.73720
 H154 H 0.89080 0.47358 0.70432
 H155 H 0.94387 0.41188 0.68968
 H156 H 0.97950 0.43312 0.72286
 H157 H 0.98416 0.52865 0.78246
 H158 H 0.95057 0.51668 0.81654
 H159 H 0.92510 0.41631 0.76743
 H160 H 1.01372 0.45326 0.78396
 H161 H 1.04897 0.46985 0.81691
 H162 H 1.10406 0.58075 0.79622
 H163 H 1.06715 0.56336 0.76396
 H164 H 1.06525 0.47803 0.73906
 H165 H 1.09937 0.49212 0.70569
 H166 H 1.04488 0.55022 0.68443
 H167 H 1.01287 0.53738 0.71855
 H168 H 0.89074 0.40431 0.80107
 C169 C 0.50386 0.52400 0.75534
 C170 C 0.52289 0.50588 0.75508
 C171 C 0.53367 0.49571 0.73465
 C172 C 0.53438 0.49566 0.77519
 C173 C 0.49023 0.53134 0.77570
 C174 C 0.49531 0.53717 0.73528
 C175 C 0.50766 0.47650 0.71875
 C176 C 0.51855 0.46841 0.69929
 C177 C 0.55557 0.47878 0.69553
 C178 C 0.58129 0.49696 0.71180
 C179 C 0.57044 0.50533 0.73114
 C180 C 0.52474 0.45987 0.77868
 C181 C 0.53560 0.44982 0.79739
 C182 C 0.55662 0.47545 0.81291
 C183 C 0.56665 0.51141 0.80927
 C184 C 0.55570 0.52144 0.79054
 C185 C 0.49829 0.56633 0.78039
 C186 C 0.48550 0.57372 0.79934
 C187 C 0.46431 0.54623 0.81399
 C188 C 0.45581 0.51107 0.80911
 C189 C 0.46845 0.50366 0.79006
 C190 C 0.52302 0.55879 0.72063
 C191 C 0.51426 0.56981 0.70148
 C192 C 0.47768 0.55990 0.69679
 C193 C 0.45023 0.53930 0.71187
 C194 C 0.45897 0.52808 0.73089
 H195 H 0.47901 0.46818 0.72131
 H196 H 0.49808 0.45458 0.68706
 H197 H 0.60985 0.50462 0.70962
 H198 H 0.59086 0.51979 0.74330
 H199 H 0.50860 0.43967 0.76692
 H200 H 0.52800 0.42204 0.79958
 H201 H 0.56393 0.54930 0.78797
 H202 H 0.51468 0.58798 0.76940
 H203 H 0.49185 0.60095 0.80238
 H204 H 0.43969 0.48934 0.82010
 H205 H 0.46123 0.47633 0.78651
 H206 H 0.55137 0.56675 0.72392
 H207 H 0.53602 0.58553 0.69019
 H208 H 0.42192 0.53192 0.70899
 H209 H 0.43725 0.51181 0.74210
 H210 H 0.58269 0.53170 0.82099
 C211 C 0.49237 -0.02048 0.74328
 C212 C 0.51092 0.01585 0.74345
 C213 C 0.52550 0.03765 0.72360
 C214 C 0.51765 0.03540 0.76399
 C215 C 0.47813 -0.04092 0.76352
 C216 C 0.48454 -0.04169 0.72326
 C217 C 0.54884 0.03266 0.70951
 C218 C 0.56155 0.05291 0.69063
 C219 C 0.55146 0.07878 0.68561
 C220 C 0.52893 0.08431 0.70007
 C221 C 0.51614 0.06401 0.71882
 C222 C 0.54969 0.04473 0.77552
 C223 C 0.55571 0.06197 0.79531
 C224 C 0.53017 0.07110 0.80372
 C225 C 0.49812 0.06181 0.79188
 C226 C 0.49173 0.04373 0.77234
 C227 C 0.44091 -0.05628 0.76853
 C228 C 0.42715 -0.07534 0.78766
 C229 C 0.45033 -0.07985 0.80232
 C230 C 0.48794 -0.06418 0.79685
 C231 C 0.50155 -0.04502 0.77772
 C232 C 0.46597 -0.03678 0.70607
 C233 C 0.45861 -0.05729 0.68741
 C234 C 0.46940 -0.08361 0.68547
 C235 C 0.48772 -0.08840 0.70312
 C236 C 0.49500 -0.06786 0.72168
 H237 H 0.55700 0.01294 0.71307
 H238 H 0.57878 0.04793 0.67982
 H239 H 0.52131 0.10454 0.69694
 H240 H 0.49844 0.06861 0.72945
 H241 H 0.56971 0.03802 0.76936
 H242 H 0.58019 0.06765 0.80411
 H243 H 0.46668 0.03639 0.76365
 H244 H 0.42255 -0.05300 0.75774
 H245 H 0.39847 -0.08521 0.79111
 H246 H 0.50705 -0.06774 0.80673
 H247 H 0.53036 -0.03369 0.77386
 H248 H 0.45724 -0.01696 0.70706
 H249 H 0.44561 -0.05127 0.67435
 H250 H 0.49529 -0.10905 0.70325
 H251 H 0.50893 -0.07245 0.73489
 H252 H 0.47806 0.06880 0.79755
 O253 O 0.39306 0.69179 0.97596
 O254 O 0.39034 0.75014 0.98295
 C255 C 0.36714 0.75315 0.97130
 O256 O 0.33295 0.73553 0.97483
 O257 O 0.27281 0.67529 0.98062
 C258 C 0.27055 0.64948 0.96951
 O259 O 0.28842 0.63366 0.97394
 O260 O 0.35014 0.63516 0.98172
 C261 C 0.37779 0.65884 0.97145
 O262 O 0.39284 0.68032 1.01855
 O263 O 0.38662 0.73658 1.02551
 C264 C 0.36750 0.75129 1.02945
 O265 O 0.34045 0.74635 1.01787
 O266 O 0.28226 0.68439 1.02359
 C267 C 0.26700 0.65115 1.02741
 O268 O 0.27355 0.62996 1.01644
 O269 O 0.33681 0.63451 1.02434
 C270 C 0.37047 0.65274 1.02911
 Cr271 Cr 0.38876 0.71369 1.00070
 Cr272 Cr 0.30817 0.70953 0.99924
 Cr273 Cr 0.31311 0.63522 0.99914
 O274 O 0.33667 0.68612 0.99968
 O275 O 0.60150 0.31891 0.98044
 O276 O 0.60528 0.26099 0.97419
 C277 C 0.62501 0.24708 0.96977
 O278 O 0.65215 0.25179 0.98114
 O279 O 0.71198 0.31230 0.97751
 C280 C 0.72722 0.34522 0.97293
 O281 O 0.72002 0.36698 0.98273
 O282 O 0.65789 0.36476 0.97600
 C283 C 0.62448 0.34719 0.97072
 O284 O 0.60006 0.30806 1.02321
 O285 O 0.60039 0.24852 1.01704
 C286 C 0.62283 0.24357 1.02818
 O287 O 0.65688 0.25950 1.02439
 O288 O 0.71795 0.31865 1.02060
 C289 C 0.72243 0.34602 1.03084
 O290 O 0.70710 0.36393 1.02558
 O291 O 0.64585 0.36393 1.01887
 C292 C 0.61702 0.34073 1.02851
 Cr293 Cr 0.60394 0.28518 0.99877
 Cr294 Cr 0.68361 0.28654 1.00088
 Cr295 Cr 0.68167 0.36282 1.00077
 O296 O 0.65647 0.31156 1.00013
 O297 O 0.66547 0.39276 0.52584
 O298 O 0.72758 0.39469 0.51923
 C299 C 0.73243 0.37191 0.52956
 O300 O 0.71651 0.33911 0.52463
 O301 O 0.65623 0.27956 0.51767
 C302 C 0.62770 0.27439 0.52796
 O303 O 0.61023 0.29066 0.52357
 O304 O 0.60894 0.35001 0.51791
 C305 C 0.63136 0.37573 0.52958
 O306 O 0.65700 0.39721 0.48310
 O307 O 0.71732 0.39555 0.47668
 C308 C 0.73374 0.37850 0.47171
 O309 O 0.72860 0.35046 0.48164
 O310 O 0.66705 0.29197 0.47479
 C311 C 0.63326 0.27654 0.47024
 O312 O 0.61027 0.28149 0.48086
 O313 O 0.61268 0.34243 0.47494
 C314 C 0.63061 0.37573 0.47131
 Cr315 Cr 0.69082 0.39308 0.50117
 Cr316 Cr 0.69111 0.31627 0.49970
 Cr317 Cr 0.61255 0.31714 0.49935
 O318 O 0.66487 0.34211 0.50008
 O319 O 0.32388 0.60348 0.52716
 O320 O 0.26350 0.60363 0.51832
 C321 C 0.25897 0.62742 0.52772
 O322 O 0.27597 0.66002 0.52222
 O323 O 0.33757 0.71849 0.51546
 C324 C 0.36399 0.72278 0.52744
 O325 O 0.38102 0.70554 0.52479
 O326 O 0.38153 0.64546 0.52071
 C327 C 0.35758 0.61971 0.53188
 O328 O 0.33609 0.59857 0.48493
 O329 O 0.27740 0.60164 0.47600
 C330 C 0.26219 0.61927 0.46992
 O331 O 0.26687 0.64733 0.47949
 O332 O 0.33001 0.70428 0.47292
 C333 C 0.36428 0.71966 0.46973
 O334 O 0.38582 0.71472 0.48177
 O335 O 0.38241 0.65292 0.47745
 C336 C 0.36385 0.61968 0.47371
 Cr337 Cr 0.30124 0.60377 0.50155
 Cr338 Cr 0.30354 0.68149 0.49761
 Cr339 Cr 0.38074 0.67872 0.50115
 O340 O 0.32847 0.65465 0.50014
 C341 C 0.47386 0.59647 0.35555
 C342 C 0.44054 0.57647 0.36696
 C343 C 0.41445 0.54302 0.35828
 C344 C 0.42104 0.53120 0.33858
 C345 C 0.45377 0.55186 0.32720
 C346 C 0.48022 0.58431 0.33610
 C347 C 0.38173 0.52159 0.36920
 C348 C 0.37410 0.53248 0.38860
 C349 C 0.39876 0.56581 0.39779
 C350 C 0.43224 0.58847 0.38658
 C351 C 0.45583 0.62272 0.39507
 C352 C 0.44709 0.63456 0.41373
 C353 C 0.41488 0.61268 0.42498
 C354 C 0.39059 0.57770 0.41749
 C355 C 0.35898 0.55623 0.43004
 C356 C 0.35112 0.56959 0.44851
 C357 C 0.37439 0.60473 0.45528
 C358 C 0.40659 0.62592 0.44356
 H359 H 0.49587 0.62145 0.36129
 H360 H 0.40023 0.50608 0.33191
 H361 H 0.50628 0.60037 0.32809
 H362 H 0.36167 0.49599 0.36266
 H363 H 0.34799 0.51435 0.39572
 H364 H 0.48102 0.64163 0.38734
 H365 H 0.46580 0.66131 0.41938
 H366 H 0.33967 0.52894 0.42608
 H367 H 0.32615 0.55241 0.45728
 H368 H 0.42508 0.65305 0.44872
 C369 C 0.39371 0.86281 0.35760
 C370 C 0.41463 0.85061 0.36890
 C371 C 0.45119 0.86325 0.36201
 C372 C 0.46540 0.88596 0.34408
 C373 C 0.44394 0.89701 0.33242
 C374 C 0.40801 0.88532 0.33983
 C375 C 0.47345 0.85288 0.37288
 C376 C 0.46035 0.83024 0.39054
 C377 C 0.42400 0.81651 0.39796
 C378 C 0.40057 0.82644 0.38675
 C379 C 0.36370 0.81134 0.39349
 C380 C 0.35021 0.78778 0.41068
 C381 C 0.37280 0.77842 0.42203
 C382 C 0.41009 0.79278 0.41602
 C383 C 0.43184 0.78275 0.42844
 C384 C 0.41696 0.75923 0.44578
 C385 C 0.37997 0.74480 0.45140
 C386 C 0.35809 0.75461 0.43940
 H387 H 0.36624 0.85594 0.36219
 H388 H 0.49283 0.89338 0.33875
 H389 H 0.39079 0.89446 0.33244
 H390 H 0.50146 0.86241 0.36769
 H391 H 0.47946 0.82357 0.39780
 H392 H 0.34411 0.81667 0.38558
 H393 H 0.32164 0.77677 0.41516
 H394 H 0.46054 0.79274 0.42539
 H395 H 0.43461 0.75225 0.45477
 H396 H 0.32946 0.74385 0.44365
 C397 C 0.11493 0.59909 0.35982
 C398 C 0.13482 0.58259 0.36721
 C399 C 0.13336 0.55456 0.35462
 C400 C 0.11371 0.54443 0.33528
 C401 C 0.09442 0.56142 0.32762
 C402 C 0.09523 0.58872 0.34064
 C403 C 0.15143 0.53644 0.36135
 C404 C 0.17126 0.54560 0.38028
 C405 C 0.17416 0.57369 0.39333
 C406 C 0.15596 0.59279 0.38658
 C407 C 0.15996 0.62170 0.39926
 C408 C 0.18097 0.63173 0.41781
 C409 C 0.19859 0.61325 0.42468
 C410 C 0.19513 0.58369 0.41274
 C411 C 0.21298 0.56545 0.42075
 C412 C 0.23406 0.57677 0.43935
 C413 C 0.23814 0.60655 0.45079
 C414 C 0.21998 0.62447 0.44341
 H415 H 0.11403 0.62034 0.36842
 H416 H 0.11221 0.52170 0.32696
 H417 H 0.08244 0.60407 0.33574
 H418 H 0.15035 0.51487 0.35181
 H419 H 0.18451 0.53030 0.38400
 H420 H 0.14763 0.63770 0.39515
 H421 H 0.18349 0.65434 0.42687
 H422 H 0.21131 0.54226 0.41312
 H423 H 0.24755 0.56219 0.44466
 H424 H 0.22270 0.64744 0.45215
 C425 C 0.52164 0.39890 0.35315
 C426 C 0.55514 0.41869 0.36425
 C427 C 0.58121 0.45219 0.35548
 C428 C 0.57440 0.46429 0.33596
 C429 C 0.54142 0.44389 0.32491
 C430 C 0.51503 0.41137 0.33391
 C431 C 0.61408 0.47344 0.36614
 C432 C 0.62177 0.46240 0.38544
 C433 C 0.59706 0.42907 0.39475
 C434 C 0.56358 0.40647 0.38370
 C435 C 0.54010 0.37208 0.39218
 C436 C 0.54881 0.36016 0.41080
 C437 C 0.58086 0.38212 0.42201
 C438 C 0.60513 0.41715 0.41445
 C439 C 0.63651 0.43873 0.42698
 C440 C 0.64409 0.42547 0.44558
 C441 C 0.62077 0.39033 0.45246
 C442 C 0.58892 0.36896 0.44068
 H443 H 0.49962 0.37394 0.35902
 H444 H 0.59516 0.48947 0.32920
 H445 H 0.48879 0.39553 0.32616
 H446 H 0.63414 0.49906 0.35951
 H447 H 0.64797 0.48039 0.39240
 H448 H 0.51504 0.35313 0.38447
 H449 H 0.53017 0.33334 0.41648
 H450 H 0.65575 0.46607 0.42297
 H451 H 0.66879 0.44277 0.45441
 H452 H 0.57039 0.34184 0.44594
 C453 C 0.61632 0.13752 0.35837
 C454 C 0.59412 0.14898 0.36900
 C455 C 0.55816 0.13622 0.36112
 C456 C 0.54574 0.11404 0.34297
 C457 C 0.56838 0.10351 0.33208
 C458 C 0.60374 0.11543 0.34039
 C459 C 0.53469 0.14592 0.37123
 C460 C 0.54593 0.16790 0.38912
 C461 C 0.58156 0.18162 0.39758
 C462 C 0.60629 0.17250 0.38712
 C463 C 0.64252 0.18771 0.39489
 C464 C 0.65417 0.21068 0.41235
 C465 C 0.63025 0.21924 0.42297
 C466 C 0.59349 0.20462 0.41593
 C467 C 0.57024 0.21365 0.42765
 C468 C 0.58321 0.23665 0.44521
 C469 C 0.61972 0.25153 0.45183
 C470 C 0.64306 0.24254 0.44062
 H471 H 0.64346 0.14461 0.36369
 H472 H 0.51875 0.10655 0.33691
 H473 H 0.62181 0.10678 0.33359
 H474 H 0.50715 0.13634 0.36526
 H475 H 0.52599 0.17410 0.39573
 H476 H 0.66301 0.18294 0.38760
 H477 H 0.68232 0.22187 0.41761
 H478 H 0.54176 0.20328 0.42387
 H479 H 0.56440 0.24292 0.45357
 H480 H 0.67134 0.25366 0.44563
 C481 C 0.86844 0.39491 0.35530
 C482 C 0.85929 0.41724 0.36752
 C483 C 0.87106 0.45215 0.35952
 C484 C 0.89064 0.46371 0.34015
 C485 C 0.89882 0.44106 0.32810
 C486 C 0.88790 0.40674 0.33597
 C487 C 0.86309 0.47544 0.37075
 C488 C 0.84266 0.46471 0.38954
 C489 C 0.82923 0.42995 0.39796
 C490 C 0.83850 0.40611 0.38711
 C491 C 0.82650 0.37196 0.39616
 C492 C 0.80533 0.36103 0.41476
 C493 C 0.79488 0.38341 0.42504
 C494 C 0.80669 0.41821 0.41684
 C495 C 0.79466 0.43954 0.42764
 C496 C 0.77172 0.42667 0.44551
 C497 C 0.75994 0.39223 0.45349
 C498 C 0.77208 0.37087 0.44330
 H499 H 0.86055 0.36797 0.35999
 H500 H 0.89961 0.49059 0.33440
 H501 H 0.89370 0.38864 0.32689
 H502 H 0.87245 0.50230 0.36483
 H503 H 0.83802 0.48462 0.39709
 H504 H 0.83304 0.35285 0.38926
 H505 H 0.79659 0.33448 0.42099
 H506 H 0.80172 0.46607 0.42252
 H507 H 0.76290 0.44388 0.45303
 H508 H 0.76293 0.34404 0.44921
 C509 C 0.59154 0.46667 1.13587
 C510 C 0.57241 0.43151 1.12752
 C511 C 0.54051 0.40629 1.13870
 C512 C 0.52885 0.41599 1.15746
 C513 C 0.54855 0.45072 1.16567
 C514 C 0.57978 0.47593 1.15458
 C515 C 0.52051 0.37132 1.13126
 C516 C 0.53159 0.36043 1.11311
 C517 C 0.56343 0.38420 1.10152
 C518 C 0.58399 0.42045 1.10871
 C519 C 0.61557 0.44432 1.09696
 C520 C 0.62709 0.43322 1.07908
 C521 C 0.60779 0.39793 1.07208
 C522 C 0.57558 0.37288 1.08308
 C523 C 0.55716 0.33740 1.07522
 C524 C 0.57044 0.32738 1.05750
 C525 C 0.60247 0.35217 1.04682
 C526 C 0.62084 0.38755 1.05418
 H527 H 0.61585 0.48774 1.12848
 H528 H 0.50484 0.39613 1.16602
 H529 H 0.59520 0.50313 1.16035
 H530 H 0.49601 0.35197 1.13967
 H531 H 0.51442 0.33292 1.10866
 H532 H 0.63232 0.47201 1.10117
 H533 H 0.65165 0.45253 1.07069
 H534 H 0.53254 0.31648 1.08243
 H535 H 0.55554 0.29983 1.05226
 H536 H 0.64568 0.40708 1.04613
 C537 C 0.87814 0.47340 1.13588
 C538 C 0.85469 0.43705 1.13068
 C539 C 0.85458 0.41090 1.14460
 C540 C 0.87544 0.42099 1.16349
 C541 C 0.89795 0.45714 1.16869
 C542 C 0.89940 0.48313 1.15448
 C543 C 0.83353 0.37473 1.13968
 C544 C 0.81296 0.36377 1.12100
 C545 C 0.81173 0.38866 1.10671
 C546 C 0.83170 0.42578 1.11210
 C547 C 0.82719 0.45025 1.09909
 C548 C 0.80449 0.43898 1.08124
 C549 C 0.78626 0.40314 1.07521
 C550 C 0.79032 0.37756 1.08752
 C551 C 0.77305 0.34194 1.07993
 C552 C 0.75166 0.33210 1.06141
 C553 C 0.74643 0.35719 1.04990
 C554 C 0.76393 0.39274 1.05687
 H555 H 0.88139 0.49500 1.12565
 H556 H 0.87366 0.40046 1.17432
 H557 H 0.91740 0.51126 1.15758
 H558 H 0.83319 0.35460 1.15032
 H559 H 0.79724 0.33533 1.11859
 H560 H 0.83996 0.47833 1.10271
 H561 H 0.80143 0.45867 1.07194
 H562 H 0.77606 0.32113 1.08767
 H563 H 0.73865 0.30449 1.05626
 H564 H 0.76056 0.41249 1.04782
 C565 C 0.61028 0.11539 1.14485
 C566 C 0.58841 0.12736 1.13436
 C567 C 0.55475 0.11941 1.14420
 C568 C 0.54454 0.10174 1.16410
 C569 C 0.56696 0.09081 1.17476
 C570 C 0.59970 0.09747 1.16452
 C571 C 0.53126 0.12912 1.13419
 C572 C 0.54052 0.14699 1.11465
 C573 C 0.57415 0.15647 1.10437
 C574 C 0.59874 0.14692 1.11454
 C575 C 0.63319 0.15802 1.10485
 C576 C 0.64351 0.17801 1.08606
 C577 C 0.61984 0.18732 1.07592
 C578 C 0.58450 0.17607 1.08458
 C579 C 0.56120 0.18530 1.07310
 C580 C 0.57328 0.20622 1.05451
 C581 C 0.60885 0.21860 1.04665
 C582 C 0.63171 0.20844 1.05728
 H583 H 0.63583 0.11935 1.13834
 H584 H 0.51814 0.09539 1.17079
 H585 H 0.61847 0.09040 1.17204
 H586 H 0.50537 0.12296 1.14160
 H587 H 0.52090 0.15379 1.10829
 H588 H 0.65345 0.15254 1.11167
 H589 H 0.67053 0.18648 1.07946
 H590 H 0.53349 0.17692 1.07800
 H591 H 0.55488 0.21339 1.04656
 H592 H 0.65917 0.21743 1.05121
 C593 C 0.39271 0.53153 1.14037
 C594 C 0.41288 0.56579 1.13083
 C595 C 0.44700 0.59008 1.14019
 C596 C 0.45942 0.58068 1.15871
 C597 C 0.43866 0.54693 1.16822
 C598 C 0.40545 0.52242 1.15869
 C599 C 0.46856 0.62379 1.13114
 C600 C 0.45723 0.63409 1.11287
 C601 C 0.42336 0.61115 1.10299
 C602 C 0.40046 0.57670 1.11237
 C603 C 0.36563 0.55462 1.10326
 C604 C 0.35364 0.56554 1.08553
 C605 C 0.37590 0.59862 1.07591
 C606 C 0.41129 0.62176 1.08426
 C607 C 0.43311 0.65456 1.07340
 C608 C 0.41990 0.66416 1.05550
 C609 C 0.38456 0.64159 1.04769
 C610 C 0.36278 0.60871 1.05797
 H611 H 0.36717 0.51089 1.13399
 H612 H 0.48508 0.60002 1.16597
 H613 H 0.38926 0.49581 1.16531
 H614 H 0.49463 0.64251 1.13825
 H615 H 0.47554 0.66071 1.10716
 H616 H 0.34644 0.52880 1.10971
 H617 H 0.32654 0.54776 1.07926
 H618 H 0.46066 0.67340 1.07815
 H619 H 0.43750 0.68968 1.04788
 H620 H 0.33549 0.59080 1.05199
 C621 C 0.14999 0.62642 1.15230
 C622 C 0.14665 0.60497 1.13428
 C623 C 0.12015 0.56817 1.13537
 C624 C 0.09747 0.55401 1.15353
 C625 C 0.10115 0.57566 1.17123
 C626 C 0.12771 0.61192 1.17039
 C627 C 0.11655 0.54553 1.11843
 C628 C 0.13939 0.55828 1.10059
 C629 C 0.16647 0.59460 1.09875
 C630 C 0.16913 0.61860 1.11547
 C631 C 0.19387 0.65543 1.11272
 C632 C 0.21618 0.66831 1.09468
 C633 C 0.21533 0.64508 1.07882
 C634 C 0.19076 0.60786 1.08065
 C635 C 0.19216 0.58543 1.06446
 C636 C 0.21664 0.59952 1.04723
 C637 C 0.24037 0.63638 1.04538
 C638 C 0.23936 0.65900 1.06122
 H639 H 0.17022 0.65430 1.15325
 H640 H 0.07684 0.52597 1.15383
 H641 H 0.13195 0.62917 1.18400
 H642 H 0.09612 0.51743 1.11908
 H643 H 0.13459 0.53894 1.08825
 H644 H 0.19623 0.67530 1.12408
 H645 H 0.23470 0.69683 1.09328
 H646 H 0.17537 0.55678 1.06485
 H647 H 0.21699 0.58136 1.03532
 H648 H 0.25797 0.68755 1.06015
 C649 C 0.47972 0.87870 1.14677
 C650 C 0.44612 0.86700 1.13589
 C651 C 0.42052 0.87570 1.14506
 C652 C 0.42802 0.89417 1.16465
 C653 C 0.46105 0.90466 1.17544
 C654 C 0.48689 0.89710 1.16615
 C655 C 0.38742 0.86571 1.13477
 C656 C 0.37887 0.84710 1.11552
 C657 C 0.40304 0.83720 1.10584
 C658 C 0.43706 0.84698 1.11633
 C659 C 0.46056 0.83579 1.10716
 C660 C 0.45130 0.81574 1.08850
 C661 C 0.41850 0.80625 1.07802
 C662 C 0.39405 0.81720 1.08625
 C663 C 0.36154 0.80739 1.07452
 C664 C 0.35337 0.78672 1.05592
 C665 C 0.37719 0.77511 1.04833
 C666 C 0.40993 0.78539 1.05939
 H667 H 0.50133 0.87443 1.14074
 H668 H 0.40775 0.89980 1.17171
 H669 H 0.51308 0.90578 1.17382
 H670 H 0.36777 0.87233 1.14169
 H671 H 0.35259 0.84029 1.10884
 H672 H 0.48624 0.84144 1.11424
 H673 H 0.47007 0.80742 1.08225
 H674 H 0.34176 0.81518 1.07921
 H675 H 0.32791 0.77931 1.04767
 H676 H 0.42883 0.77691 1.05358
 C677 C 0.61271 0.48830 0.64612
 C678 C 0.59164 0.45523 0.63552
 C679 C 0.55737 0.43058 0.64475
 C680 C 0.54579 0.43834 0.66421
 C681 C 0.56749 0.47084 0.67475
 C682 C 0.60076 0.49582 0.66534
 C683 C 0.53486 0.39816 0.63463
 C684 C 0.54542 0.38948 0.61544
 C685 C 0.57949 0.41275 0.60570
 C686 C 0.60333 0.44584 0.61616
 C687 C 0.63840 0.46801 0.60721
 C688 C 0.64984 0.45839 0.58871
 C689 C 0.62673 0.42666 0.57811
 C690 C 0.59096 0.40364 0.58615
 C691 C 0.56826 0.37242 0.57422
 C692 C 0.58118 0.36390 0.55572
 C693 C 0.61703 0.38609 0.54838
 C694 C 0.63949 0.41768 0.55957
 H695 H 0.63834 0.50923 0.63990
 H696 H 0.52003 0.41869 0.67134
 H697 H 0.61760 0.52160 0.67276
 H698 H 0.50865 0.37921 0.64163
 H699 H 0.52646 0.36374 0.60892
 H700 H 0.65826 0.49276 0.61444
 H701 H 0.67722 0.47606 0.58264
 H702 H 0.54032 0.35401 0.57863
 H703 H 0.56307 0.33943 0.54732
 H704 H 0.66717 0.43535 0.55392
 C705 C 0.61223 0.13440 0.63934
 C706 C 0.58881 0.14327 0.62767
 C707 C 0.55246 0.12954 0.63538
 C708 C 0.54042 0.10797 0.65383
 C709 C 0.56411 0.10000 0.66540
 C710 C 0.59999 0.11318 0.65785
 C711 C 0.52823 0.13760 0.62479
 C712 C 0.53943 0.15999 0.60702
 C713 C 0.57553 0.17515 0.59891
 C714 C 0.60028 0.16568 0.60893
 C715 C 0.63553 0.17888 0.59985
 C716 C 0.64665 0.20128 0.58202
 C717 C 0.62345 0.21200 0.57266
 C718 C 0.58764 0.19934 0.58103
 C719 C 0.56572 0.21208 0.57140
 C720 C 0.57876 0.23603 0.55421
 C721 C 0.61397 0.24811 0.54583
 C722 C 0.63611 0.23575 0.55509
 H723 H 0.64041 0.14403 0.63493
 H724 H 0.51236 0.09740 0.65927
 H725 H 0.61907 0.10783 0.66659
 H726 H 0.50028 0.12680 0.63047
 H727 H 0.51877 0.16453 0.59983
 H728 H 0.65526 0.17208 0.60603
 H729 H 0.67399 0.21072 0.57564
 H730 H 0.53861 0.20479 0.57699
 H731 H 0.56104 0.24520 0.54748
 H732 H 0.66361 0.24524 0.54895
 C733 C 0.85641 0.38108 0.64922
 C734 C 0.85095 0.40485 0.63594
 C735 C 0.86791 0.44121 0.64224
 C736 C 0.88868 0.45278 0.66113
 C737 C 0.89331 0.42880 0.67419
 C738 C 0.87724 0.39297 0.66796
 C739 C 0.86402 0.46597 0.62974
 C740 C 0.84338 0.45561 0.61110
 C741 C 0.82545 0.41972 0.60415
 C742 C 0.82926 0.39387 0.61678
 C743 C 0.81096 0.35791 0.60994
 C744 C 0.78944 0.34740 0.59160
 C745 C 0.78532 0.37216 0.57919
 C746 C 0.80346 0.40873 0.58513
 C747 C 0.79853 0.43270 0.57178
 C748 C 0.77603 0.42069 0.55375
 C749 C 0.75766 0.38444 0.54819
 C750 C 0.76277 0.36037 0.56094
 H751 H 0.84496 0.35310 0.64570
 H752 H 0.90159 0.48073 0.66562
 H753 H 0.88026 0.37384 0.67783
 H754 H 0.87703 0.49381 0.63446
 H755 H 0.84186 0.47662 0.60260
 H756 H 0.81234 0.33690 0.61854
 H757 H 0.77571 0.31943 0.58713
 H758 H 0.81145 0.46096 0.57476
 H759 H 0.77283 0.44004 0.54421
 H760 H 0.74878 0.33223 0.55684
 C761 C 0.48097 0.61484 0.64819
 C762 C 0.44863 0.59118 0.63698
 C763 C 0.42603 0.55690 0.64608
 C764 C 0.43596 0.54685 0.66528
 C765 C 0.46799 0.57062 0.67619
 C766 C 0.49034 0.60464 0.66742
 C767 C 0.39348 0.53274 0.63608
 C768 C 0.38214 0.54200 0.61743
 C769 C 0.40327 0.57590 0.60779
 C770 C 0.43767 0.60045 0.61730
 C771 C 0.46007 0.63325 0.60672
 C772 C 0.44895 0.64222 0.58785
 C773 C 0.41487 0.61929 0.57891
 C774 C 0.39131 0.58594 0.58881
 C775 C 0.35644 0.56434 0.57947
 C776 C 0.34582 0.57530 0.56105
 C777 C 0.36948 0.60798 0.55114
 C778 C 0.40408 0.62979 0.56016
 H779 H 0.49930 0.64169 0.64283
 H780 H 0.41867 0.52023 0.67171
 H781 H 0.51491 0.62381 0.67568
 H782 H 0.37630 0.50637 0.64287
 H783 H 0.35676 0.52156 0.61077
 H784 H 0.48682 0.65253 0.61244
 H785 H 0.46715 0.66768 0.58030
 H786 H 0.33630 0.53914 0.58621
 H787 H 0.31881 0.55799 0.55454
 H788 H 0.42245 0.65542 0.55283
 C789 C 0.47520 0.85742 0.64309
 C790 C 0.44509 0.84992 0.62970
 C791 C 0.42409 0.86651 0.63482
 C792 C 0.43239 0.88862 0.65296
 C793 C 0.46178 0.89510 0.66663
 C794 C 0.48321 0.87936 0.66106
 C795 C 0.39449 0.86067 0.62198
 C796 C 0.38505 0.83862 0.60413
 C797 C 0.40470 0.82099 0.59843
 C798 C 0.43509 0.82654 0.61152
 C799 C 0.45403 0.80804 0.60623
 C800 C 0.44379 0.78497 0.58884
 C801 C 0.41445 0.77944 0.57587
 C802 C 0.39463 0.79756 0.58028
 C803 C 0.36543 0.79123 0.56633
 C804 C 0.35600 0.76744 0.54918
 C805 C 0.37524 0.74910 0.54518
 C806 C 0.40468 0.75551 0.55857
 H807 H 0.49353 0.84712 0.64008
 H808 H 0.41442 0.89921 0.65680
 H809 H 0.50739 0.88479 0.67008
 H810 H 0.37829 0.87330 0.62578
 H811 H 0.36168 0.83560 0.59530
 H812 H 0.47677 0.81029 0.61541
 H813 H 0.45902 0.77117 0.58556
 H814 H 0.34920 0.80416 0.56812
 H815 H 0.33320 0.76323 0.53911
 H816 H 0.41996 0.74165 0.55565
 C817 C 0.12551 0.51428 0.64401
 C818 C 0.13417 0.54542 0.63204
 C819 C 0.12256 0.56881 0.64046
 C820 C 0.10276 0.56084 0.65984
 C821 C 0.09446 0.52987 0.67176
 C822 C 0.10625 0.50681 0.66338
 C823 C 0.13117 0.60041 0.62966
 C824 C 0.15181 0.60988 0.61090
 C825 C 0.16449 0.58780 0.60194
 C826 C 0.15447 0.55446 0.61230
 C827 C 0.16505 0.53128 0.60255
 C828 C 0.18578 0.54077 0.58383
 C829 C 0.19726 0.57383 0.57413
 C830 C 0.18687 0.59792 0.58298
 C831 C 0.20010 0.63147 0.57270
 C832 C 0.22280 0.64061 0.55465
 C833 C 0.23299 0.61669 0.54604
 C834 C 0.21967 0.58312 0.55576
 H835 H 0.13350 0.49513 0.63906
 H836 H 0.09563 0.58013 0.66604
 H837 H 0.09960 0.48193 0.67128
 H838 H 0.12215 0.61832 0.63592
 H839 H 0.15703 0.63471 0.60368
 H840 H 0.15744 0.50523 0.60886
 H841 H 0.19338 0.52213 0.57702
 H842 H 0.19423 0.65172 0.57844
 H843 H 0.23273 0.66679 0.54754
 H844 H 0.22761 0.56446 0.54941
 C845 C 0.40238 0.53980 0.86033
 C846 C 0.42455 0.57156 0.87195
 C847 C 0.46046 0.59452 0.86410
 C848 C 0.47340 0.58564 0.84561
 C849 C 0.45094 0.55436 0.83417
 C850 C 0.41543 0.53150 0.84178
 C851 C 0.48330 0.62647 0.87457
 C852 C 0.47100 0.63697 0.89234
 C853 C 0.43524 0.61557 0.90058
 C854 C 0.41214 0.58168 0.89076
 C855 C 0.37755 0.55903 0.90012
 C856 C 0.36536 0.56952 0.91798
 C857 C 0.38674 0.60316 0.92704
 C858 C 0.42188 0.62684 0.91842
 C859 C 0.44182 0.66118 0.92776
 C860 C 0.42753 0.67123 0.94495
 C861 C 0.39304 0.64753 0.95357
 C862 C 0.37288 0.61340 0.94458
 H863 H 0.37450 0.52120 0.86476
 H864 H 0.50114 0.60331 0.84006
 H865 H 0.39725 0.50744 0.83307
 H866 H 0.51094 0.64389 0.86878
 H867 H 0.49057 0.66196 0.89945
 H868 H 0.35925 0.53261 0.89420
 H869 H 0.33859 0.55120 0.92460
 H870 H 0.46818 0.68131 0.92190
 H871 H 0.44366 0.69786 0.95148
 H872 H 0.34592 0.59496 0.95092
 C873 C 0.13160 0.52361 0.85796
 C874 C 0.14539 0.55813 0.86683
 C875 C 0.13550 0.58159 0.85667
 C876 C 0.11411 0.57126 0.83796
 C877 C 0.10111 0.53709 0.82894
 C878 C 0.10991 0.51338 0.83953
 C879 C 0.14688 0.61538 0.86522
 C880 C 0.16780 0.62651 0.88376
 C881 C 0.17887 0.60441 0.89440
 C882 C 0.16832 0.57002 0.88547
 C883 C 0.18164 0.54901 0.89519
 C884 C 0.20409 0.56088 0.91313
 C885 C 0.21368 0.59380 0.92240
 C886 C 0.20076 0.61585 0.91344
 C887 C 0.21022 0.64838 0.92404
 C888 C 0.23234 0.65883 0.94228
 C889 C 0.24592 0.63743 0.95064
 C890 C 0.23628 0.60481 0.94062
 H891 H 0.13681 0.50363 0.86491
 H892 H 0.10642 0.58971 0.83105
 H893 H 0.10150 0.48707 0.83318
 H894 H 0.13943 0.63349 0.85752
 H895 H 0.17561 0.65313 0.88904
 H896 H 0.17596 0.52342 0.88902
 H897 H 0.21396 0.54395 0.91987
 H898 H 0.20071 0.66627 0.91886
 H899 H 0.23916 0.68411 0.94972
 H900 H 0.24626 0.58778 0.94708
 C901 C 0.38524 0.85411 0.84254
 C902 C 0.40791 0.85967 0.86053
 C903 C 0.44534 0.88592 0.85863
 C904 C 0.45898 0.90601 0.83966
 C905 C 0.43625 0.90033 0.82174
 C906 C 0.39909 0.87394 0.82369
 C907 C 0.46920 0.89208 0.87568
 C908 C 0.45708 0.87200 0.89441
 C909 C 0.42019 0.84507 0.89703
 C910 C 0.39491 0.83969 0.88012
 C911 C 0.35749 0.81472 0.88343
 C912 C 0.34532 0.79472 0.90218
 C913 C 0.36985 0.79831 0.91832
 C914 C 0.40767 0.82342 0.91602
 C915 C 0.43144 0.82514 0.93268
 C916 C 0.41814 0.80282 0.95063
 C917 C 0.38074 0.77818 0.95281
 C918 C 0.35670 0.77640 0.93664
 H919 H 0.35676 0.83390 0.84221
 H920 H 0.48737 0.92691 0.83937
 H921 H 0.38043 0.86693 0.81032
 H922 H 0.49781 0.91242 0.87444
 H923 H 0.47741 0.87867 0.90671
 H924 H 0.33660 0.81023 0.87189
 H925 H 0.31634 0.77579 0.90393
 H926 H 0.46062 0.84276 0.93214
 H927 H 0.43741 0.80472 0.96281
 H928 H 0.32773 0.75716 0.93799
 C929 C 0.61571 0.47432 0.85852
 C930 C 0.59172 0.44238 0.86965
 C931 C 0.55535 0.42220 0.86192
 C932 C 0.54407 0.43334 0.84366
 C933 C 0.56839 0.46463 0.83267
 C934 C 0.60414 0.48511 0.84039
 C935 C 0.53035 0.39083 0.87232
 C936 C 0.54053 0.37860 0.89021
 C937 C 0.57648 0.39727 0.89846
 C938 C 0.60253 0.42972 0.88802
 C939 C 0.63857 0.44821 0.89616
 C940 C 0.64899 0.43551 0.91373
 C941 C 0.62406 0.40399 0.92403
 C942 C 0.58738 0.38443 0.91671
 C943 C 0.56327 0.35271 0.92797
 C944 C 0.57529 0.34095 0.94545
 C945 C 0.61166 0.36024 0.95244
 C946 C 0.63584 0.39188 0.94164
 H947 H 0.64367 0.49159 0.86325
 H948 H 0.51612 0.41762 0.83802
 H949 H 0.62357 0.50929 0.83210
 H950 H 0.50248 0.37538 0.86650
 H951 H 0.51939 0.35407 0.89708
 H952 H 0.65975 0.47265 0.88921
 H953 H 0.67706 0.45058 0.91929
 H954 H 0.53491 0.33618 0.92375
 H955 H 0.55591 0.31643 0.95346
 H956 H 0.66407 0.40718 0.94687
 C957 C 0.86395 0.46548 0.85870
 C958 C 0.85660 0.43492 0.87105
 C959 C 0.87113 0.41333 0.86351
 C960 C 0.89169 0.42197 0.84445
 C961 C 0.89804 0.45184 0.83225
 C962 C 0.88432 0.47368 0.83967
 C963 C 0.86487 0.38294 0.87487
 C964 C 0.84340 0.37256 0.89327
 C965 C 0.82722 0.39233 0.90118
 C966 C 0.83488 0.42466 0.89031
 C967 C 0.82044 0.44548 0.89901
 C968 C 0.79832 0.43460 0.91723
 C969 C 0.78925 0.40239 0.92742
 C970 C 0.80352 0.38075 0.91956
 C971 C 0.79266 0.34788 0.93016
 C972 C 0.76859 0.33702 0.94756
 C973 C 0.75449 0.35843 0.95523
 C974 C 0.76536 0.39139 0.94522
 H975 H 0.85381 0.48326 0.86302
 H976 H 0.90277 0.40524 0.83905
 H977 H 0.88858 0.49678 0.83043
 H978 H 0.87638 0.36665 0.86932
 H979 H 0.84024 0.34881 0.90098
 H980 H 0.82582 0.47059 0.89215
 H981 H 0.78771 0.45139 0.92322
 H982 H 0.80146 0.32935 0.92518
 H983 H 0.76073 0.31141 0.95494
 H984 H 0.75436 0.40805 0.95088
 C985 C 0.51424 0.10272 0.85777
 C986 C 0.55021 0.12759 0.86439
 C987 C 0.57961 0.13237 0.85094
 C988 C 0.57288 0.11458 0.83117
 C989 C 0.53704 0.09031 0.82465
 C990 C 0.50793 0.08434 0.83836
 C991 C 0.61571 0.15490 0.85725
 C992 C 0.62344 0.17228 0.87689
 C993 C 0.59518 0.16878 0.89078
 C994 C 0.55801 0.14745 0.88396
 C995 C 0.53005 0.14756 0.89659
 C996 C 0.53804 0.16744 0.91538
 C997 C 0.57397 0.18688 0.92278
 C998 C 0.60294 0.18692 0.91095
 C999 C 0.63848 0.20487 0.91994
 C1000 C 0.64511 0.22338 0.93927
 C1001 C 0.61677 0.22499 0.95023
 C1002 C 0.58115 0.20646 0.94196
 H1003 H 0.49045 0.09607 0.86752
 H1004 H 0.59583 0.12001 0.82079
 H1005 H 0.48000 0.06491 0.83429
 H1006 H 0.63833 0.15884 0.84698
 H1007 H 0.65204 0.18944 0.88040
 H1008 H 0.50165 0.13354 0.89194
 H1009 H 0.51575 0.16730 0.92432
 H1010 H 0.66167 0.20459 0.91264
 H1011 H 0.67284 0.23724 0.94542
 H1012 H 0.55893 0.20703 0.95057
   
