data_POSCAR
  _audit_creation_date              2014-09-24
  _audit_creation_method            'ToBaCCo'
  _symmetry_space_group_name_H-M    'P1'
  _symmetry_Int_Tables_number       1
  _symmetry_cell_setting            triclinic
  loop_
  _symmetry_equiv_pos_as_xyz
 x,y,z
_cell_length_a 14.5779
_cell_length_b 14.9255
_cell_length_c 14.8334
_cell_angle_alpha 89.064800
_cell_angle_beta 88.381100
_cell_angle_gamma 90.849700
loop_
  _atom_site_label
  _atom_site_type_symbol
  _atom_site_fract_x
  _atom_site_fract_y
  _atom_site_fract_z
C1 C 0.46694 1.00497 -0.71912
 C2 C 0.39667 1.03928 -0.66309
 C3 C 0.41692 1.06612 -0.57568
 C4 C 0.50350 1.05132 -0.53874
 C5 C 0.57319 1.01880 -0.59628
 C6 C 0.55647 0.99769 -0.68589
 C7 C 0.51818 1.06256 -0.43949
 C8 C 0.60739 1.06782 -0.40395
 C9 C 0.61795 1.07597 -0.31091
 C10 C 0.54216 1.08475 -0.25346
 C11 C 0.45505 1.07093 -0.28447
 C12 C 0.44241 1.06002 -0.37729
 H13 H 0.45168 0.98136 -0.78583
 H14 H 0.36199 1.09448 -0.53536
 H15 H 0.64020 1.00373 -0.57129
 H16 H 0.66868 1.06490 -0.44622
 H17 H 0.55169 1.08967 -0.18142
 H18 H 0.37379 1.04624 -0.39933
 C19 C -0.73284 1.51094 0.02443
 C20 C -0.69688 1.42455 0.01211
 C21 C -0.60653 1.41536 -0.02087
 C22 C -0.55138 1.49052 -0.04567
 C23 C -0.59284 1.57534 -0.04279
 C24 C -0.68009 1.58689 -0.00299
 C25 C -0.44925 1.48233 -0.06339
 C26 C -0.39015 1.55783 -0.05329
 C27 C -0.29476 1.55101 -0.06612
 C28 C -0.25747 1.46982 -0.08852
 C29 C -0.31180 1.39307 -0.09063
 C30 C -0.40768 1.39847 -0.08085
 H31 H -0.79860 1.51896 0.05906
 H32 H -0.57844 1.34884 -0.01982
 H33 H -0.55537 1.63507 -0.06498
 H34 H -0.41623 1.62133 -0.03142
 H35 H -0.18343 1.46449 -0.09490
 H36 H -0.44746 1.33727 -0.08527
 C37 C -0.02875 0.25444 0.47723
 C38 C -0.03304 0.31316 0.40353
 C39 C -0.01795 0.40498 0.41432
 C40 C -0.00590 0.44181 0.50021
 C41 C -0.00450 0.38117 0.57459
 C42 C -0.01270 0.28802 0.56284
 C43 C 0.00318 0.54203 0.51197
 C44 C 0.03272 0.57795 0.59377
 C45 C 0.03956 0.67038 0.60635
 C46 C 0.02200 0.72976 0.53539
 C47 C -0.00369 0.69643 0.45187
 C48 C -0.01622 0.60358 0.44159
 H49 H -0.04006 0.18318 0.46865
 H50 H -0.01839 0.44638 0.35410
 H51 H 0.00143 0.40456 0.64246
 H52 H 0.05303 0.53541 0.64896
 H53 H 0.03121 0.80128 0.54392
 H54 H -0.04115 0.58138 0.37797
 O55 O -0.21075 0.97672 -0.14568
 O56 O 0.24822 1.01553 -0.08982
 O57 O 0.01935 1.10490 -0.23112
 O58 O 0.05017 0.86399 -0.21765
 O59 O 0.04606 0.76008 -0.10084
 O60 O -0.00378 1.21696 -0.12828
 O61 O 0.15425 0.99651 -0.21082
 O62 O -0.08546 0.98421 -0.24337
 Zr63 Zr 0.02310 0.98661 -0.15199
 O64 O 0.09891 0.91615 -0.06046
 O65 O -0.07663 1.06122 -0.08988
 C66 C -0.17264 0.98695 -0.22520
 C67 C 0.23300 1.00977 -0.17590
 C68 C 0.00626 1.18776 -0.20980
 C69 C 0.06074 0.78382 -0.18439
 H70 H 0.12743 1.12139 -0.10290
 O71 O 0.08649 1.07812 -0.06960
 H72 H -0.09322 0.85837 -0.12576
 O73 O -0.06476 0.89964 -0.08272
 O74 O 0.21378 1.01716 0.15466
 O75 O -0.25558 0.96035 0.09329
 O76 O 0.09725 1.23401 0.02127
 O77 O 0.13678 0.76988 0.02926
 O78 O -0.10945 0.75119 -0.00089
 O79 O -0.14163 1.20375 -0.03169
 O80 O -0.05385 1.11895 0.22835
 O81 O -0.02822 0.87877 0.24400
 O82 O -0.04776 1.22237 0.11095
 O83 O -0.00661 0.76590 0.14127
 O84 O 0.21502 1.13584 0.04514
 O85 O -0.24648 1.08717 -0.03398
 O86 O -0.22697 0.85075 -0.01997
 O87 O 0.23774 0.88999 0.03738
 O88 O 0.08376 1.01505 0.24750
 O89 O -0.16450 0.96904 0.21741
 Zr90 Zr 0.15699 1.00668 0.02518
 Zr91 Zr -0.16064 0.97556 -0.01524
 Zr92 Zr -0.01493 1.14700 -0.00324
 Zr93 Zr 0.00931 0.83360 0.01405
 Zr94 Zr -0.02944 0.99533 0.16280
 O95 O -0.09123 0.90400 0.08022
 O96 O 0.05891 1.08084 0.09215
 C97 C 0.17217 1.02141 0.23308
 C98 C -0.24240 0.95366 0.17888
 C99 C 0.17978 1.21539 0.04527
 C100 C 0.21833 0.80453 0.03690
 C101 C -0.19497 0.77093 -0.01390
 C102 C -0.22373 1.17122 -0.04153
 C103 C -0.06033 1.19978 0.19494
 C104 C -0.01856 0.79540 0.22291
 H105 H -0.15538 1.09806 0.10178
 O106 O -0.10508 1.06537 0.07138
 H107 H 0.10753 0.88815 0.14459
 O108 O 0.07143 0.92125 0.09995
 N109 N 0.30954 1.03594 0.31628
 N110 N 0.22500 1.03387 0.31193
 N111 N -0.37823 0.95758 0.26851
 N112 N -0.31604 0.91464 0.23257
 N113 N -0.29932 1.05845 -0.26676
 N114 N -0.23388 1.00988 -0.29454
 N115 N 0.38229 1.05862 -0.21879
 N116 N 0.30687 1.02235 -0.23942
 N117 N 0.26203 1.35316 0.04785
 N118 N 0.23228 1.28453 0.08655
 N119 N 0.29943 0.66803 0.02360
 N120 N 0.29388 0.74598 0.04993
 N121 N -0.23245 0.62345 -0.05058
 N122 N -0.25928 0.70017 -0.02704
 N123 N -0.26249 1.31190 -0.08559
 N124 N -0.29286 1.23545 -0.05918
 N125 N -0.06153 1.28586 0.32590
 N126 N -0.09219 1.26940 0.25155
 N127 N -0.00714 1.22631 -0.36266
 N128 N 0.00116 1.25182 -0.28177
 N129 N 0.06809 0.69875 -0.31620
 N130 N 0.09733 0.71636 -0.24141
 N131 N -0.01144 0.75757 0.37694
 N132 N -0.01601 0.73158 0.29568
   
