data_POSCAR
  _audit_creation_date              2014-09-24
  _audit_creation_method            'ToBaCCo'
  _symmetry_space_group_name_H-M    'P1'
  _symmetry_Int_Tables_number       1
  _symmetry_cell_setting            triclinic
  loop_
  _symmetry_equiv_pos_as_xyz
 x,y,z
_cell_length_a 23.9170
_cell_length_b 23.7211
_cell_length_c 23.7533
_cell_angle_alpha 90.790800
_cell_angle_beta 91.441000
_cell_angle_gamma 87.450800
loop_
  _atom_site_label
  _atom_site_type_symbol
  _atom_site_fract_x
  _atom_site_fract_y
  _atom_site_fract_z
C1 C 0.00312 0.44697 0.22633
 C2 C 0.05658 0.45766 0.26075
 C3 C 0.05430 0.50557 0.29271
 C4 C -0.00213 0.53946 0.28744
 C5 C -0.04337 0.44915 0.26890
 C6 C -0.04718 0.49716 0.30027
 C7 C -0.00653 0.50124 0.19178
 C8 C -0.00884 0.55000 0.22352
 H9 H 0.09568 0.43381 0.25513
 H10 H -0.00393 0.57804 0.31439
 H11 H -0.07506 0.41785 0.26945
 H12 H -0.00874 0.50084 0.14622
 C13 C 0.02508 0.43847 0.77549
 C14 C -0.02787 0.44436 0.74529
 C15 C -0.03365 0.49114 0.70828
 C16 C 0.01538 0.52666 0.71141
 C17 C 0.06758 0.44000 0.73331
 C18 C 0.06329 0.48818 0.69808
 C19 C 0.02930 0.49181 0.80679
 C20 C 0.02324 0.54139 0.77164
 H21 H -0.06274 0.41865 0.75495
 H22 H 0.01222 0.56250 0.68198
 H23 H 0.10462 0.41180 0.73455
 H24 H 0.03048 0.49477 0.85208
 C25 C 0.21937 0.01183 0.44881
 C26 C 0.25051 0.06613 0.45883
 C27 C 0.28109 0.06811 0.50746
 C28 C 0.28054 0.01331 0.54178
 C29 C 0.26610 -0.03445 0.45163
 C30 C 0.29718 -0.03497 0.50038
 C31 C 0.18625 0.00438 0.50276
 C32 C 0.21798 0.00490 0.55164
 H33 H 0.25079 0.10037 0.42933
 H34 H 0.30744 0.01375 0.58052
 H35 H 0.26945 -0.06883 0.42124
 H36 H 0.14148 -0.00067 0.50185
 C37 C 0.77966 0.00564 0.44311
 C38 C 0.75847 -0.05030 0.44147
 C39 C 0.72319 -0.06273 0.48662
 C40 C 0.71368 -0.01472 0.52512
 C41 C 0.72838 0.04590 0.44616
 C42 C 0.69327 0.03552 0.48824
 C43 C 0.80799 0.01121 0.50164
 C44 C 0.77346 -0.00024 0.54486
 H45 H 0.76805 -0.07990 0.40753
 H46 H 0.68546 -0.02257 0.56010
 H47 H 0.72357 0.08348 0.42068
 H48 H 0.85084 0.02269 0.50860
 C49 C 0.42776 0.21658 0.98985
 C50 C 0.42342 0.25679 1.03585
 C51 C 0.47063 0.29117 1.04465
 C52 C 0.51381 0.27953 1.00180
 C53 C 0.43863 0.24912 0.94041
 C54 C 0.48570 0.28396 0.94579
 C55 C 0.48051 0.18428 1.00041
 C56 C 0.52926 0.21855 1.00623
 H57 H 0.39160 0.25288 1.06706
 H58 H 0.54872 0.30828 1.00660
 H59 H 0.41593 0.24376 0.90077
 H60 H 0.48389 0.13931 0.99246
 C61 C 0.44532 0.78169 0.99513
 C62 C 0.45166 0.73282 0.95325
 C63 C 0.49942 0.70062 0.95966
 C64 C 0.53790 0.72094 1.00797
 C65 C 0.45278 0.75530 1.05309
 C66 C 0.50076 0.72356 1.05997
 C67 C 0.49548 0.81356 0.98834
 C68 C 0.54730 0.78032 0.99571
 H69 H 0.42335 0.72819 0.91723
 H70 H 0.57537 0.69269 1.01505
 H71 H 0.42266 0.76166 1.08621
 H72 H 0.49419 0.85624 0.97325
 B73 B 0.98829 1.05727 0.02735
 B74 B 0.98665 1.05313 -0.04431
 B75 B 1.04660 1.03057 -0.00784
 B76 B 1.02626 0.99868 0.05275
 B77 B 0.95489 1.00003 0.05407
 B78 B 0.92896 1.03329 -0.00657
 B79 B 0.98871 0.93472 -0.03974
 B80 B 0.99124 0.93894 0.03326
 B81 B 0.93090 0.96036 -0.00427
 B82 B 0.95088 0.99378 -0.06392
 B83 B 1.02325 0.99137 -0.06510
 B84 B 1.04769 0.95821 -0.00484
 B85 B 0.56264 0.49550 0.46425
 B86 B 0.57106 0.49862 0.53647
 B87 B 0.54675 0.55752 0.50056
 B88 B 0.50384 0.53621 0.44580
 B89 B 0.50036 0.46396 0.44752
 B90 B 0.54170 0.43935 0.50404
 B91 B 0.45401 0.50855 0.54647
 B92 B 0.44625 0.50672 0.47423
 B93 B 0.47027 0.44696 0.51039
 B94 B 0.51373 0.46840 0.56566
 B95 B 0.51612 0.53972 0.56396
 B96 B 0.47525 0.56442 0.50759
 C97 C 0.99350 1.28536 0.13939
 C98 C 1.03513 1.29338 0.18075
 C99 C 1.03923 1.34543 0.20799
 C100 C 1.00300 1.39167 0.19300
 C101 C 0.96085 1.38308 0.15163
 C102 C 0.95613 1.33041 0.12508
 C103 C 0.99067 1.23009 0.11067
 C104 C 0.94077 1.20200 0.10558
 C105 C 0.93968 1.14971 0.07770
 C106 C 0.98839 1.12166 0.05665
 C107 C 1.03533 1.15577 0.05526
 C108 C 1.03769 1.20714 0.08399
 H109 H 1.06983 1.34808 0.24198
 H110 H 0.93079 1.41687 0.14070
 H111 H 0.89929 1.13750 0.06419
 H112 H 1.06792 1.14844 0.02661
 H113 H 0.92364 1.32494 0.09314
 H114 H 0.90220 1.22149 0.12101
 H115 H 1.06375 1.25874 0.19297
 H116 H 1.07530 1.23084 0.08220
 C117 C 0.99158 0.71800 0.15422
 C118 C 0.96528 0.70860 0.20536
 C119 C 0.96433 0.65406 0.22742
 C120 C 0.98934 0.60754 0.19873
 C121 C 1.01488 0.61696 0.14720
 C122 C 1.01586 0.67130 0.12525
 C123 C 0.99371 0.77585 0.13050
 C124 C 0.94749 0.81418 0.13232
 C125 C 0.94806 0.86592 0.10455
 C126 C 0.99453 0.88190 0.07346
 C127 C 1.04179 0.84370 0.07530
 C128 C 1.04145 0.79218 0.10311
 H129 H 0.94378 0.64842 0.26688
 H130 H 1.03539 0.58255 0.12421
 H131 H 0.91023 0.89254 0.10543
 H132 H 1.07873 0.85053 0.05274
 H133 H 1.03556 0.67669 0.08524
 H134 H 0.90970 0.80321 0.15297
 H135 H 0.94626 0.74356 0.22885
 H136 H 1.07849 0.76428 0.10177
 C137 C 1.01873 1.27746 -0.14758
 C138 C 1.02530 1.32549 -0.11301
 C139 C 1.03001 1.37878 -0.13668
 C140 C 1.02840 1.38488 -0.19573
 C141 C 1.02458 1.33547 -0.22955
 C142 C 1.01929 1.28310 -0.20600
 C143 C 1.00857 1.22182 -0.12361
 C144 C 1.02945 1.17219 -0.14931
 C145 C 1.01790 1.11981 -0.12785
 C146 C 0.98871 1.11404 -0.07774
 C147 C 0.96369 1.16475 -0.05624
 C148 C 0.97398 1.21746 -0.07772
 H149 H 1.03337 1.41432 -0.10820
 H150 H 1.02278 1.33796 -0.27512
 H151 H 1.03443 1.08498 -0.15080
 H152 H 0.93448 1.16511 -0.02332
 H153 H 1.01316 1.24739 -0.23400
 H154 H 1.05543 1.17350 -0.18592
 H155 H 1.02593 1.32195 -0.06758
 H156 H 0.95377 1.25469 -0.05899
 C157 C 1.01255 0.70789 -0.15758
 C158 C 1.03976 0.66312 -0.12817
 C159 C 1.04398 0.60887 -0.15175
 C160 C 1.02188 0.59742 -0.20614
 C161 C 0.99740 0.64333 -0.23667
 C162 C 0.99232 0.69746 -0.21255
 C163 C 1.00367 0.76431 -0.12984
 C164 C 1.00372 0.81463 -0.15994
 C165 C 0.99585 0.86692 -0.13235
 C166 C 0.98896 0.87226 -0.07349
 C167 C 0.98635 0.82039 -0.04534
 C168 C 0.99338 0.76814 -0.07233
 H169 H 1.06592 0.57646 -0.12719
 H170 H 0.97908 0.63794 -0.27816
 H171 H 0.99288 0.90241 -0.15866
 H172 H 0.97866 0.81726 -0.00225
 H173 H 0.97062 0.73063 -0.23642
 H174 H 1.01018 0.81394 -0.20489
 H175 H 1.05791 0.66988 -0.08654
 H176 H 0.99018 0.73042 -0.04763
 C177 C 1.12893 1.00548 0.28683
 C178 C 1.14024 0.95606 0.31803
 C179 C 1.16683 0.95850 0.37123
 C180 C 1.18338 1.01030 0.39450
 C181 C 1.16691 1.05995 0.36539
 C182 C 1.14161 1.05747 0.31199
 C183 C 1.10433 1.00343 0.22843
 C184 C 1.06959 1.04806 0.20815
 C185 C 1.04781 1.04736 0.15321
 C186 C 1.05876 1.00172 0.11531
 C187 C 1.09236 0.95630 0.13742
 C188 C 1.11557 0.95748 0.19209
 H189 H 1.17558 0.91954 0.39365
 H190 H 1.17371 1.10135 0.38290
 H191 H 1.01853 1.08120 0.14369
 H192 H 1.10170 0.91923 0.11299
 H193 H 1.13335 1.09673 0.29002
 H194 H 1.05717 1.08315 0.23534
 H195 H 1.12884 0.91535 0.30136
 H196 H 1.14256 0.92215 0.20561
 C197 C 1.14793 0.98143 -0.28425
 C198 C 1.19477 1.01446 -0.29006
 C199 C 1.21785 1.02167 -0.34314
 C200 C 1.19473 0.99588 -0.39159
 C201 C 1.14913 0.96125 -0.38528
 C202 C 1.12606 0.95420 -0.33242
 C203 C 1.11848 0.97950 -0.22970
 C204 C 1.06033 0.98646 -0.22946
 C205 C 1.03175 0.98913 -0.17909
 C206 C 1.05875 0.98428 -0.12542
 C207 C 1.11789 0.97552 -0.12700
 C208 C 1.14715 0.97382 -0.17775
 H209 H 1.25261 1.04903 -0.34637
 H210 H 1.13115 0.93943 -0.42123
 H211 H 0.98807 0.99653 -0.18413
 H212 H 1.14338 0.97457 -0.08921
 H213 H 1.09050 0.92780 -0.32928
 H214 H 1.03655 0.99211 -0.26856
 H215 H 1.21213 1.03660 -0.25396
 H216 H 1.19239 0.96888 -0.17619
 C217 C 0.86771 1.01907 0.28844
 C218 C 0.89894 1.01518 0.33918
 C219 C 0.87149 1.01328 0.39041
 C220 C 0.81258 1.01527 0.39099
 C221 C 0.78218 1.01899 0.33960
 C222 C 0.80928 1.02114 0.28923
 C223 C 0.89435 1.01819 0.23361
 C224 C 0.87358 1.05440 0.19198
 C225 C 0.89104 1.04776 0.13710
 C226 C 0.93004 1.00511 0.11976
 C227 C 0.95344 0.97199 0.16494
 C228 C 0.93553 0.97752 0.22018
 H229 H 0.89647 1.00826 0.42866
 H230 H 0.73691 1.01815 0.33823
 H231 H 0.87129 1.07706 0.11024
 H232 H 0.98783 0.94234 0.15992
 H233 H 0.78435 1.02237 0.25050
 H234 H 0.84230 1.08739 0.20161
 H235 H 0.94427 1.01301 0.33903
 H236 H 0.95330 0.94929 0.25202
 C237 C 0.83093 0.98589 -0.28358
 C238 C 0.86708 0.97096 -0.32724
 C239 C 0.84841 0.97556 -0.38308
 C240 C 0.79323 0.99506 -0.39589
 C241 C 0.75673 1.00816 -0.35162
 C242 C 0.77570 1.00427 -0.29578
 C243 C 0.85310 0.98818 -0.22587
 C244 C 0.87050 1.03942 -0.20416
 C245 C 0.89929 1.04137 -0.15273
 C246 C 0.91137 0.99229 -0.12092
 C247 C 0.88961 0.94152 -0.14224
 C248 C 0.86173 0.93925 -0.19445
 H249 H 0.87712 0.96351 -0.41609
 H250 H 0.71388 1.02249 -0.35972
 H251 H 0.91558 1.08104 -0.14169
 H252 H 0.89360 0.90293 -0.11891
 H253 H 0.74770 1.01641 -0.26214
 H254 H 0.86455 1.07757 -0.22859
 H255 H 0.91009 0.95714 -0.31802
 H256 H 0.84768 0.89925 -0.21067
 C257 C 1.27112 1.13471 -0.01421
 C258 C 1.27676 1.18573 -0.04177
 C259 C 1.32808 1.21126 -0.04136
 C260 C 1.37662 1.18541 -0.01552
 C261 C 1.37021 1.13404 0.01273
 C262 C 1.31813 1.10907 0.01322
 C263 C 1.21542 1.11007 -0.01235
 C264 C 1.19276 1.09615 0.03887
 C265 C 1.13938 1.07463 0.04043
 C266 C 1.10738 1.06258 -0.00922
 C267 C 1.13004 1.08123 -0.05959
 C268 C 1.18289 1.10384 -0.06147
 H269 H 1.32908 1.25254 -0.06009
 H270 H 1.40468 1.11392 0.03629
 H271 H 1.12391 1.06830 0.08142
 H272 H 1.10891 1.07711 -0.09896
 H273 H 1.31438 1.06993 0.03550
 H274 H 1.21575 1.10332 0.07801
 H275 H 1.24073 1.20712 -0.06180
 H276 H 1.19873 1.11573 -0.10176
 C277 C 0.69597 1.14390 -0.00006
 C278 C 0.65018 1.11180 0.01318
 C279 C 0.59622 1.13666 0.01679
 C280 C 0.58527 1.19465 0.00612
 C281 C 0.63169 1.22682 -0.00665
 C282 C 0.68591 1.20185 -0.00961
 C283 C 0.75381 1.11698 -0.00297
 C284 C 0.79263 1.13429 -0.04187
 C285 C 0.84664 1.10850 -0.04409
 C286 C 0.86539 1.06561 -0.00647
 C287 C 0.82381 1.04652 0.02930
 C288 C 0.77031 1.07219 0.03227
 H289 H 0.56349 1.10963 0.02883
 H290 H 0.62707 1.27105 -0.01648
 H291 H 0.87218 1.12266 -0.07653
 H292 H 0.83204 1.01007 0.05544
 H293 H 0.72010 1.22825 -0.01923
 H294 H 0.78092 1.16701 -0.07179
 H295 H 0.65567 1.06690 0.02023
 H296 H 0.74200 1.05652 0.06262
 C297 C 1.27713 0.85490 -0.02174
 C298 C 1.32252 0.89036 -0.02468
 C299 C 1.37745 0.86811 -0.01985
 C300 C 1.38755 0.80992 -0.01178
 C301 C 1.34146 0.77494 -0.00933
 C302 C 1.28703 0.79703 -0.01485
 C303 C 1.21970 0.87874 -0.01855
 C304 C 1.17546 0.85590 -0.04958
 C305 C 1.12090 0.87867 -0.04405
 C306 C 1.10888 0.92454 -0.00680
 C307 C 1.15439 0.94407 0.02542
 C308 C 1.20851 0.92243 0.01950
 H309 H 1.41107 0.89688 -0.02121
 H310 H 1.34779 0.73002 -0.00246
 H311 H 1.09007 0.86147 -0.07155
 H312 H 1.14959 0.97614 0.05634
 H313 H 1.25261 0.76921 -0.01119
 H314 H 1.18329 0.82142 -0.07911
 H315 H 1.31531 0.93547 -0.02955
 H316 H 1.24167 0.93936 0.04575
 C317 C 0.70877 0.84892 -0.01401
 C318 C 0.66071 0.88418 -0.00648
 C319 C 0.60783 0.86173 -0.00398
 C320 C 0.60110 0.80297 -0.00818
 C321 C 0.64982 0.76787 -0.01545
 C322 C 0.70255 0.79053 -0.01872
 C323 C 0.76496 0.87328 -0.01625
 C324 C 0.81290 0.84505 0.00618
 C325 C 0.86474 0.87022 0.00659
 C326 C 0.87095 0.92612 -0.01090
 C327 C 0.82317 0.94993 -0.04025
 C328 C 0.77141 0.92513 -0.04173
 H329 H 0.57284 0.89100 0.00365
 H330 H 0.64824 0.72275 -0.02064
 H331 H 0.89893 0.84388 0.01994
 H332 H 0.82416 0.98871 -0.06283
 H333 H 0.73841 0.76211 -0.02586
 H334 H 0.81064 0.80347 0.02398
 H335 H 0.66400 0.92935 -0.00125
 H336 H 0.73646 0.94672 -0.06336
 C337 C 0.78843 0.50554 0.36438
 C338 C 0.80294 0.54212 0.32134
 C339 C 0.85853 0.54444 0.30473
 C340 C 0.90061 0.50995 0.33041
 C341 C 0.88693 0.47567 0.37523
 C342 C 0.83157 0.47394 0.39248
 C343 C 0.72881 0.49996 0.37984
 C344 C 0.70921 0.44832 0.39755
 C345 C 0.65522 0.44513 0.41863
 C346 C 0.61934 0.49357 0.42484
 C347 C 0.63716 0.54280 0.39871
 C348 C 0.69091 0.54648 0.37804
 H349 H 0.86790 0.56966 0.26877
 H350 H 0.91867 0.44781 0.39472
 H351 H 0.64467 0.40491 0.43478
 H352 H 0.61099 0.58071 0.39615
 H353 H 0.82237 0.44660 0.42686
 H354 H 0.73617 0.41045 0.39682
 H355 H 0.77105 0.56673 0.29828
 H356 H 0.70331 0.58691 0.36325
 C357 C 0.21314 0.53498 0.37184
 C358 C 0.16430 0.53757 0.40417
 C359 C 0.11121 0.53288 0.37823
 C360 C 0.10620 0.52586 0.31966
 C361 C 0.15426 0.52778 0.28720
 C362 C 0.20697 0.53177 0.31283
 C363 C 0.27034 0.53082 0.39884
 C364 C 0.31669 0.55076 0.37158
 C365 C 0.37093 0.54071 0.39335
 C366 C 0.38211 0.51337 0.44530
 C367 C 0.33476 0.49226 0.47097
 C368 C 0.28032 0.50102 0.44885
 H369 H 0.07465 0.53118 0.40404
 H370 H 0.15132 0.52236 0.24186
 H371 H 0.40340 0.55110 0.36638
 H372 H 0.33891 0.46547 0.50655
 H373 H 0.24298 0.52863 0.28615
 H374 H 0.31158 0.57308 0.33223
 H375 H 0.16723 0.54116 0.44961
 H376 H 0.24637 0.48199 0.46989
 C377 C 0.80977 0.50717 0.62149
 C378 C 0.84071 0.55569 0.63157
 C379 C 0.89470 0.55112 0.65683
 C380 C 0.91750 0.49809 0.67386
 C381 C 0.88751 0.44988 0.65942
 C382 C 0.83460 0.45439 0.63482
 C383 C 0.75146 0.50938 0.59828
 C384 C 0.73425 0.46663 0.56168
 C385 C 0.67839 0.46298 0.54544
 C386 C 0.63615 0.50144 0.56313
 C387 C 0.65559 0.54764 0.59616
 C388 C 0.71156 0.55079 0.61475
 H389 H 0.91643 0.58922 0.66601
 H390 H 0.90455 0.40766 0.66763
 H391 H 0.67007 0.43037 0.51677
 H392 H 0.62863 0.58431 0.60437
 H393 H 0.81243 0.41598 0.62792
 H394 H 0.76420 0.43541 0.54520
 H395 H 0.82296 0.59699 0.62064
 H396 H 0.72344 0.58581 0.64150
 C397 C 0.22019 0.51032 0.62978
 C398 C 0.18930 0.55739 0.65187
 C399 C 0.13373 0.55251 0.66829
 C400 C 0.10923 0.49981 0.66514
 C401 C 0.13827 0.45468 0.63801
 C402 C 0.19255 0.46008 0.61992
 C403 C 0.28103 0.51232 0.61790
 C404 C 0.31694 0.46411 0.62333
 C405 C 0.37233 0.46438 0.60579
 C406 C 0.39506 0.51292 0.58272
 C407 C 0.35968 0.56226 0.58461
 C408 C 0.30396 0.56197 0.60042
 H409 H 0.11271 0.58809 0.68913
 H410 H 0.11966 0.41401 0.63306
 H411 H 0.39652 0.42562 0.60989
 H412 H 0.37261 0.60230 0.57350
 H413 H 0.21353 0.42395 0.60004
 H414 H 0.30208 0.42541 0.63997
 H415 H 0.20885 0.59708 0.65977
 H416 H 0.27852 0.60069 0.59681
 C417 C 0.51240 0.64405 0.21927
 C418 C 0.51145 0.61127 0.16931
 C419 C 0.51252 0.63695 0.11682
 C420 C 0.51380 0.69566 0.11358
 C421 C 0.51698 0.72833 0.16307
 C422 C 0.51679 0.70273 0.21551
 C423 C 0.50802 0.61731 0.27497
 C424 C 0.47838 0.64422 0.31865
 C425 C 0.47578 0.61900 0.37135
 C426 C 0.50311 0.56636 0.38315
 C427 C 0.52970 0.53910 0.33696
 C428 C 0.53303 0.56408 0.28471
 H429 H 0.50877 0.61143 0.07884
 H430 H 0.51747 0.77390 0.16098
 H431 H 0.44984 0.64037 0.40132
 H432 H 0.55213 0.49950 0.34073
 H433 H 0.51898 0.72900 0.25307
 H434 H 0.45610 0.68439 0.31190
 H435 H 0.50735 0.56605 0.17058
 H436 H 0.55682 0.54196 0.25239
 C437 C 0.52231 0.61856 0.80417
 C438 C 0.47764 0.60459 0.83741
 C439 C 0.47443 0.62510 0.89244
 C440 C 0.51515 0.66094 0.91425
 C441 C 0.56250 0.67044 0.88273
 C442 C 0.56626 0.64893 0.82788
 C443 C 0.52213 0.60287 0.74433
 C444 C 0.47876 0.62154 0.70777
 C445 C 0.47804 0.60406 0.65127
 C446 C 0.52087 0.56829 0.62853
 C447 C 0.56155 0.54766 0.66877
 C448 C 0.56369 0.56605 0.72438
 H449 H 0.43746 0.61753 0.91619
 H450 H 0.59363 0.69890 0.89812
 H451 H 0.44224 0.61765 0.62703
 H452 H 0.59027 0.51318 0.65986
 H453 H 0.60138 0.65929 0.80263
 H454 H 0.44488 0.64892 0.72316
 H455 H 0.44413 0.57999 0.81990
 H456 H 0.59595 0.54855 0.75276
 C457 C 0.48481 0.36797 0.20910
 C458 C 0.43268 0.35820 0.18290
 C459 C 0.42866 0.33766 0.12774
 C460 C 0.47656 0.32250 0.09633
 C461 C 0.52899 0.33513 0.12093
 C462 C 0.53297 0.35755 0.17635
 C463 C 0.48800 0.38824 0.26992
 C464 C 0.53604 0.37836 0.30428
 C465 C 0.53823 0.39806 0.36047
 C466 C 0.49316 0.42895 0.38578
 C467 C 0.44364 0.43232 0.35244
 C468 C 0.44154 0.41513 0.29582
 H469 H 0.38688 0.33319 0.11027
 H470 H 0.56736 0.32507 0.09908
 H471 H 0.57550 0.38781 0.38384
 H472 H 0.40494 0.44692 0.36881
 H473 H 0.57410 0.36591 0.19356
 H474 H 0.57218 0.35486 0.28832
 H475 H 0.39398 0.36460 0.20498
 H476 H 0.40263 0.42372 0.27289
 C477 C 0.52905 0.36388 0.79543
 C478 C 0.51319 0.30798 0.79455
 C479 C 0.50193 0.28105 0.84450
 C480 C 0.50715 0.30882 0.89732
 C481 C 0.52860 0.36318 0.89858
 C482 C 0.53790 0.39115 0.84779
 C483 C 0.52919 0.39427 0.74131
 C484 C 0.48497 0.43203 0.72709
 C485 C 0.48082 0.45551 0.67338
 C486 C 0.51895 0.44055 0.63017
 C487 C 0.56679 0.40849 0.64869
 C488 C 0.57094 0.38344 0.70197
 H489 H 0.48855 0.23808 0.84141
 H490 H 0.53335 0.38591 0.93815
 H491 H 0.45044 0.48960 0.66888
 H492 H 0.60391 0.40875 0.62565
 H493 H 0.55011 0.43458 0.84923
 H494 H 0.45363 0.44377 0.75779
 H495 H 0.50655 0.28603 0.75479
 H496 H 0.60776 0.35740 0.71323
 C497 C 0.66555 0.77247 0.49914
 C498 C 0.63617 0.81801 0.52507
 C499 C 0.65617 0.87236 0.52345
 C500 C 0.70536 0.88223 0.49463
 C501 C 0.73624 0.83536 0.47196
 C502 C 0.71660 0.78123 0.47430
 C503 C 0.64001 0.71745 0.49310
 C504 C 0.67022 0.66654 0.50274
 C505 C 0.64278 0.61567 0.49938
 C506 C 0.58394 0.61444 0.49169
 C507 C 0.55914 0.66459 0.46938
 C508 C 0.58520 0.71557 0.47269
 H509 H 0.63072 0.90661 0.54126
 H510 H 0.77615 0.83987 0.45247
 H511 H 0.66886 0.57768 0.50039
 H512 H 0.51784 0.66721 0.45268
 H513 H 0.74010 0.74666 0.45439
 H514 H 0.71466 0.66595 0.51278
 H515 H 0.59665 0.81174 0.54491
 H516 H 0.56220 0.75370 0.45938
 C517 C 0.60004 0.18841 0.50773
 C518 C 0.62658 0.16337 0.55540
 C519 C 0.65134 0.10894 0.55189
 C520 C 0.64870 0.07828 0.50119
 C521 C 0.61523 0.09993 0.45644
 C522 C 0.59176 0.15469 0.45931
 C523 C 0.58695 0.25043 0.50612
 C524 C 0.54393 0.27316 0.47157
 C525 C 0.53400 0.33139 0.46829
 C526 C 0.56449 0.37102 0.50093
 C527 C 0.60878 0.34623 0.53413
 C528 C 0.62009 0.28801 0.53629
 H529 H 0.67740 0.09371 0.58667
 H530 H 0.61283 0.07694 0.41677
 H531 H 0.49828 0.34355 0.44265
 H532 H 0.63653 0.36897 0.55981
 H533 H 0.57169 0.17185 0.42160
 H534 H 0.51638 0.24611 0.44790
 H535 H 0.63176 0.18713 0.59426
 H536 H 0.65564 0.27269 0.56169
 C537 C 0.37510 0.80129 0.52500
 C538 C 0.31807 0.81165 0.53572
 C539 C 0.29397 0.86627 0.53226
 C540 C 0.32625 0.91157 0.51754
 C541 C 0.38376 0.90201 0.50933
 C542 C 0.40818 0.84725 0.51356
 C543 C 0.39886 0.74238 0.52212
 C544 C 0.44931 0.72702 0.54979
 C545 C 0.47159 0.67161 0.54606
 C546 C 0.44579 0.62921 0.51291
 C547 C 0.39411 0.64591 0.48647
 C548 C 0.37116 0.70104 0.49098
 H549 H 0.24934 0.87279 0.53802
 H550 H 0.40905 0.93628 0.49692
 H551 H 0.51119 0.66295 0.56773
 H552 H 0.36936 0.61683 0.46384
 H553 H 0.45222 0.84032 0.50488
 H554 H 0.47159 0.75788 0.57456
 H555 H 0.29179 0.77715 0.54520
 H556 H 0.33167 0.71149 0.46946
 C557 C 0.35758 0.22715 0.52816
 C558 C 0.39007 0.17664 0.53628
 C559 C 0.36495 0.12412 0.53427
 C560 C 0.30707 0.12156 0.52438
 C561 C 0.27445 0.17226 0.52017
 C562 C 0.29937 0.22433 0.52173
 C563 C 0.38400 0.28256 0.52455
 C564 C 0.36835 0.32070 0.48163
 C565 C 0.39451 0.37220 0.47739
 C566 C 0.43569 0.38873 0.51701
 C567 C 0.45144 0.34875 0.55916
 C568 C 0.42603 0.29718 0.56306
 H569 H 0.39098 0.08566 0.53686
 H570 H 0.22961 0.17136 0.51271
 H571 H 0.38316 0.39776 0.44179
 H572 H 0.48578 0.35466 0.58790
 H573 H 0.27321 0.26246 0.51657
 H574 H 0.33705 0.30984 0.45006
 H575 H 0.43515 0.17762 0.54130
 H576 H 0.43988 0.26835 0.59605
   
