data_POSCAR
  _audit_creation_date              2014-09-24
  _audit_creation_method            'ToBaCCo'
  _symmetry_space_group_name_H-M    'P1'
  _symmetry_Int_Tables_number       1
  _symmetry_cell_setting            triclinic
  loop_
  _symmetry_equiv_pos_as_xyz
 x,y,z
_cell_length_a 42.4364
_cell_length_b 40.4273
_cell_length_c 40.1500
_cell_angle_alpha 89.896500
_cell_angle_beta 92.233500
_cell_angle_gamma 92.097500
loop_
  _atom_site_label
  _atom_site_type_symbol
  _atom_site_fract_x
  _atom_site_fract_y
  _atom_site_fract_z
N1 N 0.62383 0.63259 0.61441
 N2 N 0.87900 0.36738 0.12296
 N3 N 0.36692 0.13086 -0.12180
 N4 N 0.12723 0.87107 0.38123
 N5 N 0.08454 0.17486 0.10789
 N6 N 0.07249 0.16070 0.13427
 C7 C 0.04709 0.17726 0.14292
 C8 C 0.04283 0.20281 0.12053
 C9 C 0.06691 0.20057 0.09854
 H10 H 0.03263 0.17118 0.16382
 H11 H 0.07155 0.21680 0.07772
 Cu12 Cu 0.09078 0.12179 0.15467
 Cu13 Cu 0.12289 0.15970 0.08857
 Cu14 Cu 0.15774 0.09227 0.12625
 N15 N 0.11092 0.08416 0.17559
 N16 N 0.13767 0.07348 0.16505
 C17 C 0.14701 0.04821 0.18446
 C18 C 0.12472 0.04254 0.20817
 C19 C 0.10209 0.06568 0.20184
 H20 H 0.16818 0.03462 0.18133
 H21 H 0.08104 0.06897 0.21561
 N22 N 0.17456 0.11452 0.08674
 N23 N 0.16176 0.14068 0.07277
 C24 C 0.17906 0.15048 0.04682
 C25 C 0.20357 0.12920 0.04421
 C26 C 0.19999 0.10669 0.06976
 H27 H 0.17400 0.17120 0.03066
 H28 H 0.21498 0.08623 0.07557
 H29 H 0.11760 0.11094 0.10335
 H30 H 0.14119 0.13943 0.13210
 N31 N 0.42956 0.83854 0.60660
 N32 N 0.43837 0.84515 0.63771
 C33 C 0.46251 0.82604 0.64693
 C34 C 0.46938 0.80673 0.61996
 C35 C 0.44818 0.81541 0.59470
 H36 H 0.47407 0.82602 0.67142
 H37 H 0.44572 0.80487 0.56994
 Cu38 Cu 0.41753 0.87833 0.66295
 Cu39 Cu 0.39288 0.85874 0.58520
 Cu40 Cu 0.34111 0.88659 0.64288
 N41 N 0.39254 0.90945 0.68637
 N42 N 0.36219 0.91180 0.67925
 C43 C 0.35044 0.93464 0.69924
 C44 C 0.37491 0.94762 0.71951
 C45 C 0.40130 0.93110 0.71071
 H46 H 0.32618 0.94204 0.69825
 H47 H 0.42509 0.93479 0.72103
 N48 N 0.32794 0.87421 0.59685
 N49 N 0.34805 0.86597 0.57426
 C50 C 0.33239 0.86178 0.54468
 C51 C 0.30090 0.86743 0.54902
 C52 C 0.29886 0.87518 0.58235
 H53 H 0.34302 0.85468 0.52183
 H54 H 0.27794 0.88198 0.59488
 H55 H 0.38115 0.89616 0.61842
 H56 H 0.37406 0.85190 0.63011
 N57 N 0.90860 0.67732 0.38828
 N58 N 0.92510 0.65890 0.36895
 C59 C 0.95306 0.67454 0.36381
 C60 C 0.95391 0.70439 0.38054
 C61 C 0.92532 0.70546 0.39575
 H62 H 0.97129 0.66527 0.34863
 H63 H 0.91756 0.72498 0.41153
 Cu64 Cu 0.90756 0.61741 0.35062
 Cu65 Cu 0.86769 0.66239 0.40419
 Cu66 Cu 0.83695 0.58719 0.37373
 N67 N 0.88946 0.57597 0.33265
 N68 N 0.86131 0.56491 0.34095
 C69 C 0.85311 0.53774 0.32282
 C70 C 0.87751 0.53137 0.30225
 C71 C 0.90026 0.55598 0.30917
 H72 H 0.83082 0.52401 0.32400
 H73 H 0.92235 0.55975 0.29693
 N74 N 0.81587 0.61344 0.40700
 N75 N 0.82694 0.64266 0.41764
 C76 C 0.80764 0.65401 0.44055
 C77 C 0.78357 0.63064 0.44474
 C78 C 0.78945 0.60528 0.42314
 H79 H 0.81150 0.67684 0.45434
 H80 H 0.77581 0.58230 0.42002
 H81 H 0.87431 0.61236 0.39858
 H82 H 0.85459 0.63411 0.36284
 N83 N 0.58208 0.32859 -0.11265
 N84 N 0.56937 0.34216 -0.13952
 C85 C 0.54201 0.32570 -0.14785
 C86 C 0.53725 0.30087 -0.12470
 C87 C 0.56303 0.30342 -0.10267
 H88 H 0.52655 0.33139 -0.16896
 H89 H 0.56782 0.28774 -0.08135
 Cu90 Cu 0.58961 0.38039 -0.16046
 Cu91 Cu 0.62293 0.34365 -0.09339
 Cu92 Cu 0.65976 0.41130 -0.13078
 N93 N 0.61030 0.41860 -0.18096
 N94 N 0.63812 0.43001 -0.16973
 C95 C 0.64748 0.45574 -0.18874
 C96 C 0.62412 0.46091 -0.21290
 C97 C 0.60082 0.43702 -0.20724
 H98 H 0.66946 0.46991 -0.18506
 H99 H 0.57881 0.43325 -0.22145
 N100 N 0.67787 0.38892 -0.09120
 N101 N 0.66430 0.36255 -0.07759
 C102 C 0.68282 0.35239 -0.05181
 C103 C 0.70897 0.37365 -0.04885
 C104 C 0.70508 0.39657 -0.07407
 H105 H 0.67752 0.33143 -0.03596
 H106 H 0.72110 0.41708 -0.07960
 H107 H 0.61980 0.39230 -0.10867
 H108 H 0.64036 0.36390 -0.13655
 C109 C -0.05195 0.29732 0.12143
 N110 N -0.06358 0.31057 0.09259
 N111 N -0.08592 0.33287 0.09305
 C112 C -0.09721 0.34300 0.12240
 N113 N -0.08548 0.32980 0.15124
 N114 N -0.06339 0.30726 0.15074
 C115 C -0.02740 0.27269 0.12102
 N116 N -0.02121 0.25382 0.14833
 N117 N 0.00105 0.23144 0.14806
 C118 C 0.01817 0.22737 0.12060
 N119 N 0.01211 0.24634 0.09333
 N120 N -0.01039 0.26850 0.09348
 C121 C 0.55898 0.70697 0.61654
 N122 N 0.56995 0.69665 0.58715
 N123 N 0.59082 0.67286 0.58646
 C124 C 0.60131 0.65831 0.61513
 N125 N 0.59021 0.66857 0.64452
 N126 N 0.56952 0.69253 0.64521
 C127 C 0.53599 0.73319 0.61733
 N128 N 0.52891 0.74723 0.64668
 N129 N 0.50791 0.77088 0.64746
 C130 C 0.49307 0.78120 0.61895
 N131 N 0.50010 0.76715 0.58960
 N132 N 0.52128 0.74366 0.58879
 C133 C 1.05357 0.80092 0.38372
 N134 N 1.04766 0.83370 0.38426
 N135 N 1.07126 0.85634 0.38353
 C136 C 1.10162 0.84697 0.38253
 N137 N 1.10753 0.81420 0.38247
 N138 N 1.08393 0.79159 0.38284
 C139 C 1.02765 0.77587 0.38338
 N140 N 1.03264 0.74437 0.37379
 N141 N 1.00910 0.72165 0.37283
 C142 C 0.97979 0.72950 0.38177
 N143 N 0.97481 0.76095 0.39160
 N144 N 0.99830 0.78379 0.39220
 C145 C 0.43681 0.20536 -0.12267
 N146 N 0.42391 0.19285 -0.15166
 N147 N 0.40135 0.16906 -0.15139
 C148 C 0.39062 0.15716 -0.12211
 N149 N 0.40329 0.16994 -0.09311
 N150 N 0.42609 0.19348 -0.09338
 C151 C 0.46245 0.23072 -0.12299
 N152 N 0.48130 0.23651 -0.09536
 N153 N 0.50513 0.25886 -0.09591
 C154 C 0.51077 0.27649 -0.12401
 N155 N 0.49177 0.27090 -0.15155
 N156 N 0.46815 0.24828 -0.15112
 C157 C 0.12601 -0.05552 0.30850
 N158 N 0.09871 -0.07036 0.31830
 N159 N 0.09913 -0.09393 0.34154
 C160 C 0.12682 -0.10331 0.35617
 N161 N 0.15408 -0.08824 0.34640
 N162 N 0.15371 -0.06493 0.32292
 C163 C 0.12566 -0.02990 0.28257
 N164 N 0.15239 -0.02129 0.26667
 N165 N 0.15204 0.00172 0.24287
 C166 C 0.12504 0.01719 0.23438
 N167 N 0.09834 0.00873 0.25042
 N168 N 0.09860 -0.01454 0.27397
 C169 C 0.62388 0.55943 -0.31287
 N170 N 0.65139 0.57137 -0.32517
 N171 N 0.65136 0.59469 -0.34866
 C172 C 0.62382 0.60717 -0.36049
 N173 N 0.59631 0.59530 -0.34809
 N174 N 0.59633 0.57175 -0.32482
 C175 C 0.62394 0.53374 -0.28698
 N176 N 0.59689 0.51669 -0.27978
 N177 N 0.59698 0.49335 -0.25630
 C178 C 0.62405 0.48645 -0.23896
 N179 N 0.65107 0.50360 -0.24606
 N180 N 0.65104 0.52672 -0.26975
 C181 C 0.37004 1.05271 0.81150
 N182 N 0.39681 1.07002 0.82126
 N183 N 0.39578 1.09518 0.84251
 C184 C 0.36795 1.10388 0.85497
 N185 N 0.34117 1.08648 0.84524
 N186 N 0.34218 1.06144 0.82382
 C187 C 0.37122 1.02510 0.78793
 N188 N 0.34425 1.01093 0.77425
 N189 N 0.34540 0.98616 0.75253
 C190 C 0.37356 0.97452 0.74388
 N191 N 0.40051 0.98858 0.75769
 N192 N 0.39937 1.01347 0.77925
 C193 C 0.87878 0.43518 0.20051
 N194 N 0.85128 0.42387 0.18548
 N195 N 0.85136 0.40218 0.16054
 C196 C 0.87895 0.39078 0.14989
 N197 N 0.90646 0.40198 0.16506
 N198 N 0.90638 0.42390 0.18981
 C199 C 0.87864 0.45956 0.22754
 N200 N 0.90562 0.47637 0.23761
 N201 N 0.90530 0.49912 0.26156
 C202 C 0.87807 0.50564 0.27652
 N203 N 0.85115 0.48863 0.26665
 N204 N 0.85141 0.46610 0.24251
 C205 C 0.29793 0.13079 -0.05128
 N206 N 0.31034 0.10202 -0.06092
 N207 N 0.33240 0.10203 -0.08363
 C208 C 0.34310 0.13086 -0.09731
 N209 N 0.33084 0.15968 -0.08747
 N210 N 0.30854 0.15963 -0.06499
 C211 C 0.27346 0.13059 -0.02642
 N212 N 0.25571 0.15744 -0.02221
 N213 N 0.23331 0.15700 0.00018
 C214 C 0.22808 0.12981 0.01936
 N215 N 0.24593 0.10305 0.01525
 N216 N 0.26810 0.10336 -0.00734
 C217 C 0.69005 0.63224 0.54098
 N218 N 0.68005 0.66125 0.55301
 N219 N 0.65866 0.66137 0.57643
 C220 C 0.64669 0.63249 0.58890
 N221 N 0.65681 0.60349 0.57692
 N222 N 0.67800 0.60338 0.55331
 C223 C 0.71382 0.63206 0.51539
 N224 N 0.71957 0.60370 0.49899
 N225 N 0.74148 0.60339 0.47613
 C226 C 0.75862 0.63135 0.46903
 N227 N 0.75289 0.65971 0.48544
 N228 N 0.73078 0.66009 0.50810
 C229 C 0.80851 0.36961 0.04848
 N230 N 0.82166 0.39816 0.06133
 N231 N 0.84433 0.39743 0.08520
 C232 C 0.85493 0.36813 0.09683
 N233 N 0.84196 0.33956 0.08375
 N234 N 0.81904 0.34030 0.06014
 C235 C 0.78297 0.37047 0.02280
 N236 N 0.76378 0.34338 0.01670
 N237 N 0.74015 0.34441 -0.00609
 C238 C 0.73510 0.37245 -0.02386
 N239 N 0.75444 0.39946 -0.01794
 N240 N 0.77784 0.39855 0.00512
 C241 C 0.20143 0.86570 0.45135
 N242 N 0.17124 0.85912 0.45998
 N243 N 0.14757 0.86040 0.43729
 C244 C 0.15314 0.86866 0.40520
 N245 N 0.18339 0.87505 0.39654
 N246 N 0.20711 0.87348 0.41917
 C247 C 0.22734 0.86532 0.47663
 N248 N 0.25785 0.86562 0.46758
 N249 N 0.28131 0.86592 0.49065
 C250 C 0.27510 0.86627 0.52356
 N251 N 0.24460 0.86603 0.53259
 N252 N 0.22115 0.86541 0.50955
   
