data_POSCAR
  _audit_creation_date              2014-09-24
  _audit_creation_method            'ToBaCCo'
  _symmetry_space_group_name_H-M    'P1'
  _symmetry_Int_Tables_number       1
  _symmetry_cell_setting            triclinic
  loop_
  _symmetry_equiv_pos_as_xyz
 x,y,z
_cell_length_a 41.2615
_cell_length_b 41.4008
_cell_length_c 41.6064
_cell_angle_alpha 89.668900
_cell_angle_beta 92.200800
_cell_angle_gamma 91.428800
loop_
  _atom_site_label
  _atom_site_type_symbol
  _atom_site_fract_x
  _atom_site_fract_y
  _atom_site_fract_z
C1 C 0.72394 0.67337 0.94634
 H2 H 0.74480 0.67692 0.93181
 C3 C 0.69479 0.68758 0.93679
 H4 H 0.69365 0.70168 0.91478
 C5 C 0.69976 0.65032 0.99206
 H6 H 0.70179 0.63613 1.01387
 C7 C 0.67012 0.66403 0.98338
 H8 H 0.64983 0.66023 0.99879
 N9 N 0.72569 0.65428 0.97304
 C10 C 0.82741 0.64596 1.00183
 H11 H 0.83076 0.62119 0.99478
 C12 C 0.85361 0.66424 1.01446
 H13 H 0.87708 0.65321 1.01725
 C14 C 0.79228 0.68986 1.00746
 H15 H 0.76822 0.69953 1.00471
 C16 C 0.81786 0.70902 1.02053
 H17 H 0.81329 0.73360 1.02741
 Zn18 Zn 0.76384 0.63089 0.98331
 N19 N 0.79747 0.65882 0.99894
 C20 C 0.77794 0.57863 0.94104
 N21 N 0.77897 0.61113 0.94588
 C22 C 0.79325 0.63152 0.92464
 C23 C 0.80692 0.61964 0.89717
 C24 C 0.79151 0.56562 0.91379
 C25 C 0.76775 0.60431 1.04574
 C26 C 0.75626 0.58667 1.07175
 C27 C 0.71802 0.55902 1.03546
 C28 C 0.73020 0.57746 1.01019
 N29 N 0.75401 0.60018 1.01583
 H30 H 0.76730 0.56264 0.95853
 H31 H 0.79501 0.65711 0.92955
 H32 H 0.81777 0.63660 0.88062
 H33 H 0.79105 0.53967 0.91058
 H34 H 0.78647 0.62266 1.04995
 H35 H 0.76732 0.59176 1.09527
 H36 H 0.69820 0.54248 1.02933
 H37 H 0.71913 0.57507 0.98629
 C38 C 0.84894 0.69600 1.02460
 C39 C 0.66710 0.68215 0.95485
 C40 C 0.72993 0.56433 1.06747
 C41 C 0.80673 0.58621 0.89169
 C42 C 0.68856 0.33819 0.52647
 H43 H 0.71082 0.32719 0.53494
 C44 C 0.65870 0.32573 0.53632
 H45 H 0.65801 0.30494 0.55221
 C46 C 0.66225 0.38017 0.49746
 H47 H 0.66376 0.40194 0.48310
 C48 C 0.63206 0.36906 0.50746
 H49 H 0.61046 0.38214 0.50051
 N50 N 0.68977 0.36493 0.50735
 C51 C 0.78826 0.37170 0.47297
 H52 H 0.79149 0.39745 0.47661
 C53 C 0.81261 0.35441 0.45924
 H54 H 0.83447 0.36724 0.45233
 C55 C 0.75516 0.32437 0.47693
 H56 H 0.73251 0.31292 0.48341
 C57 C 0.77906 0.30599 0.46320
 H58 H 0.77465 0.28032 0.46014
 Zn59 Zn 0.73008 0.38512 0.49834
 N60 N 0.76033 0.35659 0.48172
 C61 C 0.77563 0.39193 0.54980
 N62 N 0.74755 0.40369 0.53687
 C63 C 0.73159 0.42737 0.55179
 C64 C 0.74454 0.44102 0.58035
 C65 C 0.78932 0.40472 0.57818
 C66 C 0.71436 0.40335 0.43682
 C67 C 0.70983 0.42310 0.40999
 C68 C 0.72401 0.46951 0.44311
 C69 C 0.72883 0.44867 0.46940
 N70 N 0.72356 0.41629 0.46576
 H71 H 0.78740 0.37231 0.53834
 H72 H 0.70893 0.43587 0.54133
 H73 H 0.73190 0.46049 0.59121
 H74 H 0.81173 0.39486 0.58787
 H75 H 0.71068 0.37748 0.43465
 H76 H 0.70220 0.41224 0.38722
 H77 H 0.72821 0.49524 0.44622
 H78 H 0.73689 0.45835 0.49247
 C79 C 0.80827 0.32111 0.45396
 C80 C 0.63020 0.34175 0.52734
 C81 C 0.71439 0.45662 0.41296
 C82 C 0.77394 0.42972 0.59387
 C83 C 0.24753 -0.16317 0.04596
 H84 H 0.27201 -0.16383 0.05618
 C85 C 0.22235 -0.18005 0.06088
 H86 H 0.22790 -0.19328 0.08279
 C87 C 0.21060 -0.14333 0.00605
 H88 H 0.20573 -0.12835 -0.01479
 C89 C 0.18488 -0.15982 0.02001
 H90 H 0.16075 -0.15769 0.00914
 N91 N 0.24129 -0.14549 0.01888
 C92 C 0.33136 -0.13211 -0.03108
 H93 H 0.33012 -0.10626 -0.03470
 C94 C 0.35647 -0.14901 -0.04391
 H95 H 0.37452 -0.13597 -0.05748
 C96 C 0.30849 -0.18041 -0.00983
 H97 H 0.28944 -0.19249 0.00311
 C98 C 0.33305 -0.19847 -0.02279
 H99 H 0.33302 -0.22439 -0.01923
 Zn100 Zn 0.27497 -0.12114 -0.00038
 N101 N 0.30824 -0.14780 -0.01411
 C102 C 0.32448 -0.09311 0.03930
 N103 N 0.29251 -0.09108 0.03045
 C104 C 0.27278 -0.07113 0.04620
 C105 C 0.28507 -0.05275 0.07238
 C106 C 0.33777 -0.07490 0.06475
 C107 C 0.24961 -0.12475 -0.06112
 C108 C 0.23517 -0.11610 -0.09048
 C109 C 0.23941 -0.06024 -0.07414
 C110 C 0.25371 -0.07021 -0.04466
 N111 N 0.25781 -0.10215 -0.03861
 H112 H 0.33965 -0.10997 0.02771
 H113 H 0.24726 -0.07051 0.03929
 H114 H 0.26897 -0.03768 0.08532
 H115 H 0.36300 -0.07806 0.07192
 H116 H 0.25389 -0.14996 -0.05591
 H117 H 0.23009 -0.13554 -0.10717
 H118 H 0.23583 -0.03464 -0.07790
 H119 H 0.26100 -0.05257 -0.02655
 C120 C 0.35741 -0.18264 -0.04014
 C121 C 0.19043 -0.17859 0.04777
 C122 C 0.22870 -0.08338 -0.09753
 C123 C 0.31801 -0.05464 0.08195
 C124 C 0.18234 0.17788 0.47187
 H125 H 0.20346 0.19378 0.47434
 C126 C 0.15288 0.18977 0.45942
 H127 H 0.15156 0.21491 0.45227
 C128 C 0.15855 0.12548 0.47684
 H129 H 0.16109 0.10030 0.48328
 C130 C 0.12882 0.13631 0.46489
 H131 H 0.10850 0.11930 0.46312
 N132 N 0.18468 0.14603 0.47957
 C133 C 0.27021 0.15179 0.53593
 H134 H 0.25974 0.13491 0.55264
 C135 C 0.29789 0.16948 0.54569
 H136 H 0.30772 0.16611 0.56996
 C137 C 0.27160 0.17475 0.48374
 H138 H 0.26155 0.17603 0.45938
 C139 C 0.29980 0.19276 0.49246
 H140 H 0.31075 0.20847 0.47483
 Zn141 Zn 0.22344 0.12536 0.49220
 N142 N 0.25760 0.15453 0.50540
 C143 C 0.26535 0.08507 0.45926
 N144 N 0.23780 0.10238 0.45642
 C145 C 0.22239 0.10696 0.42729
 C146 C 0.23520 0.09484 0.39942
 C147 C 0.27878 0.07210 0.43195
 C148 C 0.19940 0.11319 0.55203
 C149 C 0.19124 0.09608 0.57956
 C150 C 0.20978 0.04741 0.55511
 C151 C 0.21803 0.06565 0.52803
 N152 N 0.21305 0.09801 0.52721
 H153 H 0.27754 0.08239 0.48257
 H154 H 0.20086 0.12124 0.42532
 H155 H 0.22291 0.09932 0.37642
 H156 H 0.30124 0.05916 0.43444
 H157 H 0.19531 0.13887 0.55051
 H158 H 0.18058 0.10877 0.59909
 H159 H 0.21430 0.02177 0.55564
 H160 H 0.22844 0.05398 0.50782
 C161 C 0.31354 0.18984 0.52378
 C162 C 0.12589 0.16860 0.45495
 C163 C 0.19634 0.06277 0.58140
 C164 C 0.26412 0.07777 0.40148
 C165 C 0.14496 0.45936 0.21870
 H166 H 0.13247 0.44231 0.23387
 C167 C 0.15973 0.44815 0.19158
 H168 H 0.15810 0.42252 0.18649
 C169 C 0.16150 0.51314 0.20684
 H170 H 0.16179 0.53852 0.21294
 C171 C 0.17673 0.50289 0.17923
 H172 H 0.18920 0.52062 0.16471
 N173 N 0.14584 0.49137 0.22580
 C174 C 0.13738 0.52326 0.32481
 H175 H 0.11164 0.51875 0.32719
 C176 C 0.15625 0.53436 0.35112
 H177 H 0.14459 0.53859 0.37353
 C178 C 0.18330 0.52336 0.29237
 H179 H 0.19369 0.51882 0.26943
 C180 C 0.20322 0.53447 0.31821
 H181 H 0.22890 0.53792 0.31472
 Zn182 Zn 0.12238 0.50453 0.26170
 N183 N 0.15092 0.51855 0.29599
 C184 C 0.11316 0.44959 0.29922
 N185 N 0.09809 0.46806 0.27634
 C186 C 0.06923 0.45833 0.26212
 C187 C 0.05469 0.42867 0.27068
 C188 C 0.09955 0.42007 0.30848
 C189 C 0.09424 0.56605 0.26730
 C190 C 0.07859 0.59356 0.25589
 C191 C 0.06515 0.56549 0.20628
 C192 C 0.08064 0.53825 0.21887
 N193 N 0.09533 0.53917 0.24869
 H194 H 0.13648 0.45723 0.30962
 H195 H 0.05800 0.47308 0.24349
 H196 H 0.03204 0.42094 0.25879
 H197 H 0.11207 0.40623 0.32703
 H198 H 0.10659 0.56689 0.29057
 H199 H 0.07932 0.61502 0.27066
 H200 H 0.05464 0.56477 0.18203
 H201 H 0.08231 0.51689 0.20424
 C202 C 0.18960 0.54066 0.34803
 C203 C 0.17568 0.46988 0.17109
 C204 C 0.06439 0.59376 0.22473
 C205 C 0.07032 0.40877 0.29363
 C206 C -0.18303 0.02571 0.21025
 H207 H -0.18243 0.03504 0.23450
 C208 C -0.20529 0.03769 0.18730
 H209 H -0.22120 0.05616 0.19505
 C210 C -0.16021 -0.00738 0.17135
 H211 H -0.14208 -0.02435 0.16501
 C212 C -0.18165 0.00431 0.14746
 H213 H -0.17975 -0.00455 0.12318
 N214 N -0.16112 0.00357 0.20203
 C215 C -0.12453 -0.04586 0.28809
 H216 H -0.09940 -0.04643 0.28164
 C217 C -0.13447 -0.06223 0.31549
 H218 H -0.11683 -0.07529 0.33008
 C219 C -0.17785 -0.02767 0.27709
 H220 H -0.19476 -0.01449 0.26193
 C221 C -0.18872 -0.04320 0.30480
 H222 H -0.21396 -0.04185 0.31076
 Zn223 Zn -0.12854 -0.00801 0.23314
 N224 N -0.14612 -0.02905 0.26946
 C225 C -0.10336 0.03721 0.27852
 N226 N -0.10660 0.03065 0.24660
 C227 C -0.09736 0.05274 0.22420
 C228 C -0.08507 0.08323 0.23365
 C229 C -0.09094 0.06709 0.28901
 C230 C -0.11240 -0.06726 0.20827
 C231 C -0.09256 -0.09142 0.19755
 C232 C -0.04692 -0.05376 0.20160
 C233 C -0.06771 -0.03026 0.21239
 N234 N -0.09981 -0.03739 0.21538
 H235 H -0.11117 0.01959 0.29601
 H236 H -0.10071 0.04712 0.19891
 H237 H -0.07924 0.10062 0.21517
 H238 H -0.08902 0.07159 0.31463
 H239 H -0.13793 -0.07239 0.21140
 H240 H -0.10322 -0.11498 0.19194
 H241 H -0.02137 -0.04773 0.20001
 H242 H -0.05812 -0.00655 0.21892
 C243 C -0.16691 -0.06097 0.32414
 C244 C -0.20466 0.02750 0.15495
 C245 C -0.05933 -0.08489 0.19399
 C246 C -0.08203 0.09097 0.26658
 C247 C 0.32436 0.53792 0.74937
 H248 H 0.32791 0.54896 0.77278
 C249 C 0.30896 0.55493 0.72424
 H250 H 0.29971 0.57849 0.72925
 C251 C 0.33312 0.49410 0.71471
 H252 H 0.34321 0.47065 0.71089
 C253 C 0.31815 0.51031 0.68890
 H254 H 0.31696 0.49890 0.66552
 N255 N 0.33714 0.50863 0.74386
 C256 C 0.36861 0.45797 0.83165
 H257 H 0.39445 0.45966 0.82814
 C258 C 0.35714 0.44255 0.85885
 H259 H 0.37452 0.43284 0.87624
 C260 C 0.31511 0.47005 0.81353
 H261 H 0.29897 0.48100 0.79575
 C262 C 0.30246 0.45466 0.84065
 H263 H 0.27648 0.45354 0.84348
 Zn264 Zn 0.36771 0.49194 0.77425
 N265 N 0.34772 0.47126 0.80956
 C266 C 0.39450 0.53421 0.82216
 N267 N 0.39376 0.52758 0.79012
 C268 C 0.40905 0.54765 0.76920
 C269 C 0.42686 0.57475 0.78041
 C270 C 0.41194 0.56096 0.83435
 C271 C 0.39130 0.42949 0.76104
 C272 C 0.40647 0.40632 0.74300
 C273 C 0.42551 0.44882 0.70803
 C274 C 0.41033 0.47124 0.72696
 N275 N 0.39319 0.46134 0.75271
 H276 H 0.38077 0.51947 0.83844
 H277 H 0.40664 0.54339 0.74368
 H278 H 0.43880 0.59040 0.76333
 H279 H 0.41120 0.56593 0.85980
 H280 H 0.37674 0.42161 0.78073
 H281 H 0.40376 0.38103 0.74942
 H282 H 0.43838 0.45721 0.68726
 H283 H 0.41089 0.49630 0.71992
 C284 C 0.32363 0.44026 0.86350
 C285 C 0.30719 0.54184 0.69301
 C286 C 0.42308 0.41581 0.71562
 C287 C 0.42873 0.58154 0.81345
 C288 C 0.68489 0.98211 0.70010
 H289 H 0.69551 0.98839 0.72345
 C290 C 0.70410 0.96855 0.67695
 H291 H 0.72947 0.96510 0.68299
 C292 C 0.63919 0.98049 0.66391
 H293 H 0.61380 0.98527 0.65909
 C294 C 0.65732 0.96670 0.64022
 H295 H 0.64542 0.96085 0.61728
 N296 N 0.65292 0.98716 0.69339
 C297 C 0.64786 1.04620 0.77331
 H298 H 0.63686 1.06465 0.75841
 C299 C 0.66040 1.05437 0.80380
 H300 H 0.65913 1.07938 0.81101
 C301 C 0.66099 0.99150 0.78191
 H302 H 0.66036 0.96686 0.77336
 C303 C 0.67375 0.99854 0.81285
 H304 H 0.68318 0.97872 0.82698
 Zn305 Zn 0.62526 1.00395 0.72405
 N306 N 0.64809 1.01518 0.76300
 C307 C 0.57449 0.97897 0.75976
 N308 N 0.59361 0.97238 0.73487
 C309 C 0.59280 0.94272 0.72096
 C310 C 0.57284 0.91802 0.73268
 C311 C 0.55436 0.95490 0.77245
 C312 C 0.62633 1.06413 0.69414
 C313 C 0.61419 1.09269 0.68113
 C314 C 0.55998 1.07291 0.69145
 C315 C 0.57320 1.04467 0.70434
 N316 N 0.60588 1.04101 0.70575
 H317 H 0.57617 1.00256 0.77085
 H318 H 0.60867 0.93760 0.70172
 H319 H 0.57337 0.89433 0.72183
 H320 H 0.54104 0.96049 0.79349
 H321 H 0.65223 1.06054 0.69558
 H322 H 0.63117 1.11107 0.67310
 H323 H 0.53390 1.07547 0.69060
 H324 H 0.55735 1.02582 0.71335
 C325 C 0.67309 1.03043 0.82475
 C326 C 0.69017 0.95993 0.64662
 C327 C 0.58054 1.09739 0.67956
 C328 C 0.55381 0.92362 0.75928
 C329 C 0.01932 0.19764 -0.15658
 H330 H 0.01793 0.21997 -0.17007
 C331 C 0.03342 0.17064 -0.17001
 H332 H 0.04309 0.17247 -0.19380
 C333 C 0.00893 0.16799 -0.10901
 H334 H -0.00065 0.16723 -0.08517
 C335 C 0.02280 0.14065 -0.12138
 H336 H 0.02328 0.11878 -0.10701
 N337 N 0.00813 0.19595 -0.12626
 C338 C -0.04678 0.27895 -0.13409
 H339 H -0.06642 0.26659 -0.12238
 C340 C -0.05315 0.30729 -0.15096
 H341 H -0.07779 0.31578 -0.15218
 C342 C 0.00903 0.28391 -0.14492
 H343 H 0.03333 0.27483 -0.14188
 C344 C 0.00372 0.31271 -0.16206
 H345 H 0.02403 0.32510 -0.17280
 Zn346 Zn -0.00919 0.23113 -0.10434
 N347 N -0.01615 0.26767 -0.13137
 C348 C 0.01474 0.27097 -0.05348
 N349 N 0.02054 0.24414 -0.07085
 C350 C 0.04961 0.22937 -0.06815
 C351 C 0.07467 0.24228 -0.04846
 C352 C 0.03929 0.28481 -0.03347
 C353 C -0.06884 0.20241 -0.11308
 C354 C -0.09997 0.19110 -0.10694
 C355 C -0.09117 0.20737 -0.05158
 C356 C -0.05993 0.21854 -0.05901
 N357 N -0.04969 0.21619 -0.08952
 H358 H -0.00831 0.28272 -0.05667
 H359 H 0.05422 0.20857 -0.08261
 H360 H 0.09795 0.23072 -0.04766
 H361 H 0.03472 0.30724 -0.02143
 H362 H -0.05986 0.20054 -0.13708
 H363 H -0.11315 0.18008 -0.12701
 H364 H -0.09860 0.20994 -0.02706
 H365 H -0.04409 0.22935 -0.04053
 C366 C -0.02781 0.32490 -0.16501
 C367 C 0.03601 0.14195 -0.15195
 C368 C -0.11235 0.19364 -0.07578
 C369 C 0.07007 0.27084 -0.03147
 C370 C 0.46498 0.23738 0.19663
 H371 H 0.45657 0.26190 0.19737
 C372 C 0.44818 0.21266 0.21252
 H373 H 0.42734 0.21864 0.22611
 C374 C 0.50186 0.19988 0.17712
 H375 H 0.52206 0.19470 0.16241
 C376 C 0.48594 0.17454 0.19272
 H377 H 0.49443 0.15020 0.18997
 N378 N 0.49092 0.23050 0.17889
 C379 C 0.54239 0.32039 0.15641
 H380 H 0.54244 0.31688 0.13067
 C381 C 0.55639 0.34829 0.16986
 H382 H 0.56758 0.36607 0.15432
 C383 C 0.52754 0.30120 0.20775
 H384 H 0.51602 0.28278 0.22223
 C385 C 0.54188 0.32872 0.22238
 H386 H 0.54119 0.33142 0.24820
 Zn387 Zn 0.50834 0.26300 0.15196
 N388 N 0.52779 0.29786 0.17525
 C389 C 0.46525 0.31026 0.13031
 N390 N 0.47343 0.27904 0.12581
 C391 C 0.45518 0.25934 0.10579
 C392 C 0.42785 0.27122 0.08891
 C393 C 0.43851 0.32305 0.11393
 C394 C 0.56931 0.23887 0.14529
 C395 C 0.59604 0.22664 0.13039
 C396 C 0.56589 0.22898 0.07953
 C397 C 0.53970 0.24148 0.09545
 N398 N 0.54181 0.24582 0.12784
 H399 H 0.47870 0.32524 0.14750
 H400 H 0.46148 0.23428 0.10339
 H401 H 0.41344 0.25532 0.07316
 H402 H 0.43222 0.34772 0.11883
 H403 H 0.57033 0.24270 0.17102
 H404 H 0.61726 0.22053 0.14506
 H405 H 0.56382 0.22537 0.05377
 H406 H 0.51780 0.24762 0.08195
 C407 C 0.55623 0.35280 0.20319
 C408 C 0.45811 0.18054 0.20992
 C409 C 0.59461 0.22154 0.09705
 C410 C 0.41945 0.30362 0.09272
 C411 C 0.98150 0.69889 0.67499
 H412 H 0.97114 0.72071 0.68383
 C413 C 0.97229 0.66882 0.68783
 H414 H 0.95487 0.66757 0.70664
 C415 C 1.01481 0.67342 0.63802
 H416 H 1.03054 0.67501 0.61791
 C417 C 1.00574 0.64302 0.64963
 H418 H 1.01482 0.62159 0.63858
 N419 N 1.00232 0.70062 0.65040
 C420 C 1.03421 0.80178 0.64081
 H421 H 1.03172 0.80304 0.61485
 C422 C 1.04591 0.82859 0.65805
 H423 H 1.05253 0.85039 0.64509
 C424 C 1.02919 0.77134 0.68884
 H425 H 1.02295 0.74885 0.70064
 C426 C 1.04119 0.79764 0.70713
 H427 H 1.04346 0.79523 0.73302
 Zn428 Zn 1.01091 0.74016 0.62855
 N429 N 1.02573 0.77402 0.65628
 C430 C 0.95865 0.78095 0.61341
 N431 N 0.97213 0.75242 0.60601
 C432 C 0.95757 0.73224 0.58381
 C433 C 0.92883 0.74102 0.56735
 C434 C 0.93020 0.79071 0.59751
 C435 C 1.07411 0.72818 0.61596
 C436 C 1.10070 0.71925 0.59879
 C437 C 1.06757 0.72243 0.54975
 C438 C 1.04152 0.73166 0.56797
 N439 N 1.04506 0.73335 0.60056
 H440 H 0.96970 0.79620 0.63192
 H441 H 0.96837 0.70936 0.57879
 H442 H 0.91814 0.72497 0.54923
 H443 H 0.92008 0.81361 0.60381
 H444 H 1.07621 0.72980 0.64190
 H445 H 1.12318 0.71399 0.61185
 H446 H 1.06417 0.72047 0.52392
 H447 H 1.01835 0.73641 0.55615
 C448 C 1.04973 0.82678 0.69164
 C449 C 0.98388 0.64051 0.67446
 C450 C 1.09743 0.71524 0.56535
 C451 C 0.91487 0.77077 0.57406
 C452 C 0.53689 0.71951 0.32363
 H453 H 0.54788 0.74348 0.32286
 C454 C 0.54941 0.69469 0.30567
 H455 H 0.57002 0.69981 0.29095
 C456 C 0.49750 0.68354 0.34488
 H457 H 0.47803 0.67902 0.36108
 C458 C 0.50914 0.65802 0.32717
 H459 H 0.49841 0.63413 0.33013
 N460 N 0.51157 0.71351 0.34292
 C461 C 0.48205 0.81139 0.36090
 H462 H 0.48691 0.81213 0.38662
 C463 C 0.47101 0.83878 0.34473
 H464 H 0.46755 0.86032 0.35871
 C465 C 0.48019 0.78167 0.31243
 H466 H 0.48364 0.75918 0.30007
 C467 C 0.46825 0.80832 0.29531
 H468 H 0.46377 0.80566 0.26972
 Zn469 Zn 0.49936 0.74752 0.36960
 N470 N 0.48658 0.78365 0.34465
 C471 C 0.55504 0.78455 0.38625
 N472 N 0.53646 0.75896 0.39599
 C473 C 0.54597 0.74054 0.42174
 C474 C 0.57407 0.74898 0.44005
 C475 C 0.58371 0.79317 0.40320
 C476 C 0.43580 0.72702 0.37448
 C477 C 0.40702 0.71709 0.38841
 C478 C 0.43342 0.72404 0.44082
 C479 C 0.46175 0.73418 0.42580
 N480 N 0.46260 0.73480 0.39313
 H481 H 0.54801 0.79795 0.36486
 H482 H 0.53190 0.71920 0.42800
 H483 H 0.58115 0.73464 0.46089
 H484 H 0.59819 0.81366 0.39521
 H485 H 0.43700 0.72814 0.34856
 H486 H 0.38642 0.71005 0.37291
 H487 H 0.43317 0.72327 0.46683
 H488 H 0.48278 0.74167 0.44034
 C489 C 0.46305 0.83759 0.31146
 C490 C 0.53571 0.66337 0.30751
 C491 C 0.40557 0.71538 0.42204
 C492 C 0.59320 0.77556 0.43062
 Si493 Si 0.37692 0.00618 0.26206
 Si494 Si 0.12908 1.00004 0.75360
 Si495 Si 0.65235 0.52429 0.23901
 Si496 Si 0.89005 0.48426 0.74970
 Si497 Si 0.24170 0.36145 0.02337
 Si498 Si 0.72323 0.11769 0.99574
 Si499 Si 0.25984 0.62187 0.51663
 Si500 Si 0.76046 0.86632 0.49120
 Si501 Si -0.03054 0.25603 0.36723
 Si502 Si 1.01773 0.75447 0.11746
 Si503 Si 0.47948 0.25635 0.61884
 Si504 Si 0.51037 0.75882 0.85805
 C505 C 0.43642 -0.07948 0.29921
 C506 C 0.41920 -0.08147 0.26959
 N507 N 0.41823 -0.10974 0.25324
 C508 C 0.43327 -0.13635 0.26533
 C509 C 0.44954 -0.13501 0.29591
 N510 N 0.45068 -0.10613 0.31166
 N511 N 0.43769 -0.05124 0.31565
 C512 C 0.42184 -0.02501 0.30407
 C513 C 0.40327 -0.02737 0.27517
 N514 N 0.40266 -0.05550 0.25834
 H515 H 0.43082 -0.15838 0.25165
 H516 H 0.42267 -0.00290 0.31787
 C517 C 0.92391 0.38813 0.79343
 C518 C 0.94649 0.41373 0.79017
 N519 N 0.97779 0.40960 0.80052
 C520 C 0.98740 0.38116 0.81419
 C521 C 0.96455 0.35561 0.81790
 N522 N 0.93343 0.36006 0.80712
 N523 N 0.89262 0.39182 0.78346
 C524 C 0.88265 0.42016 0.77055
 C525 C 0.90488 0.44609 0.76757
 N526 N 0.93655 0.44232 0.77722
 H527 H 1.01228 0.37906 0.82288
 H528 H 0.85759 0.42222 0.76239
 C529 C 0.06818 1.08212 0.79154
 C530 C 0.08648 1.06249 0.81260
 N531 N 0.08781 1.06884 0.84453
 C532 C 0.07160 1.09395 0.85651
 C533 C 0.05322 1.11389 0.83559
 N534 N 0.05213 1.10745 0.80344
 N535 N 0.06720 1.07578 0.75950
 C536 C 0.08394 1.05086 0.74760
 C537 C 0.10266 1.03161 0.76865
 N538 N 0.10337 1.03789 0.80069
 H539 H 0.07376 1.09869 0.88205
 H540 H 0.08334 1.04671 0.72194
 C541 C 0.59957 0.61274 0.27476
 C542 C 0.58197 0.58480 0.26506
 N543 N 0.54933 0.58338 0.26812
 C544 C 0.53352 0.60846 0.28090
 C545 C 0.55119 0.63629 0.29130
 N546 N 0.58385 0.63767 0.28757
 N547 N 0.63225 0.61408 0.27228
 C548 C 0.64824 0.58857 0.26077
 C549 C 0.63079 0.56046 0.25138
 N550 N 0.59795 0.55924 0.25363
 H551 H 0.50748 0.60659 0.28288
 H552 H 0.67436 0.59002 0.25972
 C553 C 0.58591 0.43789 0.20996
 C554 C 0.60561 0.43691 0.23814
 N555 N 0.60708 0.40918 0.25567
 C556 C 0.59016 0.38210 0.24598
 C557 C 0.57142 0.38258 0.21702
 N558 N 0.56963 0.41071 0.19991
 N559 N 0.58445 0.46561 0.19239
 C560 C 0.60246 0.49225 0.20138
 C561 C 0.62337 0.49079 0.22868
 N562 N 0.62409 0.46325 0.24668
 H563 H 0.59251 0.36012 0.25997
 H564 H 0.60126 0.51394 0.18678
 C565 C 0.07219 0.91213 0.71120
 C566 C 0.09256 0.90873 0.73867
 N567 N 0.09732 0.87889 0.75143
 C568 C 0.08292 0.85215 0.73771
 C569 C 0.06315 0.85530 0.70956
 N570 N 0.05823 0.88545 0.69722
 N571 N 0.06764 0.94191 0.69822
 C572 C 0.08302 0.96847 0.71123
 C573 C 0.10427 0.96502 0.73811
 N574 N 0.10829 0.93517 0.75136
 H575 H 0.08797 0.82867 0.74798
 H576 H 0.07947 0.99183 0.70006
 C577 C 0.95623 0.56982 0.72280
 C578 C 0.93961 0.55121 0.69903
 N579 N 0.93945 0.56109 0.66791
 C580 C 0.95473 0.58909 0.65945
 C581 C 0.97013 0.60862 0.68327
 N582 N 0.97070 0.59841 0.71451
 N583 N 0.95647 0.55953 0.75390
 C584 C 0.93992 0.53207 0.76239
 C585 C 0.92143 0.51482 0.73889
 N586 N 0.92223 0.52460 0.70770
 H587 H 0.95382 0.59669 0.63449
 H588 H 0.93962 0.52491 0.78743
 C589 C 0.43724 0.09785 0.23931
 C590 C 0.40340 0.09884 0.24099
 N591 N 0.38811 0.12685 0.23424
 C592 C 0.40508 0.15390 0.22551
 C593 C 0.43903 0.15290 0.22304
 N594 N 0.45414 0.12468 0.23019
 N595 N 0.45255 0.06975 0.24569
 C596 C 0.43548 0.04248 0.25346
 C597 C 0.40155 0.04326 0.25460
 N598 N 0.38630 0.07152 0.24836
 H599 H 0.39191 0.17545 0.21931
 H600 H 0.44829 0.02033 0.25791
 C601 C 0.27379 0.41744 -0.06633
 C602 C 0.29101 0.39121 -0.05365
 N603 N 0.31736 0.38080 -0.06856
 C604 C 0.32778 0.39574 -0.09546
 C605 C 0.31130 0.42269 -0.10807
 N606 N 0.28430 0.43268 -0.09328
 N607 N 0.24693 0.42717 -0.05137
 C608 C 0.23669 0.41181 -0.02431
 C609 C 0.25434 0.38586 -0.01154
 N610 N 0.28091 0.37618 -0.02676
 H611 H 0.34865 0.38641 -0.10696
 H612 H 0.21506 0.41962 -0.01301
 C613 C 0.79257 0.92152 0.40091
 C614 C 0.80296 0.89015 0.40787
 N615 N 0.82266 0.87532 0.38752
 C616 C 0.83262 0.89049 0.36047
 C617 C 0.82218 0.92189 0.35320
 N618 N 0.80221 0.93662 0.37365
 N619 N 0.77329 0.93644 0.42170
 C620 C 0.76371 0.92127 0.44901
 C621 C 0.77355 0.88961 0.45559
 N622 N 0.79310 0.87495 0.43486
 H623 H 0.84823 0.87801 0.34459
 H624 H 0.74845 0.93377 0.46512
 C625 C 0.76692 0.05193 1.07406
 C626 C 0.74190 0.07281 1.08074
 N627 N 0.73330 0.07669 1.11155
 C628 C 0.74918 0.06141 1.13626
 C629 C 0.77555 0.04137 1.13009
 N630 N 0.78297 0.03679 1.09871
 N631 N 0.77611 0.04870 1.04324
 C632 C 0.76180 0.06603 1.01891
 C633 C 0.73742 0.08767 1.02579
 N634 N 0.72784 0.09030 1.05656
 H635 H 0.74084 0.06509 1.16019
 H636 H 0.77030 0.06396 0.99474
 C637 C 0.28183 0.56236 0.60845
 C638 C 0.28264 0.59621 0.60893
 N639 N 0.29011 0.61185 0.63687
 C640 C 0.29702 0.59524 0.66446
 C641 C 0.29654 0.56112 0.66426
 N642 N 0.28889 0.54571 0.63595
 N643 N 0.27471 0.54673 0.58034
 C644 C 0.26828 0.56349 0.55267
 C645 C 0.26913 0.59740 0.55314
 N646 N 0.27635 0.61291 0.58134
 H647 H 0.30390 0.60881 0.68584
 H648 H 0.26277 0.55044 0.53062
 C649 C 0.21258 0.56493 0.43198
 C650 C 0.24112 0.58336 0.42800
 N651 N 0.25331 0.58649 0.39827
 C652 C 0.23810 0.57227 0.37221
 C653 C 0.20905 0.55416 0.37592
 N654 N 0.19730 0.55096 0.40600
 N655 N 0.19986 0.56239 0.46152
 C656 C 0.21420 0.57788 0.48726
 C657 C 0.24240 0.59686 0.48322
 N658 N 0.25534 0.59901 0.45365
 H659 H 0.24808 0.57623 0.34885
 H660 H 0.20329 0.57602 0.51046
 C661 C 0.69003 0.08097 0.89548
 C662 C 0.70190 0.05896 0.91849
 N663 N 0.70452 0.02749 0.91015
 C664 C 0.69574 0.01701 0.87994
 C665 C 0.68358 0.03913 0.85656
 N666 N 0.68130 0.07057 0.86558
 N667 N 0.68754 0.11250 0.90320
 C668 C 0.69653 0.12315 0.93304
 C669 C 0.70844 0.10132 0.95629
 N670 N 0.71097 0.06954 0.94855
 H671 H 0.69830 -0.00828 0.87488
 H672 H 0.69472 0.14857 0.93847
 C673 C 0.71117 0.92624 0.56739
 C674 C 0.74023 0.91057 0.57485
 N675 N 0.75307 0.91175 0.60533
 C676 C 0.73816 0.92783 0.62883
 C677 C 0.70880 0.94360 0.62160
 N678 N 0.69626 0.94225 0.59079
 N679 N 0.69783 0.92444 0.53708
 C680 C 0.71226 0.90750 0.51389
 C681 C 0.74134 0.89175 0.52132
 N682 N 0.75462 0.89364 0.55172
 H683 H 0.74886 0.92730 0.65290
 H684 H 0.70090 0.90595 0.49005
 C685 C 0.20790 0.41089 0.11429
 C686 C 0.21415 0.42980 0.08702
 N687 N 0.20881 0.46206 0.08784
 C688 C 0.19730 0.47616 0.11456
 C689 C 0.19061 0.45706 0.14185
 N690 N 0.19638 0.42487 0.14068
 N691 N 0.21252 0.37865 0.11376
 C692 C 0.22297 0.36425 0.08703
 C693 C 0.22905 0.38286 0.05954
 N694 N 0.22465 0.41540 0.06004
 H695 H 0.19259 0.50171 0.11395
 H696 H 0.22620 0.33838 0.08717
 C697 C -0.11046 0.30216 0.42444
 C698 C -0.11681 0.27369 0.40702
 N699 N -0.14724 0.26041 0.40591
 C700 C -0.17176 0.27442 0.42132
 C701 C -0.16563 0.30327 0.43860
 N702 N -0.13488 0.31621 0.43963
 N703 N -0.08020 0.31584 0.42511
 C704 C -0.05593 0.30232 0.40902
 C705 C -0.06222 0.27389 0.39145
 N706 N -0.09262 0.26029 0.39082
 H707 H -0.19582 0.26357 0.41911
 H708 H -0.03225 0.31409 0.40937
 C709 C 0.43653 0.80065 0.92496
 C710 C 0.43004 0.77108 0.90942
 N711 N 0.40073 0.75595 0.91251
 C712 C 0.37736 0.76935 0.92999
 C713 C 0.38335 0.79962 0.94458
 N714 N 0.41303 0.81431 0.94181
 N715 N 0.46574 0.81592 0.92183
 C716 C 0.48861 0.80321 0.90331
 C717 C 0.48167 0.77433 0.88674
 N718 N 0.45264 0.75870 0.89043
 H719 H 0.35392 0.75719 0.93119
 H720 H 0.51159 0.81599 0.90080
 C721 C 1.10552 0.80178 0.06952
 C722 C 1.10938 0.77517 0.09015
 N723 N 1.13950 0.76376 0.09660
 C724 C 1.16608 0.77789 0.08348
 C725 C 1.16244 0.80489 0.06296
 N726 N 1.13198 0.81590 0.05651
 N727 N 1.07540 0.81321 0.06295
 C728 C 1.04890 0.79926 0.07631
 C729 C 1.05275 0.77281 0.09717
 N730 N 1.08295 0.76132 0.10357
 H731 H 1.18956 0.76770 0.08873
 H732 H 1.02514 0.80888 0.07094
 C733 C 0.55983 0.29173 0.55319
 C734 C 0.54503 0.31316 0.57382
 N735 N 0.55697 0.34383 0.57707
 C736 C 0.58346 0.35395 0.56105
 C737 C 0.59931 0.33215 0.54161
 N738 N 0.58698 0.30149 0.53797
 N739 N 0.54748 0.26116 0.54970
 C740 C 0.52161 0.25080 0.56668
 C741 C 0.50826 0.27157 0.58890
 N742 N 0.52002 0.30244 0.59156
 H743 H 0.59288 0.37838 0.56445
 H744 H 0.51268 0.22611 0.56411
 C745 C 0.37904 0.22379 0.57798
 C746 C 0.40424 0.23012 0.55695
 N747 N 0.39882 0.22511 0.52491
 C748 C 0.36950 0.21362 0.51305
 C749 C 0.34447 0.20640 0.53428
 N750 N 0.35010 0.21204 0.56622
 N751 N 0.38416 0.22835 0.60999
 C752 C 0.41358 0.23857 0.62212
 C753 C 0.43916 0.24420 0.60139
 N754 N 0.43391 0.24017 0.56909
 H755 H 0.36637 0.20895 0.48756
 H756 H 0.41693 0.24218 0.64778
 C757 C 0.93323 0.72039 0.05010
 C758 C 0.92809 0.74129 0.07569
 N759 N 0.89738 0.74894 0.08271
 C760 C 0.87142 0.73615 0.06564
 C761 C 0.87635 0.71418 0.04066
 N762 N 0.90735 0.70717 0.03343
 N763 N 0.96395 0.71241 0.04335
 C764 C 0.98976 0.72373 0.06165
 C765 C 0.98452 0.74343 0.08817
 N766 N 0.95378 0.75212 0.09425
 H767 H 0.84727 0.74190 0.07263
 H768 H 1.01394 0.71682 0.05593
 C769 C 0.60621 0.73118 0.90970
 C770 C 0.57717 0.71424 0.91563
 N771 N 0.57766 0.68807 0.93538
 C772 C 0.60597 0.67782 0.94927
 C773 C 0.63535 0.69434 0.94291
 N774 N 0.63451 0.72078 0.92325
 N775 N 0.60579 0.75719 0.88972
 C776 C 0.57766 0.76669 0.87490
 C777 C 0.54873 0.74914 0.87999
 N778 N 0.54914 0.72352 0.90060
 H779 H 0.60551 0.65626 0.96405
 H780 H 0.57810 0.78753 0.85915
 C781 C 0.05921 0.22186 0.42578
 C782 C 0.03954 0.20026 0.40738
 N783 N 0.04808 0.16904 0.40494
 C784 C 0.07542 0.15824 0.42016
 C785 C 0.09536 0.17966 0.43884
 N786 N 0.08669 0.21115 0.44099
 N787 N 0.05081 0.25331 0.42754
 C788 C 0.02374 0.26412 0.41153
 C789 C 0.00427 0.24251 0.39288
 N790 N 0.01273 0.21107 0.39134
 H791 H 0.08182 0.13335 0.41686
 H792 H 0.01808 0.28941 0.41266
 C793 C 0.52443 0.16549 0.66469
 C794 C 0.54059 0.18360 0.64137
 N795 N 0.56925 0.17344 0.63077
 C796 C 0.58269 0.14596 0.64254
 C797 C 0.56676 0.12765 0.66615
 N798 N 0.53781 0.13800 0.67649
 N799 N 0.49546 0.17551 0.67486
 C800 C 0.48181 0.20273 0.66251
 C801 C 0.49785 0.22072 0.63894
 N802 N 0.52696 0.21067 0.62909
 H803 H 0.60522 0.13830 0.63295
 H804 H 0.45863 0.21002 0.67085
 C805 C 1.04823 0.65856 0.16469
 C806 C 1.03342 0.68205 0.18299
 N807 N 1.02796 0.67593 0.21445
 C808 C 1.03694 0.64755 0.22850
 C809 C 1.05205 0.62406 0.21023
 N810 N 1.05708 0.63029 0.17864
 N811 N 1.05412 0.66459 0.13338
 C812 C 1.04570 0.69302 0.11940
 C813 C 1.03064 0.71652 0.13745
 N814 N 1.02483 0.71054 0.16897
 H815 H 1.03226 0.64339 0.25361
 H816 H 1.05093 0.69722 0.09445
 C817 C 0.96963 0.83323 0.17460
 C818 C 0.99665 0.84055 0.15624
 N819 N 1.00600 0.87186 0.15179
 C820 C 0.98931 0.89633 0.16454
 C821 C 0.96157 0.88925 0.18228
 N822 N 0.95269 0.85764 0.18697
 N823 N 0.95977 0.80192 0.17836
 C824 C 0.97530 0.77763 0.16390
 C825 C 1.00154 0.78504 0.14448
 N826 N 1.01181 0.81637 0.14143
 H827 H 0.99695 0.92098 0.15964
 H828 H 0.96632 0.75298 0.16631
 C829 C 0.45670 0.33894 0.68720
 C830 C 0.45325 0.34255 0.65371
 N831 N 0.44159 0.37038 0.64105
 C832 C 0.43289 0.39478 0.66037
 C833 C 0.43549 0.39106 0.69403
 N834 N 0.44744 0.36306 0.70658
 N835 N 0.46856 0.31106 0.69977
 C836 C 0.47673 0.28647 0.68031
 C837 C 0.47233 0.28974 0.64685
 N838 N 0.46082 0.31782 0.63438
 H839 H 0.42288 0.41633 0.64950
 H840 H 0.48595 0.26450 0.69095
 C841 C 0.46448 0.66496 0.81676
 C842 C 0.47645 0.66676 0.84872
 N843 N 0.47393 0.64057 0.86823
 C844 C 0.45946 0.61267 0.85741
 C845 C 0.44646 0.61089 0.82561
 N846 N 0.44973 0.63719 0.80599
 N847 N 0.46726 0.69123 0.79724
 C848 C 0.48133 0.71930 0.80836
 C849 C 0.49286 0.72117 0.84048
 N850 N 0.49015 0.69479 0.85987
 H851 H 0.45834 0.59215 0.87355
 H852 H 0.48296 0.73998 0.79246
 C853 C -0.06771 0.16039 0.32216
 C854 C -0.05234 0.18362 0.30293
 N855 N -0.04673 0.17642 0.27184
 C856 C -0.05583 0.14712 0.25912
 C857 C -0.07138 0.12369 0.27841
 N858 N -0.07679 0.13136 0.30951
 N859 N -0.07269 0.16683 0.35343
 C860 C -0.06282 0.19551 0.36652
 C861 C -0.04749 0.21896 0.34748
 N862 N -0.04244 0.21250 0.31598
 H863 H -0.05036 0.14230 0.23447
 H864 H -0.06633 0.19967 0.39180
 C865 C 0.01035 0.34297 0.31226
 C866 C 0.03076 0.31879 0.32439
 N867 N 0.06336 0.32330 0.32395
 C868 C 0.07662 0.35133 0.31283
 C869 C 0.05639 0.37656 0.30233
 N870 N 0.02357 0.37135 0.30167
 N871 N -0.02235 0.33836 0.31306
 C872 C -0.03546 0.31107 0.32630
 C873 C -0.01494 0.28769 0.33989
 N874 N 0.01770 0.29203 0.33824
 H875 H 0.10276 0.35389 0.31261
 H876 H -0.06152 0.30851 0.32780
 C877 C 0.53691 0.83990 0.78771
 C878 C 0.51360 0.84463 0.81075
 N879 N 0.50145 0.87445 0.81454
 C880 C 0.51235 0.90010 0.79707
 C881 C 0.53721 0.89593 0.77524
 N882 N 0.54827 0.86557 0.77078
 N883 N 0.54925 0.81012 0.78400
 C884 C 0.53995 0.78499 0.80299
 C885 C 0.51797 0.79013 0.82722
 N886 N 0.50485 0.81973 0.83017
 H887 H 0.50198 0.92343 0.80076
 H888 H 0.55074 0.76165 0.80025
 C889 C 0.71130 0.55078 0.15076
 C890 C 0.68437 0.52968 0.14807
 N891 N 0.67433 0.51852 0.11872
 C892 C 0.68937 0.52815 0.09164
 C893 C 0.71585 0.55075 0.09372
 N894 N 0.72619 0.56065 0.12380
 N895 N 0.72129 0.56222 0.18012
 C896 C 0.70503 0.55390 0.20690
 C897 C 0.67741 0.53354 0.20407
 N898 N 0.66799 0.52155 0.17471
 H899 H 0.68008 0.51810 0.06922
 H900 H 0.71340 0.56335 0.23000
 C901 C 0.17813 1.04571 0.66667
 C902 C 0.16411 1.01455 0.66478
 N903 N 0.16254 0.99886 0.63618
 C904 C 0.17395 1.01312 0.60917
 C905 C 0.18706 1.04482 0.61069
 N906 N 0.18895 1.06016 0.63964
 N907 N 0.17947 1.06154 0.69522
 C908 C 0.16684 1.04779 0.72190
 C909 C 0.15173 1.01713 0.71975
 N910 N 0.15098 1.00110 0.69126
 H911 H 0.17153 1.00031 0.58659
 H912 H 0.16749 1.06115 0.74420
 C913 C 0.19375 0.96818 0.84016
 C914 C 0.17768 0.94551 0.82001
 N915 N 0.17949 0.91370 0.82705
 C916 C 0.19653 0.90322 0.85344
 C917 C 0.21250 0.92578 0.87472
 N918 N 0.21037 0.95789 0.86701
 N919 N 0.19199 1.00013 0.83279
 C920 C 0.17437 1.01030 0.80642
 C921 C 0.15721 0.98754 0.78700
 N922 N 0.15961 0.95565 0.79421
 H923 H 0.19577 0.87757 0.85783
 H924 H 0.17296 1.03588 0.80127
 C925 C 0.70415 0.48137 0.32762
 C926 C 0.68694 0.50999 0.33005
 N927 N 0.68177 0.52236 0.35952
 C928 C 0.69229 0.50691 0.38678
 C929 C 0.70798 0.47728 0.38446
 N930 N 0.71388 0.46558 0.35477
 N931 N 0.70880 0.46857 0.29824
 C932 C 0.69610 0.48262 0.27114
 C933 C 0.67733 0.51017 0.27369
 N934 N 0.67358 0.52355 0.30306
 H935 H 0.68677 0.51674 0.40992
 H936 H 0.69915 0.47141 0.24804
 C937 C 0.83778 0.45108 0.65588
 C938 C 0.82034 0.46642 0.67946
 N939 N 0.78790 0.47021 0.67459
 C940 C 0.77212 0.45926 0.64725
 C941 C 0.78957 0.44363 0.62361
 N942 N 0.82207 0.44013 0.62881
 N943 N 0.87006 0.44677 0.66062
 C944 C 0.88578 0.45700 0.68806
 C945 C 0.86847 0.47219 0.71180
 N946 N 0.83604 0.47665 0.70705
 H947 H 0.74618 0.46207 0.64456
 H948 H 0.91153 0.45304 0.69144
 C949 C 0.32656 -0.02469 0.16616
 C950 C 0.35933 -0.01470 0.16798
 N951 N 0.37712 -0.01544 0.14129
 C952 C 0.36390 -0.02652 0.11294
 C953 C 0.33144 -0.03796 0.11117
 N954 N 0.31338 -0.03624 0.13789
 N955 N 0.30889 -0.02394 0.19306
 C956 C 0.32266 -0.01400 0.22174
 C957 C 0.35566 -0.00485 0.22363
 N958 N 0.37313 -0.00527 0.19661
 H959 H 0.37883 -0.02693 0.09214
 H960 H 0.30821 -0.01395 0.24289
 C961 C 0.31228 0.02985 0.34602
 C962 C 0.31376 0.05037 0.31909
 N963 N 0.29788 0.07867 0.31895
 C964 C 0.28083 0.08756 0.34465
 C965 C 0.28002 0.06748 0.37209
 N966 N 0.29580 0.03898 0.37194
 N967 N 0.32802 0.00149 0.34612
 C968 C 0.34583 -0.00697 0.32084
 C969 C 0.34858 0.01418 0.29448
 N970 N 0.33206 0.04222 0.29407
 H971 H 0.26903 0.11062 0.34409
 H972 H 0.35808 -0.02973 0.32170
 C973 C 0.82873 0.53071 0.82618
 C974 C 0.85631 0.54651 0.81439
 N975 N 0.86688 0.57495 0.82740
 C976 C 0.85116 0.58846 0.85181
 C977 C 0.82348 0.57276 0.86402
 N978 N 0.81302 0.54407 0.85077
 N979 N 0.81862 0.50191 0.81332
 C980 C 0.83525 0.48798 0.78958
 C981 C 0.86335 0.50346 0.77843
 N982 N 0.87291 0.53252 0.79098
 H983 H 0.86092 0.61072 0.86213
 H984 H 0.82685 0.46495 0.77995
 C985 C 0.18045 0.68887 0.54867
 C986 C 0.17448 0.66751 0.52298
 N987 N 0.14403 0.66426 0.50968
 C988 C 0.11904 0.68087 0.52138
 C989 C 0.12460 0.70132 0.54810
 N990 N 0.15545 0.70496 0.56074
 N991 N 0.21078 0.69173 0.56238
 C992 C 0.23528 0.67354 0.55203
 C993 C 0.22897 0.65110 0.52733
 N994 N 0.19878 0.64894 0.51304
 H995 H 0.09489 0.67667 0.51099
 H996 H 0.25913 0.67583 0.56368
 C997 C 0.64036 0.17237 1.04057
 C998 C 0.67256 0.17722 1.05203
 N999 N 0.67895 0.19729 1.07727
 C1000 C 0.65459 0.21240 1.09185
 C1001 C 0.62215 0.20713 1.08080
 N1002 N 0.61605 0.18736 1.05512
 N1003 N 0.63380 0.15201 1.01564
 C1004 C 0.65796 0.13619 1.00163
 C1005 C 0.69023 0.14094 1.01299
 N1006 N 0.69679 0.16135 1.03807
 H1007 H 0.66059 0.22843 1.11175
 H1008 H 0.65178 0.11957 0.98229
 C1009 C 0.81780 0.17118 0.97067
 C1010 C 0.79652 0.15827 0.94684
 N1011 N 0.80506 0.15874 0.91584
 C1012 C 0.83433 0.17087 0.90731
 C1013 C 0.85704 0.18291 0.93118
 N1014 N 0.84737 0.18308 0.96235
 N1015 N 0.80899 0.17043 1.00186
 C1016 C 0.78005 0.15673 1.01017
 C1017 C 0.75930 0.14288 0.98623
 N1018 N 0.76807 0.14427 0.95514
 H1019 H 0.83880 0.17092 0.88202
 H1020 H 0.77390 0.15554 1.03521
 C1021 C 0.35126 0.67218 0.47828
 C1022 C 0.32054 0.67724 0.46373
 N1023 N 0.31791 0.69577 0.43682
 C1024 C 0.34467 0.70906 0.42340
 C1025 C 0.37568 0.70340 0.43736
 N1026 N 0.37805 0.68534 0.46482
 N1027 N 0.35388 0.65330 0.50501
 C1028 C 0.32718 0.63891 0.51761
 C1029 C 0.29652 0.64349 0.50271
 N1030 N 0.29393 0.66276 0.47621
 H1031 H 0.34168 0.72383 0.40202
 H1032 H 0.33002 0.62359 0.53862
 C1033 C 0.67842 0.80117 0.44908
 C1034 C 0.67606 0.81481 0.47968
 N1035 N 0.64754 0.81238 0.49488
 C1036 C 0.62100 0.79762 0.48048
 C1037 C 0.62279 0.78570 0.44908
 N1038 N 0.65163 0.78752 0.43423
 N1039 N 0.70695 0.80353 0.43393
 C1040 C 0.73293 0.81990 0.44751
 C1041 C 0.72991 0.83552 0.47705
 N1042 N 0.70162 0.83216 0.49267
 H1043 H 0.59828 0.79677 0.49267
 H1044 H 0.75508 0.82207 0.43453
 C1045 C 0.15507 0.29914 -0.01426
 C1046 C 0.15167 0.32080 0.01109
 N1047 N 0.12197 0.32486 0.02323
 C1048 C 0.09532 0.30859 0.01081
 C1049 C 0.09844 0.28735 -0.01516
 N1050 N 0.12851 0.28305 -0.02672
 N1051 N 0.18465 0.29540 -0.02679
 C1052 C 0.21102 0.31268 -0.01529
 C1053 C 0.20756 0.33469 0.00974
 N1054 N 0.17795 0.33815 0.02246
 H1055 H 0.07205 0.31231 0.02112
 H1056 H 0.23426 0.30974 -0.02597
 C1057 C 0.33497 0.31129 0.05898
 C1058 C 0.33425 0.34411 0.05164
 N1059 N 0.36156 0.36271 0.05551
 C1060 C 0.38957 0.34993 0.06728
 C1061 C 0.39025 0.31704 0.07618
 N1062 N 0.36281 0.29828 0.07127
 N1063 N 0.30603 0.29250 0.05423
 C1064 C 0.27689 0.30594 0.04296
 C1065 C 0.27816 0.33939 0.03674
 N1066 N 0.30613 0.35717 0.04109
 H1067 H 0.41098 0.36545 0.06993
 H1068 H 0.29049 0.28553 0.05086
 C1069 C 0.85344 0.82623 0.53892
 C1070 C 0.82901 0.80485 0.52695
 N1071 N 0.83317 0.77250 0.52994
 C1072 C 0.86059 0.76058 0.54443
 C1073 C 0.88502 0.78202 0.55676
 N1074 N 0.88056 0.81437 0.55353
 N1075 N 0.84961 0.85855 0.53602
 C1076 C 0.82231 0.87056 0.52176
 C1077 C 0.79762 0.84935 0.51011
 N1078 N 0.80150 0.81684 0.51283
 H1079 H 0.86281 0.73471 0.54694
 H1080 H 0.81981 0.89647 0.51970
   
