data_POSCAR
  _audit_creation_date              2014-09-24
  _audit_creation_method            'ToBaCCo'
  _symmetry_space_group_name_H-M    'P1'
  _symmetry_Int_Tables_number       1
  _symmetry_cell_setting            triclinic
  loop_
  _symmetry_equiv_pos_as_xyz
 x,y,z
_cell_length_a 20.7665
_cell_length_b 20.4524
_cell_length_c 23.1765
_cell_angle_alpha 89.994000
_cell_angle_beta 90.011100
_cell_angle_gamma 90.002000
loop_
  _atom_site_label
  _atom_site_type_symbol
  _atom_site_fract_x
  _atom_site_fract_y
  _atom_site_fract_z
B1 B 0.27448 0.21970 0.19284
 B2 B 0.28949 0.29617 0.21158
 B3 B 0.21531 0.27527 0.19323
 B4 B 0.20054 0.19875 0.21705
 B5 B 0.26959 0.17419 0.25240
 B6 B 0.32564 0.23535 0.24781
 B7 B 0.22296 0.28258 0.30778
 B8 B 0.20767 0.20600 0.28920
 B9 B 0.28180 0.22669 0.30761
 B10 B 0.29682 0.30324 0.28366
 B11 B 0.22772 0.32786 0.24824
 B12 B 0.17165 0.26667 0.25302
 B13 B 0.71587 0.77537 0.30688
 B14 B 0.79010 0.79608 0.28858
 B15 B 0.77483 0.71966 0.30735
 B16 B 0.70089 0.69889 0.28307
 B17 B 0.67220 0.76684 0.24707
 B18 B 0.72840 0.82789 0.25185
 B19 B 0.78234 0.72658 0.19259
 B20 B 0.70810 0.70608 0.21092
 B21 B 0.72356 0.78260 0.19231
 B22 B 0.79747 0.80311 0.21651
 B23 B 0.82610 0.73514 0.25245
 B24 B 0.76990 0.67412 0.24781
 B25 B 0.71850 0.22470 -0.30849
 B26 B 0.79268 0.20421 -0.28995
 B27 B 0.77712 0.28066 -0.30857
 B28 B 0.70309 0.30108 -0.28445
 B29 B 0.67450 0.23290 -0.24876
 B30 B 0.73089 0.17204 -0.25345
 B31 B 0.78446 0.27333 -0.19392
 B32 B 0.71019 0.29378 -0.21233
 B33 B 0.72563 0.21722 -0.19381
 B34 B 0.79972 0.19692 -0.21785
 B35 B 0.82833 0.26504 -0.25365
 B36 B 0.77198 0.32593 -0.24895
 B37 B 0.28488 0.77298 -0.30632
 B38 B 0.21053 0.79273 -0.28798
 B39 B 0.22654 0.71633 -0.30621
 B40 B 0.30082 0.69677 -0.28220
 B41 B 0.32889 0.76528 -0.24657
 B42 B 0.27199 0.82564 -0.25141
 B43 B 0.21940 0.72416 -0.19158
 B44 B 0.29380 0.70419 -0.21011
 B45 B 0.27756 0.78059 -0.19166
 B46 B 0.20336 0.80030 -0.21586
 B47 B 0.17534 0.73180 -0.25132
 B48 B 0.23220 0.67141 -0.24647
 B49 B 1.21645 1.27555 0.80691
 B50 B 1.29091 1.29536 0.78840
 B51 B 1.27473 1.21907 0.80707
 B52 B 1.20043 1.19934 0.78298
 B53 B 1.17244 1.26776 0.74721
 B54 B 1.22943 1.32808 0.75195
 B55 B 1.28180 1.22622 0.69229
 B56 B 1.20739 1.20667 0.71084
 B57 B 1.22376 1.28301 0.69233
 B58 B 1.29803 1.30249 0.71631
 B59 B 1.32595 1.23405 0.75202
 B60 B 1.26896 1.17378 0.74743
 B61 B 0.77411 0.71861 0.69311
 B62 B 0.79003 0.79502 0.71130
 B63 B 0.71562 0.77494 0.69300
 B64 B 0.69988 0.69883 0.71731
 B65 B 0.76856 0.67372 0.75296
 B66 B 0.82533 0.73417 0.74805
 B67 B 0.72307 0.78315 0.80751
 B68 B 0.70694 0.70660 0.78941
 B69 B 0.78127 0.72657 0.80782
 B70 B 0.79724 0.80271 0.78338
 B71 B 0.72854 0.82787 0.74766
 B72 B 0.67172 0.76740 0.75277
 B73 B 1.22582 0.71731 0.30634
 B74 B 1.21032 0.79385 0.28783
 B75 B 1.28462 0.77340 0.30614
 B76 B 1.29985 0.69699 0.28221
 B77 B 1.23095 0.67208 0.24672
 B78 B 1.17456 0.73295 0.25149
 B79 B 1.27706 0.78068 0.19151
 B80 B 1.29266 0.70426 0.21010
 B81 B 1.21842 0.72472 0.19169
 B82 B 1.20307 0.80111 0.21573
 B83 B 1.27204 0.82598 0.25112
 B84 B 1.32839 0.76509 0.24635
 B85 B 0.78534 1.27313 0.19381
 B86 B 0.71103 1.29324 0.21210
 B87 B 0.72667 1.21680 0.19363
 B88 B 0.80082 1.19675 0.21767
 B89 B 0.82917 1.26494 0.25359
 B90 B 0.77259 1.32561 0.24889
 B91 B 0.71936 1.22411 0.30829
 B92 B 0.79372 1.20384 0.28975
 B93 B 0.77783 1.28025 0.30849
 B94 B 0.70376 1.30047 0.28425
 B95 B 0.67544 1.23229 0.24849
 B96 B 0.73201 1.17157 0.25322
 O97 O 0.40985 1.12433 0.09727
 O98 O 0.33700 1.05891 0.05014
 C99 C 0.35131 1.10566 0.08603
 O100 O 0.58904 1.11741 -0.10366
 O101 O 0.66187 1.05757 -0.05103
 C102 C 0.64755 1.10072 -0.09030
 O103 O 0.40948 1.12212 -0.09865
 O104 O 0.33666 1.05779 -0.05046
 C105 C 0.35096 1.10396 -0.08689
 O106 O 0.58913 1.11842 0.10301
 O107 O 0.66183 1.05590 0.05264
 C108 C 0.64758 1.10033 0.09079
 Zr109 Zr 0.49945 1.08390 0.07208
 O110 O 0.50344 1.18705 0.07647
 O111 O 0.49700 1.07549 0.16295
 Zr112 Zr 0.49945 1.08323 -0.07244
 O113 O 0.50061 1.18651 -0.07015
 O114 O 0.50341 1.08113 -0.16390
 O115 O 0.44135 1.09622 -0.00030
 O116 O 0.55622 1.09539 -0.00023
 O117 O 0.58879 0.88375 0.10260
 O118 O 0.66180 0.94431 0.05089
 C119 C 0.64731 0.90045 0.08948
 O120 O 0.40996 0.87936 -0.09784
 O121 O 0.33688 0.94348 -0.04981
 C122 C 0.35142 0.89704 -0.08593
 O123 O 0.58853 0.88452 -0.10299
 O124 O 0.66166 0.94621 -0.05231
 C125 C 0.64705 0.90187 -0.09046
 O126 O 0.41017 0.87807 0.09662
 O127 O 0.33705 0.94391 0.05047
 C128 C 0.35162 0.89672 0.08579
 Zr129 Zr 0.49929 0.92006 0.07319
 O130 O 0.50090 0.81740 0.08385
 O131 O 0.49366 0.92988 0.16410
 Zr132 Zr 0.49927 0.91882 -0.07168
 O133 O 0.50490 0.81553 -0.07341
 O134 O 0.49364 0.92170 -0.16290
 Zr135 Zr 0.40156 1.00122 0.00014
 Zr136 Zr 0.59716 1.00122 0.00014
 O137 O 0.55572 0.90722 0.00066
 O138 O 0.44154 0.90628 0.00077
 O139 O 0.55767 1.00199 0.08405
 O140 O 0.44270 1.00093 -0.08288
 O141 O 0.44237 1.00204 0.08335
 O142 O 0.55728 1.00090 -0.08351
 H143 H 0.58450 1.13442 -0.00018
 H144 H 0.41350 1.00030 -0.11663
 H145 H 0.58409 0.86830 0.00019
 H146 H 0.41312 1.00209 0.11713
 H147 H 0.46093 1.06752 -0.17899
 H148 H 0.52752 0.95196 -0.17666
 H149 H 0.47338 0.79886 -0.04500
 H150 H 0.51410 0.79845 0.04651
 H151 H 0.53482 0.94884 0.17769
 H152 H 0.49594 1.12080 0.17804
 H153 H 0.48747 1.20330 0.03895
 H154 H 0.50106 1.20153 -0.11083
 O155 O 1.08928 0.61635 0.60443
 O156 O 1.16200 0.55707 0.55120
 C157 C 1.14777 0.59980 0.59080
 O158 O 0.91012 0.37848 0.59701
 O159 O 0.83707 0.44324 0.54957
 C160 C 0.85158 0.39651 0.58540
 O161 O 1.08886 0.38348 0.60214
 O162 O 1.16180 0.44574 0.55185
 C163 C 1.14733 0.40110 0.58977
 O164 O 0.90968 0.62132 0.59963
 O165 O 0.83685 0.55750 0.55090
 C166 C 0.85114 0.60333 0.58765
 Zr167 Zr 0.99952 0.58251 0.57313
 O168 O 0.99376 0.57713 0.66426
 O169 O 1.00631 0.68561 0.57772
 Zr170 Zr 0.99955 0.41838 0.57136
 O171 O 0.99729 0.42600 0.66230
 O172 O 1.00463 0.31512 0.57501
 O173 O 1.05768 0.50020 0.58363
 O174 O 0.94285 0.50020 0.58302
 O175 O 0.90951 0.62396 0.40262
 O176 O 0.83677 0.55911 0.45041
 C177 C 0.85101 0.60561 0.41427
 O178 O 1.08884 0.38395 0.39752
 O179 O 1.16192 0.44483 0.44879
 C180 C 1.14736 0.40075 0.41045
 O181 O 0.91043 0.37793 0.40368
 O182 O 0.83728 0.44428 0.44913
 C183 C 0.85189 0.39679 0.41413
 O184 O 1.08916 0.61913 0.39770
 O185 O 1.16189 0.55631 0.44771
 C186 C 1.14760 0.60096 0.40978
 Zr187 Zr 0.99936 0.58468 0.42842
 O188 O 0.99266 0.58241 0.33723
 O189 O 1.00628 0.68790 0.42659
 Zr190 Zr 0.99935 0.42076 0.42638
 O191 O 0.99290 0.43228 0.33566
 O192 O 1.00182 0.31862 0.41364
 Zr193 Zr 1.09720 0.50121 0.49981
 Zr194 Zr 0.90168 0.50135 0.49995
 O195 O 0.94250 0.50270 0.41672
 O196 O 1.05765 0.50271 0.41582
 O197 O 0.94134 0.59655 0.50097
 O198 O 1.05573 0.40725 0.49886
 O199 O 1.05597 0.59544 0.50084
 O200 O 0.94176 0.40643 0.49883
 H201 H 0.91402 0.49969 0.61708
 H202 H 1.08379 0.36809 0.49917
 H203 H 0.91315 0.50282 0.38300
 H204 H 1.08431 0.63442 0.50110
 H205 H 0.97580 0.29819 0.54452
 H206 H 1.00992 0.29927 0.45194
 H207 H 1.03639 0.44312 0.32105
 H208 H 1.03139 0.55979 0.32240
 H209 H 0.97355 0.70523 0.45347
 H210 H 0.97472 0.70372 0.55015
 H211 H 1.03037 0.55019 0.67779
 H212 H 0.99633 0.38057 0.67713
 O213 O 0.87820 0.59173 -0.09736
 O214 O 0.94244 0.66597 -0.05033
 C215 C 0.89630 0.65123 -0.08615
 O216 O 0.88550 0.40992 0.10375
 O217 O 0.94406 0.33577 0.05103
 C218 C 0.90173 0.35046 0.09044
 O219 O 0.88080 0.59176 0.09914
 O220 O 0.94355 0.66607 0.05069
 C221 C 0.89822 0.65128 0.08728
 O222 O 0.88394 0.41018 -0.10326
 O223 O 0.94548 0.33596 -0.05322
 C224 C 0.90155 0.35072 -0.09124
 Zr225 Zr 0.91810 0.50094 -0.07214
 O226 O 0.81643 0.49659 -0.07595
 O227 O 0.92611 0.50358 -0.16302
 Zr228 Zr 0.91886 0.50076 0.07215
 O229 O 0.81714 0.49971 0.06796
 O230 O 0.91889 0.49675 0.16361
 O231 O 0.90608 0.55999 0.00019
 O232 O 0.90687 0.44306 0.00004
 O233 O 1.11518 0.41040 -0.10304
 O234 O 1.05578 0.33597 -0.05143
 C235 C 1.09891 0.35090 -0.09007
 O236 O 1.11951 0.59158 0.09795
 O237 O 1.05668 0.66603 0.04981
 C238 C 1.10230 0.65110 0.08608
 O239 O 1.11443 0.41041 0.10302
 O240 O 1.05378 0.33599 0.05241
 C241 C 1.09739 0.35094 0.09067
 O242 O 1.12120 0.59123 -0.09669
 O243 O 1.05647 0.66578 -0.05081
 C244 C 1.10304 0.65076 -0.08605
 Zr245 Zr 1.07935 0.50104 -0.07337
 O246 O 1.18042 0.49877 -0.08425
 O247 O 1.06936 0.50705 -0.16425
 Zr248 Zr 1.08087 0.50095 0.07134
 O249 O 1.18268 0.49498 0.07215
 O250 O 1.07877 0.50646 0.16257
 Zr251 Zr 0.99960 0.60046 -0.00027
 Zr252 Zr 0.99958 0.40142 -0.00038
 O253 O 1.09213 0.44358 -0.00095
 O254 O 1.09307 0.55972 -0.00100
 O255 O 0.99869 0.44174 -0.08421
 O256 O 0.99998 0.55836 0.08262
 O257 O 0.99869 0.55897 -0.08345
 O258 O 0.99998 0.44209 0.08322
 H259 H 0.86847 0.41431 0.00003
 H260 H 1.00067 0.58796 0.11639
 H261 H 1.13049 0.41481 -0.00052
 H262 H 0.99862 0.58871 -0.11721
 H263 H 0.93717 0.53793 0.17881
 H264 H 1.04739 0.47354 0.17633
 H265 H 1.19919 0.52860 0.04524
 H266 H 1.19931 0.48900 -0.04610
 H267 H 1.05081 0.46523 -0.17791
 H268 H 0.88143 0.50466 -0.17803
 H269 H 0.80027 0.51670 -0.03996
 H270 H 0.80147 0.49876 0.10836
 O271 O 0.38406 0.90999 0.39698
 O272 O 0.44530 0.83578 0.44731
 C273 C 0.40153 0.85054 0.40913
 O274 O 0.62054 1.09087 0.40266
 O275 O 0.55622 1.16546 0.44897
 C276 C 0.60262 1.15042 0.41353
 O277 O 0.61454 0.91018 0.39675
 O278 O 0.55534 0.83582 0.44867
 C279 C 0.59827 0.85070 0.40982
 O280 O 0.37921 1.09174 0.40199
 O281 O 0.44259 1.16596 0.44991
 C282 C 0.39691 1.15125 0.41364
 Zr283 Zr 0.41810 1.00076 0.42816
 O284 O 0.42598 1.00286 0.33724
 O285 O 0.31638 0.99602 0.42479
 Zr286 Zr 0.57922 1.00070 0.42693
 O287 O 0.56535 1.00214 0.33659
 O288 O 0.68034 1.00011 0.41560
 O289 O 0.49863 0.94151 0.41615
 O290 O 0.49871 1.05875 0.41682
 O291 O 0.37830 1.09137 0.59672
 O292 O 0.44332 1.16570 0.55080
 C293 C 0.39685 1.15088 0.58620
 O294 O 0.61548 0.90998 0.60227
 O295 O 0.55383 0.83569 0.55253
 C296 C 0.59799 0.85055 0.59029
 O297 O 0.62032 1.09140 0.59730
 O298 O 0.55667 1.16580 0.54992
 C299 C 0.60267 1.15090 0.58580
 O300 O 0.38390 0.90964 0.60245
 O301 O 0.44402 0.83550 0.55124
 C302 C 0.40085 0.85018 0.58986
 Zr303 Zr 0.41948 1.00078 0.57297
 O304 O 0.42925 1.00716 0.66385
 O305 O 0.31837 0.99941 0.58356
 Zr306 Zr 0.58088 1.00073 0.57171
 O307 O 0.57760 1.00733 0.66290
 O308 O 0.68247 0.99522 0.57400
 Zr309 Zr 0.49949 0.90127 0.50004
 Zr310 Zr 0.49954 1.10028 0.49992
 O311 O 0.50024 1.05851 0.58304
 O312 O 0.50021 0.94156 0.58396
 O313 O 0.40601 1.05954 0.50060
 O314 O 0.59204 0.94333 0.49933
 O315 O 0.40691 0.94332 0.50052
 O316 O 0.59293 1.05943 0.49923
 H317 H 0.49870 1.08828 0.38291
 H318 H 0.63037 0.91452 0.49947
 H319 H 0.50044 1.08814 0.61687
 H320 H 0.36869 0.91435 0.50009
 H321 H 0.69949 0.98408 0.45196
 H322 H 0.69838 1.02438 0.54314
 H323 H 0.55650 0.96727 0.67760
 H324 H 0.44233 0.96363 0.67837
 H325 H 0.29982 0.98313 0.54706
 H326 H 0.29998 1.02497 0.45563
 H327 H 0.38130 1.00404 0.32226
 H328 H 0.60892 1.00505 0.31940
 O329 O 1.11020 0.87785 0.41923
 O330 O 1.05162 0.93981 0.35577
 C331 C 1.09288 0.89493 0.36744
 O332 O 0.88194 0.88987 0.58182
 O333 O 0.94524 0.94694 0.64509
 C334 C 0.89979 0.90639 0.63356
 O335 O 0.88897 0.88209 0.41920
 O336 O 0.94920 0.94230 0.35568
 C337 C 0.90674 0.89862 0.36739
 O338 O 1.11722 0.88560 0.58183
 O339 O 1.05596 0.94481 0.64516
 C340 C 1.10005 0.90284 0.63363
 Zr341 Zr 1.08030 0.91281 0.50053
 O342 O 1.06728 0.81035 0.50292
 O343 O 1.18121 0.89957 0.49815
 Zr344 Zr 0.91871 0.91701 0.50053
 O345 O 0.92274 0.81390 0.50371
 O346 O 0.81705 0.91416 0.49493
 O347 O 0.99924 0.90205 0.44912
 O348 O 0.99934 0.90291 0.55123
 O349 O 1.11929 1.10691 0.58191
 O350 O 1.05606 1.05021 0.64552
 C351 C 1.10121 1.09101 0.63377
 O352 O 0.89399 1.11779 0.41903
 O353 O 0.95157 1.05509 0.35561
 C354 C 0.91072 1.10036 0.36730
 O355 O 0.88788 1.11161 0.58141
 O356 O 0.94802 1.05168 0.64503
 C357 C 0.90459 1.09433 0.63323
 O358 O 1.11371 1.11318 0.41885
 O359 O 1.05417 1.05229 0.35546
 C360 C 1.09620 1.09641 0.36708
 Zr361 Zr 1.08471 1.07785 0.50023
 O362 O 1.08982 1.18090 0.50642
 O363 O 1.18635 1.07579 0.49439
 Zr364 Zr 0.92233 1.08161 0.50013
 O365 O 0.92265 1.18476 0.50635
 O366 O 0.82079 1.08456 0.49333
 Zr367 Zr 1.00164 0.99744 0.41476
 Zr368 Zr 1.00176 0.99781 0.58588
 O369 O 1.00375 1.09239 0.55001
 O370 O 1.00382 1.09292 0.44904
 O371 O 1.09572 0.99524 0.55138
 O372 O 0.90838 0.99946 0.45018
 O373 O 1.09482 0.99502 0.45032
 O374 O 0.90770 0.99981 0.55155
 H375 H 0.99865 0.86504 0.57793
 H376 H 0.87051 1.00019 0.42415
 H377 H 1.00434 1.13109 0.57574
 H378 H 1.13256 0.99440 0.42415
 H379 H 0.80042 0.94792 0.52156
 H380 H 0.80341 1.05953 0.52630
 H381 H 0.94995 1.20134 0.47463
 H382 H 1.06072 1.19878 0.47660
 H383 H 1.20236 1.05040 0.52777
 H384 H 1.20027 0.94356 0.49412
 H385 H 1.11105 0.79119 0.50467
 H386 H 0.87746 0.79863 0.50387
 O387 O 0.38606 0.61018 0.08132
 O388 O 0.44644 0.55014 0.14471
 C389 C 0.40283 0.59271 0.13307
 O390 O 0.39161 0.37931 -0.08101
 O391 O 0.45054 0.44098 -0.14440
 C392 C 0.40899 0.39633 -0.13277
 O393 O 0.38553 0.38620 0.08194
 O394 O 0.44856 0.44365 0.14531
 C395 C 0.40375 0.40238 0.13372
 O396 O 0.39341 0.61716 -0.08062
 O397 O 0.45055 0.55417 -0.14427
 C398 C 0.40992 0.59965 -0.13245
 Zr399 Zr 0.41990 0.57908 0.00034
 O400 O 0.31875 0.56797 -0.00181
 O401 O 0.40899 0.68182 0.00195
 Zr402 Zr 0.41969 0.41568 0.00035
 O403 O 0.31826 0.42382 -0.00211
 O404 O 0.41292 0.31268 0.00545
 O405 O 0.40748 0.49741 0.05208
 O406 O 0.40806 0.49749 -0.05054
 O407 O 0.61135 0.61549 -0.08087
 O408 O 0.55295 0.55352 -0.14436
 C409 C 0.59420 0.59840 -0.13266
 O410 O 0.61786 0.38655 0.08201
 O411 O 0.55512 0.44416 0.14540
 C412 C 0.59981 0.40284 0.13384
 O413 O 0.61123 0.37937 -0.08127
 O414 O 0.55231 0.44113 -0.14455
 C415 C 0.59378 0.39644 -0.13301
 O416 O 0.61781 0.60879 0.08183
 O417 O 0.55550 0.55078 0.14527
 C418 C 0.60000 0.59239 0.13364
 Zr419 Zr 0.58313 0.57931 0.00048
 O420 O 0.68468 0.57369 -0.00228
 O421 O 0.58736 0.68255 0.00544
 Zr422 Zr 0.58271 0.41495 0.00028
 O423 O 0.68441 0.41389 -0.00526
 O424 O 0.58430 0.31175 0.00668
 Zr425 Zr 0.50176 0.49736 0.08575
 Zr426 Zr 0.50157 0.49741 -0.08513
 O427 O 0.59496 0.49722 -0.04998
 O428 O 0.59578 0.49715 0.05176
 O429 O 0.50157 0.59263 -0.05031
 O430 O 0.50127 0.40272 0.04999
 O431 O 0.50158 0.59186 0.05017
 O432 O 0.50118 0.40203 -0.05059
 H433 H 0.37072 0.49774 -0.07721
 H434 H 0.50132 0.36395 0.07565
 H435 H 0.63263 0.49717 -0.07624
 H436 H 0.50179 0.63029 0.07620
 H437 H 0.44584 0.29491 -0.02105
 H438 H 0.55648 0.29458 -0.02444
 H439 H 0.70046 0.44860 0.02076
 H440 H 0.70041 0.61943 -0.00233
 H441 H 0.55574 0.69974 -0.02267
 H442 H 0.45142 0.70008 0.01238
 H443 H 0.30076 0.61279 -0.00360
 H444 H 0.30151 0.37846 -0.00246
 N445 N 0.30896 1.19209 0.14002
 N446 N 0.30104 1.13451 0.12024
 N447 N 0.80840 0.69026 0.64054
 N448 N 0.80078 0.63226 0.62165
 N449 N 0.68990 0.81166 0.13981
 N450 N 0.69758 0.87040 0.12267
 N451 N 1.19028 0.31238 0.63988
 N452 N 1.19751 0.37138 0.62330
 N453 N 0.69145 1.18852 -0.14133
 N454 N 0.69805 1.12971 -0.12403
 N455 N 1.19186 0.68874 0.35896
 N456 N 1.19797 0.62969 0.37574
 N457 N 0.31114 0.80948 -0.13907
 N458 N 0.30147 0.86688 -0.11950
 N459 N 0.81141 0.30890 0.36122
 N460 N 0.80212 0.36655 0.38038
 N461 N 1.18508 0.30820 0.14075
 N462 N 1.12691 0.30028 0.12448
 N463 N 0.68571 0.80771 0.64031
 N464 N 0.62752 0.79988 0.62407
 N465 N 1.19001 0.69105 -0.13879
 N466 N 1.13322 0.70112 -0.11983
 N467 N 0.68972 1.19083 0.36093
 N468 N 0.63285 1.20081 0.37976
 N469 N 0.81178 0.69299 0.13999
 N470 N 0.86883 0.70203 0.12123
 N471 N 0.31066 1.19246 0.63951
 N472 N 0.36754 1.20148 0.62040
 N473 N 0.81421 0.30660 -0.14130
 N474 N 0.87262 0.29986 -0.12530
 N475 N 0.31437 0.80670 0.35873
 N476 N 0.37263 0.79967 0.37506
 N477 N 1.17193 1.16637 0.33238
 N478 N 1.12583 1.12864 0.32023
 N479 N 0.67060 0.66766 -0.16732
 N480 N 0.62396 0.63059 -0.17946
 N481 N 0.82901 1.16489 0.66710
 N482 N 0.87349 1.12544 0.67988
 N483 N 0.32895 0.66498 0.16709
 N484 N 0.37187 0.62378 0.17983
 N485 N 1.17414 0.83119 0.66848
 N486 N 1.13121 0.87252 0.68066
 N487 N 0.67503 0.33230 0.16868
 N488 N 0.63056 0.37195 0.18083
 N489 N 0.82572 0.83582 0.33173
 N490 N 0.87664 0.86694 0.32057
 N491 N 0.32725 0.33461 -0.16854
 N492 N 0.37886 0.36465 -0.17960
 N493 N 1.18660 0.30881 -0.14061
 N494 N 1.12886 0.30014 -0.12344
 N495 N 0.68579 0.80853 0.35928
 N496 N 0.62803 0.79990 0.37637
 N497 N 0.81015 0.69308 -0.13926
 N498 N 0.86708 0.70199 -0.12023
 N499 N 0.31093 1.19300 0.36032
 N500 N 0.36775 1.20208 0.37959
 N501 N 1.18890 0.69153 0.13901
 N502 N 1.13223 0.70165 0.11980
 N503 N 0.68919 1.19149 0.63877
 N504 N 0.63249 1.20146 0.61958
 N505 N 0.81489 0.30675 0.14128
 N506 N 0.87286 0.29939 0.12430
 N507 N 0.31412 0.80654 0.64099
 N508 N 0.37200 0.79916 0.62380
 N509 N 0.30885 1.19082 -0.14023
 N510 N 0.30071 1.13306 -0.12092
 N511 N 0.80906 0.69198 0.36021
 N512 N 0.80071 0.63455 0.38020
 N513 N 0.69264 1.18822 0.14103
 N514 N 0.69805 1.12889 0.12483
 N515 N 1.19238 0.68753 0.64135
 N516 N 1.19841 0.62850 0.62456
 N517 N 0.68972 0.81286 -0.14018
 N518 N 0.69711 0.87195 -0.12392
 N519 N 1.18942 0.31176 0.36023
 N520 N 1.19750 0.37044 0.37736
 N521 N 0.31080 0.80911 0.13880
 N522 N 0.30173 0.86674 0.11953
 N523 N 0.81097 0.30914 0.63878
 N524 N 0.80160 0.36654 0.61907
 N525 N 1.17058 1.16785 0.66778
 N526 N 1.13206 1.12236 0.68047
 N527 N 0.67202 0.66665 0.16780
 N528 N 0.63060 0.62384 0.18044
 N529 N 1.17459 0.83336 0.33116
 N530 N 1.12273 0.86313 0.32052
 N531 N 0.67440 0.33327 -0.16904
 N532 N 0.62351 0.36458 -0.17998
 N533 N 0.83015 1.16426 0.33251
 N534 N 0.88047 1.13235 0.32068
 N535 N 0.33035 0.66499 -0.16715
 N536 N 0.37983 0.63182 -0.17908
 N537 N 0.82651 0.83370 0.66798
 N538 N 0.86835 0.87611 0.68046
 N539 N 0.32518 0.33588 0.16850
 N540 N 0.37297 0.37139 0.18057
   
