data_POSCAR
  _audit_creation_date              2014-09-24
  _audit_creation_method            'ToBaCCo'
  _symmetry_space_group_name_H-M    'P1'
  _symmetry_Int_Tables_number       1
  _symmetry_cell_setting            triclinic
  loop_
  _symmetry_equiv_pos_as_xyz
 x,y,z
_cell_length_a 24.9340
_cell_length_b 24.8725
_cell_length_c 23.4582
_cell_angle_alpha 89.960200
_cell_angle_beta 89.954600
_cell_angle_gamma 104.864600
loop_
  _atom_site_label
  _atom_site_type_symbol
  _atom_site_fract_x
  _atom_site_fract_y
  _atom_site_fract_z
O1 O -0.03328 0.33061 0.05292
 O2 O 0.06991 0.32056 -0.05631
 O3 O -0.03361 0.32633 -0.05932
 O4 O 0.06853 0.32087 0.05304
 O5 O 0.03636 0.22944 0.05618
 O6 O -0.06202 0.23464 -0.05816
 O7 O 0.03915 0.22915 -0.05550
 O8 O -0.06511 0.23907 0.05253
 Cu9 Cu 0.02052 0.33393 -0.00261
 Cu10 Cu -0.01586 0.22393 -0.00078
 C11 C -0.06653 0.28653 0.07138
 C12 C 0.07235 0.27317 -0.07461
 C13 C -0.06446 0.28111 -0.07866
 C14 C 0.06964 0.27392 0.07359
 O15 O 0.57357 0.82122 0.44271
 O16 O 0.47128 0.82746 0.55413
 O17 O 0.57463 0.82259 0.55260
 O18 O 0.46950 0.82351 0.44231
 O19 O 0.44545 0.73169 0.44289
 O20 O 0.54550 0.73095 0.55715
 O21 O 0.44288 0.73563 0.55419
 O22 O 0.54841 0.72946 0.44609
 Cu23 Cu 0.52461 0.83299 0.49771
 Cu24 Cu 0.49278 0.72273 0.50036
 C25 C 0.57889 0.77437 0.42577
 C26 C 0.43984 0.78256 0.57312
 C27 C 0.57761 0.77644 0.57380
 C28 C 0.44035 0.77754 0.42293
 O29 O 0.93316 0.68104 -0.05872
 O30 O 1.03444 0.67197 0.05264
 O31 O 0.93219 0.68005 0.05092
 O32 O 1.03705 0.67636 -0.05934
 O33 O 1.06097 0.76802 -0.06104
 O34 O 0.96466 0.77134 0.05606
 O35 O 1.06672 0.76343 0.05038
 O36 O 0.95968 0.77261 -0.05492
 Cu37 Cu 0.98168 0.66806 -0.00387
 Cu38 Cu 1.01607 0.77800 -0.00191
 C39 C 0.92836 0.72823 -0.07541
 C40 C 1.06791 0.71622 0.07026
 C41 C 0.93106 0.72659 0.07246
 C42 C 1.06578 0.72186 -0.08042
 O43 O 0.42615 0.17716 0.44337
 O44 O 0.52882 0.17101 0.55432
 O45 O 0.42554 0.17610 0.55334
 O46 O 0.53039 0.17524 0.44242
 O47 O 0.55428 0.26706 0.44280
 O48 O 0.45451 0.26771 0.55746
 O49 O 0.55729 0.26283 0.55397
 O50 O 0.45131 0.26893 0.44648
 Cu51 Cu 0.47536 0.16558 0.49817
 Cu52 Cu 0.50712 0.27582 0.50050
 C53 C 0.42078 0.22400 0.42637
 C54 C 0.56043 0.21591 0.57296
 C55 C 0.42242 0.22226 0.57438
 C56 C 0.55940 0.22125 0.42284
 O57 O 0.66899 0.03292 -0.05312
 O58 O 0.67946 -0.06922 0.05714
 O59 O 0.67335 0.03400 0.05899
 O60 O 0.67831 -0.06932 -0.05240
 O61 O 0.76939 -0.03642 -0.05707
 O62 O 0.76489 0.06117 0.05846
 O63 O 0.77074 -0.04043 0.05410
 O64 O 0.76025 0.06535 -0.05236
 Cu65 Cu 0.66572 -0.02055 0.00283
 Cu66 Cu 0.77545 0.01548 0.00034
 C67 C 0.71290 0.06652 -0.07136
 C68 C 0.72678 -0.07279 0.07425
 C69 C 0.71860 0.06424 0.07869
 C70 C 0.72494 -0.07017 -0.07368
 O71 O 0.17528 0.42598 0.55751
 O72 O 0.16871 0.52863 0.44609
 O73 O 0.17421 0.42509 0.44760
 O74 O 0.17312 0.53064 0.55812
 O75 O 0.26471 0.55468 0.55747
 O76 O 0.26556 0.45472 0.44292
 O77 O 0.26027 0.55762 0.44634
 O78 O 0.26683 0.45157 0.55404
 Cu79 Cu 0.16356 0.47521 0.50256
 Cu80 Cu 0.27349 0.50743 0.49984
 C81 C 0.22211 0.42083 0.57434
 C82 C 0.21341 0.56051 0.42735
 C83 C 0.22030 0.42227 0.42635
 C84 C 0.21902 0.55981 0.57751
 O85 O 0.32133 1.06981 0.05765
 O86 O 0.33338 0.96897 -0.05339
 O87 O 0.32209 1.07123 -0.05154
 O88 O 0.32794 0.96696 0.05904
 O89 O 0.23642 0.93991 0.05916
 O90 O 0.23193 1.03492 -0.05897
 O91 O 0.24252 0.93383 -0.05107
 O92 O 0.23013 1.04124 0.05292
 Cu93 Cu 0.33548 1.02191 0.00295
 Cu94 Cu 0.22616 0.98449 -0.00004
 C95 C 0.27376 1.07338 0.07397
 C96 C 0.29004 0.93385 -0.07058
 C97 C 0.27575 1.07045 -0.07460
 C98 C 0.28274 0.93690 0.07922
 O99 O 0.82305 0.57387 0.55662
 O100 O 0.83003 0.47132 0.44575
 O101 O 0.82453 0.57472 0.44675
 O102 O 0.82537 0.46967 0.55761
 O103 O 0.73376 0.44562 0.55703
 O104 O 0.73319 0.54493 0.44186
 O105 O 0.73846 0.44217 0.44605
 O106 O 0.73151 0.54853 0.55287
 Cu107 Cu 0.83505 0.52480 0.50188
 Cu108 Cu 0.72504 0.49252 0.49908
 C109 C 0.77619 0.57908 0.57332
 C110 C 0.78538 0.43934 0.42716
 C111 C 0.77851 0.57733 0.42529
 C112 C 0.77944 0.44065 0.57716
 C113 C 0.22571 0.26269 0.25038
 C114 C 0.26075 0.22889 0.24985
 C115 C 0.26250 0.19008 0.20201
 C116 C 0.30020 0.22931 0.29724
 C117 C 0.22575 0.30249 0.29702
 C118 C 0.18661 0.26369 0.20357
 C119 C 0.21500 0.14966 0.18451
 C120 C 0.21824 0.11220 0.14098
 C121 C 0.26965 0.11266 0.11573
 C122 C 0.31733 0.15259 0.13430
 C123 C 0.31363 0.19100 0.17653
 C124 C 0.29538 0.18112 0.32997
 C125 C 0.33442 0.17945 0.37219
 C126 C 0.37886 0.22614 0.38255
 C127 C 0.38356 0.27441 0.34974
 C128 C 0.34504 0.27565 0.30685
 C129 C 0.26063 0.35646 0.29379
 C130 C 0.25945 0.39511 0.33654
 C131 C 0.22159 0.38107 0.38178
 C132 C 0.18546 0.32753 0.38412
 C133 C 0.18793 0.28824 0.34221
 C134 C 0.20327 0.29917 0.15682
 C135 C 0.16489 0.30320 0.11464
 C136 C 0.10987 0.27082 0.11830
 C137 C 0.09342 0.23516 0.16500
 C138 C 0.13126 0.23264 0.20806
 H139 H 0.17564 0.14583 0.20554
 H140 H 0.18071 0.08161 0.12867
 H141 H 0.35772 0.15451 0.11609
 H142 H 0.35102 0.22128 0.18978
 H143 H 0.26160 0.14462 0.32239
 H144 H 0.32982 0.14166 0.39675
 H145 H 0.35110 0.31223 0.28024
 H146 H 0.28868 0.36862 0.25807
 H147 H 0.28718 0.43641 0.33360
 H148 H 0.15598 0.31594 0.41875
 H149 H 0.16001 0.24701 0.34459
 H150 H 0.24565 0.32424 0.15353
 H151 H 0.17825 0.33093 0.07883
 H152 H 0.05099 0.21031 0.16877
 H153 H 0.11758 0.20614 0.24471
 H154 H 0.41791 0.31066 0.35615
 C155 C 0.77341 0.73600 0.24855
 C156 C 0.73837 0.76975 0.24840
 C157 C 0.73689 0.80905 0.20103
 C158 C 0.69904 0.76920 0.29599
 C159 C 0.77354 0.69626 0.29513
 C160 C 0.81284 0.73550 0.20184
 C161 C 0.78445 0.84987 0.18443
 C162 C 0.78154 0.88792 0.14142
 C163 C 0.73037 0.88759 0.11579
 C164 C 0.68255 0.84731 0.13354
 C165 C 0.68595 0.80833 0.17531
 C166 C 0.70384 0.81741 0.32861
 C167 C 0.66495 0.81900 0.37105
 C168 C 0.62069 0.77222 0.38177
 C169 C 0.61603 0.72390 0.34912
 C170 C 0.65441 0.72273 0.30600
 C171 C 0.73908 0.64213 0.29182
 C172 C 0.74011 0.60370 0.33485
 C173 C 0.77739 0.61821 0.38043
 C174 C 0.81313 0.67192 0.38284
 C175 C 0.81079 0.71097 0.34064
 C176 C 0.79667 0.70027 0.15488
 C177 C 0.83547 0.69657 0.11295
 C178 C 0.89043 0.72900 0.11709
 C179 C 0.90638 0.76435 0.16402
 C180 C 0.86812 0.76657 0.20680
 H181 H 0.82360 0.85349 0.20576
 H182 H 0.81915 0.91877 0.12973
 H183 H 0.64236 0.84552 0.11501
 H184 H 0.64851 0.77774 0.18801
 H185 H 0.73749 0.85400 0.32076
 H186 H 0.66953 0.85683 0.39550
 H187 H 0.64841 0.68609 0.27954
 H188 H 0.71138 0.62975 0.25593
 H189 H 0.71270 0.56224 0.33192
 H190 H 0.84214 0.68383 0.41776
 H191 H 0.83830 0.75240 0.34310
 H192 H 0.75435 0.67515 0.15125
 H193 H 0.82246 0.66910 0.07694
 H194 H 0.94875 0.78927 0.16816
 H195 H 0.88146 0.79282 0.24363
 H196 H 0.58182 0.68757 0.35583
 C197 C 0.72725 0.23204 0.25026
 C198 C 0.77228 0.27724 0.24952
 C199 C 0.81432 0.28575 0.20282
 C200 C 0.78154 0.31964 0.29575
 C201 C 0.68101 0.22753 0.29165
 C202 C 0.72261 0.18498 0.20995
 C203 C 0.87100 0.29606 0.21606
 C204 C 0.91018 0.29829 0.17281
 C205 C 0.89317 0.29004 0.11585
 C206 C 0.83703 0.28209 0.10213
 C207 C 0.79798 0.28102 0.14521
 C208 C 0.77926 0.30362 0.35344
 C209 C 0.78143 0.34290 0.39650
 C210 C 0.78766 0.39889 0.38252
 C211 C 0.79317 0.41562 0.32529
 C212 C 0.79015 0.37621 0.28211
 C213 C 0.65617 0.27174 0.29900
 C214 C 0.61652 0.26942 0.34154
 C215 C 0.59955 0.22209 0.37636
 C216 C 0.62196 0.17652 0.36684
 C217 C 0.66256 0.17933 0.32494
 C218 C 0.67479 0.16637 0.17641
 C219 C 0.67249 0.12569 0.13465
 C220 C 0.71820 0.10349 0.12565
 C221 C 0.76489 0.12029 0.16108
 C222 C 0.76669 0.15995 0.20344
 H223 H 0.88466 0.30026 0.26003
 H224 H 0.95351 0.30447 0.18392
 H225 H 0.82340 0.27600 0.05823
 H226 H 0.75472 0.27453 0.13379
 H227 H 0.77392 0.26040 0.36498
 H228 H 0.77741 0.32955 0.44062
 H229 H 0.79241 0.38952 0.23800
 H230 H 0.66851 0.30865 0.27269
 H231 H 0.59917 0.30476 0.34726
 H232 H 0.60936 0.13946 0.39291
 H233 H 0.68077 0.14452 0.31960
 H234 H 0.64008 0.18472 0.18123
 H235 H 0.63592 0.11313 0.10808
 H236 H 0.80028 0.10301 0.15575
 H237 H 0.80329 0.17251 0.22999
 H238 H 0.79802 0.45886 0.31403
 C239 C 0.27298 0.76822 0.25043
 C240 C 0.22772 0.72322 0.24939
 C241 C 0.18603 0.71538 0.20243
 C242 C 0.21788 0.68060 0.29564
 C243 C 0.31895 0.77219 0.29195
 C244 C 0.27810 0.81568 0.21039
 C245 C 0.12926 0.70533 0.21530
 C246 C 0.09051 0.70397 0.17184
 C247 C 0.10803 0.71299 0.11503
 C248 C 0.16424 0.72073 0.10166
 C249 C 0.20283 0.72082 0.14491
 C250 C 0.22006 0.69649 0.35335
 C251 C 0.21766 0.65709 0.39646
 C252 C 0.21129 0.60107 0.38255
 C253 C 0.20582 0.58448 0.32529
 C254 C 0.20907 0.62401 0.28206
 C255 C 0.34336 0.72767 0.29933
 C256 C 0.38286 0.72962 0.34189
 C257 C 0.40012 0.77687 0.37665
 C258 C 0.37807 0.82269 0.36715
 C259 C 0.33762 0.82026 0.32526
 C260 C 0.32600 0.83419 0.17683
 C261 C 0.32861 0.87514 0.13520
 C262 C 0.28315 0.89776 0.12639
 C263 C 0.23645 0.88113 0.16196
 C264 C 0.23433 0.84117 0.20415
 H265 H 0.11521 0.70059 0.25915
 H266 H 0.04710 0.69774 0.18269
 H267 H 0.17825 0.72720 0.05786
 H268 H 0.24613 0.72710 0.13371
 H269 H 0.22557 0.73971 0.36490
 H270 H 0.22165 0.67039 0.44057
 H271 H 0.20688 0.61076 0.23796
 H272 H 0.33084 0.69084 0.27300
 H273 H 0.39993 0.69409 0.34760
 H274 H 0.39090 0.85971 0.39318
 H275 H 0.31975 0.85530 0.31992
 H276 H 0.36049 0.81549 0.18146
 H277 H 0.36518 0.88753 0.10852
 H278 H 0.20123 0.89869 0.15677
 H279 H 0.19768 0.82869 0.23072
 H280 H 0.20085 0.54124 0.31404
 C281 C 0.76766 0.27302 0.75021
 C282 C 0.72222 0.22823 0.75083
 C283 C 0.67989 0.21944 0.70456
 C284 C 0.71338 0.18605 0.79745
 C285 C 0.81456 0.27737 0.79059
 C286 C 0.77260 0.31938 0.70884
 C287 C 0.62351 0.21139 0.71819
 C288 C 0.58423 0.20866 0.67500
 C289 C 0.60084 0.21388 0.61773
 C290 C 0.65664 0.21964 0.60376
 C291 C 0.69580 0.22157 0.64684
 C292 C 0.71834 0.20240 0.85506
 C293 C 0.71738 0.16323 0.89807
 C294 C 0.70926 0.10695 0.88428
 C295 C 0.70063 0.08990 0.82734
 C296 C 0.70279 0.12922 0.78415
 C297 C 0.83910 0.23290 0.79726
 C298 C 0.87886 0.23465 0.83942
 C299 C 0.89627 0.28166 0.87449
 C300 C 0.87450 0.32771 0.86535
 C301 C 0.83373 0.32547 0.82379
 C302 C 0.82058 0.33716 0.67528
 C303 C 0.82363 0.37773 0.63322
 C304 C 0.77850 0.40072 0.62386
 C305 C 0.73147 0.38448 0.65901
 C306 C 0.72893 0.34489 0.70171
 H307 H 0.61025 0.20926 0.76229
 H308 H 0.54115 0.20411 0.68628
 H309 H 0.66993 0.22340 0.55963
 H310 H 0.73885 0.22649 0.63527
 H311 H 0.72505 0.24578 0.86653
 H312 H 0.72372 0.17687 0.94196
 H313 H 0.69840 0.11556 0.74018
 H314 H 0.82616 0.19608 0.77096
 H315 H 0.89577 0.19897 0.84486
 H316 H 0.88749 0.36452 0.89165
 H317 H 0.81578 0.36050 0.81883
 H318 H 0.85497 0.31841 0.68049
 H319 H 0.86045 0.38980 0.60687
 H320 H 0.69651 0.40234 0.65340
 H321 H 0.69222 0.33304 0.72825
 H322 H 0.69427 0.04645 0.81619
 C323 C 0.23199 0.72846 0.75012
 C324 C 0.27882 0.77188 0.75169
 C325 C 0.32117 0.77980 0.70546
 C326 C 0.28916 0.81374 0.79873
 C327 C 0.18462 0.72513 0.79005
 C328 C 0.22660 0.68211 0.70848
 C329 C 0.37707 0.78458 0.71893
 C330 C 0.41612 0.78684 0.67555
 C331 C 0.39978 0.78463 0.61826
 C332 C 0.34454 0.78203 0.60454
 C333 C 0.30558 0.78029 0.64785
 C334 C 0.28177 0.79712 0.85622
 C335 C 0.28303 0.83645 0.89913
 C336 C 0.29438 0.89311 0.88555
 C337 C 0.30617 0.91028 0.82898
 C338 C 0.30334 0.87086 0.78580
 C339 C 0.16462 0.77201 0.80081
 C340 C 0.12584 0.77094 0.84389
 C341 C 0.10319 0.72177 0.87484
 C342 C 0.11937 0.67331 0.86023
 C343 C 0.16033 0.67525 0.81886
 C344 C 0.17912 0.66548 0.67405
 C345 C 0.17573 0.62455 0.63226
 C346 C 0.22003 0.60010 0.62395
 C347 C 0.26653 0.61532 0.65985
 C348 C 0.26934 0.65517 0.70230
 H349 H 0.39003 0.78459 0.76299
 H350 H 0.45878 0.78889 0.68662
 H351 H 0.33148 0.78054 0.56041
 H352 H 0.26291 0.77773 0.63650
 H353 H 0.27237 0.75348 0.86753
 H354 H 0.27425 0.82264 0.94276
 H355 H 0.30978 0.88481 0.74199
 H356 H 0.18069 0.81028 0.77736
 H357 H 0.11333 0.80875 0.85255
 H358 H 0.10242 0.63452 0.88256
 H359 H 0.17427 0.63818 0.81061
 H360 H 0.14538 0.68526 0.67850
 H361 H 0.13933 0.61333 0.60530
 H362 H 0.30083 0.59636 0.65507
 H363 H 0.30556 0.66599 0.72953
 H364 H 0.31504 0.95398 0.81792
 C365 C 0.26301 0.22631 0.75088
 C366 C 0.22829 0.26052 0.75071
 C367 C 0.22846 0.30012 0.70343
 C368 C 0.18941 0.26210 0.79820
 C369 C 0.26471 0.18724 0.79801
 C370 C 0.30275 0.22681 0.70407
 C371 C 0.27253 0.34780 0.69683
 C372 C 0.27108 0.38635 0.65389
 C373 C 0.22456 0.37893 0.61821
 C374 C 0.17989 0.33179 0.62571
 C375 C 0.18197 0.29259 0.66786
 C376 C 0.19525 0.31138 0.82934
 C377 C 0.15631 0.31539 0.87096
 C378 C 0.11153 0.26943 0.88359
 C379 C 0.10603 0.22002 0.85234
 C380 C 0.14335 0.21727 0.80870
 C381 C 0.22401 0.13678 0.80248
 C382 C 0.22661 0.09917 0.84590
 C383 C 0.27267 0.10900 0.88271
 C384 C 0.31540 0.15805 0.87558
 C385 C 0.31084 0.19727 0.83434
 C386 C 0.29086 0.18522 0.66227
 C387 C 0.33006 0.18325 0.62018
 C388 C 0.38126 0.22338 0.61906
 C389 C 0.39303 0.26487 0.66110
 C390 C 0.35449 0.26584 0.70397
 H391 H 0.30740 0.35593 0.72577
 H392 H 0.30559 0.42286 0.64972
 H393 H 0.14347 0.32516 0.59886
 H394 H 0.14707 0.25662 0.67319
 H395 H 0.22962 0.34712 0.82077
 H396 H 0.16192 0.35425 0.89385
 H397 H 0.13494 0.18078 0.78199
 H398 H 0.19082 0.12579 0.77163
 H399 H 0.19376 0.06110 0.84880
 H400 H 0.35162 0.16697 0.90289
 H401 H 0.34373 0.23515 0.83020
 H402 H 0.25152 0.15405 0.66266
 H403 H 0.32018 0.15085 0.58818
 H404 H 0.43261 0.29569 0.66159
 H405 H 0.36528 0.29665 0.73743
 H406 H 0.07124 0.18431 0.85951
 C407 C 0.73615 0.77256 0.75052
 C408 C 0.77029 0.73789 0.75089
 C409 C 0.77017 0.69862 0.70338
 C410 C 0.80967 0.73685 0.79822
 C411 C 0.73512 0.81196 0.79708
 C412 C 0.69651 0.77224 0.70385
 C413 C 0.72412 0.65357 0.69351
 C414 C 0.72555 0.61542 0.65024
 C415 C 0.77373 0.62075 0.61733
 C416 C 0.82011 0.66540 0.62793
 C417 C 0.81825 0.70408 0.67052
 C418 C 0.81007 0.68583 0.82353
 C419 C 0.84924 0.68290 0.86512
 C420 C 0.88857 0.73127 0.88317
 C421 C 0.88775 0.78250 0.85799
 C422 C 0.84956 0.78498 0.81512
 C423 C 0.76517 0.86768 0.79173
 C424 C 0.76256 0.90586 0.83448
 C425 C 0.72778 0.88932 0.88175
 C426 C 0.69634 0.83391 0.88628
 C427 C 0.70047 0.79522 0.84438
 C428 C 0.71099 0.80953 0.65818
 C429 C 0.67198 0.81154 0.61598
 C430 C 0.61855 0.77541 0.61850
 C431 C 0.60429 0.73803 0.66418
 C432 C 0.64267 0.73734 0.70722
 H433 H 0.68760 0.64713 0.72015
 H434 H 0.68955 0.58086 0.64363
 H435 H 0.85782 0.67044 0.60327
 H436 H 0.85449 0.73810 0.67826
 H437 H 0.78024 0.64796 0.81060
 H438 H 0.84835 0.64264 0.88331
 H439 H 0.85242 0.82427 0.79411
 H440 H 0.79101 0.88139 0.75467
 H441 H 0.78670 0.94858 0.83008
 H442 H 0.66933 0.82050 0.92258
 H443 H 0.67615 0.75253 0.84831
 H444 H 0.75218 0.83737 0.65564
 H445 H 0.68369 0.84065 0.58099
 H446 H 0.56305 0.71033 0.66721
 H447 H 0.63045 0.70957 0.74321
 H448 H 0.91785 0.82056 0.86990
   
