data_POSCAR
  _audit_creation_date              2014-09-24
  _audit_creation_method            'ToBaCCo'
  _symmetry_space_group_name_H-M    'P1'
  _symmetry_Int_Tables_number       1
  _symmetry_cell_setting            triclinic
  loop_
  _symmetry_equiv_pos_as_xyz
 x,y,z
_cell_length_a 38.0852
_cell_length_b 42.0821
_cell_length_c 40.9017
_cell_angle_alpha 89.856300
_cell_angle_beta 89.869100
_cell_angle_gamma 89.949700
loop_
  _atom_site_label
  _atom_site_type_symbol
  _atom_site_fract_x
  _atom_site_fract_y
  _atom_site_fract_z
C1 C 0.28062 0.32909 0.02383
 C2 C 0.28097 0.33143 -0.01078
 C3 C 0.30093 0.30904 -0.02847
 C4 C 0.32400 0.28735 -0.01296
 C5 C 0.32608 0.28804 0.02190
 C6 C 0.30323 0.30782 0.03943
 H7 H 0.30314 0.30667 0.06594
 H8 H 0.30175 0.31096 -0.05487
 C9 C 0.72855 0.68256 0.02018
 C10 C 0.72574 0.68186 -0.01411
 C11 C 0.70613 0.70527 -0.03012
 C12 C 0.68713 0.72871 -0.01289
 C13 C 0.68907 0.72860 0.02203
 C14 C 0.71024 0.70580 0.03782
 H15 H 0.71209 0.70583 0.06428
 H16 H 0.70355 0.70339 -0.05645
 C17 C 0.73907 0.31729 0.97769
 C18 C 0.73839 0.31759 1.01253
 C19 C 0.71596 0.29600 1.02878
 C20 C 0.69394 0.27533 1.01154
 C21 C 0.69348 0.27652 0.97707
 C22 C 0.71671 0.29678 0.96062
 H23 H 0.71567 0.29815 0.93414
 H24 H 0.71577 0.29484 1.05527
 C25 C 0.29031 0.65782 0.99422
 C26 C 0.29626 0.65288 1.02806
 C27 C 0.31952 0.67349 1.04428
 C28 C 0.33633 0.69912 1.02844
 C29 C 0.32774 0.70508 0.99513
 C30 C 0.30494 0.68441 0.97866
 H31 H 0.30084 0.68760 0.95261
 H32 H 0.32295 0.67087 1.07043
 C33 C 0.00693 0.27610 0.32415
 C34 C -0.03031 0.27636 0.32573
 C35 C -0.04919 0.29764 0.30583
 C36 C -0.03207 0.31876 0.28450
 C37 C 0.00504 0.31781 0.28241
 C38 C 0.02390 0.29670 0.30224
 H39 H 0.05234 0.29679 0.30099
 H40 H -0.07761 0.29811 0.30735
 C41 C 0.02344 0.70197 0.65693
 C42 C -0.01377 0.69945 0.65432
 C43 C -0.03164 0.67862 0.67574
 C44 C -0.01360 0.65872 0.69789
 C45 C 0.02335 0.66276 0.70121
 C46 C 0.04102 0.68417 0.68078
 H47 H 0.06912 0.68727 0.68370
 H48 H -0.05959 0.67519 0.67234
 C49 C 0.97446 0.71536 0.32822
 C50 C 1.01159 0.71534 0.32683
 C51 C 1.02861 0.69477 0.30496
 C52 C 1.01023 0.67228 0.28601
 C53 C 0.97288 0.67139 0.28900
 C54 C 0.95587 0.69345 0.30925
 H55 H 0.92743 0.69302 0.31086
 H56 H 1.05707 0.69498 0.30456
 C57 C 0.97532 0.30160 0.65791
 C58 C 1.01206 0.29692 0.66273
 C59 C 1.02983 0.31720 0.68448
 C60 C 1.01225 0.34106 0.70193
 C61 C 0.97584 0.34585 0.69675
 C62 C 0.95790 0.32577 0.67517
 H63 H 0.93025 0.32997 0.67054
 H64 H 1.05753 0.31342 0.68925
 C65 C 0.30826 0.02619 0.26654
 C66 C 0.31024 -0.00755 0.26883
 C67 C 0.28899 -0.02293 0.29238
 C68 C 0.26562 -0.00625 0.31304
 C69 C 0.26416 0.02749 0.31042
 C70 C 0.28499 0.04285 0.28691
 H71 H 0.28500 0.06862 0.28608
 H72 H 0.28879 -0.04867 0.29309
 C73 C 0.68819 0.01216 0.73747
 C74 C 0.68889 -0.02159 0.73799
 C75 C 0.71149 -0.03756 0.71634
 C76 C 0.73230 -0.02094 0.69381
 C77 C 0.73102 0.01255 0.69284
 C78 C 0.70938 0.02865 0.71499
 H79 H 0.70852 0.05441 0.71428
 H80 H 0.71172 -0.06332 0.71587
 C81 C 0.33106 0.98086 0.71078
 C82 C 0.33484 1.01461 0.71113
 C83 C 0.31386 1.03269 0.68947
 C84 C 0.29084 1.01829 0.66699
 C85 C 0.29067 0.98460 0.66458
 C86 C 0.30990 0.96654 0.68704
 H87 H 0.30851 0.94083 0.68590
 H88 H 0.31544 1.05835 0.68997
 C89 C 0.69866 0.98102 0.26867
 C90 C 0.69531 1.01435 0.27081
 C91 C 0.71440 1.03076 0.29468
 C92 C 0.73700 1.01495 0.31665
 C93 C 0.74116 0.98144 0.31336
 C94 C 0.72215 0.96514 0.28928
 H95 H 0.72375 0.93942 0.28813
 H96 H 0.71197 1.05642 0.29561
 O97 O 0.84163 0.88585 0.54023
 O98 O 0.89169 0.84244 0.47803
 O99 O 0.84730 0.89028 0.47652
 O100 O 0.88380 0.83730 0.53968
 O101 O 0.83820 0.80523 0.53418
 O102 O 0.80254 0.85743 0.47022
 O103 O 0.84683 0.80979 0.47120
 O104 O 0.79619 0.85408 0.53292
 Cu105 Cu 0.87047 0.86754 0.50915
 Cu106 Cu 0.81643 0.82834 0.50135
 C107 C 0.81051 0.87745 0.54723
 C108 C 0.87814 0.81819 0.46479
 C109 C 0.81851 0.88288 0.46289
 C110 C 0.86733 0.81214 0.54735
 O111 O 0.16126 0.12084 0.53729
 O112 O 0.10388 0.15974 0.47724
 O113 O 0.15165 0.11410 0.47489
 O114 O 0.11507 0.16604 0.53905
 O115 O 0.15640 0.20138 0.52870
 O116 O 0.19293 0.14967 0.46461
 O117 O 0.14567 0.19465 0.46635
 O118 O 0.20292 0.15595 0.52734
 Cu119 Cu 0.12883 0.13653 0.50791
 Cu120 Cu 0.17865 0.17892 0.49564
 C121 C 0.19175 0.13172 0.54280
 C122 C 0.11477 0.18416 0.46207
 C123 C 0.17878 0.12293 0.45921
 C124 C 0.12941 0.19272 0.54473
 O125 O 0.10112 0.85478 0.52615
 O126 O 0.15111 0.89830 0.46250
 O127 O 0.09960 0.85769 0.46221
 O128 O 0.15118 0.89701 0.52659
 O129 O 0.18957 0.85758 0.52578
 O130 O 0.13869 0.81899 0.46063
 O131 O 0.19032 0.85970 0.46190
 O132 O 0.13995 0.81593 0.52373
 Cu133 Cu 0.12190 0.88092 0.49452
 Cu134 Cu 0.16861 0.83426 0.49271
 C135 C 0.11210 0.82775 0.53572
 C136 C 0.17934 0.88628 0.45133
 C137 C 0.11032 0.83150 0.45049
 C138 C 0.17874 0.88373 0.53743
 O139 O 0.82760 0.11766 0.47379
 O140 O 0.87050 0.16722 0.53617
 O141 O 0.82834 0.11775 0.53808
 O142 O 0.86980 0.16553 0.47308
 O143 O 0.82548 0.19933 0.47522
 O144 O 0.78163 0.14876 0.53639
 O145 O 0.82336 0.19779 0.53875
 O146 O 0.78294 0.15107 0.47290
 Cu147 Cu 0.85354 0.13860 0.50553
 Cu148 Cu 0.79873 0.17743 0.50590
 C149 C 0.79827 0.12643 0.46204
 C150 C 0.85424 0.19094 0.54796
 C151 C 0.79765 0.12478 0.54796
 C152 C 0.85492 0.19085 0.46339
 O153 O 0.45397 0.88146 0.84865
 O154 O 0.52139 0.85119 0.90508
 O155 O 0.51963 0.89444 0.85808
 O156 O 0.45599 0.83886 0.89515
 O157 O 0.47298 0.80186 0.86028
 O158 O 0.53495 0.85771 0.82220
 O159 O 0.53792 0.81599 0.86806
 O160 O 0.46894 0.84481 0.81275
 Cu161 Cu 0.48625 0.87025 0.88031
 Cu162 Cu 0.50483 0.82643 0.83699
 C163 C 0.45029 0.86860 0.82083
 C164 C 0.54082 0.82819 0.89625
 C165 C 0.53787 0.88553 0.83371
 C166 C 0.45473 0.81049 0.88473
 O167 O 0.54389 0.15646 0.10720
 O168 O 0.47955 0.10525 0.14952
 O169 O 0.47568 0.14824 0.10348
 O170 O 0.54688 0.11222 0.15214
 O171 O 0.53850 0.14814 0.19062
 O172 O 0.46993 0.18574 0.14077
 O173 O 0.47110 0.14294 0.18632
 O174 O 0.53697 0.19294 0.14539
 Cu175 Cu 0.51230 0.12693 0.12416
 Cu176 Cu 0.50362 0.17118 0.16955
 C177 C 0.55116 0.18358 0.11900
 C178 C 0.46450 0.11551 0.17515
 C179 C 0.46088 0.17338 0.11378
 C180 C 0.55402 0.12341 0.18015
 O181 O 0.53180 0.10654 0.84943
 O182 O 0.46966 0.15005 0.90168
 O183 O 0.46384 0.10869 0.85232
 O184 O 0.53728 0.14571 0.89639
 O185 O 0.53585 0.18611 0.86179
 O186 O 0.46236 0.14907 0.81770
 O187 O 0.46809 0.18934 0.86572
 O188 O 0.53051 0.14600 0.81374
 Cu189 Cu 0.49999 0.12366 0.87860
 Cu190 Cu 0.49898 0.17159 0.83617
 C191 C 0.54219 0.11912 0.82289
 C192 C 0.45910 0.17741 0.89295
 C193 C 0.45121 0.12216 0.82712
 C194 C 0.54929 0.17213 0.88635
 O195 O 0.46865 0.84793 0.11433
 O196 O 0.53549 0.88995 0.16244
 O197 O 0.53709 0.84473 0.11923
 O198 O 0.46642 0.89040 0.16125
 O199 O 0.46317 0.85251 0.19846
 O200 O 0.53386 0.80855 0.15826
 O201 O 0.53102 0.85391 0.20159
 O202 O 0.46658 0.81011 0.15176
 Cu203 Cu 0.50213 0.87202 0.13553
 Cu204 Cu 0.49826 0.82767 0.18131
 C205 C 0.45682 0.82147 0.12439
 C206 C 0.54450 0.87926 0.19020
 C207 C 0.54731 0.81859 0.13179
 C208 C 0.45291 0.87907 0.18732
 O209 O 0.84583 0.47338 0.88285
 O210 O 0.88525 0.53385 0.82881
 O211 O 0.85126 0.53576 0.88412
 O212 O 0.88196 0.47310 0.82866
 O213 O 0.83183 0.47543 0.80159
 O214 O 0.80131 0.53888 0.85700
 O215 O 0.83522 0.53782 0.80181
 O216 O 0.79572 0.47776 0.85603
 Cu217 Cu 0.87095 0.50367 0.85910
 Cu218 Cu 0.81105 0.50773 0.82626
 C219 C 0.81398 0.46544 0.87864
 C220 C 0.86697 0.54597 0.80603
 C221 C 0.82120 0.54820 0.87996
 C222 C 0.86237 0.46383 0.80557
 O223 O 0.15027 0.46140 0.12210
 O224 O 0.09347 0.52071 0.16183
 O225 O 0.14186 0.52252 0.11524
 O226 O 0.10213 0.46000 0.16625
 O227 O 0.14155 0.46901 0.20460
 O228 O 0.18357 0.52874 0.15201
 O229 O 0.13541 0.53027 0.19774
 O230 O 0.19024 0.46844 0.16040
 Cu231 Cu 0.11781 0.49071 0.13744
 Cu232 Cu 0.16667 0.50013 0.18252
 C233 C 0.17976 0.45446 0.13476
 C234 C 0.10478 0.53530 0.18680
 C235 C 0.17027 0.53550 0.12441
 C236 C 0.11502 0.45386 0.19415
 O237 O 0.83897 0.52763 0.10902
 O238 O 0.89127 0.47046 0.15744
 O239 O 0.84327 0.46528 0.11198
 O240 O 0.88897 0.53185 0.15089
 O241 O 0.84918 0.53216 0.19023
 O242 O 0.80247 0.46613 0.15032
 O243 O 0.84998 0.47033 0.19553
 O244 O 0.79841 0.52772 0.14772
 Cu245 Cu 0.86955 0.49850 0.12833
 Cu246 Cu 0.82099 0.49917 0.17484
 C247 C 0.80994 0.53771 0.12045
 C248 C 0.87936 0.46075 0.18475
 C249 C 0.81513 0.45431 0.12427
 C250 C 0.87688 0.54346 0.17718
 O251 O 0.15684 0.52990 0.88181
 O252 O 0.11728 0.46912 0.82911
 O253 O 0.15706 0.46736 0.88088
 O254 O 0.11995 0.53085 0.82893
 O255 O 0.16854 0.53081 0.79939
 O256 O 0.20365 0.46527 0.84862
 O257 O 0.16418 0.46970 0.79734
 O258 O 0.20588 0.52754 0.85295
 Cu259 Cu 0.13309 0.49931 0.85843
 Cu260 Cu 0.19055 0.49833 0.82173
 C261 C 0.18795 0.53921 0.87629
 C262 C 0.13353 0.45947 0.80386
 C263 C 0.18631 0.45503 0.87290
 C264 C 0.13802 0.54157 0.80517
 C265 C 0.22003 0.34863 0.03705
 C266 C 0.25601 0.34768 0.04447
 C267 C 0.26898 0.36603 0.07037
 C268 C 0.24664 0.38655 0.08750
 C269 C 0.21076 0.38848 0.07890
 C270 C 0.19757 0.36898 0.05406
 C271 C 0.18886 0.41034 0.09479
 C272 C 0.20234 0.43027 0.11925
 C273 C 0.23781 0.42749 0.12826
 C274 C 0.25980 0.40587 0.11246
 H275 H 0.29675 0.36539 0.07613
 H276 H 0.17009 0.36995 0.04733
 H277 H 0.16147 0.41207 0.08785
 H278 H 0.28720 0.40461 0.11941
 H279 H 0.20958 0.33429 0.01740
 H280 H 0.24880 0.44255 0.14707
 C281 C 0.78552 0.65969 0.03902
 C282 C 0.74876 0.65816 0.03813
 C283 C 0.73132 0.63317 0.05404
 C284 C 0.75057 0.60935 0.07012
 C285 C 0.78772 0.61033 0.06975
 C286 C 0.80492 0.63572 0.05428
 C287 C 0.80700 0.58622 0.08531
 C288 C 0.78964 0.56178 0.10227
 C289 C 0.75278 0.56131 0.10305
 C290 C 0.73338 0.58465 0.08674
 H291 H 0.70287 0.63227 0.05371
 H292 H 0.83333 0.63713 0.05418
 H293 H 0.83546 0.58699 0.08513
 H294 H 0.70496 0.58360 0.08743
 H295 H 0.79920 0.67935 0.02759
 H296 H 0.73898 0.54268 0.11611
 C297 C 0.78647 0.33283 0.93842
 C298 C 0.75783 0.34154 0.95808
 C299 C 0.74645 0.37325 0.95848
 C300 C 0.76364 0.39622 0.93941
 C301 C 0.79318 0.38750 0.92034
 C302 C 0.80439 0.35573 0.92005
 C303 C 0.81046 0.41058 0.90136
 C304 C 0.79767 0.44182 0.90028
 C305 C 0.76805 0.45017 0.91878
 C306 C 0.75145 0.42766 0.93862
 H307 H 0.72394 0.37980 0.97329
 H308 H 0.82672 0.34856 0.90536
 H309 H 0.83304 0.40408 0.88661
 H310 H 0.72875 0.43469 0.95290
 H311 H 0.79525 0.30835 0.93776
 H312 H 0.75791 0.47423 0.91796
 C313 C 0.29361 0.60379 0.96953
 C314 C 0.27538 0.63258 0.97321
 C315 C 0.24380 0.63736 0.95629
 C316 C 0.23002 0.61315 0.93651
 C317 C 0.24894 0.58444 0.93238
 C318 C 0.28072 0.58004 0.94902
 C319 C 0.23556 0.56053 0.91196
 C320 C 0.20283 0.56445 0.89684
 C321 C 0.18375 0.59259 0.90180
 C322 C 0.19746 0.61696 0.92107
 H323 H 0.22970 0.65956 0.95921
 H324 H 0.29546 0.55816 0.94635
 H325 H 0.25007 0.53860 0.90850
 H326 H 0.18245 0.63864 0.92416
 H327 H 0.31815 0.59994 0.98229
 H328 H 0.15841 0.59587 0.89029
 C329 C 0.05732 0.23851 0.33229
 C330 C 0.02924 0.25590 0.34572
 C331 C 0.02381 0.25513 0.37973
 C332 C 0.04563 0.23675 0.39993
 C333 C 0.07433 0.22003 0.38620
 C334 C 0.07983 0.22097 0.35234
 C335 C 0.09710 0.20282 0.40662
 C336 C 0.09073 0.20132 0.44035
 C337 C 0.06157 0.21703 0.45368
 C338 C 0.03937 0.23495 0.43368
 H339 H 0.00280 0.26901 0.39050
 H340 H 0.10150 0.20812 0.34136
 H341 H 0.11955 0.19044 0.39638
 H342 H 0.01735 0.24737 0.44458
 H343 H 0.06197 0.23867 0.30616
 H344 H 0.05648 0.21600 0.47974
 C345 C 0.07376 0.70987 0.61868
 C346 C 0.04529 0.72305 0.63583
 C347 C 0.03716 0.75545 0.63147
 C348 C 0.05584 0.77381 0.60852
 C349 C 0.08396 0.75996 0.59099
 C350 C 0.09305 0.72817 0.59663
 C351 C 0.10224 0.77789 0.56764
 C352 C 0.09262 0.80950 0.56093
 C353 C 0.06458 0.82313 0.57840
 C354 C 0.04646 0.80548 0.60213
 H355 H 0.01547 0.76587 0.64490
 H356 H 0.11455 0.71723 0.58339
 H357 H 0.12369 0.76695 0.55430
 H358 H 0.02488 0.81648 0.61519
 H359 H 0.08044 0.68501 0.62169
 H360 H 0.05670 0.84746 0.57378
 C361 C 0.92548 0.75410 0.33652
 C362 C 0.95378 0.73682 0.34968
 C363 C 0.96089 0.73906 0.38326
 C364 C 0.94094 0.75927 0.40317
 C365 C 0.91198 0.77593 0.38983
 C366 C 0.90451 0.77318 0.35646
 C367 C 0.89106 0.79503 0.41013
 C368 C 0.89979 0.79866 0.44314
 C369 C 0.92937 0.78318 0.45588
 C370 C 0.94951 0.76317 0.43619
 H371 H 0.98196 0.72516 0.39388
 H372 H 0.88263 0.78594 0.34576
 H373 H 0.86842 0.80739 0.40028
 H374 H 0.97187 0.75096 0.44670
 H375 H 0.91949 0.75262 0.31069
 H376 H 0.93648 0.78613 0.48129
 C377 C 0.96730 0.28238 0.60029
 C378 C 0.95501 0.28408 0.63268
 C379 C 0.92369 0.26842 0.64118
 C380 C 0.90584 0.24991 0.61805
 C381 C 0.91974 0.24674 0.58611
 C382 C 0.95017 0.26344 0.57735
 C383 C 0.90293 0.22696 0.56348
 C384 C 0.87179 0.21121 0.57202
 C385 C 0.85737 0.21533 0.60328
 C386 C 0.87454 0.23423 0.62633
 H387 H 0.91377 0.27005 0.66599
 H388 H 0.96083 0.26172 0.55283
 H389 H 0.91369 0.22413 0.53908
 H390 H 0.86335 0.23659 0.65059
 H391 H 0.99085 0.29499 0.59304
 H392 H 0.83321 0.20341 0.61000
 C393 C 0.32057 0.06966 0.22607
 C394 C 0.33319 0.04551 0.24673
 C395 C 0.36959 0.04043 0.24910
 C396 C 0.39301 0.05833 0.23008
 C397 C 0.38006 0.08275 0.20953
 C398 C 0.34381 0.08825 0.20776
 C399 C 0.40362 0.10132 0.19128
 C400 C 0.43974 0.09516 0.19277
 C401 C 0.45239 0.07043 0.21248
 C402 C 0.42920 0.05224 0.23125
 H403 H 0.37958 0.02229 0.26551
 H404 H 0.33343 0.10680 0.19210
 H405 H 0.39400 0.12050 0.17596
 H406 H 0.43954 0.03349 0.24669
 H407 H 0.29263 0.07402 0.22404
 H408 H 0.48032 0.06569 0.21386
 C409 C 0.66368 0.02610 0.79270
 C410 C 0.66453 0.03098 0.75873
 C411 C 0.64178 0.05336 0.74454
 C412 C 0.61768 0.07004 0.76384
 C413 C 0.61606 0.06413 0.79785
 C414 C 0.63938 0.04234 0.81210
 C415 C 0.59111 0.08010 0.81697
 C416 C 0.56826 0.10235 0.80264
 C417 C 0.57061 0.10855 0.76896
 C418 C 0.59495 0.09233 0.74965
 H419 H 0.64233 0.05720 0.71831
 H420 H 0.63870 0.03774 0.83817
 H421 H 0.58974 0.07548 0.84303
 H422 H 0.59597 0.09718 0.72364
 H423 H 0.68139 0.00924 0.80407
 H424 H 0.55322 0.12560 0.75747
 C425 C 0.34254 0.96639 0.76936
 C426 C 0.34696 0.95979 0.73595
 C427 C 0.36761 0.93368 0.72648
 C428 C 0.38543 0.91556 0.75000
 C429 C 0.38236 0.92348 0.78346
 C430 C 0.36028 0.94852 0.79293
 C431 C 0.40232 0.90695 0.80674
 C432 C 0.42549 0.88266 0.79704
 C433 C 0.42707 0.87402 0.76389
 C434 C 0.40724 0.89035 0.74057
 H435 H 0.37098 0.92838 0.70073
 H436 H 0.35735 0.95472 0.81849
 H437 H 0.40067 0.91374 0.83225
 H438 H 0.40973 0.88384 0.71505
 H439 H 0.32616 0.98604 0.77711
 H440 H 0.44469 0.85542 0.75576
 C441 C 0.68160 0.95348 0.21680
 C442 C 0.67397 0.96176 0.24922
 C443 C 0.64289 0.95086 0.26388
 C444 C 0.61903 0.93245 0.24602
 C445 C 0.62590 0.92566 0.21276
 C446 C 0.65739 0.93610 0.19844
 C447 C 0.60128 0.90838 0.19453
 C448 C 0.57064 0.89675 0.20950
 C449 C 0.56468 0.90251 0.24281
 C450 C 0.58846 0.92062 0.26086
 H451 H 0.63748 0.95663 0.28922
 H452 H 0.66339 0.93062 0.17317
 H453 H 0.60610 0.90358 0.16887
 H454 H 0.58296 0.92536 0.28639
 H455 H 0.70608 0.96083 0.20560
 H456 H 0.54112 0.89370 0.25463
 C457 C 0.32960 0.25341 0.93857
 C458 C 0.34450 0.26689 0.96697
 C459 C 0.37997 0.25992 0.97393
 C460 C 0.39899 0.23832 0.95476
 C461 C 0.38354 0.22522 0.92647
 C462 C 0.34895 0.23312 0.91848
 C463 C 0.40312 0.20474 0.90646
 C464 C 0.43746 0.19639 0.91514
 C465 C 0.45229 0.20851 0.94384
 C466 C 0.43334 0.22967 0.96336
 H467 H 0.39336 0.27179 0.99373
 H468 H 0.33661 0.22318 0.89696
 H469 H 0.39181 0.19538 0.88416
 H470 H 0.44552 0.23927 0.98513
 H471 H 0.30241 0.25774 0.93224
 H472 H 0.47898 0.20242 0.95051
 C473 C 0.67734 0.76133 0.93811
 C474 C 0.66557 0.74975 0.96869
 C475 C 0.63135 0.75809 0.97900
 C476 C 0.61011 0.77803 0.95989
 C477 C 0.62210 0.78837 0.92895
 C478 C 0.65582 0.78012 0.91843
 C479 C 0.59974 0.80597 0.90862
 C480 C 0.56592 0.81412 0.91926
 C481 C 0.55483 0.80538 0.95075
 C482 C 0.57663 0.78712 0.97083
 H483 H 0.62027 0.74795 1.00103
 H484 H 0.66558 0.78816 0.89491
 H485 H 0.60830 0.81279 0.88428
 H486 H 0.56712 0.77967 0.99463
 H487 H 0.70359 0.75615 0.92937
 H488 H 0.52862 0.81128 0.95912
 C489 C 0.38280 0.70226 0.06982
 C490 C 0.36091 0.71740 0.04664
 C491 C 0.36309 0.75080 0.04374
 C492 C 0.38634 0.76838 0.06331
 C493 C 0.40739 0.75264 0.08667
 C494 C 0.40559 0.71959 0.08954
 C495 C 0.42984 0.77018 0.10691
 C496 C 0.43213 0.80335 0.10373
 C497 C 0.41154 0.81883 0.08006
 C498 C 0.38859 0.80154 0.06023
 H499 H 0.34529 0.76356 0.02796
 H500 H 0.42184 0.70708 0.10708
 H501 H 0.44596 0.75795 0.12478
 H502 H 0.37274 0.81408 0.04240
 H503 H 0.38286 0.67664 0.07245
 H504 H 0.41295 0.84438 0.07710
 C505 C 0.67693 0.22104 0.03076
 C506 C 0.67056 0.25388 0.03027
 C507 C 0.64265 0.26635 0.04865
 C508 C 0.62051 0.24603 0.06654
 C509 C 0.62602 0.21278 0.06552
 C510 C 0.65445 0.20056 0.04771
 C511 C 0.60321 0.19238 0.08258
 C512 C 0.57565 0.20486 0.10149
 C513 C 0.57102 0.23795 0.10309
 C514 C 0.59301 0.25835 0.08549
 H515 H 0.63825 0.29181 0.04895
 H516 H 0.65953 0.17523 0.04717
 H517 H 0.60716 0.16688 0.08151
 H518 H 0.58853 0.28375 0.08672
 H519 H 0.69940 0.21127 0.01803
 H520 H 0.54982 0.24802 0.11741
 C521 C 0.23295 0.02807 0.64281
 C522 C 0.26807 0.03744 0.64789
 C523 C 0.27992 0.06585 0.63311
 C524 C 0.25796 0.08306 0.61187
 C525 C 0.22336 0.07242 0.60613
 C526 C 0.21094 0.04527 0.62215
 C527 C 0.20182 0.08880 0.58407
 C528 C 0.21437 0.11563 0.56719
 C529 C 0.24868 0.12635 0.57335
 C530 C 0.27027 0.11024 0.59555
 H531 H 0.30683 0.07355 0.63638
 H532 H 0.18429 0.03708 0.61842
 H533 H 0.17540 0.08025 0.57968
 H534 H 0.29672 0.11879 0.59961
 H535 H 0.22228 0.00739 0.65510
 H536 H 0.25900 0.14700 0.56076
 C537 C 0.78870 0.02662 0.35108
 C538 C 0.75377 0.03283 0.34156
 C539 C 0.73540 0.05742 0.35767
 C540 C 0.75088 0.07437 0.38332
 C541 C 0.78551 0.06719 0.39310
 C542 C 0.80428 0.04344 0.37664
 C543 C 0.80082 0.08399 0.41905
 C544 C 0.78195 0.10807 0.43524
 C545 C 0.74750 0.11500 0.42519
 C546 C 0.73208 0.09826 0.39955
 H547 H 0.70833 0.06251 0.35136
 H548 H 0.83109 0.03795 0.38344
 H549 H 0.82748 0.07851 0.42639
 H550 H 0.70545 0.10405 0.39239
 H551 H 0.80449 0.00927 0.33823
 H552 H 0.73235 0.13339 0.43720
 C553 C 0.78811 0.95497 0.67356
 C554 C 0.75215 0.96068 0.66938
 C555 C 0.73462 0.94800 0.64231
 C556 C 0.75310 0.93022 0.61901
 C557 C 0.78971 0.92568 0.62260
 C558 C 0.80695 0.93802 0.65003
 C559 C 0.80837 0.90862 0.59885
 C560 C 0.79075 0.89521 0.57213
 C561 C 0.75429 0.89909 0.56920
 C562 C 0.73563 0.91678 0.59228
 H563 H 0.70663 0.95195 0.63956
 H564 H 0.83486 0.93433 0.65342
 H565 H 0.83648 0.90532 0.60140
 H566 H 0.70757 0.91988 0.58929
 H567 H 0.80160 0.96380 0.69497
 H568 H 0.74035 0.88896 0.54866
 C569 C 0.20928 0.98486 0.34170
 C570 C 0.24453 0.97635 0.33551
 C571 C 0.25868 0.95017 0.35265
 C572 C 0.23895 0.93422 0.37660
 C573 C 0.20423 0.94400 0.38345
 C574 C 0.18951 0.96908 0.36555
 C575 C 0.18485 0.92850 0.40805
 C576 C 0.19969 0.90310 0.42570
 C577 C 0.23416 0.89342 0.41837
 C578 C 0.25364 0.90889 0.39417
 H579 H 0.28576 0.94315 0.34872
 H580 H 0.16270 0.97656 0.37002
 H581 H 0.15820 0.93605 0.41325
 H582 H 0.28024 0.90106 0.38924
 H583 H 0.19672 1.00363 0.32786
 H584 H 0.24626 0.87395 0.43156
 C585 C 0.02077 0.36329 0.75831
 C586 C 0.03258 0.36012 0.72591
 C587 C 0.06348 0.37574 0.71613
 C588 C 0.08163 0.39534 0.73806
 C589 C 0.06874 0.39938 0.77023
 C590 C 0.03852 0.38296 0.78021
 C591 C 0.08605 0.42002 0.79174
 C592 C 0.11633 0.43654 0.78166
 C593 C 0.12941 0.43169 0.74989
 C594 C 0.11214 0.41138 0.72825
 H595 H 0.07282 0.37326 0.69120
 H596 H 0.02844 0.38554 0.80486
 H597 H 0.07583 0.42334 0.81625
 H598 H 0.12247 0.40848 0.70373
 H599 H -0.00261 0.35095 0.76648
 H600 H 0.15264 0.44413 0.74151
 C601 C 0.06051 0.66210 0.24972
 C602 C 0.03010 0.65113 0.26611
 C603 C 0.02121 0.61870 0.26296
 C604 C 0.04080 0.59844 0.24273
 C605 C 0.07143 0.60988 0.22714
 C606 C 0.08105 0.64171 0.23083
 C607 C 0.09215 0.58919 0.20842
 C608 C 0.08182 0.55755 0.20413
 C609 C 0.05061 0.54660 0.21847
 C610 C 0.03044 0.56680 0.23804
 H611 H -0.00022 0.60868 0.27697
 H612 H 0.10427 0.65096 0.21877
 H613 H 0.11627 0.59758 0.19722
 H614 H 0.00682 0.55768 0.24953
 H615 H 0.06817 0.68685 0.25076
 H616 H 0.04254 0.52210 0.21544
 C617 C 0.91764 0.33142 0.24705
 C618 C 0.94654 0.34193 0.26537
 C619 C 0.95530 0.37442 0.26484
 C620 C 0.93693 0.39573 0.24472
 C621 C 0.90793 0.38486 0.22634
 C622 C 0.89831 0.35273 0.22794
 C623 C 0.88918 0.40632 0.20663
 C624 C 0.89976 0.43817 0.20439
 C625 C 0.92899 0.44866 0.22206
 C626 C 0.94730 0.42765 0.24236
 H627 H 0.97687 0.38301 0.27959
 H628 H 0.87621 0.34398 0.21397
 H629 H 0.86656 0.39830 0.19287
 H630 H 0.96964 0.43630 0.25606
 H631 H 0.91037 0.30655 0.24712
 H632 H 0.93721 0.47326 0.22059
 C633 C 0.98264 0.60387 0.71887
 C634 C 0.96766 0.63430 0.71453
 C635 C 0.93340 0.63955 0.72674
 C636 C 0.91599 0.61597 0.74500
 C637 C 0.93293 0.58671 0.75131
 C638 C 0.96589 0.58068 0.73759
 C639 C 0.91665 0.56393 0.77126
 C640 C 0.88312 0.56959 0.78419
 C641 C 0.86566 0.59805 0.77670
 C642 C 0.88216 0.62129 0.75757
 H643 H 0.92085 0.66248 0.72359
 H644 H 0.97873 0.55795 0.74125
 H645 H 0.92992 0.54170 0.77662
 H646 H 0.86859 0.64345 0.75279
 H647 H 1.00741 0.59771 0.70754
 H648 H 0.83970 0.60266 0.78649
 C649 C 0.71443 0.63422 0.95169
 C650 C 0.73879 0.65472 0.96634
 C651 C 0.77483 0.64988 0.96110
 C652 C 0.78647 0.62433 0.94189
 C653 C 0.76169 0.60409 0.92684
 C654 C 0.72574 0.60919 0.93199
 C655 C 0.77322 0.57927 0.90667
 C656 C 0.80926 0.57389 0.90186
 C657 C 0.83373 0.59354 0.91762
 C658 C 0.82244 0.61874 0.93724
 H659 H 0.79367 0.66622 0.97147
 H660 H 0.70639 0.59387 0.92075
 H661 H 0.75416 0.56401 0.89488
 H662 H 0.84181 0.63387 0.94871
 H663 H 0.68653 0.63783 0.95538
 H664 H 0.86164 0.58982 0.91420
 C665 C 0.26452 0.38793 0.98514
 C666 C 0.26417 0.35678 0.97230
 C667 C 0.24806 0.35193 0.94167
 C668 C 0.23183 0.37719 0.92501
 C669 C 0.23139 0.40788 0.93903
 C670 C 0.24788 0.41296 0.96903
 C671 C 0.21525 0.43315 0.92240
 C672 C 0.20036 0.42820 0.89158
 C673 C 0.20103 0.39784 0.87759
 C674 C 0.21629 0.37237 0.89435
 H675 H 0.24717 0.32835 0.93110
 H676 H 0.24856 0.43647 0.97976
 H677 H 0.21517 0.45681 0.93287
 H678 H 0.21645 0.34908 0.88312
 H679 H 0.27874 0.39340 1.00728
 H680 H 0.18980 0.39391 0.85363
 C681 C 0.29597 0.61344 0.07253
 C682 C 0.27882 0.62886 0.04634
 C683 C 0.24321 0.62145 0.04049
 C684 C 0.22514 0.59987 0.06061
 C685 C 0.24269 0.58538 0.08711
 C686 C 0.27816 0.59199 0.09258
 C687 C 0.22443 0.56471 0.10794
 C688 C 0.18878 0.55798 0.10258
 C689 C 0.17160 0.57208 0.07585
 C690 C 0.18958 0.59301 0.05514
 H691 H 0.22872 0.63391 0.02168
 H692 H 0.29212 0.58075 0.11257
 H693 H 0.23813 0.55366 0.12822
 H694 H 0.17568 0.60385 0.03489
 H695 H 0.32353 0.61756 0.07738
 H696 H 0.14418 0.56712 0.07112
 C697 C 0.79291 0.34768 0.02249
 C698 C 0.75820 0.33955 0.03120
 C699 C 0.74312 0.35438 0.05880
 C700 C 0.76125 0.37817 0.07576
 C701 C 0.79533 0.38702 0.06562
 C702 C 0.81114 0.37126 0.03933
 C703 C 0.81294 0.41165 0.08177
 C704 C 0.79691 0.42767 0.10800
 C705 C 0.76322 0.41828 0.11827
 C706 C 0.74553 0.39379 0.10226
 H707 H 0.71641 0.34886 0.06605
 H708 H 0.83758 0.37724 0.03167
 H709 H 0.83902 0.41846 0.07372
 H710 H 0.71940 0.38729 0.11041
 H711 H 0.80644 0.33536 0.00302
 H712 H 0.75029 0.43017 0.13843
 C713 C 0.97899 0.71883 0.59786
 C714 C 0.96663 0.71602 0.63027
 C715 C 0.93416 0.73027 0.63834
 C716 C 0.91635 0.74930 0.61553
 C717 C 0.93094 0.75400 0.58411
 C718 C 0.96176 0.73810 0.57526
 C719 C 0.91457 0.77468 0.56206
 C720 C 0.88328 0.79004 0.57064
 C721 C 0.86798 0.78440 0.60128
 C722 C 0.88463 0.76437 0.62380
 H723 H 0.92369 0.72814 0.66292
 H724 H 0.97265 0.74066 0.55089
 H725 H 0.92609 0.77887 0.53821
 H726 H 0.87290 0.76088 0.64769
 H727 H 1.00218 0.70615 0.58984
 H728 H 0.84368 0.79611 0.60802
 C729 C 0.95611 0.22247 0.34923
 C730 C 0.94969 0.25534 0.34824
 C731 C 0.92445 0.26849 0.36936
 C732 C 0.90656 0.24927 0.39190
 C733 C 0.91420 0.21643 0.39362
 C734 C 0.93878 0.20321 0.37198
 C735 C 0.89721 0.19743 0.41702
 C736 C 0.87219 0.21073 0.43831
 C737 C 0.86416 0.24322 0.43582
 C738 C 0.88140 0.26240 0.41297
 H739 H 0.91930 0.29384 0.36867
 H740 H 0.94470 0.17803 0.37273
 H741 H 0.90331 0.17230 0.41854
 H742 H 0.87515 0.28750 0.41188
 H743 H 0.97497 0.21181 0.33271
 H744 H 0.84503 0.25396 0.45203
 C745 C 0.01760 0.24207 0.64227
 C746 C 0.03137 0.27291 0.64633
 C747 C 0.06454 0.27983 0.63263
 C748 C 0.08187 0.25756 0.61283
 C749 C 0.06666 0.22743 0.60749
 C750 C 0.03497 0.21966 0.62298
 C751 C 0.08292 0.20589 0.58610
 C752 C 0.11402 0.21424 0.56954
 C753 C 0.12939 0.24399 0.57575
 C754 C 0.11353 0.26540 0.59726
 H755 H 0.07577 0.30334 0.63530
 H756 H 0.02322 0.19645 0.61965
 H757 H 0.07078 0.18302 0.58166
 H758 H 0.12561 0.28839 0.60112
 H759 H -0.00681 0.23525 0.65394
 H760 H 0.15339 0.25102 0.56348
 C761 C 0.05933 0.71784 0.36821
 C762 C 0.03387 0.73396 0.34965
 C763 C 0.02957 0.76692 0.35382
 C764 C 0.04959 0.78323 0.37726
 C765 C 0.07510 0.76661 0.39569
 C766 C 0.07993 0.73401 0.39079
 C767 C 0.09511 0.78268 0.41909
 C768 C 0.08957 0.81514 0.42506
 C769 C 0.06389 0.83149 0.40695
 C770 C 0.04426 0.81573 0.38305
 H771 H 0.01020 0.77958 0.33943
 H772 H 0.09924 0.72090 0.40482
 H773 H 0.11455 0.76972 0.43314
 H774 H 0.02470 0.82887 0.36936
 H775 H 0.06290 0.69243 0.36559
 H776 H 0.05915 0.85653 0.41110
 C777 C 0.67858 0.93282 0.77649
 C778 C 0.66514 0.95899 0.75908
 C779 C 0.62894 0.96556 0.76089
 C780 C 0.60676 0.94697 0.78057
 C781 C 0.62046 0.92020 0.79717
 C782 C 0.65642 0.91341 0.79506
 C783 C 0.59785 0.90043 0.81516
 C784 C 0.56204 0.90781 0.81770
 C785 C 0.54887 0.93520 0.80247
 C786 C 0.57100 0.95449 0.78369
 H787 H 0.61794 0.98498 0.74681
 H788 H 0.66742 0.89313 0.80781
 H789 H 0.60796 0.87924 0.82702
 H790 H 0.56012 0.97509 0.77140
 H791 H 0.70634 0.92727 0.77554
 H792 H 0.52119 0.94095 0.80409
 C793 C 0.33859 0.98140 0.21537
 C794 C 0.33282 0.97383 0.24864
 C795 C 0.35067 0.94729 0.26172
 C796 C 0.37499 0.93013 0.24289
 C797 C 0.38175 0.93908 0.21017
 C798 C 0.36299 0.96450 0.19653
 C799 C 0.40718 0.92249 0.19178
 C800 C 0.42558 0.89679 0.20575
 C801 C 0.41801 0.88792 0.23821
 C802 C 0.39316 0.90445 0.25659
 H803 H 0.34723 0.94087 0.28721
 H804 H 0.36719 0.97138 0.17128
 H805 H 0.41256 0.92949 0.16675
 H806 H 0.38830 0.89723 0.28165
 H807 H 0.32399 1.00032 0.20365
 H808 H 0.43176 0.86833 0.24971
 C809 C 0.67473 0.03078 0.21501
 C810 C 0.67144 0.03270 0.24915
 C811 C 0.64648 0.05348 0.26269
 C812 C 0.62453 0.07159 0.24238
 C813 C 0.62707 0.06846 0.20804
 C814 C 0.65237 0.04808 0.19461
 C815 C 0.60437 0.08582 0.18774
 C816 C 0.57957 0.10678 0.20128
 C817 C 0.57799 0.11042 0.23541
 C818 C 0.60008 0.09281 0.25579
 H819 H 0.64422 0.05551 0.28904
 H820 H 0.65518 0.04583 0.16835
 H821 H 0.60596 0.08299 0.16143
 H822 H 0.59791 0.09566 0.28204
 H823 H 0.69504 0.01631 0.20409
 H824 H 0.55894 0.12627 0.24642
 C825 C 0.39268 0.01696 0.73814
 C826 C 0.35937 0.03039 0.73176
 C827 C 0.35158 0.06029 0.74579
 C828 C 0.37573 0.07555 0.76641
 C829 C 0.40801 0.06066 0.77381
 C830 C 0.41630 0.03151 0.75938
 C831 C 0.43188 0.07556 0.79487
 C832 C 0.42451 0.10575 0.80758
 C833 C 0.39280 0.12082 0.79962
 C834 C 0.36827 0.10559 0.77964
 H835 H 0.32628 0.07138 0.74174
 H836 H 0.44138 0.02021 0.76402
 H837 H 0.45677 0.06423 0.80045
 H838 H 0.34377 0.11751 0.77408
 H839 H 0.40111 -0.00459 0.72609
 H840 H 0.38699 0.14428 0.80904
 C841 C 0.67055 0.78414 0.03809
 C842 C 0.66908 0.75108 0.04306
 C843 C 0.64599 0.73881 0.06670
 C844 C 0.62302 0.75890 0.08369
 C845 C 0.62305 0.79194 0.07720
 C846 C 0.64747 0.80439 0.05480
 C847 C 0.59834 0.81169 0.09290
 C848 C 0.57420 0.79875 0.11540
 C849 C 0.57534 0.76600 0.12222
 C850 C 0.59932 0.74626 0.10641
 H851 H 0.64479 0.71335 0.07074
 H852 H 0.64824 0.82966 0.04973
 H853 H 0.59791 0.83695 0.08767
 H854 H 0.59905 0.72102 0.11171
 H855 H 0.68850 0.79406 0.02022
 H856 H 0.55704 0.75539 0.13936
 C857 C 0.37338 0.28633 0.06347
 C858 C 0.35160 0.26960 0.04182
 C859 C 0.35481 0.23634 0.03956
 C860 C 0.38080 0.22032 0.05765
 C861 C 0.40234 0.23761 0.07940
 C862 C 0.39824 0.27050 0.08229
 C863 C 0.42799 0.22190 0.09775
 C864 C 0.43336 0.18912 0.09419
 C865 C 0.41252 0.17205 0.07202
 C866 C 0.38615 0.18748 0.05414
 H867 H 0.33791 0.22328 0.02309
 H868 H 0.41467 0.28407 0.09873
 H869 H 0.44430 0.23536 0.11442
 H870 H 0.37017 0.17382 0.03740
 H871 H 0.37133 0.31193 0.06553
 H872 H 0.41629 0.14673 0.06891
 C873 C 0.63915 0.28044 0.94386
 C874 C 0.66525 0.26128 0.95795
 C875 C 0.66407 0.22825 0.95366
 C876 C 0.63598 0.21429 0.93686
 C877 C 0.60978 0.23378 0.92271
 C878 C 0.61176 0.26684 0.92614
 C879 C 0.58188 0.21987 0.90563
 C880 C 0.57915 0.18669 0.90349
 C881 C 0.60491 0.16748 0.91810
 C882 C 0.63338 0.18117 0.93429
 H883 H 0.68486 0.21349 0.96340
 H884 H 0.59190 0.28214 0.91552
 H885 H 0.56183 0.23479 0.89471
 H886 H 0.65309 0.16587 0.94514
 H887 H 0.63993 0.30601 0.94678
 H888 H 0.60325 0.14183 0.91659
 C889 C 0.33053 0.75732 0.96598
 C890 C 0.34664 0.72856 0.97479
 C891 C 0.38002 0.72117 0.96250
 C892 C 0.39765 0.74269 0.94205
 C893 C 0.38220 0.77248 0.93475
 C894 C 0.34853 0.77949 0.94673
 C895 C 0.40069 0.79463 0.91559
 C896 C 0.43371 0.78678 0.90258
 C897 C 0.44811 0.75664 0.90877
 C898 C 0.43044 0.73491 0.92869
 H899 H 0.39192 0.69849 0.96855
 H900 H 0.33604 0.80196 0.94101
 H901 H 0.38945 0.81783 0.91070
 H902 H 0.44251 0.71211 0.93380
 H903 H 0.30439 0.76288 0.97476
 H904 H 0.47373 0.75037 0.89918
 C905 C 0.78833 0.94242 0.32770
 C906 C 0.76027 0.96179 0.33761
 C907 C 0.74986 0.96191 0.37054
 C908 C 0.76763 0.94317 0.39355
 C909 C 0.79622 0.92398 0.38350
 C910 C 0.80636 0.92380 0.35051
 C911 C 0.81369 0.90490 0.40654
 C912 C 0.80245 0.90452 0.43919
 C913 C 0.77415 0.92356 0.44898
 C914 C 0.75698 0.94297 0.42638
 H915 H 0.72782 0.97650 0.37811
 H916 H 0.82806 0.90914 0.34234
 H917 H 0.83535 0.88982 0.39904
 H918 H 0.73512 0.95748 0.43445
 H919 H 0.79644 0.94198 0.30230
 H920 H 0.76520 0.92318 0.47415
 C921 C 0.28005 0.97738 0.60453
 C922 C 0.27358 0.96769 0.63692
 C923 C 0.25059 0.94221 0.64281
 C924 C 0.23336 0.92726 0.61673
 C925 C 0.23916 0.93796 0.58432
 C926 C 0.26277 0.96286 0.57849
 C927 C 0.22118 0.92361 0.55833
 C928 C 0.19793 0.89849 0.56439
 C929 C 0.19270 0.88759 0.59643
 C930 C 0.21017 0.90197 0.62249
 H931 H 0.24558 0.93454 0.66771
 H932 H 0.26778 0.97117 0.55382
 H933 H 0.22522 0.93186 0.53346
 H934 H 0.20548 0.89340 0.64712
 H935 H 0.29821 0.99658 0.59947
 H936 H 0.17477 0.86815 0.60125
 C937 C 0.22360 0.07299 0.32325
 C938 C 0.24509 0.04801 0.33434
 C939 C 0.24902 0.04324 0.36820
 C940 C 0.23071 0.06229 0.39062
 C941 C 0.20945 0.08756 0.37919
 C942 C 0.20614 0.09271 0.34545
 C943 C 0.19210 0.10730 0.40173
 C944 C 0.19507 0.10145 0.43539
 C945 C 0.21539 0.07586 0.44652
 C946 C 0.23333 0.05653 0.42432
 H947 H 0.26612 0.02451 0.37705
 H948 H 0.18989 0.11187 0.33623
 H949 H 0.17636 0.12714 0.39321
 H950 H 0.24930 0.03716 0.43349
 H951 H 0.22027 0.07715 0.29730
 H952 H 0.21799 0.07130 0.47249
 C953 C 0.78611 0.03199 0.66545
 C954 C 0.74932 0.03125 0.66723
 C955 C 0.72955 0.04939 0.64506
 C956 C 0.74629 0.06778 0.62103
 C957 C 0.78335 0.06771 0.61877
 C958 C 0.80302 0.04973 0.64114
 C959 C 0.80007 0.08598 0.59453
 C960 C 0.78022 0.10493 0.57305
 C961 C 0.74343 0.10508 0.57582
 C962 C 0.72660 0.08647 0.59940
 H963 H 0.70112 0.04921 0.64668
 H964 H 0.83145 0.04976 0.64012
 H965 H 0.82848 0.08595 0.59281
 H966 H 0.69819 0.08688 0.60087
 H967 H 0.80178 0.01924 0.68316
 H968 H 0.72760 0.11940 0.55946
 C969 C 0.92667 0.62951 0.28992
 C970 C 0.95003 0.64838 0.27166
 C971 C 0.95205 0.64438 0.23762
 C972 C 0.93269 0.62025 0.22236
 C973 C 0.90965 0.60108 0.24110
 C974 C 0.90644 0.60625 0.27477
 C975 C 0.89079 0.57657 0.22606
 C976 C 0.89540 0.57028 0.19265
 C977 C 0.91843 0.58935 0.17421
 C978 C 0.93667 0.61432 0.18887
 H979 H 0.96975 0.65911 0.22338
 H980 H 0.88898 0.59177 0.28951
 H981 H 0.87333 0.56182 0.24054
 H982 H 0.95432 0.62863 0.17414
 H983 H 0.92472 0.63230 0.31619
 H984 H 0.92227 0.58501 0.14836
 C985 C 0.96985 0.40345 0.71179
 C986 C 0.95625 0.37241 0.71245
 C987 C 0.92426 0.36666 0.72870
 C988 C 0.90719 0.39122 0.74569
 C989 C 0.92256 0.42179 0.74674
 C990 C 0.95350 0.42780 0.72921
 C991 C 0.90708 0.44567 0.76577
 C992 C 0.87597 0.43966 0.78308
 C993 C 0.85980 0.40985 0.78072
 C994 C 0.87549 0.38565 0.76235
 H995 H 0.91328 0.34290 0.72895
 H996 H 0.96525 0.45124 0.72926
 H997 H 0.91942 0.46883 0.76753
 H998 H 0.86318 0.36245 0.76164
 H999 H 0.99373 0.40869 0.69841
 H1000 H 0.83585 0.40497 0.79415
 C1001 C 0.03356 0.64514 0.75926
 C1002 C 0.04441 0.64584 0.72639
 C1003 C 0.07423 0.62850 0.71690
 C1004 C 0.09158 0.60890 0.73938
 C1005 C 0.07911 0.60667 0.77190
 C1006 C 0.05059 0.62546 0.78179
 C1007 C 0.09483 0.58511 0.79366
 C1008 C 0.12310 0.56607 0.78337
 C1009 C 0.13620 0.56954 0.75141
 C1010 C 0.12047 0.59064 0.72955
 H1011 H 0.08281 0.62906 0.69161
 H1012 H 0.04094 0.62438 0.80671
 H1013 H 0.08479 0.58284 0.81838
 H1014 H 0.13046 0.59221 0.70477
 H1015 H 0.01098 0.65882 0.76710
 H1016 H 0.15796 0.55514 0.74294
 C1017 C 0.01794 0.34041 0.22692
 C1018 C 0.02504 0.33925 0.26056
 C1019 C 0.05014 0.35982 0.27393
 C1020 C 0.06699 0.38234 0.25417
 C1021 C 0.05880 0.38418 0.22052
 C1022 C 0.03458 0.36285 0.20704
 C1023 C 0.07470 0.40752 0.20102
 C1024 C 0.09889 0.42892 0.21464
 C1025 C 0.10733 0.42647 0.24798
 C1026 C 0.09142 0.40343 0.26761
 H1027 H 0.05561 0.35895 0.29993
 H1028 H 0.02816 0.36380 0.18126
 H1029 H 0.06820 0.40901 0.17527
 H1030 H 0.09801 0.40228 0.29335
 H1031 H -0.00113 0.32443 0.21626
 H1032 H 0.12589 0.44268 0.25902
   
