data_POSCAR
  _audit_creation_date              2014-09-24
  _audit_creation_method            'ToBaCCo'
  _symmetry_space_group_name_H-M    'P1'
  _symmetry_Int_Tables_number       1
  _symmetry_cell_setting            triclinic
  loop_
  _symmetry_equiv_pos_as_xyz
 x,y,z
_cell_length_a 43.8740
_cell_length_b 43.1176
_cell_length_c 61.2680
_cell_angle_alpha 89.866800
_cell_angle_beta 90.083000
_cell_angle_gamma 119.627400
loop_
  _atom_site_label
  _atom_site_type_symbol
  _atom_site_fract_x
  _atom_site_fract_y
  _atom_site_fract_z
C1 C -0.01743 0.47822 1.25190
 C2 C 0.01818 0.49356 1.25187
 C3 C 0.03866 0.50309 1.27246
 C4 C 0.03863 0.50236 1.23126
 C5 C -0.03767 0.47233 1.23138
 C6 C -0.03804 0.46641 1.27247
 C7 C 0.03680 0.52657 1.28740
 C8 C 0.05686 0.53609 1.30649
 C9 C 0.07957 0.52232 1.31134
 C10 C 0.08089 0.49850 1.29589
 C11 C 0.06101 0.48940 1.27676
 C12 C 0.06634 0.53712 1.22784
 C13 C 0.08542 0.54607 1.20842
 C14 C 0.07727 0.52038 1.19202
 C15 C 0.04996 0.48533 1.19568
 C16 C 0.03095 0.47635 1.21518
 C17 C -0.06528 0.43815 1.22648
 C18 C -0.08424 0.43201 1.20713
 C19 C -0.07607 0.45999 1.19230
 C20 C -0.04886 0.49442 1.19747
 C21 C -0.02996 0.50057 1.21690
 C22 C -0.03442 0.44321 1.28702
 C23 C -0.05417 0.43217 1.30622
 C24 C -0.07826 0.44375 1.31109
 C25 C -0.08221 0.46648 1.29628
 C26 C -0.06234 0.47764 1.27717
 H27 H 0.01971 0.53756 1.28428
 H28 H 0.05282 0.55301 1.31771
 H29 H 0.09869 0.48811 1.29756
 H30 H 0.06317 0.47161 1.26520
 H31 H 0.07292 0.55748 1.24014
 H32 H 0.10677 0.57310 1.20631
 H33 H 0.01009 0.44919 1.21767
 H34 H -0.07190 0.41611 1.23756
 H35 H -0.10550 0.40535 1.20385
 H36 H -0.04182 0.51649 1.18635
 H37 H -0.00918 0.52731 1.22058
 H38 H -0.01635 0.43360 1.28349
 H39 H -0.05035 0.41484 1.31734
 H40 H -0.10103 0.47530 1.29931
 H41 H -0.06583 0.49520 1.26604
 H42 H 0.04293 0.46498 1.18333
 C43 C 0.52458 0.50355 1.24813
 C44 C 0.50811 0.52332 1.24778
 C45 C 0.49883 0.53531 1.26823
 C46 C 0.49785 0.53337 1.22696
 C47 C 0.53688 0.49446 1.22780
 C48 C 0.53114 0.48995 1.26889
 C49 C 0.46424 0.52783 1.27159
 C50 C 0.45493 0.53831 1.29086
 C51 C 0.48008 0.55662 1.30717
 C52 C 0.51492 0.56472 1.30356
 C53 C 0.52424 0.55437 1.28422
 C54 C 0.47640 0.50725 1.21179
 C55 C 0.46632 0.51700 1.19247
 C56 C 0.47736 0.55303 1.18802
 C57 C 0.49867 0.57907 1.20330
 C58 C 0.50866 0.56930 1.22263
 C59 C 0.55952 0.52119 1.21329
 C60 C 0.57125 0.51225 1.19438
 C61 C 0.56072 0.47641 1.18971
 C62 C 0.53828 0.44977 1.20438
 C63 C 0.52662 0.45874 1.22328
 C64 C 0.56533 0.49794 1.27429
 C65 C 0.57197 0.48574 1.29388
 C66 C 0.54447 0.46502 1.30838
 C67 C 0.51011 0.45651 1.30275
 C68 C 0.50349 0.46876 1.28315
 H69 H 0.44430 0.51348 1.25937
 H70 H 0.42805 0.53231 1.29290
 H71 H 0.53488 0.57858 1.31583
 H72 H 0.55125 0.56103 1.28178
 H73 H 0.46730 0.47931 1.21500
 H74 H 0.45006 0.49637 1.18095
 H75 H 0.52495 0.58979 1.23423
 H76 H 0.56821 0.54898 1.21666
 H77 H 0.58834 0.53334 1.18333
 H78 H 0.53018 0.42201 1.20143
 H79 H 0.50942 0.43775 1.23437
 H80 H 0.58694 0.51398 1.26341
 H81 H 0.59861 0.49220 1.29758
 H82 H 0.48842 0.44076 1.31363
 H83 H 0.47683 0.46184 1.27910
 H84 H 0.50712 0.60697 1.20049
 C85 C 0.49989 1.02149 1.25046
 C86 C 0.47922 0.98532 1.25075
 C87 C 0.46946 0.96479 1.27149
 C88 C 0.46569 0.96422 1.23037
 C89 C 0.51111 1.04198 1.22971
 C90 C 0.51234 1.04262 1.27089
 C91 C 0.49510 0.96596 1.28565
 C92 C 0.48545 0.94623 1.30504
 C93 C 0.44974 0.92469 1.31082
 C94 C 0.42427 0.92369 1.29621
 C95 C 0.43405 0.94325 1.27681
 C96 C 0.47222 0.93605 1.22632
 C97 C 0.46043 0.91631 1.20709
 C98 C 0.44173 0.92427 1.19150
 C99 C 0.43449 0.95202 1.19582
 C100 C 0.44619 0.97168 1.21515
 C101 C 0.50330 1.06931 1.22599
 C102 C 0.51312 1.08866 1.20652
 C103 C 0.53143 1.08145 1.19012
 C104 C 0.53984 1.05426 1.19434
 C105 C 0.52985 1.03489 1.21387
 C106 C 0.48874 1.04092 1.28687
 C107 C 0.50097 1.06105 1.30598
 C108 C 0.53728 1.08378 1.30961
 C109 C 0.56062 1.08553 1.29311
 C110 C 0.54827 1.06536 1.27407
 H111 H 0.52264 0.98227 1.28170
 H112 H 0.50632 0.94917 1.31574
 H113 H 0.39652 0.90664 1.29908
 H114 H 0.41387 0.94164 1.26589
 H115 H 0.48687 0.92961 1.23796
 H116 H 0.46577 0.89463 1.20450
 H117 H 0.44027 0.99287 1.21817
 H118 H 0.48934 1.07558 1.23820
 H119 H 0.50732 1.11018 1.20494
 H120 H 0.55291 1.04661 1.18232
 H121 H 0.53649 1.01410 1.21656
 H122 H 0.46079 1.02383 1.28458
 H123 H 0.48165 1.05748 1.31812
 H124 H 0.58855 1.10351 1.29423
 H125 H 0.56689 1.06748 1.26174
 H126 H 0.42029 0.95891 1.18412
 C127 C 1.02220 0.50192 0.74795
 C128 C 0.98646 0.48490 0.74820
 C129 C 0.96572 0.47761 0.72774
 C130 C 0.96623 0.47256 0.76891
 C131 C 1.04318 0.51248 0.76840
 C132 C 1.04221 0.51037 0.72718
 C133 C 0.97224 0.50511 0.71292
 C134 C 0.95252 0.49783 0.69377
 C135 C 0.92556 0.46298 0.68919
 C136 C 0.91873 0.43566 0.70428
 C137 C 0.93857 0.44293 0.72335
 C138 C 0.94081 0.48224 0.77372
 C139 C 0.92153 0.47083 0.79306
 C140 C 0.92719 0.44936 0.80801
 C141 C 0.95235 0.43927 0.80299
 C142 C 0.97151 0.45055 0.78357
 C143 C 1.06805 0.50168 0.77199
 C144 C 1.08767 0.51087 0.79122
 C145 C 1.08319 0.53148 0.80752
 C146 C 1.05846 0.54284 0.80343
 C147 C 1.03888 0.53355 0.78413
 C148 C 1.03655 0.48341 0.71231
 C149 C 1.05588 0.49159 0.69296
 C150 C 1.08153 0.52712 0.68790
 C151 C 1.08696 0.55394 0.70318
 C152 C 1.06776 0.54558 0.72256
 H153 H 0.99259 0.53222 0.71620
 H154 H 0.95862 0.51944 0.68244
 H155 H 0.89772 0.40869 0.70149
 H156 H 0.93285 0.42140 0.73468
 H157 H 0.93604 0.49885 0.76252
 H158 H 0.90187 0.47849 0.79619
 H159 H 0.99050 0.44216 0.77998
 H160 H 1.07218 0.48585 0.75988
 H161 H 1.10723 0.50269 0.79269
 H162 H 1.05284 0.55773 0.81537
 H163 H 1.02008 0.54257 0.78155
 H164 H 1.01708 0.45596 0.71569
 H165 H 1.04952 0.46993 0.68172
 H166 H 1.10711 0.58140 0.70085
 H167 H 1.07283 0.56670 0.73402
 H168 H 0.95752 0.42295 0.81419
 C169 C 0.49130 0.51059 0.75307
 C170 C 0.50782 0.49088 0.75318
 C171 C 0.51827 0.48046 0.73265
 C172 C 0.51636 0.47868 0.77380
 C173 C 0.48312 0.52317 0.77360
 C174 C 0.48109 0.52118 0.73241
 C175 C 0.50596 0.44427 0.72829
 C176 C 0.51493 0.43391 0.70887
 C177 C 0.53669 0.45960 0.69351
 C178 C 0.54958 0.49593 0.69812
 C179 C 0.54053 0.50627 0.71755
 C180 C 0.49012 0.45798 0.78899
 C181 C 0.49864 0.44649 0.80825
 C182 C 0.53352 0.45536 0.81258
 C183 C 0.55962 0.47583 0.79722
 C184 C 0.55107 0.48722 0.77799
 C185 C 0.50966 0.54423 0.78852
 C186 C 0.50153 0.55614 0.80768
 C187 C 0.46674 0.54736 0.81218
 C188 C 0.44034 0.52658 0.79707
 C189 C 0.44849 0.51475 0.77793
 C190 C 0.49230 0.55728 0.72845
 C191 C 0.48371 0.56791 0.70894
 C192 C 0.46362 0.54261 0.69296
 C193 C 0.45173 0.50631 0.69717
 C194 C 0.46018 0.49567 0.71678
 H195 H 0.48901 0.42401 0.73985
 H196 H 0.50511 0.40579 0.70595
 H197 H 0.56625 0.51630 0.68655
 H198 H 0.55070 0.53438 0.72079
 H199 H 0.46307 0.45064 0.78590
 H200 H 0.47801 0.43091 0.81982
 H201 H 0.57162 0.50292 0.76637
 H202 H 0.53664 0.55150 0.78528
 H203 H 0.52239 0.57196 0.81906
 H204 H 0.41342 0.51991 0.79991
 H205 H 0.42773 0.49882 0.76650
 H206 H 0.50813 0.57734 0.74040
 H207 H 0.49262 0.59597 0.70644
 H208 H 0.43637 0.48616 0.68517
 H209 H 0.45066 0.46758 0.71969
 H210 H 0.58659 0.48256 0.79992
 C211 C 0.47229 -0.01976 0.74932
 C212 C 0.49057 0.01656 0.74910
 C213 C 0.49953 0.03723 0.72843
 C214 C 0.50227 0.03756 0.76961
 C215 C 0.46068 -0.04013 0.77008
 C216 C 0.46251 -0.04104 0.72889
 C217 C 0.53460 0.06221 0.72390
 C218 C 0.54349 0.08210 0.70463
 C219 C 0.51740 0.07764 0.68959
 C220 C 0.48220 0.05287 0.69428
 C221 C 0.47333 0.03289 0.71356
 C222 C 0.52358 0.03247 0.78464
 C223 C 0.53419 0.05229 0.80393
 C224 C 0.52383 0.07770 0.80847
 C225 C 0.50286 0.08302 0.79322
 C226 C 0.49233 0.06325 0.77394
 C227 C 0.43877 -0.03520 0.78455
 C228 C 0.42796 -0.05456 0.80404
 C229 C 0.43881 -0.07949 0.80961
 C230 C 0.46069 -0.08431 0.79468
 C231 C 0.47120 -0.06507 0.77516
 C232 C 0.42740 -0.06632 0.72506
 C233 C 0.41756 -0.08651 0.70595
 C234 C 0.44269 -0.08224 0.69004
 C235 C 0.47820 -0.05702 0.69435
 C236 C 0.48790 -0.03682 0.71352
 H237 H 0.55513 0.06615 0.73528
 H238 H 0.57075 0.10141 0.70164
 H239 H 0.46157 0.04874 0.68295
 H240 H 0.44604 0.01413 0.71694
 H241 H 0.53196 0.01313 0.78143
 H242 H 0.55018 0.04747 0.81542
 H243 H 0.47613 0.06775 0.76245
 H244 H 0.43014 -0.01620 0.78079
 H245 H 0.41219 -0.04868 0.81498
 H246 H 0.46875 -0.10398 0.79742
 H247 H 0.48775 -0.06957 0.76400
 H248 H 0.40744 -0.07037 0.73691
 H249 H 0.39021 -0.10642 0.70430
 H250 H 0.49870 -0.05154 0.68267
 H251 H 0.51529 -0.01771 0.71631
 H252 H 0.49496 0.10281 0.79609
 O253 O 0.37807 0.66707 0.97620
 O254 O 0.38129 0.72817 0.98283
 C255 C 0.35984 0.73389 0.97194
 O256 O 0.32741 0.71888 0.97633
 O257 O 0.26751 0.66128 0.98274
 C258 C 0.26247 0.63422 0.97164
 O259 O 0.27751 0.61630 0.97600
 O260 O 0.33405 0.61234 0.98291
 C261 C 0.36084 0.63403 0.97198
 O262 O 0.37916 0.65677 1.01970
 O263 O 0.37942 0.71653 1.02629
 C264 C 0.36342 0.73343 1.03070
 O265 O 0.33703 0.72963 1.01986
 O266 O 0.27862 0.67046 1.02627
 C267 C 0.26211 0.63738 1.03049
 O268 O 0.26597 0.61464 1.01943
 O269 O 0.32426 0.61409 1.02630
 C270 C 0.35675 0.63008 1.03064
 Cr271 Cr 0.37756 0.69122 1.00126
 Cr272 Cr 0.30356 0.69403 1.00129
 Cr273 Cr 0.30144 0.61629 1.00116
 O274 O 0.32753 0.66720 1.00124
 O275 O 0.62565 0.33420 0.97444
 O276 O 0.62349 0.27317 0.97960
 C277 C 0.64544 0.26878 0.96839
 O278 O 0.67785 0.28439 0.97282
 O279 O 0.73696 0.34206 0.98029
 C280 C 0.74204 0.37011 0.97027
 O281 O 0.72661 0.38730 0.97544
 O282 O 0.66886 0.38893 0.98228
 C283 C 0.64244 0.36752 0.97094
 O284 O 0.62326 0.34142 1.01807
 O285 O 0.62461 0.28219 1.02329
 C286 C 0.64116 0.26563 1.02720
 O287 O 0.66771 0.27046 1.01614
 O288 O 0.72549 0.32972 1.02360
 C289 C 0.74119 0.36234 1.02892
 O290 O 0.73668 0.38566 1.01891
 O291 O 0.67753 0.38436 1.02570
 C292 C 0.64493 0.36761 1.02960
 Cr293 Cr 0.62619 0.30870 0.99886
 Cr294 Cr 0.70104 0.30767 0.99825
 Cr295 Cr 0.70146 0.38459 1.00053
 O296 O 0.67626 0.33367 0.99921
 O297 O 0.67458 0.39124 0.52730
 O298 O 0.73090 0.38769 0.51940
 C299 C 0.73390 0.36353 0.52953
 O300 O 0.71616 0.33077 0.52463
 O301 O 0.65584 0.27368 0.51809
 C302 C 0.63060 0.27090 0.52974
 O303 O 0.61595 0.28949 0.52640
 O304 O 0.61881 0.35083 0.52101
 C305 C 0.64232 0.37656 0.53200
 O306 O 0.66418 0.39531 0.48407
 O307 O 0.71904 0.38892 0.47618
 C308 C 0.73270 0.37008 0.47100
 O309 O 0.72615 0.34168 0.48115
 O310 O 0.66453 0.28643 0.47466
 C311 C 0.63196 0.27256 0.47102
 O312 O 0.61185 0.27895 0.48280
 O313 O 0.61817 0.34174 0.47734
 C314 C 0.63680 0.37473 0.47319
 Cr315 Cr 0.69608 0.38884 0.50171
 Cr316 Cr 0.68983 0.30924 0.49969
 Cr317 Cr 0.61811 0.31611 0.50186
 O318 O 0.66804 0.33808 0.50110
 O319 O 0.34009 0.60796 0.51710
 O320 O 0.28394 0.61285 0.52321
 C321 C 0.26960 0.63138 0.52761
 O322 O 0.27583 0.65920 0.51687
 O323 O 0.33612 0.71578 0.52386
 C324 C 0.36838 0.73017 0.52861
 O325 O 0.38975 0.72405 0.51800
 O326 O 0.38493 0.66205 0.52422
 C327 C 0.36673 0.62902 0.52836
 O328 O 0.33210 0.61118 0.47354
 O329 O 0.27428 0.61290 0.47963
 C330 C 0.27085 0.63627 0.46890
 O331 O 0.28773 0.66920 0.47345
 O332 O 0.34679 0.72742 0.48043
 C333 C 0.37335 0.73111 0.46988
 O334 O 0.38886 0.71374 0.47445
 O335 O 0.38709 0.65317 0.48065
 C336 C 0.36465 0.62702 0.46941
 Cr337 Cr 0.30866 0.61320 0.49838
 Cr338 Cr 0.31253 0.69183 0.49865
 Cr339 Cr 0.38570 0.68733 0.49931
 O340 O 0.33563 0.66413 0.49877
 C341 C 0.49226 0.60030 0.33763
 C342 C 0.48228 0.61036 0.35684
 C343 C 0.44985 0.58771 0.36653
 C344 C 0.42753 0.55447 0.35692
 C345 C 0.43751 0.54430 0.33778
 C346 C 0.46990 0.56719 0.32781
 N347 N 0.43999 0.59923 0.38587
 N348 N 0.40995 0.58083 0.39462
 C349 C 0.39968 0.59231 0.41379
 C350 C 0.36524 0.57202 0.42134
 C351 C 0.35391 0.58302 0.43954
 C352 C 0.37705 0.61455 0.45066
 C353 C 0.41186 0.63459 0.44324
 C354 C 0.42307 0.62364 0.42493
 H355 H 0.51718 0.61873 0.33025
 H356 H 0.49969 0.63609 0.36405
 H357 H 0.40238 0.53636 0.36417
 H358 H 0.41995 0.51837 0.33088
 H359 H 0.34699 0.54781 0.41290
 H360 H 0.32697 0.56693 0.44482
 H361 H 0.43032 0.65905 0.45136
 H362 H 0.44987 0.63975 0.41941
 C363 C 0.40717 0.89459 0.34064
 C364 C 0.39688 0.87389 0.35962
 C365 C 0.41843 0.86219 0.36899
 C366 C 0.45096 0.87200 0.35937
 C367 C 0.46153 0.89295 0.34046
 C368 C 0.43967 0.90441 0.33049
 N369 N 0.40635 0.83991 0.38800
 N370 N 0.42358 0.82641 0.39658
 C371 C 0.41112 0.80368 0.41538
 C372 C 0.43015 0.78769 0.42298
 C373 C 0.41811 0.76438 0.44080
 C374 C 0.38677 0.75680 0.45146
 C375 C 0.36798 0.77336 0.44398
 C376 C 0.37998 0.79653 0.42607
 H377 H 0.38986 0.90373 0.33450
 H378 H 0.37187 0.86679 0.36702
 H379 H 0.46807 0.86312 0.36630
 H380 H 0.48619 0.89847 0.33325
 H381 H 0.45419 0.79300 0.41488
 H382 H 0.43327 0.75215 0.44614
 H383 H 0.34372 0.76807 0.45176
 H384 H 0.36481 0.80861 0.42051
 C385 C 0.11348 0.51064 0.33841
 C386 C 0.13456 0.52082 0.35705
 C387 C 0.14293 0.55245 0.36784
 C388 C 0.12935 0.57373 0.36004
 C389 C 0.10794 0.56357 0.34153
 C390 C 0.09967 0.53185 0.32995
 N391 N 0.16553 0.56251 0.38650
 N392 N 0.17688 0.59254 0.39586
 C393 C 0.19968 0.60260 0.41441
 C394 C 0.21397 0.63732 0.42254
 C395 C 0.23701 0.64829 0.44028
 C396 C 0.24593 0.62449 0.45035
 C397 C 0.23116 0.58946 0.44230
 C398 C 0.20834 0.57863 0.42445
 H399 H 0.10700 0.48508 0.33150
 H400 H 0.14451 0.50390 0.36312
 H401 H 0.13562 0.59851 0.36810
 H402 H 0.09994 0.58220 0.33586
 H403 H 0.20747 0.65602 0.41495
 H404 H 0.24783 0.67542 0.44609
 H405 H 0.23755 0.57050 0.44963
 H406 H 0.19757 0.55161 0.41848
 C407 C 0.52918 0.41717 0.33656
 C408 C 0.53652 0.40479 0.35587
 C409 C 0.56629 0.42706 0.36819
 C410 C 0.58864 0.46218 0.36107
 C411 C 0.58137 0.47457 0.34174
 C412 C 0.55166 0.45214 0.32920
 N413 N 0.57364 0.41310 0.38748
 N414 N 0.60023 0.43186 0.39946
 C415 C 0.60796 0.41749 0.41843
 C416 C 0.63785 0.43948 0.43072
 C417 C 0.64697 0.42586 0.44877
 C418 C 0.62622 0.38983 0.45482
 C419 C 0.59587 0.36796 0.44261
 C420 C 0.58681 0.38164 0.42460
 H421 H 0.50632 0.39913 0.32715
 H422 H 0.51918 0.37764 0.36115
 H423 H 0.61179 0.47994 0.37033
 H424 H 0.59890 0.50179 0.33665
 H425 H 0.65438 0.46716 0.42611
 H426 H 0.67053 0.44343 0.45776
 H427 H 0.57929 0.34010 0.44679
 H428 H 0.56354 0.36407 0.41536
 C429 C 0.58449 0.11614 0.33661
 C430 C 0.59725 0.13706 0.35536
 C431 C 0.57618 0.14684 0.36716
 C432 C 0.54175 0.13512 0.36014
 C433 C 0.52880 0.11416 0.34138
 C434 C 0.54999 0.10439 0.32903
 N435 N 0.59063 0.16911 0.38596
 N436 N 0.57295 0.17880 0.39772
 C437 C 0.58800 0.20162 0.41625
 C438 C 0.56702 0.21075 0.42881
 C439 C 0.58113 0.23353 0.44674
 C440 C 0.61667 0.24770 0.45237
 C441 C 0.63763 0.23830 0.43974
 C442 C 0.62345 0.21546 0.42188
 H443 H 0.60166 0.10838 0.32866
 H444 H 0.62377 0.14565 0.36076
 H445 H 0.52499 0.14259 0.36895
 H446 H 0.50263 0.10722 0.33621
 H447 H 0.53968 0.20031 0.42462
 H448 H 0.56426 0.24027 0.45605
 H449 H 0.66508 0.24870 0.44360
 H450 H 0.64026 0.20885 0.41240
 C451 C 0.88656 0.39680 0.33911
 C452 C 0.86574 0.38564 0.35790
 C453 C 0.85841 0.40930 0.36925
 C454 C 0.87269 0.44464 0.36182
 C455 C 0.89362 0.45588 0.34313
 C456 C 0.90054 0.43202 0.33142
 N457 N 0.83597 0.39677 0.38798
 N458 N 0.82628 0.41639 0.39783
 C459 C 0.80355 0.40436 0.41641
 C460 C 0.79214 0.42678 0.42514
 C461 C 0.76926 0.41571 0.44292
 C462 C 0.75752 0.38194 0.45241
 C463 C 0.76937 0.35957 0.44374
 C464 C 0.79212 0.37064 0.42584
 H465 H 0.89104 0.37766 0.33034
 H466 H 0.85484 0.35832 0.36343
 H467 H 0.86763 0.46355 0.37040
 H468 H 0.90451 0.48334 0.33789
 H469 H 0.80080 0.45282 0.41801
 H470 H 0.76075 0.43365 0.44920
 H471 H 0.76076 0.33338 0.45063
 H472 H 0.80065 0.35285 0.41935
 C473 C 0.60853 0.48736 1.16308
 C474 C 0.62068 0.47765 1.14467
 C475 C 0.59805 0.44737 1.13261
 C476 C 0.56283 0.42690 1.13907
 C477 C 0.55066 0.43652 1.15750
 C478 C 0.57342 0.46678 1.16978
 N479 N 0.61158 0.43775 1.11413
 N480 N 0.59238 0.41068 1.10237
 C481 C 0.60603 0.40077 1.08408
 C482 C 0.58321 0.37106 1.07166
 C483 C 0.59573 0.36035 1.05388
 C484 C 0.63148 0.37923 1.04825
 C485 C 0.65434 0.40916 1.06076
 C486 C 0.64174 0.41986 1.07850
 H487 H 0.62680 0.51055 1.17233
 H488 H 0.64789 0.49359 1.13989
 H489 H 0.54477 0.40341 1.12998
 H490 H 0.52337 0.42041 1.16208
 H491 H 0.55564 0.35610 1.07582
 H492 H 0.57741 0.33715 1.04465
 H493 H 0.68201 0.42431 1.05691
 H494 H 0.65993 0.44290 1.08788
 C495 C 0.89442 0.47750 1.16342
 C496 C 0.87492 0.47028 1.14415
 C497 C 0.86479 0.43861 1.13269
 C498 C 0.87487 0.41436 1.14055
 C499 C 0.89439 0.42157 1.15975
 C500 C 0.90414 0.45307 1.17152
 N501 N 0.84371 0.43123 1.11344
 N502 N 0.83220 0.40187 1.10324
 C503 C 0.81057 0.39336 1.08422
 C504 C 0.79731 0.35946 1.07505
 C505 C 0.77508 0.34954 1.05697
 C506 C 0.76585 0.37358 1.04760
 C507 C 0.77970 0.40792 1.05663
 C508 C 0.80182 0.41772 1.07485
 H509 H 0.90122 0.50183 1.17222
 H510 H 0.86726 0.48915 1.13829
 H511 H 0.86756 0.38977 1.13194
 H512 H 0.90201 0.40253 1.16532
 H513 H 0.80390 0.34049 1.08213
 H514 H 0.76500 0.32293 1.05042
 H515 H 0.77303 0.42701 1.04984
 H516 H 0.81182 0.44413 1.08168
 C517 C 0.52223 0.11753 1.16225
 C518 C 0.53220 0.13761 1.14304
 C519 C 0.56112 0.14194 1.13114
 C520 C 0.57990 0.12541 1.13847
 C521 C 0.56997 0.10514 1.15769
 C522 C 0.54109 0.10108 1.17019
 N523 N 0.57112 0.16390 1.11200
 N524 N 0.59739 0.16975 1.10029
 C525 C 0.60714 0.19260 1.08152
 C526 C 0.63659 0.19870 1.06937
 C527 C 0.64745 0.22198 1.05148
 C528 C 0.62893 0.23961 1.04547
 C529 C 0.59906 0.23297 1.05756
 C530 C 0.58827 0.20972 1.07539
 H531 H 0.49889 0.11417 1.17032
 H532 H 0.51728 0.14994 1.13741
 H533 H 0.60256 0.12858 1.12956
 H534 H 0.58624 0.09426 1.16308
 H535 H 0.65138 0.18570 1.07393
 H536 H 0.67059 0.22652 1.04256
 H537 H 0.58415 0.24604 1.05342
 H538 H 0.56539 0.20548 1.08450
 C539 C 0.48999 0.59397 1.15595
 C540 C 0.47920 0.60437 1.13717
 C541 C 0.44456 0.58465 1.12985
 C542 C 0.42074 0.55393 1.14140
 C543 C 0.43152 0.54342 1.16014
 C544 C 0.46621 0.56347 1.16770
 N545 N 0.43412 0.59672 1.11095
 N546 N 0.40274 0.58072 1.10388
 C547 C 0.39212 0.59305 1.08518
 C548 C 0.35690 0.57474 1.07885
 C549 C 0.34541 0.58656 1.06104
 C550 C 0.36911 0.61699 1.04917
 C551 C 0.40461 0.63513 1.05546
 C552 C 0.41602 0.62330 1.07332
 H553 H 0.51698 0.60969 1.16122
 H554 H 0.49782 0.62803 1.12838
 H555 H 0.39378 0.53825 1.13608
 H556 H 0.41251 0.52005 1.16898
 H557 H 0.33823 0.55140 1.08787
 H558 H 0.31791 0.57193 1.05667
 H559 H 0.42355 0.65868 1.04673
 H560 H 0.44341 0.63792 1.07791
 C561 C 0.10680 0.50696 1.16123
 C562 C 0.12648 0.51689 1.14198
 C563 C 0.13705 0.55019 1.13243
 C564 C 0.12722 0.57339 1.14218
 C565 C 0.10747 0.56348 1.16136
 C566 C 0.09728 0.53028 1.17123
 N567 N 0.15829 0.56013 1.11316
 N568 N 0.17051 0.59093 1.10460
 C569 C 0.19226 0.60146 1.08557
 C570 C 0.20674 0.63662 1.07815
 C571 C 0.22915 0.64825 1.06011
 C572 C 0.23728 0.62469 1.04907
 C573 C 0.22218 0.58915 1.05637
 C574 C 0.19994 0.57764 1.07450
 H575 H 0.09969 0.48138 1.16854
 H576 H 0.13396 0.49881 1.13464
 H577 H 0.13489 0.59921 1.13504
 H578 H 0.10002 0.58176 1.16843
 H579 H 0.20099 0.65520 1.08655
 H580 H 0.24025 0.67576 1.05492
 H581 H 0.22797 0.57035 1.04828
 H582 H 0.18899 0.55028 1.07993
 C583 C 0.39687 0.89366 1.16190
 C584 C 0.38562 0.87324 1.14282
 C585 C 0.40714 0.86238 1.13241
 C586 C 0.44049 0.87275 1.14108
 C587 C 0.45181 0.89324 1.16007
 C588 C 0.43002 0.90364 1.17084
 N589 N 0.39441 0.84030 1.11339
 N590 N 0.41197 0.82766 1.10427
 C591 C 0.39966 0.80510 1.08546
 C592 C 0.41957 0.79037 1.07754
 C593 C 0.40796 0.76732 1.05966
 C594 C 0.37616 0.75876 1.04924
 C595 C 0.35641 0.77404 1.05706
 C596 C 0.36799 0.79695 1.07507
 H597 H 0.37933 0.90093 1.16991
 H598 H 0.35984 0.86538 1.13632
 H599 H 0.45775 0.86493 1.13326
 H600 H 0.47774 0.90106 1.16627
 H601 H 0.44402 0.79648 1.08543
 H602 H 0.42387 0.75613 1.05406
 H603 H 0.33176 0.76793 1.04945
 H604 H 0.35216 0.80807 1.08091
 C605 C 0.52056 0.41877 0.66123
 C606 C 0.52948 0.40771 0.64203
 C607 C 0.56387 0.42594 0.63414
 C608 C 0.58934 0.45582 0.64556
 C609 C 0.58043 0.46698 0.66473
 C610 C 0.54599 0.44843 0.67285
 N611 N 0.57235 0.41326 0.61477
 N612 N 0.60336 0.42802 0.60715
 C613 C 0.61215 0.41518 0.58799
 C614 C 0.64707 0.43217 0.58108
 C615 C 0.65683 0.41982 0.56281
 C616 C 0.63167 0.39017 0.55102
 C617 C 0.59648 0.37335 0.55788
 C618 C 0.58679 0.38571 0.57622
 H619 H 0.49370 0.40425 0.66692
 H620 H 0.50961 0.38472 0.63335
 H621 H 0.61615 0.47034 0.63980
 H622 H 0.60065 0.48968 0.67345
 H623 H 0.66683 0.45488 0.59002
 H624 H 0.68415 0.43344 0.55800
 H625 H 0.57647 0.35043 0.54922
 H626 H 0.55959 0.37213 0.58126
 C627 C 0.50690 0.11448 0.66200
 C628 C 0.51679 0.13599 0.64334
 C629 C 0.54672 0.14251 0.63159
 C630 C 0.56659 0.12690 0.63859
 C631 C 0.55680 0.10549 0.65728
 C632 C 0.52698 0.09924 0.66928
 N633 N 0.55682 0.16572 0.61301
 N634 N 0.58346 0.17237 0.60146
 C635 C 0.59408 0.19628 0.58321
 C636 C 0.62313 0.20161 0.57091
 C637 C 0.63482 0.22554 0.55338
 C638 C 0.61762 0.24471 0.54789
 C639 C 0.58826 0.23907 0.56021
 C640 C 0.57656 0.21505 0.57769
 H641 H 0.48403 0.11047 0.67103
 H642 H 0.50133 0.14796 0.63814
 H643 H 0.58981 0.13149 0.62976
 H644 H 0.57252 0.09373 0.66234
 H645 H 0.63689 0.18735 0.57504
 H646 H 0.65755 0.22928 0.54430
 H647 H 0.57438 0.25335 0.55644
 H648 H 0.55405 0.21143 0.58698
 C649 C 0.89419 0.47921 0.66088
 C650 C 0.87358 0.47128 0.64207
 C651 C 0.86267 0.43915 0.63098
 C652 C 0.87308 0.41511 0.63875
 C653 C 0.89381 0.42306 0.65748
 C654 C 0.90441 0.45509 0.66888
 N655 N 0.84062 0.43130 0.61217
 N656 N 0.82777 0.40143 0.60239
 C657 C 0.80533 0.39306 0.58375
 C658 C 0.78992 0.35859 0.57511
 C659 C 0.76697 0.34905 0.55739
 C660 C 0.75921 0.37405 0.54784
 C661 C 0.77519 0.40889 0.55635
 C662 C 0.79797 0.41830 0.57420
 H663 H 0.90150 0.50388 0.66940
 H664 H 0.86567 0.48999 0.63628
 H665 H 0.86517 0.39018 0.63038
 H666 H 0.90172 0.40420 0.66297
 H667 H 0.79541 0.33892 0.58233
 H668 H 0.75520 0.32203 0.55123
 H669 H 0.76970 0.42875 0.54943
 H670 H 0.80963 0.44516 0.58058
 C671 C 0.48030 0.58578 0.66171
 C672 C 0.47220 0.59729 0.64235
 C673 C 0.43909 0.57746 0.63282
 C674 C 0.41402 0.54563 0.64283
 C675 C 0.42202 0.53414 0.66228
 C676 C 0.45522 0.55420 0.67202
 N677 N 0.43142 0.59073 0.61334
 N678 N 0.40259 0.57328 0.60309
 C679 C 0.39481 0.58727 0.58396
 C680 C 0.36352 0.56594 0.57273
 C681 C 0.35462 0.57923 0.55442
 C682 C 0.37689 0.61432 0.54713
 C683 C 0.40848 0.63558 0.55837
 C684 C 0.41742 0.62217 0.57658
 H685 H 0.50630 0.60152 0.66855
 H686 H 0.49176 0.62181 0.63476
 H687 H 0.38814 0.52993 0.63581
 H688 H 0.40198 0.50996 0.66992
 H689 H 0.34585 0.53904 0.57829
 H690 H 0.33004 0.56219 0.54622
 H691 H 0.42624 0.66270 0.55319
 H692 H 0.44174 0.63923 0.58502
 C693 C 0.39807 0.88284 0.66213
 C694 C 0.38779 0.86200 0.64327
 C695 C 0.41134 0.85484 0.63215
 C696 C 0.44574 0.86918 0.63996
 C697 C 0.45624 0.89014 0.65883
 C698 C 0.43251 0.89721 0.67051
 N699 N 0.39934 0.83251 0.61324
 N700 N 0.41904 0.82454 0.60218
 C701 C 0.40616 0.80162 0.58352
 C702 C 0.42895 0.79377 0.57191
 C703 C 0.41688 0.77082 0.55393
 C704 C 0.38164 0.75527 0.54727
 C705 C 0.35890 0.76346 0.55891
 C706 C 0.37102 0.78640 0.57684
 H707 H 0.37900 0.88847 0.66955
 H708 H 0.36126 0.85138 0.63726
 H709 H 0.46440 0.86378 0.63167
 H710 H 0.48259 0.89923 0.66463
 H711 H 0.45609 0.80529 0.57691
 H712 H 0.43508 0.76506 0.54537
 H713 H 0.33161 0.75199 0.55427
 H714 H 0.35284 0.79201 0.58553
 C715 C 0.10758 0.51010 0.65765
 C716 C 0.12800 0.51888 0.63873
 C717 C 0.14255 0.55304 0.62973
 C718 C 0.13634 0.57854 0.63983
 C719 C 0.11619 0.57002 0.65884
 C720 C 0.10145 0.53561 0.66829
 N721 N 0.16410 0.56137 0.61065
 N722 N 0.17640 0.59130 0.60092
 C723 C 0.19871 0.60012 0.58219
 C724 C 0.20941 0.63265 0.57157
 C725 C 0.23199 0.64260 0.55363
 C726 C 0.24451 0.62017 0.54607
 C727 C 0.23351 0.58736 0.55671
 C728 C 0.21074 0.57736 0.57457
 H729 H 0.09817 0.48369 0.66434
 H730 H 0.13285 0.49904 0.63118
 H731 H 0.14713 0.60514 0.63308
 H732 H 0.11137 0.59036 0.66556
 H733 H 0.20038 0.65045 0.57733
 H734 H 0.24003 0.66811 0.54591
 H735 H 0.24263 0.56944 0.55132
 H736 H 0.20291 0.55209 0.58254
 C737 C 0.47952 0.59527 0.83975
 C738 C 0.47048 0.60762 0.85836
 C739 C 0.43991 0.58516 0.86996
 C740 C 0.41851 0.54987 0.86287
 C741 C 0.42747 0.53751 0.84424
 C742 C 0.45795 0.56015 0.83239
 N743 N 0.43081 0.59900 0.88854
 N744 N 0.40344 0.57989 0.89982
 C745 C 0.39386 0.59384 0.91812
 C746 C 0.36368 0.57106 0.92994
 C747 C 0.35306 0.58397 0.94756
 C748 C 0.37253 0.62009 0.95365
 C749 C 0.40300 0.64287 0.94178
 C750 C 0.41360 0.62987 0.92420
 H751 H 0.50295 0.61344 0.83083
 H752 H 0.48713 0.63489 0.86364
 H753 H 0.39478 0.53194 0.87160
 H754 H 0.41060 0.51019 0.83914
 H755 H 0.34822 0.54325 0.92538
 H756 H 0.32945 0.56571 0.95629
 H757 H 0.41861 0.67081 0.94601
 H758 H 0.43702 0.64803 0.91528
 C759 C 0.11703 0.51933 0.83522
 C760 C 0.13692 0.52844 0.85435
 C761 C 0.14338 0.55872 0.86615
 C762 C 0.12941 0.57988 0.85871
 C763 C 0.10944 0.57088 0.83956
 C764 C 0.10297 0.54048 0.82724
 N765 N 0.16465 0.56756 0.88538
 N766 N 0.17153 0.59456 0.89713
 C767 C 0.19341 0.60335 0.91610
 C768 C 0.19999 0.63335 0.92838
 C769 C 0.22204 0.64319 0.94661
 C770 C 0.23798 0.62311 0.95285
 C771 C 0.23100 0.59276 0.94057
 C772 C 0.20893 0.58296 0.92238
 H773 H 0.11187 0.49485 0.82728
 H774 H 0.14730 0.51171 0.86006
 H775 H 0.13430 0.60365 0.86751
 H776 H 0.10060 0.58897 0.83411
 H777 H 0.18822 0.64931 0.92369
 H778 H 0.22689 0.66675 0.95565
 H779 H 0.24282 0.57669 0.94488
 H780 H 0.20427 0.55964 0.91315
 C781 C 0.39630 0.89349 0.83983
 C782 C 0.38529 0.87327 0.85900
 C783 C 0.40552 0.86004 0.86848
 C784 C 0.43721 0.86737 0.85861
 C785 C 0.44822 0.88732 0.83935
 C786 C 0.42793 0.90073 0.82943
 N787 N 0.39296 0.83860 0.88780
 N788 N 0.41098 0.82732 0.89786
 C789 C 0.39805 0.80506 0.91683
 C790 C 0.42001 0.79519 0.92771
 C791 C 0.40786 0.77254 0.94584
 C792 C 0.37328 0.75916 0.95333
 C793 C 0.35137 0.76940 0.94244
 C794 C 0.36365 0.79221 0.92439
 H795 H 0.37888 0.90181 0.83278
 H796 H 0.36062 0.86752 0.86638
 H797 H 0.45348 0.85761 0.86573
 H798 H 0.47337 0.89310 0.83282
 H799 H 0.44656 0.80486 0.92199
 H800 H 0.42538 0.76509 0.95377
 H801 H 0.32462 0.75962 0.94778
 H802 H 0.34613 0.79941 0.91622
 C803 C 0.52126 0.40783 0.84045
 C804 C 0.53074 0.39564 0.85901
 C805 C 0.56164 0.41814 0.87030
 C806 C 0.58290 0.45335 0.86297
 C807 C 0.57350 0.46556 0.84439
 C808 C 0.54271 0.44285 0.83283
 N809 N 0.57122 0.40432 0.88874
 N810 N 0.59881 0.42334 0.89985
 C811 C 0.60869 0.40910 0.91795
 C812 C 0.63894 0.43166 0.92978
 C813 C 0.64981 0.41834 0.94716
 C814 C 0.63054 0.38204 0.95294
 C815 C 0.60000 0.35952 0.94108
 C816 C 0.58914 0.37290 0.92377
 H817 H 0.49760 0.38960 0.83176
 H818 H 0.51420 0.36841 0.86446
 H819 H 0.60689 0.47130 0.87146
 H820 H 0.59030 0.49282 0.83908
 H821 H 0.65427 0.45959 0.92542
 H822 H 0.67348 0.43641 0.95590
 H823 H 0.58450 0.33144 0.94508
 H824 H 0.56567 0.35489 0.91485
 C825 C 0.89462 0.40271 0.83674
 C826 C 0.87461 0.39132 0.85585
 C827 C 0.86618 0.41423 0.86715
 C828 C 0.87848 0.44905 0.85928
 C829 C 0.89859 0.46054 0.84024
 C830 C 0.90669 0.43742 0.82863
 N831 N 0.84464 0.40136 0.88627
 N832 N 0.83416 0.42016 0.89634
 C833 C 0.81221 0.40750 0.91528
 C834 C 0.79956 0.42873 0.92427
 C835 C 0.77707 0.41678 0.94226
 C836 C 0.76701 0.38332 0.95173
 C837 C 0.78026 0.36227 0.94287
 C838 C 0.80259 0.37419 0.92475
 H839 H 0.90000 0.38409 0.82807
 H840 H 0.86522 0.36439 0.86171
 H841 H 0.87250 0.46738 0.86779
 H842 H 0.90799 0.48762 0.83468
 H843 H 0.80681 0.45445 0.91711
 H844 H 0.76744 0.43371 0.94867
 H845 H 0.77294 0.33633 0.94971
 H846 H 0.81209 0.35732 0.91810
 C847 C 0.51150 0.10567 0.84068
 C848 C 0.52231 0.12627 0.85967
 C849 C 0.55676 0.14049 0.86720
 C850 C 0.58037 0.13354 0.85561
 C851 C 0.56957 0.11286 0.83665
 C852 C 0.53507 0.09887 0.82891
 N853 N 0.56721 0.16226 0.88640
 N854 N 0.59844 0.17683 0.89369
 C855 C 0.60924 0.19900 0.91270
 C856 C 0.64430 0.21492 0.91924
 C857 C 0.65602 0.23738 0.93740
 C858 C 0.63271 0.24426 0.94944
 C859 C 0.59736 0.22794 0.94293
 C860 C 0.58571 0.20553 0.92470
 H861 H 0.48464 0.09486 0.83528
 H862 H 0.50385 0.13135 0.86848
 H863 H 0.60718 0.14429 0.86108
 H864 H 0.58841 0.10841 0.82781
 H865 H 0.66267 0.21010 0.91011
 H866 H 0.68340 0.24945 0.94193
 H867 H 0.57874 0.23271 0.95179
 H868 H 0.55844 0.19351 0.91995
   
