data_POSCAR
  _audit_creation_date              2014-09-24
  _audit_creation_method            'ToBaCCo'
  _symmetry_space_group_name_H-M    'P1'
  _symmetry_Int_Tables_number       1
  _symmetry_cell_setting            triclinic
  loop_
  _symmetry_equiv_pos_as_xyz
 x,y,z
_cell_length_a 38.1024
_cell_length_b 38.7832
_cell_length_c 37.2330
_cell_angle_alpha 92.775800
_cell_angle_beta 88.319200
_cell_angle_gamma 88.550100
loop_
  _atom_site_label
  _atom_site_type_symbol
  _atom_site_fract_x
  _atom_site_fract_y
  _atom_site_fract_z
C1 C 0.27129 0.21199 0.24797
 C2 C 0.25806 0.19992 0.28023
 C3 C 0.22773 0.21453 0.29642
 C4 C 0.21049 0.24210 0.28038
 C5 C 0.22388 0.25416 0.24846
 C6 C 0.25457 0.23910 0.23222
 C7 C 0.30033 0.20241 0.22690
 N8 N 0.30182 0.22322 0.19869
 C9 C 0.27409 0.24597 0.20178
 C10 C 0.20244 0.28108 0.23925
 N11 N 0.17647 0.28606 0.26484
 C12 C 0.18111 0.26228 0.29012
 C13 C 0.22145 0.19716 0.32741
 N14 N 0.24762 0.17302 0.33028
 C15 C 0.26998 0.17454 0.30146
 H16 H 0.31946 0.18232 0.23222
 H17 H 0.26858 0.26595 0.18326
 H18 H 0.20584 0.29640 0.21590
 H19 H 0.16444 0.25970 0.31381
 H20 H 0.19977 0.20191 0.34661
 H21 H 0.29301 0.15798 0.29599
 C22 C 0.73319 -0.23509 0.21634
 C23 C 0.74970 -0.22144 0.24703
 C24 C 0.77926 -0.23811 0.25948
 C25 C 0.79272 -0.26855 0.24157
 C26 C 0.77657 -0.28161 0.21139
 C27 C 0.74653 -0.26509 0.19903
 C28 C 0.70412 -0.22497 0.19770
 N29 N 0.69930 -0.24855 0.17000
 C30 C 0.72544 -0.27307 0.17081
 C31 C 0.79517 -0.31078 0.19899
 N32 N 0.82240 -0.31622 0.22110
 C33 C 0.82085 -0.29048 0.24742
 C34 C 0.78985 -0.21920 0.28924
 N35 N 0.76756 -0.19143 0.29532
 C36 C 0.74278 -0.19276 0.26976
 H37 H 0.68741 -0.20240 0.20424
 H38 H 0.72970 -0.29500 0.15203
 H39 H 0.78847 -0.32700 0.17591
 H40 H 0.83907 -0.28764 0.26910
 H41 H 0.81202 -0.22554 0.30541
 H42 H 0.72151 -0.17399 0.26762
 C43 C 0.73067 0.23741 0.77728
 C44 C 0.74321 0.22379 0.74368
 C45 C 0.77346 0.23632 0.72788
 C46 C 0.79146 0.26312 0.74581
 C47 C 0.77894 0.27600 0.77913
 C48 C 0.74833 0.26351 0.79460
 C49 C 0.70150 0.23111 0.79841
 N50 N 0.70073 0.25346 0.82780
 C51 C 0.72958 0.27329 0.82558
 C52 C 0.80031 0.30178 0.79051
 N53 N 0.82577 0.30581 0.76483
 C54 C 0.82041 0.28232 0.73714
 C55 C 0.77891 0.21796 0.69534
 N56 N 0.75250 0.19525 0.69116
 C57 C 0.73066 0.19873 0.72061
 H58 H 0.68169 0.21236 0.79220
 H59 H 0.73691 0.29334 0.84488
 H60 H 0.79605 0.31751 0.81509
 H61 H 0.83618 0.27953 0.71246
 H62 H 0.80033 0.22096 0.67609
 H63 H 0.70761 0.18362 0.72530
 C64 C 0.26378 -0.23450 0.78409
 C65 C 0.24723 -0.22136 0.75419
 C66 C 0.21755 -0.23692 0.74116
 C67 C 0.20404 -0.26569 0.75763
 C68 C 0.22017 -0.27841 0.78708
 C69 C 0.25043 -0.26302 0.80007
 C70 C 0.29312 -0.22517 0.80270
 N71 N 0.29825 -0.24780 0.82906
 C72 C 0.27199 -0.27096 0.82751
 C73 C 0.20143 -0.30619 0.79771
 N74 N 0.17432 -0.31096 0.77509
 C75 C 0.17598 -0.28626 0.75037
 C76 C 0.20707 -0.21915 0.71215
 N77 N 0.22961 -0.19311 0.70708
 C78 C 0.25443 -0.19440 0.73252
 H79 H 0.30990 -0.20388 0.79693
 H80 H 0.26807 -0.29188 0.84523
 H81 H 0.20798 -0.32206 0.81977
 H82 H 0.15797 -0.28329 0.72869
 H83 H 0.18492 -0.22520 0.69566
 H84 H 0.27597 -0.17687 0.73518
 C85 C 0.72150 -0.23033 0.75168
 C86 C 0.73726 -0.21485 0.72193
 C87 C 0.76480 -0.23197 0.70294
 C88 C 0.77681 -0.26441 0.71277
 C89 C 0.76168 -0.27947 0.74194
 C90 C 0.73365 -0.26246 0.76132
 C91 C 0.69474 -0.22011 0.77611
 N92 N 0.69004 -0.24545 0.79986
 C93 C 0.71404 -0.27132 0.79081
 C94 C 0.78012 -0.30996 0.74630
 N95 N 0.80590 -0.31387 0.72015
 C96 C 0.80375 -0.28597 0.69941
 C97 C 0.77604 -0.21124 0.67643
 N98 N 0.75608 -0.18174 0.67838
 C99 C 0.73198 -0.18371 0.70591
 H100 H 0.67959 -0.19609 0.77628
 H101 H 0.71789 -0.29486 0.80473
 H102 H 0.77537 -0.32775 0.76734
 H103 H 0.82128 -0.28053 0.67715
 H104 H 0.79709 -0.21741 0.65684
 H105 H 0.71254 -0.16378 0.71399
 C106 C 0.28759 0.25124 0.76677
 C107 C 0.27436 0.23132 0.73822
 C108 C 0.24727 0.24419 0.71855
 C109 C 0.23340 0.27749 0.72696
 C110 C 0.24645 0.29729 0.75530
 C111 C 0.27399 0.28405 0.77536
 C112 C 0.31304 0.24440 0.79081
 N113 N 0.31580 0.27230 0.81401
 C114 C 0.29190 0.29685 0.80465
 C115 C 0.22676 0.32763 0.75818
 N116 N 0.20251 0.32677 0.73210
 C117 C 0.20643 0.29618 0.71290
 C118 C 0.23931 0.21888 0.69309
 N119 N 0.26137 0.19130 0.69666
 C120 C 0.28282 0.19865 0.72429
 H121 H 0.32846 0.22059 0.79133
 H122 H 0.28715 0.32187 0.81825
 H123 H 0.22942 0.34855 0.77816
 H124 H 0.18996 0.28748 0.69125
 H125 H 0.21935 0.22055 0.67309
 H126 H 0.30288 0.18138 0.73384
 C127 C 0.27284 -0.24603 0.23227
 C128 C 0.25723 -0.23152 0.26437
 C129 C 0.23081 -0.24874 0.28147
 C130 C 0.21979 -0.28045 0.26729
 C131 C 0.23451 -0.29473 0.23550
 C132 C 0.26173 -0.27744 0.21794
 C133 C 0.29922 -0.23519 0.20981
 N134 N 0.30508 -0.25932 0.18237
 C135 C 0.28203 -0.28525 0.18719
 C136 C 0.21691 -0.32494 0.22793
 N137 N 0.19255 -0.32932 0.25486
 C138 C 0.19447 -0.30200 0.27896
 C139 C 0.21978 -0.22900 0.31138
 N140 N 0.23892 -0.20002 0.31317
 C141 C 0.26222 -0.20138 0.28472
 H142 H 0.31354 -0.21159 0.21364
 H143 H 0.27971 -0.30817 0.16981
 H144 H 0.22155 -0.34240 0.20459
 H145 H 0.17770 -0.29687 0.30264
 H146 H 0.19955 -0.23555 0.33072
 H147 H 0.28101 -0.18173 0.27906
 C148 C 0.71887 0.24644 0.23891
 C149 C 0.73228 0.22917 0.26789
 C150 C 0.76228 0.24053 0.28424
 C151 C 0.77907 0.26974 0.27191
 C152 C 0.76592 0.28667 0.24310
 C153 C 0.73544 0.27504 0.22655
 C154 C 0.69037 0.24066 0.21793
 N155 N 0.68891 0.26519 0.19318
 C156 C 0.71646 0.28638 0.19821
 C157 C 0.78782 0.31348 0.23662
 N158 N 0.81376 0.31370 0.26104
 C159 C 0.80843 0.28688 0.28278
 C160 C 0.76933 0.21839 0.31119
 N161 N 0.74405 0.19430 0.31170
 C162 C 0.72136 0.20070 0.28523
 H163 H 0.67192 0.22008 0.22054
 H164 H 0.72268 0.30808 0.18219
 H165 H 0.78486 0.33169 0.21570
 H166 H 0.82486 0.27957 0.30449
 H167 H 0.79101 0.21987 0.32931
 H168 H 0.69880 0.18548 0.27863
 O169 O 0.20886 0.01719 0.48365
 O170 O 0.21926 -0.04872 0.55026
 O171 O 0.21090 0.01859 0.55263
 O172 O 0.22078 -0.04919 0.47973
 O173 O 0.27813 -0.04235 0.47813
 O174 O 0.26849 0.02400 0.55140
 O175 O 0.27673 -0.04268 0.54865
 O176 O 0.26625 0.02406 0.48212
 Cu177 Cu 0.20921 -0.01654 0.51684
 Cu178 Cu 0.27819 -0.00880 0.51488
 C179 C 0.23572 0.03227 0.47190
 C180 C 0.24950 -0.05675 0.56114
 C181 C 0.23823 0.03322 0.56395
 C182 C 0.25113 -0.05684 0.46608
 O183 O 0.78966 0.03303 0.52593
 O184 O 0.77950 -0.03580 0.45588
 O185 O 0.78834 0.03107 0.45659
 O186 O 0.77709 -0.03267 0.52641
 O187 O 0.71979 -0.02259 0.52757
 O188 O 0.73091 0.04057 0.45803
 O189 O 0.72218 -0.02587 0.45697
 O190 O 0.73234 0.04318 0.52772
 Cu191 Cu 0.78934 -0.00235 0.49097
 Cu192 Cu 0.72057 0.00968 0.49271
 C193 C 0.76285 0.05009 0.53857
 C194 C 0.74933 -0.04250 0.44423
 C195 C 0.76136 0.04707 0.44585
 C196 C 0.74651 -0.03822 0.53915
 O197 O 0.45988 0.21840 0.04138
 O198 O 0.53029 0.21121 -0.02790
 O199 O 0.52807 0.21452 0.04218
 O200 O 0.46297 0.21624 -0.02845
 O201 O 0.46469 0.27315 -0.02778
 O202 O 0.53033 0.27139 0.04323
 O203 O 0.53311 0.26811 -0.02654
 O204 O 0.46154 0.27531 0.04211
 Cu205 Cu 0.49506 0.20939 0.00691
 Cu206 Cu 0.49764 0.27776 0.00791
 C207 C 0.44842 0.24789 0.05329
 C208 C 0.54362 0.23848 -0.03910
 C209 C 0.54051 0.24257 0.05464
 C210 C 0.45290 0.24485 -0.04039
 O211 O 0.53268 0.81468 0.03469
 O212 O 0.46446 0.81446 -0.03361
 O213 O 0.46431 0.81143 0.03650
 O214 O 0.53270 0.81510 -0.03600
 O215 O 0.53556 0.75811 -0.03996
 O216 O 0.46743 0.75445 0.03183
 O217 O 0.46703 0.75742 -0.03720
 O218 O 0.53596 0.75772 0.02983
 Cu219 Cu 0.49830 0.81964 0.00090
 Cu220 Cu 0.50193 0.75127 -0.00430
 C221 C 0.54599 0.78618 0.04383
 C222 C 0.45396 0.78586 -0.04679
 C223 C 0.45404 0.78223 0.04627
 C224 C 0.54562 0.78702 -0.05046
 O225 O 0.03553 0.45059 0.20347
 O226 O -0.02553 0.52639 0.20742
 O227 O 0.04279 0.51698 0.20131
 O228 O -0.03270 0.45999 0.20459
 O229 O -0.03142 0.46104 0.26389
 O230 O 0.04352 0.51960 0.26066
 O231 O -0.02421 0.52820 0.26674
 O232 O 0.03636 0.45295 0.26281
 Cu233 Cu 0.00493 0.48828 0.19828
 Cu234 Cu 0.00615 0.49068 0.26944
 C235 C 0.04633 0.43891 0.23265
 C236 C -0.03521 0.54020 0.23791
 C237 C 0.05596 0.52817 0.23038
 C238 C -0.04486 0.45063 0.23457
 O239 O 0.02222 0.53969 0.77294
 O240 O -0.03414 0.46392 0.76841
 O241 O 0.03250 0.47400 0.77539
 O242 O -0.04559 0.53036 0.77189
 O243 O -0.04088 0.52917 0.71258
 O244 O 0.03759 0.47121 0.71607
 O245 O -0.02944 0.46193 0.70909
 O246 O 0.02635 0.53776 0.71357
 Cu247 Cu -0.00690 0.50224 0.77804
 Cu248 Cu -0.00119 0.49977 0.70687
 C249 C 0.03405 0.55148 0.74384
 C250 C -0.04123 0.44989 0.73799
 C251 C 0.04849 0.46302 0.74660
 C252 C -0.05649 0.53967 0.74192
 C253 C 0.36493 0.25161 0.13051
 C254 C 0.38263 0.22038 0.12010
 N255 N 0.37309 0.19078 0.13518
 C256 C 0.34673 0.19098 0.16051
 C257 C 0.32894 0.22219 0.17116
 N258 N 0.33838 0.25181 0.15564
 N259 N 0.37496 0.28127 0.11570
 C260 C 0.40193 0.28108 0.09090
 C261 C 0.41953 0.24975 0.08031
 N262 N 0.40927 0.22016 0.09523
 H263 H 0.33958 0.16696 0.17201
 H264 H 0.40935 0.30506 0.07945
 C265 C 0.62580 0.78326 0.12036
 C266 C 0.61996 0.75481 0.09682
 N267 N 0.64048 0.72592 0.09809
 C268 C 0.66683 0.72406 0.12172
 C269 C 0.67296 0.75245 0.14583
 N270 N 0.65184 0.78135 0.14447
 N271 N 0.60559 0.81244 0.11838
 C272 C 0.57981 0.81439 0.09390
 C273 C 0.57367 0.78566 0.07059
 N274 N 0.59399 0.75654 0.07280
 H275 H 0.68205 0.70024 0.12186
 H276 H 0.56409 0.83794 0.09290
 C277 C 0.62440 0.23181 -0.11905
 C278 C 0.62176 0.25989 -0.09386
 N279 N 0.64576 0.28502 -0.09484
 C280 C 0.67241 0.28346 -0.11994
 C281 C 0.67495 0.25561 -0.14591
 N282 N 0.65054 0.23054 -0.14462
 N283 N 0.60094 0.20614 -0.11740
 C284 C 0.57484 0.20737 -0.09164
 C285 C 0.57174 0.23587 -0.06684
 N286 N 0.59533 0.26150 -0.06863
 H287 H 0.69060 0.30434 -0.11987
 H288 H 0.55639 0.18662 -0.09089
 C289 C 0.37248 0.78292 -0.12133
 C290 C 0.37941 0.75498 -0.09986
 N291 N 0.35920 0.72679 -0.10232
 C292 C 0.33216 0.72516 -0.12523
 C293 C 0.32508 0.75297 -0.14736
 N294 N 0.34585 0.78113 -0.14479
 N295 N 0.39217 0.81155 -0.11800
 C296 C 0.41851 0.81345 -0.09409
 C297 C 0.42582 0.78520 -0.07296
 N298 N 0.40603 0.75660 -0.07652
 H299 H 0.31715 0.70193 -0.12646
 H300 H 0.43378 0.83657 -0.09190
 C301 C 0.11842 0.35425 0.23227
 C302 C 0.10092 0.36657 0.26415
 N303 N 0.10772 0.35157 0.29549
 C304 C 0.13146 0.32486 0.29647
 C305 C 0.14960 0.31278 0.26467
 N306 N 0.14245 0.32792 0.23330
 N307 N 0.11149 0.36913 0.20089
 C308 C 0.08794 0.39601 0.19997
 C309 C 0.07083 0.40890 0.23200
 N310 N 0.07777 0.39367 0.26334
 H311 H 0.13669 0.31389 0.32197
 H312 H 0.08310 0.40752 0.17461
 C313 C 0.10439 0.63379 0.74664
 C314 C 0.10133 0.61213 0.77558
 N315 N 0.12246 0.61665 0.80400
 C316 C 0.14678 0.64172 0.80479
 C317 C 0.15001 0.66376 0.77579
 N318 N 0.12827 0.65913 0.74758
 N319 N 0.08407 0.62861 0.71765
 C320 C 0.06091 0.60252 0.71619
 C321 C 0.05763 0.58085 0.74523
 N322 N 0.07788 0.58636 0.77438
 H323 H 0.16282 0.64444 0.82812
 H324 H 0.04520 0.59877 0.69263
 C325 C -0.10708 0.62534 0.24402
 C326 C -0.10447 0.60296 0.21326
 N327 N -0.12608 0.60804 0.18564
 C328 C -0.15041 0.63434 0.18733
 C329 C -0.15324 0.65717 0.21815
 N330 N -0.13104 0.65196 0.24561
 N331 N -0.08607 0.61970 0.27208
 C332 C -0.06264 0.59258 0.27081
 C333 C -0.05977 0.57022 0.23989
 N334 N -0.08077 0.57614 0.21175
 H335 H -0.16673 0.63741 0.16444
 H336 H -0.04631 0.58863 0.29363
 C337 C -0.10807 0.36446 0.73533
 C338 C -0.10231 0.38357 0.76749
 N339 N -0.11932 0.37546 0.79820
 C340 C -0.14249 0.34953 0.79829
 C341 C -0.14925 0.33049 0.76596
 N342 N -0.13116 0.33826 0.73530
 N343 N -0.09134 0.37321 0.70449
 C344 C -0.06936 0.40037 0.70439
 C345 C -0.06379 0.41965 0.73665
 N346 N -0.08035 0.41047 0.76743
 H347 H -0.15499 0.34386 0.82364
 H348 H -0.05652 0.40690 0.67940
 C349 C 0.22447 0.11114 0.39828
 C350 C 0.25784 0.09914 0.40785
 N351 N 0.28697 0.11256 0.39282
 C352 C 0.28429 0.13715 0.36824
 C353 C 0.25094 0.14897 0.35814
 N354 N 0.22173 0.13583 0.37376
 N355 N 0.19537 0.09727 0.41300
 C356 C 0.19813 0.07185 0.43676
 C357 C 0.23156 0.05971 0.44630
 N358 N 0.26061 0.07388 0.43162
 H359 H 0.30799 0.14734 0.35663
 H360 H 0.17446 0.06128 0.44805
 C361 C 0.77471 0.13058 0.61787
 C362 C 0.74124 0.11975 0.60818
 N363 N 0.71230 0.13477 0.62499
 C364 C 0.71527 0.15984 0.65142
 C365 C 0.74875 0.17054 0.66159
 N366 N 0.77775 0.15575 0.64422
 N367 N 0.80364 0.11512 0.60140
 C368 C 0.80064 0.08922 0.57577
 C369 C 0.76712 0.07823 0.56605
 N370 N 0.73821 0.09401 0.58251
 H371 H 0.69172 0.17129 0.66438
 H372 H 0.82420 0.07737 0.56315
 C373 C 0.25623 -0.12918 0.64221
 C374 C 0.22425 -0.12180 0.62610
 N375 N 0.19480 -0.13778 0.63689
 C376 C 0.19581 -0.16099 0.66303
 C377 C 0.22779 -0.16858 0.67938
 N378 N 0.25727 -0.15223 0.66855
 N379 N 0.28569 -0.11320 0.63119
 C380 C 0.28458 -0.09008 0.60483
 C381 C 0.25246 -0.08242 0.58887
 N382 N 0.22308 -0.09861 0.60004
 H383 H 0.17175 -0.17294 0.67126
 H384 H 0.30842 -0.07761 0.59671
 C385 C 0.74197 -0.12038 0.36113
 C386 C 0.77381 -0.11437 0.37803
 N387 N 0.80284 -0.13364 0.36753
 C388 C 0.80153 -0.15881 0.34093
 C389 C 0.76968 -0.16505 0.32375
 N390 N 0.74063 -0.14539 0.33433
 N391 N 0.71291 -0.10114 0.37188
 C392 C 0.71428 -0.07610 0.39872
 C393 C 0.74627 -0.06982 0.41553
 N394 N 0.77526 -0.08926 0.40460
 H395 H 0.82530 -0.17334 0.33300
 H396 H 0.69072 -0.06112 0.40662
 C397 C 0.62194 0.78624 -0.13573
 C398 C 0.61594 0.75671 -0.11643
 N399 N 0.63475 0.72724 -0.12514
 C400 C 0.65943 0.72578 -0.15227
 C401 C 0.66560 0.75524 -0.17231
 N402 N 0.64630 0.78479 -0.16332
 N403 N 0.60338 0.81589 -0.12644
 C404 C 0.57902 0.81724 -0.09880
 C405 C 0.57256 0.78742 -0.07979
 N406 N 0.59134 0.75787 -0.08926
 H407 H 0.67329 0.70149 -0.15825
 H408 H 0.56451 0.84115 -0.09210
 C409 C 0.38077 0.24447 -0.12432
 C410 C 0.38579 0.27475 -0.10324
 N411 N 0.36698 0.30387 -0.10989
 C412 C 0.34338 0.30409 -0.13670
 C413 C 0.33860 0.27373 -0.15834
 N414 N 0.35771 0.24480 -0.15124
 N415 N 0.39887 0.21510 -0.11751
 C416 C 0.42196 0.21457 -0.09047
 C417 C 0.42755 0.24493 -0.06945
 N418 N 0.40927 0.27445 -0.07643
 H419 H 0.32914 0.32785 -0.14116
 H420 H 0.43611 0.19074 -0.08576
 C421 C 0.37418 0.77546 0.12702
 C422 C 0.38236 0.74752 0.10272
 N423 N 0.36423 0.71800 0.10493
 C424 C 0.33829 0.71499 0.13043
 C425 C 0.33023 0.74277 0.15553
 N426 N 0.34870 0.77235 0.15287
 N427 N 0.39180 0.80530 0.12433
 C428 C 0.41736 0.80841 0.09844
 C429 C 0.42611 0.78021 0.07438
 N430 N 0.40825 0.75038 0.07723
 H431 H 0.32488 0.69084 0.13123
 H432 H 0.43099 0.83247 0.09697
 C433 C 0.61820 0.23927 0.13328
 C434 C 0.61142 0.26968 0.11550
 N435 N 0.63044 0.29808 0.12332
 C436 C 0.65599 0.29744 0.14813
 C437 C 0.66274 0.26700 0.16619
 N438 N 0.64342 0.23870 0.15819
 N439 N 0.59956 0.21071 0.12529
 C440 C 0.57440 0.21112 0.10019
 C441 C 0.56730 0.24158 0.08236
 N442 N 0.58606 0.27023 0.09058
 H443 H 0.67038 0.32060 0.15400
 H444 H 0.56001 0.18790 0.09435
 C445 C -0.14112 0.61224 0.74314
 C446 C -0.11742 0.60862 0.71358
 N447 N -0.12040 0.63021 0.68621
 C448 C -0.14567 0.65566 0.68721
 C449 C -0.16941 0.65985 0.71712
 N450 N -0.16655 0.63744 0.74410
 N451 N -0.13755 0.59133 0.77106
 C452 C -0.11103 0.56721 0.77094
 C453 C -0.08702 0.56365 0.74147
 N454 N -0.09105 0.58436 0.71328
 H455 H -0.14704 0.67206 0.66466
 H456 H -0.10855 0.55116 0.79377
 C457 C -0.12913 0.38182 0.23500
 C458 C -0.10596 0.38349 0.26356
 N459 N -0.10997 0.36184 0.29085
 C460 C -0.13601 0.33846 0.29089
 C461 C -0.15966 0.33675 0.26234
 N462 N -0.15542 0.35888 0.23523
 N463 N -0.12461 0.40272 0.20714
 C464 C -0.09781 0.42518 0.20646
 C465 C -0.07464 0.42718 0.23517
 N466 N -0.07943 0.40627 0.26319
 H467 H -0.13825 0.32197 0.31334
 H468 H -0.09474 0.44143 0.18381
 C469 C 0.13656 0.39573 0.75454
 C470 C 0.12023 0.39902 0.72151
 N471 N 0.13199 0.37926 0.69233
 C472 C 0.15906 0.35604 0.69479
 C473 C 0.17523 0.35238 0.72798
 N474 N 0.16364 0.37268 0.75698
 N475 N 0.12443 0.41490 0.78392
 C476 C 0.09646 0.43706 0.78191
 C477 C 0.07980 0.44031 0.74894
 N478 N 0.09233 0.42129 0.71939
 H479 H 0.16786 0.34064 0.67108
 H480 H 0.08727 0.45187 0.80588
 C481 C 0.13828 0.59934 0.22732
 C482 C 0.11870 0.59472 0.25916
 N483 N 0.12501 0.61449 0.28910
 C484 C 0.14955 0.63921 0.28867
 C485 C 0.16912 0.64461 0.25663
 N486 N 0.16318 0.62388 0.22683
 N487 N 0.13115 0.58003 0.19712
 C488 C 0.10514 0.55657 0.19731
 C489 C 0.08542 0.55203 0.22923
 N490 N 0.09300 0.57117 0.25945
 H491 H 0.15380 0.65397 0.31341
 H492 H 0.09984 0.54174 0.17278
 C493 C 0.73457 -0.11077 0.61981
 C494 C 0.76775 -0.10443 0.60442
 N495 N 0.79636 -0.12238 0.61484
 C496 C 0.79330 -0.14683 0.63955
 C497 C 0.76006 -0.15387 0.65461
 N498 N 0.73143 -0.13528 0.64457
 N499 N 0.70595 -0.09298 0.60895
 C500 C 0.70897 -0.06931 0.58327
 C501 C 0.74216 -0.06314 0.56756
 N502 N 0.77077 -0.08086 0.57880
 H503 H 0.81663 -0.16076 0.64726
 H504 H 0.68565 -0.05563 0.57509
 C505 C 0.26127 -0.13067 0.37879
 C506 C 0.22876 -0.12396 0.39687
 N507 N 0.20023 -0.14161 0.38648
 C508 C 0.20275 -0.16599 0.35903
 C509 C 0.23532 -0.17311 0.34100
 N510 N 0.26382 -0.15496 0.35121
 N511 N 0.28987 -0.11324 0.38955
 C512 C 0.28746 -0.08943 0.41763
 C513 C 0.25490 -0.08264 0.43579
 N514 N 0.22630 -0.10011 0.42476
 H515 H 0.17950 -0.17958 0.35130
 H516 H 0.31071 -0.07591 0.42557
 C517 C 0.76985 0.12690 0.37287
 C518 C 0.73711 0.11367 0.38237
 N519 N 0.70750 0.12705 0.36854
 C520 C 0.70907 0.15310 0.34549
 C521 C 0.74176 0.16670 0.33598
 N522 N 0.77145 0.15324 0.35012
 N523 N 0.79945 0.11317 0.38657
 C524 C 0.79777 0.08692 0.40952
 C525 C 0.76490 0.07400 0.41951
 N526 N 0.73539 0.08782 0.40554
 H527 H 0.68495 0.16344 0.33520
 H528 H 0.82175 0.07668 0.42026
 C529 C 0.23259 0.11970 0.63724
 C530 C 0.26436 0.10128 0.62989
 N531 N 0.29419 0.11225 0.64523
 C532 C 0.29379 0.14100 0.66755
 C533 C 0.26218 0.16002 0.67445
 N534 N 0.23225 0.14881 0.65904
 N535 N 0.20274 0.10845 0.62201
 C536 C 0.20333 0.07981 0.59935
 C537 C 0.23537 0.06195 0.59113
 N538 N 0.26507 0.07317 0.60683
 H539 H 0.31808 0.14941 0.67899
 H540 H 0.17928 0.07171 0.58711
   
