data_POSCAR
  _audit_creation_date              2014-09-24
  _audit_creation_method            'ToBaCCo'
  _symmetry_space_group_name_H-M    'P1'
  _symmetry_Int_Tables_number       1
  _symmetry_cell_setting            triclinic
  loop_
  _symmetry_equiv_pos_as_xyz
 x,y,z
_cell_length_a 33.3462
_cell_length_b 33.2989
_cell_length_c 33.2400
_cell_angle_alpha 90.179500
_cell_angle_beta 90.102100
_cell_angle_gamma 89.921900
loop_
  _atom_site_label
  _atom_site_type_symbol
  _atom_site_fract_x
  _atom_site_fract_y
  _atom_site_fract_z
C1 C 0.20964 0.98032 0.02380
 C2 C 0.22177 0.97751 -0.01692
 C3 C 0.22638 1.01361 -0.03904
 C4 C 0.22085 1.05217 -0.02139
 C5 C 0.21304 1.05392 0.02056
 C6 C 0.20514 1.01817 0.04146
 H7 H 0.19634 1.01973 0.07284
 H8 H 0.23426 1.01139 -0.07040
 C9 C 0.72598 0.45884 0.49875
 C10 C 0.72685 0.46636 0.54066
 C11 C 0.72397 0.50618 0.55441
 C12 C 0.72050 0.53888 0.52783
 C13 C 0.71953 0.53157 0.48592
 C14 C 0.72101 0.49147 0.47220
 H15 H 0.71853 0.48521 0.44033
 H16 H 0.72471 0.51184 0.58656
 C17 C 0.76143 1.02220 0.97884
 C18 C 0.76615 0.98012 0.97700
 C19 C 0.76890 0.95813 1.01276
 C20 C 0.76494 0.97612 1.05110
 C21 C 0.76233 1.01858 1.05318
 C22 C 0.75939 1.04060 1.01709
 H23 H 0.75251 1.07217 1.01940
 H24 H 0.77604 0.92655 1.01011
 C25 C 0.26981 0.54020 0.46356
 C26 C 0.25736 0.49961 0.46351
 C27 C 0.25120 0.48026 0.50053
 C28 C 0.25969 0.49891 0.53751
 C29 C 0.27127 0.53959 0.53783
 C30 C 0.27697 0.55944 0.50082
 H31 H 0.28857 0.58975 0.50117
 H32 H 0.23867 0.45030 0.50074
 C33 C 1.03593 0.24767 0.01817
 C34 C 1.03821 0.25468 -0.02415
 C35 C 1.00185 0.25938 -0.04588
 C36 C 0.96391 0.25717 -0.02759
 C37 C 0.96187 0.25014 0.01404
 C38 C 0.99747 0.24316 0.03543
 H39 H 0.99441 0.23285 0.06603
 H40 H 1.00270 0.26406 -0.07786
 C41 C 0.47347 0.77167 0.51032
 C42 C 0.47320 0.77007 0.46799
 C43 C 0.50980 0.76629 0.44718
 C44 C 0.54676 0.76396 0.46784
 C45 C 0.54714 0.76692 0.51023
 C46 C 0.51043 0.77069 0.53075
 H47 H 0.51051 0.77236 0.56319
 H48 H 0.50940 0.76468 0.41464
 C49 C -0.01034 0.75871 0.03230
 C50 C 0.03183 0.76213 0.03201
 C51 C 0.05195 0.76641 -0.00475
 C52 C 0.03177 0.76588 -0.04229
 C53 C -0.01086 0.76491 -0.04196
 C54 C -0.03093 0.76218 -0.00472
 H55 H -0.06324 0.76457 -0.00476
 H56 H 0.08387 0.77164 -0.00314
 C57 C 0.47863 0.22086 0.53380
 C58 C 0.52076 0.21665 0.53269
 C59 C 0.54125 0.22217 0.49644
 C60 C 0.52114 0.23040 0.46009
 C61 C 0.47887 0.23345 0.46051
 C62 C 0.45840 0.22920 0.49742
 H63 H 0.42620 0.23209 0.49765
 H64 H 0.57365 0.22092 0.49742
 C65 C 0.95781 -0.03633 0.23965
 C66 C 0.95728 0.00611 0.24422
 C67 C 0.99388 0.02686 0.24732
 C68 C 1.03118 0.00766 0.24415
 C69 C 1.03256 -0.03431 0.23706
 C70 C 0.99570 -0.05551 0.23513
 H71 H 0.99647 -0.08726 0.22974
 H72 H 0.99340 0.05897 0.25222
 C73 C 0.46021 0.47350 0.72551
 C74 C 0.46064 0.51531 0.73372
 C75 C 0.49791 0.53487 0.73830
 C76 C 0.53452 0.51504 0.73174
 C77 C 0.53383 0.47408 0.72181
 C78 C 0.49700 0.45389 0.71844
 H79 H 0.49740 0.42252 0.70982
 H80 H 0.49840 0.56559 0.74893
 C81 C 1.02512 0.96273 0.77051
 C82 C 0.98289 0.95997 0.76976
 C83 C 0.95994 0.99574 0.76990
 C84 C 0.97783 1.03436 0.77032
 C85 C 1.02007 1.03615 0.77437
 C86 C 1.04281 1.00090 0.77311
 H87 H 1.07509 1.00403 0.77297
 H88 H 0.92784 0.99307 0.77247
 C89 C 0.46886 0.52217 0.25401
 C90 C 0.51109 0.52445 0.25362
 C91 C 0.53350 0.48895 0.25944
 C92 C 0.51507 0.45113 0.26412
 C93 C 0.47275 0.44923 0.26420
 C94 C 0.45052 0.48500 0.26027
 H95 H 0.41807 0.48420 0.26169
 H96 H 0.56580 0.49088 0.25889
 O97 O 0.22948 0.14637 0.21384
 O98 O 0.27193 0.13418 0.26933
 O99 O 0.12530 0.19640 0.27701
 O100 O 0.10994 0.25037 0.31173
 O101 O 0.17002 0.24992 0.16539
 O102 O 0.22539 0.29371 0.15215
 O103 O 0.23505 0.30668 0.37186
 O104 O 0.18744 0.25536 0.38486
 O105 O 0.33443 0.25407 0.32134
 O106 O 0.34471 0.20596 0.26418
 O107 O 0.28384 0.35404 0.26379
 O108 O 0.22445 0.36720 0.22452
 O109 O 0.23572 0.35495 0.32359
 O110 O 0.18365 0.36603 0.26892
 O111 O 0.33257 0.30617 0.26467
 O112 O 0.34338 0.24761 0.22060
 O113 O 0.28722 0.25478 0.37064
 O114 O 0.23278 0.20683 0.38453
 O115 O 0.22610 0.19350 0.16451
 O116 O 0.27015 0.24909 0.15171
 O117 O 0.12376 0.25085 0.21561
 O118 O 0.11723 0.29966 0.27192
 O119 O 0.17243 0.14719 0.27108
 O120 O 0.22941 0.13645 0.31503
 Zr121 Zr 0.22704 0.17900 0.26801
 O122 O 0.26624 0.21352 0.30383
 Zr123 Zr 0.15713 0.25017 0.26932
 O124 O 0.19269 0.28749 0.30610
 Zr125 Zr 0.22513 0.24823 0.19641
 O126 O 0.26351 0.28616 0.22952
 Zr127 Zr 0.23237 0.25247 0.34010
 O128 O 0.19298 0.21480 0.30763
 Zr129 Zr 0.30062 0.25170 0.26743
 O130 O 0.26501 0.21329 0.23099
 Zr131 Zr 0.22990 0.32236 0.26916
 O132 O 0.19110 0.28798 0.23208
 O133 O 0.18865 0.21179 0.23132
 O134 O 0.26881 0.28973 0.30565
 C135 C 0.22885 0.15702 0.17675
 C136 C 0.13611 0.15939 0.27589
 C137 C 0.13375 0.25124 0.17832
 C138 C 0.23734 0.34334 0.36046
 C139 C 0.32364 0.25555 0.35849
 C140 C 0.32058 0.34280 0.26252
 H141 H 0.28347 0.19555 0.31995
 H142 H 0.27914 0.30234 0.21025
 H143 H 0.17096 0.19424 0.21503
 H144 H 0.17554 0.30412 0.32378
 H145 H 0.16660 0.23557 0.37722
 H146 H 0.12057 0.26262 0.33669
 H147 H 0.33650 0.26815 0.20029
 H148 H 0.29116 0.22998 0.16048
 H149 H 0.25493 0.18799 0.37856
 H150 H 0.21108 0.14629 0.33630
 H151 H 0.24195 0.35928 0.20183
 H152 H 0.20634 0.31463 0.16132
 H153 H 0.29455 0.14459 0.25321
 H154 H 0.34122 0.18811 0.28764
 H155 H 0.12422 0.31769 0.24938
 H156 H 0.16814 0.36323 0.29409
 O157 O 0.75471 0.82696 0.18243
 O158 O 0.71249 0.83865 0.23756
 O159 O 0.85801 0.77325 0.24059
 O160 O 0.87347 0.71852 0.27393
 O161 O 0.80725 0.72057 0.13018
 O162 O 0.75175 0.68169 0.11555
 O163 O 0.74697 0.66247 0.33706
 O164 O 0.79557 0.71247 0.35048
 O165 O 0.64839 0.71643 0.28704
 O166 O 0.63451 0.76232 0.23599
 O167 O 0.69832 0.61691 0.22958
 O168 O 0.75551 0.60413 0.18828
 O169 O 0.75007 0.61572 0.28713
 O170 O 0.79874 0.60601 0.22978
 O171 O 0.64979 0.66495 0.23007
 O172 O 0.64095 0.72782 0.18569
 O173 O 0.69478 0.71881 0.33722
 O174 O 0.74615 0.76264 0.35099
 O175 O 0.75303 0.77966 0.13289
 O176 O 0.70707 0.72412 0.12004
 O177 O 0.85649 0.72096 0.17766
 O178 O 0.86390 0.67036 0.23422
 O179 O 0.81205 0.82370 0.23826
 O180 O 0.75256 0.83376 0.28433
 Zr181 Zr 0.75630 0.79276 0.23566
 O182 O 0.71702 0.75742 0.27057
 Zr183 Zr 0.82483 0.72052 0.23316
 O184 O 0.78963 0.68342 0.27042
 Zr185 Zr 0.75418 0.72430 0.16277
 O186 O 0.71721 0.68531 0.19515
 Zr187 Zr 0.75018 0.71752 0.30620
 O188 O 0.79031 0.75535 0.27391
 Zr189 Zr 0.68160 0.71976 0.23398
 O190 O 0.71639 0.75961 0.19888
 Zr191 Zr 0.75198 0.64897 0.23340
 O192 O 0.78944 0.68371 0.19599
 O193 O 0.79260 0.75979 0.19704
 O194 O 0.71341 0.68080 0.27120
 C195 C 0.75293 0.81616 0.14531
 C196 C 0.84830 0.81050 0.24117
 C197 C 0.84405 0.71988 0.14089
 C198 C 0.74773 0.62597 0.32433
 C199 C 0.65838 0.71740 0.32421
 C200 C 0.66165 0.62818 0.22828
 H201 H 0.70041 0.77530 0.28756
 H202 H 0.70117 0.66944 0.17579
 H203 H 0.81017 0.77716 0.18060
 H204 H 0.80721 0.66659 0.28744
 H205 H 0.81603 0.73295 0.34404
 H206 H 0.86221 0.71065 0.30022
 H207 H 0.64266 0.70381 0.16816
 H208 H 0.68824 0.74577 0.12786
 H209 H 0.76701 0.78273 0.34488
 H210 H 0.77754 0.83122 0.30023
 H211 H 0.73726 0.61212 0.16621
 H212 H 0.76726 0.65806 0.12475
 H213 H 0.68984 0.82922 0.22074
 H214 H 0.64459 0.78594 0.25096
 H215 H 0.85806 0.65419 0.20987
 H216 H 0.81560 0.60871 0.25415
 O217 O 0.74807 0.14852 0.82979
 O218 O 0.68852 0.13144 0.78622
 O219 O 0.83790 0.17628 0.74279
 O220 O 0.84170 0.21776 0.68856
 O221 O 0.81552 0.25494 0.84201
 O222 O 0.76499 0.30588 0.85440
 O223 O 0.71243 0.27337 0.64447
 O224 O 0.75556 0.21774 0.63389
 O225 O 0.62425 0.23958 0.72367
 O226 O 0.62595 0.19864 0.78857
 O227 O 0.68255 0.34132 0.74444
 O228 O 0.75125 0.35876 0.77571
 O229 O 0.72594 0.32940 0.68132
 O230 O 0.77936 0.35170 0.72239
 O231 O 0.63756 0.29679 0.76980
 O232 O 0.63410 0.24823 0.82290
 O233 O 0.65958 0.22469 0.66708
 O234 O 0.70578 0.17279 0.65382
 O235 O 0.75969 0.20556 0.86586
 O236 O 0.72166 0.26515 0.87512
 O237 O 0.85146 0.24148 0.78545
 O238 O 0.84934 0.27610 0.72101
 O239 O 0.78860 0.13232 0.75995
 O240 O 0.72900 0.11211 0.74143
 Zr241 Zr 0.73782 0.16808 0.77022
 O242 O 0.69366 0.19631 0.73479
 Zr243 Zr 0.80780 0.23219 0.74041
 O244 O 0.76612 0.26431 0.70483
 Zr245 Zr 0.75554 0.25126 0.82317
 O246 O 0.71111 0.28271 0.79147
 Zr247 Zr 0.71984 0.22598 0.68584
 O248 O 0.76373 0.19253 0.71777
 Zr249 Zr 0.66788 0.24229 0.76938
 O250 O 0.70937 0.21158 0.80613
 Zr251 Zr 0.73670 0.30817 0.73982
 O252 O 0.78252 0.27980 0.77391
 O253 O 0.78320 0.20539 0.79093
 O254 O 0.69133 0.27080 0.71884
 C255 C 0.75547 0.16749 0.86282
 C256 C 0.82489 0.14068 0.75034
 C257 C 0.84870 0.24985 0.82312
 C258 C 0.71658 0.31159 0.64827
 C259 C 0.62669 0.23217 0.68586
 C260 C 0.64758 0.33171 0.75773
 H261 H 0.67363 0.17651 0.72539
 H262 H 0.69934 0.30314 0.80959
 H263 H 0.80335 0.19041 0.80686
 H264 H 0.78002 0.27634 0.68156
 H265 H 0.77624 0.19758 0.64088
 H266 H 0.82937 0.23187 0.66550
 H267 H 0.64585 0.27063 0.83855
 H268 H 0.69880 0.24621 0.87554
 H269 H 0.72676 0.15292 0.66071
 H270 H 0.71420 0.11766 0.71626
 H271 H 0.73095 0.36096 0.79728
 H272 H 0.78292 0.32236 0.83745
 H273 H 0.67650 0.14333 0.81073
 H274 H 0.62116 0.17970 0.76609
 H275 H 0.84612 0.29965 0.73898
 H276 H 0.79842 0.33829 0.70394
 O277 O 0.28276 0.87057 0.81754
 O278 O 0.32051 0.88650 0.76171
 O279 O 0.17224 0.82876 0.76220
 O280 O 0.15474 0.78075 0.71878
 O281 O 0.22218 0.76204 0.86118
 O282 O 0.27716 0.72046 0.87080
 O283 O 0.27049 0.72515 0.64739
 O284 O 0.23102 0.77993 0.63928
 O285 O 0.37782 0.76749 0.70080
 O286 O 0.39321 0.80885 0.75982
 O287 O 0.32590 0.66464 0.74450
 O288 O 0.27047 0.64946 0.78829
 O289 O 0.27154 0.67233 0.69068
 O290 O 0.22434 0.65838 0.74982
 O291 O 0.37551 0.71125 0.74874
 O292 O 0.38934 0.76488 0.80130
 O293 O 0.33001 0.77142 0.65208
 O294 O 0.27597 0.82710 0.64726
 O295 O 0.27693 0.82066 0.86388
 O296 O 0.32376 0.76234 0.86899
 O297 O 0.17222 0.76806 0.81488
 O298 O 0.16112 0.72624 0.75362
 O299 O 0.22203 0.87536 0.76610
 O300 O 0.27672 0.88668 0.71708
 Zr301 Zr 0.27547 0.84194 0.76210
 O302 O 0.31237 0.80929 0.72259
 Zr303 Zr 0.20299 0.77367 0.75950
 O304 O 0.23562 0.73917 0.71742
 Zr305 Zr 0.27523 0.76743 0.82826
 O306 O 0.30967 0.73000 0.79039
 Zr307 Zr 0.27546 0.77541 0.68449
 O308 O 0.23799 0.81075 0.72190
 Zr309 Zr 0.34598 0.76668 0.75471
 O310 O 0.31405 0.80401 0.79488
 Zr311 Zr 0.27303 0.69910 0.74879
 O312 O 0.23803 0.73167 0.79118
 O313 O 0.23818 0.80751 0.79838
 O314 O 0.31146 0.73371 0.71409
 C315 C 0.28111 0.85783 0.85378
 C316 C 0.18491 0.86508 0.76544
 C317 C 0.18511 0.76292 0.85103
 C318 C 0.27000 0.68753 0.65506
 C319 C 0.36666 0.76826 0.66398
 C320 C 0.36298 0.67506 0.74454
 H321 H 0.32980 0.82783 0.70746
 H322 H 0.32567 0.71127 0.80694
 H323 H 0.22190 0.82361 0.81739
 H324 H 0.21662 0.72514 0.69938
 H325 H 0.20926 0.79679 0.65054
 H326 H 0.16399 0.77051 0.69243
 H327 H 0.38506 0.74002 0.81692
 H328 H 0.34265 0.78432 0.86261
 H329 H 0.30324 0.83873 0.64751
 H330 H 0.25392 0.88125 0.69874
 H331 H 0.28977 0.65450 0.81035
 H332 H 0.26250 0.69769 0.85849
 H333 H 0.34459 0.87400 0.77383
 H334 H 0.38843 0.83028 0.73984
 H335 H 0.16787 0.70616 0.77447
 H336 H 0.20744 0.66368 0.72592
 O337 O 0.25574 0.35388 0.67658
 O338 O 0.21510 0.37337 0.73468
 O339 O 0.34875 0.28540 0.73469
 O340 O 0.35216 0.23086 0.77453
 O341 O 0.28868 0.23614 0.62855
 O342 O 0.22403 0.20902 0.61632
 O343 O 0.22565 0.19520 0.83627
 O344 O 0.28168 0.24127 0.84614
 O345 O 0.13488 0.27295 0.78800
 O346 O 0.13404 0.32141 0.73035
 O347 O 0.15877 0.16368 0.73499
 O348 O 0.21249 0.13948 0.68606
 O349 O 0.21360 0.14986 0.78648
 O350 O 0.25235 0.12807 0.72957
 O351 O 0.12211 0.22116 0.73083
 O352 O 0.12165 0.27906 0.68952
 O353 O 0.18073 0.25950 0.83689
 O354 O 0.23877 0.29218 0.85201
 O355 O 0.24867 0.30566 0.62840
 O356 O 0.19219 0.26263 0.61664
 O357 O 0.33730 0.22914 0.67613
 O358 O 0.33771 0.18292 0.73245
 O359 O 0.31147 0.34260 0.73198
 O360 O 0.26094 0.36557 0.77671
 Zr361 Zr 0.25209 0.32183 0.73129
 O362 O 0.20884 0.29565 0.76918
 Zr363 Zr 0.30641 0.23827 0.73100
 O364 O 0.26482 0.20824 0.76823
 Zr365 Zr 0.23713 0.25288 0.66053
 O366 O 0.19252 0.22449 0.69457
 Zr367 Zr 0.23428 0.24980 0.80463
 O368 O 0.27910 0.27988 0.77052
 Zr369 Zr 0.16580 0.26639 0.73350
 O370 O 0.20682 0.29607 0.69543
 Zr371 Zr 0.21924 0.18223 0.73289
 O372 O 0.26378 0.20760 0.69543
 O373 O 0.28164 0.28150 0.69367
 O374 O 0.18934 0.22185 0.77105
 C375 C 0.25418 0.34210 0.63968
 C376 C 0.34508 0.32392 0.73429
 C377 C 0.32472 0.22822 0.63949
 C378 C 0.21778 0.15944 0.82361
 C379 C 0.14528 0.26894 0.82491
 C380 C 0.12532 0.18289 0.73288
 H381 H 0.19669 0.31678 0.78620
 H382 H 0.17277 0.21208 0.67616
 H383 H 0.30216 0.29430 0.67648
 H384 H 0.27925 0.18812 0.78460
 H385 H 0.30321 0.26038 0.83883
 H386 H 0.33976 0.21831 0.79837
 H387 H 0.12636 0.26074 0.66653
 H388 H 0.17676 0.28650 0.62546
 H389 H 0.23962 0.31901 0.83952
 H390 H 0.27925 0.35355 0.79685
 H391 H 0.18897 0.14731 0.66967
 H392 H 0.23549 0.18345 0.62621
 H393 H 0.19383 0.36995 0.71415
 H394 H 0.14184 0.33797 0.75384
 H395 H 0.32492 0.16523 0.71218
 H396 H 0.27536 0.13060 0.74821
 O397 O 0.75079 0.65313 0.69770
 O398 O 0.77528 0.62910 0.75235
 O399 O 0.63692 0.70190 0.75012
 O400 O 0.62558 0.75114 0.79978
 O401 O 0.68910 0.76241 0.65323
 O402 O 0.74626 0.80297 0.64436
 O403 O 0.74191 0.79814 0.86712
 O404 O 0.70100 0.74419 0.87710
 O405 O 0.84671 0.75105 0.81547
 O406 O 0.85898 0.70811 0.76156
 O407 O 0.79812 0.85596 0.76594
 O408 O 0.74335 0.87435 0.72747
 O409 O 0.74626 0.85069 0.82383
 O410 O 0.69745 0.86670 0.76552
 O411 O 0.84713 0.80855 0.76283
 O412 O 0.85788 0.75267 0.71396
 O413 O 0.79757 0.74397 0.86224
 O414 O 0.73690 0.69625 0.86677
 O415 O 0.74464 0.70247 0.65093
 O416 O 0.79054 0.75919 0.64489
 O417 O 0.64090 0.76460 0.70155
 O418 O 0.62947 0.80114 0.76340
 O419 O 0.68293 0.65148 0.74708
 O420 O 0.73905 0.63947 0.80043
 Zr421 Zr 0.73920 0.68130 0.75259
 O422 O 0.77857 0.71213 0.79171
 Zr423 Zr 0.67120 0.75383 0.75576
 O424 O 0.70547 0.78635 0.79754
 Zr425 Zr 0.74274 0.75566 0.68645
 O426 O 0.77925 0.79106 0.72443
 Zr427 Zr 0.74334 0.74763 0.82998
 O428 O 0.70378 0.71437 0.79287
 Zr429 Zr 0.81477 0.75363 0.76077
 O430 O 0.78022 0.71772 0.72067
 Zr431 Zr 0.74450 0.82392 0.76595
 O432 O 0.70780 0.79363 0.72364
 O433 O 0.70374 0.71766 0.71625
 O434 O 0.78168 0.78804 0.80134
 C435 C 0.75028 0.66563 0.66135
 C436 C 0.64657 0.66485 0.74704
 C437 C 0.65260 0.76691 0.66491
 C438 C 0.74382 0.83568 0.85940
 C439 C 0.83455 0.74632 0.85183
 C440 C 0.83489 0.84527 0.76384
 H441 H 0.79523 0.69253 0.80656
 H442 H 0.79550 0.80894 0.70730
 H443 H 0.68720 0.70260 0.69658
 H444 H 0.68728 0.80150 0.81548
 H445 H 0.67611 0.75696 0.86716
 H446 H 0.63373 0.73020 0.81925
 H447 H 0.85295 0.77612 0.69644
 H448 H 0.80994 0.73794 0.65236
 H449 H 0.76196 0.68041 0.86496
 H450 H 0.71274 0.64182 0.81400
 H451 H 0.75725 0.86643 0.70241
 H452 H 0.72939 0.82502 0.65506
 H453 H 0.80311 0.63819 0.75712
 H454 H 0.84851 0.68594 0.74469
 H455 H 0.63833 0.82337 0.74586
 H456 H 0.68225 0.86400 0.79090
 O457 O 0.28073 0.66799 0.31006
 O458 O 0.23878 0.64057 0.25409
 O459 O 0.37883 0.72169 0.24602
 O460 O 0.38322 0.76369 0.19164
 O461 O 0.32042 0.78531 0.33646
 O462 O 0.25578 0.82608 0.33486
 O463 O 0.26180 0.79178 0.12152
 O464 O 0.31638 0.74700 0.12192
 O465 O 0.16678 0.73361 0.17710
 O466 O 0.16391 0.69053 0.24110
 O467 O 0.19184 0.84643 0.21590
 O468 O 0.24763 0.87685 0.25810
 O469 O 0.24635 0.84607 0.16030
 O470 O 0.28566 0.87915 0.21148
 O471 O 0.15422 0.79000 0.22316
 O472 O 0.15044 0.74540 0.27602
 O473 O 0.21671 0.73076 0.13062
 O474 O 0.27375 0.69199 0.12859
 O475 O 0.26808 0.72393 0.34738
 O476 O 0.22532 0.77423 0.35338
 O477 O 0.36753 0.78839 0.28717
 O478 O 0.37146 0.82136 0.22518
 O479 O 0.33906 0.66656 0.25236
 O480 O 0.29202 0.63392 0.21967
 Zr481 Zr 0.28017 0.68857 0.24993
 O482 O 0.23966 0.70766 0.20513
 Zr483 Zr 0.33759 0.76865 0.23561
 O484 O 0.29812 0.79245 0.19224
 Zr485 Zr 0.26664 0.77070 0.30537
 O486 O 0.22312 0.79206 0.26447
 Zr487 Zr 0.26837 0.74502 0.16345
 O488 O 0.31045 0.72067 0.20439
 Zr489 Zr 0.19640 0.74456 0.23230
 O490 O 0.23511 0.72284 0.27799
 Zr491 Zr 0.25204 0.82599 0.22001
 O492 O 0.29542 0.80722 0.26298
 O493 O 0.31032 0.73425 0.28004
 O494 O 0.22317 0.78030 0.18870
 C495 C 0.27403 0.68604 0.34369
 C496 C 0.37350 0.68378 0.25099
 C497 C 0.35635 0.79183 0.32380
 C498 C 0.25242 0.82894 0.12612
 C499 C 0.17974 0.72913 0.14091
 C500 C 0.15800 0.82783 0.21765
 H501 H 0.22762 0.68423 0.19137
 H502 H 0.20281 0.80780 0.27939
 H503 H 0.32920 0.72349 0.30036
 H504 H 0.31344 0.80874 0.17281
 H505 H 0.33828 0.73037 0.13320
 H506 H 0.37386 0.77764 0.16711
 H507 H 0.16204 0.73377 0.30083
 H508 H 0.19828 0.77401 0.34116
 H509 H 0.29593 0.67623 0.14048
 H510 H 0.28125 0.63678 0.19211
 H511 H 0.22525 0.87213 0.27700
 H512 H 0.27693 0.84492 0.32603
 H513 H 0.21881 0.64821 0.27475
 H514 H 0.16762 0.67308 0.21726
 H515 H 0.35649 0.84386 0.23764
 H516 H 0.30879 0.87237 0.19415
 O517 O 0.77140 0.35716 0.32303
 O518 O 0.80905 0.37339 0.26569
 O519 O 0.66148 0.31330 0.26796
 O520 O 0.64638 0.26548 0.22294
 O521 O 0.71291 0.24683 0.36649
 O522 O 0.76994 0.20719 0.37616
 O523 O 0.76789 0.20811 0.15464
 O524 O 0.71899 0.25960 0.14696
 O525 O 0.86808 0.26071 0.20522
 O526 O 0.88269 0.29901 0.26611
 O527 O 0.81982 0.15251 0.25201
 O528 O 0.76305 0.13867 0.29881
 O529 O 0.76621 0.15665 0.19943
 O530 O 0.71982 0.14193 0.25624
 O531 O 0.86800 0.20074 0.25196
 O532 O 0.88168 0.25356 0.30515
 O533 O 0.81977 0.26228 0.15683
 O534 O 0.76358 0.30905 0.14904
 O535 O 0.76763 0.30735 0.36961
 O536 O 0.81413 0.25103 0.37555
 O537 O 0.66308 0.25130 0.31981
 O538 O 0.65231 0.21073 0.25984
 O539 O 0.71048 0.36073 0.27117
 O540 O 0.76367 0.37392 0.22321
 Zr541 Zr 0.76445 0.32838 0.26741
 O542 O 0.80149 0.29629 0.22768
 Zr543 Zr 0.69370 0.25869 0.26485
 O544 O 0.72726 0.22362 0.22369
 Zr545 Zr 0.76620 0.25439 0.33397
 O546 O 0.80219 0.21805 0.29646
 Zr547 Zr 0.76581 0.26034 0.18997
 O548 O 0.72807 0.29599 0.22703
 Zr549 Zr 0.83707 0.25530 0.25974
 O550 O 0.80412 0.29163 0.30013
 Zr551 Zr 0.76602 0.18550 0.25596
 O552 O 0.72975 0.21786 0.29711
 O553 O 0.72799 0.29342 0.30396
 O554 O 0.80334 0.22050 0.22016
 C555 C 0.77119 0.34449 0.35938
 C556 C 0.67354 0.34994 0.27060
 C557 C 0.67592 0.24573 0.35588
 C558 C 0.76799 0.17064 0.16349
 C559 C 0.85658 0.26270 0.16845
 C560 C 0.85647 0.16403 0.24967
 H561 H 0.81800 0.31562 0.21249
 H562 H 0.81890 0.20003 0.31308
 H563 H 0.71141 0.30913 0.32304
 H564 H 0.70907 0.20842 0.20577
 H565 H 0.69834 0.27872 0.15660
 H566 H 0.65412 0.25075 0.19826
 H567 H 0.87810 0.22857 0.32074
 H568 H 0.83435 0.27088 0.36678
 H569 H 0.78439 0.32868 0.15693
 H570 H 0.74274 0.36640 0.20341
 H571 H 0.78647 0.14126 0.31693
 H572 H 0.75508 0.18432 0.36428
 H573 H 0.83230 0.36279 0.28088
 H574 H 0.87650 0.32116 0.24733
 H575 H 0.66137 0.18953 0.27860
 H576 H 0.70132 0.14797 0.23375
 C577 C 0.21202 0.09218 0.04395
 C578 C 0.22771 0.09373 0.08106
 C579 C 0.22401 0.12889 0.10772
 C580 C 0.23171 0.12446 0.14698
 H581 H 0.24285 0.06746 0.09295
 H582 H 0.21409 0.15749 0.09578
 H583 H 0.19765 0.11852 0.03145
 H584 H 0.23988 0.09501 0.15827
 C585 C 0.71829 0.58023 0.54484
 C586 C 0.74324 0.59192 0.57413
 C587 C 0.73805 0.62985 0.59677
 C588 C 0.75845 0.63450 0.63106
 H589 H 0.76680 0.57148 0.58357
 H590 H 0.71541 0.65148 0.58792
 H591 H 0.69514 0.60051 0.53438
 H592 H 0.77880 0.61082 0.64040
 C593 C 0.76453 0.95188 0.08608
 C594 C 0.75439 0.91287 0.08491
 C595 C 0.75640 0.88607 0.11992
 C596 C 0.75081 0.84677 0.11382
 H597 H 0.74332 0.89959 0.05730
 H598 H 0.76335 0.89783 0.14955
 H599 H 0.77134 0.96501 0.11512
 H600 H 0.74518 0.83593 0.08351
 C601 C 0.25543 0.47535 0.57526
 C602 C 0.26526 0.43641 0.57630
 C603 C 0.25889 0.41095 0.61180
 C604 C 0.26055 0.37112 0.60720
 H605 H 0.27770 0.42231 0.54964
 H606 H 0.25180 0.42431 0.64070
 H607 H 0.24431 0.48991 0.60221
 H608 H 0.26593 0.35874 0.57745
 C609 C 0.75707 0.04463 0.94306
 C610 C 0.76096 0.08451 0.94067
 C611 C 0.75581 0.10517 0.90209
 C612 C 0.76031 0.14482 0.90017
 H613 H 0.76952 0.10246 0.96643
 H614 H 0.74824 0.08803 0.87535
 H615 H 0.75105 0.02888 0.91516
 H616 H 0.76767 0.16158 0.92724
 C617 C 0.27656 0.56205 0.42506
 C618 C 0.27129 0.60176 0.42153
 C619 C 0.27659 0.62271 0.38285
 C620 C 0.27237 0.66261 0.38118
 H621 H 0.26153 0.61925 0.44724
 H622 H 0.28306 0.60557 0.35584
 H623 H 0.28490 0.54498 0.39856
 H624 H 0.26608 0.67907 0.40868
 C625 C 0.22697 0.93963 0.96431
 C626 C 0.25254 0.93331 0.93386
 C627 C 0.25626 0.89395 0.91350
 C628 C 0.28355 0.88945 0.88448
 H629 H 0.27180 0.95740 0.92372
 H630 H 0.23443 0.87055 0.91917
 H631 H 0.21136 0.91382 0.97633
 H632 H 0.30354 0.91425 0.87796
 C633 C 0.73192 0.41809 0.48123
 C634 C 0.75694 0.41252 0.45031
 C635 C 0.75760 0.37522 0.42616
 C636 C 0.77530 0.37599 0.39015
 H637 H 0.77520 0.43756 0.44041
 H638 H 0.74068 0.34915 0.43562
 H639 H 0.71388 0.39327 0.49153
 H640 H 0.78978 0.40350 0.38054
 C641 C 0.07061 0.24690 0.04332
 C642 C 0.06920 0.25151 0.08354
 C643 C 0.10508 0.24998 0.10940
 C644 C 0.10055 0.25279 0.14930
 H645 H 0.04132 0.25817 0.09865
 H646 H 0.13453 0.24609 0.09620
 H647 H 0.10015 0.24469 0.03032
 H648 H 0.07062 0.25596 0.16169
 C649 C 0.58515 0.76266 0.53359
 C650 C 0.59022 0.77970 0.56972
 C651 C 0.62473 0.77033 0.59575
 C652 C 0.62115 0.77609 0.63535
 H653 H 0.56746 0.79966 0.58164
 H654 H 0.65168 0.75715 0.58315
 H655 H 0.60876 0.74369 0.52164
 H656 H 0.59289 0.78713 0.64721
 C657 C 0.05382 0.76684 0.92111
 C658 C 0.09314 0.75824 0.91887
 C659 C 0.11699 0.76267 0.88181
 C660 C 0.15672 0.75778 0.88432
 H661 H 0.10907 0.74699 0.94483
 H662 H 0.10280 0.77105 0.85370
 H663 H 0.03876 0.77371 0.89317
 H664 H 0.16988 0.75044 0.91327
 C665 C 0.54457 0.23872 0.42279
 C666 C 0.58201 0.22521 0.41739
 C667 C 0.60737 0.23829 0.38375
 C668 C 0.64720 0.23608 0.38784
 H669 H 0.59540 0.20490 0.43892
 H670 H 0.59388 0.25013 0.35657
 H671 H 0.53151 0.25804 0.40009
 H672 H 0.65970 0.22593 0.41621
 C673 C 0.96872 0.75224 0.06881
 C674 C 0.93162 0.73710 0.07047
 C675 C 0.90963 0.73286 0.10864
 C676 C 0.87239 0.71855 0.10732
 H677 H 0.91670 0.72700 0.04334
 H678 H 0.92232 0.74391 0.13660
 H679 H 0.98349 0.75776 0.09727
 H680 H 0.86013 0.70913 0.07852
 C681 C 0.45582 0.21869 0.57243
 C682 C 0.41686 0.20914 0.57405
 C683 C 0.39241 0.21615 0.61039
 C684 C 0.35250 0.21767 0.60673
 H685 H 0.40164 0.19828 0.54738
 H686 H 0.40674 0.22277 0.63893
 H687 H 0.47049 0.22775 0.59999
 H688 H 0.33919 0.21272 0.57732
 C689 C 0.92676 0.26278 0.94803
 C690 C 0.92447 0.25328 0.90889
 C691 C 0.88697 0.25786 0.88606
 C692 C 0.88625 0.25118 0.84634
 H693 H 0.94989 0.24028 0.89339
 H694 H 0.85964 0.26532 0.90206
 H695 H 0.90013 0.27417 0.96283
 H696 H 0.91391 0.24417 0.83070
 C697 C 0.43461 0.76925 0.44570
 C698 C 0.42889 0.78963 0.41167
 C699 C 0.39109 0.78618 0.38883
 C700 C 0.38833 0.80238 0.35230
 H701 H 0.45290 0.80803 0.39982
 H702 H 0.36710 0.76738 0.40011
 H703 H 0.41005 0.75197 0.45810
 H704 H 0.41365 0.81902 0.34052
 C705 C 0.06812 0.03294 0.24485
 C706 C 0.07184 0.06512 0.26878
 C707 C 0.10663 0.09214 0.26601
 C708 C 0.10395 0.12959 0.28028
 H709 H 0.04821 0.07266 0.28984
 H710 H 0.13341 0.08228 0.25037
 H711 H 0.09220 0.02586 0.22415
 H712 H 0.07598 0.13971 0.29352
 C713 C 0.57327 0.53644 0.73796
 C714 C 0.57709 0.57565 0.73092
 C715 C 0.61439 0.59784 0.73924
 C716 C 0.61248 0.63777 0.74067
 H717 H 0.55179 0.59237 0.71913
 H718 H 0.64236 0.58210 0.74457
 H719 H 0.59916 0.51974 0.74841
 H720 H 0.58353 0.65217 0.73654
 C721 C 0.95445 0.07003 0.76813
 C722 C 0.91589 0.07100 0.75617
 C723 C 0.89203 0.10845 0.75502
 C724 C 0.85248 0.10620 0.74845
 H725 H 0.90092 0.04400 0.74616
 H726 H 0.90611 0.13712 0.76124
 H727 H 0.96850 0.09853 0.77505
 H728 H 0.83885 0.07688 0.74449
 C729 C 0.44188 0.55534 0.24194
 C730 C 0.44042 0.59134 0.25967
 C731 C 0.40753 0.61893 0.24941
 C732 C 0.40906 0.65827 0.25720
 H733 H 0.46095 0.59935 0.28357
 H734 H 0.38086 0.60638 0.23551
 H735 H 0.41893 0.54786 0.21997
 H736 H 0.43636 0.67167 0.26877
 C737 C 0.05092 0.92638 0.76616
 C738 C 0.08902 0.92536 0.77885
 C739 C 0.11592 0.89170 0.76955
 C740 C 0.15556 0.89740 0.77126
 H741 H 0.10153 0.95018 0.79574
 H742 H 0.10353 0.86283 0.76100
 H743 H 0.03894 0.90044 0.75048
 H744 H 0.16713 0.92702 0.77839
 C745 C 0.53994 0.41377 0.26483
 C746 C 0.57819 0.41335 0.27717
 C747 C 0.60435 0.37795 0.27209
 C748 C 0.64407 0.38259 0.27508
 H749 H 0.59138 0.44006 0.29023
 H750 H 0.59153 0.34894 0.26478
 H751 H 0.52705 0.38624 0.25317
 H752 H 0.65601 0.41233 0.28104
 C753 C 0.92135 0.94133 0.23822
 C754 C 0.91901 0.90139 0.24392
 C755 C 0.88105 0.87839 0.24078
 C756 C 0.88241 0.83844 0.24523
 H757 H 0.94533 0.88445 0.25239
 H758 H 0.85304 0.89346 0.23400
 H759 H 0.89336 0.95705 0.23325
 H760 H 0.91126 0.82449 0.25114
 C761 C 0.42205 0.45016 0.72360
 C762 C 0.42017 0.41096 0.73299
 C763 C 0.38242 0.38801 0.73056
 C764 C 0.38215 0.34808 0.73613
 H765 H 0.44672 0.39528 0.74325
 H766 H 0.35480 0.40385 0.72382
 H767 H 0.39475 0.46553 0.71490
 H768 H 0.41014 0.33248 0.74180
 C769 C 0.07529 0.25505 0.95474
 C770 C 0.08007 0.27274 0.91881
 C771 C 0.11566 0.26626 0.89339
 C772 C 0.11350 0.27635 0.85454
 H773 H 0.05693 0.29204 0.90670
 H774 H 0.14203 0.25144 0.90539
 H775 H 0.10090 0.23930 0.96690
 H776 H 0.08594 0.28944 0.84310
 C777 C 0.58490 0.75984 0.44504
 C778 C 0.58790 0.73683 0.41219
 C779 C 0.62536 0.73418 0.38875
 C780 C 0.62472 0.71659 0.35264
 H781 H 0.56196 0.72014 0.40180
 H782 H 0.65240 0.74868 0.39961
 H783 H 0.61128 0.77542 0.45601
 H784 H 0.59666 0.70434 0.34152
 C785 C 0.96450 0.76729 0.92043
 C786 C 0.92945 0.74790 0.91665
 C787 C 0.90271 0.75313 0.88160
 C788 C 0.86418 0.74228 0.88451
 H789 H 0.91941 0.72829 0.94055
 H790 H 0.91398 0.76679 0.85431
 H791 H 0.97428 0.78641 0.89609
 H792 H 0.85328 0.73064 0.91291
 C793 C 0.45562 0.23771 0.42235
 C794 C 0.41969 0.25557 0.42098
 C795 C 0.39323 0.25291 0.38549
 C796 C 0.35399 0.25942 0.39039
 H797 H 0.40817 0.27069 0.44745
 H798 H 0.40507 0.24356 0.35659
 H799 H 0.46735 0.22384 0.39527
 H800 H 0.34293 0.26676 0.42021
 C801 C 0.05594 0.76090 0.06962
 C802 C 0.08888 0.73821 0.07261
 C803 C 0.11410 0.73901 0.10896
 C804 C 0.15082 0.72301 0.10816
 H805 H 0.09810 0.71975 0.04731
 H806 H 0.10392 0.75530 0.13534
 H807 H 0.04673 0.77911 0.09504
 H808 H 0.16162 0.70907 0.08069
 C809 C 0.54541 0.20338 0.56712
 C810 C 0.55165 0.22610 0.59962
 C811 C 0.58572 0.21723 0.62639
 C812 C 0.58938 0.23476 0.66231
 H813 H 0.53442 0.25332 0.60433
 H814 H 0.60930 0.19751 0.61557
 H815 H 0.56471 0.17761 0.56206
 H816 H 0.56499 0.25286 0.67408
 C817 C 0.92309 0.24905 0.03627
 C818 C 0.92056 0.26408 0.07359
 C819 C 0.88481 0.26007 0.09923
 C820 C 0.88884 0.26673 0.13872
 H821 H 0.94660 0.27875 0.08657
 H822 H 0.85643 0.25043 0.08657
 H823 H 0.89697 0.23551 0.02238
 H824 H 0.91822 0.27441 0.15054
 C825 C 0.43549 0.77629 0.53341
 C826 C 0.43106 0.76060 0.57002
 C827 C 0.39560 0.76832 0.59515
 C828 C 0.39914 0.76319 0.63474
 H829 H 0.45483 0.74240 0.58275
 H830 H 0.36779 0.77881 0.58190
 H831 H 0.41101 0.79331 0.52035
 H832 H 0.42809 0.75449 0.64695
 C833 C 0.22366 0.08795 0.95536
 C834 C 0.21925 0.08917 0.91512
 C835 C 0.22163 0.12690 0.89157
 C836 C 0.21365 0.12568 0.85206
 H837 H 0.21180 0.06221 0.89856
 H838 H 0.23057 0.15474 0.90594
 H839 H 0.22741 0.11647 0.97057
 H840 H 0.20498 0.09715 0.83882
 C841 C 0.71864 0.56557 0.45666
 C842 C 0.73457 0.56315 0.41970
 C843 C 0.73484 0.59778 0.39205
 C844 C 0.74625 0.59294 0.35374
 H845 H 0.74868 0.53562 0.40964
 H846 H 0.72542 0.62705 0.40287
 H847 H 0.70613 0.59407 0.46615
 H848 H 0.75406 0.56314 0.34306
 C849 C 0.75934 0.04079 0.09215
 C850 C 0.77403 0.07800 0.09618
 C851 C 0.76752 0.10285 0.13227
 C852 C 0.77191 0.14266 0.12945
 H853 H 0.79044 0.09142 0.07153
 H854 H 0.75864 0.08902 0.16034
 H855 H 0.74376 0.02726 0.11723
 H856 H 0.77909 0.15569 0.10047
 C857 C 0.27792 0.56134 0.57646
 C858 C 0.26783 0.59993 0.58083
 C859 C 0.27276 0.62190 0.61912
 C860 C 0.26634 0.66145 0.61951
 H861 H 0.25483 0.61588 0.55557
 H862 H 0.28183 0.60626 0.64621
 H863 H 0.28951 0.54508 0.60217
 H864 H 0.25865 0.67626 0.59149
 C865 C 0.76929 0.95819 0.93809
 C866 C 0.75040 0.92334 0.93245
 C867 C 0.75352 0.90041 0.89476
 C868 C 0.74182 0.86217 0.89459
 H869 H 0.73239 0.91100 0.95658
 H870 H 0.76611 0.91405 0.86805
 H871 H 0.78673 0.97093 0.91381
 H872 H 0.73125 0.84884 0.92237
 C873 C 0.24957 0.47693 0.42548
 C874 C 0.25644 0.43737 0.42319
 C875 C 0.24597 0.41252 0.38797
 C876 C 0.24401 0.37273 0.39283
 H877 H 0.26978 0.42210 0.44867
 H878 H 0.24008 0.42622 0.35903
 H879 H 0.23762 0.49253 0.39955
 H880 H 0.24880 0.36040 0.42265
 C881 C 0.20406 0.94557 0.05117
 C882 C 0.23071 0.91573 0.05478
 C883 C 0.22839 0.88776 0.08891
 C884 C 0.24986 0.85387 0.08970
 H885 H 0.25610 0.91367 0.03460
 H886 H 0.20988 0.89581 0.11451
 H887 H 0.18025 0.94785 0.07327
 H888 H 0.26663 0.84463 0.06333
 C889 C 0.73556 0.43534 0.57147
 C890 C 0.71559 0.40070 0.57531
 C891 C 0.72367 0.37441 0.61013
 C892 C 0.70980 0.33674 0.61229
 H893 H 0.69198 0.39272 0.55443
 H894 H 0.74155 0.38633 0.63470
 H895 H 0.75714 0.44344 0.59456
 H896 H 0.69359 0.32397 0.58703
 C897 C 0.04325 0.07321 0.78143
 C898 C 0.04883 0.10073 0.75296
 C899 C 0.08382 0.12749 0.75580
 C900 C 0.08804 0.15947 0.73225
 H901 H 0.03053 0.10062 0.72597
 H902 H 0.10752 0.12007 0.77696
 H903 H 0.06315 0.07310 0.80729
 H904 H 0.06366 0.16897 0.71288
 C905 C 0.53258 0.56299 0.24745
 C906 C 0.56725 0.56469 0.22759
 C907 C 0.59303 0.60037 0.22958
 C908 C 0.63226 0.59585 0.22352
 H909 H 0.57857 0.53820 0.21232
 H910 H 0.58076 0.62910 0.23887
 H911 H 0.52181 0.58990 0.26199
 H912 H 0.64394 0.56623 0.21642
 C913 C 0.07026 0.94576 0.23409
 C914 C 0.07599 0.90804 0.22086
 C915 C 0.11628 0.88939 0.22113
 C916 C 0.12014 0.85020 0.21343
 H917 H 0.05151 0.89011 0.20947
 H918 H 0.14226 0.90700 0.22971
 H919 H 0.09701 0.96179 0.24315
 H920 H 0.09348 0.83275 0.20675
 C921 C 0.57143 0.45115 0.71743
 C922 C 0.57699 0.41845 0.73954
 C923 C 0.61386 0.39451 0.73786
 C924 C 0.61566 0.36155 0.76024
 H925 H 0.55326 0.40900 0.75974
 H926 H 0.63792 0.40231 0.71745
 H927 H 0.59532 0.46261 0.69864
 H928 H 0.59037 0.35396 0.77928
 C929 C 0.91940 0.02977 0.24879
 C930 C 0.91644 0.06744 0.23496
 C931 C 0.88261 0.09425 0.24462
 C932 C 0.88804 0.13401 0.24232
 H933 H 0.94070 0.07994 0.21734
 H934 H 0.85422 0.08185 0.25436
 H935 H 0.89469 0.01715 0.26563
 H936 H 0.91744 0.14543 0.23439
 C937 C 0.42315 0.53919 0.73930
 C938 C 0.42175 0.57803 0.72888
 C939 C 0.38779 0.60481 0.73810
 C940 C 0.39411 0.64450 0.73791
 H941 H 0.44733 0.59139 0.71398
 H942 H 0.35865 0.59252 0.74544
 H943 H 0.39714 0.52535 0.75289
 H944 H 0.42416 0.65558 0.73221
 C945 C 0.96255 0.92008 0.77186
 C946 C 0.92606 0.91393 0.75639
 C947 C 0.90302 0.87670 0.76293
 C948 C 0.86316 0.87888 0.76010
 H949 H 0.91153 0.93774 0.73966
 H950 H 0.91790 0.84884 0.77076
 H951 H 0.97729 0.89572 0.78762
 H952 H 0.84964 0.90798 0.75429
 C953 C 0.45097 0.41061 0.26924
 C954 C 0.41538 0.40463 0.25169
 C955 C 0.38950 0.37033 0.26106
 C956 C 0.34999 0.37475 0.25618
 H957 H 0.40352 0.42694 0.23118
 H958 H 0.40215 0.34268 0.27263
 H959 H 0.46344 0.38771 0.28870
 H960 H 0.33826 0.40367 0.24679
   
