data_POSCAR
  _audit_creation_date              2014-09-24
  _audit_creation_method            'ToBaCCo'
  _symmetry_space_group_name_H-M    'P1'
  _symmetry_Int_Tables_number       1
  _symmetry_cell_setting            triclinic
  loop_
  _symmetry_equiv_pos_as_xyz
 x,y,z
_cell_length_a 26.0689
_cell_length_b 26.3025
_cell_length_c 26.1913
_cell_angle_alpha 88.584900
_cell_angle_beta 86.286600
_cell_angle_gamma 100.689500
loop_
  _atom_site_label
  _atom_site_type_symbol
  _atom_site_fract_x
  _atom_site_fract_y
  _atom_site_fract_z
O1 O 0.56655 0.50471 0.05930
 O2 O 0.43074 0.49491 0.02511
 O3 O 0.48731 0.43101 0.04987
 O4 O 0.50863 0.57175 0.03291
 O5 O 0.53791 0.56718 -0.04763
 O6 O 0.51103 0.42594 -0.03210
 O7 O 0.45713 0.49718 -0.05681
 O8 O 0.59203 0.50008 -0.02232
 Cu9 Cu 0.49615 0.50165 0.05021
 Cu10 Cu 0.52710 0.49636 -0.04796
 C11 C 0.60233 0.50373 0.02429
 C12 C 0.42067 0.49503 -0.02169
 C13 C 0.49450 0.40439 0.01131
 C14 C 0.52655 0.59347 -0.01009
 O15 O -0.03645 0.55959 0.51199
 O16 O -0.01583 0.42342 0.51141
 O17 O -0.01382 0.49275 0.58115
 O18 O -0.03839 0.48888 0.44443
 O19 O 0.04423 0.52473 0.42481
 O20 O 0.07096 0.51590 0.56063
 O21 O 0.06690 0.45192 0.48528
 O22 O 0.04890 0.58693 0.50223
 Cu23 Cu -0.03457 0.48853 0.51458
 Cu24 Cu 0.06615 0.52245 0.49086
 C25 C 0.00296 0.59660 0.50870
 C26 C 0.02901 0.41451 0.49668
 C27 C 0.03292 0.50422 0.59417
 C28 C -0.00145 0.50721 0.41131
 O29 O 0.50325 0.03826 0.56398
 O30 O 0.50922 0.03465 0.42314
 O31 O 0.44138 0.05708 0.49245
 O32 O 0.56946 0.01674 0.49444
 O33 O 0.52996 -0.06530 0.49642
 O34 O 0.40172 -0.02480 0.50074
 O35 O 0.46642 -0.04618 0.42852
 O36 O 0.46380 -0.04359 0.56916
 Cu37 Cu 0.50957 0.04497 0.49302
 Cu38 Cu 0.46164 -0.05321 0.49937
 C39 C 0.48317 -0.00236 0.59081
 C40 C 0.48836 -0.00619 0.40176
 C41 C 0.39969 0.02296 0.49634
 C42 C 0.57150 -0.03112 0.49525
 C43 C 0.47270 -0.05672 -0.10956
 C44 C 0.48035 -0.10564 -0.09308
 C45 C 0.49090 -0.11589 -0.04266
 C46 C 0.49678 -0.07585 -0.00753
 C47 C 0.48834 -0.02635 -0.02290
 C48 C 0.47510 -0.01688 -0.07369
 C49 C 0.46340 0.03163 -0.08658
 C50 C 0.46885 0.07117 -0.05194
 C51 C 0.48540 0.06349 -0.00275
 C52 C 0.49311 0.01376 0.01271
 C53 C 0.51189 -0.08388 0.04222
 C54 C 0.51619 -0.04470 0.07714
 C55 C 0.50591 0.00415 0.06359
 C56 C 0.50948 0.04420 0.09907
 C57 C 0.50432 0.09368 0.08222
 C58 C 0.49351 0.10402 0.03181
 H59 H 0.44945 0.03952 -0.12340
 H60 H 0.45926 0.10773 -0.06396
 H61 H 0.52125 -0.12042 0.05459
 H62 H 0.52861 -0.05291 0.11459
 H63 H 0.47790 -0.13660 -0.11993
 H64 H 0.50896 0.12486 0.10887
 C65 C 0.05184 0.48316 0.89609
 C66 C 0.10146 0.47703 0.90934
 C67 C 0.11803 0.48650 0.95858
 C68 C 0.08335 0.50274 0.99624
 C69 C 0.03183 0.50660 0.98416
 C70 C 0.01607 0.49693 0.93389
 C71 C -0.03471 0.50215 0.92266
 C72 C -0.07004 0.51423 0.96032
 C73 C -0.05529 0.52472 1.01024
 C74 C -0.00373 0.52110 1.02223
 C75 C 0.09891 0.51637 1.04528
 C76 C 0.06353 0.52809 1.08307
 C77 C 0.01192 0.53057 1.07255
 C78 C -0.02473 0.54151 1.11109
 C79 C -0.07525 0.54514 1.09855
 C80 C -0.09099 0.53747 1.04885
 H81 H -0.04824 0.49644 0.88476
 H82 H -0.10919 0.51484 0.94951
 H83 H 0.13868 0.51841 1.05541
 H84 H 0.07760 0.53551 1.12055
 H85 H 0.12787 0.46499 0.88033
 H86 H -0.10307 0.55356 1.12831
 C87 C -0.06886 -0.12112 0.49760
 C88 C -0.12007 -0.11141 0.50573
 C89 C -0.13083 -0.06113 0.50626
 C90 C -0.08886 -0.01817 0.50038
 C91 C -0.03669 -0.02652 0.49616
 C92 C -0.02656 -0.07772 0.49178
 C93 C 0.02542 -0.08326 0.47968
 C94 C 0.06671 -0.04136 0.48100
 C95 C 0.05770 0.00841 0.49229
 C96 C 0.00557 0.01669 0.49559
 C97 C -0.09757 0.03304 0.49694
 C98 C -0.05628 0.07512 0.49581
 C99 C -0.00444 0.06792 0.49836
 C100 C 0.03776 0.11042 0.50181
 C101 C 0.08890 0.10057 0.50250
 C102 C 0.09948 0.05028 0.49863
 H103 H 0.03505 -0.11982 0.46868
 H104 H 0.10593 -0.04828 0.47234
 H105 H -0.13645 0.04135 0.49469
 H106 H -0.06568 0.11335 0.49277
 H107 H -0.15257 -0.14364 0.51249
 H108 H 0.12078 0.13240 0.50800
 C109 C -0.33208 0.47667 1.07884
 C110 C -0.34344 0.50679 1.03764
 C111 C -0.30263 0.53911 1.00838
 C112 C -0.25056 0.54096 1.01983
 C113 C -0.23918 0.50870 1.05992
 C114 C -0.28021 0.47709 1.08954
 C115 C -0.18699 0.50817 1.06931
 C116 C -0.14603 0.54012 1.03978
 C117 C -0.15778 0.57451 1.00233
 C118 C -0.20965 0.57428 0.99177
 H119 H -0.31154 0.56297 0.97701
 H120 H -0.27217 0.45252 1.12070
 H121 H -0.17807 0.48232 1.09898
 H122 H -0.21774 0.59995 0.96157
 H123 H -0.36331 0.45165 1.10172
 H124 H -0.12662 0.60054 0.98036
 C125 C 0.35854 0.51255 0.91750
 C126 C 0.36910 0.49345 0.96562
 C127 C 0.32699 0.47365 1.00137
 C128 C 0.27535 0.47340 0.98943
 C129 C 0.26562 0.49690 0.94289
 C130 C 0.30738 0.51573 0.90687
 C131 C 0.21434 0.50137 0.93334
 C132 C 0.17219 0.48000 0.96840
 C133 C 0.18197 0.45150 1.01168
 C134 C 0.23321 0.44987 1.02312
 H135 H 0.33425 0.45713 1.03797
 H136 H 0.30048 0.53289 0.87051
 H137 H 0.20730 0.52202 0.89893
 H138 H 0.23986 0.42998 1.05811
 H139 H 0.39007 0.52775 0.88907
 H140 H 0.14993 0.43201 1.03763
 C141 C 0.03573 -0.31394 0.53054
 C142 C -0.00386 -0.35163 0.51221
 C143 C -0.04948 -0.33602 0.49642
 C144 C -0.05413 -0.28343 0.49677
 C145 C -0.01569 -0.24684 0.51839
 C146 C 0.02893 -0.26267 0.53555
 C147 C -0.02180 -0.19481 0.52124
 C148 C -0.06228 -0.17703 0.49684
 C149 C -0.09887 -0.21389 0.47327
 C150 C -0.09578 -0.26648 0.47460
 H151 H -0.07978 -0.36408 0.48080
 H152 H 0.05937 -0.23504 0.55141
 H153 H 0.00549 -0.16819 0.54189
 H154 H -0.12519 -0.29368 0.45688
 H155 H 0.07128 -0.32452 0.54306
 H156 H -0.13036 -0.20209 0.45376
 C157 C 0.07490 0.34852 0.45575
 C158 C 0.03716 0.36027 0.49213
 C159 C 0.00736 0.31985 0.52372
 C160 C 0.01533 0.26851 0.51910
 C161 C 0.05239 0.25707 0.48137
 C162 C 0.08205 0.29744 0.45003
 C163 C 0.05921 0.20553 0.47570
 C164 C 0.03002 0.16513 0.50774
 C165 C -0.00483 0.17752 0.54674
 C166 C -0.01278 0.22843 0.55180
 H167 H -0.02141 0.32847 0.55236
 H168 H 0.11089 0.28954 0.42112
 H169 H 0.08704 0.19671 0.44620
 H170 H -0.04068 0.23650 0.58156
 H171 H 0.09828 0.37886 0.43094
 H172 H -0.02632 0.14753 0.57313
 C173 C 0.51491 0.03832 -0.33129
 C174 C 0.48333 -0.00211 -0.35551
 C175 C 0.45315 -0.04317 -0.32494
 C176 C 0.45520 -0.04431 -0.27153
 C177 C 0.48951 -0.00518 -0.24812
 C178 C 0.51872 0.03627 -0.27829
 C179 C 0.49460 -0.00866 -0.19512
 C180 C 0.46380 -0.04939 -0.16475
 C181 C 0.42788 -0.08657 -0.18829
 C182 C 0.42403 -0.08442 -0.24118
 H183 H 0.42770 -0.07420 -0.34254
 H184 H 0.54474 0.06698 -0.26094
 H185 H 0.52327 0.01964 -0.17770
 H186 H 0.39701 -0.11442 -0.25838
 H187 H 0.53851 0.07064 -0.35346
 H188 H 0.40362 -0.11822 -0.16576
 C189 C 0.45113 -0.04214 0.32166
 C190 C 0.48869 -0.00678 0.34530
 C191 C 0.52535 0.02911 0.31468
 C192 C 0.52383 0.03044 0.26118
 C193 C 0.48471 -0.00409 0.23794
 C194 C 0.44893 -0.04060 0.26848
 C195 C 0.48127 -0.00069 0.18472
 C196 C 0.51700 0.03623 0.15430
 C197 C 0.55669 0.06929 0.17764
 C198 C 0.56008 0.06646 0.23060
 H199 H 0.55481 0.05624 0.33248
 H200 H 0.41885 -0.06753 0.25131
 H201 H 0.44999 -0.02568 0.16708
 H202 H 0.59049 0.09305 0.24772
 H203 H 0.42246 -0.07012 0.34445
 H204 H 0.58443 0.09812 0.15483
 C205 C 0.56745 -0.32336 -0.05573
 C206 C 0.53183 -0.35040 -0.01748
 C207 C 0.49768 -0.32449 0.01058
 C208 C 0.49722 -0.27249 -0.00110
 C209 C 0.53277 -0.24554 -0.04011
 C210 C 0.56835 -0.27103 -0.06658
 C211 C 0.53117 -0.19398 -0.05286
 C212 C 0.49401 -0.16947 -0.02765
 C213 C 0.45850 -0.19652 0.01063
 C214 C 0.46048 -0.24757 0.02428
 H215 H 0.46960 -0.34548 0.03963
 H216 H 0.59580 -0.25094 -0.09656
 H217 H 0.55822 -0.17302 -0.08274
 H218 H 0.43271 -0.26784 0.05392
 H219 H 0.59408 -0.34293 -0.07770
 H220 H 0.42919 -0.17798 0.02978
 C221 C 0.44847 0.32343 0.05737
 C222 C 0.48382 0.34784 0.01755
 C223 C 0.51041 0.31816 -0.01477
 C224 C 0.50362 0.26462 -0.00590
 C225 C 0.46840 0.24038 0.03470
 C226 C 0.44038 0.26995 0.06557
 C227 C 0.46324 0.18727 0.04500
 C228 C 0.49391 0.15836 0.01626
 C229 C 0.52868 0.18252 -0.02409
 C230 C 0.53294 0.23521 -0.03562
 H231 H 0.53801 0.33695 -0.04531
 H232 H 0.41329 0.25194 0.09680
 H233 H 0.43675 0.16862 0.07645
 H234 H 0.56035 0.25323 -0.06661
 H235 H 0.42729 0.34581 0.08238
 H236 H 0.55334 0.16073 -0.04591
 C237 C -0.36419 -0.08265 0.45954
 C238 C -0.37709 -0.04673 0.49456
 C239 C -0.33977 -0.02390 0.52752
 C240 C -0.28949 -0.03606 0.52491
 C241 C -0.27579 -0.07018 0.48767
 C242 C -0.31368 -0.09384 0.45566
 C243 C -0.22423 -0.07914 0.48246
 C244 C -0.18643 -0.05492 0.51444
 C245 C -0.20165 -0.02431 0.55383
 C246 C -0.25245 -0.01419 0.55845
 H247 H -0.34995 0.00336 0.55506
 H248 H -0.30407 -0.12048 0.42724
 H249 H -0.21308 -0.10374 0.45271
 H250 H -0.26259 0.01116 0.58791
 H251 H -0.39264 -0.10055 0.43390
 H252 H -0.17355 -0.00678 0.57997
 C253 C 0.34177 0.08031 0.46302
 C254 C 0.34817 0.03843 0.49475
 C255 C 0.30439 0.00949 0.52303
 C256 C 0.25453 0.02149 0.51896
 C257 C 0.24793 0.06216 0.48512
 C258 C 0.29197 0.09178 0.45782
 C259 C 0.19738 0.07191 0.47873
 C260 C 0.15355 0.04183 0.50625
 C261 C 0.16128 0.00380 0.54217
 C262 C 0.21108 -0.00688 0.54785
 H263 H 0.30917 -0.02251 0.54807
 H264 H 0.28783 0.12339 0.43204
 H265 H 0.19199 0.10207 0.45174
 H266 H 0.21557 -0.03750 0.57469
 H267 H 0.37508 0.10301 0.44082
 H268 H 0.12835 -0.01847 0.56522
 C269 C -0.05198 0.47027 1.33906
 C270 C -0.01196 0.50764 1.35669
 C271 C 0.01742 0.54527 1.32198
 C272 C 0.00672 0.54562 1.27010
 C273 C -0.03287 0.50702 1.25266
 C274 C -0.06204 0.46965 1.28741
 C275 C -0.04264 0.50631 1.20073
 C276 C -0.01386 0.54398 1.16591
 C277 C 0.02393 0.58349 1.18368
 C278 C 0.03465 0.58394 1.23535
 H279 H 0.04793 0.57462 1.33547
 H280 H -0.09267 0.43998 1.27465
 H281 H -0.07240 0.47623 1.18714
 H282 H 0.06466 0.61422 1.24811
 H283 H -0.07500 0.44092 1.36519
 H284 H 0.04562 0.61343 1.15735
 C285 C 0.08635 0.53993 0.66485
 C286 C 0.04340 0.50507 0.64876
 C287 C 0.01076 0.47166 0.68505
 C288 C 0.02107 0.47309 0.73703
 C289 C 0.06358 0.50942 0.75288
 C290 C 0.09607 0.54247 0.71653
 C291 C 0.07292 0.51222 0.80485
 C292 C 0.04092 0.47873 0.84134
 C293 C 0.00024 0.44110 0.82520
 C294 C -0.01014 0.43880 0.77347
 H295 H -0.02209 0.44424 0.67273
 H296 H 0.12898 0.57029 0.72807
 H297 H 0.10494 0.54071 0.81715
 H298 H -0.04241 0.41019 0.76196
 H299 H 0.11186 0.56606 0.63745
 H300 H -0.02391 0.41411 0.85281
   
