data_POSCAR
  _audit_creation_date              2014-09-24
  _audit_creation_method            'ToBaCCo'
  _symmetry_space_group_name_H-M    'P1'
  _symmetry_Int_Tables_number       1
  _symmetry_cell_setting            triclinic
  loop_
  _symmetry_equiv_pos_as_xyz
 x,y,z
_cell_length_a 29.2198
_cell_length_b 29.1540
_cell_length_c 40.0668
_cell_angle_alpha 90.097700
_cell_angle_beta 88.750200
_cell_angle_gamma 89.495000
loop_
  _atom_site_label
  _atom_site_type_symbol
  _atom_site_fract_x
  _atom_site_fract_y
  _atom_site_fract_z
C1 C -0.00186 0.50136 0.98425
 C2 C 0.00031 0.50151 1.01821
 C3 C -0.00106 0.54490 1.03774
 C4 C 0.00415 0.45825 1.03755
 C5 C -0.00574 0.45800 0.96500
 C6 C -0.00031 0.54451 0.96458
 C7 C 0.03355 0.55399 1.06053
 C8 C 0.03295 0.59481 1.07886
 C9 C -0.00250 0.62689 1.07480
 C10 C -0.03757 0.61768 1.05247
 C11 C -0.03697 0.57679 1.03416
 C12 C 0.03948 0.42639 1.03054
 C13 C 0.04226 0.38551 1.04862
 C14 C 0.01006 0.37632 1.07408
 C15 C -0.02468 0.40832 1.08158
 C16 C -0.02752 0.44915 1.06351
 C17 C -0.04111 0.42686 0.97204
 C18 C -0.04400 0.38597 0.95394
 C19 C -0.01187 0.37605 0.92845
 C20 C 0.02295 0.40731 0.92095
 C21 C 0.02591 0.44815 0.93904
 C22 C -0.03477 0.55401 0.94163
 C23 C -0.03376 0.59444 0.92297
 C24 C 0.00187 0.62565 0.92686
 C25 C 0.03670 0.61614 0.94936
 C26 C 0.03576 0.57566 0.96803
 H27 H 0.06136 0.52970 1.06378
 H28 H 0.06029 0.60129 1.09608
 H29 H -0.06540 0.64199 1.04915
 H30 H -0.06445 0.57000 1.01719
 H31 H 0.06477 0.43316 1.01105
 H32 H 0.06941 0.36109 1.04273
 H33 H -0.05481 0.47340 1.06942
 H34 H -0.06638 0.43424 0.99153
 H35 H -0.07122 0.36212 0.95982
 H36 H 0.04791 0.40003 0.90122
 H37 H 0.05324 0.47183 0.93311
 H38 H -0.06269 0.53031 0.93845
 H39 H -0.06079 0.60139 0.90555
 H40 H 0.06456 0.63994 0.95242
 H41 H 0.06314 0.56854 0.98510
 H42 H -0.04969 0.40160 1.10129
 C43 C 0.50068 -0.00233 0.48283
 C44 C 0.49967 -0.00184 0.51687
 C45 C 0.45593 -0.00413 0.53640
 C46 C 0.54225 0.00125 0.53633
 C47 C 0.54450 -0.00483 0.46335
 C48 C 0.45806 -0.00009 0.46332
 C49 C 0.44559 0.02953 0.56057
 C50 C 0.40437 0.02813 0.57885
 C51 C 0.37319 -0.00712 0.57336
 C52 C 0.38358 -0.04126 0.54969
 C53 C 0.42486 -0.03993 0.53139
 C54 C 0.57333 0.03716 0.53091
 C55 C 0.61347 0.03934 0.54919
 C56 C 0.62269 0.00596 0.57327
 C57 C 0.59147 -0.02942 0.57918
 C58 C 0.55138 -0.03167 0.56090
 C59 C 0.57643 -0.04026 0.46877
 C60 C 0.61780 -0.04173 0.45055
 C61 C 0.62742 -0.00811 0.42655
 C62 C 0.59538 0.02676 0.42064
 C63 C 0.55407 0.02830 0.43884
 C64 C 0.44986 -0.03364 0.43904
 C65 C 0.40985 -0.03207 0.42059
 C66 C 0.37777 0.00325 0.42604
 C67 C 0.38601 0.03722 0.44986
 C68 C 0.42607 0.03572 0.46831
 H69 H 0.46920 0.05724 0.56493
 H70 H 0.39672 0.05465 0.59717
 H71 H 0.35979 -0.06882 0.54536
 H72 H 0.43258 -0.06671 0.51332
 H73 H 0.56648 0.06339 0.51253
 H74 H 0.63729 0.06700 0.54455
 H75 H 0.52770 -0.05942 0.56560
 H76 H 0.56932 -0.06663 0.48712
 H77 H 0.64226 -0.06899 0.45521
 H78 H 0.60244 0.05288 0.40207
 H79 H 0.52980 0.05571 0.43416
 H80 H 0.47423 -0.06133 0.43467
 H81 H 0.40387 -0.05844 0.40215
 H82 H 0.36153 0.06485 0.45414
 H83 H 0.43219 0.06243 0.48645
 H84 H 0.59822 -0.05535 0.59782
 C85 C 0.10146 0.00366 0.26058
 H86 H 0.10333 0.00497 0.23360
 C87 C 0.14152 0.00488 0.27889
 H88 H 0.17419 0.00744 0.26578
 C89 C 0.05629 0.00011 0.31033
 H90 H 0.02302 -0.00123 0.32252
 C91 C 0.09551 0.00132 0.32963
 H92 H 0.09193 -0.00006 0.35657
 N93 N 0.05998 0.00069 0.27643
 C94 C -0.02933 -0.06147 0.20349
 H95 H -0.05671 -0.03626 0.20305
 C96 C -0.03181 -0.10106 0.18396
 H97 H -0.06098 -0.10578 0.16815
 C98 C 0.04200 -0.08566 0.22466
 H99 H 0.07027 -0.08005 0.24103
 C100 C 0.04093 -0.12570 0.20554
 H101 H 0.06856 -0.15048 0.20746
 Zn102 Zn 0.00758 -0.00039 0.24948
 N103 N 0.00740 -0.05427 0.22303
 C104 C 0.00941 0.04942 0.18833
 N105 N 0.00960 0.05256 0.22220
 C106 C 0.01272 0.09384 0.23778
 C107 C 0.01447 0.13428 0.21922
 C108 C 0.01108 0.08902 0.16878
 C109 C -0.05458 -0.03746 0.29607
 C110 C -0.09450 -0.03982 0.31579
 C111 C -0.11791 0.03363 0.29382
 C112 C -0.07759 0.03456 0.27451
 N113 N -0.04665 -0.00044 0.27624
 H114 H 0.00820 0.01627 0.17635
 H115 H 0.01343 0.09529 0.26475
 H116 H 0.01588 0.16685 0.23216
 H117 H 0.01111 0.08584 0.14186
 H118 H -0.02972 -0.06516 0.29658
 H119 H -0.09982 -0.06924 0.33182
 H120 H -0.14232 0.06159 0.29181
 H121 H -0.07140 0.06306 0.25790
 C122 C 0.00373 -0.13378 0.18477
 C123 C 0.13888 0.00349 0.31391
 C124 C -0.12676 -0.00387 0.31489
 C125 C 0.01342 0.13222 0.18422
 C126 C -0.01349 0.09535 0.76270
 H127 H -0.01392 0.09720 0.73574
 C128 C -0.01566 0.13554 0.78166
 H129 H -0.01711 0.16831 0.76905
 C130 C -0.01041 0.05018 0.81172
 H131 H -0.00910 0.01685 0.82337
 C132 C -0.01250 0.08952 0.83166
 H133 H -0.01275 0.08596 0.85856
 N134 N -0.01026 0.05381 0.77787
 C135 C 0.05552 -0.03578 0.70349
 H136 H 0.03092 -0.06326 0.70260
 C137 C 0.09558 -0.03820 0.68389
 H138 H 0.10129 -0.06742 0.66757
 C139 C 0.07766 0.03576 0.72585
 H140 H 0.07106 0.06409 0.74271
 C141 C 0.11812 0.03476 0.70667
 H142 H 0.14224 0.06251 0.70904
 Zn143 Zn -0.00746 0.00123 0.75008
 N144 N 0.04707 0.00104 0.72365
 C145 C -0.05530 0.00305 0.68890
 N146 N -0.05951 0.00315 0.72277
 C147 C -0.10126 0.00620 0.73832
 C148 C -0.14104 0.00803 0.71969
 C149 C -0.09421 0.00480 0.66928
 C150 C 0.02948 -0.06073 0.79572
 C151 C 0.03212 -0.10058 0.81490
 C152 C -0.04003 -0.12444 0.79256
 C153 C -0.04132 -0.08412 0.77385
 N154 N -0.00708 -0.05301 0.77600
 H155 H -0.02182 0.00191 0.67696
 H156 H -0.10358 0.00686 0.76530
 H157 H -0.17398 0.00943 0.73258
 H158 H -0.09017 0.00495 0.64236
 H159 H 0.05669 -0.03584 0.79645
 H160 H 0.06168 -0.10625 0.83024
 H161 H -0.06797 -0.14843 0.79088
 H162 H -0.06958 -0.07794 0.75749
 C163 C 0.12747 -0.00250 0.68525
 C164 C -0.01491 0.13296 0.81665
 C165 C -0.00299 -0.13307 0.81349
 C166 C -0.13784 0.00712 0.68466
 C167 C -0.00107 -0.25748 0.12638
 C168 C -0.04092 -0.24033 0.14208
 C169 C -0.03949 -0.19995 0.16091
 C170 C -0.00265 -0.33474 0.09174
 C171 C 0.04172 -0.19370 0.14829
 C172 C 0.04020 -0.23403 0.12946
 C173 C -0.00225 -0.29944 0.10747
 C174 C 0.00191 -0.17625 0.16433
 H175 H -0.07302 -0.25831 0.13995
 H176 H -0.07059 -0.18774 0.17329
 H177 H 0.07397 -0.17593 0.15006
 H178 H 0.07123 -0.24696 0.11736
 C179 C 0.01455 0.25646 0.12652
 C180 C 0.04253 0.25221 0.15427
 C181 C 0.04248 0.21170 0.17290
 C182 C 0.01233 0.33400 0.09241
 C183 C -0.01335 0.17938 0.13589
 C184 C -0.01326 0.21993 0.11732
 C185 C 0.01365 0.29860 0.10789
 C186 C 0.01438 0.17487 0.16400
 H187 H 0.06425 0.28026 0.16158
 H188 H 0.06465 0.20907 0.19412
 H189 H -0.03580 0.15191 0.12866
 H190 H -0.03520 0.22293 0.09596
 C191 C 0.25244 -0.00685 0.62659
 C192 C 0.23581 -0.04685 0.64163
 C193 C 0.19502 -0.04558 0.66054
 C194 C 0.33051 -0.00791 0.59194
 C195 C 0.18728 0.03576 0.64930
 C196 C 0.22803 0.03439 0.63039
 C197 C 0.29485 -0.00781 0.60765
 C198 C 0.17037 -0.00419 0.66470
 H199 H 0.25454 -0.07894 0.63894
 H200 H 0.18321 -0.07678 0.67241
 H201 H 0.16879 0.06800 0.65165
 H202 H 0.24055 0.06554 0.61880
 C203 C -0.25978 0.00915 0.62648
 C204 C -0.22264 -0.01886 0.61687
 C205 C -0.18286 -0.01928 0.63563
 C206 C -0.33580 0.00774 0.59188
 C207 C -0.21719 0.03656 0.67367
 C208 C -0.25692 0.03695 0.65485
 C209 C -0.30109 0.00867 0.60759
 C210 C -0.17974 0.00830 0.66434
 H211 H -0.22456 -0.04066 0.59503
 H212 H -0.15488 -0.04184 0.62804
 H213 H -0.21562 0.05863 0.69537
 H214 H -0.28546 0.05881 0.66249
 C215 C 0.00194 -0.25668 0.87176
 C216 C -0.01332 -0.25798 0.83892
 C217 C -0.01476 -0.21785 0.81992
 C218 C 0.00256 -0.33269 0.90767
 C219 C 0.01460 -0.17489 0.86655
 C220 C 0.01597 -0.21509 0.88552
 C221 C 0.00257 -0.29795 0.89140
 C222 C -0.00093 -0.17580 0.83355
 H223 H -0.02417 -0.29002 0.82800
 H224 H -0.02626 -0.21981 0.79445
 H225 H 0.02494 -0.14298 0.87788
 H226 H 0.02769 -0.21367 0.91097
 C227 C -0.01664 0.25650 0.87547
 C228 C 0.01115 0.21939 0.88445
 C229 C 0.01139 0.17906 0.86553
 C230 C -0.01432 0.33379 0.91000
 C231 C -0.04428 0.21272 0.82864
 C232 C -0.04448 0.25302 0.84762
 C233 C -0.01572 0.29849 0.89436
 C234 C -0.01616 0.17534 0.83729
 H235 H 0.03300 0.22180 0.90588
 H236 H 0.03385 0.15114 0.87259
 H237 H -0.06631 0.21071 0.80732
 H238 H -0.06616 0.28153 0.84047
 C239 C -0.25162 -0.00811 0.37358
 C240 C -0.22762 0.03299 0.37021
 C241 C -0.18688 0.03431 0.35132
 C242 C -0.32980 -0.00900 0.40808
 C243 C -0.19380 -0.04680 0.33924
 C244 C -0.23458 -0.04803 0.35814
 C245 C -0.29408 -0.00899 0.39244
 C246 C -0.16958 -0.00554 0.33550
 H247 H -0.24046 0.06407 0.38211
 H248 H -0.16872 0.06644 0.34930
 H249 H -0.18168 -0.07791 0.32704
 H250 H -0.25300 -0.08000 0.36048
 C251 C 0.26117 0.00494 0.37170
 C252 C 0.25989 -0.02057 0.34213
 C253 C 0.22018 -0.02098 0.32332
 C254 C 0.33649 0.00447 0.40712
 C255 C 0.18276 0.02971 0.36365
 C256 C 0.22256 0.03010 0.38241
 C257 C 0.30206 0.00496 0.39108
 C258 C 0.18112 0.00414 0.33387
 H259 H 0.28954 -0.04031 0.33368
 H260 H 0.21980 -0.04150 0.30078
 H261 H 0.15347 0.04985 0.37221
 H262 H 0.22322 0.05003 0.40524
   
