data_POSCAR
  _audit_creation_date              2014-09-24
  _audit_creation_method            'ToBaCCo'
  _symmetry_space_group_name_H-M    'P1'
  _symmetry_Int_Tables_number       1
  _symmetry_cell_setting            triclinic
  loop_
  _symmetry_equiv_pos_as_xyz
 x,y,z
_cell_length_a 51.7001
_cell_length_b 51.7448
_cell_length_c 14.8719
_cell_angle_alpha 89.810100
_cell_angle_beta 90.086800
_cell_angle_gamma 119.996000
loop_
  _atom_site_label
  _atom_site_type_symbol
  _atom_site_fract_x
  _atom_site_fract_y
  _atom_site_fract_z
C1 C 0.25061 0.50448 0.54198
 C2 C 0.24895 0.50304 0.45026
 C3 C 0.22253 0.50011 0.40119
 C4 C 0.27259 0.50215 0.39583
 C5 C 0.27292 0.49966 0.59063
 C6 C 0.22839 0.50775 0.59681
 C7 C 0.19357 0.47784 0.42517
 C8 C 0.16876 0.47616 0.38236
 C9 C 0.17235 0.49601 0.31234
 C10 C 0.20145 0.51771 0.28640
 C11 C 0.22629 0.51966 0.33039
 C12 C 0.26492 0.47897 0.33406
 C13 C 0.28718 0.47611 0.28978
 C14 C 0.31741 0.49643 0.30666
 C15 C 0.32509 0.52030 0.36547
 C16 C 0.30286 0.52338 0.40884
 C17 C 0.29470 0.52219 0.64479
 C18 C 0.31712 0.51836 0.68447
 C19 C 0.31765 0.49175 0.67192
 C20 C 0.29529 0.46889 0.62000
 C21 C 0.27309 0.47281 0.57979
 C22 C 0.22105 0.52985 0.57622
 C23 C 0.19652 0.52942 0.61707
 C24 C 0.17941 0.50728 0.68053
 C25 C 0.18821 0.48675 0.70652
 C26 C 0.21250 0.48693 0.66490
 H27 H 0.19015 0.46204 0.47817
 H28 H 0.14666 0.45930 0.40416
 H29 H 0.20520 0.53362 0.23362
 H30 H 0.24848 0.53685 0.31053
 H31 H 0.24173 0.46240 0.32283
 H32 H 0.28070 0.45744 0.24498
 H33 H 0.30926 0.54180 0.45477
 H34 H 0.29484 0.54302 0.65386
 H35 H 0.33424 0.53623 0.72428
 H36 H 0.29519 0.44821 0.60883
 H37 H 0.25628 0.45510 0.53872
 H38 H 0.23343 0.54653 0.52530
 H39 H 0.19047 0.54581 0.59692
 H40 H 0.17539 0.46969 0.75606
 H41 H 0.21784 0.46980 0.68237
 H42 H 0.34832 0.53619 0.37916
 C43 C 0.49997 -0.25234 0.54842
 C44 C 0.49796 -0.25311 0.45674
 C45 C 0.49480 -0.27892 0.40411
 C46 C 0.50142 -0.22696 0.40543
 C47 C 0.50049 -0.22759 0.60068
 C48 C 0.50341 -0.27521 0.59940
 C49 C 0.51517 -0.27425 0.33502
 C50 C 0.51513 -0.29849 0.29390
 C51 C 0.49482 -0.32771 0.32138
 C52 C 0.47322 -0.33250 0.38636
 C53 C 0.47300 -0.30827 0.42674
 C54 C 0.52774 -0.19927 0.41321
 C55 C 0.53017 -0.17411 0.37050
 C56 C 0.50632 -0.17624 0.31974
 C57 C 0.48038 -0.20413 0.30929
 C58 C 0.47805 -0.22943 0.35136
 C59 C 0.47871 -0.21931 0.58666
 C60 C 0.48127 -0.19399 0.62836
 C61 C 0.50515 -0.17704 0.68668
 C62 C 0.52610 -0.18612 0.70430
 C63 C 0.52378 -0.21122 0.66162
 C64 C 0.48385 -0.29095 0.67020
 C65 C 0.48571 -0.31394 0.71407
 C66 C 0.50724 -0.32144 0.68779
 C67 C 0.52733 -0.30505 0.61871
 C68 C 0.52576 -0.28184 0.57596
 H69 H 0.53204 -0.25184 0.31598
 H70 H 0.53179 -0.29443 0.24323
 H71 H 0.45702 -0.35485 0.40773
 H72 H 0.45663 -0.31238 0.47843
 H73 H 0.54613 -0.19710 0.45381
 H74 H 0.55043 -0.15280 0.37862
 H75 H 0.45768 -0.25070 0.34432
 H76 H 0.46019 -0.23199 0.54144
 H77 H 0.46487 -0.18734 0.61414
 H78 H 0.54479 -0.17335 0.74875
 H79 H 0.54076 -0.21724 0.67365
 H80 H 0.46662 -0.28601 0.68970
 H81 H 0.46983 -0.32619 0.76685
 H82 H 0.54416 -0.31037 0.59730
 H83 H 0.54154 -0.26950 0.52295
 H84 H 0.46181 -0.20637 0.26969
 C85 C 1.25266 0.75141 0.54431
 C86 C 1.25344 0.75059 0.45256
 C87 C 1.27918 0.77359 0.40010
 C88 C 1.22740 0.72789 0.40114
 C89 C 1.22815 0.72668 0.59619
 C90 C 1.27533 0.77762 0.59564
 C91 C 1.27437 0.78939 0.33147
 C92 C 1.29853 0.81383 0.29043
 C93 C 1.32789 0.82296 0.31762
 C94 C 1.33277 0.80595 0.38212
 C95 C 1.30860 0.78128 0.42232
 C96 C 1.19947 0.72598 0.40993
 C97 C 1.17445 0.70326 0.36698
 C98 C 1.17695 0.68209 0.31488
 C99 C 1.20506 0.68457 0.30350
 C100 C 1.23021 0.70752 0.34588
 C101 C 1.22064 0.69693 0.58132
 C102 C 1.19525 0.67355 0.62123
 C103 C 1.17724 0.67952 0.67822
 C104 C 1.18597 0.70932 0.69808
 C105 C 1.21117 0.73271 0.65714
 C106 C 1.29131 0.77376 0.66568
 C107 C 1.31423 0.79855 0.70950
 C108 C 1.32143 0.82757 0.68392
 C109 C 1.30477 0.83131 0.61572
 C110 C 1.28164 0.80657 0.57299
 H111 H 1.25190 0.78371 0.31265
 H112 H 1.29424 0.82638 0.23997
 H113 H 1.35510 0.81200 0.40334
 H114 H 1.31280 0.76890 0.47353
 H115 H 1.19701 0.74178 0.45145
 H116 H 1.15296 0.70179 0.37587
 H117 H 1.25166 0.70884 0.33807
 H118 H 1.23395 0.69182 0.53650
 H119 H 1.18964 0.65090 0.60617
 H120 H 1.17268 0.71449 0.74288
 H121 H 1.21673 0.75550 0.67027
 H122 H 1.28662 0.75159 0.68454
 H123 H 1.32667 0.79490 0.76166
 H124 H 1.30984 0.85345 0.59494
 H125 H 1.26912 0.81003 0.52055
 H126 H 1.20757 0.66865 0.26293
 C127 C 0.74765 0.49899 0.54836
 C128 C 0.74756 0.49727 0.45667
 C129 C 0.77461 0.50214 0.40749
 C130 C 0.72175 0.49351 0.40230
 C131 C 0.72423 0.50191 0.59769
 C132 C 0.77236 0.49997 0.60239
 C133 C 0.80162 0.52907 0.41774
 C134 C 0.82763 0.53308 0.37672
 C135 C 0.82703 0.51024 0.32457
 C136 C 0.79989 0.48356 0.31264
 C137 C 0.77374 0.47964 0.35312
 C138 C 0.72623 0.51393 0.33336
 C139 C 0.70183 0.51365 0.29195
 C140 C 0.67265 0.49304 0.31901
 C141 C 0.66806 0.47128 0.38336
 C142 C 0.69246 0.47130 0.42399
 C143 C 0.70881 0.48260 0.66934
 C144 C 0.68585 0.48442 0.71319
 C145 C 0.67804 0.50567 0.68602
 C146 C 0.69397 0.52541 0.61568
 C147 C 0.71717 0.52388 0.57296
 C148 C 0.78125 0.47866 0.58950
 C149 C 0.80663 0.48171 0.63256
 C150 C 0.82311 0.50568 0.69112
 C151 C 0.81331 0.52613 0.70765
 C152 C 0.78811 0.52326 0.66364
 H153 H 0.80260 0.54677 0.45892
 H154 H 0.84823 0.55381 0.38745
 H155 H 0.79906 0.46569 0.27271
 H156 H 0.75306 0.45875 0.34445
 H157 H 0.74859 0.53113 0.31501
 H158 H 0.70573 0.53042 0.24170
 H159 H 0.68851 0.45490 0.47557
 H160 H 0.71411 0.46568 0.68993
 H161 H 0.67394 0.46881 0.76692
 H162 H 0.68841 0.54202 0.59356
 H163 H 0.72930 0.53954 0.51942
 H164 H 0.76905 0.46017 0.54391
 H165 H 0.81373 0.46565 0.61877
 H166 H 0.82557 0.54492 0.75202
 H167 H 0.78158 0.53989 0.67473
 H168 H 0.64575 0.45484 0.40435
 C169 C 0.50136 0.24933 0.55347
 C170 C 0.50132 0.24871 0.46173
 C171 C 0.50064 0.27246 0.40703
 C172 C 0.49919 0.22285 0.41270
 C173 C 0.50347 0.22623 0.60764
 C174 C 0.49640 0.27144 0.60211
 C175 C 0.47819 0.26479 0.34224
 C176 C 0.47549 0.28700 0.29684
 C177 C 0.49522 0.31719 0.31555
 C178 C 0.51839 0.32491 0.37757
 C179 C 0.52132 0.30272 0.42217
 C180 C 0.47435 0.19430 0.42529
 C181 C 0.47305 0.16966 0.38300
 C182 C 0.49659 0.17319 0.32791
 C183 C 0.52106 0.20185 0.31327
 C184 C 0.52223 0.22660 0.35493
 C185 C 0.52616 0.21944 0.59100
 C186 C 0.52528 0.19459 0.63135
 C187 C 0.50199 0.17645 0.69057
 C188 C 0.48066 0.18465 0.71266
 C189 C 0.48133 0.20928 0.67128
 C190 C 0.51877 0.29287 0.65740
 C191 C 0.51518 0.31554 0.69574
 C192 C 0.48890 0.31668 0.68082
 C193 C 0.46615 0.29454 0.62773
 C194 C 0.46988 0.27211 0.58888
 H195 H 0.46205 0.24160 0.32930
 H196 H 0.45738 0.28048 0.24950
 H197 H 0.53384 0.34812 0.39265
 H198 H 0.53921 0.30914 0.47040
 H199 H 0.45620 0.19112 0.46881
 H200 H 0.45389 0.14772 0.39437
 H201 H 0.54143 0.24855 0.34416
 H202 H 0.54391 0.23271 0.54392
 H203 H 0.54250 0.18938 0.61446
 H204 H 0.46274 0.17126 0.75917
 H205 H 0.46373 0.21423 0.68574
 H206 H 0.53938 0.29265 0.66808
 H207 H 0.53307 0.33241 0.73619
 H208 H 0.44572 0.29478 0.61417
 H209 H 0.45235 0.25561 0.54661
 H210 H 0.53933 0.20513 0.27030
 C211 C 0.75130 0.25241 0.54465
 C212 C 0.75121 0.25247 0.45288
 C213 C 0.72640 0.22832 0.40067
 C214 C 0.77700 0.27554 0.40150
 C215 C 0.77540 0.27727 0.59693
 C216 C 0.72854 0.22628 0.59581
 C217 C 0.73255 0.21228 0.33649
 C218 C 0.70922 0.18738 0.29456
 C219 C 0.67946 0.17808 0.31650
 C220 C 0.67326 0.19503 0.37699
 C221 C 0.69656 0.22015 0.41802
 C222 C 0.80538 0.27861 0.41212
 C223 C 0.83012 0.30187 0.36944
 C224 C 0.82685 0.32243 0.31600
 C225 C 0.79832 0.31875 0.30280
 C226 C 0.77346 0.29525 0.34480
 C227 C 0.78337 0.30708 0.57981
 C228 C 0.80832 0.33040 0.62158
 C229 C 0.82525 0.32435 0.68310
 C230 C 0.81635 0.29451 0.70360
 C231 C 0.79163 0.27120 0.66093
 C232 C 0.70847 0.22914 0.65248
 C233 C 0.68516 0.20391 0.69374
 C234 C 0.68202 0.17566 0.67981
 C235 C 0.70294 0.17308 0.62643
 C236 C 0.72601 0.19819 0.58454
 H237 H 0.75539 0.21830 0.32153
 H238 H 0.71439 0.17471 0.24732
 H239 H 0.65049 0.18867 0.39383
 H240 H 0.69132 0.23270 0.46545
 H241 H 0.80838 0.26334 0.45492
 H242 H 0.85196 0.30426 0.37965
 H243 H 0.75165 0.29302 0.33565
 H244 H 0.77078 0.31228 0.53209
 H245 H 0.81470 0.35321 0.60469
 H246 H 0.82895 0.28899 0.75023
 H247 H 0.78587 0.24841 0.67531
 H248 H 0.71025 0.25071 0.66210
 H249 H 0.66947 0.20649 0.73541
 H250 H 0.70098 0.15148 0.61562
 H251 H 0.74154 0.19569 0.54171
 H252 H 0.79522 0.33414 0.26104
 N253 N 0.96941 0.53427 0.09216
 N254 N 0.94637 0.53835 0.10274
 N255 N 1.03224 0.54703 0.15261
 N256 N 1.05594 0.56084 0.20486
 N257 N 1.03225 0.56533 0.09118
 N258 N 1.05585 0.59217 0.10037
 N259 N 0.96925 0.51589 0.15357
 N260 N 0.94602 0.50690 0.20751
 C261 C 0.93209 0.52118 0.17494
 C262 C 1.07030 0.58894 0.17161
 N263 N 1.03202 0.47388 0.08722
 N264 N 1.05542 0.47023 0.09524
 N265 N 0.96907 0.46022 0.15139
 N266 N 0.94577 0.44581 0.20490
 N267 N 0.96916 0.44238 0.08895
 N268 N 0.94599 0.41526 0.09856
 N269 N 1.03192 0.49133 0.15096
 N270 N 1.05517 0.49989 0.20454
 Mn271 Mn 1.00060 0.50361 0.15330
 C272 C 1.06952 0.48651 0.16879
 C273 C 0.93173 0.41784 0.17115
 N274 N 1.03183 0.56593 -0.10263
 N275 N 1.05561 0.59272 -0.11108
 N276 N 0.96851 0.51670 -0.16360
 N277 N 0.94451 0.50713 -0.21443
 N278 N 0.96898 0.53481 -0.10114
 N279 N 0.94536 0.53816 -0.10798
 N280 N 1.03149 0.54799 -0.16550
 N281 N 1.05509 0.56202 -0.21804
 Mn282 Mn 1.00065 0.55044 -0.00511
 C283 C 1.06974 0.58987 -0.18358
 C284 C 0.93046 0.52085 -0.17909
 N285 N 0.96866 0.44291 -0.10443
 N286 N 0.94530 0.41591 -0.11326
 N287 N 1.03136 0.49251 -0.16761
 N288 N 1.05529 0.50281 -0.21910
 N289 N 1.03152 0.47434 -0.10606
 N290 N 1.05548 0.47164 -0.11430
 N291 N 0.96831 0.46101 -0.16587
 N292 N 0.94462 0.44683 -0.21812
 Mn293 Mn 1.00035 0.45805 -0.00861
 Mn294 Mn 0.99988 0.50454 -0.16684
 Cl295 Cl 1.00036 0.50416 -0.00680
 C296 C 0.93062 0.41875 -0.18448
 C297 C 1.06992 0.48940 -0.18534
 N298 N 0.52595 0.55683 0.10463
 N299 N 0.52902 0.58360 0.11344
 N300 N 0.53868 0.50672 0.16585
 N301 N 0.55220 0.49625 0.21733
 N302 N 0.55717 0.52517 0.10521
 N303 N 0.58382 0.52788 0.11397
 N304 N 0.50741 0.53842 0.16526
 N305 N 0.49724 0.55210 0.21678
 C306 C 0.51107 0.58024 0.18387
 C307 C 0.58033 0.50982 0.18438
 N308 N 0.46543 0.43395 0.09769
 N309 N 0.46224 0.40706 0.10477
 N310 N 0.45181 0.48317 0.16047
 N311 N 0.43754 0.49283 0.21138
 N312 N 0.43421 0.46559 0.09693
 N313 N 0.40741 0.46268 0.10315
 N314 N 0.48305 0.45150 0.16123
 N315 N 0.49246 0.43713 0.21302
 Mn316 Mn 0.49523 0.49494 0.16435
 C317 C 0.47916 0.40947 0.17719
 C318 C 0.40989 0.47971 0.17502
 N319 N 0.55860 0.52650 -0.08795
 N320 N 0.58569 0.53021 -0.09554
 N321 N 0.51003 0.54089 -0.15303
 N322 N 0.50177 0.55583 -0.20674
 N323 N 0.52735 0.55819 -0.08853
 N324 N 0.53118 0.58529 -0.09614
 N325 N 0.54119 0.50925 -0.15237
 N326 N 0.55601 0.50092 -0.20600
 Mn327 Mn 0.54260 0.54200 0.00835
 C328 C 0.58367 0.51419 -0.16953
 C329 C 0.51518 0.58345 -0.17024
 N330 N 0.43569 0.46696 -0.09645
 N331 N 0.40867 0.46315 -0.10747
 N332 N 0.48538 0.45361 -0.15661
 N333 N 0.49443 0.43936 -0.21011
 N334 N 0.46681 0.43536 -0.09567
 N335 N 0.46261 0.40823 -0.10615
 N336 N 0.45411 0.48539 -0.15734
 N337 N 0.44013 0.49472 -0.21131
 Mn338 Mn 0.45020 0.45014 0.00060
 Mn339 Mn 0.49768 0.49728 -0.15610
 Cl340 Cl 0.49643 0.49610 0.00422
 C341 C 0.41184 0.48056 -0.17931
 C342 C 0.47993 0.41110 -0.17770
 N343 N 0.44166 -0.03173 0.09999
 N344 N 0.41492 -0.05553 0.10893
 N345 N 0.49133 0.03121 0.16035
 N346 N 0.50069 0.05460 0.21338
 N347 N 0.47290 0.03106 0.09924
 N348 N 0.46904 0.05424 0.10934
 N349 N 0.46001 -0.03168 0.16121
 N350 N 0.44633 -0.05548 0.21326
 C351 C 0.41824 -0.06997 0.18006
 C352 C 0.48651 0.06861 0.18078
 N353 N 0.56477 0.03139 0.09544
 N354 N 0.59162 0.05514 0.10315
 N355 N 0.51556 -0.03149 0.15896
 N356 N 0.50624 -0.05503 0.21173
 N357 N 0.53342 -0.03149 0.09631
 N358 N 0.53687 -0.05500 0.10503
 N359 N 0.54686 0.03134 0.15805
 N360 N 0.56094 0.05506 0.20976
 Mn361 Mn 0.50345 -0.00015 0.16074
 C362 C 0.58880 0.06952 0.17500
 C363 C 0.51983 -0.06933 0.17744
 N364 N 0.47218 0.03108 -0.09434
 N365 N 0.46899 0.05477 -0.10208
 N366 N 0.45849 -0.03173 -0.15680
 N367 N 0.44383 -0.05496 -0.21021
 N368 N 0.44087 -0.03180 -0.09317
 N369 N 0.41383 -0.05516 -0.10106
 N370 N 0.49007 0.03116 -0.15712
 N371 N 0.49966 0.05497 -0.20895
 Mn372 Mn 0.45657 -0.00035 0.00291
 C373 C 0.48616 0.06930 -0.17407
 C374 C 0.41605 -0.06927 -0.17441
 N375 N 0.53260 -0.03159 -0.09740
 N376 N 0.53614 -0.05501 -0.10649
 N377 N 0.54566 0.03120 -0.15948
 N378 N 0.55958 0.05483 -0.21217
 N379 N 0.56396 0.03115 -0.09820
 N380 N 0.59087 0.05463 -0.10788
 N381 N 0.51419 -0.03178 -0.15871
 N382 N 0.50457 -0.05543 -0.21092
 Mn383 Mn 0.54904 -0.00014 -0.00099
 Mn384 Mn 0.50210 -0.00030 -0.15925
 Cl385 Cl 0.50279 -0.00024 0.00080
 C386 C 0.51859 -0.06954 -0.17764
 C387 C 0.58773 0.06907 -0.17928
 C388 C 1.09948 0.47385 0.29177
 C389 C 1.12079 0.46568 0.24294
 C390 C 1.14644 0.49429 0.27139
 C391 C 1.12748 0.50309 0.32104
 C392 C 1.14582 0.50975 0.18867
 C393 C 1.11825 0.48065 0.15594
 C394 C 1.09771 0.48956 0.20564
 C395 C 1.12511 0.51906 0.23592
 H396 H 1.08069 0.45878 0.33632
 H397 H 1.12018 0.44394 0.24681
 H398 H 1.13251 0.51242 0.39017
 H399 H 1.16532 0.52441 0.14587
 H400 H 1.11509 0.47124 0.08717
 H401 H 1.12762 0.54166 0.23413
 C402 C 0.47648 0.60420 0.21588
 C403 C 0.48068 0.61401 0.31563
 C404 C 0.49777 0.64687 0.28488
 C405 C 0.49353 0.63734 0.18562
 C406 C 0.52756 0.64690 0.28842
 C407 C 0.51054 0.61387 0.31867
 C408 C 0.50629 0.60440 0.21954
 C409 C 0.52336 0.63715 0.18874
 H410 H 0.45552 0.58631 0.18560
 H411 H 0.46302 0.60408 0.36785
 H412 H 0.48642 0.64717 0.13117
 H413 H 0.54858 0.66467 0.31878
 H414 H 0.51765 0.60403 0.37307
 H415 H 0.54099 0.64647 0.13627
 C416 C 0.36133 -0.11480 0.18602
 C417 C 0.36134 -0.14472 0.18339
 C418 C 0.35192 -0.14997 0.28285
 C419 C 0.35166 -0.12035 0.28593
 C420 C 0.38485 -0.13401 0.31307
 C421 C 0.39455 -0.12840 0.21309
 C422 C 0.39414 -0.09893 0.21623
 C423 C 0.38477 -0.10414 0.31554
 H424 H 0.35186 -0.10662 0.13348
 H425 H 0.35157 -0.16166 0.12925
 H426 H 0.33386 -0.11717 0.31643
 H427 H 0.39517 -0.14136 0.36526
 H428 H 0.41251 -0.13133 0.18265
 H429 H 0.39459 -0.08715 0.36952
 C430 C 0.90094 0.52501 0.31239
 C431 C 0.88579 0.54274 0.28057
 C432 C 0.85524 0.51378 0.28393
 C433 C 0.87014 0.49603 0.31609
 C434 C 0.85855 0.50706 0.18519
 C435 C 0.88934 0.53602 0.18146
 C436 C 0.90419 0.51830 0.21386
 C437 C 0.87379 0.48935 0.21697
 H438 H 0.91862 0.53237 0.36446
 H439 H 0.89128 0.56506 0.30586
 H440 H 0.86200 0.47956 0.37199
 H441 H 0.84090 0.49969 0.13298
 H442 H 0.89744 0.55248 0.12555
 H443 H 0.86918 0.46742 0.19046
 C444 C 0.49329 0.36657 0.15483
 C445 C 0.51550 0.36978 0.22997
 C446 C 0.49074 0.34120 0.27457
 C447 C 0.46856 0.33768 0.19977
 C448 C 0.48094 0.35962 0.33136
 C449 C 0.50563 0.38843 0.28648
 C450 C 0.48346 0.38485 0.21190
 C451 C 0.45873 0.35635 0.25630
 H452 H 0.49832 0.36974 0.08174
 H453 H 0.53890 0.37511 0.21930
 H454 H 0.45324 0.31694 0.16299
 H455 H 0.47590 0.35654 0.40445
 H456 H 0.52088 0.40954 0.32187
 H457 H 0.43535 0.35111 0.26693
 C458 C 0.62218 0.10343 0.31017
 C459 C 0.65536 0.12000 0.28136
 C460 C 0.65480 0.14947 0.27826
 C461 C 0.62178 0.13313 0.30752
 C462 C 0.64567 0.14441 0.17855
 C463 C 0.64596 0.11463 0.18119
 C464 C 0.61307 0.09843 0.21063
 C465 C 0.61238 0.12777 0.20742
 H466 H 0.61235 0.08628 0.36400
 H467 H 0.67323 0.11698 0.31236
 H468 H 0.61135 0.14029 0.35957
 H469 H 0.65548 0.16156 0.12470
 H470 H 0.65568 0.10674 0.12892
 H471 H 0.59441 0.13063 0.17649
 C472 C 0.47307 0.11354 -0.17973
 C473 C 0.50272 0.14373 -0.17532
 C474 C 0.49893 0.14930 -0.27488
 C475 C 0.46931 0.11941 -0.27977
 C476 C 0.51646 0.13388 -0.30454
 C477 C 0.52020 0.12798 -0.20450
 C478 C 0.49058 0.09824 -0.20941
 C479 C 0.48678 0.10376 -0.30882
 H480 H 0.45515 0.10490 -0.12814
 H481 H 0.50939 0.16040 -0.12057
 H482 H 0.44834 0.11598 -0.31124
 H483 H 0.53437 0.14165 -0.35594
 H484 H 0.54108 0.13116 -0.17309
 H485 H 0.48012 0.08705 -0.36343
 C486 C 0.62628 0.52747 -0.29181
 C487 C 0.65591 0.53641 -0.24205
 C488 C 0.65385 0.50709 -0.27322
 C489 C 0.62450 0.49815 -0.32331
 C490 C 0.63648 0.49098 -0.18748
 C491 C 0.63825 0.52036 -0.15609
 C492 C 0.60897 0.51143 -0.20637
 C493 C 0.60683 0.48210 -0.23719
 H494 H 0.62184 0.54250 -0.33435
 H495 H 0.67629 0.55880 -0.24399
 H496 H 0.61902 0.48896 -0.39250
 H497 H 0.64041 0.47597 -0.14323
 H498 H 0.64366 0.52952 -0.08686
 H499 H 0.58633 0.45980 -0.23492
 C500 C 0.88301 0.39589 -0.29611
 C501 C 0.88000 0.36713 -0.33787
 C502 C 0.85197 0.34833 -0.28021
 C503 C 0.85461 0.37680 -0.23888
 C504 C 0.87118 0.34635 -0.20406
 C505 C 0.89947 0.36539 -0.26142
 C506 C 0.90210 0.39378 -0.22021
 C507 C 0.87414 0.37511 -0.16251
 H508 H 0.88814 0.41649 -0.33361
 H509 H 0.88222 0.36361 -0.41042
 H510 H 0.83594 0.38132 -0.22950
 H511 H 0.86679 0.32636 -0.16439
 H512 H 0.91821 0.36098 -0.27061
 H513 H 0.87202 0.37876 -0.09005
 C514 C 0.49254 -0.11730 -0.28712
 C515 C 0.51763 -0.12071 -0.33222
 C516 C 0.50881 -0.14864 -0.27438
 C517 C 0.48365 -0.14556 -0.22966
 C518 C 0.53094 -0.12940 -0.20045
 C519 C 0.53980 -0.10120 -0.25797
 C520 C 0.51468 -0.09817 -0.21337
 C521 C 0.50580 -0.12601 -0.15543
 H522 H 0.47677 -0.11209 -0.32246
 H523 H 0.52251 -0.11878 -0.40539
 H524 H 0.46051 -0.16405 -0.21802
 H525 H 0.54679 -0.13412 -0.16357
 H526 H 0.56292 -0.08265 -0.26950
 H527 H 0.50089 -0.12790 -0.08236
 C528 C 0.38547 0.51260 -0.22077
 C529 C 0.37510 0.50614 -0.32000
 C530 C 0.34245 0.48826 -0.28802
 C531 C 0.35253 0.49477 -0.18920
 C532 C 0.34409 0.45933 -0.28541
 C533 C 0.37697 0.47718 -0.31704
 C534 C 0.38696 0.48368 -0.21843
 C535 C 0.35439 0.46584 -0.18624
 H536 H 0.40280 0.53448 -0.19384
 H537 H 0.38340 0.52274 -0.37556
 H538 H 0.34224 0.50198 -0.13672
 H539 H 0.32727 0.43705 -0.31110
 H540 H 0.38730 0.46998 -0.36937
 H541 H 0.34604 0.44924 -0.13068
 C542 C 1.12825 0.61384 -0.21397
 C543 C 1.13404 0.62287 -0.31444
 C544 C 1.14990 0.65597 -0.28654
 C545 C 1.14442 0.64721 -0.18653
 C546 C 1.12021 0.65612 -0.29210
 C547 C 1.10412 0.62284 -0.31941
 C548 C 1.09870 0.61409 -0.21956
 C549 C 1.11442 0.64707 -0.19159
 H550 H 1.13122 0.59619 -0.18125
 H551 H 1.14147 0.61223 -0.36502
 H552 H 1.16124 0.65735 -0.13205
 H553 H 1.11701 0.67364 -0.32478
 H554 H 1.08725 0.61264 -0.37373
 H555 H 1.10606 0.65679 -0.14078
 C556 C 0.88204 0.49412 -0.28503
 C557 C 0.85405 0.48514 -0.22633
 C558 C 0.85036 0.50988 -0.27181
 C559 C 0.87802 0.51878 -0.33081
 C560 C 0.86986 0.53244 -0.19914
 C561 C 0.87391 0.50773 -0.15342
 C562 C 0.90147 0.51667 -0.21262
 C563 C 0.89781 0.54137 -0.25785
 H564 H 0.88730 0.47839 -0.32005
 H565 H 0.83583 0.46196 -0.21331
 H566 H 0.87950 0.52333 -0.40421
 H567 H 0.86523 0.54830 -0.16231
 H568 H 0.87258 0.50322 -0.08003
 H569 H 0.91613 0.56451 -0.27067
 C570 C 0.47585 0.37562 -0.31419
 C571 C 0.50445 0.37303 -0.31609
 C572 C 0.48598 0.34057 -0.28283
 C573 C 0.45740 0.34290 -0.28135
 C574 C 0.49271 0.35092 -0.18434
 C575 C 0.51112 0.38370 -0.21718
 C576 C 0.48256 0.38591 -0.21594
 C577 C 0.46415 0.35352 -0.18255
 H578 H 0.46897 0.38608 -0.36734
 H579 H 0.52104 0.38086 -0.37155
 H580 H 0.43487 0.32645 -0.30650
 H581 H 0.49958 0.34057 -0.13086
 H582 H 0.53317 0.40079 -0.19048
 H583 H 0.44756 0.34566 -0.12709
 C584 C 0.63950 0.10044 -0.26622
 C585 C 0.63598 0.12033 -0.33747
 C586 C 0.65632 0.14802 -0.28063
 C587 C 0.66004 0.12839 -0.20980
 C588 C 0.62902 0.14523 -0.23024
 C589 C 0.60846 0.11722 -0.28671
 C590 C 0.61230 0.09768 -0.21597
 C591 C 0.63248 0.12527 -0.15895
 H592 H 0.64354 0.08172 -0.28076
 H593 H 0.63758 0.11854 -0.41141
 H594 H 0.68149 0.13327 -0.17832
 H595 H 0.62438 0.16351 -0.21506
 H596 H 0.58699 0.11236 -0.31808
 H597 H 0.63078 0.12696 -0.08501
 C598 C 1.11483 0.47747 -0.18974
 C599 C 1.12109 0.47409 -0.28944
 C600 C 1.15073 0.50391 -0.28367
 C601 C 1.14474 0.50734 -0.18439
 C602 C 1.13497 0.52107 -0.31405
 C603 C 1.10509 0.49117 -0.31933
 C604 C 1.09916 0.49461 -0.22017
 C605 C 1.12864 0.52444 -0.21428
 H606 H 1.10628 0.45946 -0.13836
 H607 H 1.11818 0.45337 -0.32086
 H608 H 1.16132 0.51411 -0.12914
 H609 H 1.14293 0.53911 -0.36519
 H610 H 1.08848 0.48440 -0.37452
 H611 H 1.13139 0.54509 -0.18283
 C612 C 0.52901 0.62675 -0.29094
 C613 C 0.49982 0.62516 -0.32365
 C614 C 0.50848 0.65414 -0.27221
 C615 C 0.53766 0.65600 -0.23983
 C616 C 0.49190 0.63619 -0.18774
 C617 C 0.48330 0.60691 -0.23879
 C618 C 0.51249 0.60886 -0.20676
 C619 C 0.52114 0.63776 -0.15514
 H620 H 0.54427 0.62261 -0.33304
 H621 H 0.49099 0.62017 -0.39339
 H622 H 0.56006 0.67638 -0.24016
 H623 H 0.47664 0.63981 -0.14395
 H624 H 0.46098 0.58641 -0.23813
 H625 H 0.52994 0.64270 -0.08537
 C626 C 0.37236 -0.09871 -0.29352
 C627 C 0.37441 -0.12575 -0.32866
 C628 C 0.34579 -0.14678 -0.27621
 C629 C 0.34347 -0.12002 -0.24141
 C630 C 0.36433 -0.14550 -0.19335
 C631 C 0.39324 -0.12411 -0.24539
 C632 C 0.39083 -0.09742 -0.21093
 C633 C 0.36229 -0.11839 -0.15832
 H634 H 0.37593 -0.07920 -0.33437
 H635 H 0.37921 -0.12901 -0.39915
 H636 H 0.32281 -0.11850 -0.23969
 H637 H 0.36130 -0.16447 -0.15081
 H638 H 0.41402 -0.12544 -0.24681
 H639 H 0.35755 -0.11510 -0.08780
 C640 C 0.50676 -0.12613 0.15798
 C641 C 0.53138 -0.12978 0.20597
 C642 C 0.50875 -0.14847 0.27955
 C643 C 0.48407 -0.14516 0.23202
 C644 C 0.51772 -0.12020 0.33532
 C645 C 0.54040 -0.10124 0.26132
 C646 C 0.51578 -0.09797 0.21391
 C647 C 0.49314 -0.11659 0.28743
 H648 H 0.50231 -0.12823 0.08461
 H649 H 0.54704 -0.13552 0.17262
 H650 H 0.46072 -0.16303 0.21959
 H651 H 0.52214 -0.11801 0.40878
 H652 H 0.56359 -0.08288 0.27307
 H653 H 0.47742 -0.11091 0.32072
 C654 C 0.38884 0.50687 0.28100
 C655 C 0.37016 0.51633 0.22245
 C656 C 0.34154 0.49182 0.26758
 C657 C 0.35998 0.48243 0.32641
 C658 C 0.33810 0.46923 0.19468
 C659 C 0.36703 0.49371 0.14922
 C660 C 0.38533 0.48429 0.20831
 C661 C 0.35679 0.45981 0.25324
 H662 H 0.40993 0.52233 0.31621
 H663 H 0.37545 0.53963 0.20988
 H664 H 0.35684 0.47782 0.39975
 H665 H 0.31737 0.45370 0.15809
 H666 H 0.37024 0.49830 0.07588
 H667 H 0.35159 0.43653 0.26576
 C668 C 1.12692 0.63329 0.15202
 C669 C 1.13023 0.66094 0.20253
 C670 C 1.14933 0.65677 0.27425
 C671 C 1.14636 0.62940 0.22421
 C672 C 1.12126 0.63667 0.33028
 C673 C 1.10189 0.64062 0.25817
 C674 C 1.09895 0.61335 0.20828
 C675 C 1.11798 0.60909 0.27990
 H676 H 1.12888 0.63164 0.07819
 H677 H 1.13556 0.68251 0.17089
 H678 H 1.16450 0.62445 0.20986
 H679 H 1.11917 0.63822 0.40411
 H680 H 1.08331 0.64498 0.27185
 H681 H 1.11268 0.58752 0.31148
 C682 C 0.49658 0.12449 0.16318
 C683 C 0.47189 0.12661 0.21598
 C684 C 0.49525 0.14614 0.28662
 C685 C 0.52000 0.14437 0.23428
 C686 C 0.48867 0.11830 0.34192
 C687 C 0.46526 0.09850 0.27087
 C688 C 0.48994 0.09674 0.21868
 C689 C 0.51332 0.11620 0.28922
 H690 H 0.49975 0.12668 0.08915
 H691 H 0.45489 0.13118 0.18608
 H692 H 0.54270 0.16310 0.21892
 H693 H 0.48550 0.11600 0.41594
 H694 H 0.44273 0.07934 0.28557
 H695 H 0.53036 0.11166 0.31902
 C696 C 0.61406 0.50858 0.31868
 C697 C 0.61422 0.47876 0.31438
 C698 C 0.64705 0.49598 0.28334
 C699 C 0.64706 0.52571 0.28816
 C700 C 0.63732 0.49212 0.18421
 C701 C 0.60420 0.47496 0.21473
 C702 C 0.60440 0.50472 0.21967
 C703 C 0.63712 0.52190 0.18863
 H704 H 0.60430 0.51546 0.37366
 H705 H 0.60440 0.46091 0.36614
 H706 H 0.66489 0.54661 0.31885
 H707 H 0.64706 0.48525 0.12917
 H708 H 0.58624 0.45413 0.18412
 H709 H 0.64637 0.53973 0.13665
 C710 C 0.87569 0.37247 0.15311
 C711 C 0.87340 0.34506 0.20297
 C712 C 0.85407 0.34833 0.27550
 C713 C 0.85603 0.37547 0.22611
 C714 C 0.88207 0.36888 0.33101
 C715 C 0.90168 0.36583 0.25803
 C716 C 0.90360 0.39286 0.20876
 C717 C 0.88435 0.39624 0.28124
 H718 H 0.87341 0.37422 0.07947
 H719 H 0.86861 0.32376 0.17097
 H720 H 0.83741 0.37979 0.21261
 H721 H 0.88445 0.36723 0.40469
 H722 H 0.92075 0.36214 0.27085
 H723 H 0.88912 0.41754 0.31317
   
