data_POSCAR
  _audit_creation_date              2014-09-24
  _audit_creation_method            'ToBaCCo'
  _symmetry_space_group_name_H-M    'P1'
  _symmetry_Int_Tables_number       1
  _symmetry_cell_setting            triclinic
  loop_
  _symmetry_equiv_pos_as_xyz
 x,y,z
_cell_length_a 34.8805
_cell_length_b 34.8637
_cell_length_c 34.9604
_cell_angle_alpha 90.215400
_cell_angle_beta 90.236500
_cell_angle_gamma 89.994000
loop_
  _atom_site_label
  _atom_site_type_symbol
  _atom_site_fract_x
  _atom_site_fract_y
  _atom_site_fract_z
C1 C 0.72101 0.68894 0.95129
 H2 H 0.74785 0.68617 0.93613
 C3 C 0.69066 0.70909 0.93464
 H4 H 0.69473 0.72254 0.90709
 C5 C 0.68214 0.67230 1.00411
 H6 H 0.67849 0.65704 1.03067
 C7 C 0.65108 0.69221 0.98854
 H8 H 0.62383 0.69166 1.00324
 N9 N 0.71568 0.66952 0.98452
 C10 C 0.82617 0.63069 1.02975
 H11 H 0.81828 0.60158 1.03663
 C12 C 0.86167 0.64455 1.04164
 H13 H 0.88110 0.62560 1.05673
 C14 C 0.80952 0.69132 1.00424
 H15 H 0.78883 0.70964 0.99027
 C16 C 0.84511 0.70641 1.01552
 H17 H 0.85143 0.73636 1.01045
 Zn18 Zn 0.75218 0.63185 0.99948
 N19 N 0.80067 0.65404 1.01171
 C20 C 0.78841 0.57180 0.95793
 N21 N 0.75817 0.59644 0.95812
 C22 C 0.73373 0.59826 0.92768
 C23 C 0.74135 0.57762 0.89425
 C24 C 0.79702 0.55056 0.92518
 C25 C 0.74651 0.61491 1.07843
 C26 C 0.73040 0.59828 1.11085
 C27 C 0.68626 0.56410 1.06970
 C28 C 0.70392 0.58077 1.03810
 N29 N 0.73314 0.60599 1.04297
 H30 H 0.80707 0.56974 0.98243
 H31 H 0.70883 0.61661 0.92871
 H32 H 0.72244 0.58070 0.86980
 H33 H 0.82271 0.53313 0.92496
 H34 H 0.76880 0.63618 1.08187
 H35 H 0.74106 0.60808 1.13825
 H36 H 0.66382 0.54349 1.06394
 H37 H 0.69376 0.57421 1.00953
 C38 C 0.87131 0.68296 1.03510
 C39 C 0.65463 0.70942 0.95251
 C40 C 0.69884 0.57294 1.10737
 C41 C 0.77414 0.55442 0.89227
 C42 C 0.71774 0.33389 0.53349
 H43 H 0.74485 0.33357 0.54863
 C44 C 0.68633 0.31394 0.54811
 H45 H 0.68965 0.29842 0.57468
 C46 C 0.68003 0.35680 0.48190
 H47 H 0.67739 0.37415 0.45650
 C48 C 0.64795 0.33718 0.49542
 H49 H 0.62120 0.33909 0.47973
 N50 N 0.71400 0.35504 0.50112
 C51 C 0.82616 0.37689 0.45125
 H52 H 0.82330 0.40760 0.44797
 C53 C 0.85916 0.35846 0.43850
 H54 H 0.88125 0.37521 0.42471
 C55 C 0.80006 0.31796 0.47247
 H56 H 0.77693 0.30242 0.48583
 C57 C 0.83276 0.29826 0.46005
 H58 H 0.83457 0.26755 0.46412
 Zn59 Zn 0.75556 0.38627 0.48574
 N60 N 0.79764 0.35667 0.46822
 C61 C 0.80808 0.40992 0.54177
 N62 N 0.77163 0.41533 0.52896
 C63 C 0.74647 0.43750 0.54890
 C64 C 0.75793 0.45548 0.58302
 C65 C 0.82061 0.42716 0.57548
 C66 C 0.73782 0.39838 0.41018
 C67 C 0.72214 0.41603 0.37813
 C68 C 0.71077 0.47286 0.41619
 C69 C 0.72713 0.45410 0.44770
 N70 N 0.73930 0.41714 0.44428
 H71 H 0.82738 0.39111 0.52667
 H72 H 0.71725 0.44044 0.53884
 H73 H 0.73761 0.47302 0.59857
 H74 H 0.84944 0.42128 0.58546
 H75 H 0.74763 0.36902 0.40823
 H76 H 0.72065 0.40016 0.35148
 H77 H 0.69942 0.50156 0.41970
 H78 H 0.72863 0.46852 0.47506
 C79 C 0.86302 0.31866 0.44309
 C80 C 0.65066 0.31578 0.52925
 C81 C 0.70715 0.45327 0.38113
 C82 C 0.79553 0.45030 0.59672
 C83 C 0.22035 -0.16693 0.03323
 H84 H 0.24765 -0.16728 0.04804
 C85 C 0.18906 -0.18674 0.04832
 H86 H 0.19268 -0.20217 0.07490
 C87 C 0.18201 -0.14400 -0.01787
 H88 H 0.17894 -0.12657 -0.04314
 C89 C 0.15009 -0.16354 -0.00394
 H90 H 0.12318 -0.16159 -0.01934
 N91 N 0.21627 -0.14586 0.00084
 C92 C 0.32859 -0.12363 -0.04888
 H93 H 0.32542 -0.09297 -0.05232
 C94 C 0.36194 -0.14173 -0.06119
 H95 H 0.38399 -0.12480 -0.07482
 C96 C 0.30295 -0.18276 -0.02764
 H97 H 0.27985 -0.19850 -0.01446
 C98 C 0.33597 -0.20215 -0.03972
 H99 H 0.33808 -0.23284 -0.03559
 Zn100 Zn 0.25768 -0.11464 -0.01523
 N101 N 0.30014 -0.14410 -0.03206
 C102 C 0.30948 -0.08994 0.04096
 N103 N 0.27333 -0.08447 0.02734
 C104 C 0.24804 -0.06154 0.04623
 C105 C 0.25896 -0.04305 0.08026
 C106 C 0.32151 -0.07214 0.07456
 C107 C 0.23705 -0.10576 -0.09011
 C108 C 0.22141 -0.08921 -0.12270
 C109 C 0.21699 -0.02903 -0.08868
 C110 C 0.23285 -0.04705 -0.05646
 N111 N 0.24134 -0.08506 -0.05752
 H112 H 0.32885 -0.10932 0.02668
 H113 H 0.21910 -0.05843 0.03542
 H114 H 0.23852 -0.02503 0.09507
 H115 H 0.35007 -0.07809 0.08526
 H116 H 0.24501 -0.13576 -0.09045
 H117 H 0.22000 -0.10715 -0.14793
 H118 H 0.20853 0.00060 -0.08544
 H119 H 0.23695 -0.03097 -0.03026
 C120 C 0.36617 -0.18147 -0.05644
 C121 C 0.15315 -0.18486 0.02991
 C122 C 0.20920 -0.05044 -0.12247
 C123 C 0.29620 -0.04843 0.09486
 C124 C 0.21784 0.19154 0.45119
 H125 H 0.24478 0.18980 0.43607
 C126 C 0.18703 0.21117 0.43478
 H127 H 0.19083 0.22530 0.40753
 C128 C 0.17900 0.17217 0.50311
 H129 H 0.17542 0.15560 0.52890
 C130 C 0.14751 0.19163 0.48783
 H131 H 0.12010 0.18977 0.50214
 N132 N 0.21285 0.17117 0.48390
 C133 C 0.32242 0.13273 0.53026
 H134 H 0.31364 0.10396 0.53760
 C135 C 0.35784 0.14623 0.54283
 H136 H 0.37636 0.12739 0.55912
 C137 C 0.30811 0.19267 0.50186
 H138 H 0.28831 0.21089 0.48657
 C139 C 0.34361 0.20739 0.51381
 H140 H 0.35078 0.23697 0.50781
 Zn141 Zn 0.24992 0.13383 0.49793
 N142 N 0.29823 0.15588 0.51032
 C143 C 0.28606 0.07446 0.45587
 N144 N 0.25572 0.09895 0.45630
 C145 C 0.23107 0.10086 0.42604
 C146 C 0.23843 0.08023 0.39256
 C147 C 0.29434 0.05311 0.42309
 C148 C 0.23729 0.12491 0.57626
 C149 C 0.22247 0.10815 0.60920
 C150 C 0.19742 0.05646 0.57014
 C151 C 0.21325 0.07392 0.53798
 N152 N 0.23230 0.10775 0.54159
 H153 H 0.30498 0.07267 0.48025
 H154 H 0.20622 0.11927 0.42725
 H155 H 0.21942 0.08338 0.36820
 H156 H 0.31999 0.03563 0.42259
 H157 H 0.25215 0.15209 0.57816
 H158 H 0.22583 0.12261 0.63648
 H159 H 0.18156 0.02994 0.56686
 H160 H 0.20940 0.06110 0.51001
 C161 C 0.36864 0.18414 0.53512
 C162 C 0.15090 0.20995 0.45236
 C163 C 0.20169 0.07386 0.60622
 C164 C 0.27112 0.05693 0.39041
 C165 C 0.19023 0.44815 0.21777
 H166 H 0.18859 0.43278 0.24453
 C167 C 0.20956 0.43181 0.18681
 H168 H 0.22354 0.40431 0.19030
 C169 C 0.17117 0.50092 0.17962
 H170 H 0.15494 0.52710 0.17638
 C171 C 0.19034 0.48575 0.14804
 H172 H 0.18855 0.50051 0.12089
 N173 N 0.17017 0.48129 0.21319
 C174 C 0.13364 0.52890 0.32261
 H175 H 0.10496 0.53678 0.31389
 C176 C 0.14753 0.54144 0.35783
 H177 H 0.12904 0.55823 0.37622
 C178 C 0.19302 0.49920 0.30837
 H179 H 0.21082 0.48332 0.28869
 C180 C 0.20815 0.51116 0.34370
 H181 H 0.23767 0.50465 0.35084
 Zn182 Zn 0.13354 0.49602 0.25054
 N183 N 0.15632 0.50835 0.29853
 C184 C 0.07404 0.45554 0.28748
 N185 N 0.09820 0.45497 0.25706
 C186 C 0.09934 0.42421 0.23296
 C187 C 0.07816 0.39122 0.24094
 C188 C 0.05230 0.42326 0.29646
 C189 C 0.12445 0.57480 0.23887
 C190 C 0.10797 0.60797 0.22386
 C191 C 0.05749 0.56897 0.19639
 C192 C 0.07462 0.53657 0.21246
 N193 N 0.10768 0.54006 0.23288
 H194 H 0.07281 0.48032 0.30594
 H195 H 0.11751 0.42465 0.20805
 H196 H 0.08060 0.36650 0.22228
 H197 H 0.03518 0.42359 0.32222
 H198 H 0.15114 0.57662 0.25462
 H199 H 0.12211 0.63532 0.22810
 H200 H 0.03159 0.56581 0.17948
 H201 H 0.06219 0.50852 0.20774
 C202 C 0.18538 0.53314 0.36855
 C203 C 0.20843 0.44994 0.15098
 C204 C 0.07444 0.60514 0.20181
 C205 C 0.05523 0.39005 0.27380
 C206 C -0.17060 0.03003 0.22149
 H207 H -0.17263 0.04425 0.24897
 C208 C -0.19101 0.04424 0.19013
 H209 H -0.20792 0.06984 0.19456
 C210 C -0.14283 -0.01833 0.18294
 H211 H -0.12365 -0.04247 0.18004
 C212 C -0.16239 -0.00494 0.15074
 H213 H -0.15867 -0.02041 0.12416
 N214 N -0.14692 -0.00058 0.21736
 C215 C -0.12410 -0.04997 0.32955
 H216 H -0.09335 -0.05273 0.32675
 C217 C -0.14217 -0.06310 0.36243
 H218 H -0.12507 -0.07669 0.38445
 C219 C -0.18351 -0.02980 0.30336
 H220 H -0.19944 -0.01684 0.28021
 C221 C -0.20285 -0.04251 0.33597
 H222 H -0.23362 -0.03891 0.33770
 Zn223 Zn -0.11554 -0.01554 0.25905
 N224 N -0.14475 -0.03333 0.30103
 C225 C -0.09233 0.04112 0.31121
 N226 N -0.08694 0.02803 0.27494
 C227 C -0.06484 0.04780 0.24977
 C228 C -0.04682 0.08198 0.26104
 C229 C -0.07505 0.07492 0.32356
 C230 C -0.10292 -0.09101 0.24092
 C231 C -0.08505 -0.12298 0.22517
 C232 C -0.02824 -0.08475 0.21503
 C233 C -0.04721 -0.05334 0.23149
 N234 N -0.08427 -0.05687 0.24304
 H235 H -0.11108 0.02611 0.33049
 H236 H -0.06189 0.03749 0.22071
 H237 H -0.02927 0.09734 0.24073
 H238 H -0.08082 0.08512 0.35225
 H239 H -0.13236 -0.09302 0.25028
 H240 H -0.10083 -0.14967 0.22319
 H241 H 0.00052 -0.08111 0.20412
 H242 H -0.03288 -0.02594 0.23351
 C243 C -0.18205 -0.05918 0.36621
 C244 C -0.18668 0.02732 0.15354
 C245 C -0.04772 -0.11983 0.21071
 C246 C -0.05190 0.09594 0.29846
 C247 C 0.33435 0.53611 0.71871
 H248 H 0.33395 0.55176 0.74548
 C249 C 0.31472 0.55042 0.68689
 H250 H 0.29935 0.57726 0.68957
 C251 C 0.35715 0.48350 0.68224
 H252 H 0.37429 0.45778 0.68025
 C253 C 0.33784 0.49669 0.64978
 H254 H 0.33979 0.48045 0.62341
 N255 N 0.35531 0.50338 0.71577
 C256 C 0.37662 0.45424 0.82837
 H257 H 0.40736 0.45103 0.82585
 C258 C 0.35805 0.44128 0.86104
 H259 H 0.37474 0.42744 0.88321
 C260 C 0.31775 0.47527 0.80164
 H261 H 0.30228 0.48856 0.77834
 C262 C 0.29790 0.46262 0.83400
 H263 H 0.26714 0.46649 0.83542
 Zn264 Zn 0.38628 0.48823 0.75772
 N265 N 0.35648 0.47117 0.79965
 C266 C 0.41056 0.54442 0.80998
 N267 N 0.41552 0.53150 0.77359
 C268 C 0.43759 0.55125 0.74836
 C269 C 0.45600 0.58522 0.75970
 C270 C 0.42827 0.57798 0.82240
 C271 C 0.39856 0.41198 0.74174
 C272 C 0.41594 0.37965 0.72615
 C273 C 0.47194 0.41788 0.71236
 C274 C 0.45347 0.44967 0.72866
 N275 N 0.41704 0.44629 0.74205
 H276 H 0.39183 0.52950 0.82933
 H277 H 0.44015 0.54116 0.71919
 H278 H 0.47347 0.60059 0.73934
 H279 H 0.42284 0.58802 0.85122
 H280 H 0.36954 0.41007 0.75233
 H281 H 0.40028 0.35284 0.72560
 H282 H 0.50015 0.42136 0.70005
 H283 H 0.46763 0.47722 0.72909
 C284 C 0.31818 0.44559 0.86439
 C285 C 0.31666 0.53087 0.65165
 C286 C 0.45258 0.38257 0.71000
 C287 C 0.45138 0.59896 0.79726
 C288 C 0.69339 0.95114 0.71956
 H289 H 0.69164 0.93640 0.74666
 C290 C 0.71242 0.93386 0.68894
 H291 H 0.72612 0.90630 0.69303
 C292 C 0.67463 1.00313 0.68021
 H293 H 0.65852 1.02930 0.67637
 C294 C 0.69352 0.98700 0.64893
 H295 H 0.69170 1.00107 0.62142
 N296 N 0.67362 0.98434 0.71425
 C297 C 0.63735 1.03581 0.82156
 H298 H 0.60882 1.04363 0.81224
 C299 C 0.65091 1.04923 0.85656
 H300 H 0.63141 1.06586 0.87396
 C301 C 0.69575 1.00351 0.80983
 H302 H 0.71334 0.98619 0.79117
 C303 C 0.71050 1.01599 0.84514
 H304 H 0.73969 1.00840 0.85239
 Zn305 Zn 0.63700 0.99984 0.75120
 N306 N 0.65972 1.01365 0.79878
 C307 C 0.57937 0.95874 0.79031
 N308 N 0.60216 0.95862 0.75885
 C309 C 0.60245 0.92812 0.73439
 C310 C 0.58161 0.89502 0.74278
 C311 C 0.55793 0.92634 0.79967
 C312 C 0.62804 1.07796 0.73600
 C313 C 0.61082 1.11071 0.72091
 C314 C 0.55835 1.07125 0.69830
 C315 C 0.57627 1.03930 0.71444
 N316 N 0.61065 1.04320 0.73248
 H317 H 0.57905 0.98327 0.80919
 H318 H 0.61967 0.92890 0.70881
 H319 H 0.58331 0.87052 0.72373
 H320 H 0.54177 0.92630 0.82605
 H321 H 0.65565 1.08009 0.75005
 H322 H 0.62536 1.13808 0.72326
 H323 H 0.53132 1.06776 0.68333
 H324 H 0.56326 1.01126 0.71175
 C325 C 0.68834 1.04008 0.86900
 C326 C 0.71127 0.95110 0.65268
 C327 C 0.57583 1.10743 0.70132
 C328 C 0.55987 0.89347 0.77640
 C329 C 0.03281 0.21660 -0.16681
 H330 H 0.04822 0.24353 -0.16655
 C331 C 0.04771 0.18506 -0.18650
 H332 H 0.07475 0.18808 -0.20126
 C333 C -0.01992 0.17953 -0.14571
 H334 H -0.04608 0.17741 -0.12941
 C335 C -0.00604 0.14725 -0.16501
 H336 H -0.02202 0.12067 -0.16377
 N337 N -0.00017 0.21319 -0.14656
 C338 C -0.04808 0.32678 -0.12452
 H339 H -0.04968 0.32492 -0.09368
 C340 C -0.06076 0.35975 -0.14294
 H341 H -0.07293 0.38272 -0.12596
 C342 C -0.03105 0.29828 -0.18370
 H343 H -0.01927 0.27423 -0.19933
 C344 C -0.04334 0.33103 -0.20341
 H345 H -0.04075 0.33194 -0.23423
 Zn346 Zn -0.01549 0.25480 -0.11531
 N347 N -0.03339 0.29693 -0.14489
 C348 C 0.04099 0.30795 -0.09263
 N349 N 0.02858 0.27138 -0.08717
 C350 C 0.04947 0.24636 -0.06567
 C351 C 0.08366 0.25820 -0.04803
 C352 C 0.07478 0.32085 -0.07573
 C353 C -0.09247 0.24898 -0.09283
 C354 C -0.12409 0.23443 -0.07347
 C355 C -0.08109 0.19758 -0.03397
 C356 C -0.05022 0.21324 -0.05403
 N357 N -0.05633 0.23816 -0.08318
 H358 H 0.02560 0.32712 -0.11126
 H359 H 0.04038 0.21688 -0.06317
 H360 H 0.09981 0.23796 -0.03095
 H361 H 0.08429 0.34979 -0.08156
 H362 H -0.09720 0.26815 -0.11655
 H363 H -0.15166 0.24564 -0.08195
 H364 H -0.07404 0.17620 -0.01285
 H365 H -0.02147 0.20407 -0.04725
 C366 C -0.05820 0.36248 -0.18290
 C367 C 0.02850 0.14960 -0.18535
 C368 C -0.11946 0.20703 -0.04397
 C369 C 0.09667 0.29601 -0.05296
 C370 C 0.44766 0.22007 0.18923
 H371 H 0.43259 0.24704 0.18654
 C372 C 0.43070 0.18977 0.20896
 H373 H 0.40299 0.19401 0.22219
 C374 C 0.50034 0.18064 0.17234
 H375 H 0.52673 0.17663 0.15676
 C376 C 0.48451 0.14967 0.19194
 H377 H 0.49898 0.12220 0.19113
 N378 N 0.48110 0.21452 0.17009
 C379 C 0.53009 0.32284 0.13243
 H380 H 0.53836 0.31350 0.10413
 C381 C 0.54245 0.35834 0.14587
 H382 H 0.55959 0.37635 0.12744
 C383 C 0.49925 0.30993 0.19125
 H384 H 0.48297 0.29067 0.20904
 C385 C 0.51099 0.34556 0.20590
 H386 H 0.50391 0.35334 0.23504
 Zn387 Zn 0.49662 0.25096 0.13303
 N388 N 0.50902 0.29931 0.15505
 C389 C 0.45619 0.28810 0.07341
 N390 N 0.45594 0.25731 0.09717
 C391 C 0.42551 0.23284 0.09781
 C392 C 0.39251 0.24079 0.07652
 C393 C 0.42387 0.29705 0.05158
 C394 C 0.57529 0.23762 0.12575
 C395 C 0.60856 0.22228 0.10984
 C396 C 0.57015 0.19580 0.05841
 C397 C 0.53765 0.21219 0.07499
 N398 N 0.54079 0.23229 0.10824
 H399 H 0.48068 0.30692 0.07267
 H400 H 0.42621 0.20772 0.11576
 H401 H 0.36802 0.22183 0.07860
 H402 H 0.42389 0.32311 0.03482
 H403 H 0.57682 0.25323 0.15251
 H404 H 0.63572 0.22607 0.12451
 H405 H 0.56727 0.17923 0.03229
 H406 H 0.50979 0.20806 0.06191
 C407 C 0.53341 0.36992 0.18320
 C408 C 0.44844 0.15359 0.20912
 C409 C 0.60608 0.20060 0.07608
 C410 C 0.39096 0.27400 0.05403
 C411 C 0.95177 0.71697 0.69080
 H412 H 0.93701 0.74421 0.68929
 C413 C 0.93520 0.68655 0.71066
 H414 H 0.90819 0.69096 0.72520
 C415 C 1.00297 0.67706 0.67077
 H416 H 1.02853 0.67297 0.65390
 C417 C 0.98747 0.64593 0.69039
 H418 H 1.00139 0.61824 0.68832
 N419 N 0.98420 0.71129 0.67006
 C420 C 1.03024 0.82072 0.63140
 H421 H 1.03724 0.81192 0.60260
 C422 C 1.04246 0.85637 0.64459
 H423 H 1.05782 0.87507 0.62531
 C424 C 1.00348 0.80618 0.69179
 H425 H 0.98891 0.78623 0.71028
 C426 C 1.01539 0.84180 0.70631
 H427 H 1.01011 0.84882 0.73602
 Zn428 Zn 0.99842 0.74807 0.63283
 N429 N 1.01109 0.79638 0.65484
 C430 C 0.95674 0.78407 0.57322
 N431 N 0.95668 0.75417 0.59808
 C432 C 0.92593 0.73022 0.60035
 C433 C 0.89247 0.73797 0.57974
 C434 C 0.92396 0.79281 0.55201
 C435 C 1.07687 0.73551 0.62337
 C436 C 1.10988 0.72082 0.60638
 C437 C 1.07047 0.69472 0.55550
 C438 C 1.03823 0.71045 0.57318
 N439 N 1.04200 0.73003 0.60668
 H440 H 0.98151 0.80235 0.57098
 H441 H 0.92676 0.70563 0.61901
 H442 H 0.86777 0.71949 0.58313
 H443 H 0.92392 0.81824 0.53433
 H444 H 1.07891 0.75077 0.65030
 H445 H 1.13735 0.72468 0.62042
 H446 H 1.06710 0.67853 0.52921
 H447 H 1.01010 0.70623 0.56074
 C448 C 1.03565 0.86715 0.68265
 C449 C 0.95226 0.65006 0.70922
 C450 C 1.10678 0.69966 0.57233
 C451 C 0.89079 0.77041 0.55619
 C452 C 0.53124 0.72143 0.32949
 H453 H 0.54637 0.74850 0.32859
 C454 C 0.54551 0.68968 0.30960
 H455 H 0.57180 0.69271 0.29356
 C456 C 0.48017 0.68415 0.35389
 H457 H 0.45519 0.68177 0.37187
 C458 C 0.49331 0.65176 0.33433
 H459 H 0.47768 0.62507 0.33689
 N460 N 0.49938 0.71804 0.35145
 C461 C 0.45414 0.83237 0.37530
 H462 H 0.45371 0.83043 0.40618
 C463 C 0.44131 0.86563 0.35743
 H464 H 0.42999 0.88819 0.37543
 C465 C 0.46763 0.80345 0.31554
 H466 H 0.47817 0.77912 0.29946
 C467 C 0.45435 0.83605 0.29628
 H468 H 0.45589 0.83620 0.26540
 Zn469 Zn 0.48509 0.75981 0.38316
 N470 N 0.46754 0.80240 0.35439
 C471 C 0.54325 0.81055 0.40608
 N472 N 0.52912 0.77468 0.41175
 C473 C 0.54800 0.74913 0.43440
 C474 C 0.58202 0.75978 0.45310
 C475 C 0.57688 0.82231 0.42407
 C476 C 0.40950 0.74256 0.39590
 C477 C 0.37767 0.72660 0.41359
 C478 C 0.41623 0.71559 0.47006
 C479 C 0.44750 0.73219 0.45126
 N480 N 0.44379 0.74416 0.41440
 H481 H 0.52921 0.82998 0.38663
 H482 H 0.53705 0.72029 0.43740
 H483 H 0.59660 0.73926 0.47119
 H484 H 0.58782 0.85075 0.41829
 H485 H 0.40731 0.75229 0.36664
 H486 H 0.35091 0.72480 0.39787
 H487 H 0.42004 0.70427 0.49861
 H488 H 0.47495 0.73391 0.46556
 C489 C 0.44115 0.86826 0.31714
 C490 C 0.52679 0.65403 0.31231
 C491 C 0.38109 0.71156 0.45062
 C492 C 0.59674 0.79695 0.44810
 C493 C 0.40930 -0.03070 0.30063
 H494 H 0.40809 -0.00375 0.31601
 C495 C 0.42718 -0.06229 0.31736
 H496 H 0.44113 -0.05810 0.34474
 C497 C 0.39213 -0.06781 0.24645
 H498 H 0.37722 -0.07027 0.21941
 C499 C 0.41020 -0.10010 0.26186
 H500 H 0.40821 -0.12672 0.24602
 N501 N 0.39120 -0.03422 0.26632
 C502 C 0.37005 0.08018 0.22073
 H503 H 0.34104 0.07571 0.21072
 C504 C 0.38888 0.11413 0.21164
 H505 H 0.37393 0.13557 0.19492
 C506 C 0.42572 0.05608 0.25130
 H507 H 0.44022 0.03315 0.26614
 C508 C 0.44586 0.08962 0.24245
 H509 H 0.47566 0.09228 0.25084
 Zn510 Zn 0.35938 0.00678 0.24943
 N511 N 0.38835 0.05209 0.24056
 C512 C 0.30262 0.05058 0.28767
 N513 N 0.32227 0.01688 0.28803
 C514 C 0.31994 -0.00726 0.31848
 C515 C 0.30098 0.00413 0.35172
 C516 C 0.28311 0.06299 0.32021
 C517 C 0.35998 -0.00647 0.17175
 C518 C 0.34673 -0.01814 0.13597
 C519 C 0.28448 -0.02991 0.16368
 C520 C 0.29892 -0.01757 0.19911
 N521 N 0.33630 -0.00694 0.20248
 H522 H 0.30397 0.06913 0.26314
 H523 H 0.33445 -0.03460 0.31789
 H524 H 0.30132 -0.01449 0.37645
 H525 H 0.27014 0.09122 0.32027
 H526 H 0.38951 0.00237 0.17529
 H527 H 0.36627 -0.01779 0.11199
 H528 H 0.25515 -0.03992 0.16170
 H529 H 0.28070 -0.01760 0.22407
 C530 C 0.42734 0.11919 0.22236
 C531 C 0.42690 -0.09831 0.29868
 C532 C 0.30882 -0.03104 0.13170
 C533 C 0.28375 0.04044 0.35339
 C534 C 0.06340 1.04785 0.79723
 H535 H 0.06397 1.02046 0.81168
 C536 C 0.04421 1.07900 0.81378
 H537 H 0.03008 1.07524 0.84102
 C538 C 0.08356 1.08671 0.74566
 H539 H 0.09956 1.09005 0.71955
 C540 C 0.06471 1.11844 0.76105
 H541 H 0.06588 1.14552 0.74604
 N542 N 0.08299 1.05235 0.76401
 C543 C 0.10615 0.94686 0.70182
 H544 H 0.13538 0.95401 0.69452
 C545 C 0.08990 0.91341 0.68743
 H546 H 0.10691 0.89514 0.66900
 C547 C 0.04967 0.96114 0.73656
 H548 H 0.03439 0.97975 0.75604
 C549 C 0.03220 0.92753 0.72280
 H550 H 0.00321 0.92069 0.73138
 Zn551 Zn 0.11461 1.01221 0.74525
 N552 N 0.08615 0.96992 0.72601
 C553 C 0.14947 0.95587 0.79027
 N554 N 0.14680 0.99435 0.78542
 C555 C 0.16469 1.01891 0.80992
 C556 C 0.18598 1.00485 0.84100
 C557 C 0.17072 0.94058 0.82024
 C558 C 0.12455 1.03460 0.67009
 C559 C 0.14337 1.04776 0.63766
 C560 C 0.20135 1.05414 0.67529
 C561 C 0.18149 1.04017 0.70703
 N562 N 0.14370 1.03105 0.70386
 H563 H 0.13435 0.93654 0.77142
 H564 H 0.16201 1.04952 0.80564
 H565 H 0.20031 1.02566 0.85901
 H566 H 0.16947 0.90980 0.82330
 H567 H 0.09446 1.02723 0.66847
 H568 H 0.12752 1.05083 0.61114
 H569 H 0.23134 1.06171 0.67808
 H570 H 0.19611 1.03696 0.73415
 C571 C 0.05248 0.90325 0.69783
 C572 C 0.04535 1.11512 0.79597
 C573 C 0.18216 1.05790 0.64008
 C574 C 0.18964 0.96476 0.84694
 C575 C 0.56121 0.55189 0.29647
 H576 H 0.56199 0.52484 0.31153
 C577 C 0.54242 0.58345 0.31262
 H578 H 0.52886 0.58028 0.34022
 C579 C 0.58062 0.58947 0.24367
 H580 H 0.59623 0.59206 0.21721
 C581 C 0.56203 0.62161 0.25861
 H582 H 0.56295 0.64830 0.24293
 N583 N 0.58033 0.55561 0.26290
 C584 C 0.60520 0.44711 0.20672
 H585 H 0.63533 0.45279 0.20227
 C586 C 0.58906 0.41360 0.19233
 H587 H 0.60702 0.39364 0.17675
 C588 C 0.54579 0.46591 0.23371
 H589 H 0.52929 0.48642 0.25006
 C590 C 0.52841 0.43222 0.22000
 H591 H 0.49832 0.42707 0.22546
 Zn592 Zn 0.61193 0.51500 0.24556
 N593 N 0.58363 0.47246 0.22695
 C594 C 0.63911 0.46046 0.29744
 N595 N 0.64287 0.49783 0.28709
 C596 C 0.66618 0.52203 0.30717
 C597 C 0.68772 0.50839 0.33827
 C598 C 0.65992 0.44577 0.32801
 C599 C 0.62319 0.53369 0.16967
 C600 C 0.64202 0.54607 0.13692
 C601 C 0.69873 0.55694 0.17528
 C602 C 0.67888 0.54337 0.20717
 N603 N 0.64164 0.53256 0.20389
 H604 H 0.61949 0.44179 0.28244
 H605 H 0.66789 0.55193 0.29920
 H606 H 0.70650 0.52778 0.35371
 H607 H 0.65586 0.41602 0.33581
 H608 H 0.59338 0.52528 0.16791
 H609 H 0.62506 0.54789 0.11107
 H610 H 0.72861 0.56412 0.17933
 H611 H 0.69332 0.54161 0.23449
 C612 C 0.55023 0.40574 0.19883
 C613 C 0.54329 0.61916 0.29397
 C614 C 0.68054 0.55872 0.13893
 C615 C 0.68497 0.46958 0.34868
 C616 C 0.91423 0.46581 0.79874
 H617 H 0.91547 0.49311 0.81350
 C618 C 0.93218 0.43386 0.81469
 H619 H 0.94828 0.43731 0.84102
 C620 C 0.89003 0.42794 0.74769
 H621 H 0.87253 0.42547 0.72222
 C622 C 0.90728 0.39512 0.76287
 H623 H 0.90279 0.36777 0.74879
 N624 N 0.89301 0.46225 0.76620
 C625 C 0.87297 0.57797 0.72284
 H626 H 0.84348 0.57432 0.71402
 C627 C 0.89207 0.61174 0.71365
 H628 H 0.87679 0.63389 0.69819
 C629 C 0.92955 0.55190 0.74988
 H630 H 0.94438 0.52826 0.76315
 C631 C 0.94995 0.58525 0.74089
 H632 H 0.98019 0.58702 0.74779
 Zn633 Zn 0.86187 0.50416 0.75038
 N634 N 0.89157 0.54901 0.74110
 C635 C 0.80493 0.54757 0.78919
 N636 N 0.82572 0.51457 0.78985
 C637 C 0.82466 0.49095 0.82077
 C638 C 0.80560 0.50218 0.85400
 C639 C 0.78545 0.55991 0.82180
 C640 C 0.86072 0.49170 0.67271
 C641 C 0.84681 0.48028 0.63711
 C642 C 0.78508 0.46837 0.66590
 C643 C 0.80016 0.48056 0.70112
 N644 N 0.83760 0.49116 0.70385
 H645 H 0.80513 0.56561 0.76425
 H646 H 0.84007 0.46411 0.82049
 H647 H 0.80672 0.48387 0.87892
 H648 H 0.77154 0.58768 0.82149
 H649 H 0.89034 0.50043 0.67577
 H650 H 0.86592 0.48080 0.61279
 H651 H 0.75573 0.45837 0.66442
 H652 H 0.78243 0.48035 0.72642
 C653 C 0.93110 0.61574 0.72257
 C654 C 0.92781 0.39762 0.79743
 C655 C 0.80883 0.46739 0.63346
 C656 C 0.78713 0.53791 0.85533
 C657 C 0.29917 0.41548 -0.03354
 H658 H 0.31388 0.41570 -0.00624
 C659 C 0.31560 0.43391 -0.06482
 H660 H 0.34233 0.44924 -0.06090
 C661 C 0.24771 0.39338 -0.07217
 H662 H 0.22191 0.37648 -0.07526
 C663 C 0.26325 0.41132 -0.10428
 H664 H 0.24909 0.40799 -0.13171
 N665 N 0.26624 0.39499 -0.03785
 C666 C 0.22086 0.37262 0.07633
 H667 H 0.21158 0.34342 0.07162
 C668 C 0.21174 0.39089 0.11059
 H669 H 0.19579 0.37530 0.13203
 C670 C 0.24940 0.42931 0.05260
 H671 H 0.26339 0.44448 0.02973
 C672 C 0.24048 0.44889 0.08647
 H673 H 0.24806 0.47888 0.08939
 Zn674 Zn 0.24975 0.36295 0.00291
 N675 N 0.23986 0.39165 0.04830
 C676 C 0.28778 0.30510 0.04553
 N677 N 0.28913 0.32645 0.01308
 C678 C 0.32059 0.32565 -0.00984
 C679 C 0.35368 0.30630 0.00169
 C680 C 0.32021 0.28530 0.05814
 C681 C 0.17195 0.36186 -0.01100
 C682 C 0.13653 0.34776 -0.02290
 C683 C 0.16615 0.28622 -0.03488
 C684 C 0.20116 0.30149 -0.02225
 N685 N 0.20340 0.33890 -0.01132
 H686 H 0.26241 0.30510 0.06298
 H687 H 0.32085 0.34149 -0.03631
 H688 H 0.37907 0.30767 -0.01598
 H689 H 0.31933 0.27095 0.08553
 H690 H 0.17461 0.39145 -0.00195
 H691 H 0.11193 0.36670 -0.02244
 H692 H 0.16509 0.25686 -0.04501
 H693 H 0.22668 0.28387 -0.02225
 C694 C 0.22149 0.42955 0.11605
 C695 C 0.29824 0.43099 -0.10107
 C696 C 0.13337 0.30973 -0.03596
 C697 C 0.35428 0.28727 0.03697
 C698 C 0.79520 0.05805 1.05241
 H699 H 0.80916 0.05648 1.02491
 C700 C 0.81104 0.03859 1.08363
 H701 H 0.83708 0.02251 1.07882
 C702 C 0.74727 0.08491 1.09188
 H703 H 0.72284 0.10354 1.09543
 C704 C 0.76219 0.06624 1.12384
 H705 H 0.74736 0.06987 1.15070
 N706 N 0.76425 0.08122 1.05712
 C707 C 0.70322 0.10606 0.95189
 H708 H 0.69280 0.13360 0.96156
 C709 C 0.68894 0.09077 0.91798
 H710 H 0.66829 0.10779 0.90233
 C711 C 0.74531 0.05350 0.95956
 H712 H 0.76729 0.03905 0.97586
 C713 C 0.73217 0.03725 0.92512
 H714 H 0.74392 0.00990 0.91633
 Zn715 Zn 0.74736 0.11406 1.01698
 N716 N 0.73054 0.08730 0.97233
 C717 C 0.78246 0.16883 0.97079
 N718 N 0.78781 0.14716 1.00246
 C719 C 0.82192 0.14726 1.02129
 C720 C 0.85300 0.16806 1.00710
 C721 C 0.81261 0.18998 0.95548
 C722 C 0.67151 0.12319 1.03886
 C723 C 0.63863 0.14192 1.05149
 C724 C 0.67539 0.20051 1.05690
 C725 C 0.70756 0.18072 1.04348
 N726 N 0.70501 0.14271 1.03496
 H727 H 0.75502 0.16849 0.95634
 H728 H 0.82535 0.13080 1.04720
 H729 H 0.87897 0.16761 1.02398
 H730 H 0.80663 0.20412 0.92873
 H731 H 0.67043 0.09291 1.03205
 H732 H 0.61228 0.12585 1.05474
 H733 H 0.67769 0.23071 1.06391
 H734 H 0.73458 0.19555 1.04022
 C735 C 0.70302 0.05562 0.90376
 C736 C 0.79535 0.04332 1.12061
 C737 C 0.64039 0.18100 1.06084
 C738 C 0.84956 0.18931 0.97270
 C739 C 0.29955 0.56319 0.54935
 H740 H 0.31416 0.56307 0.52211
 C741 C 0.31611 0.54495 0.58095
 H742 H 0.34355 0.53085 0.57763
 C743 C 0.24751 0.58429 0.58732
 H744 H 0.22124 0.60039 0.59011
 C745 C 0.26287 0.56631 0.61948
 H746 H 0.24763 0.56813 0.64634
 N747 N 0.26611 0.58284 0.55320
 C748 C 0.20866 0.60574 0.44509
 H749 H 0.20359 0.63583 0.45079
 C750 C 0.19417 0.58920 0.41186
 H751 H 0.17789 0.60679 0.39215
 C752 C 0.23721 0.54688 0.46354
 H753 H 0.25417 0.53074 0.48382
 C754 C 0.22342 0.52910 0.43011
 H755 H 0.22945 0.49906 0.42494
 Zn756 Zn 0.24797 0.61362 0.51237
 N757 N 0.22969 0.58464 0.47015
 C758 C 0.29903 0.64168 0.45775
 N759 N 0.28876 0.64520 0.49508
 C760 C 0.30829 0.66902 0.51921
 C761 C 0.33879 0.69128 0.50558
 C762 C 0.32901 0.66324 0.44305
 C763 C 0.17224 0.62326 0.53316
 C764 C 0.13930 0.64167 0.54609
 C765 C 0.17572 0.70039 0.55196
 C766 C 0.20797 0.68093 0.53826
 N767 N 0.20574 0.64289 0.52973
 H768 H 0.28440 0.62173 0.43913
 H769 H 0.30029 0.67063 0.54904
 H770 H 0.35382 0.71044 0.52492
 H771 H 0.33681 0.65940 0.41333
 H772 H 0.17130 0.59303 0.52616
 H773 H 0.11307 0.62539 0.54931
 H774 H 0.17787 0.73054 0.55924
 H775 H 0.23472 0.69611 0.53493
 C776 C 0.20138 0.55043 0.40398
 C777 C 0.29805 0.54697 0.61684
 C778 C 0.14091 0.68060 0.55603
 C779 C 0.34913 0.68876 0.46684
 C780 C 0.80009 0.91132 0.46868
 H781 H 0.81511 0.91156 0.49581
 C782 C 0.81639 0.92926 0.43707
 H783 H 0.84332 0.94432 0.44057
 C784 C 0.74783 0.88968 0.43086
 H785 H 0.72174 0.87318 0.42822
 C786 C 0.76325 0.90707 0.39842
 H787 H 0.74869 0.90369 0.37121
 N788 N 0.76675 0.89140 0.46496
 C789 C 0.72197 0.87187 0.57979
 H790 H 0.71220 0.84273 0.57580
 C791 C 0.71342 0.89106 0.61372
 H792 H 0.69741 0.87622 0.63563
 C793 C 0.75117 0.92757 0.55457
 H794 H 0.76516 0.94202 0.53125
 C795 C 0.74286 0.94804 0.58805
 H796 H 0.75089 0.97797 0.59023
 Zn797 Zn 0.75001 0.86034 0.50627
 N798 N 0.74101 0.88998 0.55120
 C799 C 0.78803 0.80313 0.54973
 N800 N 0.78879 0.82333 0.51654
 C801 C 0.81949 0.82114 0.49271
 C802 C 0.85254 0.80153 0.50388
 C803 C 0.82044 0.78313 0.56202
 C804 C 0.67227 0.86064 0.49250
 C805 C 0.63680 0.84739 0.47981
 C806 C 0.66525 0.78521 0.46823
 C807 C 0.70034 0.79966 0.48155
 N808 N 0.70322 0.83701 0.49256
 H809 H 0.76324 0.80430 0.56797
 H810 H 0.81923 0.83613 0.46575
 H811 H 0.87740 0.80181 0.48542
 H812 H 0.82016 0.76975 0.58991
 H813 H 0.67546 0.89018 0.50153
 H814 H 0.61265 0.86690 0.47966
 H815 H 0.66369 0.75593 0.45792
 H816 H 0.72551 0.78153 0.48180
 C817 C 0.72381 0.92967 0.61820
 C818 C 0.79851 0.92635 0.40107
 C819 C 0.63312 0.80953 0.46645
 C820 C 0.85386 0.78371 0.53976
 C821 C -0.03411 0.30002 0.41448
 H822 H -0.00689 0.31488 0.41497
 C823 C -0.06588 0.31652 0.43225
 H824 H -0.06245 0.34347 0.44736
 C825 C -0.07202 0.24804 0.39236
 H826 H -0.07464 0.22199 0.37572
 C827 C -0.10460 0.26360 0.40966
 H828 H -0.13189 0.24922 0.40611
 N829 N -0.03783 0.26679 0.39430
 C830 C 0.07719 0.22155 0.37412
 H831 H 0.07294 0.21191 0.34502
 C832 C 0.11130 0.21269 0.39291
 H833 H 0.13311 0.19662 0.37779
 C834 C 0.05238 0.25061 0.43012
 H835 H 0.02913 0.26469 0.44480
 C836 C 0.08608 0.24192 0.45022
 H837 H 0.08852 0.24973 0.48014
 Zn838 Zn 0.00358 0.24999 0.36316
 N839 N 0.04871 0.24068 0.39256
 C840 C 0.04677 0.28721 0.30554
 N841 N 0.01400 0.28884 0.32644
 C842 C -0.00912 0.32028 0.32506
 C843 C 0.00253 0.35315 0.30563
 C844 C 0.05950 0.31941 0.28568
 C845 C -0.00965 0.17215 0.36296
 C846 C -0.02153 0.13650 0.34940
 C847 C -0.03348 0.16504 0.28758
 C848 C -0.02089 0.20030 0.30232
 N849 N -0.01002 0.20319 0.33962
 H850 H 0.06436 0.26184 0.30597
 H851 H -0.03583 0.32074 0.34052
 H852 H -0.01531 0.37855 0.30654
 H853 H 0.08713 0.31836 0.27172
 H854 H -0.00070 0.17534 0.39246
 H855 H -0.02113 0.11225 0.36865
 H856 H -0.04364 0.16346 0.25831
 H857 H -0.02096 0.22553 0.28440
 C858 C 0.11612 0.22282 0.43148
 C859 C -0.10198 0.29887 0.42901
 C860 C -0.03462 0.13271 0.31153
 C861 C 0.03813 0.35351 0.28710
 C862 C 1.05149 0.79756 0.06418
 H863 H 1.02403 0.81199 0.06450
 C864 C 1.08265 0.81429 0.04551
 H865 H 1.07876 0.84168 0.03156
 C866 C 1.09046 0.74583 0.08459
 H867 H 1.09379 0.71963 0.10059
 C868 C 1.12222 0.76135 0.06612
 H869 H 1.14932 0.74626 0.06745
 N870 N 1.05602 0.76418 0.08364
 C871 C 0.94896 0.70526 0.10672
 H872 H 0.95521 0.69964 0.13650
 C873 C 0.91568 0.69063 0.09035
 H874 H 0.89652 0.67360 0.10770
 C875 C 0.96590 0.73551 0.04854
 H876 H 0.98557 0.75325 0.03262
 C877 C 0.93232 0.72172 0.03100
 H878 H 0.92642 0.72851 0.00136
 Zn879 Zn 1.01552 0.74594 0.11459
 N880 N 0.97334 0.72715 0.08585
 C881 C 0.96029 0.79699 0.14204
 N882 N 0.99777 0.78692 0.14580
 C883 C 1.02172 0.80686 0.16946
 C884 C 1.00774 0.83767 0.19125
 C885 C 0.94528 0.82731 0.16305
 C886 C 1.03763 0.67055 0.12447
 C887 C 1.05017 0.63765 0.14317
 C888 C 1.05420 0.67425 0.20192
 C889 C 1.04090 0.70646 0.18214
 N890 N 1.03340 0.70410 0.14399
 H891 H 0.94181 0.78193 0.12228
 H892 H 1.05166 0.79895 0.17129
 H893 H 1.02694 0.85301 0.21030
 H894 H 0.91546 0.83497 0.15893
 H895 H 1.03133 0.66949 0.09416
 H896 H 1.05392 0.61134 0.12704
 H897 H 1.06055 0.67646 0.23219
 H898 H 1.03686 0.73323 0.19722
 C899 C 0.90694 0.69877 0.05208
 C900 C 1.11884 0.79643 0.04684
 C901 C 1.05890 0.63935 0.18229
 C902 C 0.96886 0.84792 0.18838
 C903 C 0.54901 0.29835 0.56350
 H904 H 0.52165 0.31297 0.56412
 C905 C 0.58015 0.31500 0.54472
 H906 H 0.57638 0.34251 0.53096
 C907 C 0.58777 0.24623 0.58331
 H908 H 0.59102 0.21988 0.59910
 C909 C 0.61952 0.26170 0.56477
 H910 H 0.64656 0.24649 0.56589
 N911 N 0.55348 0.26485 0.58277
 C912 C 0.44621 0.20658 0.60696
 H913 H 0.45233 0.20124 0.63683
 C914 C 0.41286 0.19203 0.59061
 H915 H 0.39346 0.17544 0.60812
 C916 C 0.46367 0.23593 0.54849
 H917 H 0.48359 0.25326 0.53242
 C918 C 0.43011 0.22215 0.53095
 H919 H 0.42448 0.22856 0.50117
 Zn920 Zn 0.51331 0.24683 0.61426
 N921 N 0.47083 0.22805 0.58595
 C922 C 0.45845 0.29778 0.64301
 N923 N 0.49612 0.28805 0.64553
 C924 C 0.52078 0.30859 0.66791
 C925 C 0.50744 0.33978 0.68955
 C926 C 0.44402 0.32844 0.66399
 C927 C 0.53455 0.17111 0.62475
 C928 C 0.54799 0.13857 0.64349
 C929 C 0.55564 0.17653 0.70101
 C930 C 0.54133 0.20834 0.68128
 N931 N 0.53163 0.20514 0.64368
 H932 H 0.43936 0.28222 0.62424
 H933 H 0.55083 0.30095 0.66874
 H934 H 0.52725 0.35568 0.70749
 H935 H 0.41402 0.33584 0.66087
 H936 H 0.52668 0.16941 0.59483
 H937 H 0.55071 0.11187 0.62780
 H938 H 0.56385 0.17944 0.73079
 H939 H 0.53848 0.23553 0.69589
 C940 C 0.40438 0.19973 0.55217
 C941 C 0.61624 0.29697 0.54582
 C942 C 0.55907 0.14117 0.68197
 C943 C 0.46843 0.34977 0.68791
 C944 C 0.46946 0.80094 0.91578
 H945 H 0.49656 0.81600 0.91669
 C946 C 0.43741 0.81696 0.93352
 H947 H 0.44049 0.84375 0.94898
 C948 C 0.43207 0.74905 0.89257
 H949 H 0.42974 0.72325 0.87551
 C950 C 0.39927 0.76409 0.90988
 H951 H 0.37209 0.74957 0.90594
 N952 N 0.46612 0.76804 0.89500
 C953 C 0.58113 0.72296 0.87426
 H954 H 0.57680 0.71377 0.84502
 C955 C 0.61509 0.71339 0.89298
 H956 H 0.63662 0.69712 0.87768
 C957 C 0.55668 0.75177 0.93053
 H958 H 0.53362 0.76604 0.94534
 C959 C 0.59029 0.74251 0.95053
 H960 H 0.59283 0.75014 0.98048
 Zn961 Zn 0.50774 0.75200 0.86364
 N962 N 0.55284 0.74218 0.89290
 C963 C 0.55095 0.79014 0.80664
 N964 N 0.51828 0.79160 0.82772
 C965 C 0.49549 0.82332 0.82718
 C966 C 0.50735 0.85649 0.80841
 C967 C 0.56383 0.82263 0.78732
 C968 C 0.49481 0.67415 0.86215
 C969 C 0.48270 0.63871 0.84824
 C970 C 0.47014 0.66810 0.78695
 C971 C 0.48297 0.70315 0.80203
 N972 N 0.49422 0.70553 0.83926
 H973 H 0.56832 0.76459 0.80649
 H974 H 0.46886 0.82369 0.84278
 H975 H 0.48978 0.88206 0.80997
 H976 H 0.59131 0.82164 0.77306
 H977 H 0.50401 0.67692 0.89161
 H978 H 0.48321 0.61421 0.86718
 H979 H 0.45963 0.66693 0.75779
 H980 H 0.48269 0.72864 0.78448
 C981 C 0.62006 0.72306 0.93166
 C982 C 0.40146 0.79910 0.92973
 C983 C 0.46914 0.63546 0.81049
 C984 C 0.54276 0.85688 0.78955
   
