data_POSCAR
  _audit_creation_date              2014-09-24
  _audit_creation_method            'ToBaCCo'
  _symmetry_space_group_name_H-M    'P1'
  _symmetry_Int_Tables_number       1
  _symmetry_cell_setting            triclinic
  loop_
  _symmetry_equiv_pos_as_xyz
 x,y,z
_cell_length_a 38.9796
_cell_length_b 38.4712
_cell_length_c 39.2061
_cell_angle_alpha 89.684500
_cell_angle_beta 89.845400
_cell_angle_gamma 90.099000
loop_
  _atom_site_label
  _atom_site_type_symbol
  _atom_site_fract_x
  _atom_site_fract_y
  _atom_site_fract_z
N1 N 0.57351 0.66710 0.61129
 N2 N 0.56377 0.65056 0.63914
 C3 C 0.53559 0.66622 0.65188
 C4 C 0.52759 0.69382 0.63075
 C5 C 0.55202 0.69374 0.60535
 H6 H 0.52207 0.65836 0.67479
 H7 H 0.55409 0.71188 0.58426
 Cu8 Cu 0.58932 0.61052 0.65597
 Cu9 Cu 0.61333 0.65328 0.58471
 Cu10 Cu 0.65815 0.58103 0.61279
 N11 N 0.61448 0.56953 0.67106
 N12 N 0.64132 0.55820 0.65400
 C13 C 0.65375 0.52960 0.66953
 C14 C 0.63360 0.52282 0.69769
 C15 C 0.60889 0.54842 0.69811
 H16 H 0.67563 0.51477 0.66089
 H17 H 0.58838 0.55127 0.71652
 N18 N 0.67124 0.60767 0.57167
 N19 N 0.65420 0.63536 0.56114
 C20 C 0.66919 0.64785 0.53259
 C21 C 0.69679 0.62702 0.52496
 C22 C 0.69753 0.60180 0.55003
 H23 H 0.66065 0.67031 0.51827
 H24 H 0.71578 0.58078 0.55222
 H25 H 0.61129 0.60132 0.59842
 H26 H 0.63989 0.62989 0.62425
 N27 N 0.92690 0.32891 0.11263
 N28 N 0.93646 0.34680 0.13951
 C29 C 0.96482 0.33217 0.15290
 C30 C 0.97318 0.30378 0.13329
 C31 C 0.94880 0.30230 0.10796
 H32 H 0.97852 0.34155 0.17498
 H33 H 0.94727 0.28353 0.08756
 Cu34 Cu 0.91125 0.38780 0.15393
 Cu35 Cu 0.88718 0.34181 0.08536
 Cu36 Cu 0.84129 0.41427 0.11112
 N37 N 0.88492 0.42800 0.16852
 N38 N 0.85760 0.43822 0.15160
 C39 C 0.84450 0.46666 0.16663
 C40 C 0.86471 0.47449 0.19431
 C41 C 0.89012 0.44964 0.19495
 H42 H 0.82214 0.48074 0.15795
 H43 H 0.91088 0.44771 0.21309
 N44 N 0.82884 0.38657 0.07085
 N45 N 0.84630 0.35892 0.06109
 C46 C 0.83170 0.34583 0.03281
 C47 C 0.80390 0.36622 0.02460
 C48 C 0.80267 0.39178 0.04901
 H49 H 0.84062 0.32327 0.01908
 H50 H 0.78418 0.41264 0.05059
 H51 H 0.88820 0.39429 0.09648
 H52 H 0.86074 0.36613 0.12430
 N53 N 0.42549 0.17115 -0.10677
 N54 N 0.43521 0.15416 -0.13415
 C55 C 0.46363 0.16930 -0.14709
 C56 C 0.47193 0.19709 -0.12670
 C57 C 0.44738 0.19768 -0.10133
 H58 H 0.47743 0.16075 -0.16948
 H59 H 0.44571 0.21586 -0.08046
 Cu60 Cu 0.40999 0.11375 -0.14996
 Cu61 Cu 0.38535 0.15730 -0.08023
 Cu62 Cu 0.33988 0.08517 -0.10830
 N63 N 0.38487 0.07303 -0.16513
 N64 N 0.35726 0.06201 -0.14898
 C65 C 0.34482 0.03377 -0.16503
 C66 C 0.36592 0.02696 -0.19249
 C67 C 0.39099 0.05218 -0.19192
 H68 H 0.32218 0.01938 -0.15739
 H69 H 0.41196 0.05510 -0.20983
 N70 N 0.32659 0.11209 -0.06764
 N71 N 0.34408 0.13936 -0.05689
 C72 C 0.32901 0.15178 -0.02852
 C73 C 0.30086 0.13139 -0.02126
 C74 C 0.29989 0.10648 -0.04635
 H75 H 0.33782 0.17391 -0.01408
 H76 H 0.28125 0.08581 -0.04874
 H77 H 0.38650 0.10508 -0.09286
 H78 H 0.35909 0.13391 -0.11976
 N79 N 0.07058 0.82591 0.38920
 N80 N 0.06120 0.84259 0.36135
 C81 C 0.03294 0.82731 0.34855
 C82 C 0.02447 0.79971 0.36947
 C83 C 0.04867 0.79939 0.39503
 H84 H 0.01936 0.83573 0.32595
 H85 H 0.05006 0.78146 0.41633
 Cu86 Cu 0.08621 0.88304 0.34454
 Cu87 Cu 0.11006 0.84019 0.41607
 Cu88 Cu 0.15380 0.91355 0.38839
 N89 N 0.11051 0.92497 0.33034
 N90 N 0.13696 0.93667 0.34761
 C91 C 0.14877 0.96591 0.33266
 C92 C 0.12861 0.97279 0.30467
 C93 C 0.10453 0.94651 0.30377
 H94 H 0.17025 0.98116 0.34157
 H95 H 0.08416 0.94351 0.28534
 N96 N 0.16719 0.88684 0.42909
 N97 N 0.15066 0.85880 0.43975
 C98 C 0.16633 0.84638 0.46795
 C99 C 0.19377 0.86777 0.47507
 C100 C 0.19370 0.89302 0.45013
 H101 H 0.15857 0.82347 0.48210
 H102 H 0.21185 0.91415 0.44746
 H103 H 0.10688 0.89200 0.40250
 H104 H 0.13632 0.86409 0.37683
 N105 N 0.16250 0.16645 0.16762
 N106 N 0.37287 0.87437 0.62752
 N107 N 0.83368 0.66438 0.33505
 N108 N 0.66499 0.33261 -0.16358
 C109 C 0.00052 0.28233 0.13755
 C110 C 0.02495 0.26358 0.14148
 C111 C 0.05380 0.24201 0.14634
 C112 C 0.07866 0.22398 0.15076
 C113 C 0.10802 0.20330 0.15629
 C114 C 0.13329 0.18600 0.16139
 C115 C 0.50037 0.71864 0.63446
 C116 C 0.47833 0.74050 0.63627
 C117 C 0.45354 0.76719 0.63696
 C118 C 0.43331 0.79084 0.63638
 C119 C 0.41081 0.81949 0.63438
 C120 C 0.39270 0.84474 0.63160
 C121 C 0.99720 0.77796 0.36590
 C122 C 0.97275 0.75913 0.36226
 C123 C 0.94376 0.73768 0.35741
 C124 C 0.91871 0.71992 0.35279
 C125 C 0.88903 0.69977 0.34690
 C126 C 0.86340 0.68310 0.34151
 C127 C 0.50081 0.21998 -0.13085
 C128 C 0.52538 0.23864 -0.13485
 C129 C 0.55453 0.25984 -0.14010
 C130 C 0.57972 0.27740 -0.14501
 C131 C 0.60952 0.29737 -0.15119
 C132 C 0.63523 0.31395 -0.15681
 C133 C 0.13194 0.00187 0.28177
 C134 C 0.13541 0.02661 0.26309
 C135 C 0.14018 0.05592 0.24179
 C136 C 0.14476 0.08119 0.22404
 C137 C 0.15065 0.11103 0.20375
 C138 C 0.15603 0.13672 0.18679
 C139 C 0.63707 0.49578 -0.28012
 C140 C 0.64058 0.47148 -0.26090
 C141 C 0.64515 0.44261 -0.23900
 C142 C 0.64935 0.41763 -0.22082
 C143 C 0.65460 0.38798 -0.20012
 C144 C 0.65933 0.36234 -0.18292
 C145 C 0.36266 0.99993 0.78258
 C146 C 0.36131 0.97808 0.76069
 C147 C 0.36124 0.95356 0.73404
 C148 C 0.36235 0.93360 0.71047
 C149 C 0.36497 0.91147 0.68197
 C150 C 0.36825 0.89372 0.65692
 C151 C 0.86064 0.50325 0.21715
 C152 C 0.85706 0.52758 0.23605
 C153 C 0.85265 0.55631 0.25786
 C154 C 0.84868 0.58104 0.27617
 C155 C 0.84373 0.61022 0.29725
 C156 C 0.83920 0.63533 0.31497
 C157 C 0.27777 0.13525 0.00708
 C158 C 0.25888 0.13904 0.03116
 C159 C 0.23730 0.14405 0.05967
 C160 C 0.21933 0.14876 0.08427
 C161 C 0.19882 0.15469 0.11338
 C162 C 0.18173 0.16005 0.13850
 C163 C 0.71966 0.63085 0.49639
 C164 C 0.73838 0.63468 0.47214
 C165 C 0.75975 0.63987 0.44343
 C166 C 0.77751 0.64486 0.41867
 C167 C 0.79778 0.65130 0.38942
 C168 C 0.81466 0.65723 0.36422
 C169 C 0.78128 0.36193 -0.00394
 C170 C 0.76257 0.35809 -0.02805
 C171 C 0.74098 0.35330 -0.05649
 C172 C 0.72287 0.34894 -0.08096
 C173 C 0.70206 0.34350 -0.10985
 C174 C 0.68465 0.33857 -0.13475
 C175 C 0.21841 0.86447 0.50208
 C176 C 0.24010 0.86309 0.52389
 C177 C 0.26659 0.86296 0.54838
 C178 C 0.29007 0.86402 0.56830
 C179 C 0.31849 0.86657 0.59039
 C180 C 0.34351 0.86980 0.60813
   
