data_POSCAR
  _audit_creation_date              2014-09-24
  _audit_creation_method            'ToBaCCo'
  _symmetry_space_group_name_H-M    'P1'
  _symmetry_Int_Tables_number       1
  _symmetry_cell_setting            triclinic
  loop_
  _symmetry_equiv_pos_as_xyz
 x,y,z
_cell_length_a 31.1994
_cell_length_b 27.2962
_cell_length_c 31.3440
_cell_angle_alpha 84.594800
_cell_angle_beta 91.219500
_cell_angle_gamma 95.295700
loop_
  _atom_site_label
  _atom_site_type_symbol
  _atom_site_fract_x
  _atom_site_fract_y
  _atom_site_fract_z
N1 N 0.57004 0.69110 0.58629
 N2 N 0.56067 0.68010 0.62696
 C3 C 0.53422 0.71204 0.63925
 C4 C 0.52581 0.74442 0.60427
 C5 C 0.54868 0.72999 0.57088
 H6 H 0.52174 0.71150 0.67125
 H7 H 0.55096 0.74753 0.53849
 Cu8 Cu 0.58237 0.62409 0.66011
 Cu9 Cu 0.61247 0.65558 0.55921
 Cu10 Cu 0.68266 0.60577 0.63619
 N11 N 0.61402 0.57755 0.69524
 N12 N 0.65422 0.57140 0.68708
 C13 C 0.66887 0.53852 0.71752
 C14 C 0.63546 0.52264 0.74545
 C15 C 0.60122 0.54826 0.73030
 H16 H 0.70084 0.52606 0.71840
 H17 H 0.56942 0.54599 0.74381
 N18 N 0.69789 0.62274 0.57531
 N19 N 0.66999 0.63738 0.54551
 C20 C 0.68855 0.64029 0.50684
 C21 C 0.73030 0.62782 0.51283
 C22 C 0.73529 0.61717 0.55648
 H23 H 0.67321 0.65179 0.47675
 H24 H 0.76355 0.60451 0.57307
 H25 H 0.62523 0.59597 0.60456
 H26 H 0.64263 0.66063 0.61605
 N27 N 0.94706 0.34406 0.10944
 N28 N 0.95104 0.33709 0.15154
 C29 C 0.98615 0.31317 0.16176
 C30 C 1.00553 0.30498 0.12414
 C31 C 0.98025 0.32556 0.09156
 H32 H 0.99618 0.30172 0.19413
 H33 H 0.98384 0.32380 0.05750
 Cu34 Cu 0.90967 0.35842 0.19023
 Cu35 Cu 0.89448 0.36722 0.08055
 Cu36 Cu 0.81461 0.38328 0.14704
 N37 N 0.87416 0.40354 0.21485
 N38 N 0.83600 0.41220 0.19883
 C39 C 0.81985 0.44673 0.22033
 C40 C 0.84996 0.46078 0.25089
 C41 C 0.88401 0.43283 0.24646
 H42 H 0.79019 0.46322 0.21205
 H43 H 0.91450 0.43531 0.26359
 N44 N 0.80304 0.36932 0.08805
 N45 N 0.83454 0.36672 0.06132
 C46 C 0.81786 0.36145 0.02185
 C47 C 0.77358 0.35916 0.02449
 C48 C 0.76517 0.36414 0.06689
 H49 H 0.83646 0.35796 -0.00627
 H50 H 0.73395 0.36520 0.08097
 H51 H 0.89235 0.39967 0.13713
 H52 H 0.87316 0.33276 0.13724
 N53 N 0.39932 0.18343 -0.11012
 N54 N 0.42609 0.14948 -0.11337
 C55 C 0.46667 0.16929 -0.10757
 C56 C 0.46513 0.21854 -0.10133
 C57 C 0.42202 0.22649 -0.10351
 H58 H 0.49522 0.15008 -0.10993
 H59 H 0.40817 0.26082 -0.10024
 Cu60 Cu 0.40586 0.08476 -0.13060
 Cu61 Cu 0.33713 0.16851 -0.11395
 Cu62 Cu 0.30141 0.04595 -0.12113
 N63 N 0.37947 0.03204 -0.16285
 N64 N 0.33810 0.01778 -0.16022
 C65 C 0.32767 -0.01551 -0.18867
 C66 C 0.36463 -0.02255 -0.21000
 C67 C 0.39694 0.00791 -0.19267
 H68 H 0.29549 -0.03234 -0.19412
 H69 H 0.43017 0.01401 -0.20255
 N70 N 0.26551 0.09262 -0.09890
 N71 N 0.27814 0.14011 -0.09854
 C72 C 0.24871 0.16160 -0.07766
 C73 C 0.21663 0.12570 -0.06365
 C74 C 0.22821 0.08242 -0.07780
 H75 H 0.25285 0.19920 -0.06900
 H76 H 0.21245 0.04569 -0.07050
 H77 H 0.34349 0.09758 -0.08956
 H78 H 0.33332 0.10773 -0.14863
 N79 N 0.08219 0.81453 0.39958
 N80 N 0.08450 0.81350 0.35765
 C81 C 0.05429 0.77943 0.34485
 C82 C 0.03145 0.75847 0.38036
 C83 C 0.05000 0.78150 0.41462
 H84 H 0.04813 0.77220 0.31183
 H85 H 0.04097 0.77471 0.44793
 Cu86 Cu 0.12194 0.86132 0.32092
 Cu87 Cu 0.12292 0.85688 0.43201
 Cu88 Cu 0.18748 0.93974 0.37253
 N89 N 0.14335 0.92595 0.29358
 N90 N 0.16642 0.95832 0.31513
 C91 C 0.17199 1.00169 0.29079
 C92 C 0.15220 0.99561 0.25153
 C93 C 0.13472 0.94705 0.25415
 H94 H 0.18910 1.03505 0.30082
 H95 H 0.11511 0.92927 0.23014
 N96 N 0.20589 0.91188 0.42844
 N97 N 0.17928 0.88234 0.45327
 C98 C 0.19936 0.87032 0.49075
 C99 C 0.24105 0.89237 0.48850
 C100 C 0.24423 0.91833 0.44854
 H101 H 0.18544 0.84533 0.51669
 H102 H 0.27223 0.94033 0.43519
 H103 H 0.11470 0.89849 0.37277
 H104 H 0.15665 0.85381 0.37845
 N105 N 0.09006 0.23739 0.09244
 N106 N 0.08867 0.22338 0.13374
 C107 C 0.05924 0.24761 0.15191
 C108 C 0.04046 0.27746 0.12000
 C109 C 0.06096 0.27030 0.08265
 H110 H 0.05023 0.24141 0.18526
 H111 H 0.05453 0.28669 0.05064
 Cu112 Cu 0.12074 0.16957 0.15893
 Cu113 Cu 0.12841 0.20934 0.05491
 Cu114 Cu 0.13469 0.08636 0.08901
 N115 N 0.13673 0.10380 0.17798
 N116 N 0.13886 0.07027 0.15075
 C117 C 0.14483 0.02655 0.17262
 C118 C 0.14774 0.03349 0.21570
 C119 C 0.14262 0.08293 0.21808
 H120 H 0.14723 -0.00758 0.15823
 H121 H 0.14110 0.10163 0.24687
 N122 N 0.14979 0.11538 0.03034
 N123 N 0.14980 0.16304 0.01829
 C124 C 0.17073 0.17353 -0.01898
 C125 C 0.18436 0.13023 -0.03114
 C126 C 0.17023 0.09404 0.00058
 H127 H 0.17830 0.21040 -0.03433
 H128 H 0.17858 0.05626 0.00421
 H129 H 0.10063 0.14760 0.08695
 H130 H 0.16026 0.15661 0.09583
 N131 N 0.44909 0.83740 0.58842
 N132 N 0.46007 0.84037 0.62890
 C133 C 0.49014 0.80925 0.63999
 C134 C 0.49901 0.78587 0.60445
 C135 C 0.47274 0.80482 0.57201
 H136 H 0.50350 0.80288 0.67195
 H137 H 0.46883 0.79318 0.53999
 Cu138 Cu 0.43249 0.88227 0.66446
 Cu139 Cu 0.40009 0.87082 0.56358
 Cu140 Cu 0.32755 0.88444 0.64347
 N141 N 0.39569 0.91125 0.70209
 N142 N 0.35397 0.91040 0.69485
 C143 C 0.33592 0.93191 0.72611
 C144 C 0.36837 0.94791 0.75368
 C145 C 0.40587 0.93422 0.73751
 H146 H 0.30213 0.93754 0.72748
 H147 H 0.43815 0.94097 0.75024
 N148 N 0.31084 0.88110 0.58256
 N149 N 0.33909 0.88064 0.55180
 C150 C 0.31866 0.88491 0.51357
 C151 C 0.27541 0.88721 0.52080
 C152 C 0.27143 0.88443 0.56475
 H153 H 0.33395 0.88524 0.48288
 H154 H 0.24233 0.88679 0.58229
 H155 H 0.38125 0.91411 0.61151
 H156 H 0.37487 0.84537 0.62066
 N157 N 0.93725 0.67499 0.39983
 N158 N 0.94355 0.67128 0.35881
 C159 C 0.97894 0.70017 0.34594
 C160 C 0.99603 0.72331 0.38064
 C161 C 0.96902 0.70628 0.41446
 H162 H 0.99095 0.70441 0.31356
 H163 H 0.97107 0.71767 0.44662
 Cu164 Cu 0.90525 0.62976 0.32438
 Cu165 Cu 0.88474 0.64442 0.42976
 Cu166 Cu 0.80949 0.58960 0.36618
 N167 N 0.87273 0.57069 0.30678
 N168 N 0.83410 0.55583 0.32156
 C169 C 0.81893 0.51488 0.30311
 C170 C 0.85032 0.50334 0.27616
 C171 C 0.88394 0.53937 0.27926
 H172 H 0.78829 0.49403 0.31008
 H173 H 0.91432 0.54258 0.26277
 N174 N 0.79473 0.61249 0.42049
 N175 N 0.82466 0.63053 0.44642
 C176 C 0.80643 0.63837 0.48341
 C177 C 0.76268 0.62585 0.47993
 C178 C 0.75620 0.60972 0.43959
 H179 H 0.82359 0.65299 0.51046
 H180 H 0.72604 0.59537 0.42590
 H181 H 0.88664 0.59715 0.38223
 H182 H 0.86488 0.65831 0.36815
 N183 N 0.56665 0.29044 -0.08328
 N184 N 0.54560 0.32372 -0.10590
 C185 C 0.50544 0.30402 -0.11407
 C186 C 0.50180 0.25540 -0.09674
 C187 C 0.54122 0.24783 -0.07753
 H188 H 0.48165 0.32269 -0.13341
 H189 H 0.55069 0.21394 -0.06080
 Cu190 Cu 0.57452 0.38736 -0.12769
 Cu191 Cu 0.62490 0.30692 -0.06297
 Cu192 Cu 0.68579 0.38743 -0.12840
 N193 N 0.61199 0.43349 -0.16579
 N194 N 0.65381 0.43061 -0.16898
 C195 C 0.66908 0.46278 -0.20160
 C196 C 0.63510 0.48727 -0.21939
 C197 C 0.59953 0.46800 -0.19573
 H198 H 0.70239 0.46820 -0.21128
 H199 H 0.56661 0.47668 -0.20111
 N200 N 0.70703 0.36198 -0.07212
 N201 N 0.68168 0.33336 -0.04533
 C202 C 0.70157 0.32742 -0.00697
 C203 C 0.74193 0.35272 -0.01024
 C204 C 0.74465 0.37388 -0.05205
 H205 H 0.68761 0.30663 0.02125
 H206 H 0.77085 0.39857 -0.06597
 H207 H 0.63290 0.39275 -0.09412
 H208 H 0.62511 0.34792 -0.13555
   
