data_POSCAR
  _audit_creation_date              2014-09-24
  _audit_creation_method            'ToBaCCo'
  _symmetry_space_group_name_H-M    'P1'
  _symmetry_Int_Tables_number       1
  _symmetry_cell_setting            triclinic
  loop_
  _symmetry_equiv_pos_as_xyz
 x,y,z
_cell_length_a 30.3309
_cell_length_b 29.1472
_cell_length_c 29.8735
_cell_angle_alpha 93.862000
_cell_angle_beta 91.604100
_cell_angle_gamma 85.946300
loop_
  _atom_site_label
  _atom_site_type_symbol
  _atom_site_fract_x
  _atom_site_fract_y
  _atom_site_fract_z
N1 N 0.21390 1.20183 0.22003
 N2 N 0.78488 0.79163 0.22619
 N3 N 0.77277 1.20754 -0.19079
 N4 N 0.18817 0.78884 -0.20410
 C5 C 0.54428 1.06113 -0.03972
 H6 H 0.52525 1.08123 -0.01437
 C7 C 0.57647 1.08177 -0.06248
 H8 H 0.58129 1.11789 -0.05452
 C9 C 0.56283 0.98921 -0.07862
 H10 H 0.55770 0.95289 -0.08415
 C11 C 0.59491 1.00852 -0.10257
 H12 H 0.61299 0.98652 -0.12727
 N13 N 0.53812 1.01558 -0.04813
 C14 C 0.45909 1.02145 0.06656
 H15 H 0.47748 0.99323 0.08183
 C16 C 0.42984 1.05074 0.09232
 H17 H 0.42645 1.04522 0.12752
 C18 C 0.43910 1.06145 0.00172
 H19 H 0.44210 1.06453 -0.03394
 C20 C 0.40999 1.09196 0.02636
 H21 H 0.39051 1.11832 0.00929
 Zn22 Zn 0.49881 0.98492 -0.01435
 N23 N 0.46321 1.02734 0.02211
 C24 C 0.56240 0.96630 0.05158
 N25 N 0.53464 0.94543 0.02143
 C26 C 0.53530 0.89870 0.01547
 C27 C 0.56488 0.87105 0.04053
 C28 C 0.59220 0.94007 0.07747
 C29 C 0.45694 0.95684 -0.09720
 C30 C 0.42573 0.93417 -0.12412
 C31 C 0.40100 0.90078 -0.05821
 C32 C 0.43231 0.92446 -0.03256
 N33 N 0.45982 0.95140 -0.05235
 H34 H 0.56168 1.00354 0.05505
 H35 H 0.51369 0.88275 -0.00939
 H36 H 0.56472 0.83396 0.03540
 H37 H 0.61438 0.95750 0.10086
 H38 H 0.47785 0.97989 -0.11204
 H39 H 0.42347 0.94062 -0.15931
 H40 H 0.37964 0.87944 -0.04151
 H41 H 0.43454 0.92166 0.00337
 C42 C 0.40494 1.08660 0.07226
 C43 C 0.60285 1.05537 -0.09409
 C44 C 0.39716 0.90539 -0.10476
 C45 C 0.59421 0.89178 0.07171
 C46 C 0.00270 0.56211 1.06510
 H47 H 0.03823 0.55528 1.06587
 C48 C -0.01693 0.59668 1.09411
 H49 H 0.00391 0.61543 1.11777
 C50 C -0.06717 0.54539 1.03311
 H51 H -0.08653 0.52622 1.00846
 C52 C -0.08819 0.57974 1.06147
 H53 H -0.12372 0.58626 1.05853
 N54 N -0.02246 0.53732 1.03538
 C55 C 0.06894 0.41932 0.99926
 H56 H 0.06955 0.42230 0.96337
 C57 C 0.09458 0.38404 1.01881
 H58 H 0.11552 0.36109 0.99735
 C59 C 0.04129 0.44715 1.07004
 H60 H 0.01985 0.47135 1.08975
 C61 C 0.06602 0.41201 1.09098
 H62 H 0.06343 0.40994 1.12685
 Zn63 Zn 0.00793 0.49479 0.99444
 N64 N 0.04324 0.45015 1.02494
 C65 C 0.08834 0.52616 0.96530
 N66 N 0.04356 0.52953 0.96039
 C67 C 0.02272 0.56068 0.93375
 C68 C 0.04709 0.58939 0.90998
 C69 C 0.11403 0.55458 0.94255
 C70 C -0.06125 0.43761 0.97771
 C71 C -0.08992 0.41016 0.95248
 C72 C -0.05753 0.43247 0.88500
 C73 C -0.02979 0.45996 0.91161
 N74 N -0.03218 0.46208 0.95708
 H75 H 0.10423 0.50248 0.98802
 H76 H -0.01301 0.56346 0.93130
 H77 H 0.02953 0.61378 0.88894
 H78 H 0.14934 0.55189 0.94862
 H79 H -0.06177 0.43908 1.01397
 H80 H -0.11261 0.39105 0.97002
 H81 H -0.05347 0.43064 0.84914
 H82 H -0.00536 0.47834 0.89586
 C83 C 0.09292 0.37944 1.06533
 C84 C -0.06298 0.60648 1.09200
 C85 C -0.08828 0.40682 0.90532
 C86 C 0.09351 0.58686 0.91417
 C87 C 1.07266 0.01474 0.56893
 H88 H 1.07394 0.05126 0.56507
 C89 C 1.09918 -0.00642 0.60161
 H90 H 1.12149 0.01448 0.62134
 C91 C 1.04121 -0.05564 0.54720
 H92 H 1.01758 -0.07436 0.52682
 C93 C 1.06667 -0.07810 0.57989
 H94 H 1.06248 -0.11420 0.58364
 N95 N 1.04428 -0.00990 0.54272
 C96 C 1.00720 0.08832 0.44240
 H97 H 0.97186 0.09113 0.44713
 C98 C 1.02533 0.11315 0.41001
 H99 H 1.00346 0.13598 0.39112
 C100 C 1.07797 0.05491 0.46203
 H101 H 1.09814 0.03112 0.48152
 C102 C 1.09750 0.07875 0.42956
 H103 H 1.13278 0.07329 0.42476
 Zn104 Zn 1.00411 0.02295 0.50514
 N105 N 1.03349 0.05980 0.46749
 C106 C 0.97047 0.10600 0.55042
 N107 N 0.96587 0.05992 0.54381
 C108 C 0.93775 0.03839 0.56873
 C109 C 0.91249 0.06343 0.60157
 C110 C 0.94650 0.13219 0.58354
 C111 C 0.99866 -0.04717 0.43868
 C112 C 0.97931 -0.07575 0.40557
 C113 C 0.90742 -0.04432 0.42984
 C114 C 0.92822 -0.01619 0.46257
 N115 N 0.97312 -0.01804 0.46621
 H116 H 0.99409 0.12218 0.53133
 H117 H 0.93581 0.00147 0.56384
 H118 H 0.89082 0.04565 0.62165
 H119 H 0.95110 0.16867 0.58894
 H120 H 1.03429 -0.04754 0.44204
 H121 H 1.00047 -0.09878 0.38430
 H122 H 0.87169 -0.04169 0.42667
 H123 H 0.90849 0.00813 0.48389
 C124 C 1.07098 0.10759 0.40224
 C125 C 1.09554 -0.05335 0.60854
 C126 C 0.93307 -0.07390 0.40019
 C127 C 0.91748 0.11072 0.60990
 C128 C 0.16412 0.27068 1.13031
 C129 C 0.14768 0.31067 1.15477
 N130 N 0.15376 0.31442 1.20003
 C131 C 0.17546 0.27981 1.22197
 C132 C 0.19206 0.23964 1.19755
 N133 N 0.18592 0.23621 1.15212
 N134 N 0.15721 0.26651 1.08524
 C135 C 0.13476 0.30061 1.06331
 C136 C 0.11845 0.34129 1.08752
 N137 N 0.12541 0.34486 1.13292
 H138 H 0.17982 0.28353 1.25808
 H139 H 0.12909 0.29510 1.02758
 C140 C -0.12729 0.71773 1.16942
 C141 C -0.14972 0.67868 1.15532
 N142 N -0.19286 0.67696 1.16570
 C143 C -0.21469 0.71281 1.18921
 C144 C -0.19250 0.75240 1.20270
 N145 N -0.14908 0.75354 1.19264
 N146 N -0.08431 0.71969 1.15887
 C147 C -0.06259 0.68432 1.13475
 C148 C -0.08487 0.64493 1.12026
 N149 N -0.12815 0.64338 1.13102
 H150 H -0.24901 0.71062 1.19723
 H151 H -0.02869 0.68777 1.12601
 C152 C -0.16550 0.30931 0.83239
 C153 C -0.16315 0.31204 0.87928
 N154 N -0.18396 0.28162 0.90214
 C155 C -0.20670 0.24805 0.88019
 C156 C -0.20828 0.24392 0.83265
 N157 N -0.18757 0.27540 0.81028
 N158 N -0.14463 0.33983 0.80962
 C159 C -0.12071 0.37251 0.83164
 C160 C -0.11673 0.37441 0.87896
 N161 N -0.13880 0.34410 0.90127
 H162 H -0.22126 0.22341 0.89980
 H163 H -0.10514 0.39622 0.81196
 C164 C 0.16478 0.68348 0.84975
 C165 C 0.11867 0.68882 0.85292
 N166 N 0.09619 0.72602 0.83615
 C167 C 0.11784 0.75835 0.81650
 C168 C 0.16418 0.75353 0.81381
 N169 N 0.18655 0.71603 0.83064
 N170 N 0.18706 0.64601 0.86618
 C171 C 0.16545 0.61385 0.88622
 C172 C 0.11911 0.61959 0.89072
 N173 N 0.09714 0.65709 0.87336
 H174 H 0.09924 0.78810 0.80405
 H175 H 0.18459 0.58426 0.89804
 C176 C 1.12947 0.16598 0.29373
 C177 C 1.15488 0.15384 0.33161
 N178 N 1.19906 0.15913 0.33275
 C179 C 1.21901 0.17553 0.29741
 C180 C 1.19369 0.18680 0.25905
 N181 N 1.14934 0.18215 0.25847
 N182 N 1.08555 0.15999 0.29213
 C183 C 1.06569 0.14226 0.32666
 C184 C 1.09091 0.12976 0.36492
 N185 N 1.13513 0.13597 0.36615
 H186 H 1.25427 0.17924 0.29886
 H187 H 1.03089 0.13672 0.32322
 C188 C 1.15751 -0.12071 0.71826
 C189 C 1.13717 -0.14574 0.68274
 N190 N 1.13512 -0.19198 0.68433
 C191 C 1.15212 -0.21426 0.72020
 C192 C 1.17196 -0.18913 0.75630
 N193 N 1.17441 -0.14284 0.75410
 N194 N 1.15878 -0.07443 0.71707
 C195 C 1.14036 -0.05178 0.68210
 C196 C 1.11938 -0.07656 0.64621
 N197 N 1.11868 -0.12321 0.64781
 H198 H 1.14995 -0.25111 0.72075
 H199 H 1.14126 -0.01480 0.68357
 C200 C 0.87013 -0.14907 0.29308
 C201 C 0.84924 -0.13939 0.33429
 N202 N 0.80809 -0.15357 0.33953
 C203 C 0.78679 -0.17672 0.30524
 C204 C 0.80739 -0.18581 0.26371
 N205 N 0.84878 -0.17182 0.25884
 N206 N 0.91110 -0.13482 0.28764
 C207 C 0.93232 -0.11128 0.32158
 C208 C 0.91158 -0.10122 0.36308
 N209 N 0.87026 -0.11555 0.36818
 H210 H 0.75400 -0.18767 0.31008
 H211 H 0.96454 -0.09954 0.31560
 C212 C 0.85365 0.17876 0.72230
 C213 C 0.83109 0.14870 0.69281
 N214 N 0.78872 0.14058 0.70111
 C215 C 0.76810 0.16033 0.73818
 C216 C 0.79124 0.18907 0.76956
 N217 N 0.83350 0.19771 0.75974
 N218 N 0.89572 0.18781 0.71361
 C219 C 0.91647 0.16770 0.67682
 C220 C 0.89442 0.13643 0.64773
 N221 N 0.85205 0.12779 0.65654
 H222 H 0.73386 0.15394 0.74256
 H223 H 0.95035 0.17483 0.67125
 C224 C 0.30762 1.16910 0.14566
 C225 C 0.31661 1.12248 0.15360
 N226 N 0.29242 1.10288 0.18369
 C227 C 0.25944 1.12774 0.20623
 C228 C 0.25014 1.17472 0.19852
 N229 N 0.27483 1.19405 0.16825
 N230 N 0.33113 1.18841 0.11474
 C231 C 0.36301 1.16303 0.09101
 C232 C 0.37192 1.11609 0.09858
 N233 N 0.34853 1.09717 0.13011
 H234 H 0.24014 1.11054 0.22904
 H235 H 0.38129 1.17943 0.06670
 C236 C 0.70507 1.11892 -0.15646
 C237 C 0.67099 1.14538 -0.13427
 N238 N 0.67104 1.19204 -0.13169
 C239 C 0.70387 1.21347 -0.15014
 C240 C 0.73845 1.18708 -0.17258
 N241 N 0.73773 1.14019 -0.17508
 N242 N 0.70550 1.07231 -0.15830
 C243 C 0.67328 1.05076 -0.13906
 C244 C 0.63848 1.07707 -0.11691
 N245 N 0.63864 1.12398 -0.11518
 H246 H 0.70273 1.25075 -0.14790
 H247 H 0.67586 1.01359 -0.14042
 C248 C 0.29389 0.84116 -0.17899
 C249 C 0.29438 0.84531 -0.13199
 N250 N 0.26084 0.82961 -0.10952
 C251 C 0.22656 0.81014 -0.13200
 C252 C 0.22546 0.80652 -0.17927
 N253 N 0.25943 0.82221 -0.20155
 N254 N 0.32768 0.85656 -0.20131
 C255 C 0.36174 0.87654 -0.17881
 C256 C 0.36191 0.88202 -0.13148
 N257 N 0.32805 0.86566 -0.10954
 H258 H 0.19989 0.79870 -0.11318
 H259 H 0.38825 0.88750 -0.19802
 C260 C 0.69502 0.81749 0.14355
 C261 C 0.67546 0.85900 0.16143
 N262 N 0.69133 0.87734 0.20328
 C263 C 0.72670 0.85582 0.22649
 C264 C 0.74568 0.81406 0.20619
 N265 N 0.72931 0.79647 0.16601
 N266 N 0.68044 0.79942 0.10321
 C267 C 0.64715 0.82159 0.07986
 C268 C 0.62777 0.86415 0.09750
 N269 N 0.64259 0.88161 0.13822
 H270 H 0.70143 0.88323 0.22443
 H271 H 0.63720 0.80685 0.04727
   
