data_POSCAR
  _audit_creation_date              2014-09-24
  _audit_creation_method            'ToBaCCo'
  _symmetry_space_group_name_H-M    'P1'
  _symmetry_Int_Tables_number       1
  _symmetry_cell_setting            triclinic
  loop_
  _symmetry_equiv_pos_as_xyz
 x,y,z
_cell_length_a 40.6374
_cell_length_b 39.7476
_cell_length_c 38.1221
_cell_angle_alpha 90.182700
_cell_angle_beta 88.253400
_cell_angle_gamma 88.319600
loop_
  _atom_site_label
  _atom_site_type_symbol
  _atom_site_fract_x
  _atom_site_fract_y
  _atom_site_fract_z
C1 C 0.22524 0.16997 0.21710
 C2 C 0.21145 0.15739 0.24850
 C3 C 0.18104 0.17027 0.26241
 C4 C 0.16501 0.19686 0.24456
 C5 C 0.17839 0.20953 0.21316
 C6 C 0.20856 0.19610 0.19938
 C7 C 0.25506 0.15631 0.20276
 C8 C 0.26847 0.16865 0.17082
 C9 C 0.25157 0.19500 0.15377
 C10 C 0.22175 0.20851 0.16754
 C11 C 0.20461 0.23384 0.14949
 C12 C 0.17454 0.24725 0.16298
 C13 C 0.16157 0.23500 0.19493
 H14 H 0.22423 0.13704 0.26184
 H15 H 0.14210 0.20817 0.25443
 H16 H 0.26719 0.13603 0.21662
 H17 H 0.26134 0.20472 0.12913
 H18 H 0.21457 0.24305 0.12472
 H19 H 0.13787 0.24436 0.20513
 C20 C -0.21138 0.83101 0.24448
 C21 C -0.19725 0.83748 0.27694
 C22 C -0.16662 0.82258 0.28558
 C23 C -0.15040 0.80082 0.26089
 C24 C -0.16410 0.79441 0.22842
 C25 C -0.19479 0.80924 0.22020
 C26 C -0.24151 0.84649 0.23565
 C27 C -0.25557 0.84037 0.20296
 C28 C -0.23865 0.81825 0.17899
 C29 C -0.20848 0.80279 0.18738
 C30 C -0.19134 0.78158 0.16306
 C31 C -0.16049 0.76723 0.17113
 C32 C -0.14706 0.77383 0.20371
 H33 H -0.21004 0.85451 0.29539
 H34 H -0.12674 0.78911 0.26584
 H35 H -0.25399 0.86353 0.25432
 H36 H -0.24780 0.81364 0.15318
 H37 H -0.20153 0.77701 0.13760
 H38 H -0.12320 0.76276 0.20984
 C39 C -0.21517 0.18688 -0.22015
 C40 C -0.20079 0.17458 -0.25188
 C41 C -0.17923 0.19446 -0.27185
 C42 C -0.17365 0.22748 -0.26101
 C43 C -0.18755 0.23993 -0.22945
 C44 C -0.20813 0.21957 -0.20864
 C45 C -0.23588 0.16678 -0.19950
 C46 C -0.24972 0.17880 -0.16716
 C47 C -0.24234 0.21157 -0.15604
 C48 C -0.22131 0.23182 -0.17623
 C49 C -0.21255 0.26385 -0.16431
 C50 C -0.19144 0.28377 -0.18497
 C51 C -0.18003 0.27206 -0.21787
 H52 H -0.20547 0.14919 -0.26050
 H53 H -0.15804 0.24348 -0.27687
 H54 H -0.24154 0.14221 -0.20948
 H55 H -0.25258 0.22119 -0.13125
 H56 H -0.22192 0.27312 -0.13906
 H57 H -0.16370 0.28739 -0.23371
 C58 C 0.20474 0.84097 -0.19693
 C59 C 0.19248 0.85789 -0.22625
 C60 C 0.16665 0.84474 -0.24535
 C61 C 0.15343 0.81383 -0.23469
 C62 C 0.16517 0.79695 -0.20512
 C63 C 0.19086 0.81052 -0.18609
 C64 C 0.23022 0.85448 -0.17790
 C65 C 0.24229 0.83782 -0.14818
 C66 C 0.22783 0.80782 -0.13705
 C67 C 0.20220 0.79399 -0.15582
 C68 C 0.18717 0.76437 -0.14445
 C69 C 0.16085 0.75131 -0.16276
 C70 C 0.15075 0.76721 -0.19370
 H71 H 0.20296 0.88164 -0.23401
 H72 H 0.13308 0.80320 -0.24805
 H73 H 0.24002 0.87839 -0.18592
 H74 H 0.23661 0.79523 -0.11379
 H75 H 0.19528 0.75200 -0.12078
 H76 H 0.13143 0.75669 -0.20890
 C77 C 0.17067 1.19600 0.79445
 C78 C 0.16083 1.17859 0.76439
 C79 C 0.17871 1.14959 0.75201
 C80 C 0.20610 1.13810 0.77076
 C81 C 0.21643 1.15546 0.80027
 C82 C 0.19899 1.18479 0.81194
 C83 C 0.15230 1.22407 0.80770
 C84 C 0.16201 1.24152 0.83786
 C85 C 0.19120 1.23062 0.85420
 C86 C 0.20955 1.20242 0.84157
 C87 C 0.23779 1.19087 0.85886
 C88 C 0.25469 1.16128 0.84762
 C89 C 0.24379 1.14360 0.81857
 H90 H 0.13891 1.18748 0.75151
 H91 H 0.21986 1.11562 0.76207
 H92 H 0.13010 1.23215 0.79463
 H93 H 0.19933 1.24278 0.87765
 H94 H 0.24586 1.20407 0.88185
 H95 H 0.25680 1.12062 0.81015
 C96 C 0.82318 0.76824 0.78561
 C97 C 0.84609 0.78294 0.76226
 C98 C 0.83863 0.81381 0.74580
 C99 C 0.80699 0.82871 0.75142
 C100 C 0.78377 0.81396 0.77387
 C101 C 0.79187 0.78385 0.79137
 C102 C 0.83146 0.73878 0.80403
 C103 C 0.80894 0.72486 0.82865
 C104 C 0.77762 0.74062 0.83366
 C105 C 0.76881 0.76973 0.81504
 C106 C 0.73757 0.78544 0.82036
 C107 C 0.72934 0.81530 0.80242
 C108 C 0.75265 0.82936 0.77945
 H109 H 0.87021 0.77097 0.75793
 H110 H 0.79968 0.85137 0.73768
 H111 H 0.85599 0.72799 0.79996
 H112 H 0.76000 0.73030 0.85236
 H113 H 0.72029 0.77493 0.83919
 H114 H 0.74659 0.85266 0.76604
 C115 C 0.18665 0.78923 1.20400
 C116 C 0.17781 0.80936 1.23348
 C117 C 0.19607 0.83772 1.24189
 C118 C 0.22343 0.84567 1.22058
 C119 C 0.23274 0.82585 1.19127
 C120 C 0.21421 0.79754 1.18263
 C121 C 0.16768 0.76154 1.19571
 C122 C 0.17514 0.73945 1.16379
 C123 C 0.20533 0.75069 1.14277
 C124 C 0.22328 0.77846 1.15239
 C125 C 0.25039 0.78773 1.13128
 C126 C 0.26895 0.81547 1.13998
 C127 C 0.25998 0.83449 1.17004
 H128 H 0.15605 0.80342 1.24906
 H129 H 0.23749 0.86759 1.22679
 H130 H 0.14654 0.75561 1.21234
 H131 H 0.21298 0.73670 1.11938
 H132 H 0.25713 0.77332 1.10780
 H133 H 0.27350 0.85668 1.17640
 C134 C 0.81023 1.21479 1.21271
 C135 C 0.82911 1.19470 1.23504
 C136 C 0.82271 1.15732 1.24061
 C137 C 0.79430 1.14550 1.21976
 C138 C 0.77599 1.16694 1.19832
 C139 C 0.78366 1.20121 1.19492
 C140 C 0.81815 1.24867 1.20741
 C141 C 0.79999 1.26910 1.18442
 C142 C 0.77269 1.25589 1.16825
 C143 C 0.76459 1.22220 1.17298
 C144 C 0.73828 1.20903 1.15498
 C145 C 0.73126 1.17489 1.15755
 C146 C 0.74989 1.15406 1.17960
 H147 H 0.84930 1.20567 1.24855
 H148 H 0.78800 1.11924 1.22191
 H149 H 0.83860 1.25883 1.22109
 H150 H 0.75846 1.27158 1.15068
 H151 H 0.72390 1.22512 1.13793
 H152 H 0.74397 1.12777 1.18236
 O153 O 0.53958 0.96696 0.91555
 O154 O 0.49763 0.94704 1.03577
 O155 O 0.55555 0.94933 1.02366
 O156 O 0.44071 0.98623 0.96007
 O157 O 0.54104 0.97412 1.07221
 O158 O 0.47772 0.96930 0.91970
 O159 O 0.45062 0.97016 1.02184
 O160 O 0.55126 0.94050 0.96279
 C161 C 0.54850 0.94035 0.93058
 C162 C 0.46713 0.94505 1.03286
 C163 C 0.56161 0.95395 1.05561
 C164 C 0.44890 0.96933 0.93270
 O165 O 0.47757 1.03411 0.92368
 O166 O 0.53153 1.03041 1.04202
 O167 O 0.57641 1.00158 0.94883
 O168 O 0.46922 1.03608 1.03279
 O169 O 0.48271 1.00011 1.06927
 O170 O 0.53882 1.03354 0.92637
 O171 O 0.45908 1.04902 0.97503
 O172 O 0.57438 1.01371 1.01167
 Co173 Co 0.50885 1.00048 0.92726
 Co174 Co 0.51544 0.98875 1.03685
 Co175 Co 0.55971 0.97814 0.98665
 Co176 Co 0.45926 1.00895 0.99679
 O177 O 0.50899 0.99554 0.98456
 C178 C 0.46089 1.05386 0.94303
 C179 C 0.56043 1.03499 1.03192
 C180 C 0.56815 1.02828 0.93341
 C181 C 0.46628 1.02588 1.06326
 O182 O 0.02749 0.47677 0.07456
 O183 O 0.02581 0.53196 -0.05081
 O184 O 0.00982 0.42964 -0.01734
 O185 O 0.03364 0.54808 0.00841
 O186 O 0.03665 0.47137 -0.03981
 O187 O 0.02346 0.54000 0.06340
 O188 O -0.00124 0.57827 -0.03390
 O189 O 0.00659 0.43321 0.04721
 C190 C 0.02710 0.44564 0.06795
 C191 C 0.01876 0.56292 -0.05685
 C192 C 0.03545 0.44085 -0.03233
 C193 C 0.04158 0.55152 0.03943
 O194 O -0.04226 0.53615 0.06947
 O195 O -0.02339 0.45748 -0.05953
 O196 O -0.05814 0.45065 0.04403
 O197 O -0.05269 0.54740 -0.01536
 O198 O -0.03817 0.51816 -0.06064
 O199 O -0.03461 0.47600 0.08562
 O200 O -0.02261 0.57221 0.03316
 O201 O -0.05604 0.45281 -0.01651
 Co202 Co -0.00681 0.50678 0.06716
 Co203 Co -0.00107 0.49511 -0.04666
 Co204 Co -0.02324 0.44589 0.01345
 Co205 Co -0.00978 0.54499 -0.00357
 O206 O -0.01129 0.49667 0.01077
 C207 C -0.04278 0.56515 0.05722
 C208 C -0.05119 0.45036 -0.04813
 C209 C -0.05666 0.45763 0.07551
 C210 C -0.05896 0.53717 -0.04509
 O211 O 1.04904 0.04028 0.46970
 O212 O 0.93615 0.03773 0.54068
 O213 O 0.96199 0.00656 0.43321
 O214 O 1.03615 0.05455 0.53237
 O215 O 0.93480 0.03455 0.47514
 O216 O 1.07461 0.01960 0.52572
 O217 O 0.98069 0.06423 0.54321
 O218 O 1.02039 0.02032 0.42865
 C219 C 1.03892 0.04242 0.43940
 C220 C 0.95037 0.06427 0.54613
 C221 C 0.94172 0.02979 0.44324
 C222 C 1.06537 0.04752 0.53738
 O223 O 1.04945 -0.03773 0.51868
 O224 O 0.93454 -0.03056 0.47942
 O225 O 1.03655 -0.04141 0.45608
 O226 O 0.97515 0.00370 0.57722
 O227 O 0.94369 -0.02675 0.54470
 O228 O 1.08128 -0.01533 0.46570
 O229 O 1.03354 -0.00831 0.56497
 O230 O 0.98015 -0.05394 0.46156
 Co231 Co 1.04715 0.00098 0.49342
 Co232 Co 0.94304 0.00391 0.50915
 Co233 Co 0.99971 -0.01510 0.44953
 Co234 Co 1.00595 0.02678 0.55055
 O235 O 0.99698 0.00545 0.50205
 C236 C 1.04614 -0.03516 0.55141
 C237 C 0.95008 -0.05550 0.46700
 C238 C 1.06616 -0.03678 0.44666
 C239 C 0.95587 -0.02051 0.57376
 C240 C 1.16765 0.15558 0.29316
 C241 C 1.13637 0.16356 0.30809
 C242 C 1.12190 0.14534 0.33836
 C243 C 1.08747 0.14406 0.34187
 C244 C 1.07270 0.12595 0.36911
 C245 C 1.09215 0.10890 0.39361
 C246 C 1.12650 0.11159 0.39122
 C247 C 1.14132 0.12952 0.36378
 C248 C 1.07744 0.08742 0.42116
 C249 C 1.04893 0.06961 0.41584
 H250 H 1.12010 0.18155 0.29577
 H251 H 1.07193 0.15657 0.32302
 H252 H 1.04609 0.12533 0.37087
 H253 H 1.14196 0.09906 0.41013
 H254 H 1.16786 0.13103 0.36270
 H255 H 1.09164 0.08196 0.44417
 H256 H 1.18193 0.13547 0.30506
 H257 H 1.03616 0.07230 0.39146
 C258 C 0.84721 -0.16880 0.31779
 C259 C 0.87749 -0.18145 0.32966
 C260 C 0.89428 -0.16643 0.35947
 C261 C 0.92879 -0.16615 0.35843
 C262 C 0.94554 -0.14909 0.38414
 C263 C 0.92815 -0.13224 0.41161
 C264 C 0.89363 -0.13486 0.41419
 C265 C 0.87685 -0.15164 0.38821
 C266 C 0.94669 -0.11022 0.43493
 C267 C 0.93175 -0.08450 0.45524
 H268 H 0.89161 -0.20042 0.31504
 H269 H 0.94279 -0.17786 0.33679
 H270 H 0.97212 -0.14790 0.38171
 H271 H 0.87925 -0.12364 0.43570
 H272 H 0.85031 -0.15281 0.39061
 H273 H 0.97332 -0.11093 0.43195
 H274 H 0.83420 -0.14977 0.33369
 H275 H 0.90530 -0.08261 0.45869
 C276 C 0.83803 0.18024 0.69657
 C277 C 0.86984 0.18975 0.68670
 C278 C 0.88870 0.17443 0.65681
 C279 C 0.92313 0.17170 0.65815
 C280 C 0.94149 0.15518 0.63137
 C281 C 0.92575 0.14137 0.60267
 C282 C 0.89147 0.14650 0.60004
 C283 C 0.87309 0.16263 0.62703
 C284 C 0.94528 0.11957 0.57776
 C285 C 0.93107 0.09329 0.55997
 H286 H 0.88271 0.20666 0.70349
 H287 H 0.93572 0.18122 0.68060
 H288 H 0.96789 0.15195 0.63382
 H289 H 0.87861 0.13777 0.57749
 H290 H 0.84671 0.16578 0.62459
 H291 H 0.97191 0.12042 0.57809
 H292 H 0.82681 0.15985 0.68283
 H293 H 0.90465 0.09070 0.56105
 C294 C 1.15397 -0.13607 0.72689
 C295 C 1.12974 -0.14656 0.70423
 C296 C 1.11337 -0.12329 0.67961
 C297 C 1.09991 -0.13619 0.64906
 C298 C 1.08331 -0.11486 0.62595
 C299 C 1.07963 -0.08024 0.63328
 C300 C 1.09245 -0.06753 0.66422
 C301 C 1.10922 -0.08876 0.68713
 C302 C 1.06218 -0.05664 0.60990
 C303 C 1.05933 -0.06192 0.57393
 H304 H 1.12287 -0.17259 0.70334
 H305 H 1.10224 -0.16283 0.64308
 H306 H 1.07291 -0.12569 0.60286
 H307 H 1.08956 -0.04101 0.67066
 H308 H 1.11819 -0.07814 0.71107
 H309 H 1.05369 -0.03267 0.62101
 H310 H 1.16354 -0.11117 0.72282
 H311 H 1.06946 -0.08462 0.56155
 C312 C 0.29745 1.15536 1.15420
 C313 C 0.31673 1.12805 1.16580
 C314 C 0.34447 1.11339 1.14402
 C315 C 0.37034 1.09584 1.16021
 C316 C 0.39664 1.08159 1.14008
 C317 C 0.39729 1.08447 1.10328
 C318 C 0.37134 1.10181 1.08719
 C319 C 0.34506 1.11576 1.10718
 C320 C 0.42415 1.06984 1.08049
 C321 C 0.44470 1.04283 1.08987
 H322 H 0.31224 1.11717 1.19136
 H323 H 0.37035 1.09344 1.18850
 H324 H 0.41647 1.06881 1.15344
 H325 H 0.37107 1.10406 1.05887
 H326 H 0.32500 1.12774 1.09347
 H327 H 0.42582 1.07882 1.05368
 H328 H 0.30529 1.16716 1.12991
 H329 H 0.44298 1.03202 1.11583
 C330 C 0.26908 0.85203 0.87234
 C331 C 0.29271 0.87283 0.85717
 C332 C 0.31865 0.88961 0.87672
 C333 C 0.34489 0.90344 0.85744
 C334 C 0.36921 0.92093 0.87425
 C335 C 0.36792 0.92499 0.91093
 C336 C 0.34150 0.91150 0.93027
 C337 C 0.31710 0.89390 0.91341
 C338 C 0.39288 0.94431 0.92936
 C339 C 0.42465 0.94868 0.91548
 H340 H 0.29294 0.87639 0.82903
 H341 H 0.34641 0.90103 0.82912
 H342 H 0.38843 0.93196 0.85819
 H343 H 0.33967 0.91472 0.95850
 H344 H 0.29683 0.88449 0.92915
 H345 H 0.38629 0.95470 0.95503
 H346 H 0.27090 0.84467 0.89952
 H347 H 0.43253 0.93608 0.89133
 C348 C 0.71477 0.85764 1.19492
 C349 C 0.69642 0.85131 1.16519
 C350 C 0.66815 0.87263 1.15393
 C351 C 0.64752 0.85963 1.12866
 C352 C 0.62250 0.87965 1.11454
 C353 C 0.61771 0.91338 1.12514
 C354 C 0.63736 0.92611 1.15144
 C355 C 0.66259 0.90606 1.16553
 C356 C 0.59300 0.93575 1.10848
 C357 C 0.58527 0.93184 1.07337
 H358 H 0.70222 0.82930 1.14926
 H359 H 0.65109 0.83395 1.11936
 H360 H 0.60705 0.86865 1.09519
 H361 H 0.63400 0.95199 1.16013
 H362 H 0.67827 0.91730 1.18444
 H363 H 0.58254 0.95703 1.12324
 H364 H 0.70539 0.87675 1.21322
 H365 H 0.59791 0.91254 1.05755
 C366 C 0.72891 1.15954 0.85411
 C367 C 0.72402 1.12502 0.84960
 C368 C 0.69960 1.10592 0.87056
 C369 C 0.70504 1.07119 0.87511
 C370 C 0.68159 1.05187 0.89271
 C371 C 0.65178 1.06667 0.90535
 C372 C 0.64647 1.10159 0.90139
 C373 C 0.67016 1.12104 0.88416
 C374 C 0.62675 1.04494 0.92201
 C375 C 0.59295 1.05183 0.92028
 H376 H 0.73980 1.11050 0.83153
 H377 H 0.72746 1.05891 0.86480
 H378 H 0.68636 1.02507 0.89558
 H379 H 0.62407 1.11396 0.91152
 H380 H 0.66491 1.14764 0.88064
 H381 H 0.63505 1.02121 0.93308
 H382 H 0.71632 1.17195 0.87626
 H383 H 0.58418 1.07428 0.90709
 C384 C 0.15644 0.27261 0.14216
 C385 C 0.13368 0.29581 0.15712
 C386 C 0.11417 0.31985 0.13611
 C387 C 0.10181 0.34961 0.15208
 C388 C 0.08249 0.37250 0.13340
 C389 C 0.07498 0.36590 0.09831
 C390 C 0.08678 0.33583 0.08252
 C391 C 0.10632 0.31302 0.10116
 C392 C 0.05359 0.38903 0.07829
 C393 C 0.05091 0.42343 0.08537
 H394 H 0.13108 0.29763 0.18542
 H395 H 0.10704 0.35512 0.17917
 H396 H 0.07283 0.39485 0.14683
 H397 H 0.08081 0.32995 0.05572
 H398 H 0.11448 0.28978 0.08838
 H399 H 0.03997 0.37872 0.05695
 H400 H 0.16230 0.27386 0.11431
 H401 H 0.06649 0.43457 0.10451
 C402 C -0.17876 0.31594 -0.17263
 C403 C -0.16805 0.32006 -0.13860
 C404 C -0.14461 0.34617 -0.12921
 C405 C -0.14359 0.35667 -0.09420
 C406 C -0.12025 0.37947 -0.08387
 C407 C -0.09719 0.39218 -0.10841
 C408 C -0.09775 0.38124 -0.14333
 C409 C -0.12134 0.35858 -0.15375
 C410 C -0.07135 0.41509 -0.09728
 C411 C -0.07729 0.43714 -0.06932
 H412 H -0.17523 0.30223 -0.11855
 H413 H -0.16068 0.34688 -0.07468
 H414 H -0.11970 0.38623 -0.05638
 H415 H -0.07980 0.39008 -0.16250
 H416 H -0.12048 0.34999 -0.18073
 H417 H -0.04697 0.41292 -0.10954
 H418 H -0.17226 0.33437 -0.19232
 H419 H -0.10213 0.44015 -0.05841
 C420 C 0.14362 0.72166 -0.14867
 C421 C 0.11026 0.71684 -0.15447
 C422 C 0.09089 0.68961 -0.13849
 C423 C 0.05658 0.69425 -0.13545
 C424 C 0.03720 0.66986 -0.11963
 C425 C 0.05159 0.63996 -0.10705
 C426 C 0.08593 0.63476 -0.11086
 C427 C 0.10543 0.65938 -0.12650
 C428 C 0.03032 0.61638 -0.08769
 C429 C 0.03857 0.58263 -0.08175
 H430 H 0.09664 0.73574 -0.16893
 H431 H 0.04474 0.71720 -0.14468
 H432 H 0.01084 0.67453 -0.11685
 H433 H 0.09794 0.61225 -0.10092
 H434 H 0.13173 0.65463 -0.12913
 H435 H 0.00700 0.62640 -0.07700
 H436 H 0.15655 0.70535 -0.13070
 H437 H 0.06013 0.57080 -0.09441
 C438 C -0.14102 0.74610 0.14586
 C439 C -0.15510 0.72342 0.12323
 C440 C -0.13428 0.69862 0.10325
 C441 C -0.14450 0.66538 0.10042
 C442 C -0.12341 0.64062 0.08526
 C443 C -0.09193 0.64895 0.07226
 C444 C -0.08265 0.68262 0.07300
 C445 C -0.10352 0.70725 0.08860
 C446 C -0.06826 0.62316 0.05811
 C447 C -0.06685 0.59040 0.07105
 H448 H -0.18155 0.72060 0.12409
 H449 H -0.16830 0.65832 0.11114
 H450 H -0.13169 0.61503 0.08392
 H451 H -0.05876 0.68968 0.06253
 H452 H -0.09544 0.73295 0.08962
 H453 H -0.04984 0.63084 0.03884
 H454 H -0.11450 0.74542 0.14819
 H455 H -0.08366 0.58300 0.09202
 C456 C 1.17036 0.13101 0.72209
 C457 C 1.14681 0.14079 0.69777
 C458 C 1.13940 0.11961 0.66696
 C459 C 1.12841 0.13518 0.63633
 C460 C 1.12004 0.11596 0.60728
 C461 C 1.12176 0.08053 0.60851
 C462 C 1.13349 0.06497 0.63889
 C463 C 1.14208 0.08422 0.66787
 C464 C 1.10983 0.05916 0.57969
 C465 C 1.08556 0.07055 0.55713
 H466 H 1.13499 0.16547 0.69946
 H467 H 1.12632 0.16237 0.63484
 H468 H 1.11216 0.12906 0.58404
 H469 H 1.13498 0.03777 0.64066
 H470 H 1.14975 0.07125 0.69129
 H471 H 1.11641 0.03253 0.57963
 H472 H 1.18436 0.10789 0.71655
 H473 H 1.07629 0.09627 0.55914
 C474 C 0.86246 -0.17123 0.72375
 C475 C 0.86093 -0.13709 0.71471
 C476 C 0.88257 -0.12159 0.68788
 C477 C 0.88739 -0.08684 0.68979
 C478 C 0.90416 -0.07029 0.66275
 C479 C 0.91617 -0.08818 0.63295
 C480 C 0.91180 -0.12306 0.63124
 C481 C 0.89537 -0.13974 0.65859
 C482 C 0.93054 -0.07062 0.60223
 C483 C 0.94618 -0.03997 0.60489
 H484 H 0.84386 -0.12017 0.72883
 H485 H 0.87735 -0.07226 0.71188
 H486 H 0.90624 -0.04327 0.66457
 H487 H 0.92051 -0.13729 0.60833
 H488 H 0.89136 -0.16642 0.65599
 H489 H 0.92850 -0.08209 0.57658
 H490 H 0.88381 -0.18624 0.71484
 H491 H 0.95163 -0.02992 0.63042
 C492 C 1.18643 -0.13914 0.27136
 C493 C 1.16772 -0.14866 0.30089
 C494 C 1.15621 -0.12518 0.32951
 C495 C 1.13196 -0.13609 0.35352
 C496 C 1.11914 -0.11469 0.38002
 C497 C 1.13019 -0.08162 0.38314
 C498 C 1.15551 -0.07112 0.36024
 C499 C 1.16838 -0.09256 0.33363
 C500 C 1.11545 -0.05776 0.40970
 C501 C 1.08270 -0.05990 0.42119
 H502 H 1.16027 -0.17452 0.30293
 H503 H 1.12252 -0.16121 0.35150
 H504 H 1.10063 -0.12425 0.39806
 H505 H 1.16488 -0.04599 0.36247
 H506 H 1.18778 -0.08327 0.31663
 H507 H 1.12975 -0.03693 0.41848
 H508 H 1.19492 -0.11370 0.26939
 H509 H 1.06752 -0.07889 0.41008
 C510 C 0.84249 0.13188 0.26499
 C511 C 0.86679 0.14152 0.28749
 C512 C 0.88338 0.11696 0.31059
 C513 C 0.89908 0.12864 0.34032
 C514 C 0.91382 0.10598 0.36343
 C515 C 0.91354 0.07115 0.35694
 C516 C 0.89900 0.05948 0.32649
 C517 C 0.88368 0.08213 0.30368
 C518 C 0.92839 0.04686 0.38158
 C519 C 0.92581 0.05204 0.41773
 H520 H 0.87232 0.16792 0.29003
 H521 H 0.89946 0.15535 0.34601
 H522 H 0.92565 0.11575 0.38624
 H523 H 0.89883 0.03277 0.32081
 H524 H 0.87216 0.07240 0.28066
 H525 H 0.93993 0.02383 0.37128
 H526 H 0.83360 0.14637 0.25314
 H527 H 0.91146 0.07350 0.42796
 C528 C 0.14139 0.26811 -0.14863
 C529 C 0.14913 0.28953 -0.12084
 C530 C 0.12516 0.31415 -0.10424
 C531 C 0.13691 0.34236 -0.08675
 C532 C 0.11510 0.36526 -0.06941
 C533 C 0.08099 0.36015 -0.06882
 C534 C 0.06932 0.33162 -0.08576
 C535 C 0.09107 0.30894 -0.10342
 C536 C 0.05696 0.38344 -0.05039
 C537 C 0.06227 0.41767 -0.04501
 H538 H 0.17388 0.28959 -0.11131
 H539 H 0.16310 0.34665 -0.08642
 H540 H 0.12511 0.38644 -0.05589
 H541 H 0.04319 0.32687 -0.08538
 H542 H 0.08115 0.28694 -0.11556
 H543 H 0.03282 0.37397 -0.04377
 H544 H 0.11787 0.27246 -0.16073
 H545 H 0.08507 0.42846 -0.05423
 C546 C -0.19054 0.30367 0.17482
 C547 C -0.15843 0.31504 0.17649
 C548 C -0.14702 0.34490 0.15699
 C549 C -0.11858 0.36072 0.16768
 C550 C -0.10484 0.38638 0.14751
 C551 C -0.11921 0.39651 0.11596
 C552 C -0.14795 0.38107 0.10559
 C553 C -0.16181 0.35561 0.12587
 C554 C -0.10290 0.41996 0.09139
 C555 C -0.07921 0.44247 0.10142
 H556 H -0.14013 0.30058 0.19046
 H557 H -0.10642 0.35255 0.19121
 H558 H -0.08211 0.39690 0.15587
 H559 H -0.15916 0.38801 0.08112
 H560 H -0.18306 0.34330 0.11602
 H561 H -0.10840 0.41796 0.06383
 H562 H -0.20879 0.31936 0.16210
 H563 H -0.07509 0.44696 0.12892
 C564 C -0.18309 0.69678 -0.15034
 C565 C -0.15459 0.67635 -0.15473
 C566 C -0.14485 0.64999 -0.12934
 C567 C -0.12399 0.62329 -0.14103
 C568 C -0.11164 0.59966 -0.11740
 C569 C -0.11970 0.60236 -0.08129
 C570 C -0.14089 0.62888 -0.06961
 C571 C -0.15351 0.65240 -0.09336
 C572 C -0.10316 0.58067 -0.05513
 C573 C -0.08776 0.54981 -0.06389
 H574 H -0.13907 0.67853 -0.17808
 H575 H -0.11656 0.62115 -0.16851
 H576 H -0.09448 0.58041 -0.12745
 H577 H -0.14695 0.63194 -0.04188
 H578 H -0.16876 0.67321 -0.08323
 H579 H -0.09970 0.59121 -0.02929
 H580 H -0.20043 0.69024 -0.12949
 H581 H -0.09258 0.53798 -0.08874
 C582 C 0.15309 0.70840 0.15402
 C583 C 0.15933 0.68876 0.12406
 C584 C 0.13825 0.66069 0.11427
 C585 C 0.14419 0.64429 0.08190
 C586 C 0.12417 0.61830 0.07133
 C587 C 0.09775 0.60817 0.09309
 C588 C 0.09237 0.62401 0.12585
 C589 C 0.11226 0.65010 0.13632
 C590 C 0.07496 0.58170 0.08274
 C591 C 0.06993 0.57191 0.04806
 H592 H 0.17974 0.69454 0.10643
 H593 H 0.16426 0.65179 0.06456
 H594 H 0.12967 0.60621 0.04631
 H595 H 0.07230 0.61657 0.14322
 H596 H 0.10713 0.66202 0.16155
 H597 H 0.05890 0.57187 0.10323
 H598 H 0.16485 0.72409 0.15827
 H599 H 0.08439 0.58224 0.02661
 C600 C 0.28232 1.14697 0.86736
 C601 C 0.30867 1.16598 0.87757
 C602 C 0.33623 1.15006 0.89631
 C603 C 0.36890 1.15563 0.88540
 C604 C 0.39499 1.13853 0.90155
 C605 C 0.38863 1.11643 0.92950
 C606 C 0.35602 1.11228 0.94145
 C607 C 0.33001 1.12857 0.92472
 C608 C 0.41507 1.09678 0.94644
 C609 C 0.44168 1.08179 0.92762
 H610 H 0.31040 1.19187 0.86906
 H611 H 0.37414 1.17235 0.86369
 H612 H 0.42000 1.14262 0.89229
 H613 H 0.35060 1.09556 0.96313
 H614 H 0.30500 1.12435 0.93393
 H615 H 0.41050 1.08921 0.97340
 H616 H 0.28329 1.11999 0.87150
 H617 H 0.44516 1.08687 0.89988
 C618 C 0.29616 0.82531 1.11592
 C619 C 0.32351 0.84220 1.12726
 C620 C 0.34858 0.85610 1.10288
 C621 C 0.37992 0.86255 1.11529
 C622 C 0.40308 0.87889 1.09411
 C623 C 0.39512 0.88940 1.06011
 C624 C 0.36403 0.88229 1.04744
 C625 C 0.34098 0.86572 1.06851
 C626 C 0.41669 0.91151 1.03922
 C627 C 0.45013 0.91500 1.04506
 H628 H 0.32690 0.84519 1.15516
 H629 H 0.38619 0.85571 1.14180
 H630 H 0.42643 0.88474 1.10517
 H631 H 0.35715 0.89060 1.02156
 H632 H 0.31678 0.86202 1.05837
 H633 H 0.40508 0.92775 1.02011
 H634 H 0.29496 0.81811 1.08858
 H635 H 0.46335 0.89709 1.06112
 C636 C 0.70467 1.16147 1.13650
 C637 C 0.70710 1.12935 1.12169
 C638 C 0.68212 1.11575 1.09860
 C639 C 0.69190 1.09044 1.07449
 C640 C 0.66890 1.07577 1.05327
 C641 C 0.63549 1.08557 1.05619
 C642 C 0.62565 1.11144 1.07985
 C643 C 0.64880 1.12639 1.10092
 C644 C 0.61190 1.06682 1.03544
 C645 C 0.57881 1.06332 1.04536
 H646 H 0.72943 1.11432 1.12511
 H647 H 0.71743 1.08182 1.07222
 H648 H 0.67714 1.05591 1.03524
 H649 H 0.60020 1.12006 1.08239
 H650 H 0.64034 1.14552 1.11961
 H651 H 0.62217 1.05100 1.01437
 H652 H 0.68462 1.17844 1.12953
 H653 H 0.56751 1.07834 1.06639
 C654 C 0.69781 0.83419 0.80865
 C655 C 0.66883 0.82008 0.82157
 C656 C 0.63923 0.84113 0.83113
 C657 C 0.61798 0.83050 0.85828
 C658 C 0.59261 0.85194 0.87140
 C659 C 0.58814 0.88450 0.85756
 C660 C 0.60735 0.89380 0.82821
 C661 C 0.63263 0.87233 0.81503
 C662 C 0.56607 0.91026 0.87484
 C663 C 0.55991 0.91019 0.91099
 H664 H 0.66857 0.79352 0.82766
 H665 H 0.62198 0.80620 0.87048
 H666 H 0.57724 0.84325 0.89299
 H667 H 0.60389 0.91841 0.81652
 H668 H 0.64737 0.88067 0.79279
 H669 H 0.55939 0.93259 0.86012
 H670 H 0.69787 0.86087 0.80310
 H671 H 0.56807 0.88895 0.92648
   
