data_POSCAR
  _audit_creation_date              2014-09-24
  _audit_creation_method            'ToBaCCo'
  _symmetry_space_group_name_H-M    'P1'
  _symmetry_Int_Tables_number       1
  _symmetry_cell_setting            triclinic
  loop_
  _symmetry_equiv_pos_as_xyz
 x,y,z
_cell_length_a 48.9648
_cell_length_b 48.7092
_cell_length_c 48.2653
_cell_angle_alpha 90.447200
_cell_angle_beta 90.038300
_cell_angle_gamma 89.428100
loop_
  _atom_site_label
  _atom_site_type_symbol
  _atom_site_fract_x
  _atom_site_fract_y
  _atom_site_fract_z
C1 C 0.17951 0.14617 0.17822
 C2 C 0.16680 0.13528 0.20170
 C3 C 0.14230 0.14681 0.21232
 C4 C 0.13067 0.16948 0.19833
 C5 C 0.14331 0.18067 0.17501
 C6 C 0.16789 0.16909 0.16499
 C7 C 0.20390 0.13459 0.16805
 C8 C 0.21739 0.14580 0.14490
 C9 C 0.20546 0.16902 0.13206
 C10 C 0.18095 0.18061 0.14188
 C11 C 0.16936 0.20367 0.12898
 C12 C 0.14491 0.21543 0.13895
 C13 C 0.13198 0.20373 0.16194
 H14 H 0.17576 0.11717 0.21103
 H15 H 0.11250 0.17962 0.20627
 H16 H 0.21290 0.11760 0.17926
 H17 H 0.21452 0.17768 0.11369
 H18 H 0.17931 0.21246 0.11110
 H19 H 0.11339 0.21297 0.17006
 C20 C -0.19509 0.84058 0.19540
 C21 C -0.18174 0.85341 0.21778
 C22 C -0.15699 0.84263 0.22865
 C23 C -0.14608 0.81847 0.21633
 C24 C -0.15927 0.80540 0.19421
 C25 C -0.18390 0.81638 0.18379
 C26 C -0.21949 0.85160 0.18447
 C27 C -0.23331 0.83846 0.16230
 C28 C -0.22169 0.81406 0.15124
 C29 C -0.19731 0.80309 0.16171
 C30 C -0.18605 0.77903 0.15016
 C31 C -0.16152 0.76794 0.16045
 C32 C -0.14824 0.78126 0.18250
 H33 H -0.19031 0.87239 0.22591
 H34 H -0.12789 0.80878 0.22464
 H35 H -0.22813 0.86983 0.19414
 H36 H -0.23078 0.80399 0.13347
 H37 H -0.19621 0.76909 0.13289
 H38 H -0.12945 0.77264 0.19074
 C39 C -0.18505 0.14991 -0.17933
 C40 C -0.17503 0.13992 -0.20472
 C41 C -0.15250 0.15222 -0.21751
 C42 C -0.13990 0.17472 -0.20451
 C43 C -0.14971 0.18495 -0.17912
 C44 C -0.17226 0.17238 -0.16639
 C45 C -0.20775 0.13782 -0.16682
 C46 C -0.21817 0.14779 -0.14129
 C47 C -0.20482 0.17015 -0.12848
 C48 C -0.18221 0.18248 -0.14088
 C49 C -0.16984 0.20527 -0.12840
 C50 C -0.14767 0.21820 -0.14113
 C51 C -0.13758 0.20780 -0.16642
 H52 H -0.18468 0.12240 -0.21450
 H53 H -0.12278 0.18458 -0.21445
 H54 H -0.21664 0.12004 -0.17678
 H55 H -0.21272 0.17917 -0.10952
 H56 H -0.17795 0.21344 -0.10910
 H57 H -0.12030 0.21752 -0.17621
 C58 C 0.18817 0.84926 -0.18832
 C59 C 0.17455 0.86164 -0.21074
 C60 C 0.14971 0.85095 -0.22117
 C61 C 0.13898 0.82738 -0.20835
 C62 C 0.15242 0.81473 -0.18618
 C63 C 0.17709 0.82562 -0.17615
 C64 C 0.21274 0.86003 -0.17788
 C65 C 0.22645 0.84714 -0.15576
 C66 C 0.21520 0.82356 -0.14395
 C67 C 0.19075 0.81273 -0.15397
 C68 C 0.17983 0.78908 -0.14215
 C69 C 0.15539 0.77796 -0.15222
 C70 C 0.14171 0.79098 -0.17417
 H71 H 0.18303 0.88018 -0.21928
 H72 H 0.12075 0.81773 -0.21636
 H73 H 0.22144 0.87814 -0.18718
 H74 H 0.22539 0.81377 -0.12664
 H75 H 0.19029 0.77939 -0.12494
 H76 H 0.12297 0.78233 -0.18221
 C77 C 0.14545 1.17844 0.82335
 C78 C 0.13218 1.16600 0.80077
 C79 C 0.14147 1.14061 0.78970
 C80 C 0.16416 1.12772 0.80238
 C81 C 0.17778 1.14012 0.82460
 C82 C 0.16856 1.16565 0.83504
 C83 C 0.13621 1.20378 0.83400
 C84 C 0.15002 1.21706 0.85603
 C85 C 0.17346 1.20397 0.86718
 C86 C 0.18274 1.17855 0.85688
 C87 C 0.20621 1.16593 0.86790
 C88 C 0.21563 1.14058 0.85733
 C89 C 0.20114 1.12771 0.83587
 H90 H 0.11417 1.17598 0.79236
 H91 H 0.17261 1.10881 0.79397
 H92 H 0.11896 1.21361 0.82400
 H93 H 0.18414 1.21286 0.88466
 H94 H 0.21726 1.17585 0.88461
 H95 H 0.20859 1.10841 0.82730
 C96 C 0.84956 0.81492 0.81160
 C97 C 0.86100 0.82637 0.78773
 C98 C 0.84952 0.85004 0.77533
 C99 C 0.82615 0.86206 0.78788
 C100 C 0.81440 0.85064 0.81163
 C101 C 0.82608 0.82692 0.82347
 C102 C 0.86139 0.79155 0.82366
 C103 C 0.85002 0.77945 0.84752
 C104 C 0.82610 0.79159 0.85889
 C105 C 0.81422 0.81516 0.84714
 C106 C 0.79071 0.82728 0.85884
 C107 C 0.77891 0.85098 0.84718
 C108 C 0.79092 0.86248 0.82354
 H109 H 0.87962 0.81723 0.77963
 H110 H 0.81611 0.87963 0.77862
 H111 H 0.87886 0.78221 0.81344
 H112 H 0.81716 0.78358 0.87763
 H113 H 0.78176 0.81845 0.87723
 H114 H 0.78171 0.88048 0.81415
 C115 C 0.15698 0.81253 1.19152
 C116 C 0.14652 0.82572 1.21527
 C117 C 0.15931 0.84906 1.22639
 C118 C 0.18274 0.85927 1.21334
 C119 C 0.19343 0.84631 1.18960
 C120 C 0.18060 0.82275 1.17873
 C121 C 0.14431 0.78910 1.18066
 C122 C 0.15482 0.77528 1.15701
 C123 C 0.17862 0.78589 1.14451
 C124 C 0.19144 0.80940 1.15513
 C125 C 0.21490 0.81985 1.14238
 C126 C 0.22772 0.84345 1.15298
 C127 C 0.21681 0.85651 1.17665
 H128 H 0.12862 0.81754 1.22538
 H129 H 0.19251 0.87748 1.22153
 H130 H 0.12687 0.78112 1.19163
 H131 H 0.18681 0.77665 1.12578
 H132 H 0.22303 0.80980 1.12400
 H133 H 0.22680 0.87443 1.18524
 C134 C 0.85359 1.18428 1.17636
 C135 C 0.86608 1.17209 1.19950
 C136 C 0.85618 1.14728 1.21059
 C137 C 0.83344 1.13501 1.19766
 C138 C 0.82065 1.14713 1.17484
 C139 C 0.83062 1.17186 1.16412
 C140 C 0.86358 1.20883 1.16538
 C141 C 0.85075 1.22129 1.14252
 C142 C 0.82761 1.20888 1.13070
 C143 C 0.81743 1.18430 1.14136
 C144 C 0.79415 1.17202 1.12979
 C145 C 0.78404 1.14739 1.14063
 C146 C 0.79753 1.13506 1.16304
 H147 H 0.88405 1.18166 1.20818
 H148 H 0.82442 1.11670 1.20616
 H149 H 0.88111 1.21852 1.17491
 H150 H 0.81769 1.21821 1.11298
 H151 H 0.78391 1.18156 1.11237
 H152 H 0.78955 1.11635 1.17181
 N153 N 0.53094 1.04722 0.96835
 N154 N 0.55277 1.06250 0.96496
 N155 N 0.47300 1.02950 0.94931
 N156 N 0.45135 1.03222 0.93311
 N157 N 0.47368 1.04947 0.96767
 N158 N 0.45277 1.06632 0.96449
 N159 N 0.53061 1.02711 0.95012
 N160 N 0.55221 1.02809 0.93386
 C161 C 0.56582 1.05034 0.94329
 C162 C 0.43904 1.05546 0.94282
 N163 N 0.47044 0.95252 0.97198
 N164 N 0.44823 0.93743 0.96932
 N165 N 0.52895 0.96821 0.95292
 N166 N 0.55034 0.96355 0.93685
 N167 N 0.52816 0.95024 0.97304
 N168 N 0.54898 0.93290 0.97120
 N169 N 0.47160 0.97065 0.95203
 N170 N 0.45041 0.96846 0.93539
 Mn171 Mn 0.50105 0.99883 0.95075
 C172 C 0.43600 0.94764 0.94626
 C173 C 0.56262 0.94139 0.94845
 N174 N 0.47268 1.05275 1.02696
 N175 N 0.45152 1.06968 1.02837
 N176 N 0.52961 1.03293 1.04795
 N177 N 0.55078 1.03672 1.06457
 N178 N 0.52995 1.05070 1.02767
 N179 N 0.55108 1.06703 1.02989
 N180 N 0.47196 1.03493 1.04720
 N181 N 0.45031 1.03930 1.06296
 Mn182 Mn 0.50183 1.05031 0.99765
 C183 C 0.43780 1.06114 1.05102
 C184 C 0.56392 1.05819 1.05297
 N185 N 0.52757 0.95367 1.03283
 N186 N 0.54839 0.93677 1.03736
 N187 N 0.47023 0.97587 1.05015
 N188 N 0.44894 0.97425 1.06685
 N189 N 0.46995 0.95580 1.03181
 N190 N 0.44851 0.94006 1.03552
 N191 N 0.52763 0.97390 1.05099
 N192 N 0.54829 0.97131 1.06830
 Mn193 Mn 0.49902 0.95265 1.00244
 Mn194 Mn 0.49986 1.00441 1.04945
 Cl195 Cl 0.50044 1.00150 1.00009
 C196 C 0.56108 0.94806 1.05967
 C197 C 0.43558 0.95176 1.05748
 N198 N -0.02888 0.47338 -0.05047
 N199 N -0.03180 0.45231 -0.06746
 N200 N -0.04824 0.52997 -0.02751
 N201 N -0.06562 0.55085 -0.02854
 N202 N -0.03081 0.53103 -0.04812
 N203 N -0.03591 0.55258 -0.06377
 N204 N -0.04631 0.47209 -0.02989
 N205 N -0.06161 0.45000 -0.03236
 C206 C -0.05235 0.43794 -0.05601
 C207 C -0.05773 0.56476 -0.05134
 N208 N -0.02327 0.52812 0.04959
 N209 N -0.02549 0.54902 0.06703
 N210 N -0.04182 0.47038 0.02963
 N211 N -0.05730 0.44864 0.03309
 N212 N -0.02154 0.47034 0.04745
 N213 N -0.02270 0.44854 0.06350
 N214 N -0.04366 0.52815 0.03191
 N215 N -0.06029 0.54911 0.03683
 Mn216 Mn -0.04537 0.50012 0.00107
 C217 C -0.04874 0.56189 0.05887
 C218 C -0.04518 0.43521 0.05434
 N219 N 0.02777 0.53234 -0.05260
 N220 N 0.02863 0.55432 -0.06836
 N221 N 0.04983 0.47436 -0.03710
 N222 N 0.06562 0.45257 -0.04107
 N223 N 0.02958 0.47458 -0.05494
 N224 N 0.03111 0.45296 -0.07156
 N225 N 0.04815 0.53217 -0.03493
 N226 N 0.06344 0.55407 -0.03816
 Mn227 Mn -0.00061 0.50287 -0.05186
 C228 C 0.05105 0.56766 -0.05917
 C229 C 0.05381 0.43949 -0.06277
 N230 N 0.03707 0.47181 0.04290
 N231 N 0.04146 0.44972 0.05798
 N232 N 0.05277 0.53046 0.02437
 N233 N 0.06899 0.55179 0.02686
 N234 N 0.03545 0.52966 0.04509
 N235 N 0.03950 0.55046 0.06231
 N236 N 0.05445 0.47274 0.02225
 N237 N 0.07117 0.45133 0.02274
 Mn238 Mn 0.00695 0.49999 0.04663
 Mn239 Mn 0.05163 0.50243 -0.00639
 Cl240 Cl 0.00314 0.50136 -0.00262
 C241 C 0.06290 0.43720 0.04523
 C242 C 0.06056 0.56409 0.05064
 N243 N 0.95212 0.04121 0.52699
 N244 N 0.93644 0.04516 0.54892
 N245 N 0.97268 0.05675 0.46839
 N246 N 0.97126 0.07236 0.44629
 N247 N 0.95278 0.03891 0.46853
 N248 N 0.93721 0.04197 0.44633
 N249 N 0.97185 0.05924 0.52653
 N250 N 0.97009 0.07597 0.54812
 C251 C 0.94780 0.06703 0.56183
 C252 C 0.94903 0.06304 0.43272
 N253 N 1.04922 0.03353 0.46996
 N254 N 1.06554 0.03418 0.44825
 N255 N 1.03034 0.05615 0.52714
 N256 N 1.03215 0.07242 0.54895
 N257 N 1.04852 0.03622 0.52838
 N258 N 1.06324 0.03846 0.55125
 N259 N 1.03118 0.05358 0.46898
 N260 N 1.03477 0.06850 0.44658
 Mn261 Mn 1.00153 0.05673 0.49774
 C262 C 1.05637 0.05618 0.43389
 C263 C 1.05286 0.06131 0.56375
 N264 N 0.95011 -0.02008 0.47086
 N265 N 0.93337 -0.02304 0.44969
 N266 N 0.96769 -0.03774 0.53004
 N267 N 0.96377 -0.05314 0.55203
 N268 N 0.94947 -0.01779 0.52907
 N269 N 0.93262 -0.01917 0.55036
 N270 N 0.96802 -0.04031 0.47161
 N271 N 0.96384 -0.05765 0.45084
 Mn272 Mn 0.95076 0.01058 0.49885
 C273 C 0.94208 -0.04656 0.43734
 C274 C 0.94177 -0.04137 0.56449
 N275 N 1.04619 -0.02265 0.53022
 N276 N 1.06264 -0.02534 0.55164
 N277 N 1.02700 -0.04342 0.47247
 N278 N 1.02920 -0.06058 0.45126
 N279 N 1.04672 -0.02535 0.47202
 N280 N 1.06284 -0.02973 0.45049
 N281 N 1.02666 -0.04090 0.53095
 N282 N 1.02942 -0.05660 0.55307
 Mn283 Mn 1.04800 0.00542 0.50014
 Mn284 Mn 0.99732 -0.04100 0.50129
 Cl285 Cl 0.99939 0.00788 0.49950
 C286 C 1.05205 -0.04658 0.56576
 C287 C 1.05173 -0.05187 0.43778
 C288 C 1.10164 0.13909 0.24143
 C289 C 1.08979 0.12951 0.26578
 C290 C 1.10575 0.11684 0.28621
 C291 C 1.13402 0.11402 0.28177
 C292 C 1.14589 0.12337 0.25734
 C293 C 1.13001 0.13632 0.23668
 C294 C 1.09229 0.10804 0.31218
 C295 C 1.10344 0.09007 0.32995
 C296 C 1.09037 0.08176 0.35627
 C297 C 1.09986 0.05780 0.36926
 C298 C 1.08877 0.04947 0.39444
 C299 C 1.06798 0.06502 0.40724
 C300 C 1.05846 0.08903 0.39441
 C301 C 1.06964 0.09746 0.36927
 H302 H 1.08812 0.14783 0.22604
 H303 H 1.06795 0.13195 0.26861
 H304 H 1.14735 0.10542 0.29738
 H305 H 1.16787 0.12170 0.25562
 H306 H 1.07202 0.11617 0.31612
 H307 H 1.12262 0.08010 0.32479
 H308 H 1.11593 0.04544 0.35987
 H309 H 1.09649 0.03084 0.40386
 H310 H 1.04256 0.10149 0.40396
 H311 H 1.06229 0.11652 0.36055
 C312 C 0.88496 -0.14780 0.25543
 C313 C 0.89803 -0.13646 0.27849
 C314 C 0.88331 -0.12148 0.29847
 C315 C 0.85498 -0.11799 0.29475
 C316 C 0.84184 -0.12918 0.27155
 C317 C 0.85647 -0.14469 0.25153
 C318 C 0.89823 -0.11084 0.32312
 C319 C 0.88852 -0.09100 0.33999
 C320 C 0.90341 -0.08020 0.36457
 C321 C 0.89492 -0.05488 0.37583
 C322 C 0.90766 -0.04400 0.39929
 C323 C 0.92919 -0.05825 0.41221
 C324 C 0.93781 -0.08360 0.40109
 C325 C 0.92498 -0.09458 0.37757
 H326 H 0.89768 -0.15827 0.24030
 H327 H 0.91990 -0.13936 0.28066
 H328 H 0.84256 -0.10740 0.31002
 H329 H 0.81988 -0.12683 0.27041
 H330 H 0.91850 -0.11911 0.32667
 H331 H 0.86922 -0.08117 0.33514
 H332 H 0.87832 -0.04341 0.36643
 H333 H 0.90054 -0.02440 0.40736
 H334 H 0.95424 -0.09510 0.41075
 H335 H 0.93173 -0.11450 0.37015
 C336 C 0.83924 0.13437 0.73439
 C337 C 0.84874 0.12410 0.70904
 C338 C 0.87684 0.12103 0.70406
 C339 C 0.89534 0.12819 0.72523
 C340 C 0.88581 0.13854 0.75058
 C341 C 0.85766 0.14168 0.75544
 C342 C 0.88580 0.10935 0.67704
 C343 C 0.91102 0.11223 0.66666
 C344 C 0.91970 0.10041 0.63960
 C345 C 0.94224 0.11180 0.62607
 C346 C 0.95129 0.10110 0.60069
 C347 C 0.93803 0.07865 0.58841
 C348 C 0.91571 0.06699 0.60205
 C349 C 0.90669 0.07764 0.62744
 H350 H 0.81743 0.13682 0.73744
 H351 H 0.83404 0.11862 0.69320
 H352 H 0.91711 0.12529 0.72267
 H353 H 0.90045 0.14353 0.76663
 H354 H 0.87045 0.09898 0.66481
 H355 H 0.92569 0.12474 0.67761
 H356 H 0.95283 0.12912 0.63511
 H357 H 0.96871 0.11035 0.59074
 H358 H 0.90536 0.04941 0.59325
 H359 H 0.88992 0.06757 0.63762
 C360 C 1.10754 -0.13973 0.75213
 C361 C 1.09431 -0.12917 0.72883
 C362 C 1.10888 -0.11532 0.70836
 C363 C 1.13723 -0.11213 0.71187
 C364 C 1.15053 -0.12253 0.73530
 C365 C 1.13605 -0.13697 0.75579
 C366 C 1.09385 -0.10558 0.68342
 C367 C 1.10346 -0.08663 0.66601
 C368 C 1.08880 -0.07680 0.64089
 C369 C 1.09823 -0.05288 0.62820
 C370 C 1.08603 -0.04308 0.60405
 C371 C 1.06406 -0.05700 0.59183
 C372 C 1.05434 -0.08085 0.60447
 C373 C 1.06666 -0.09078 0.62870
 H374 H 1.09495 -0.14936 0.76760
 H375 H 1.07245 -0.13180 0.72684
 H376 H 1.14955 -0.10244 0.69624
 H377 H 1.17248 -0.12050 0.73627
 H378 H 1.07370 -0.11384 0.68008
 H379 H 1.12269 -0.07689 0.67065
 H380 H 1.11524 -0.04170 0.63696
 H381 H 1.09397 -0.02458 0.59486
 H382 H 1.03752 -0.09205 0.59539
 H383 H 1.05907 -0.10965 0.63728
 C384 C 0.24877 1.10617 1.13890
 C385 C 0.27342 1.09493 1.12941
 C386 C 0.29255 1.11119 1.11573
 C387 C 0.28655 1.13920 1.11198
 C388 C 0.26181 1.15047 1.12126
 C389 C 0.24237 1.13423 1.13502
 C390 C 0.31869 1.09826 1.10669
 C391 C 0.33561 1.10934 1.08807
 C392 C 0.36176 1.09637 1.07916
 C393 C 0.37381 1.10518 1.05442
 C394 C 0.39856 1.09381 1.04530
 C395 C 0.41183 1.07340 1.06081
 C396 C 0.40003 1.06471 1.08569
 C397 C 0.37536 1.07618 1.09491
 H398 H 0.23443 1.09234 1.14834
 H399 H 0.27746 1.07328 1.13260
 H400 H 0.30109 1.15284 1.10259
 H401 H 0.25879 1.17233 1.11874
 H402 H 0.32343 1.07826 1.11509
 H403 H 0.32978 1.12819 1.07786
 H404 H 0.36395 1.12084 1.04199
 H405 H 0.40721 1.10091 1.02602
 H406 H 0.40998 1.04917 1.09818
 H407 H 0.36742 1.06942 1.11457
 C408 C 0.27397 0.83992 0.86217
 C409 C 0.29759 0.84956 0.87502
 C410 C 0.30045 0.87754 0.88136
 C411 C 0.27907 0.89581 0.87429
 C412 C 0.25540 0.88612 0.86133
 C413 C 0.25247 0.85801 0.85548
 C414 C 0.32555 0.88640 0.89614
 C415 C 0.33445 0.91234 0.89666
 C416 C 0.36028 0.92072 0.91028
 C417 C 0.37336 0.94425 0.90064
 C418 C 0.39788 0.95283 0.91243
 C419 C 0.40979 0.93826 0.93444
 C420 C 0.39647 0.91505 0.94466
 C421 C 0.37191 0.90632 0.93270
 H422 H 0.27240 0.81817 0.85766
 H423 H 0.31366 0.83503 0.88018
 H424 H 0.28004 0.91741 0.87943
 H425 H 0.23897 0.90044 0.85680
 H426 H 0.33786 0.87050 0.90569
 H427 H 0.32357 0.92791 0.88507
 H428 H 0.36475 0.95588 0.88364
 H429 H 0.40751 0.97097 0.90425
 H430 H 0.40507 0.90363 0.96179
 H431 H 0.36198 0.88857 0.94129
 C432 C 0.72282 0.83216 1.13791
 C433 C 0.69933 0.84290 1.12552
 C434 C 0.69397 0.87120 1.12573
 C435 C 0.71273 0.88862 1.13907
 C436 C 0.73622 0.87787 1.15174
 C437 C 0.74205 0.84941 1.15101
 C438 C 0.66909 0.88130 1.11111
 C439 C 0.65895 0.90692 1.11337
 C440 C 0.63381 0.91655 1.09896
 C441 C 0.62047 0.94014 1.10919
 C442 C 0.59688 0.95021 1.09641
 C443 C 0.58606 0.93700 1.07294
 C444 C 0.59948 0.91358 1.06235
 C445 C 0.62320 0.90348 1.07513
 H446 H 0.72525 0.81007 1.13780
 H447 H 0.68519 0.82889 1.11569
 H448 H 0.70998 0.91065 1.13925
 H449 H 0.75046 0.89229 1.16066
 H450 H 0.65823 0.86642 1.09866
 H451 H 0.66847 0.92139 1.12734
 H452 H 0.62825 0.95078 1.12730
 H453 H 0.58709 0.96841 1.10498
 H454 H 0.59177 0.90319 1.04408
 H455 H 0.63328 0.88581 1.06594
 C456 C 0.75386 1.13729 0.89979
 C457 C 0.73020 1.12665 0.91154
 C458 C 0.71016 1.11445 0.89495
 C459 C 0.71427 1.11313 0.86615
 C460 C 0.73799 1.12357 0.85434
 C461 C 0.75824 1.13612 0.87087
 C462 C 0.68485 1.10464 0.90835
 C463 C 0.66763 1.08685 0.89641
 C464 C 0.64187 1.07776 0.90944
 C465 C 0.62969 1.05364 0.89955
 C466 C 0.60502 1.04467 0.91062
 C467 C 0.59195 1.05976 0.93175
 C468 C 0.60398 1.08395 0.94164
 C469 C 0.62861 1.09300 0.93051
 H470 H 0.76900 1.14562 0.91376
 H471 H 0.72760 1.12792 0.93381
 H472 H 0.69891 1.10492 0.85238
 H473 H 0.73946 1.12307 0.83198
 H474 H 0.68089 1.11187 0.92922
 H475 H 0.67282 1.07766 0.87661
 H476 H 0.63931 1.04164 0.88320
 H477 H 0.59618 1.02592 0.90260
 H478 H 0.59421 1.09608 0.95779
 H479 H 0.63673 1.11218 0.93811
 C480 C 0.10487 0.24305 0.12193
 C481 C 0.09370 0.26718 0.11112
 C482 C 0.11054 0.28914 0.10392
 C483 C 0.13895 0.28645 0.10776
 C484 C 0.15012 0.26228 0.11856
 C485 C 0.13319 0.24042 0.12597
 C486 C 0.09758 0.31493 0.09413
 C487 C 0.11078 0.33404 0.07961
 C488 C 0.09780 0.36021 0.07095
 C489 C 0.10830 0.37395 0.04789
 C490 C 0.09693 0.39896 0.03945
 C491 C 0.07501 0.41085 0.05413
 C492 C 0.06467 0.39730 0.07738
 C493 C 0.07599 0.37230 0.08579
 H494 H 0.09133 0.22644 0.12720
 H495 H 0.07176 0.26877 0.10851
 H496 H 0.15259 0.30317 0.10337
 H497 H 0.17196 0.26104 0.12197
 H498 H 0.07605 0.31775 0.09849
 H499 H 0.13152 0.33016 0.07282
 H500 H 0.12526 0.36523 0.03628
 H501 H 0.10533 0.40899 0.02146
 H502 H 0.04789 0.40610 0.08919
 H503 H 0.06794 0.36285 0.10423
 C504 C -0.13132 0.24482 -0.09971
 C505 C -0.12127 0.26887 -0.08766
 C506 C -0.11533 0.29172 -0.10405
 C507 C -0.11992 0.29010 -0.13282
 C508 C -0.12988 0.26604 -0.14486
 C509 C -0.13578 0.24319 -0.12843
 C510 C -0.10549 0.31710 -0.09031
 C511 C -0.09137 0.33642 -0.10360
 C512 C -0.08159 0.36202 -0.09029
 C513 C -0.06022 0.37616 -0.10299
 C514 C -0.05072 0.40074 -0.09174
 C515 C -0.06255 0.41186 -0.06760
 C516 C -0.08402 0.39788 -0.05485
 C517 C -0.09357 0.37323 -0.06612
 H518 H -0.13557 0.22746 -0.08656
 H519 H -0.11810 0.26962 -0.06545
 H520 H -0.11662 0.30753 -0.14610
 H521 H -0.13374 0.26557 -0.16695
 H522 H -0.10911 0.31919 -0.06828
 H523 H -0.08556 0.33301 -0.12499
 H524 H -0.05078 0.36812 -0.12169
 H525 H -0.03412 0.41106 -0.10203
 H526 H -0.09359 0.40611 -0.03630
 H527 H -0.11063 0.36344 -0.05615
 C528 C 0.16194 0.73056 -0.13348
 C529 C 0.15172 0.70675 -0.12158
 C530 C 0.12373 0.70431 -0.11604
 C531 C 0.10613 0.72645 -0.12228
 C532 C 0.11637 0.75028 -0.13424
 C533 C 0.14438 0.75258 -0.13993
 C534 C 0.11403 0.67873 -0.10306
 C535 C 0.08811 0.67017 -0.10444
 C536 C 0.07893 0.64407 -0.09214
 C537 C 0.05569 0.63135 -0.10313
 C538 C 0.04659 0.60651 -0.09240
 C539 C 0.06048 0.59403 -0.07030
 C540 C 0.08336 0.60701 -0.05884
 C541 C 0.09245 0.63186 -0.06955
 H542 H 0.18358 0.73165 -0.13788
 H543 H 0.16574 0.69008 -0.11686
 H544 H 0.08458 0.72580 -0.11748
 H545 H 0.10247 0.76715 -0.13851
 H546 H 0.12931 0.66580 -0.09334
 H547 H 0.07330 0.68168 -0.11640
 H548 H 0.04473 0.64048 -0.12031
 H549 H 0.02874 0.59705 -0.10148
 H550 H 0.09420 0.59802 -0.04152
 H551 H 0.10981 0.64152 -0.05980
 C552 C -0.16671 0.72041 0.14100
 C553 C -0.15577 0.69670 0.12870
 C554 C -0.12768 0.69446 0.12329
 C555 C -0.11071 0.71667 0.13018
 C556 C -0.12166 0.74038 0.14253
 C557 C -0.14978 0.74251 0.14801
 C558 C -0.11720 0.66916 0.10955
 C559 C -0.09102 0.66087 0.11068
 C560 C -0.08080 0.63542 0.09702
 C561 C -0.05685 0.62299 0.10712
 C562 C -0.04646 0.59904 0.09479
 C563 C -0.05973 0.58716 0.07193
 C564 C -0.08343 0.59979 0.06148
 C565 C -0.09383 0.62375 0.07379
 H566 H -0.18842 0.72137 0.14520
 H567 H -0.16932 0.67999 0.12348
 H568 H -0.08912 0.71621 0.12550
 H569 H -0.10823 0.75732 0.14720
 H570 H -0.13205 0.65633 0.09923
 H571 H -0.07663 0.67224 0.12319
 H572 H -0.04625 0.63172 0.12477
 H573 H -0.02803 0.58984 0.10316
 H574 H -0.09386 0.59127 0.04363
 H575 H -0.11174 0.63323 0.06472
 C576 C 1.13024 0.10020 0.76087
 C577 C 1.12024 0.08889 0.73627
 C578 C 1.10891 0.10566 0.71573
 C579 C 1.10732 0.13416 0.72060
 C580 C 1.11705 0.14550 0.74533
 C581 C 1.12928 0.12883 0.76576
 C582 C 1.10041 0.09272 0.68919
 C583 C 1.08450 0.10522 0.67041
 C584 C 1.07682 0.09280 0.64341
 C585 C 1.05463 0.10429 0.62907
 C586 C 1.04697 0.09401 0.60321
 C587 C 1.06141 0.07199 0.59103
 C588 C 1.08367 0.06041 0.60520
 C589 C 1.09146 0.07080 0.63110
 H590 H 1.13819 0.08617 0.77623
 H591 H 1.12156 0.06686 0.73321
 H592 H 1.09961 0.14811 0.70509
 H593 H 1.11655 0.16764 0.74733
 H594 H 1.10720 0.07182 0.68548
 H595 H 1.07579 0.12520 0.67509
 H596 H 1.04312 0.12133 0.63791
 H597 H 1.02966 0.10333 0.59279
 H598 H 1.09521 0.04351 0.59616
 H599 H 1.10921 0.06185 0.64097
 C600 C 0.87593 -0.15535 0.73199
 C601 C 0.88737 -0.14433 0.70809
 C602 C 0.88455 -0.11633 0.70212
 C603 C 0.87005 -0.09944 0.72089
 C604 C 0.85837 -0.11047 0.74475
 C605 C 0.86113 -0.13869 0.75093
 C606 C 0.89768 -0.10586 0.67656
 C607 C 0.89282 -0.08099 0.66563
 C608 C 0.90601 -0.07119 0.63984
 C609 C 0.89381 -0.04933 0.62542
 C610 C 0.90543 -0.03952 0.60099
 C611 C 0.92958 -0.05138 0.59049
 C612 C 0.94212 -0.07288 0.60510
 C613 C 0.93061 -0.08258 0.62960
 H614 H 0.87793 -0.17729 0.73478
 H615 H 0.89835 -0.15791 0.69403
 H616 H 0.86806 -0.07758 0.71777
 H617 H 0.84832 -0.09633 0.75891
 H618 H 0.91124 -0.11999 0.66581
 H619 H 0.87771 -0.06753 0.67497
 H620 H 0.87507 -0.03993 0.63295
 H621 H 0.89542 -0.02278 0.59024
 H622 H 0.96098 -0.08213 0.59771
 H623 H 0.94138 -0.09868 0.64051
 C624 C 1.16608 -0.12823 0.27273
 C625 C 1.15577 -0.11564 0.29670
 C626 C 1.12752 -0.11205 0.30041
 C627 C 1.10975 -0.12083 0.27924
 C628 C 1.12008 -0.13346 0.25527
 C629 C 1.14834 -0.13737 0.25178
 C630 C 1.11762 -0.09845 0.32619
 C631 C 1.09222 -0.10128 0.33617
 C632 C 1.08252 -0.08818 0.36229
 C633 C 1.05977 -0.09928 0.37572
 C634 C 1.04982 -0.08756 0.40029
 C635 C 1.06233 -0.06434 0.41188
 C636 C 1.08485 -0.05293 0.39831
 C637 C 1.09479 -0.06462 0.37372
 H638 H 1.18794 -0.13116 0.27076
 H639 H 1.16993 -0.10893 0.31256
 H640 H 1.08793 -0.11757 0.28075
 H641 H 1.10595 -0.13976 0.23922
 H642 H 1.13242 -0.08690 0.33802
 H643 H 1.07818 -0.11488 0.32569
 H644 H 1.04975 -0.11721 0.36726
 H645 H 1.03231 -0.09669 0.41020
 H646 H 1.09467 -0.03481 0.40659
 H647 H 1.11173 -0.05480 0.36357
 C648 C 0.86643 0.10673 0.23926
 C649 C 0.87627 0.09517 0.26371
 C650 C 0.88818 0.11155 0.28428
 C651 C 0.89039 0.13994 0.27966
 C652 C 0.88074 0.15156 0.25508
 C653 C 0.86803 0.13528 0.23457
 C654 C 0.89683 0.09832 0.31051
 C655 C 0.91396 0.10984 0.32878
 C656 C 0.92241 0.09673 0.35509
 C657 C 0.94617 0.10616 0.36813
 C658 C 0.95476 0.09505 0.39324
 C659 C 0.93967 0.07431 0.40602
 C660 C 0.91581 0.06483 0.39317
 C661 C 0.90714 0.07602 0.36798
 H662 H 0.85816 0.09289 0.22383
 H663 H 0.87449 0.07321 0.26656
 H664 H 0.89861 0.15358 0.29526
 H665 H 0.88181 0.17363 0.25321
 H666 H 0.88937 0.07786 0.31425
 H667 H 0.92331 0.12924 0.32397
 H668 H 0.95822 0.12218 0.35881
 H669 H 0.97326 0.10278 0.40265
 H670 H 0.90372 0.04899 0.40270
 H671 H 0.88825 0.06874 0.35911
 C672 C 0.15901 0.26160 -0.12101
 C673 C 0.14989 0.28702 -0.11088
 C674 C 0.12232 0.29478 -0.11280
 C675 C 0.10387 0.27624 -0.12485
 C676 C 0.11296 0.25086 -0.13521
 C677 C 0.14076 0.24293 -0.13352
 C678 C 0.11379 0.32190 -0.10122
 C679 C 0.08992 0.33443 -0.10701
 C680 C 0.08152 0.36156 -0.09534
 C681 C 0.05997 0.37594 -0.10809
 C682 C 0.05104 0.40133 -0.09764
 C683 C 0.06349 0.41290 -0.07417
 C684 C 0.08489 0.39852 -0.06121
 C685 C 0.09372 0.37306 -0.07153
 H686 H 0.18069 0.25735 -0.11993
 H687 H 0.16461 0.30085 -0.10170
 H688 H 0.08224 0.28076 -0.12582
 H689 H 0.09770 0.23707 -0.14335
 H690 H 0.12850 0.33225 -0.08823
 H691 H 0.07613 0.32515 -0.12178
 H692 H 0.05000 0.36751 -0.12626
 H693 H 0.03436 0.41188 -0.10794
 H694 H 0.09460 0.40678 -0.04282
 H695 H 0.10968 0.36239 -0.06035
 C696 C -0.15657 0.26849 0.12307
 C697 C -0.14656 0.29293 0.11219
 C698 C -0.11836 0.29693 0.10917
 C699 C -0.10032 0.27565 0.11697
 C700 C -0.11034 0.25121 0.12792
 C701 C -0.13858 0.24735 0.13109
 C702 C -0.10887 0.32310 0.09698
 C703 C -0.08337 0.33271 0.09973
 C704 C -0.07419 0.35905 0.08767
 C705 C -0.05103 0.37180 0.09891
 C706 C -0.04159 0.39655 0.08814
 C707 C -0.05504 0.40900 0.06574
 C708 C -0.07793 0.39609 0.05415
 C709 C -0.08735 0.37133 0.06488
 H710 H -0.17842 0.26627 0.12550
 H711 H -0.16095 0.30886 0.10623
 H712 H -0.07851 0.27740 0.11416
 H713 H -0.09600 0.23508 0.13341
 H714 H -0.12406 0.33542 0.08638
 H715 H -0.06880 0.32167 0.11240
 H716 H -0.04030 0.36268 0.11624
 H717 H -0.02378 0.40593 0.09738
 H718 H -0.08849 0.40503 0.03663
 H719 H -0.10463 0.36177 0.05490
 C720 C -0.10950 0.75013 -0.14359
 C721 C -0.09756 0.72649 -0.13252
 C722 C -0.11319 0.70750 -0.11793
 C723 C -0.14129 0.71282 -0.11453
 C724 C -0.15330 0.73661 -0.12543
 C725 C -0.13773 0.75569 -0.14049
 C726 C -0.09938 0.68216 -0.10775
 C727 C -0.11028 0.66461 -0.08960
 C728 C -0.09614 0.63918 -0.08019
 C729 C -0.10463 0.62696 -0.05541
 C730 C -0.09216 0.60281 -0.04598
 C731 C -0.07098 0.59028 -0.06123
 C732 C -0.06260 0.60227 -0.08612
 C733 C -0.07513 0.62633 -0.09563
 H734 H -0.09610 0.76440 -0.15375
 H735 H -0.07583 0.72308 -0.13537
 H736 H -0.15441 0.69844 -0.10419
 H737 H -0.17516 0.73904 -0.12316
 H738 H -0.07882 0.67842 -0.11517
 H739 H -0.12988 0.66927 -0.08031
 H740 H -0.12090 0.63622 -0.04322
 H741 H -0.09907 0.59400 -0.02671
 H742 H -0.04650 0.59290 -0.09845
 H743 H -0.06857 0.63436 -0.11532
 C744 C 0.11371 0.74680 0.15034
 C745 C 0.10114 0.72321 0.13998
 C746 C 0.11610 0.70336 0.12511
 C747 C 0.14421 0.70748 0.12113
 C748 C 0.15683 0.73113 0.13133
 C749 C 0.14190 0.75136 0.14625
 C750 C 0.10179 0.67845 0.11490
 C751 C 0.11130 0.66230 0.09433
 C752 C 0.09718 0.63744 0.08372
 C753 C 0.10544 0.62649 0.05804
 C754 C 0.09342 0.60280 0.04731
 C755 C 0.07284 0.58938 0.06208
 C756 C 0.06447 0.60020 0.08778
 C757 C 0.07659 0.62391 0.09861
 H758 H 0.10079 0.76184 0.16062
 H759 H 0.07945 0.72062 0.14338
 H760 H 0.15684 0.69222 0.11082
 H761 H 0.17867 0.73263 0.12854
 H762 H 0.08213 0.67421 0.12402
 H763 H 0.12984 0.66797 0.08374
 H764 H 0.12132 0.63631 0.04616
 H765 H 0.10030 0.59497 0.02742
 H766 H 0.04877 0.59016 0.09969
 H767 H 0.07006 0.63109 0.11880
 C768 C 0.24314 1.09966 0.87243
 C769 C 0.26788 1.08762 0.88050
 C770 C 0.29127 1.10367 0.88404
 C771 C 0.28947 1.13210 0.87906
 C772 C 0.26471 1.14413 0.87112
 C773 C 0.24134 1.12803 0.86761
 C774 C 0.31723 1.09002 0.89214
 C775 C 0.33754 1.10336 0.90488
 C776 C 0.36332 1.09009 0.91393
 C777 C 0.37838 1.10302 0.93490
 C778 C 0.40294 1.09167 0.94411
 C779 C 0.41318 1.06720 0.93236
 C780 C 0.39839 1.05428 0.91112
 C781 C 0.37365 1.06565 0.90189
 H782 H 0.22539 1.08678 0.86993
 H783 H 0.26874 1.06569 0.88404
 H784 H 0.30720 1.14508 0.88050
 H785 H 0.26403 1.16593 0.86687
 H786 H 0.31887 1.06807 0.88880
 H787 H 0.33472 1.12474 0.91053
 H788 H 0.37102 1.12192 0.94438
 H789 H 0.41390 1.10212 0.96052
 H790 H 0.40592 1.03545 0.90166
 H791 H 0.36302 1.05549 0.88513
 C792 C 0.27343 0.83664 1.13014
 C793 C 0.29704 0.84707 1.11798
 C794 C 0.30049 0.87549 1.11504
 C795 C 0.27939 0.89330 1.12396
 C796 C 0.25580 0.88287 1.13616
 C797 C 0.25260 0.85444 1.13952
 C798 C 0.32593 0.88552 1.10194
 C799 C 0.33541 0.91114 1.10527
 C800 C 0.36112 0.92098 1.09254
 C801 C 0.37388 0.94412 1.10407
 C802 C 0.39805 0.95417 1.09272
 C803 C 0.40992 0.94135 1.06947
 C804 C 0.39700 0.91848 1.05761
 C805 C 0.37281 0.90845 1.06891
 H806 H 0.27169 0.81466 1.13262
 H807 H 0.31284 0.83285 1.11111
 H808 H 0.28068 0.91525 1.12118
 H809 H 0.23983 0.89707 1.14263
 H810 H 0.33788 0.87064 1.09029
 H811 H 0.32478 0.92528 1.11898
 H812 H 0.36520 0.95437 1.12207
 H813 H 0.40747 0.97195 1.10220
 H814 H 0.40550 0.90838 1.03945
 H815 H 0.36321 0.89121 1.05873
 C816 C 0.75732 1.10621 1.12574
 C817 C 0.73292 1.09405 1.11741
 C818 C 0.70955 1.11016 1.11243
 C819 C 0.71112 1.13885 1.11598
 C820 C 0.73558 1.15101 1.12425
 C821 C 0.75885 1.13480 1.12946
 C822 C 0.68386 1.09624 1.10451
 C823 C 0.66355 1.10884 1.09084
 C824 C 0.63822 1.09495 1.08190
 C825 C 0.62376 1.10600 1.05948
 C826 C 0.59972 1.09391 1.05023
 C827 C 0.58934 1.07062 1.06342
 C828 C 0.60351 1.05965 1.08614
 C829 C 0.62777 1.07172 1.09536
 H830 H 0.77500 1.09322 1.12945
 H831 H 0.73227 1.07194 1.11491
 H832 H 0.69340 1.15197 1.11328
 H833 H 0.73603 1.17303 1.12753
 H834 H 0.68242 1.07453 1.10883
 H835 H 0.66610 1.12983 1.08423
 H836 H 0.63122 1.12396 1.04888
 H837 H 0.58923 1.10291 1.03270
 H838 H 0.59585 1.04179 1.09674
 H839 H 0.63795 1.06308 1.11322
 C840 C 0.75139 0.89239 0.86177
 C841 C 0.72762 0.90443 0.87258
 C842 C 0.70590 0.88814 0.88154
 C843 C 0.70843 0.85938 0.87924
 C844 C 0.73225 0.84733 0.86845
 C845 C 0.75395 0.86371 0.85949
 C846 C 0.68071 0.90201 0.89192
 C847 C 0.66205 0.88980 0.90789
 C848 C 0.63682 0.90379 0.91799
 C849 C 0.62369 0.89348 0.94152
 C850 C 0.59965 0.90573 0.95149
 C851 C 0.58808 0.92846 0.93796
 C852 C 0.60100 0.93869 0.91427
 C853 C 0.62505 0.92645 0.90430
 H854 H 0.76786 0.90557 0.85531
 H855 H 0.72621 0.92661 0.87397
 H856 H 0.69189 0.84605 0.88502
 H857 H 0.73341 0.82519 0.86645
 H858 H 0.67819 0.92352 0.88698
 H859 H 0.66574 0.86908 0.91500
 H860 H 0.63215 0.87593 0.95233
 H861 H 0.59011 0.89736 0.96977
 H862 H 0.59243 0.95608 0.90331
 H863 H 0.63395 0.93451 0.88559
   
