data_POSCAR
  _audit_creation_date              2014-09-24
  _audit_creation_method            'ToBaCCo'
  _symmetry_space_group_name_H-M    'P1'
  _symmetry_Int_Tables_number       1
  _symmetry_cell_setting            triclinic
  loop_
  _symmetry_equiv_pos_as_xyz
 x,y,z
_cell_length_a 32.7816
_cell_length_b 33.0976
_cell_length_c 33.2712
_cell_angle_alpha 89.902000
_cell_angle_beta 90.258800
_cell_angle_gamma 89.967400
loop_
  _atom_site_label
  _atom_site_type_symbol
  _atom_site_fract_x
  _atom_site_fract_y
  _atom_site_fract_z
C1 C 0.24525 0.97394 -0.02244
 C2 C 0.25098 0.97522 0.01975
 C3 C 0.25346 1.01299 0.03885
 C4 C 0.24595 1.04991 0.01868
 C5 C 0.23876 1.04876 -0.02353
 C6 C 0.23860 1.01081 -0.04292
 H7 H 0.23332 1.01023 -0.07481
 H8 H 0.26338 1.01324 0.06981
 C9 C 0.74804 0.45144 0.52386
 C10 C 0.75083 0.44730 0.48144
 C11 C 0.75517 0.48283 0.45800
 C12 C 0.75610 0.52171 0.47533
 C13 C 0.75562 0.52516 0.51743
 C14 C 0.75112 0.49019 0.54086
 H15 H 0.75003 0.49327 0.57318
 H16 H 0.75949 0.48047 0.42590
 C17 C 0.76771 1.01037 0.96180
 C18 C 0.76699 0.96759 0.95980
 C19 C 0.77021 0.94528 0.99591
 C20 C 0.77067 0.96398 1.03399
 C21 C 0.77058 1.00650 1.03548
 C22 C 0.76878 1.02888 0.99987
 H23 H 0.76680 1.06145 1.00238
 H24 H 0.77362 0.91290 0.99377
 C25 C 0.27021 0.53176 0.46203
 C26 C 0.26936 0.48913 0.46362
 C27 C 0.27228 0.46996 0.50152
 C28 C 0.27171 0.49199 0.53776
 C29 C 0.26957 0.53442 0.53581
 C30 C 0.26974 0.55359 0.49823
 H31 H 0.26860 0.58630 0.49724
 H32 H 0.27559 0.43745 0.50270
 C33 C 0.94715 0.25159 -0.01616
 C34 C 0.94519 0.23979 0.02497
 C35 C 0.98185 0.23816 0.04739
 C36 C 1.02022 0.24728 0.03088
 C37 C 1.02239 0.25628 -0.01082
 C38 C 0.98577 0.25955 -0.03287
 H39 H 0.98738 0.26520 -0.06489
 H40 H 0.98020 0.23219 0.07940
 C41 C 0.46591 0.72062 0.53136
 C42 C 0.46637 0.72283 0.48875
 C43 C 0.50450 0.72243 0.46913
 C44 C 0.54180 0.72152 0.49039
 C45 C 0.54096 0.71905 0.53282
 C46 C 0.50312 0.71788 0.55238
 H47 H 0.50266 0.71566 0.58493
 H48 H 0.50536 0.72051 0.43672
 C49 C -0.02187 0.78141 -0.02862
 C50 C 0.02151 0.77997 -0.03270
 C51 C 0.04577 0.78489 0.00226
 C52 C 0.02880 0.78850 0.04069
 C53 C -0.01361 0.78661 0.04498
 C54 C -0.03836 0.78428 0.01058
 H55 H -0.07088 0.78243 0.01537
 H56 H 0.07858 0.78639 -0.00002
 C57 C 0.50147 0.25724 0.46780
 C58 C 0.45865 0.25971 0.47067
 C59 C 0.44057 0.25848 0.50871
 C60 C 0.46376 0.25772 0.54424
 C61 C 0.50667 0.25556 0.54178
 C62 C 0.52485 0.25659 0.50345
 H63 H 0.55763 0.25871 0.50118
 H64 H 0.40761 0.25733 0.51078
 C65 C 0.96099 0.01998 0.25432
 C66 C 0.96370 -0.02220 0.26268
 C67 C 1.00320 -0.03883 0.26845
 C68 C 1.03878 -0.01541 0.26845
 C69 C 1.03615 0.02663 0.26111
 C70 C 0.99738 0.04261 0.25143
 H71 H 0.99478 0.07332 0.24079
 H72 H 1.00747 -0.07107 0.27164
 C73 C 0.54317 0.52321 0.74078
 C74 C 0.54344 0.48042 0.73820
 C75 C 0.50566 0.46004 0.73537
 C76 C 0.46820 0.48015 0.73849
 C77 C 0.46786 0.52263 0.74211
 C78 C 0.50534 0.54330 0.74317
 H79 H 0.50521 0.57585 0.74529
 H80 H 0.50481 0.42777 0.73033
 C81 C 0.98805 1.04686 0.73067
 C82 C 1.02923 1.04462 0.74395
 C83 C 1.04675 1.00604 0.74804
 C84 C 1.02521 0.97040 0.73881
 C85 C 0.98329 0.97291 0.72941
 C86 C 0.96637 1.01132 0.72276
 H87 H 0.93495 1.01387 0.71273
 H88 H 1.07845 1.00351 0.75731
 C89 C 0.51909 0.46469 0.23570
 C90 C 0.47652 0.46645 0.22902
 C91 C 0.45681 0.50416 0.22836
 C92 C 0.47843 0.54038 0.23449
 C93 C 0.52102 0.53859 0.23982
 C94 C 0.54075 0.50107 0.23874
 H95 H 0.57374 0.50015 0.23930
 H96 H 0.42394 0.50484 0.22499
 O97 O 0.23148 0.15670 0.20514
 O98 O 0.27472 0.14715 0.26154
 O99 O 0.13158 0.22254 0.25620
 O100 O 0.12187 0.28110 0.28768
 O101 O 0.18389 0.26061 0.14285
 O102 O 0.24354 0.29638 0.12553
 O103 O 0.25036 0.33348 0.34335
 O104 O 0.20115 0.28706 0.36227
 O105 O 0.34907 0.26280 0.29964
 O106 O 0.35532 0.21112 0.24770
 O107 O 0.30843 0.36441 0.23572
 O108 O 0.25135 0.37841 0.18998
 O109 O 0.25492 0.37647 0.29025
 O110 O 0.20771 0.38574 0.23142
 O111 O 0.35258 0.31175 0.24203
 O112 O 0.35698 0.24875 0.20012
 O113 O 0.30213 0.27641 0.34787
 O114 O 0.24131 0.23492 0.36653
 O115 O 0.23601 0.19811 0.15061
 O116 O 0.28557 0.24932 0.13209
 O117 O 0.13607 0.27060 0.19117
 O118 O 0.13303 0.32564 0.24151
 O119 O 0.17526 0.16920 0.26025
 O120 O 0.23145 0.15870 0.30636
 Zr121 Zr 0.23329 0.19566 0.25450
 O122 O 0.27618 0.23013 0.28657
 Zr123 Zr 0.16929 0.27279 0.24558
 O124 O 0.20868 0.31051 0.27886
 Zr125 Zr 0.23905 0.25683 0.17526
 O126 O 0.28113 0.29499 0.20462
 Zr127 Zr 0.24553 0.27600 0.31767
 O128 O 0.20184 0.23883 0.28882
 Zr129 Zr 0.31463 0.26081 0.24648
 O130 O 0.27530 0.22180 0.21435
 Zr131 Zr 0.25019 0.33819 0.23950
 O132 O 0.20800 0.30343 0.20552
 O133 O 0.19825 0.22773 0.21311
 O134 O 0.28618 0.30590 0.28006
 C135 C 0.23359 0.16301 0.16721
 C136 C 0.13931 0.18471 0.26058
 C137 C 0.14694 0.26625 0.15435
 C138 C 0.25369 0.36903 0.32819
 C139 C 0.33890 0.27011 0.33602
 C140 C 0.34453 0.34950 0.23805
 H141 H 0.29180 0.21221 0.30476
 H142 H 0.29899 0.30787 0.18449
 H143 H 0.17889 0.21020 0.19833
 H144 H 0.19237 0.33044 0.29399
 H145 H 0.17719 0.27018 0.35540
 H146 H 0.13352 0.29625 0.31059
 H147 H 0.35516 0.27083 0.18012
 H148 H 0.30494 0.22929 0.14334
 H149 H 0.26335 0.21468 0.36409
 H150 H 0.21345 0.17249 0.32582
 H151 H 0.27043 0.36727 0.16990
 H152 H 0.22912 0.32147 0.13322
 H153 H 0.29733 0.15221 0.24256
 H154 H 0.34777 0.19377 0.27072
 H155 H 0.14204 0.34052 0.21729
 H156 H 0.18889 0.38542 0.25458
 O157 O 0.74835 0.83708 0.18474
 O158 O 0.69816 0.85141 0.23743
 O159 O 0.85376 0.81220 0.25855
 O160 O 0.87621 0.76470 0.29988
 O161 O 0.81739 0.73135 0.15655
 O162 O 0.76560 0.68158 0.14958
 O163 O 0.75366 0.70042 0.36724
 O164 O 0.79694 0.75979 0.37278
 O165 O 0.64893 0.74107 0.30643
 O166 O 0.63447 0.77309 0.24306
 O167 O 0.71248 0.63492 0.27189
 O168 O 0.77490 0.62417 0.22798
 O169 O 0.76352 0.64741 0.32513
 O170 O 0.81382 0.63275 0.27470
 O171 O 0.65866 0.67759 0.26389
 O172 O 0.64256 0.72551 0.20725
 O173 O 0.69451 0.74903 0.35756
 O174 O 0.74508 0.80219 0.36635
 O175 O 0.75450 0.78139 0.14512
 O176 O 0.71733 0.72067 0.14089
 O177 O 0.86409 0.74933 0.20412
 O178 O 0.87603 0.70996 0.26734
 O179 O 0.80043 0.85376 0.24401
 O180 O 0.74149 0.86465 0.28223
 Zr181 Zr 0.75028 0.81429 0.24428
 O182 O 0.71461 0.78133 0.28544
 Zr183 Zr 0.82928 0.75312 0.25767
 O184 O 0.79678 0.71712 0.29936
 Zr185 Zr 0.76123 0.73390 0.18571
 O186 O 0.72578 0.69771 0.22355
 Zr187 Zr 0.75158 0.75135 0.32818
 O188 O 0.78738 0.78884 0.28998
 Zr189 Zr 0.68468 0.73457 0.25485
 O190 O 0.71665 0.77028 0.21295
 Zr191 Zr 0.76380 0.67269 0.26787
 O192 O 0.80026 0.70535 0.22705
 O193 O 0.79349 0.78038 0.21379
 O194 O 0.71983 0.70583 0.29872
 C195 C 0.74993 0.81937 0.15027
 C196 C 0.83813 0.84744 0.25225
 C197 C 0.85388 0.73882 0.16815
 C198 C 0.75772 0.66233 0.36009
 C199 C 0.65796 0.74575 0.34362
 C200 C 0.67416 0.64246 0.26978
 H201 H 0.69502 0.79997 0.29821
 H202 H 0.71178 0.67676 0.20750
 H203 H 0.80986 0.79716 0.19522
 H204 H 0.81577 0.70519 0.31928
 H205 H 0.81553 0.78100 0.36258
 H206 H 0.86629 0.75522 0.32628
 H207 H 0.64950 0.69980 0.19377
 H208 H 0.69282 0.73685 0.14731
 H209 H 0.72320 0.81952 0.35522
 H210 H 0.75767 0.85927 0.30686
 H211 H 0.75068 0.62109 0.21040
 H212 H 0.78616 0.66381 0.16244
 H213 H 0.68050 0.83834 0.21705
 H214 H 0.63881 0.79826 0.25848
 H215 H 0.87171 0.68805 0.24755
 H216 H 0.83347 0.64545 0.29344
 O217 O 0.75140 0.12761 0.79760
 O218 O 0.71642 0.11410 0.73911
 O219 O 0.85913 0.18969 0.75586
 O220 O 0.87488 0.24476 0.72236
 O221 O 0.79280 0.23559 0.85812
 O222 O 0.73242 0.27286 0.86515
 O223 O 0.75644 0.29098 0.64299
 O224 O 0.80437 0.24290 0.63517
 O225 O 0.64947 0.23282 0.68165
 O226 O 0.63186 0.18657 0.73204
 O227 O 0.68649 0.33678 0.74332
 O228 O 0.73665 0.35432 0.78838
 O229 O 0.74271 0.33868 0.69019
 O230 O 0.78868 0.35166 0.75441
 O231 O 0.64123 0.28497 0.73909
 O232 O 0.63092 0.22110 0.78189
 O233 O 0.70293 0.23546 0.63840
 O234 O 0.76513 0.19016 0.63365
 O235 O 0.74447 0.17360 0.84796
 O236 O 0.68978 0.22638 0.85455
 O237 O 0.84655 0.24201 0.81566
 O238 O 0.85691 0.29363 0.76031
 O239 O 0.81522 0.13688 0.74849
 O240 O 0.76220 0.12325 0.69704
 Zr241 Zr 0.75671 0.16343 0.74611
 O242 O 0.71872 0.19599 0.70674
 Zr243 Zr 0.82120 0.24042 0.75708
 O244 O 0.78791 0.27495 0.71498
 Zr245 Zr 0.74274 0.23064 0.81871
 O246 O 0.70682 0.26812 0.78122
 Zr247 Zr 0.75508 0.23736 0.67556
 O248 O 0.79391 0.20295 0.71306
 Zr249 Zr 0.67695 0.23179 0.73877
 O250 O 0.71049 0.19368 0.77819
 Zr251 Zr 0.74299 0.30720 0.74607
 O252 O 0.77842 0.27470 0.78911
 O253 O 0.78724 0.19822 0.78865
 O254 O 0.71107 0.27225 0.70466
 C255 C 0.74777 0.13712 0.83466
 C256 C 0.85121 0.15194 0.75211
 C257 C 0.83104 0.23978 0.85107
 C258 C 0.74946 0.32735 0.65368
 C259 C 0.66462 0.23395 0.64615
 C260 C 0.65011 0.32277 0.74121
 H261 H 0.70454 0.17705 0.68851
 H262 H 0.68756 0.28329 0.79831
 H263 H 0.80446 0.18168 0.80681
 H264 H 0.80662 0.29292 0.70008
 H265 H 0.82759 0.22808 0.64732
 H266 H 0.86657 0.25479 0.69555
 H267 H 0.63039 0.24453 0.80030
 H268 H 0.67475 0.20208 0.84549
 H269 H 0.74071 0.17264 0.63286
 H270 H 0.78566 0.13259 0.68087
 H271 H 0.72311 0.34247 0.81212
 H272 H 0.74858 0.29714 0.85826
 H273 H 0.69044 0.12230 0.75178
 H274 H 0.64472 0.16352 0.71812
 H275 H 0.84746 0.30903 0.78400
 H276 H 0.80380 0.35453 0.72889
 O277 O 0.24519 0.86569 0.79156
 O278 O 0.28115 0.87541 0.73156
 O279 O 0.13932 0.79863 0.75109
 O280 O 0.12773 0.74043 0.72024
 O281 O 0.20486 0.76080 0.85839
 O282 O 0.26693 0.72764 0.87079
 O283 O 0.25003 0.68758 0.65410
 O284 O 0.19902 0.73366 0.63905
 O285 O 0.35245 0.75475 0.68784
 O286 O 0.36472 0.80994 0.73536
 O287 O 0.31880 0.65763 0.75673
 O288 O 0.26609 0.64481 0.80750
 O289 O 0.26053 0.64541 0.70715
 O290 O 0.21932 0.63626 0.76925
 O291 O 0.36206 0.71090 0.75031
 O292 O 0.37002 0.77693 0.78529
 O293 O 0.30083 0.74497 0.64302
 O294 O 0.23792 0.78619 0.63084
 O295 O 0.25328 0.82469 0.84602
 O296 O 0.30648 0.77547 0.85970
 O297 O 0.15133 0.75188 0.81556
 O298 O 0.14403 0.69589 0.76626
 O299 O 0.18257 0.85119 0.74005
 O300 O 0.23519 0.86303 0.69074
 Zr301 Zr 0.24160 0.82623 0.74240
 O302 O 0.28128 0.79152 0.70690
 Zr303 Zr 0.17890 0.74912 0.75819
 O304 O 0.21508 0.71133 0.72172
 Zr305 Zr 0.25584 0.76617 0.82120
 O306 O 0.29472 0.72774 0.78882
 Zr307 Zr 0.24779 0.74535 0.67917
 O308 O 0.20699 0.78254 0.71169
 Zr309 Zr 0.32367 0.76128 0.74364
 O310 O 0.28775 0.80075 0.77864
 Zr311 Zr 0.26047 0.68408 0.75749
 O312 O 0.22189 0.71912 0.79476
 O313 O 0.21099 0.79475 0.78715
 O314 O 0.29216 0.71576 0.71337
 C315 C 0.24994 0.85965 0.82940
 C316 C 0.14663 0.83596 0.74355
 C317 C 0.16686 0.75553 0.85098
 C318 C 0.25526 0.65238 0.66950
 C319 C 0.33887 0.74873 0.65214
 C320 C 0.35464 0.67312 0.75461
 H321 H 0.29496 0.80907 0.68709
 H322 H 0.31441 0.71537 0.80777
 H323 H 0.19302 0.81234 0.80336
 H324 H 0.19743 0.69117 0.70835
 H325 H 0.17567 0.75018 0.64822
 H326 H 0.13692 0.72415 0.69709
 H327 H 0.36888 0.75736 0.80776
 H328 H 0.32325 0.79697 0.84730
 H329 H 0.26030 0.80621 0.63066
 H330 H 0.21568 0.84909 0.67270
 H331 H 0.28829 0.65522 0.82485
 H332 H 0.25270 0.70196 0.86482
 H333 H 0.30700 0.86899 0.74569
 H334 H 0.35480 0.82633 0.71244
 H335 H 0.15546 0.68164 0.78996
 H336 H 0.19806 0.63663 0.74807
 O337 O 0.24904 0.36521 0.69393
 O338 O 0.19936 0.38334 0.74404
 O339 O 0.34925 0.32362 0.76804
 O340 O 0.35755 0.27738 0.81714
 O341 O 0.31140 0.25865 0.66585
 O342 O 0.25749 0.20905 0.65424
 O343 O 0.23135 0.22326 0.87085
 O344 O 0.27756 0.27950 0.87974
 O345 O 0.13270 0.27354 0.80514
 O346 O 0.12559 0.31087 0.74338
 O347 O 0.18679 0.16398 0.76627
 O348 O 0.25128 0.14782 0.73044
 O349 O 0.23303 0.17049 0.82730
 O350 O 0.28612 0.15087 0.77995
 O351 O 0.13806 0.21195 0.75656
 O352 O 0.13222 0.26620 0.70384
 O353 O 0.17578 0.27556 0.85886
 O354 O 0.22312 0.32325 0.87198
 O355 O 0.25090 0.31057 0.65254
 O356 O 0.21281 0.25178 0.64200
 O357 O 0.35514 0.26150 0.71912
 O358 O 0.35756 0.22158 0.78082
 O359 O 0.30137 0.37204 0.75599
 O360 O 0.23860 0.38954 0.79155
 Zr361 Zr 0.24583 0.33976 0.75236
 O362 O 0.20369 0.30917 0.78923
 Zr363 Zr 0.31623 0.26933 0.76878
 O364 O 0.27691 0.23572 0.80607
 Zr365 Zr 0.25281 0.26078 0.69117
 O366 O 0.21054 0.22735 0.72471
 Zr367 Zr 0.23411 0.27423 0.83281
 O368 O 0.27662 0.30913 0.79934
 Zr369 Zr 0.17091 0.26673 0.75498
 O370 O 0.21005 0.30036 0.71713
 Zr371 Zr 0.24167 0.19641 0.77059
 O372 O 0.28476 0.22630 0.73395
 O373 O 0.28705 0.30222 0.72371
 O374 O 0.19947 0.23295 0.79993
 C375 C 0.24953 0.34868 0.65888
 C376 C 0.33832 0.36047 0.76253
 C377 C 0.34743 0.25920 0.68132
 C378 C 0.23018 0.18533 0.86278
 C379 C 0.13997 0.27594 0.84300
 C380 C 0.14972 0.17504 0.76050
 H381 H 0.18561 0.32918 0.80218
 H382 H 0.19583 0.20890 0.70637
 H383 H 0.30588 0.31792 0.70656
 H384 H 0.29301 0.22113 0.82667
 H385 H 0.29602 0.30198 0.87239
 H386 H 0.34546 0.26434 0.84103
 H387 H 0.13743 0.24089 0.68893
 H388 H 0.18835 0.26843 0.64733
 H389 H 0.23831 0.34647 0.86098
 H390 H 0.25982 0.38723 0.81268
 H391 H 0.23197 0.15108 0.70773
 H392 H 0.27795 0.19104 0.66694
 H393 H 0.18002 0.37190 0.72417
 H394 H 0.13174 0.33458 0.76041
 H395 H 0.35079 0.19948 0.76192
 H396 H 0.30432 0.15983 0.80198
 O397 O 0.77709 0.63379 0.70008
 O398 O 0.81926 0.63036 0.76022
 O399 O 0.66598 0.68264 0.74732
 O400 O 0.65131 0.73774 0.78750
 O401 O 0.71248 0.73225 0.63978
 O402 O 0.76930 0.77567 0.62409
 O403 O 0.76486 0.81137 0.83975
 O404 O 0.72089 0.75436 0.85616
 O405 O 0.87409 0.75454 0.79991
 O406 O 0.88687 0.69980 0.74880
 O407 O 0.82467 0.84738 0.73420
 O408 O 0.76454 0.85219 0.68476
 O409 O 0.76835 0.85416 0.78640
 O410 O 0.72355 0.85986 0.72911
 O411 O 0.87452 0.79980 0.73865
 O412 O 0.88824 0.73844 0.70187
 O413 O 0.82429 0.76139 0.84670
 O414 O 0.77669 0.71646 0.86656
 O415 O 0.77238 0.67620 0.64627
 O416 O 0.81459 0.73166 0.62835
 O417 O 0.66382 0.73470 0.68829
 O418 O 0.65131 0.78429 0.73863
 O419 O 0.71678 0.63608 0.75323
 O420 O 0.77138 0.63111 0.80044
 Zr421 Zr 0.77037 0.67103 0.75072
 O422 O 0.80654 0.71095 0.78476
 Zr423 Zr 0.69655 0.73875 0.74235
 O424 O 0.72998 0.78248 0.77490
 Zr425 Zr 0.76824 0.73395 0.67226
 O426 O 0.80569 0.77586 0.70257
 Zr427 Zr 0.76971 0.75306 0.81479
 O428 O 0.73301 0.70907 0.78554
 Zr429 Zr 0.84208 0.74585 0.74553
 O430 O 0.80864 0.70329 0.71144
 Zr431 Zr 0.76903 0.81502 0.73646
 O432 O 0.73104 0.77528 0.70301
 O433 O 0.73183 0.69888 0.70927
 O434 O 0.80754 0.78745 0.77806
 C435 C 0.77687 0.64104 0.66216
 C436 C 0.67899 0.64598 0.75089
 C437 C 0.67505 0.73312 0.65147
 C438 C 0.76561 0.84703 0.82423
 C439 C 0.86187 0.76069 0.83599
 C440 C 0.86242 0.83642 0.73536
 H441 H 0.82346 0.69546 0.80406
 H442 H 0.82237 0.79059 0.68269
 H443 H 0.71547 0.67951 0.69332
 H444 H 0.71084 0.80037 0.78929
 H445 H 0.70479 0.72938 0.85194
 H446 H 0.65865 0.75852 0.80761
 H447 H 0.88094 0.75547 0.67846
 H448 H 0.83701 0.71531 0.64001
 H449 H 0.77706 0.68821 0.85714
 H450 H 0.74924 0.63968 0.81870
 H451 H 0.78950 0.84823 0.66864
 H452 H 0.74968 0.79732 0.63090
 H453 H 0.84042 0.63720 0.74021
 H454 H 0.88383 0.68566 0.77483
 H455 H 0.66071 0.80392 0.71819
 H456 H 0.70151 0.85383 0.74841
 O457 O 0.24787 0.64948 0.29522
 O458 O 0.19417 0.65083 0.24534
 O459 O 0.35002 0.69688 0.23419
 O460 O 0.36608 0.75288 0.19949
 O461 O 0.31797 0.74531 0.35153
 O462 O 0.26567 0.78940 0.37389
 O463 O 0.24601 0.82986 0.15742
 O464 O 0.28578 0.77510 0.13563
 O465 O 0.14145 0.77828 0.21001
 O466 O 0.13237 0.72414 0.26391
 O467 O 0.20423 0.86930 0.26744
 O468 O 0.26712 0.87043 0.31164
 O469 O 0.25343 0.87149 0.21127
 O470 O 0.30680 0.87274 0.26500
 O471 O 0.15177 0.82450 0.27044
 O472 O 0.13703 0.76536 0.30847
 O473 O 0.18587 0.78395 0.15802
 O474 O 0.23464 0.73192 0.13406
 O475 O 0.25925 0.69086 0.34871
 O476 O 0.21744 0.74724 0.37210
 O477 O 0.36137 0.74717 0.29839
 O478 O 0.37035 0.79791 0.24701
 O479 O 0.29571 0.65409 0.23066
 O480 O 0.23292 0.65232 0.19599
 Zr481 Zr 0.24541 0.68963 0.24605
 O482 O 0.20743 0.73190 0.21710
 Zr483 Zr 0.32370 0.75366 0.24728
 O484 O 0.28895 0.79890 0.21832
 Zr485 Zr 0.25988 0.74975 0.32448
 O486 O 0.22214 0.79491 0.29913
 Zr487 Zr 0.24325 0.77197 0.18316
 O488 O 0.28094 0.72661 0.20821
 Zr489 Zr 0.17914 0.76809 0.26054
 O490 O 0.21356 0.72254 0.28993
 Zr491 Zr 0.25665 0.83262 0.26136
 O492 O 0.29541 0.79035 0.29071
 O493 O 0.29050 0.71431 0.28287
 O494 O 0.21212 0.80768 0.22437
 C495 C 0.25434 0.65573 0.33278
 C496 C 0.33384 0.66196 0.22783
 C497 C 0.35391 0.74540 0.33625
 C498 C 0.24922 0.86500 0.17342
 C499 C 0.14982 0.78460 0.17285
 C500 C 0.16612 0.86054 0.27044
 H501 H 0.18719 0.71750 0.20037
 H502 H 0.20876 0.81039 0.32075
 H503 H 0.30861 0.69381 0.29529
 H504 H 0.30700 0.81603 0.20176
 H505 H 0.30510 0.75238 0.13949
 H506 H 0.35651 0.77255 0.17911
 H507 H 0.15063 0.77685 0.33243
 H508 H 0.19507 0.72923 0.36318
 H509 H 0.20903 0.71672 0.13818
 H510 H 0.24745 0.66444 0.17292
 H511 H 0.24434 0.86658 0.33067
 H512 H 0.28254 0.81231 0.36450
 H513 H 0.17709 0.65842 0.26860
 H514 H 0.13135 0.70973 0.23790
 H515 H 0.36468 0.81651 0.26957
 H516 H 0.32328 0.86920 0.24043
 O517 O 0.73084 0.33781 0.29615
 O518 O 0.76808 0.34912 0.23690
 O519 O 0.61932 0.28513 0.25078
 O520 O 0.59880 0.23016 0.22142
 O521 O 0.68406 0.23110 0.35500
 O522 O 0.74350 0.19244 0.36243
 O523 O 0.71183 0.17513 0.14201
 O524 O 0.66663 0.22740 0.13477
 O525 O 0.82310 0.22501 0.17710
 O526 O 0.84632 0.26974 0.22508
 O527 O 0.78031 0.12494 0.24059
 O528 O 0.72943 0.11259 0.28833
 O529 O 0.72218 0.12690 0.18984
 O530 O 0.67811 0.11768 0.25424
 O531 O 0.82966 0.17293 0.23695
 O532 O 0.84576 0.23736 0.27726
 O533 O 0.76873 0.22801 0.13450
 O534 O 0.71112 0.27593 0.13006
 O535 O 0.73710 0.29200 0.34685
 O536 O 0.78767 0.23655 0.35205
 O537 O 0.62865 0.23295 0.31359
 O538 O 0.61434 0.18115 0.25962
 O539 O 0.66767 0.33427 0.24676
 O540 O 0.72060 0.34462 0.19544
 Zr541 Zr 0.72380 0.30327 0.24388
 O542 O 0.75811 0.26776 0.20399
 Zr543 Zr 0.65357 0.23179 0.25518
 O544 O 0.68341 0.19438 0.21351
 Zr545 Zr 0.73417 0.23548 0.31630
 O546 O 0.76646 0.19534 0.27869
 Zr547 Zr 0.71809 0.22918 0.17329
 O548 O 0.68315 0.26690 0.21092
 Zr549 Zr 0.79795 0.22882 0.23519
 O550 O 0.76846 0.26957 0.27507
 Zr551 Zr 0.72641 0.15901 0.24465
 O552 O 0.69434 0.19454 0.28724
 O553 O 0.69130 0.27105 0.28671
 O554 O 0.75992 0.19097 0.20210
 C555 C 0.73522 0.32856 0.33337
 C556 C 0.63037 0.32220 0.24851
 C557 C 0.64547 0.23107 0.34856
 C558 C 0.71560 0.13842 0.15339
 C559 C 0.80719 0.22585 0.14165
 C560 C 0.81776 0.13584 0.23913
 H561 H 0.77340 0.28555 0.18554
 H562 H 0.78498 0.17897 0.29569
 H563 H 0.67548 0.28869 0.30490
 H564 H 0.66301 0.17780 0.19907
 H565 H 0.64583 0.24541 0.14669
 H566 H 0.60583 0.21978 0.19449
 H567 H 0.84474 0.21463 0.29659
 H568 H 0.80476 0.25897 0.34187
 H569 H 0.73503 0.29406 0.13177
 H570 H 0.69706 0.33638 0.17860
 H571 H 0.74852 0.12174 0.30953
 H572 H 0.72663 0.16871 0.35527
 H573 H 0.79236 0.34032 0.25241
 H574 H 0.83375 0.29604 0.21831
 H575 H 0.62314 0.16544 0.28348
 H576 H 0.66074 0.11739 0.22985
 C577 C 0.24404 0.08664 0.04072
 C578 C 0.23881 0.08843 0.08063
 C579 C 0.23787 0.12707 0.10235
 C580 C 0.23277 0.12672 0.14209
 H581 H 0.23366 0.06144 0.09820
 H582 H 0.24226 0.15526 0.08632
 H583 H 0.24463 0.11532 0.02532
 H584 H 0.22890 0.09804 0.15746
 C585 C 0.75776 0.56509 0.53764
 C586 C 0.77642 0.56952 0.57314
 C587 C 0.77340 0.60694 0.59648
 C588 C 0.78181 0.60600 0.63577
 H589 H 0.79268 0.54428 0.58648
 H590 H 0.76217 0.63430 0.58229
 H591 H 0.74275 0.59081 0.52381
 H592 H 0.79107 0.57775 0.64968
 C593 C 0.76974 0.94143 0.07011
 C594 C 0.75864 0.90269 0.07263
 C595 C 0.75717 0.88215 0.11175
 C596 C 0.74758 0.84319 0.11331
 H597 H 0.74905 0.88587 0.04642
 H598 H 0.76550 0.89828 0.13893
 H599 H 0.77605 0.95656 0.09827
 H600 H 0.74093 0.82710 0.08565
 C601 C 0.27247 0.47074 0.57726
 C602 C 0.25565 0.43437 0.58251
 C603 C 0.25731 0.41303 0.62139
 C604 C 0.24795 0.37384 0.62253
 H605 H 0.24037 0.41961 0.55761
 H606 H 0.26723 0.42865 0.64831
 H607 H 0.28644 0.48547 0.60287
 H608 H 0.24007 0.35860 0.59470
 C609 C 0.76433 0.03680 0.92564
 C610 C 0.78146 0.07383 0.92541
 C611 C 0.77378 0.10645 0.89602
 C612 C 0.75006 0.10352 0.86345
 H613 H 0.80194 0.08219 0.94961
 H614 H 0.78933 0.13479 0.90177
 H615 H 0.74596 0.02649 0.90063
 H616 H 0.73613 0.07511 0.85520
 C617 C 0.26907 0.55495 0.42375
 C618 C 0.29075 0.58923 0.42039
 C619 C 0.28504 0.62106 0.38985
 C620 C 0.25861 0.62014 0.35908
 H621 H 0.31260 0.59659 0.44379
 H622 H 0.30332 0.64799 0.39433
 H623 H 0.24854 0.54528 0.40014
 H624 H 0.24144 0.59315 0.35206
 C625 C 0.24532 0.93676 0.95628
 C626 C 0.25195 0.93394 0.91657
 C627 C 0.25005 0.89540 0.89470
 C628 C 0.25143 0.89596 0.85456
 H629 H 0.26038 0.96012 0.89905
 H630 H 0.24693 0.86719 0.91099
 H631 H 0.24069 0.90878 0.97247
 H632 H 0.25320 0.92475 0.83901
 C633 C 0.75037 0.40666 0.46129
 C634 C 0.73780 0.40165 0.42313
 C635 C 0.74064 0.36287 0.40090
 C636 C 0.73572 0.36363 0.36088
 H637 H 0.72520 0.42720 0.40696
 H638 H 0.74678 0.33479 0.41658
 H639 H 0.76137 0.38047 0.47751
 H640 H 0.73080 0.39274 0.34656
 C641 C 0.05368 0.24732 0.05803
 C642 C 0.08874 0.26790 0.05347
 C643 C 0.12154 0.26772 0.08421
 C644 C 0.11416 0.26659 0.12384
 H645 H 0.09435 0.28614 0.02718
 H646 H 0.15258 0.27087 0.07363
 H647 H 0.04947 0.23155 0.08629
 H648 H 0.08303 0.26677 0.13458
 C649 C 0.57803 0.71603 0.55860
 C650 C 0.61153 0.73891 0.55387
 C651 C 0.64654 0.73790 0.58225
 C652 C 0.64167 0.73142 0.62169
 H653 H 0.61372 0.75942 0.52862
 H654 H 0.67634 0.74590 0.57080
 H655 H 0.57614 0.69589 0.58421
 H656 H 0.61128 0.72693 0.63351
 C657 C 0.04081 0.77606 0.92930
 C658 C 0.07881 0.76156 0.92502
 C659 C 0.10047 0.76117 0.88628
 C660 C 0.14054 0.75374 0.88649
 H661 H 0.09505 0.74920 0.95062
 H662 H 0.08466 0.76880 0.85861
 H663 H 0.02468 0.78474 0.90219
 H664 H 0.15578 0.74829 0.91502
 C665 C 0.52225 0.25694 0.42812
 C666 C 0.55774 0.23774 0.42276
 C667 C 0.58032 0.23962 0.38472
 C668 C 0.61958 0.22879 0.38436
 H669 H 0.57124 0.22075 0.44731
 H670 H 0.56564 0.25122 0.35782
 H671 H 0.50830 0.27266 0.40298
 H672 H 0.63413 0.21934 0.41219
 C673 C 0.96724 0.78667 0.08527
 C674 C 0.93928 0.75902 0.09471
 C675 C 0.91642 0.75987 0.13270
 C676 C 0.88476 0.73497 0.13674
 H677 H 0.93164 0.73599 0.07273
 H678 H 0.92276 0.78277 0.15513
 H679 H 0.97675 0.80887 0.10730
 H680 H 0.87775 0.71404 0.11260
 C681 C 0.44159 0.25860 0.58302
 C682 C 0.40917 0.28296 0.58708
 C683 C 0.37826 0.28017 0.61879
 C684 C 0.38206 0.25997 0.65346
 H685 H 0.40210 0.30428 0.56328
 H686 H 0.35008 0.29623 0.61259
 H687 H 0.45029 0.23759 0.60648
 H688 H 0.41072 0.24636 0.66239
 C689 C 0.91393 0.25499 0.95668
 C690 C 0.87850 0.23463 0.95791
 C691 C 0.84877 0.23546 0.92392
 C692 C 0.85984 0.24107 0.88533
 H693 H 0.87119 0.21503 0.98280
 H694 H 0.81729 0.22849 0.93081
 H695 H 0.91932 0.27326 0.93020
 H696 H 0.89167 0.24491 0.87780
 C697 C 0.42795 0.72192 0.46436
 C698 C 0.42542 0.73780 0.42728
 C699 C 0.38790 0.73583 0.40262
 C700 C 0.38972 0.74414 0.36323
 H701 H 0.45149 0.75304 0.41442
 H702 H 0.35920 0.72760 0.41645
 H703 H 0.40117 0.70767 0.47700
 H704 H 0.41912 0.75065 0.34988
 C705 C 0.07109 0.05188 0.26368
 C706 C 0.06967 0.09248 0.26500
 C707 C 0.10690 0.11738 0.26492
 C708 C 0.10393 0.15773 0.26482
 H709 H 0.04100 0.10849 0.26653
 H710 H 0.13648 0.10284 0.26322
 H711 H 0.10094 0.03819 0.26618
 H712 H 0.07402 0.17171 0.26596
 C713 C 0.58121 0.54815 0.74219
 C714 C 0.58234 0.58481 0.72445
 C715 C 0.61422 0.61616 0.72910
 C716 C 0.64903 0.61258 0.75001
 H717 H 0.55690 0.59394 0.70565
 H718 H 0.60808 0.64442 0.71369
 H719 H 0.60707 0.53705 0.75919
 H720 H 0.65726 0.58416 0.76394
 C721 C 0.96307 0.08367 0.72987
 C722 C 0.95700 0.10565 0.76291
 C723 C 0.92286 0.13424 0.76499
 C724 C 0.88563 0.12381 0.75180
 H725 H 0.97611 0.10156 0.78924
 H726 H 0.92793 0.16310 0.77946
 H727 H 0.94345 0.08820 0.70391
 H728 H 0.88011 0.09348 0.74078
 C729 C 0.45651 0.57950 0.23829
 C730 C 0.42155 0.58752 0.21921
 C731 C 0.39916 0.62524 0.22679
 C732 C 0.35983 0.62768 0.21685
 H733 H 0.40838 0.56558 0.19882
 H734 H 0.41383 0.64971 0.24296
 H735 H 0.46930 0.60234 0.25796
 H736 H 0.34507 0.60189 0.20293
 C737 C 0.04841 0.93193 0.73773
 C738 C 0.08455 0.93125 0.71884
 C739 C 0.11553 0.89909 0.72103
 C740 C 0.11141 0.86344 0.73955
 H741 H 0.09403 0.95792 0.70238
 H742 H 0.14451 0.90653 0.70732
 H743 H 0.03661 0.90566 0.75314
 H744 H 0.08243 0.85421 0.75196
 C745 C 0.54245 0.42624 0.23769
 C746 C 0.57509 0.42305 0.26212
 C747 C 0.60537 0.39033 0.26103
 C748 C 0.59786 0.35282 0.24840
 H749 H 0.58259 0.44771 0.28218
 H750 H 0.63535 0.39770 0.27276
 H751 H 0.53394 0.40173 0.21788
 H752 H 0.56730 0.34385 0.23977
 C753 C 0.92884 0.95208 0.26357
 C754 C 0.92962 0.91506 0.28095
 C755 C 0.89868 0.88267 0.27757
 C756 C 0.86507 0.88327 0.25462
 H757 H 0.95512 0.90639 0.29974
 H758 H 0.90548 0.85547 0.29453
 H759 H 0.90077 0.96236 0.24983
 H760 H 0.85639 0.91029 0.23836
 C761 C 0.43094 0.45463 0.73738
 C762 C 0.39897 0.45968 0.76192
 C763 C 0.36483 0.43057 0.76310
 C764 C 0.37130 0.39063 0.76199
 H765 H 0.39744 0.48545 0.78180
 H766 H 0.33429 0.44224 0.76739
 H767 H 0.43168 0.42828 0.71809
 H768 H 0.40232 0.37929 0.76112
 C769 C 0.06167 0.25539 0.96665
 C770 C 0.06772 0.27621 0.93262
 C771 C 0.10500 0.27131 0.90857
 C772 C 0.10433 0.28029 0.86936
 H773 H 0.04442 0.29650 0.92130
 H774 H 0.13231 0.25898 0.92242
 H775 H 0.08569 0.23560 0.97748
 H776 H 0.07596 0.29012 0.85557
 C777 C 0.58083 0.71986 0.46767
 C778 C 0.58592 0.73999 0.43315
 C779 C 0.62380 0.73749 0.40952
 C780 C 0.62299 0.74869 0.37095
 H781 H 0.56127 0.75845 0.42140
 H782 H 0.65137 0.72514 0.42283
 H783 H 0.60590 0.70214 0.47965
 H784 H 0.59428 0.75840 0.35775
 C785 C 0.95175 0.77624 0.93783
 C786 C 0.91215 0.78712 0.93751
 C787 C 0.88316 0.77936 0.90430
 C788 C 0.89325 0.76769 0.86704
 H789 H 0.89898 0.80283 0.96274
 H790 H 0.85136 0.78457 0.91136
 H791 H 0.96389 0.76247 0.91114
 H792 H 0.92478 0.76410 0.85839
 C793 C 0.43188 0.26215 0.43469
 C794 C 0.39759 0.28443 0.43503
 C795 C 0.36621 0.28443 0.40321
 C796 C 0.37207 0.27088 0.36586
 H797 H 0.39045 0.30234 0.46129
 H798 H 0.33675 0.29670 0.41139
 H799 H 0.44005 0.24447 0.40866
 H800 H 0.40185 0.26070 0.35633
 C801 C 0.05589 0.78982 0.07640
 C802 C 0.09090 0.81063 0.07650
 C803 C 0.12228 0.80700 0.10809
 C804 C 0.11569 0.79249 0.14516
 H805 H 0.09892 0.82871 0.05056
 H806 H 0.15279 0.81612 0.09955
 H807 H 0.04730 0.77178 0.10212
 H808 H 0.08516 0.78583 0.15543
 C809 C 0.53255 0.25433 0.57869
 C810 C 0.57041 0.23903 0.57886
 C811 C 0.59657 0.24017 0.61483
 C812 C 0.63661 0.23316 0.61156
 H813 H 0.58291 0.22548 0.55201
 H814 H 0.58335 0.24771 0.64367
 H815 H 0.52034 0.26634 0.60642
 H816 H 0.64960 0.22748 0.58218
 C817 C 0.90633 0.23513 0.04777
 C818 C 0.90327 0.20791 0.07772
 C819 C 0.87210 0.20829 0.10970
 C820 C 0.83487 0.22469 0.10667
 H821 H 0.92793 0.18657 0.08232
 H822 H 0.88085 0.19368 0.13762
 H823 H 0.88208 0.25669 0.04237
 H824 H 0.82417 0.23665 0.07822
 C825 C 0.42833 0.71955 0.55627
 C826 C 0.39607 0.74410 0.55115
 C827 C 0.36260 0.74637 0.58100
 C828 C 0.37021 0.74511 0.62062
 H829 H 0.39418 0.76371 0.52517
 H830 H 0.33196 0.75232 0.57024
 H831 H 0.42935 0.70040 0.58272
 H832 H 0.40154 0.74273 0.63093
 C833 C 0.23360 0.08437 0.95311
 C834 C 0.21220 0.08532 0.91852
 C835 C 0.21301 0.11866 0.88913
 C836 C 0.22578 0.15650 0.89627
 H837 H 0.19446 0.05941 0.90919
 H838 H 0.20290 0.11067 0.85912
 H839 H 0.24858 0.11173 0.96255
 H840 H 0.23323 0.16646 0.92636
 C841 C 0.75950 0.55831 0.44938
 C842 C 0.73967 0.56093 0.41424
 C843 C 0.74374 0.59439 0.38519
 C844 C 0.75454 0.63279 0.39346
 H845 H 0.72096 0.53580 0.40446
 H846 H 0.73564 0.58644 0.35460
 H847 H 0.77814 0.58330 0.45954
 H848 H 0.75948 0.64262 0.42410
 C849 C 0.76945 0.02861 0.07398
 C850 C 0.73844 0.05314 0.08223
 C851 C 0.73757 0.07704 0.11925
 C852 C 0.71223 0.10832 0.12159
 H853 H 0.71411 0.05693 0.06031
 H854 H 0.75990 0.07155 0.14281
 H855 H 0.79376 0.02411 0.09572
 H856 H 0.69230 0.11530 0.09639
 C857 C 0.26642 0.55975 0.57231
 C858 C 0.23955 0.59019 0.57372
 C859 C 0.23864 0.62137 0.60509
 C860 C 0.25518 0.61778 0.64183
 H861 H 0.21893 0.59487 0.54859
 H862 H 0.22315 0.64912 0.59685
 H863 H 0.28747 0.55446 0.59686
 H864 H 0.26821 0.58947 0.65195
 C865 C 0.76442 0.94474 0.92112
 C866 C 0.74341 0.90979 0.91945
 C867 C 0.74589 0.87838 0.88794
 C868 C 0.76306 0.88217 0.85168
 H869 H 0.72516 0.90118 0.94515
 H870 H 0.73256 0.84955 0.89605
 H871 H 0.78170 0.95528 0.89555
 H872 H 0.77446 0.91112 0.84158
 C873 C 0.26638 0.46395 0.42660
 C874 C 0.24532 0.42915 0.42701
 C875 C 0.24399 0.39854 0.39483
 C876 C 0.25586 0.40341 0.35656
 H877 H 0.22908 0.42074 0.45403
 H878 H 0.23156 0.36966 0.40403
 H879 H 0.28173 0.47388 0.39962
 H880 H 0.26621 0.43249 0.34577
 C881 C 0.25697 0.93792 0.04447
 C882 C 0.24468 0.93561 0.08278
 C883 C 0.25048 0.89894 0.10723
 C884 C 0.24679 0.90078 0.14722
 H885 H 0.22947 0.96108 0.09662
 H886 H 0.25763 0.87059 0.09260
 H887 H 0.27169 0.91186 0.03129
 H888 H 0.24146 0.92975 0.16145
 C889 C 0.74423 0.41629 0.55173
 C890 C 0.72408 0.41921 0.58693
 C891 C 0.72519 0.38919 0.62002
 C892 C 0.74996 0.35716 0.62096
 H893 H 0.70593 0.44586 0.59283
 H894 H 0.70507 0.39451 0.64523
 H895 H 0.75997 0.38880 0.54404
 H896 H 0.76966 0.35050 0.59589
 C897 C 0.05490 0.07787 0.75270
 C898 C 0.05098 0.11555 0.73787
 C899 C 0.08063 0.14854 0.74565
 C900 C 0.11941 0.14238 0.75727
 H901 H 0.02642 0.12318 0.71760
 H902 H 0.07061 0.17893 0.73859
 H903 H 0.08141 0.07130 0.77100
 H904 H 0.13088 0.11211 0.76190
 C905 C 0.54569 0.57574 0.24414
 C906 C 0.58040 0.57629 0.26526
 C907 C 0.60681 0.61173 0.26452
 C908 C 0.64621 0.60834 0.27411
 H909 H 0.59055 0.54981 0.28169
 H910 H 0.59457 0.64011 0.25344
 H911 H 0.53576 0.60291 0.22869
 H912 H 0.65859 0.57936 0.28334
 C913 C 0.07717 0.96273 0.27810
 C914 C 0.10817 0.95975 0.25213
 C915 C 0.14179 0.93011 0.25699
 C916 C 0.13585 0.89336 0.27305
 H917 H 0.10826 0.97841 0.22536
 H918 H 0.17042 0.93674 0.24225
 H919 H 0.07695 0.94381 0.30469
 H920 H 0.10589 0.88516 0.28396
 C921 C 0.58218 0.45661 0.73617
 C922 C 0.58374 0.41747 0.74699
 C923 C 0.61993 0.39167 0.74143
 C924 C 0.61572 0.35135 0.74296
 H925 H 0.55734 0.40317 0.76023
 H926 H 0.64946 0.40534 0.73619
 H927 H 0.60945 0.47100 0.72476
 H928 H 0.58552 0.33852 0.74663
 C929 C 0.92155 0.04277 0.24991
 C930 C 0.91844 0.08055 0.26494
 C931 C 0.88567 0.11057 0.25759
 C932 C 0.84886 0.10333 0.24163
 H933 H 0.94340 0.09214 0.28299
 H934 H 0.89245 0.14093 0.26777
 H935 H 0.89667 0.02971 0.23294
 H936 H 0.84011 0.07285 0.23363
 C937 C 0.42915 0.54603 0.74055
 C938 C 0.42511 0.58207 0.75815
 C939 C 0.38811 0.60654 0.75316
 C940 C 0.39014 0.64645 0.75851
 H941 H 0.44977 0.59462 0.77591
 H942 H 0.35980 0.59229 0.74396
 H943 H 0.40366 0.53381 0.72366
 H944 H 0.41931 0.66036 0.76535
 C945 C 0.95626 0.93675 0.72736
 C946 C 0.91700 0.93921 0.73910
 C947 C 0.88625 0.90670 0.73740
 C948 C 0.89463 0.86745 0.73332
 H949 H 0.90549 0.96746 0.75083
 H950 H 0.85494 0.91601 0.74206
 H951 H 0.96885 0.90844 0.71702
 H952 H 0.92588 0.85730 0.73072
 C953 C 0.45055 0.43067 0.22251
 C954 C 0.44982 0.39911 0.24767
 C955 C 0.41702 0.36855 0.24619
 C956 C 0.37850 0.37834 0.23635
 H957 H 0.47262 0.39623 0.27114
 H958 H 0.42406 0.33843 0.25693
 H959 H 0.42753 0.43317 0.19918
 H960 H 0.37081 0.40935 0.22911
   
