data_POSCAR
  _audit_creation_date              2014-09-24
  _audit_creation_method            'ToBaCCo'
  _symmetry_space_group_name_H-M    'P1'
  _symmetry_Int_Tables_number       1
  _symmetry_cell_setting            triclinic
  loop_
  _symmetry_equiv_pos_as_xyz
 x,y,z
_cell_length_a 36.1252
_cell_length_b 36.7503
_cell_length_c 36.4777
_cell_angle_alpha 90.705600
_cell_angle_beta 91.523700
_cell_angle_gamma 90.102400
loop_
  _atom_site_label
  _atom_site_type_symbol
  _atom_site_fract_x
  _atom_site_fract_y
  _atom_site_fract_z
N1 N 0.17946 0.16358 0.16863
 N2 N -0.18335 0.82518 0.18187
 N3 N -0.18198 0.19181 -0.17790
 N4 N 0.16800 0.79947 -0.19424
 N5 N 0.19261 1.21655 0.80254
 N6 N 0.82847 0.81482 0.81494
 N7 N 0.19468 0.82000 1.18684
 N8 N 0.80061 1.18311 1.19247
 N9 N 0.53627 1.05881 0.94453
 N10 N 0.56662 1.07916 0.94445
 N11 N 0.45768 1.03652 0.91506
 N12 N 0.42897 1.04269 0.89310
 N13 N 0.45783 1.05880 0.94350
 N14 N 0.42902 1.08100 0.94145
 N15 N 0.53522 1.03673 0.91590
 N16 N 0.56449 1.04130 0.89578
 C17 C 0.58363 1.06794 0.91353
 C18 C 0.41146 1.07048 0.90969
 N19 N 0.45785 0.93047 0.92411
 N20 N 0.42865 0.90969 0.91670
 N21 N 0.53530 0.95948 0.90398
 N22 N 0.56420 0.95961 0.88265
 N23 N 0.53596 0.93086 0.92515
 N24 N 0.56544 0.91072 0.91884
 N25 N 0.45742 0.95927 0.90319
 N26 N 0.42798 0.95896 0.88102
 Mn27 Mn 0.49637 0.99808 0.90921
 C28 C 0.41045 0.92782 0.88960
 C29 C 0.58259 0.92900 0.89206
 N30 N 0.45873 1.04778 1.02215
 N31 N 0.43109 1.06942 1.03131
 N32 N 0.53720 1.01912 1.04397
 N33 N 0.56512 1.02016 1.06792
 N34 N 0.53711 1.04814 1.02329
 N35 N 0.56512 1.06986 1.03284
 N36 N 0.45960 1.01892 1.04308
 N37 N 0.43301 1.02020 1.06706
 Mn38 Mn 0.49749 1.05402 0.98344
 C39 C 0.41534 1.05163 1.05938
 C40 C 0.58227 1.05183 1.06075
 N41 N 0.53692 0.91994 1.00317
 N42 N 0.56477 0.89677 1.00522
 N43 N 0.45943 0.94136 1.03091
 N44 N 0.43219 0.93310 1.05271
 N45 N 0.45919 0.91957 1.00211
 N46 N 0.43182 0.89582 1.00355
 N47 N 0.53734 0.94181 1.03190
 N48 N 0.56556 0.93431 1.05419
 Mn49 Mn 0.49749 0.92476 0.96354
 Mn50 Mn 0.49838 0.98027 1.03780
 Cl51 Cl 0.49742 0.98934 0.97354
 C52 C 0.58240 0.90620 1.03714
 C53 C 0.41522 0.90470 1.03521
 N54 N 0.03691 0.45437 0.08544
 N55 N 0.04361 0.42432 0.10421
 N56 N 0.06164 0.53536 0.07151
 N57 N 0.08260 0.56407 0.07924
 N58 N 0.03721 0.53056 0.09704
 N59 N 0.04087 0.55594 0.12283
 N60 N 0.06286 0.45958 0.06153
 N61 N 0.08777 0.43361 0.06324
 C62 C 0.07548 0.41176 0.08967
 C63 C 0.06934 0.57652 0.11144
 N64 N 0.03669 0.54517 -0.03411
 N65 N 0.04222 0.57406 -0.05440
 N66 N 0.06225 0.46776 -0.01592
 N67 N 0.08477 0.44020 -0.02118
 N68 N 0.03637 0.46873 -0.04188
 N69 N 0.04101 0.44186 -0.06590
 N70 N 0.06151 0.54370 -0.00723
 N71 N 0.08479 0.57130 -0.00860
 Mn72 Mn 0.06239 0.50188 0.02750
 C73 C 0.07230 0.59002 -0.03805
 C74 C 0.07150 0.42446 -0.05242
 N75 N -0.04203 0.53121 0.09534
 N76 N -0.04488 0.55640 0.12119
 N77 N -0.06989 0.46064 0.05851
 N78 N -0.09406 0.43377 0.05792
 N79 N -0.04398 0.45536 0.08384
 N80 N -0.05024 0.42479 0.10156
 N81 N -0.06670 0.53652 0.06885
 N82 N -0.08707 0.56539 0.07599
 Mn83 Mn -0.00298 0.49247 0.09091
 C84 C -0.07314 0.57735 0.10880
 C85 C -0.08168 0.41173 0.08485
 N86 N -0.04443 0.46964 -0.04355
 N87 N -0.04920 0.44181 -0.06668
 N88 N -0.06719 0.54559 -0.01009
 N89 N -0.08938 0.57402 -0.01239
 N90 N -0.04266 0.54632 -0.03602
 N91 N -0.04737 0.57545 -0.05652
 N92 N -0.07031 0.46970 -0.01893
 N93 N -0.09316 0.44220 -0.02442
 Mn94 Mn -0.00352 0.50724 -0.03950
 Mn95 Mn -0.06887 0.50342 0.02462
 Cl96 Cl -0.00327 0.50122 0.02587
 C97 C -0.08002 0.42524 -0.05428
 C98 C -0.07665 0.59243 -0.04142
 N99 N 0.93019 -0.02549 0.47004
 N100 N 0.90320 -0.02721 0.44499
 N101 N 0.96782 -0.05544 0.54080
 N102 N 0.96842 -0.07903 0.56765
 N103 N 0.94315 -0.02989 0.54646
 N104 N 0.92601 -0.03577 0.57755
 N105 N 0.95458 -0.05130 0.46458
 N106 N 0.94492 -0.07122 0.43549
 C107 C 0.91274 -0.05587 0.42372
 C108 C 0.94222 -0.06669 0.59028
 N109 N 1.07286 -0.03405 0.52751
 N110 N 1.09988 -0.04076 0.55146
 N111 N 1.03299 -0.05413 0.45360
 N112 N 1.03221 -0.07640 0.42501
 N113 N 1.06016 -0.03052 0.45143
 N114 N 1.07890 -0.03640 0.42125
 N115 N 1.04619 -0.05815 0.52985
 N116 N 1.05424 -0.08182 0.55581
 Mn117 Mn 1.00035 -0.05513 0.49716
 C118 C 1.08786 -0.07057 0.56889
 C119 C 1.06087 -0.06505 0.40508
 N120 N 0.94663 0.04897 0.55055
 N121 N 0.92820 0.05413 0.58100
 N122 N 0.96124 0.07680 0.47236
 N123 N 0.95562 0.09947 0.44521
 N124 N 0.93423 0.05290 0.47372
 N125 N 0.90949 0.05869 0.44690
 N126 N 0.97346 0.07291 0.54832
 N127 N 0.97417 0.09490 0.57716
 Mn128 Mn 0.93797 0.01164 0.51032
 C129 C 0.94588 0.08286 0.59726
 C130 C 0.92330 0.08817 0.42969
 N131 N 1.06384 0.04787 0.45621
 N132 N 1.08245 0.05333 0.42611
 N133 N 1.05159 0.06998 0.53751
 N134 N 1.05760 0.08757 0.56873
 N135 N 1.07635 0.04429 0.53298
 N136 N 1.10015 0.04405 0.56127
 N137 N 1.03970 0.07398 0.46128
 N138 N 1.04137 0.09809 0.43485
 Mn139 Mn 1.06880 0.00693 0.49195
 Mn140 Mn 1.00652 0.07373 0.50485
 Cl141 Cl 1.00339 0.00926 0.50107
 C142 C 1.06806 0.08477 0.41311
 C143 C 1.08829 0.07178 0.58286
 C144 C 1.17077 0.14340 0.20100
 C145 C 1.15231 0.15989 0.22998
 C146 C 1.14070 0.14043 0.26268
 N147 N 1.11967 0.15803 0.28749
 N148 N 1.10832 0.14109 0.31721
 C149 C 1.11765 0.10588 0.32332
 N150 N 1.13887 0.08827 0.29859
 N151 N 1.15014 0.10520 0.26872
 C152 C 1.10526 0.08706 0.35620
 C153 C 1.08005 0.10291 0.37984
 H154 H 1.14544 0.18851 0.22853
 H155 H 1.11589 0.06007 0.36170
 H156 H 1.17880 0.11511 0.20300
 H157 H 1.06840 0.12936 0.37376
 C158 C 0.83798 -0.16028 0.21261
 C159 C 0.82241 -0.13854 0.23973
 C160 C 0.84393 -0.12661 0.27253
 N161 N 0.82847 -0.10388 0.29737
 N162 N 0.84750 -0.09332 0.32744
 C163 C 0.88264 -0.10523 0.33385
 N164 N 0.89805 -0.12802 0.30907
 N165 N 0.87907 -0.13849 0.27895
 C166 C 0.90399 -0.09396 0.36694
 C167 C 0.89094 -0.06781 0.39126
 H168 H 0.79351 -0.13097 0.23760
 H169 H 0.93101 -0.10599 0.37183
 H170 H 0.86674 -0.16822 0.21582
 H171 H 0.86448 -0.05484 0.38593
 C172 C 0.82765 0.16988 0.79073
 C173 C 0.86367 0.16884 0.77789
 C174 C 0.87382 0.14777 0.74519
 N175 N 0.90831 0.15129 0.73190
 N176 N 0.91790 0.13316 0.70181
 C177 C 0.89341 0.11068 0.68394
 N178 N 0.85898 0.10685 0.69742
 N179 N 0.84932 0.12513 0.72748
 C180 C 0.90353 0.09139 0.65007
 C181 C 0.93600 0.09978 0.63225
 H182 H 0.88530 0.18441 0.79198
 H183 H 0.88444 0.07151 0.63814
 H184 H 0.80649 0.15329 0.77713
 H185 H 0.95435 0.12070 0.64344
 C186 C 1.14969 -0.18283 0.77539
 C187 C 1.16875 -0.16869 0.74604
 C188 C 1.14894 -0.15426 0.71367
 N189 N 1.16766 -0.13591 0.68798
 N190 N 1.14988 -0.12274 0.65857
 C191 C 1.11278 -0.12772 0.65367
 N192 N 1.09414 -0.14637 0.67918
 N193 N 1.11187 -0.15934 0.70867
 C194 C 1.09266 -0.11289 0.62173
 C195 C 1.10874 -0.08753 0.59907
 H196 H 1.19872 -0.16875 0.74639
 H197 H 1.06395 -0.12066 0.61708
 H198 H 1.11968 -0.18346 0.77381
 H199 H 1.13682 -0.07827 0.60472
 C200 C 0.20961 1.15312 1.14553
 C201 C 0.23928 1.13193 1.15807
 C202 C 0.27074 1.12231 1.13492
 N203 N 0.29659 1.09855 1.14759
 N204 N 0.32528 1.08942 1.12726
 C205 C 0.32943 1.10383 1.09348
 N206 N 0.30372 1.12785 1.08086
 N207 N 0.27486 1.13687 1.10117
 C208 C 0.36110 1.09339 1.07081
 C209 C 0.38378 1.06429 1.08067
 H210 H 0.23990 1.12217 1.18594
 H211 H 0.36594 1.10791 1.04572
 H212 H 0.20992 1.16319 1.11775
 H213 H 0.37758 1.04890 1.10489
 C214 C 0.20504 0.80863 0.81834
 C215 C 0.21793 0.84440 0.81923
 C216 C 0.25472 0.85415 0.83459
 N217 N 0.26773 0.88854 0.83112
 N218 N 0.30081 0.89789 0.84526
 C219 C 0.32205 0.87323 0.86357
 N220 N 0.30898 0.83888 0.86720
 N221 N 0.27596 0.82948 0.85289
 C222 C 0.35838 0.88339 0.87980
 C223 C 0.37493 0.91667 0.87255
 H224 H 0.20036 0.86599 0.80884
 H225 H 0.37250 0.86419 0.89757
 H226 H 0.22247 0.78738 0.82968
 H227 H 0.36152 0.93535 0.85371
 C228 C 0.78520 0.84475 1.16702
 C229 C 0.75848 0.82782 1.14427
 C230 C 0.72675 0.84738 1.12815
 N231 N 0.70485 0.83061 1.10229
 N232 N 0.67589 0.84779 1.08731
 C233 C 0.66767 0.88235 1.09778
 N234 N 0.68946 0.89909 1.12378
 N235 N 0.71856 0.88197 1.13863
 C236 C 0.63541 0.90137 1.08197
 C237 C 0.61543 0.88763 1.05167
 H238 H 0.76078 0.79913 1.13771
 H239 H 0.62739 0.92703 1.09434
 H240 H 0.78201 0.87329 1.17395
 H241 H 0.62427 0.86291 1.03805
 C242 C 0.78525 1.18341 0.84215
 C243 C 0.77225 1.14787 0.84518
 C244 C 0.73825 1.13869 0.86443
 N245 N 0.72495 1.10424 0.86203
 N246 N 0.69362 1.09537 0.87808
 C247 C 0.67438 1.12052 0.89738
 N248 N 0.68797 1.15494 0.90034
 N249 N 0.71932 1.16390 0.88406
 C250 C 0.63865 1.11083 0.91343
 C251 C 0.61999 1.07965 0.90117
 H252 H 0.78715 1.12577 0.83241
 H253 H 0.62612 1.12902 0.93309
 H254 H 0.77083 1.20521 0.85599
 H255 H 0.63188 1.06316 0.87967
 C256 C 0.15527 0.19275 0.15748
 C257 C 0.16889 0.22449 0.14236
 C258 C 0.14567 0.25687 0.13664
 N259 N 0.16065 0.28693 0.12184
 N260 N 0.14044 0.31679 0.11705
 C261 C 0.10447 0.31790 0.12702
 N262 N 0.08945 0.28786 0.14202
 N263 N 0.10970 0.25788 0.14677
 C264 C 0.08201 0.35086 0.12076
 C265 C 0.09624 0.37934 0.10069
 H266 H 0.19801 0.22644 0.13634
 H267 H 0.05389 0.35202 0.13029
 H268 H 0.12637 0.19154 0.16463
 H269 H 0.12382 0.37698 0.08998
 C270 C -0.16207 0.22514 -0.17004
 C271 C -0.15987 0.24016 -0.13483
 C272 C -0.13959 0.27397 -0.12607
 N273 N -0.14227 0.28897 -0.09218
 N274 N -0.12481 0.31992 -0.08361
 C275 C -0.10383 0.33707 -0.10851
 N276 N -0.10068 0.32182 -0.14236
 N277 N -0.11834 0.29084 -0.15103
 C278 C -0.08559 0.37196 -0.09890
 C279 C -0.09657 0.39118 -0.06799
 H280 H -0.17366 0.22677 -0.11270
 H281 H -0.06446 0.38280 -0.11626
 H282 H -0.14735 0.23819 -0.19180
 H283 H -0.11908 0.38067 -0.05215
 C284 C 0.14813 0.77015 -0.17794
 C285 C 0.15693 0.75701 -0.14309
 C286 C 0.13598 0.72706 -0.12723
 N287 N 0.14647 0.71362 -0.09410
 N288 N 0.12805 0.68603 -0.07977
 C289 C 0.09842 0.67097 -0.09801
 N290 N 0.08780 0.68456 -0.13101
 N291 N 0.10625 0.71209 -0.14537
 C292 C 0.07851 0.63986 -0.08315
 C293 C 0.09036 0.62292 -0.05108
 H294 H 0.17950 0.76888 -0.12689
 H295 H 0.05476 0.62921 -0.09860
 H296 H 0.12446 0.75868 -0.19292
 H297 H 0.11431 0.63317 -0.03569
 C298 C -0.17020 0.79319 0.16315
 C299 C -0.15220 0.76520 0.18188
 C300 C -0.14113 0.73141 0.16335
 N301 N -0.12130 0.70610 0.18212
 N302 N -0.11134 0.67517 0.16578
 C303 C -0.12103 0.66836 0.13012
 N304 N -0.14101 0.69359 0.11140
 N305 N -0.15085 0.72458 0.12770
 C306 C -0.11006 0.63450 0.11166
 C307 C -0.08564 0.61006 0.12814
 H308 H -0.14684 0.76768 0.21115
 H309 H -0.12047 0.62933 0.08395
 H310 H -0.17598 0.79002 0.13400
 H311 H -0.07407 0.61569 0.15532
 C312 C 1.18813 0.19991 0.76682
 C313 C 1.15378 0.18714 0.75419
 C314 C 1.14955 0.16375 0.72129
 N315 N 1.11696 0.14636 0.71431
 N316 N 1.11262 0.12479 0.68493
 C317 C 1.14068 0.11968 0.66133
 N318 N 1.17332 0.13713 0.66826
 N319 N 1.17774 0.15861 0.69781
 C320 C 1.13495 0.09782 0.62743
 C321 C 1.10153 0.07994 0.62027
 H322 H 1.12969 0.19205 0.77058
 H323 H 1.15543 0.09906 0.60632
 H324 H 1.21268 0.19250 0.75202
 H325 H 1.08067 0.08018 0.64104
 C326 C 0.83740 -0.16700 0.78356
 C327 C 0.87275 -0.16584 0.76865
 C328 C 0.88043 -0.14312 0.73650
 N329 N 0.91399 -0.14475 0.72075
 N330 N 0.92127 -0.12426 0.69189
 C331 C 0.89538 -0.10113 0.67776
 N332 N 0.86193 -0.09926 0.69370
 N333 N 0.85460 -0.11987 0.72247
 C334 C 0.90297 -0.07896 0.64525
 C335 C 0.93424 -0.08528 0.62465
 H336 H 0.89579 -0.18013 0.78130
 H337 H 0.88290 -0.05882 0.63638
 H338 H 0.81628 -0.15125 0.76941
 H339 H 0.95321 -0.10666 0.63284
 C340 C 1.18391 -0.16541 0.22175
 C341 C 1.14700 -0.16217 0.23145
 C342 C 1.13633 -0.14073 0.26388
 N343 N 1.10060 -0.14044 0.27439
 N344 N 1.09057 -0.12058 0.30326
 C345 C 1.11583 -0.10001 0.32254
 N346 N 1.15149 -0.10010 0.31187
 N347 N 1.16155 -0.12010 0.28311
 C348 C 1.10521 -0.07845 0.35489
 C349 C 1.07096 -0.08311 0.37070
 H350 H 1.12535 -0.17410 0.21406
 H351 H 1.12543 -0.06019 0.36768
 H352 H 1.20498 -0.15225 0.23900
 H353 H 1.05151 -0.10275 0.35892
 C354 C 0.80840 0.16369 0.22381
 C355 C 0.84274 0.16505 0.24262
 C356 C 0.85070 0.14579 0.27708
 N357 N 0.88386 0.15131 0.29444
 N358 N 0.89200 0.13482 0.32585
 C359 C 0.86739 0.11200 0.34126
 N360 N 0.83420 0.10614 0.32375
 N361 N 0.82594 0.12283 0.29224
 C362 C 0.87694 0.09409 0.37632
 C363 C 0.90827 0.10539 0.39645
 H364 H 0.86552 0.18018 0.23160
 H365 H 0.85979 0.07222 0.38606
 H366 H 0.78774 0.14562 0.23459
 H367 H 0.92423 0.12812 0.38668
 C368 C 0.16826 0.24567 -0.18687
 C369 C 0.16430 0.25598 -0.15025
 C370 C 0.14110 0.28663 -0.13849
 N371 N 0.14145 0.29636 -0.10254
 N372 N 0.12182 0.32467 -0.09108
 C373 C 0.10089 0.34441 -0.11506
 N374 N 0.10010 0.33443 -0.15106
 N375 N 0.11992 0.30607 -0.16259
 C376 C 0.08055 0.37680 -0.10225
 C377 C 0.08822 0.39132 -0.06742
 H378 H 0.17925 0.24133 -0.12900
 H379 H 0.06107 0.39021 -0.12065
 H380 H 0.15187 0.25925 -0.20789
 H381 H 0.10922 0.37861 -0.05015
 C382 C -0.17949 0.21420 0.18556
 C383 C -0.17821 0.23070 0.15113
 C384 C -0.15573 0.26343 0.14466
 N385 N -0.15797 0.27969 0.11153
 N386 N -0.13797 0.30927 0.10499
 C387 C -0.11475 0.32369 0.13127
 N388 N -0.11224 0.30727 0.16437
 N389 N -0.13240 0.27772 0.17097
 C390 C -0.09311 0.35690 0.12422
 C391 C -0.10057 0.37751 0.09312
 H392 H -0.19271 0.21890 0.12754
 H393 H -0.07229 0.36595 0.14422
 H394 H -0.16271 0.22666 0.20732
 H395 H -0.12265 0.36908 0.07420
 C396 C -0.15013 0.78635 -0.17239
 C397 C -0.15309 0.77198 -0.13701
 C398 C -0.13360 0.73903 -0.12429
 N399 N -0.14073 0.72596 -0.09056
 N400 N -0.12447 0.69572 -0.07853
 C401 C -0.10031 0.67732 -0.09973
 N402 N -0.09292 0.69050 -0.13343
 N403 N -0.10933 0.72075 -0.14555
 C404 C -0.08259 0.64347 -0.08673
 C405 C -0.09317 0.62667 -0.05450
 H406 H -0.17040 0.78525 -0.11716
 H407 H -0.06153 0.63104 -0.10333
 H408 H -0.12972 0.77414 -0.18989
 H409 H -0.11502 0.63849 -0.03849
 C410 C 0.17540 0.79030 0.16845
 C411 C 0.16009 0.76148 0.18750
 C412 C 0.14520 0.72880 0.16840
 N413 N 0.12721 0.70295 0.18738
 N414 N 0.11457 0.67282 0.17054
 C415 C 0.11971 0.66731 0.13412
 N416 N 0.13781 0.69310 0.11519
 N417 N 0.15025 0.72329 0.13198
 C418 C 0.10655 0.63398 0.11508
 C419 C 0.08298 0.60917 0.13124
 H420 H 0.16025 0.76222 0.21718
 H421 H 0.11486 0.62938 0.08708
 H422 H 0.17515 0.78898 0.13878
 H423 H 0.07304 0.61444 0.15855
 C424 C 0.22346 1.20574 0.82580
 C425 C 0.23640 1.17003 0.82511
 C426 C 0.26805 1.15715 0.84744
 N427 N 0.27937 1.12230 0.84309
 N428 N 0.30857 1.10988 0.86197
 C429 C 0.32764 1.13176 0.88609
 N430 N 0.31607 1.16662 0.89086
 N431 N 0.28679 1.17913 0.87182
 C432 C 0.36107 1.11813 0.90551
 C433 C 0.37685 1.08538 0.89445
 H434 H 0.22273 1.15032 0.80704
 H435 H 0.37432 1.13455 0.92696
 H436 H 0.23599 1.22525 0.84489
 H437 H 0.36429 1.07024 0.87168
 C438 C 0.22503 0.83816 1.16992
 C439 C 0.24446 0.82323 1.14077
 C440 C 0.27584 0.84254 1.12495
 N441 N 0.29299 0.82837 1.09537
 N442 N 0.32154 0.84563 1.08099
 C443 C 0.33401 0.87765 1.09574
 N444 N 0.31692 0.89175 1.12532
 N445 N 0.28834 0.87456 1.13962
 C446 C 0.36571 0.89694 1.08070
 C447 C 0.38302 0.88531 1.04902
 H448 H 0.23713 0.79674 1.12953
 H449 H 0.37565 0.92118 1.09506
 H450 H 0.23399 0.86426 1.18119
 H451 H 0.37283 0.86162 1.03394
 C452 C 0.77090 1.17340 1.16998
 C453 C 0.75516 1.13847 1.16893
 C454 C 0.72326 1.12856 1.14479
 N455 N 0.70947 1.09427 1.14573
 N456 N 0.68056 1.08456 1.12441
 C457 C 0.66429 1.10872 1.10119
 N458 N 0.67816 1.14305 1.10008
 N459 N 0.70711 1.15281 1.12151
 C460 C 0.63185 1.09804 1.07799
 C461 C 0.61548 1.06396 1.08156
 H462 H 0.76717 1.11682 1.18512
 H463 H 0.62021 1.11737 1.05872
 H464 H 0.75917 1.19299 1.15107
 H465 H 0.62682 1.04515 1.10152
 C466 C 0.79555 0.82291 0.83143
 C467 C 0.77747 0.85649 0.82786
 C468 C 0.74118 0.86404 0.84358
 N469 N 0.72448 0.89635 0.83673
 N470 N 0.69143 0.90379 0.85019
 C471 C 0.67380 0.87923 0.87111
 N472 N 0.69055 0.84693 0.87815
 N473 N 0.72362 0.83941 0.86455
 C474 C 0.63730 0.88748 0.88617
 C475 C 0.61807 0.91883 0.87629
 H476 H 0.79037 0.87870 0.81374
 H477 H 0.62544 0.86869 0.90528
 H478 H 0.78269 0.80302 0.84868
 H479 H 0.62958 0.93715 0.85652
   
