data_POSCAR
  _audit_creation_date              2014-09-24
  _audit_creation_method            'ToBaCCo'
  _symmetry_space_group_name_H-M    'P1'
  _symmetry_Int_Tables_number       1
  _symmetry_cell_setting            triclinic
  loop_
  _symmetry_equiv_pos_as_xyz
 x,y,z
_cell_length_a 49.1680
_cell_length_b 49.1176
_cell_length_c 17.0430
_cell_angle_alpha 89.966500
_cell_angle_beta 90.016200
_cell_angle_gamma 119.963500
loop_
  _atom_site_label
  _atom_site_type_symbol
  _atom_site_fract_x
  _atom_site_fract_y
  _atom_site_fract_z
O1 O 0.26446 0.47571 0.57233
 O2 O 0.21046 0.47483 0.42142
 O3 O 0.26404 0.47577 0.42071
 O4 O 0.21087 0.47467 0.57384
 O5 O 0.23600 0.52664 0.57422
 O6 O 0.28936 0.52774 0.42072
 O7 O 0.23560 0.52678 0.42143
 O8 O 0.28975 0.52768 0.57272
 Cu9 Cu 0.23486 0.47002 0.49702
 Cu10 Cu 0.26516 0.53247 0.49725
 C11 C 0.28648 0.50180 0.59720
 C12 C 0.21373 0.50062 0.39633
 C13 C 0.28597 0.50189 0.39577
 C14 C 0.21430 0.50042 0.59955
 O15 O 0.52440 -0.26548 0.42348
 O16 O 0.52532 -0.21167 0.57508
 O17 O 0.52443 -0.26525 0.57522
 O18 O 0.52527 -0.21189 0.42276
 O19 O 0.47336 -0.23717 0.42265
 O20 O 0.47251 -0.29072 0.57550
 O21 O 0.47342 -0.23698 0.57538
 O22 O 0.47249 -0.29095 0.42341
 Cu23 Cu 0.53007 -0.23599 0.49911
 Cu24 Cu 0.46770 -0.26646 0.49921
 C25 C 0.49834 -0.28757 0.39865
 C26 C 0.49955 -0.21507 0.60044
 C27 C 0.49838 -0.28725 0.60033
 C28 C 0.49950 -0.21532 0.39742
 O29 O 1.26315 0.78938 0.42501
 O30 O 1.20965 0.73606 0.57640
 O31 O 1.26276 0.78911 0.57710
 O32 O 1.21012 0.73641 0.42407
 O33 O 1.23589 0.71020 0.42415
 O34 O 1.28870 0.76307 0.57757
 O35 O 1.23543 0.70987 0.57682
 O36 O 1.28908 0.76334 0.42505
 Cu37 Cu 1.23381 0.76535 0.50065
 Cu38 Cu 1.26488 0.73397 0.50097
 C39 C 1.28528 0.78553 0.39988
 C40 C 1.21329 0.71380 0.60171
 C41 C 1.28480 0.78521 0.60263
 C42 C 1.21394 0.71429 0.39864
 O43 O 0.78888 0.52461 0.42533
 O44 O 0.73564 0.52551 0.57584
 O45 O 0.78836 0.52471 0.57692
 O46 O 0.73630 0.52559 0.42347
 O47 O 0.70967 0.47362 0.42330
 O48 O 0.76193 0.47273 0.57710
 O49 O 0.70905 0.47356 0.57610
 O50 O 0.76241 0.47264 0.42518
 Cu51 Cu 0.76490 0.53033 0.50041
 Cu52 Cu 0.73300 0.46788 0.50045
 C53 C 0.78494 0.49852 0.40066
 C54 C 0.71322 0.49972 0.60103
 C55 C 0.78429 0.49863 0.60198
 C56 C 0.71407 0.49980 0.39784
 O57 O 0.47485 0.26370 0.42536
 O58 O 0.47549 0.21041 0.57645
 O59 O 0.47454 0.26306 0.57781
 O60 O 0.47558 0.21091 0.42481
 O61 O 0.52751 0.23736 0.42506
 O62 O 0.52645 0.28971 0.57841
 O63 O 0.52740 0.23689 0.57709
 O64 O 0.52675 0.29031 0.42561
 Cu65 Cu 0.46990 0.23441 0.50105
 Cu66 Cu 0.53228 0.26632 0.50158
 C67 C 0.50066 0.28613 0.40034
 C68 C 0.50151 0.21435 0.60149
 C69 C 0.50028 0.28532 0.60355
 C70 C 0.50167 0.21500 0.39997
 O71 O 0.73536 0.21188 0.42574
 O72 O 0.78905 0.26543 0.57648
 O73 O 0.73588 0.21219 0.57751
 O74 O 0.78850 0.26498 0.42462
 O75 O 0.76269 0.29114 0.42473
 O76 O 0.70989 0.23817 0.57795
 O77 O 0.76321 0.29156 0.57686
 O78 O 0.70939 0.23787 0.42575
 Cu79 Cu 0.76481 0.23600 0.50111
 Cu80 Cu 0.73367 0.26732 0.50140
 C81 C 0.71307 0.21556 0.40102
 C82 C 0.78551 0.28782 0.60131
 C83 C 0.71372 0.21594 0.60267
 C84 C 0.78477 0.28721 0.39960
 O85 O 0.95648 0.43155 0.14413
 O86 O 0.92176 0.43835 0.06861
 C87 C 0.92819 0.42441 0.12414
 O88 O 1.04436 0.57156 0.13592
 O89 O 1.07902 0.56328 0.06438
 C90 C 1.07265 0.57860 0.11623
 O91 O 0.95666 0.52475 0.14499
 O92 O 0.92178 0.48367 0.06858
 C93 C 0.92830 0.50384 0.12472
 O94 O 1.04429 0.47318 0.13740
 O95 O 1.07896 0.51644 0.06651
 C96 C 1.07260 0.49467 0.11833
 Zr97 Zr 1.00035 0.46612 0.09837
 O98 O 1.00325 0.46625 0.22236
 O99 O 0.99897 0.42252 0.08991
 Zr100 Zr 1.00031 0.53510 0.09599
 O101 O 1.00284 0.54080 0.21910
 O102 O 0.99662 0.57612 0.08512
 O103 O 0.97253 0.48673 0.11306
 O104 O 1.02743 0.51421 0.11201
 O105 O 1.04428 0.47261 -0.13737
 O106 O 1.07897 0.51597 -0.06703
 C107 C 1.07258 0.49404 -0.11822
 O108 O 0.95628 0.52502 -0.14583
 O109 O 0.92165 0.48348 -0.07023
 C110 C 0.92801 0.50388 -0.12566
 O111 O 1.04416 0.57110 -0.13996
 O112 O 1.07892 0.56288 -0.06842
 C113 C 1.07249 0.57812 -0.12056
 O114 O 0.95659 0.43182 -0.14663
 O115 O 0.92176 0.43817 -0.07039
 C116 C 0.92824 0.42443 -0.12638
 Zr117 Zr 1.00028 0.46533 -0.09812
 O118 O 1.00274 0.46238 -0.22131
 O119 O 0.99701 0.42080 -0.08781
 Zr120 Zr 1.00021 0.53427 -0.10073
 O121 O 1.00345 0.53611 -0.22473
 O122 O 0.99684 0.57560 -0.09944
 Zr123 Zr 0.95321 0.47666 -0.00099
 Zr124 Zr 1.04723 0.52372 -0.00116
 O125 O 1.02738 0.51333 -0.11431
 O126 O 0.97240 0.48583 -0.11520
 O127 O 1.02867 0.47469 0.00028
 O128 O 0.97259 0.52576 -0.00227
 O129 O 0.97257 0.44695 0.00023
 O130 O 1.02858 0.55418 -0.00254
 H131 H 1.04124 0.52119 0.15877
 H132 H 0.95810 0.53429 -0.00218
 H133 H 1.04124 0.52012 -0.16098
 H134 H 0.95811 0.42391 0.00026
 H135 H 1.01715 0.59339 0.06692
 H136 H 1.01514 0.59181 -0.07006
 H137 H 0.98568 0.51643 -0.24544
 H138 H 0.99832 0.47833 -0.24353
 H139 H 1.01593 0.42383 -0.05960
 H140 H 0.99905 0.41564 0.14453
 H141 H 0.98668 0.47007 0.24330
 H142 H 0.99886 0.52061 0.24159
 O143 O 0.43183 0.47581 0.14385
 O144 O 0.43854 0.51724 0.06793
 C145 C 0.42462 0.49692 0.12358
 O146 O 0.57173 0.52767 0.13550
 O147 O 0.56339 0.48461 0.06423
 C148 C 0.57873 0.50635 0.11593
 O149 O 0.52492 0.56867 0.14422
 O150 O 0.48385 0.56248 0.06775
 C151 C 0.50401 0.57614 0.12389
 O152 O 0.47345 0.42954 0.13783
 O153 O 0.51657 0.43790 0.06680
 C154 C 0.49486 0.42260 0.11873
 Zr155 Zr 0.46638 0.46639 0.09831
 O156 O 0.46666 0.46385 0.22233
 O157 O 0.42292 0.42413 0.09008
 Zr158 Zr 0.53528 0.53532 0.09541
 O159 O 0.54100 0.53858 0.21851
 O160 O 0.57622 0.57999 0.08410
 O161 O 0.48696 0.51484 0.11257
 O162 O 0.51443 0.48733 0.11175
 O163 O 0.47275 0.42856 -0.13696
 O164 O 0.51609 0.43723 -0.06646
 C165 C 0.49417 0.42166 -0.11759
 O166 O 0.52502 0.56895 -0.14687
 O167 O 0.48355 0.56222 -0.07138
 C168 C 0.50389 0.57614 -0.12694
 O169 O 0.57111 0.52711 -0.14050
 O170 O 0.56295 0.48420 -0.06858
 C171 C 0.57814 0.50579 -0.12089
 O172 O 0.43196 0.47557 -0.14688
 O173 O 0.43833 0.51688 -0.07105
 C174 C 0.42458 0.49658 -0.12688
 Zr175 Zr 0.46545 0.46538 -0.09814
 O176 O 0.46243 0.45976 -0.22125
 O177 O 0.42095 0.42421 -0.08764
 Zr178 Zr 0.53432 0.53432 -0.10131
 O179 O 0.53609 0.53276 -0.22530
 O180 O 0.57560 0.57898 -0.10007
 Zr181 Zr 0.47682 0.52395 -0.00158
 Zr182 Zr 0.52385 0.47687 -0.00128
 O183 O 0.51338 0.48619 -0.11451
 O184 O 0.48592 0.51374 -0.11565
 O185 O 0.47487 0.44647 0.00044
 O186 O 0.52586 0.55359 -0.00303
 O187 O 0.44714 0.47489 0.00008
 O188 O 0.55428 0.52595 -0.00301
 H189 H 0.52143 0.48056 0.15861
 H190 H 0.53434 0.57662 -0.00319
 H191 H 0.52016 0.47901 -0.16101
 H192 H 0.42412 0.46636 0.00013
 H193 H 0.59348 0.57668 0.06609
 H194 H 0.59186 0.57686 -0.07097
 H195 H 0.51637 0.53073 -0.24611
 H196 H 0.47828 0.48011 -0.24364
 H197 H 0.42399 0.40833 -0.05927
 H198 H 0.41603 0.41735 0.14477
 H199 H 0.47039 0.48425 0.24303
 H200 H 0.52080 0.52249 0.24103
 O201 O 0.47531 0.04333 0.14553
 O202 O 0.51628 0.07820 0.06879
 C203 C 0.49615 0.07169 0.12494
 O204 O 0.52690 -0.04437 0.13777
 O205 O 0.48356 -0.07905 0.06729
 C206 C 0.50541 -0.07269 0.11870
 O207 O 0.56838 0.04346 0.14501
 O208 O 0.56160 0.07825 0.06960
 C209 C 0.57552 0.07181 0.12521
 O210 O 0.42862 -0.04441 0.13737
 O211 O 0.43675 -0.07915 0.06555
 C212 C 0.42154 -0.07275 0.11771
 Zr213 Zr 0.46499 -0.00036 0.09683
 O214 O 0.45937 -0.00271 0.21994
 O215 O 0.42401 0.00330 0.08584
 Zr216 Zr 0.53389 -0.00043 0.09890
 O217 O 0.53384 -0.00336 0.22292
 O218 O 0.57743 0.00093 0.09016
 O219 O 0.51332 0.02743 0.11372
 O220 O 0.48586 -0.02750 0.11270
 O221 O 0.42888 -0.04431 -0.13883
 O222 O 0.43724 -0.07908 -0.06762
 C223 C 0.42190 -0.07265 -0.11935
 O224 O 0.56815 0.04338 -0.14572
 O225 O 0.56182 0.07822 -0.06935
 C226 C 0.57558 0.07174 -0.12522
 O227 O 0.52723 -0.04445 -0.13711
 O228 O 0.48400 -0.07915 -0.06639
 C229 C 0.50580 -0.07278 -0.11795
 O230 O 0.47503 0.04365 -0.14544
 O231 O 0.51661 0.07836 -0.07021
 C232 C 0.49622 0.07197 -0.12568
 Zr233 Zr 0.46574 -0.00029 -0.09990
 O234 O 0.46371 -0.00364 -0.22387
 O235 O 0.42451 0.00319 -0.09810
 Zr236 Zr 0.53459 -0.00040 -0.09752
 O237 O 0.53761 -0.00276 -0.22073
 O238 O 0.57907 0.00282 -0.08717
 Zr239 Zr 0.52334 0.04676 -0.00035
 Zr240 Zr 0.47627 -0.04734 -0.00034
 O241 O 0.48663 -0.02750 -0.11357
 O242 O 0.51414 0.02753 -0.11452
 O243 O 0.44585 -0.02866 -0.00164
 O244 O 0.55302 0.02738 0.00081
 O245 O 0.47431 0.02739 -0.00151
 O246 O 0.52523 -0.02883 0.00089
 H247 H 0.47894 -0.04128 0.15957
 H248 H 0.57603 0.04186 0.00100
 H249 H 0.47979 -0.04140 -0.16020
 H250 H 0.46582 0.04193 -0.00157
 H251 H 0.58434 0.00091 0.14477
 H252 H 0.57599 -0.01622 -0.05941
 H253 H 0.52144 0.00132 -0.24290
 H254 H 0.48345 0.01400 -0.24474
 H255 H 0.40827 -0.01520 -0.06899
 H256 H 0.40676 -0.01733 0.06819
 H257 H 0.47939 0.00082 0.24233
 H258 H 0.52987 0.01309 0.24402
 C259 C 1.14846 0.49709 0.24964
 C260 C 1.15475 0.52021 0.19315
 C261 C 1.13022 0.51910 0.14878
 C262 C 1.19269 0.50007 0.34374
 C263 C 1.09318 0.47135 0.21639
 C264 C 1.11769 0.47251 0.26047
 C265 C 1.17308 0.49903 0.29936
 C266 C 1.09905 0.49483 0.16064
 H267 H 1.17850 0.53935 0.18425
 H268 H 1.13561 0.53755 0.10638
 H269 H 1.06956 0.45228 0.22700
 H270 H 1.11254 0.45447 0.30398
 C271 C 0.50053 0.64882 0.25635
 C272 C 0.47829 0.63283 0.19752
 C273 C 0.47954 0.60939 0.15359
 C274 C 0.49827 0.69130 0.34720
 C275 C 0.52540 0.61805 0.22712
 C276 C 0.52411 0.64143 0.27073
 C277 C 0.49889 0.67211 0.30422
 C278 C 0.50303 0.60159 0.16827
 H279 H 0.45985 0.63828 0.18609
 H280 H 0.46194 0.59719 0.10880
 H281 H 0.54384 0.61276 0.23997
 H282 H 0.54139 0.65357 0.31630
 C283 C 0.34830 -0.14855 0.24953
 C284 C 0.35438 -0.11776 0.25973
 C285 C 0.37763 -0.09330 0.21538
 C286 C 0.30702 -0.19255 0.34398
 C287 C 0.38841 -0.13046 0.14855
 C288 C 0.36508 -0.15494 0.19321
 C289 C 0.32565 -0.17307 0.29945
 C290 C 0.39524 -0.09924 0.15992
 H291 H 0.34141 -0.11257 0.30284
 H292 H 0.38213 -0.06964 0.22551
 H293 H 0.40147 -0.13591 0.10639
 H294 H 0.36045 -0.17873 0.18457
 C295 C 0.85216 0.50059 0.25659
 C296 C 0.84592 0.47835 0.19774
 C297 C 0.87061 0.47949 0.15409
 C298 C 0.80729 0.49843 0.34664
 C299 C 0.90779 0.52523 0.22803
 C300 C 0.88312 0.52404 0.27138
 C301 C 0.82719 0.49904 0.30410
 C302 C 0.90188 0.50290 0.16904
 H303 H 0.82205 0.45995 0.18614
 H304 H 0.86521 0.46186 0.10935
 H305 H 0.93151 0.54354 0.24126
 H306 H 0.88826 0.54127 0.31710
 C307 C 0.49723 0.34910 0.25030
 C308 C 0.52035 0.36589 0.19384
 C309 C 0.51924 0.38931 0.14935
 C310 C 0.50017 0.30780 0.34455
 C311 C 0.47153 0.37873 0.21681
 C312 C 0.47269 0.35538 0.26102
 C313 C 0.49915 0.32641 0.30013
 C314 C 0.49499 0.39627 0.16108
 H315 H 0.53949 0.36126 0.18514
 H316 H 0.53769 0.40235 0.10703
 H317 H 0.45250 0.38335 0.22740
 H318 H 0.45470 0.34259 0.30463
 C319 C 0.64842 0.14819 0.25643
 C320 C 0.63213 0.15433 0.19816
 C321 C 0.60863 0.12957 0.15461
 C322 C 0.69085 0.19314 0.34678
 C323 C 0.61785 0.09252 0.22737
 C324 C 0.64129 0.11726 0.27062
 C325 C 0.67169 0.17320 0.30409
 C326 C 0.60108 0.09831 0.16909
 H327 H 0.63733 0.17818 0.18698
 H328 H 0.59617 0.13490 0.11034
 H329 H 0.61272 0.06881 0.24012
 H330 H 0.65363 0.11221 0.31586
 C331 C 0.49934 0.14832 -0.25685
 C332 C 0.52177 0.15448 -0.19856
 C333 C 0.52062 0.12973 -0.15501
 C334 C 0.50154 0.19318 -0.34724
 C335 C 0.47449 0.09265 -0.22783
 C336 C 0.47567 0.11738 -0.27108
 C337 C 0.50093 0.17331 -0.30445
 C338 C 0.49704 0.09847 -0.16950
 H339 H 0.54031 0.17833 -0.18731
 H340 H 0.53840 0.13505 -0.11076
 H341 H 0.45604 0.06895 -0.24068
 H342 H 0.45827 0.11229 -0.31631
 C343 C 0.65154 0.50328 -0.25217
 C344 C 0.64512 0.52772 -0.26354
 C345 C 0.62182 0.52894 -0.21942
 C346 C 0.69273 0.50024 -0.34638
 C347 C 0.61156 0.48149 -0.15077
 C348 C 0.63493 0.48033 -0.19517
 C349 C 0.67416 0.50128 -0.30194
 C350 C 0.60446 0.50563 -0.16311
 H351 H 0.65776 0.54556 -0.30762
 H352 H 0.61706 0.54787 -0.23056
 H353 H 0.59863 0.46314 -0.10808
 H354 H 0.63965 0.46125 -0.18602
 C355 C 0.85189 0.35146 -0.25765
 C356 C 0.88282 0.35882 -0.27242
 C357 C 0.90756 0.38231 -0.22926
 C358 C 0.80687 0.30891 -0.34768
 C359 C 0.87052 0.39112 -0.15543
 C360 C 0.84577 0.36758 -0.19889
 C361 C 0.82685 0.32810 -0.30511
 C362 C 0.90177 0.39890 -0.17047
 H363 H 0.88786 0.34658 -0.31794
 H364 H 0.93125 0.38759 -0.24241
 H365 H 0.86520 0.40342 -0.11071
 H366 H 0.82192 0.36216 -0.18715
 C367 C 0.50327 -0.14874 -0.24912
 C368 C 0.48013 -0.15500 -0.19282
 C369 C 0.48132 -0.13044 -0.14840
 C370 C 0.50013 -0.19295 -0.34362
 C371 C 0.52921 -0.09344 -0.21542
 C372 C 0.52797 -0.11798 -0.25956
 C373 C 0.50122 -0.17334 -0.29908
 C374 C 0.50567 -0.09928 -0.16000
 H375 H 0.46091 -0.17873 -0.18416
 H376 H 0.46285 -0.13577 -0.10621
 H377 H 0.54835 -0.06982 -0.22579
 H378 H 0.54604 -0.11286 -0.30290
 C379 C 0.35161 0.49980 -0.25859
 C380 C 0.35899 0.47620 -0.27301
 C381 C 0.38248 0.47500 -0.22968
 C382 C 0.30889 0.50192 -0.34864
 C383 C 0.39126 0.52099 -0.15644
 C384 C 0.36772 0.52215 -0.20006
 C385 C 0.32819 0.50134 -0.30607
 C386 C 0.39905 0.49748 -0.17111
 H387 H 0.34676 0.45883 -0.31835
 H388 H 0.38775 0.45653 -0.24251
 H389 H 0.40353 0.53867 -0.11185
 H390 H 0.36228 0.54061 -0.18860
 C391 C 1.14826 0.65172 -0.25171
 C392 C 1.15463 0.63502 -0.19495
 C393 C 1.13012 0.61155 -0.15065
 C394 C 1.19238 0.69318 -0.34571
 C395 C 1.09297 0.62197 -0.21871
 C396 C 1.11745 0.64537 -0.26271
 C397 C 1.17284 0.67448 -0.30136
 C398 C 1.09891 0.60446 -0.16282
 H399 H 1.17842 0.63983 -0.18566
 H400 H 1.13555 0.59862 -0.10798
 H401 H 1.06931 0.61732 -0.22943
 H402 H 1.11224 0.65822 -0.30623
 C403 C 0.85140 0.50091 -0.25398
 C404 C 0.84540 0.47848 -0.19580
 C405 C 0.87027 0.47955 -0.15325
 C406 C 0.80644 0.49857 -0.34351
 C407 C 0.90710 0.52566 -0.22682
 C408 C 0.88225 0.52454 -0.26906
 C409 C 0.82633 0.49924 -0.30097
 C410 C 0.90145 0.50309 -0.16866
 H411 H 0.82160 0.45999 -0.18394
 H412 H 0.86509 0.46176 -0.10905
 H413 H 0.93075 0.54408 -0.24028
 H414 H 0.88715 0.54194 -0.31422
 C415 C 0.49634 0.34766 -0.24622
 C416 C 0.51954 0.36468 -0.19022
 C417 C 0.51844 0.38824 -0.14655
 C418 C 0.49960 0.30665 -0.34024
 C419 C 0.47054 0.37722 -0.21380
 C420 C 0.47168 0.35373 -0.25718
 C421 C 0.49843 0.32509 -0.29576
 C422 C 0.49415 0.39510 -0.15876
 H423 H 0.53873 0.36014 -0.18129
 H424 H 0.53693 0.40147 -0.10449
 H425 H 0.45142 0.38171 -0.22449
 H426 H 0.45361 0.34069 -0.30042
 C427 C 0.64907 0.14837 -0.25388
 C428 C 0.63281 0.15438 -0.19535
 C429 C 0.60907 0.12949 -0.15279
 C430 C 0.69164 0.19357 -0.34300
 C431 C 0.61798 0.09258 -0.22713
 C432 C 0.64169 0.11746 -0.26942
 C433 C 0.67247 0.17352 -0.30068
 C434 C 0.60125 0.09826 -0.16858
 H435 H 0.63824 0.17822 -0.18317
 H436 H 0.59664 0.13470 -0.10820
 H437 H 0.61265 0.06889 -0.24080
 H438 H 0.65404 0.11256 -0.31491
 C439 C 1.14842 0.49637 -0.24863
 C440 C 1.15467 0.51967 -0.19281
 C441 C 1.13015 0.51852 -0.14851
 C442 C 1.19241 0.49971 -0.34382
 C443 C 1.09322 0.47039 -0.21490
 C444 C 1.11773 0.47159 -0.25891
 C445 C 1.17293 0.49850 -0.29884
 C446 C 1.09904 0.49406 -0.15989
 H447 H 1.17835 0.53904 -0.18464
 H448 H 1.13546 0.53714 -0.10679
 H449 H 1.06962 0.45122 -0.22520
 H450 H 1.11261 0.45351 -0.30220
 C451 C 0.50069 0.64932 -0.25737
 C452 C 0.52438 0.64211 -0.27180
 C453 C 0.52559 0.61857 -0.22876
 C454 C 0.49835 0.69175 -0.34797
 C455 C 0.47946 0.60946 -0.15575
 C456 C 0.47828 0.63306 -0.19911
 C457 C 0.49901 0.67261 -0.30496
 C458 C 0.50305 0.60180 -0.17052
 H459 H 0.54175 0.65446 -0.31705
 H460 H 0.54408 0.61336 -0.24169
 H461 H 0.46171 0.59700 -0.11144
 H462 H 0.45975 0.63837 -0.18779
 C463 C 0.34781 -0.14870 -0.24801
 C464 C 0.36463 -0.15498 -0.19156
 C465 C 0.38827 -0.13036 -0.14804
 C466 C 0.30641 -0.19292 -0.34140
 C467 C 0.37783 -0.09327 -0.21659
 C468 C 0.35427 -0.11787 -0.25983
 C469 C 0.32504 -0.17336 -0.29717
 C470 C 0.39541 -0.09914 -0.16083
 H471 H 0.35989 -0.17879 -0.18226
 H472 H 0.40135 -0.13573 -0.10567
 H473 H 0.38263 -0.06959 -0.22799
 H474 H 0.34149 -0.11272 -0.30365
 C475 C 0.50320 -0.14888 0.24776
 C476 C 0.48011 -0.15505 0.19140
 C477 C 0.48118 -0.13039 0.14773
 C478 C 0.50008 -0.19324 0.34147
 C479 C 0.52881 -0.09345 0.21583
 C480 C 0.52768 -0.11810 0.25922
 C481 C 0.50118 -0.17358 0.29715
 C482 C 0.50536 -0.09922 0.16025
 H483 H 0.46099 -0.17880 0.18224
 H484 H 0.46275 -0.13566 0.10544
 H485 H 0.54779 -0.06981 0.22700
 H486 H 0.54562 -0.11305 0.30289
 C487 C 0.35097 0.49983 0.25205
 C488 C 0.36742 0.52235 0.19412
 C489 C 0.39120 0.52129 0.15150
 C490 C 0.30824 0.50204 0.34136
 C491 C 0.38193 0.47505 0.22462
 C492 C 0.35821 0.47615 0.26694
 C493 C 0.32751 0.50142 0.29893
 C494 C 0.39886 0.49771 0.16668
 H495 H 0.36212 0.54090 0.18254
 H496 H 0.40377 0.53911 0.10740
 H497 H 0.38713 0.45656 0.23781
 H498 H 0.34573 0.45872 0.31201
 C499 C 1.14841 0.65205 0.24690
 C500 C 1.11769 0.64604 0.25723
 C501 C 1.09322 0.62274 0.21315
 C502 C 1.19223 0.69287 0.34208
 C503 C 1.13023 0.61173 0.14649
 C504 C 1.15473 0.63510 0.19088
 C505 C 1.17286 0.67448 0.29710
 C506 C 1.09910 0.60500 0.15797
 H507 H 1.11252 0.65893 0.30062
 H508 H 1.06960 0.61825 0.22357
 H509 H 1.13558 0.59849 0.10463
 H510 H 1.17845 0.63952 0.18264
 C511 C 0.49943 0.14806 0.25526
 C512 C 0.52171 0.15419 0.19667
 C513 C 0.52053 0.12940 0.15351
 C514 C 0.50178 0.19290 0.34535
 C515 C 0.47467 0.09235 0.22739
 C516 C 0.47588 0.11714 0.27024
 C517 C 0.50111 0.17306 0.30260
 C518 C 0.49706 0.09816 0.16874
 H519 H 0.54014 0.17805 0.18492
 H520 H 0.53818 0.13470 0.10894
 H521 H 0.45629 0.06864 0.24068
 H522 H 0.45862 0.11214 0.31576
 C523 C 0.65212 0.50377 0.24635
 C524 C 0.64616 0.52854 0.25683
 C525 C 0.62286 0.52980 0.21290
 C526 C 0.69283 0.50042 0.34128
 C527 C 0.61185 0.48181 0.14592
 C528 C 0.63522 0.48060 0.19016
 C529 C 0.67452 0.50161 0.29640
 C530 C 0.60509 0.50621 0.15769
 H531 H 0.65918 0.54665 0.30002
 H532 H 0.61846 0.54901 0.22324
 H533 H 0.59871 0.46332 0.10376
 H534 H 0.63974 0.46137 0.18145
 C535 C 0.85181 0.35132 0.25417
 C536 C 0.84575 0.36773 0.19607
 C537 C 0.87053 0.39131 0.15287
 C538 C 0.80695 0.30916 0.34475
 C539 C 0.90742 0.38186 0.22564
 C540 C 0.88264 0.35834 0.26852
 C541 C 0.82682 0.32816 0.30178
 C542 C 0.90170 0.39878 0.16761
 H543 H 0.82195 0.36256 0.18477
 H544 H 0.86529 0.40390 0.10873
 H545 H 0.93107 0.38694 0.23850
 H546 H 0.88759 0.34585 0.31361
   
