data_POSCAR
  _audit_creation_date              2014-09-24
  _audit_creation_method            'ToBaCCo'
  _symmetry_space_group_name_H-M    'P1'
  _symmetry_Int_Tables_number       1
  _symmetry_cell_setting            triclinic
  loop_
  _symmetry_equiv_pos_as_xyz
 x,y,z
_cell_length_a 24.1401
_cell_length_b 24.7407
_cell_length_c 20.2031
_cell_angle_alpha 90.719400
_cell_angle_beta 89.615200
_cell_angle_gamma 89.979700
loop_
  _atom_site_label
  _atom_site_type_symbol
  _atom_site_fract_x
  _atom_site_fract_y
  _atom_site_fract_z
C1 C 1.26290 0.25877 0.23371
 C2 C 0.75123 -0.26678 0.26580
 C3 C 0.74825 0.24731 -0.25521
 C4 C 1.24048 -0.26255 -0.24926
 C5 C 0.24638 0.26435 0.76659
 C6 C 0.74661 0.73972 0.73326
 C7 C 0.73876 0.25798 0.25995
 C8 C 0.23672 0.73613 0.24585
 O9 O 0.88984 -0.07124 -0.11263
 O10 O 0.93829 -0.13503 -0.05553
 C11 C 0.90040 -0.12118 -0.09889
 O12 O 1.09759 0.07097 -0.11027
 O13 O 1.04685 0.13446 -0.05155
 C14 C 1.08582 0.12045 -0.09399
 O15 O 1.08886 -0.07682 -0.11868
 O16 O 1.04064 -0.13835 -0.05592
 C17 C 1.07718 -0.12583 -0.10130
 O18 O 0.89009 0.07691 -0.10296
 O19 O 0.94528 0.13816 -0.04775
 C20 C 0.90458 0.12608 -0.08763
 Zr21 Zr 0.92250 0.00120 -0.07414
 O22 O 0.92266 0.00682 -0.17872
 O23 O 0.83489 -0.00129 -0.07050
 Zr24 Zr 1.05961 -0.00176 -0.08166
 O25 O 1.04496 0.00030 -0.18456
 O26 O 1.14620 -0.00438 -0.09828
 O27 O 0.98979 -0.05010 -0.09168
 O28 O 0.99178 0.04829 -0.08899
 O29 O 0.89412 0.07213 0.12664
 O30 O 0.94099 0.13526 0.06523
 C31 C 0.90215 0.12120 0.10778
 O32 O 1.09609 -0.07352 0.11952
 O33 O 1.04476 -0.13617 0.06133
 C34 C 1.08332 -0.12263 0.10425
 O35 O 1.10043 0.07091 0.11740
 O36 O 1.05135 0.13434 0.06070
 C37 C 1.09095 0.12037 0.10135
 O38 O 0.89843 -0.07387 0.12959
 O39 O 0.94344 -0.13652 0.06539
 C40 C 0.90830 -0.12356 0.11276
 Zr41 Zr 0.92878 -0.00043 0.09297
 O42 O 0.94353 0.00601 0.19615
 O43 O 0.84297 -0.00742 0.11233
 Zr44 Zr 1.06487 -0.00118 0.08445
 O45 O 1.06427 0.00448 0.18926
 O46 O 1.15243 -0.00635 0.07995
 Zr47 Zr 0.99233 -0.08384 0.00390
 Zr48 Zr 0.99494 0.08265 0.00686
 O49 O 0.99758 0.04840 0.10141
 O50 O 0.99668 -0.05082 0.10068
 O51 O 0.91467 0.04860 0.01108
 O52 O 1.07188 -0.04888 0.00035
 O53 O 0.91417 -0.04655 0.00878
 O54 O 1.07410 0.04668 0.00159
 H55 H 0.99157 0.07292 -0.12728
 H56 H 1.10521 -0.07221 -0.00105
 H57 H 0.99886 0.07380 0.13971
 H58 H 0.88088 -0.06988 0.00978
 H59 H 1.16358 -0.01443 -0.05606
 H60 H 1.16570 0.02089 0.04808
 H61 H 1.04691 -0.02864 0.20687
 H62 H 0.95031 -0.03065 0.21339
 H63 H 0.82467 -0.01638 0.06995
 H64 H 0.82280 0.02352 -0.03446
 H65 H 0.94327 -0.02468 -0.19694
 H66 H 1.08196 0.00068 -0.20603
 O67 O 1.09206 0.58005 0.62142
 O68 O 1.15112 0.53394 0.55105
 C69 C 1.14088 0.56719 0.59990
 O70 O 0.93797 0.38410 0.61100
 O71 O 0.87186 0.43806 0.56428
 C72 C 0.88732 0.39509 0.59676
 O73 O 1.08926 0.39139 0.60774
 O74 O 1.14922 0.44079 0.54403
 C75 C 1.13831 0.40318 0.58600
 O76 O 0.94063 0.59570 0.62221
 O77 O 0.87349 0.54526 0.57204
 C78 C 0.88934 0.58656 0.60746
 Zr79 Zr 1.01343 0.55578 0.59237
 O80 O 1.00966 0.54576 0.69622
 O81 O 1.02302 0.63973 0.60946
 Zr82 Zr 1.01072 0.42321 0.58436
 O83 O 1.00853 0.43120 0.68885
 O84 O 1.01991 0.33903 0.59677
 O85 O 1.06358 0.48787 0.59657
 O86 O 0.96208 0.49008 0.60469
 O87 O 0.93160 0.60542 0.41643
 O88 O 0.86830 0.54972 0.46712
 C89 C 0.88177 0.59277 0.43392
 O90 O 1.07087 0.39517 0.37451
 O91 O 1.13891 0.43813 0.43433
 C92 C 1.12161 0.40210 0.39154
 O93 O 0.92165 0.40125 0.38860
 O94 O 0.86326 0.44813 0.45871
 C95 C 0.87338 0.41147 0.41335
 O96 O 1.08040 0.58750 0.38461
 O97 O 1.14499 0.53572 0.43764
 C98 C 1.13068 0.57221 0.39567
 Zr99 Zr 1.00518 0.56186 0.42546
 O100 O 0.99290 0.55508 0.32222
 O101 O 1.01266 0.64649 0.41485
 Zr102 Zr 0.99973 0.42909 0.41612
 O103 O 0.99172 0.43870 0.31251
 O104 O 0.99183 0.34423 0.40969
 Zr105 Zr 1.09077 0.48994 0.49685
 Zr106 Zr 0.92349 0.49407 0.51185
 O107 O 0.95175 0.49775 0.41344
 O108 O 1.05269 0.49419 0.40342
 O109 O 0.96190 0.57069 0.51370
 O110 O 1.05145 0.41427 0.49530
 O111 O 1.05745 0.56830 0.50536
 O112 O 0.95722 0.41580 0.50367
 H113 H 0.93679 0.48947 0.64356
 H114 H 1.07301 0.38053 0.49247
 H115 H 0.92345 0.50083 0.37834
 H116 H 1.08236 0.60012 0.50489
 H117 H 1.02455 0.32277 0.55201
 H118 H 0.99197 0.33408 0.36198
 H119 H 1.02637 0.45509 0.29561
 H120 H 0.99139 0.59257 0.30572
 H121 H 1.01685 0.66195 0.45985
 H122 H 1.00903 0.65803 0.56969
 H123 H 1.04572 0.53097 0.71020
 H124 H 1.04728 0.43171 0.70452
 O125 O 0.58426 -0.08412 0.62041
 O126 O 0.53562 -0.14478 0.55615
 C127 C 0.57337 -0.13263 0.60081
 O128 O 0.38702 0.06942 0.62033
 O129 O 0.44019 0.13116 0.56610
 C130 C 0.40092 0.11877 0.60886
 O131 O 0.38157 -0.07442 0.61521
 O132 O 0.43080 -0.13940 0.55666
 C133 C 0.39251 -0.12389 0.59945
 O134 O 0.59332 0.05905 0.61795
 O135 O 0.54590 0.12675 0.56675
 C136 C 0.58408 0.10936 0.60741
 Zr137 Zr 0.55350 -0.01072 0.58749
 O138 O 0.54096 -0.01895 0.69082
 O139 O 0.64004 -0.01300 0.60319
 Zr140 Zr 0.41738 -0.00335 0.58180
 O141 O 0.41619 -0.00040 0.68665
 O142 O 0.32970 -0.00401 0.57615
 O143 O 0.48273 -0.05713 0.59589
 O144 O 0.48765 0.04158 0.59909
 O145 O 0.59966 0.06668 0.40017
 O146 O 0.54843 0.13002 0.45683
 C147 C 0.58996 0.11636 0.41854
 O148 O 0.38610 -0.07337 0.37928
 O149 O 0.43120 -0.13897 0.43858
 C150 C 0.39377 -0.12327 0.39578
 O151 O 0.39699 0.07245 0.37907
 O152 O 0.44577 0.13269 0.44415
 C153 C 0.41105 0.12102 0.39606
 O154 O 0.58944 -0.08059 0.38226
 O155 O 0.53665 -0.14286 0.43848
 C156 C 0.57595 -0.12980 0.39614
 Zr157 Zr 0.55986 -0.00715 0.42172
 O158 O 0.55408 -0.00229 0.31760
 O159 O 0.64719 -0.01435 0.41748
 Zr160 Zr 0.42334 -0.00189 0.41586
 O161 O 0.43415 0.00047 0.31174
 O162 O 0.33579 -0.00067 0.40976
 Zr163 Zr 0.48556 -0.08945 0.49870
 Zr164 Zr 0.49183 0.07766 0.50571
 O165 O 0.49442 0.04431 0.40925
 O166 O 0.49003 -0.05452 0.40395
 O167 O 0.56976 0.03863 0.50737
 O168 O 0.40893 -0.04905 0.49724
 O169 O 0.56568 -0.05634 0.50275
 O170 O 0.41068 0.04697 0.50012
 H171 H 0.48799 0.06609 0.63816
 H172 H 0.37426 -0.06959 0.49699
 H173 H 0.49864 0.06909 0.37149
 H174 H 0.59892 -0.07977 0.50204
 H175 H 0.31792 0.02803 0.55104
 H176 H 0.32207 0.02860 0.43935
 H177 H 0.44886 -0.03499 0.29665
 H178 H 0.59266 0.00015 0.30087
 H179 H 0.66202 0.00448 0.45704
 H180 H 0.65767 -0.02497 0.56125
 H181 H 0.52488 0.01467 0.70928
 H182 H 0.43602 -0.03256 0.70285
 O183 O 0.58941 0.60637 0.10047
 O184 O 0.64908 0.54710 0.04763
 C185 C 0.63794 0.58689 0.08837
 O186 O 0.42909 0.42614 0.12566
 O187 O 0.36610 0.46813 0.06013
 C188 C 0.37926 0.43439 0.10670
 O189 O 0.57539 0.41217 0.11984
 O190 O 0.64152 0.44579 0.04964
 C191 C 0.62467 0.41205 0.09501
 O192 O 0.44052 0.62317 0.09523
 O193 O 0.37280 0.57045 0.04739
 C194 C 0.38956 0.61150 0.08276
 Zr195 Zr 0.51246 0.58139 0.06843
 O196 O 0.50663 0.59317 0.17216
 O197 O 0.52426 0.66545 0.05569
 Zr198 Zr 0.50382 0.44944 0.08676
 O199 O 0.51009 0.47172 0.18768
 O200 O 0.49096 0.36803 0.11243
 O201 O 0.55919 0.51266 0.08981
 O202 O 0.45875 0.51964 0.09173
 O203 O 0.43323 0.59867 -0.12571
 O204 O 0.36799 0.55468 -0.06261
 C205 C 0.38242 0.58788 -0.10865
 O206 O 0.57360 0.39816 -0.11378
 O207 O 0.64216 0.44268 -0.05685
 C208 C 0.62461 0.40410 -0.09573
 O209 O 0.42344 0.40260 -0.10444
 O210 O 0.36420 0.45799 -0.04615
 C211 C 0.37472 0.41600 -0.08382
 O212 O 0.58722 0.58363 -0.13674
 O213 O 0.64873 0.53866 -0.07031
 C214 C 0.63692 0.57006 -0.11948
 Zr215 Zr 0.50944 0.56598 -0.09559
 O216 O 0.50355 0.55802 -0.19975
 O217 O 0.51767 0.65079 -0.10250
 Zr218 Zr 0.50021 0.43438 -0.08076
 O219 O 0.49794 0.43624 -0.18526
 O220 O 0.49204 0.34958 -0.08251
 Zr221 Zr 0.59085 0.50010 -0.00690
 Zr222 Zr 0.42244 0.51186 -0.00194
 O223 O 0.45489 0.50203 -0.09838
 O224 O 0.55552 0.49516 -0.10228
 O225 O 0.46189 0.58729 -0.01366
 O226 O 0.54718 0.42721 0.00250
 O227 O 0.56069 0.57979 -0.01593
 O228 O 0.45330 0.43313 0.00611
 H229 H 0.43426 0.52512 0.13085
 H230 H 0.56562 0.39192 0.00328
 H231 H 0.42917 0.49917 -0.13627
 H232 H 0.58717 0.61019 -0.02006
 H233 H 0.47587 0.34932 0.07291
 H234 H 0.48560 0.33845 -0.03630
 H235 H 0.49481 0.39813 -0.20040
 H236 H 0.53023 0.52985 -0.21423
 H237 H 0.51632 0.65913 -0.15033
 H238 H 0.50050 0.67675 0.01862
 H239 H 0.53290 0.56799 0.19275
 H240 H 0.50586 0.43794 0.21304
 C241 C 1.18212 0.13889 0.15333
 C242 C 1.22211 0.17003 0.18490
 C243 C 1.21683 0.22625 0.19342
 C244 C 1.16577 0.24992 0.16862
 C245 C 1.12258 0.21651 0.14122
 C246 C 1.13141 0.16032 0.13149
 C247 C 1.07159 0.24076 0.12567
 N248 N 1.06533 0.29495 0.13097
 N249 N 1.10652 0.32666 0.15082
 C250 C 1.15607 0.30626 0.16912
 H251 H 1.19127 0.09623 0.14759
 H252 H 1.25684 0.14821 0.20415
 H253 H 1.03605 0.21769 0.11036
 H254 H 1.18760 0.33497 0.18152
 C255 C 1.21050 0.63786 0.60388
 C256 C 1.22580 0.68427 0.63884
 C257 C 1.21266 0.69173 0.70708
 C258 C 1.18279 0.64795 0.73826
 C259 C 1.17764 0.59786 0.70471
 C260 C 1.18480 0.59519 0.63581
 C261 C 1.15806 0.55249 0.73907
 N262 N 1.13949 0.55811 0.80202
 N263 N 1.13888 0.60615 0.83216
 C264 C 1.15867 0.65105 0.80228
 H265 H 1.21571 0.63672 0.55078
 H266 H 1.24770 0.71360 0.61024
 H267 H 1.15569 0.51314 0.71512
 H268 H 1.15485 0.68803 0.82987
 C269 C 0.64100 0.19456 0.61601
 C270 C 0.68337 0.22502 0.64599
 C271 C 0.71351 0.20571 0.70179
 C272 C 0.70496 0.15011 0.71688
 C273 C 0.65432 0.12576 0.69858
 C274 C 0.62360 0.14581 0.64366
 C275 C 0.63719 0.08091 0.73569
 N276 N 0.67420 0.05379 0.77286
 N277 N 0.72660 0.06993 0.77683
 C278 C 0.74358 0.11666 0.74889
 H279 H 0.62039 0.21030 0.57296
 H280 H 0.68951 0.26535 0.62759
 H281 H 0.59501 0.06718 0.73489
 H282 H 0.78664 0.12701 0.75362
 C283 C 0.70970 0.65395 0.10602
 C284 C 0.72930 0.69424 0.14820
 C285 C 0.71829 0.69437 0.21744
 C286 C 0.68029 0.65362 0.24090
 C287 C 0.66782 0.60901 0.19921
 C288 C 0.67951 0.61100 0.13094
 C289 C 0.64075 0.56368 0.22592
 N290 N 0.62351 0.56442 0.28967
 N291 N 0.63245 0.60714 0.32858
 C292 C 0.65991 0.65127 0.30665
 H293 H 0.71549 0.65803 0.05308
 H294 H 0.75283 0.72568 0.12465
 H295 H 0.63259 0.52797 0.19601
 H296 H 0.66756 0.68192 0.34249
 C297 C 0.83497 -0.14415 0.19718
 C298 C 0.79895 -0.17650 0.23352
 C299 C 0.79831 -0.23321 0.22747
 C300 C 0.84215 -0.25633 0.18631
 C301 C 0.87804 -0.22263 0.14664
 C302 C 0.87424 -0.16512 0.15138
 C303 C 0.91632 -0.24841 0.10358
 N304 N 0.92075 -0.30285 0.10189
 N305 N 0.88898 -0.33385 0.13941
 C306 C 0.85032 -0.31263 0.18092
 H307 H 0.83063 -0.10102 0.20522
 H308 H 0.77084 -0.15556 0.26680
 H309 H 0.94350 -0.22697 0.07109
 H310 H 0.82527 -0.34071 0.20680
 C311 C 0.79535 0.37059 0.64156
 C312 C 0.76198 0.33516 0.67663
 C313 C 0.77963 0.28178 0.69140
 C314 C 0.82404 0.26086 0.65217
 C315 C 0.85987 0.29719 0.61928
 C316 C 0.84668 0.35365 0.61772
 C317 C 0.90768 0.27522 0.58895
 N318 N 0.91755 0.22140 0.58900
 N319 N 0.88260 0.18730 0.61735
 C320 C 0.83611 0.20515 0.64812
 H321 H 0.78254 0.41237 0.63716
 H322 H 0.72293 0.35111 0.69466
 H323 H 0.93598 0.29931 0.56174
 H324 H 0.80974 0.17542 0.66922
 C325 C 0.30431 -0.17209 0.61580
 C326 C 0.26505 -0.19674 0.65661
 C327 C 0.27944 -0.21866 0.71816
 C328 C 0.33214 -0.20054 0.74527
 C329 C 0.37065 -0.17247 0.70417
 C330 C 0.35842 -0.16260 0.63717
 C331 C 0.42000 -0.15236 0.73205
 N332 N 0.43129 -0.16039 0.79648
 N333 N 0.39664 -0.18741 0.83502
 C334 C 0.34824 -0.20758 0.81200
 H335 H 0.29145 -0.15817 0.56785
 H336 H 0.22397 -0.20155 0.63714
 H337 H 0.44977 -0.12983 0.70332
 H338 H 0.32388 -0.22793 0.84774
 C339 C 0.35977 0.37377 0.19783
 C340 C 0.34245 0.32378 0.21935
 C341 C 0.29862 0.29632 0.18797
 C342 C 0.28358 0.31488 0.12351
 C343 C 0.29865 0.36800 0.10374
 C344 C 0.33974 0.39670 0.13913
 C345 C 0.27264 0.38962 0.04821
 N346 N 0.23985 0.35775 0.01012
 N347 N 0.23372 0.30537 0.02207
 C348 C 0.25634 0.28249 0.07608
 H349 H 0.39129 0.39410 0.22692
 H350 H 0.35801 0.31113 0.26679
 H351 H 0.27709 0.43156 0.03528
 H352 H 0.25280 0.23934 0.08070
 C353 C 0.88609 0.20356 -0.16537
 C354 C 0.84800 0.23172 -0.20451
 C355 C 0.78972 0.22157 -0.20219
 C356 C 0.77156 0.19200 -0.14459
 C357 C 0.81094 0.16887 -0.10109
 C358 C 0.86799 0.16930 -0.11555
 C359 C 0.79249 0.14431 -0.04336
 N360 N 0.73776 0.13882 -0.03086
 N361 N 0.70038 0.15574 -0.07374
 C362 C 0.71554 0.18116 -0.12998
 H363 H 0.92983 0.20801 -0.17497
 H364 H 0.86592 0.26076 -0.23748
 H365 H 0.82222 0.13050 -0.00830
 H366 H 0.68397 0.18803 -0.16464
 C367 C 0.80606 0.60735 0.36111
 C368 C 0.78191 0.64006 0.31503
 C369 C 0.78296 0.69769 0.31856
 C370 C 0.81679 0.72060 0.36956
 C371 C 0.84415 0.68629 0.41543
 C372 C 0.83912 0.62931 0.40960
 C373 C 0.87677 0.70948 0.46541
 N374 N 0.88266 0.76366 0.46938
 N375 N 0.85717 0.79664 0.42473
 C376 C 0.82387 0.77697 0.37381
 H377 H 0.80482 0.56388 0.35312
 H378 H 0.76639 0.61740 0.27357
 H379 H 0.89736 0.68480 0.50164
 H380 H 0.84321 0.80896 0.40073
 C381 C 0.34663 0.19867 0.38370
 C382 C 0.30949 0.22803 0.34531
 C383 C 0.30593 0.22262 0.27471
 C384 C 0.34880 0.19012 0.24438
 C385 C 0.38766 0.16131 0.28422
 C386 C 0.38485 0.16369 0.35457
 C387 C 0.42942 0.13094 0.25217
 N388 N 0.43224 0.12879 0.18527
 N389 N 0.39601 0.15484 0.14804
 C390 C 0.35476 0.18522 0.17506
 H391 H 0.34377 0.20177 0.43718
 H392 H 0.28335 0.25505 0.37364
 H393 H 0.46067 0.10983 0.27973
 H394 H 0.32664 0.20423 0.14160
 C395 C 0.29701 0.64228 -0.11390
 C396 C 0.26762 0.68285 -0.14523
 C397 C 0.27974 0.69809 -0.21108
 C398 C 0.32303 0.66764 -0.24582
 C399 C 0.34849 0.62361 -0.21441
 C400 C 0.33970 0.61534 -0.14670
 C401 C 0.38278 0.58821 -0.25148
 N402 N 0.39613 0.59952 -0.31474
 N403 N 0.37691 0.64362 -0.34332
 C404 C 0.34165 0.67785 -0.31143
 H405 H 0.28748 0.63299 -0.06290
 H406 H 0.23470 0.70128 -0.11688
 H407 H 0.39857 0.55130 -0.23066
 H408 H 0.32934 0.71188 -0.33944
 C409 C 1.16507 -0.17616 -0.11180
 C410 C 1.20451 -0.20486 -0.14902
 C411 C 1.19321 -0.22852 -0.21163
 C412 C 1.13814 -0.21737 -0.23757
 C413 C 1.09740 -0.18995 -0.19719
 C414 C 1.11132 -0.16854 -0.13457
 C415 C 1.04353 -0.18255 -0.22162
 N416 N 1.03090 -0.19899 -0.28367
 N417 N 1.06884 -0.22142 -0.32317
 C418 C 1.12148 -0.23027 -0.30296
 H419 H 1.17751 -0.15785 -0.06518
 H420 H 1.24428 -0.20789 -0.12678
 H421 H 1.01133 -0.16359 -0.19187
 H422 H 1.14894 -0.24558 -0.34008
 C423 C 1.20531 0.38451 0.32923
 C424 C 1.23746 0.35161 0.28945
 C425 C 1.22949 0.29463 0.28472
 C426 C 1.18689 0.27195 0.32556
 C427 C 1.15066 0.30668 0.36129
 C428 C 1.16060 0.36343 0.36260
 C429 C 1.10604 0.28311 0.39561
 N430 N 1.09936 0.22885 0.39633
 N431 N 1.13495 0.19604 0.36568
 C432 C 1.17879 0.21557 0.33155
 H433 H 1.21232 0.42784 0.32878
 H434 H 1.26479 0.37416 0.25867
 H435 H 1.07858 0.30669 0.42581
 H436 H 1.20712 0.18640 0.31074
 C437 C 0.65058 -0.19949 0.39916
 C438 C 0.69523 -0.22699 0.36909
 C439 C 0.70443 -0.22854 0.29920
 C440 C 0.66530 -0.19778 0.26106
 C441 C 0.61878 -0.17146 0.29227
 C442 C 0.61170 -0.17147 0.36196
 C443 C 0.58024 -0.14450 0.25242
 N444 N 0.58849 -0.14157 0.18629
 N445 N 0.63290 -0.16342 0.15739
 C446 C 0.67135 -0.19076 0.19228
 H447 H 0.64745 -0.19878 0.45271
 H448 H 0.72045 -0.24976 0.40243
 H449 H 0.54342 -0.12584 0.27334
 H450 H 0.70708 -0.20463 0.16566
 C451 C 0.71530 0.36933 -0.14061
 C452 C 0.74168 0.33049 -0.18046
 C453 C 0.71194 0.28700 -0.21138
 C454 C 0.65498 0.28038 -0.19073
 C455 C 0.63689 0.30989 -0.13489
 C456 C 0.66139 0.36010 -0.11950
 C457 C 0.59253 0.28992 -0.09742
 N458 N 0.56003 0.25031 -0.12228
 N459 N 0.57003 0.22961 -0.18207
 C460 C 0.61525 0.24436 -0.21767
 H461 H 0.73667 0.40628 -0.12704
 H462 H 0.78519 0.33666 -0.19136
 H463 H 0.58266 0.30727 -0.04995
 H464 H 0.61811 0.22696 -0.26500
 C465 C 1.17703 0.16377 -0.11224
 C466 C 1.21376 0.19632 -0.14743
 C467 C 1.19721 0.23036 -0.19981
 C468 C 1.13758 0.23208 -0.21190
 C469 C 1.10119 0.19513 -0.17844
 C470 C 1.12076 0.16223 -0.12701
 C471 C 1.04532 0.19204 -0.19725
 N472 N 1.02484 0.22701 -0.24168
 N473 N 1.05630 0.26552 -0.26731
 C474 C 1.11085 0.27000 -0.25293
 H475 H 1.19329 0.13802 -0.07394
 H476 H 1.25690 0.19355 -0.13401
 H477 H 1.01750 0.16249 -0.17638
 H478 H 1.13054 0.30567 -0.27067
 C479 C 1.20489 0.63844 0.38665
 C480 C 1.22636 0.68128 0.35104
 C481 C 1.21294 0.68955 0.28331
 C482 C 1.18343 0.64530 0.25047
 C483 C 1.16590 0.59995 0.28712
 C484 C 1.17240 0.59955 0.35593
 C485 C 1.13917 0.55660 0.25467
 N486 N 1.12842 0.55924 0.18926
 N487 N 1.14197 0.60264 0.15472
 C488 C 1.16820 0.64544 0.18296
 H489 H 1.21104 0.63750 0.43948
 H490 H 1.25329 0.70769 0.37866
 H491 H 1.12683 0.52066 0.28105
 H492 H 1.17481 0.67950 0.15241
 C493 C 0.67666 0.13719 0.35768
 C494 C 0.71119 0.16946 0.32012
 C495 C 0.70151 0.22512 0.31106
 C496 C 0.65866 0.24862 0.35329
 C497 C 0.62462 0.21510 0.39499
 C498 C 0.63044 0.15779 0.39202
 C499 C 0.58536 0.24062 0.43686
 N500 N 0.57709 0.29457 0.43375
 N501 N 0.60471 0.32483 0.39097
 C502 C 0.64416 0.30365 0.35043
 H503 H 0.68604 0.09438 0.35757
 H504 H 0.74409 0.14811 0.29490
 H505 H 0.56175 0.21937 0.47341
 H506 H 0.66088 0.32978 0.31409
 C507 C 0.71019 0.63741 -0.12598
 C508 C 0.72906 0.68234 -0.16041
 C509 C 0.71937 0.68964 -0.22932
 C510 C 0.68377 0.64955 -0.25954
 C511 C 0.67277 0.60028 -0.22677
 C512 C 0.68073 0.59672 -0.15813
 C513 C 0.64548 0.55829 -0.26100
 N514 N 0.62231 0.56798 -0.32036
 N515 N 0.62433 0.61696 -0.34648
 C516 C 0.65248 0.65805 -0.31696
 H517 H 0.71403 0.63713 -0.07257
 H518 H 0.74824 0.71319 -0.13022
 H519 H 0.63983 0.51897 -0.23893
 H520 H 0.64864 0.69685 -0.33867
 C521 C 0.81367 -0.14181 -0.16252
 C522 C 0.77785 -0.17294 -0.20169
 C523 C 0.78780 -0.22787 -0.21707
 C524 C 0.83663 -0.25092 -0.18566
 C525 C 0.87450 -0.21789 -0.14729
 C526 C 0.86334 -0.16203 -0.13558
 C527 C 0.92295 -0.24227 -0.12310
 N528 N 0.93219 -0.29569 -0.13286
 N529 N 0.89670 -0.32673 -0.16581
 C530 C 0.84979 -0.30647 -0.19212
 H531 H 0.80181 -0.10008 -0.15395
 H532 H 0.74173 -0.15233 -0.21993
 H533 H 0.95430 -0.22004 -0.09696
 H534 H 0.82405 -0.33432 -0.21940
 C535 C 0.78984 0.39161 0.34778
 C536 C 0.76101 0.35509 0.30807
 C537 C 0.77191 0.29816 0.30705
 C538 C 0.81200 0.27957 0.35377
 C539 C 0.83967 0.31733 0.39537
 C540 C 0.83032 0.37357 0.39015
 C541 C 0.87878 0.29824 0.44018
 N542 N 0.89132 0.24510 0.44265
 N543 N 0.86689 0.20951 0.40289
 C544 C 0.82815 0.22484 0.35884
 H545 H 0.78257 0.43457 0.34243
 H546 H 0.73037 0.37370 0.27735
 H547 H 0.89983 0.32594 0.47257
 H548 H 0.81319 0.19392 0.32679
 C549 C 0.37014 -0.19039 0.30795
 C550 C 0.33229 -0.21965 0.26958
 C551 C 0.27515 -0.22756 0.28775
 C552 C 0.25748 -0.19554 0.34458
 C553 C 0.29642 -0.16375 0.38207
 C554 C 0.35378 -0.16276 0.36500
 C555 C 0.27631 -0.13290 0.43598
 N556 N 0.22203 -0.13370 0.45265
 N557 N 0.18600 -0.16343 0.41888
 C558 C 0.20185 -0.19400 0.36610
 H559 H 0.41254 -0.18690 0.29048
 H560 H 0.34969 -0.23508 0.22379
 H561 H 0.30295 -0.10833 0.46557
 H562 H 0.17058 -0.21707 0.34262
 C563 C 0.34863 0.32252 -0.10801
 C564 C 0.31842 0.28488 -0.14374
 C565 C 0.26846 0.29955 -0.17377
 C566 C 0.24296 0.34845 -0.14898
 C567 C 0.27691 0.38984 -0.12144
 C568 C 0.33155 0.37682 -0.10333
 C569 C 0.25441 0.44197 -0.11293
 N570 N 0.19983 0.45035 -0.12403
 N571 N 0.16672 0.41032 -0.14351
 C572 C 0.18645 0.35985 -0.15584
 H573 H 0.38844 0.30993 -0.08920
 H574 H 0.33706 0.24564 -0.15231
 H575 H 0.27881 0.47596 -0.09652
 H576 H 0.15766 0.32914 -0.16872
 C577 C 1.17427 -0.15029 0.14690
 C578 C 1.20948 -0.18071 0.18602
 C579 C 1.19158 -0.22814 0.21850
 C580 C 1.13093 -0.23517 0.22180
 C581 C 1.09586 -0.20484 0.17848
 C582 C 1.11804 -0.16320 0.13935
 C583 C 1.03830 -0.21388 0.17934
 N584 N 1.01559 -0.24869 0.22254
 N585 N 1.04644 -0.27390 0.26650
 C586 C 1.10205 -0.26735 0.26891
 H587 H 1.19189 -0.11628 0.12083
 H588 H 1.25290 -0.16973 0.18505
 H589 H 1.01061 -0.19228 0.14776
 H590 H 1.12097 -0.28554 0.31082
 C591 C 1.21594 0.39060 0.66023
 C592 C 1.24008 0.35651 0.70544
 C593 C 1.22849 0.29996 0.70678
 C594 C 1.20306 0.27764 0.64842
 C595 C 1.18192 0.31309 0.60024
 C596 C 1.18312 0.36938 0.61079
 C597 C 1.15737 0.29160 0.54351
 N598 N 1.15149 0.23752 0.53593
 N599 N 1.16786 0.20381 0.58263
 C600 C 1.19258 0.22198 0.63870
 H601 H 1.21944 0.43399 0.66720
 H602 H 1.26558 0.37711 0.74082
 H603 H 1.14390 0.31816 0.50529
 H604 H 1.20078 0.19273 0.67571
 C605 C 0.66891 -0.16617 0.61315
 C606 C 0.71139 -0.18929 0.65066
 C607 C 0.69981 -0.22144 0.70629
 C608 C 0.64384 -0.21880 0.73069
 C609 C 0.60036 -0.20001 0.68903
 C610 C 0.61256 -0.17300 0.62946
 C611 C 0.54551 -0.20728 0.70972
 N612 N 0.53454 -0.22621 0.77108
 N613 N 0.57502 -0.23742 0.81318
 C614 C 0.62912 -0.23337 0.79543
 H615 H 0.68037 -0.14164 0.57115
 H616 H 0.75365 -0.18460 0.63342
 H617 H 0.51160 -0.19842 0.67702
 H618 H 0.65996 -0.23955 0.83276
 C619 C 0.71380 0.36811 0.13049
 C620 C 0.73817 0.32833 0.16922
 C621 C 0.70586 0.29041 0.20615
 C622 C 0.64895 0.28364 0.18535
 C623 C 0.62978 0.31626 0.13319
 C624 C 0.65796 0.36457 0.11618
 C625 C 0.58206 0.30014 0.09905
 N626 N 0.54916 0.26073 0.12263
 N627 N 0.56187 0.23554 0.17790
 C628 C 0.60949 0.24616 0.21049
 H629 H 0.73803 0.40235 0.11420
 H630 H 0.78214 0.33232 0.17785
 H631 H 0.56995 0.31941 0.05470
 H632 H 0.61527 0.22135 0.25211
 C633 C 0.87509 0.20788 0.16796
 C634 C 0.83654 0.23812 0.20580
 C635 C 0.78019 0.22199 0.21474
 C636 C 0.76318 0.17610 0.17506
 C637 C 0.80253 0.14522 0.13751
 C638 C 0.85957 0.16024 0.13523
 C639 C 0.78328 0.09919 0.10253
 N640 N 0.72940 0.08487 0.10407
 N641 N 0.69277 0.11357 0.13851
 C642 C 0.70793 0.15826 0.17287
 H643 H 0.91797 0.22074 0.16666
 H644 H 0.85210 0.27455 0.22903
 H645 H 0.80973 0.07574 0.07070
 H646 H 0.67698 0.17684 0.20113
 C647 C 0.87256 0.67909 0.65141
 C648 C 0.83945 0.72299 0.66956
 C649 C 0.78178 0.71692 0.67155
 C650 C 0.76211 0.68026 0.62168
 C651 C 0.79272 0.63244 0.60719
 C652 C 0.84934 0.63035 0.62660
 C653 C 0.76695 0.59295 0.56693
 N654 N 0.72235 0.60658 0.53037
 N655 N 0.70139 0.65627 0.53280
 C656 C 0.72085 0.69403 0.57590
 H657 H 0.91674 0.68370 0.65836
 H658 H 0.85957 0.75830 0.69027
 H659 H 0.78153 0.55211 0.56204
 H660 H 0.70219 0.73318 0.57491
 C661 C 0.32340 0.13957 0.68838
 C662 C 0.28956 0.17161 0.72894
 C663 C 0.29532 0.22812 0.73389
 C664 C 0.34411 0.24987 0.70083
 C665 C 0.37920 0.21637 0.65866
 C666 C 0.36798 0.16016 0.65054
 C667 C 0.42509 0.24062 0.62736
 N668 N 0.43634 0.29356 0.63758
 N669 N 0.40535 0.32413 0.67755
 C670 C 0.36047 0.30419 0.70942
 H671 H 0.31275 0.09710 0.68620
 H672 H 0.25559 0.15081 0.75224
 H673 H 0.45315 0.21877 0.59556
 H674 H 0.34015 0.33107 0.74318
 C675 C 0.34455 0.63699 0.18413
 C676 C 0.31028 0.66905 0.22185
 C677 C 0.27226 0.70726 0.19451
 C678 C 0.27571 0.71354 0.12283
 C679 C 0.31929 0.68687 0.08725
 C680 C 0.34905 0.64507 0.11710
 C681 C 0.33213 0.70289 0.02260
 N682 N 0.29840 0.73770 -0.00872
 N683 N 0.25182 0.75515 0.01965
 C684 C 0.23837 0.74244 0.08284
 H685 H 0.36997 0.60706 0.20838
 H686 H 0.31356 0.66340 0.27471
 H687 H 0.36806 0.68722 -0.00364
 H688 H 0.19713 0.75229 0.09808
   
