data_POSCAR
  _audit_creation_date              2014-09-24
  _audit_creation_method            'ToBaCCo'
  _symmetry_space_group_name_H-M    'P1'
  _symmetry_Int_Tables_number       1
  _symmetry_cell_setting            triclinic
  loop_
  _symmetry_equiv_pos_as_xyz
 x,y,z
_cell_length_a 28.3263
_cell_length_b 28.1851
_cell_length_c 28.3637
_cell_angle_alpha 90.021500
_cell_angle_beta 90.077800
_cell_angle_gamma 90.038300
loop_
  _atom_site_label
  _atom_site_type_symbol
  _atom_site_fract_x
  _atom_site_fract_y
  _atom_site_fract_z
C1 C 0.52327 1.00063 -0.50084
 C2 C 0.47535 1.00103 -0.50091
 C3 C 0.44737 1.00303 -0.54516
 C4 C 0.44722 0.99969 -0.45680
 C5 C 0.55136 1.00182 -0.45662
 C6 C 0.55131 0.99907 -0.54501
 C7 C 0.41616 1.04075 -0.55194
 C8 C 0.38489 1.04099 -0.58993
 C9 C 0.38292 1.00278 -0.62252
 C10 C 0.41650 0.96579 -0.61611
 C11 C 0.44793 0.96591 -0.57789
 C12 C 0.44910 1.03671 -0.42371
 C13 C 0.41751 1.03758 -0.38570
 C14 C 0.38339 1.00161 -0.38046
 C15 C 0.38293 0.96383 -0.41281
 C16 C 0.41432 0.96304 -0.45063
 C17 C 0.54964 0.96459 -0.42380
 C18 C 0.58128 0.96359 -0.38575
 C19 C 0.61530 0.99964 -0.38021
 C20 C 0.61555 1.03764 -0.41227
 C21 C 0.58412 1.03857 -0.45012
 C22 C 0.58333 0.96175 -0.55160
 C23 C 0.61481 0.96229 -0.58934
 C24 C 0.61533 1.00047 -0.62120
 C25 C 0.58203 1.03712 -0.61557
 C26 C 0.55035 1.03650 -0.57763
 H27 H 0.41567 1.07011 -0.52727
 H28 H 0.36344 1.07241 -0.59366
 H29 H 0.41703 0.93454 -0.63810
 H30 H 0.47131 0.93596 -0.57273
 H31 H 0.47371 1.06576 -0.42834
 H32 H 0.41850 1.06734 -0.36157
 H33 H 0.41228 0.93422 -0.47584
 H34 H 0.52513 0.93549 -0.42867
 H35 H 0.58044 0.93367 -0.36184
 H36 H 0.64063 1.06642 -0.40849
 H37 H 0.58602 1.06755 -0.47513
 H38 H 0.58465 0.93261 -0.52673
 H39 H 0.63931 0.93308 -0.59320
 H40 H 0.58181 1.06720 -0.63929
 H41 H 0.52644 1.06605 -0.57267
 H42 H 0.35776 0.93513 -0.40927
 C43 C -0.50039 1.47578 0.00144
 C44 C -0.50021 1.52379 0.00098
 C45 C -0.45596 1.55171 0.00176
 C46 C -0.54429 1.55191 -0.00025
 C47 C -0.54467 1.44798 0.00327
 C48 C -0.45638 1.44756 0.00027
 C49 C -0.44877 1.58424 0.03843
 C50 C -0.41063 1.61540 0.03725
 C51 C -0.37911 1.61497 -0.00092
 C52 C -0.38531 1.58112 -0.03689
 C53 C -0.42364 1.54977 -0.03564
 C54 C -0.57647 1.55095 0.03730
 C55 C -0.61462 1.58247 0.03803
 C56 C -0.62079 1.61552 0.00138
 C57 C -0.58939 1.61500 -0.03691
 C58 C -0.55142 1.58367 -0.03757
 C59 C -0.57713 1.44870 -0.03398
 C60 C -0.61562 1.41755 -0.03411
 C61 C -0.62223 1.38451 0.00293
 C62 C -0.59017 1.38602 0.04115
 C63 C -0.55188 1.41701 0.04103
 C64 C -0.44993 1.41488 -0.03638
 C65 C -0.41195 1.38356 -0.03557
 C66 C -0.37985 1.38398 0.00222
 C67 C -0.38536 1.41792 0.03818
 C68 C -0.42353 1.44943 0.03730
 H69 H -0.47343 1.58618 0.06754
 H70 H -0.40623 1.64045 0.06589
 H71 H -0.36174 1.58026 -0.06690
 H72 H -0.42912 1.52533 -0.06461
 H73 H -0.57100 1.52714 0.06677
 H74 H -0.63807 1.58237 0.06814
 H75 H -0.52684 1.58487 -0.06678
 H76 H -0.57156 1.47196 -0.06384
 H77 H -0.63805 1.41767 -0.06496
 H78 H -0.59458 1.36385 0.07192
 H79 H -0.52730 1.41640 0.07034
 H80 H -0.47501 1.41298 -0.06519
 H81 H -0.40809 1.35842 -0.06419
 H82 H -0.36135 1.41877 0.06790
 H83 H -0.42845 1.47396 0.06627
 H84 H -0.59377 1.63943 -0.06605
 C85 C 0.00030 0.47622 0.50008
 C86 C 0.00080 0.52433 0.49977
 C87 C 0.00144 0.55260 0.54385
 C88 C 0.00082 0.55201 0.45534
 C89 C 0.00216 0.44776 0.45617
 C90 C -0.00202 0.44842 0.54436
 C91 C -0.03612 0.55115 0.57585
 C92 C -0.03675 0.58162 0.61483
 C93 C 0.00030 0.61446 0.62279
 C94 C 0.03836 0.61449 0.59056
 C95 C 0.03866 0.58425 0.55167
 C96 C -0.03563 0.58461 0.44724
 C97 C -0.03459 0.61419 0.40787
 C98 C 0.00321 0.61207 0.37591
 C99 C 0.03952 0.57890 0.38374
 C100 C 0.03833 0.54907 0.42319
 C101 C 0.03912 0.41549 0.45013
 C102 C 0.03915 0.38408 0.41219
 C103 C 0.00168 0.38344 0.37921
 C104 C -0.03455 0.41764 0.38472
 C105 C -0.03436 0.44918 0.42289
 C106 C 0.03479 0.44934 0.57734
 C107 C 0.03462 0.41808 0.61570
 C108 C -0.00229 0.38467 0.62172
 C109 C -0.04008 0.38594 0.58912
 C110 C -0.03967 0.41704 0.55096
 H111 H -0.06541 0.52709 0.57014
 H112 H -0.06606 0.57843 0.63898
 H113 H 0.06698 0.63974 0.59321
 H114 H 0.06768 0.58628 0.52690
 H115 H -0.06460 0.58768 0.47195
 H116 H -0.06264 0.63986 0.40330
 H117 H 0.06715 0.52460 0.42929
 H118 H 0.06787 0.41423 0.47533
 H119 H 0.06938 0.36096 0.40875
 H120 H -0.06488 0.41851 0.36158
 H121 H -0.06366 0.47340 0.42749
 H122 H 0.06461 0.47287 0.57229
 H123 H 0.06519 0.41846 0.63854
 H124 H -0.07078 0.36349 0.59297
 H125 H -0.06864 0.41619 0.52599
 H126 H 0.06896 0.57633 0.35957
 O127 O -0.06443 0.99831 -0.12173
 O128 O -0.06407 1.00134 0.12125
 O129 O -0.12125 0.93529 -0.00235
 O130 O -0.12164 1.06393 0.00188
 O131 O -0.06395 1.12185 0.00199
 O132 O -0.06323 0.87779 -0.00247
 O133 O -0.12163 1.00119 0.06345
 O134 O -0.12182 0.99805 -0.06392
 Zr135 Zr -0.08316 0.99975 -0.00024
 O136 O -0.04288 1.04270 0.04269
 O137 O -0.04276 0.95711 -0.04319
 C138 C -0.10793 0.99721 -0.10744
 C139 C -0.10762 1.00215 0.10697
 C140 C -0.10678 0.89167 -0.00350
 C141 C -0.10742 1.10766 0.00303
 H142 H -0.06261 0.93655 0.06237
 O143 O -0.04254 0.95700 0.04237
 H144 H -0.06318 1.06308 -0.06284
 O145 O -0.04292 1.04279 -0.04285
 O146 O 0.06436 0.99828 0.12122
 O147 O 0.06397 1.00234 -0.12175
 O148 O 0.00219 0.87788 0.06299
 O149 O -0.00203 1.12196 0.06364
 O150 O 0.00123 1.12227 -0.06351
 O151 O -0.00152 0.87817 -0.06415
 O152 O 0.12156 0.93617 0.00152
 O153 O 0.12118 1.06484 -0.00197
 O154 O 0.06387 0.87826 0.00132
 O155 O 0.06316 1.12233 -0.00177
 O156 O 0.00216 0.93534 0.12107
 O157 O -0.00181 0.93590 -0.12192
 O158 O 0.00134 1.06477 -0.12155
 O159 O -0.00181 1.06419 0.12138
 O160 O 0.12174 0.99870 0.06340
 O161 O 0.12155 1.00235 -0.06396
 Zr162 Zr 0.00008 0.99985 0.08304
 Zr163 Zr -0.00016 1.00025 -0.08355
 Zr164 Zr 0.00021 0.91682 -0.00048
 Zr165 Zr -0.00029 1.08331 -0.00004
 Zr166 Zr 0.08309 1.00037 -0.00028
 O167 O 0.04256 1.04322 -0.04299
 O168 O 0.04294 0.95722 0.04245
 C169 C 0.10787 0.99761 0.10692
 C170 C 0.10753 1.00336 -0.10748
 C171 C 0.00322 0.89170 0.10654
 C172 C -0.00287 1.10791 0.10712
 C173 C 0.00214 1.10843 -0.10706
 C174 C -0.00259 0.89219 -0.10764
 C175 C 0.10734 0.89245 0.00244
 C176 C 0.10670 1.10846 -0.00279
 H177 H 0.06290 0.93731 -0.06320
 O178 O 0.04271 0.95752 -0.04310
 H179 H 0.06269 1.06325 0.06267
 O180 O 0.04257 1.04290 0.04256
 C181 C 0.27320 1.02751 0.30957
 C182 C 0.27865 0.99760 0.27085
 C183 C 0.31911 0.96959 0.26722
 C184 C 0.35396 0.97128 0.30229
 C185 C 0.34939 1.00138 0.34227
 C186 C 0.30775 1.02948 0.34467
 C187 C 0.24241 0.99592 0.23512
 C188 C 0.21154 0.99539 0.20575
 C189 C 0.17511 0.99561 0.17161
 C190 C 0.14416 0.99632 0.14234
 H191 H 0.24171 1.04905 0.31306
 H192 H 0.32396 0.94654 0.23703
 H193 H 0.38514 0.95018 0.29613
 H194 H 0.29951 1.05147 0.37471
 C195 C -0.26650 0.99048 0.31668
 C196 C -0.27775 1.00567 0.27111
 C197 C -0.32401 1.01982 0.26065
 C198 C -0.35892 1.01849 0.29561
 C199 C -0.34795 1.00276 0.34142
 C200 C -0.30123 0.98907 0.35156
 C201 C -0.24169 1.00608 0.23527
 C202 C -0.21094 1.00576 0.20585
 C203 C -0.17465 1.00480 0.17168
 C204 C -0.14380 1.00368 0.14239
 H205 H -0.23082 0.97964 0.32528
 H206 H -0.33316 1.03159 0.22546
 H207 H -0.39458 1.02897 0.28664
 H208 H -0.29138 0.97767 0.38667
 C209 C -0.32460 0.98028 -0.26163
 C210 C -0.27806 0.99354 -0.27202
 C211 C -0.26645 1.00803 -0.31770
 C212 C -0.30109 1.00967 -0.35275
 C213 C -0.34808 0.99693 -0.34268
 C214 C -0.35941 0.98185 -0.29677
 C215 C -0.24210 0.99304 -0.23599
 C216 C -0.21138 0.99334 -0.20645
 C217 C -0.17509 0.99433 -0.17220
 C218 C -0.14420 0.99553 -0.14287
 H219 H -0.33403 0.96907 -0.22635
 H220 H -0.23056 1.01818 -0.32625
 H221 H -0.29097 1.02055 -0.38793
 H222 H -0.39528 0.97210 -0.28786
 C223 C 0.26529 0.99318 -0.31796
 C224 C 0.27709 1.00736 -0.27218
 C225 C 0.32370 1.02040 -0.26173
 C226 C 0.35840 1.01894 -0.29688
 C227 C 0.34688 1.00418 -0.34289
 C228 C 0.29982 0.99165 -0.35303
 C229 C 0.24124 1.00779 -0.23613
 C230 C 0.21063 1.00744 -0.20657
 C231 C 0.17446 1.00640 -0.17227
 C232 C 0.14368 1.00514 -0.14292
 H233 H 0.22935 0.98320 -0.32655
 H234 H 0.33328 1.03138 -0.22638
 H235 H 0.39433 1.02851 -0.28792
 H236 H 0.28956 0.98101 -0.38828
 C237 C 0.31078 1.27178 0.02367
 C238 C 0.27009 1.27952 -0.00292
 C239 C 0.26449 1.32213 -0.02745
 C240 C 0.29968 1.35695 -0.02551
 C241 C 0.34128 1.34985 0.00129
 C242 C 0.34594 1.30634 0.02582
 C243 C 0.23431 1.24342 -0.00472
 C244 C 0.20498 1.21250 -0.00528
 C245 C 0.17103 1.17597 -0.00503
 C246 C 0.14190 1.14488 -0.00422
 H247 H 0.31563 1.23866 0.04246
 H248 H 0.23281 1.32859 -0.04790
 H249 H 0.29305 1.38991 -0.04383
 H250 H 0.37760 1.29742 0.04518
 C251 C 0.31699 0.73396 -0.00773
 C252 C 0.27142 0.72230 0.00712
 C253 C 0.26094 0.67573 0.02078
 C254 C 0.29600 0.64080 0.01927
 C255 C 0.34180 0.65217 0.00385
 C256 C 0.35196 0.69920 -0.00932
 C257 C 0.23553 0.75829 0.00750
 C258 C 0.20610 0.78907 0.00702
 C259 C 0.17200 0.82539 0.00576
 C260 C 0.14274 0.85629 0.00433
 H261 H 0.32548 0.76993 -0.01821
 H262 H 0.22568 0.66638 0.03226
 H263 H 0.28715 0.60483 0.02936
 H264 H 0.38712 0.70922 -0.02048
 C265 C -0.26044 0.67439 -0.02072
 C266 C -0.27081 0.72127 -0.00806
 C267 C -0.31647 0.73338 0.00610
 C268 C -0.35161 0.69878 0.00807
 C269 C -0.34155 0.65144 -0.00402
 C270 C -0.29568 0.63960 -0.01884
 C271 C -0.23474 0.75711 -0.00864
 C272 C -0.20524 0.78786 -0.00824
 C273 C -0.17116 0.82426 -0.00700
 C274 C -0.14198 0.85528 -0.00551
 H275 H -0.22511 0.66468 -0.03166
 H276 H -0.32489 0.76959 0.01580
 H277 H -0.38682 0.70915 0.01874
 H278 H -0.28692 0.60339 -0.02810
 C279 C -0.26107 1.32443 0.02074
 C280 C -0.27174 1.27754 0.00828
 C281 C -0.31762 1.26546 -0.00537
 C282 C -0.35270 1.30010 -0.00700
 C283 C -0.34235 1.34745 0.00491
 C284 C -0.29624 1.35925 0.01919
 C285 C -0.23574 1.24166 0.00859
 C286 C -0.20625 1.21095 0.00802
 C287 C -0.17210 1.17467 0.00664
 C288 C -0.14281 1.14380 0.00508
 H289 H -0.22558 1.33411 0.03128
 H290 H -0.32626 1.22924 -0.01491
 H291 H -0.38808 1.28977 -0.01726
 H292 H -0.28725 1.39546 0.02829
 C293 C 0.02157 1.27008 0.31282
 C294 C -0.00379 1.27835 0.27146
 C295 C -0.02736 1.32146 0.26536
 C296 C -0.02563 1.35624 0.30059
 C297 C 0.00002 1.34865 0.34280
 C298 C 0.02351 1.30460 0.34804
 C299 C -0.00527 1.24233 0.23551
 C300 C -0.00563 1.21154 0.20601
 C301 C -0.00522 1.17517 0.17181
 C302 C -0.00434 1.14421 0.14250
 H303 H 0.03960 1.23659 0.31812
 H304 H -0.04687 1.32837 0.23320
 H305 H -0.04312 1.38955 0.29350
 H306 H 0.04191 1.29527 0.38012
 C307 C -0.02360 1.27179 -0.31154
 C308 C 0.00258 1.27957 -0.27058
 C309 C 0.02703 1.32226 -0.26478
 C310 C 0.02543 1.35707 -0.29996
 C311 C -0.00095 1.34995 -0.34181
 C312 C -0.02541 1.30635 -0.34670
 C313 C 0.00408 1.24342 -0.23478
 C314 C 0.00450 1.21252 -0.20542
 C315 C 0.00420 1.17600 -0.17140
 C316 C 0.00345 1.14491 -0.14226
 H317 H -0.04233 1.23863 -0.31661
 H318 H 0.04718 1.32879 -0.23294
 H319 H 0.04368 1.39006 -0.29311
 H320 H -0.04446 1.29735 -0.37851
 C321 C 0.03914 0.70278 -0.28605
 C322 C -0.00414 0.71821 -0.26832
 C323 C -0.04595 0.69775 -0.28482
 C324 C -0.04461 0.66269 -0.31973
 C325 C -0.00118 0.64756 -0.33930
 C326 C 0.04073 0.66789 -0.32097
 C327 C -0.00538 0.75574 -0.23392
 C328 C -0.00558 0.78744 -0.20537
 C329 C -0.00503 0.82451 -0.17191
 C330 C -0.00408 0.85579 -0.14294
 H331 H 0.07183 0.71792 -0.27302
 H332 H -0.07974 0.70957 -0.27137
 H333 H -0.07806 0.64974 -0.33286
 H334 H 0.07523 0.65634 -0.33246
 C335 C -0.03445 0.69291 0.27589
 C336 C 0.00777 0.71661 0.26585
 C337 C 0.04912 0.70432 0.29001
 C338 C 0.04803 0.66921 0.32484
 C339 C 0.00546 0.64608 0.33603
 C340 C -0.03563 0.65787 0.31070
 C341 C 0.00813 0.75447 0.23182
 C342 C 0.00769 0.78640 0.20356
 C343 C 0.00650 0.82370 0.17039
 C344 C 0.00511 0.85514 0.14164
 H345 H -0.06663 0.70200 0.25729
 H346 H 0.08199 0.72250 0.28256
 H347 H 0.08010 0.66131 0.34412
 H348 H -0.06879 0.64028 0.31813
   
