data_POSCAR
  _audit_creation_date              2014-09-24
  _audit_creation_method            'ToBaCCo'
  _symmetry_space_group_name_H-M    'P1'
  _symmetry_Int_Tables_number       1
  _symmetry_cell_setting            triclinic
  loop_
  _symmetry_equiv_pos_as_xyz
 x,y,z
_cell_length_a 42.9133
_cell_length_b 39.3469
_cell_length_c 38.7759
_cell_angle_alpha 89.420000
_cell_angle_beta 89.908400
_cell_angle_gamma 90.015500
loop_
  _atom_site_label
  _atom_site_type_symbol
  _atom_site_fract_x
  _atom_site_fract_y
  _atom_site_fract_z
N1 N 0.19273 1.25660 0.16113
 N2 N 0.17259 1.25698 0.18675
 C3 C 0.15025 1.28008 0.17983
 C4 C 0.15702 1.29493 0.14835
 C5 C 0.18396 1.27952 0.13701
 H6 H 0.12998 1.28463 0.19576
 H7 H 0.19550 1.28357 0.11248
 Cu8 Cu 0.17584 1.22519 0.22512
 Cu9 Cu 0.22705 1.22417 0.15949
 Cu10 Cu 0.22655 1.16028 0.22164
 N11 N 0.17199 1.18605 0.25564
 N12 N 0.19196 1.16072 0.25431
 C13 C 0.18284 1.13607 0.27646
 C14 C 0.15585 1.14674 0.29236
 C15 C 0.14941 1.17841 0.27861
 H16 H 0.19420 1.11170 0.27965
 H17 H 0.12924 1.19406 0.28379
 N18 N 0.25937 1.16449 0.18620
 N19 N 0.25956 1.18884 0.16248
 C20 C 0.28340 1.18342 0.14056
 C21 C 0.29882 1.15446 0.15117
 C22 C 0.28309 1.14296 0.17999
 H23 H 0.28831 1.19841 0.11766
 H24 H 0.28771 1.11978 0.19430
 H25 H 0.20147 1.18728 0.18511
 H26 H 0.22996 1.21190 0.21143
 N27 N 0.80522 0.74457 0.16224
 N28 N 0.82540 0.74372 0.18774
 C29 C 0.84778 0.72082 0.18067
 C30 C 0.84103 0.70660 0.14920
 C31 C 0.81402 0.72215 0.13808
 H32 H 0.86806 0.71595 0.19649
 H33 H 0.80243 0.71852 0.11364
 Cu34 Cu 0.82212 0.77469 0.22617
 Cu35 Cu 0.77081 0.77690 0.16081
 Cu36 Cu 0.77125 0.83953 0.22296
 N37 N 0.82590 0.81323 0.25669
 N38 N 0.80587 0.83852 0.25545
 C39 C 0.81495 0.86275 0.27758
 C40 C 0.84197 0.85183 0.29336
 C41 C 0.84847 0.82046 0.27956
 H42 H 0.80353 0.88702 0.28082
 H43 H 0.86868 0.80476 0.28466
 N44 N 0.73838 0.83594 0.18770
 N45 N 0.73821 0.81205 0.16398
 C46 C 0.71434 0.81785 0.14217
 C47 C 0.69888 0.84657 0.15284
 C48 C 0.71462 0.85754 0.18159
 H49 H 0.70946 0.80331 0.11928
 H50 H 0.70999 0.88045 0.19588
 H51 H 0.79635 0.81334 0.18631
 H52 H 0.76796 0.78810 0.21277
 N53 N 0.81060 1.25470 -0.16042
 N54 N 0.83342 1.25282 -0.18302
 C55 C 0.85537 1.27595 -0.17513
 C56 C 0.84560 1.29314 -0.14628
 C57 C 0.81723 1.27910 -0.13745
 H58 H 0.87746 1.27900 -0.18827
 H59 H 0.80324 1.28505 -0.11508
 Cu60 Cu 0.83381 1.21786 -0.21813
 Cu61 Cu 0.77568 1.22303 -0.16031
 Cu62 Cu 0.77602 1.16053 -0.22284
 N63 N 0.83382 1.18276 -0.25309
 N64 N 0.81111 1.16035 -0.25480
 C65 C 0.81797 1.13738 -0.27919
 C66 C 0.84637 1.14607 -0.29341
 C67 C 0.85595 1.17477 -0.27633
 H68 H 0.80412 1.11518 -0.28495
 H69 H 0.87800 1.18777 -0.27946
 N70 N 0.74259 1.16491 -0.18824
 N71 N 0.74246 1.18869 -0.16442
 C72 C 0.71815 1.18328 -0.14302
 C73 C 0.70235 1.15494 -0.15406
 C74 C 0.71836 1.14377 -0.18259
 H75 H 0.71321 1.19771 -0.12007
 H76 H 0.71361 1.12094 -0.19697
 H77 H 0.79943 1.18291 -0.18232
 H78 H 0.77755 1.21176 -0.21211
 N79 N 0.19329 0.74519 -0.16085
 N80 N 0.17318 0.74419 -0.18640
 C81 C 0.15085 0.72122 -0.17888
 C82 C 0.15754 0.70711 -0.14705
 C83 C 0.18448 0.72281 -0.13620
 H84 H 0.13063 0.71623 -0.19466
 H85 H 0.19600 0.71929 -0.11163
 Cu86 Cu 0.17648 0.77508 -0.22553
 Cu87 Cu 0.22760 0.77767 -0.16006
 Cu88 Cu 0.22710 0.84018 -0.22362
 N89 N 0.17264 0.81353 -0.25693
 N90 N 0.19256 0.83894 -0.25619
 C91 C 0.18343 0.86309 -0.27888
 C92 C 0.15649 0.85199 -0.29450
 C93 C 0.15009 0.82060 -0.28003
 H94 H 0.19474 0.88742 -0.28261
 H95 H 0.12995 0.80479 -0.28482
 N96 N 0.25990 0.83680 -0.18818
 N97 N 0.26009 0.81296 -0.16393
 C98 C 0.28391 0.81887 -0.14221
 C99 C 0.29931 0.84763 -0.15348
 C100 C 0.28359 0.85850 -0.18250
 H101 H 0.28882 0.80438 -0.11901
 H102 H 0.28820 0.88139 -0.19732
 H103 H 0.20200 0.81393 -0.18646
 H104 H 0.23055 0.78878 -0.21226
 C105 C 0.46595 0.97958 -0.02339
 C106 C 0.48229 1.00186 -0.00190
 C107 C 0.46588 1.02416 0.01953
 C108 C 0.43324 1.02414 0.01949
 C109 C 0.41704 1.00193 -0.00202
 C110 C 0.43331 0.97968 -0.02347
 C111 C 0.51652 1.00173 -0.00175
 C112 C 0.53310 1.02413 -0.02339
 C113 C 0.56574 1.02392 -0.02325
 C114 C 0.58177 1.00144 -0.00144
 C115 C 0.56533 0.97910 0.02022
 C116 C 0.53269 0.97918 0.02005
 H117 H 0.47860 0.96234 -0.03995
 H118 H 0.47848 1.04133 0.03618
 H119 H 0.52063 1.04154 -0.04026
 H120 H 0.51991 0.96188 0.03680
 H121 H 0.39176 1.00194 -0.00204
 H122 H 0.60705 1.00132 -0.00131
 C123 C -0.02351 0.46463 0.98417
 C124 C -0.00081 0.48242 1.00275
 C125 C 0.02195 0.46444 1.02139
 C126 C 0.02184 0.42884 1.02170
 C127 C -0.00068 0.41120 1.00288
 C128 C -0.02326 0.42904 0.98399
 C129 C -0.00079 0.51980 1.00256
 C130 C -0.02353 0.53761 1.02111
 C131 C -0.02333 0.57321 1.02115
 C132 C -0.00074 0.59102 1.00215
 C133 C 0.02182 0.57334 0.98335
 C134 C 0.02197 0.53775 0.98380
 H135 H -0.04098 0.47849 0.96957
 H136 H 0.03943 0.47813 1.03587
 H137 H -0.04104 0.52378 1.03576
 H138 H 0.03946 0.52403 0.96930
 H139 H -0.00060 0.38363 1.00289
 H140 H -0.00072 0.61859 1.00198
 C141 C 0.97631 -0.02071 0.46129
 C142 C 0.99873 -0.00200 0.47932
 C143 C 1.02116 0.01691 0.46107
 C144 C 1.02102 0.01734 0.42495
 C145 C 0.99877 -0.00160 0.40704
 C146 C 0.97649 -0.02073 0.42517
 C147 C 0.99872 -0.00220 0.51724
 C148 C 1.02123 -0.02098 0.53543
 C149 C 1.02115 -0.02127 0.57155
 C150 C 0.99889 -0.00234 0.58951
 C151 C 0.97654 0.01667 0.57144
 C152 C 0.97629 0.01652 0.53533
 H153 H 0.95904 -0.03546 0.47536
 H154 H 1.03841 0.03152 0.47497
 H155 H 1.03851 -0.03554 0.52149
 H156 H 0.95901 0.03122 0.52130
 H157 H 0.99879 -0.00144 0.37906
 H158 H 0.99898 -0.00235 0.61748
 C159 C 0.13861 0.31673 1.13013
 C160 C 0.12188 0.33547 1.11379
 C161 C 0.10179 0.35670 1.09446
 C162 C 0.08418 0.37420 1.07785
 C163 C 0.06304 0.39396 1.05831
 C164 C 0.04452 0.41021 1.04161
 C165 C -0.13961 0.68383 1.12992
 C166 C -0.12294 0.66536 1.11352
 C167 C -0.10293 0.64444 1.09410
 C168 C -0.08540 0.62719 1.07742
 C169 C -0.06436 0.60769 1.05781
 C170 C -0.04592 0.59164 1.04107
 C171 C -0.13639 0.31674 0.87350
 C172 C -0.12063 0.33578 0.89028
 C173 C -0.10145 0.35720 0.91008
 C174 C -0.08446 0.37476 0.92705
 C175 C -0.06386 0.39448 0.94694
 C176 C -0.04568 0.41062 0.96389
 C177 C 0.13818 0.68433 0.87269
 C178 C 0.12151 0.66584 0.88946
 C179 C 0.10148 0.64490 0.90927
 C180 C 0.08394 0.62760 0.92626
 C181 C 0.06288 0.60804 0.94619
 C182 C 0.04443 0.59191 0.96318
 C183 C 1.13724 0.12806 0.31371
 C184 C 1.12040 0.11130 0.33208
 C185 C 1.10026 0.09150 0.35295
 C186 C 1.08271 0.07451 0.37022
 C187 C 1.06170 0.05456 0.38985
 C188 C 1.04338 0.03755 0.40611
 C189 C 1.13785 -0.12982 0.68383
 C190 C 1.12098 -0.11349 0.66516
 C191 C 1.10078 -0.09416 0.64400
 C192 C 1.08316 -0.07753 0.62652
 C193 C 1.06206 -0.05797 0.60672
 C194 C 1.04364 -0.04123 0.59038
 C195 C 0.86055 -0.12986 0.31464
 C196 C 0.87734 -0.11341 0.33296
 C197 C 0.89742 -0.09395 0.35374
 C198 C 0.91493 -0.07721 0.37092
 C199 C 0.93588 -0.05753 0.39042
 C200 C 0.95416 -0.04073 0.40654
 C201 C 0.86365 0.12730 0.68438
 C202 C 0.87952 0.11049 0.66536
 C203 C 0.89876 0.09067 0.64392
 C204 C 0.91575 0.07369 0.62630
 C205 C 0.93628 0.05377 0.60646
 C206 C 0.95434 0.03681 0.59015
 C207 C 0.32271 1.13671 0.13265
 C208 C 0.34197 1.12114 0.11659
 C209 C 0.36355 1.10214 0.09718
 C210 C 0.38107 1.08527 0.08011
 C211 C 0.40047 1.06475 0.05955
 C212 C 0.41601 1.04658 0.04153
 C213 C 0.67801 1.13714 -0.13593
 C214 C 0.65840 1.12152 -0.12012
 C215 C 0.63644 1.10243 -0.10093
 C216 C 0.61862 1.08547 -0.08397
 C217 C 0.59891 1.06482 -0.06347
 C218 C 0.58316 1.04653 -0.04542
 C219 C 0.32316 0.86580 -0.13539
 C220 C 0.34238 0.88167 -0.11963
 C221 C 0.36389 0.90098 -0.10053
 C222 C 0.38136 0.91809 -0.08368
 C223 C 0.40069 0.93882 -0.06332
 C224 C 0.41616 0.95713 -0.04542
 C225 C 0.67502 0.86468 0.13435
 C226 C 0.65582 0.88054 0.11825
 C227 C 0.63434 0.89988 0.09875
 C228 C 0.61692 0.91704 0.08155
 C229 C 0.59769 0.93789 0.06080
 C230 C 0.58232 0.95634 0.04257
   
