data_POSCAR
  _audit_creation_date              2014-09-24
  _audit_creation_method            'ToBaCCo'
  _symmetry_space_group_name_H-M    'P1'
  _symmetry_Int_Tables_number       1
  _symmetry_cell_setting            triclinic
  loop_
  _symmetry_equiv_pos_as_xyz
 x,y,z
_cell_length_a 29.3901
_cell_length_b 29.6936
_cell_length_c 34.0647
_cell_angle_alpha 89.975900
_cell_angle_beta 90.015000
_cell_angle_gamma 89.979900
loop_
  _atom_site_label
  _atom_site_type_symbol
  _atom_site_fract_x
  _atom_site_fract_y
  _atom_site_fract_z
C1 C 1.25020 0.25169 0.24992
 C2 C 0.75069 -0.25063 0.25001
 C3 C 0.75070 0.24947 -0.25000
 C4 C 1.25037 -0.24819 -0.25008
 C5 C 0.24927 0.24905 0.75013
 C6 C 0.74954 0.74984 0.75005
 C7 C 0.74971 0.24990 0.25005
 C8 C 0.24963 0.74918 0.25013
 O9 O 1.07885 0.02284 0.05059
 O10 O 0.92440 -0.02827 0.04738
 O11 O 0.97914 0.07386 0.05258
 O12 O 1.02421 -0.08073 0.04725
 O13 O 0.91629 0.04837 0.03100
 O14 O 1.08749 -0.05244 0.02923
 O15 O 0.94832 -0.08864 0.02199
 O16 O 1.05526 0.08456 0.02805
 C17 C 1.07426 0.06370 0.05509
 C18 C 0.92813 -0.06949 0.04939
 C19 C 0.93784 0.06835 0.05744
 C20 C 1.06504 -0.07426 0.05402
 O21 O 1.08065 -0.02350 -0.04754
 O22 O 0.92528 0.02633 -0.04733
 O23 O 1.02401 0.07830 -0.04604
 O24 O 0.98003 -0.07613 -0.05178
 O25 O 0.91698 -0.05033 -0.03078
 O26 O 1.08743 0.05138 -0.02673
 O27 O 1.05629 -0.08583 -0.02675
 O28 O 0.94795 0.08670 -0.02142
 Co29 Co 1.07595 -0.00045 0.00140
 Co30 Co 0.92851 -0.00093 0.00010
 Co31 Co 1.00163 0.07270 0.00308
 Co32 Co 1.00221 -0.07472 -0.00207
 O33 O 1.00209 -0.00090 0.00062
 C34 C 1.07554 -0.06409 -0.05314
 C35 C 0.92835 0.06760 -0.04914
 C36 C 1.06503 0.07226 -0.05220
 C37 C 0.93879 -0.07041 -0.05701
 O38 O 1.07957 0.52369 0.54949
 O39 O 0.92499 0.47263 0.54743
 O40 O 0.97957 0.57513 0.55210
 O41 O 1.02437 0.42062 0.54650
 O42 O 0.91665 0.54931 0.53089
 O43 O 1.08763 0.44844 0.52798
 O44 O 0.94847 0.41229 0.52176
 O45 O 1.05572 0.58549 0.52727
 C46 C 1.07487 0.56452 0.55418
 C47 C 0.92845 0.43137 0.54931
 C48 C 0.93832 0.56942 0.55719
 C49 C 1.06521 0.42705 0.55306
 O50 O 1.08019 0.47748 0.45131
 O51 O 0.92489 0.52716 0.45268
 O52 O 1.02416 0.57964 0.45326
 O53 O 0.97974 0.42518 0.44775
 O54 O 0.91678 0.45055 0.46921
 O55 O 1.08760 0.55236 0.47219
 O56 O 1.05600 0.41518 0.47231
 O57 O 0.94810 0.58760 0.47825
 Co58 Co 1.07608 0.50047 0.50030
 Co59 Co 0.92861 0.49995 0.50005
 Co60 Co 1.00190 0.57384 0.50250
 Co61 Co 1.00217 0.42644 0.49732
 O62 O 1.00221 0.50016 0.50002
 C63 C 1.07510 0.43686 0.44581
 C64 C 0.92831 0.56839 0.45070
 C65 C 1.06519 0.57364 0.44695
 C66 C 0.93843 0.43064 0.44280
 O67 O 0.57610 0.02628 0.54745
 O68 O 0.42087 -0.02391 0.54734
 O69 O 0.47657 0.07727 0.54762
 O70 O 0.52036 -0.07731 0.55030
 O71 O 0.41348 0.05112 0.52708
 O72 O 0.58381 -0.05033 0.53092
 O73 O 0.44443 -0.08614 0.52561
 O74 O 0.55281 0.08670 0.52213
 C75 C 0.57278 0.06749 0.54956
 C76 C 0.42540 -0.06469 0.55233
 C77 C 0.43535 0.07161 0.55307
 C78 C 0.56134 -0.07099 0.55647
 O79 O 0.57700 -0.02778 0.45246
 O80 O 0.42248 0.02361 0.44970
 O81 O 0.52112 0.07551 0.44884
 O82 O 0.47654 -0.07913 0.45108
 O83 O 0.41349 -0.05188 0.47054
 O84 O 0.58440 0.04878 0.46882
 O85 O 0.55258 -0.08818 0.47724
 O86 O 0.44527 0.08525 0.47307
 Co87 Co 0.57260 -0.00072 0.49988
 Co88 Co 0.42523 -0.00028 0.49865
 Co89 Co 0.49888 0.07299 0.49816
 Co90 Co 0.49843 -0.07455 0.50078
 O91 O 0.49884 -0.00069 0.49938
 C92 C 0.57307 -0.06893 0.45012
 C93 C 0.42651 0.06462 0.44575
 C94 C 0.56217 0.06937 0.44305
 C95 C 0.43544 -0.07317 0.44512
 O96 O 0.57650 0.52681 0.04760
 O97 O 0.42121 0.47696 0.04851
 O98 O 0.47657 0.57827 0.04850
 O99 O 0.52058 0.42368 0.05092
 O100 O 0.41341 0.55204 0.02822
 O101 O 0.58396 0.45026 0.03108
 O102 O 0.44459 0.41472 0.02663
 O103 O 0.55280 0.58730 0.02259
 C104 C 0.57290 0.56798 0.04987
 C105 C 0.42570 0.43616 0.05342
 C106 C 0.43533 0.57273 0.05407
 C107 C 0.56163 0.42977 0.05682
 O108 O 0.57645 0.47281 -0.04742
 O109 O 0.42195 0.52439 -0.04916
 O110 O 0.52079 0.57649 -0.05053
 O111 O 0.47629 0.42188 -0.04801
 O112 O 0.41333 0.44897 -0.02822
 O113 O 0.58413 0.54943 -0.03094
 O114 O 0.55237 0.41245 -0.02238
 O115 O 0.44497 0.58605 -0.02601
 Co116 Co 0.57253 0.49988 0.00008
 Co117 Co 0.42513 0.50056 -0.00021
 Co118 Co 0.49872 0.57387 -0.00111
 Co119 Co 0.49841 0.42635 0.00152
 O120 O 0.49875 0.50014 0.00009
 C121 C 0.57274 0.43163 -0.04964
 C122 C 0.42609 0.56538 -0.05325
 C123 C 0.56179 0.57014 -0.05655
 C124 C 0.43521 0.42790 -0.05380
 C125 C 1.17171 0.16189 0.17345
 C126 C 1.20502 0.19001 0.15746
 C127 C 1.23106 0.21767 0.18151
 C128 C 1.22317 0.21969 0.22245
 C129 C 1.19184 0.18851 0.23850
 C130 C 1.16614 0.16016 0.21424
 C131 C 1.14227 0.13601 0.14671
 C132 C 1.14111 0.08879 0.14782
 C133 C 1.11791 0.06482 0.11858
 C134 C 1.09528 0.08795 0.08826
 C135 C 1.09462 0.13523 0.08864
 C136 C 1.11814 0.15898 0.11741
 H137 H 1.25734 0.23711 0.16732
 H138 H 1.18636 0.18716 0.26991
 H139 H 1.11868 0.02835 0.11907
 H140 H 1.07718 0.15401 0.06589
 H141 H 1.14105 0.13795 0.22717
 H142 H 1.15973 0.07057 0.17021
 H143 H 1.21091 0.19053 0.12606
 H144 H 1.11850 0.19545 0.11627
 C145 C 1.17202 0.66215 0.67315
 C146 C 1.16637 0.66031 0.71393
 C147 C 1.19204 0.68858 0.73831
 C148 C 1.22341 0.71981 0.72238
 C149 C 1.23140 0.71786 0.68145
 C150 C 1.20540 0.69028 0.65729
 C151 C 1.14264 0.63639 0.64626
 C152 C 1.11856 0.65950 0.61700
 C153 C 1.09515 0.63589 0.58806
 C154 C 1.09587 0.58861 0.58746
 C155 C 1.11847 0.56533 0.61772
 C156 C 1.14155 0.58915 0.64713
 H157 H 1.18649 0.68714 0.76971
 H158 H 1.25773 0.73730 0.66732
 H159 H 1.07774 0.65478 0.56537
 H160 H 1.11928 0.52886 0.61804
 H161 H 1.21138 0.69088 0.62590
 H162 H 1.11887 0.69597 0.61603
 H163 H 1.14124 0.63807 0.72676
 H164 H 1.16014 0.57083 0.66946
 C165 C 0.67101 0.17017 0.66615
 C166 C 0.65499 0.21192 0.67966
 C167 C 0.68041 0.23719 0.70632
 C168 C 0.72167 0.22057 0.72183
 C169 C 0.73869 0.17981 0.70635
 C170 C 0.71343 0.15467 0.67946
 C171 C 0.64441 0.14366 0.63718
 C172 C 0.64289 0.09637 0.63933
 C173 C 0.61902 0.07148 0.61124
 C174 C 0.59606 0.09343 0.58055
 C175 C 0.59683 0.14067 0.57882
 C176 C 0.62088 0.16549 0.60670
 H177 H 0.66754 0.26989 0.71485
 H178 H 0.77187 0.16736 0.71484
 H179 H 0.61881 0.03507 0.61337
 H180 H 0.57956 0.15851 0.55541
 H181 H 0.72766 0.12355 0.66835
 H182 H 0.66007 0.07859 0.66281
 H183 H 0.62268 0.22517 0.66968
 H184 H 0.62191 0.20178 0.60378
 C185 C 0.67095 0.67020 0.16641
 C186 C 0.65495 0.71195 0.17988
 C187 C 0.68042 0.73720 0.20645
 C188 C 0.72165 0.72050 0.22193
 C189 C 0.73864 0.67972 0.20650
 C190 C 0.71334 0.65461 0.17965
 C191 C 0.64435 0.64382 0.13749
 C192 C 0.64258 0.59655 0.13978
 C193 C 0.61875 0.57175 0.11166
 C194 C 0.59609 0.59380 0.08087
 C195 C 0.59708 0.64102 0.07903
 C196 C 0.62112 0.66575 0.10692
 H197 H 0.66761 0.76994 0.21495
 H198 H 0.77182 0.66724 0.21497
 H199 H 0.61832 0.53535 0.11384
 H200 H 0.58003 0.65889 0.05553
 H201 H 0.72750 0.62346 0.16854
 H202 H 0.65956 0.57876 0.16335
 H203 H 0.62264 0.72523 0.16991
 H204 H 0.62240 0.70202 0.10394
 C205 C 0.83017 -0.17206 0.16579
 C206 C 0.78781 -0.15640 0.17901
 C207 C 0.76258 -0.18133 0.20604
 C208 C 0.77962 -0.22199 0.22168
 C209 C 0.82079 -0.23882 0.20619
 C210 C 0.84617 -0.21376 0.17941
 C211 C 0.85679 -0.14569 0.13687
 C212 C 0.88004 -0.16755 0.10630
 C213 C 0.90407 -0.14274 0.07842
 C214 C 0.90501 -0.09552 0.08031
 C215 C 0.88238 -0.07357 0.11114
 C216 C 0.85857 -0.09844 0.13922
 H217 H 0.72944 -0.16878 0.21450
 H218 H 0.83362 -0.27150 0.21486
 H219 H 0.92113 -0.16053 0.05490
 H220 H 0.88279 -0.03718 0.11339
 H221 H 0.87845 -0.22709 0.16944
 H222 H 0.87879 -0.20383 0.10331
 H223 H 0.77362 -0.12530 0.16777
 H224 H 0.84161 -0.08070 0.16281
 C225 C 0.83032 0.32838 0.66579
 C226 C 0.78792 0.34393 0.67906
 C227 C 0.76268 0.31892 0.70607
 C228 C 0.77971 0.27823 0.72170
 C229 C 0.82095 0.26152 0.70622
 C230 C 0.84633 0.28666 0.67943
 C231 C 0.85696 0.35488 0.63684
 C232 C 0.88053 0.33311 0.60637
 C233 C 0.90455 0.35801 0.57849
 C234 C 0.90526 0.40525 0.58025
 C235 C 0.88232 0.42711 0.61097
 C236 C 0.85848 0.40216 0.63904
 H237 H 0.72952 0.33142 0.71452
 H238 H 0.83382 0.22885 0.71487
 H239 H 0.92184 0.34025 0.55507
 H240 H 0.88249 0.46351 0.61315
 H241 H 0.87862 0.27337 0.66946
 H242 H 0.87953 0.29682 0.60345
 H243 H 0.77369 0.37503 0.66786
 H244 H 0.84131 0.41989 0.66252
 C245 C 0.33423 -0.15925 0.67704
 C246 C 0.28667 -0.15707 0.67608
 C247 C 0.26075 -0.18487 0.70021
 C248 C 0.28150 -0.21621 0.72587
 C249 C 0.32948 -0.21539 0.72888
 C250 C 0.35544 -0.18796 0.70413
 C251 C 0.36117 -0.13348 0.64811
 C252 C 0.39457 -0.15526 0.62558
 C253 C 0.41609 -0.13260 0.59482
 C254 C 0.40498 -0.08761 0.58642
 C255 C 0.37308 -0.06521 0.61012
 C256 C 0.35110 -0.08807 0.64051
 H257 H 0.22403 -0.18332 0.69776
 H258 H 0.34759 -0.23573 0.74995
 H259 H 0.44085 -0.15049 0.57718
 H260 H 0.36409 -0.03043 0.60441
 H261 H 0.39221 -0.18920 0.70607
 H262 H 0.40263 -0.19037 0.63071
 H263 H 0.26944 -0.13511 0.65547
 H264 H 0.32565 -0.07054 0.65770
 C265 C 0.33414 0.34098 0.17747
 C266 C 0.28658 0.34295 0.17623
 C267 C 0.26061 0.31496 0.20017
 C268 C 0.28132 0.28366 0.22588
 C269 C 0.32928 0.28469 0.22915
 C270 C 0.35529 0.31230 0.20461
 C271 C 0.36120 0.36696 0.14878
 C272 C 0.39481 0.34536 0.12637
 C273 C 0.41646 0.36818 0.09578
 C274 C 0.40526 0.41316 0.08745
 C275 C 0.37317 0.43541 0.11107
 C276 C 0.35105 0.41237 0.14128
 H277 H 0.22391 0.31638 0.19756
 H278 H 0.34733 0.26440 0.25030
 H279 H 0.44136 0.35041 0.07820
 H280 H 0.36410 0.47017 0.10539
 H281 H 0.39205 0.31123 0.20676
 H282 H 0.40293 0.31025 0.13144
 H283 H 0.26941 0.36489 0.15558
 H284 H 0.32543 0.42975 0.15839
 C285 C 0.83042 0.17049 -0.16585
 C286 C 0.78781 0.15519 -0.17881
 C287 C 0.76254 0.18026 -0.20579
 C288 C 0.77976 0.22071 -0.22170
 C289 C 0.82124 0.23718 -0.20653
 C290 C 0.84664 0.21199 -0.17976
 C291 C 0.85705 0.14399 -0.13688
 C292 C 0.88078 0.16579 -0.10653
 C293 C 0.90474 0.14091 -0.07859
 C294 C 0.90524 0.09365 -0.08018
 C295 C 0.88216 0.07175 -0.11081
 C296 C 0.85835 0.09669 -0.13892
 H297 H 0.72922 0.16798 -0.21402
 H298 H 0.83429 0.26969 -0.21538
 H299 H 0.92215 0.15870 -0.05526
 H300 H 0.88217 0.03535 -0.11284
 H301 H 0.87910 0.22509 -0.17001
 H302 H 0.87994 0.20210 -0.10375
 H303 H 0.77344 0.12428 -0.16740
 H304 H 0.84102 0.07894 -0.16231
 C305 C 0.83048 0.67076 0.33404
 C306 C 0.78788 0.65535 0.32121
 C307 C 0.76256 0.68031 0.29426
 C308 C 0.77975 0.72073 0.27828
 C309 C 0.82121 0.73732 0.29337
 C310 C 0.84667 0.71223 0.32010
 C311 C 0.85715 0.64441 0.36296
 C312 C 0.88064 0.66633 0.39336
 C313 C 0.90461 0.64156 0.42131
 C314 C 0.90529 0.59433 0.41964
 C315 C 0.88247 0.57231 0.38896
 C316 C 0.85868 0.59714 0.36082
 H317 H 0.72924 0.66798 0.28607
 H318 H 0.83420 0.76985 0.28447
 H319 H 0.92185 0.65940 0.44471
 H320 H 0.88267 0.53590 0.38689
 H321 H 0.87914 0.72537 0.32979
 H322 H 0.87958 0.70264 0.39617
 H323 H 0.77359 0.62444 0.33271
 H324 H 0.84152 0.57936 0.33736
 C325 C 0.32882 0.16310 0.32748
 C326 C 0.33433 0.16074 0.28670
 C327 C 0.30859 0.18870 0.26211
 C328 C 0.27726 0.22013 0.27778
 C329 C 0.26942 0.21876 0.31874
 C330 C 0.29550 0.19147 0.34313
 C331 C 0.35811 0.13733 0.35448
 C332 C 0.38127 0.16022 0.38441
 C333 C 0.40487 0.13641 0.41312
 C334 C 0.40529 0.08913 0.41282
 C335 C 0.38359 0.06613 0.38195
 C336 C 0.36033 0.09016 0.35277
 H337 H 0.31403 0.18684 0.23071
 H338 H 0.24312 0.23840 0.33271
 H339 H 0.42158 0.15509 0.43632
 H340 H 0.38366 0.02967 0.38093
 H341 H 0.28956 0.19243 0.37452
 H342 H 0.38018 0.19665 0.38600
 H343 H 0.35939 0.13830 0.27401
 H344 H 0.34251 0.07198 0.32991
 C345 C 0.32886 0.66345 -0.17214
 C346 C 0.29547 0.69186 -0.15664
 C347 C 0.26944 0.71903 -0.18115
 C348 C 0.27738 0.72030 -0.22211
 C349 C 0.30876 0.68881 -0.23763
 C350 C 0.33446 0.66095 -0.21291
 C351 C 0.35806 0.63778 -0.14497
 C352 C 0.36026 0.59061 -0.14651
 C353 C 0.38336 0.56668 -0.11716
 C354 C 0.40493 0.58979 -0.08628
 C355 C 0.40453 0.63707 -0.08613
 C356 C 0.38108 0.66078 -0.11501
 H357 H 0.24309 0.73868 -0.16727
 H358 H 0.31426 0.68683 -0.26902
 H359 H 0.38343 0.53022 -0.11808
 H360 H 0.42114 0.65583 -0.06293
 H361 H 0.35955 0.63847 -0.22548
 H362 H 0.34254 0.57233 -0.16938
 H363 H 0.28944 0.69292 -0.12527
 H364 H 0.37999 0.69721 -0.11353
 C365 C 1.16636 -0.15821 -0.17828
 C366 C 1.14521 -0.18723 -0.20514
 C367 C 1.17123 -0.21501 -0.22955
 C368 C 1.21920 -0.21583 -0.22645
 C369 C 1.23989 -0.18410 -0.20116
 C370 C 1.21392 -0.15600 -0.17733
 C371 C 1.13935 -0.13234 -0.14943
 C372 C 1.14977 -0.08709 -0.14148
 C373 C 1.12789 -0.06433 -0.11097
 C374 C 1.09571 -0.08668 -0.08752
 C375 C 1.08412 -0.13142 -0.09637
 C376 C 1.10559 -0.15398 -0.12720
 H377 H 1.15317 -0.23564 -0.25042
 H378 H 1.27660 -0.18251 -0.19871
 H379 H 1.13721 -0.02973 -0.10495
 H380 H 1.05908 -0.14925 -0.07898
 H381 H 1.23114 -0.13384 -0.15691
 H382 H 1.17546 -0.06962 -0.15844
 H383 H 1.10845 -0.18850 -0.20712
 H384 H 1.09722 -0.18896 -0.13258
 C385 C 1.16615 0.34200 0.32133
 C386 C 1.14505 0.31303 0.29441
 C387 C 1.17110 0.28507 0.27020
 C388 C 1.21904 0.28404 0.27355
 C389 C 1.23972 0.31568 0.29892
 C390 C 1.21372 0.34396 0.32257
 C391 C 1.13905 0.36811 0.34993
 C392 C 1.14959 0.41335 0.35777
 C393 C 1.12761 0.43631 0.38810
 C394 C 1.09522 0.41416 0.41148
 C395 C 1.08350 0.36944 0.40271
 C396 C 1.10505 0.34669 0.37205
 H397 H 1.15309 0.26451 0.24925
 H398 H 1.27642 0.31712 0.30154
 H399 H 1.13705 0.47089 0.39409
 H400 H 1.05830 0.35177 0.42005
 H401 H 1.23088 0.36609 0.34305
 H402 H 1.17547 0.43064 0.34088
 H403 H 1.10830 0.31194 0.29222
 H404 H 1.09659 0.31172 0.36674
 C405 C 0.67117 -0.17146 0.33378
 C406 C 0.65492 -0.21301 0.32006
 C407 C 0.68030 -0.23827 0.29343
 C408 C 0.72171 -0.22178 0.27817
 C409 C 0.73895 -0.18125 0.29387
 C410 C 0.71372 -0.15613 0.32077
 C411 C 0.64461 -0.14501 0.36269
 C412 C 0.64317 -0.09773 0.36054
 C413 C 0.61933 -0.07286 0.38860
 C414 C 0.59632 -0.09485 0.41921
 C415 C 0.59698 -0.14208 0.42092
 C416 C 0.62103 -0.16688 0.39308
 H417 H 0.66729 -0.27085 0.28475
 H418 H 0.77223 -0.16897 0.28554
 H419 H 0.61916 -0.03645 0.38651
 H420 H 0.57965 -0.15991 0.44429
 H421 H 0.72807 -0.12516 0.33208
 H422 H 0.66041 -0.07997 0.33710
 H423 H 0.62248 -0.22609 0.32986
 H424 H 0.62203 -0.20318 0.39595
 C425 C 0.67105 0.32875 -0.16608
 C426 C 0.65481 0.28721 -0.17988
 C427 C 0.68019 0.26194 -0.20657
 C428 C 0.72166 0.27835 -0.22180
 C429 C 0.73888 0.31887 -0.20603
 C430 C 0.71365 0.34401 -0.17911
 C431 C 0.64445 0.35529 -0.13713
 C432 C 0.64327 0.40260 -0.13911
 C433 C 0.61939 0.42754 -0.11105
 C434 C 0.59606 0.40562 -0.08057
 C435 C 0.59647 0.35836 -0.07902
 C436 C 0.62054 0.33349 -0.10687
 H437 H 0.66714 0.22939 -0.21531
 H438 H 0.77219 0.33112 -0.21432
 H439 H 0.61946 0.46395 -0.11305
 H440 H 0.57891 0.34055 -0.05578
 H441 H 0.72804 0.37495 -0.16778
 H442 H 0.66074 0.42037 -0.16241
 H443 H 0.62235 0.27414 -0.17011
 H444 H 0.62129 0.29718 -0.10409
 C445 C 1.15970 0.16543 -0.17666
 C446 C 1.18901 0.14467 -0.20367
 C447 C 1.21650 0.17053 -0.22855
 C448 C 1.21681 0.21806 -0.22592
 C449 C 1.18471 0.23836 -0.20052
 C450 C 1.15691 0.21253 -0.17615
 C451 C 1.13384 0.13846 -0.14755
 C452 C 1.08824 0.14875 -0.13896
 C453 C 1.06535 0.12623 -0.10879
 C454 C 1.08784 0.09341 -0.08624
 C455 C 1.13301 0.08218 -0.09559
 C456 C 1.15570 0.10432 -0.12608
 H457 H 1.23737 0.15265 -0.24939
 H458 H 1.18268 0.27470 -0.19833
 H459 H 1.03046 0.13543 -0.10240
 H460 H 1.15109 0.05681 -0.07888
 H461 H 1.13453 0.22954 -0.15571
 H462 H 1.07049 0.17467 -0.15530
 H463 H 1.19071 0.10829 -0.20546
 H464 H 1.19094 0.09597 -0.13185
 C465 C 1.16052 0.66773 0.32295
 C466 C 1.15994 0.71482 0.32482
 C467 C 1.18790 0.74040 0.30035
 C468 C 1.21843 0.71995 0.27331
 C469 C 1.21515 0.67244 0.26922
 C470 C 1.18760 0.64685 0.29435
 C471 C 1.13439 0.64078 0.35200
 C472 C 1.15545 0.60522 0.37229
 C473 C 1.13266 0.58290 0.40268
 C474 C 1.08807 0.59523 0.41305
 C475 C 1.06631 0.62956 0.39167
 C476 C 1.08938 0.65235 0.36169
 H477 H 1.18727 0.77668 0.30373
 H478 H 1.23354 0.65429 0.24684
 H479 H 1.15020 0.55641 0.41848
 H480 H 1.03191 0.63972 0.39888
 H481 H 1.18734 0.61054 0.29135
 H482 H 1.19022 0.59584 0.36566
 H483 H 1.13909 0.73196 0.34636
 H484 H 1.07222 0.67941 0.34633
 C485 C 0.65941 0.16527 0.32180
 C486 C 0.68887 0.14499 0.29467
 C487 C 0.71677 0.17125 0.27051
 C488 C 0.71737 0.21874 0.27394
 C489 C 0.68522 0.23864 0.29951
 C490 C 0.65701 0.21238 0.32323
 C491 C 0.63285 0.13761 0.34993
 C492 C 0.58716 0.14792 0.35812
 C493 C 0.56354 0.12449 0.38734
 C494 C 0.58539 0.09073 0.40933
 C495 C 0.63060 0.07943 0.40025
 C496 C 0.65401 0.10248 0.37070
 H497 H 0.73758 0.15368 0.24942
 H498 H 0.68330 0.27494 0.30220
 H499 H 0.52866 0.13384 0.39360
 H500 H 0.64819 0.05339 0.41656
 H501 H 0.63448 0.22902 0.34378
 H502 H 0.56992 0.17455 0.34227
 H503 H 0.69028 0.10866 0.29213
 H504 H 0.68929 0.09405 0.36517
 C505 C 0.65902 0.66551 -0.17813
 C506 C 0.68842 0.64512 -0.20526
 C507 C 0.71643 0.67129 -0.22942
 C508 C 0.71717 0.71877 -0.22600
 C509 C 0.68512 0.73878 -0.20041
 C510 C 0.65681 0.71263 -0.17670
 C511 C 0.63237 0.63796 -0.14997
 C512 C 0.58678 0.64854 -0.14161
 C513 C 0.56316 0.62526 -0.11230
 C514 C 0.58490 0.59137 -0.09040
 C515 C 0.62999 0.57977 -0.09968
 C516 C 0.65340 0.60268 -0.12930
 H517 H 0.73721 0.65366 -0.25050
 H518 H 0.68332 0.77509 -0.19773
 H519 H 0.52837 0.63483 -0.10589
 H520 H 0.64750 0.55361 -0.08344
 H521 H 0.63436 0.72935 -0.15614
 H522 H 0.56963 0.67529 -0.15738
 H523 H 0.68970 0.60879 -0.20780
 H524 H 0.68860 0.59403 -0.13494
 C525 C 0.83980 -0.17105 -0.17363
 C526 C 0.84227 -0.16682 -0.21453
 C527 C 0.81379 -0.19269 -0.23863
 C528 C 0.78175 -0.22309 -0.22243
 C529 C 0.78289 -0.22958 -0.18128
 C530 C 0.81065 -0.20327 -0.15736
 C531 C 0.86595 -0.14127 -0.14721
 C532 C 0.84269 -0.11633 -0.11861
 C533 C 0.86660 -0.09176 -0.09054
 C534 C 0.91442 -0.09213 -0.09000
 C535 C 0.93784 -0.11575 -0.11958
 C536 C 0.91370 -0.13993 -0.14820
 H537 H 0.81572 -0.18808 -0.27013
 H538 H 0.76269 -0.25494 -0.16680
 H539 H 0.84750 -0.07374 -0.06835
 H540 H 0.97469 -0.11650 -0.11996
 H541 H 0.80943 -0.20813 -0.12585
 H542 H 0.80585 -0.11671 -0.11753
 H543 H 0.86516 -0.14257 -0.22772
 H544 H 0.93222 -0.15908 -0.17003
 C545 C 0.83956 0.32927 0.32653
 C546 C 0.84227 0.33334 0.28563
 C547 C 0.81398 0.30732 0.26148
 C548 C 0.78189 0.27694 0.27763
 C549 C 0.78285 0.27055 0.31879
 C550 C 0.81043 0.29700 0.34275
 C551 C 0.86556 0.35918 0.35298
 C552 C 0.84228 0.38362 0.38189
 C553 C 0.86614 0.40841 0.40986
 C554 C 0.91396 0.40874 0.40996
 C555 C 0.93738 0.38560 0.38009
 C556 C 0.91327 0.36123 0.35158
 H557 H 0.81605 0.31186 0.22998
 H558 H 0.76263 0.24520 0.33325
 H559 H 0.84705 0.42603 0.43229
 H560 H 0.97422 0.38540 0.37938
 H561 H 0.80906 0.29221 0.37427
 H562 H 0.80546 0.38274 0.38327
 H563 H 0.86517 0.35759 0.27246
 H564 H 0.93184 0.34249 0.32951
 C565 C 0.33895 -0.17341 0.32609
 C566 C 0.31258 -0.20828 0.34153
 C567 C 0.28513 -0.23447 0.31725
 C568 C 0.28066 -0.22509 0.27645
 C569 C 0.31109 -0.19237 0.26088
 C570 C 0.33934 -0.16659 0.28539
 C571 C 0.36433 -0.14379 0.35333
 C572 C 0.41204 -0.14127 0.35254
 C573 C 0.43552 -0.11751 0.38189
 C574 C 0.41151 -0.09542 0.41204
 C575 C 0.36370 -0.09643 0.41150
 C576 C 0.34045 -0.12067 0.38271
 H577 H 0.26762 -0.26210 0.33128
 H578 H 0.31172 -0.18566 0.22963
 H579 H 0.47237 -0.11716 0.38146
 H580 H 0.34414 -0.07969 0.43414
 H581 H 0.36041 -0.14044 0.27273
 H582 H 0.43108 -0.15912 0.33021
 H583 H 0.31329 -0.21535 0.37274
 H584 H 0.30364 -0.12215 0.38379
 C585 C 0.33854 0.32762 -0.17222
 C586 C 0.34140 0.33243 -0.21307
 C587 C 0.31343 0.30658 -0.23768
 C588 C 0.28144 0.27577 -0.22202
 C589 C 0.28248 0.26856 -0.18094
 C590 C 0.30972 0.29478 -0.15654
 C591 C 0.36400 0.35728 -0.14518
 C592 C 0.34015 0.38131 -0.11634
 C593 C 0.36347 0.40562 -0.08770
 C594 C 0.41127 0.40585 -0.08685
 C595 C 0.43526 0.38303 -0.11657
 C596 C 0.41173 0.35915 -0.14574
 H597 H 0.31560 0.31165 -0.26911
 H598 H 0.26252 0.24274 -0.16683
 H599 H 0.34397 0.42303 -0.06540
 H600 H 0.47212 0.38283 -0.11674
 H601 H 0.30830 0.28937 -0.12510
 H602 H 0.30331 0.38047 -0.11554
 H603 H 0.36416 0.35710 -0.22582
 H604 H 0.43071 0.34066 -0.16771
 C605 C 1.16016 -0.16903 0.17784
 C606 C 1.18733 -0.14830 0.20647
 C607 C 1.21500 -0.17401 0.23142
 C608 C 1.21829 -0.22150 0.22715
 C609 C 1.18759 -0.24182 0.20019
 C610 C 1.15956 -0.21613 0.17584
 C611 C 1.13400 -0.14191 0.14888
 C612 C 1.08918 -0.15374 0.13876
 C613 C 1.06618 -0.13079 0.10883
 C614 C 1.08778 -0.09599 0.08795
 C615 C 1.13211 -0.08332 0.09882
 C616 C 1.15486 -0.10586 0.12912
 H617 H 1.23349 -0.15596 0.25380
 H618 H 1.18692 -0.27809 0.19673
 H619 H 1.03196 -0.14119 0.10125
 H620 H 1.14948 -0.05641 0.08346
 H621 H 1.13865 -0.23318 0.15430
 H622 H 1.07213 -0.18113 0.15374
 H623 H 1.18706 -0.11201 0.20961
 H624 H 1.18947 -0.09623 0.13609
 C625 C 1.15958 0.33309 0.67732
 C626 C 1.18892 0.35368 0.70440
 C627 C 1.21646 0.32767 0.72914
 C628 C 1.21675 0.28015 0.72633
 C629 C 1.18456 0.26001 0.70094
 C630 C 1.15676 0.28599 0.67666
 C631 C 1.13375 0.36025 0.64829
 C632 C 1.08827 0.34981 0.63936
 C633 C 1.06546 0.37252 0.60924
 C634 C 1.08790 0.40573 0.58710
 C635 C 1.13289 0.41716 0.59685
 C636 C 1.15551 0.39479 0.62725
 H637 H 1.23736 0.34543 0.75004
 H638 H 1.18249 0.22368 0.69865
 H639 H 1.03069 0.36317 0.60255
 H640 H 1.15090 0.44287 0.58049
 H641 H 1.13436 0.26909 0.65617
 H642 H 1.07055 0.32363 0.65537
 H643 H 1.19063 0.39005 0.70636
 H644 H 1.19066 0.40328 0.63330
 C645 C 0.65855 -0.16599 0.67840
 C646 C 0.68804 -0.14555 0.70544
 C647 C 0.71621 -0.17166 0.72954
 C648 C 0.71700 -0.21914 0.72617
 C649 C 0.68485 -0.23921 0.70070
 C650 C 0.65641 -0.21312 0.67703
 C651 C 0.63183 -0.13851 0.65020
 C652 C 0.58629 -0.14920 0.64173
 C653 C 0.56267 -0.12602 0.61232
 C654 C 0.58437 -0.09212 0.59044
 C655 C 0.62939 -0.08039 0.59983
 C656 C 0.65279 -0.10320 0.62953
 H657 H 0.73707 -0.15399 0.75053
 H658 H 0.68310 -0.27552 0.69805
 H659 H 0.52794 -0.13569 0.60583
 H660 H 0.64687 -0.05421 0.58362
 H661 H 0.63391 -0.22989 0.65655
 H662 H 0.56918 -0.17597 0.65749
 H663 H 0.68929 -0.10921 0.70793
 H664 H 0.68795 -0.09445 0.63524
 C665 C 0.65894 0.33433 0.17843
 C666 C 0.68848 0.35468 0.20546
 C667 C 0.71654 0.32849 0.22958
 C668 C 0.71720 0.28100 0.22622
 C669 C 0.68498 0.26102 0.20076
 C670 C 0.65662 0.28720 0.17708
 C671 C 0.63229 0.36189 0.15025
 C672 C 0.58664 0.35146 0.14198
 C673 C 0.56300 0.37476 0.11266
 C674 C 0.58479 0.40851 0.09066
 C675 C 0.62994 0.41995 0.09983
 C676 C 0.65337 0.39703 0.12946
 H677 H 0.73744 0.34612 0.25057
 H678 H 0.68311 0.22472 0.19812
 H679 H 0.52817 0.36531 0.10634
 H680 H 0.64749 0.44600 0.08351
 H681 H 0.63405 0.27050 0.15661
 H682 H 0.56945 0.32482 0.15784
 H683 H 0.68985 0.39102 0.20793
 H684 H 0.68861 0.40557 0.13502
 C685 C 0.83913 0.17028 0.17342
 C686 C 0.84210 0.16637 0.21432
 C687 C 0.81401 0.19254 0.23852
 C688 C 0.78182 0.22288 0.22241
 C689 C 0.78255 0.22915 0.18123
 C690 C 0.80994 0.20255 0.15722
 C691 C 0.86500 0.14025 0.14697
 C692 C 0.84167 0.11607 0.11791
 C693 C 0.86550 0.09111 0.09002
 C694 C 0.91330 0.09035 0.09017
 C695 C 0.93673 0.11321 0.12019
 C696 C 0.91267 0.13775 0.14861
 H697 H 0.81625 0.18809 0.27001
 H698 H 0.76225 0.25448 0.16679
 H699 H 0.84641 0.07372 0.06745
 H700 H 0.97358 0.11308 0.12109
 H701 H 0.80840 0.20725 0.12570
 H702 H 0.80487 0.11727 0.11635
 H703 H 0.86505 0.14214 0.22747
 H704 H 0.93127 0.15626 0.17080
 C705 C 0.83935 0.67051 0.67353
 C706 C 0.81013 0.70274 0.65731
 C707 C 0.78255 0.72917 0.68128
 C708 C 0.78166 0.72278 0.72245
 C709 C 0.81380 0.69241 0.73859
 C710 C 0.84209 0.66642 0.71442
 C711 C 0.86539 0.64065 0.64708
 C712 C 0.91311 0.63879 0.64839
 C713 C 0.93725 0.61449 0.61986
 C714 C 0.91384 0.59123 0.59005
 C715 C 0.86603 0.59136 0.59025
 C716 C 0.84213 0.61608 0.61824
 H717 H 0.76227 0.75451 0.66684
 H718 H 0.81591 0.68787 0.77008
 H719 H 0.97409 0.61485 0.62049
 H720 H 0.84695 0.57364 0.56786
 H721 H 0.86505 0.64218 0.72758
 H722 H 0.93165 0.65764 0.67041
 H723 H 0.80873 0.70753 0.62579
 H724 H 0.80530 0.61682 0.61692
 C725 C 0.33827 0.17063 0.67207
 C726 C 0.34123 0.16564 0.71291
 C727 C 0.31329 0.19137 0.73765
 C728 C 0.28124 0.22225 0.72215
 C729 C 0.28215 0.22961 0.68108
 C730 C 0.30934 0.20351 0.65655
 C731 C 0.36384 0.14123 0.64488
 C732 C 0.34010 0.11748 0.61579
 C733 C 0.36351 0.09351 0.58700
 C734 C 0.41131 0.09333 0.58624
 C735 C 0.43521 0.11583 0.61620
 C736 C 0.41157 0.13939 0.64552
 H737 H 0.31559 0.18622 0.76906
 H738 H 0.26215 0.25550 0.66707
 H739 H 0.34408 0.07631 0.56453
 H740 H 0.47206 0.11606 0.61645
 H741 H 0.30786 0.20907 0.62513
 H742 H 0.30325 0.11829 0.61493
 H743 H 0.36408 0.14096 0.72554
 H744 H 0.43049 0.15766 0.66767
 C745 C 0.33851 0.67193 0.17362
 C746 C 0.33914 0.66498 0.21430
 C747 C 0.31098 0.69067 0.23899
 C748 C 0.28042 0.72342 0.22362
 C749 C 0.28462 0.73290 0.18281
 C750 C 0.31197 0.70681 0.15837
 C751 C 0.36395 0.64255 0.14620
 C752 C 0.34016 0.61991 0.11646
 C753 C 0.36348 0.59595 0.08755
 C754 C 0.41129 0.59472 0.08723
 C755 C 0.43521 0.61630 0.11772
 C756 C 0.41164 0.63978 0.14719
 H757 H 0.31184 0.68390 0.27022
 H758 H 0.26703 0.76058 0.16891
 H759 H 0.34399 0.57958 0.06465
 H760 H 0.47205 0.61576 0.11833
 H761 H 0.31251 0.71401 0.12718
 H762 H 0.30336 0.62156 0.11522
 H763 H 0.36036 0.63885 0.22683
 H764 H 0.43062 0.65724 0.16979
   
