data_POSCAR
  _audit_creation_date              2014-09-24
  _audit_creation_method            'ToBaCCo'
  _symmetry_space_group_name_H-M    'P1'
  _symmetry_Int_Tables_number       1
  _symmetry_cell_setting            triclinic
  loop_
  _symmetry_equiv_pos_as_xyz
 x,y,z
_cell_length_a 44.9809
_cell_length_b 47.6075
_cell_length_c 25.8770
_cell_angle_alpha 90.018900
_cell_angle_beta 90.046000
_cell_angle_gamma 119.897300
loop_
  _atom_site_label
  _atom_site_type_symbol
  _atom_site_fract_x
  _atom_site_fract_y
  _atom_site_fract_z
C1 C 0.43988 0.89807 0.47753
 C2 C 0.44026 0.89880 0.53049
 C3 C 0.46686 0.92907 0.54497
 N4 N 0.48239 0.94697 0.50254
 C5 C 0.46584 0.92804 0.46135
 C6 C 0.47698 0.93963 0.59654
 C7 C 0.49985 0.97266 0.60870
 C8 C 0.51933 0.98327 0.65353
 C9 C 0.53679 1.01648 0.65212
 C10 C 0.52755 1.02547 0.60651
 N11 N 0.50530 0.99856 0.57983
 C12 C 0.53909 1.05800 0.59153
 C13 C 0.53795 1.06653 0.53943
 C14 C 0.54167 1.09587 0.52300
 C15 C 0.54041 1.09483 0.47009
 C16 C 0.53557 1.06478 0.45595
 N17 N 0.53407 1.04748 0.49832
 C18 C 0.53419 1.05434 0.40456
 C19 C 0.52364 1.02194 0.39148
 C20 C 0.52825 1.01173 0.34350
 C21 C 0.51145 0.97844 0.34489
 C22 C 0.49702 0.96930 0.39368
 N23 N 0.50471 0.99596 0.42191
 C24 C 0.47471 0.93706 0.40926
 H25 H 0.42223 0.87792 0.45366
 H26 H 0.42267 0.87933 0.55538
 H27 H 0.49389 0.99627 0.45724
 H28 H 0.52103 0.96856 0.68399
 H29 H 0.55454 1.03223 0.68129
 H30 H 0.54466 1.11588 0.54662
 H31 H 0.54255 1.11391 0.44495
 H32 H 0.50943 0.96273 0.31321
 H33 H 0.49190 0.99791 0.54661
 H34 H 0.54174 1.02668 0.31057
 C35 C 0.10315 0.55496 0.47014
 C36 C 0.10449 0.55808 0.52285
 C37 C 0.07279 0.55333 0.53853
 N38 N 0.05206 0.54711 0.49708
 C39 C 0.07063 0.54810 0.45534
 C40 C 0.06351 0.55505 0.59034
 C41 C 0.02879 0.54270 0.60527
 C42 C 0.01821 0.54983 0.65144
 C43 C -0.01694 0.53153 0.65269
 C44 C -0.02700 0.51424 0.60684
 N45 N 0.00095 0.52114 0.57810
 C46 C -0.06103 0.49073 0.59447
 C47 C -0.07194 0.47920 0.54389
 C48 C -0.10376 0.45324 0.53131
 C49 C -0.10506 0.45130 0.47847
 C50 C -0.07422 0.47656 0.46041
 N51 N -0.05393 0.49352 0.50059
 C52 C -0.06546 0.48416 0.40762
 C53 C -0.03117 0.50557 0.39189
 C54 C -0.02163 0.52065 0.34398
 C55 C 0.01357 0.53763 0.34289
 C56 C 0.02462 0.53301 0.39044
 N57 N -0.00271 0.51359 0.42023
 C58 C 0.05924 0.54475 0.40376
 H59 H 0.12372 0.55727 0.44556
 H60 H 0.12622 0.56286 0.54686
 H61 H -0.00175 0.50349 0.45543
 H62 H 0.03416 0.56633 0.68143
 H63 H -0.03320 0.53095 0.68397
 H64 H -0.12396 0.43733 0.55742
 H65 H -0.12630 0.43319 0.45604
 H66 H 0.02927 0.55179 0.31075
 H67 H 0.00109 0.50894 0.54485
 H68 H -0.03827 0.51950 0.31284
 C69 C 0.55681 0.45042 0.47834
 C70 C 0.55530 0.44941 0.53124
 C71 C 0.52931 0.45557 0.54542
 N72 N 0.51528 0.46077 0.50280
 C73 C 0.53220 0.45777 0.46186
 C74 C 0.51886 0.45632 0.59690
 C75 C 0.49606 0.46788 0.60917
 C76 C 0.47759 0.46113 0.65477
 C77 C 0.46097 0.47868 0.65398
 C78 C 0.46902 0.49535 0.60733
 N79 N 0.49052 0.48854 0.58028
 C80 C 0.45993 0.51903 0.59357
 C81 C 0.46390 0.53159 0.54276
 C82 C 0.45768 0.55620 0.52765
 C83 C 0.46110 0.55861 0.47494
 C84 C 0.46876 0.53511 0.45934
 N85 N 0.47027 0.51856 0.50072
 C86 C 0.47166 0.52769 0.40741
 C87 C 0.48167 0.50498 0.39293
 C88 C 0.47754 0.49178 0.34388
 C89 C 0.49236 0.47257 0.34463
 C90 C 0.50520 0.47462 0.39408
 N91 N 0.49855 0.49439 0.42331
 C92 C 0.52511 0.46070 0.40964
 H93 H 0.57448 0.44680 0.45474
 H94 H 0.57191 0.44513 0.55626
 H95 H 0.50868 0.50326 0.45969
 H96 H 0.47668 0.44561 0.68601
 H97 H 0.44557 0.47954 0.68529
 H98 H 0.45051 0.57047 0.55162
 H99 H 0.45752 0.57525 0.45080
 H100 H 0.49398 0.45903 0.31219
 H101 H 0.50428 0.50054 0.54746
 H102 H 0.46540 0.49581 0.31080
 O103 O 0.39140 0.67041 -0.05806
 O104 O 0.39717 0.72694 -0.04330
 C105 C 0.37739 0.73330 -0.06974
 O106 O 0.34552 0.72029 -0.06113
 O107 O 0.28535 0.66928 -0.04688
 C108 C 0.27829 0.64333 -0.07088
 O109 O 0.29230 0.62662 -0.06043
 O110 O 0.34649 0.62133 -0.04362
 C111 C 0.37359 0.64050 -0.06847
 O112 O 0.39094 0.66082 0.04476
 O113 O 0.39333 0.71604 0.05989
 C114 C 0.37895 0.73263 0.06890
 O115 O 0.35424 0.73032 0.04170
 O116 O 0.29555 0.67792 0.05629
 C117 C 0.27805 0.64801 0.06670
 O118 O 0.28109 0.62650 0.04185
 O119 O 0.33648 0.62369 0.05923
 C120 C 0.36806 0.63688 0.07002
 Cr121 Cr 0.39132 0.69280 0.00076
 Cr122 Cr 0.32098 0.69843 -0.00250
 Cr123 Cr 0.31521 0.62634 -0.00078
 O124 O 0.34247 0.67250 -0.00109
 O125 O 0.60280 0.32311 -0.04059
 O126 O 0.60888 0.27224 -0.05659
 C127 C 0.62698 0.25963 -0.06831
 O128 O 0.65521 0.26720 -0.04602
 O129 O 0.70777 0.32424 -0.06443
 C130 C 0.72138 0.35431 -0.07333
 O131 O 0.71476 0.37294 -0.04654
 O132 O 0.65384 0.36620 -0.05829
 C133 C 0.62197 0.34847 -0.06675
 O134 O 0.60828 0.31598 0.06248
 O135 O 0.61215 0.26395 0.04579
 C136 C 0.63589 0.26172 0.06885
 O137 O 0.66720 0.27851 0.05633
 O138 O 0.72154 0.33437 0.03743
 C139 C 0.72446 0.35805 0.06416
 O140 O 0.70580 0.37070 0.05689
 O141 O 0.64655 0.36725 0.04468
 C142 C 0.62215 0.34602 0.07179
 Cr143 Cr 0.60993 0.29490 0.00265
 Cr144 Cr 0.68680 0.30181 -0.00405
 Cr145 Cr 0.67943 0.36747 -0.00085
 O146 O 0.65866 0.32134 -0.00097
 C147 C 0.45115 0.92255 -0.31754
 C148 C 0.43868 0.89992 -0.27745
 C149 C 0.44032 0.87143 -0.28081
 C150 C 0.45421 0.86546 -0.32526
 C151 C 0.46600 0.88772 -0.36600
 C152 C 0.46468 0.91665 -0.36271
 N153 N 0.42703 0.84871 -0.23911
 N154 N 0.43451 0.82640 -0.23321
 C155 C 0.42004 0.80330 -0.19211
 C156 C 0.43555 0.78523 -0.17796
 C157 C 0.42202 0.76271 -0.13765
 C158 C 0.39218 0.75738 -0.11179
 C159 C 0.37637 0.77521 -0.12663
 C160 C 0.39035 0.79820 -0.16608
 H161 H 0.44936 0.94433 -0.31386
 H162 H 0.42785 0.90469 -0.24346
 H163 H 0.45561 0.84349 -0.32870
 H164 H 0.47695 0.88269 -0.39960
 H165 H 0.45836 0.78885 -0.19788
 H166 H 0.43456 0.74912 -0.12721
 H167 H 0.35341 0.77166 -0.10726
 H168 H 0.37774 0.81170 -0.17663
 C169 C 0.11890 0.59994 -0.37994
 C170 C 0.14476 0.61375 -0.34257
 C171 C 0.14233 0.59707 -0.29688
 C172 C 0.11317 0.56669 -0.28814
 C173 C 0.08694 0.55315 -0.32487
 C174 C 0.08960 0.56938 -0.37164
 N175 N 0.16981 0.61116 -0.26014
 N176 N 0.17330 0.59396 -0.22569
 C177 C 0.20011 0.60724 -0.18791
 C178 C 0.20735 0.58612 -0.16034
 C179 C 0.23319 0.59801 -0.12302
 C180 C 0.25178 0.63132 -0.11173
 C181 C 0.24427 0.65255 -0.13906
 C182 C 0.21882 0.64064 -0.17733
 H183 H 0.12150 0.61339 -0.41502
 H184 H 0.16703 0.63728 -0.34962
 H185 H 0.11064 0.55343 -0.25291
 H186 H 0.06501 0.52945 -0.31744
 H187 H 0.19300 0.56034 -0.16807
 H188 H 0.23819 0.58103 -0.10227
 H189 H 0.25823 0.67832 -0.13111
 H190 H 0.21345 0.65737 -0.19803
 C191 C 0.41368 0.50966 -0.34662
 C192 C 0.40053 0.52086 -0.30785
 C193 C 0.41939 0.55284 -0.29019
 C194 C 0.45163 0.57374 -0.31215
 C195 C 0.46484 0.56257 -0.35080
 C196 C 0.44613 0.53034 -0.36816
 N197 N 0.40557 0.56345 -0.24967
 N198 N 0.42151 0.59240 -0.23277
 C199 C 0.40858 0.60361 -0.19195
 C200 C 0.42756 0.63609 -0.17711
 C201 C 0.41614 0.64802 -0.13716
 C202 C 0.38536 0.62753 -0.11100
 C203 C 0.36624 0.59481 -0.12605
 C204 C 0.37773 0.58292 -0.16626
 H205 H 0.39853 0.48486 -0.35990
 H206 H 0.37562 0.50457 -0.29140
 H207 H 0.46673 0.59858 -0.29919
 H208 H 0.48993 0.57895 -0.36668
 H209 H 0.45138 0.65223 -0.19661
 H210 H 0.43155 0.67334 -0.12671
 H211 H 0.34242 0.57840 -0.10681
 H212 H 0.36262 0.55766 -0.17708
 C213 C 0.58451 0.11132 -0.37829
 C214 C 0.59796 0.13565 -0.34072
 C215 C 0.57988 0.13231 -0.29509
 C216 C 0.54846 0.10385 -0.28665
 C217 C 0.53531 0.07915 -0.32362
 C218 C 0.55292 0.08270 -0.37036
 N219 N 0.59385 0.15805 -0.25796
 N220 N 0.57533 0.16030 -0.22289
 C221 C 0.58902 0.18556 -0.18497
 C222 C 0.56638 0.19149 -0.15630
 C223 C 0.57880 0.21595 -0.11899
 C224 C 0.61415 0.23442 -0.10888
 C225 C 0.63688 0.22821 -0.13732
 C226 C 0.62445 0.20416 -0.17547
 H227 H 0.59918 0.11458 -0.41318
 H228 H 0.62234 0.15738 -0.34746
 H229 H 0.53414 0.10065 -0.25142
 H230 H 0.51082 0.05763 -0.31638
 H231 H 0.53904 0.17723 -0.16319
 H232 H 0.56067 0.22003 -0.09740
 H233 H 0.66425 0.24214 -0.13036
 H234 H 0.64240 0.19983 -0.19701
 C235 C 0.89568 0.49393 -0.34895
 C236 C 0.87035 0.48081 -0.31080
 C237 C 0.86197 0.45125 -0.28742
 C238 C 0.87978 0.43517 -0.30188
 C239 C 0.90535 0.44845 -0.33957
 C240 C 0.91324 0.47775 -0.36354
 N241 N 0.83531 0.43799 -0.24941
 N242 N 0.82376 0.40952 -0.23158
 C243 C 0.79742 0.39607 -0.19312
 C244 C 0.78433 0.36375 -0.17849
 C245 C 0.75916 0.34997 -0.14028
 C246 C 0.74682 0.36849 -0.11562
 C247 C 0.75984 0.40093 -0.13075
 C248 C 0.78486 0.41459 -0.16928
 H249 H 0.90148 0.51653 -0.36733
 H250 H 0.85686 0.49345 -0.29992
 H251 H 0.87390 0.41237 -0.28419
 H252 H 0.91867 0.43569 -0.35069
 H253 H 0.79382 0.34924 -0.19661
 H254 H 0.74979 0.32497 -0.12951
 H255 H 0.75085 0.41583 -0.11263
 H256 H 0.79462 0.43966 -0.17996
 C257 C 0.54609 0.46483 -0.31812
 C258 C 0.55890 0.45445 -0.27783
 C259 C 0.55660 0.42410 -0.27991
 C260 C 0.54167 0.40421 -0.32332
 C261 C 0.52949 0.41485 -0.36431
 C262 C 0.53146 0.44533 -0.36221
 N263 N 0.57029 0.41447 -0.23797
 N264 N 0.56276 0.38520 -0.23086
 C265 C 0.57764 0.37642 -0.18941
 C266 C 0.56257 0.34390 -0.17448
 C267 C 0.57659 0.33477 -0.13395
 C268 C 0.60645 0.35804 -0.10859
 C269 C 0.62174 0.39060 -0.12410
 C270 C 0.60731 0.39977 -0.16382
 H271 H 0.54840 0.48856 -0.31546
 H272 H 0.57053 0.47004 -0.24467
 H273 H 0.53977 0.38067 -0.32576
 H274 H 0.51779 0.39896 -0.39715
 H275 H 0.53977 0.32567 -0.19402
 H276 H 0.56444 0.30948 -0.12304
 H277 H 0.64473 0.40905 -0.10518
 H278 H 0.61956 0.42503 -0.17493
 C279 C 0.87751 0.47104 0.37567
 C280 C 0.85178 0.45753 0.33816
 C281 C 0.85603 0.44285 0.29417
 C282 C 0.88666 0.44217 0.28762
 C283 C 0.91262 0.45600 0.32478
 C284 C 0.90835 0.47047 0.36960
 N285 N 0.82903 0.42904 0.25668
 N286 N 0.82948 0.41203 0.21908
 C287 C 0.80274 0.39858 0.18115
 C288 C 0.80279 0.37700 0.14451
 C289 C 0.77717 0.36355 0.10679
 C290 C 0.75122 0.37182 0.10474
 C291 C 0.75130 0.39360 0.14157
 C292 C 0.77674 0.40676 0.17960
 H293 H 0.87361 0.48262 0.40898
 H294 H 0.82837 0.45840 0.34343
 H295 H 0.89058 0.43102 0.25381
 H296 H 0.93575 0.45468 0.31910
 H297 H 0.82272 0.37056 0.14529
 H298 H 0.77793 0.34695 0.07890
 H299 H 0.73162 0.40039 0.14114
 H300 H 0.77622 0.42347 0.20747
 C301 C 0.51920 0.07579 0.32660
 C302 C 0.52818 0.09858 0.28706
 C303 C 0.56196 0.12410 0.28244
 C304 C 0.58685 0.12666 0.31805
 C305 C 0.57784 0.10395 0.35777
 C306 C 0.54396 0.07838 0.36226
 N307 N 0.57021 0.14703 0.24148
 N308 N 0.60072 0.16972 0.23317
 C309 C 0.60884 0.19268 0.19228
 C310 C 0.64323 0.21533 0.18265
 C311 C 0.65208 0.23781 0.14263
 C312 C 0.62651 0.23814 0.11168
 C313 C 0.59193 0.21554 0.12184
 C314 C 0.58316 0.19294 0.16167
 H315 H 0.49293 0.05622 0.32965
 H316 H 0.50880 0.09637 0.25990
 H317 H 0.61312 0.14621 0.31531
 H318 H 0.59722 0.10623 0.38502
 H319 H 0.66324 0.21542 0.20607
 H320 H 0.67894 0.25495 0.13601
 H321 H 0.57161 0.21511 0.09875
 H322 H 0.55636 0.17572 0.16849
 C323 C 0.56396 0.47132 0.33404
 C324 C 0.57722 0.46053 0.29491
 C325 C 0.56642 0.42754 0.28990
 C326 C 0.54233 0.40531 0.32502
 C327 C 0.52913 0.41612 0.36434
 C328 C 0.53973 0.44917 0.36889
 N329 N 0.58004 0.41734 0.24857
 N330 N 0.57030 0.38766 0.24000
 C331 C 0.58395 0.37780 0.19824
 C332 C 0.57106 0.34472 0.18942
 C333 C 0.58344 0.33431 0.14844
 C334 C 0.60913 0.35694 0.11556
 C335 C 0.62222 0.39018 0.12484
 C336 C 0.60972 0.40053 0.16570
 H337 H 0.57245 0.49692 0.33712
 H338 H 0.59577 0.47787 0.26813
 H339 H 0.53363 0.37968 0.32196
 H340 H 0.51042 0.39873 0.39091
 H341 H 0.55122 0.32696 0.21423
 H342 H 0.57286 0.30854 0.14252
 H343 H 0.64201 0.40828 0.10036
 H344 H 0.62017 0.42626 0.17175
 C345 C 0.08274 0.53130 0.32594
 C346 C 0.10673 0.54032 0.28608
 C347 C 0.13286 0.57258 0.28094
 C348 C 0.13484 0.59588 0.31639
 C349 C 0.11094 0.58684 0.35639
 C350 C 0.08476 0.55448 0.36144
 N351 N 0.15697 0.58103 0.23956
 N352 N 0.18019 0.61018 0.23123
 C353 C 0.20445 0.61887 0.19005
 C354 C 0.22769 0.65165 0.18138
 C355 C 0.25156 0.66111 0.14132
 C356 C 0.25273 0.63780 0.10925
 C357 C 0.22949 0.60480 0.11833
 C358 C 0.20547 0.59540 0.15830
 H359 H 0.06267 0.50623 0.32932
 H360 H 0.10493 0.52218 0.25903
 H361 H 0.15482 0.62097 0.31324
 H362 H 0.11275 0.60503 0.38337
 H363 H 0.22719 0.66994 0.20566
 H364 H 0.26916 0.68672 0.13561
 H365 H 0.22970 0.58624 0.09439
 H366 H 0.18778 0.56986 0.16438
 C367 C 0.43663 0.91225 0.33251
 C368 C 0.42334 0.88922 0.29298
 C369 C 0.43295 0.86552 0.28880
 C370 C 0.45571 0.86473 0.32534
 C371 C 0.46888 0.88768 0.36511
 C372 C 0.45961 0.91172 0.36866
 N373 N 0.41968 0.84298 0.24676
 N374 N 0.42915 0.82226 0.23841
 C375 C 0.41601 0.79994 0.19605
 C376 C 0.42893 0.77902 0.18757
 C377 C 0.41702 0.75723 0.14621
 C378 C 0.39173 0.75590 0.11258
 C379 C 0.37865 0.77686 0.12141
 C380 C 0.39072 0.79874 0.16268
 H381 H 0.42924 0.93067 0.33479
 H382 H 0.40582 0.89005 0.26511
 H383 H 0.46346 0.84658 0.32297
 H384 H 0.48665 0.88702 0.39269
 H385 H 0.44841 0.77972 0.21302
 H386 H 0.42756 0.74136 0.14071
 H387 H 0.35915 0.77646 0.09634
 H388 H 0.38029 0.81467 0.16847
 C389 C 0.48785 0.56571 0.33240
 C390 C 0.47921 0.58044 0.29297
 C391 C 0.44517 0.57306 0.28629
 C392 C 0.41972 0.55075 0.31980
 C393 C 0.42837 0.53609 0.35931
 C394 C 0.46248 0.54350 0.36585
 N395 N 0.43706 0.58825 0.24513
 N396 N 0.40639 0.58144 0.23591
 C397 C 0.39774 0.59621 0.19479
 C398 C 0.36317 0.58587 0.18563
 C399 C 0.35358 0.59918 0.14529
 C400 C 0.37854 0.62333 0.11335
 C401 C 0.41336 0.63399 0.12305
 C402 C 0.42290 0.62049 0.16335
 H403 H 0.51428 0.57161 0.33693
 H404 H 0.49902 0.59753 0.26739
 H405 H 0.39322 0.54461 0.31545
 H406 H 0.40850 0.51888 0.38471
 H407 H 0.34356 0.56723 0.20966
 H408 H 0.32655 0.59048 0.13914
 H409 H 0.43322 0.65254 0.09922
 H410 H 0.44984 0.62892 0.16980
   
