data_POSCAR
  _audit_creation_date              2014-09-24
  _audit_creation_method            'ToBaCCo'
  _symmetry_space_group_name_H-M    'P1'
  _symmetry_Int_Tables_number       1
  _symmetry_cell_setting            triclinic
  loop_
  _symmetry_equiv_pos_as_xyz
 x,y,z
_cell_length_a 18.6033
_cell_length_b 18.6503
_cell_length_c 18.6867
_cell_angle_alpha 89.905000
_cell_angle_beta 91.667700
_cell_angle_gamma 89.991100
loop_
  _atom_site_label
  _atom_site_type_symbol
  _atom_site_fract_x
  _atom_site_fract_y
  _atom_site_fract_z
O1 O -0.15985 0.13079 -0.01755
 O2 O 0.19816 0.05297 0.04520
 O3 O 0.01970 0.16138 0.12777
 O4 O 0.05017 0.19048 -0.05899
 O5 O 0.04475 0.12413 -0.16278
 O6 O -0.01455 0.06312 0.19402
 O7 O 0.13102 0.15688 0.04378
 O8 O -0.05820 0.19344 0.01932
 Zr9 Zr 0.02452 0.11878 0.02253
 O10 O 0.08900 0.05725 -0.04018
 O11 O -0.06224 0.06392 0.06208
 C12 C -0.12537 0.18888 0.00081
 C13 C 0.19143 0.12203 0.05046
 C14 C 0.00559 0.12941 0.18760
 C15 C 0.05068 0.18449 -0.12799
 H16 H 0.09295 0.05771 0.12205
 O17 O 0.06256 0.03634 0.08370
 H18 H -0.05972 0.12182 -0.09362
 O19 O -0.03864 0.08332 -0.06329
 O20 O 0.15957 -0.13585 0.01782
 O21 O -0.19673 -0.05719 -0.05108
 O22 O 0.06149 -0.04563 0.19428
 O23 O 0.13157 0.01155 -0.16138
 O24 O -0.05955 0.03700 -0.19747
 O25 O -0.12762 -0.00837 0.16103
 O26 O -0.04448 -0.19521 0.05716
 O27 O -0.02412 -0.16358 -0.13116
 O28 O -0.03797 -0.12809 0.16041
 O29 O 0.01292 -0.06618 -0.19711
 O30 O 0.16441 -0.04576 0.12817
 O31 O -0.19350 0.02580 0.06002
 O32 O -0.16248 0.03077 -0.13203
 O33 O 0.19725 -0.02280 -0.06040
 O34 O 0.05785 -0.19906 -0.01763
 O35 O -0.13039 -0.16138 -0.04889
 Zr36 Zr 0.12297 -0.02886 0.02163
 Zr37 Zr -0.12166 0.02384 -0.02418
 Zr38 Zr -0.02283 -0.02210 0.12062
 Zr39 Zr 0.02521 0.01838 -0.12311
 Zr40 Zr -0.02391 -0.12303 -0.02552
 O41 O -0.06083 -0.04011 -0.08728
 O42 O 0.03946 -0.08859 0.06043
 C43 C 0.12479 -0.19424 0.00208
 C44 C -0.19068 -0.12634 -0.05692
 C45 C 0.13082 -0.04660 0.18839
 C46 C 0.19139 -0.00423 -0.12718
 C47 C -0.12873 0.03111 -0.19216
 C48 C -0.18648 0.01246 0.12797
 C49 C -0.04269 -0.18871 0.12618
 C50 C -0.01016 -0.13159 -0.19084
 H51 H -0.12644 -0.08955 0.05828
 O52 O -0.08679 -0.06124 0.03826
 H53 H 0.09277 -0.09941 -0.09504
 O54 O 0.06338 -0.06812 -0.06472
 O55 O 0.30596 0.55636 0.02446
 O56 O 0.66006 0.62822 -0.04875
 O57 O 0.47135 0.69391 0.06155
 O58 O 0.45530 0.65849 -0.12687
 O59 O 0.45465 0.55491 -0.19450
 O60 O 0.50737 0.63196 0.16316
 O61 O 0.55582 0.69453 -0.04771
 O62 O 0.36752 0.65762 -0.01030
 Zr63 Zr 0.47492 0.62002 -0.02126
 O64 O 0.53657 0.55901 -0.08685
 O65 O 0.43794 0.56144 0.06353
 C66 C 0.31008 0.62351 0.00902
 C67 C 0.62474 0.68802 -0.05548
 C68 C 0.48221 0.68903 0.12996
 C69 C 0.45181 0.62396 -0.18716
 H70 H 0.59166 0.62788 0.06158
 O71 O 0.56281 0.58797 0.04093
 H72 H 0.37530 0.55831 -0.08843
 O73 O 0.41468 0.53614 -0.05972
 O74 O 0.69794 0.44251 -0.02068
 O75 O 0.34308 0.36917 0.04603
 O76 O 0.63335 0.53470 0.16289
 O77 O 0.55767 0.48074 -0.19671
 O78 O 0.36895 0.45551 -0.16233
 O79 O 0.44204 0.52377 0.19524
 O80 O 0.55369 0.33865 0.12581
 O81 O 0.52624 0.30231 -0.05972
 O82 O 0.55160 0.44112 0.19508
 O83 O 0.48992 0.36429 -0.16135
 O84 O 0.69755 0.53826 0.05941
 O85 O 0.34097 0.48838 0.12991
 O86 O 0.30504 0.45302 -0.05862
 O87 O 0.65859 0.51756 -0.13187
 O88 O 0.63631 0.34209 0.01618
 O89 O 0.44748 0.30293 0.04563
 Zr90 Zr 0.62168 0.52366 -0.02500
 Zr91 Zr 0.38072 0.47446 0.02472
 Zr92 Zr 0.52535 0.52527 0.12272
 Zr93 Zr 0.47650 0.47139 -0.12182
 Zr94 Zr 0.52837 0.37797 0.02203
 O95 O 0.43948 0.40841 -0.03977
 O96 O 0.58857 0.46242 0.06001
 C97 C 0.69396 0.37593 -0.00240
 C98 C 0.37844 0.30928 0.05169
 C99 C 0.69306 0.53171 0.12836
 C100 C 0.62445 0.50029 -0.19119
 C101 C 0.30903 0.45610 -0.12789
 C102 C 0.37402 0.50979 0.18847
 C103 C 0.55822 0.37220 0.18645
 C104 C 0.51214 0.30660 -0.12767
 H105 H 0.44522 0.40975 0.12593
 O106 O 0.46508 0.43850 0.08669
 H107 H 0.59570 0.40700 -0.09377
 O108 O 0.56470 0.43632 -0.06334
 O109 O -0.19710 0.55253 0.45295
 O110 O 0.16058 0.63095 0.51649
 O111 O -0.04960 0.68987 0.55813
 O112 O -0.01948 0.66269 0.37125
 O113 O 0.01638 0.56514 0.30517
 O114 O -0.04526 0.62240 0.66161
 O115 O 0.05879 0.69390 0.48033
 O116 O -0.13119 0.65701 0.45727
 Zr117 Zr -0.02389 0.61905 0.47647
 O118 O 0.06334 0.56478 0.43704
 O119 O -0.08803 0.55646 0.53869
 C120 C -0.19146 0.62185 0.44997
 C121 C 0.12608 0.68916 0.49847
 C122 C -0.05141 0.68284 0.62688
 C123 C -0.00441 0.63127 0.31143
 H124 H 0.06006 0.62127 0.59301
 O125 O 0.03918 0.58295 0.56243
 H126 H -0.09186 0.55885 0.37668
 O127 O -0.06149 0.53702 0.41486
 O128 O 0.19775 0.44253 0.54983
 O129 O -0.15826 0.36383 0.47941
 O130 O 0.06069 0.53324 0.69658
 O131 O 0.12948 0.49305 0.33812
 O132 O -0.05984 0.45646 0.30380
 O133 O -0.13107 0.50997 0.65973
 O134 O 0.02461 0.33522 0.62963
 O135 O 0.04590 0.30548 0.44138
 O136 O -0.01263 0.43211 0.69573
 O137 O 0.04091 0.37362 0.33834
 O138 O 0.16371 0.53207 0.63077
 O139 O -0.19646 0.47657 0.55832
 O140 O -0.16307 0.45540 0.36942
 O141 O 0.19491 0.52636 0.43950
 O142 O 0.13033 0.33889 0.54951
 O143 O -0.05665 0.30073 0.51549
 Zr144 Zr 0.12260 0.52400 0.52326
 Zr145 Zr -0.12188 0.47097 0.47636
 Zr146 Zr -0.02458 0.51718 0.62189
 Zr147 Zr 0.02434 0.47915 0.37806
 Zr148 Zr 0.02464 0.37699 0.52409
 O149 O -0.03808 0.41185 0.43765
 O150 O 0.06170 0.45943 0.58604
 C151 C 0.19065 0.37364 0.55726
 C152 C -0.12341 0.30544 0.49527
 C153 C 0.13005 0.53038 0.69087
 C154 C 0.18834 0.51330 0.37154
 C155 C -0.12928 0.45546 0.30929
 C156 C -0.19080 0.49456 0.62525
 C157 C 0.01065 0.36677 0.68947
 C158 C 0.04562 0.31292 0.37254
 H159 H -0.09224 0.39963 0.59312
 O160 O -0.06283 0.43124 0.56305
 H161 H 0.12767 0.41108 0.44098
 O162 O 0.08782 0.43927 0.46070
 O163 O 0.34282 0.12729 0.54732
 O164 O 0.69695 0.05484 0.47674
 O165 O 0.54597 0.15755 0.62698
 O166 O 0.53194 0.19291 0.43823
 O167 O 0.49727 0.13024 0.33664
 O168 O 0.54526 0.05389 0.69467
 O169 O 0.63522 0.15624 0.51060
 O170 O 0.44709 0.19368 0.54755
 Zr171 Zr 0.52770 0.11897 0.52119
 O172 O 0.56508 0.06011 0.43691
 O173 O 0.46522 0.05794 0.58605
 C174 C 0.37821 0.18689 0.55507
 C175 C 0.69268 0.12208 0.49154
 C176 C 0.54806 0.12303 0.68743
 C177 C 0.52223 0.18717 0.36983
 H178 H 0.62671 0.05700 0.58936
 O179 O 0.58758 0.03493 0.56028
 H180 H 0.41173 0.12714 0.43741
 O181 O 0.44030 0.08705 0.45827
 O182 O 0.66008 -0.13222 0.45528
 O183 O 0.30413 -0.05810 0.51886
 O184 O 0.63157 -0.04604 0.66335
 O185 O 0.56154 0.02282 0.30511
 O186 O 0.37078 0.03459 0.33603
 O187 O 0.44300 -0.02022 0.69585
 O188 O 0.47495 -0.19872 0.55935
 O189 O 0.45062 -0.16307 0.37342
 O190 O 0.51044 -0.13674 0.66110
 O191 O 0.45326 -0.06023 0.30454
 O192 O 0.69664 -0.04883 0.56028
 O193 O 0.34274 0.01696 0.63007
 O194 O 0.30552 0.03856 0.43888
 O195 O 0.66234 -0.01247 0.37103
 O196 O 0.55549 -0.19809 0.45590
 O197 O 0.36568 -0.15870 0.48260
 Zr198 Zr 0.62204 -0.02691 0.47615
 Zr199 Zr 0.38067 0.02276 0.52358
 Zr200 Zr 0.52473 -0.02970 0.62172
 Zr201 Zr 0.47817 0.02400 0.37711
 Zr202 Zr 0.47397 -0.12317 0.47752
 O203 O 0.41397 -0.03871 0.43892
 O204 O 0.56228 -0.09275 0.54014
 C205 C 0.62464 -0.19209 0.45026
 C206 C 0.30798 -0.12470 0.50086
 C207 C 0.69169 -0.04617 0.62940
 C208 C 0.62950 0.00912 0.31228
 C209 C 0.31085 0.03241 0.37011
 C210 C 0.37640 -0.00021 0.68972
 C211 C 0.48809 -0.19423 0.62739
 C212 C 0.44712 -0.12934 0.31268
 H213 H 0.40562 -0.09378 0.59272
 O214 O 0.43709 -0.06468 0.56248
 H215 H 0.55856 -0.09144 0.37471
 O216 O 0.53816 -0.06276 0.41362
 C217 C 0.25891 0.16229 0.06533
 C218 C 0.32131 0.12900 0.08940
 C219 C 0.37282 0.18053 0.08977
 C220 C 0.33872 0.24213 0.06593
 O221 O 0.26906 0.23148 0.05118
 H222 H 0.32876 0.07303 0.10322
 H223 H 0.42925 0.17360 0.10391
 C224 C 0.16269 -0.24236 0.50280
 C225 C 0.12579 -0.17972 0.51502
 C226 C 0.17618 -0.12804 0.51620
 C227 C 0.24000 -0.16282 0.50336
 O228 O 0.23243 -0.23282 0.49584
 H229 H 0.06887 -0.17287 0.52323
 H230 H 0.16751 -0.07162 0.52613
 C231 C 0.74458 0.83579 -0.06999
 C232 C 0.68050 0.87006 -0.08744
 C233 C 0.62922 0.81836 -0.08796
 C234 C 0.66454 0.75546 -0.07039
 O235 O 0.73520 0.76552 -0.06005
 H236 H 0.67174 0.92676 -0.09678
 H237 H 0.57204 0.82613 -0.09726
 C238 C 0.83956 0.23753 0.48900
 C239 C 0.87593 0.17424 0.47882
 C240 C 0.82470 0.12334 0.47738
 C241 C 0.76094 0.15944 0.48754
 O242 O 0.76946 0.22928 0.49427
 H243 H 0.93312 0.16633 0.47327
 H244 H 0.83294 0.06635 0.47045
 C245 C 0.83843 0.25754 -0.00371
 C246 C 0.87582 0.32009 -0.01530
 C247 C 0.82578 0.37209 -0.01673
 C248 C 0.76167 0.33754 -0.00472
 O249 O 0.76870 0.26745 0.00261
 H250 H 0.93289 0.32668 -0.02276
 H251 H 0.83488 0.42856 -0.02611
 C252 C 0.74355 -0.34048 0.43896
 C253 C 0.67914 -0.37499 0.42371
 C254 C 0.62810 -0.32322 0.42288
 C255 C 0.66396 -0.26008 0.43801
 O256 O 0.73466 -0.27003 0.44733
 H257 H 0.67008 -0.43182 0.41570
 H258 H 0.57079 -0.33099 0.41455
 C259 C 0.25780 0.33291 0.57343
 C260 C 0.31969 0.36530 0.59993
 C261 C 0.37153 0.31393 0.59898
 C262 C 0.33812 0.25332 0.57199
 O263 O 0.26862 0.26445 0.55656
 H264 H 0.32669 0.42071 0.61587
 H265 H 0.42774 0.32045 0.61419
 C266 C 0.16220 0.73799 0.00823
 C267 C 0.12616 0.67444 0.01799
 C268 C 0.17782 0.62401 0.02108
 C269 C 0.24153 0.66055 0.01196
 O270 O 0.23254 0.73029 0.00451
 H271 H 0.06895 0.66604 0.02241
 H272 H 0.16990 0.56702 0.02839
 C273 C 0.02087 0.16700 0.25547
 C274 C 0.03443 0.12973 0.31812
 C275 C 0.05132 0.17985 0.36777
 C276 C 0.04581 0.24488 0.33264
 O277 O 0.02785 0.23744 0.26368
 H278 H 0.03214 0.07244 0.32659
 H279 H 0.06298 0.17024 0.42407
 C280 C 0.52813 0.23963 0.83350
 C281 C 0.55249 0.17927 0.86984
 C282 C 0.56671 0.13031 0.81918
 C283 C 0.55030 0.16351 0.75490
 O284 O 0.52677 0.23043 0.76297
 H285 H 0.55938 0.17178 0.92710
 H286 H 0.58502 0.07581 0.82809
 C287 C -0.02547 0.83023 0.74167
 C288 C -0.03266 0.86615 0.67757
 C289 C -0.05143 0.81592 0.62875
 C290 C -0.05203 0.75164 0.66564
 O291 O -0.03669 0.76010 0.73500
 H292 H -0.02358 0.92233 0.66730
 H293 H -0.05873 0.82456 0.57170
 C294 C 0.46225 -0.24865 0.16735
 C295 C 0.43093 -0.19044 0.13209
 C296 C 0.41761 -0.14121 0.18289
 C297 C 0.44121 -0.17175 0.24627
 O298 O 0.46836 -0.23749 0.23760
 H299 H 0.41937 -0.18415 0.07528
 H300 H 0.39543 -0.08807 0.17449
 C301 C -0.04131 0.74647 0.16416
 C302 C -0.04421 0.68104 0.12949
 C303 C -0.02862 0.63146 0.18014
 C304 C -0.01860 0.66904 0.24305
 O305 O -0.02681 0.73943 0.23405
 H306 H -0.05376 0.67070 0.07301
 H307 H -0.02488 0.57421 0.17211
 C308 C 0.44770 -0.33551 0.74567
 C309 C 0.42746 -0.36788 0.68207
 C310 C 0.44181 -0.31940 0.63087
 C311 C 0.47008 -0.26033 0.66643
 O312 O 0.47361 -0.26970 0.73681
 H313 H 0.40675 -0.42161 0.67393
 H314 H 0.43257 -0.32637 0.57383
 C315 C 0.56601 0.32913 0.25201
 C316 C 0.59484 0.35702 0.31451
 C317 C 0.58218 0.30702 0.36507
 C318 C 0.54570 0.25179 0.33036
 O319 O 0.53612 0.26483 0.26091
 H320 H 0.62012 0.40880 0.32252
 H321 H 0.59710 0.31090 0.42137
 C322 C 0.05026 0.24994 0.83491
 C323 C 0.05052 0.31479 0.87084
 C324 C 0.03335 0.36483 0.82110
 C325 C 0.02601 0.32845 0.75735
 O326 O 0.03639 0.25812 0.76504
 H327 H 0.05794 0.32421 0.92774
 H328 H 0.02562 0.42137 0.83049
 C329 C 0.17163 -0.03635 0.25669
 C330 C 0.13702 -0.03700 0.32096
 C331 C 0.18258 -0.00522 0.36867
 C332 C 0.24344 0.01130 0.33160
 O333 O 0.23714 -0.00752 0.26294
 H334 H 0.08279 -0.05465 0.33097
 H335 H 0.17301 0.00372 0.42472
 C336 C 0.24402 0.47284 0.83528
 C337 C 0.18236 0.48822 0.87189
 C338 C 0.13619 0.51829 0.82351
 C339 C 0.17061 0.51725 0.75923
 O340 O 0.23693 0.49004 0.76600
 H341 H 0.17311 0.48148 0.92841
 H342 H 0.08223 0.53670 0.83353
 C343 C 0.83339 0.01749 0.74313
 C344 C 0.86733 0.01802 0.67843
 C345 C 0.82091 -0.01265 0.63088
 C346 C 0.75996 -0.02826 0.66830
 O347 O 0.76689 -0.00922 0.73702
 H348 H 0.92096 0.03682 0.66746
 H349 H 0.82947 -0.01977 0.57431
 C350 C -0.24268 0.51208 0.16488
 C351 C -0.18059 0.49808 0.12858
 C352 C -0.13459 0.46741 0.17674
 C353 C -0.16984 0.46643 0.24065
 O354 O -0.23622 0.49344 0.23378
 H355 H -0.17040 0.50771 0.07271
 H356 H -0.07980 0.45128 0.16719
 C357 C 0.26005 0.00002 0.83563
 C358 C 0.32510 0.00018 0.87302
 C359 C 0.37580 0.00200 0.82281
 C360 C 0.33859 0.00280 0.75786
 O361 O 0.26771 0.00218 0.76513
 H362 H 0.33445 -0.00140 0.93047
 H363 H 0.43349 0.00181 0.83239
 C364 C 0.33385 0.52072 0.25445
 C365 C 0.36638 0.55109 0.31442
 C366 C 0.31557 0.55248 0.36430
 C367 C 0.25499 0.52291 0.33189
 O368 O 0.26548 0.50358 0.26448
 H369 H 0.42119 0.57003 0.32110
 H370 H 0.32209 0.57250 0.41847
 C371 C 0.74757 0.02274 0.16827
 C372 C 0.68748 0.05431 0.13687
 C373 C 0.63721 0.05318 0.18725
 C374 C 0.66960 0.02092 0.24644
 O375 O 0.73738 0.00244 0.23549
 H376 H 0.68094 0.07548 0.08308
 H377 H 0.58281 0.07345 0.18137
 C378 C -0.33796 0.50224 0.74042
 C379 C -0.37528 0.49995 0.67556
 C380 C -0.32466 0.49752 0.62525
 C381 C -0.25953 0.49848 0.66246
 O382 O -0.26709 0.50189 0.73294
 H383 H -0.43298 0.49924 0.66612
 H384 H -0.33413 0.49491 0.56786
   
