data_POSCAR
  _audit_creation_date              2014-09-24
  _audit_creation_method            'ToBaCCo'
  _symmetry_space_group_name_H-M    'P1'
  _symmetry_Int_Tables_number       1
  _symmetry_cell_setting            triclinic
  loop_
  _symmetry_equiv_pos_as_xyz
 x,y,z
_cell_length_a 27.3904
_cell_length_b 27.0478
_cell_length_c 29.0788
_cell_angle_alpha 89.375800
_cell_angle_beta 90.807800
_cell_angle_gamma 90.418200
loop_
  _atom_site_label
  _atom_site_type_symbol
  _atom_site_fract_x
  _atom_site_fract_y
  _atom_site_fract_z
Si1 Si 1.24823 0.25580 0.25124
 Si2 Si 0.75124 -0.23692 0.25134
 Si3 Si 0.73640 0.25019 -0.25348
 Si4 Si 1.24013 -0.24268 -0.24466
 Si5 Si 0.25864 0.24431 0.74855
 Si6 Si 0.75530 0.74529 0.74988
 Si7 Si 0.75250 0.24772 0.24760
 Si8 Si 0.25100 0.73927 0.25019
 O9 O 1.06976 0.03201 0.06919
 O10 O 0.91091 -0.04091 0.03450
 O11 O 0.96277 0.09812 0.04466
 O12 O 1.04092 -0.12013 0.02381
 O13 O 0.90264 0.04943 0.02033
 O14 O 1.06807 -0.05382 0.05730
 O15 O 0.97985 -0.06707 0.06327
 O16 O 1.05421 0.09988 0.03451
 C17 C 1.06913 0.07750 0.06931
 C18 C 0.93479 -0.06132 0.06697
 C19 C 0.91919 0.08339 0.04639
 C20 C 1.07239 -0.09994 0.05170
 O21 O 1.09321 -0.03936 -0.03266
 O22 O 0.92574 0.03322 -0.06976
 O23 O 1.04146 0.09112 -0.05382
 O24 O 0.95283 -0.10701 -0.01202
 O25 O 0.93469 -0.04989 -0.05774
 O26 O 1.10001 0.04917 -0.01998
 O27 O 1.02618 -0.07419 -0.05288
 O28 O 0.95131 0.10159 -0.04249
 Co29 Co 1.07574 -0.00211 0.01656
 Co30 Co 0.92485 -0.00167 -0.01651
 Co31 Co 1.00249 0.08886 -0.00405
 Co32 Co 1.00478 -0.06745 0.00522
 O33 O 0.99965 0.00733 -0.00143
 C34 C 1.06954 -0.06498 -0.06070
 C35 C 0.92808 0.07854 -0.07219
 C36 C 1.08487 0.07746 -0.05207
 C37 C 0.93028 -0.09394 -0.04718
 O38 O 1.09403 0.55428 0.53267
 O39 O 0.90311 0.44032 0.52709
 O40 O 0.94562 0.59063 0.53364
 O41 O 1.05156 0.40309 0.53673
 O42 O 0.91513 0.52207 0.55644
 O43 O 1.08202 0.47100 0.56106
 O44 O 0.96866 0.41322 0.55688
 O45 O 1.02735 0.58109 0.55789
 C46 C 1.07167 0.57643 0.56295
 C47 C 0.92403 0.41736 0.55880
 C48 C 0.92293 0.56635 0.56326
 C49 C 1.07567 0.42607 0.56647
 O50 O 1.09229 0.43828 0.47443
 O51 O 0.90627 0.55794 0.46934
 O52 O 1.05654 0.59015 0.46795
 O53 O 0.94283 0.40611 0.46535
 O54 O 0.91614 0.47549 0.44056
 O55 O 1.08476 0.52132 0.44557
 O56 O 1.02548 0.41331 0.44543
 O57 O 0.97392 0.58292 0.44345
 Co58 Co 1.07932 0.49641 0.50321
 Co59 Co 0.91927 0.49884 0.49860
 Co60 Co 1.00070 0.57778 0.50072
 Co61 Co 0.99733 0.41742 0.50114
 O62 O 0.99920 0.49762 0.50095
 C63 C 1.07000 0.41756 0.44252
 C64 C 0.92919 0.58096 0.43925
 C65 C 1.07895 0.56597 0.43873
 C66 C 0.92199 0.43082 0.43451
 O67 O 0.57266 0.02061 0.55636
 O68 O 0.40025 -0.05852 0.53120
 O69 O 0.45212 0.09387 0.51733
 O70 O 0.54869 -0.07189 0.55760
 O71 O 0.40789 0.03283 0.54516
 O72 O 0.60702 -0.05245 0.51569
 O73 O 0.46626 -0.08079 0.56448
 O74 O 0.53922 0.08830 0.53517
 C75 C 0.56361 0.06444 0.56416
 C76 C 0.42154 -0.07756 0.56464
 C77 C 0.42150 0.07702 0.54601
 C78 C 0.59265 -0.07577 0.54971
 O79 O 0.57099 -0.02421 0.43891
 O80 O 0.40469 0.04788 0.45708
 O81 O 0.55772 0.06519 0.44602
 O82 O 0.45410 -0.10476 0.47292
 O83 O 0.40865 -0.04433 0.44451
 O84 O 0.62144 0.03719 0.48311
 O85 O 0.54359 -0.09492 0.46440
 O86 O 0.47347 0.06725 0.42843
 Co87 Co 0.56865 -0.00020 0.49732
 Co88 Co 0.41408 -0.00541 0.49491
 Co89 Co 0.50471 0.07142 0.48337
 Co90 Co 0.50281 -0.08181 0.51327
 O91 O 0.49467 -0.00625 0.49859
 C92 C 0.56515 -0.06975 0.43375
 C93 C 0.42861 0.06728 0.42569
 C94 C 0.60301 0.06943 0.45469
 C95 C 0.42280 -0.08832 0.44386
 O96 O 0.58633 0.53378 0.05669
 O97 O 0.41996 0.47619 0.05768
 O98 O 0.47941 0.58916 0.05843
 O99 O 0.52644 0.41959 0.05853
 O100 O 0.41108 0.55943 0.03556
 O101 O 0.59409 0.44995 0.03525
 O102 O 0.44442 0.40891 0.03030
 O103 O 0.56010 0.60096 0.02842
 C104 C 0.58248 0.57891 0.05983
 C105 C 0.42334 0.43111 0.06133
 C106 C 0.43560 0.58192 0.06530
 C107 C 0.57065 0.42587 0.06461
 O108 O 0.58425 0.47780 -0.05589
 O109 O 0.41760 0.53247 -0.05539
 O110 O 0.52374 0.59027 -0.05781
 O111 O 0.47649 0.42004 -0.05670
 O112 O 0.40911 0.44880 -0.03308
 O113 O 0.59232 0.56138 -0.03478
 O114 O 0.55875 0.41010 -0.02799
 O115 O 0.44297 0.60019 -0.02812
 Co116 Co 0.58099 0.50565 0.00039
 Co117 Co 0.42275 0.50430 0.00112
 Co118 Co 0.50154 0.58597 0.00028
 Co119 Co 0.50153 0.42382 0.00096
 O120 O 0.50173 0.50491 0.00067
 C121 C 0.57969 0.43276 -0.05947
 C122 C 0.42005 0.57771 -0.05867
 C123 C 0.56754 0.58363 -0.06475
 C124 C 0.43213 0.42527 -0.06238
 C125 C 1.14206 0.15742 0.16551
 C126 C 1.13829 0.20895 0.16361
 C127 C 1.16974 0.23812 0.19015
 C128 C 1.20553 0.21593 0.21825
 C129 C 1.20791 0.16422 0.22143
 C130 C 1.17644 0.13504 0.19487
 C131 C 1.11395 0.12794 0.13414
 C132 C 1.09231 0.10418 0.10567
 H133 H 1.11191 0.22656 0.14079
 H134 H 1.16694 0.27801 0.18793
 H135 H 1.23420 0.14618 0.24386
 H136 H 1.17962 0.09515 0.19644
 C137 C 1.14900 0.65567 0.65751
 C138 C 1.18398 0.68814 0.63953
 C139 C 1.21139 0.71839 0.66876
 C140 C 1.20379 0.71682 0.71636
 C141 C 1.16947 0.68339 0.73446
 C142 C 1.14190 0.65307 0.70509
 C143 C 1.12044 0.62584 0.62647
 C144 C 1.09757 0.60241 0.59843
 H145 H 1.19003 0.69016 0.60280
 H146 H 1.23853 0.74265 0.65386
 H147 H 1.16377 0.68108 0.77121
 H148 H 1.11506 0.62785 0.71938
 C149 C 0.63293 0.14521 0.66264
 C150 C 0.62773 0.19660 0.65914
 C151 C 0.65812 0.22783 0.68492
 C152 C 0.69428 0.20803 0.71420
 C153 C 0.69831 0.15644 0.71871
 C154 C 0.66796 0.12519 0.69284
 C155 C 0.60592 0.11375 0.63163
 C156 C 0.58523 0.08951 0.60266
 H157 H 0.60102 0.21257 0.63561
 H158 H 0.65394 0.26749 0.68145
 H159 H 0.72531 0.14004 0.74152
 H160 H 0.67260 0.08552 0.69557
 C161 C 0.65688 0.66107 0.15538
 C162 C 0.65132 0.71251 0.15389
 C163 C 0.67907 0.74259 0.18328
 C164 C 0.71305 0.72165 0.21420
 C165 C 0.71755 0.66998 0.21651
 C166 C 0.68977 0.63987 0.18708
 C167 C 0.63013 0.63050 0.12318
 C168 C 0.60817 0.60610 0.09501
 H169 H 0.62599 0.72943 0.12959
 H170 H 0.67465 0.78233 0.18133
 H171 H 0.74263 0.65270 0.24066
 H172 H 0.69431 0.60013 0.18873
 C173 C 0.85355 -0.13736 0.16079
 C174 C 0.82202 -0.17190 0.14024
 C175 C 0.79154 -0.20161 0.16719
 C176 C 0.79183 -0.19699 0.21519
 C177 C 0.82400 -0.16285 0.23587
 C178 C 0.85461 -0.13298 0.20878
 C179 C 0.88456 -0.10735 0.13174
 C180 C 0.90875 -0.08461 0.10410
 H181 H 0.82109 -0.17600 0.10321
 H182 H 0.76812 -0.22829 0.15025
 H183 H 0.82527 -0.15922 0.27292
 H184 H 0.87901 -0.10666 0.22520
 C185 C 0.83906 0.34033 0.64895
 C186 C 0.84929 0.33727 0.69614
 C187 C 0.81824 0.31043 0.72505
 C188 C 0.77641 0.28673 0.70717
 C189 C 0.76676 0.28932 0.65970
 C190 C 0.79780 0.31619 0.63079
 C191 C 0.87075 0.36792 0.61888
 C192 C 0.89608 0.39074 0.59239
 H193 H 0.88136 0.35534 0.71054
 H194 H 0.82754 0.30750 0.76125
 H195 H 0.73556 0.27063 0.64467
 H196 H 0.78971 0.31801 0.59424
 C197 C 0.34015 -0.14477 0.66326
 C198 C 0.28942 -0.13915 0.66148
 C199 C 0.25987 -0.16744 0.69046
 C200 C 0.28081 -0.20196 0.72102
 C201 C 0.33179 -0.20588 0.72418
 C202 C 0.36136 -0.17755 0.69516
 C203 C 0.36993 -0.11963 0.63011
 C204 C 0.39403 -0.09981 0.60088
 H205 H 0.27267 -0.11388 0.63688
 H206 H 0.22058 -0.16357 0.68798
 H207 H 0.34891 -0.23132 0.74823
 H208 H 0.40063 -0.18205 0.69684
 C209 C 0.34437 0.35193 0.15397
 C210 C 0.34928 0.35663 0.20170
 C211 C 0.32011 0.32788 0.23083
 C212 C 0.28566 0.29472 0.21233
 C213 C 0.28136 0.28980 0.16450
 C214 C 0.31046 0.31844 0.13548
 C215 C 0.37384 0.38107 0.12342
 C216 C 0.39726 0.40449 0.09600
 H217 H 0.37561 0.38230 0.21633
 H218 H 0.32439 0.33150 0.26773
 H219 H 0.25604 0.26363 0.14934
 H220 H 0.30667 0.31432 0.09857
 C221 C 0.84189 0.15666 -0.16119
 C222 C 0.84702 0.15717 -0.20901
 C223 C 0.81514 0.18515 -0.23658
 C224 C 0.77802 0.21274 -0.21647
 C225 C 0.77298 0.21201 -0.16858
 C226 C 0.80482 0.18407 -0.14108
 C227 C 0.87420 0.12808 -0.13227
 C228 C 0.89984 0.10490 -0.10604
 H229 H 0.87555 0.13603 -0.22490
 H230 H 0.81944 0.18533 -0.27355
 H231 H 0.74444 0.23268 -0.15233
 H232 H 0.80049 0.18379 -0.10409
 C233 C 0.85162 0.66735 0.34842
 C234 C 0.85735 0.66623 0.30063
 C235 C 0.82777 0.69560 0.27183
 C236 C 0.79186 0.72598 0.29046
 C237 C 0.78709 0.72786 0.33838
 C238 C 0.81666 0.69859 0.36714
 C239 C 0.88072 0.63614 0.37853
 C240 C 0.90371 0.61050 0.40525
 H241 H 0.88434 0.64242 0.28564
 H242 H 0.83239 0.69405 0.23494
 H243 H 0.76047 0.75163 0.35380
 H244 H 0.81202 0.70007 0.40404
 C245 C 0.35285 0.15610 0.33783
 C246 C 0.32221 0.18926 0.35985
 C247 C 0.29168 0.22018 0.33403
 C248 C 0.29130 0.21786 0.28593
 C249 C 0.32339 0.18592 0.26386
 C250 C 0.35392 0.15481 0.28977
 C251 C 0.38183 0.12290 0.36533
 C252 C 0.40425 0.09636 0.39128
 H253 H 0.32147 0.19075 0.39706
 H254 H 0.26820 0.24533 0.35185
 H255 H 0.32392 0.18423 0.22667
 H256 H 0.37772 0.12942 0.27246
 C257 C 0.33459 0.65622 -0.14842
 C258 C 0.30226 0.68997 -0.12939
 C259 C 0.27309 0.71966 -0.15799
 C260 C 0.27631 0.71611 -0.20591
 C261 C 0.30768 0.68120 -0.22487
 C262 C 0.33693 0.65152 -0.19623
 C263 C 0.36567 0.62723 -0.11857
 C264 C 0.39110 0.60403 -0.09211
 H265 H 0.29991 0.69363 -0.09242
 H266 H 0.24848 0.74547 -0.14246
 H267 H 0.31017 0.67760 -0.26182
 H268 H 0.36163 0.62535 -0.21133
 C269 C 1.14438 -0.13698 -0.15887
 C270 C 1.19538 -0.13404 -0.15641
 C271 C 1.22363 -0.16538 -0.18284
 C272 C 1.20115 -0.20028 -0.21163
 C273 C 1.15003 -0.20199 -0.21528
 C274 C 1.12172 -0.17064 -0.18872
 C275 C 1.11590 -0.10891 -0.12742
 C276 C 1.09365 -0.08740 -0.09844
 H277 H 1.21331 -0.10837 -0.13321
 H278 H 1.26306 -0.16310 -0.18009
 H279 H 1.13184 -0.22779 -0.23801
 H280 H 1.08227 -0.17338 -0.19071
 C281 C 1.14791 0.34578 0.34642
 C282 C 1.17913 0.37103 0.31637
 C283 C 1.20928 0.34451 0.28726
 C284 C 1.20860 0.29267 0.28854
 C285 C 1.17647 0.26766 0.31796
 C286 C 1.14638 0.29410 0.34693
 C287 C 1.11920 0.37243 0.37855
 C288 C 1.09604 0.39359 0.40700
 H289 H 1.18051 0.41107 0.31580
 H290 H 1.23305 0.36455 0.26416
 H291 H 1.17511 0.22762 0.31892
 H292 H 1.12240 0.27427 0.37015
 C293 C 0.64191 -0.14457 0.33765
 C294 C 0.67558 -0.12023 0.30929
 C295 C 0.70793 -0.14748 0.28276
 C296 C 0.70730 -0.19937 0.28474
 C297 C 0.67257 -0.22357 0.31214
 C298 C 0.64025 -0.19636 0.33862
 C299 C 0.61203 -0.11683 0.36864
 C300 C 0.58906 -0.09461 0.39687
 H301 H 0.67745 -0.08021 0.30833
 H302 H 0.73361 -0.12784 0.26125
 H303 H 0.67109 -0.26358 0.31372
 H304 H 0.61464 -0.21573 0.36056
 C305 C 0.64932 0.35402 -0.15730
 C306 C 0.69940 0.36139 -0.16353
 C307 C 0.72507 0.33093 -0.19307
 C308 C 0.70093 0.29285 -0.21686
 C309 C 0.65057 0.28584 -0.21076
 C310 C 0.62489 0.31634 -0.18116
 C311 C 0.62385 0.38309 -0.12427
 C312 C 0.60330 0.40646 -0.09536
 H313 H 0.71882 0.39006 -0.14485
 H314 H 0.76390 0.33666 -0.19640
 H315 H 0.63114 0.25615 -0.22779
 H316 H 0.58622 0.30991 -0.17618
 C317 C 1.17095 0.14513 -0.14800
 C318 C 1.22200 0.14240 -0.14929
 C319 C 1.24804 0.17102 -0.18127
 C320 C 1.22332 0.20250 -0.21233
 C321 C 1.17219 0.20476 -0.21107
 C322 C 1.14623 0.17616 -0.17924
 C323 C 1.14350 0.11839 -0.11352
 C324 C 1.11817 0.09828 -0.08508
 H325 H 1.24168 0.11888 -0.12513
 H326 H 1.28753 0.16929 -0.18124
 H327 H 1.15215 0.22937 -0.23381
 H328 H 1.10681 0.17901 -0.17838
 C329 C 1.15174 0.64195 0.33901
 C330 C 1.14632 0.69330 0.33768
 C331 C 1.17572 0.72226 0.30915
 C332 C 1.21140 0.70027 0.28193
 C333 C 1.21503 0.64846 0.28162
 C334 C 1.18555 0.61947 0.31037
 C335 C 1.12496 0.61321 0.37220
 C336 C 1.10341 0.59082 0.40176
 H337 H 1.12025 0.71110 0.35964
 H338 H 1.17163 0.76208 0.30957
 H339 H 1.24092 0.63012 0.26004
 H340 H 1.18985 0.57968 0.31097
 C341 C 0.67834 0.15055 0.36070
 C342 C 0.64952 0.17498 0.32758
 C343 C 0.67140 0.20312 0.29288
 C344 C 0.72242 0.20662 0.29063
 C345 C 0.75114 0.18225 0.32413
 C346 C 0.72922 0.15412 0.35888
 C347 C 0.65512 0.12194 0.39623
 C348 C 0.63305 0.09800 0.42434
 H349 H 0.61004 0.17266 0.32885
 H350 H 0.64821 0.22260 0.26858
 H351 H 0.79047 0.18613 0.32438
 H352 H 0.75187 0.13571 0.38456
 C353 C 0.64139 0.65510 -0.16611
 C354 C 0.64032 0.70680 -0.16699
 C355 C 0.67310 0.73333 -0.19422
 C356 C 0.70757 0.70838 -0.22037
 C357 C 0.70670 0.65655 -0.22152
 C358 C 0.67389 0.62997 -0.19415
 C359 C 0.61298 0.62847 -0.13279
 C360 C 0.59113 0.60736 -0.10271
 H361 H 0.61545 0.72662 -0.14529
 H362 H 0.67298 0.77336 -0.19332
 H363 H 0.73207 0.63647 -0.24226
 H364 H 0.67500 0.58993 -0.19368
 C365 C 0.85415 -0.17814 -0.13905
 C366 C 0.86178 -0.16870 -0.18593
 C367 C 0.83223 -0.19163 -0.21924
 C368 C 0.79441 -0.22368 -0.20591
 C369 C 0.78774 -0.23386 -0.15889
 C370 C 0.81724 -0.21100 -0.12569
 C371 C 0.88218 -0.15187 -0.10475
 C372 C 0.90467 -0.12735 -0.07715
 H373 H 0.89022 -0.14323 -0.19671
 H374 H 0.83867 -0.18414 -0.25531
 H375 H 0.75997 -0.25955 -0.14745
 H376 H 0.81097 -0.21864 -0.08958
 C377 C 0.84819 0.35255 0.33747
 C378 C 0.87009 0.32683 0.30168
 C379 C 0.84193 0.29508 0.27411
 C380 C 0.79196 0.28899 0.28253
 C381 C 0.77040 0.31482 0.31839
 C382 C 0.79834 0.34650 0.34564
 C383 C 0.87662 0.38249 0.36841
 C384 C 0.89827 0.40597 0.39717
 H385 H 0.90883 0.33089 0.29548
 H386 H 0.85909 0.27536 0.24655
 H387 H 0.73183 0.31047 0.32531
 H388 H 0.78118 0.36578 0.37354
 C389 C 0.34963 -0.17362 0.35023
 C390 C 0.31724 -0.20951 0.36684
 C391 C 0.28671 -0.23539 0.33655
 C392 C 0.28748 -0.22537 0.28893
 C393 C 0.32085 -0.18992 0.27229
 C394 C 0.35144 -0.16388 0.30281
 C395 C 0.37875 -0.14530 0.38243
 C396 C 0.40058 -0.12049 0.41037
 H397 H 0.31549 -0.21749 0.40339
 H398 H 0.26321 -0.26366 0.35093
 H399 H 0.32340 -0.18239 0.23573
 H400 H 0.37634 -0.13612 0.28946
 C401 C 0.35454 0.34362 -0.15532
 C402 C 0.37693 0.31558 -0.18920
 C403 C 0.34864 0.28537 -0.21805
 C404 C 0.29774 0.28321 -0.21331
 C405 C 0.27563 0.31082 -0.17889
 C406 C 0.30386 0.34100 -0.15014
 C407 C 0.38337 0.37363 -0.12451
 C408 C 0.40634 0.39797 -0.09716
 H409 H 0.41619 0.31686 -0.19313
 H410 H 0.36667 0.26380 -0.24378
 H411 H 0.23644 0.30926 -0.17446
 H412 H 0.28618 0.36212 -0.12375
 C413 C 1.15307 -0.17610 0.14780
 C414 C 1.18364 -0.14952 0.17794
 C415 C 1.21255 -0.17447 0.21080
 C416 C 1.21137 -0.22633 0.21348
 C417 C 1.17921 -0.25250 0.18424
 C418 C 1.15047 -0.22759 0.15157
 C419 C 1.12458 -0.15072 0.11285
 C420 C 1.10074 -0.12873 0.08409
 H421 H 1.18555 -0.10955 0.17567
 H422 H 1.23613 -0.15313 0.23328
 H423 H 1.17733 -0.29253 0.18567
 H424 H 1.12676 -0.24858 0.12878
 C425 C 1.15555 0.34427 0.65856
 C426 C 1.18831 0.36598 0.68985
 C427 C 1.21897 0.33631 0.71716
 C428 C 1.21700 0.28458 0.71361
 C429 C 1.18431 0.26301 0.68202
 C430 C 1.15362 0.29269 0.65474
 C431 C 1.12605 0.37476 0.62837
 C432 C 1.10234 0.39918 0.60134
 H433 H 1.19067 0.40583 0.69265
 H434 H 1.24455 0.35409 0.74039
 H435 H 1.18270 0.22323 0.67834
 H436 H 1.12886 0.27545 0.63024
 C437 C 0.67367 -0.15331 0.64381
 C438 C 0.66397 -0.20408 0.64633
 C439 C 0.68746 -0.23334 0.67949
 C440 C 0.72116 -0.21229 0.71046
 C441 C 0.73000 -0.16115 0.70880
 C442 C 0.70631 -0.13170 0.67545
 C443 C 0.64840 -0.12393 0.60955
 C444 C 0.62463 -0.10121 0.58134
 H445 H 0.63841 -0.22115 0.62245
 H446 H 0.68015 -0.27276 0.68026
 H447 H 0.75552 -0.14409 0.73260
 H448 H 0.71358 -0.09230 0.67421
 C449 C 0.64576 0.34555 0.16045
 C450 C 0.64078 0.29400 0.16025
 C451 C 0.67163 0.26482 0.18770
 C452 C 0.70758 0.28697 0.21564
 C453 C 0.71178 0.33875 0.21621
 C454 C 0.68092 0.36787 0.18882
 C455 C 0.61783 0.37518 0.12862
 C456 C 0.59573 0.39918 0.10030
 H457 H 0.61407 0.27636 0.13790
 H458 H 0.66849 0.22494 0.18603
 H459 H 0.73978 0.35699 0.23647
 H460 H 0.68548 0.40770 0.18870
 C461 C 0.83708 0.15472 0.14029
 C462 C 0.84311 0.14474 0.18738
 C463 C 0.81844 0.17294 0.21964
 C464 C 0.78736 0.21123 0.20510
 C465 C 0.78218 0.22150 0.15782
 C466 C 0.80677 0.19333 0.12565
 C467 C 0.86401 0.12737 0.10702
 C468 C 0.88800 0.10615 0.07907
 H469 H 0.86710 0.11541 0.19916
 H470 H 0.82378 0.16466 0.25574
 H471 H 0.75954 0.25149 0.14541
 H472 H 0.80248 0.20198 0.08935
 C473 C 0.85231 0.64636 0.65852
 C474 C 0.85068 0.63737 0.70602
 C475 C 0.82256 0.66777 0.73384
 C476 C 0.79544 0.70662 0.71410
 C477 C 0.79887 0.71633 0.66677
 C478 C 0.82691 0.68625 0.63920
 C479 C 0.87904 0.61507 0.62846
 C480 C 0.89982 0.59134 0.60008
 H481 H 0.87062 0.60679 0.72137
 H482 H 0.82120 0.66043 0.77049
 H483 H 0.77993 0.74695 0.65063
 H484 H 0.82843 0.69388 0.60257
 C485 C 0.35129 0.15946 0.64126
 C486 C 0.35035 0.21122 0.64098
 C487 C 0.32282 0.23629 0.67346
 C488 C 0.29614 0.20989 0.70665
 C489 C 0.29700 0.15807 0.70671
 C490 C 0.32453 0.13301 0.67425
 C491 C 0.37820 0.13309 0.60703
 C492 C 0.39917 0.10898 0.57877
 H493 H 0.37055 0.23217 0.61551
 H494 H 0.32219 0.27632 0.67259
 H495 H 0.27620 0.13685 0.73144
 H496 H 0.32460 0.09295 0.67462
 C497 C 0.35770 0.65502 0.16041
 C498 C 0.35772 0.64676 0.20805
 C499 C 0.32546 0.67288 0.23567
 C500 C 0.29231 0.70659 0.21567
 C501 C 0.29403 0.71571 0.16801
 C502 C 0.32619 0.68989 0.14069
 C503 C 0.38841 0.62744 0.13053
 C504 C 0.41148 0.60585 0.10220
 H505 H 0.38228 0.62005 0.22371
 H506 H 0.32599 0.66622 0.27248
 H507 H 0.27096 0.74287 0.15125
 H508 H 0.32627 0.69695 0.10393
   
