data_POSCAR
  _audit_creation_date              2014-09-24
  _audit_creation_method            'ToBaCCo'
  _symmetry_space_group_name_H-M    'P1'
  _symmetry_Int_Tables_number       1
  _symmetry_cell_setting            triclinic
  loop_
  _symmetry_equiv_pos_as_xyz
 x,y,z
_cell_length_a 28.0631
_cell_length_b 28.0656
_cell_length_c 45.5901
_cell_angle_alpha 90.299400
_cell_angle_beta 90.940200
_cell_angle_gamma 89.594400
loop_
  _atom_site_label
  _atom_site_type_symbol
  _atom_site_fract_x
  _atom_site_fract_y
  _atom_site_fract_z
O1 O 0.03772 0.54673 1.02872
 O2 O 0.03936 0.45343 0.97156
 O3 O 0.03959 0.54638 0.97170
 O4 O 0.03838 0.45380 1.02856
 O5 O -0.04043 0.45407 1.02705
 O6 O -0.03921 0.54685 0.97013
 O7 O -0.03945 0.45386 0.97003
 O8 O -0.04109 0.54704 1.02717
 Cu9 Cu 0.04671 0.50007 1.00029
 Cu10 Cu -0.04800 0.50051 0.99843
 C11 C -0.00198 0.56274 1.03752
 C12 C 0.00020 0.43773 0.96126
 C13 C 0.00044 0.56240 0.96139
 C14 C -0.00118 0.43812 1.03730
 O15 O 0.45328 -0.03529 0.47195
 O16 O 0.54900 -0.03632 0.52824
 O17 O 0.45608 -0.03725 0.52894
 O18 O 0.54618 -0.03520 0.47119
 O19 O 0.54532 0.04359 0.47222
 O20 O 0.45506 0.04154 0.53002
 O21 O 0.54802 0.04246 0.52929
 O22 O 0.45239 0.04350 0.47301
 Cu23 Cu 0.50125 -0.04396 0.49998
 Cu24 Cu 0.50012 0.05072 0.50125
 C25 C 0.43652 0.00430 0.46308
 C26 C 0.56480 0.00292 0.53818
 C27 C 0.44015 0.00176 0.53911
 C28 C 0.56109 0.00450 0.46202
 C29 C 0.09096 0.00625 0.26328
 H30 H 0.09405 0.00622 0.23966
 C31 C 0.13194 0.00719 0.28108
 H32 H 0.16657 0.00730 0.27095
 C33 C 0.04190 0.00541 0.30508
 H34 H 0.00680 0.00551 0.31441
 C35 C 0.08189 0.00632 0.32367
 H36 H 0.07699 0.00711 0.34718
 N37 N 0.04709 0.00450 0.27547
 C38 C -0.04399 -0.06327 0.20914
 H39 H -0.07286 -0.03757 0.20777
 C40 C -0.04502 -0.10408 0.19150
 H41 H -0.07461 -0.10923 0.17631
 C42 C 0.03010 -0.08698 0.23023
 H43 H 0.05901 -0.08061 0.24563
 C44 C 0.03052 -0.12826 0.21301
 H45 H 0.05990 -0.15323 0.21539
 Zn46 Zn -0.00685 0.00211 0.24995
 N47 N -0.00636 -0.05501 0.22759
 C48 C -0.00309 0.05012 0.19531
 N49 N -0.00427 0.05574 0.22495
 C50 C -0.00228 0.09976 0.23751
 C51 C -0.00056 0.14046 0.22006
 C52 C -0.00128 0.08981 0.17706
 C53 C -0.07187 -0.03458 0.28965
 C54 C -0.11237 -0.03543 0.30700
 C55 C -0.13643 0.04037 0.28649
 C56 C -0.09545 0.03975 0.26952
 N57 N -0.06369 0.00307 0.27181
 H58 H -0.00351 0.01490 0.18570
 H59 H -0.00229 0.10318 0.26116
 H60 H 0.00105 0.17519 0.23047
 H61 H -0.00137 0.08457 0.15351
 H62 H -0.04633 -0.06360 0.29076
 H63 H -0.11743 -0.06504 0.32172
 H64 H -0.16123 0.06994 0.28442
 H65 H -0.08912 0.06870 0.25461
 C66 C -0.00713 -0.13700 0.19308
 C67 C 0.12770 0.00676 0.31173
 C68 C -0.14507 0.00267 0.30579
 C69 C -0.00025 0.13577 0.18938
 C70 C 0.00168 0.09432 0.76215
 H71 H 0.00090 0.09718 0.73849
 C72 C 0.00085 0.13548 0.77952
 H73 H 0.00001 0.17000 0.76903
 C74 C 0.00434 0.04570 0.80448
 H75 H 0.00488 0.01071 0.81420
 C76 C 0.00359 0.08585 0.82265
 H77 H 0.00356 0.08117 0.84621
 N78 N 0.00425 0.05058 0.77481
 C79 C 0.07079 -0.04274 0.71024
 H80 H 0.04556 -0.07172 0.70972
 C81 C 0.11093 -0.04464 0.69257
 H82 H 0.11657 -0.07547 0.67865
 C83 C 0.09428 0.03225 0.72946
 H84 H 0.08790 0.06201 0.74399
 C85 C 0.13492 0.03181 0.71218
 H86 H 0.15889 0.06185 0.71323
 Zn87 Zn 0.00628 -0.00380 0.75002
 N88 N 0.06271 -0.00427 0.72775
 C89 C -0.04317 -0.00162 0.69518
 N90 N -0.04807 -0.00147 0.72481
 C91 C -0.09181 0.00137 0.73714
 C92 C -0.13297 0.00243 0.71948
 C93 C -0.08332 -0.00064 0.67672
 C94 C 0.04479 -0.06848 0.79056
 C95 C 0.04644 -0.10860 0.80852
 C96 C -0.03014 -0.13216 0.78852
 C97 C -0.03033 -0.09153 0.77096
 N98 N 0.00638 -0.06019 0.77270
 H99 H -0.00817 -0.00238 0.68572
 H100 H -0.09468 0.00219 0.76077
 H101 H -0.16750 0.00348 0.72972
 H102 H -0.07862 -0.00066 0.65319
 H103 H 0.07392 -0.04342 0.79110
 H104 H 0.07724 -0.11441 0.82270
 H105 H -0.06032 -0.15596 0.78742
 H106 H -0.06005 -0.08500 0.75616
 C107 C 0.14338 -0.00675 0.69315
 C108 C 0.00227 0.13153 0.81022
 C109 C 0.00837 -0.14084 0.80789
 C110 C -0.12900 0.00096 0.68881
 C111 C 0.03686 -0.23392 0.14163
 C112 C -0.00519 -0.25880 0.13546
 C113 C -0.04779 -0.24444 0.14850
 C114 C -0.04844 -0.20512 0.16747
 C115 C -0.00270 -0.40019 0.05929
 C116 C 0.03630 -0.19463 0.16059
 C117 C -0.00473 -0.29829 0.11519
 C118 C -0.00416 -0.33090 0.09789
 C119 C -0.00338 -0.36853 0.07724
 C120 C -0.00640 -0.17963 0.17363
 H121 H 0.06998 -0.24457 0.13154
 H122 H -0.08054 -0.26348 0.14389
 H123 H -0.08174 -0.19482 0.17744
 H124 H 0.06910 -0.17538 0.16454
 C125 C -0.02659 0.25870 0.15841
 C126 C 0.00086 0.25816 0.13306
 C127 C 0.02865 0.21807 0.12642
 C128 C 0.02869 0.17847 0.14487
 C129 C -0.00143 0.40102 0.05882
 C130 C -0.02658 0.21912 0.17693
 C131 C -0.00006 0.29825 0.11348
 C132 C -0.00072 0.33125 0.09666
 C133 C -0.00126 0.36921 0.07647
 C134 C 0.00086 0.17843 0.17027
 H135 H -0.04837 0.28950 0.16370
 H136 H 0.05013 0.21731 0.10688
 H137 H 0.05070 0.14798 0.13936
 H138 H -0.04880 0.21996 0.19612
 C139 C 0.26850 0.01100 0.66471
 C140 C 0.26340 -0.00508 0.63572
 C141 C 0.21940 -0.02235 0.62567
 C142 C 0.18054 -0.02331 0.64442
 C143 C 0.40390 0.00080 0.56091
 C144 C 0.22964 0.01011 0.68352
 C145 C 0.30295 -0.00330 0.61606
 C146 C 0.33543 -0.00185 0.59912
 C147 C 0.37272 -0.00030 0.57876
 C148 C 0.18515 -0.00693 0.67355
 H149 H 0.30244 0.02436 0.67273
 H150 H 0.21501 -0.03471 0.60324
 H151 H 0.14663 -0.03595 0.63594
 H152 H 0.23447 0.02243 0.70591
 C153 C -0.21406 -0.02807 0.62578
 C154 C -0.25319 0.00106 0.63227
 C155 C -0.25203 0.02991 0.65741
 C156 C -0.21178 0.02977 0.67594
 C157 C -0.39913 0.00262 0.55838
 C158 C -0.17382 -0.02823 0.64423
 C159 C -0.29408 0.00173 0.61280
 C160 C -0.32777 0.00210 0.59605
 C161 C -0.36656 0.00239 0.57595
 C162 C -0.17212 0.00082 0.66947
 H163 H -0.21462 -0.05062 0.60642
 H164 H -0.28207 0.05273 0.66258
 H165 H -0.21135 0.05291 0.69501
 H166 H -0.14418 -0.05144 0.63889
 C167 C -0.00984 -0.26596 0.83691
 C168 C 0.00632 -0.26103 0.86597
 C169 C 0.02371 -0.21713 0.87590
 C170 C 0.02475 -0.17819 0.85695
 C171 C 0.00106 -0.40263 0.94095
 C172 C -0.00886 -0.22702 0.81789
 C173 C 0.00461 -0.30072 0.88578
 C174 C 0.00328 -0.33340 0.90279
 C175 C 0.00193 -0.37104 0.92316
 C176 C 0.00834 -0.18264 0.82774
 H177 H -0.02328 -0.29982 0.82897
 H178 H 0.03614 -0.21287 0.89839
 H179 H 0.03753 -0.14437 0.86533
 H180 H -0.02122 -0.23173 0.79545
 C181 C -0.02618 0.25460 0.84064
 C182 C 0.00263 0.25557 0.86600
 C183 C 0.03164 0.21634 0.87291
 C184 C 0.03169 0.17616 0.85470
 C185 C 0.00073 0.40032 0.93971
 C186 C -0.02615 0.21442 0.82234
 C187 C 0.00192 0.29630 0.88531
 C188 C 0.00149 0.32976 0.90198
 C189 C 0.00109 0.36818 0.92208
 C190 C 0.00264 0.17463 0.82926
 H191 H -0.04892 0.28471 0.83514
 H192 H 0.05414 0.21674 0.89246
 H193 H 0.05477 0.14643 0.86038
 H194 H -0.04928 0.21412 0.80310
 C195 C -0.25157 -0.03772 0.34934
 C196 C -0.26524 0.00479 0.36313
 C197 C -0.24037 0.04677 0.35767
 C198 C -0.20170 0.04621 0.33873
 C199 C -0.40298 0.00511 0.44001
 C200 C -0.21288 -0.03838 0.33040
 C201 C -0.30384 0.00508 0.38353
 C202 C -0.33564 0.00526 0.40099
 C203 C -0.37225 0.00530 0.42185
 C204 C -0.18730 0.00355 0.32501
 H205 H -0.27060 -0.07043 0.35340
 H206 H -0.25049 0.07982 0.36834
 H207 H -0.18236 0.07893 0.33536
 H208 H -0.20306 -0.07164 0.31990
 C209 C 0.21234 -0.02229 0.37500
 C210 C 0.25174 0.00571 0.36839
 C211 C 0.25083 0.03394 0.34316
 C212 C 0.21058 0.03426 0.32464
 C213 C 0.39830 0.00475 0.44181
 C214 C 0.17209 -0.02200 0.35655
 C215 C 0.29276 0.00574 0.38776
 C216 C 0.32659 0.00554 0.40440
 C217 C 0.36557 0.00514 0.42435
 C218 C 0.17068 0.00638 0.33119
 H219 H 0.21270 -0.04435 0.39443
 H220 H 0.28109 0.05589 0.33790
 H221 H 0.21038 0.05687 0.30547
 H222 H 0.14226 -0.04439 0.36196
   
