data_POSCAR
  _audit_creation_date              2014-09-24
  _audit_creation_method            'ToBaCCo'
  _symmetry_space_group_name_H-M    'P1'
  _symmetry_Int_Tables_number       1
  _symmetry_cell_setting            triclinic
  loop_
  _symmetry_equiv_pos_as_xyz
 x,y,z
_cell_length_a 27.5355
_cell_length_b 27.8094
_cell_length_c 7.5810
_cell_angle_alpha 89.175900
_cell_angle_beta 90.255200
_cell_angle_gamma 90.000000
loop_
  _atom_site_label
  _atom_site_type_symbol
  _atom_site_fract_x
  _atom_site_fract_y
  _atom_site_fract_z
O1 O 0.28075 0.29553 0.44922
 O2 O 0.19274 0.20210 0.32589
 O3 O 0.28141 0.20192 0.44796
 O4 O 0.19246 0.29557 0.32576
 O5 O 0.21975 0.29695 0.05178
 O6 O 0.30864 0.20330 0.17396
 O7 O 0.21998 0.20331 0.05187
 O8 O 0.30804 0.29674 0.17525
 Cu9 Cu 0.23389 0.24860 0.41455
 Cu10 Cu 0.26705 0.25017 0.08587
 C11 C 0.30935 0.31188 0.33216
 C12 C 0.19130 0.18705 0.16890
 C13 C 0.31025 0.18692 0.33081
 C14 C 0.19102 0.31205 0.16902
 O15 O 0.80737 0.29553 0.32907
 O16 O 0.71821 0.20183 0.44626
 O17 O 0.80707 0.20203 0.32879
 O18 O 0.71887 0.29550 0.44787
 O19 O 0.69215 0.29678 0.17231
 O20 O 0.78040 0.20330 0.05320
 O21 O 0.69154 0.20330 0.17068
 O22 O 0.78064 0.29700 0.05351
 Cu23 Cu 0.76579 0.24853 0.41541
 Cu24 Cu 0.73327 0.25020 0.08501
 C25 C 0.80912 0.31209 0.17252
 C26 C 0.68962 0.18684 0.32733
 C27 C 0.80883 0.18699 0.17190
 C28 C 0.69052 0.31192 0.32913
 O29 O 0.78075 0.79553 0.94923
 O30 O 0.69274 0.70210 0.82589
 O31 O 0.78141 0.70192 0.94796
 O32 O 0.69246 0.79557 0.82577
 O33 O 0.71975 0.79695 0.55179
 O34 O 0.80864 0.70330 0.67396
 O35 O 0.71998 0.70331 0.55187
 O36 O 0.80804 0.79674 0.67525
 Cu37 Cu 0.73389 0.74860 0.91455
 Cu38 Cu 0.76705 0.75017 0.58587
 C39 C 0.80935 0.81188 0.83216
 C40 C 0.69130 0.68705 0.66890
 C41 C 0.81025 0.68692 0.83081
 C42 C 0.69102 0.81205 0.66902
 O43 O 0.28040 0.70330 0.55320
 O44 O 0.19215 0.79678 0.67231
 O45 O 0.28064 0.79700 0.55351
 O46 O 0.19154 0.70330 0.67068
 O47 O 0.21821 0.70183 0.94626
 O48 O 0.30737 0.79553 0.82907
 O49 O 0.21887 0.79550 0.94787
 O50 O 0.30707 0.70203 0.82879
 Cu51 Cu 0.23327 0.75020 0.58501
 Cu52 Cu 0.26579 0.74853 0.91541
 C53 C 0.30883 0.68699 0.67189
 C54 C 0.19052 0.81192 0.82913
 C55 C 0.30912 0.81209 0.67252
 C56 C 0.18962 0.68684 0.82733
 C57 C 0.97532 0.14766 0.10985
 C58 C 1.02506 0.14802 0.10301
 C59 C 1.03946 0.10141 0.06634
 N60 N 1.00005 0.07285 0.04989
 C61 C 0.96076 0.10089 0.07667
 C62 C 1.08834 0.08605 0.05615
 C63 C 1.10347 0.03815 0.02637
 C64 C 1.15119 0.02243 0.04089
 C65 C 1.15113 -0.02590 0.00632
 C66 C 1.10336 -0.03872 -0.02819
 N67 N 1.07469 0.00074 -0.01872
 C68 C 1.08813 -0.08605 -0.06721
 C69 C 1.03923 -0.10142 -0.07558
 C70 C 1.02468 -0.14823 -0.10832
 C71 C 0.97496 -0.14858 -0.10138
 C72 C 0.96057 -0.10195 -0.06512
 N73 N 0.99996 -0.07336 -0.04900
 C74 C 0.91170 -0.08660 -0.05516
 C75 C 0.89656 -0.03869 -0.02566
 C76 C 0.84885 -0.02298 -0.04054
 C77 C 0.84890 0.02535 -0.00606
 C78 C 0.89665 0.03819 0.02877
 N79 N 0.92532 -0.00127 0.01955
 C80 C 0.91185 0.08552 0.06804
 H81 H 0.95253 0.17845 0.13577
 H82 H 1.04797 0.17904 0.12432
 H83 H 0.96161 -0.00325 0.05498
 H84 H 1.18286 0.04346 0.07507
 H85 H 1.18270 -0.04909 0.00898
 H86 H 1.04747 -0.17904 -0.13400
 H87 H 0.95206 -0.17963 -0.12239
 H88 H 0.81732 0.04854 -0.00892
 H89 H 1.03838 0.00272 -0.05380
 H90 H 0.81720 -0.04402 -0.07485
 C91 C 0.52506 0.64802 0.60301
 C92 C 0.47532 0.64766 0.60985
 C93 C 0.46076 0.60089 0.57667
 N94 N 0.50005 0.57285 0.54989
 C95 C 0.53946 0.60141 0.56633
 C96 C 0.41185 0.58552 0.56804
 C97 C 0.39665 0.53819 0.52877
 C98 C 0.34890 0.52535 0.49395
 C99 C 0.34885 0.47702 0.45946
 C100 C 0.39656 0.46131 0.47434
 N101 N 0.42532 0.49873 0.51955
 C102 C 0.41170 0.41340 0.44484
 C103 C 0.46057 0.39805 0.43488
 C104 C 0.47496 0.35142 0.39862
 C105 C 0.52468 0.35177 0.39168
 C106 C 0.53923 0.39858 0.42442
 N107 N 0.49996 0.42664 0.45100
 C108 C 0.58813 0.41395 0.43279
 C109 C 0.60336 0.46128 0.47181
 C110 C 0.65113 0.47410 0.50632
 C111 C 0.65119 0.52243 0.54089
 C112 C 0.60347 0.53815 0.52637
 N113 N 0.57469 0.50074 0.48128
 C114 C 0.58834 0.58605 0.55615
 H115 H 0.54797 0.67904 0.62432
 H116 H 0.45253 0.67845 0.63577
 H117 H 0.53838 0.50272 0.44620
 H118 H 0.31732 0.54854 0.49108
 H119 H 0.31720 0.45598 0.42515
 H120 H 0.45206 0.32037 0.37761
 H121 H 0.54747 0.32096 0.36600
 H122 H 0.68286 0.54346 0.57507
 H123 H 0.46161 0.49675 0.55498
 H124 H 0.68270 0.45091 0.50898
 C125 C -0.02506 0.64968 -0.10683
 C126 C 0.02468 0.64936 -0.11384
 C127 C 0.03923 0.60238 -0.07933
 N128 N -0.00004 0.57420 -0.05159
 C129 C -0.03945 0.60286 -0.06874
 C130 C 0.08813 0.58695 -0.07025
 C131 C 0.10332 0.53939 -0.02965
 C132 C 0.15105 0.52637 0.00592
 C133 C 0.15110 0.47782 0.04143
 C134 C 0.10340 0.46219 0.02644
 N135 N 0.07465 0.49987 -0.01982
 C136 C 0.08829 0.41407 0.05661
 C137 C 0.03943 0.39865 0.06690
 C138 C 0.02504 0.35176 0.10366
 C139 C -0.02468 0.35208 0.11078
 C140 C -0.03922 0.39912 0.07765
 N141 N 0.00005 0.42736 0.05068
 C142 C -0.08811 0.41457 0.06923
 C143 C -0.10334 0.46216 0.02953
 C144 C -0.15113 0.47522 -0.00488
 C145 C -0.15119 0.52377 -0.04050
 C146 C -0.10345 0.53937 -0.02672
 N147 N -0.07466 0.50167 0.01899
 C148 C -0.08832 0.58744 -0.05787
 H149 H -0.04798 0.68083 -0.12896
 H150 H 0.04747 0.68029 -0.14071
 H151 H -0.03832 0.50341 0.05361
 H152 H 0.18262 0.54955 0.00856
 H153 H 0.18274 0.45658 0.07649
 H154 H 0.04795 0.32055 0.12487
 H155 H -0.04747 0.32109 0.13682
 H156 H -0.18287 0.54501 -0.07494
 H157 H 0.03840 0.49808 -0.05570
 H158 H -0.18271 0.45206 -0.00684
 C159 C 0.47494 1.14968 0.39317
 C160 C 0.52468 1.14936 0.38616
 C161 C 0.53923 1.10238 0.42067
 N162 N 0.49996 1.07420 0.44841
 C163 C 0.46055 1.10286 0.43126
 C164 C 0.58813 1.08695 0.42975
 C165 C 0.60332 1.03939 0.47035
 C166 C 0.65105 1.02637 0.50591
 C167 C 0.65110 0.97782 0.54143
 C168 C 0.60340 0.96219 0.52644
 N169 N 0.57465 0.99987 0.48018
 C170 C 0.58829 0.91407 0.55661
 C171 C 0.53943 0.89865 0.56690
 C172 C 0.52504 0.85176 0.60366
 C173 C 0.47532 0.85208 0.61078
 C174 C 0.46078 0.89912 0.57765
 N175 N 0.50005 0.92736 0.55068
 C176 C 0.41189 0.91457 0.56923
 C177 C 0.39666 0.96216 0.52953
 C178 C 0.34887 0.97522 0.49512
 C179 C 0.34881 1.02377 0.45950
 C180 C 0.39655 1.03937 0.47328
 N181 N 0.42534 1.00167 0.51899
 C182 C 0.41168 1.08744 0.44213
 H183 H 0.45202 1.18083 0.37104
 H184 H 0.54747 1.18029 0.35929
 H185 H 0.46168 1.00341 0.55361
 H186 H 0.68262 1.04955 0.50856
 H187 H 0.68274 0.95658 0.57648
 H188 H 0.54795 0.82055 0.62487
 H189 H 0.45253 0.82109 0.63682
 H190 H 0.31713 1.04501 0.42506
 H191 H 0.53840 0.99808 0.44430
 H192 H 0.31729 0.95206 0.49317
 C193 C 1.15609 0.15126 0.12395
 C194 C 1.12568 0.12150 0.09100
 C195 C 0.65609 0.65126 0.62395
 C196 C 0.62568 0.62150 0.59100
 C197 C -0.15569 0.34840 0.13058
 C198 C -0.12537 0.37863 0.10038
 C199 C 0.34431 0.84840 0.63058
 C200 C 0.37463 0.87863 0.60037
 C201 C -0.15618 0.65297 -0.12681
 C202 C -0.12568 0.62308 -0.09339
 C203 C 0.34382 1.15297 0.37319
 C204 C 0.37432 1.12308 0.40661
 C205 C 1.15558 -0.15190 -0.12836
 C206 C 1.12538 -0.12179 -0.09807
 C207 C 0.65558 0.34810 0.37164
 C208 C 0.62538 0.37821 0.40193
 C209 C 0.84426 -0.15206 -0.12300
 C210 C 0.87445 -0.12211 -0.09001
 C211 C 0.34426 0.34794 0.37700
 C212 C 0.37445 0.37789 0.40999
 C213 C 0.15602 0.65279 -0.13267
 C214 C 0.12549 0.62278 -0.10192
 C215 C 0.65602 1.15279 0.36733
 C216 C 0.62549 1.12278 0.39808
 C217 C 0.15587 0.34824 0.12455
 C218 C 0.12556 0.37834 0.09163
 C219 C 0.65587 0.84824 0.62455
 C220 C 0.62556 0.87834 0.59163
 C221 C 0.84408 0.15108 0.12926
 C222 C 0.87451 0.12118 0.09895
 C223 C 0.34408 0.65108 0.62926
 C224 C 0.37451 0.62118 0.59895
   
