data_POSCAR
  _audit_creation_date              2014-09-24
  _audit_creation_method            'ToBaCCo'
  _symmetry_space_group_name_H-M    'P1'
  _symmetry_Int_Tables_number       1
  _symmetry_cell_setting            triclinic
  loop_
  _symmetry_equiv_pos_as_xyz
 x,y,z
_cell_length_a 35.3525
_cell_length_b 34.9819
_cell_length_c 35.2684
_cell_angle_alpha 90.191800
_cell_angle_beta 92.023200
_cell_angle_gamma 92.376400
loop_
  _atom_site_label
  _atom_site_type_symbol
  _atom_site_fract_x
  _atom_site_fract_y
  _atom_site_fract_z
N1 N 0.63974 0.62841 0.63199
 N2 N 0.86257 0.35804 0.14029
 N3 N 0.37892 0.10148 -0.10528
 N4 N 0.13986 0.86802 0.36863
 N5 N 0.07040 0.17909 0.10237
 N6 N 0.05759 0.16624 0.13466
 C7 C 0.02651 0.18511 0.14311
 C8 C 0.01925 0.21079 0.11431
 C9 C 0.04765 0.20619 0.08889
 H10 H 0.01029 0.18051 0.16825
 H11 H 0.05208 0.22215 0.06312
 Cu12 Cu 0.08253 0.12611 0.16270
 Cu13 Cu 0.11686 0.16147 0.08157
 Cu14 Cu 0.15667 0.08357 0.12513
 N15 N 0.10121 0.07846 0.18266
 N16 N 0.13084 0.06260 0.16875
 C17 C 0.13874 0.03129 0.18917
 C18 C 0.11231 0.02702 0.21697
 C19 C 0.08885 0.05743 0.21200
 H20 H 0.16187 0.01285 0.18413
 H21 H 0.06517 0.06426 0.22901
 N22 N 0.17847 0.10907 0.08068
 N23 N 0.16386 0.13951 0.06482
 C24 C 0.18587 0.15145 0.03644
 C25 C 0.21548 0.12708 0.03405
 C26 C 0.20982 0.10042 0.06231
 H27 H 0.18052 0.17575 0.01848
 H28 H 0.22768 0.07692 0.06932
 H29 H 0.10796 0.10677 0.10280
 H30 H 0.14164 0.13971 0.13063
 N31 N 0.44300 0.82276 0.59466
 N32 N 0.45883 0.83409 0.62731
 C33 C 0.48838 0.81214 0.63571
 C34 C 0.49146 0.78606 0.60657
 C35 C 0.46222 0.79361 0.58095
 H36 H 0.50641 0.81481 0.66107
 H37 H 0.45487 0.77845 0.55479
 Cu38 Cu 0.43907 0.87634 0.65548
 Cu39 Cu 0.39772 0.84551 0.57312
 Cu40 Cu 0.36229 0.92107 0.62291
 N41 N 0.41946 0.91922 0.68284
 N42 N 0.38868 0.93576 0.67049
 C43 C 0.38006 0.96305 0.69536
 C44 C 0.40718 0.96406 0.72456
 C45 C 0.43183 0.93591 0.71573
 H46 H 0.35600 0.98105 0.69238
 H47 H 0.45634 0.92767 0.73248
 N48 N 0.33960 0.90197 0.57426
 N49 N 0.35228 0.87234 0.55600
 C50 C 0.32974 0.86503 0.52501
 C51 C 0.30203 0.89171 0.52338
 C52 C 0.30911 0.91473 0.55495
 H53 H 0.33326 0.84221 0.50486
 H54 H 0.29265 0.93838 0.56366
 H55 H 0.40836 0.89892 0.59730
 H56 H 0.37729 0.86459 0.62368
 N57 N 0.91505 0.69379 0.37225
 N58 N 0.92471 0.67500 0.34197
 C59 C 0.95570 0.69255 0.32770
 C60 C 0.96617 0.72368 0.35057
 C61 C 0.93988 0.72351 0.37865
 H62 H 0.97024 0.68286 0.30321
 H63 H 0.93891 0.74361 0.40192
 Cu64 Cu 0.89697 0.62830 0.32563
 Cu65 Cu 0.87081 0.67860 0.40092
 Cu66 Cu 0.81981 0.59651 0.37074
 N67 N 0.86846 0.58209 0.30915
 N68 N 0.83760 0.57049 0.32623
 C69 C 0.82307 0.53843 0.30911
 C70 C 0.84632 0.52925 0.27999
 C71 C 0.87492 0.55742 0.28092
 H72 H 0.79808 0.52242 0.31787
 H73 H 0.89858 0.55966 0.26233
 N74 N 0.80638 0.62682 0.41515
 N75 N 0.82522 0.65858 0.42608
 C76 C 0.80889 0.67283 0.45675
 C77 C 0.77865 0.64864 0.46573
 C78 C 0.77798 0.61973 0.43894
 H79 H 0.81883 0.69834 0.47204
 H80 H 0.75815 0.59537 0.43703
 H81 H 0.87168 0.62080 0.38874
 H82 H 0.84140 0.65026 0.35689
 N83 N 0.56981 0.31385 -0.10516
 N84 N 0.55284 0.33034 -0.13416
 C85 C 0.52389 0.30727 -0.14739
 C86 C 0.52238 0.27480 -0.12514
 C87 C 0.55178 0.28001 -0.09849
 H88 H 0.50485 0.31399 -0.17087
 H89 H 0.55965 0.26040 -0.07620
 Cu90 Cu 0.56872 0.38110 -0.15095
 Cu91 Cu 0.61461 0.33707 -0.07914
 Cu92 Cu 0.65135 0.42117 -0.11732
 N93 N 0.59256 0.42511 -0.17522
 N94 N 0.62547 0.43993 -0.16277
 C95 C 0.63583 0.46925 -0.18530
 C96 C 0.60766 0.47328 -0.21301
 C97 C 0.58059 0.44478 -0.20580
 H98 H 0.66162 0.48678 -0.18149
 H99 H 0.55448 0.43845 -0.22190
 N100 N 0.67326 0.39764 -0.07136
 N101 N 0.65975 0.36517 -0.05722
 C102 C 0.68126 0.35611 -0.02651
 C103 C 0.70922 0.38451 -0.02078
 C104 C 0.70332 0.41040 -0.04970
 H105 H 0.67675 0.33096 -0.00924
 H106 H 0.72002 0.43632 -0.05487
 H107 H 0.60573 0.39363 -0.09217
 H108 H 0.63153 0.36535 -0.12741
 C109 C -0.06691 0.29110 0.10954
 C110 C -0.05488 0.27537 0.14427
 N111 N -0.07028 0.28696 0.17688
 C112 C -0.09713 0.31372 0.17634
 C113 C -0.10941 0.32936 0.14160
 N114 N -0.09402 0.31746 0.10894
 N115 N -0.05082 0.28023 0.07706
 C116 C -0.02309 0.25441 0.07770
 C117 C -0.01110 0.23840 0.11240
 N118 N -0.02753 0.24924 0.14488
 H119 H -0.10899 0.32259 0.20267
 H120 H -0.01082 0.24627 0.05134
 C121 C 0.57066 0.69898 0.60153
 C122 C 0.56308 0.71653 0.63614
 N123 N 0.58080 0.70487 0.66858
 C124 C 0.60572 0.67632 0.66803
 C125 C 0.61359 0.65877 0.63340
 N126 N 0.59587 0.67077 0.60088
 N127 N 0.55234 0.71012 0.56922
 C128 C 0.52666 0.73800 0.56992
 C129 C 0.51917 0.75584 0.60450
 N130 N 0.53779 0.74465 0.63679
 H131 H 0.61955 0.66760 0.69427
 H132 H 0.51259 0.74633 0.54368
 C133 C 1.06106 0.80030 0.34158
 C134 C 1.04449 0.79363 0.37667
 N135 N 1.05964 0.81132 0.40833
 C136 C 1.09070 0.83540 0.40651
 C137 C 1.10714 0.84251 0.37136
 N138 N 1.09173 0.82481 0.33964
 N139 N 1.04650 0.78179 0.31012
 C140 C 1.01609 0.75683 0.31215
 C141 C 0.99914 0.75043 0.34716
 N142 N 1.01379 0.76919 0.37860
 H143 H 1.10226 0.84924 0.43211
 H144 H 1.00504 0.74254 0.28660
 C145 C 0.44228 0.18176 -0.13309
 C146 C 0.46114 0.19125 -0.09842
 N147 N 0.45268 0.17104 -0.06681
 C148 C 0.42610 0.14178 -0.06828
 C149 C 0.40743 0.13196 -0.10302
 N150 N 0.41616 0.15220 -0.13469
 N151 N 0.44991 0.20268 -0.16445
 C152 C 0.47550 0.23281 -0.16272
 C153 C 0.49472 0.24220 -0.12814
 N154 N 0.48711 0.22097 -0.09680
 H155 H 0.41974 0.12610 -0.04273
 H156 H 0.48104 0.24895 -0.18819
 C157 C 0.10879 -0.05824 0.30162
 C158 C 0.14248 -0.04892 0.28323
 N159 N 0.17458 -0.06690 0.29331
 C160 C 0.17455 -0.09381 0.32104
 C161 C 0.14077 -0.10352 0.33932
 N162 N 0.10860 -0.08547 0.32895
 N163 N 0.07692 -0.03959 0.29216
 C164 C 0.07720 -0.01194 0.26514
 C165 C 0.11080 -0.00277 0.24636
 N166 N 0.14265 -0.02170 0.25588
 H167 H 0.20048 -0.10782 0.32850
 H168 H 0.05133 0.00237 0.25813
 C169 C 0.60641 0.55642 -0.29971
 C170 C 0.64069 0.54565 -0.28237
 N171 N 0.67389 0.56188 -0.29384
 C172 C 0.67437 0.58848 -0.32186
 C173 C 0.64008 0.59976 -0.33887
 N174 N 0.60684 0.58342 -0.32725
 N175 N 0.57329 0.53956 -0.28885
 C176 C 0.57284 0.51240 -0.26135
 C177 C 0.60705 0.50196 -0.24348
 N178 N 0.64021 0.51901 -0.25448
 H179 H 0.70113 0.60116 -0.33048
 H180 H 0.54598 0.49963 -0.25313
 C181 C 0.41025 1.03699 0.82055
 C182 C 0.37607 1.02812 0.80035
 N183 N 0.34349 1.04287 0.81195
 C184 C 0.34352 1.06622 0.84285
 C185 C 0.37778 1.07569 0.86282
 N186 N 0.41042 1.06084 0.85101
 N187 N 0.44269 1.02155 0.80941
 C188 C 0.44253 0.99764 0.77890
 C189 C 0.40846 0.98920 0.75820
 N190 N 0.37602 1.00480 0.76952
 H191 H 0.31722 1.07788 0.85135
 H192 H 0.46885 0.98591 0.77056
 C193 C 0.83661 0.43366 0.20608
 C194 C 0.87174 0.45291 0.21347
 N195 N 0.90315 0.44036 0.19712
 C196 C 0.90103 0.40938 0.17364
 C197 C 0.86582 0.39028 0.16578
 N198 N 0.83437 0.40308 0.18219
 N199 N 0.80537 0.44574 0.22310
 C200 C 0.80763 0.47623 0.24722
 C201 C 0.84269 0.49591 0.25431
 N202 N 0.87392 0.48370 0.23708
 H203 H 0.92642 0.40006 0.16075
 H204 H 0.78223 0.48529 0.26026
 C205 C 0.30410 0.13185 -0.04338
 C206 C 0.29255 0.09705 -0.02681
 N207 N 0.30948 0.06443 -0.03646
 C208 C 0.33746 0.06506 -0.06199
 C209 C 0.34939 0.09993 -0.07827
 N210 N 0.33240 0.13257 -0.06840
 N211 N 0.28651 0.16429 -0.03455
 C212 C 0.25779 0.16355 -0.00991
 C213 C 0.24640 0.12885 0.00712
 N214 N 0.26426 0.09639 -0.00172
 H215 H 0.35057 0.03874 -0.06931
 H216 H 0.24438 0.18989 -0.00332
 C217 C 0.70577 0.65655 0.55771
 C218 C 0.71090 0.62133 0.53984
 N219 N 0.69279 0.58920 0.55267
 C220 C 0.66974 0.59068 0.58265
 C221 C 0.66421 0.62596 0.60042
 N222 N 0.68235 0.65815 0.58732
 N223 N 0.72457 0.68851 0.54540
 C224 C 0.74836 0.68686 0.51601
 C225 C 0.75327 0.65169 0.49776
 N226 N 0.73422 0.61976 0.51017
 H227 H 0.65551 0.56470 0.59229
 H228 H 0.76287 0.71283 0.50674
 C229 C 0.79501 0.38887 0.06594
 C230 C 0.77636 0.35404 0.05541
 N231 N 0.78647 0.32126 0.07282
 C232 C 0.81446 0.32171 0.10031
 C233 C 0.83300 0.35660 0.11119
 N234 N 0.82261 0.38941 0.09370
 N235 N 0.78548 0.42153 0.04800
 C236 C 0.75813 0.42098 0.01989
 C237 C 0.73911 0.38621 0.00945
 N238 N 0.74870 0.35354 0.02769
 H239 H 0.82193 0.29523 0.11386
 H240 H 0.75107 0.44752 0.00622
 C241 C 0.21279 0.89771 0.44091
 C242 C 0.22960 0.86286 0.44900
 N243 N 0.21645 0.83049 0.43076
 C244 C 0.18719 0.83139 0.40474
 C245 C 0.17067 0.86631 0.39617
 N246 N 0.18401 0.89874 0.41447
 N247 N 0.22522 0.92985 0.45998
 C248 C 0.25371 0.92875 0.48684
 C249 C 0.27098 0.89401 0.49465
 N250 N 0.25848 0.86187 0.47534
 H251 H 0.17711 0.80527 0.39051
 H252 H 0.26310 0.95483 0.50153
   
