data_POSCAR
  _audit_creation_date              2014-09-24
  _audit_creation_method            'ToBaCCo'
  _symmetry_space_group_name_H-M    'P1'
  _symmetry_Int_Tables_number       1
  _symmetry_cell_setting            triclinic
  loop_
  _symmetry_equiv_pos_as_xyz
 x,y,z
_cell_length_a 51.1029
_cell_length_b 49.3311
_cell_length_c 49.2120
_cell_angle_alpha 90.898600
_cell_angle_beta 88.573600
_cell_angle_gamma 91.345200
loop_
  _atom_site_label
  _atom_site_type_symbol
  _atom_site_fract_x
  _atom_site_fract_y
  _atom_site_fract_z
N1 N 0.59247 0.66835 0.61698
 N2 N 0.58478 0.65976 0.64107
 C3 C 0.56313 0.67295 0.64918
 C4 C 0.55685 0.69088 0.62906
 C5 C 0.57596 0.68732 0.60890
 H6 H 0.55273 0.66963 0.66827
 H7 H 0.57815 0.69819 0.59005
 Cu8 Cu 0.60379 0.63237 0.65975
 Cu9 Cu 0.62405 0.65531 0.59860
 Cu10 Cu 0.65841 0.60636 0.63188
 N11 N 0.61776 0.59866 0.67238
 N12 N 0.63947 0.58886 0.66185
 C13 C 0.64562 0.56649 0.67537
 C14 C 0.62653 0.56173 0.69550
 C15 C 0.60908 0.58268 0.69275
 H16 H 0.66272 0.55468 0.67062
 H17 H 0.59171 0.58662 0.70500
 N18 N 0.66964 0.62100 0.59633
 N19 N 0.65661 0.63961 0.58368
 C20 C 0.66950 0.64578 0.56031
 C21 C 0.69158 0.63012 0.55800
 C22 C 0.69097 0.61456 0.58117
 H23 H 0.66329 0.66054 0.54596
 H24 H 0.70528 0.60000 0.58682
 H25 H 0.62331 0.61747 0.61673
 H26 H 0.64318 0.64525 0.63279
 N27 N 0.89891 0.32365 0.11499
 N28 N 0.90359 0.33237 0.13978
 C29 C 0.92306 0.31800 0.14994
 C30 C 0.93128 0.29918 0.13035
 C31 C 0.91529 0.30350 0.10843
 H32 H 0.93095 0.32162 0.16986
 H33 H 0.91540 0.29293 0.08905
 Cu34 Cu 0.88483 0.36257 0.15616
 Cu35 Cu 0.87202 0.33912 0.09303
 Cu36 Cu 0.84650 0.39940 0.11672
 N37 N 0.87419 0.39886 0.16675
 N38 N 0.86014 0.41359 0.15082
 C39 C 0.85646 0.43802 0.16265
 C40 C 0.86869 0.43858 0.18744
 C41 C 0.87970 0.41333 0.18940
 H42 H 0.84528 0.45402 0.15411
 H43 H 0.89128 0.40620 0.20583
 N44 N 0.83512 0.38141 0.08286
 N45 N 0.84461 0.35817 0.07401
 C46 C 0.83200 0.35025 0.05143
 C47 C 0.81364 0.36945 0.04573
 C48 C 0.81626 0.38895 0.06612
 H49 H 0.83571 0.33170 0.04016
 H50 H 0.80462 0.40680 0.06914
 H51 H 0.87982 0.37705 0.10984
 H52 H 0.85001 0.35828 0.12342
 N53 N 0.40231 0.17127 -0.11337
 N54 N 0.41435 0.15673 -0.13226
 C55 C 0.43759 0.16876 -0.13858
 C56 C 0.44014 0.19220 -0.12299
 C57 C 0.41734 0.19321 -0.10726
 H58 H 0.45148 0.16132 -0.15369
 H59 H 0.41233 0.20845 -0.09211
 Cu60 Cu 0.39780 0.12414 -0.14728
 Cu61 Cu 0.36868 0.15991 -0.09703
 Cu62 Cu 0.33983 0.10094 -0.12327
 N63 N 0.38123 0.09176 -0.16277
 N64 N 0.35832 0.08301 -0.15340
 C65 C 0.35061 0.06113 -0.16804
 C66 C 0.36972 0.05580 -0.18774
 C67 C 0.38891 0.07569 -0.18372
 H68 H 0.33240 0.04998 -0.16460
 H69 H 0.40677 0.07865 -0.19563
 N70 N 0.32425 0.12202 -0.09287
 N71 N 0.33489 0.14473 -0.08322
 C72 C 0.31983 0.15390 -0.06233
 C73 C 0.29882 0.13602 -0.05852
 C74 C 0.30228 0.11610 -0.07830
 H75 H 0.32429 0.17175 -0.05014
 H76 H 0.28976 0.09848 -0.08171
 H77 H 0.37217 0.11900 -0.10524
 H78 H 0.35515 0.13928 -0.13082
 N79 N 0.09976 0.82834 0.38416
 N80 N 0.09191 0.83784 0.36104
 C81 C 0.07014 0.82405 0.35355
 C82 C 0.06380 0.80484 0.37319
 C83 C 0.08319 0.80837 0.39234
 H84 H 0.05961 0.82812 0.33535
 H85 H 0.08555 0.79700 0.41065
 Cu86 Cu 0.11059 0.86759 0.34305
 Cu87 Cu 0.13146 0.84172 0.40142
 Cu88 Cu 0.16118 0.89914 0.37426
 N89 N 0.12446 0.90264 0.33127
 N90 N 0.14441 0.91465 0.34322
 C91 C 0.15026 0.93813 0.33067
 C92 C 0.13296 0.94114 0.30977
 C93 C 0.11680 0.91820 0.31082
 H94 H 0.16578 0.95213 0.33654
 H95 H 0.10090 0.91301 0.29746
 N96 N 0.17504 0.88029 0.40564
 N97 N 0.16376 0.85826 0.41587
 C98 C 0.17787 0.84993 0.43678
 C99 C 0.19902 0.86763 0.44000
 C100 C 0.19654 0.88667 0.41990
 H101 H 0.17297 0.83242 0.44897
 H102 H 0.20965 0.90369 0.41572
 H103 H 0.12658 0.88066 0.38754
 H104 H 0.15022 0.85897 0.36789
 C105 C 0.10093 0.12913 0.15346
 C106 C 0.08018 0.14728 0.15426
 C107 C 0.07828 0.16705 0.13418
 C108 C 0.09749 0.16869 0.11328
 C109 C 0.11846 0.15086 0.11233
 C110 C 0.12019 0.13096 0.13246
 C111 C 0.10272 0.10914 0.17328
 C112 C 0.12366 0.09114 0.17254
 C113 C 0.14281 0.09317 0.15163
 C114 C 0.14116 0.11284 0.13155
 C115 C 0.16011 0.11464 0.11053
 C116 C 0.15852 0.13442 0.09043
 C117 C 0.13770 0.15255 0.09154
 H118 H 0.06527 0.14579 0.17026
 H119 H 0.09623 0.18409 0.09791
 H120 H 0.08802 0.10778 0.18950
 H121 H 0.15883 0.07912 0.15080
 H122 H 0.17630 0.10080 0.10992
 H123 H 0.13626 0.16769 0.07594
 C124 C 0.39326 0.86975 0.64563
 C125 C 0.41238 0.84988 0.64641
 C126 C 0.41344 0.82911 0.62654
 C127 C 0.39509 0.82841 0.60570
 C128 C 0.37578 0.84811 0.60469
 C129 C 0.37487 0.86889 0.62471
 C130 C 0.39215 0.89037 0.66554
 C131 C 0.37277 0.91010 0.66496
 C132 C 0.35454 0.90916 0.64401
 C133 C 0.35549 0.88875 0.62388
 C134 C 0.33727 0.88777 0.60304
 C135 C 0.33797 0.86706 0.58311
 C136 C 0.35728 0.84729 0.58408
 H137 H 0.42666 0.85074 0.66235
 H138 H 0.39560 0.81228 0.59050
 H139 H 0.40607 0.89079 0.68182
 H140 H 0.33973 0.92450 0.64328
 H141 H 0.32220 0.90285 0.60260
 H142 H 0.35804 0.83141 0.56862
 C143 C 0.89294 0.62956 0.34967
 C144 C 0.91271 0.64980 0.34981
 C145 C 0.91350 0.66943 0.37079
 C146 C 0.89382 0.66927 0.39123
 C147 C 0.87375 0.64943 0.39115
 C148 C 0.87352 0.62919 0.37058
 C149 C 0.89245 0.60949 0.32917
 C150 C 0.87313 0.58875 0.32962
 C151 C 0.85400 0.58832 0.35063
 C152 C 0.85390 0.60855 0.37097
 C153 C 0.83443 0.60860 0.39160
 C154 C 0.83414 0.62921 0.41163
 C155 C 0.85396 0.64944 0.41139
 H156 H 0.92793 0.64984 0.33406
 H157 H 0.89418 0.68467 0.40720
 H158 H 0.90735 0.60967 0.31310
 H159 H 0.83896 0.57243 0.35083
 H160 H 0.81913 0.59300 0.39174
 H161 H 0.85403 0.66508 0.42711
 C162 C 0.60710 0.37264 -0.14586
 C163 C 0.58691 0.35296 -0.14402
 C164 C 0.58857 0.33128 -0.12603
 C165 C 0.61043 0.32957 -0.10946
 C166 C 0.63055 0.34939 -0.11068
 C167 C 0.62901 0.37089 -0.12911
 C168 C 0.60585 0.39391 -0.16432
 C169 C 0.62636 0.41329 -0.16651
 C170 C 0.64802 0.41158 -0.14963
 C171 C 0.64937 0.39066 -0.13078
 C172 C 0.67071 0.38924 -0.11352
 C173 C 0.67208 0.36822 -0.09468
 C174 C 0.65206 0.34818 -0.09363
 H175 H 0.57011 0.35415 -0.15694
 H176 H 0.61158 0.31296 -0.09539
 H177 H 0.58918 0.39510 -0.17743
 H178 H 0.66368 0.42675 -0.15101
 H179 H 0.68631 0.40448 -0.11477
 H180 H 0.65291 0.33200 -0.07904
 C181 C -0.00707 0.24298 0.13545
 C182 C -0.02027 0.24610 0.11081
 C183 C -0.04083 0.26438 0.10938
 C184 C -0.04840 0.28038 0.13208
 C185 C -0.03494 0.27733 0.15642
 C186 C -0.01471 0.25892 0.15813
 C187 C 0.01473 0.22314 0.13608
 C188 C 0.02846 0.21772 0.15984
 C189 C 0.04886 0.19934 0.15921
 C190 C 0.05620 0.18603 0.13493
 C191 C 0.04247 0.19099 0.11127
 C192 C 0.02175 0.20919 0.11171
 C193 C -0.01268 0.23123 0.08755
 C194 C 0.00801 0.21337 0.08793
 H195 H -0.02273 0.23366 0.06863
 H196 H 0.01328 0.20257 0.06931
 H197 H -0.05046 0.26630 0.09021
 H198 H -0.03997 0.28900 0.17450
 H199 H 0.05925 0.19585 0.17771
 H200 H 0.04774 0.18039 0.09253
 H201 H -0.00520 0.25769 0.17737
 H202 H 0.02379 0.22739 0.17908
 C203 C 0.49416 0.74818 0.63066
 C204 C 0.50745 0.74165 0.60592
 C205 C 0.52771 0.72288 0.60551
 C206 C 0.53506 0.71028 0.62946
 C207 C 0.52163 0.71658 0.65387
 C208 C 0.50150 0.73523 0.65453
 C209 C 0.47295 0.76870 0.63030
 C210 C 0.45891 0.77701 0.65388
 C211 C 0.43961 0.79646 0.65253
 C212 C 0.43370 0.80812 0.62769
 C213 C 0.44741 0.79986 0.60404
 C214 C 0.46697 0.78041 0.60517
 C215 C 0.50052 0.75393 0.58174
 C216 C 0.48069 0.77283 0.58136
 H217 H 0.51063 0.74889 0.56277
 H218 H 0.47612 0.78179 0.56212
 H219 H 0.53762 0.71802 0.58640
 H220 H 0.52687 0.70740 0.67274
 H221 H 0.42908 0.80225 0.67102
 H222 H 0.44320 0.80900 0.58478
 H223 H 0.49207 0.73925 0.67396
 H224 H 0.46253 0.76885 0.67359
 C225 C 1.00031 0.74741 0.37488
 C226 C 1.00567 0.76298 0.35142
 C227 C 1.02639 0.78225 0.35110
 C228 C 1.04266 0.78586 0.37364
 C229 C 1.03748 0.76978 0.39662
 C230 C 1.01665 0.75101 0.39730
 C231 C 0.97776 0.72741 0.37460
 C232 C 0.96979 0.71228 0.39754
 C233 C 0.94884 0.69372 0.39619
 C234 C 0.93538 0.68959 0.37196
 C235 C 0.94293 0.70470 0.34905
 C236 C 0.96372 0.72380 0.35030
 C237 C 0.99060 0.75890 0.32823
 C238 C 0.97033 0.73949 0.32756
 H239 H 0.99477 0.77068 0.31015
 H240 H 0.95948 0.73691 0.30902
 H241 H 1.03004 0.79388 0.33287
 H242 H 1.04923 0.77172 0.41453
 H243 H 0.94333 0.68222 0.41410
 H244 H 0.93229 0.70188 0.33038
 H245 H 1.01389 0.73936 0.41554
 H246 H 0.97931 0.71454 0.41677
 C247 C 0.50534 0.24917 -0.12374
 C248 C 0.47966 0.25805 -0.11776
 C249 C 0.45856 0.23928 -0.11698
 C250 C 0.46247 0.21179 -0.12311
 C251 C 0.48778 0.20316 -0.12980
 C252 C 0.50900 0.22151 -0.12997
 C253 C 0.52740 0.26977 -0.12384
 C254 C 0.55387 0.26275 -0.12735
 C255 C 0.57366 0.28275 -0.12769
 C256 C 0.56756 0.31019 -0.12483
 C257 C 0.54136 0.31742 -0.12089
 C258 C 0.52134 0.29744 -0.11991
 C259 C 0.47509 0.28566 -0.11318
 C260 C 0.49542 0.30497 -0.11469
 H261 H 0.45541 0.29250 -0.10880
 H262 H 0.49080 0.32612 -0.11141
 H263 H 0.43895 0.24621 -0.11233
 H264 H 0.49129 0.18204 -0.13462
 H265 H 0.59382 0.27680 -0.13065
 H266 H 0.53666 0.33863 -0.11815
 H267 H 0.52798 0.21368 -0.13535
 H268 H 0.55974 0.24197 -0.12968
 C269 C 0.13130 0.00676 0.25290
 C270 C 0.10864 -0.00966 0.25789
 C271 C 0.10933 -0.03107 0.27634
 C272 C 0.13223 -0.03624 0.29036
 C273 C 0.15449 -0.01963 0.28574
 C274 C 0.15411 0.00152 0.26726
 C275 C 0.12993 0.02901 0.23257
 C276 C 0.15170 0.04564 0.22523
 C277 C 0.14952 0.06581 0.20590
 C278 C 0.12560 0.07009 0.19351
 C279 C 0.10374 0.05380 0.20077
 C280 C 0.10579 0.03319 0.21993
 C281 C 0.08540 -0.00455 0.24456
 C282 C 0.08396 0.01653 0.22615
 H283 H 0.06801 -0.01700 0.24847
 H284 H 0.06550 0.01967 0.21642
 H285 H 0.09186 -0.04347 0.28003
 H286 H 0.17248 -0.02318 0.29614
 H287 H 0.16660 0.07826 0.20072
 H288 H 0.08528 0.05675 0.19096
 H289 H 0.17188 0.01349 0.26460
 H290 H 0.17065 0.04331 0.23394
 C291 C 0.62341 0.49925 -0.24570
 C292 C 0.64562 0.50260 -0.26316
 C293 C 0.64634 0.52294 -0.28284
 C294 C 0.62545 0.54083 -0.28516
 C295 C 0.60361 0.53757 -0.26741
 C296 C 0.60254 0.51711 -0.24811
 C297 C 0.62333 0.47709 -0.22515
 C298 C 0.60164 0.47113 -0.20779
 C299 C 0.60265 0.45037 -0.18890
 C300 C 0.62531 0.43520 -0.18666
 C301 C 0.64692 0.44079 -0.20395
 C302 C 0.64600 0.46132 -0.22330
 C303 C 0.66720 0.48591 -0.26063
 C304 C 0.66750 0.46592 -0.24095
 H305 H 0.68429 0.48853 -0.27390
 H306 H 0.68479 0.45374 -0.23966
 H307 H 0.66363 0.52501 -0.29584
 H308 H 0.58698 0.55062 -0.26834
 H309 H 0.58575 0.44636 -0.17572
 H310 H 0.66433 0.42876 -0.20263
 H311 H 0.58526 0.51583 -0.23513
 H312 H 0.58368 0.48210 -0.20854
 C313 C 0.36815 0.99325 0.74992
 C314 C 0.39207 1.00629 0.75692
 C315 C 0.39245 1.02663 0.77721
 C316 C 0.36929 1.03417 0.79099
 C317 C 0.34567 1.02098 0.78422
 C318 C 0.34504 1.00085 0.76398
 C319 C 0.36857 0.97183 0.72793
 C320 C 0.34576 0.95815 0.71895
 C321 C 0.34721 0.93830 0.69848
 C322 C 0.37137 0.93148 0.68644
 C323 C 0.39418 0.94506 0.69511
 C324 C 0.39295 0.96518 0.71558
 C325 C 0.41551 0.99890 0.74374
 C326 C 0.41595 0.97871 0.72362
 H327 H 0.43384 1.00883 0.74914
 H328 H 0.43461 0.97368 0.71412
 H329 H 0.41091 1.03635 0.78245
 H330 H 0.32745 1.02642 0.79430
 H331 H 0.32936 0.92793 0.69229
 H332 H 0.41291 0.94019 0.68563
 H333 H 0.32626 0.99155 0.75972
 H334 H 0.32662 0.96241 0.72741
 C335 C 0.87105 0.50463 0.24578
 C336 C 0.87196 0.47744 0.25446
 C337 C 0.87169 0.45604 0.23530
 C338 C 0.86959 0.46120 0.20750
 C339 C 0.86794 0.48807 0.19899
 C340 C 0.86881 0.50955 0.21780
 C341 C 0.87196 0.52691 0.26685
 C342 C 0.87323 0.55463 0.26023
 C343 C 0.87383 0.57461 0.28065
 C344 C 0.87291 0.56749 0.30810
 C345 C 0.87195 0.54000 0.31496
 C346 C 0.87190 0.51973 0.29460
 C347 C 0.87263 0.47174 0.28223
 C348 C 0.87219 0.49241 0.30187
 H349 H 0.87313 0.45093 0.28891
 H350 H 0.87237 0.48691 0.32310
 H351 H 0.87242 0.43529 0.24211
 H352 H 0.86630 0.49257 0.17765
 H353 H 0.87467 0.59575 0.27499
 H354 H 0.87174 0.53444 0.33620
 H355 H 0.86741 0.52976 0.21003
 H356 H 0.87400 0.56133 0.23947
 C357 C 0.23856 0.13889 0.00444
 C358 C 0.24481 0.11404 -0.00868
 C359 C 0.26419 0.11337 -0.02937
 C360 C 0.27798 0.13708 -0.03707
 C361 C 0.27199 0.16163 -0.02385
 C362 C 0.25250 0.16260 -0.00345
 C363 C 0.21764 0.13867 0.02641
 C364 C 0.20925 0.16237 0.04011
 C365 C 0.18993 0.16097 0.06067
 C366 C 0.17859 0.13596 0.06820
 C367 C 0.18655 0.11231 0.05448
 C368 C 0.20576 0.11348 0.03363
 C369 C 0.23195 0.08991 -0.00088
 C370 C 0.21300 0.08961 0.01995
 H371 H 0.23680 0.07088 -0.01087
 H372 H 0.20380 0.07036 0.02539
 H373 H 0.26891 0.09416 -0.03905
 H374 H 0.28223 0.18025 -0.02943
 H375 H 0.18412 0.17948 0.07105
 H376 H 0.17752 0.09296 0.05987
 H377 H 0.24883 0.18207 0.00597
 H378 H 0.21731 0.18215 0.03529
 C379 C 0.75109 0.63208 0.49434
 C380 C 0.74650 0.60830 0.50966
 C381 C 0.72721 0.60784 0.53050
 C382 C 0.71183 0.63058 0.53597
 C383 C 0.71592 0.65383 0.52027
 C384 C 0.73531 0.65467 0.49981
 C385 C 0.77239 0.63202 0.47281
 C386 C 0.77967 0.65519 0.45776
 C387 C 0.79973 0.65415 0.43804
 C388 C 0.81290 0.62999 0.43262
 C389 C 0.80589 0.60679 0.44748
 C390 C 0.78604 0.60773 0.46774
 C391 C 0.76101 0.58506 0.50391
 C392 C 0.78012 0.58468 0.48319
 H393 H 0.75738 0.56679 0.51549
 H394 H 0.79066 0.56613 0.47943
 H395 H 0.72388 0.58958 0.54217
 H396 H 0.70438 0.67168 0.52408
 H397 H 0.80482 0.67227 0.42673
 H398 H 0.81632 0.58817 0.44365
 H399 H 0.73749 0.67314 0.48848
 H400 H 0.77035 0.67439 0.46103
 C401 C 0.75586 0.36637 -0.01689
 C402 C 0.76219 0.39116 -0.00345
 C403 C 0.78123 0.39206 0.01665
 C404 C 0.79430 0.36857 0.02372
 C405 C 0.78836 0.34414 0.00999
 C406 C 0.76943 0.34299 -0.01001
 C407 C 0.73481 0.36613 -0.03764
 C408 C 0.72640 0.34238 -0.05150
 C409 C 0.70626 0.34316 -0.07014
 C410 C 0.69407 0.36759 -0.07556
 C411 C 0.70248 0.39139 -0.06210
 C412 C 0.72256 0.39083 -0.04317
 C413 C 0.74942 0.41490 -0.01002
 C414 C 0.73009 0.41476 -0.02951
 H415 H 0.75435 0.43391 0.00016
 H416 H 0.72072 0.43366 -0.03375
 H417 H 0.78587 0.41119 0.02674
 H418 H 0.79797 0.32563 0.01500
 H419 H 0.70027 0.32456 -0.08046
 H420 H 0.69291 0.41031 -0.06586
 H421 H 0.76564 0.32357 -0.01966
 H422 H 0.73492 0.32297 -0.04815
 C423 C 0.25877 0.86406 0.50024
 C424 C 0.25383 0.88875 0.48722
 C425 C 0.23456 0.88971 0.46741
 C426 C 0.21968 0.86644 0.46053
 C427 C 0.22447 0.84206 0.47362
 C428 C 0.24375 0.84081 0.49313
 C429 C 0.27951 0.86393 0.52129
 C430 C 0.28647 0.84028 0.53487
 C431 C 0.30560 0.84134 0.55464
 C432 C 0.31825 0.86593 0.56149
 C433 C 0.31174 0.88952 0.54785
 C434 C 0.29266 0.88868 0.52779
 C435 C 0.26788 0.91244 0.49427
 C436 C 0.28675 0.91244 0.51424
 H437 H 0.26407 0.93136 0.48436
 H438 H 0.29691 0.93136 0.51911
 H439 H 0.23084 0.90877 0.45775
 H440 H 0.21346 0.82373 0.46863
 H441 H 0.31020 0.82289 0.56501
 H442 H 0.32175 0.90854 0.55272
 H443 H 0.24644 0.82148 0.50246
 H444 H 0.27738 0.82079 0.53061
   
