data_POSCAR
  _audit_creation_date              2014-09-24
  _audit_creation_method            'ToBaCCo'
  _symmetry_space_group_name_H-M    'P1'
  _symmetry_Int_Tables_number       1
  _symmetry_cell_setting            triclinic
  loop_
  _symmetry_equiv_pos_as_xyz
 x,y,z
_cell_length_a 36.1659
_cell_length_b 36.1152
_cell_length_c 36.0911
_cell_angle_alpha 90.087800
_cell_angle_beta 90.026600
_cell_angle_gamma 89.928100
loop_
  _atom_site_label
  _atom_site_type_symbol
  _atom_site_fract_x
  _atom_site_fract_y
  _atom_site_fract_z
C1 C 0.25161 0.99412 -0.02377
 C2 C 0.25699 0.99670 0.01345
 C3 C 0.25911 0.96373 0.03789
 C4 C 0.25921 1.03259 0.03366
 C5 C 0.25136 1.02747 -0.04797
 C6 C 0.24720 0.95770 -0.04273
 C7 C 0.22827 0.94080 0.04310
 C8 C 0.22728 0.91609 0.07292
 C9 C 0.25708 0.91424 0.09804
 C10 C 0.28835 0.93618 0.09183
 C11 C 0.28949 0.96046 0.06190
 C12 C 0.23793 1.03667 0.06585
 C13 C 0.24342 1.06643 0.08949
 C14 C 0.26948 1.09414 0.08091
 C15 C 0.28836 1.09191 0.04683
 C16 C 0.28441 1.06061 0.02413
 C17 C 0.27648 1.02920 -0.07745
 C18 C 0.27791 1.06035 -0.10013
 C19 C 0.25448 1.09070 -0.09379
 C20 C 0.22883 1.08898 -0.06454
 C21 C 0.22705 1.05738 -0.04201
 C22 C 0.27377 0.92942 -0.03939
 C23 C 0.27001 0.89638 -0.05947
 C24 C 0.24016 0.89143 -0.08387
 C25 C 0.21309 0.91934 -0.08632
 C26 C 0.21671 0.95213 -0.06611
 H27 H 0.20413 0.94372 0.02557
 H28 H 0.20244 0.90002 0.07737
 H29 H 0.31162 0.93517 0.11073
 H30 H 0.31326 0.97839 0.05866
 H31 H 0.21772 1.01592 0.07348
 H32 H 0.22620 1.06794 0.11398
 H33 H 0.30172 1.05789 -0.00018
 H34 H 0.29533 1.00646 -0.08270
 H35 H 0.29756 1.06075 -0.12278
 H36 H 0.20961 1.11144 -0.05963
 H37 H 0.20686 1.05629 -0.01989
 H38 H 0.29789 0.93329 -0.02204
 H39 H 0.29121 0.87531 -0.05713
 H40 H 0.18925 0.91601 -0.10417
 H41 H 0.19581 0.97346 -0.06899
 H42 H 0.30817 1.11298 0.03899
 C43 C 0.76274 0.49465 0.47002
 C44 C 0.76541 0.49580 0.50736
 C45 C 0.76987 0.46237 0.53025
 C46 C 0.76187 0.53040 0.52864
 C47 C 0.75407 0.52793 0.44776
 C48 C 0.76787 0.45999 0.44881
 C49 C 0.73838 0.44248 0.54084
 C50 C 0.74061 0.41584 0.56861
 C51 C 0.77424 0.40945 0.58704
 C52 C 0.80580 0.42928 0.57641
 C53 C 0.80370 0.45542 0.54796
 C54 C 0.72845 0.53860 0.54649
 C55 C 0.72708 0.56633 0.57344
 C56 C 0.75895 0.58653 0.58236
 C57 C 0.79213 0.57911 0.56349
 C58 C 0.79364 0.55087 0.53717
 C59 C 0.77888 0.55767 0.44563
 C60 C 0.77215 0.58693 0.42126
 C61 C 0.74091 0.58638 0.39804
 C62 C 0.71617 0.55665 0.40025
 C63 C 0.72254 0.52781 0.42511
 C64 C 0.79740 0.45736 0.42377
 C65 C 0.79942 0.42783 0.39885
 C66 C 0.77221 0.40024 0.39894
 C67 C 0.74309 0.40240 0.42468
 C68 C 0.74073 0.43232 0.44909
 H69 H 0.71161 0.44907 0.52912
 H70 H 0.71556 0.40183 0.57712
 H71 H 0.83184 0.42506 0.59064
 H72 H 0.82796 0.47150 0.54098
 H73 H 0.70397 0.52227 0.54090
 H74 H 0.70137 0.57142 0.58799
 H75 H 0.81999 0.54374 0.52480
 H76 H 0.80427 0.55747 0.46144
 H77 H 0.79241 0.60887 0.41917
 H78 H 0.69223 0.55545 0.38223
 H79 H 0.70341 0.50477 0.42592
 H80 H 0.81809 0.47900 0.42257
 H81 H 0.82172 0.42700 0.37884
 H82 H 0.72091 0.38230 0.42441
 H83 H 0.71662 0.43489 0.46658
 H84 H 0.81735 0.59358 0.57061
 C85 C 0.73975 1.01532 0.99117
 C86 C 0.74167 0.97752 0.98993
 C87 C 0.74715 0.95602 0.95494
 C88 C 0.73951 0.95499 1.02450
 C89 C 0.73612 1.03547 1.02709
 C90 C 0.74090 1.03947 0.95764
 C91 C 0.72534 0.92444 0.94860
 C92 C 0.73238 0.90108 0.91857
 C93 C 0.76139 0.90877 0.89389
 C94 C 0.78246 0.94099 0.89932
 C95 C 0.77585 0.96411 0.92993
 C96 C 0.70967 0.95838 1.04930
 C97 C 0.70850 0.93703 1.08163
 C98 C 0.73635 0.91098 1.08897
 C99 C 0.76600 0.90742 1.06404
 C100 C 0.76755 0.92923 1.03220
 C101 C 0.76271 1.03170 1.05524
 C102 C 0.75990 1.05261 1.08780
 C103 C 0.73115 1.07837 1.09229
 C104 C 0.70426 1.08170 1.06433
 C105 C 0.70680 1.06049 1.03206
 C106 C 0.76261 1.07168 0.95862
 C107 C 0.76066 1.09783 0.93032
 C108 C 0.73720 1.09228 0.89959
 C109 C 0.71690 1.05903 0.89768
 C110 C 0.71806 1.03330 0.92675
 H111 H 0.70305 0.91752 0.96739
 H112 H 0.71491 0.87708 0.91456
 H113 H 0.80479 0.94765 0.88049
 H114 H 0.79368 0.98772 0.93454
 H115 H 0.68733 0.97752 1.04360
 H116 H 0.68541 0.94018 1.10048
 H117 H 0.79082 0.92615 1.01355
 H118 H 0.78592 1.01305 1.05172
 H119 H 0.78088 1.04954 1.10901
 H120 H 0.68125 1.10065 1.06736
 H121 H 0.68601 1.06380 1.01071
 H122 H 0.78075 1.07702 0.98192
 H123 H 0.77838 1.12179 0.93257
 H124 H 0.69886 1.05357 0.87433
 H125 H 0.70037 1.00918 0.92551
 H126 H 0.78824 0.88805 1.06938
 C127 C 0.25644 0.51221 0.49578
 C128 C 0.25965 0.47460 0.49693
 C129 C 0.25899 0.45496 0.53316
 C130 C 0.26223 0.45043 0.46350
 C131 C 0.25636 0.53460 0.46114
 C132 C 0.25443 0.53401 0.53070
 C133 C 0.28620 0.46131 0.56026
 C134 C 0.28397 0.44386 0.59479
 C135 C 0.25511 0.41908 0.60234
 C136 C 0.22792 0.41283 0.57513
 C137 C 0.22998 0.43048 0.54084
 C138 C 0.28866 0.42190 0.46316
 C139 C 0.28839 0.39493 0.43546
 C140 C 0.26199 0.39593 0.40704
 C141 C 0.23614 0.42518 0.40648
 C142 C 0.23614 0.45210 0.43464
 C143 C 0.28408 0.53097 0.43407
 C144 C 0.28633 0.55647 0.40484
 C145 C 0.26171 0.58657 0.40291
 C146 C 0.23339 0.58945 0.42931
 C147 C 0.23069 0.56370 0.45793
 C148 C 0.22468 0.53010 0.55540
 C149 C 0.22347 0.55101 0.58805
 C150 C 0.25147 0.57669 0.59594
 C151 C 0.28152 0.58002 0.57142
 C152 C 0.28282 0.55903 0.53901
 H153 H 0.30897 0.47994 0.55470
 H154 H 0.30525 0.44900 0.61528
 H155 H 0.20489 0.39446 0.58041
 H156 H 0.20860 0.42549 0.52040
 H157 H 0.30891 0.41980 0.48518
 H158 H 0.30854 0.37273 0.43664
 H159 H 0.21482 0.47316 0.43476
 H160 H 0.30473 0.50937 0.43627
 H161 H 0.30814 0.55350 0.38450
 H162 H 0.21327 0.61162 0.42788
 H163 H 0.20901 0.56713 0.47835
 H164 H 0.20241 0.51104 0.54926
 H165 H 0.20013 0.54797 0.60658
 H166 H 0.30404 0.59887 0.57724
 H167 H 0.30610 0.56214 0.52041
 H168 H 0.21487 0.42636 0.38542
 C169 C 0.99182 0.23935 0.02698
 C170 C 0.99255 0.24363 -0.01051
 C171 C 0.95817 0.24494 -0.03334
 C172 C 1.02776 0.24737 -0.03165
 C173 C 1.02557 0.24141 0.05041
 C174 C 0.95708 0.23324 0.04799
 C175 C 0.93096 0.21725 -0.03161
 C176 C 0.90038 0.21830 -0.05544
 C177 C 0.89737 0.24588 -0.08282
 C178 C 0.92444 0.27396 -0.08386
 C179 C 0.95419 0.27350 -0.05933
 C180 C 1.03353 0.22432 -0.06239
 C181 C 1.06425 0.22902 -0.08517
 C182 C 1.09045 0.25703 -0.07774
 C183 C 1.08544 0.27908 -0.04589
 C184 C 1.05400 0.27490 -0.02356
 C185 C 1.02552 0.26549 0.08092
 C186 C 1.05469 0.26548 0.10607
 C187 C 1.08521 0.24193 0.10108
 C188 C 1.08561 0.21811 0.06992
 C189 C 1.05579 0.21758 0.04513
 C190 C 0.92870 0.25978 0.04853
 C191 C 0.89906 0.25606 0.07320
 C192 C 0.89776 0.22598 0.09797
 C193 C 0.92573 0.19915 0.09666
 C194 C 0.95496 0.20261 0.07179
 H195 H 0.93373 0.19437 -0.01246
 H196 H 0.88000 0.19640 -0.05365
 H197 H 0.92261 0.29691 -0.10296
 H198 H 0.97458 0.29538 -0.06099
 H199 H 1.01384 0.20271 -0.06902
 H200 H 1.06746 0.20985 -0.10797
 H201 H 1.04984 0.29358 -0.00045
 H202 H 1.00235 0.28392 0.08572
 H203 H 1.05327 0.28413 0.12960
 H204 H 1.10784 0.19866 0.06518
 H205 H 1.05589 0.19797 0.02240
 H206 H 0.93034 0.28410 0.03111
 H207 H 0.87840 0.27774 0.07420
 H208 H 0.92545 0.17592 0.11563
 H209 H 0.97681 0.18207 0.07207
 H210 H 1.10509 0.30066 -0.03906
 C211 C 0.50443 0.76080 0.48934
 C212 C 0.50288 0.76187 0.52708
 C213 C 0.46706 0.76035 0.54738
 C214 C 0.53650 0.76340 0.55088
 C215 C 0.53984 0.76007 0.46836
 C216 C 0.47043 0.76004 0.46611
 C217 C 0.43909 0.78681 0.54176
 C218 C 0.40621 0.78513 0.56222
 C219 C 0.40127 0.75769 0.58929
 C220 C 0.42917 0.73107 0.59455
 C221 C 0.46170 0.73248 0.57388
 C222 C 0.53775 0.78921 0.58002
 C223 C 0.56680 0.78887 0.60545
 C224 C 0.59565 0.76323 0.60190
 C225 C 0.59491 0.73766 0.57244
 C226 C 0.56531 0.73746 0.54740
 C227 C 0.54518 0.73221 0.44175
 C228 C 0.57593 0.73276 0.41851
 C229 C 0.60209 0.76137 0.42124
 C230 C 0.59776 0.78840 0.44894
 C231 C 0.56657 0.78807 0.47207
 C232 C 0.44363 0.73220 0.47008
 C233 C 0.41250 0.73166 0.44704
 C234 C 0.40834 0.75812 0.41889
 C235 C 0.43522 0.78590 0.41492
 C236 C 0.46594 0.78679 0.43830
 H237 H 0.44286 0.80887 0.52184
 H238 H 0.38502 0.80583 0.55760
 H239 H 0.42581 0.70895 0.61448
 H240 H 0.48285 0.71173 0.57855
 H241 H 0.51567 0.80920 0.58357
 H242 H 0.56664 0.80857 0.62812
 H243 H 0.56438 0.71639 0.52606
 H244 H 0.52503 0.71026 0.43851
 H245 H 0.57907 0.71089 0.39820
 H246 H 0.61774 0.81055 0.45170
 H247 H 0.56279 0.81013 0.49206
 H248 H 0.44693 0.71078 0.49079
 H249 H 0.39207 0.71005 0.45060
 H250 H 0.43234 0.80719 0.39404
 H251 H 0.48632 0.80844 0.43471
 H252 H 0.61631 0.71686 0.56968
 C253 C -0.01526 0.73227 0.00686
 C254 C 0.02225 0.73443 0.00524
 C255 C 0.04292 0.74002 -0.02995
 C256 C 0.04574 0.73310 0.03893
 C257 C -0.03576 0.73410 0.04250
 C258 C -0.03907 0.73007 -0.02673
 C259 C 0.04009 0.71561 -0.06016
 C260 C 0.06224 0.72068 -0.09166
 C261 C 0.08851 0.74962 -0.09285
 C262 C 0.09087 0.77387 -0.06250
 C263 C 0.06818 0.76938 -0.03175
 C264 C 0.07375 0.70629 0.04079
 C265 C 0.09994 0.70734 0.06906
 C266 C 0.09846 0.73496 0.09631
 C267 C 0.06978 0.76134 0.09518
 C268 C 0.04374 0.76057 0.06645
 C269 C -0.06328 0.76114 0.04621
 C270 C -0.08651 0.76144 0.07684
 C271 C -0.08278 0.73461 0.10498
 C272 C -0.05331 0.70920 0.10262
 C273 C -0.03050 0.70834 0.07117
 C274 C -0.03740 0.75666 -0.05499
 C275 C -0.06212 0.75524 -0.08478
 C276 C -0.09008 0.72792 -0.08617
 C277 C -0.09217 0.70211 -0.05720
 C278 C -0.06670 0.70285 -0.02820
 H279 H 0.02141 0.69224 -0.05903
 H280 H 0.05986 0.70072 -0.11387
 H281 H 0.11065 0.79641 -0.06232
 H282 H 0.07092 0.78855 -0.00880
 H283 H 0.07602 0.68520 0.01952
 H284 H 0.12192 0.68693 0.06922
 H285 H 0.02300 0.78216 0.06487
 H286 H -0.06732 0.78174 0.02478
 H287 H -0.10701 0.78322 0.07838
 H288 H -0.04925 0.68858 0.12402
 H289 H -0.00957 0.68702 0.06877
 H290 H -0.01755 0.77903 -0.05361
 H291 H -0.06017 0.77682 -0.10539
 H292 H -0.11340 0.68095 -0.05708
 H293 H -0.06900 0.68246 -0.00633
 H294 H 0.06850 0.78359 0.11526
 C295 C 0.50896 0.26187 0.50685
 C296 C 0.47145 0.26455 0.50849
 C297 C 0.44694 0.26037 0.47570
 C298 C 0.45154 0.27123 0.54380
 C299 C 0.53198 0.26339 0.54105
 C300 C 0.52944 0.25662 0.47138
 C301 C 0.44915 0.28431 0.44518
 C302 C 0.42238 0.28271 0.41712
 C303 C 0.39280 0.25743 0.41954
 C304 C 0.39091 0.23352 0.44996
 C305 C 0.41780 0.23476 0.47756
 C306 C 0.42662 0.30095 0.54576
 C307 C 0.40257 0.30431 0.57566
 C308 C 0.40335 0.27836 0.60444
 C309 C 0.42951 0.24950 0.60348
 C310 C 0.45327 0.24578 0.57313
 C311 C 0.55557 0.23364 0.54905
 C312 C 0.57830 0.23451 0.58025
 C313 C 0.57826 0.26543 0.60402
 C314 C 0.55400 0.29487 0.59658
 C315 C 0.53132 0.29410 0.56506
 C316 C 0.52046 0.22838 0.44600
 C317 C 0.54148 0.22343 0.41373
 C318 C 0.57262 0.24560 0.40709
 C319 C 0.58152 0.27377 0.43243
 C320 C 0.56013 0.27924 0.46411
 H321 H 0.47079 0.30495 0.44371
 H322 H 0.42411 0.30213 0.39439
 H323 H 0.36840 0.21392 0.45248
 H324 H 0.41535 0.21630 0.50106
 H325 H 0.42468 0.32064 0.52322
 H326 H 0.38245 0.32657 0.57576
 H327 H 0.47164 0.22213 0.57166
 H328 H 0.55631 0.20961 0.53106
 H329 H 0.59591 0.21088 0.58576
 H330 H 0.55341 0.31892 0.61454
 H331 H 0.51360 0.31755 0.55918
 H332 H 0.49762 0.20982 0.45138
 H333 H 0.53415 0.20157 0.39452
 H334 H 0.60495 0.29178 0.42760
 H335 H 0.56770 0.30114 0.48319
 H336 H 0.43006 0.22857 0.62491
 C337 C 0.99495 0.01955 0.23577
 C338 C 0.99394 -0.01817 0.23397
 C339 C 0.95806 -0.03831 0.23353
 C340 C 1.02732 -0.04258 0.23460
 C341 C 1.02917 0.04147 0.24291
 C342 C 0.96077 0.04212 0.23091
 C343 C 0.94992 -0.06180 0.26319
 C344 C 0.91780 -0.08299 0.26316
 C345 C 0.89292 -0.08170 0.23296
 C346 C 0.90027 -0.05653 0.20409
 C347 C 0.93285 -0.03545 0.20405
 C348 C 1.05449 -0.04021 0.26234
 C349 C 1.08280 -0.06680 0.26452
 C350 C 1.08384 -0.09711 0.23959
 C351 C 1.05642 -0.09921 0.21210
 C352 C 1.02900 -0.07218 0.20936
 C353 C 1.06068 0.03908 0.22021
 C354 C 1.08996 0.06428 0.22476
 C355 C 1.08770 0.09265 0.25154
 C356 C 1.05661 0.09434 0.27455
 C357 C 1.02795 0.06888 0.27058
 C358 C 0.95965 0.06861 0.20254
 C359 C 0.92939 0.09234 0.19899
 C360 C 0.89937 0.08981 0.22343
 C361 C 0.90011 0.06289 0.25158
 C362 C 0.93078 0.03950 0.25553
 H363 H 0.96869 -0.06382 0.28651
 H364 H 0.91270 -0.09981 0.28734
 H365 H 0.88164 -0.05432 0.18067
 H366 H 0.93871 -0.01743 0.18083
 H367 H 1.05313 -0.01863 0.28314
 H368 H 1.10245 -0.06426 0.28693
 H369 H 1.00821 -0.07500 0.18791
 H370 H 1.06196 0.01884 0.19809
 H371 H 1.11331 0.06282 0.20605
 H372 H 1.05412 0.11601 0.29521
 H373 H 1.00394 0.07147 0.28834
 H374 H 0.98266 0.07138 0.18355
 H375 H 0.92969 0.11320 0.17745
 H376 H 0.87792 0.06107 0.27161
 H377 H 0.93154 0.02004 0.27831
 H378 H 1.05614 -0.12193 0.19243
 C379 C 0.50583 0.52941 0.74913
 C380 C 0.50441 0.49177 0.74984
 C381 C 0.53712 0.46775 0.74270
 C382 C 0.46998 0.47107 0.75861
 C383 C 0.47211 0.55304 0.74743
 C384 C 0.54110 0.55057 0.75021
 C385 C 0.53392 0.44009 0.71546
 C386 C 0.56063 0.41243 0.71207
 C387 C 0.59160 0.41212 0.73533
 C388 C 0.59580 0.44064 0.76171
 C389 C 0.56854 0.46808 0.76561
 C390 C 0.43923 0.47082 0.73480
 C391 C 0.40994 0.44610 0.74107
 C392 C 0.41136 0.42100 0.77096
 C393 C 0.44166 0.42221 0.79511
 C394 C 0.47047 0.44708 0.78915
 C395 C 0.44497 0.55278 0.77529
 C396 C 0.41621 0.57889 0.77477
 C397 C 0.41483 0.60615 0.74693
 C398 C 0.44188 0.60622 0.71924
 C399 C 0.46992 0.57975 0.71924
 C400 C 0.54552 0.57698 0.77844
 C401 C 0.57424 0.60261 0.77718
 C402 C 0.59972 0.60211 0.74800
 C403 C 0.59641 0.57470 0.72032
 C404 C 0.56705 0.54926 0.72127
 H405 H 0.50976 0.43903 0.69774
 H406 H 0.55668 0.39071 0.69172
 H407 H 0.61903 0.44061 0.78064
 H408 H 0.57112 0.48840 0.78754
 H409 H 0.43870 0.48847 0.71058
 H410 H 0.38736 0.44525 0.72141
 H411 H 0.49409 0.44657 0.80763
 H412 H 0.44671 0.53332 0.79801
 H413 H 0.39604 0.57875 0.79693
 H414 H 0.44143 0.62701 0.69762
 H415 H 0.49076 0.58078 0.69771
 H416 H 0.52561 0.57877 0.80080
 H417 H 0.57614 0.62342 0.79875
 H418 H 0.61527 0.57409 0.69705
 H419 H 0.56364 0.52980 0.69868
 H420 H 0.44355 0.40307 0.81812
 C421 C 1.02474 1.00956 0.75201
 C422 C 0.98735 1.00981 0.74838
 C423 C 0.96507 0.97566 0.74419
 C424 C 0.96519 1.04439 0.74976
 C425 C 1.04639 1.04432 0.75506
 C426 C 1.04689 0.97486 0.75288
 C427 C 0.93903 0.97400 0.71536
 C428 C 0.91216 0.94645 0.71484
 C429 C 0.91126 0.91960 0.74270
 C430 C 0.93821 0.92024 0.77088
 C431 C 0.96480 0.94831 0.77176
 C432 C 0.97058 1.07328 0.72441
 C433 C 0.94600 1.10322 0.72355
 C434 C 0.91476 1.10391 0.74683
 C435 C 0.91049 1.07545 0.77317
 C436 C 0.93551 1.04627 0.77464
 C437 C 1.03970 1.07029 0.78332
 C438 C 1.06214 1.10164 0.78666
 C439 C 1.09222 1.10667 0.76268
 C440 C 1.09865 1.08082 0.73430
 C441 C 1.07590 1.05000 0.73054
 C442 C 1.07373 0.97070 0.78063
 C443 C 1.09841 0.94113 0.77979
 C444 C 1.09657 0.91435 0.75159
 C445 C 1.06885 0.91793 0.72418
 C446 C 1.04458 0.94819 0.72464
 H447 H 0.93851 0.99516 0.69412
 H448 H 0.89168 0.94643 0.69292
 H449 H 0.93764 0.90020 0.79314
 H450 H 0.98390 0.94976 0.79483
 H451 H 0.99304 1.07212 0.70461
 H452 H 0.95043 1.12493 0.70334
 H453 H 0.93116 1.02444 0.79473
 H454 H 1.01756 1.06602 0.80302
 H455 H 1.05669 1.12141 0.80859
 H456 H 1.12113 1.08457 0.71486
 H457 H 1.08151 1.03027 0.70860
 H458 H 1.07620 0.99105 0.80258
 H459 H 1.11922 0.93937 0.80136
 H460 H 1.06666 0.89870 0.70133
 H461 H 1.02489 0.95141 0.70227
 H462 H 0.88831 1.07559 0.79323
 C463 C 0.51413 0.50053 0.26077
 C464 C 0.47664 0.49830 0.26241
 C465 C 0.45717 0.46250 0.25878
 C466 C 0.45196 0.53097 0.26486
 C467 C 0.53414 0.53648 0.26054
 C468 C 0.53721 0.46644 0.25846
 C469 C 0.43346 0.45728 0.22853
 C470 C 0.41295 0.42492 0.22528
 C471 C 0.41550 0.39732 0.25255
 C472 C 0.44029 0.40189 0.28214
 C473 C 0.46081 0.43452 0.28548
 C474 C 0.45135 0.55785 0.23686
 C475 C 0.42356 0.58482 0.23638
 C476 C 0.39583 0.58509 0.26384
 C477 C 0.39689 0.55843 0.29196
 C478 C 0.42474 0.53173 0.29255
 C479 C 0.52822 0.56382 0.28773
 C480 C 0.54880 0.59672 0.28730
 C481 C 0.57618 0.60226 0.26033
 C482 C 0.58140 0.57522 0.23276
 C483 C 0.56071 0.54272 0.23296
 C484 C 0.56301 0.45903 0.28648
 C485 C 0.58381 0.42642 0.28576
 C486 C 0.57934 0.40068 0.25678
 C487 C 0.55360 0.40819 0.22868
 C488 C 0.53312 0.44107 0.22916
 H489 H 0.43068 0.47849 0.20751
 H490 H 0.39495 0.42163 0.20153
 H491 H 0.44280 0.38077 0.30328
 H492 H 0.47894 0.43828 0.30907
 H493 H 0.47135 0.55695 0.21455
 H494 H 0.42300 0.60433 0.21368
 H495 H 0.42440 0.51079 0.31401
 H496 H 0.50826 0.55942 0.30962
 H497 H 0.54430 0.61722 0.30877
 H498 H 0.60169 0.57914 0.21106
 H499 H 0.56556 0.52222 0.21155
 H500 H 0.56650 0.47821 0.30931
 H501 H 0.60289 0.42111 0.30826
 H502 H 0.54976 0.38884 0.20605
 H503 H 0.51380 0.44658 0.20691
 H504 H 0.37582 0.55798 0.31329
 O505 O 0.26439 0.14281 0.20072
 O506 O 0.30471 0.14012 0.25376
 O507 O 0.16407 0.18322 0.24543
 O508 O 0.14496 0.23222 0.27782
 O509 O 0.20810 0.22855 0.14525
 O510 O 0.25452 0.27331 0.13244
 O511 O 0.25252 0.30232 0.33354
 O512 O 0.21217 0.25279 0.34822
 O513 O 0.34979 0.25666 0.29412
 O514 O 0.36630 0.21250 0.24660
 O515 O 0.29709 0.34197 0.23608
 O516 O 0.24480 0.34531 0.19296
 O517 O 0.24674 0.34220 0.28519
 O518 O 0.20420 0.34380 0.23075
 O519 O 0.34538 0.30208 0.24240
 O520 O 0.36140 0.24635 0.20216
 O521 O 0.30509 0.25594 0.33841
 O522 O 0.25629 0.21098 0.35290
 O523 O 0.26542 0.18286 0.15211
 O524 O 0.30019 0.23794 0.13783
 O525 O 0.16229 0.23174 0.18842
 O526 O 0.14808 0.27690 0.23795
 O527 O 0.21204 0.14260 0.24954
 O528 O 0.26220 0.14126 0.29426
 Zr529 Zr 0.25938 0.17663 0.24771
 O530 O 0.29079 0.21411 0.27938
 Zr531 Zr 0.18952 0.23546 0.24005
 O532 O 0.21722 0.27524 0.27278
 Zr533 Zr 0.25653 0.23504 0.17667
 O534 O 0.28640 0.27570 0.20573
 Zr535 Zr 0.25518 0.24959 0.30866
 O536 O 0.22334 0.20931 0.27993
 Zr537 Zr 0.32086 0.24942 0.24438
 O538 O 0.29361 0.20837 0.21274
 Zr539 Zr 0.25011 0.30807 0.23789
 O540 O 0.21964 0.27056 0.20475
 O541 O 0.22398 0.20105 0.20959
 O542 O 0.28686 0.28425 0.27545
 C543 C 0.26674 0.15013 0.16602
 C544 C 0.17734 0.15023 0.24830
 C545 C 0.17395 0.22931 0.15478
 C546 C 0.24910 0.33508 0.31996
 C547 C 0.33903 0.25828 0.32788
 C548 C 0.33167 0.33471 0.23906
 H549 H 0.30729 0.20005 0.29605
 H550 H 0.30060 0.29086 0.18797
 H551 H 0.21010 0.18268 0.19475
 H552 H 0.19910 0.29012 0.28693
 H553 H 0.19418 0.23317 0.34175
 H554 H 0.15169 0.24746 0.29957
 H555 H 0.35760 0.26746 0.18514
 H556 H 0.32080 0.22309 0.14809
 H557 H 0.27699 0.19360 0.34859
 H558 H 0.24265 0.14955 0.31159
 H559 H 0.26440 0.33932 0.17481
 H560 H 0.23571 0.29207 0.13922
 H561 H 0.32385 0.14853 0.23608
 H562 H 0.36076 0.19365 0.26564
 H563 H 0.15400 0.29311 0.21668
 H564 H 0.18726 0.34007 0.25192
 O565 O 0.74333 0.84128 0.18654
 O566 O 0.70353 0.85697 0.23627
 O567 O 0.83950 0.80212 0.24950
 O568 O 0.85685 0.75491 0.28227
 O569 O 0.79610 0.74327 0.15142
 O570 O 0.74646 0.69971 0.14460
 O571 O 0.74507 0.71000 0.34814
 O572 O 0.78535 0.76034 0.35368
 O573 O 0.64919 0.75147 0.29757
 O574 O 0.63572 0.78712 0.24262
 O575 O 0.69687 0.65412 0.25567
 O576 O 0.74830 0.63815 0.21990
 O577 O 0.74391 0.66143 0.30798
 O578 O 0.79018 0.64707 0.25584
 O579 O 0.65083 0.69692 0.25251
 O580 O 0.63991 0.74689 0.20421
 O581 O 0.69278 0.75734 0.34262
 O582 O 0.74294 0.80320 0.34893
 O583 O 0.74432 0.79232 0.14676
 O584 O 0.70357 0.73936 0.14172
 O585 O 0.84088 0.74755 0.19554
 O586 O 0.84787 0.70658 0.25229
 O587 O 0.79598 0.84664 0.23946
 O588 O 0.74297 0.86003 0.27870
 Zr589 Zr 0.74568 0.81653 0.23953
 O590 O 0.71078 0.78769 0.27643
 Zr591 Zr 0.81116 0.75186 0.24588
 O592 O 0.77984 0.72158 0.28442
 Zr593 Zr 0.74643 0.74557 0.18110
 O594 O 0.71286 0.71321 0.21582
 Zr595 Zr 0.74318 0.75643 0.31325
 O596 O 0.77834 0.78776 0.27850
 Zr597 Zr 0.67908 0.74806 0.24781
 O598 O 0.71013 0.78069 0.21015
 Zr599 Zr 0.74561 0.68514 0.25484
 O600 O 0.77960 0.71308 0.21625
 O601 O 0.78055 0.78302 0.20847
 O602 O 0.70979 0.71784 0.28616
 C603 C 0.74312 0.82713 0.15376
 C604 C 0.82942 0.83592 0.24560
 C605 C 0.83000 0.74448 0.16171
 C606 C 0.74460 0.67524 0.34081
 C607 C 0.65908 0.75483 0.33156
 C608 C 0.66270 0.66337 0.25474
 H609 H 0.69479 0.80555 0.28962
 H610 H 0.69833 0.69592 0.20035
 H611 H 0.79634 0.79801 0.19187
 H612 H 0.79667 0.70857 0.30165
 H613 H 0.80458 0.77689 0.34340
 H614 H 0.84723 0.75014 0.30745
 H615 H 0.64385 0.72381 0.18995
 H616 H 0.68454 0.75811 0.14787
 H617 H 0.72183 0.81925 0.34217
 H618 H 0.76054 0.85362 0.29873
 H619 H 0.73497 0.64449 0.19684
 H620 H 0.76503 0.68200 0.15425
 H621 H 0.68317 0.84567 0.22182
 H622 H 0.64254 0.80916 0.25738
 H623 H 0.84355 0.68955 0.23121
 H624 H 0.80423 0.65107 0.27902
 O625 O 0.74302 0.16545 0.80853
 O626 O 0.70122 0.15363 0.75977
 O627 O 0.84251 0.19511 0.74971
 O628 O 0.86113 0.23686 0.70996
 O629 O 0.80511 0.26026 0.84291
 O630 O 0.75825 0.30686 0.84958
 O631 O 0.75176 0.29406 0.64608
 O632 O 0.79145 0.24225 0.64110
 O633 O 0.65628 0.26232 0.69660
 O634 O 0.64041 0.22854 0.75314
 O635 O 0.71266 0.35607 0.73794
 O636 O 0.76583 0.36720 0.77321
 O637 O 0.75997 0.34313 0.68481
 O638 O 0.80606 0.35460 0.73725
 O639 O 0.66339 0.31730 0.74223
 O640 O 0.64737 0.26958 0.78983
 O641 O 0.69958 0.24942 0.65275
 O642 O 0.74616 0.20156 0.64645
 O643 O 0.74957 0.21400 0.84822
 O644 O 0.71271 0.27048 0.85316
 O645 O 0.84829 0.25327 0.79755
 O646 O 0.85958 0.28819 0.73991
 O647 O 0.79407 0.15560 0.75727
 O648 O 0.74038 0.14628 0.71718
 Zr649 Zr 0.74690 0.18985 0.75584
 O650 O 0.71460 0.22105 0.71874
 Zr651 Zr 0.81802 0.24771 0.74806
 O652 O 0.78933 0.28056 0.70950
 Zr653 Zr 0.75470 0.26078 0.81357
 O654 O 0.72386 0.29562 0.77830
 Zr655 Zr 0.74970 0.24854 0.68166
 O656 O 0.78204 0.21435 0.71633
 Zr657 Zr 0.68667 0.26382 0.74675
 O658 O 0.71498 0.22911 0.78499
 Zr659 Zr 0.75855 0.32042 0.73866
 O660 O 0.79014 0.28965 0.77735
 O661 O 0.78501 0.22033 0.78629
 O662 O 0.71982 0.29055 0.70798
 C663 C 0.74517 0.17933 0.84125
 C664 C 0.82872 0.16262 0.75376
 C665 C 0.83868 0.25799 0.83147
 C666 C 0.75644 0.32861 0.65242
 C667 C 0.66625 0.25569 0.66299
 C668 C 0.67783 0.34976 0.73968
 H669 H 0.69716 0.20437 0.70589
 H670 H 0.71104 0.31434 0.79365
 H671 H 0.79973 0.20483 0.80344
 H672 H 0.80695 0.29179 0.69185
 H673 H 0.80889 0.22331 0.65053
 H674 H 0.85330 0.24701 0.68576
 H675 H 0.65504 0.29075 0.80545
 H676 H 0.69229 0.25324 0.84720
 H677 H 0.72536 0.18599 0.65491
 H678 H 0.75976 0.14963 0.69810
 H679 H 0.75159 0.36265 0.79613
 H680 H 0.77765 0.32324 0.83934
 H681 H 0.68203 0.16704 0.77403
 H682 H 0.64440 0.20656 0.73727
 H683 H 0.85545 0.30795 0.75849
 H684 H 0.82035 0.34826 0.71474
 O685 O 0.23085 0.84066 0.79560
 O686 O 0.27590 0.85323 0.75037
 O687 O 0.14252 0.79364 0.73088
 O688 O 0.13275 0.74565 0.69534
 O689 O 0.17708 0.74358 0.83404
 O690 O 0.22639 0.70404 0.85113
 O691 O 0.25516 0.69692 0.64863
 O692 O 0.21258 0.74278 0.63300
 O693 O 0.34022 0.74519 0.70632
 O694 O 0.34631 0.78446 0.75955
 O695 O 0.28978 0.64905 0.74943
 O696 O 0.23466 0.63505 0.78025
 O697 O 0.24810 0.65095 0.69105
 O698 O 0.19714 0.63986 0.73929
 O699 O 0.33380 0.69370 0.75393
 O700 O 0.33782 0.74727 0.80018
 O701 O 0.30227 0.74770 0.65613
 O702 O 0.25065 0.78980 0.64034
 O703 O 0.22911 0.79643 0.84040
 O704 O 0.26812 0.74333 0.85473
 O705 O 0.13800 0.74032 0.78469
 O706 O 0.13806 0.69816 0.72951
 O707 O 0.18519 0.83913 0.73952
 O708 O 0.24154 0.85058 0.70338
 Zr709 Zr 0.23578 0.81094 0.74606
 O710 O 0.27579 0.78053 0.71665
 Zr711 Zr 0.17290 0.74454 0.73790
 O712 O 0.20944 0.71215 0.70587
 Zr713 Zr 0.22997 0.74586 0.81038
 O714 O 0.26776 0.71121 0.78246
 Zr715 Zr 0.24866 0.74567 0.67904
 O716 O 0.20839 0.77849 0.70619
 Zr717 Zr 0.30443 0.74427 0.75207
 O718 O 0.26852 0.77928 0.78263
 Zr719 Zr 0.24062 0.67898 0.74205
 O720 O 0.20200 0.70945 0.77412
 O721 O 0.19834 0.77939 0.77608
 O722 O 0.27929 0.71025 0.71287
 C723 C 0.22950 0.83042 0.82954
 C724 C 0.15204 0.82776 0.73343
 C725 C 0.14472 0.74051 0.81967
 C726 C 0.25361 0.66276 0.65787
 C727 C 0.33444 0.74686 0.67129
 C728 C 0.32340 0.65964 0.75293
 H729 H 0.29279 0.79791 0.70419
 H730 H 0.28073 0.69559 0.80080
 H731 H 0.18045 0.79475 0.79008
 H732 H 0.19530 0.69732 0.68769
 H733 H 0.19126 0.75902 0.63874
 H734 H 0.14509 0.73688 0.67252
 H735 H 0.33368 0.72450 0.81480
 H736 H 0.28762 0.76176 0.84934
 H737 H 0.27014 0.80731 0.64821
 H738 H 0.22444 0.84316 0.68327
 H739 H 0.24522 0.64357 0.80405
 H740 H 0.21124 0.68394 0.84029
 H741 H 0.29474 0.84419 0.76810
 H742 H 0.34037 0.80561 0.74322
 H743 H 0.14107 0.68176 0.75125
 H744 H 0.18560 0.64171 0.71450
 O745 O 0.24413 0.35426 0.70472
 O746 O 0.19630 0.36335 0.75157
 O747 O 0.33822 0.32808 0.77249
 O748 O 0.35119 0.28675 0.81748
 O749 O 0.31328 0.26375 0.67755
 O750 O 0.26987 0.21387 0.66544
 O751 O 0.24182 0.21937 0.86478
 O752 O 0.27913 0.27582 0.87479
 O753 O 0.15031 0.25274 0.80512
 O754 O 0.14013 0.29025 0.74877
 O755 O 0.21204 0.16305 0.76799
 O756 O 0.27247 0.15703 0.73415
 O757 O 0.25327 0.17302 0.82377
 O758 O 0.30304 0.16282 0.78015
 O759 O 0.16263 0.20134 0.76071
 O760 O 0.15081 0.24947 0.71205
 O761 O 0.18745 0.26331 0.85487
 O762 O 0.22790 0.31014 0.86991
 O763 O 0.25339 0.30553 0.66571
 O764 O 0.22528 0.24836 0.65483
 O765 O 0.35168 0.27110 0.72702
 O766 O 0.35863 0.23619 0.78371
 O767 O 0.28940 0.36610 0.76071
 O768 O 0.23337 0.37366 0.79560
 Zr769 Zr 0.24381 0.32983 0.75811
 O770 O 0.20935 0.29655 0.79156
 Zr771 Zr 0.31551 0.27435 0.77268
 O772 O 0.28404 0.23836 0.80624
 Zr773 Zr 0.26008 0.25984 0.70048
 O774 O 0.22597 0.22393 0.73057
 Zr775 Zr 0.24061 0.26769 0.83141
 O776 O 0.27470 0.30502 0.80118
 Zr777 Zr 0.18557 0.25466 0.75899
 O778 O 0.21675 0.29036 0.72475
 Zr779 Zr 0.25756 0.19897 0.77239
 O780 O 0.29280 0.23198 0.73960
 O781 O 0.28568 0.30104 0.73131
 O782 O 0.21511 0.22671 0.79988
 C783 C 0.24752 0.33989 0.67218
 C784 C 0.32392 0.36026 0.76681
 C785 C 0.34550 0.26733 0.69218
 C786 C 0.24703 0.18502 0.85660
 C787 C 0.15584 0.25661 0.84002
 C788 C 0.17730 0.16914 0.76402
 H789 H 0.19030 0.31221 0.80342
 H790 H 0.21500 0.20562 0.71342
 H791 H 0.30104 0.31738 0.71563
 H792 H 0.30005 0.22665 0.82510
 H793 H 0.29370 0.29813 0.86841
 H794 H 0.34273 0.27215 0.83902
 H795 H 0.15883 0.22735 0.69798
 H796 H 0.20129 0.26039 0.66027
 H797 H 0.21871 0.33153 0.85557
 H798 H 0.25057 0.37027 0.81669
 H799 H 0.25375 0.15683 0.71416
 H800 H 0.28995 0.19924 0.67698
 H801 H 0.18058 0.35092 0.73287
 H802 H 0.14047 0.31008 0.76769
 H803 H 0.35511 0.21502 0.76662
 H804 H 0.31818 0.17272 0.80072
 O805 O 0.77395 0.65499 0.67823
 O806 O 0.81576 0.64012 0.72881
 O807 O 0.67787 0.69159 0.73637
 O808 O 0.66233 0.73704 0.77554
 O809 O 0.72208 0.75270 0.64262
 O810 O 0.77147 0.79719 0.63791
 O811 O 0.77025 0.78681 0.83956
 O812 O 0.72961 0.73500 0.84417
 O813 O 0.86766 0.74437 0.79070
 O814 O 0.87923 0.70506 0.73474
 O815 O 0.82271 0.84012 0.74998
 O816 O 0.76877 0.85489 0.70866
 O817 O 0.77148 0.83553 0.79973
 O818 O 0.73082 0.85184 0.74890
 O819 O 0.86747 0.79595 0.74688
 O820 O 0.87905 0.74821 0.69881
 O821 O 0.82334 0.73897 0.83505
 O822 O 0.77447 0.69476 0.84325
 O823 O 0.77663 0.70391 0.63854
 O824 O 0.81403 0.75784 0.63351
 O825 O 0.67731 0.74842 0.68670
 O826 O 0.66724 0.78627 0.74240
 O827 O 0.72307 0.64821 0.72958
 O828 O 0.77386 0.63467 0.76928
 Zr829 Zr 0.77221 0.67915 0.73131
 O830 O 0.80598 0.70767 0.76933
 Zr831 Zr 0.70618 0.74272 0.73721
 O832 O 0.73717 0.77416 0.77551
 Zr833 Zr 0.77162 0.75042 0.67309
 O834 O 0.80548 0.78207 0.70840
 Zr835 Zr 0.77314 0.73957 0.80532
 O836 O 0.73891 0.70730 0.77017
 Zr837 Zr 0.83816 0.74650 0.74075
 O838 O 0.80760 0.71493 0.70210
 Zr839 Zr 0.77243 0.81063 0.74689
 O840 O 0.73808 0.78221 0.70861
 O841 O 0.73759 0.71252 0.69981
 O842 O 0.80729 0.77749 0.77863
 C843 C 0.77618 0.66914 0.64562
 C844 C 0.68909 0.65786 0.73296
 C845 C 0.68811 0.75201 0.65290
 C846 C 0.76989 0.82169 0.83248
 C847 C 0.85720 0.74165 0.82450
 C848 C 0.85672 0.82957 0.74978
 H849 H 0.82160 0.68983 0.78292
 H850 H 0.82067 0.79906 0.69333
 H851 H 0.72216 0.69782 0.68257
 H852 H 0.72004 0.78741 0.79227
 H853 H 0.71187 0.71669 0.83407
 H854 H 0.67075 0.74785 0.79927
 H855 H 0.87482 0.77073 0.68381
 H856 H 0.83449 0.74116 0.64083
 H857 H 0.79193 0.67595 0.83375
 H858 H 0.75728 0.64159 0.78999
 H859 H 0.78943 0.85235 0.69089
 H860 H 0.75304 0.81470 0.64819
 H861 H 0.83478 0.65072 0.71223
 H862 H 0.87542 0.68634 0.75433
 H863 H 0.67469 0.80582 0.72472
 H864 H 0.71122 0.84298 0.76579
 O865 O 0.25760 0.66471 0.31404
 O866 O 0.21370 0.64987 0.26997
 O867 O 0.34765 0.70698 0.24705
 O868 O 0.35858 0.75314 0.20954
 O869 O 0.31296 0.76251 0.34769
 O870 O 0.26452 0.80484 0.36128
 O871 O 0.23818 0.79954 0.15801
 O872 O 0.28103 0.75211 0.14707
 O873 O 0.15106 0.75694 0.21730
 O874 O 0.14393 0.72102 0.27271
 O875 O 0.20319 0.85481 0.25621
 O876 O 0.25707 0.87018 0.28570
 O877 O 0.24599 0.84787 0.19776
 O878 O 0.29647 0.86096 0.24718
 O879 O 0.15793 0.81147 0.26134
 O880 O 0.15236 0.76120 0.31121
 O881 O 0.19024 0.75101 0.16841
 O882 O 0.23469 0.70718 0.15640
 O883 O 0.25945 0.71199 0.35570
 O884 O 0.22156 0.76682 0.36651
 O885 O 0.35228 0.76131 0.29850
 O886 O 0.35396 0.80154 0.24156
 O887 O 0.30470 0.66244 0.25835
 O888 O 0.24515 0.64960 0.22261
 Zr889 Zr 0.25401 0.69154 0.26271
 O890 O 0.21511 0.72115 0.23097
 Zr891 Zr 0.31794 0.75644 0.25147
 O892 O 0.28264 0.78756 0.21717
 Zr893 Zr 0.26027 0.76065 0.32304
 O894 O 0.22345 0.79421 0.29257
 Zr895 Zr 0.24328 0.75310 0.19187
 O896 O 0.28251 0.72087 0.22122
 Zr897 Zr 0.18640 0.76017 0.26350
 O898 O 0.22136 0.72638 0.29661
 Zr899 Zr 0.25169 0.82343 0.25082
 O900 O 0.28933 0.79431 0.28521
 O901 O 0.29152 0.72435 0.29124
 O902 O 0.21285 0.79122 0.22287
 C903 C 0.25853 0.67734 0.34727
 C904 C 0.33795 0.67320 0.25143
 C905 C 0.34550 0.76316 0.33340
 C906 C 0.24081 0.83412 0.16518
 C907 C 0.15772 0.75311 0.18259
 C908 C 0.16925 0.84521 0.25921
 H909 H 0.19821 0.70341 0.21875
 H910 H 0.21061 0.81122 0.30977
 H911 H 0.30886 0.70935 0.30625
 H912 H 0.29741 0.80094 0.19844
 H913 H 0.29994 0.73323 0.15309
 H914 H 0.34599 0.75880 0.18590
 H915 H 0.15650 0.78501 0.32414
 H916 H 0.20158 0.74873 0.36173
 H917 H 0.25458 0.68916 0.16164
 H918 H 0.26722 0.64861 0.20645
 H919 H 0.24900 0.86240 0.31068
 H920 H 0.28097 0.82348 0.34983
 H921 H 0.19393 0.66100 0.28536
 H922 H 0.14968 0.69898 0.25747
 H923 H 0.35160 0.81868 0.26287
 H924 H 0.30788 0.85805 0.22243
 O925 O 0.75173 0.32652 0.30984
 O926 O 0.78719 0.33853 0.25512
 O927 O 0.64532 0.29970 0.26047
 O928 O 0.62231 0.25578 0.22348
 O929 O 0.69176 0.23385 0.35032
 O930 O 0.73814 0.18563 0.35137
 O931 O 0.72174 0.19701 0.15006
 O932 O 0.68245 0.25013 0.14953
 O933 O 0.82323 0.23112 0.18929
 O934 O 0.84393 0.26744 0.24557
 O935 O 0.77435 0.13741 0.23787
 O936 O 0.72195 0.12840 0.28090
 O937 O 0.72350 0.14808 0.18964
 O938 O 0.68198 0.13570 0.24304
 O939 O 0.82271 0.17739 0.23492
 O940 O 0.84459 0.22302 0.27867
 O941 O 0.77570 0.24215 0.14955
 O942 O 0.72908 0.28919 0.14740
 O943 O 0.74853 0.27832 0.35024
 O944 O 0.78396 0.22207 0.35163
 O945 O 0.64363 0.24343 0.31080
 O946 O 0.62603 0.20584 0.25695
 O947 O 0.69510 0.33811 0.26429
 O948 O 0.74273 0.34735 0.21944
 Zr949 Zr 0.74082 0.30303 0.25761
 O950 O 0.76813 0.27177 0.21685
 Zr951 Zr 0.66865 0.24600 0.25795
 O952 O 0.69322 0.21194 0.21709
 Zr953 Zr 0.73868 0.23225 0.31600
 O954 O 0.76626 0.19774 0.27796
 Zr955 Zr 0.72913 0.24349 0.18425
 O956 O 0.70140 0.27850 0.22221
 Zr957 Zr 0.79912 0.22987 0.24237
 O958 O 0.77525 0.26399 0.28366
 Zr959 Zr 0.72765 0.17234 0.24262
 O960 O 0.69951 0.20369 0.28374
 O961 O 0.70604 0.27315 0.29215
 O962 O 0.76227 0.20232 0.20763
 C963 C 0.75328 0.31267 0.34262
 C964 C 0.66019 0.33202 0.26333
 C965 C 0.65724 0.23851 0.34340
 C966 C 0.72135 0.16217 0.15701
 C967 C 0.81000 0.23664 0.15668
 C968 C 0.80901 0.14463 0.23480
 H969 H 0.78388 0.28838 0.20196
 H970 H 0.78102 0.17943 0.29194
 H971 H 0.69370 0.28923 0.31063
 H972 H 0.67391 0.20025 0.20162
 H973 H 0.66680 0.26956 0.16096
 H974 H 0.62672 0.24268 0.19981
 H975 H 0.83747 0.20449 0.29750
 H976 H 0.80444 0.23798 0.34287
 H977 H 0.74925 0.30610 0.15480
 H978 H 0.72264 0.34298 0.20132
 H979 H 0.74283 0.13003 0.29854
 H980 H 0.71691 0.17015 0.34361
 H981 H 0.80735 0.32598 0.26879
 H982 H 0.84072 0.28613 0.22582
 H983 H 0.63407 0.18525 0.27315
 H984 H 0.66353 0.14495 0.22507
 C985 C 0.27620 0.12241 0.10441
 C986 C 0.26866 0.11991 0.14240
 H987 H 0.29044 0.14686 0.09441
 H988 H 0.26446 0.09289 0.15476
 C989 C 0.75787 0.61271 0.61360
 C990 C 0.77755 0.64395 0.61390
 H991 H 0.73947 0.60663 0.63652
 H992 H 0.79308 0.65228 0.58964
 C993 C 0.73427 0.88761 0.12255
 C994 C 0.74338 0.85171 0.12131
 H995 H 0.72371 0.89962 0.14796
 H996 H 0.75093 0.83935 0.09498
 C997 C 0.25453 0.39882 0.63798
 C998 C 0.24452 0.36324 0.63911
 H999 H 0.26578 0.41197 0.66252
 H1000 H 0.23706 0.34925 0.61359
 C1001 C 0.73412 0.11828 0.87056
 C1002 C 0.74497 0.15387 0.87316
 H1003 H 0.72127 0.10925 0.84494
 H1004 H 0.75409 0.16531 0.89930
 C1005 C 0.26518 0.61416 0.37277
 C1006 C 0.25805 0.65035 0.37793
 H1007 H 0.27456 0.60446 0.34594
 H1008 H 0.25153 0.66056 0.40541
 C1009 C 0.23876 0.85814 0.89196
 C1010 C 0.22737 0.86072 0.85676
 H1011 H 0.25063 0.83243 0.90187
 H1012 H 0.21900 0.88749 0.84607
 C1013 C 0.77217 0.37221 0.36920
 C1014 C 0.75881 0.33805 0.37395
 H1015 H 0.78281 0.38034 0.34233
 H1016 H 0.75075 0.32874 0.40130
 C1017 C 0.11318 0.24263 0.12818
 C1018 C 0.14647 0.22661 0.12488
 H1019 H 0.10786 0.25848 0.15321
 H1020 H 0.15510 0.21356 0.09934
 C1021 C 0.62457 0.76213 0.63081
 C1022 C 0.65991 0.75395 0.62351
 H1023 H 0.61664 0.76969 0.65879
 H1024 H 0.66861 0.74921 0.59517
 C1025 C 0.11432 0.75410 0.87839
 C1026 C 0.11331 0.73708 0.84534
 H1027 H 0.13708 0.77308 0.88338
 H1028 H 0.08963 0.72103 0.83661
 C1029 C 0.59568 0.23948 0.37377
 C1030 C 0.63264 0.24065 0.37582
 H1031 H 0.58219 0.23337 0.34766
 H1032 H 0.64570 0.24397 0.40266
 C1033 C 0.89195 0.73246 0.13459
 C1034 C 0.85728 0.74545 0.13176
 H1035 H 0.89968 0.71736 0.15937
 H1036 H 0.84698 0.75551 0.10547
 C1037 C 0.37360 0.27958 0.63224
 C1038 C 0.37744 0.26777 0.66710
 H1039 H 0.34729 0.29110 0.62348
 H1040 H 0.40420 0.25921 0.67751
 C1041 C 0.86792 0.24440 0.89163
 C1042 C 0.86875 0.26131 0.85853
 H1043 H 0.84465 0.22646 0.89767
 H1044 H 0.89352 0.27504 0.84894
 C1045 C 0.37570 0.75652 0.39427
 C1046 C 0.37759 0.76556 0.35832
 H1047 H 0.35013 0.74568 0.40551
 H1048 H 0.40389 0.77328 0.34624
 C1049 C 0.11502 0.12314 0.25377
 C1050 C 0.15135 0.11862 0.24820
 H1051 H 0.10466 0.15033 0.26124
 H1052 H 0.16236 0.09114 0.24325
 C1053 C 0.62749 0.63220 0.74626
 C1054 C 0.66147 0.62778 0.73233
 H1055 H 0.62029 0.65841 0.75907
 H1056 H 0.67007 0.60089 0.72213
 C1057 C 0.88903 0.13286 0.74324
 C1058 C 0.85426 0.13119 0.75623
 H1059 H 0.89720 0.15712 0.72757
 H1060 H 0.84330 0.10596 0.76797
 C1061 C 0.36474 0.61174 0.26336
 C1062 C 0.36777 0.64567 0.24901
 H1063 H 0.33942 0.60402 0.27743
 H1064 H 0.39389 0.65478 0.23759
 C1065 C 0.12342 0.88615 0.75154
 C1066 C 0.12258 0.85561 0.73038
 H1067 H 0.14608 0.88872 0.77115
 H1068 H 0.09905 0.84910 0.71309
 C1069 C 0.60129 0.36604 0.25527
 C1070 C 0.63649 0.36497 0.26660
 H1071 H 0.58919 0.34188 0.24220
 H1072 H 0.64953 0.39010 0.27654
 C1073 C 0.86191 0.89463 0.23043
 C1074 C 0.85910 0.86323 0.25009
 H1075 H 0.84109 0.90020 0.20951
 H1076 H 0.88163 0.85417 0.26755
 C1077 C 0.38427 0.39060 0.77558
 C1078 C 0.34883 0.39263 0.76502
 H1079 H 0.39418 0.36538 0.78849
 H1080 H 0.33786 0.41836 0.75421
 C1081 C 0.12127 0.26341 0.89913
 C1082 C 0.12335 0.25132 0.86395
 H1083 H 0.14359 0.28050 0.90963
 H1084 H 0.09989 0.23808 0.85093
 C1085 C 0.63345 0.76346 0.39489
 C1086 C 0.62904 0.75461 0.35907
 H1087 H 0.65982 0.77380 0.40469
 H1088 H 0.60180 0.74712 0.34904
 C1089 C 0.88317 0.72622 0.88552
 C1090 C 0.88645 0.74313 0.85269
 H1091 H 0.85905 0.70892 0.88995
 H1092 H 0.91179 0.75700 0.84499
 C1093 C 0.36275 0.25594 0.39176
 C1094 C 0.36827 0.26297 0.35586
 H1095 H 0.33592 0.24610 0.40077
 H1096 H 0.39569 0.27007 0.34613
 C1097 C 0.12916 0.73720 0.12319
 C1098 C 0.12576 0.75110 0.15740
 H1099 H 0.15555 0.72578 0.11460
 H1100 H 0.09903 0.76006 0.16756
 C1101 C 0.60406 0.26758 0.63592
 C1102 C 0.63845 0.25409 0.63328
 H1103 H 0.59555 0.28225 0.66071
 H1104 H 0.64761 0.24241 0.60716
 C1105 C 0.87001 0.22358 0.12789
 C1106 C 0.83582 0.23746 0.12520
 H1107 H 0.87811 0.20931 0.15304
 H1108 H 0.82631 0.24932 0.09934
 C1109 C 0.36708 0.75724 0.61187
 C1110 C 0.36755 0.74729 0.64762
 H1111 H 0.34163 0.76713 0.59947
 H1112 H 0.39361 0.74039 0.66073
 C1113 C 0.25602 0.12182 0.87961
 C1114 C 0.24539 0.15690 0.88642
 H1115 H 0.26760 0.11517 0.85270
 H1116 H 0.23567 0.16498 0.91362
 C1117 C 0.73573 0.61414 0.36860
 C1118 C 0.74603 0.64950 0.37224
 H1119 H 0.72301 0.60496 0.34297
 H1120 H 0.75602 0.65974 0.39864
 C1121 C 0.73020 0.10193 0.12589
 C1122 C 0.71875 0.13722 0.12486
 H1123 H 0.74216 0.09102 0.15118
 H1124 H 0.70998 0.14924 0.09881
 C1125 C 0.24825 0.60084 0.62892
 C1126 C 0.25893 0.63624 0.62753
 H1127 H 0.23414 0.59046 0.65326
 H1128 H 0.26989 0.64730 0.60189
 C1129 C 0.76923 0.88393 0.86200
 C1130 C 0.76580 0.84698 0.86444
 H1131 H 0.77853 0.89632 0.83632
 H1132 H 0.75906 0.83459 0.89091
 C1133 C 0.26095 0.36455 0.38042
 C1134 C 0.24804 0.36698 0.34569
 H1135 H 0.27305 0.33860 0.38947
 H1136 H 0.23842 0.39332 0.33511
 C1137 C 0.25589 0.89119 0.13183
 C1138 C 0.23798 0.85896 0.13317
 H1139 H 0.27266 0.89960 0.15530
 H1140 H 0.22408 0.84853 0.10870
 C1141 C 0.77594 0.38440 0.61917
 C1142 C 0.75677 0.35287 0.62000
 H1143 H 0.79381 0.39168 0.64218
 H1144 H 0.74172 0.34384 0.59563
 C1145 C 0.11642 0.13915 0.76708
 C1146 C 0.15303 0.13670 0.76221
 H1147 H 0.10400 0.16518 0.77545
 H1148 H 0.16572 0.11001 0.75694
 C1149 C 0.60018 0.63545 0.26169
 C1150 C 0.63643 0.63236 0.25493
 H1151 H 0.58848 0.66183 0.26994
 H1152 H 0.64804 0.60512 0.24990
 C1153 C 0.11029 0.87409 0.24134
 C1154 C 0.14193 0.87551 0.26067
 H1155 H 0.10570 0.84973 0.22430
 H1156 H 0.15024 0.90059 0.27477
 C1157 C 0.61696 0.37994 0.73354
 C1158 C 0.65329 0.38244 0.73992
 H1159 H 0.60530 0.35344 0.72560
 H1160 H 0.66561 0.40927 0.74515
 C1161 C 0.87017 0.11844 0.22145
 C1162 C 0.83514 0.11329 0.23244
 H1163 H 0.87827 0.14526 0.21071
 H1164 H 0.82574 0.08608 0.24074
 C1165 C 0.38684 0.63601 0.74687
 C1166 C 0.35152 0.63027 0.75603
 H1167 H 0.39501 0.66281 0.73614
 H1168 H 0.34244 0.60272 0.76359
 C1169 C 0.88096 0.89237 0.74244
 C1170 C 0.88601 0.85738 0.75300
 H1171 H 0.85464 0.90065 0.73064
 H1172 H 0.91320 0.84809 0.76157
 C1173 C 0.39167 0.36430 0.25106
 C1174 C 0.35682 0.36641 0.23875
 H1175 H 0.40199 0.33866 0.26275
 H1176 H 0.34546 0.39282 0.23018
   
