data_POSCAR
  _audit_creation_date              2014-09-24
  _audit_creation_method            'ToBaCCo'
  _symmetry_space_group_name_H-M    'P1'
  _symmetry_Int_Tables_number       1
  _symmetry_cell_setting            triclinic
  loop_
  _symmetry_equiv_pos_as_xyz
 x,y,z
_cell_length_a 43.2669
_cell_length_b 43.1533
_cell_length_c 16.0125
_cell_angle_alpha 90.009700
_cell_angle_beta 90.120100
_cell_angle_gamma 120.365200
loop_
  _atom_site_label
  _atom_site_type_symbol
  _atom_site_fract_x
  _atom_site_fract_y
  _atom_site_fract_z
C1 C 0.35560 0.52264 0.46321
 C2 C 0.35436 0.51988 0.54834
 C3 C 0.32029 0.51201 0.57262
 N4 N 0.30066 0.50920 0.50396
 C5 C 0.32217 0.51575 0.43722
 C6 C 0.30565 0.50161 0.65428
 C7 C 0.26926 0.49030 0.67033
 C8 C 0.24960 0.47028 0.73868
 C9 C 0.21819 0.47087 0.73883
 C10 C 0.21928 0.49131 0.67062
 N11 N 0.25036 0.50265 0.62892
 C12 C 0.19526 0.50392 0.65502
 C13 C 0.19147 0.51474 0.57337
 C14 C 0.16640 0.52416 0.54919
 C15 C 0.16791 0.52694 0.46397
 C16 C 0.19328 0.51853 0.43784
 N17 N 0.20756 0.51104 0.50457
 C18 C 0.19943 0.51356 0.35348
 C19 C 0.22811 0.50886 0.32763
 C20 C 0.23041 0.49554 0.25048
 C21 C 0.26185 0.49484 0.25033
 C22 C 0.27801 0.50781 0.32733
 N23 N 0.25744 0.51664 0.37378
 C24 C 0.31091 0.51114 0.35294
 H25 H 0.37814 0.52753 0.42464
 H26 H 0.37570 0.52119 0.58606
 H27 H 0.26418 0.52951 0.43151
 H28 H 0.25713 0.45736 0.78575
 H29 H 0.19767 0.45842 0.78598
 H30 H 0.14710 0.52655 0.58709
 H31 H 0.15106 0.53300 0.42541
 H32 H 0.27127 0.48515 0.19975
 H33 H 0.26068 0.52265 0.58351
 H34 H 0.21115 0.48654 0.19992
 C35 C 0.50726 -0.33885 0.47846
 C36 C 0.50386 -0.33775 0.56320
 C37 C 0.48579 -0.31943 0.57807
 N38 N 0.48004 -0.30747 0.50470
 C39 C 0.49345 -0.31894 0.44323
 C40 C 0.47363 -0.31468 0.65719
 C41 C 0.46558 -0.28705 0.66919
 C42 C 0.44473 -0.28580 0.73342
 C43 C 0.44648 -0.25318 0.72770
 C44 C 0.46856 -0.23528 0.66062
 N45 N 0.47953 -0.25638 0.62425
 C46 C 0.48017 -0.19945 0.63735
 C47 C 0.49098 -0.18736 0.55477
 C48 C 0.50628 -0.15206 0.52802
 C49 C 0.50969 -0.15256 0.44287
 C50 C 0.49665 -0.18809 0.42056
 N51 N 0.48503 -0.20930 0.48892
 C52 C 0.49304 -0.20081 0.33785
 C53 C 0.48399 -0.23639 0.31861
 C54 C 0.47466 -0.25186 0.24004
 C55 C 0.47293 -0.28453 0.24543
 C56 C 0.48144 -0.28817 0.32737
 N57 N 0.48790 -0.25869 0.37130
 C58 C 0.48964 -0.31434 0.35623
 H59 H 0.51862 -0.35314 0.44848
 H60 H 0.51401 -0.34912 0.60813
 H61 H 0.49990 -0.25164 0.42991
 H62 H 0.42986 -0.30624 0.77979
 H63 H 0.43312 -0.24372 0.76865
 H64 H 0.51398 -0.12838 0.56551
 H65 H 0.52021 -0.12946 0.40204
 H66 H 0.46814 -0.30228 0.19315
 H67 H 0.49900 -0.24851 0.57801
 H68 H 0.47111 -0.24022 0.18361
 C69 C 1.17602 0.64702 0.55304
 C70 C 1.17594 0.64511 0.46764
 C71 C 1.19639 0.68007 0.43923
 N72 N 1.20887 0.70334 0.50414
 C73 C 1.19587 0.68318 0.57382
 C74 C 1.19986 0.69044 0.35484
 C75 C 1.22638 0.72498 0.32825
 C76 C 1.22578 0.74120 0.25409
 C77 C 1.25680 0.77414 0.25197
 C78 C 1.27557 0.77705 0.32491
 N79 N 1.25677 0.74692 0.37089
 C80 C 1.30946 0.80646 0.34715
 C81 C 1.32330 0.80986 0.42920
 C82 C 1.35940 0.82757 0.44979
 C83 C 1.36134 0.82772 0.53511
 C84 C 1.32635 0.80976 0.56412
 N85 N 1.30303 0.79838 0.49916
 C86 C 1.31629 0.80664 0.64915
 C87 C 1.28123 0.78044 0.67457
 C88 C 1.26351 0.78245 0.74466
 C89 C 1.23060 0.75152 0.74641
 C90 C 1.22879 0.73152 0.67677
 N91 N 1.25969 0.74946 0.63305
 C92 C 1.19921 0.69758 0.65506
 H93 H 1.16249 0.62442 0.59506
 H94 H 1.16208 0.62083 0.43061
 H95 H 1.26684 0.73999 0.58093
 H96 H 1.20495 0.73078 0.20700
 H97 H 1.26423 0.79380 0.20274
 H98 H 1.38201 0.83920 0.40758
 H99 H 1.38579 0.83952 0.57156
 H100 H 1.20999 0.74513 0.79250
 H101 H 1.26548 0.74043 0.42536
 H102 H 1.27267 0.80437 0.78872
 C103 C 0.82499 0.46950 0.54206
 C104 C 0.82558 0.47059 0.45653
 C105 C 0.80715 0.48772 0.43315
 N106 N 0.79538 0.49725 0.50113
 C107 C 0.80678 0.48664 0.56790
 C108 C 0.80424 0.49744 0.35074
 C109 C 0.77697 0.50437 0.32665
 C110 C 0.77544 0.51938 0.25132
 C111 C 0.74370 0.51958 0.25105
 C112 C 0.72690 0.50473 0.32629
 N113 N 0.74723 0.49535 0.37166
 C114 C 0.69275 0.49819 0.34977
 C115 C 0.67994 0.48901 0.43236
 C116 C 0.64425 0.47251 0.45515
 C117 C 0.64353 0.47101 0.54067
 C118 C 0.67890 0.48731 0.56742
 N119 N 0.70113 0.49781 0.50091
 C120 C 0.69054 0.49483 0.65182
 C121 C 0.72418 0.49965 0.67701
 C122 C 0.74129 0.51494 0.75201
 C123 C 0.77313 0.51513 0.75196
 C124 C 0.77483 0.49992 0.67696
 N125 N 0.74475 0.49040 0.63181
 C126 C 0.80372 0.49539 0.65153
 H127 H 0.83704 0.45792 0.58095
 H128 H 0.83821 0.46013 0.41614
 H129 H 0.73761 0.47631 0.57556
 H130 H 0.79500 0.52898 0.20157
 H131 H 0.73406 0.52936 0.20103
 H132 H 0.62117 0.46246 0.41435
 H133 H 0.61966 0.45946 0.57889
 H134 H 0.79312 0.52628 0.80090
 H135 H 0.73955 0.48035 0.42647
 H136 H 0.73245 0.52596 0.80091
 C137 C 0.52181 0.35255 0.55564
 C138 C 0.52325 0.35446 0.47027
 C139 C 0.51100 0.31988 0.44174
 N140 N 0.50177 0.29677 0.50659
 C141 C 0.50784 0.31665 0.57648
 C142 C 0.50551 0.30958 0.35705
 C143 C 0.50188 0.27674 0.33007
 C144 C 0.48746 0.25991 0.25444
 C145 C 0.49030 0.22951 0.25232
 C146 C 0.50621 0.22863 0.32690
 N147 N 0.51341 0.25764 0.37353
 C148 C 0.51479 0.20222 0.34934
 C149 C 0.52523 0.19917 0.43109
 C150 C 0.54162 0.17984 0.45275
 C151 C 0.54191 0.17880 0.53832
 C152 C 0.52580 0.19777 0.56637
 N153 N 0.51578 0.21021 0.50033
 C154 C 0.51431 0.19781 0.64915
 C155 C 0.50300 0.22210 0.67529
 C156 C 0.48808 0.22180 0.75232
 C157 C 0.48386 0.25126 0.75478
 C158 C 0.49711 0.26958 0.68021
 N159 N 0.50899 0.25179 0.63264
 C160 C 0.49899 0.30239 0.65860
 H161 H 0.53007 0.37508 0.59759
 H162 H 0.53245 0.37857 0.43336
 H163 H 0.52372 0.26147 0.57793
 H164 H 0.47580 0.26836 0.20612
 H165 H 0.48156 0.21025 0.20171
 H166 H 0.55132 0.16686 0.41116
 H167 H 0.55174 0.16448 0.57480
 H168 H 0.47258 0.25836 0.80649
 H169 H 0.52821 0.26571 0.42873
 H170 H 0.48166 0.20314 0.80328
 C171 C 0.64535 0.16897 0.47341
 C172 C 0.64716 0.17075 0.55890
 C173 C 0.68189 0.19692 0.57913
 N174 N 0.70139 0.21107 0.50914
 C175 C 0.67916 0.19387 0.44436
 C176 C 0.69645 0.20398 0.66028
 C177 C 0.73045 0.23348 0.67938
 C178 C 0.75008 0.23645 0.75038
 C179 C 0.78066 0.26969 0.74724
 C180 C 0.77842 0.28650 0.67531
 N181 N 0.74784 0.26395 0.63389
 C182 C 0.80394 0.32168 0.64825
 C183 C 0.80682 0.33098 0.56264
 C184 C 0.82616 0.36563 0.53088
 C185 C 0.82589 0.36243 0.44578
 C186 C 0.80607 0.32606 0.42822
 N187 N 0.79418 0.30683 0.49949
 C188 C 0.80239 0.31089 0.34823
 C189 C 0.77443 0.27608 0.32805
 C190 C 0.77245 0.25747 0.25579
 C191 C 0.74051 0.22538 0.25890
 C192 C 0.72389 0.22541 0.33291
 N193 N 0.74466 0.25651 0.37436
 C194 C 0.69012 0.19751 0.36021
 H195 H 0.62206 0.15069 0.43697
 H196 H 0.62563 0.15403 0.60124
 H197 H 0.73752 0.26527 0.42761
 H198 H 0.74334 0.21653 0.79875
 H199 H 0.80231 0.27972 0.79217
 H200 H 0.83943 0.39069 0.56520
 H201 H 0.83908 0.38433 0.40178
 H202 H 0.73095 0.20432 0.21236
 H203 H 0.73786 0.27027 0.58132
 H204 H 0.79201 0.26602 0.20616
 O205 O 0.95233 0.42496 0.15428
 O206 O 0.91280 0.43299 0.07451
 C207 C 0.92009 0.41707 0.13332
 O208 O 1.05350 0.58546 0.14560
 O209 O 1.09260 0.57553 0.06952
 C210 C 1.08556 0.59321 0.12448
 O211 O 0.95298 0.53121 0.15583
 O212 O 0.91306 0.48379 0.07486
 C213 C 0.92063 0.50679 0.13463
 O214 O 1.05312 0.47229 0.14404
 O215 O 1.09256 0.52197 0.06858
 C216 C 1.08530 0.49691 0.12299
 Zr217 Zr 1.00268 0.46421 0.10524
 O218 O 1.00721 0.46556 0.23703
 O219 O 0.99803 0.41296 0.10230
 Zr220 Zr 1.00306 0.54295 0.10558
 O221 O 1.00780 0.54678 0.23726
 O222 O 0.99888 0.58975 0.10150
 O223 O 0.97125 0.48765 0.12259
 O224 O 1.03396 0.51919 0.12022
 O225 O 1.05140 0.47174 -0.14736
 O226 O 1.09154 0.52189 -0.07390
 C227 C 1.08368 0.49683 -0.12882
 O228 O 0.95165 0.53015 -0.15406
 O229 O 0.91232 0.48334 -0.07133
 C230 C 0.91946 0.50584 -0.13196
 O231 O 1.05212 0.58426 -0.14816
 O232 O 1.09188 0.57519 -0.07234
 C233 C 1.08441 0.59217 -0.12812
 O234 O 0.95117 0.42435 -0.15214
 O235 O 0.91222 0.43244 -0.07065
 C236 C 0.91917 0.41633 -0.12978
 Zr237 Zr 1.00168 0.46383 -0.10492
 O238 O 1.00490 0.46439 -0.23686
 O239 O 0.99715 0.41265 -0.10133
 Zr240 Zr 1.00206 0.54266 -0.10435
 O241 O 1.00498 0.54725 -0.23595
 O242 O 0.99799 0.58947 -0.09672
 Zr243 Zr 0.94920 0.47665 0.00124
 Zr244 Zr 1.05593 0.53035 -0.00080
 O245 O 1.03266 0.51874 -0.12082
 O246 O 0.97015 0.48727 -0.12083
 O247 O 1.03439 0.47421 -0.00058
 O248 O 0.97115 0.53265 0.00117
 O249 O 0.97086 0.44265 0.00077
 O250 O 1.03488 0.56506 -0.00007
 H251 H 1.05018 0.52727 0.16930
 H252 H 0.95448 0.54207 0.00135
 H253 H 1.04805 0.52649 -0.17113
 H254 H 0.95425 0.41633 0.00114
 H255 H 1.02015 0.60846 0.07162
 H256 H 1.02088 0.60899 -0.07394
 H257 H 0.99048 0.52271 -0.25881
 H258 H 0.98593 0.46855 -0.25887
 H259 H 1.01865 0.41540 -0.07256
 H260 H 1.01894 0.41538 0.07152
 H261 H 0.98820 0.46946 0.25979
 H262 H 0.99014 0.52304 0.26012
 O263 O 0.41827 0.46985 0.15303
 O264 O 0.42620 0.51675 0.07024
 C265 C 0.41026 0.49377 0.12999
 O266 O 0.57786 0.52936 0.14559
 O267 O 0.56769 0.47916 0.07304
 C268 C 0.58519 0.50440 0.12737
 O269 O 0.52588 0.57713 0.14850
 O270 O 0.47819 0.56845 0.06798
 C271 C 0.50156 0.58482 0.12686
 O272 O 0.46515 0.41688 0.15087
 O273 O 0.51396 0.42552 0.07549
 C274 C 0.48919 0.40863 0.13095
 Zr275 Zr 0.45755 0.45888 0.10684
 O276 O 0.45973 0.45839 0.23891
 O277 O 0.40635 0.41180 0.10768
 Zr278 Zr 0.53644 0.53766 0.10080
 O279 O 0.54191 0.54070 0.23229
 O280 O 0.58358 0.58849 0.08895
 O281 O 0.48134 0.51445 0.11895
 O282 O 0.51233 0.48292 0.12096
 O283 O 0.46401 0.41334 -0.14193
 O284 O 0.51348 0.42380 -0.06625
 C285 C 0.48861 0.40595 -0.12118
 O286 O 0.52051 0.56821 -0.16953
 O287 O 0.47628 0.56522 -0.08514
 C288 C 0.49688 0.57701 -0.15038
 O289 O 0.57549 0.52459 -0.15065
 O290 O 0.56711 0.47723 -0.06934
 C291 C 0.58352 0.50064 -0.12797
 O292 O 0.41670 0.46552 -0.15304
 O293 O 0.42586 0.51485 -0.07807
 C294 C 0.40966 0.49066 -0.13542
 Zr295 Zr 0.45603 0.45551 -0.10227
 O296 O 0.45511 0.45030 -0.23383
 O297 O 0.40509 0.40835 -0.09281
 Zr298 Zr 0.53503 0.53437 -0.10767
 O299 O 0.54183 0.53676 -0.23855
 O300 O 0.58152 0.58591 -0.09946
 Zr301 Zr 0.46967 0.52362 -0.00347
 Zr302 Zr 0.52271 0.46964 0.00173
 O303 O 0.51066 0.47925 -0.11947
 O304 O 0.47979 0.51034 -0.12318
 O305 O 0.46669 0.43492 0.00424
 O306 O 0.52561 0.55769 -0.00584
 O307 O 0.43566 0.46751 0.00100
 O308 O 0.55785 0.52574 -0.00234
 H309 H 0.52020 0.47553 0.17151
 H310 H 0.53482 0.58387 -0.00895
 H311 H 0.51801 0.47069 -0.16880
 H312 H 0.40940 0.45757 0.00114
 H313 H 0.60253 0.58454 0.06600
 H314 H 0.60172 0.58255 -0.08327
 H315 H 0.51939 0.51693 -0.26212
 H316 H 0.46140 0.47389 -0.25784
 H317 H 0.40853 0.38949 -0.06688
 H318 H 0.40833 0.39287 0.07752
 H319 H 0.46331 0.48164 0.25914
 H320 H 0.51774 0.53180 0.25566
 O321 O 0.47999 0.05219 0.15672
 O322 O 0.52745 0.09162 0.07587
 C323 C 0.50470 0.08444 0.13567
 O324 O 0.53533 -0.05130 0.13846
 O325 O 0.48482 -0.08986 0.06423
 C326 C 0.50976 -0.08327 0.11843
 O327 O 0.58522 0.04905 0.14929
 O328 O 0.57761 0.08968 0.07300
 C329 C 0.59363 0.08157 0.13006
 O330 O 0.42493 -0.04833 0.14801
 O331 O 0.43241 -0.08853 0.06930
 C332 C 0.41623 -0.08078 0.12664
 Zr333 Zr 0.46746 0.00154 0.10680
 O334 O 0.46633 -0.00253 0.23873
 O335 O 0.42006 0.00429 0.10425
 Zr336 Zr 0.54475 -0.00034 0.09908
 O337 O 0.54606 -0.00482 0.23046
 O338 O 0.59491 0.00250 0.08850
 O339 O 0.52286 0.03237 0.12072
 O340 O 0.49007 -0.03049 0.11740
 O341 O 0.42121 -0.04695 -0.14321
 O342 O 0.43068 -0.08782 -0.07281
 C343 C 0.41295 -0.07958 -0.12501
 O344 O 0.58129 0.05103 -0.16108
 O345 O 0.57593 0.09060 -0.07540
 C346 C 0.59034 0.08330 -0.13752
 O347 O 0.53186 -0.04904 -0.15784
 O348 O 0.48367 -0.08887 -0.07915
 C349 C 0.50742 -0.08130 -0.13712
 O350 O 0.47656 0.05414 -0.14604
 O351 O 0.52624 0.09247 -0.06876
 C352 C 0.50211 0.08609 -0.12473
 Zr353 Zr 0.46501 0.00271 -0.10284
 O354 O 0.46127 -0.00040 -0.23478
 O355 O 0.41829 0.00669 -0.09651
 Zr356 Zr 0.54240 0.00104 -0.11040
 O357 O 0.54203 -0.00151 -0.24228
 O358 O 0.59270 0.00385 -0.10681
 Zr359 Zr 0.53272 0.05480 0.00003
 Zr360 Zr 0.47685 -0.05258 -0.00361
 O361 O 0.48731 -0.02909 -0.12316
 O362 O 0.52004 0.03380 -0.12225
 O363 O 0.44354 -0.03008 0.00164
 O364 O 0.56553 0.03185 -0.00513
 O365 O 0.47701 0.03367 0.00363
 O366 O 0.53259 -0.03226 -0.00743
 H367 H 0.48234 -0.04647 0.16680
 H368 H 0.59185 0.04811 -0.00645
 H369 H 0.47835 -0.04457 -0.17344
 H370 H 0.46760 0.05035 0.00594
 H371 H 0.59079 -0.01969 0.06033
 H372 H 0.58875 -0.01937 -0.08533
 H373 H 0.53141 0.01269 -0.26261
 H374 H 0.48335 0.02021 -0.25742
 H375 H 0.40319 -0.00960 -0.05145
 H376 H 0.41340 0.00448 0.16334
 H377 H 0.48940 0.01720 0.26024
 H378 H 0.53887 0.01163 0.25481
 C379 C 1.17102 0.50809 0.29277
 C380 C 1.17762 0.52636 0.22099
 C381 C 1.14880 0.52408 0.16622
 C382 C 1.11493 0.49644 0.16735
 H383 H 1.20501 0.54595 0.20507
 H384 H 1.15584 0.54664 0.12521
 H385 H 1.14370 0.49098 0.31317
 H386 H 1.10781 0.47322 0.20584
 C387 C 0.49217 0.66302 0.29613
 C388 C 0.52045 0.65824 0.29054
 C389 C 0.52320 0.63273 0.23327
 C390 C 0.49931 0.61310 0.17371
 H391 H 0.54339 0.67373 0.33072
 H392 H 0.54607 0.62936 0.24356
 H393 H 0.47176 0.65173 0.24838
 H394 H 0.47672 0.61648 0.16025
 C395 C 0.32970 -0.16750 0.28559
 C396 C 0.35170 -0.13272 0.30451
 C397 C 0.37457 -0.10470 0.24425
 C398 C 0.38749 -0.11078 0.17397
 H399 H 0.35237 -0.12336 0.36761
 H400 H 0.38432 -0.07733 0.26455
 H401 H 0.32531 -0.17514 0.22034
 H402 H 0.37971 -0.13791 0.15552
 C403 C 0.83118 0.50139 0.28789
 C404 C 0.86633 0.52066 0.30512
 C405 C 0.89520 0.52500 0.24876
 C406 C 0.89030 0.50409 0.18233
 H407 H 0.87482 0.53436 0.36475
 H408 H 0.92216 0.54503 0.26717
 H409 H 0.82179 0.48990 0.22658
 H410 H 0.86373 0.48300 0.16481
 C411 C 0.50019 0.33317 0.29837
 C412 C 0.51576 0.34282 0.22316
 C413 C 0.51379 0.36981 0.16962
 C414 C 0.48836 0.37873 0.17716
 H415 H 0.53305 0.33291 0.20271
 H416 H 0.53459 0.38306 0.12315
 H417 H 0.48579 0.34564 0.32267
 H418 H 0.46653 0.36463 0.22066
 C419 C 0.66660 0.16814 0.30206
 C420 C 0.65732 0.17417 0.22653
 C421 C 0.63109 0.14511 0.17168
 C422 C 0.62283 0.11075 0.17812
 H423 H 0.66725 0.20157 0.20646
 H424 H 0.61790 0.15258 0.12500
 H425 H 0.65436 0.14107 0.32606
 H426 H 0.63689 0.10316 0.22197
 C427 C 0.51237 0.17131 -0.29600
 C428 C 0.48174 0.14738 -0.25841
 C429 C 0.47808 0.11615 -0.21202
 C430 C 0.50490 0.11757 -0.16728
 H431 H 0.45743 0.14813 -0.26987
 H432 H 0.45219 0.09170 -0.21316
 H433 H 0.53416 0.16581 -0.29579
 H434 H 0.52986 0.14283 -0.16072
 C435 C 0.66898 0.49878 -0.28725
 C436 C 0.64835 0.51297 -0.30524
 C437 C 0.62526 0.51777 -0.24538
 C438 C 0.61162 0.49850 -0.17541
 H439 H 0.64949 0.52375 -0.36695
 H440 H 0.61650 0.53610 -0.26530
 H441 H 0.67171 0.49342 -0.22245
 H442 H 0.61851 0.47863 -0.15686
 C443 C 0.82989 0.34737 -0.29673
 C444 C 0.82564 0.34936 -0.21421
 C445 C 0.85487 0.37635 -0.16117
 C446 C 0.88935 0.38742 -0.17669
 H447 H 0.79972 0.33292 -0.18546
 H448 H 0.84763 0.38662 -0.10757
 H449 H 0.85461 0.36831 -0.32374
 H450 H 0.89630 0.37530 -0.22707
 C451 C 0.47913 -0.17387 -0.30169
 C452 C 0.48702 -0.17282 -0.22023
 C453 C 0.48842 -0.14490 -0.16459
 C454 C 0.50613 -0.11039 -0.18731
 H455 H 0.49254 -0.19251 -0.19324
 H456 H 0.47644 -0.15262 -0.10324
 H457 H 0.47335 -0.15386 -0.32566
 H458 H 0.52065 -0.10292 -0.24588
 C459 C 0.32646 0.49975 -0.27995
 C460 C 0.35990 0.52621 -0.26329
 C461 C 0.38268 0.52296 -0.19961
 C462 C 0.38214 0.49206 -0.18622
 H463 H 0.37103 0.55154 -0.29630
 H464 H 0.40340 0.54754 -0.17120
 H465 H 0.31421 0.47787 -0.23579
 H466 H 0.36371 0.46816 -0.22090
 C467 C 1.17251 0.67834 -0.28402
 C468 C 1.13768 0.65748 -0.30376
 C469 C 1.10920 0.63493 -0.24412
 C470 C 1.11463 0.62084 -0.17495
 H471 H 1.12880 0.65734 -0.36712
 H472 H 1.08208 0.62622 -0.26417
 H473 H 1.17988 0.68272 -0.21858
 H474 H 1.14147 0.62751 -0.15723
 C475 C 0.83043 0.50092 -0.28912
 C476 C 0.86510 0.51497 -0.30993
 C477 C 0.89398 0.52092 -0.25154
 C478 C 0.88895 0.50255 -0.18054
 H479 H 0.87375 0.52457 -0.37289
 H480 H 0.92099 0.53918 -0.27282
 H481 H 0.82342 0.49673 -0.22364
 H482 H 0.86221 0.48269 -0.16087
 C483 C 0.49188 0.32115 -0.27873
 C484 C 0.47515 0.33955 -0.29535
 C485 C 0.46941 0.36180 -0.23462
 C486 C 0.48999 0.37705 -0.16706
 H487 H 0.46416 0.33801 -0.35708
 H488 H 0.44999 0.36934 -0.25293
 H489 H 0.49753 0.31839 -0.21420
 H490 H 0.51087 0.37133 -0.15057
 C491 C 0.67688 0.17674 -0.27478
 C492 C 0.65088 0.17703 -0.23044
 C493 C 0.62637 0.14735 -0.17508
 C494 C 0.61834 0.11323 -0.18614
 H495 H 0.64668 0.19965 -0.23632
 H496 H 0.61205 0.15349 -0.12874
 H497 H 0.68293 0.15543 -0.26772
 H498 H 0.63072 0.10642 -0.23595
 C499 C 1.17327 0.50300 -0.27869
 C500 C 1.16772 0.53023 -0.26139
 C501 C 1.14257 0.52821 -0.19647
 C502 C 1.11265 0.49743 -0.17762
 H503 H 1.18252 0.55537 -0.29488
 H504 H 1.14643 0.55337 -0.17220
 H505 H 1.16320 0.48117 -0.23439
 H506 H 1.10688 0.47271 -0.20839
 C507 C 0.47111 0.66435 -0.27187
 C508 C 0.46569 0.63102 -0.27541
 C509 C 0.47160 0.61390 -0.20256
 C510 C 0.49167 0.59881 -0.21293
 H511 H 0.45940 0.61657 -0.33400
 H512 H 0.46049 0.61420 -0.14225
 H513 H 0.47363 0.67589 -0.21027
 H514 H 0.50408 0.60121 -0.27325
 C515 C 0.34143 -0.16741 -0.29455
 C516 C 0.34285 -0.17203 -0.21186
 C517 C 0.37053 -0.14359 -0.15804
 C518 C 0.38244 -0.10860 -0.17076
 H519 H 0.32591 -0.19808 -0.18384
 H520 H 0.38092 -0.15189 -0.10650
 H521 H 0.36267 -0.14260 -0.32073
 H522 H 0.37023 -0.10068 -0.21904
 C523 C 0.50049 -0.17500 0.26911
 C524 C 0.47396 -0.17490 0.22600
 C525 C 0.47903 -0.14625 0.16686
 C526 C 0.50840 -0.11341 0.16494
 H527 H 0.44669 -0.19635 0.23656
 H528 H 0.45596 -0.15155 0.12947
 H529 H 0.52809 -0.15435 0.26002
 H530 H 0.53088 -0.10688 0.20550
 C531 C 0.33292 0.50432 0.29261
 C532 C 0.34580 0.52259 0.22114
 C533 C 0.37238 0.51975 0.16775
 C534 C 0.38104 0.49408 0.17629
 H535 H 0.33875 0.54251 0.20390
 H536 H 0.38595 0.54043 0.12103
 H537 H 0.34168 0.48631 0.31409
 H538 H 0.36710 0.47248 0.22041
 C539 C 1.17139 0.66541 0.29648
 C540 C 1.17800 0.65728 0.22024
 C541 C 1.14925 0.63038 0.16567
 C542 C 1.11531 0.62328 0.16939
 H543 H 1.20544 0.66861 0.19966
 H544 H 1.15642 0.61584 0.12212
 H545 H 1.14435 0.65120 0.32066
 H546 H 1.10843 0.63889 0.21020
 C547 C 0.51048 0.17516 0.28603
 C548 C 0.49033 0.13995 0.30255
 C549 C 0.48599 0.11074 0.24689
 C550 C 0.50772 0.11516 0.18284
 H551 H 0.47607 0.13167 0.36138
 H552 H 0.46522 0.08390 0.26406
 H553 H 0.52258 0.18452 0.22538
 H554 H 0.52938 0.14161 0.16648
 C555 C 0.66975 0.50127 0.28515
 C556 C 0.65441 0.52113 0.29874
 C557 C 0.62988 0.52468 0.24033
 C558 C 0.61389 0.50318 0.17446
 H559 H 0.65992 0.53583 0.35698
 H560 H 0.62268 0.54452 0.25721
 H561 H 0.66727 0.48862 0.22528
 H562 H 0.61951 0.48217 0.15845
 C563 C 0.82954 0.33206 0.28365
 C564 C 0.86462 0.34725 0.30067
 C565 C 0.89378 0.37155 0.24419
 C566 C 0.88948 0.38889 0.17994
 H567 H 0.87276 0.34217 0.36075
 H568 H 0.92049 0.37762 0.26150
 H569 H 0.82030 0.33386 0.22200
 H570 H 0.86316 0.38419 0.16376
   
