data_POSCAR
  _audit_creation_date              2014-09-24
  _audit_creation_method            'ToBaCCo'
  _symmetry_space_group_name_H-M    'P1'
  _symmetry_Int_Tables_number       1
  _symmetry_cell_setting            triclinic
  loop_
  _symmetry_equiv_pos_as_xyz
 x,y,z
_cell_length_a 59.1682
_cell_length_b 59.7165
_cell_length_c 20.6507
_cell_angle_alpha 89.115600
_cell_angle_beta 90.545600
_cell_angle_gamma 120.078500
loop_
  _atom_site_label
  _atom_site_type_symbol
  _atom_site_fract_x
  _atom_site_fract_y
  _atom_site_fract_z
C1 C 0.23436 0.46071 0.54519
 C2 C 0.23327 0.46099 0.47923
 C3 C 0.21130 0.46122 0.44373
 C4 C 0.25458 0.46238 0.43859
 C5 C 0.25486 0.45809 0.58124
 C6 C 0.21551 0.46389 0.58545
 C7 C 0.18534 0.44240 0.45691
 C8 C 0.16450 0.44153 0.42268
 C9 C 0.16846 0.46043 0.36750
 C10 C 0.19762 0.48015 0.35725
 C11 C 0.21705 0.47972 0.39465
 C12 C 0.24846 0.44526 0.38694
 C13 C 0.26789 0.44800 0.34428
 C14 C 0.29384 0.46786 0.35243
 C15 C 0.30000 0.48500 0.40437
 C16 C 0.28052 0.48229 0.44692
 C17 C 0.26865 0.47535 0.63128
 C18 C 0.28675 0.47234 0.66861
 C19 C 0.29132 0.45179 0.65713
 C20 C 0.27800 0.43486 0.60609
 C21 C 0.25970 0.43779 0.56887
 C22 C 0.21328 0.48616 0.57939
 C23 C 0.19688 0.48984 0.62075
 C24 C 0.18255 0.47134 0.66916
 C25 C 0.18448 0.44890 0.67422
 C26 C 0.20102 0.44533 0.63322
 H27 H 0.18113 0.42784 0.49405
 H28 H 0.14483 0.42658 0.43494
 H29 H 0.20348 0.49497 0.32006
 H30 H 0.23719 0.49420 0.38484
 H31 H 0.22851 0.42999 0.37911
 H32 H 0.26258 0.43468 0.30441
 H33 H 0.28554 0.49624 0.48513
 H34 H 0.26540 0.49126 0.64145
 H35 H 0.29736 0.48637 0.70585
 H36 H 0.28137 0.41903 0.59588
 H37 H 0.24903 0.42399 0.53119
 H38 H 0.22454 0.50083 0.54324
 H39 H 0.19532 0.50703 0.61430
 H40 H 0.17349 0.43428 0.71073
 H41 H 0.20261 0.42810 0.63882
 H42 H 0.31958 0.50108 0.41106
 C43 C 0.55595 -0.22771 0.53104
 C44 C 0.55945 -0.22298 0.46612
 C45 C 0.56208 -0.24136 0.42376
 C46 C 0.55665 -0.20204 0.43435
 C47 C 0.55435 -0.20938 0.57636
 C48 C 0.54960 -0.25346 0.55703
 C49 C 0.58313 -0.24572 0.43187
 C50 C 0.58337 -0.26603 0.39985
 C51 C 0.56270 -0.28221 0.35873
 C52 C 0.54205 -0.27715 0.34896
 C53 C 0.54188 -0.25677 0.38090
 C54 C 0.57605 -0.18416 0.39249
 C55 C 0.57338 -0.16433 0.36301
 C56 C 0.55099 -0.16237 0.37432
 C57 C 0.53154 -0.18052 0.41569
 C58 C 0.53419 -0.20028 0.44487
 C59 C 0.53385 -0.21847 0.62127
 C60 C 0.53104 -0.20126 0.66070
 C61 C 0.54861 -0.17448 0.65582
 C62 C 0.56991 -0.16551 0.61347
 C63 C 0.57281 -0.18279 0.57419
 C64 C 0.52446 -0.27457 0.54780
 C65 C 0.51801 -0.29901 0.57159
 C66 C 0.53679 -0.30306 0.60347
 C67 C 0.56225 -0.28177 0.61165
 C68 C 0.56844 -0.25710 0.58928
 H69 H 0.59886 -0.23399 0.46497
 H70 H 0.59945 -0.26952 0.40844
 H71 H 0.52536 -0.28948 0.31925
 H72 H 0.52529 -0.25392 0.37493
 H73 H 0.59345 -0.18531 0.38358
 H74 H 0.58905 -0.15044 0.33252
 H75 H 0.51870 -0.21425 0.47583
 H76 H 0.51952 -0.23886 0.62492
 H77 H 0.51507 -0.20913 0.69485
 H78 H 0.58401 -0.14503 0.60968
 H79 H 0.58920 -0.17535 0.54123
 H80 H 0.50975 -0.27198 0.52268
 H81 H 0.49825 -0.31486 0.56463
 H82 H 0.57723 -0.28368 0.63722
 H83 H 0.58795 -0.24089 0.59658
 H84 H 0.51408 -0.17952 0.42513
 C85 C 1.21365 0.77583 0.52159
 C86 C 1.21220 0.77127 0.45663
 C87 C 1.23187 0.79020 0.41023
 C88 C 1.19218 0.74597 0.43018
 C89 C 1.19296 0.75738 0.56691
 C90 C 1.23731 0.79768 0.55115
 C91 C 1.23904 0.81645 0.41045
 C92 C 1.25903 0.83429 0.37007
 C93 C 1.27204 0.82630 0.32761
 C94 C 1.26407 0.79969 0.32618
 C95 C 1.24422 0.78197 0.36682
 C96 C 1.17427 0.74476 0.38350
 C97 C 1.15462 0.72081 0.36102
 C98 C 1.15280 0.69770 0.38457
 C99 C 1.17141 0.69911 0.42944
 C100 C 1.19090 0.72300 0.45216
 C101 C 1.19994 0.74857 0.62276
 C102 C 1.18078 0.72952 0.66245
 C103 C 1.15416 0.71833 0.64650
 C104 C 1.14712 0.72817 0.59226
 C105 C 1.16634 0.74778 0.55363
 C106 C 1.26210 0.80095 0.53937
 C107 C 1.28418 0.82075 0.56925
 C108 C 1.28201 0.83736 0.61315
 C109 C 1.25700 0.83395 0.62503
 C110 C 1.23493 0.81424 0.59442
 H111 H 1.22948 0.82321 0.44278
 H112 H 1.26445 0.85450 0.37256
 H113 H 1.27344 0.79219 0.29588
 H114 H 1.23910 0.76184 0.36591
 H115 H 1.17525 0.76235 0.36538
 H116 H 1.14124 0.72055 0.32462
 H117 H 1.20488 0.72362 0.48737
 H118 H 1.22030 0.75582 0.63463
 H119 H 1.18693 0.72277 0.70437
 H120 H 1.12693 0.72117 0.57955
 H121 H 1.16044 0.75503 0.51232
 H122 H 1.26434 0.78795 0.50758
 H123 H 1.30300 0.82267 0.55890
 H124 H 1.25411 0.84637 0.65722
 H125 H 1.21591 0.81186 0.60449
 H126 H 1.17068 0.68163 0.44753
 C127 C 0.78193 0.55228 0.55960
 C128 C 0.78150 0.55212 0.49365
 C129 C 0.80262 0.55145 0.45673
 C130 C 0.75909 0.54951 0.45525
 C131 C 0.76082 0.55159 0.59975
 C132 C 0.80342 0.55133 0.59426
 C133 C 0.82839 0.57224 0.45830
 C134 C 0.84850 0.57017 0.42907
 C135 C 0.84316 0.54746 0.39692
 C136 C 0.81719 0.52681 0.39467
 C137 C 0.79714 0.52890 0.42390
 C138 C 0.76351 0.56709 0.40451
 C139 C 0.74305 0.56363 0.36390
 C140 C 0.71790 0.54227 0.37251
 C141 C 0.71334 0.52492 0.42434
 C142 C 0.73384 0.52844 0.46508
 C143 C 0.74997 0.53335 0.65031
 C144 C 0.73049 0.53246 0.68956
 C145 C 0.72123 0.54985 0.67972
 C146 C 0.73231 0.56837 0.62907
 C147 C 0.75193 0.56922 0.58969
 C148 C 0.80464 0.52853 0.59456
 C149 C 0.82677 0.52853 0.61821
 C150 C 0.84828 0.55139 0.64149
 C151 C 0.84643 0.57407 0.64338
 C152 C 0.82406 0.57390 0.62029
 H153 H 0.83297 0.58982 0.48334
 H154 H 0.86830 0.58631 0.43179
 H155 H 0.81228 0.50868 0.37228
 H156 H 0.77743 0.51253 0.42300
 H157 H 0.78291 0.58335 0.39593
 H158 H 0.74701 0.57736 0.32468
 H159 H 0.73013 0.51443 0.50340
 H160 H 0.75644 0.51953 0.65925
 H161 H 0.72259 0.51797 0.72791
 H162 H 0.72632 0.58247 0.61954
 H163 H 0.76037 0.58382 0.55177
 H164 H 0.78880 0.51097 0.57434
 H165 H 0.82731 0.51067 0.61645
 H166 H 0.86202 0.59212 0.66160
 H167 H 0.82332 0.59166 0.62000
 H168 H 0.69407 0.50865 0.43366
 C169 C 0.44870 0.22102 0.52585
 C170 C 0.45164 0.22046 0.46057
 C171 C 0.45501 0.24212 0.41750
 C172 C 0.45447 0.19961 0.43054
 C173 C 0.44566 0.19965 0.56980
 C174 C 0.45162 0.24448 0.55734
 C175 C 0.43634 0.25009 0.41569
 C176 C 0.44118 0.27232 0.38063
 C177 C 0.46481 0.28692 0.34678
 C178 C 0.48304 0.27841 0.34717
 C179 C 0.47807 0.25608 0.38157
 C180 C 0.43692 0.18445 0.38239
 C181 C 0.43837 0.16409 0.35477
 C182 C 0.45903 0.15754 0.37491
 C183 C 0.47727 0.17528 0.42523
 C184 C 0.47465 0.19529 0.45052
 C185 C 0.46263 0.20537 0.62269
 C186 C 0.46127 0.18567 0.66261
 C187 C 0.44266 0.15948 0.65086
 C188 C 0.42535 0.15392 0.59831
 C189 C 0.42666 0.17377 0.55865
 C190 C 0.47478 0.26826 0.55022
 C191 C 0.47800 0.29019 0.58157
 C192 C 0.45819 0.28869 0.62216
 C193 C 0.43500 0.26466 0.62902
 C194 C 0.43182 0.24277 0.59726
 H195 H 0.41840 0.23954 0.44305
 H196 H 0.42691 0.27857 0.38237
 H197 H 0.50141 0.28935 0.32169
 H198 H 0.49277 0.25034 0.38254
 H199 H 0.42154 0.18815 0.36687
 H200 H 0.42418 0.15264 0.31823
 H201 H 0.48848 0.20753 0.48689
 H202 H 0.47758 0.22517 0.63206
 H203 H 0.47562 0.19141 0.70078
 H204 H 0.41077 0.13411 0.58757
 H205 H 0.41306 0.16889 0.51869
 H206 H 0.49055 0.26979 0.52073
 H207 H 0.49617 0.30792 0.57342
 H208 H 0.41932 0.26267 0.65969
 H209 H 0.41391 0.22446 0.60384
 H210 H 0.49298 0.17244 0.44266
 C211 C 0.76827 0.22700 0.52842
 C212 C 0.76700 0.23010 0.46316
 C213 C 0.74494 0.21099 0.42257
 C214 C 0.78702 0.25364 0.42870
 C215 C 0.78885 0.24749 0.56967
 C216 C 0.74777 0.20416 0.56390
 C217 C 0.73783 0.18474 0.42079
 C218 C 0.71743 0.16754 0.38038
 C219 C 0.70394 0.17643 0.34063
 C220 C 0.71133 0.20271 0.34255
 C221 C 0.73150 0.21974 0.38288
 C222 C 0.80089 0.25109 0.37739
 C223 C 0.81980 0.27295 0.34421
 C224 C 0.82501 0.29778 0.36157
 C225 C 0.81098 0.30028 0.41266
 C226 C 0.79186 0.27837 0.44539
 C227 C 0.78123 0.25707 0.62153
 C228 C 0.79978 0.27672 0.66038
 C229 C 0.82676 0.28750 0.64840
 C230 C 0.83429 0.27743 0.59683
 C231 C 0.81559 0.25752 0.55828
 C232 C 0.72177 0.19865 0.56375
 C233 C 0.70326 0.17885 0.60325
 C234 C 0.71051 0.16427 0.64375
 C235 C 0.73652 0.16985 0.64356
 C236 C 0.75499 0.18961 0.60402
 H237 H 0.74827 0.17764 0.45002
 H238 H 0.71272 0.14758 0.37995
 H239 H 0.70140 0.21019 0.31260
 H240 H 0.73664 0.23988 0.38319
 H241 H 0.79730 0.23214 0.36369
 H242 H 0.83069 0.27036 0.30614
 H243 H 0.78095 0.28069 0.48393
 H244 H 0.76071 0.24962 0.63133
 H245 H 0.79234 0.28336 0.69848
 H246 H 0.85476 0.28502 0.58604
 H247 H 0.82197 0.25012 0.51922
 H248 H 0.71604 0.21026 0.53478
 H249 H 0.68364 0.17580 0.60368
 H250 H 0.74266 0.15912 0.67475
 H251 H 0.77509 0.19393 0.60557
 H252 H 0.81469 0.31921 0.42692
 O253 O 0.98399 0.49966 -0.15947
 O254 O 1.02269 0.52874 0.11763
 O255 O 0.95527 0.51042 0.02480
 O256 O 1.03152 0.55122 -0.07741
 O257 O 0.97410 0.50425 0.11004
 O258 O 1.03054 0.52472 -0.14653
 O259 O 1.03116 0.55479 0.03761
 O260 O 0.96824 0.51613 -0.09350
 C261 C 0.97539 0.51478 -0.14904
 C262 C 1.02844 0.55071 0.09658
 C263 C 0.95910 0.51132 0.08454
 C264 C 1.03372 0.54657 -0.13430
 O265 O 1.02971 0.48464 -0.07757
 O266 O 0.97431 0.46124 0.08869
 O267 O 0.95212 0.46571 -0.09612
 O268 O 1.05405 0.52536 0.05182
 O269 O 1.02480 0.48694 0.08499
 O270 O 0.98383 0.45871 -0.09574
 O271 O 1.05759 0.52440 -0.06441
 O272 O 0.94573 0.46259 0.02205
 Co273 Co 1.00658 0.49290 -0.11141
 Co274 Co 0.99944 0.49608 0.08885
 Co275 Co 0.95982 0.49027 -0.03456
 Co276 Co 1.04009 0.53596 -0.01369
 O277 O 1.00122 0.50363 -0.01682
 C278 C 1.05280 0.50180 -0.07388
 C279 C 0.95179 0.45115 0.06477
 C280 C 0.96017 0.45016 -0.10199
 C281 C 1.04821 0.50370 0.07659
 O282 O 0.49837 0.45570 -0.08973
 O283 O 0.47642 0.48979 0.12596
 O284 O 0.49898 0.45181 0.02378
 O285 O 0.45902 0.49902 -0.06075
 O286 O 0.50394 0.46907 0.11747
 O287 O 0.46303 0.46569 -0.08472
 O288 O 0.46506 0.51081 0.05578
 O289 O 0.53572 0.46219 -0.05296
 C290 C 0.51717 0.45136 -0.09591
 C291 C 0.46104 0.49737 0.10715
 C292 C 0.49524 0.44918 0.08318
 C293 C 0.44899 0.47569 -0.07806
 O294 O 0.49211 0.50984 -0.14407
 O295 O 0.54583 0.51779 0.09718
 O296 O 0.55386 0.51035 -0.04307
 O297 O 0.51142 0.55163 0.02761
 O298 O 0.51714 0.53548 0.11631
 O299 O 0.53136 0.50517 -0.12981
 O300 O 0.50904 0.54092 -0.08048
 O301 O 0.54611 0.48510 0.05982
 Co302 Co 0.49744 0.48579 -0.10131
 Co303 Co 0.51053 0.50251 0.10359
 Co304 Co 0.52567 0.48189 -0.01039
 Co305 Co 0.48752 0.52320 -0.01437
 O306 O 0.50507 0.50005 -0.00076
 C307 C 0.50395 0.53346 -0.13623
 C308 C 0.55677 0.50481 0.09373
 C309 C 0.55309 0.51561 -0.10138
 C310 C 0.51920 0.55430 0.08418
 O311 O 0.51954 0.01606 -0.13914
 O312 O 0.49951 -0.03841 0.10646
 O313 O 0.53363 0.04014 0.05743
 O314 O 0.47690 -0.06191 -0.08812
 O315 O 0.53086 0.00528 0.09023
 O316 O 0.50765 -0.02744 -0.12677
 O317 O 0.49890 -0.05512 0.01503
 O318 O 0.54205 0.03325 -0.05355
 C319 C 0.54131 0.02865 -0.11210
 C320 C 0.50670 -0.05074 0.07167
 C321 C 0.54396 0.02897 0.08556
 C322 C 0.49747 -0.05098 -0.11971
 O323 O 0.45538 -0.04078 -0.12571
 O324 O 0.49299 0.01898 0.10898
 O325 O 0.50134 0.03834 -0.09142
 O326 O 0.45632 -0.05998 0.07258
 O327 O 0.46057 -0.02497 0.10507
 O328 O 0.46824 0.00322 -0.11791
 O329 O 0.43983 -0.05556 -0.03168
 O330 O 0.48737 0.03401 0.01943
 Co331 Co 0.48808 -0.01214 -0.11671
 Co332 Co 0.49557 -0.00994 0.09205
 Co333 Co 0.51366 0.03159 -0.01649
 Co334 Co 0.47037 -0.05344 -0.00850
 O335 O 0.49194 -0.01097 -0.01240
 C336 C 0.43601 -0.05216 -0.08900
 C337 C 0.48359 0.03073 0.07835
 C338 C 0.47888 0.02690 -0.11420
 C339 C 0.44670 -0.04856 0.10080
 C340 C 1.14561 0.45907 0.32873
 C341 C 1.14914 0.47500 0.27529
 C342 C 1.12708 0.47432 0.23918
 C343 C 1.13233 0.48905 0.18197
 C344 C 1.11227 0.48997 0.14805
 C345 C 1.08645 0.47642 0.17126
 C346 C 1.08104 0.46093 0.22729
 C347 C 1.10114 0.45991 0.26109
 C348 C 1.06497 0.47845 0.13925
 C349 C 1.06938 0.49971 0.10082
 H350 H 1.16872 0.48844 0.25854
 H351 H 1.15209 0.50004 0.16355
 H352 H 1.11717 0.50130 0.10374
 H353 H 1.06130 0.45010 0.24588
 H354 H 1.09641 0.44825 0.30492
 H355 H 1.04503 0.46398 0.15099
 H356 H 1.15799 0.46050 0.34745
 H357 H 1.08909 0.51525 0.09199
 C358 C 0.56247 0.69497 0.33067
 C359 C 0.54681 0.68138 0.27813
 C360 C 0.54443 0.65717 0.25315
 C361 C 0.53367 0.64910 0.19135
 C362 C 0.52984 0.62588 0.16645
 C363 C 0.53683 0.61012 0.20276
 C364 C 0.54722 0.61792 0.26509
 C365 C 0.55108 0.64127 0.29014
 C366 C 0.53197 0.58492 0.17780
 C367 C 0.53062 0.58024 0.11161
 H368 H 0.53624 0.68917 0.25227
 H369 H 0.52788 0.66067 0.16236
 H370 H 0.52067 0.62008 0.11943
 H371 H 0.55224 0.60587 0.29455
 H372 H 0.55861 0.64635 0.33887
 H373 H 0.52841 0.56956 0.21199
 H374 H 0.57549 0.68904 0.35174
 H375 H 0.53569 0.59600 0.07753
 C376 C 0.29302 -0.15477 0.29044
 C377 C 0.30633 -0.16022 0.24306
 C378 C 0.33051 -0.14033 0.21053
 C379 C 0.33818 -0.14703 0.15334
 C380 C 0.36188 -0.12987 0.12373
 C381 C 0.37856 -0.10554 0.15050
 C382 C 0.37083 -0.09855 0.20739
 C383 C 0.34704 -0.11580 0.23719
 C384 C 0.40436 -0.08906 0.11978
 C385 C 0.42086 -0.06276 0.13172
 H386 H 0.29873 -0.17985 0.22717
 H387 H 0.32598 -0.16584 0.13198
 H388 H 0.36739 -0.13583 0.08017
 H389 H 0.38341 -0.08026 0.23047
 H390 H 0.34227 -0.11017 0.28227
 H391 H 0.41065 -0.09823 0.08501
 H392 H 0.29911 -0.13468 0.29891
 H393 H 0.41476 -0.05227 0.16244
 C394 C 0.86505 0.54560 0.36808
 C395 C 0.86143 0.52869 0.31785
 C396 C 0.88277 0.52652 0.28709
 C397 C 0.87843 0.51600 0.22497
 C398 C 0.89761 0.51314 0.19383
 C399 C 0.92172 0.52069 0.22418
 C400 C 0.92590 0.53050 0.28720
 C401 C 0.90666 0.53359 0.31837
 C402 C 0.94205 0.51755 0.19088
 C403 C 0.94474 0.52035 0.12381
 H404 H 0.84220 0.51760 0.29659
 H405 H 0.86006 0.50997 0.20023
 H406 H 0.89328 0.50455 0.14630
 H407 H 0.94412 0.53598 0.31202
 H408 H 0.91039 0.54103 0.36709
 H409 H 0.95440 0.51243 0.21891
 H410 H 0.88467 0.55898 0.38445
 H411 H 0.93363 0.52744 0.09739
 C412 C 0.47197 0.31198 0.31488
 C413 C 0.45379 0.31853 0.29140
 C414 C 0.46188 0.34436 0.26288
 C415 C 0.44713 0.34676 0.21246
 C416 C 0.45469 0.37099 0.18431
 C417 C 0.47691 0.39334 0.20708
 C418 C 0.49106 0.39102 0.25908
 C419 C 0.48378 0.36679 0.28643
 C420 C 0.48575 0.41926 0.17821
 C421 C 0.48276 0.42311 0.11259
 H422 H 0.43328 0.30397 0.29026
 H423 H 0.42995 0.32980 0.19425
 H424 H 0.44295 0.37222 0.14541
 H425 H 0.50805 0.40800 0.27800
 H426 H 0.49509 0.36568 0.32657
 H427 H 0.49742 0.43601 0.20803
 H428 H 0.49256 0.32558 0.30770
 H429 H 0.47330 0.40668 0.08072
 C430 C 0.68243 0.15960 0.29576
 C431 C 0.67009 0.13256 0.29352
 C432 C 0.64769 0.11685 0.24961
 C433 C 0.64201 0.09184 0.23288
 C434 C 0.62086 0.07645 0.19219
 C435 C 0.60474 0.08574 0.16784
 C436 C 0.61042 0.11071 0.18470
 C437 C 0.63143 0.12600 0.22544
 C438 C 0.58179 0.07028 0.12547
 C439 C 0.56913 0.04337 0.11986
 H440 H 0.67711 0.12237 0.32368
 H441 H 0.65411 0.08424 0.25096
 H442 H 0.61748 0.05751 0.17961
 H443 H 0.59825 0.11831 0.16715
 H444 H 0.63436 0.14470 0.23879
 H445 H 0.57314 0.08043 0.10131
 H446 H 0.67595 0.16939 0.26247
 H447 H 0.57641 0.03231 0.14535
 C448 C 0.44142 0.13878 -0.31228
 C449 C 0.45588 0.14181 -0.25558
 C450 C 0.45814 0.12077 -0.22239
 C451 C 0.47009 0.12583 -0.16115
 C452 C 0.47532 0.10794 -0.13049
 C453 C 0.46859 0.08441 -0.15998
 C454 C 0.45595 0.07886 -0.22054
 C455 C 0.45085 0.09691 -0.25160
 C456 C 0.47727 0.06751 -0.12880
 C457 C 0.46677 0.04126 -0.14174
 H458 H 0.46626 0.16053 -0.23310
 H459 H 0.47606 0.14405 -0.13755
 H460 H 0.48521 0.11276 -0.08404
 H461 H 0.45107 0.06119 -0.24546
 H462 H 0.44221 0.09242 -0.29937
 H463 H 0.49297 0.07633 -0.09366
 H464 H 0.42832 0.11934 -0.32882
 H465 H 0.44962 0.03111 -0.17197
 C466 C 0.70151 0.54780 -0.27862
 C467 C 0.68914 0.56260 -0.28257
 C468 C 0.66789 0.55833 -0.23747
 C469 C 0.64831 0.56345 -0.25878
 C470 C 0.62704 0.55788 -0.21891
 C471 C 0.62503 0.54713 -0.15656
 C472 C 0.64546 0.54355 -0.13394
 C473 C 0.66665 0.54908 -0.17378
 C474 C 0.60169 0.53830 -0.11476
 C475 C 0.57706 0.53205 -0.13858
 H476 H 0.69335 0.57617 -0.32209
 H477 H 0.64910 0.57114 -0.30710
 H478 H 0.61226 0.56185 -0.23750
 H479 H 0.64470 0.53576 -0.08576
 H480 H 0.68194 0.54599 -0.15448
 H481 H 0.60312 0.53314 -0.06494
 H482 H 0.69478 0.53290 -0.24131
 H483 H 0.57463 0.53583 -0.18877
 C484 C 0.84634 0.30818 -0.31547
 C485 C 0.84158 0.31952 -0.26204
 C486 C 0.86174 0.34305 -0.22858
 C487 C 0.85328 0.35649 -0.18965
 C488 C 0.87121 0.37919 -0.15858
 C489 C 0.89813 0.38894 -0.16479
 C490 C 0.90678 0.37528 -0.20265
 C491 C 0.88876 0.35252 -0.23410
 C492 C 0.91625 0.41410 -0.13446
 C493 C 0.94286 0.42354 -0.12423
 H494 H 0.82194 0.31190 -0.24456
 H495 H 0.83262 0.34966 -0.18414
 H496 H 0.86398 0.38933 -0.12996
 H497 H 0.92737 0.38234 -0.20955
 H498 H 0.89619 0.34254 -0.26236
 H499 H 0.90816 0.42600 -0.11990
 H500 H 0.86631 0.31613 -0.33136
 H501 H 0.95144 0.41167 -0.13421
 C502 C 0.54518 -0.15556 -0.30605
 C503 C 0.52073 -0.16069 -0.28411
 C504 C 0.51595 -0.14235 -0.24736
 C505 C 0.49188 -0.15208 -0.21579
 C506 C 0.48586 -0.13565 -0.18227
 C507 C 0.50361 -0.10898 -0.18009
 C508 C 0.52792 -0.09912 -0.21107
 C509 C 0.53401 -0.11564 -0.24455
 C510 C 0.49581 -0.09246 -0.14509
 C511 C 0.50787 -0.06562 -0.15230
 H512 H 0.50378 -0.17924 -0.29460
 H513 H 0.47758 -0.17254 -0.21716
 H514 H 0.46704 -0.14380 -0.15864
 H515 H 0.54238 -0.07878 -0.20954
 H516 H 0.55262 -0.10721 -0.26892
 H517 H 0.47867 -0.10216 -0.11450
 H518 H 0.56226 -0.13687 -0.29779
 H519 H 0.52457 -0.05509 -0.18366
 C520 C 0.31041 0.44821 -0.30357
 C521 C 0.31579 0.45598 -0.23896
 C522 C 0.33724 0.45669 -0.19936
 C523 C 0.34200 0.46802 -0.13798
 C524 C 0.36347 0.47170 -0.10111
 C525 C 0.38057 0.46384 -0.12425
 C526 C 0.37529 0.45144 -0.18445
 C527 C 0.35384 0.44790 -0.22167
 C528 C 0.40517 0.47177 -0.08828
 C529 C 0.42138 0.46137 -0.09789
 H530 H 0.30418 0.46307 -0.21636
 H531 H 0.32957 0.47493 -0.11931
 H532 H 0.36717 0.48142 -0.05508
 H533 H 0.38831 0.44557 -0.20452
 H534 H 0.35095 0.43893 -0.26833
 H535 H 0.41175 0.48796 -0.05572
 H536 H 0.31990 0.43896 -0.32634
 H537 H 0.41451 0.44374 -0.12495
 C538 C 1.13583 0.69774 -0.31485
 C539 C 1.10978 0.68095 -0.33219
 C540 C 1.09260 0.65854 -0.29054
 C541 C 1.07541 0.63462 -0.31865
 C542 C 1.06054 0.61274 -0.27958
 C543 C 1.06239 0.61466 -0.21174
 C544 C 1.07850 0.63891 -0.18391
 C545 C 1.09361 0.66062 -0.22283
 C546 C 1.04832 0.59199 -0.16822
 C547 C 1.04221 0.56695 -0.18443
 H548 H 1.10267 0.68204 -0.37989
 H549 H 1.07408 0.63271 -0.37083
 H550 H 1.04772 0.59445 -0.30249
 H551 H 1.07996 0.64094 -0.13175
 H552 H 1.10618 0.67901 -0.19995
 H553 H 1.04552 0.59574 -0.11859
 H554 H 1.14284 0.69325 -0.27058
 H555 H 1.04577 0.56270 -0.23277
 C556 C 0.87056 0.55040 -0.33875
 C557 C 0.89410 0.57147 -0.31768
 C558 C 0.91566 0.56800 -0.29293
 C559 C 0.92018 0.54866 -0.31673
 C560 C 0.93812 0.54332 -0.28610
 C561 C 0.95206 0.55744 -0.23147
 C562 C 0.94904 0.57814 -0.21128
 C563 C 0.93111 0.58347 -0.24197
 C564 C 0.96682 0.54910 -0.18909
 C565 C 0.97103 0.52865 -0.20245
 H566 H 0.89630 0.59045 -0.31316
 H567 H 0.90937 0.53712 -0.35785
 H568 H 0.93987 0.52730 -0.30358
 H569 H 0.95962 0.58940 -0.16951
 H570 H 0.92825 0.59875 -0.22348
 H571 H 0.97175 0.55734 -0.14106
 H572 H 0.86925 0.53165 -0.33927
 H573 H 0.96943 0.52155 -0.25108
 C574 C 0.46065 0.30992 -0.34312
 C575 C 0.48308 0.33449 -0.34190
 C576 C 0.48543 0.35572 -0.30121
 C577 C 0.51041 0.37507 -0.28213
 C578 C 0.51356 0.39516 -0.24248
 C579 C 0.49166 0.39630 -0.22117
 C580 C 0.46674 0.37750 -0.24224
 C581 C 0.46358 0.35737 -0.28185
 C582 C 0.49411 0.41701 -0.17834
 C583 C 0.51555 0.43108 -0.13799
 H584 H 0.50051 0.33826 -0.36727
 H585 H 0.52759 0.37451 -0.29744
 H586 H 0.53318 0.40982 -0.22946
 H587 H 0.44962 0.37828 -0.22755
 H588 H 0.44409 0.34343 -0.29769
 H589 H 0.47783 0.42049 -0.17628
 H590 H 0.44433 0.30663 -0.31316
 H591 H 0.53140 0.42699 -0.13576
 C592 C 0.69195 0.14434 -0.31050
 C593 C 0.66494 0.13184 -0.31883
 C594 C 0.64609 0.11330 -0.27116
 C595 C 0.62054 0.09633 -0.29190
 C596 C 0.60166 0.07942 -0.24820
 C597 C 0.60793 0.07906 -0.18239
 C598 C 0.63344 0.09620 -0.16137
 C599 C 0.65242 0.11314 -0.20529
 C600 C 0.58773 0.06256 -0.13440
 C601 C 0.56480 0.04036 -0.15236
 H602 H 0.65708 0.13496 -0.36338
 H603 H 0.61505 0.09640 -0.34208
 H604 H 0.58199 0.06739 -0.26606
 H605 H 0.63860 0.09668 -0.11073
 H606 H 0.67168 0.12653 -0.18698
 H607 H 0.59026 0.06893 -0.08465
 H608 H 0.70000 0.13883 -0.27015
 H609 H 0.56271 0.03301 -0.20092
 C610 C 1.16497 0.47446 -0.28607
 C611 C 1.16848 0.49855 -0.26889
 C612 C 1.15035 0.50156 -0.22563
 C613 C 1.15909 0.52514 -0.19399
 C614 C 1.14210 0.52901 -0.15523
 C615 C 1.11600 0.50939 -0.14735
 C616 C 1.10723 0.48577 -0.17930
 C617 C 1.12420 0.48191 -0.21792
 C618 C 1.09796 0.51500 -0.11082
 C619 C 1.07327 0.49583 -0.09023
 H620 H 1.18571 0.51596 -0.28552
 H621 H 1.17907 0.54071 -0.19970
 H622 H 1.14928 0.54753 -0.13207
 H623 H 1.08706 0.47049 -0.17707
 H624 H 1.11639 0.46384 -0.24346
 H625 H 1.10362 0.53510 -0.10396
 H626 H 1.14971 0.45715 -0.26288
 H627 H 1.06758 0.47562 -0.09330
 C628 C 0.52890 0.67219 -0.37096
 C629 C 0.54575 0.66410 -0.34638
 C630 C 0.53565 0.64007 -0.30750
 C631 C 0.54687 0.62431 -0.31272
 C632 C 0.53834 0.60238 -0.27275
 C633 C 0.51903 0.59649 -0.22589
 C634 C 0.50789 0.61228 -0.22080
 C635 C 0.51588 0.63370 -0.26169
 C636 C 0.51211 0.57590 -0.17707
 C637 C 0.50995 0.55205 -0.18975
 H638 H 0.56649 0.67505 -0.35610
 H639 H 0.56235 0.62910 -0.34728
 H640 H 0.54761 0.59075 -0.27647
 H641 H 0.49325 0.60825 -0.18431
 H642 H 0.50733 0.64588 -0.25564
 H643 H 0.50737 0.57936 -0.12901
 H644 H 0.50815 0.65821 -0.36993
 H645 H 0.51156 0.54675 -0.23868
 C646 C 0.30494 -0.14360 -0.35672
 C647 C 0.30597 -0.12767 -0.30632
 C648 C 0.33099 -0.10930 -0.27505
 C649 C 0.33150 -0.10453 -0.20859
 C650 C 0.35520 -0.08873 -0.17701
 C651 C 0.37882 -0.07724 -0.21174
 C652 C 0.37806 -0.08086 -0.27886
 C653 C 0.35443 -0.09674 -0.31026
 C654 C 0.40461 -0.06187 -0.18023
 C655 C 0.40927 -0.06414 -0.11472
 H656 H 0.28829 -0.13030 -0.28440
 H657 H 0.31359 -0.11362 -0.18073
 H658 H 0.35486 -0.08569 -0.12564
 H659 H 0.39592 -0.07186 -0.30694
 H660 H 0.35460 -0.09921 -0.36203
 H661 H 0.42119 -0.05010 -0.21131
 H662 H 0.32321 -0.14203 -0.37152
 H663 H 0.39340 -0.07629 -0.08236
 C664 C 0.54716 -0.14169 0.34517
 C665 C 0.56022 -0.12729 0.29005
 C666 C 0.55389 -0.10855 0.25908
 C667 C 0.55780 -0.10372 0.19226
 C668 C 0.55025 -0.08760 0.16072
 C669 C 0.53868 -0.07591 0.19570
 C670 C 0.53621 -0.07955 0.26309
 C671 C 0.54373 -0.09568 0.29455
 C672 C 0.52835 -0.06043 0.16399
 C673 C 0.52124 -0.06271 0.09876
 H674 H 0.57351 -0.13162 0.26494
 H675 H 0.56612 -0.11297 0.16407
 H676 H 0.55347 -0.08451 0.10913
 H677 H 0.52785 -0.07037 0.29139
 H678 H 0.54146 -0.09803 0.34656
 H679 H 0.52379 -0.04863 0.19456
 H680 H 0.53179 -0.13917 0.36540
 H681 H 0.52456 -0.07508 0.06730
 C682 C 0.31359 0.47086 0.30420
 C683 C 0.34035 0.48363 0.31723
 C684 C 0.36013 0.48681 0.26900
 C685 C 0.38413 0.49033 0.29125
 C686 C 0.40349 0.49372 0.24758
 C687 C 0.39930 0.49383 0.18042
 C688 C 0.37558 0.49103 0.15803
 C689 C 0.35606 0.48740 0.20183
 C690 C 0.41984 0.49793 0.13352
 C691 C 0.43795 0.49006 0.14720
 H692 H 0.34711 0.49016 0.36593
 H693 H 0.38792 0.49042 0.34271
 H694 H 0.42192 0.49682 0.26671
 H695 H 0.37211 0.49154 0.10656
 H696 H 0.33812 0.48561 0.18298
 H697 H 0.42062 0.50717 0.08736
 H698 H 0.30661 0.46152 0.25795
 H699 H 0.43581 0.47890 0.19087
 C700 C 1.13260 0.67194 0.36161
 C701 C 1.10843 0.66681 0.33682
 C702 C 1.08930 0.64157 0.30873
 C703 C 1.07154 0.64087 0.26219
 C704 C 1.05480 0.61792 0.23013
 C705 C 1.05550 0.59516 0.24426
 C706 C 1.07186 0.59540 0.29415
 C707 C 1.08866 0.61837 0.32609
 C708 C 1.04076 0.57145 0.20551
 C709 C 1.03567 0.57255 0.13983
 H710 H 1.10387 0.68223 0.33409
 H711 H 1.07120 0.65834 0.24904
 H712 H 1.04167 0.61820 0.19373
 H713 H 1.07238 0.57799 0.30678
 H714 H 1.10118 0.61783 0.36381
 H715 H 1.03753 0.55328 0.22615
 H716 H 1.13716 0.65654 0.36477
 H717 H 1.04050 0.59089 0.11725
 C718 C 0.46258 0.13345 0.34582
 C719 C 0.44674 0.11688 0.29778
 C720 C 0.45169 0.09700 0.27064
 C721 C 0.43832 0.08400 0.21452
 C722 C 0.44398 0.06647 0.18507
 C723 C 0.46313 0.06162 0.21147
 C724 C 0.47554 0.07361 0.26938
 C725 C 0.47003 0.09128 0.29857
 C726 C 0.47127 0.04500 0.17870
 C727 C 0.47107 0.04319 0.11149
 H728 H 0.43124 0.11940 0.27717
 H729 H 0.42386 0.08783 0.19260
 H730 H 0.43343 0.05689 0.14158
 H731 H 0.49017 0.06996 0.29093
 H732 H 0.48043 0.10071 0.34238
 H733 H 0.48058 0.03654 0.20747
 H734 H 0.45972 0.14523 0.35851
 H735 H 0.46366 0.05317 0.08170
 C736 C 0.69707 0.53883 0.32668
 C737 C 0.67505 0.51482 0.31422
 C738 C 0.65454 0.51113 0.26681
 C739 C 0.63758 0.48615 0.24377
 C740 C 0.61762 0.48175 0.20011
 C741 C 0.61397 0.50218 0.17915
 C742 C 0.63121 0.52730 0.20136
 C743 C 0.65110 0.53168 0.24516
 C744 C 0.59184 0.49653 0.13530
 C745 C 0.58075 0.51231 0.13060
 H746 H 0.67336 0.49766 0.33733
 H747 H 0.63975 0.46996 0.25972
 H748 H 0.60468 0.46224 0.18358
 H749 H 0.62957 0.54372 0.18512
 H750 H 0.66331 0.55114 0.26256
 H751 H 0.58258 0.47827 0.11001
 H752 H 0.70043 0.55557 0.29819
 H753 H 0.58848 0.52979 0.15862
 C754 C 0.84558 0.32137 0.32911
 C755 C 0.85335 0.32169 0.26531
 C756 C 0.87452 0.34523 0.23417
 C757 C 0.87403 0.34855 0.16687
 C758 C 0.89371 0.37079 0.13631
 C759 C 0.91441 0.38994 0.17271
 C760 C 0.91537 0.38613 0.23962
 C761 C 0.89558 0.36407 0.27021
 C762 C 0.93536 0.41396 0.14282
 C763 C 0.93163 0.42538 0.08738
 H764 H 0.84261 0.30464 0.23590
 H765 H 0.85823 0.33404 0.13799
 H766 H 0.89281 0.37275 0.08432
 H767 H 0.93133 0.40045 0.26849
 H768 H 0.89702 0.36167 0.32186
 H769 H 0.95366 0.42434 0.16897
 H770 H 0.85393 0.33935 0.35540
 H771 H 0.91287 0.41637 0.06313
   
