data_POSCAR
  _audit_creation_date              2014-09-24
  _audit_creation_method            'ToBaCCo'
  _symmetry_space_group_name_H-M    'P1'
  _symmetry_Int_Tables_number       1
  _symmetry_cell_setting            triclinic
  loop_
  _symmetry_equiv_pos_as_xyz
 x,y,z
_cell_length_a 48.3912
_cell_length_b 48.1861
_cell_length_c 48.7559
_cell_angle_alpha 89.828700
_cell_angle_beta 90.118800
_cell_angle_gamma 89.841300
loop_
  _atom_site_label
  _atom_site_type_symbol
  _atom_site_fract_x
  _atom_site_fract_y
  _atom_site_fract_z
N1 N 0.59370 0.66836 0.61308
 N2 N 0.58263 0.65697 0.63500
 C3 C 0.56040 0.67201 0.64259
 C4 C 0.55758 0.69379 0.62440
 C5 C 0.57892 0.69098 0.60594
 H6 H 0.54729 0.66757 0.65998
 H7 H 0.58337 0.70440 0.58869
 Cu8 Cu 0.59880 0.62386 0.65145
 Cu9 Cu 0.62653 0.65313 0.59552
 Cu10 Cu 0.65558 0.59414 0.62497
 N11 N 0.61497 0.59076 0.66791
 N12 N 0.63732 0.57933 0.65746
 C13 C 0.64450 0.55708 0.67268
 C14 C 0.62561 0.55459 0.69364
 C15 C 0.60714 0.57615 0.69019
 H16 H 0.66212 0.54380 0.66884
 H17 H 0.58949 0.58082 0.70296
 N18 N 0.67084 0.61231 0.59204
 N19 N 0.65973 0.63471 0.58079
 C20 C 0.67471 0.64200 0.55865
 C21 C 0.69610 0.62333 0.55602
 C22 C 0.69319 0.60479 0.57735
 H23 H 0.67043 0.65953 0.54541
 H24 H 0.70638 0.58717 0.58177
 H25 H 0.62102 0.61242 0.60812
 H26 H 0.64313 0.63467 0.63037
 N27 N 0.90820 0.33199 0.11368
 N28 N 0.91922 0.34378 0.13540
 C29 C 0.94192 0.32938 0.14299
 C30 C 0.94506 0.30759 0.12501
 C31 C 0.92346 0.30971 0.10667
 H32 H 0.95512 0.33430 0.16022
 H33 H 0.91916 0.29610 0.08958
 Cu34 Cu 0.90275 0.37675 0.15158
 Cu35 Cu 0.87500 0.34650 0.09606
 Cu36 Cu 0.84491 0.40495 0.12484
 N37 N 0.88534 0.40913 0.16793
 N38 N 0.86277 0.42009 0.15733
 C39 C 0.85515 0.44218 0.17241
 C40 C 0.87395 0.44505 0.19346
 C41 C 0.89282 0.42388 0.19016
 H42 H 0.83733 0.45517 0.16838
 H43 H 0.91061 0.41964 0.20298
 N44 N 0.83002 0.38648 0.09198
 N45 N 0.84142 0.36414 0.08108
 C46 C 0.82658 0.35656 0.05892
 C47 C 0.80500 0.37500 0.05590
 C48 C 0.80766 0.39369 0.07704
 H49 H 0.83113 0.33903 0.04587
 H50 H 0.79432 0.41123 0.08111
 H51 H 0.87986 0.38753 0.10820
 H52 H 0.85844 0.36494 0.13089
 N53 N 0.40702 0.16871 -0.11328
 N54 N 0.41814 0.15705 -0.13500
 C55 C 0.44058 0.17169 -0.14255
 C56 C 0.44349 0.19351 -0.12456
 C57 C 0.42198 0.19112 -0.10625
 H58 H 0.45380 0.16694 -0.15977
 H59 H 0.41755 0.20468 -0.08917
 Cu60 Cu 0.40213 0.12384 -0.15108
 Cu61 Cu 0.37384 0.15414 -0.09590
 Cu62 Cu 0.34458 0.09538 -0.12481
 N63 N 0.38556 0.09097 -0.16726
 N64 N 0.36305 0.07993 -0.15683
 C65 C 0.35589 0.05760 -0.17174
 C66 C 0.37491 0.05461 -0.19252
 C67 C 0.39346 0.07600 -0.18922
 H68 H 0.33814 0.04457 -0.16786
 H69 H 0.41124 0.08032 -0.20193
 N70 N 0.32906 0.11411 -0.09237
 N71 N 0.34027 0.13641 -0.08128
 C72 C 0.32515 0.14403 -0.05936
 C73 C 0.30355 0.12568 -0.05669
 C74 C 0.30651 0.10699 -0.07780
 H75 H 0.32953 0.16151 -0.04620
 H76 H 0.29329 0.08946 -0.08206
 H77 H 0.37923 0.11317 -0.10780
 H78 H 0.35767 0.13558 -0.13070
 N79 N 0.09197 0.83050 0.38673
 N80 N 0.08134 0.84165 0.36439
 C81 C 0.05890 0.82700 0.35682
 C82 C 0.05555 0.80571 0.37543
 C83 C 0.07673 0.80838 0.39414
 H84 H 0.04602 0.83141 0.33917
 H85 H 0.08077 0.79525 0.41174
 Cu86 Cu 0.09783 0.87418 0.34735
 Cu87 Cu 0.12475 0.84542 0.40450
 Cu88 Cu 0.15386 0.90415 0.37540
 N89 N 0.11405 0.90756 0.33170
 N90 N 0.13595 0.91918 0.34277
 C91 C 0.14292 0.94173 0.32798
 C92 C 0.12438 0.94426 0.30664
 C93 C 0.10631 0.92238 0.30947
 H94 H 0.16019 0.95523 0.33235
 H95 H 0.08896 0.91766 0.29630
 N96 N 0.16902 0.88593 0.40840
 N97 N 0.15793 0.86354 0.41949
 C98 C 0.17292 0.85607 0.44165
 C99 C 0.19430 0.87464 0.44448
 C100 C 0.19136 0.89329 0.42322
 H101 H 0.16867 0.83847 0.45478
 H102 H 0.20453 0.91086 0.41893
 H103 H 0.11873 0.88581 0.39137
 H104 H 0.14164 0.86344 0.36993
 C105 C 0.10410 0.14641 0.12530
 C106 C 0.12440 0.14590 0.10476
 C107 C 0.14469 0.12500 0.10435
 C108 C 0.14452 0.10445 0.12485
 C109 C 0.12438 0.10461 0.14559
 C110 C 0.10428 0.12570 0.14562
 H111 H 0.12440 0.16182 0.08903
 H112 H 0.15967 0.08787 0.12425
 H113 H 0.08914 0.12643 0.16194
 C114 C 0.39604 0.85475 0.62531
 C115 C 0.39552 0.87520 0.64577
 C116 C 0.37479 0.89566 0.64604
 C117 C 0.35440 0.89551 0.62547
 C118 C 0.35456 0.87521 0.60483
 C119 C 0.37549 0.85495 0.60493
 H120 H 0.41131 0.87518 0.66155
 H121 H 0.33795 0.91079 0.62598
 H122 H 0.37621 0.83967 0.58869
 C123 C 0.89610 0.64580 0.37469
 C124 C 0.87578 0.64532 0.39523
 C125 C 0.85527 0.62476 0.39546
 C126 C 0.85526 0.60446 0.37486
 C127 C 0.87541 0.60457 0.35417
 C128 C 0.89573 0.62533 0.35424
 H129 H 0.87635 0.66057 0.41150
 H130 H 0.83951 0.58853 0.37492
 H131 H 0.91086 0.62596 0.33792
 C132 C 0.60421 0.35452 -0.12558
 C133 C 0.62466 0.35479 -0.10508
 C134 C 0.64530 0.37523 -0.10489
 C135 C 0.64525 0.39569 -0.12547
 C136 C 0.62495 0.39583 -0.14610
 C137 C 0.60457 0.37512 -0.14602
 H138 H 0.62411 0.33945 -0.08880
 H139 H 0.66106 0.41156 -0.12543
 H140 H 0.58936 0.37465 -0.16234
 C141 C 0.03487 0.18300 0.13154
 C142 C 0.04216 0.21053 0.12598
 C143 C 0.06970 0.21715 0.12026
 C144 C 0.08987 0.19633 0.12003
 C145 C -0.03477 0.28790 0.12538
 C146 C 0.05501 0.16215 0.13136
 C147 C 0.02133 0.23191 0.12596
 C148 C 0.00375 0.24968 0.12586
 C149 C -0.01696 0.27036 0.12564
 C150 C 0.08274 0.16858 0.12557
 H151 H 0.01360 0.17763 0.13589
 H152 H 0.07558 0.23841 0.11599
 H153 H 0.11110 0.20196 0.11585
 H154 H 0.04885 0.14094 0.13536
 C155 C 0.43225 0.78507 0.61945
 C156 C 0.45967 0.79231 0.62503
 C157 C 0.46634 0.81996 0.63069
 C158 C 0.44567 0.84030 0.63080
 C159 C 0.53673 0.71507 0.62463
 C160 C 0.41156 0.80537 0.61951
 C161 C 0.48092 0.77135 0.62497
 C162 C 0.49860 0.75368 0.62490
 C163 C 0.51920 0.73289 0.62478
 C164 C 0.41804 0.83322 0.62520
 H165 H 0.42685 0.76372 0.61512
 H166 H 0.48752 0.82581 0.63496
 H167 H 0.45133 0.86161 0.63491
 H168 H 0.39043 0.79924 0.61546
 C169 C 0.96558 0.68161 0.36816
 C170 C 0.95866 0.70901 0.37470
 C171 C 0.93131 0.71581 0.38117
 C172 C 0.91095 0.69528 0.38114
 C173 C 1.03555 0.78596 0.37525
 C174 C 0.94526 0.66104 0.36812
 C175 C 0.97962 0.73013 0.37482
 C176 C 0.99721 0.74778 0.37494
 C177 C 1.01786 0.76840 0.37511
 C178 C 0.91770 0.66765 0.37463
 H179 H 0.98671 0.67611 0.36319
 H180 H 0.92571 0.73697 0.38619
 H181 H 0.88986 0.70109 0.38588
 H182 H 0.95118 0.63991 0.36338
 C183 C 0.53457 0.31898 -0.13232
 C184 C 0.54138 0.29154 -0.12562
 C185 C 0.56869 0.28464 -0.11893
 C186 C 0.58913 0.30509 -0.11894
 C187 C 0.46452 0.21449 -0.12490
 C188 C 0.55497 0.33947 -0.13232
 C189 C 0.52034 0.27047 -0.12552
 C190 C 0.50274 0.25281 -0.12537
 C191 C 0.48214 0.23213 -0.12515
 C192 C 0.58251 0.33276 -0.12562
 H193 H 0.51348 0.32457 -0.13745
 H194 H 0.57419 0.26345 -0.11377
 H195 H 0.61017 0.29918 -0.11404
 H196 H 0.54914 0.36063 -0.13720
 C197 C 0.14915 0.05311 0.19945
 C198 C 0.12415 0.04177 0.20843
 C199 C 0.09923 0.05086 0.19683
 C200 C 0.09930 0.07123 0.17635
 C201 C 0.12414 -0.03480 0.28561
 C202 C 0.14927 0.07349 0.17898
 C203 C 0.12405 0.02083 0.22955
 C204 C 0.12401 0.00329 0.24724
 C205 C 0.12404 -0.01725 0.26794
 C206 C 0.12433 0.08281 0.16721
 H207 H 0.16855 0.04627 0.20835
 H208 H 0.07976 0.04217 0.20357
 H209 H 0.07979 0.07770 0.16745
 H210 H 0.16884 0.08224 0.17264
 C211 C 0.64996 0.44642 -0.20043
 C212 C 0.62510 0.45869 -0.20887
 C213 C 0.60021 0.45045 -0.19681
 C214 C 0.60015 0.43001 -0.17641
 C215 C 0.62539 0.53499 -0.28626
 C216 C 0.64996 0.42599 -0.18000
 C217 C 0.62513 0.47964 -0.22997
 C218 C 0.62517 0.49714 -0.24767
 C219 C 0.62526 0.51758 -0.26846
 C220 C 0.62503 0.41755 -0.16778
 H221 H 0.66934 0.45259 -0.20969
 H222 H 0.58085 0.45986 -0.20315
 H223 H 0.58068 0.42419 -0.16714
 H224 H 0.66939 0.41654 -0.17404
 C225 C 0.36862 0.96520 0.68195
 C226 C 0.37431 0.95778 0.70917
 C227 C 0.37989 0.93005 0.71580
 C228 C 0.37994 0.90983 0.69531
 C229 C 0.37501 1.03382 0.78643
 C230 C 0.36862 0.94500 0.66142
 C231 C 0.37453 0.97861 0.73028
 C232 C 0.37474 0.99602 0.74799
 C233 C 0.37494 1.01640 0.76873
 C234 C 0.37438 0.91709 0.66786
 H235 H 0.36432 0.98662 0.67658
 H236 H 0.38420 0.92406 0.73682
 H237 H 0.38404 0.88846 0.70096
 H238 H 0.36456 0.95126 0.64044
 C239 C 0.84998 0.55461 0.29970
 C240 C 0.87476 0.54234 0.29120
 C241 C 0.89975 0.55040 0.30324
 C242 C 0.89998 0.57065 0.32370
 C243 C 0.87400 0.46593 0.21441
 C244 C 0.85016 0.57484 0.32018
 C245 C 0.87453 0.52146 0.27017
 C246 C 0.87433 0.50395 0.25258
 C247 C 0.87412 0.48345 0.23199
 C248 C 0.87518 0.58309 0.33241
 H249 H 0.83053 0.54858 0.29045
 H250 H 0.91904 0.54097 0.29686
 H251 H 0.91951 0.57633 0.33298
 H252 H 0.83079 0.58429 0.32621
 C253 C 0.17895 0.13035 0.03456
 C254 C 0.20655 0.12461 0.04116
 C255 C 0.21391 0.11876 0.06835
 C256 C 0.19379 0.11874 0.08889
 C257 C 0.28264 0.12561 -0.03581
 C258 C 0.15881 0.13038 0.05508
 C259 C 0.22732 0.12488 0.02005
 C260 C 0.24472 0.12515 0.00239
 C261 C 0.26515 0.12544 -0.01824
 C262 C 0.16602 0.12464 0.08249
 H263 H 0.17300 0.13480 0.01357
 H264 H 0.23522 0.11435 0.07369
 H265 H 0.20001 0.11455 0.10985
 H266 H 0.13755 0.13461 0.04946
 C267 C 0.80131 0.64904 0.44647
 C268 C 0.79344 0.62393 0.45862
 C269 C 0.80577 0.59909 0.45017
 C270 C 0.82588 0.59933 0.42963
 C271 C 0.71710 0.62325 0.53526
 C272 C 0.82143 0.64933 0.42595
 C273 C 0.77264 0.62365 0.47967
 C274 C 0.75518 0.62345 0.49725
 C275 C 0.73467 0.62330 0.51778
 C276 C 0.83393 0.62446 0.41729
 H277 H 0.79183 0.66837 0.45280
 H278 H 0.79987 0.57955 0.45948
 H279 H 0.83538 0.57990 0.42364
 H280 H 0.82696 0.66894 0.41659
 C281 C 0.69558 0.40012 -0.05043
 C282 C 0.70775 0.37511 -0.04203
 C283 C 0.69951 0.35015 -0.05413
 C284 C 0.67919 0.35018 -0.07455
 C285 C 0.78416 0.37494 0.03488
 C286 C 0.67527 0.40020 -0.07087
 C287 C 0.72867 0.37504 -0.02101
 C288 C 0.74618 0.37499 -0.00339
 C289 C 0.76667 0.37494 0.01725
 C290 C 0.66685 0.37522 -0.08316
 H291 H 0.70175 0.41954 -0.04115
 H292 H 0.70885 0.33068 -0.04783
 H293 H 0.67338 0.33067 -0.08386
 H294 H 0.66590 0.41975 -0.07681
 C295 C 0.30334 0.90004 0.55089
 C296 C 0.29197 0.87493 0.54204
 C297 C 0.30099 0.84992 0.55371
 C298 C 0.32130 0.85000 0.57415
 C299 C 0.21530 0.87463 0.46536
 C300 C 0.32366 0.90017 0.57133
 C301 C 0.27104 0.87482 0.52102
 C302 C 0.25348 0.87473 0.50344
 C303 C 0.23290 0.87466 0.48289
 C304 C 0.33289 0.87514 0.58319
 H305 H 0.29655 0.91952 0.54195
 H306 H 0.29228 0.83037 0.54707
 H307 H 0.32770 0.83042 0.58311
 H308 H 0.33241 0.91982 0.57758
   
