data_POSCAR
  _audit_creation_date              2014-09-24
  _audit_creation_method            'ToBaCCo'
  _symmetry_space_group_name_H-M    'P1'
  _symmetry_Int_Tables_number       1
  _symmetry_cell_setting            triclinic
  loop_
  _symmetry_equiv_pos_as_xyz
 x,y,z
_cell_length_a 13.6598
_cell_length_b 13.6566
_cell_length_c 13.6432
_cell_angle_alpha 90.015300
_cell_angle_beta 90.695400
_cell_angle_gamma 90.013700
loop_
  _atom_site_label
  _atom_site_type_symbol
  _atom_site_fract_x
  _atom_site_fract_y
  _atom_site_fract_z
N1 N 0.19857 0.19674 0.19694
 N2 N -0.19312 0.80135 0.19651
 N3 N -0.20079 0.19273 -0.19897
 N4 N 0.19470 0.80128 -0.19424
 N5 N 0.19676 1.19577 0.80709
 N6 N 0.80219 0.80467 0.80097
 N7 N 0.19616 0.80079 1.19767
 N8 N 0.80496 1.19530 1.19514
 O9 O 0.36560 1.17552 1.17463
 O10 O 0.25616 1.08247 1.08561
 C11 C 0.27742 1.14908 1.14996
 O12 O 0.63298 1.16902 0.82225
 O13 O 0.74273 1.08029 0.91507
 C14 C 0.72107 1.14408 0.84791
 O15 O 0.36041 1.17687 0.82972
 O16 O 0.25350 1.08382 0.91845
 C17 C 0.27256 1.15104 0.85403
 O18 O 0.64077 1.17168 1.17874
 O19 O 0.74694 1.08297 1.08478
 C20 C 0.72855 1.14767 1.15186
 Zr21 Zr 0.50229 1.12261 1.12560
 O22 O 0.51123 1.27743 1.12404
 O23 O 0.49611 1.12227 1.28062
 Zr24 Zr 0.49777 1.12155 0.87796
 O25 O 0.50635 1.27630 0.87401
 O26 O 0.49188 1.11070 0.72340
 O27 O 0.41234 1.14158 1.00207
 O28 O 0.58497 1.14001 1.00122
 O29 O 0.63932 0.82359 1.17584
 O30 O 0.74596 0.91579 1.08545
 C31 C 0.72671 0.84963 1.15040
 O32 O 0.36146 0.82056 0.83052
 O33 O 0.25444 0.91284 0.92042
 C34 C 0.27416 0.84630 0.85588
 O35 O 0.63466 0.82736 0.82332
 O36 O 0.74412 0.91562 0.91700
 C37 C 0.72307 0.85188 0.84940
 O38 O 0.36444 0.81953 1.17266
 O39 O 0.25577 0.91534 1.08640
 C40 C 0.27611 0.84724 1.14946
 Zr41 Zr 0.50136 0.87595 1.12657
 O42 O 0.50199 0.72169 1.13999
 O43 O 0.49599 0.88757 1.28138
 Zr44 Zr 0.49824 0.87491 0.87873
 O45 O 0.50645 0.72003 0.87982
 O46 O 0.48839 0.87562 0.72375
 Zr47 Zr 0.35348 0.99885 1.00227
 Zr48 Zr 0.64609 0.99856 1.00159
 O49 O 0.58461 0.85716 1.00223
 O50 O 0.41243 0.85597 1.00281
 O51 O 0.59026 0.99910 1.14504
 O52 O 0.41230 0.99823 0.86056
 O53 O 0.41678 0.99935 1.14391
 O54 O 0.58541 0.99829 0.85904
 H55 H 0.62845 1.19810 1.00052
 H56 H 0.36777 0.99820 0.80267
 H57 H 0.62822 0.79924 1.00103
 H58 H 0.37396 0.99907 1.20202
 H59 H 0.49135 1.17878 0.69825
 H60 H 0.53519 0.92531 0.69995
 H61 H 0.45194 0.69550 0.92022
 H62 H 0.51939 0.69467 1.07537
 H63 H 0.56038 0.91163 1.30515
 H64 H 0.55155 1.08230 1.30527
 H65 H 0.45371 1.30230 1.08700
 H66 H 0.45649 1.30186 0.91931
 O67 O 0.17005 0.63365 -0.17678
 O68 O 0.08058 0.74132 -0.08472
 C69 C 0.14522 0.72141 -0.15035
 O70 O -0.18048 0.35975 -0.17450
 O71 O -0.08661 0.25128 -0.08509
 C72 C -0.15393 0.27184 -0.14977
 O73 O -0.17506 0.63560 -0.17988
 O74 O -0.08446 0.74263 -0.08601
 C75 C -0.14964 0.72355 -0.15305
 O76 O 0.17648 0.35945 -0.17110
 O77 O 0.08229 0.25118 -0.08489
 C78 C 0.15031 0.27107 -0.14774
 Zr79 Zr 0.11950 0.49648 -0.12568
 O80 O 0.10141 0.49504 -0.27973
 O81 O 0.27365 0.49641 -0.13904
 Zr82 Zr -0.12665 0.49711 -0.12631
 O83 O -0.12598 0.48944 -0.28132
 O84 O -0.28141 0.50603 -0.12737
 O85 O -0.00340 0.58495 -0.14469
 O86 O -0.00357 0.41102 -0.14352
 O87 O 0.17660 0.36210 0.17213
 O88 O 0.08476 0.25304 0.08157
 C89 C 0.15110 0.27444 0.14711
 O90 O -0.17181 0.63380 0.17542
 O91 O -0.08380 0.74166 0.08215
 C92 C -0.14697 0.72158 0.14911
 O93 O -0.17755 0.35881 0.17083
 O94 O -0.08576 0.25056 0.08193
 C95 C -0.15174 0.27047 0.14690
 O96 O 0.17247 0.63339 0.17658
 O97 O 0.08194 0.74123 0.08398
 C98 C 0.14726 0.72119 0.15071
 Zr99 Zr 0.12224 0.49709 0.12221
 O100 O 0.12210 0.48846 0.27724
 O101 O 0.27712 0.50450 0.12141
 Zr102 Zr -0.12512 0.49640 0.12125
 O103 O -0.12576 0.48738 0.27617
 O104 O -0.27992 0.50554 0.11735
 Zr105 Zr -0.00209 0.64283 -0.00137
 Zr106 Zr -0.00238 0.35041 -0.00157
 O107 O -0.00118 0.41189 0.13987
 O108 O -0.00128 0.58430 0.14147
 O109 O 0.14028 0.40943 -0.00151
 O110 O -0.14370 0.58175 -0.00239
 O111 O 0.13918 0.58156 -0.00152
 O112 O -0.14526 0.40892 -0.00265
 H113 H -0.00347 0.36705 -0.20132
 H114 H -0.20159 0.62547 -0.00268
 H115 H -0.00070 0.36859 0.19813
 H116 H 0.19718 0.62510 -0.00066
 H117 H -0.30611 0.45172 -0.08657
 H118 H -0.30494 0.44714 0.08217
 H119 H -0.08333 0.54047 0.30177
 H120 H 0.08401 0.54468 0.30200
 H121 H 0.30086 0.45013 0.07998
 H122 H 0.30141 0.51752 -0.07529
 H123 H 0.16827 0.49305 -0.30696
 H124 H -0.08199 0.54177 -0.30488
 O125 O 0.82142 0.17091 0.63378
 O126 O 0.91579 0.08379 0.74346
 C127 C 0.84757 0.14630 0.72211
 O128 O 0.83015 -0.17645 0.36275
 O129 O 0.91989 -0.08474 0.25511
 C130 C 0.85558 -0.15138 0.27536
 O131 O 0.82340 -0.17043 0.63417
 O132 O 0.91589 -0.08150 0.74385
 C133 C 0.84914 -0.14597 0.72248
 O134 O 0.82872 0.17822 0.35945
 O135 O 0.91850 0.08572 0.25265
 C136 C 0.85315 0.15214 0.27140
 Zr137 Zr 0.87975 0.12678 0.49785
 O138 O 0.72567 0.14215 0.49430
 O139 O 0.89768 0.28046 0.50003
 Zr140 Zr 0.87795 -0.12086 0.49876
 O141 O 0.72314 -0.11744 0.48836
 O142 O 0.87659 -0.27566 0.50822
 O143 O 0.85913 0.00304 0.58533
 O144 O 0.86067 0.00264 0.41302
 O145 O 1.17484 0.17787 0.36494
 O146 O 1.08574 0.08441 0.25579
 C147 C 1.15037 0.15085 0.27657
 O148 O 1.17651 -0.17271 0.63888
 O149 O 1.08532 -0.08187 0.74620
 C150 C 1.15021 -0.14802 0.72635
 O151 O 1.17356 -0.17649 0.36516
 O152 O 1.08497 -0.08330 0.25580
 C153 C 1.14895 -0.15059 0.27677
 O154 O 1.17883 0.17365 0.64219
 O155 O 1.08512 0.08463 0.74858
 C156 C 1.15227 0.14929 0.73029
 Zr157 Zr 1.12610 0.12531 0.50254
 O158 O 1.28093 0.12423 0.49652
 O159 O 1.12558 0.28016 0.51007
 Zr160 Zr 1.12509 -0.12184 0.50163
 O161 O 1.27995 -0.11891 0.49530
 O162 O 1.12589 -0.27668 0.51008
 Zr163 Zr 1.00159 0.00176 0.64663
 Zr164 Zr 1.00207 0.00176 0.35380
 O165 O 1.14349 0.00165 0.41724
 O166 O 1.14469 0.00143 0.59038
 O167 O 1.00318 0.14489 0.41188
 O168 O 1.00123 -0.13952 0.58502
 O169 O 1.00231 0.14360 0.58607
 O170 O 1.00153 -0.14090 0.41257
 H171 H 0.80299 0.00211 0.36831
 H172 H 1.00043 -0.19798 0.62799
 H173 H 1.20168 0.00108 0.37459
 H174 H 1.00183 0.20114 0.63034
 H175 H 0.91896 -0.30123 0.45582
 H176 H 1.08533 -0.30183 0.45505
 H177 H 1.30444 -0.08388 0.55416
 H178 H 1.30532 0.08519 0.55279
 H179 H 1.08135 0.30415 0.45733
 H180 H 0.83077 0.30834 0.50111
 H181 H 0.69810 0.07729 0.47773
 H182 H 0.69896 -0.07840 0.54424
   
