data_POSCAR
  _audit_creation_date              2014-09-24
  _audit_creation_method            'ToBaCCo'
  _symmetry_space_group_name_H-M    'P1'
  _symmetry_Int_Tables_number       1
  _symmetry_cell_setting            triclinic
  loop_
  _symmetry_equiv_pos_as_xyz
 x,y,z
_cell_length_a 24.0151
_cell_length_b 23.7550
_cell_length_c 23.8536
_cell_angle_alpha 87.374600
_cell_angle_beta 89.586600
_cell_angle_gamma 91.459500
loop_
  _atom_site_label
  _atom_site_type_symbol
  _atom_site_fract_x
  _atom_site_fract_y
  _atom_site_fract_z
C1 C 0.18633 0.47667 1.10293
 H2 H 0.21238 0.44022 1.10400
 C3 C 0.14351 0.48005 1.14278
 H4 H 0.13882 0.44600 1.17410
 C5 C 0.16011 0.56283 1.05826
 H6 H 0.16601 0.59426 1.02431
 C7 C 0.11685 0.56792 1.09701
 H8 H 0.09025 0.60402 1.09264
 N9 N 0.19357 0.51755 1.06150
 C10 C 0.33193 0.56897 0.94875
 H11 H 0.32750 0.53544 0.91978
 C12 C 0.37596 0.60816 0.94216
 H13 H 0.40498 0.60463 0.90759
 C14 C 0.30059 0.61227 1.03027
 H15 H 0.27194 0.61260 1.06541
 C16 C 0.34442 0.65242 1.02540
 H17 H 0.34815 0.68329 1.05710
 Zn18 Zn 0.24389 0.50967 1.00053
 N19 N 0.29553 0.57137 0.99239
 C20 C 0.19642 0.55138 0.89886
 N21 N 0.19892 0.50586 0.93547
 C22 C 0.16344 0.46073 0.93118
 C23 C 0.12336 0.46028 0.88893
 C24 C 0.15640 0.55306 0.85655
 C25 C 0.32097 0.44461 1.05842
 C26 C 0.36054 0.40316 1.06726
 C27 C 0.33275 0.36285 0.98036
 C28 C 0.29327 0.40505 0.97332
 N29 N 0.28843 0.44509 1.01200
 H30 H 0.22354 0.58772 0.90416
 H31 H 0.16484 0.42597 0.96203
 H32 H 0.09421 0.42486 0.88783
 H33 H 0.15368 0.59040 0.82898
 H34 H 0.31717 0.47758 1.08794
 H35 H 0.38658 0.40417 1.10412
 H36 H 0.33580 0.33158 0.94901
 H37 H 0.26796 0.40684 0.93605
 C38 C 0.38338 0.65020 0.98104
 C39 C 0.10715 0.52589 1.13969
 C40 C 0.36783 0.36229 1.02746
 C41 C 0.11907 0.50731 0.85133
 C42 C 0.83698 0.55404 -0.06179
 H43 H 0.83469 0.58715 -0.03224
 C44 C 0.88043 0.55459 -0.10090
 H45 H 0.91129 0.58870 -0.10173
 C46 C 0.80015 0.46859 -0.09549
 H47 H 0.76934 0.43462 -0.09249
 C48 C 0.84292 0.46749 -0.13538
 H49 H 0.84299 0.43340 -0.16389
 N50 N 0.79801 0.51149 -0.05978
 C51 C 0.66143 0.58018 0.03337
 H52 H 0.65959 0.55008 0.06882
 C53 C 0.62144 0.62154 0.02781
 H54 H 0.58889 0.62263 0.05928
 C55 C 0.70355 0.61121 -0.05319
 H56 H 0.73438 0.60564 -0.08555
 C57 C 0.66408 0.65300 -0.06065
 H58 H 0.66544 0.68016 -0.09841
 Zn59 Zn 0.74536 0.51133 -0.00084
 N60 N 0.70122 0.57567 -0.00688
 C61 C 0.79120 0.55788 0.09548
 N62 N 0.78743 0.51050 0.06570
 C63 C 0.82201 0.46680 0.07585
 C64 C 0.86362 0.47046 0.11631
 C65 C 0.83230 0.56342 0.13603
 C66 C 0.66247 0.45194 -0.05172
 C67 C 0.61918 0.41277 -0.05801
 C68 C 0.64219 0.36950 0.03225
 C69 C 0.68541 0.40977 0.03681
 N70 N 0.69446 0.44993 -0.00496
 H71 H 0.76479 0.59299 0.08536
 H72 H 0.81946 0.43054 0.05006
 H73 H 0.89245 0.43640 0.12135
 H74 H 0.83611 0.60233 0.15785
 H75 H 0.67010 0.48495 -0.08382
 H76 H 0.59400 0.41547 -0.09550
 H77 H 0.63614 0.33760 0.06568
 H78 H 0.71087 0.40961 0.07401
 C79 C 0.62227 0.65835 -0.02002
 C80 C 0.88432 0.51058 -0.13778
 C81 C 0.60788 0.37137 -0.01551
 C82 C 0.86975 0.51989 0.14623
 C83 C -0.03515 0.33507 0.43797
 H84 H -0.04669 0.34742 0.47945
 C85 C -0.03513 0.37490 0.39314
 H86 H -0.04886 0.41664 0.40153
 C87 C -0.00526 0.26485 0.37821
 H88 H 0.00762 0.22240 0.37241
 C89 C -0.00525 0.30317 0.33196
 H90 H 0.00725 0.28913 0.29125
 N91 N -0.01861 0.28169 0.43031
 C92 C -0.05601 0.14608 0.55642
 H93 H -0.01793 0.14869 0.58024
 C94 C -0.09431 0.10197 0.56813
 H95 H -0.08583 0.07091 0.60145
 C96 C -0.11190 0.18225 0.48227
 H97 H -0.11786 0.21322 0.44833
 C98 C -0.15130 0.13851 0.49239
 H99 H -0.18831 0.13726 0.46684
 Zn100 Zn -0.00533 0.23551 0.49593
 N101 N -0.06507 0.18467 0.51378
 C102 C -0.02476 0.27970 0.60288
 N103 N 0.00848 0.28331 0.55637
 C104 C 0.04964 0.32360 0.55021
 C105 C 0.05819 0.36270 0.59148
 C106 C -0.01758 0.31787 0.64522
 C107 C 0.04640 0.14658 0.44858
 C108 C 0.08771 0.10811 0.43892
 C109 C 0.14774 0.15799 0.50188
 C110 C 0.10535 0.19603 0.50986
 N111 N 0.05591 0.18973 0.48313
 H112 H -0.05772 0.24796 0.60683
 H113 H 0.07498 0.32618 0.51244
 H114 H 0.09051 0.39510 0.58541
 H115 H -0.04429 0.31351 0.68194
 H116 H 0.00597 0.14114 0.42963
 H117 H 0.07924 0.07361 0.41179
 H118 H 0.18694 0.16363 0.52328
 H119 H 0.11171 0.22978 0.53811
 C120 C -0.14183 0.09681 0.53497
 C121 C -0.01772 0.35980 0.33932
 C122 C 0.13861 0.11298 0.46650
 C123 C 0.02365 0.36091 0.63920
 C124 C 0.97343 0.67257 0.59977
 H125 H 0.93689 0.69821 0.59838
 C126 C 0.97836 0.63002 0.64189
 H127 H 0.94573 0.62470 0.67327
 C128 C 1.06055 0.64944 0.56096
 H129 H 1.09232 0.65726 0.52896
 C130 C 1.06709 0.60649 0.60201
 H131 H 1.10402 0.58127 0.60133
 N132 N 1.01432 0.68133 0.56043
 C133 C 0.91734 0.78486 0.44945
 H134 H 0.92928 0.76212 0.41326
 C135 C 0.87563 0.82459 0.44417
 H136 H 0.85492 0.83098 0.40427
 C137 C 0.93302 0.80821 0.54363
 H138 H 0.95752 0.80350 0.58136
 C139 C 0.89117 0.84809 0.54034
 H140 H 0.88381 0.87349 0.57602
 Zn141 Zn 1.01139 0.73551 0.50002
 N142 N 0.94542 0.77771 0.49850
 C143 C 0.97579 0.65735 0.42525
 N144 N 1.01798 0.69497 0.43412
 C145 C 1.06417 0.69825 0.40061
 C146 C 1.06919 0.66211 0.35620
 C147 C 0.97876 0.62110 0.38116
 C148 C 1.09869 0.79145 0.55518
 C149 C 1.13662 0.83586 0.56276
 C150 C 1.11519 0.87314 0.46959
 C151 C 1.07723 0.82842 0.46405
 N152 N 1.06995 0.78865 0.50640
 H153 H 0.94038 0.65453 0.45364
 H154 H 1.09804 0.72721 0.40957
 H155 H 1.10683 0.66376 0.33082
 H156 H 0.94558 0.58999 0.37670
 H157 H 1.09068 0.76053 0.58910
 H158 H 1.15858 0.83828 0.60212
 H159 H 1.11919 0.90524 0.43601
 H160 H 1.05226 0.82617 0.42661
 C161 C 0.86238 0.85713 0.48970
 C162 C 1.02545 0.59565 0.64274
 C163 C 1.14531 0.87715 0.51961
 C164 C 1.02608 0.62306 0.34602
 C165 C 0.45286 -0.05282 0.34631
 H166 H 0.48861 -0.07956 0.34911
 C167 C 0.41118 -0.05866 0.38693
 H168 H 0.41468 -0.09053 0.42060
 C169 C 0.40630 0.02272 0.30013
 H170 H 0.40519 0.05497 0.26679
 C171 C 0.36356 0.01857 0.34033
 H172 H 0.32909 0.04686 0.33640
 N173 N 0.44952 -0.01315 0.30368
 C174 C 0.54330 -0.06785 0.16330
 H175 H 0.56736 -0.02956 0.15322
 C176 C 0.54019 -0.11011 0.12467
 H177 H 0.56408 -0.10388 0.08625
 C178 C 0.48434 -0.12136 0.22659
 H179 H 0.46116 -0.12519 0.26549
 C180 C 0.48130 -0.16544 0.18985
 H181 H 0.45615 -0.20273 0.20152
 Zn182 Zn 0.51202 -0.00853 0.25564
 N183 N 0.51444 -0.07340 0.21247
 C184 C 0.61190 -0.04400 0.31036
 N185 N 0.57312 -0.00348 0.30439
 C186 C 0.57152 0.04010 0.33925
 C187 C 0.60929 0.04381 0.38294
 C188 C 0.65061 -0.04204 0.35395
 C189 C 0.46778 0.06189 0.16885
 C190 C 0.46872 0.10610 0.12799
 C191 C 0.55889 0.13574 0.16179
 C192 C 0.55582 0.09169 0.20250
 N193 N 0.51081 0.05570 0.20528
 H194 H 0.61165 -0.07870 0.28254
 H195 H 0.53949 0.07108 0.33406
 H196 H 0.60668 0.07845 0.41079
 H197 H 0.68110 -0.07465 0.35798
 H198 H 0.43337 0.03155 0.17060
 H199 H 0.43484 0.10940 0.09844
 H200 H 0.59565 0.16316 0.15927
 H201 H 0.59045 0.08508 0.23047
 C202 C 0.50728 -0.15927 0.13696
 C203 C 0.36619 -0.02243 0.38465
 C204 C 0.51507 0.14339 0.12399
 C205 C 0.64867 0.00188 0.39163
 C206 C 0.56348 -0.02242 0.66959
 H207 H 0.53038 -0.05419 0.67000
 C208 C 0.60698 -0.02439 0.63083
 H209 H 0.60655 -0.05784 0.60153
 C210 C 0.60062 0.06242 0.70434
 H211 H 0.59689 0.09699 0.73194
 C212 C 0.64482 0.06238 0.66564
 H213 H 0.67548 0.09667 0.66422
 N214 N 0.56108 0.02032 0.70545
 C215 C 0.43986 -0.04643 0.82973
 H216 H 0.41062 -0.01252 0.82728
 C217 C 0.43129 -0.09129 0.86879
 H218 H 0.39539 -0.09154 0.89658
 C219 C 0.52335 -0.08587 0.79783
 H220 H 0.55965 -0.08309 0.77076
 C221 C 0.51629 -0.13175 0.83623
 H222 H 0.54688 -0.16440 0.83696
 Zn223 Zn 0.49472 0.02143 0.74859
 N224 N 0.48547 -0.04427 0.79557
 C225 C 0.39656 -0.01554 0.69371
 N226 N 0.43677 0.02556 0.69620
 C227 C 0.43914 0.07016 0.65846
 C228 C 0.40005 0.07465 0.61578
 C229 C 0.35643 -0.01265 0.65174
 C230 C 0.53146 0.08954 0.83553
 C231 C 0.52449 0.12780 0.87776
 C232 C 0.43568 0.15207 0.83771
 C233 C 0.44463 0.11400 0.79594
 N234 N 0.49160 0.08313 0.79595
 H235 H 0.39595 -0.05105 0.72367
 H236 H 0.47203 0.10187 0.66125
 H237 H 0.40285 0.11022 0.58572
 H238 H 0.32446 -0.04546 0.65129
 H239 H 0.56743 0.06303 0.83581
 H240 H 0.55561 0.13049 0.91018
 H241 H 0.39720 0.17488 0.83821
 H242 H 0.41248 0.10690 0.76546
 C243 C 0.47037 -0.13401 0.87337
 C244 C 0.64843 0.01848 0.62842
 C245 C 0.47555 0.15900 0.87954
 C246 C 0.35853 0.03258 0.61149
 C247 C 0.25115 0.00209 0.49482
 C248 C 0.75277 -0.02772 0.51374
 C249 C 0.48830 0.25758 1.00549
 C250 C 0.50200 0.76405 0.00009
 C251 C 0.99336 0.49857 0.25140
 C252 C -0.00397 0.47053 0.75225
 C253 C 0.18025 0.06949 0.45886
 C254 C 0.21359 0.05186 0.50041
 H255 H 0.18020 0.04780 0.41984
 H256 H 0.21006 0.07020 0.54104
 C257 C 0.57802 0.69948 -0.03092
 C258 C 0.54956 0.72337 0.01010
 H259 H 0.56909 0.71006 -0.07447
 H260 H 0.55938 0.71197 0.05333
 C261 C 0.82213 -0.09703 0.48128
 C262 C 0.79116 -0.07732 0.52277
 H263 H 0.81717 -0.07940 0.43895
 H264 H 0.79551 -0.09532 0.56502
 C265 C 0.41284 0.32106 1.03658
 C266 C 0.43692 0.29319 0.99544
 H267 H 0.42969 0.31631 1.07853
 H268 H 0.42387 0.30123 0.95254
 C269 C 0.82029 0.04717 0.54530
 C270 C 0.78924 0.02546 0.50476
 H271 H 0.81998 0.02604 0.58656
 H272 H 0.79361 0.04346 0.46236
 C273 C 0.43392 0.68768 -0.02517
 C274 C 0.44678 0.73081 0.00734
 H275 H 0.46328 0.67832 -0.05797
 H276 H 0.41756 0.74284 0.03901
 C277 C 0.18357 -0.07467 0.52879
 C278 C 0.21436 -0.04992 0.48717
 H279 H 0.18758 -0.06016 0.57102
 H280 H 0.21073 -0.06546 0.44529
 C281 C 0.56091 0.33099 0.97611
 C282 C 0.53693 0.29789 1.01699
 H283 H 0.54435 0.32914 0.93405
 H284 H 0.54965 0.30219 1.06005
 C285 C 0.52160 0.18724 1.07827
 C286 C 0.47912 0.21530 1.05490
 H287 H 0.56371 0.19773 1.06400
 H288 H 0.43690 0.20537 1.06910
 C289 C 0.03285 0.54827 0.68462
 C290 C -0.00955 0.52302 0.71359
 H291 H 0.07424 0.53174 0.68959
 H292 H -0.05155 0.53618 0.70492
 C293 C 0.46324 0.82240 -0.08052
 C294 C 0.50590 0.79410 -0.05792
 H295 H 0.42292 0.81875 -0.05981
 H296 H 0.54734 0.80283 -0.07474
 C297 C 0.98828 0.39896 0.29329
 C298 C 0.98932 0.45769 0.29831
 H299 H 0.99538 0.38302 0.25202
 H300 H 0.98913 0.47329 0.34025
 C301 C 0.49881 0.79845 0.09824
 C302 C 0.50746 0.80744 0.04024
 H303 H 0.48122 0.75806 0.11347
 H304 H 0.52057 0.84930 0.02475
 C305 C 0.03125 0.40493 0.68084
 C306 C -0.00957 0.42016 0.71540
 H307 H 0.07066 0.42818 0.68052
 H308 H -0.05045 0.40031 0.71225
 C309 C 0.46259 0.19518 0.92658
 C310 C 0.50164 0.22353 0.95461
 H311 H 0.41913 0.19941 0.93775
 H312 H 0.54503 0.21932 0.94315
 C313 C 1.03382 0.58020 0.30370
 C314 C 0.99067 0.55643 0.27710
 H315 H 1.07536 0.56453 0.29810
 H316 H 0.94959 0.57278 0.28398
 C317 C 1.06067 0.53089 0.17564
 C318 C 1.04455 0.49269 0.21999
 H319 H 1.03447 0.56691 0.16797
 H320 H 1.07003 0.45677 0.22987
 C321 C 0.69276 0.02033 0.58473
 C322 C 0.71345 -0.02663 0.56412
 H323 H 0.70776 0.06139 0.56880
 H324 H 0.69825 -0.06721 0.58131
 C325 C -0.06897 0.51225 0.82127
 C326 C -0.05189 0.46719 0.79445
 H327 H -0.04720 0.55238 0.81336
 H328 H -0.07013 0.42603 0.80569
 C329 C 0.32352 -0.02946 0.42927
 C330 C 0.28976 0.01133 0.44440
 H331 H 0.32195 -0.06931 0.45339
 H332 H 0.29305 0.05283 0.42371
 C333 C 0.07285 0.51217 0.81060
 C334 C 0.04975 0.46766 0.78598
 H335 H 0.05696 0.55379 0.80129
 H336 H 0.06636 0.42629 0.79512
 C337 C 0.68652 0.00657 0.44003
 C338 C 0.71635 -0.03574 0.46249
 H339 H 0.68869 0.04693 0.45949
 H340 H 0.71168 -0.07755 0.44664
 C341 C 0.91704 0.52986 0.18440
 C342 C 0.94398 0.48851 0.21240
 H343 H 0.92941 0.57340 0.18970
 H344 H 0.93093 0.44532 0.20619
 C345 C 0.31881 0.03781 0.56462
 C346 C 0.28723 -0.00502 0.54663
 H347 H 0.31727 0.07835 0.54192
 H348 H 0.29120 -0.04694 0.56560
   
