data_POSCAR
  _audit_creation_date              2014-09-24
  _audit_creation_method            'ToBaCCo'
  _symmetry_space_group_name_H-M    'P1'
  _symmetry_Int_Tables_number       1
  _symmetry_cell_setting            triclinic
  loop_
  _symmetry_equiv_pos_as_xyz
 x,y,z
_cell_length_a 36.5388
_cell_length_b 40.2745
_cell_length_c 56.2753
_cell_angle_alpha 90.265300
_cell_angle_beta 89.513500
_cell_angle_gamma 118.061600
loop_
  _atom_site_label
  _atom_site_type_symbol
  _atom_site_fract_x
  _atom_site_fract_y
  _atom_site_fract_z
C1 C -0.00869 0.47703 1.25022
 C2 C 0.03354 0.49437 1.24925
 C3 C 0.05925 0.50782 1.27104
 C4 C 0.05580 0.50122 1.22614
 C5 C -0.03395 0.47093 1.22846
 C6 C -0.03177 0.46314 1.27297
 C7 C 0.05197 0.52986 1.28788
 C8 C 0.07658 0.54306 1.30814
 C9 C 0.10990 0.53506 1.31191
 C10 C 0.11711 0.51317 1.29469
 C11 C 0.09224 0.49986 1.27454
 C12 C 0.08483 0.53786 1.21955
 C13 C 0.10463 0.54462 1.19741
 C14 C 0.09599 0.51471 1.18160
 C15 C 0.06814 0.47791 1.18862
 C16 C 0.04799 0.47122 1.21065
 C17 C -0.06690 0.43522 1.22354
 C18 C -0.09139 0.42943 1.20345
 C19 C -0.08325 0.45934 1.18779
 C20 C -0.05082 0.49521 1.19306
 C21 C -0.02648 0.50101 1.21322
 C22 C -0.02439 0.43892 1.28769
 C23 C -0.04774 0.42450 1.30845
 C24 C -0.07918 0.43366 1.31479
 C25 C -0.08599 0.45850 1.30016
 C26 C -0.06272 0.47278 1.27938
 H27 H 0.02728 0.53714 1.28526
 H28 H 0.06883 0.55951 1.32037
 H29 H 0.14223 0.50624 1.29672
 H30 H 0.09864 0.48312 1.26169
 H31 H 0.09157 0.56128 1.23140
 H32 H 0.12694 0.57318 1.19283
 H33 H 0.02616 0.44266 1.21562
 H34 H -0.07367 0.41179 1.23530
 H35 H -0.11701 0.40167 1.20061
 H36 H -0.04427 0.51885 1.18152
 H37 H -0.00200 0.52905 1.21704
 H38 H -0.00101 0.43071 1.28290
 H39 H -0.04165 0.40561 1.31940
 H40 H -0.10885 0.46739 1.30458
 H41 H -0.06874 0.49157 1.26829
 H42 H 0.06142 0.45439 1.17685
 C43 C 0.46942 0.46292 1.25399
 C44 C 0.44742 0.48245 1.25468
 C45 C 0.43542 0.49311 1.27768
 C46 C 0.43548 0.49516 1.23270
 C47 C 0.47683 0.44727 1.23148
 C48 C 0.48787 0.45688 1.27594
 C49 C 0.41221 0.46561 1.29466
 C50 C 0.40186 0.47595 1.31645
 C51 C 0.41474 0.51394 1.32173
 C52 C 0.43708 0.54136 1.30444
 C53 C 0.44718 0.53097 1.28259
 C54 C 0.39437 0.48796 1.22960
 C55 C 0.38311 0.50093 1.20940
 C56 C 0.41271 0.52153 1.19190
 C57 C 0.45414 0.52917 1.19521
 C58 C 0.46534 0.51613 1.21543
 C59 C 0.51682 0.45278 1.22595
 C60 C 0.52417 0.43736 1.20532
 C61 C 0.49160 0.41620 1.18957
 C62 C 0.45144 0.41012 1.19536
 C63 C 0.44406 0.42539 1.21612
 C64 C 0.51481 0.48755 1.28988
 C65 C 0.53194 0.48174 1.31054
 C66 C 0.52258 0.44522 1.31763
 C67 C 0.49651 0.41457 1.30324
 C68 C 0.47934 0.42042 1.28259
 H69 H 0.40220 0.43616 1.29104
 H70 H 0.38414 0.45426 1.32933
 H71 H 0.44631 0.57076 1.30756
 H72 H 0.46468 0.55255 1.26961
 H73 H 0.37093 0.47217 1.24284
 H74 H 0.35109 0.49487 1.20745
 H75 H 0.49749 0.52292 1.21782
 H76 H 0.54248 0.46902 1.23770
 H77 H 0.55527 0.44158 1.20214
 H78 H 0.42565 0.39348 1.18379
 H79 H 0.41271 0.41980 1.22032
 H80 H 0.52262 0.51601 1.28473
 H81 H 0.55242 0.50586 1.32108
 H82 H 0.48976 0.38613 1.30758
 H83 H 0.45919 0.39647 1.27183
 H84 H 0.47834 0.54583 1.18267
 C85 C 0.54219 1.02107 1.24734
 C86 C 0.51889 0.98293 1.24735
 C87 C 0.50391 0.96110 1.26975
 C88 C 0.50689 0.96084 1.22501
 C89 C 0.55652 1.04324 1.22504
 C90 C 0.55376 1.04289 1.26977
 C91 C 0.53156 0.96264 1.28739
 C92 C 0.51673 0.94203 1.30842
 C93 C 0.47372 0.91897 1.31210
 C94 C 0.44639 0.91740 1.29412
 C95 C 0.46130 0.93805 1.27320
 C96 C 0.51851 0.93263 1.22142
 C97 C 0.50800 0.91166 1.20048
 C98 C 0.48515 0.91807 1.18284
 C99 C 0.47314 0.94620 1.18651
 C100 C 0.48374 0.96726 1.20753
 C101 C 0.54619 1.07206 1.22093
 C102 C 0.55877 1.09322 1.20008
 C103 C 0.58223 1.08603 1.18265
 C104 C 0.59346 1.05766 1.18724
 C105 C 0.58081 1.03652 1.20820
 C106 C 0.52343 1.04279 1.28521
 C107 C 0.53485 1.06347 1.30634
 C108 C 0.57713 1.08481 1.31244
 C109 C 0.60723 1.08483 1.29663
 C110 C 0.59568 1.06435 1.27549
 H111 H 0.56467 0.97986 1.28487
 H112 H 0.53938 0.94474 1.32151
 H113 H 0.41318 0.90008 1.29620
 H114 H 0.43947 0.93636 1.25974
 H115 H 0.53625 0.92721 1.23475
 H116 H 0.51776 0.89027 1.19807
 H117 H 0.47413 0.98869 1.21013
 H118 H 0.52795 1.07803 1.23388
 H119 H 0.55018 1.11528 1.19823
 H120 H 0.61186 1.05153 1.17449
 H121 H 0.58991 1.01492 1.21128
 H122 H 0.49087 1.02669 1.28085
 H123 H 0.51010 1.06218 1.31752
 H124 H 0.63999 1.10090 1.30055
 H125 H 0.61950 1.06487 1.26367
 H126 H 0.45627 0.95253 1.17314
 C127 C 1.01820 0.51487 0.74621
 C128 C 0.97660 0.49098 0.74651
 C129 C 0.95181 0.48239 0.72435
 C130 C 0.95399 0.47244 0.76875
 C131 C 1.04185 0.53113 0.76844
 C132 C 1.04170 0.52558 0.72337
 C133 C 0.95337 0.51162 0.71016
 C134 C 0.92994 0.50357 0.68945
 C135 C 0.90438 0.46618 0.68252
 C136 C 0.90203 0.43688 0.69708
 C137 C 0.92557 0.44498 0.71780
 C138 C 0.91624 0.47190 0.77439
 C139 C 0.89412 0.45364 0.79483
 C140 C 0.90946 0.43562 0.81018
 C141 C 0.94679 0.43551 0.80423
 C142 C 0.96883 0.45367 0.78371
 C143 C 1.07992 0.53146 0.77211
 C144 C 1.10255 0.54695 0.79281
 C145 C 1.08756 0.56266 0.81048
 C146 C 1.04957 0.56266 0.80645
 C147 C 1.02720 0.54740 0.78566
 C148 C 1.04002 0.49775 0.70769
 C149 C 1.06113 0.50764 0.68596
 C150 C 1.08440 0.54564 0.67928
 C151 C 1.08682 0.57358 0.69544
 C152 C 1.06581 0.56354 0.71726
 H153 H 0.97263 0.54071 0.71521
 H154 H 0.93187 0.52666 0.67876
 H155 H 0.88161 0.40772 0.69286
 H156 H 0.92342 0.42204 0.72871
 H157 H 0.90382 0.48563 0.76290
 H158 H 0.86473 0.45321 0.79823
 H159 H 0.99730 0.45279 0.77939
 H160 H 1.09202 0.51935 0.75897
 H161 H 1.13145 0.54608 0.79454
 H162 H 1.03705 0.57467 0.81941
 H163 H 0.99843 0.54841 0.78298
 H164 H 1.02216 0.46826 0.71227
 H165 H 1.05884 0.48534 0.67423
 H166 H 1.10510 0.60322 0.69173
 H167 H 1.06785 0.58542 0.72929
 H168 H 0.95900 0.42139 0.81554
 C169 C 0.51982 0.53619 0.75098
 C170 C 0.54301 0.51780 0.75055
 C171 C 0.55441 0.50593 0.72784
 C172 C 0.55734 0.50805 0.77286
 C173 C 0.50117 0.54079 0.77349
 C174 C 0.51214 0.55255 0.72911
 C175 C 0.52400 0.48543 0.71093
 C176 C 0.53472 0.47384 0.68976
 C177 C 0.57605 0.48187 0.68534
 C178 C 0.60639 0.50246 0.70228
 C179 C 0.59565 0.51417 0.72341
 C180 C 0.54976 0.47101 0.77689
 C181 C 0.56266 0.46156 0.79795
 C182 C 0.58342 0.48910 0.81541
 C183 C 0.59204 0.52636 0.81100
 C184 C 0.57917 0.53578 0.78994
 C185 C 0.50846 0.57665 0.78086
 C186 C 0.49214 0.58130 0.80240
 C187 C 0.46814 0.55002 0.81694
 C188 C 0.45955 0.51401 0.80905
 C189 C 0.47594 0.50940 0.78752
 C190 C 0.54518 0.57644 0.71432
 C191 C 0.53773 0.59174 0.69384
 C192 C 0.49717 0.58354 0.68772
 C193 C 0.46421 0.56041 0.70290
 C194 C 0.47169 0.54511 0.72339
 H195 H 0.49187 0.47832 0.71413
 H196 H 0.51058 0.45902 0.67692
 H197 H 0.63847 0.50922 0.69924
 H198 H 0.61957 0.52987 0.73626
 H199 H 0.53353 0.44931 0.76378
 H200 H 0.55678 0.43282 0.80025
 H201 H 0.58622 0.56473 0.78694
 H202 H 0.52728 0.60112 0.77007
 H203 H 0.49802 0.60933 0.80739
 H204 H 0.44059 0.48944 0.81973
 H205 H 0.46919 0.48137 0.78186
 H206 H 0.57677 0.58334 0.71871
 H207 H 0.56373 0.60991 0.68266
 H208 H 0.43270 0.55450 0.69931
 H209 H 0.44583 0.52724 0.73474
 H210 H 0.60852 0.54822 0.82398
 C211 C 0.47316 -0.01196 0.75291
 C212 C 0.48492 0.02548 0.75140
 C213 C 0.49143 0.04432 0.72798
 C214 C 0.49204 0.04949 0.77284
 C215 C 0.46119 -0.03255 0.77585
 C216 C 0.47088 -0.03457 0.73146
 C217 C 0.52979 0.07526 0.72251
 C218 C 0.53654 0.09265 0.70033
 C219 C 0.50486 0.07940 0.68325
 C220 C 0.46608 0.04918 0.68908
 C221 C 0.45941 0.03172 0.71124
 C222 C 0.51846 0.05020 0.79104
 C223 C 0.52568 0.07359 0.81081
 C224 C 0.50674 0.09694 0.81268
 C225 C 0.48103 0.09670 0.79421
 C226 C 0.47369 0.07319 0.77453
 C227 C 0.43042 -0.03156 0.79045
 C228 C 0.41826 -0.05242 0.81148
 C229 C 0.43635 -0.07498 0.81836
 C230 C 0.46713 -0.07596 0.80344
 C231 C 0.47923 -0.05503 0.78248
 C232 C 0.43385 -0.06691 0.72615
 C233 C 0.43104 -0.08840 0.70603
 C234 C 0.46553 -0.07804 0.69068
 C235 C 0.50296 -0.04608 0.69657
 C236 C 0.50561 -0.02459 0.71670
 H237 H 0.55464 0.08567 0.73537
 H238 H 0.56633 0.11672 0.69679
 H239 H 0.44102 0.03885 0.67636
 H240 H 0.42932 0.00833 0.71534
 H241 H 0.53402 0.03306 0.78976
 H242 H 0.54697 0.07400 0.82417
 H243 H 0.45355 0.07342 0.76058
 H244 H 0.41540 -0.01504 0.78539
 H245 H 0.39431 -0.05110 0.82231
 H246 H 0.48177 -0.09314 0.80727
 H247 H 0.50271 -0.05648 0.77129
 H248 H 0.40689 -0.07538 0.73755
 H249 H 0.40181 -0.11320 0.70309
 H250 H 0.53029 -0.03738 0.68544
 H251 H 0.53479 -0.00016 0.72079
 H252 H 0.46647 0.11471 0.79506
 O253 O 0.41406 0.69002 0.97823
 O254 O 0.40350 0.74937 0.98210
 C255 C 0.37862 0.75173 0.96744
 O256 O 0.33965 0.73165 0.96881
 O257 O 0.27400 0.66640 0.97195
 C258 C 0.27485 0.63837 0.96203
 O259 O 0.29534 0.62293 0.97000
 O260 O 0.36669 0.62951 0.98199
 C261 C 0.39922 0.65569 0.97253
 O262 O 0.40610 0.67958 1.02553
 O263 O 0.39116 0.73656 1.02912
 C264 C 0.36667 0.75063 1.03059
 O265 O 0.33703 0.74264 1.01618
 O266 O 0.27353 0.67580 1.01956
 C267 C 0.26008 0.64174 1.02554
 O268 O 0.27283 0.62012 1.01626
 O269 O 0.34484 0.62830 1.02839
 C270 C 0.38122 0.64913 1.03570
 Cr271 Cr 0.40135 0.71260 1.00358
 Cr272 Cr 0.30743 0.70320 0.99432
 Cr273 Cr 0.32080 0.62735 0.99916
 O274 O 0.34312 0.68095 0.99901
 O275 O 0.59654 0.33566 0.98306
 O276 O 0.59948 0.27326 0.97397
 C277 C 0.61965 0.25571 0.96893
 O278 O 0.65145 0.26014 0.98033
 O279 O 0.71769 0.32401 0.97224
 C280 C 0.73625 0.35935 0.96916
 O281 O 0.73178 0.38203 0.98314
 O282 O 0.66091 0.38114 0.97548
 C283 C 0.62239 0.36372 0.97099
 O284 O 0.59875 0.32295 1.03030
 O285 O 0.59911 0.25955 1.02104
 C286 C 0.62597 0.25434 1.03239
 O287 O 0.66444 0.27117 1.02740
 O288 O 0.73324 0.33323 1.01948
 C289 C 0.73632 0.35955 1.03323
 O290 O 0.71598 0.37747 1.03025
 O291 O 0.64763 0.38133 1.02256
 C292 C 0.61733 0.35786 1.03487
 Cr293 Cr 0.60059 0.29882 1.00207
 Cr294 Cr 0.69063 0.29812 0.99992
 Cr295 Cr 0.68805 0.37857 1.00282
 O296 O 0.65961 0.32506 1.00162
 O297 O 0.63344 0.36474 0.52218
 O298 O 0.70680 0.36906 0.52469
 C299 C 0.73021 0.35390 0.52651
 O300 O 0.72796 0.32787 0.51274
 O301 O 0.66514 0.26256 0.52228
 C302 C 0.62807 0.24312 0.52936
 O303 O 0.59752 0.24499 0.52001
 O304 O 0.59115 0.30478 0.53105
 C305 C 0.60671 0.33954 0.53557
 O306 O 0.63884 0.36460 0.47432
 O307 O 0.71411 0.37344 0.47683
 C308 C 0.72107 0.35221 0.46283
 O309 O 0.70681 0.31725 0.46632
 O310 O 0.64604 0.25069 0.47561
 C311 C 0.61126 0.24308 0.46643
 O312 O 0.58859 0.25698 0.47381
 O313 O 0.57890 0.31528 0.48490
 C314 C 0.60007 0.34397 0.47198
 Cr315 Cr 0.67248 0.36602 0.49948
 Cr316 Cr 0.68515 0.29039 0.49439
 Cr317 Cr 0.59122 0.28168 0.50230
 O318 O 0.64958 0.31262 0.49867
 O319 O 0.33663 0.63614 0.53009
 O320 O 0.27232 0.64336 0.51828
 C321 C 0.26767 0.66935 0.52866
 O322 O 0.28870 0.70390 0.52344
 O323 O 0.36105 0.76307 0.51936
 C324 C 0.38681 0.76372 0.53460
 O325 O 0.40485 0.74354 0.53290
 O326 O 0.40332 0.67855 0.52753
 C327 C 0.37347 0.65062 0.53752
 O328 O 0.35661 0.63460 0.48367
 O329 O 0.29319 0.64332 0.47182
 C330 C 0.27826 0.66436 0.46512
 O331 O 0.28481 0.69430 0.47595
 O332 O 0.35916 0.75089 0.47207
 C333 C 0.39829 0.76496 0.47085
 O334 O 0.41936 0.75743 0.48571
 O335 O 0.41326 0.69060 0.48021
 C336 C 0.39138 0.65654 0.47405
 Cr337 Cr 0.31599 0.64142 0.50099
 Cr338 Cr 0.32439 0.72681 0.49784
 Cr339 Cr 0.40798 0.71671 0.50641
 O340 O 0.34939 0.69484 0.50173
 C341 C 0.40338 0.52390 0.34503
 C342 C 0.42667 0.55889 0.35587
 C343 C 0.41534 0.56961 0.37895
 C344 C 0.44627 0.59888 0.39211
 C345 C 0.43663 0.61092 0.41350
 C346 C 0.39548 0.59425 0.42202
 C347 C 0.36465 0.56461 0.40899
 C348 C 0.37433 0.55248 0.38765
 C349 C 0.38323 0.60718 0.44400
 C350 C 0.40729 0.64228 0.45454
 H351 H 0.45563 0.57883 0.34769
 H352 H 0.47811 0.61250 0.38583
 H353 H 0.46162 0.63312 0.42320
 H354 H 0.33270 0.55128 0.41509
 H355 H 0.34941 0.53045 0.37777
 H356 H 0.35243 0.58948 0.45111
 H357 H 0.37734 0.50211 0.35453
 H358 H 0.43725 0.66147 0.44715
 C359 C 0.45661 0.89755 0.33284
 C360 C 0.47929 0.89451 0.35190
 C361 C 0.45910 0.87123 0.37316
 C362 C 0.48052 0.85631 0.38619
 C363 C 0.46219 0.83365 0.40608
 C364 C 0.42209 0.82590 0.41359
 C365 C 0.40095 0.84130 0.40073
 C366 C 0.41927 0.86393 0.38085
 C367 C 0.40070 0.80101 0.43405
 C368 C 0.42097 0.79147 0.45156
 H369 H 0.51269 0.90728 0.35097
 H370 H 0.51128 0.86160 0.38068
 H371 H 0.47929 0.82171 0.41507
 H372 H 0.37012 0.83592 0.40615
 H373 H 0.40228 0.87594 0.37179
 H374 H 0.36742 0.79008 0.43553
 H375 H 0.42314 0.88133 0.33381
 H376 H 0.45437 0.80348 0.45132
 C377 C 0.13518 0.54731 0.33106
 C378 C 0.13259 0.56971 0.34955
 C379 C 0.16096 0.58246 0.37022
 C380 C 0.16392 0.61310 0.38361
 C381 C 0.18967 0.62594 0.40343
 C382 C 0.21329 0.60835 0.41037
 C383 C 0.20983 0.57731 0.39720
 C384 C 0.18392 0.56438 0.37741
 C385 C 0.24083 0.62056 0.43143
 C386 C 0.25161 0.65387 0.44400
 H387 H 0.11029 0.58011 0.34890
 H388 H 0.14614 0.62724 0.37872
 H389 H 0.19024 0.64924 0.41327
 H390 H 0.22713 0.56283 0.40231
 H391 H 0.18153 0.53982 0.36823
 H392 H 0.25363 0.60252 0.43716
 H393 H 0.15991 0.53976 0.33200
 H394 H 0.24068 0.67326 0.43844
 C395 C 0.54155 0.44036 0.33961
 C396 C 0.52514 0.40669 0.35240
 C397 C 0.54421 0.40129 0.37420
 C398 C 0.52005 0.37081 0.38909
 C399 C 0.53700 0.36382 0.40944
 C400 C 0.57878 0.38731 0.41536
 C401 C 0.60297 0.41773 0.40038
 C402 C 0.58603 0.42465 0.38000
 C403 C 0.59896 0.38029 0.43614
 C404 C 0.57796 0.35307 0.45352
 H405 H 0.49590 0.38358 0.34693
 H406 H 0.48790 0.35210 0.38490
 H407 H 0.51719 0.33957 0.42001
 H408 H 0.63536 0.43600 0.40428
 H409 H 0.60618 0.44775 0.36865
 H410 H 0.63236 0.39683 0.43748
 H411 H 0.56801 0.46493 0.34656
 H412 H 0.54461 0.33652 0.45324
 C413 C 0.59090 0.10627 0.33342
 C414 C 0.56520 0.11020 0.35062
 C415 C 0.58075 0.13411 0.37217
 C416 C 0.55202 0.13071 0.38998
 C417 C 0.56471 0.15321 0.41032
 C418 C 0.60655 0.17980 0.41326
 C419 C 0.63545 0.18289 0.39575
 C420 C 0.62276 0.16065 0.37528
 C421 C 0.62097 0.20455 0.43433
 C422 C 0.59586 0.21653 0.44646
 H423 H 0.53195 0.09506 0.34875
 H424 H 0.51954 0.11052 0.38816
 H425 H 0.54176 0.14940 0.42380
 H426 H 0.66788 0.20322 0.39765
 H427 H 0.64608 0.16517 0.36197
 H428 H 0.65325 0.21600 0.43930
 H429 H 0.62397 0.12062 0.33632
 H430 H 0.56466 0.20799 0.44036
 C431 C 0.89623 0.41686 0.33670
 C432 C 0.85855 0.41643 0.34201
 C433 C 0.83408 0.39923 0.36380
 C434 C 0.80699 0.41229 0.37235
 C435 C 0.78299 0.39666 0.39272
 C436 C 0.78539 0.36733 0.40489
 C437 C 0.81155 0.35349 0.39597
 C438 C 0.83586 0.36936 0.37567
 C439 C 0.76007 0.34997 0.42639
 C440 C 0.74712 0.36968 0.44180
 H441 H 0.84642 0.42986 0.33018
 H442 H 0.80450 0.43480 0.36327
 H443 H 0.76204 0.40713 0.39857
 H444 H 0.81334 0.33046 0.40480
 H445 H 0.85522 0.35760 0.36912
 H446 H 0.75297 0.32137 0.43074
 H447 H 0.90823 0.40379 0.34896
 H448 H 0.75695 0.39919 0.43872
 C449 C 0.49811 0.39919 1.16750
 C450 C 0.53694 0.41201 1.15654
 C451 C 0.54495 0.39552 1.13470
 C452 C 0.58358 0.41550 1.12336
 C453 C 0.59333 0.40125 1.10300
 C454 C 0.56445 0.36655 1.09330
 C455 C 0.52608 0.34609 1.10488
 C456 C 0.51630 0.36037 1.12535
 C457 C 0.57415 0.35059 1.07176
 C458 C 0.60411 0.37299 1.05512
 H459 H 0.56303 0.43666 1.16371
 H460 H 0.60657 0.44230 1.13036
 H461 H 0.62393 0.41727 1.09533
 H462 H 0.50356 0.31898 1.09803
 H463 H 0.48664 0.34344 1.13385
 H464 H 0.55694 0.32052 1.06879
 H465 H 0.47097 0.37710 1.15917
 H466 H 0.61955 0.40327 1.05708
 C467 C 0.89155 0.45448 1.16628
 C468 C 0.86779 0.41964 1.15540
 C469 C 0.84272 0.41423 1.13377
 C470 C 0.82954 0.38067 1.12092
 C471 C 0.80550 0.37391 1.10056
 C472 C 0.79412 0.40078 1.09249
 C473 C 0.80643 0.43399 1.10563
 C474 C 0.83052 0.44075 1.12606
 C475 C 0.76816 0.39427 1.07111
 C476 C 0.76521 0.36909 1.05319
 H477 H 0.86925 0.39520 1.16216
 H478 H 0.83781 0.35944 1.12669
 H479 H 0.79526 0.34724 1.09160
 H480 H 0.79740 0.45479 1.10006
 H481 H 0.83875 0.46641 1.13587
 H482 H 0.75113 0.41005 1.06935
 H483 H 0.89394 0.47965 1.15807
 H484 H 0.78388 0.35479 1.05395
 C485 C 0.59514 0.10615 1.16107
 C486 C 0.58271 0.13232 1.15327
 C487 C 0.59685 0.15368 1.13072
 C488 C 0.57330 0.16969 1.12134
 C489 C 0.58582 0.19114 1.10059
 C490 C 0.62238 0.19710 1.08865
 C491 C 0.64638 0.18164 1.09820
 C492 C 0.63378 0.16005 1.11901
 C493 C 0.63720 0.22080 1.06701
 C494 C 0.61082 0.22747 1.05224
 H495 H 0.55972 0.13636 1.16319
 H496 H 0.54512 0.16581 1.13020
 H497 H 0.56723 0.20373 1.09442
 H498 H 0.67507 0.18640 1.08959
 H499 H 0.65356 0.14930 1.12607
 H500 H 0.66989 0.23327 1.06255
 H501 H 0.61481 0.09991 1.14939
 H502 H 0.57773 0.21318 1.05551
 C503 C 0.39911 0.53529 1.17106
 C504 C 0.42278 0.54976 1.15038
 C505 C 0.40876 0.56383 1.12992
 C506 C 0.43863 0.58920 1.11411
 C507 C 0.42683 0.60301 1.09449
 C508 C 0.38468 0.59157 1.09022
 C509 C 0.35476 0.56554 1.10572
 C510 C 0.36656 0.55179 1.12537
 C511 C 0.37063 0.60483 1.06940
 C512 C 0.39602 0.63757 1.05676
 H513 H 0.45336 0.55198 1.14906
 H514 H 0.47130 0.59844 1.11698
 H515 H 0.45083 0.62199 1.08256
 H516 H 0.32205 0.55575 1.10260
 H517 H 0.34244 0.53121 1.13656
 H518 H 0.33848 0.58857 1.06420
 H519 H 0.36888 0.53393 1.17228
 H520 H 0.42747 0.65564 1.06243
 C521 C 0.11616 0.52106 1.15797
 C522 C 0.12731 0.55398 1.14505
 C523 C 0.14801 0.56145 1.12153
 C524 C 0.14450 0.58731 1.10636
 C525 C 0.16548 0.59684 1.08457
 C526 C 0.19123 0.58120 1.07769
 C527 C 0.19389 0.55458 1.09260
 C528 C 0.17266 0.54486 1.11436
 C529 C 0.21668 0.59277 1.05564
 C530 C 0.22854 0.62730 1.04452
 H531 H 0.11876 0.57456 1.15194
 H532 H 0.12549 0.60030 1.11143
 H533 H 0.16136 0.61647 1.07330
 H534 H 0.21346 0.54207 1.08773
 H535 H 0.17678 0.52537 1.12579
 H536 H 0.22999 0.57528 1.04938
 H537 H 0.11949 0.49816 1.14992
 H538 H 0.21783 0.64636 1.05138
 C539 C 0.47582 0.89559 1.16075
 C540 C 0.44452 0.89087 1.14488
 C541 C 0.43571 0.86699 1.12343
 C542 C 0.39534 0.84911 1.11428
 C543 C 0.38577 0.82486 1.09475
 C544 C 0.41672 0.81848 1.08386
 C545 C 0.45728 0.83725 1.09262
 C546 C 0.46682 0.86146 1.11205
 C547 C 0.40804 0.79144 1.06413
 C548 C 0.37306 0.77789 1.04968
 H549 H 0.42374 0.90229 1.14916
 H550 H 0.37091 0.85312 1.12267
 H551 H 0.35400 0.81049 1.08877
 H552 H 0.48176 0.83306 1.08445
 H553 H 0.49862 0.87583 1.11802
 H554 H 0.43119 0.78243 1.06044
 H555 H 0.49293 0.88014 1.15766
 H556 H 0.35061 0.78807 1.05178
 C557 C 0.58876 0.46987 0.66324
 C558 C 0.56119 0.44013 0.64908
 C559 C 0.57381 0.42753 0.62720
 C560 C 0.54785 0.39132 0.61847
 C561 C 0.55849 0.37820 0.59789
 C562 C 0.59551 0.40118 0.58557
 C563 C 0.62092 0.43776 0.59395
 C564 C 0.61026 0.45089 0.61452
 C565 C 0.60826 0.38854 0.56373
 C566 C 0.59242 0.35085 0.55712
 H567 H 0.52938 0.42366 0.65495
 H568 H 0.51923 0.37300 0.62766
 H569 H 0.53722 0.35034 0.59164
 H570 H 0.64925 0.45626 0.58457
 H571 H 0.63036 0.47947 0.62010
 H572 H 0.63245 0.40986 0.55286
 H573 H 0.62150 0.48352 0.65892
 H574 H 0.56988 0.32873 0.56822
 C575 C 0.51083 0.09720 0.65962
 C576 C 0.54967 0.11654 0.64865
 C577 C 0.55629 0.13567 0.62542
 C578 C 0.59227 0.14350 0.61229
 C579 C 0.60051 0.16286 0.59072
 C580 C 0.57307 0.17530 0.58201
 C581 C 0.53681 0.16698 0.59498
 C582 C 0.52855 0.14760 0.61652
 C583 C 0.58118 0.19733 0.55980
 C584 C 0.62046 0.21742 0.54946
 H585 H 0.57626 0.11641 0.65690
 H586 H 0.61409 0.13455 0.61875
 H587 H 0.62822 0.16772 0.58101
 H588 H 0.51518 0.17628 0.58869
 H589 H 0.50104 0.14301 0.62637
 H590 H 0.55560 0.20022 0.55229
 H591 H 0.48339 0.09301 0.65008
 H592 H 0.64706 0.21667 0.55717
 C593 C 0.87979 0.45900 0.66051
 C594 C 0.86385 0.42507 0.64798
 C595 C 0.83885 0.41750 0.62610
 C596 C 0.83430 0.38759 0.61141
 C597 C 0.81013 0.37869 0.59094
 C598 C 0.78988 0.39968 0.58464
 C599 C 0.79407 0.42936 0.59949
 C600 C 0.81821 0.43821 0.62000
 C601 C 0.76248 0.39036 0.56365
 C602 C 0.76157 0.36645 0.54534
 H603 H 0.87160 0.40354 0.65369
 H604 H 0.84932 0.37081 0.61588
 H605 H 0.80680 0.35481 0.58057
 H606 H 0.77826 0.44557 0.59531
 H607 H 0.81967 0.46066 0.63121
 H608 H 0.74158 0.40246 0.56278
 H609 H 0.87625 0.48217 0.65332
 H610 H 0.78308 0.35507 0.54512
 C611 C 0.49062 0.60042 0.66586
 C612 C 0.45282 0.58526 0.65386
 C613 C 0.44578 0.60184 0.63201
 C614 C 0.41209 0.57911 0.61751
 C615 C 0.40365 0.59366 0.59701
 C616 C 0.42851 0.63160 0.59070
 C617 C 0.46242 0.65429 0.60507
 C618 C 0.47087 0.63973 0.62561
 C619 C 0.42034 0.64823 0.56923
 C620 C 0.38143 0.63350 0.55857
 H621 H 0.42766 0.55886 0.65992
 H622 H 0.39233 0.54983 0.62198
 H623 H 0.37800 0.57488 0.58606
 H624 H 0.48207 0.68359 0.60061
 H625 H 0.49650 0.65849 0.63657
 H626 H 0.44538 0.67403 0.56225
 H627 H 0.51730 0.62427 0.65829
 H628 H 0.35529 0.60930 0.56624
 C629 C 0.46426 0.90177 0.66987
 C630 C 0.42816 0.87234 0.66040
 C631 C 0.42760 0.85238 0.63812
 C632 C 0.39083 0.83565 0.62499
 C633 C 0.38853 0.81615 0.60403
 C634 C 0.42303 0.81273 0.59575
 C635 C 0.45953 0.82853 0.60920
 C636 C 0.46196 0.84841 0.63014
 C637 C 0.42079 0.79147 0.57378
 C638 C 0.39493 0.78906 0.55502
 H639 H 0.39828 0.86515 0.66821
 H640 H 0.36370 0.83772 0.63096
 H641 H 0.35936 0.80310 0.59465
 H642 H 0.48624 0.82563 0.60342
 H643 H 0.49038 0.85987 0.64023
 H644 H 0.43997 0.77764 0.57232
 H645 H 0.49289 0.91075 0.65994
 H646 H 0.37837 0.80538 0.55569
 C647 C 0.10452 0.55386 0.65696
 C648 C 0.12514 0.58974 0.64673
 C649 C 0.14706 0.59700 0.62352
 C650 C 0.15258 0.62839 0.61019
 C651 C 0.17438 0.63696 0.58862
 C652 C 0.19181 0.61455 0.58011
 C653 C 0.18579 0.58285 0.59330
 C654 C 0.16391 0.57424 0.61483
 C655 C 0.21710 0.62357 0.55801
 C656 C 0.23686 0.65949 0.54795
 H657 H 0.12360 0.61329 0.65502
 H658 H 0.13984 0.64633 0.61646
 H659 H 0.17721 0.66102 0.57875
 H660 H 0.19895 0.56516 0.58721
 H661 H 0.16133 0.55040 0.62488
 H662 H 0.22354 0.60195 0.55061
 H663 H 0.10266 0.53041 0.64658
 H664 H 0.23301 0.68221 0.55579
 C665 C 0.45092 0.55389 0.84005
 C666 C 0.46956 0.58671 0.85367
 C667 C 0.45240 0.59221 0.87638
 C668 C 0.46566 0.62913 0.88430
 C669 C 0.45015 0.63610 0.90540
 C670 C 0.42141 0.60612 0.91938
 C671 C 0.40827 0.56912 0.91155
 C672 C 0.42373 0.56213 0.89033
 C673 C 0.40308 0.61256 0.94139
 C674 C 0.42116 0.64660 0.95375
 H675 H 0.49771 0.61024 0.84714
 H676 H 0.48758 0.65280 0.87386
 H677 H 0.46009 0.66508 0.91020
 H678 H 0.38604 0.54554 0.92192
 H679 H 0.41342 0.53321 0.88519
 H680 H 0.37379 0.59011 0.94768
 H681 H 0.42335 0.52978 0.84656
 H682 H 0.45134 0.66869 0.94850
 C683 C 0.10856 0.57824 0.83192
 C684 C 0.14664 0.58051 0.83845
 C685 C 0.16749 0.59599 0.86145
 C686 C 0.19895 0.58763 0.86858
 C687 C 0.21965 0.60131 0.89003
 C688 C 0.20922 0.62369 0.90502
 C689 C 0.17859 0.63300 0.89763
 C690 C 0.15788 0.61934 0.87610
 C691 C 0.23055 0.63864 0.92795
 C692 C 0.25115 0.62234 0.94018
 H693 H 0.16180 0.56924 0.82690
 H694 H 0.20760 0.57033 0.85750
 H695 H 0.24424 0.59473 0.89446
 H696 H 0.17055 0.65081 0.90861
 H697 H 0.13499 0.62773 0.87099
 H698 H 0.22931 0.66281 0.93566
 H699 H 0.09355 0.58854 0.84438
 H700 H 0.25064 0.59693 0.93345
 C701 C 0.42218 0.90382 0.83944
 C702 C 0.43861 0.88164 0.84905
 C703 C 0.42131 0.85767 0.87036
 C704 C 0.44656 0.84613 0.88271
 C705 C 0.43126 0.82243 0.90240
 C706 C 0.39015 0.80971 0.91023
 C707 C 0.36465 0.82074 0.89766
 C708 C 0.37998 0.84448 0.87793
 C709 C 0.37240 0.78374 0.93064
 C710 C 0.39662 0.77935 0.94815
 H711 H 0.46629 0.88248 0.84152
 H712 H 0.47826 0.85529 0.87700
 H713 H 0.45155 0.81353 0.91096
 H714 H 0.33265 0.81080 0.90306
 H715 H 0.35901 0.85154 0.86841
 H716 H 0.33893 0.76791 0.93213
 H717 H 0.39719 0.90527 0.84905
 H718 H 0.42996 0.79652 0.94789
 C719 C 0.59747 0.48029 0.83803
 C720 C 0.57961 0.44420 0.84788
 C721 C 0.59334 0.43496 0.87048
 C722 C 0.56659 0.40139 0.88214
 C723 C 0.57852 0.39102 0.90319
 C724 C 0.61768 0.41414 0.91311
 C725 C 0.64467 0.44748 0.90126
 C726 C 0.63274 0.45784 0.88018
 C727 C 0.63233 0.40368 0.93494
 C728 C 0.60623 0.37607 0.95092
 H729 H 0.55285 0.42187 0.83937
 H730 H 0.53634 0.38295 0.87486
 H731 H 0.55720 0.36447 0.91118
 H732 H 0.67528 0.46549 0.90826
 H733 H 0.65489 0.48330 0.87139
 H734 H 0.66531 0.41837 0.93851
 H735 H 0.62096 0.50360 0.84787
 H736 H 0.57301 0.36207 0.94847
 C737 C 0.88692 0.41600 0.83208
 C738 C 0.85849 0.42458 0.84373
 C739 C 0.83604 0.40602 0.86587
 C740 C 0.81804 0.42394 0.87939
 C741 C 0.79615 0.40763 0.90025
 C742 C 0.79177 0.37284 0.90815
 C743 C 0.80878 0.35433 0.89433
 C744 C 0.83085 0.37076 0.87341
 C745 C 0.76823 0.35488 0.93013
 C746 C 0.76439 0.37596 0.94880
 H747 H 0.85411 0.44769 0.83723
 H748 H 0.82085 0.45075 0.87378
 H749 H 0.78200 0.42206 0.90980
 H750 H 0.80510 0.32717 0.89979
 H751 H 0.84304 0.35542 0.86309
 H752 H 0.75369 0.32451 0.93164
 H753 H 0.89509 0.39595 0.83996
 H754 H 0.78126 0.40637 0.94806
 C755 C 0.51451 0.12306 0.83293
 C756 C 0.52695 0.11747 0.85534
 C757 C 0.53713 0.14412 0.87559
 C758 C 0.55691 0.13878 0.89536
 C759 C 0.56823 0.16345 0.91468
 C760 C 0.56012 0.19431 0.91465
 C761 C 0.53906 0.19900 0.89529
 C762 C 0.52773 0.17430 0.87591
 C763 C 0.57280 0.22165 0.93457
 C764 C 0.60610 0.22833 0.94931
 H765 H 0.53027 0.09249 0.85825
 H766 H 0.56395 0.11549 0.89583
 H767 H 0.58291 0.15791 0.92965
 H768 H 0.53181 0.22217 0.89502
 H769 H 0.51151 0.17907 0.86147
 H770 H 0.55695 0.23841 0.93688
 H771 H 0.50954 0.14708 0.82985
 H772 H 0.62414 0.21380 0.94604
   
