data_POSCAR
  _audit_creation_date              2014-09-24
  _audit_creation_method            'ToBaCCo'
  _symmetry_space_group_name_H-M    'P1'
  _symmetry_Int_Tables_number       1
  _symmetry_cell_setting            triclinic
  loop_
  _symmetry_equiv_pos_as_xyz
 x,y,z
_cell_length_a 23.8068
_cell_length_b 24.1045
_cell_length_c 42.8335
_cell_angle_alpha 85.980300
_cell_angle_beta 92.778000
_cell_angle_gamma 122.807700
loop_
  _atom_site_label
  _atom_site_type_symbol
  _atom_site_fract_x
  _atom_site_fract_y
  _atom_site_fract_z
C1 C 0.02903 0.13734 0.53033
 H2 H 0.06652 0.15908 0.51242
 C3 C 0.01759 0.17851 0.54646
 H4 H 0.04708 0.23126 0.54088
 C5 C -0.05621 0.04288 0.55844
 H6 H -0.08520 -0.00992 0.56305
 C7 C -0.06967 0.08237 0.57503
 H8 H -0.10807 0.05912 0.59263
 N9 N -0.00707 0.07076 0.53668
 C10 C 0.08127 -0.04105 0.54077
 H11 H 0.12440 -0.00246 0.52808
 C12 C 0.08458 -0.09161 0.55703
 H13 H 0.13074 -0.09005 0.55649
 C14 C -0.03260 -0.09318 0.55374
 H15 H -0.07921 -0.09570 0.55096
 C16 C -0.03147 -0.14450 0.57035
 H17 H -0.07701 -0.18455 0.58113
 Zn18 Zn 0.01343 0.01910 0.51332
 N19 N 0.02334 -0.04236 0.53955
 C20 C 0.15064 0.11698 0.50737
 N21 N 0.09315 0.07875 0.49085
 C22 C 0.09032 0.08850 0.45930
 C23 C 0.14644 0.13919 0.44325
 C24 C 0.20812 0.16761 0.49220
 C25 C -0.11411 -0.03287 0.48341
 C26 C -0.16822 -0.07798 0.46512
 C27 C -0.10254 -0.12050 0.45014
 C28 C -0.05014 -0.07480 0.46875
 N29 N -0.05700 -0.03280 0.48519
 H30 H 0.15101 0.10988 0.53258
 H31 H 0.04379 0.05885 0.44669
 H32 H 0.14290 0.14724 0.41823
 H33 H 0.25256 0.19874 0.50597
 H34 H -0.11845 0.00098 0.49681
 H35 H -0.21223 -0.07579 0.46511
 H36 H -0.09461 -0.15352 0.43793
 H37 H -0.00418 -0.07391 0.47079
 C38 C 0.02755 -0.14459 0.57213
 C39 C -0.03237 0.15130 0.56910
 C40 C -0.16416 -0.12444 0.44834
 C41 C 0.20617 0.17980 0.45975
 C42 C 1.12815 0.07342 0.11103
 H43 H 1.11873 0.11266 0.10838
 C44 C 1.17618 0.07579 0.09280
 H45 H 1.20166 0.11629 0.07554
 C46 C 1.10384 -0.02754 0.13659
 H47 H 1.07604 -0.06697 0.15408
 C48 C 1.15245 -0.02669 0.11901
 H49 H 1.16149 -0.06608 0.12305
 N50 N 1.09322 0.02250 0.13237
 C51 C 0.92682 0.04598 0.14323
 H52 H 0.93261 0.05883 0.16739
 C53 C 0.87180 0.03703 0.12557
 H54 H 0.83589 0.04410 0.13616
 C55 C 0.96416 0.01687 0.10069
 H56 H 0.99871 0.00661 0.09132
 C57 C 0.90991 0.00710 0.08231
 H58 H 0.90523 -0.00791 0.05861
 Zn59 Zn 1.03634 0.03301 0.15682
 N60 N 0.97140 0.03545 0.13064
 C61 C 1.08912 0.16582 0.17613
 N62 N 1.09359 0.11178 0.17739
 C63 C 1.14345 0.11085 0.19369
 C64 C 1.19066 0.16487 0.21023
 C65 C 1.13581 0.22156 0.19245
 C66 C 0.94243 -0.09807 0.17712
 C67 C 0.89558 -0.14691 0.19800
 C68 C 0.94713 -0.07013 0.23921
 C69 C 0.99274 -0.02286 0.21761
 N70 N 0.98862 -0.03695 0.18706
 H71 H 1.04951 0.16573 0.16264
 H72 H 1.14613 0.06742 0.19394
 H73 H 1.22975 0.16252 0.22302
 H74 H 1.13072 0.26357 0.19180
 H75 H 0.93946 -0.10760 0.15260
 H76 H 0.85712 -0.19428 0.18936
 H77 H 0.95073 -0.05720 0.26323
 H78 H 1.02882 0.02621 0.22507
 C79 C 0.86199 0.01569 0.09494
 C80 C 1.19029 0.02622 0.09713
 C81 C 0.89598 -0.13224 0.22923
 C82 C 1.18744 0.22131 0.20988
 C83 C 0.01325 0.91661 0.88103
 H84 H -0.03721 0.87347 0.88095
 C85 C 0.06149 0.91680 0.90080
 H86 H 0.04730 0.87318 0.91573
 C87 C 0.09305 1.02319 0.85936
 H88 H 0.10517 1.06347 0.84244
 C89 C 0.14331 1.02531 0.87871
 H90 H 0.19395 1.06806 0.87694
 N91 N 0.02969 0.96892 0.86072
 C92 C -0.17729 0.90166 0.83898
 H93 H -0.18351 0.88371 0.81584
 C94 C -0.23137 0.89729 0.85321
 H95 H -0.27842 0.87478 0.84053
 C96 C -0.10576 0.95989 0.88112
 H97 H -0.05614 0.98624 0.89141
 C98 C -0.15749 0.95898 0.89557
 H99 H -0.14677 0.98314 0.91743
 Zn100 Zn -0.03866 0.95377 0.83165
 N101 N -0.11620 0.93187 0.85325
 C102 C -0.10447 0.82473 0.80474
 N103 N -0.04896 0.88661 0.80703
 C104 C 0.00832 0.90530 0.79217
 C105 C 0.01085 0.86255 0.77301
 C106 C -0.10406 0.77989 0.78574
 C107 C -0.00588 1.08373 0.81882
 C108 C -0.00439 1.13461 0.80029
 C109 C -0.02144 1.07383 0.75454
 C110 C -0.02314 1.02402 0.77390
 N111 N -0.01674 1.02913 0.80548
 H112 H -0.14864 0.80968 0.81780
 H113 H 0.05230 0.95411 0.79517
 H114 H 0.05753 0.87881 0.76183
 H115 H -0.14857 0.73091 0.78386
 H116 H -0.00214 1.08606 0.84402
 H117 H 0.00116 1.17626 0.81148
 H118 H -0.02745 1.06801 0.72955
 H119 H -0.03344 0.97972 0.76366
 C120 C -0.22175 0.92761 0.88173
 C121 C 0.12782 0.97133 0.89963
 C122 C -0.01477 1.12882 0.76779
 C123 C -0.04606 0.79916 0.76919
 C124 C 0.44320 -0.01468 -0.02499
 C125 C 0.44365 -0.01626 0.00813
 C126 C 0.49735 -0.01176 0.02516
 C127 C 0.55098 -0.00690 0.01022
 C128 C 0.54899 -0.01001 -0.02282
 C129 C 0.49504 -0.01402 -0.03991
 H130 H 0.49404 -0.01585 -0.06515
 H131 H 0.49758 -0.01145 0.05049
 C132 C -0.02875 0.42951 0.65563
 C133 C -0.03322 0.42290 0.68867
 C134 C -0.04467 0.46513 0.70431
 C135 C -0.04886 0.51547 0.68803
 C136 C -0.04001 0.52430 0.65519
 C137 C -0.03099 0.48081 0.63935
 H138 H -0.02527 0.48718 0.61414
 H139 H -0.04890 0.45957 0.72956
 C140 C 0.58508 0.57338 0.31830
 C141 C 0.58231 0.57848 0.35089
 C142 C 0.52513 0.53057 0.36757
 C143 C 0.47043 0.47780 0.35251
 C144 C 0.47251 0.47376 0.31984
 C145 C 0.52925 0.52178 0.30317
 H146 H 0.53019 0.51819 0.27814
 H147 H 0.52353 0.53395 0.39259
 C148 C -0.00010 0.30130 0.60613
 C149 C -0.06348 0.28051 0.61713
 N150 N -0.11567 0.21800 0.61251
 C151 C -0.10739 0.17509 0.59743
 C152 C -0.04386 0.19561 0.58631
 N153 N 0.00812 0.25867 0.59094
 N154 N 0.05229 0.36367 0.61094
 C155 C 0.04420 0.40619 0.62646
 C156 C -0.01907 0.38536 0.63768
 N157 N -0.07167 0.32300 0.63251
 H158 H -0.15032 0.12606 0.59367
 H159 H 0.08675 0.45545 0.63035
 C160 C 0.75452 0.70947 0.26373
 C161 C 0.73210 0.73148 0.28673
 N162 N 0.76451 0.79702 0.29128
 C163 C 0.81828 0.84176 0.27379
 C164 C 0.84075 0.82011 0.25039
 N165 N 0.80781 0.75410 0.24601
 N166 N 0.72215 0.64387 0.25921
 C167 C 0.66806 0.59923 0.27656
 C168 C 0.64479 0.62107 0.29943
 N169 N 0.67773 0.68702 0.30387
 H170 H 0.84164 0.89372 0.27753
 H171 H 0.64375 0.54716 0.27267
 C172 C 0.29299 -0.00282 -0.07723
 C173 C 0.27830 -0.03969 -0.04866
 N174 N 0.21606 -0.06992 -0.03675
 C175 C 0.16730 -0.06583 -0.05239
 C176 C 0.18107 -0.03017 -0.08153
 N177 N 0.24420 0.00101 -0.09304
 N178 N 0.35577 0.02837 -0.08873
 C179 C 0.40462 0.02451 -0.07286
 C180 C 0.39017 -0.01248 -0.04407
 N181 N 0.32682 -0.04384 -0.03296
 H182 H 0.11845 -0.09001 -0.04201
 H183 H 0.45450 0.05145 -0.08231
 C184 C -0.03513 0.68603 0.60732
 C185 C 0.02413 0.69062 0.61731
 N186 N 0.08351 0.74875 0.61289
 C187 C 0.08657 0.80260 0.59869
 C188 C 0.02730 0.79833 0.58820
 N189 N -0.03215 0.73966 0.59305
 N190 N -0.09475 0.62821 0.61227
 C191 C -0.09773 0.57475 0.62696
 C192 C -0.03843 0.57936 0.63704
 N193 N 0.02124 0.63730 0.63190
 H194 H 0.13484 0.84817 0.59621
 H195 H -0.14577 0.52943 0.63109
 C196 C 0.31756 0.31584 0.26982
 C197 C 0.33756 0.38122 0.26142
 N198 N 0.30716 0.39367 0.23678
 C199 C 0.25773 0.34363 0.22004
 C200 C 0.23794 0.27788 0.22820
 N201 N 0.26874 0.26616 0.25305
 N202 N 0.34805 0.30302 0.29425
 C203 C 0.39782 0.35286 0.31078
 C204 C 0.41793 0.41850 0.30256
 N205 N 0.38752 0.43116 0.27785
 H206 H 0.23572 0.35550 0.20013
 H207 H 0.42177 0.34152 0.33003
 C208 C 0.69789 -0.01646 -0.06967
 C209 C 0.63000 -0.06151 -0.07586
 N210 N 0.61181 -0.10904 -0.09640
 C211 C 0.65845 -0.11376 -0.11106
 C212 C 0.72714 -0.06966 -0.10432
 N213 N 0.74435 -0.02219 -0.08358
 N214 N 0.71642 0.03270 -0.05006
 C215 C 0.66983 0.03779 -0.03569
 C216 C 0.60147 -0.00989 -0.04022
 N217 N 0.58333 -0.05767 -0.06084
 H218 H 0.64125 -0.15340 -0.12667
 H219 H 0.68598 0.07780 -0.02038
 C220 C 0.29131 -0.02517 0.05894
 C221 C 0.34386 0.03532 0.04609
 N222 N 0.34625 0.09166 0.05046
 C223 C 0.29814 0.09044 0.06684
 C224 C 0.24425 0.02973 0.07928
 N225 N 0.24285 -0.02659 0.07511
 N226 N 0.28987 -0.08140 0.05519
 C227 C 0.33864 -0.07977 0.03908
 C228 C 0.39065 -0.01936 0.02589
 N229 N 0.39217 0.03691 0.02979
 H230 H 0.30315 0.13682 0.07048
 H231 H 0.33669 -0.12509 0.03633
 C232 C 0.74185 0.73408 0.40041
 C233 C 0.67877 0.72538 0.39888
 N234 N 0.66900 0.76772 0.41328
 C235 C 0.71922 0.81834 0.42941
 C236 C 0.78344 0.82746 0.43160
 N237 N 0.79191 0.78424 0.41659
 N238 N 0.75199 0.69186 0.38599
 C239 C 0.70157 0.64121 0.36999
 C240 C 0.63817 0.63249 0.36830
 N241 N 0.62824 0.67474 0.38302
 H242 H 0.70737 0.84965 0.44029
 H243 H 0.71072 0.60808 0.35870
 C244 C -0.00266 0.28552 0.74150
 C245 C -0.04313 0.26703 0.71448
 N246 N -0.07267 0.20462 0.70497
 C247 C -0.06355 0.15961 0.72124
 C248 C -0.02280 0.17771 0.74843
 N249 N 0.00634 0.24055 0.75789
 N250 N 0.02665 0.34802 0.75100
 C251 C 0.01736 0.39294 0.73463
 C252 C -0.02319 0.37461 0.70743
 N253 N -0.05258 0.31170 0.69824
 H254 H -0.08961 0.10981 0.71339
 H255 H 0.04216 0.44269 0.74250
 C256 C 0.71823 0.02525 0.06482
 C257 C 0.68883 -0.02423 0.04303
 N258 N 0.71590 -0.06015 0.03869
 C259 C 0.77141 -0.04854 0.05497
 C260 C 0.80152 0.00147 0.07669
 N261 N 0.77347 0.03672 0.08117
 N262 N 0.69172 0.06174 0.06894
 C263 C 0.63736 0.05141 0.05206
 C264 C 0.60810 0.00240 0.02992
 N265 N 0.63437 -0.03476 0.02620
 H266 H 0.79104 -0.07882 0.05127
 H267 H 0.61799 0.08211 0.05539
 C268 C 0.30604 0.32276 0.40358
 C269 C 0.37175 0.34288 0.41229
 N270 N 0.38251 0.30982 0.43634
 C271 C 0.33050 0.25746 0.45212
 C272 C 0.26441 0.23664 0.44330
 N273 N 0.25411 0.27016 0.41912
 N274 N 0.29519 0.35585 0.37958
 C275 C 0.34715 0.40755 0.36350
 C276 C 0.41304 0.42652 0.37148
 N277 N 0.42365 0.39405 0.39604
 H278 H 0.34076 0.23168 0.47093
 H279 H 0.33719 0.43281 0.34429
 C280 C -0.07456 0.64394 0.73990
 C281 C -0.03188 0.66809 0.71414
 N282 N 0.00254 0.73351 0.70580
 C283 C -0.00268 0.77635 0.72247
 C284 C -0.04367 0.75293 0.74905
 N285 N -0.07942 0.68678 0.75681
 N286 N -0.10932 0.57824 0.74795
 C287 C -0.10286 0.53568 0.73154
 C288 C -0.05918 0.55990 0.70594
 N289 N -0.02495 0.62582 0.69802
 H290 H 0.02506 0.82817 0.71497
 H291 H -0.13171 0.48350 0.73835
   
