data_POSCAR
  _audit_creation_date              2014-09-24
  _audit_creation_method            'ToBaCCo'
  _symmetry_space_group_name_H-M    'P1'
  _symmetry_Int_Tables_number       1
  _symmetry_cell_setting            triclinic
  loop_
  _symmetry_equiv_pos_as_xyz
 x,y,z
_cell_length_a 35.5832
_cell_length_b 32.6602
_cell_length_c 32.6600
_cell_angle_alpha 89.914700
_cell_angle_beta 90.022900
_cell_angle_gamma 89.977500
loop_
  _atom_site_label
  _atom_site_type_symbol
  _atom_site_fract_x
  _atom_site_fract_y
  _atom_site_fract_z
C1 C 0.30693 0.30616 0.23493
 H2 H 0.30830 0.30682 0.26802
 C3 C 0.33146 0.33028 0.21186
 H4 H 0.35155 0.34956 0.22757
 C5 C 0.27926 0.27962 0.17456
 H6 H 0.25930 0.25938 0.16010
 C7 C 0.30327 0.30320 0.15029
 H8 H 0.30112 0.30103 0.11730
 N9 N 0.28120 0.28186 0.21609
 C10 C 0.19234 0.26456 0.30644
 H11 H 0.19092 0.23148 0.30719
 C12 C 0.16793 0.28770 0.33059
 H13 H 0.14787 0.27204 0.34998
 C14 C 0.22005 0.32486 0.27967
 H15 H 0.23998 0.33927 0.25932
 C16 C 0.19616 0.34919 0.30327
 H17 H 0.19837 0.38218 0.30101
 Zn18 Zn 0.24958 0.24960 0.24978
 N19 N 0.21804 0.28334 0.28202
 C20 C 0.27925 0.21968 0.32506
 N21 N 0.28114 0.21728 0.28354
 C22 C 0.30684 0.19287 0.26478
 C23 C 0.33139 0.16882 0.28793
 C24 C 0.30328 0.19617 0.34941
 C25 C 0.19228 0.23485 0.19310
 C26 C 0.16776 0.21181 0.16898
 C27 C 0.19588 0.15020 0.19626
 C28 C 0.21988 0.17444 0.21983
 N29 N 0.21797 0.21597 0.21750
 H30 H 0.25933 0.24002 0.33945
 H31 H 0.30817 0.19210 0.23169
 H32 H 0.35147 0.14947 0.27228
 H33 H 0.30119 0.19849 0.38240
 H34 H 0.19094 0.26794 0.19236
 H35 H 0.14770 0.22756 0.14963
 H36 H 0.19800 0.11721 0.19851
 H37 H 0.23980 0.15995 0.24016
 C38 C 0.16972 0.33065 0.32931
 C39 C 0.32976 0.32910 0.16890
 C40 C 0.16942 0.16885 0.17027
 C41 C 0.32976 0.17020 0.33089
 C42 C 0.80760 0.80740 0.23400
 H43 H 0.80898 0.80817 0.26709
 C44 C 0.83201 0.83159 0.21086
 H45 H 0.85194 0.85094 0.22674
 C46 C 0.78002 0.78054 0.17378
 H47 H 0.76014 0.76013 0.15942
 C48 C 0.80389 0.80415 0.14938
 H49 H 0.80154 0.80166 0.11642
 N50 N 0.78197 0.78293 0.21528
 C51 C 0.69315 0.76544 0.30569
 H52 H 0.69180 0.73235 0.30640
 C53 C 0.66870 0.78849 0.32987
 H54 H 0.64868 0.77276 0.34925
 C55 C 0.72075 0.82584 0.27898
 H56 H 0.74065 0.84032 0.25865
 C57 C 0.69681 0.85009 0.30262
 H58 H 0.69895 0.88308 0.30041
 Zn59 Zn 0.75046 0.75063 0.24908
 N60 N 0.71883 0.78430 0.28129
 C61 C 0.78007 0.72081 0.32442
 N62 N 0.78208 0.71844 0.28291
 C63 C 0.80780 0.69401 0.26421
 C64 C 0.83221 0.66984 0.28742
 C65 C 0.80396 0.69719 0.34883
 C66 C 0.69318 0.73551 0.19245
 C67 C 0.66871 0.71231 0.16845
 C68 C 0.69696 0.65089 0.19599
 C69 C 0.72092 0.67529 0.21944
 N70 N 0.71893 0.71681 0.21692
 H71 H 0.76014 0.74116 0.33877
 H72 H 0.80922 0.69325 0.23113
 H73 H 0.85227 0.65043 0.27183
 H74 H 0.80175 0.69944 0.38181
 H75 H 0.69177 0.76859 0.19158
 H76 H 0.64860 0.72791 0.14904
 H77 H 0.69915 0.61791 0.19839
 H78 H 0.74087 0.66094 0.23983
 C79 C 0.67041 0.83145 0.32865
 C80 C 0.83039 0.83036 0.16778
 C81 C 0.67046 0.66935 0.16993
 C82 C 0.83040 0.67112 0.33038
 C83 C 0.80804 0.30579 0.73601
 H84 H 0.80948 0.30655 0.76909
 C85 C 0.83243 0.32995 0.71281
 H86 H 0.85249 0.34935 0.72841
 C87 C 0.78030 0.27900 0.67579
 H88 H 0.76038 0.25865 0.66144
 C89 C 0.80417 0.30262 0.65139
 H90 H 0.80194 0.30036 0.61841
 N91 N 0.78233 0.28136 0.71731
 C92 C 0.69352 0.26426 0.80777
 H93 H 0.69214 0.23118 0.80864
 C94 C 0.66902 0.28745 0.83176
 H95 H 0.64894 0.27183 0.85116
 C96 C 0.72117 0.32450 0.78079
 H97 H 0.74109 0.33886 0.76041
 C98 C 0.69719 0.34889 0.80423
 H99 H 0.69933 0.38187 0.80182
 Zn100 Zn 0.75075 0.24916 0.75112
 N101 N 0.71922 0.28298 0.78331
 C102 C 0.78043 0.21925 0.82639
 N103 N 0.78231 0.21685 0.78490
 C104 C 0.80793 0.19237 0.76617
 C105 C 0.83240 0.16819 0.78928
 C106 C 0.80436 0.19566 0.85079
 C107 C 0.69341 0.23441 0.69453
 C108 C 0.66892 0.21139 0.67035
 C109 C 0.69706 0.14976 0.69757
 C110 C 0.72103 0.17398 0.72120
 N111 N 0.71911 0.21552 0.71891
 H112 H 0.76056 0.23966 0.84076
 H113 H 0.80925 0.19160 0.73309
 H114 H 0.85225 0.14890 0.77318
 H115 H 0.80191 0.19832 0.88374
 H116 H 0.69206 0.26750 0.69382
 H117 H 0.64887 0.22715 0.65099
 H118 H 0.69920 0.11676 0.69977
 H119 H 0.74095 0.15948 0.74152
 C120 C 0.67071 0.33041 0.83027
 C121 C 0.83061 0.32867 0.66985
 C122 C 0.67062 0.16842 0.67157
 C123 C 0.83095 0.16935 0.83246
 C124 C 0.30690 0.80715 0.73515
 H125 H 0.30824 0.80790 0.76824
 C126 C 0.33144 0.83120 0.71203
 H127 H 0.35152 0.85053 0.72771
 C128 C 0.27931 0.78041 0.67483
 H129 H 0.25939 0.76009 0.66041
 C130 C 0.30334 0.80391 0.65051
 H131 H 0.30124 0.80163 0.61752
 N132 N 0.28121 0.78277 0.71635
 C133 C 0.19234 0.76533 0.80671
 H134 H 0.19101 0.73224 0.80750
 C135 C 0.16781 0.78841 0.83076
 H136 H 0.14774 0.77271 0.85012
 C137 C 0.21993 0.82568 0.77991
 H138 H 0.23984 0.84013 0.75959
 C139 C 0.19591 0.84997 0.80342
 H140 H 0.19801 0.88296 0.80111
 Zn141 Zn 0.24965 0.75048 0.75009
 N142 N 0.21803 0.78415 0.78231
 C143 C 0.27932 0.72042 0.82534
 N144 N 0.28128 0.71821 0.78382
 C145 C 0.30702 0.69391 0.76499
 C146 C 0.33154 0.66975 0.78807
 C147 C 0.30332 0.69680 0.84963
 C148 C 0.19241 0.73548 0.69338
 C149 C 0.16800 0.71232 0.66926
 C150 C 0.19624 0.65085 0.69671
 C151 C 0.22014 0.67521 0.72028
 N152 N 0.21813 0.71673 0.71785
 H153 H 0.25935 0.74066 0.83979
 H154 H 0.30840 0.69328 0.73190
 H155 H 0.35163 0.65047 0.77237
 H156 H 0.30116 0.69894 0.88262
 H157 H 0.19099 0.76856 0.69257
 H158 H 0.14792 0.72795 0.64983
 H159 H 0.19845 0.61787 0.69904
 H160 H 0.24007 0.66082 0.74067
 C161 C 0.16945 0.83138 0.82940
 C162 C 0.32981 0.82986 0.66907
 C163 C 0.16978 0.66936 0.67063
 C164 C 0.32982 0.67089 0.83103
 C165 C -0.00111 0.00028 -0.00035
 C166 C -0.00005 0.49989 0.50013
 C167 C 0.50065 0.00005 0.50012
 C168 C 0.50017 0.49984 -0.00001
 C169 C 0.09666 -0.09731 -0.09882
 N170 N 0.12199 -0.07926 -0.12411
 N171 N 0.14505 -0.10189 -0.14689
 C172 C 0.14372 -0.14345 -0.14530
 N173 N 0.11830 -0.16141 -0.11994
 N174 N 0.09523 -0.13880 -0.09715
 C175 C 0.07129 -0.07236 -0.07362
 N176 N 0.04617 -0.09040 -0.04809
 N177 N 0.02323 -0.06777 -0.02517
 C178 C 0.02438 -0.02618 -0.02695
 N179 N 0.04976 -0.00825 -0.05243
 N180 N 0.07270 -0.03088 -0.07534
 C181 C 0.09743 0.40212 0.40153
 N182 N 0.12272 0.42011 0.37615
 N183 N 0.14562 0.39744 0.35323
 C184 C 0.14416 0.35588 0.35476
 N185 N 0.11879 0.33798 0.38021
 N186 N 0.09588 0.36063 0.40314
 C187 C 0.07221 0.42711 0.42683
 N188 N 0.04711 0.40912 0.45242
 N189 N 0.02424 0.43179 0.47539
 C190 C 0.02545 0.47338 0.47359
 N191 N 0.05082 0.49126 0.44807
 N192 N 0.07369 0.46859 0.42512
 C193 C 0.59810 -0.09737 0.40113
 N194 N 0.59659 -0.13886 0.40262
 N195 N 0.61950 -0.16142 0.37960
 C196 C 0.64483 -0.14342 0.35418
 N197 N 0.64626 -0.10186 0.35277
 N198 N 0.62335 -0.07927 0.37578
 C199 C 0.57289 -0.07247 0.42654
 N200 N 0.57436 -0.03099 0.42497
 N201 N 0.55150 -0.00840 0.44802
 C202 C 0.52614 -0.02637 0.47349
 N203 N 0.52494 -0.06797 0.47514
 N204 N 0.54780 -0.09055 0.45208
 C205 C 0.59796 0.40202 -0.09820
 N206 N 0.59653 0.36054 -0.09638
 N207 N 0.61959 0.33784 -0.11908
 C208 C 0.64500 0.35569 -0.14451
 N209 N 0.64635 0.39725 -0.14625
 N210 N 0.62329 0.41997 -0.12356
 C211 C 0.57260 0.42705 -0.07309
 N212 N 0.57398 0.46853 -0.07495
 N213 N 0.55103 0.49121 -0.05210
 C214 C 0.52567 0.47335 -0.02655
 N215 N 0.52455 0.43175 -0.02463
 N216 N 0.54750 0.40908 -0.04749
 C217 C -0.09870 0.09918 -0.09810
 N218 N -0.12408 0.12440 -0.08014
 N219 N -0.14705 0.14732 -0.10282
 C220 C -0.14565 0.14606 -0.14446
 N221 N -0.12007 0.12068 -0.16223
 N222 N -0.09711 0.09774 -0.13957
 C223 C -0.07342 0.07384 -0.07310
 N224 N -0.04829 0.04832 -0.09110
 N225 N -0.02540 0.02529 -0.06843
 C226 C -0.02660 0.02695 -0.02684
 N227 N -0.05200 0.05241 -0.00895
 N228 N -0.07489 0.07543 -0.03162
 C229 C -0.09745 0.59870 0.40209
 N230 N -0.12274 0.62410 0.42000
 N231 N -0.14559 0.64709 0.39724
 C232 C -0.14408 0.64561 0.35569
 N233 N -0.11871 0.62014 0.33787
 N234 N -0.09585 0.59713 0.36060
 C235 C -0.07228 0.57332 0.42715
 N236 N -0.04715 0.54773 0.40924
 N237 N -0.02432 0.52471 0.43197
 C238 C -0.02556 0.52645 0.47356
 N239 N -0.05096 0.55196 0.49137
 N240 N -0.07380 0.57497 0.46863
 C241 C 0.40273 0.09855 0.40239
 N242 N 0.37738 0.12383 0.42038
 N243 N 0.35426 0.14657 0.39769
 C244 C 0.35555 0.14494 0.35614
 N245 N 0.38098 0.11959 0.33824
 N246 N 0.40411 0.09685 0.36091
 C247 C 0.42816 0.07339 0.42739
 N248 N 0.45328 0.04786 0.40939
 N249 N 0.47625 0.02493 0.43205
 C250 C 0.47516 0.02672 0.47364
 N251 N 0.44979 0.05220 0.49153
 N252 N 0.42681 0.07512 0.46887
 C253 C 0.40245 0.59864 -0.09767
 N254 N 0.37713 0.62391 -0.07962
 N255 N 0.35412 0.64684 -0.10224
 C256 C 0.35550 0.64543 -0.14380
 N257 N 0.38090 0.62009 -0.16177
 N258 N 0.40392 0.59715 -0.13916
 C259 C 0.42777 0.57330 -0.07273
 N260 N 0.45290 0.54779 -0.09075
 N261 N 0.47582 0.52478 -0.06811
 C262 C 0.47465 0.52645 -0.02651
 N263 N 0.44926 0.55190 -0.00861
 N264 N 0.42634 0.57490 -0.03125
 C265 C -0.09856 -0.09857 0.09744
 N266 N -0.09691 -0.09712 0.13891
 N267 N -0.11982 -0.12008 0.16159
 C268 C -0.14534 -0.14544 0.14378
 N269 N -0.14684 -0.14675 0.10218
 N270 N -0.12393 -0.12381 0.07948
 C271 C -0.07334 -0.07322 0.07243
 N272 N -0.07486 -0.07480 0.03095
 N273 N -0.05199 -0.05179 0.00827
 C274 C -0.02659 -0.02635 0.02614
 N275 N -0.02534 -0.02469 0.06774
 N276 N -0.04819 -0.04772 0.09041
 C277 C -0.09729 0.40105 0.59816
 N278 N -0.09568 0.40263 0.63964
 N279 N -0.11853 0.37964 0.66237
 C280 C -0.14389 0.35417 0.64454
 N281 N -0.14541 0.35268 0.60299
 N282 N -0.12257 0.37565 0.58024
 C283 C -0.07215 0.42642 0.57309
 N284 N -0.07369 0.42476 0.53162
 N285 N -0.05088 0.44778 0.50888
 C286 C -0.02550 0.47330 0.52669
 N287 N -0.02424 0.47504 0.56828
 N288 N -0.04704 0.45202 0.59101
 C289 C 0.40273 -0.09844 0.59769
 N290 N 0.37739 -0.12369 0.57966
 N291 N 0.35428 -0.14644 0.60231
 C292 C 0.35558 -0.14486 0.64387
 N293 N 0.38100 -0.11954 0.66180
 N294 N 0.40412 -0.09678 0.63918
 C295 C 0.42814 -0.07327 0.57274
 N296 N 0.45326 -0.04777 0.59078
 N297 N 0.47624 -0.02484 0.56816
 C298 C 0.47514 -0.02659 0.52656
 N299 N 0.44977 -0.05204 0.50863
 N300 N 0.42679 -0.07496 0.53126
 C301 C 0.40246 0.40117 0.09762
 N302 N 0.40391 0.40271 0.13911
 N303 N 0.38087 0.37982 0.16171
 C304 C 0.35547 0.35450 0.14374
 N305 N 0.35411 0.35304 0.10218
 N306 N 0.37715 0.37590 0.07956
 C307 C 0.42779 0.42645 0.07269
 N308 N 0.42638 0.42480 0.03120
 N309 N 0.44930 0.44777 0.00857
 C310 C 0.47467 0.47323 0.02648
 N311 N 0.47583 0.47495 0.06808
 N312 N 0.45291 0.45196 0.09071
 C313 C 0.09669 0.09769 0.09826
 N314 N 0.09525 0.13918 0.09666
 N315 N 0.11831 0.16174 0.11952
 C316 C 0.14371 0.14373 0.14489
 N317 N 0.14507 0.10216 0.14640
 N318 N 0.12202 0.07959 0.12355
 C319 C 0.07134 0.07280 0.07300
 N320 N 0.07276 0.03131 0.07467
 N321 N 0.04981 0.00873 0.05172
 C322 C 0.02442 0.02670 0.02625
 N323 N 0.02326 0.06830 0.02452
 N324 N 0.04620 0.09088 0.04748
 C325 C 0.09744 0.59779 0.59859
 N326 N 0.09587 0.63927 0.59690
 N327 N 0.11880 0.66196 0.61978
 C328 C 0.14421 0.64409 0.64524
 N329 N 0.14569 0.60254 0.64684
 N330 N 0.12276 0.57983 0.62398
 C331 C 0.07220 0.57276 0.57334
 N332 N 0.07372 0.53128 0.57510
 N333 N 0.05085 0.50858 0.55218
 C334 C 0.02543 0.52642 0.52665
 N335 N 0.02418 0.56801 0.52481
 N336 N 0.04705 0.59071 0.54774
 C337 C 0.59819 0.09733 0.59914
 N338 N 0.59670 0.13883 0.59764
 N339 N 0.61965 0.16136 0.62064
 C340 C 0.64501 0.14333 0.64606
 N341 N 0.64641 0.10176 0.64748
 N342 N 0.62346 0.07921 0.62449
 C343 C 0.57294 0.07247 0.57374
 N344 N 0.57438 0.03099 0.57532
 N345 N 0.55150 0.00843 0.55227
 C346 C 0.52615 0.02643 0.52677
 N347 N 0.52497 0.06803 0.52511
 N348 N 0.54785 0.09059 0.54818
 C349 C 0.59783 0.59770 0.09830
 N350 N 0.59634 0.63918 0.09648
 N351 N 0.61936 0.66189 0.11923
 C352 C 0.64479 0.64405 0.14468
 N353 N 0.64619 0.60250 0.14642
 N354 N 0.62318 0.57976 0.12369
 C355 C 0.57251 0.57266 0.07315
 N356 N 0.57394 0.53118 0.07500
 N357 N 0.55102 0.50849 0.05212
 C358 C 0.52565 0.52634 0.02655
 N359 N 0.52448 0.56793 0.02464
 N360 N 0.54739 0.59062 0.04753
   
