data_POSCAR
  _audit_creation_date              2014-09-24
  _audit_creation_method            'ToBaCCo'
  _symmetry_space_group_name_H-M    'P1'
  _symmetry_Int_Tables_number       1
  _symmetry_cell_setting            triclinic
  loop_
  _symmetry_equiv_pos_as_xyz
 x,y,z
_cell_length_a 41.0838
_cell_length_b 44.4554
_cell_length_c 23.7734
_cell_angle_alpha 87.571400
_cell_angle_beta 88.619200
_cell_angle_gamma 89.433100
loop_
  _atom_site_label
  _atom_site_type_symbol
  _atom_site_fract_x
  _atom_site_fract_y
  _atom_site_fract_z
C1 C 1.26846 0.21597 0.25016
 C2 C 1.24606 0.23576 0.22452
 C3 C 1.21933 0.22449 0.19721
 C4 C 1.21293 0.19359 0.19926
 C5 C 1.23420 0.17402 0.22893
 C6 C 1.26226 0.18491 0.25432
 C7 C 1.24683 0.26797 0.23565
 C8 C 1.27436 0.28524 0.22282
 C9 C 1.27511 0.31597 0.23553
 C10 C 1.24738 0.32895 0.26155
 C11 C 1.22065 0.31084 0.27802
 C12 C 1.22028 0.28075 0.26375
 H13 H 1.28843 0.22520 0.27272
 H14 H 1.20298 0.24024 0.17597
 H15 H 1.29484 0.27473 0.20150
 H16 H 1.19953 0.26690 0.27625
 H17 H 1.22893 0.15020 0.23224
 H18 H 1.24769 0.35216 0.27374
 C19 C 0.78066 -0.27626 0.25259
 C20 C 0.75148 -0.26232 0.23517
 C21 C 0.72915 -0.27879 0.20520
 C22 C 0.73672 -0.30842 0.19114
 C23 C 0.76594 -0.32187 0.20871
 C24 C 0.78860 -0.30602 0.23914
 C25 C 0.74602 -0.23001 0.24620
 C26 C 0.77214 -0.21007 0.23847
 C27 C 0.76939 -0.18018 0.25400
 C28 C 0.73964 -0.16982 0.27652
 C29 C 0.71255 -0.18905 0.28284
 C30 C 0.71604 -0.21924 0.26722
 H31 H 0.79669 -0.26381 0.27835
 H32 H 0.70689 -0.26820 0.19046
 H33 H 0.79523 -0.21818 0.22177
 H34 H 0.69576 -0.23455 0.27237
 H35 H 0.77149 -0.34436 0.19535
 H36 H 0.73783 -0.14683 0.28963
 C37 C 0.77099 0.21620 -0.24490
 C38 C 0.74718 0.23340 -0.27209
 C39 C 0.72161 0.21937 -0.29731
 C40 C 0.71979 0.18791 -0.29690
 C41 C 0.74297 0.17041 -0.26682
 C42 C 0.76861 0.18459 -0.23981
 C43 C 0.74928 0.26624 -0.27662
 C44 C 0.77201 0.27986 -0.31448
 C45 C 0.77014 0.31093 -0.32674
 C46 C 0.74715 0.32819 -0.29732
 C47 C 0.72701 0.31517 -0.25518
 C48 C 0.72704 0.28392 -0.24627
 H49 H 0.79129 0.22773 -0.22746
 H50 H 0.70333 0.23319 -0.31844
 H51 H 0.78946 0.26608 -0.33696
 H52 H 0.71057 0.27349 -0.21513
 H53 H 0.74110 0.14612 -0.26473
 H54 H 0.74659 0.35250 -0.30393
 C55 C 1.27123 -0.29508 -0.23442
 C56 C 1.25121 -0.27235 -0.25839
 C57 C 1.22584 -0.28002 -0.29340
 C58 C 1.21979 -0.31016 -0.30366
 C59 C 1.23960 -0.33265 -0.27893
 C60 C 1.26483 -0.32574 -0.24264
 C61 C 1.25277 -0.24128 -0.23920
 C62 C 1.28061 -0.22359 -0.24870
 C63 C 1.28131 -0.19405 -0.22973
 C64 C 1.25372 -0.18245 -0.20117
 C65 C 1.22589 -0.20023 -0.19092
 C66 C 1.22573 -0.22953 -0.21025
 H67 H 1.28947 -0.28879 -0.20507
 H68 H 1.20977 -0.26254 -0.31020
 H69 H 1.30166 -0.23283 -0.27047
 H70 H 1.20430 -0.24333 -0.20298
 H71 H 1.23539 -0.35581 -0.28893
 H72 H 1.25400 -0.15968 -0.18664
 C73 C 0.20433 0.27929 0.75695
 C74 C 0.22390 0.25334 0.76411
 C75 C 0.20899 0.22501 0.76642
 C76 C 0.17479 0.22239 0.76402
 C77 C 0.15584 0.24891 0.75790
 C78 C 0.17042 0.27726 0.75403
 C79 C 0.25968 0.25624 0.77128
 C80 C 0.27145 0.28005 0.80172
 C81 C 0.30502 0.28613 0.80478
 C82 C 0.32684 0.26513 0.78045
 C83 C 0.31563 0.24012 0.75177
 C84 C 0.28196 0.23613 0.74698
 H85 H 0.21553 0.30127 0.75308
 H86 H 0.22401 0.20520 0.77421
 H87 H 0.25371 0.29330 0.82424
 H88 H 0.27314 0.21806 0.72242
 H89 H 0.12963 0.24771 0.75488
 H90 H 0.35277 0.26833 0.78165
 C91 C 0.71315 0.77614 0.72448
 C92 C 0.73332 0.75070 0.72689
 C93 C 0.71943 0.72212 0.72828
 C94 C 0.68539 0.71816 0.72615
 C95 C 0.66554 0.74442 0.72023
 C96 C 0.67908 0.77356 0.72087
 C97 C 0.76922 0.75375 0.72784
 C98 C 0.78388 0.77299 0.76519
 C99 C 0.81792 0.77512 0.76628
 C100 C 0.83725 0.75858 0.72917
 C101 C 0.82297 0.73932 0.69192
 C102 C 0.78901 0.73673 0.69180
 H103 H 0.72444 0.79809 0.72219
 H104 H 0.73574 0.70315 0.73488
 H105 H 0.76897 0.78554 0.79439
 H106 H 0.77799 0.72178 0.66299
 H107 H 0.63948 0.74239 0.71664
 H108 H 0.86356 0.75995 0.73065
 C109 C 0.72545 0.27843 0.23742
 C110 C 0.73400 0.25050 0.26210
 C111 C 0.70961 0.22946 0.27751
 C112 C 0.67641 0.23651 0.26847
 C113 C 0.66870 0.26486 0.24197
 C114 C 0.69299 0.28621 0.22786
 C115 C 0.76890 0.24476 0.27213
 C116 C 0.78591 0.26448 0.30564
 C117 C 0.81995 0.26328 0.30735
 C118 C 0.83699 0.24265 0.27469
 C119 C 0.82056 0.22352 0.23983
 C120 C 0.78637 0.22402 0.23971
 H121 H 0.74454 0.29425 0.22528
 H122 H 0.71654 0.20833 0.29835
 H123 H 0.77267 0.28122 0.32920
 H124 H 0.77360 0.21018 0.21112
 H125 H 0.64369 0.27083 0.23334
 H126 H 0.86339 0.24234 0.27466
 C127 C 0.22291 0.77931 0.25892
 C128 C 0.23980 0.75212 0.26979
 C129 C 0.22183 0.72574 0.27993
 C130 C 0.18819 0.72493 0.27258
 C131 C 0.17161 0.75213 0.26103
 C132 C 0.18855 0.77960 0.25432
 C133 C 0.27607 0.74941 0.26631
 C134 C 0.29720 0.77175 0.28389
 C135 C 0.33126 0.76668 0.28324
 C136 C 0.34358 0.73834 0.26765
 C137 C 0.32273 0.71617 0.24934
 C138 C 0.28961 0.72276 0.24587
 H139 H 0.23664 0.79970 0.25019
 H140 H 0.23439 0.70533 0.29386
 H141 H 0.28725 0.79290 0.29769
 H142 H 0.27403 0.70648 0.22749
 H143 H 0.14546 0.75185 0.25683
 H144 H 0.36936 0.73337 0.27053
 O145 O 1.05579 -0.03628 0.11291
 O146 O 1.02658 -0.07488 0.07853
 C147 C 1.04838 -0.06442 0.11140
 O148 O 0.93976 0.04694 0.08474
 O149 O 0.97032 0.07421 0.01896
 C150 C 0.94817 0.07210 0.05877
 O151 O 0.94318 -0.03473 0.12604
 O152 O 0.97010 -0.07396 0.08469
 C153 C 0.94999 -0.06309 0.12189
 O154 O 1.06006 0.04427 0.06998
 O155 O 1.02717 0.07323 0.01236
 C156 C 1.05132 0.06977 0.04628
 Zr157 Zr 1.03985 0.00118 0.06476
 O158 O 1.04401 0.01259 0.14981
 O159 O 1.09089 -0.00201 0.05225
 Zr160 Zr 0.95839 0.00273 0.07534
 O161 O 0.96470 0.01277 0.16047
 O162 O 0.90708 0.00204 0.08491
 O163 O 0.99933 -0.02361 0.09234
 O164 O 0.99951 0.02897 0.06915
 O165 O 1.05463 0.02495 -0.11773
 O166 O 1.02571 0.06370 -0.07920
 C167 C 1.04788 0.05330 -0.11340
 O168 O 0.93763 -0.05523 -0.07480
 O169 O 0.96724 -0.08352 -0.01071
 C170 C 0.94540 -0.08064 -0.04934
 O171 O 0.93242 0.02846 -0.09974
 O172 O 0.96665 0.06489 -0.07067
 C173 C 0.94089 0.05642 -0.09594
 O174 O 1.05135 -0.05709 -0.08728
 O175 O 1.02388 -0.08469 -0.01788
 C176 C 1.04491 -0.08219 -0.05971
 Zr177 Zr 1.03559 -0.01290 -0.07268
 O178 O 1.02911 -0.02067 -0.15885
 O179 O 1.08714 -0.01455 -0.07527
 Zr180 Zr 0.95425 -0.01114 -0.06296
 O181 O 0.95619 -0.01777 -0.15063
 O182 O 0.90284 -0.01213 -0.05468
 Zr183 Zr 0.99690 -0.04975 0.02071
 Zr184 Zr 0.99731 0.03933 -0.01768
 O185 O 0.99473 0.01336 -0.08899
 O186 O 0.99454 -0.03991 -0.06660
 O187 O 1.04429 0.02034 -0.01609
 O188 O 0.95024 -0.02994 0.01801
 O189 O 1.04363 -0.03190 0.00671
 O190 O 0.95017 0.02210 -0.00408
 H191 H 1.00058 0.04555 0.09561
 H192 H 0.93079 -0.04256 0.02593
 H193 H 0.99366 0.02404 -0.12639
 H194 H 1.06298 -0.04525 0.01044
 H195 H 0.89821 0.00769 0.04757
 H196 H 0.89427 -0.01602 -0.09226
 H197 H 0.93344 -0.01741 -0.16345
 H198 H 1.05113 -0.02173 -0.17657
 H199 H 1.09403 -0.01881 -0.11439
 H200 H 1.10055 0.00170 0.08909
 H201 H 1.02604 0.00242 0.17130
 H202 H 0.94253 0.01516 0.17712
 O203 O 0.94378 0.45052 0.40388
 O204 O 0.97006 0.42349 0.47378
 C205 C 0.95016 0.42547 0.43242
 O206 O 1.06599 0.52856 0.38398
 O207 O 1.03449 0.56793 0.41331
 C208 C 1.05872 0.55697 0.38462
 O209 O 1.05708 0.44689 0.41499
 O210 O 1.02518 0.42061 0.48020
 C211 C 1.04768 0.42216 0.44078
 O212 O 0.94586 0.53521 0.37168
 O213 O 0.97785 0.57126 0.40853
 C214 C 0.95540 0.56292 0.37537
 Zr215 Zr 0.96138 0.49514 0.41590
 O216 O 0.96553 0.48800 0.32858
 O217 O 0.90995 0.49681 0.41452
 Zr218 Zr 1.04275 0.49160 0.42529
 O219 O 1.04269 0.48371 0.33823
 O220 O 1.09394 0.48678 0.42834
 O221 O 1.00107 0.46566 0.42230
 O222 O 1.00416 0.51814 0.39872
 O223 O 0.93834 0.55561 0.55962
 O224 O 0.97372 0.58080 0.49887
 C225 C 0.94917 0.58007 0.53408
 O226 O 1.04854 0.46895 0.61515
 O227 O 1.02029 0.43154 0.57475
 C228 C 1.04004 0.44108 0.61188
 O229 O 1.05684 0.55008 0.57096
 O230 O 1.03064 0.57862 0.50288
 C231 C 1.05140 0.57531 0.54301
 O232 O 0.93393 0.47331 0.59809
 O233 O 0.96356 0.43349 0.56465
 C234 C 0.93868 0.44475 0.59125
 Zr235 Zr 0.95538 0.51062 0.55395
 O236 O 0.95151 0.52150 0.63967
 O237 O 0.90454 0.51315 0.54291
 Zr238 Zr 1.03670 0.50694 0.56339
 O239 O 1.02923 0.51798 0.64850
 O240 O 1.08800 0.50317 0.56730
 Zr241 Zr 0.99673 0.45697 0.50997
 Zr242 Zr 1.00204 0.54489 0.46951
 O243 O 0.99729 0.53572 0.55667
 O244 O 0.99385 0.48329 0.58143
 O245 O 0.95378 0.52934 0.47234
 O246 O 1.04441 0.47345 0.50672
 O247 O 0.95113 0.47775 0.49567
 O248 O 1.04788 0.52499 0.48311
 H249 H 1.00637 0.52813 0.36077
 H250 H 1.06286 0.45955 0.51490
 H251 H 0.99682 0.55261 0.58259
 H252 H 0.93063 0.46622 0.49758
 H253 H 1.10103 0.49863 0.46008
 H254 H 1.09396 0.50744 0.60627
 H255 H 1.05101 0.51977 0.66492
 H256 H 0.96561 0.50713 0.66100
 H257 H 0.89467 0.51699 0.58041
 H258 H 0.90403 0.49272 0.37542
 H259 H 0.98079 0.47088 0.32387
 H260 H 1.06580 0.48106 0.32645
 O261 O 0.43536 -0.04324 0.42083
 O262 O 0.46693 -0.07332 0.47878
 C263 C 0.44603 -0.06930 0.43911
 O264 O 0.54729 0.04688 0.40371
 O265 O 0.51231 0.07934 0.44753
 C266 C 0.53633 0.07395 0.41305
 O267 O 0.54810 -0.03847 0.41410
 O268 O 0.52136 -0.07089 0.47688
 C269 C 0.54197 -0.06531 0.43552
 O270 O 0.42446 0.03977 0.41621
 O271 O 0.45339 0.07679 0.45671
 C272 C 0.42906 0.06750 0.42823
 Zr273 Zr 0.44796 0.00028 0.44550
 O274 O 0.44611 0.00071 0.35660
 O275 O 0.39692 -0.00428 0.45553
 Zr276 Zr 0.52974 0.00415 0.43745
 O277 O 0.52448 0.00267 0.34949
 O278 O 0.58111 0.00383 0.42952
 O279 O 0.49044 -0.02509 0.43628
 O280 O 0.48695 0.02835 0.42580
 O281 O 0.43049 0.04977 0.60816
 O282 O 0.45921 0.08082 0.54599
 C283 C 0.43828 0.07644 0.58695
 O284 O 0.54947 -0.03175 0.61734
 O285 O 0.52166 -0.06830 0.57385
 C286 C 0.54300 -0.05974 0.60915
 O287 O 0.54888 0.05150 0.59466
 O288 O 0.51643 0.08218 0.53933
 C289 C 0.54024 0.07765 0.57376
 O290 O 0.43764 -0.03462 0.62986
 O291 O 0.46617 -0.06955 0.57916
 C292 C 0.44601 -0.06208 0.61940
 Zr293 Zr 0.44929 0.00624 0.58614
 O294 O 0.44507 0.01004 0.67438
 O295 O 0.39826 0.00351 0.57927
 Zr296 Zr 0.53131 0.00857 0.57897
 O297 O 0.53266 0.01455 0.66682
 O298 O 0.58269 0.00860 0.57119
 Zr299 Zr 0.49215 -0.04032 0.52147
 Zr300 Zr 0.48722 0.04956 0.50303
 O301 O 0.48935 0.03396 0.58757
 O302 O 0.49185 -0.01901 0.59917
 O303 O 0.44098 0.02963 0.51100
 O304 O 0.53794 -0.01956 0.51299
 O305 O 0.44419 -0.02351 0.52186
 O306 O 0.53543 0.03317 0.50262
 H307 H 0.48526 0.04134 0.39102
 H308 H 0.55796 -0.03215 0.51431
 H309 H 0.48968 0.04877 0.61755
 H310 H 0.42606 -0.03804 0.52581
 H311 H 0.58922 0.01410 0.46246
 H312 H 0.59093 0.01006 0.60983
 H313 H 0.51944 -0.00160 0.68563
 H314 H 0.46661 0.01619 0.68720
 H315 H 0.38927 0.00443 0.61818
 H316 H 0.38827 -0.00585 0.41722
 H317 H 0.46423 -0.01226 0.34353
 H318 H 0.54687 0.00326 0.33312
 O319 O 0.55570 0.55927 0.07628
 O320 O 0.58853 0.53279 0.01624
 C321 C 0.58373 0.55348 0.05238
 O322 O 0.47461 0.44543 0.11221
 O323 O 0.43163 0.47021 0.07101
 C324 C 0.44375 0.44964 0.10524
 O325 O 0.56279 0.45244 0.09070
 O326 O 0.59270 0.48075 0.02540
 C327 C 0.58994 0.46019 0.06586
 O328 O 0.46555 0.55752 0.09623
 O329 O 0.42733 0.52561 0.06337
 C330 C 0.43583 0.54875 0.09132
 Zr331 Zr 0.50921 0.54094 0.06173
 O332 O 0.51363 0.54270 0.15003
 O333 O 0.50656 0.58832 0.04996
 Zr334 Zr 0.51509 0.46599 0.07267
 O335 O 0.52089 0.47313 0.15913
 O336 O 0.52093 0.41886 0.08485
 O337 O 0.54220 0.50525 0.06936
 O338 O 0.48434 0.50203 0.08593
 O339 O 0.44890 0.55231 -0.09135
 O340 O 0.41949 0.52212 -0.02842
 C341 C 0.42172 0.54322 -0.06778
 O342 O 0.54822 0.44805 -0.10677
 O343 O 0.58489 0.47983 -0.06972
 C344 C 0.57769 0.45767 -0.10049
 O345 O 0.45864 0.44040 -0.07500
 O346 O 0.42401 0.46850 -0.02048
 C347 C 0.43010 0.44640 -0.05351
 O348 O 0.53819 0.55490 -0.12292
 O349 O 0.58069 0.53014 -0.07928
 C350 C 0.56902 0.54955 -0.11620
 Zr351 Zr 0.49717 0.53756 -0.07746
 O352 O 0.48691 0.53572 -0.16408
 O353 O 0.49476 0.58514 -0.07897
 Zr354 Zr 0.50367 0.46210 -0.06737
 O355 O 0.49322 0.46127 -0.15410
 O356 O 0.50902 0.41473 -0.05988
 Zr357 Zr 0.55431 0.50423 -0.01706
 Zr358 Zr 0.45784 0.49862 0.01195
 O359 O 0.47127 0.49788 -0.07398
 O360 O 0.52842 0.50128 -0.09206
 O361 O 0.47405 0.54329 -0.00006
 O362 O 0.53747 0.45995 -0.00473
 O363 O 0.53070 0.54634 -0.01718
 O364 O 0.48147 0.45640 0.01197
 H365 H 0.47209 0.50196 0.12238
 H366 H 0.55256 0.44248 -0.00621
 H367 H 0.45391 0.49620 -0.10184
 H368 H 0.54339 0.56503 -0.02400
 H369 H 0.51243 0.40981 0.05090
 H370 H 0.50654 0.40720 -0.09822
 H371 H 0.51140 0.47131 -0.17522
 H372 H 0.50430 0.52345 -0.18163
 H373 H 0.49092 0.59182 -0.11859
 H374 H 0.50961 0.59664 0.08749
 H375 H 0.53295 0.53041 0.16051
 H376 H 0.52280 0.45284 0.17770
 C377 C 1.15544 0.14314 0.12558
 C378 C 1.12770 0.16070 0.12389
 C379 C 1.12599 0.18898 0.14653
 C380 C 1.15403 0.19958 0.17161
 C381 C 1.18328 0.18210 0.17283
 C382 C 1.18372 0.15344 0.14909
 O383 O 1.15150 0.11617 0.10527
 C384 C 1.12063 0.11670 0.09040
 C385 C 1.10495 0.14352 0.10023
 C386 C 1.07214 0.14840 0.08897
 C387 C 1.05470 0.12439 0.06797
 C388 C 1.07021 0.09621 0.06004
 C389 C 1.10376 0.09261 0.07041
 H390 H 1.10368 0.20213 0.14608
 H391 H 1.15256 0.22113 0.19104
 H392 H 1.20539 0.13940 0.14885
 H393 H 1.06025 0.16965 0.09722
 H394 H 1.02894 0.12726 0.06041
 H395 H 1.11617 0.07129 0.06477
 C396 C 1.14684 0.64730 0.65132
 C397 C 1.13954 0.66228 0.60131
 C398 C 1.15699 0.68727 0.58065
 C399 C 1.18309 0.69687 0.61265
 C400 C 1.19124 0.68125 0.66383
 C401 C 1.17229 0.65647 0.68359
 O402 O 1.12881 0.62323 0.66258
 C403 C 1.10967 0.62278 0.61871
 C404 C 1.11498 0.64617 0.57987
 C405 C 1.09834 0.64881 0.52947
 C406 C 1.07592 0.62614 0.51853
 C407 C 1.07106 0.60136 0.55744
 C408 C 1.08776 0.60022 0.60871
 H409 H 1.15118 0.69856 0.54087
 H410 H 1.19746 0.71583 0.59687
 H411 H 1.17755 0.64421 0.72270
 H412 H 1.10305 0.66716 0.49905
 H413 H 1.06341 0.62728 0.47896
 H414 H 1.08483 0.58161 0.63927
 C415 C 0.64697 0.14204 0.66640
 C416 C 0.63881 0.15629 0.61607
 C417 C 0.65759 0.17879 0.58998
 C418 C 0.68531 0.18770 0.61778
 C419 C 0.69344 0.17448 0.67124
 C420 C 0.67434 0.15074 0.69522
 O421 O 0.62656 0.12025 0.68250
 C422 C 0.60510 0.12092 0.64159
 C423 C 0.61127 0.14277 0.60020
 C424 C 0.59224 0.14688 0.55276
 C425 C 0.56653 0.12679 0.54663
 C426 C 0.56087 0.10305 0.58731
 C427 C 0.57984 0.10076 0.63627
 H428 H 0.65109 0.18920 0.54979
 H429 H 0.70013 0.20540 0.59815
 H430 H 0.67987 0.14019 0.73581
 H431 H 0.59771 0.16421 0.52065
 H432 H 0.55257 0.12849 0.50856
 H433 H 0.57637 0.08262 0.66767
 C434 C 0.66832 0.64466 0.14112
 C435 C 0.68274 0.63382 0.09310
 C436 C 0.71310 0.64309 0.07257
 C437 C 0.72975 0.66382 0.10369
 C438 C 0.71594 0.67461 0.15434
 C439 C 0.68448 0.66541 0.17277
 O440 O 0.63983 0.63194 0.15417
 C441 C 0.63638 0.61258 0.11370
 C442 C 0.66209 0.61280 0.07556
 C443 C 0.66434 0.59352 0.03119
 C444 C 0.63878 0.57341 0.02530
 C445 C 0.61154 0.57299 0.06334
 C446 C 0.61043 0.59291 0.10834
 H447 H 0.72398 0.63404 0.03489
 H448 H 0.75398 0.67061 0.08971
 H449 H 0.67393 0.67271 0.21215
 H450 H 0.68497 0.59398 0.00199
 H451 H 0.63992 0.55870 -0.00988
 H452 H 0.59002 0.59320 0.13800
 C453 C 0.84642 -0.14317 0.19676
 C454 C 0.85477 -0.12653 0.24158
 C455 C 0.83574 -0.12555 0.29073
 C456 C 0.80728 -0.14287 0.29422
 C457 C 0.79836 -0.16053 0.24876
 C458 C 0.81828 -0.16048 0.19929
 O459 O 0.86674 -0.13973 0.15274
 C460 C 0.88845 -0.12048 0.17010
 C461 C 0.88232 -0.11180 0.22428
 C462 C 0.90070 -0.09020 0.24945
 C463 C 0.92536 -0.07599 0.21653
 C464 C 0.93130 -0.08376 0.15990
 C465 C 0.91336 -0.10711 0.13709
 H466 H 0.84256 -0.11191 0.32512
 H467 H 0.79256 -0.14302 0.33265
 H468 H 0.81188 -0.17338 0.16360
 H469 H 0.89522 -0.08348 0.29190
 H470 H 0.93870 -0.05784 0.23407
 H471 H 0.91654 -0.11264 0.09340
 C472 C 0.84594 0.34561 0.61931
 C473 C 0.83246 0.36952 0.58925
 C474 C 0.79976 0.37175 0.57676
 C475 C 0.77933 0.34952 0.59991
 C476 C 0.79174 0.32582 0.63541
 C477 C 0.82592 0.32252 0.64171
 O478 O 0.87687 0.35021 0.63211
 C479 C 0.88255 0.37789 0.61075
 C480 C 0.85578 0.39052 0.58496
 C481 C 0.85369 0.42051 0.56776
 C482 C 0.88071 0.43823 0.57558
 C483 C 0.90968 0.42580 0.59869
 C484 C 0.91078 0.39497 0.61648
 H485 H 0.78990 0.39113 0.55367
 H486 H 0.75336 0.35203 0.59390
 H487 H 0.83599 0.30536 0.67013
 H488 H 0.83177 0.43013 0.54979
 H489 H 0.87941 0.46150 0.56071
 H490 H 0.93249 0.38492 0.63443
 C491 C 0.35348 -0.15312 0.70124
 C492 C 0.36535 -0.13896 0.74670
 C493 C 0.35132 -0.14213 0.80046
 C494 C 0.32387 -0.16059 0.80770
 C495 C 0.31104 -0.17551 0.76165
 C496 C 0.32639 -0.17195 0.70771
 O497 O 0.36888 -0.14524 0.65304
 C498 C 0.39094 -0.12568 0.66842
 C499 C 0.38982 -0.12118 0.72538
 C500 C 0.40888 -0.09999 0.75018
 C501 C 0.42924 -0.08208 0.71475
 C502 C 0.43041 -0.08571 0.65579
 C503 C 0.41157 -0.10837 0.63235
 H504 H 0.36078 -0.13037 0.83542
 H505 H 0.31252 -0.16322 0.84917
 H506 H 0.31676 -0.18259 0.67157
 H507 H 0.40710 -0.09647 0.79491
 H508 H 0.44307 -0.06441 0.73287
 H509 H 0.41102 -0.11073 0.58722
 C510 C 0.33321 0.37739 0.19369
 C511 C 0.36196 0.36241 0.20391
 C512 C 0.36372 0.33286 0.22450
 C513 C 0.33449 0.31774 0.23482
 C514 C 0.30397 0.33240 0.22571
 C515 C 0.30346 0.36311 0.20599
 O516 O 0.33761 0.40471 0.16946
 C517 C 0.36991 0.40684 0.16482
 C518 C 0.38560 0.38155 0.18617
 C519 C 0.41903 0.37799 0.18522
 C520 C 0.43742 0.40132 0.16058
 C521 C 0.42237 0.42764 0.13625
 C522 C 0.38790 0.43053 0.13882
 H523 H 0.38685 0.32158 0.23127
 H524 H 0.33580 0.29473 0.25153
 H525 H 0.28081 0.37484 0.19713
 H526 H 0.43059 0.35767 0.20209
 H527 H 0.46358 0.39812 0.15889
 H528 H 0.37562 0.45004 0.12020
 C529 C 0.83172 0.12621 -0.19202
 C530 C 0.84517 0.14142 -0.14932
 C531 C 0.83291 0.16843 -0.13061
 C532 C 0.80628 0.18110 -0.15849
 C533 C 0.79319 0.16745 -0.20596
 C534 C 0.80554 0.13894 -0.22180
 O535 O 0.84701 0.10024 -0.20149
 C536 C 0.87083 0.09949 -0.16434
 C537 C 0.87087 0.12455 -0.13241
 C538 C 0.89434 0.12977 -0.09329
 C539 C 0.91848 0.10786 -0.08545
 C540 C 0.91821 0.08067 -0.11474
 C541 C 0.89410 0.07652 -0.15544
 H542 H 0.84353 0.17941 -0.09573
 H543 H 0.79635 0.20204 -0.14359
 H544 H 0.79614 0.12772 -0.25743
 H545 H 0.89413 0.15005 -0.06961
 H546 H 0.93669 0.11170 -0.05464
 H547 H 0.89328 0.05611 -0.17862
 C548 C 0.85205 0.63645 0.27665
 C549 C 0.87858 0.65449 0.28229
 C550 C 0.87706 0.68560 0.27492
 C551 C 0.84698 0.69867 0.26075
 C552 C 0.81886 0.68062 0.25413
 C553 C 0.82200 0.64883 0.26232
 O554 O 0.85805 0.60759 0.28907
 C555 C 0.88914 0.60739 0.30278
 C556 C 0.90289 0.63552 0.29909
 C557 C 0.93459 0.64078 0.31487
 C558 C 0.95255 0.61617 0.33674
 C559 C 0.93856 0.58704 0.34260
 C560 C 0.90663 0.58255 0.32387
 H561 H 0.89826 0.69938 0.28012
 H562 H 0.84628 0.72282 0.25309
 H563 H 0.80144 0.63392 0.26064
 H564 H 0.94475 0.66318 0.31237
 H565 H 0.97691 0.62008 0.35109
 H566 H 0.89491 0.56087 0.32912
 C567 C 0.33430 0.15025 0.32526
 C568 C 0.31880 0.12934 0.36025
 C569 C 0.28546 0.12477 0.36052
 C570 C 0.26698 0.14281 0.32355
 C571 C 0.28183 0.16571 0.28830
 C572 C 0.31619 0.16951 0.28977
 O573 O 0.36664 0.14853 0.32782
 C574 C 0.37151 0.12613 0.36574
 C575 C 0.34278 0.11419 0.38735
 C576 C 0.34143 0.09007 0.42601
 C577 C 0.37087 0.07681 0.44165
 C578 C 0.40089 0.08730 0.41787
 C579 C 0.40152 0.11293 0.38049
 H580 H 0.27407 0.10758 0.38773
 H581 H 0.24087 0.13975 0.32462
 H582 H 0.32861 0.18599 0.26236
 H583 H 0.31847 0.08117 0.44226
 H584 H 0.37026 0.05726 0.47048
 H585 H 0.42409 0.12095 0.36108
 C586 C 0.33010 0.62973 -0.16939
 C587 C 0.31349 0.60378 -0.15471
 C588 C 0.28116 0.59975 -0.16759
 C589 C 0.26527 0.62334 -0.19704
 C590 C 0.28159 0.65079 -0.21279
 C591 C 0.31460 0.65390 -0.19754
 O592 O 0.36121 0.62833 -0.15557
 C593 C 0.36413 0.60097 -0.13143
 C594 C 0.33555 0.58512 -0.12931
 C595 C 0.33319 0.55594 -0.10597
 C596 C 0.36159 0.54244 -0.08435
 C597 C 0.39156 0.55805 -0.08748
 C598 C 0.39267 0.58784 -0.11105
 H599 H 0.26860 0.57906 -0.15574
 H600 H 0.23978 0.62035 -0.20551
 H601 H 0.32845 0.67382 -0.20959
 H602 H 0.31038 0.54393 -0.10476
 H603 H 0.36040 0.51964 -0.06651
 H604 H 0.41515 0.60041 -0.11368
 C605 C 1.15393 -0.15126 -0.15063
 C606 C 1.13934 -0.16893 -0.10841
 C607 C 1.15241 -0.19652 -0.09006
 C608 C 1.18124 -0.20641 -0.11689
 C609 C 1.19663 -0.18857 -0.16071
 C610 C 1.18279 -0.16044 -0.17728
 O611 O 1.13794 -0.12573 -0.16158
 C612 C 1.11281 -0.12722 -0.12550
 C613 C 1.11239 -0.15311 -0.09181
 C614 C 1.08865 -0.15838 -0.04967
 C615 C 1.06503 -0.13569 -0.04104
 C616 C 1.06549 -0.10849 -0.07462
 C617 C 1.08943 -0.10481 -0.11834
 H618 H 1.14074 -0.21003 -0.05656
 H619 H 1.19164 -0.22794 -0.10354
 H620 H 1.19374 -0.14645 -0.21085
 H621 H 1.08892 -0.17879 -0.02318
 H622 H 1.04732 -0.13883 -0.00688
 H623 H 1.09106 -0.08431 -0.14450
 C624 C 1.14685 0.35360 0.32754
 C625 C 1.14018 0.33867 0.37847
 C626 C 1.15972 0.31539 0.39971
 C627 C 1.18672 0.30684 0.36659
 C628 C 1.19385 0.32194 0.31391
 C629 C 1.17378 0.34580 0.29439
 O630 O 1.12612 0.37580 0.31591
 C631 C 1.10610 0.37501 0.36042
 C632 C 1.11342 0.35275 0.40009
 C633 C 1.09656 0.34953 0.45163
 C634 C 1.07224 0.37106 0.46358
 C635 C 1.06568 0.39503 0.42419
 C636 C 1.08186 0.39598 0.37093
 H637 H 1.15436 0.30419 0.44015
 H638 H 1.20207 0.28842 0.38173
 H639 H 1.17865 0.35749 0.25422
 H640 H 1.10297 0.33205 0.48257
 H641 H 1.06023 0.37024 0.50458
 H642 H 1.07764 0.41410 0.33998
 C643 C 0.64288 -0.13724 0.32474
 C644 C 0.62474 -0.15625 0.35986
 C645 C 0.63339 -0.18622 0.37063
 C646 C 0.66197 -0.19699 0.34442
 C647 C 0.68128 -0.17784 0.30790
 C648 C 0.67110 -0.14754 0.29767
 O649 O 0.63153 -0.10916 0.32255
 C650 C 0.60568 -0.11043 0.35715
 C651 C 0.60036 -0.13875 0.38091
 C652 C 0.57541 -0.14484 0.42018
 C653 C 0.55549 -0.12068 0.43629
 C654 C 0.56089 -0.09103 0.41342
 C655 C 0.58615 -0.08610 0.37245
 H656 H 0.61907 -0.20063 0.39930
 H657 H 0.66950 -0.21997 0.35416
 H658 H 0.68489 -0.13219 0.27000
 H659 H 0.57183 -0.16727 0.43864
 H660 H 0.53641 -0.12503 0.46771
 H661 H 0.59134 -0.06382 0.35452
 C662 C 0.66069 0.36289 -0.19221
 C663 C 0.67971 0.38340 -0.16672
 C664 C 0.71322 0.38056 -0.16281
 C665 C 0.72808 0.35612 -0.18837
 C666 C 0.70940 0.33547 -0.21767
 C667 C 0.67509 0.33831 -0.21837
 O668 O 0.62927 0.37044 -0.19159
 C669 C 0.62868 0.39638 -0.16562
 C670 C 0.65904 0.40530 -0.15037
 C671 C 0.66466 0.43213 -0.12486
 C672 C 0.63768 0.45017 -0.11248
 C673 C 0.60560 0.44096 -0.12470
 C674 C 0.60118 0.41387 -0.15294
 H675 H 0.72752 0.39708 -0.14242
 H676 H 0.75439 0.35410 -0.18810
 H677 H 0.66052 0.32316 -0.24155
 H678 H 0.68895 0.43878 -0.11420
 H679 H 0.64190 0.47080 -0.09122
 H680 H 0.57717 0.40612 -0.16280
 C681 C 1.11539 0.16194 -0.19641
 C682 C 1.13133 0.13742 -0.21744
 C683 C 1.16143 0.13938 -0.24512
 C684 C 1.17580 0.16784 -0.25130
 C685 C 1.15978 0.19389 -0.23068
 C686 C 1.12874 0.19056 -0.20337
 O687 O 1.08829 0.15485 -0.16750
 C688 C 1.08703 0.12516 -0.17063
 C689 C 1.11266 0.11348 -0.20126
 C690 C 1.11696 0.08288 -0.20822
 C691 C 1.09427 0.06341 -0.18164
 C692 C 1.06820 0.07469 -0.14782
 C693 C 1.06427 0.10618 -0.14325
 H694 H 1.17368 0.11962 -0.26068
 H695 H 1.19901 0.16949 -0.27367
 H696 H 1.11606 0.20925 -0.18469
 H697 H 1.13749 0.07423 -0.23215
 H698 H 1.09788 0.03945 -0.18585
 H699 H 1.04506 0.11558 -0.11723
 C700 C 1.12636 0.66546 0.30301
 C701 C 1.14313 0.64084 0.28399
 C702 C 1.17402 0.64261 0.25960
 C703 C 1.18856 0.67091 0.25530
 C704 C 1.17210 0.69701 0.27498
 C705 C 1.13998 0.69408 0.29785
 O706 O 1.09853 0.65829 0.32955
 C707 C 1.09787 0.62853 0.32714
 C708 C 1.12451 0.61684 0.29931
 C709 C 1.13001 0.58617 0.29493
 C710 C 1.10735 0.56661 0.32124
 C711 C 1.08003 0.57798 0.35169
 C712 C 1.07492 0.60949 0.35348
 H713 H 1.18682 0.62281 0.24550
 H714 H 1.21256 0.67240 0.23557
 H715 H 1.12687 0.71296 0.31509
 H716 H 1.15146 0.57760 0.27343
 H717 H 1.11175 0.54262 0.31927
 H718 H 1.05455 0.61896 0.37670
 C719 C 0.62757 0.16573 0.31513
 C720 C 0.59826 0.17893 0.32867
 C721 C 0.59306 0.20982 0.32522
 C722 C 0.61898 0.22812 0.30635
 C723 C 0.64959 0.21564 0.28959
 C724 C 0.65383 0.18366 0.29476
 O725 O 0.62736 0.13583 0.32445
 C726 C 0.59713 0.13025 0.34404
 C727 C 0.57852 0.15603 0.34679
 C728 C 0.54644 0.15610 0.36609
 C729 C 0.53290 0.12859 0.38453
 C730 C 0.55139 0.10132 0.38462
 C731 C 0.58407 0.10216 0.36294
 H732 H 0.56992 0.21962 0.33777
 H733 H 0.61505 0.25220 0.30614
 H734 H 0.67663 0.17300 0.28303
 H735 H 0.53234 0.17676 0.36762
 H736 H 0.50793 0.12883 0.40022
 H737 H 0.59906 0.08201 0.36283
 C738 C 0.63023 0.65491 -0.22690
 C739 C 0.65054 0.63064 -0.23487
 C740 C 0.68097 0.63348 -0.26079
 C741 C 0.69142 0.66254 -0.27730
 C742 C 0.67205 0.68867 -0.26611
 C743 C 0.64021 0.68416 -0.24234
 O744 O 0.60260 0.64746 -0.20002
 C745 C 0.60569 0.61793 -0.19059
 C746 C 0.63472 0.60647 -0.21054
 C747 C 0.64390 0.57641 -0.20110
 C748 C 0.62218 0.55744 -0.16999
 C749 C 0.59179 0.56870 -0.15027
 C750 C 0.58352 0.59938 -0.16105
 H751 H 0.69637 0.61400 -0.26759
 H752 H 0.71479 0.66424 -0.29898
 H753 H 0.62436 0.70267 -0.23141
 H754 H 0.66724 0.56805 -0.21605
 H755 H 0.62891 0.53410 -0.16143
 H756 H 0.56092 0.60883 -0.14504
 C757 C 0.86209 -0.16262 -0.16622
 C758 C 0.87229 -0.17745 -0.11763
 C759 C 0.86350 -0.20700 -0.10298
 C760 C 0.84406 -0.22197 -0.14064
 C761 C 0.83399 -0.20730 -0.19144
 C762 C 0.84278 -0.17711 -0.20411
 O763 O 0.87347 -0.13483 -0.17275
 C764 C 0.89131 -0.13205 -0.12749
 C765 C 0.89160 -0.15749 -0.09258
 C766 C 0.90973 -0.15966 -0.04388
 C767 C 0.92786 -0.13444 -0.03004
 C768 C 0.92748 -0.10770 -0.06495
 C769 C 0.90894 -0.10675 -0.11453
 H770 H 0.87173 -0.21826 -0.06453
 H771 H 0.83755 -0.24524 -0.13130
 H772 H 0.83571 -0.16561 -0.24305
 H773 H 0.91005 -0.18016 -0.01778
 H774 H 0.94185 -0.13574 0.00801
 H775 H 0.90826 -0.08689 -0.14246
 C776 C 0.86110 0.33327 0.35483
 C777 C 0.88180 0.32035 0.39366
 C778 C 0.88173 0.28982 0.40890
 C779 C 0.85991 0.27155 0.38197
 C780 C 0.83862 0.28399 0.34101
 C781 C 0.83876 0.31543 0.32789
 O782 O 0.86641 0.36259 0.34501
 C783 C 0.89108 0.36817 0.37832
 C784 C 0.90126 0.34292 0.40865
 C785 C 0.92734 0.34286 0.44441
 C786 C 0.94348 0.37002 0.45003
 C787 C 0.93343 0.39695 0.42040
 C788 C 0.90680 0.39586 0.38355
 H789 H 0.89857 0.28026 0.43921
 H790 H 0.86017 0.24752 0.39169
 H791 H 0.82329 0.32530 0.29568
 H792 H 0.93511 0.32253 0.46713
 H793 H 0.96379 0.36991 0.47820
 H794 H 0.89845 0.41581 0.36029
 C795 C 0.37004 -0.16779 0.35429
 C796 C 0.39920 -0.16599 0.32480
 C797 C 0.40724 -0.18466 0.28110
 C798 C 0.38449 -0.20634 0.26756
 C799 C 0.35434 -0.20932 0.29791
 C800 C 0.34702 -0.18941 0.34177
 O801 O 0.36715 -0.14755 0.39381
 C802 C 0.39516 -0.13277 0.38919
 C803 C 0.41567 -0.14335 0.34772
 C804 C 0.44639 -0.13145 0.33585
 C805 C 0.45633 -0.10751 0.36780
 C806 C 0.43545 -0.09582 0.40996
 C807 C 0.40442 -0.10860 0.42102
 H808 H 0.43019 -0.18254 0.25803
 H809 H 0.39036 -0.22067 0.23298
 H810 H 0.32445 -0.19100 0.36609
 H811 H 0.46207 -0.14019 0.30296
 H812 H 0.48002 -0.09763 0.35900
 H813 H 0.38808 -0.09989 0.45297
 C814 C 0.35862 0.34343 -0.13149
 C815 C 0.33668 0.36642 -0.12340
 C816 C 0.30438 0.36451 -0.13802
 C817 C 0.29420 0.33793 -0.16189
 C818 C 0.31599 0.31295 -0.17003
 C819 C 0.34898 0.31642 -0.15396
 O820 O 0.38865 0.35032 -0.11746
 C821 C 0.38551 0.37827 -0.10025
 C822 C 0.35415 0.38916 -0.10254
 C823 C 0.34564 0.41817 -0.08703
 C824 C 0.37059 0.43678 -0.06910
 C825 C 0.40331 0.42629 -0.06798
 C826 C 0.41063 0.39644 -0.08333
 H827 H 0.28769 0.38324 -0.13282
 H828 H 0.26948 0.33809 -0.17619
 H829 H 0.36709 0.29883 -0.15754
 H830 H 0.32077 0.42630 -0.08922
 H831 H 0.36462 0.45955 -0.05779
 H832 H 0.43531 0.38767 -0.08280
 C833 C 1.12587 -0.16636 0.19920
 C834 C 1.13547 -0.14065 0.22379
 C835 C 1.16309 -0.13935 0.25617
 C836 C 1.18136 -0.16589 0.26460
 C837 C 1.17124 -0.19338 0.24221
 C838 C 1.14299 -0.19324 0.20854
 O839 O 1.10040 -0.16210 0.16616
 C840 C 1.09357 -0.13300 0.17053
 C841 C 1.11409 -0.11913 0.20609
 C842 C 1.11190 -0.08883 0.21677
 C843 C 1.08833 -0.07177 0.18817
 C844 C 1.06793 -0.08489 0.14837
 C845 C 1.07002 -0.11629 0.14065
 H846 H 1.17049 -0.11855 0.27394
 H847 H 1.20249 -0.16514 0.29083
 H848 H 1.13516 -0.21313 0.18808
 H849 H 1.12820 -0.07851 0.24528
 H850 H 1.08706 -0.04792 0.19557
 H851 H 1.05519 -0.12698 0.11035
 C852 C 1.10833 0.33431 0.70069
 C853 C 1.11385 0.35758 0.73548
 C854 C 1.13709 0.35598 0.77709
 C855 C 1.15542 0.32929 0.78312
 C856 C 1.15017 0.30490 0.74791
 C857 C 1.12603 0.30742 0.70640
 O858 O 1.08681 0.34123 0.66126
 C859 C 1.07860 0.36951 0.67132
 C860 C 1.09437 0.38048 0.71646
 C861 C 1.09102 0.41008 0.73232
 C862 C 1.07138 0.42942 0.69936
 C863 C 1.05561 0.41902 0.65137
 C864 C 1.05855 0.38831 0.63832
 H865 H 1.14138 0.37479 0.80333
 H866 H 1.17376 0.32758 0.81509
 H867 H 1.12199 0.28941 0.67818
 H868 H 1.10393 0.41827 0.76768
 H869 H 1.06943 0.45280 0.71015
 H870 H 1.04730 0.37975 0.60163
 C871 C 0.61480 -0.16963 0.68053
 C872 C 0.62427 -0.14612 0.71183
 C873 C 0.65060 -0.14789 0.74724
 C874 C 0.66835 -0.17489 0.75018
 C875 C 0.65940 -0.20003 0.71880
 C876 C 0.63147 -0.19737 0.68441
 O877 O 0.59075 -0.16204 0.64584
 C878 C 0.58497 -0.13317 0.65586
 C879 C 0.60473 -0.12262 0.69635
 C880 C 0.60410 -0.09296 0.71225
 C881 C 0.58261 -0.07305 0.68476
 C882 C 0.56242 -0.08274 0.64138
 C883 C 0.56328 -0.11355 0.62741
 H884 H 0.65773 -0.12885 0.77090
 H885 H 0.68876 -0.17627 0.77819
 H886 H 0.62431 -0.21547 0.65840
 H887 H 0.62004 -0.08527 0.74414
 H888 H 0.58231 -0.04981 0.69667
 H889 H 0.54867 -0.12166 0.59401
 C890 C 0.65500 0.35162 0.14389
 C891 C 0.67244 0.37541 0.16248
 C892 C 0.69617 0.37164 0.20288
 C893 C 0.70241 0.34227 0.22433
 C894 C 0.68508 0.31719 0.20527
 C895 C 0.66086 0.32217 0.16450
 O896 O 0.63212 0.36013 0.10807
 C897 C 0.63512 0.38985 0.10406
 C898 C 0.65949 0.40051 0.13623
 C899 C 0.66501 0.43127 0.14095
 C900 C 0.64374 0.45176 0.11307
 C901 C 0.61783 0.44099 0.08158
 C902 C 0.61422 0.40968 0.07573
 H903 H 0.70913 0.39067 0.21796
 H904 H 0.72050 0.33917 0.25648
 H905 H 0.64706 0.30374 0.14910
 H906 H 0.68395 0.43918 0.16737
 H907 H 0.64608 0.47565 0.11904
 H908 H 0.59392 0.40094 0.05337
 C909 C 0.86030 0.15896 0.16482
 C910 C 0.88241 0.17458 0.13069
 C911 C 0.88407 0.20579 0.12794
 C912 C 0.86249 0.22158 0.16263
 C913 C 0.83989 0.20608 0.19916
 C914 C 0.83830 0.17430 0.19946
 O915 O 0.86406 0.12929 0.16306
 C916 C 0.88914 0.12621 0.12729
 C917 C 0.90122 0.15327 0.10640
 C918 C 0.92841 0.15542 0.07062
 C919 C 0.94377 0.12856 0.05549
 C920 C 0.93165 0.10019 0.07572
 C921 C 0.90387 0.09915 0.11234
 H922 H 0.90190 0.21754 0.10116
 H923 H 0.86383 0.24591 0.16215
 H924 H 0.82169 0.16197 0.22775
 H925 H 0.93775 0.17704 0.05548
 H926 H 0.96524 0.12997 0.02823
 H927 H 0.89412 0.07798 0.12904
 C928 C 0.86318 0.67262 0.62580
 C929 C 0.88662 0.68673 0.59217
 C930 C 0.88974 0.71787 0.58762
 C931 C 0.86805 0.73516 0.61972
 C932 C 0.84380 0.72108 0.65491
 C933 C 0.84104 0.68938 0.65726
 O934 O 0.86552 0.64281 0.62654
 C935 C 0.89102 0.63798 0.59268
 C936 C 0.90469 0.66411 0.57037
 C937 C 0.93222 0.66431 0.53531
 C938 C 0.94637 0.63646 0.52298
 C939 C 0.93306 0.60909 0.54611
 C940 C 0.90475 0.61001 0.58119
 H941 H 0.90860 0.72843 0.56128
 H942 H 0.87026 0.75944 0.61766
 H943 H 0.82314 0.67809 0.68464
 H944 H 0.94267 0.68517 0.51855
 H945 H 0.96797 0.63636 0.49600
 H946 H 0.89397 0.58967 0.59972
 C947 C 0.35751 0.16978 0.69576
 C948 C 0.38435 0.18273 0.66961
 C949 C 0.38999 0.21352 0.66793
 C950 C 0.36713 0.23196 0.69474
 C951 C 0.33925 0.21956 0.72323
 C952 C 0.33431 0.18785 0.72320
 O953 O 0.35690 0.13993 0.69118
 C954 C 0.38405 0.13406 0.66145
 C955 C 0.40150 0.15967 0.64757
 C956 C 0.43043 0.15945 0.61660
 C957 C 0.44194 0.13178 0.59843
 C958 C 0.42461 0.10457 0.61083
 C959 C 0.39520 0.10576 0.64363
 H960 H 0.41119 0.22309 0.64626
 H961 H 0.37101 0.25603 0.69245
 H962 H 0.31331 0.17759 0.74430
 H963 H 0.44368 0.17997 0.60647
 H964 H 0.46463 0.13177 0.57429
 H965 H 0.38127 0.08564 0.65379
 C966 C 0.37228 0.65356 0.18491
 C967 C 0.35282 0.62911 0.19840
 C968 C 0.32440 0.63137 0.23077
 C969 C 0.31544 0.65997 0.24898
 C970 C 0.33459 0.68578 0.23409
 C971 C 0.36374 0.68226 0.20220
 O972 O 0.39843 0.64664 0.15435
 C973 C 0.39538 0.61729 0.14835
 C974 C 0.36784 0.60534 0.17403
 C975 C 0.36006 0.57489 0.17191
 C976 C 0.38191 0.55603 0.14288
 C977 C 0.41090 0.56793 0.11777
 C978 C 0.41731 0.59907 0.12009
 H979 H 0.30961 0.61185 0.24153
 H980 H 0.29336 0.66205 0.27438
 H981 H 0.37879 0.70136 0.18962
 H982 H 0.33813 0.56598 0.19220
 H983 H 0.37681 0.53223 0.14139
 H984 H 0.43906 0.60895 0.10074
   
