data_POSCAR
  _audit_creation_date              2014-09-24
  _audit_creation_method            'ToBaCCo'
  _symmetry_space_group_name_H-M    'P1'
  _symmetry_Int_Tables_number       1
  _symmetry_cell_setting            triclinic
  loop_
  _symmetry_equiv_pos_as_xyz
 x,y,z
_cell_length_a 67.5898
_cell_length_b 67.5312
_cell_length_c 23.4578
_cell_angle_alpha 89.943700
_cell_angle_beta 89.995700
_cell_angle_gamma 119.969700
loop_
  _atom_site_label
  _atom_site_type_symbol
  _atom_site_fract_x
  _atom_site_fract_y
  _atom_site_fract_z
O1 O 0.25897 0.47942 0.55262
 O2 O 0.21972 0.47907 0.44353
 O3 O 0.25853 0.47942 0.44247
 O4 O 0.22016 0.47904 0.55384
 O5 O 0.23865 0.51680 0.55407
 O6 O 0.27721 0.51719 0.44215
 O7 O 0.23839 0.51681 0.44280
 O8 O 0.27752 0.51718 0.55314
 Cu9 Cu 0.23747 0.47545 0.49812
 Cu10 Cu 0.25979 0.52080 0.49807
 C11 C 0.27504 0.49831 0.57109
 C12 C 0.22225 0.49784 0.42471
 C13 C 0.27454 0.49832 0.42379
 C14 C 0.22272 0.49780 0.57260
 O15 O 0.52034 -0.26016 0.44455
 O16 O 0.52104 -0.22092 0.55414
 O17 O 0.52048 -0.25988 0.55466
 O18 O 0.52087 -0.22125 0.44372
 O19 O 0.48314 -0.23973 0.44371
 O20 O 0.48276 -0.27837 0.55549
 O21 O 0.48332 -0.23940 0.55496
 O22 O 0.48263 -0.27864 0.44442
 Cu23 Cu 0.52445 -0.23869 0.49925
 Cu24 Cu 0.47916 -0.26088 0.49970
 C25 C 0.50141 -0.27622 0.42613
 C26 C 0.50234 -0.22337 0.57297
 C27 C 0.50160 -0.27587 0.57359
 C28 C 0.50211 -0.22381 0.42504
 O29 O 1.21994 0.74124 0.55245
 O30 O 1.25882 0.78004 0.44257
 O31 O 1.22014 0.74154 0.44212
 O32 O 1.25858 0.77982 0.55290
 O33 O 1.27740 0.76087 0.55322
 O34 O 1.23887 0.72250 0.44173
 O35 O 1.27756 0.76104 0.44199
 O36 O 1.23872 0.72226 0.55290
 Cu37 Cu 1.23749 0.76256 0.49753
 Cu38 Cu 1.26003 0.73975 0.49747
 C39 C 1.22259 0.72507 0.57113
 C40 C 1.27490 0.77728 0.42371
 C41 C 1.22284 0.72542 0.42332
 C42 C 1.27461 0.77700 0.57165
 O43 O 0.77931 0.52019 0.44624
 O44 O 0.74042 0.52051 0.55545
 O45 O 0.77886 0.52012 0.55639
 O46 O 0.74097 0.52073 0.44507
 O47 O 0.72174 0.48296 0.44457
 O48 O 0.75978 0.48236 0.55655
 O49 O 0.72133 0.48277 0.55590
 O50 O 0.76012 0.48242 0.44556
 Cu51 Cu 0.76178 0.52416 0.50082
 Cu52 Cu 0.73878 0.47882 0.50063
 C53 C 0.77649 0.50129 0.42767
 C54 C 0.72417 0.50173 0.57413
 C55 C 0.77597 0.50120 0.57497
 C56 C 0.72483 0.50199 0.42611
 O57 O 0.48085 0.22074 0.55928
 O58 O 0.47869 0.25792 0.44709
 O59 O 0.47900 0.21931 0.44835
 O60 O 0.48006 0.25878 0.55729
 O61 O 0.51779 0.27744 0.55590
 O62 O 0.51664 0.23911 0.44220
 O63 O 0.51640 0.27749 0.44460
 O64 O 0.51844 0.23881 0.55214
 Cu65 Cu 0.47587 0.23724 0.50327
 Cu66 Cu 0.52113 0.26022 0.49855
 C67 C 0.50002 0.22312 0.57389
 C68 C 0.49719 0.27423 0.42737
 C69 C 0.49757 0.22242 0.42675
 C70 C 0.49904 0.27482 0.57518
 O71 O 0.77908 0.25997 0.55557
 O72 O 0.73982 0.22073 0.44702
 O73 O 0.77851 0.25932 0.44542
 O74 O 0.74046 0.22129 0.55726
 O75 O 0.72150 0.24010 0.55746
 O76 O 0.75978 0.27835 0.44511
 O77 O 0.72105 0.23972 0.44636
 O78 O 0.76015 0.27879 0.55622
 Cu79 Cu 0.76134 0.23843 0.50132
 Cu80 Cu 0.73872 0.26115 0.50128
 C81 C 0.77647 0.27619 0.57410
 C82 C 0.72366 0.22341 0.42852
 C83 C 0.77581 0.27544 0.42665
 C84 C 0.72438 0.22404 0.57601
 O85 O 0.96827 0.51823 -0.10520
 O86 O 0.94295 0.48772 -0.05080
 C87 C 0.94772 0.50280 -0.09059
 O88 O 1.03200 0.47925 -0.09908
 O89 O 1.05725 0.51119 -0.04911
 C90 C 1.05253 0.49494 -0.08531
 O91 O 0.96820 0.44935 -0.10504
 O92 O 0.94291 0.45468 -0.05099
 C93 C 0.94766 0.44432 -0.09063
 O94 O 1.03202 0.55206 -0.09953
 O95 O 1.05729 0.54537 -0.04940
 C96 C 1.05257 0.55688 -0.08583
 Zr97 Zr 1.00012 0.52483 -0.07208
 O98 O 1.00189 0.52658 -0.16214
 O99 O 0.99906 0.55550 -0.06583
 Zr100 Zr 1.00006 0.47484 -0.07264
 O101 O 1.00125 0.47775 -0.16246
 O102 O 0.99771 0.44240 -0.07591
 O103 O 0.97969 0.48963 -0.08332
 O104 O 1.01999 0.50976 -0.08296
 O105 O 1.03224 0.55211 0.09726
 O106 O 1.05750 0.54535 0.04721
 C107 C 1.05278 0.55691 0.08343
 O108 O 0.96828 0.44911 0.10347
 O109 O 0.94296 0.45457 0.04992
 C110 C 0.94774 0.44412 0.08927
 O111 O 1.03220 0.47948 0.09799
 O112 O 1.05743 0.51130 0.04730
 C113 C 1.05274 0.49516 0.08395
 O114 O 0.96834 0.51844 0.10374
 O115 O 0.94297 0.48765 0.05041
 C116 C 0.94778 0.50287 0.08979
 Zr117 Zr 1.00016 0.52473 0.07112
 O118 O 1.00272 0.52594 0.16113
 O119 O 0.99805 0.55496 0.07050
 Zr120 Zr 1.00015 0.47464 0.07097
 O121 O 1.00269 0.47577 0.16100
 O122 O 0.99761 0.44209 0.06990
 Zr123 Zr 0.96585 0.48261 -0.00038
 Zr124 Zr 1.03424 0.51678 -0.00069
 O125 O 1.01996 0.50959 0.08166
 O126 O 0.97979 0.48950 0.08251
 O127 O 1.02064 0.53885 -0.00061
 O128 O 0.98013 0.46115 -0.00077
 O129 O 0.98006 0.51833 -0.00044
 O130 O 1.02055 0.48105 -0.00092
 H131 H 1.03020 0.51489 -0.11667
 H132 H 0.96983 0.44436 -0.00089
 H133 H 1.03023 0.51474 0.11521
 H134 H 0.96970 0.52476 -0.00043
 H135 H 1.00867 0.44255 -0.04778
 H136 H 1.01091 0.44355 0.04864
 H137 H 0.99000 0.47754 0.17609
 H138 H 0.99008 0.51138 0.17596
 H139 H 1.00894 0.56522 0.04134
 H140 H 0.99903 0.56057 -0.10549
 H141 H 0.99256 0.51075 -0.17635
 H142 H 1.00132 0.46403 -0.17714
 O143 O 0.44953 0.48115 0.10310
 O144 O 0.45489 0.51182 0.04901
 C145 C 0.44448 0.49665 0.08854
 O146 O 0.55250 0.52048 0.09780
 O147 O 0.54586 0.48843 0.04833
 C148 C 0.55737 0.50477 0.08432
 O149 O 0.51868 0.55042 0.10317
 O150 O 0.48791 0.54490 0.04956
 C151 C 0.50311 0.55539 0.08890
 O152 O 0.47945 0.44726 0.09783
 O153 O 0.51159 0.45402 0.04847
 C154 C 0.49520 0.44242 0.08445
 Zr155 Zr 0.47491 0.47460 0.07049
 O156 O 0.47480 0.47270 0.16055
 O157 O 0.44321 0.44396 0.06388
 Zr158 Zr 0.52471 0.52452 0.07199
 O159 O 0.52156 0.52073 0.16152
 O160 O 0.55567 0.55586 0.08057
 O161 O 0.48956 0.50979 0.08210
 O162 O 0.50982 0.48958 0.08202
 O163 O 0.48012 0.44759 -0.09923
 O164 O 0.51211 0.45440 -0.04911
 C165 C 0.49593 0.44287 -0.08548
 O166 O 0.51919 0.55062 -0.10423
 O167 O 0.48822 0.54505 -0.05139
 C168 C 0.50357 0.55557 -0.09041
 O169 O 0.55270 0.52023 -0.09835
 O170 O 0.54596 0.48824 -0.04810
 C171 C 0.55751 0.50448 -0.08445
 O172 O 0.44993 0.48131 -0.10550
 O173 O 0.45519 0.51203 -0.05201
 C174 C 0.44487 0.49685 -0.09149
 Zr175 Zr 0.47543 0.47496 -0.07274
 O176 O 0.47714 0.47402 -0.16276
 O177 O 0.44314 0.44474 -0.07286
 Zr178 Zr 0.52541 0.52499 -0.07164
 O179 O 0.52701 0.52402 -0.16166
 O180 O 0.55559 0.55734 -0.07006
 Zr181 Zr 0.48300 0.51697 -0.00101
 Zr182 Zr 0.51725 0.48270 -0.00016
 O183 O 0.51037 0.49008 -0.08258
 O184 O 0.49026 0.51020 -0.08382
 O185 O 0.48162 0.46068 -0.00095
 O186 O 0.51869 0.53840 -0.00003
 O187 O 0.46155 0.48125 -0.00135
 O188 O 0.53916 0.51846 0.00045
 H189 H 0.51490 0.48440 0.11564
 H190 H 0.52504 0.55517 -0.00013
 H191 H 0.51558 0.48503 -0.11620
 H192 H 0.44478 0.47480 -0.00161
 H193 H 0.55858 0.56405 0.04390
 H194 H 0.56679 0.55592 -0.04574
 H195 H 0.51248 0.52205 -0.17684
 H196 H 0.47861 0.48840 -0.17764
 H197 H 0.44360 0.43446 -0.04348
 H198 H 0.43807 0.43887 0.10349
 H199 H 0.48016 0.48832 0.17513
 H200 H 0.53538 0.53400 0.17757
 O201 O 0.47942 0.03046 0.10206
 O202 O 0.51058 0.05609 0.05005
 C203 C 0.49501 0.05110 0.08855
 O204 O 0.51923 -0.03285 0.09936
 O205 O 0.48753 -0.05813 0.04862
 C206 C 0.50363 -0.05341 0.08531
 O207 O 0.54888 0.03089 0.10662
 O208 O 0.54379 0.05632 0.05238
 C209 C 0.55396 0.05148 0.09237
 O210 O 0.44598 -0.03334 0.09466
 O211 O 0.45342 -0.05835 0.04571
 C212 C 0.44146 -0.05382 0.08111
 Zr213 Zr 0.47339 -0.00123 0.06896
 O214 O 0.47043 -0.00348 0.15886
 O215 O 0.44276 -0.00030 0.05990
 Zr216 Zr 0.52337 -0.00091 0.07396
 O217 O 0.51861 -0.00207 0.16319
 O218 O 0.55477 -0.00020 0.08493
 O219 O 0.50839 0.01934 0.08298
 O220 O 0.48841 -0.02109 0.08158
 O221 O 0.44824 -0.03247 -0.10234
 O222 O 0.45440 -0.05788 -0.05107
 C223 C 0.44325 -0.05306 -0.08830
 O224 O 0.55116 0.03157 -0.10059
 O225 O 0.54484 0.05663 -0.04840
 C226 C 0.55581 0.05205 -0.08668
 O227 O 0.52090 -0.03241 -0.09681
 O228 O 0.48868 -0.05793 -0.04798
 C229 C 0.50516 -0.05304 -0.08361
 O230 O 0.48316 0.03144 -0.10933
 O231 O 0.51169 0.05667 -0.05003
 C232 C 0.49784 0.05197 -0.09264
 Zr233 Zr 0.47527 -0.00062 -0.07417
 O234 O 0.47407 -0.00325 -0.16414
 O235 O 0.44534 0.00201 -0.07447
 Zr236 Zr 0.52533 -0.00049 -0.06974
 O237 O 0.52520 -0.00267 -0.15981
 O238 O 0.55772 0.00181 -0.06620
 Zr239 Zr 0.51636 0.03347 0.00033
 Zr240 Zr 0.48250 -0.03500 -0.00102
 O241 O 0.49057 -0.02037 -0.08299
 O242 O 0.51056 0.01985 -0.08288
 O243 O 0.46037 -0.02148 -0.00331
 O244 O 0.53789 0.01930 0.00273
 O245 O 0.48068 0.01917 -0.00252
 O246 O 0.51822 -0.02107 0.00208
 H247 H 0.48295 -0.03148 0.11496
 H248 H 0.55464 0.02970 0.00374
 H249 H 0.48584 -0.03050 -0.11679
 H250 H 0.47430 0.02957 -0.00353
 H251 H 0.56254 0.00366 0.04757
 H252 H 0.55605 -0.01119 -0.04299
 H253 H 0.52417 0.01042 -0.17531
 H254 H 0.48945 0.00778 -0.17862
 H255 H 0.43427 -0.00987 -0.04830
 H256 H 0.43718 -0.00051 0.09909
 H257 H 0.48588 0.00654 0.17455
 H258 H 0.53173 -0.00266 0.18015
 C259 C 1.17583 0.49671 0.30982
 N260 N 1.17346 0.47698 0.33134
 N261 N 1.18874 0.47737 0.36786
 C262 C 1.20689 0.49752 0.38462
 N263 N 1.20933 0.51727 0.36283
 N264 N 1.19410 0.51687 0.32601
 C265 C 1.15834 0.49620 0.27163
 N266 N 1.16158 0.51549 0.24511
 N267 N 1.14528 0.51507 0.21225
 C268 C 1.12511 0.49538 0.20502
 N269 N 1.12193 0.47610 0.23137
 N270 N 1.13826 0.47648 0.26389
 C271 C 1.10661 0.49505 0.17133
 N272 N 1.08522 0.47665 0.17351
 N273 N 1.06815 0.47659 0.14504
 C274 C 1.07185 0.49487 0.11294
 N275 N 1.09330 0.51321 0.11029
 N276 N 1.11036 0.51333 0.13913
 C277 C 0.50157 0.67739 0.31331
 N278 N 0.52144 0.69470 0.33413
 N279 N 0.52136 0.70998 0.36984
 C280 C 0.50139 0.70845 0.38646
 N281 N 0.48150 0.69120 0.36531
 N282 N 0.48159 0.67598 0.32927
 C283 C 0.50179 0.65998 0.27622
 N284 N 0.48248 0.64403 0.24977
 N285 N 0.48271 0.62784 0.21775
 C286 C 0.50222 0.62693 0.21141
 N287 N 0.52150 0.64291 0.23777
 N288 N 0.52131 0.65917 0.26941
 C289 C 0.50247 0.60862 0.17823
 N290 N 0.52065 0.60531 0.18155
 N291 N 0.52084 0.58840 0.15287
 C292 C 0.50291 0.57427 0.11940
 N293 N 0.48476 0.57765 0.11570
 N294 N 0.48450 0.59448 0.14479
 C295 C 0.32014 -0.17666 0.30801
 N296 N 0.30287 -0.17414 0.32943
 N297 N 0.28801 -0.18930 0.36624
 C298 C 0.28992 -0.20749 0.38337
 N299 N 0.30715 -0.21008 0.36168
 N300 N 0.32195 -0.19496 0.32459
 C301 C 0.33706 -0.15930 0.26942
 N302 N 0.35316 -0.16255 0.24339
 N303 N 0.36896 -0.14634 0.21012
 C304 C 0.36930 -0.12626 0.20196
 N305 N 0.35314 -0.12307 0.22785
 N306 N 0.33728 -0.13931 0.26079
 C307 C 0.38737 -0.10782 0.16793
 N308 N 0.39009 -0.08651 0.16908
 N309 N 0.40710 -0.06942 0.14059
 C310 C 0.42193 -0.07304 0.10949
 N311 N 0.41909 -0.09441 0.10778
 N312 N 0.40215 -0.11149 0.13664
 C313 C 0.82433 0.50168 0.31397
 N314 N 0.82751 0.52140 0.33759
 N315 N 0.81202 0.52127 0.37289
 C316 C 0.79280 0.50141 0.38614
 N317 N 0.78954 0.48166 0.36233
 N318 N 0.80500 0.48181 0.32674
 C319 C 0.84203 0.50187 0.27722
 N320 N 0.83833 0.48278 0.24888
 N321 N 0.85478 0.48294 0.21713
 C322 C 0.87556 0.50216 0.21291
 N323 N 0.87921 0.52123 0.24115
 N324 N 0.86274 0.52110 0.27256
 C325 C 0.89410 0.50232 0.17985
 N326 N 0.91571 0.52022 0.18420
 N327 N 0.93275 0.52036 0.15537
 C328 C 0.92880 0.50266 0.12077
 N329 N 0.90716 0.48477 0.11614
 N330 N 0.89012 0.48456 0.14533
 C331 C 0.49526 0.31997 0.31030
 N332 N 0.47579 0.30362 0.33537
 N333 N 0.47634 0.28879 0.37192
 C334 C 0.49641 0.28984 0.38496
 N335 N 0.51588 0.30613 0.35972
 N336 N 0.51530 0.32089 0.32295
 C337 C 0.49476 0.33696 0.27201
 N338 N 0.51381 0.35221 0.24333
 N339 N 0.51355 0.36819 0.21044
 C340 C 0.49426 0.36956 0.20528
 N341 N 0.47520 0.35424 0.23377
 N342 N 0.47543 0.33820 0.26640
 C343 C 0.49419 0.38787 0.17153
 N344 N 0.47614 0.39140 0.17433
 N345 N 0.47638 0.40861 0.14593
 C346 C 0.49463 0.42284 0.11336
 N347 N 0.51262 0.41919 0.11007
 N348 N 0.51243 0.40205 0.13878
 C349 C 0.67620 0.17528 0.31549
 N350 N 0.67568 0.19467 0.32782
 N351 N 0.69100 0.21022 0.36318
 C352 C 0.70747 0.20700 0.38719
 N353 N 0.70811 0.18773 0.37438
 N354 N 0.69273 0.17215 0.33931
 C355 C 0.65867 0.15749 0.27902
 N356 N 0.65709 0.13669 0.27504
 N357 N 0.64073 0.12016 0.24386
 C358 C 0.62540 0.12382 0.21519
 N359 N 0.62707 0.14467 0.21875
 N360 N 0.64337 0.16119 0.25027
 C361 C 0.60702 0.10523 0.18228
 N362 N 0.59338 0.10923 0.14729
 N363 N 0.57655 0.09217 0.11821
 C364 C 0.57267 0.07047 0.12345
 N365 N 0.58629 0.06650 0.15849
 N366 N 0.60319 0.08357 0.18721
 C367 C 0.50203 0.17694 -0.31578
 N368 N 0.48243 0.17756 -0.32307
 N369 N 0.48179 0.19268 -0.35846
 C370 C 0.50085 0.20802 -0.38704
 N371 N 0.52056 0.20765 -0.37879
 N372 N 0.52108 0.19223 -0.34428
 C373 C 0.50234 0.15923 -0.28028
 N374 N 0.51433 0.14907 -0.29722
 N375 N 0.51386 0.13223 -0.26656
 C376 C 0.50176 0.12527 -0.21729
 N377 N 0.48999 0.13562 -0.19990
 N378 N 0.49009 0.15217 -0.23118
 C379 C 0.50084 0.10635 -0.18455
 N380 N 0.50155 0.10692 -0.12670
 N381 N 0.50084 0.08967 -0.09725
 C382 C 0.49891 0.07109 -0.12465
 N383 N 0.49798 0.07044 -0.18243
 N384 N 0.49916 0.08787 -0.21189
 C385 C 0.67883 0.50284 -0.31107
 N386 N 0.69622 0.52258 -0.33239
 N387 N 0.71112 0.52220 -0.36889
 C388 C 0.70912 0.50205 -0.38580
 N389 N 0.69177 0.48228 -0.36421
 N390 N 0.67694 0.48268 -0.32741
 C391 C 0.66187 0.50335 -0.27281
 N392 N 0.64583 0.48406 -0.24635
 N393 N 0.63001 0.48450 -0.21330
 C394 C 0.62956 0.50422 -0.20581
 N395 N 0.64563 0.52350 -0.23216
 N396 N 0.66153 0.52309 -0.26487
 C397 C 0.61147 0.50458 -0.17187
 N398 N 0.60853 0.52304 -0.17379
 N399 N 0.59153 0.52310 -0.14524
 C400 C 0.57694 0.50479 -0.11331
 N401 N 0.58002 0.48641 -0.11086
 N402 N 0.59694 0.48628 -0.13978
 C403 C 0.82364 0.32262 -0.31432
 N404 N 0.82599 0.30518 -0.33527
 N405 N 0.81044 0.28989 -0.37057
 C406 C 0.79201 0.29153 -0.38662
 N407 N 0.78957 0.30891 -0.36532
 N408 N 0.80506 0.32413 -0.32970
 C409 C 0.84144 0.34003 -0.27763
 N410 N 0.83817 0.35599 -0.25079
 N411 N 0.85470 0.37217 -0.21906
 C412 C 0.87514 0.37308 -0.21342
 N413 N 0.87836 0.35710 -0.24022
 N414 N 0.86180 0.34085 -0.27157
 C415 C 0.89376 0.39134 -0.18033
 N416 N 0.91526 0.39470 -0.18421
 N417 N 0.93237 0.41154 -0.15547
 C418 C 0.92860 0.42556 -0.12140
 N419 N 0.90706 0.42213 -0.11717
 N420 N 0.88996 0.40537 -0.14631
 C421 C 0.50390 -0.17576 -0.31058
 N422 N 0.52344 -0.17280 -0.33478
 N423 N 0.52293 -0.18819 -0.37112
 C424 C 0.50285 -0.20706 -0.38485
 N425 N 0.48329 -0.21008 -0.36052
 N426 N 0.48382 -0.19474 -0.32392
 C427 C 0.50448 -0.15824 -0.27237
 N428 N 0.48545 -0.16183 -0.24398
 N429 N 0.48591 -0.14555 -0.21093
 C430 C 0.50539 -0.12506 -0.20534
 N431 N 0.52441 -0.12152 -0.23360
 N432 N 0.52398 -0.13783 -0.26635
 C433 C 0.50570 -0.10665 -0.17130
 N434 N 0.52391 -0.08513 -0.17387
 N435 N 0.52387 -0.06813 -0.14519
 C436 C 0.50569 -0.07205 -0.11253
 N437 N 0.48756 -0.09362 -0.10947
 N438 N 0.48754 -0.11060 -0.13845
 C439 C 0.32252 0.49792 -0.31538
 N440 N 0.32300 0.51779 -0.32803
 N441 N 0.30767 0.51794 -0.36357
 C442 C 0.29125 0.49820 -0.38743
 N443 N 0.29065 0.47834 -0.37429
 N444 N 0.30603 0.47820 -0.33905
 C445 C 0.34005 0.49773 -0.27875
 N446 N 0.34164 0.47854 -0.27432
 N447 N 0.35800 0.47843 -0.24297
 C448 C 0.37333 0.49748 -0.21458
 N449 N 0.37166 0.51666 -0.21859
 N450 N 0.35535 0.51681 -0.25029
 C451 C 0.39171 0.49734 -0.18150
 N452 N 0.40541 0.51508 -0.14687
 N453 N 0.42225 0.51489 -0.11769
 C454 C 0.42609 0.49704 -0.12245
 N455 N 0.41240 0.47935 -0.15711
 N456 N 0.39549 0.47947 -0.18593
 C457 C 1.17533 0.67877 -0.31208
 N458 N 1.19432 0.67773 -0.32587
 N459 N 1.20956 0.69264 -0.36258
 C460 C 1.20642 0.70918 -0.38658
 N461 N 1.18754 0.71031 -0.37238
 N462 N 1.17226 0.69536 -0.33594
 C463 C 1.15787 0.66172 -0.27391
 N464 N 1.13746 0.66078 -0.26763
 N465 N 1.12117 0.64479 -0.23503
 C466 C 1.12472 0.62922 -0.20718
 N467 N 1.14522 0.63026 -0.21300
 N468 N 1.16148 0.64619 -0.24591
 C469 C 1.10629 0.61101 -0.17337
 N470 N 1.11020 0.59673 -0.14056
 N471 N 1.09319 0.57973 -0.11170
 C472 C 1.07164 0.57632 -0.11491
 N473 N 1.06778 0.59065 -0.14757
 N474 N 1.08480 0.60772 -0.17608
 C475 C 0.82360 0.50154 -0.31099
 N476 N 0.82670 0.52129 -0.33433
 N477 N 0.81123 0.52117 -0.36961
 C478 C 0.79210 0.50128 -0.38310
 N479 N 0.78889 0.48151 -0.35952
 N480 N 0.80434 0.48165 -0.32394
 C481 C 0.84137 0.50174 -0.27467
 N482 N 0.83777 0.48264 -0.24646
 N483 N 0.85435 0.48281 -0.21526
 C484 C 0.87514 0.50204 -0.21154
 N485 N 0.87867 0.52111 -0.23963
 N486 N 0.86208 0.52098 -0.27047
 C487 C 0.89379 0.50220 -0.17917
 N488 N 0.91539 0.52006 -0.18425
 N489 N 0.93253 0.52021 -0.15595
 C490 C 0.92869 0.50256 -0.12121
 N491 N 0.90706 0.48471 -0.11585
 N492 N 0.88992 0.48449 -0.14452
 C493 C 0.49835 0.32123 -0.30830
 N494 N 0.47866 0.30435 -0.33100
 N495 N 0.47897 0.28937 -0.36724
 C496 C 0.49899 0.29074 -0.38241
 N497 N 0.51873 0.30755 -0.35954
 N498 N 0.51841 0.32251 -0.32299
 C499 C 0.49783 0.33831 -0.27065
 N500 N 0.51696 0.35419 -0.24349
 N501 N 0.51643 0.37013 -0.21108
 C502 C 0.49679 0.37081 -0.20500
 N503 N 0.47768 0.35488 -0.23202
 N504 N 0.47818 0.33889 -0.26409
 C505 C 0.49630 0.38897 -0.17181
 N506 N 0.47790 0.39196 -0.17472
 N507 N 0.47769 0.40898 -0.14665
 C508 C 0.49580 0.42354 -0.11427
 N509 N 0.51413 0.42043 -0.11088
 N510 N 0.51441 0.40349 -0.13930
 C511 C 0.67787 0.17650 -0.30831
 N512 N 0.69461 0.17357 -0.33165
 N513 N 0.70970 0.18901 -0.36752
 C514 C 0.70857 0.20792 -0.38160
 N515 N 0.69192 0.21095 -0.35804
 N516 N 0.67686 0.19553 -0.32188
 C517 C 0.66058 0.15875 -0.27131
 N518 N 0.64487 0.16214 -0.24362
 N519 N 0.62870 0.14557 -0.21187
 C520 C 0.62759 0.12499 -0.20704
 N521 N 0.64334 0.12166 -0.23461
 N522 N 0.65957 0.13825 -0.26602
 C523 C 0.60927 0.10629 -0.17430
 N524 N 0.60600 0.08481 -0.17821
 N525 N 0.58903 0.06759 -0.15001
 C526 C 0.57478 0.07123 -0.11652
 N527 N 0.57813 0.09275 -0.11225
 N528 N 0.59503 0.10997 -0.14081
 C529 C 1.17561 0.49622 -0.30953
 N530 N 1.19440 0.51636 -0.32358
 N531 N 1.20962 0.51692 -0.36066
 C532 C 1.20663 0.49733 -0.38474
 N533 N 1.18795 0.47720 -0.37028
 N534 N 1.17270 0.47666 -0.33349
 C535 C 1.15813 0.49556 -0.27119
 N536 N 1.13777 0.47601 -0.26513
 N537 N 1.12141 0.47554 -0.23252
 C538 C 1.12488 0.49458 -0.20444
 N539 N 1.14533 0.51409 -0.21003
 N540 N 1.16165 0.51459 -0.24295
 C541 C 1.10640 0.49428 -0.17091
 N542 N 1.11030 0.51239 -0.13795
 N543 N 1.09321 0.51245 -0.10969
 C544 C 1.07161 0.49446 -0.11373
 N545 N 1.06777 0.47632 -0.14648
 N546 N 1.08486 0.47620 -0.17440
 C547 C 0.50201 0.67793 -0.31332
 N548 N 0.48199 0.67651 -0.32896
 N549 N 0.48183 0.69169 -0.36501
 C550 C 0.50168 0.70892 -0.38649
 N551 N 0.52168 0.71049 -0.37015
 N552 N 0.52184 0.69524 -0.33441
 C553 C 0.50229 0.66050 -0.27646
 N554 N 0.52181 0.65965 -0.27007
 N555 N 0.52202 0.64331 -0.23875
 C556 C 0.50276 0.62728 -0.21235
 N557 N 0.48325 0.62822 -0.21827
 N558 N 0.48300 0.64450 -0.24996
 C559 C 0.50300 0.60890 -0.17951
 N560 N 0.48502 0.59471 -0.14611
 N561 N 0.48525 0.57782 -0.11720
 C562 C 0.50340 0.57443 -0.12105
 N563 N 0.52133 0.58860 -0.15450
 N564 N 0.52117 0.60557 -0.18303
 C565 C 0.32080 -0.17602 -0.31143
 N566 N 0.32175 -0.19506 -0.32521
 N567 N 0.30684 -0.21026 -0.36189
 C568 C 0.29039 -0.20699 -0.38584
 N569 N 0.28933 -0.18808 -0.37160
 N570 N 0.30428 -0.17285 -0.33519
 C571 C 0.33792 -0.15856 -0.27364
 N572 N 0.33902 -0.13804 -0.26779
 N573 N 0.35515 -0.12169 -0.23574
 C574 C 0.37070 -0.12530 -0.20805
 N575 N 0.36948 -0.14590 -0.21338
 N576 N 0.35341 -0.16223 -0.24576
 C577 C 0.38904 -0.10681 -0.17495
 N578 N 0.40322 -0.11076 -0.14194
 N579 N 0.42031 -0.09371 -0.11352
 C580 C 0.42390 -0.07208 -0.11745
 N581 N 0.40969 -0.06818 -0.15036
 N582 N 0.39254 -0.08524 -0.17842
 C583 C 0.50327 -0.17671 0.30754
 N584 N 0.52289 -0.17367 0.33136
 N585 N 0.52252 -0.18893 0.36796
 C586 C 0.50249 -0.20775 0.38233
 N587 N 0.48285 -0.21088 0.35832
 N588 N 0.48324 -0.19565 0.32145
 C589 C 0.50370 -0.15921 0.26957
 N590 N 0.48457 -0.16280 0.24173
 N591 N 0.48486 -0.14644 0.20928
 C592 C 0.50425 -0.12587 0.20382
 N593 N 0.52338 -0.12235 0.23146
 N594 N 0.52312 -0.13873 0.26360
 C595 C 0.50438 -0.10734 0.17078
 N596 N 0.52245 -0.08578 0.17418
 N597 N 0.52228 -0.06867 0.14639
 C598 C 0.50410 -0.07250 0.11385
 N599 N 0.48610 -0.09411 0.10997
 N600 N 0.48620 -0.11122 0.13811
 C601 C 0.32169 0.49787 0.30944
 N602 N 0.32232 0.51778 0.32242
 N603 N 0.30705 0.51794 0.35811
 C604 C 0.29054 0.49818 0.38178
 N605 N 0.28978 0.47828 0.36829
 N606 N 0.30510 0.47814 0.33288
 C607 C 0.33920 0.49765 0.27291
 N608 N 0.34064 0.47837 0.26846
 N609 N 0.35705 0.47822 0.23744
 C610 C 0.37257 0.49730 0.20942
 N611 N 0.37104 0.51656 0.21339
 N612 N 0.35469 0.51675 0.24477
 C613 C 0.39104 0.49714 0.17691
 N614 N 0.40491 0.51491 0.14251
 N615 N 0.42185 0.51472 0.11386
 C616 C 0.42561 0.49683 0.11896
 N617 N 0.41176 0.47911 0.15342
 N618 N 0.39475 0.47922 0.18171
 C619 C 1.17582 0.67945 0.30610
 N620 N 1.17278 0.69607 0.32977
 N621 N 1.18801 0.71095 0.36630
 C622 C 1.20680 0.70971 0.38074
 N623 N 1.20994 0.69317 0.35687
 N624 N 1.19474 0.67833 0.32008
 C625 C 1.15835 0.66240 0.26818
 N626 N 1.16190 0.64678 0.24058
 N627 N 1.14559 0.63077 0.20804
 C628 C 1.12511 0.62975 0.20222
 N629 N 1.12161 0.64542 0.22967
 N630 N 1.13795 0.66149 0.26190
 C631 C 1.10663 0.61144 0.16900
 N632 N 1.08512 0.60810 0.17198
 N633 N 1.06804 0.59088 0.14412
 C634 C 1.07186 0.57644 0.11190
 N635 N 1.09342 0.57989 0.10842
 N636 N 1.11049 0.59704 0.13663
 C637 C 0.49596 0.17448 0.31167
 N638 N 0.51582 0.19411 0.32225
 N639 N 0.51631 0.20961 0.35823
 C640 C 0.49693 0.20608 0.38463
 N641 N 0.47704 0.18657 0.37358
 N642 N 0.47658 0.17103 0.33785
 C643 C 0.49553 0.15675 0.27470
 N644 N 0.47646 0.13585 0.27157
 N645 N 0.47624 0.11935 0.24011
 C646 C 0.49505 0.12317 0.21037
 N647 N 0.51409 0.14413 0.21307
 N648 N 0.51434 0.16062 0.24483
 C649 C 0.49492 0.10465 0.17743
 N650 N 0.51265 0.10874 0.14270
 N651 N 0.51261 0.09173 0.11387
 C652 C 0.49492 0.07000 0.11906
 N653 N 0.47722 0.06593 0.15378
 N654 N 0.47719 0.08295 0.18231
 C655 C 0.67933 0.50359 0.30816
 N656 N 0.69589 0.52315 0.33226
 N657 N 0.71062 0.52263 0.36903
 C658 C 0.70928 0.50251 0.38329
 N659 N 0.69278 0.48293 0.35901
 N660 N 0.67810 0.48347 0.32198
 C661 C 0.66245 0.50420 0.26992
 N662 N 0.64694 0.48513 0.24182
 N663 N 0.63105 0.48559 0.20908
 C664 C 0.63004 0.50508 0.20356
 N665 N 0.64561 0.52415 0.23145
 N666 N 0.66156 0.52373 0.26389
 C667 C 0.61182 0.50537 0.17020
 N668 N 0.60845 0.52354 0.17332
 N669 N 0.59127 0.52346 0.14532
 C670 C 0.57693 0.50527 0.11284
 N671 N 0.58043 0.48718 0.10922
 N672 N 0.59753 0.48719 0.13754
 C673 C 0.82353 0.32211 0.31159
 N674 N 0.80442 0.32301 0.32459
 N675 N 0.78894 0.30791 0.36054
 C676 C 0.79199 0.29129 0.38443
 N677 N 0.81098 0.29027 0.37091
 N678 N 0.82648 0.30543 0.33527
 C679 C 0.84132 0.33946 0.27483
 N680 N 0.86194 0.34072 0.27048
 N681 N 0.87855 0.35701 0.23925
 C682 C 0.87512 0.37257 0.21092
 N683 N 0.85443 0.37121 0.21481
 N684 N 0.83784 0.35498 0.24639
 C685 C 0.89378 0.39090 0.17816
 N686 N 0.88995 0.40478 0.14361
 N687 N 0.90710 0.42164 0.11477
 C688 C 0.92870 0.42530 0.11984
 N689 N 0.93249 0.41142 0.15443
 N690 N 0.91534 0.39449 0.18291
   
