data_POSCAR
  _audit_creation_date              2014-09-24
  _audit_creation_method            'ToBaCCo'
  _symmetry_space_group_name_H-M    'P1'
  _symmetry_Int_Tables_number       1
  _symmetry_cell_setting            triclinic
  loop_
  _symmetry_equiv_pos_as_xyz
 x,y,z
_cell_length_a 35.4083
_cell_length_b 35.1881
_cell_length_c 35.1612
_cell_angle_alpha 90.609500
_cell_angle_beta 90.170800
_cell_angle_gamma 87.526700
loop_
  _atom_site_label
  _atom_site_type_symbol
  _atom_site_fract_x
  _atom_site_fract_y
  _atom_site_fract_z
C1 C 0.18681 0.55311 1.05355
 H2 H 0.19246 0.57613 1.03454
 C3 C 0.16045 0.55894 1.08277
 H4 H 0.14643 0.58674 1.08541
 C5 C 0.19611 0.48837 1.07000
 H6 H 0.20970 0.46076 1.06448
 C7 C 0.16865 0.49243 1.09839
 H8 H 0.16211 0.46771 1.11483
 N9 N 0.20474 0.51852 1.04832
 C10 C 0.29813 0.54409 0.97263
 H11 H 0.29644 0.51926 0.95438
 C12 C 0.32606 0.57003 0.96634
 H13 H 0.34589 0.56414 0.94352
 C14 C 0.27542 0.57959 1.02598
 H15 H 0.25657 0.58263 1.04997
 C16 C 0.30279 0.60652 1.02055
 H17 H 0.30390 0.63042 1.04011
 Zn18 Zn 0.23802 0.51042 1.00651
 N19 N 0.27313 0.54946 1.00165
 C20 C 0.20976 0.53560 0.93540
 N21 N 0.20784 0.50809 0.96212
 C22 C 0.18247 0.48029 0.95903
 C23 C 0.15756 0.47955 0.92814
 C24 C 0.18536 0.53600 0.90418
 C25 C 0.29167 0.46569 1.04361
 C26 C 0.32065 0.43793 1.04733
 C27 C 0.29917 0.40808 0.98943
 C28 C 0.27064 0.43678 0.98658
 N29 N 0.26811 0.46529 1.01306
 H30 H 0.22952 0.55793 0.93868
 H31 H 0.18114 0.45909 0.98099
 H32 H 0.13707 0.45760 0.92651
 H33 H 0.18757 0.55813 0.88327
 H34 H 0.28921 0.48892 1.06397
 H35 H 0.34010 0.43962 1.07106
 H36 H 0.30221 0.38663 0.96721
 H37 H 0.25211 0.43745 0.96210
 C38 C 0.32849 0.60220 0.99017
 C39 C 0.15056 0.52824 1.10568
 C40 C 0.32546 0.40945 1.01931
 C41 C 0.15833 0.50811 0.90059
 C42 C 0.80477 0.52407 -0.04223
 H43 H 0.80106 0.54557 -0.02017
 C44 C 0.83561 0.52482 -0.06668
 H45 H 0.85502 0.54761 -0.06372
 C46 C 0.78369 0.46829 -0.07247
 H47 H 0.76403 0.44571 -0.07393
 C48 C 0.81412 0.46807 -0.09773
 H49 H 0.81731 0.44546 -0.11876
 N50 N 0.77961 0.49611 -0.04545
 C51 C 0.68143 0.54447 0.01514
 H52 H 0.67849 0.52305 0.03666
 C53 C 0.65517 0.57514 0.01304
 H54 H 0.63211 0.57698 0.03321
 C55 C 0.71448 0.56695 -0.03797
 H56 H 0.73727 0.56333 -0.05821
 C57 C 0.68896 0.59822 -0.04100
 H58 H 0.69345 0.61874 -0.06302
 Zn59 Zn 0.74194 0.49623 -0.00754
 N60 N 0.71022 0.54081 -0.01027
 C61 C 0.76883 0.52435 0.06348
 N62 N 0.76844 0.49398 0.03922
 C63 C 0.79069 0.46217 0.04535
 C64 C 0.81424 0.45974 0.07716
 C65 C 0.79271 0.52346 0.09527
 C66 C 0.69166 0.44971 -0.04651
 C67 C 0.66669 0.42028 -0.05106
 C68 C 0.68031 0.40127 0.01352
 C69 C 0.70530 0.43073 0.01667
 N70 N 0.71066 0.45414 -0.01318
 H71 H 0.75176 0.54979 0.05743
 H72 H 0.79070 0.43893 0.02495
 H73 H 0.83231 0.43446 0.08107
 H74 H 0.79353 0.54813 0.11390
 H75 H 0.69553 0.46944 -0.06942
 H76 H 0.65127 0.41776 -0.07753
 H77 H 0.67606 0.38324 0.03778
 H78 H 0.71952 0.43547 0.04340
 C79 C 0.65831 0.60235 -0.01567
 C80 C 0.84090 0.49624 -0.09456
 C81 C 0.66063 0.39572 -0.02066
 C82 C 0.81575 0.49083 0.10233
 C83 C -0.03759 0.30824 0.43455
 H84 H -0.06236 0.30821 0.45249
 C85 C -0.03436 0.33645 0.40720
 H86 H -0.05733 0.35760 0.40454
 C87 C 0.02239 0.28112 0.41790
 H88 H 0.04492 0.26004 0.42269
 C89 C 0.02695 0.30879 0.39033
 H90 H 0.05280 0.30683 0.37421
 N91 N -0.00946 0.28126 0.43934
 C92 C -0.05778 0.18908 0.50213
 H93 H -0.03599 0.18662 0.52372
 C94 C -0.08674 0.16363 0.50148
 H95 H -0.08673 0.14167 0.52282
 C96 C -0.08282 0.22024 0.44765
 H97 H -0.08077 0.24209 0.42648
 C98 C -0.11259 0.19526 0.44595
 H99 H -0.13357 0.19902 0.42378
 Zn100 Zn -0.01304 0.24611 0.47953
 N101 N -0.05622 0.21663 0.47553
 C102 C -0.04487 0.27367 0.54904
 N103 N -0.01430 0.27396 0.52574
 C104 C 0.01579 0.29516 0.53431
 C105 C 0.01638 0.31642 0.56798
 C106 C -0.04567 0.29485 0.58285
 C107 C 0.03283 0.18829 0.44750
 C108 C 0.06109 0.15950 0.44596
 C109 C 0.08049 0.17741 0.50936
 C110 C 0.05191 0.20602 0.50961
 N111 N 0.02879 0.21088 0.47893
 H112 H -0.06902 0.25757 0.54114
 H113 H 0.03946 0.29536 0.51494
 H114 H 0.04084 0.33286 0.57420
 H115 H -0.07091 0.29485 0.60002
 H116 H 0.01372 0.19250 0.42370
 H117 H 0.06400 0.14243 0.42029
 H118 H 0.09816 0.17351 0.53434
 H119 H 0.04759 0.22348 0.53478
 C120 C -0.11459 0.16606 0.47294
 C121 C -0.00145 0.33768 0.38465
 C122 C 0.08501 0.15327 0.47749
 C123 C -0.01460 0.31652 0.59296
 C124 C 1.00010 0.68339 0.55499
 H125 H 0.97957 0.68267 0.53217
 C126 C 0.99997 0.65620 0.58354
 H127 H 0.97919 0.63452 0.58226
 C128 C 1.05260 0.71212 0.58344
 H129 H 1.07344 0.73359 0.58309
 C130 C 1.05335 0.68563 0.61274
 H131 H 1.07426 0.68812 0.63498
 N132 N 1.02599 0.71077 0.55554
 C133 C 0.97631 0.80629 0.49269
 H134 H 0.99815 0.80998 0.47176
 C135 C 0.94522 0.83199 0.49456
 H136 H 0.94346 0.85535 0.47476
 C137 C 0.95310 0.77190 0.54456
 H138 H 0.95651 0.74878 0.56437
 C139 C 0.92138 0.79679 0.54729
 H140 H 0.90041 0.79144 0.56862
 Zn141 Zn 1.02444 0.74568 0.51500
 N142 N 0.97972 0.77701 0.51750
 C143 C 0.99817 0.71996 0.44289
 N144 N 1.02630 0.71681 0.46923
 C145 C 1.05523 0.69043 0.46526
 C146 C 1.05654 0.66560 0.43401
 C147 C 0.99841 0.69577 0.41109
 C148 C 1.06674 0.80150 0.54938
 C149 C 1.09553 0.82708 0.55335
 C150 C 1.12060 0.80516 0.49275
 C151 C 1.09160 0.77953 0.49021
 N152 N 1.06553 0.77809 0.51843
 H153 H 0.97499 0.74058 0.44693
 H154 H 1.07679 0.68799 0.48708
 H155 H 1.07914 0.64398 0.43260
 H156 H 0.97549 0.69847 0.39071
 H157 H 1.04504 0.80043 0.57090
 H158 H 1.09555 0.84590 0.57790
 H159 H 1.14094 0.80633 0.46989
 H160 H 1.08959 0.76132 0.46542
 C161 C 0.91730 0.82776 0.52239
 C162 C 1.02696 0.65688 0.61292
 C163 C 1.12290 0.82916 0.52474
 C164 C 1.02774 0.66790 0.40635
 C165 C 0.44170 -0.03362 0.28257
 H166 H 0.44794 -0.05521 0.26118
 C167 C 0.41278 -0.03882 0.30869
 H168 H 0.39642 -0.06401 0.30635
 C169 C 0.45568 0.02515 0.31178
 H170 H 0.47305 0.04969 0.31309
 C171 C 0.42699 0.02122 0.33829
 H172 H 0.42237 0.04302 0.35995
 N173 N 0.46234 -0.00193 0.28452
 C174 C 0.54144 -0.05975 0.21690
 H175 H 0.56419 -0.05493 0.23668
 C176 C 0.54514 -0.08957 0.19039
 H177 H 0.57095 -0.10692 0.19128
 C178 C 0.48123 -0.04141 0.19233
 H179 H 0.45653 -0.02221 0.19315
 C180 C 0.48362 -0.07074 0.16541
 H181 H 0.46010 -0.07347 0.14596
 Zn182 Zn 0.50370 0.00478 0.25199
 N183 N 0.50968 -0.03669 0.21763
 C184 C 0.55450 -0.02074 0.30747
 N185 N 0.54661 0.00864 0.28355
 C186 C 0.56681 0.04065 0.28471
 C187 C 0.59624 0.04402 0.31095
 C188 C 0.58375 -0.01868 0.33393
 C189 C 0.46431 0.07221 0.22594
 C190 C 0.45865 0.10335 0.20189
 C191 C 0.51793 0.08586 0.17125
 C192 C 0.52251 0.05535 0.19598
 N193 N 0.49589 0.04903 0.22258
 H194 H 0.53749 -0.04555 0.30638
 H195 H 0.55964 0.06396 0.26590
 H196 H 0.61207 0.06964 0.31126
 H197 H 0.58919 -0.04222 0.35306
 H198 H 0.44313 0.06636 0.24687
 H199 H 0.43343 0.12131 0.20573
 H200 H 0.53947 0.08970 0.15002
 H201 H 0.54713 0.03616 0.19364
 C202 C 0.51588 -0.09579 0.16385
 C203 C 0.40533 -0.01127 0.33724
 C204 C 0.48546 0.11034 0.17355
 C205 C 0.60472 0.01424 0.33635
 C206 C 0.58147 -0.02154 0.71966
 H207 H 0.58056 -0.04606 0.73782
 C208 C 0.61104 -0.01894 0.69367
 H209 H 0.63305 -0.04127 0.69242
 C210 C 0.55288 0.03618 0.69735
 H211 H 0.52934 0.05681 0.69802
 C212 C 0.58223 0.04027 0.67150
 H213 H 0.58109 0.06426 0.65244
 N214 N 0.55312 0.00581 0.72096
 C215 C 0.49135 -0.07264 0.77979
 H216 H 0.46911 -0.07174 0.75866
 C217 C 0.49395 -0.10270 0.80550
 H218 H 0.47384 -0.12498 0.80352
 C219 C 0.54337 -0.04388 0.80916
 H220 H 0.56187 -0.02024 0.81096
 C221 C 0.54701 -0.07335 0.83536
 H222 H 0.56828 -0.07165 0.85738
 Zn223 Zn 0.50981 -0.00009 0.75150
 N224 N 0.51579 -0.04392 0.78220
 C225 C 0.47427 -0.03131 0.68932
 N226 N 0.46891 -0.00491 0.71749
 C227 C 0.43743 0.01867 0.71853
 C228 C 0.41016 0.01671 0.68975
 C229 C 0.44808 -0.03392 0.65988
 C230 C 0.52364 0.07258 0.78541
 C231 C 0.51906 0.10065 0.81371
 C232 C 0.46880 0.06525 0.84055
 C233 C 0.47386 0.03828 0.81145
 N234 N 0.50136 0.04197 0.78502
 H235 H 0.49968 -0.04953 0.68914
 H236 H 0.43399 0.03980 0.74093
 H237 H 0.38575 0.03634 0.69022
 H238 H 0.45324 -0.05468 0.63733
 H239 H 0.54594 0.07465 0.76477
 H240 H 0.53778 0.12419 0.81450
 H241 H 0.44757 0.06122 0.86207
 H242 H 0.45682 0.01349 0.81073
 C243 C 0.52192 -0.10328 0.83396
 C244 C 0.61163 0.01229 0.66922
 C245 C 0.49210 0.09648 0.84230
 C246 C 0.41596 -0.00912 0.65942
 C247 C 0.25500 0.00232 0.50279
 C248 C 0.75725 -0.00984 0.49976
 C249 C 0.49408 0.25507 1.00341
 C250 C 0.48700 0.75393 0.00050
 C251 C 0.98237 0.51427 0.24914
 C252 C -0.00144 0.48113 0.74622
 C253 C 0.17204 0.09531 0.50192
 C254 C 0.16749 0.06235 0.48009
 N255 N 0.13643 0.05936 0.45783
 C256 C 0.10960 0.08805 0.45623
 C257 C 0.11402 0.12155 0.47783
 N258 N 0.14529 0.12409 0.50036
 N259 N 0.20326 0.09810 0.52410
 C260 C 0.23003 0.06920 0.52568
 C261 C 0.22535 0.03551 0.50419
 N262 N 0.19412 0.03366 0.48157
 H263 H 0.08480 0.08415 0.43887
 H264 H 0.25501 0.07300 0.54281
 C265 C 0.57918 0.67102 0.00998
 C266 C 0.57240 0.69018 -0.02423
 N267 N 0.59403 0.68103 -0.05505
 C268 C 0.62220 0.65354 -0.05323
 C269 C 0.62919 0.63403 -0.01887
 N270 N 0.60718 0.64353 0.01184
 N271 N 0.55704 0.67946 0.04057
 C272 C 0.52831 0.70625 0.03850
 C273 C 0.52128 0.72596 0.00423
 N274 N 0.54365 0.71690 -0.02641
 H275 H 0.63801 0.64647 -0.07875
 H276 H 0.51076 0.71184 0.06324
 C277 C 0.84716 -0.09551 0.49486
 C278 C 0.82543 -0.09044 0.52791
 N279 N 0.83376 -0.11210 0.55876
 C280 C 0.86276 -0.13876 0.55804
 C281 C 0.88461 -0.14424 0.52475
 N282 N 0.87603 -0.12209 0.49408
 N283 N 0.83952 -0.07336 0.46426
 C284 C 0.81090 -0.04641 0.46511
 C285 C 0.78832 -0.04151 0.49796
 N286 N 0.79674 -0.06356 0.52881
 H287 H 0.86894 -0.15469 0.58356
 H288 H 0.80576 -0.02882 0.44041
 C289 C 0.39046 0.32367 1.00875
 C290 C 0.42553 0.33935 1.01588
 N291 N 0.42726 0.37681 1.02464
 C292 C 0.39539 0.39953 1.02661
 C293 C 0.36002 0.38426 1.01907
 N294 N 0.35842 0.34651 1.01006
 N295 N 0.38913 0.28588 1.00068
 C296 C 0.42132 0.26318 0.99925
 C297 C 0.45680 0.27902 1.00564
 N298 N 0.45746 0.31693 1.01384
 H299 H 0.39777 0.42946 1.03310
 H300 H 0.41936 0.23318 0.99289
 C301 C 0.82596 0.08752 0.50379
 C302 C 0.80561 0.07914 0.47079
 N303 N 0.81027 0.10023 0.43915
 C304 C 0.83464 0.12916 0.43893
 C305 C 0.85568 0.13734 0.47195
 N306 N 0.85033 0.11613 0.50354
 N307 N 0.82249 0.06582 0.53508
 C308 C 0.79963 0.03584 0.53486
 C309 C 0.77884 0.02702 0.50183
 N310 N 0.78281 0.04904 0.47042
 H311 H 0.83828 0.14446 0.41283
 H312 H 0.79838 0.01835 0.55992
 C313 C 0.39512 0.67886 0.01144
 C314 C 0.41488 0.68143 -0.02280
 N315 N 0.40560 0.65906 -0.05274
 C316 C 0.37770 0.63385 -0.04988
 C317 C 0.35829 0.63034 -0.01514
 N318 N 0.36756 0.65345 0.01452
 N319 N 0.40432 0.70122 0.04138
 C320 C 0.43236 0.72622 0.03866
 C321 C 0.45240 0.72932 0.00414
 N322 N 0.44322 0.70604 -0.02550
 H323 H 0.37077 0.61722 -0.07472
 H324 H 0.43950 0.74254 0.06368
 C325 C 0.18658 -0.09544 0.49546
 C326 C 0.20215 -0.08423 0.53029
 N327 N 0.19292 -0.10249 0.56255
 C328 C 0.16831 -0.13112 0.56161
 C329 C 0.15201 -0.14197 0.52678
 N330 N 0.16203 -0.12398 0.49447
 N331 N 0.19478 -0.07644 0.46343
 C332 C 0.21763 -0.04643 0.46462
 C333 C 0.23344 -0.03464 0.49960
 N334 N 0.22497 -0.05423 0.53155
 H335 H 0.16145 -0.14511 0.58780
 H336 H 0.22239 -0.03112 0.43867
 C337 C 0.58453 0.33277 1.00802
 C338 C 0.57674 0.31333 0.97407
 N339 N 0.59689 0.32057 0.94233
 C340 C 0.62427 0.34661 0.94298
 C341 C 0.63199 0.36631 0.97702
 N342 N 0.61190 0.35851 1.00873
 N343 N 0.56406 0.32634 1.03958
 C344 C 0.53582 0.30149 1.03875
 C345 C 0.52741 0.28181 1.00470
 N346 N 0.54860 0.28824 0.97320
 H347 H 0.63996 0.35161 0.91730
 H348 H 0.51962 0.29742 1.06433
 C349 C 0.50688 0.17619 1.09523
 C350 C 0.47252 0.19673 1.09003
 N351 N 0.44283 0.18972 1.11287
 C352 C 0.44586 0.16291 1.14052
 C353 C 0.48037 0.14185 1.14566
 N354 N 0.50990 0.14954 1.12266
 N355 N 0.53640 0.18219 1.07200
 C356 C 0.53307 0.20769 1.04344
 C357 C 0.49852 0.22841 1.03758
 N358 N 0.46904 0.22236 1.06143
 H359 H 0.42118 0.15781 1.15731
 H360 H 0.55694 0.21133 1.02487
 C361 C -0.00540 0.57899 0.67391
 C362 C 0.02706 0.56927 0.69500
 N363 N 0.05886 0.58873 0.68990
 C364 C 0.05971 0.61752 0.66446
 C365 C 0.02716 0.62732 0.64284
 N366 N -0.00461 0.60757 0.64843
 N367 N -0.03670 0.55861 0.67796
 C368 C -0.03699 0.52867 0.70204
 C369 C -0.00440 0.51844 0.72359
 N370 N 0.02686 0.53932 0.71889
 H371 H 0.08596 0.63148 0.66052
 H372 H -0.06207 0.51252 0.70304
 C373 C 0.48921 0.82401 -0.09871
 C374 C 0.52213 0.81502 -0.07797
 N375 N 0.55491 0.83107 -0.08746
 C376 C 0.55613 0.85636 -0.11638
 C377 C 0.52282 0.86665 -0.13655
 N378 N 0.49024 0.84960 -0.12731
 N379 N 0.45635 0.80838 -0.08879
 C380 C 0.45479 0.78432 -0.05884
 C381 C 0.48780 0.77526 -0.03743
 N382 N 0.52055 0.79145 -0.04778
 H383 H 0.58286 0.86827 -0.12329
 H384 H 0.42763 0.77399 -0.05098
 C385 C 0.97435 0.42207 0.32767
 C386 C 1.00755 0.42671 0.30714
 N387 N 1.03744 0.40195 0.31224
 C388 C 1.03573 0.37253 0.33687
 C389 C 1.00227 0.36740 0.35796
 N390 N 0.97257 0.39288 0.35243
 N391 N 0.94443 0.44691 0.32273
 C392 C 0.94616 0.47609 0.29784
 C393 C 0.97930 0.48066 0.27637
 N394 N 1.00943 0.45592 0.28239
 H395 H 1.06074 0.35428 0.33981
 H396 H 0.92186 0.49551 0.29473
 C397 C 0.48746 0.84297 0.08490
 C398 C 0.51824 0.81692 0.08159
 N399 N 0.54819 0.81998 0.10537
 C400 C 0.54880 0.84787 0.13247
 C401 C 0.51770 0.87440 0.13623
 N402 N 0.48797 0.87073 0.11183
 N403 N 0.45743 0.84016 0.06120
 C404 C 0.45672 0.81219 0.03434
 C405 C 0.48735 0.78532 0.03108
 N406 N 0.51764 0.78888 0.05479
 H407 H 0.57345 0.84861 0.15044
 H408 H 0.43232 0.81061 0.01590
 C409 C 0.00952 0.39483 0.65931
 C410 C -0.01698 0.39162 0.68844
 N411 N -0.04095 0.36257 0.68739
 C412 C -0.04027 0.33711 0.65796
 C413 C -0.01478 0.34122 0.62762
 N414 N 0.00988 0.36985 0.62973
 N415 N 0.03374 0.42358 0.66037
 C416 C 0.03177 0.45014 0.68864
 C417 C 0.00340 0.44879 0.71672
 N418 N -0.01936 0.41848 0.71644
 H419 H -0.05958 0.31420 0.65852
 H420 H 0.05147 0.47278 0.68859
 C421 C 0.49206 0.18431 0.90265
 C422 C 0.49220 0.16870 0.93911
 N423 N 0.49125 0.13053 0.94333
 C424 C 0.49033 0.10700 0.91258
 C425 C 0.49090 0.12223 0.87579
 N426 N 0.49188 0.16074 0.87166
 N427 N 0.49180 0.22277 0.89896
 C428 C 0.49220 0.24620 0.93014
 C429 C 0.49399 0.23050 0.96692
 N430 N 0.49331 0.19192 0.96991
 H431 H 0.49011 0.07659 0.91682
 H432 H 0.49117 0.27669 0.92632
 C433 C 0.98961 0.60604 0.32992
 C434 C 1.02203 0.58532 0.31765
 N435 N 1.05608 0.59290 0.33309
 C436 C 1.05914 0.61991 0.36077
 C437 C 1.02646 0.64008 0.37420
 N438 N 0.99252 0.63270 0.35786
 N439 N 0.95554 0.59828 0.31467
 C440 C 0.95234 0.57056 0.28774
 C441 C 0.98485 0.54935 0.27519
 N442 N 1.01886 0.55732 0.29114
 H443 H 1.08686 0.62541 0.37194
 H444 H 0.92452 0.56449 0.27716
 C445 C 1.07531 0.50326 0.17080
 C446 C 1.06532 0.53838 0.18782
 N447 N 1.08369 0.56972 0.17761
 C448 C 1.11151 0.56763 0.15094
 C449 C 1.12221 0.53219 0.13392
 N450 N 1.10369 0.50089 0.14491
 N451 N 1.05537 0.47239 0.17910
 C452 C 1.02616 0.47493 0.20412
 C453 C 1.01712 0.50971 0.22313
 N454 N 1.03674 0.54079 0.21354
 H455 H 1.12576 0.59328 0.14435
 H456 H 1.00984 0.45011 0.20876
 C457 C 0.67937 -0.01689 0.59267
 C458 C 0.69433 0.01791 0.58288
 N459 N 0.68276 0.05011 0.60185
 C460 C 0.65664 0.04913 0.63007
 C461 C 0.64140 0.01430 0.63994
 N462 N 0.65345 -0.01796 0.62099
 N463 N 0.69005 -0.04884 0.57288
 C464 C 0.71520 -0.04766 0.54381
 C465 C 0.73117 -0.01293 0.53425
 N466 N 0.71959 0.01909 0.55401
 H467 H 0.64799 0.07526 0.64472
 H468 H 0.72238 -0.07352 0.52807
 C469 C -0.09865 0.48040 0.81987
 C470 C -0.06398 0.49346 0.83252
 N471 N -0.06066 0.50697 0.86857
 C472 C -0.09066 0.50822 0.89261
 C473 C -0.12577 0.49538 0.88004
 N474 N -0.12869 0.48151 0.84383
 N475 N -0.10188 0.46739 0.78363
 C476 C -0.07193 0.46659 0.75945
 C477 C -0.03647 0.47911 0.77205
 N478 N -0.03413 0.49263 0.80850
 H479 H -0.08684 0.51856 0.92138
 H480 H -0.07639 0.45699 0.73060
 C481 C 0.33227 0.01323 0.40999
 C482 C 0.32282 -0.02262 0.42295
 N483 N 0.33968 -0.05436 0.40721
 C484 C 0.36569 -0.05185 0.37905
 C485 C 0.37557 -0.01582 0.36616
 N486 N 0.35842 0.01580 0.38219
 N487 N 0.31596 0.04497 0.42609
 C488 C 0.29047 0.04260 0.45466
 C489 C 0.28042 0.00659 0.46786
 N490 N 0.29762 -0.02509 0.45170
 H491 H 0.37920 -0.07769 0.36778
 H492 H 0.27895 0.06868 0.46725
 C493 C 0.08915 0.47667 0.82798
 C494 C 0.07543 0.51145 0.81330
 N495 N 0.08925 0.54437 0.82665
 C496 C 0.11633 0.54414 0.85410
 C497 C 0.13019 0.50931 0.86924
 N498 N 0.11597 0.47635 0.85571
 N499 N 0.07470 0.44386 0.81501
 C500 C 0.04714 0.44427 0.78793
 C501 C 0.03332 0.47920 0.77268
 N502 N 0.04771 0.51189 0.78665
 H503 H 0.12601 0.57101 0.86467
 H504 H 0.03548 0.41767 0.77908
 C505 C 0.67888 -0.01453 0.40661
 C506 C 0.68742 0.02032 0.42346
 N507 N 0.66961 0.05283 0.41109
 C508 C 0.64356 0.05205 0.38260
 C509 C 0.63460 0.01702 0.36578
 N510 N 0.65266 -0.01541 0.37847
 N511 N 0.69622 -0.04709 0.41925
 C512 C 0.72193 -0.04644 0.44797
 C513 C 0.73117 -0.01143 0.46494
 N514 N 0.71284 0.02102 0.45240
 H515 H 0.62929 0.07840 0.37409
 H516 H 0.73452 -0.07311 0.45780
 C517 C 0.89150 0.52074 0.16806
 C518 C 0.89855 0.48775 0.18943
 N519 N 0.87770 0.45686 0.18297
 C520 C 0.85029 0.45731 0.15579
 C521 C 0.84329 0.49022 0.13404
 N522 N 0.86402 0.52130 0.14102
 N523 N 0.91319 0.55115 0.17366
 C524 C 0.94165 0.55013 0.19973
 C525 C 0.94859 0.51731 0.22185
 N526 N 0.92684 0.48676 0.21558
 H527 H 0.83421 0.43220 0.15112
 H528 H 0.95896 0.57456 0.20303
 C529 C 0.32790 -0.00230 0.60112
 C530 C 0.34255 -0.00571 0.56421
 N531 N 0.38035 -0.01062 0.55900
 C532 C 0.40437 -0.01232 0.58915
 C533 C 0.39001 -0.00862 0.62635
 N534 N 0.35192 -0.00348 0.63140
 N535 N 0.28991 0.00200 0.60601
 C536 C 0.26595 0.00328 0.57561
 C537 C 0.28058 0.00080 0.53827
 N538 N 0.31878 -0.00394 0.53402
 H539 H 0.43445 -0.01569 0.58401
 H540 H 0.23581 0.00664 0.58041
   
