data_POSCAR
  _audit_creation_date              2014-09-24
  _audit_creation_method            'ToBaCCo'
  _symmetry_space_group_name_H-M    'P1'
  _symmetry_Int_Tables_number       1
  _symmetry_cell_setting            triclinic
  loop_
  _symmetry_equiv_pos_as_xyz
 x,y,z
_cell_length_a 40.0228
_cell_length_b 40.8336
_cell_length_c 35.6950
_cell_angle_alpha 87.108200
_cell_angle_beta 88.860100
_cell_angle_gamma 93.970900
loop_
  _atom_site_label
  _atom_site_type_symbol
  _atom_site_fract_x
  _atom_site_fract_y
  _atom_site_fract_z
C1 C 0.21725 1.23600 0.18135
 N2 N 0.20059 1.21613 0.20831
 C3 C 0.21208 1.18659 0.21899
 N4 N 0.24041 1.17703 0.20249
 C5 C 0.25726 1.19670 0.17555
 N6 N 0.24552 1.22609 0.16503
 C7 C 0.79648 0.75435 0.17356
 N8 N 0.77085 0.76687 0.15449
 C9 C 0.75764 0.79478 0.16510
 N10 N 0.77037 0.81042 0.19495
 C11 C 0.79603 0.79816 0.21428
 N12 N 0.80898 0.77008 0.20345
 C13 C 0.83412 1.25560 -0.19422
 N14 N 0.84656 1.24166 -0.22477
 C15 C 0.83068 1.21441 -0.23830
 N16 N 0.80188 1.20113 -0.22111
 C17 C 0.78912 1.21500 -0.19058
 N18 N 0.80540 1.24208 -0.17717
 C19 C 0.17980 0.77271 -0.19711
 N20 N 0.16746 0.79173 -0.22510
 C21 C 0.18518 0.81945 -0.23899
 N22 N 0.21541 0.82813 -0.22442
 C23 C 0.22798 0.80925 -0.19631
 N24 N 0.21009 0.78157 -0.18275
 C25 C 0.55865 1.04664 -0.02738
 H26 H 0.55824 1.04636 0.00296
 C27 C 0.58341 1.06600 -0.04795
 H28 H 0.60204 1.08024 -0.03293
 C29 C 0.53598 1.02638 -0.08320
 H30 H 0.51807 1.01022 -0.09681
 C31 C 0.56037 1.04525 -0.10486
 H32 H 0.56068 1.04378 -0.13508
 N33 N 0.53544 1.02755 -0.04517
 C34 C 0.45532 1.00656 0.03888
 H35 H 0.45348 0.98001 0.03860
 C36 C 0.43396 1.02235 0.06220
 H37 H 0.41569 1.00778 0.07995
 C38 C 0.48112 1.05771 0.01553
 H39 H 0.49931 1.07137 -0.00303
 C40 C 0.46006 1.07458 0.03834
 H41 H 0.46300 1.10113 0.03756
 Zn42 Zn 0.50476 0.99981 -0.01503
 N43 N 0.47846 1.02429 0.01636
 C44 C 0.53129 0.97337 0.05216
 N45 N 0.53042 0.97140 0.01429
 C46 C 0.55002 0.95110 -0.00385
 C47 C 0.57139 0.93141 0.01620
 C48 C 0.55243 0.95434 0.07331
 C49 C 0.45492 0.99414 -0.06768
 C50 C 0.43078 0.97877 -0.08972
 C51 C 0.44662 0.92614 -0.06466
 C52 C 0.47076 0.94262 -0.04332
 N53 N 0.47448 0.97602 -0.04531
 H54 H 0.51631 0.99038 0.06600
 H55 H 0.54943 0.95064 -0.03411
 H56 H 0.58683 0.91611 0.00043
 H57 H 0.55295 0.95668 0.10341
 H58 H 0.45803 1.02069 -0.06822
 H59 H 0.41553 0.99389 -0.10729
 H60 H 0.44459 0.89962 -0.06225
 H61 H 0.48607 0.92868 -0.02471
 C62 C 0.43589 1.05677 0.06189
 C63 C 0.58440 1.06547 -0.08732
 C64 C 0.42595 0.94430 -0.08824
 C65 C 0.57303 0.93299 0.05554
 C66 C -0.00166 0.54603 1.09506
 H67 H 0.02533 0.54651 1.09675
 C68 C -0.01941 0.56795 1.11514
 H69 H -0.00594 0.58518 1.13248
 C70 C -0.05185 0.52389 1.06919
 H71 H -0.06439 0.50725 1.05060
 C72 C -0.07057 0.54537 1.08873
 H73 H -0.09744 0.54399 1.08571
 N74 N -0.01801 0.52468 1.07252
 C75 C 0.05354 0.45129 1.05249
 H76 H 0.05395 0.45290 1.02214
 C77 C 0.07246 0.42868 1.07156
 H78 H 0.08700 0.41276 1.05543
 C79 C 0.03214 0.46894 1.10990
 H80 H 0.01584 0.48423 1.12463
 C81 C 0.05050 0.44640 1.13016
 H82 H 0.04847 0.44469 1.16051
 Zn83 Zn 0.00811 0.49890 1.04235
 N84 N 0.03415 0.47104 1.07175
 C85 C 0.06992 0.53001 1.01378
 N86 N 0.03602 0.52855 1.01114
 C87 C 0.02079 0.54974 0.98762
 C88 C 0.03976 0.57318 0.96486
 C89 C 0.08990 0.55321 0.99175
 C90 C -0.04142 0.44893 1.03220
 C91 C -0.06197 0.42696 1.01279
 C92 C -0.03667 0.45042 0.95461
 C93 C -0.01684 0.47220 0.97522
 N94 N -0.01969 0.47120 1.01329
 H95 H 0.08155 0.51362 1.03345
 H96 H -0.00627 0.54852 0.98675
 H97 H 0.02640 0.58962 0.94699
 H98 H 0.11686 0.55399 0.99453
 H99 H -0.04274 0.44827 1.06254
 H100 H -0.07916 0.40953 1.02861
 H101 H -0.03370 0.45232 0.92444
 H102 H 0.00116 0.48955 0.96073
 C103 C 0.07119 0.42614 1.11097
 C104 C -0.05421 0.56830 1.11146
 C105 C -0.05968 0.42716 0.97343
 C106 C 0.07503 0.57525 0.96670
 C107 C 1.03289 -0.02549 0.52124
 H108 H 1.04630 -0.00839 0.50127
 C109 C 1.05078 -0.04472 0.54624
 H110 H 1.07784 -0.04257 0.54441
 C111 C 0.98138 -0.04912 0.54747
 H112 H 0.95428 -0.05057 0.54778
 C113 C 0.99819 -0.06885 0.57277
 H114 H 0.98384 -0.08554 0.59254
 N115 N 0.99880 -0.02833 0.52202
 C116 C 0.99685 0.05852 0.45538
 H117 H 0.97840 0.06848 0.47321
 C118 C 1.01662 0.07970 0.43077
 H119 H 1.01349 0.10585 0.43036
 C120 C 1.02240 0.01246 0.43294
 H121 H 1.02402 -0.01390 0.43358
 C122 C 1.04279 0.03279 0.40793
 H123 H 1.05972 0.02159 0.38926
 Zn124 Zn 0.97281 -0.00325 0.48913
 N125 N 1.00038 0.02559 0.45644
 C126 C 0.96264 0.04176 0.54276
 N127 N 0.94579 0.02122 0.51979
 C128 C 0.91175 0.01789 0.52040
 C129 C 0.89333 0.03649 0.54418
 C130 C 0.94535 0.06108 0.56653
 C131 C 0.95117 -0.06423 0.46043
 C132 C 0.93380 -0.08508 0.43659
 C133 C 0.90720 -0.03823 0.41001
 C134 C 0.92526 -0.01827 0.43431
 N135 N 0.94664 -0.03152 0.45897
 H136 H 0.98974 0.04321 0.54241
 H137 H 0.89882 0.00070 0.50270
 H138 H 0.86621 0.03356 0.54415
 H139 H 0.96002 0.07664 0.58452
 H140 H 0.96889 -0.07425 0.47951
 H141 H 0.93837 -0.11081 0.43905
 H142 H 0.89045 -0.02702 0.39046
 H143 H 0.92255 0.00794 0.43322
 C144 C 1.04021 0.06700 0.40694
 C145 C 1.03330 -0.06679 0.57246
 C146 C 0.91154 -0.07216 0.41046
 C147 C 0.91001 0.05896 0.56728
 C148 C 0.20525 0.26591 1.16921
 C149 C 0.17607 0.27771 1.18397
 C150 C 0.16210 0.30765 1.16802
 N151 N 0.13360 0.31822 1.18305
 N152 N 0.11990 0.34445 1.16783
 C153 C 0.13424 0.36106 1.13700
 N154 N 0.16282 0.35059 1.12212
 N155 N 0.17652 0.32441 1.13736
 C156 C 0.11854 0.38881 1.11834
 C157 C 0.08949 0.40133 1.13235
 H158 H 0.16239 0.26421 1.20700
 H159 H 0.13003 0.39920 1.09230
 H160 H 0.21899 0.28011 1.14672
 H161 H 0.07983 0.39277 1.15996
 C162 C -0.19008 0.72595 1.16154
 C163 C -0.16290 0.71204 1.17857
 C164 C -0.14791 0.68329 1.16368
 N165 N -0.12002 0.67193 1.17932
 N166 N -0.10566 0.64654 1.16536
 C167 C -0.11872 0.63154 1.13527
 N168 N -0.14672 0.64275 1.11984
 N169 N -0.16104 0.66815 1.13375
 C170 C -0.10272 0.60421 1.11851
 C171 C -0.07233 0.59325 1.13085
 H172 H -0.15156 0.72298 1.20271
 H173 H -0.11445 0.59396 1.09429
 H174 H -0.20098 0.71475 1.13731
 H175 H -0.06000 0.60529 1.15371
 C176 C -0.14841 0.28295 0.81973
 C177 C -0.15811 0.29711 0.85268
 C178 C -0.13789 0.32425 0.86860
 N179 N -0.14494 0.33324 0.90381
 N180 N -0.12623 0.35707 0.91910
 C181 C -0.09983 0.37290 0.89968
 N182 N -0.09303 0.36418 0.86430
 N183 N -0.11165 0.34024 0.84907
 C184 C -0.07840 0.39873 0.91650
 C185 C -0.08023 0.40401 0.95491
 H186 H -0.18021 0.28705 0.86845
 H187 H -0.05989 0.41219 0.89821
 H188 H -0.12571 0.29273 0.80489
 H189 H -0.09813 0.38824 0.97193
 C190 C 0.15940 0.74358 0.81825
 C191 C 0.17021 0.72297 0.84721
 C192 C 0.14830 0.69574 0.86464
 N193 N 0.16001 0.67592 0.89232
 N194 N 0.14011 0.65182 0.90915
 C195 C 0.10771 0.64671 0.89895
 N196 N 0.09604 0.66650 0.87123
 N197 N 0.11595 0.69054 0.85436
 C198 C 0.08493 0.62103 0.91806
 C199 C 0.09592 0.59880 0.94550
 H200 H 0.19510 0.72734 0.85809
 H201 H 0.05911 0.62012 0.90977
 H202 H 0.13470 0.73880 0.80700
 H203 H 0.12256 0.59979 0.95077
 C204 C 1.19482 0.16547 0.24582
 C205 C 1.16491 0.17292 0.26322
 C206 C 1.14598 0.14947 0.28974
 N207 N 1.11676 0.15767 0.30541
 N208 N 1.09904 0.13651 0.32897
 C209 C 1.10988 0.10633 0.33774
 N210 N 1.13913 0.09814 0.32211
 N211 N 1.15685 0.11930 0.29855
 C212 C 1.09044 0.08254 0.36346
 C213 C 1.06058 0.09009 0.38084
 H214 H 1.15454 0.19631 0.25677
 H215 H 1.10043 0.05891 0.36916
 H216 H 1.20493 0.14203 0.25275
 H217 H 1.05222 0.11460 0.37617
 C218 C 1.17245 -0.16052 0.73263
 C219 C 1.14108 -0.16752 0.71727
 C220 C 1.12678 -0.14568 0.68873
 N221 N 1.09536 -0.15304 0.67670
 N222 N 1.08163 -0.13334 0.65138
 C223 C 1.09883 -0.10552 0.63709
 N224 N 1.13036 -0.09822 0.64896
 N225 N 1.14409 -0.11792 0.67436
 C226 C 1.08368 -0.08333 0.60946
 C227 C 1.05033 -0.08860 0.59919
 H228 H 1.12589 -0.18941 0.72701
 H229 H 1.09885 -0.06200 0.59826
 H230 H 1.18736 -0.13850 0.72276
 H231 H 1.03533 -0.10917 0.61264
 C232 C 0.80919 -0.18500 0.24434
 C233 C 0.83526 -0.19637 0.26575
 C234 C 0.85051 -0.17759 0.29591
 N235 N 0.84227 -0.14657 0.30215
 N236 N 0.85712 -0.12963 0.32892
 C237 C 0.88073 -0.14313 0.35047
 N238 N 0.88879 -0.17417 0.34433
 N239 N 0.87403 -0.19105 0.31750
 C240 C 0.89805 -0.12476 0.37970
 C241 C 0.89406 -0.09140 0.38449
 H242 H 0.84516 -0.21973 0.26022
 H243 H 0.91530 -0.13813 0.39635
 H244 H 0.79880 -0.16212 0.25096
 H245 H 0.87704 -0.07928 0.36601
 C246 C 0.84513 0.19987 0.73141
 C247 C 0.83143 0.17120 0.71622
 C248 C 0.84975 0.15449 0.68741
 N249 N 0.83555 0.12723 0.67217
 N250 N 0.85255 0.11126 0.64719
 C251 C 0.88443 0.12196 0.63667
 N252 N 0.89855 0.14922 0.65186
 N253 N 0.88154 0.16521 0.67669
 C254 C 0.90442 0.10410 0.61053
 C255 C 0.89098 0.07780 0.59064
 H256 H 0.80739 0.16006 0.72643
 H257 H 0.93036 0.11297 0.60665
 H258 H 0.86875 0.21108 0.72001
 H259 H 0.86410 0.07217 0.59264
 C260 C 0.28731 1.18601 0.15656
 C261 C 0.29977 1.15555 0.16520
 C262 C 0.32780 1.14330 0.14400
 N263 N 0.33763 1.11275 0.15257
 N264 N 0.36211 1.10070 0.13283
 C265 C 0.37773 1.11876 0.10376
 N266 N 0.36808 1.14944 0.09535
 N267 N 0.34355 1.16149 0.11509
 C268 C 0.40391 1.10521 0.08077
 C269 C 0.41235 1.07275 0.08646
 H270 H 0.28790 1.13953 0.18743
 H271 H 0.41517 1.12064 0.05776
 H272 H 0.29921 1.20210 0.13441
 H273 H 0.39934 1.05747 0.10860
 C274 C 0.75853 1.20057 -0.17093
 C275 C 0.74043 1.17272 -0.18277
 C276 C 0.71115 1.15737 -0.16133
 N277 N 0.69405 1.13043 -0.17400
 N278 N 0.66801 1.11582 -0.15436
 C279 C 0.65811 1.12762 -0.12131
 N280 N 0.67517 1.15459 -0.10870
 N281 N 0.70117 1.16921 -0.12834
 C282 C 0.63014 1.11121 -0.09860
 C283 C 0.61105 1.08401 -0.11067
 H284 H 0.74822 1.16146 -0.20805
 H285 H 0.62461 1.12103 -0.07176
 H286 H 0.75042 1.21199 -0.14589
 H287 H 0.61548 1.07610 -0.13876
 C288 C 0.26011 0.81908 -0.17933
 C289 C 0.27740 0.84933 -0.18849
 C290 C 0.30755 0.86083 -0.16873
 N291 N 0.32058 0.89220 -0.17520
 N292 N 0.34709 0.90349 -0.15654
 C293 C 0.36167 0.88379 -0.13077
 N294 N 0.34888 0.85228 -0.12461
 N295 N 0.32226 0.84101 -0.14318
 C296 C 0.39026 0.89631 -0.10898
 C297 C 0.40045 0.92985 -0.10991
 H298 H 0.26762 0.86595 -0.20950
 H299 H 0.40183 0.87874 -0.09070
 H300 H 0.26945 0.80276 -0.15771
 H301 H 0.38675 0.94617 -0.12784
 C302 C 0.73038 0.80809 0.14331
 C303 C 0.71375 0.83510 0.15413
 C304 C 0.68768 0.84918 0.13108
 N305 N 0.67030 0.87381 0.14406
 N306 N 0.64712 0.88725 0.12315
 C307 C 0.64053 0.87662 0.08842
 N308 N 0.65795 0.85203 0.07544
 N309 N 0.68104 0.83851 0.09639
 C310 C 0.61586 0.89195 0.06438
 C311 C 0.59507 0.91523 0.07764
 H312 H 0.72003 0.84637 0.18014
 H313 H 0.61446 0.88428 0.03593
 H314 H 0.72330 0.79622 0.11791
 H315 H 0.59613 0.92001 0.10721
   
