data_POSCAR
  _audit_creation_date              2014-09-24
  _audit_creation_method            'ToBaCCo'
  _symmetry_space_group_name_H-M    'P1'
  _symmetry_Int_Tables_number       1
  _symmetry_cell_setting            triclinic
  loop_
  _symmetry_equiv_pos_as_xyz
 x,y,z
_cell_length_a 22.4353
_cell_length_b 22.9005
_cell_length_c 21.9278
_cell_angle_alpha 89.769600
_cell_angle_beta 91.306200
_cell_angle_gamma 91.627800
loop_
  _atom_site_label
  _atom_site_type_symbol
  _atom_site_fract_x
  _atom_site_fract_y
  _atom_site_fract_z
C1 C 0.22971 0.28991 0.29566
 C2 C 0.26526 0.32346 0.24748
 C3 C 0.29723 0.28819 0.21133
 C4 C 0.29054 0.22286 0.22636
 C5 C 0.19081 0.24502 0.26005
 C6 C 0.22291 0.21032 0.22328
 C7 C 0.27534 0.25382 0.33074
 C8 C 0.30686 0.21820 0.29455
 H9 H 0.26583 0.37059 0.24328
 H10 H 0.31649 0.19422 0.19672
 H11 H 0.14261 0.24288 0.26166
 H12 H 0.27972 0.25425 0.38002
 C13 C 0.70216 0.77968 0.28813
 C14 C 0.73884 0.81863 0.24531
 C15 C 0.77772 0.78837 0.21161
 C16 C 0.77596 0.72231 0.22315
 C17 C 0.67153 0.73389 0.24716
 C18 C 0.71015 0.70396 0.21293
 C19 C 0.74768 0.74617 0.32666
 C20 C 0.78638 0.71612 0.29231
 H21 H 0.73563 0.86569 0.24348
 H22 H 0.80739 0.69771 0.19527
 H23 H 0.62355 0.72748 0.24384
 H24 H 0.74825 0.74546 0.37604
 C25 C 0.72998 0.30401 0.77486
 C26 C 0.76271 0.33059 0.72480
 C27 C 0.79601 0.28956 0.69167
 C28 C 0.78925 0.22702 0.71597
 C29 C 0.69046 0.25485 0.74601
 C30 C 0.72184 0.21501 0.71512
 C31 C 0.77595 0.27220 0.81455
 C32 C 0.80655 0.23169 0.78364
 H33 H 0.75581 0.37491 0.70886
 H34 H 0.81475 0.19431 0.69079
 H35 H 0.64219 0.25406 0.74576
 H36 H 0.78146 0.27933 0.86316
 C37 C 0.20209 0.78790 0.80212
 C38 C 0.23080 0.83055 0.75707
 C39 C 0.26656 0.80468 0.71693
 C40 C 0.26959 0.73795 0.72415
 C41 C 0.16838 0.74197 0.76284
 C42 C 0.20400 0.71625 0.72153
 C43 C 0.25379 0.75558 0.83182
 C44 C 0.28884 0.72879 0.79106
 H45 H 0.22579 0.87740 0.75892
 H46 H 0.29834 0.71648 0.69085
 H47 H 0.12097 0.73257 0.76571
 H48 H 0.25937 0.75106 0.88078
 C49 C 0.09585 0.07345 0.04445
 H50 H 0.10665 0.07368 -0.00339
 C51 C 0.13064 0.10681 0.08590
 H52 H 0.16850 0.13238 0.06985
 C53 C 0.03116 0.04286 0.12313
 H54 H -0.00863 0.01933 0.13724
 C55 C 0.06385 0.07664 0.16566
 H56 H 0.04958 0.07844 0.21245
 N57 N 0.04716 0.04230 0.06363
 C58 C 0.00184 -0.07295 -0.09177
 H59 H -0.04505 -0.06413 -0.09779
 C60 C 0.02926 -0.11029 -0.13212
 H61 H 0.00384 -0.12958 -0.16986
 C62 C 0.09250 -0.05841 -0.03557
 H63 H 0.11689 -0.03843 0.00230
 C64 C 0.12121 -0.09673 -0.07381
 H65 H 0.16803 -0.10496 -0.06583
 Zn66 Zn -0.00549 0.00588 0.00542
 N67 N 0.03411 -0.04633 -0.04589
 C68 C -0.04163 0.06832 -0.10226
 N69 N -0.04129 0.06668 -0.04018
 C70 C -0.06793 0.10868 -0.00755
 C71 C -0.09992 0.15218 -0.03725
 C72 C -0.07350 0.11089 -0.13381
 C73 C -0.04668 -0.08687 0.07719
 C74 C -0.08735 -0.12026 0.11089
 C75 C -0.16422 -0.05340 0.08099
 C76 C -0.12245 -0.02198 0.04682
 N77 N -0.06462 -0.03838 0.04665
 H78 H -0.01833 0.03616 -0.12760
 H79 H -0.06600 0.10709 0.04177
 H80 H -0.12285 0.18414 -0.01090
 H81 H -0.07511 0.11048 -0.18319
 H82 H -0.00047 -0.09901 0.07604
 H83 H -0.07228 -0.15812 0.13593
 H84 H -0.20982 -0.03926 0.08233
 H85 H -0.13626 0.01592 0.02141
 C86 C 0.08953 -0.12235 -0.12332
 C87 C 0.11383 0.10926 0.14712
 C88 C -0.14669 -0.10284 0.11351
 C89 C -0.10413 0.15262 -0.10089
 C90 C 0.08768 0.57965 0.53557
 H91 H 0.09040 0.58990 0.48748
 C92 C 0.11853 0.61478 0.57849
 H93 H 0.14513 0.65199 0.56324
 C94 C 0.04775 0.52008 0.61415
 H95 H 0.02067 0.48293 0.62809
 C96 C 0.07649 0.55506 0.65860
 H97 H 0.07078 0.54511 0.70646
 N98 N 0.05225 0.53396 0.55396
 C99 C 0.02897 0.44016 0.38060
 H100 H -0.01734 0.44819 0.36976
 C101 C 0.06215 0.40784 0.34028
 H102 H 0.04182 0.39238 0.29787
 C103 C 0.11086 0.44669 0.45067
 H104 H 0.12925 0.46096 0.49430
 C105 C 0.14515 0.41315 0.41223
 H106 H 0.19018 0.40254 0.42615
 Zn107 Zn 0.00429 0.49570 0.49259
 N108 N 0.05359 0.45908 0.43466
 C109 C -0.03734 0.56870 0.39430
 N110 N -0.04301 0.55398 0.45422
 C111 C -0.08340 0.58057 0.48935
 C112 C -0.12274 0.62041 0.46368
 C113 C -0.07630 0.60793 0.36660
 C114 C -0.04972 0.38311 0.50007
 C115 C -0.08961 0.33958 0.51948
 C116 C -0.12282 0.40476 0.59700
 C117 C -0.08357 0.44804 0.57470
 N118 N -0.04781 0.43673 0.52684
 H119 H -0.00286 0.55018 0.36760
 H120 H -0.08556 0.57061 0.53733
 H121 H -0.15567 0.64020 0.49177
 H122 H -0.07225 0.61800 0.31858
 H123 H -0.02101 0.37379 0.46290
 H124 H -0.09151 0.29760 0.49684
 H125 H -0.15104 0.41427 0.63489
 H126 H -0.08156 0.49038 0.59617
 C127 C 0.12034 0.39300 0.35651
 C128 C 0.11175 0.60325 0.64090
 C129 C -0.12636 0.35010 0.56840
 C130 C -0.12034 0.63329 0.40149
 C131 C 0.58872 0.07782 0.54502
 H132 H 0.59437 0.08168 0.49628
 C133 C 0.62166 0.11432 0.58457
 H134 H 0.65273 0.14650 0.56623
 C135 C 0.53969 0.03237 0.62818
 H136 H 0.50716 0.00074 0.64470
 C137 C 0.57037 0.06950 0.66930
 H138 H 0.56174 0.06642 0.71760
 N139 N 0.54959 0.03710 0.56734
 C140 C 0.53618 -0.08680 0.41723
 H141 H 0.48850 -0.08974 0.40875
 C142 C 0.57421 -0.12033 0.38298
 H143 H 0.55564 -0.14863 0.34754
 C144 C 0.61848 -0.04759 0.47487
 H145 H 0.63572 -0.02094 0.51201
 C146 C 0.65800 -0.07982 0.44141
 H147 H 0.70537 -0.07678 0.45198
 Zn148 Zn 0.50585 -0.00869 0.50969
 N149 N 0.55885 -0.05081 0.46173
 C150 C 0.45950 0.04690 0.40068
 N151 N 0.46021 0.04433 0.46278
 C152 C 0.42917 0.08252 0.49617
 C153 C 0.39455 0.12444 0.46742
 C154 C 0.42501 0.08832 0.36990
 C155 C 0.48103 -0.10902 0.57925
 C156 C 0.44609 -0.14930 0.61184
 C157 C 0.35903 -0.09480 0.58349
 C158 C 0.39532 -0.05641 0.55032
 N159 N 0.45536 -0.06325 0.55006
 H160 H 0.48549 0.01701 0.37497
 H161 H 0.43124 0.08015 0.54545
 H162 H 0.36955 0.15423 0.49449
 H163 H 0.42411 0.08971 0.32055
 H164 H 0.52883 -0.11368 0.57790
 H165 H 0.46694 -0.18488 0.63609
 H166 H 0.31154 -0.08783 0.58476
 H167 H 0.37550 -0.02056 0.52592
 C168 C 0.63598 -0.11664 0.39517
 C169 C 0.61229 0.11034 0.64744
 C170 C 0.38470 -0.14145 0.61534
 C171 C 0.39196 0.12744 0.40385
 C172 C 0.59331 0.57280 0.02392
 H173 H 0.60026 0.58048 -0.02415
 C174 C 0.62686 0.60473 0.06740
 H175 H 0.65972 0.63703 0.05276
 C176 C 0.53900 0.52446 0.10176
 H177 H 0.50366 0.49447 0.11512
 C178 C 0.57039 0.55648 0.14647
 H179 H 0.55936 0.55085 0.19400
 N180 N 0.55051 0.53341 0.04173
 C181 C 0.51543 0.41822 -0.11434
 H182 H 0.46722 0.41822 -0.11717
 C183 C 0.54695 0.38340 -0.15385
 H184 H 0.52311 0.35638 -0.18725
 C185 C 0.60562 0.45141 -0.06594
 H186 H 0.62847 0.47656 -0.03065
 C187 C 0.63882 0.41776 -0.10488
 H188 H 0.68689 0.41772 -0.09932
 Zn189 Zn 0.50026 0.49674 -0.01804
 N190 N 0.54507 0.45162 -0.07169
 C191 C 0.45116 0.55820 -0.12158
 N192 N 0.46015 0.55710 -0.05994
 C193 C 0.43836 0.59921 -0.02376
 C194 C 0.40350 0.64297 -0.04877
 C195 C 0.41621 0.60142 -0.14858
 C196 C 0.46239 0.39841 0.05076
 C197 C 0.42377 0.36643 0.08841
 C198 C 0.34675 0.43488 0.06410
 C199 C 0.38633 0.46493 0.02627
 N200 N 0.44359 0.44757 0.02193
 H201 H 0.46944 0.52478 -0.14965
 H202 H 0.44634 0.59749 0.02504
 H203 H 0.38451 0.67502 -0.01927
 H204 H 0.40743 0.60078 -0.19732
 H205 H 0.50818 0.38562 0.04671
 H206 H 0.43992 0.32881 0.11310
 H207 H 0.30212 0.45061 0.06953
 H208 H 0.37178 0.50355 0.00259
 C209 C 0.60923 0.38320 -0.14936
 C210 C 0.61449 0.59710 0.12937
 C211 C 0.36568 0.38588 0.09644
 C212 C 0.39120 0.64367 -0.11143
 N213 N 0.16701 -0.18263 -0.15283
 N214 N 0.11895 -0.15717 -0.16695
 N215 N 0.19687 0.32741 0.33591
 N216 N 0.15231 0.35603 0.31685
 N217 N 0.65973 -0.18844 0.32339
 N218 N 0.67717 -0.14947 0.36137
 N219 N 0.69769 0.34623 -0.18963
 N220 N 0.64099 0.34491 -0.18752
 N221 N -0.15281 0.19252 -0.18778
 N222 N -0.14226 0.19354 -0.13053
 N223 N -0.16880 0.67939 0.31775
 N224 N -0.16379 0.67097 0.37502
 N225 N 0.34698 0.17573 0.31851
 N226 N 0.35439 0.16984 0.37590
 N227 N 0.33466 0.68964 -0.19062
 N228 N 0.34943 0.68475 -0.13450
 N229 N -0.18105 -0.18421 0.17104
 N230 N -0.18899 -0.13269 0.15115
 N231 N -0.18566 0.29932 0.63880
 N232 N -0.16779 0.30502 0.58637
 N233 N 0.30157 -0.16090 0.67604
 N234 N 0.34994 -0.17855 0.65443
 N235 N 0.33511 0.31007 0.16427
 N236 N 0.32688 0.36010 0.14061
 N237 N 0.19602 0.16862 0.18187
 N238 N 0.14356 0.14786 0.18991
 N239 N 0.18207 0.67499 0.67691
 N240 N 0.13672 0.64188 0.68663
 N241 N 0.69399 0.17096 0.67752
 N242 N 0.64230 0.14993 0.68874
 N243 N 0.69023 0.66207 0.16834
 N244 N 0.64061 0.63479 0.17487
   
