data_POSCAR
  _audit_creation_date              2014-09-24
  _audit_creation_method            'ToBaCCo'
  _symmetry_space_group_name_H-M    'P1'
  _symmetry_Int_Tables_number       1
  _symmetry_cell_setting            triclinic
  loop_
  _symmetry_equiv_pos_as_xyz
 x,y,z
_cell_length_a 38.2451
_cell_length_b 24.1532
_cell_length_c 14.7134
_cell_angle_alpha 89.970700
_cell_angle_beta 89.816700
_cell_angle_gamma 90.228000
loop_
  _atom_site_label
  _atom_site_type_symbol
  _atom_site_fract_x
  _atom_site_fract_y
  _atom_site_fract_z
C1 C 0.74973 0.25087 0.45835
 C2 C 0.74948 0.25116 0.55110
 C3 C 0.71900 0.27198 0.60362
 C4 C 0.77972 0.23069 0.60426
 C5 C 0.77857 0.22483 0.40591
 C6 C 0.72121 0.27668 0.40505
 C7 C 0.72369 0.31422 0.66799
 C8 C 0.69497 0.33608 0.71456
 C9 C 0.66125 0.31555 0.69783
 C10 C 0.65656 0.27226 0.63551
 C11 C 0.68530 0.25039 0.58906
 C12 C 0.81342 0.25250 0.58998
 C13 C 0.84202 0.23062 0.63648
 C14 C 0.83716 0.18722 0.69841
 C15 C 0.80349 0.16652 0.71506
 C16 C 0.77487 0.18833 0.66851
 C17 C 0.78779 0.16928 0.42075
 C18 C 0.81608 0.14608 0.37425
 C19 C 0.83519 0.17793 0.31176
 C20 C 0.82549 0.23279 0.29476
 C21 C 0.79721 0.25607 0.34130
 C22 C 0.70281 0.24511 0.34078
 C23 C 0.67473 0.26817 0.29364
 C24 C 0.66502 0.32313 0.30971
 C25 C 0.68391 0.35532 0.37176
 C26 C 0.71201 0.33233 0.41886
 H27 H 0.74949 0.33117 0.68049
 H28 H 0.69911 0.36949 0.76261
 H29 H 0.63070 0.25570 0.62193
 H30 H 0.68124 0.21710 0.54089
 H31 H 0.81759 0.28583 0.54184
 H32 H 0.86795 0.24705 0.62332
 H33 H 0.74906 0.17121 0.68074
 H34 H 0.77333 0.14421 0.46910
 H35 H 0.82328 0.10352 0.38766
 H36 H 0.84005 0.25777 0.24645
 H37 H 0.79038 0.29885 0.32858
 H38 H 0.70965 0.20224 0.32888
 H39 H 0.66031 0.24295 0.24567
 H40 H 0.67669 0.39795 0.38445
 H41 H 0.72629 0.35763 0.46696
 H42 H 0.79944 0.13298 0.76291
 C43 C 0.25003 0.74973 0.45444
 C44 C 0.25020 0.74972 0.54718
 C45 C 0.22179 0.77620 0.60041
 C46 C 0.27883 0.72332 0.59949
 C47 C 0.28025 0.72894 0.40108
 C48 C 0.21967 0.77064 0.40203
 C49 C 0.21294 0.83192 0.58583
 C50 C 0.18473 0.85544 0.63221
 C51 C 0.16538 0.82373 0.69431
 C52 C 0.17479 0.76873 0.71132
 C53 C 0.20297 0.74514 0.66489
 C54 C 0.29767 0.75439 0.66359
 C55 C 0.32592 0.73085 0.70946
 C56 C 0.33540 0.67589 0.69231
 C57 C 0.31607 0.64420 0.63046
 C58 C 0.28781 0.66766 0.58464
 C59 C 0.27528 0.68670 0.33684
 C60 C 0.30383 0.66484 0.28966
 C61 C 0.33754 0.68537 0.30567
 C62 C 0.34253 0.72860 0.36770
 C63 C 0.31400 0.75053 0.41484
 C64 C 0.18589 0.74937 0.41715
 C65 C 0.15731 0.77122 0.37046
 C66 C 0.16226 0.81405 0.30750
 C67 C 0.19599 0.83432 0.29027
 C68 C 0.22458 0.81255 0.33698
 H69 H 0.22753 0.85682 0.53751
 H70 H 0.17776 0.89810 0.61880
 H71 H 0.16001 0.74387 0.75935
 H72 H 0.20954 0.70222 0.67736
 H73 H 0.29104 0.79725 0.67630
 H74 H 0.34065 0.75571 0.75729
 H75 H 0.27321 0.64272 0.53666
 H76 H 0.24943 0.66976 0.32499
 H77 H 0.29970 0.63142 0.24174
 H78 H 0.36849 0.74489 0.38037
 H79 H 0.31825 0.78379 0.46294
 H80 H 0.18165 0.71636 0.46583
 H81 H 0.13134 0.75512 0.38412
 H82 H 0.20011 0.86743 0.24165
 H83 H 0.25044 0.82927 0.32404
 H84 H 0.32309 0.60157 0.61693
 C85 C 0.24988 0.24897 -0.45504
 C86 C 0.25006 0.24908 -0.54779
 C87 C 0.27888 0.27531 -0.60055
 C88 C 0.22144 0.22292 -0.60071
 C89 C 0.21939 0.22811 -0.40218
 C90 C 0.28023 0.26969 -0.40214
 C91 C 0.28821 0.33093 -0.58598
 C92 C 0.31654 0.35433 -0.63260
 C93 C 0.33560 0.32257 -0.69501
 C94 C 0.32575 0.26758 -0.71180
 C95 C 0.29743 0.24416 -0.66509
 C96 C 0.20301 0.25421 -0.66503
 C97 C 0.17478 0.23088 -0.71163
 C98 C 0.16492 0.17586 -0.69496
 C99 C 0.18389 0.14394 -0.63287
 C100 C 0.21214 0.16725 -0.58635
 C101 C 0.22402 0.18613 -0.33733
 C102 C 0.19530 0.16439 -0.29016
 C103 C 0.16166 0.18477 -0.30676
 C104 C 0.15700 0.22772 -0.36959
 C105 C 0.18573 0.24950 -0.41669
 C106 C 0.31387 0.24808 -0.41650
 C107 C 0.34252 0.26998 -0.36984
 C108 C 0.33778 0.31319 -0.30769
 C109 C 0.30418 0.33375 -0.29108
 C110 C 0.27551 0.31192 -0.33778
 H111 H 0.27382 0.35593 -0.53768
 H112 H 0.32376 0.39698 -0.61916
 H113 H 0.34020 0.24253 -0.75999
 H114 H 0.29050 0.20132 -0.67760
 H115 H 0.20994 0.29709 -0.67734
 H116 H 0.16037 0.25603 -0.75959
 H117 H 0.22645 0.14218 -0.53819
 H118 H 0.24978 0.16933 -0.32485
 H119 H 0.19932 0.13123 -0.24168
 H120 H 0.13116 0.24404 -0.38293
 H121 H 0.18171 0.28258 -0.46521
 H122 H 0.31793 0.21483 -0.46470
 H123 H 0.36839 0.25365 -0.38296
 H124 H 0.30023 0.36714 -0.24305
 H125 H 0.24975 0.32889 -0.32547
 H126 H 0.17666 0.10126 -0.61954
 C127 C -0.25052 0.75025 -0.45757
 C128 C -0.25060 0.75043 -0.55031
 C129 C -0.22188 0.77650 -0.60341
 C130 C -0.27939 0.72453 -0.60306
 C131 C -0.28070 0.72861 -0.40450
 C132 C -0.22027 0.77171 -0.40495
 C133 C -0.21267 0.83223 -0.58963
 C134 C -0.18430 0.85539 -0.63631
 C135 C -0.16512 0.82326 -0.69797
 C136 C -0.17490 0.76819 -0.71408
 C137 C -0.20326 0.74500 -0.66731
 C138 C -0.29791 0.75615 -0.66678
 C139 C -0.32613 0.73302 -0.71373
 C140 C -0.33589 0.67786 -0.69802
 C141 C -0.31688 0.64566 -0.63639
 C142 C -0.28864 0.66877 -0.58952
 C143 C -0.27566 0.68587 -0.34125
 C144 C -0.30417 0.66296 -0.29472
 C145 C -0.33797 0.68292 -0.31041
 C146 C -0.34302 0.72669 -0.37148
 C147 C -0.31451 0.74964 -0.41792
 C148 C -0.18643 0.75088 -0.41941
 C149 C -0.15792 0.77352 -0.37301
 C150 C -0.16298 0.81675 -0.31099
 C151 C -0.19676 0.83655 -0.29435
 C152 C -0.22528 0.81399 -0.34079
 H153 H -0.22713 0.85743 -0.54177
 H154 H -0.17710 0.89812 -0.62342
 H155 H -0.16034 0.74288 -0.76168
 H156 H -0.21013 0.70206 -0.67915
 H157 H -0.29101 0.79911 -0.67849
 H158 H -0.34055 0.75841 -0.76130
 H159 H -0.27427 0.64343 -0.54188
 H160 H -0.24977 0.66934 -0.32971
 H161 H -0.29986 0.62922 -0.24752
 H162 H -0.36899 0.74273 -0.38400
 H163 H -0.31882 0.78324 -0.46530
 H164 H -0.18210 0.71763 -0.46745
 H165 H -0.13192 0.75771 -0.38613
 H166 H -0.20098 0.86990 -0.24638
 H167 H -0.25118 0.83039 -0.32839
 H168 H -0.32405 0.60286 -0.62378
 N169 N -0.03729 0.90339 -0.09784
 N170 N -0.06315 0.86804 -0.11175
 N171 N 0.03634 0.94227 -0.16112
 N172 N 0.06286 0.93590 -0.21769
 N173 N 0.03630 0.90326 -0.09885
 N174 N 0.06282 0.86923 -0.11131
 N175 N -0.03725 0.94239 -0.16009
 N176 N -0.06307 0.93468 -0.21812
 C177 C -0.07896 0.88833 -0.18670
 C178 C 0.07902 0.89026 -0.18558
 N179 N 0.03708 1.09953 -0.09511
 N180 N 0.06308 1.13481 -0.10827
 N181 N -0.03676 1.06177 -0.15754
 N182 N -0.06276 1.07016 -0.21460
 N183 N -0.03648 1.09983 -0.09378
 N184 N -0.06231 1.13519 -0.10565
 N185 N 0.03677 1.06152 -0.15893
 N186 N 0.06255 1.06983 -0.21729
 Mn187 Mn -0.00024 1.00199 -0.16046
 C188 C 0.07867 1.11551 -0.18450
 C189 C -0.07839 1.11593 -0.18104
 N190 N 0.03645 0.90158 0.09698
 N191 N 0.06216 0.86603 0.10933
 N192 N -0.03684 0.94012 0.16172
 N193 N -0.06337 0.93317 0.21817
 N194 N -0.03717 0.90206 0.09798
 N195 N -0.06399 0.86810 0.10927
 N196 N 0.03667 0.93963 0.16071
 N197 N 0.06251 0.93108 0.21822
 Mn198 Mn -0.00043 0.90190 -0.00045
 C199 C 0.07812 0.88522 0.18498
 C200 C -0.07994 0.88820 0.18443
 N201 N -0.03629 1.09821 0.10206
 N202 N -0.06268 1.13246 0.11502
 N203 N 0.03724 1.05879 0.16294
 N204 N 0.06379 1.06513 0.21911
 N205 N 0.03738 1.09784 0.10078
 N206 N 0.06406 1.13190 0.11290
 N207 N -0.03631 1.05918 0.16424
 N208 N -0.06268 1.06573 0.22127
 Mn209 Mn 0.00043 1.09953 0.00354
 Mn210 Mn 0.00020 0.99943 0.16342
 Cl211 Cl -0.00001 1.00072 0.00147
 C212 C -0.07878 1.11150 0.18952
 C213 C 0.08017 1.11078 0.18683
 N214 N 0.53688 0.55987 0.15965
 N215 N 0.56315 0.56714 0.21637
 N216 N 0.46366 0.59799 0.09503
 N217 N 0.43784 0.63338 0.10733
 N218 N 0.46338 0.55991 0.15878
 N219 N 0.43739 0.56829 0.21631
 N220 N 0.53728 0.59796 0.09589
 N221 N 0.56389 0.63226 0.10747
 C222 C 0.57966 0.61231 0.18279
 C223 C 0.42176 0.61406 0.18299
 N224 N 0.46426 0.55739 -0.16295
 N225 N 0.43788 0.56374 -0.21959
 N226 N 0.53770 0.59667 -0.09998
 N227 N 0.56355 0.63211 -0.11383
 N228 N 0.53785 0.55772 -0.16225
 N229 N 0.56380 0.56556 -0.22028
 N230 N 0.46412 0.59640 -0.10076
 N231 N 0.43760 0.63040 -0.11333
 Mn232 Mn 0.50069 0.59792 -0.00248
 C233 C 0.42160 0.60936 -0.18760
 C234 C 0.57954 0.61193 -0.18880
 N235 N 0.46307 0.44074 0.16119
 N236 N 0.43649 0.43412 0.21764
 N237 N 0.53685 0.40185 0.09999
 N238 N 0.56332 0.36782 0.11282
 N239 N 0.53662 0.44083 0.16218
 N240 N 0.56290 0.43448 0.21908
 N241 N 0.46317 0.40167 0.09912
 N242 N 0.43662 0.36733 0.11160
 Mn243 Mn 0.49997 0.50033 0.16146
 C244 C 0.42033 0.38829 0.18563
 C245 C 0.57921 0.38888 0.18723
 N246 N 0.53769 0.43835 -0.15970
 N247 N 0.56369 0.43002 -0.21724
 N248 N 0.46389 0.40009 -0.09672
 N249 N 0.43790 0.36479 -0.10933
 N250 N 0.46416 0.43812 -0.16057
 N251 N 0.43838 0.42979 -0.21845
 N252 N 0.53745 0.40027 -0.09591
 N253 N 0.56330 0.36494 -0.10827
 Mn254 Mn 0.50100 0.49790 -0.16242
 Mn255 Mn 0.50034 0.40029 0.00167
 Cl256 Cl 0.50051 0.49911 -0.00048
 C257 C 0.57937 0.38427 -0.18396
 C258 C 0.42231 0.38408 -0.18529
 C259 C 0.36416 0.34467 0.26270
 C260 C 0.38970 0.36438 0.22668
 C261 C -0.13643 0.84505 0.26012
 C262 C -0.11074 0.86450 0.22461
 C263 C 0.63564 0.65600 0.25949
 C264 C 0.61018 0.63638 0.22346
 C265 C 0.13637 1.15391 0.26312
 C266 C 0.11082 1.13439 0.22746
 C267 C 0.63421 0.33770 -0.26172
 C268 C 0.60922 0.35867 -0.22553
 C269 C 0.13522 0.84711 -0.26171
 C270 C 0.10966 0.86672 -0.22630
 C271 C 0.36553 0.65248 -0.26387
 C272 C 0.39103 0.63289 -0.22844
 C273 C -0.13318 1.16270 -0.25750
 C274 C -0.10822 1.14158 -0.22193
 C275 C 0.63408 0.65903 -0.26807
 C276 C 0.60924 0.63758 -0.23148
 C277 C 0.13349 1.16186 -0.26382
 C278 C 0.10850 1.14100 -0.22694
 C279 C 0.36749 0.33758 -0.26309
 C280 C 0.39247 0.35857 -0.22696
 C281 C -0.13344 0.84163 -0.26610
 C282 C -0.10863 0.86285 -0.22944
 C283 C 0.36712 0.66088 0.26077
 C284 C 0.39201 0.63976 0.22454
 C285 C -0.13473 1.15473 0.26702
 C286 C -0.10928 1.13518 0.23090
 C287 C 0.63505 0.34606 0.26471
 C288 C 0.60966 0.36541 0.22853
 C289 C 0.13266 0.83838 0.26272
 C290 C 0.10780 0.85944 0.22651
   
