data_POSCAR
  _audit_creation_date              2014-09-24
  _audit_creation_method            'ToBaCCo'
  _symmetry_space_group_name_H-M    'P1'
  _symmetry_Int_Tables_number       1
  _symmetry_cell_setting            triclinic
  loop_
  _symmetry_equiv_pos_as_xyz
 x,y,z
_cell_length_a 39.8279
_cell_length_b 39.8464
_cell_length_c 39.8460
_cell_angle_alpha 89.990700
_cell_angle_beta 89.999900
_cell_angle_gamma 90.008300
loop_
  _atom_site_label
  _atom_site_type_symbol
  _atom_site_fract_x
  _atom_site_fract_y
  _atom_site_fract_z
C1 C 0.27855 0.23588 0.23537
 C2 C 0.26418 0.22149 0.26410
 C3 C 0.23577 0.23568 0.27831
 C4 C 0.22140 0.26443 0.26397
 C5 C 0.23561 0.27864 0.23558
 C6 C 0.26435 0.26429 0.22120
 C7 C 0.30609 0.22749 0.21624
 N8 N 0.30871 0.25012 0.19101
 C9 C 0.28347 0.27272 0.19367
 C10 C 0.21649 0.30618 0.22718
 N11 N 0.19124 0.30880 0.24979
 C12 C 0.19386 0.28355 0.27239
 C13 C 0.22736 0.21653 0.30583
 N14 N 0.24997 0.19129 0.30844
 C15 C 0.27259 0.19394 0.28320
 H16 H 0.32295 0.20656 0.22029
 H17 H 0.27939 0.29366 0.17683
 H18 H 0.22057 0.32305 0.20626
 H19 H 0.17700 0.27947 0.29331
 H20 H 0.20642 0.22058 0.32269
 H21 H 0.29352 0.17709 0.27911
 C22 C 0.72085 -0.23629 0.23487
 C23 C 0.73525 -0.22190 0.26358
 C24 C 0.76374 -0.23602 0.27770
 C25 C 0.77818 -0.26468 0.26328
 C26 C 0.76395 -0.27891 0.23490
 C27 C 0.73512 -0.26463 0.22061
 C28 C 0.69322 -0.22795 0.21583
 N29 N 0.69062 -0.25056 0.19059
 C30 C 0.71595 -0.27310 0.19311
 C31 C 0.78315 -0.30639 0.22642
 N32 N 0.80845 -0.30892 0.24899
 C33 C 0.80581 -0.28371 0.27163
 C34 C 0.77217 -0.21689 0.30522
 N35 N 0.74948 -0.19174 0.30794
 C36 C 0.72680 -0.19441 0.28276
 H37 H 0.67631 -0.20706 0.21998
 H38 H 0.72008 -0.29401 0.17625
 H39 H 0.77904 -0.32324 0.20548
 H40 H 0.82269 -0.27958 0.29255
 H41 H 0.79316 -0.22091 0.32202
 H42 H 0.70580 -0.17763 0.27876
 C43 C 0.72183 0.23684 0.76450
 C44 C 0.73632 0.22242 0.73586
 C45 C 0.76477 0.23661 0.72172
 C46 C 0.77907 0.26539 0.73606
 C47 C 0.76475 0.27964 0.76439
 C48 C 0.73597 0.26528 0.77869
 C49 C 0.69422 0.22842 0.78354
 N50 N 0.69151 0.25110 0.80871
 C51 C 0.71674 0.27375 0.80615
 C52 C 0.78383 0.30722 0.77282
 N53 N 0.80915 0.30980 0.75028
 C54 C 0.80664 0.28452 0.72770
 C55 C 0.77328 0.21742 0.69426
 N56 N 0.75068 0.19217 0.69162
 C57 C 0.72798 0.19484 0.71677
 H58 H 0.67741 0.20744 0.77944
 H59 H 0.72077 0.29472 0.82296
 H60 H 0.77963 0.32410 0.79371
 H61 H 0.82357 0.28039 0.70682
 H62 H 0.79426 0.22147 0.67745
 H63 H 0.70703 0.17800 0.72081
 C64 C 0.27868 -0.23697 0.76552
 C65 C 0.26431 -0.22259 0.73679
 C66 C 0.23579 -0.23666 0.72269
 C67 C 0.22129 -0.26528 0.73715
 C68 C 0.23548 -0.27951 0.76556
 C69 C 0.26434 -0.26527 0.77982
 C70 C 0.30632 -0.22865 0.78455
 N71 N 0.30886 -0.25123 0.80984
 C72 C 0.28349 -0.27373 0.80735
 C73 C 0.21621 -0.30693 0.77407
 N74 N 0.19090 -0.30944 0.75150
 C75 C 0.19361 -0.28426 0.72882
 C76 C 0.22741 -0.21755 0.69513
 N77 N 0.25016 -0.19244 0.69239
 C78 C 0.27283 -0.19514 0.71758
 H79 H 0.32327 -0.20780 0.78036
 H80 H 0.27931 -0.29461 0.82425
 H81 H 0.22027 -0.32377 0.79503
 H82 H 0.17675 -0.28011 0.70789
 H83 H 0.20641 -0.22154 0.67835
 H84 H 0.29387 -0.17839 0.72156
 C85 C 0.72090 -0.23646 0.76539
 C86 C 0.73530 -0.22207 0.73667
 C87 C 0.76379 -0.23618 0.72255
 C88 C 0.77823 -0.26485 0.73697
 C89 C 0.76400 -0.27909 0.76536
 C90 C 0.73517 -0.26481 0.77964
 C91 C 0.69328 -0.22812 0.78444
 N92 N 0.69068 -0.25074 0.80968
 C93 C 0.71601 -0.27328 0.80715
 C94 C 0.78320 -0.30657 0.77383
 N95 N 0.80850 -0.30910 0.75126
 C96 C 0.80586 -0.28388 0.72861
 C97 C 0.77221 -0.21705 0.69502
 N98 N 0.74952 -0.19189 0.69232
 C99 C 0.72685 -0.19457 0.71750
 H100 H 0.67637 -0.20724 0.78028
 H101 H 0.72014 -0.29420 0.82402
 H102 H 0.77910 -0.32342 0.79477
 H103 H 0.82273 -0.27974 0.70770
 H104 H 0.79320 -0.22106 0.67823
 H105 H 0.70585 -0.17778 0.72151
 C106 C 0.27904 0.23609 0.76463
 C107 C 0.26455 0.22164 0.73600
 C108 C 0.23606 0.23576 0.72190
 C109 C 0.22170 0.26450 0.73627
 C110 C 0.23602 0.27878 0.76457
 C111 C 0.26485 0.26450 0.77884
 C112 C 0.30669 0.22774 0.78364
 N113 N 0.30938 0.25042 0.80881
 C114 C 0.28409 0.27301 0.80628
 C115 C 0.21688 0.30630 0.77301
 N116 N 0.19153 0.30884 0.75051
 C117 C 0.19409 0.28356 0.72795
 C118 C 0.22755 0.21657 0.69445
 N119 N 0.25020 0.19137 0.69177
 C120 C 0.27293 0.19409 0.71690
 H121 H 0.32355 0.20681 0.77951
 H122 H 0.28003 0.29397 0.82310
 H123 H 0.22103 0.32321 0.79387
 H124 H 0.17715 0.27942 0.70710
 H125 H 0.20653 0.22057 0.67768
 H126 H 0.29391 0.17728 0.72091
 C127 C 0.27873 -0.23680 0.23474
 C128 C 0.26437 -0.22242 0.26347
 C129 C 0.23584 -0.23650 0.27757
 C130 C 0.22134 -0.26511 0.26310
 C131 C 0.23553 -0.27933 0.23470
 C132 C 0.26440 -0.26509 0.22044
 C133 C 0.30638 -0.22847 0.21571
 N134 N 0.30892 -0.25105 0.19043
 C135 C 0.28355 -0.27355 0.19292
 C136 C 0.21626 -0.30675 0.22618
 N137 N 0.19095 -0.30926 0.24875
 C138 C 0.19366 -0.28409 0.27143
 C139 C 0.22746 -0.21740 0.30512
 N140 N 0.25021 -0.19230 0.30787
 C141 C 0.27288 -0.19498 0.28269
 H142 H 0.32333 -0.20763 0.21990
 H143 H 0.27936 -0.29442 0.17601
 H144 H 0.22032 -0.32358 0.20522
 H145 H 0.17680 -0.27995 0.29235
 H146 H 0.20645 -0.22140 0.32190
 H147 H 0.29392 -0.17823 0.27871
 C148 C 0.72233 0.23662 0.23549
 C149 C 0.73669 0.22227 0.26424
 C150 C 0.76505 0.23652 0.27849
 C151 C 0.77938 0.26531 0.26418
 C152 C 0.76517 0.27950 0.23576
 C153 C 0.73648 0.26507 0.22134
 C154 C 0.69484 0.22816 0.21632
 N155 N 0.69219 0.25078 0.19110
 C156 C 0.71738 0.27345 0.19378
 C157 C 0.78423 0.30710 0.22737
 N158 N 0.80944 0.30976 0.25003
 C159 C 0.80687 0.28450 0.27264
 C160 C 0.77346 0.21738 0.30602
 N161 N 0.75089 0.19209 0.30859
 C162 C 0.72831 0.19470 0.28332
 H163 H 0.67802 0.20718 0.22034
 H164 H 0.72143 0.29441 0.17695
 H165 H 0.78011 0.32394 0.20643
 H166 H 0.82371 0.28043 0.29360
 H167 H 0.79436 0.22148 0.32292
 H168 H 0.70742 0.17780 0.27920
 O169 O 0.22244 0.03184 0.46751
 O170 O 0.22251 -0.03351 0.53285
 O171 O 0.22247 0.03184 0.53284
 O172 O 0.22251 -0.03350 0.46750
 O173 O 0.27789 -0.03344 0.46749
 O174 O 0.27784 0.03189 0.53283
 O175 O 0.27788 -0.03346 0.53285
 O176 O 0.27782 0.03189 0.46750
 Cu177 Cu 0.21693 -0.00084 0.50018
 Cu178 Cu 0.28341 -0.00078 0.50017
 C179 C 0.25012 0.04307 0.45631
 C180 C 0.25020 -0.04467 0.54406
 C181 C 0.25015 0.04307 0.54403
 C182 C 0.25021 -0.04466 0.45628
 O183 O 0.72261 0.03263 0.53283
 O184 O 0.72232 -0.03271 0.46749
 O185 O 0.72233 -0.03272 0.53285
 O186 O 0.72264 0.03263 0.46750
 O187 O 0.77801 0.03240 0.46751
 O188 O 0.77770 -0.03295 0.53285
 O189 O 0.77770 -0.03294 0.46749
 O190 O 0.77799 0.03239 0.53283
 Cu191 Cu 0.71693 -0.00003 0.50017
 Cu192 Cu 0.78340 -0.00031 0.50017
 C193 C 0.75035 0.04372 0.54401
 C194 C 0.74996 -0.04401 0.45627
 C195 C 0.74997 -0.04403 0.54406
 C196 C 0.75038 0.04373 0.45632
 O197 O 0.46777 0.27824 0.03163
 O198 O 0.53314 0.27845 -0.03371
 O199 O 0.46775 0.27833 -0.03371
 O200 O 0.53313 0.27836 0.03162
 O201 O 0.53322 0.22301 0.03156
 O202 O 0.46785 0.22298 -0.03377
 O203 O 0.53323 0.22310 -0.03377
 O204 O 0.46787 0.22289 0.03157
 Cu205 Cu 0.50044 0.28389 -0.00104
 Cu206 Cu 0.50055 0.21745 -0.00112
 C207 C 0.45663 0.25053 0.04281
 C208 C 0.54440 0.25081 -0.04493
 C209 C 0.45658 0.25065 -0.04493
 C210 C 0.54437 0.25069 0.04280
 O211 O 0.53249 0.77673 0.03276
 O212 O 0.46711 0.77658 -0.03258
 O213 O 0.46712 0.77662 0.03275
 O214 O 0.53249 0.77669 -0.03259
 O215 O 0.53257 0.72134 -0.03255
 O216 O 0.46719 0.72127 0.03279
 O217 O 0.46719 0.72123 -0.03254
 O218 O 0.53257 0.72138 0.03280
 Cu219 Cu 0.49980 0.78220 0.00008
 Cu220 Cu 0.49989 0.71576 0.00013
 C221 C 0.54374 0.74908 0.04398
 C222 C 0.45594 0.74889 -0.04375
 C223 C 0.45594 0.74894 0.04397
 C224 C 0.54374 0.74903 -0.04377
 O225 O 0.03221 0.46835 0.27710
 O226 O -0.03316 0.53368 0.27690
 O227 O -0.03313 0.46834 0.27716
 O228 O 0.03224 0.53368 0.27683
 O229 O 0.03219 0.53348 0.22149
 O230 O -0.03318 0.46813 0.22181
 O231 O -0.03321 0.53348 0.22155
 O232 O 0.03216 0.46815 0.22175
 Cu233 Cu -0.00046 0.50105 0.28254
 Cu234 Cu -0.00052 0.50080 0.21610
 C235 C 0.04338 0.45704 0.24945
 C236 C -0.04440 0.54477 0.24919
 C237 C -0.04434 0.45701 0.24954
 C238 C 0.04345 0.54476 0.24911
 O239 O 0.03219 0.53326 0.77883
 O240 O -0.03319 0.46791 0.77855
 O241 O 0.03217 0.46793 0.77861
 O242 O -0.03321 0.53326 0.77877
 O243 O -0.03315 0.53345 0.72342
 O244 O 0.03221 0.46812 0.72326
 O245 O -0.03314 0.46811 0.72320
 O246 O 0.03224 0.53345 0.72348
 Cu247 Cu -0.00052 0.50058 0.78423
 Cu248 Cu -0.00046 0.50081 0.71779
 C249 C 0.04344 0.54453 0.75120
 C250 C -0.04436 0.45680 0.75083
 C251 C 0.04340 0.45682 0.75090
 C252 C -0.04440 0.54455 0.75112
 C253 C 0.38047 0.25028 0.11915
 C254 C 0.39281 0.28070 0.10668
 C255 C 0.41759 0.28082 0.08183
 C256 C 0.33358 0.25015 0.16614
 C257 C 0.41778 0.21998 0.08183
 C258 C 0.39300 0.21994 0.10669
 C259 C 0.35496 0.25020 0.14472
 C260 C 0.43036 0.25045 0.06912
 H261 H 0.38327 0.30434 0.11616
 H262 H 0.42673 0.30470 0.07259
 H263 H 0.42707 0.19617 0.07260
 H264 H 0.38361 0.19624 0.11617
 C265 C 0.62002 0.74927 0.12022
 C266 C 0.60765 0.71885 0.10775
 C267 C 0.58282 0.71875 0.08295
 C268 C 0.66703 0.74938 0.16710
 C269 C 0.58265 0.77960 0.08297
 C270 C 0.60748 0.77962 0.10778
 C271 C 0.64560 0.74933 0.14573
 C272 C 0.57003 0.74914 0.07026
 H273 H 0.61720 0.69521 0.11721
 H274 H 0.57366 0.69489 0.07372
 H275 H 0.57335 0.80341 0.07376
 H276 H 0.61688 0.80331 0.11725
 C277 C 0.62082 0.25102 -0.12102
 C278 C 0.60835 0.22060 -0.10865
 C279 C 0.58347 0.22050 -0.08390
 C280 C 0.66791 0.25109 -0.16782
 C281 C 0.58343 0.28134 -0.08380
 C282 C 0.60831 0.28137 -0.10855
 C283 C 0.64644 0.25107 -0.14648
 C284 C 0.57072 0.25088 -0.07118
 H285 H 0.61786 0.19696 -0.11814
 H286 H 0.57424 0.19663 -0.07474
 H287 H 0.57417 0.30516 -0.07455
 H288 H 0.61780 0.30506 -0.11796
 C289 C 0.37951 0.74875 -0.11985
 C290 C 0.39199 0.77915 -0.10748
 C291 C 0.41687 0.77923 -0.08272
 C292 C 0.33245 0.74873 -0.16668
 C293 C 0.41689 0.71839 -0.08263
 C294 C 0.39200 0.71839 -0.10738
 C295 C 0.35390 0.74872 -0.14533
 C296 C 0.42961 0.74883 -0.07000
 H297 H 0.38250 0.80280 -0.11696
 H298 H 0.42611 0.80309 -0.07355
 H299 H 0.42614 0.69457 -0.07338
 H300 H 0.38251 0.69470 -0.11679
 C301 C 0.11951 0.38067 0.24968
 C302 C 0.10710 0.39308 0.21926
 C303 C 0.08233 0.41794 0.21915
 C304 C 0.16638 0.33368 0.24978
 C305 C 0.08229 0.41807 0.27999
 C306 C 0.10706 0.39321 0.28003
 C307 C 0.14501 0.35509 0.24975
 C308 C 0.06963 0.43073 0.24953
 H309 H 0.11657 0.38354 0.19562
 H310 H 0.07313 0.42713 0.19528
 H311 H 0.07306 0.42737 0.30381
 H312 H 0.11650 0.38378 0.30372
 C313 C 0.12004 0.62046 0.75148
 C314 C 0.10753 0.60795 0.78182
 C315 C 0.08258 0.58326 0.78177
 C316 C 0.16725 0.66715 0.75155
 C317 C 0.08256 0.58350 0.72093
 C318 C 0.10750 0.60820 0.72105
 C319 C 0.14573 0.64586 0.75155
 C320 C 0.06981 0.57074 0.75130
 H321 H 0.11706 0.61728 0.80552
 H322 H 0.07332 0.57398 0.80558
 H323 H 0.07329 0.57442 0.69705
 H324 H 0.11702 0.61771 0.69742
 C325 C -0.12086 0.62082 0.24900
 C326 C -0.10831 0.60852 0.27941
 C327 C -0.08342 0.58378 0.27951
 C328 C -0.16795 0.66761 0.24896
 C329 C -0.08352 0.58355 0.21867
 C330 C -0.10841 0.60829 0.21865
 C331 C -0.14648 0.64628 0.24895
 C332 C -0.07074 0.57101 0.24912
 H333 H -0.11777 0.61805 0.30306
 H334 H -0.07414 0.57468 0.30337
 H335 H -0.07431 0.57426 0.19485
 H336 H -0.11795 0.61764 0.19496
 C337 C -0.12047 0.38039 0.75049
 C338 C -0.10812 0.39281 0.78093
 C339 C -0.08336 0.41768 0.78108
 C340 C -0.16734 0.33336 0.75032
 C341 C -0.08321 0.41781 0.72023
 C342 C -0.10797 0.39294 0.72016
 C343 C -0.14597 0.35479 0.75038
 C344 C -0.07061 0.43047 0.75071
 H345 H -0.11763 0.38327 0.80455
 H346 H -0.07421 0.42688 0.80496
 H347 H -0.07394 0.42710 0.69643
 H348 H -0.11736 0.38349 0.69645
 C349 C 0.25002 0.11940 0.38015
 C350 C 0.21964 0.10694 0.39264
 C351 C 0.21963 0.08210 0.41742
 C352 C 0.24997 0.16640 0.33328
 C353 C 0.28050 0.08207 0.41731
 C354 C 0.28043 0.10692 0.39252
 C355 C 0.24998 0.14497 0.35465
 C356 C 0.25008 0.06938 0.43005
 H357 H 0.19595 0.11644 0.38323
 H358 H 0.19579 0.07288 0.42668
 H359 H 0.30437 0.07283 0.42648
 H360 H 0.30410 0.11639 0.38302
 C361 C 0.75064 0.12018 0.62002
 C362 C 0.78100 0.10761 0.60759
 C363 C 0.78094 0.08271 0.58286
 C364 C 0.75073 0.16725 0.66680
 C365 C 0.72007 0.08287 0.58292
 C366 C 0.72020 0.10777 0.60765
 C367 C 0.75072 0.14580 0.64547
 C368 C 0.75046 0.07006 0.57024
 H369 H 0.80471 0.11705 0.61700
 H370 H 0.80476 0.07340 0.57364
 H371 H 0.69618 0.07369 0.57375
 H372 H 0.69656 0.11733 0.61710
 C373 C 0.25024 -0.12079 0.62044
 C374 C 0.28063 -0.10833 0.60798
 C375 C 0.28066 -0.08356 0.58311
 C376 C 0.25022 -0.16762 0.66747
 C377 C 0.21979 -0.08364 0.58308
 C378 C 0.21984 -0.10840 0.60794
 C379 C 0.25024 -0.14627 0.64603
 C380 C 0.25022 -0.07093 0.57037
 H381 H 0.30432 -0.11775 0.61748
 H382 H 0.30451 -0.07433 0.57389
 H383 H 0.19593 -0.07446 0.57382
 H384 H 0.19617 -0.11788 0.61741
 C385 C 0.74963 -0.12007 0.37986
 C386 C 0.71929 -0.10750 0.39232
 C387 C 0.71936 -0.08276 0.41720
 C388 C 0.74949 -0.16690 0.33284
 C389 C 0.78022 -0.08306 0.41725
 C390 C 0.78008 -0.10781 0.39238
 C391 C 0.74953 -0.14555 0.35427
 C392 C 0.74984 -0.07025 0.42995
 H393 H 0.69557 -0.11683 0.38281
 H394 H 0.69554 -0.07344 0.42642
 H395 H 0.80412 -0.07398 0.42651
 H396 H 0.80372 -0.11737 0.38291
 C397 C 0.62007 0.74912 -0.11997
 C398 C 0.60768 0.71872 -0.10748
 C399 C 0.58283 0.71865 -0.08268
 C400 C 0.66710 0.74920 -0.16684
 C401 C 0.58267 0.77950 -0.08279
 C402 C 0.60752 0.77949 -0.10758
 C403 C 0.64565 0.74916 -0.14547
 C404 C 0.57004 0.74906 -0.07005
 H405 H 0.61723 0.69507 -0.11689
 H406 H 0.57366 0.69480 -0.07343
 H407 H 0.57338 0.80333 -0.07361
 H408 H 0.61694 0.80317 -0.11708
 C409 C 0.38014 0.25058 -0.12099
 C410 C 0.39253 0.28097 -0.10851
 C411 C 0.41743 0.28104 -0.08377
 C412 C 0.33302 0.25049 -0.16775
 C413 C 0.41761 0.22019 -0.08389
 C414 C 0.39272 0.22021 -0.10864
 C415 C 0.35450 0.25054 -0.14644
 C416 C 0.43025 0.25063 -0.07117
 H417 H 0.38296 0.30463 -0.11790
 H418 H 0.42660 0.30489 -0.07452
 H419 H 0.42694 0.19636 -0.07474
 H420 H 0.38330 0.19653 -0.11813
 C421 C 0.37956 0.74889 0.12010
 C422 C 0.39204 0.77928 0.10769
 C423 C 0.41691 0.77933 0.08291
 C424 C 0.33251 0.74891 0.16694
 C425 C 0.41690 0.71849 0.08289
 C426 C 0.39203 0.71851 0.10766
 C427 C 0.35396 0.74888 0.14559
 C428 C 0.42962 0.74892 0.07022
 H429 H 0.38256 0.80294 0.11715
 H430 H 0.42615 0.80318 0.07372
 H431 H 0.42614 0.69465 0.07367
 H432 H 0.38254 0.69484 0.11710
 C433 C 0.62052 0.25072 0.11915
 C434 C 0.60811 0.22033 0.10667
 C435 C 0.58333 0.22029 0.08181
 C436 C 0.66737 0.25074 0.16618
 C437 C 0.58330 0.28113 0.08183
 C438 C 0.60808 0.28110 0.10669
 C439 C 0.64601 0.25072 0.14474
 C440 C 0.57064 0.25070 0.06911
 H441 H 0.61757 0.19666 0.11615
 H442 H 0.57413 0.19644 0.07257
 H443 H 0.57407 0.30497 0.07260
 H444 H 0.61752 0.30477 0.11618
 C445 C -0.12082 0.62063 0.75126
 C446 C -0.10840 0.60808 0.78162
 C447 C -0.08352 0.58333 0.78162
 C448 C -0.16791 0.66743 0.75129
 C449 C -0.08339 0.58358 0.72077
 C450 C -0.10827 0.60834 0.72086
 C451 C -0.14644 0.64609 0.75129
 C452 C -0.07072 0.57079 0.75117
 H453 H -0.11795 0.61743 0.80531
 H454 H -0.07433 0.57403 0.80544
 H455 H -0.07409 0.57448 0.69691
 H456 H -0.11771 0.61788 0.69721
 C457 C -0.12032 0.38047 0.24989
 C458 C -0.10785 0.39305 0.28022
 C459 C -0.08314 0.41798 0.28014
 C460 C -0.16709 0.33335 0.25004
 C461 C -0.08328 0.41784 0.21930
 C462 C -0.10799 0.39292 0.21945
 C463 C -0.14576 0.35483 0.25000
 C464 C -0.07056 0.43066 0.24966
 H465 H -0.11723 0.38359 0.30393
 H466 H -0.07389 0.42729 0.30394
 H467 H -0.07414 0.42705 0.19542
 H468 H -0.11748 0.38336 0.19583
 C469 C 0.11966 0.38059 0.75069
 C470 C 0.10717 0.39310 0.72034
 C471 C 0.08235 0.41791 0.72037
 C472 C 0.16663 0.33368 0.75055
 C473 C 0.08242 0.41779 0.78122
 C474 C 0.10724 0.39298 0.78111
 C475 C 0.14521 0.35506 0.75061
 C476 C 0.06969 0.43054 0.75083
 H477 H 0.11662 0.38367 0.69664
 H478 H 0.07310 0.42718 0.69656
 H479 H 0.07322 0.42696 0.80508
 H480 H 0.11674 0.38346 0.80475
 C481 C 0.12007 0.62065 0.24879
 C482 C 0.10753 0.60840 0.27922
 C483 C 0.08258 0.58372 0.27936
 C484 C 0.16730 0.66732 0.24870
 C485 C 0.08260 0.58346 0.21852
 C486 C 0.10756 0.60814 0.21845
 C487 C 0.14577 0.64604 0.24871
 C488 C 0.06982 0.57096 0.24899
 H489 H 0.11705 0.61792 0.30285
 H490 H 0.07330 0.57464 0.30324
 H491 H 0.07334 0.57418 0.19471
 H492 H 0.11709 0.61746 0.19475
 C493 C 0.74965 -0.12016 0.62043
 C494 C 0.78010 -0.10787 0.60793
 C495 C 0.78024 -0.08310 0.58308
 C496 C 0.74952 -0.16703 0.66743
 C497 C 0.71937 -0.08282 0.58312
 C498 C 0.71930 -0.10759 0.60798
 C499 C 0.74956 -0.14566 0.64601
 C500 C 0.74985 -0.07028 0.57038
 H501 H 0.80374 -0.11743 0.61740
 H502 H 0.80413 -0.07400 0.57382
 H503 H 0.69555 -0.07350 0.57389
 H504 H 0.69559 -0.11693 0.61748
 C505 C 0.25027 -0.12071 0.37986
 C506 C 0.21986 -0.10835 0.39238
 C507 C 0.21980 -0.08360 0.41726
 C508 C 0.25026 -0.16749 0.33280
 C509 C 0.28068 -0.08351 0.41721
 C510 C 0.28066 -0.10825 0.39233
 C511 C 0.25028 -0.14616 0.35425
 C512 C 0.25023 -0.07089 0.42996
 H513 H 0.19619 -0.11782 0.38290
 H514 H 0.19595 -0.07444 0.42652
 H515 H 0.30452 -0.07427 0.42644
 H516 H 0.30434 -0.11765 0.38281
 C517 C 0.75073 0.12016 0.38026
 C518 C 0.72027 0.10775 0.39262
 C519 C 0.72012 0.08287 0.41737
 C520 C 0.75088 0.16719 0.33343
 C521 C 0.78099 0.08270 0.41747
 C522 C 0.78107 0.10759 0.39272
 C523 C 0.75083 0.14576 0.35478
 C524 C 0.75050 0.07006 0.43008
 H525 H 0.69664 0.11731 0.38314
 H526 H 0.69623 0.07369 0.42653
 H527 H 0.80480 0.07339 0.42671
 H528 H 0.80479 0.11702 0.38332
 C529 C 0.25012 0.11943 0.62013
 C530 C 0.28052 0.10693 0.60774
 C531 C 0.28057 0.08207 0.58298
 C532 C 0.25015 0.16646 0.66695
 C533 C 0.21970 0.08211 0.58292
 C534 C 0.21973 0.10697 0.60768
 C535 C 0.25012 0.14502 0.64561
 C536 C 0.25014 0.06938 0.57028
 H537 H 0.30420 0.11640 0.61722
 H538 H 0.30442 0.07282 0.57380
 H539 H 0.19585 0.07289 0.57368
 H540 H 0.19605 0.11648 0.61710
   
