data_POSCAR
  _audit_creation_date              2014-09-24
  _audit_creation_method            'ToBaCCo'
  _symmetry_space_group_name_H-M    'P1'
  _symmetry_Int_Tables_number       1
  _symmetry_cell_setting            triclinic
  loop_
  _symmetry_equiv_pos_as_xyz
 x,y,z
_cell_length_a 36.1332
_cell_length_b 38.5136
_cell_length_c 36.8145
_cell_angle_alpha 84.966200
_cell_angle_beta 96.150200
_cell_angle_gamma 94.299700
loop_
  _atom_site_label
  _atom_site_type_symbol
  _atom_site_fract_x
  _atom_site_fract_y
  _atom_site_fract_z
C1 C 0.20885 0.28759 0.27904
 C2 C 0.23436 0.30761 0.25254
 C3 C 0.25391 0.28697 0.23446
 C4 C 0.24586 0.24764 0.24430
 C5 C 0.18401 0.26276 0.25473
 C6 C 0.20320 0.24169 0.23659
 C7 C 0.23432 0.26372 0.30409
 C8 C 0.25343 0.24241 0.28631
 H9 H 0.23649 0.33583 0.24836
 H10 H 0.26158 0.23105 0.22918
 H11 H 0.15395 0.26207 0.25170
 H12 H 0.23648 0.26371 0.33365
 C13 C 0.71671 0.78970 0.27396
 C14 C 0.74362 0.80764 0.24755
 C15 C 0.76214 0.78519 0.23074
 C16 C 0.75169 0.74647 0.24126
 C17 C 0.69086 0.76555 0.24983
 C18 C 0.70893 0.74276 0.23274
 C19 C 0.74025 0.76501 0.30010
 C20 C 0.75830 0.74204 0.28336
 H21 H 0.74694 0.83568 0.24168
 H22 H 0.76670 0.72861 0.22691
 H23 H 0.66090 0.76669 0.24625
 H24 H 0.74207 0.76580 0.32956
 C25 C 0.71948 0.28606 0.78199
 C26 C 0.74696 0.30550 0.76069
 C27 C 0.76884 0.28444 0.74208
 C28 C 0.75829 0.24707 0.74826
 C29 C 0.69579 0.26377 0.75417
 C30 C 0.71601 0.24308 0.73675
 C31 C 0.74142 0.25963 0.80758
 C32 C 0.76175 0.23917 0.79013
 H33 H 0.74746 0.33365 0.75601
 H34 H 0.77427 0.22917 0.73509
 H35 H 0.66614 0.26527 0.74708
 H36 H 0.74094 0.25753 0.83707
 C37 C 0.22681 0.79337 0.77204
 C38 C 0.25659 0.81120 0.74846
 C39 C 0.27522 0.78867 0.73183
 C40 C 0.26272 0.75006 0.74040
 C41 C 0.20185 0.77045 0.74605
 C42 C 0.22024 0.74744 0.72957
 C43 C 0.24842 0.76748 0.79879
 C44 C 0.26703 0.74466 0.78248
 H45 H 0.26282 0.83902 0.74468
 H46 H 0.27841 0.73175 0.72744
 H47 H 0.17211 0.77307 0.74086
 H48 H 0.24963 0.76805 0.82825
 C49 C 0.06489 0.04122 0.01494
 H50 H 0.06704 0.04513 -0.01424
 C51 C 0.08503 0.06391 0.03855
 H52 H 0.10286 0.08521 0.02746
 C53 C 0.03723 0.01003 0.06468
 H54 H 0.01788 -0.01044 0.07466
 C55 C 0.05626 0.03254 0.08912
 H56 H 0.05184 0.02891 0.11788
 N57 N 0.04157 0.01490 0.02829
 C58 C 0.02057 -0.05705 -0.05865
 H59 H -0.00958 -0.06006 -0.06093
 C60 C 0.04031 -0.07503 -0.08082
 H61 H 0.02509 -0.09145 -0.10054
 C62 C 0.07692 -0.03182 -0.03021
 H63 H 0.09118 -0.01555 -0.00997
 C64 C 0.09774 -0.04922 -0.05185
 H65 H 0.12789 -0.04602 -0.04800
 Zn66 Zn 0.01051 -0.01156 -0.00546
 N67 N 0.03900 -0.03547 -0.03441
 C68 C -0.02522 0.02100 -0.07202
 N69 N -0.01964 0.02046 -0.03483
 C70 C -0.03589 0.04327 -0.01635
 C71 C -0.05990 0.06697 -0.03507
 C72 C -0.04934 0.04420 -0.09189
 C73 C -0.00426 -0.07236 0.04037
 C74 C -0.02586 -0.09681 0.06085
 C75 C -0.08001 -0.06489 0.03913
 C76 C -0.05751 -0.04139 0.01876
 N77 N -0.02025 -0.04507 0.02024
 H78 H -0.01158 0.00312 -0.08633
 H79 H -0.03055 0.04266 0.01317
 H80 H -0.07244 0.08485 -0.01966
 H81 H -0.05443 0.04344 -0.12133
 H82 H 0.02540 -0.07489 0.04077
 H83 H -0.01255 -0.11837 0.07655
 H84 H -0.10927 -0.06037 0.03860
 H85 H -0.06988 -0.01984 0.00231
 C86 C 0.07944 -0.07094 -0.07781
 C87 C 0.08022 0.06005 0.07602
 C88 C -0.06429 -0.09302 0.06082
 C89 C -0.06750 0.06726 -0.07331
 C90 C 0.05334 0.55226 0.51108
 H91 H 0.05239 0.55424 0.48150
 C92 C 0.07531 0.57672 0.53119
 H93 H 0.09102 0.59758 0.51676
 C94 C 0.03251 0.52351 0.56546
 H95 H 0.01510 0.50338 0.57876
 C96 C 0.05420 0.54731 0.58665
 H97 H 0.05400 0.54436 0.61614
 N98 N 0.03287 0.52605 0.52840
 C99 C 0.01386 0.44807 0.44789
 H100 H -0.01627 0.44467 0.44589
 C101 C 0.03377 0.42906 0.42690
 H102 H 0.01865 0.41141 0.40838
 C103 C 0.06993 0.47563 0.47432
 H104 H 0.08396 0.49331 0.49333
 C105 C 0.09097 0.45711 0.45385
 H106 H 0.12110 0.46081 0.45739
 Zn107 Zn 0.00266 0.49512 0.49848
 N108 N 0.03206 0.47107 0.47071
 C109 C -0.03058 0.52583 0.43029
 N110 N -0.03054 0.52292 0.46740
 C111 C -0.05355 0.54123 0.48423
 C112 C -0.07865 0.56278 0.46361
 C113 C -0.05510 0.54739 0.40855
 C114 C -0.00554 0.44111 0.55436
 C115 C -0.02480 0.41726 0.57756
 C116 C -0.08257 0.43259 0.54258
 C117 C -0.06230 0.45674 0.52063
 N118 N -0.02454 0.46114 0.52737
 H119 H -0.01145 0.51171 0.41748
 H120 H -0.05239 0.53894 0.51383
 H121 H -0.09665 0.57723 0.47757
 H122 H -0.05508 0.54922 0.37904
 H123 H 0.02457 0.44442 0.55849
 H124 H -0.00950 0.40227 0.59971
 H125 H -0.11268 0.42986 0.53741
 H126 H -0.07682 0.47201 0.49829
 C127 C 0.07289 0.43349 0.42968
 C128 C 0.07605 0.57438 0.56957
 C129 C -0.06381 0.41308 0.57187
 C130 C -0.07971 0.56601 0.42524
 C131 C 0.56170 0.05523 0.50600
 H132 H 0.56183 0.05829 0.47652
 C133 C 0.58335 0.07860 0.52776
 H134 H 0.60007 0.09969 0.51481
 C135 C 0.53846 0.02484 0.55850
 H136 H 0.52031 0.00441 0.57039
 C137 C 0.55946 0.04774 0.58125
 H138 H 0.55793 0.04405 0.61056
 N139 N 0.54020 0.02873 0.52162
 C140 C 0.52129 -0.04610 0.43797
 H141 H 0.49117 -0.04956 0.43599
 C142 C 0.54122 -0.06486 0.41677
 H143 H 0.52617 -0.08242 0.39809
 C144 C 0.57738 -0.01897 0.46491
 H145 H 0.59144 -0.00173 0.48433
 C146 C 0.59842 -0.03713 0.44412
 H147 H 0.62856 -0.03352 0.44771
 Zn148 Zn 0.51012 -0.00069 0.49006
 N149 N 0.53951 -0.02353 0.46125
 C150 C 0.47581 0.03171 0.42310
 N151 N 0.47695 0.02814 0.46030
 C152 C 0.45456 0.04602 0.47831
 C153 C 0.42873 0.06755 0.45884
 C154 C 0.45052 0.05330 0.40248
 C155 C 0.50186 -0.05761 0.54260
 C156 C 0.48264 -0.08273 0.56454
 C157 C 0.42467 -0.06414 0.53253
 C158 C 0.44494 -0.03912 0.51157
 N159 N 0.48280 -0.03576 0.51749
 H160 H 0.49443 0.01786 0.40935
 H161 H 0.45657 0.04318 0.50794
 H162 H 0.41103 0.08145 0.47370
 H163 H 0.44947 0.05552 0.37287
 H164 H 0.53202 -0.05492 0.54616
 H165 H 0.49814 -0.09941 0.58500
 H166 H 0.39449 -0.06577 0.52813
 H167 H 0.43029 -0.02231 0.49072
 C168 C 0.58033 -0.06050 0.41972
 C169 C 0.58230 0.07504 0.56592
 C170 C 0.44351 -0.08594 0.55982
 C171 C 0.42628 0.07121 0.42041
 C172 C 0.55975 0.54169 0.01658
 H173 H 0.56360 0.54342 -0.01228
 C174 C 0.58066 0.56445 0.03958
 H175 H 0.60068 0.58367 0.02834
 C176 C 0.52755 0.51575 0.06598
 H177 H 0.50615 0.49742 0.07598
 C178 C 0.54733 0.53846 0.08977
 H179 H 0.54146 0.53698 0.11813
 N180 N 0.53405 0.51774 0.03010
 C181 C 0.51619 0.44578 -0.05668
 H182 H 0.48611 0.44498 -0.06194
 C183 C 0.53675 0.42696 -0.07729
 H184 H 0.52226 0.41213 -0.09878
 C185 C 0.57147 0.46638 -0.02239
 H186 H 0.58488 0.48106 -0.00040
 C187 C 0.59310 0.44795 -0.04228
 H188 H 0.62303 0.44884 -0.03538
 Zn189 Zn 0.50406 0.49028 -0.00347
 N190 N 0.53378 0.46545 -0.03026
 C191 C 0.47579 0.52577 -0.07171
 N192 N 0.47498 0.52177 -0.03469
 C193 C 0.45313 0.54102 -0.01755
 C194 C 0.42955 0.56419 -0.03779
 C195 C 0.45280 0.54904 -0.09309
 C196 C 0.48778 0.43414 0.04797
 C197 C 0.46513 0.41114 0.06891
 C198 C 0.41098 0.43478 0.03398
 C199 C 0.43461 0.45728 0.01378
 N200 N 0.47225 0.45730 0.02175
 H201 H 0.49406 0.51090 -0.08475
 H202 H 0.45361 0.53781 0.01199
 H203 H 0.41207 0.57899 -0.02361
 H204 H 0.45312 0.55150 -0.12258
 H205 H 0.51782 0.43433 0.05339
 H206 H 0.47799 0.39392 0.09069
 H207 H 0.38109 0.43549 0.02746
 H208 H 0.42272 0.47489 -0.00806
 C209 C 0.57580 0.42807 -0.07034
 C210 C 0.57415 0.56323 0.07655
 C211 C 0.42614 0.41182 0.06250
 C212 C 0.42887 0.56815 -0.07609
 C213 C 0.16327 -0.14343 -0.16872
 C214 C 0.18599 -0.12676 -0.19452
 C215 C 0.20632 -0.14663 -0.21421
 C216 C 0.20432 -0.18332 -0.20836
 C217 C 0.17987 -0.19890 -0.18341
 N218 N 0.16049 -0.17895 -0.16444
 C219 C 0.14200 -0.12362 -0.14619
 N220 N 0.11161 -0.13981 -0.13144
 C221 C 0.09112 -0.12357 -0.10991
 C222 C 0.10115 -0.08899 -0.10167
 C223 C 0.13253 -0.07189 -0.11636
 C224 C 0.15302 -0.08904 -0.13847
 H225 H 0.22299 -0.13272 -0.23403
 H226 H 0.17659 -0.22705 -0.17866
 H227 H 0.06745 -0.13791 -0.09873
 H228 H 0.14115 -0.04515 -0.11091
 H229 H 0.18779 -0.09867 -0.20004
 H230 H 0.17758 -0.07544 -0.14863
 C231 C 0.15471 0.35372 0.34369
 C232 C 0.19224 0.36124 0.33756
 C233 C 0.20931 0.33983 0.31660
 C234 C 0.18919 0.31115 0.30101
 C235 C 0.15208 0.30381 0.30918
 N236 N 0.13612 0.32499 0.32980
 C237 C 0.13493 0.37519 0.36592
 N238 N 0.10402 0.36062 0.38099
 C239 C 0.08400 0.37855 0.40139
 C240 C 0.09468 0.41351 0.40761
 C241 C 0.12631 0.42917 0.39213
 C242 C 0.14640 0.41022 0.37124
 H243 H 0.23852 0.34555 0.31284
 H244 H 0.13572 0.28100 0.30017
 H245 H 0.06003 0.36528 0.41306
 H246 H 0.13509 0.45629 0.39553
 H247 H 0.20871 0.38280 0.34945
 H248 H 0.17004 0.42327 0.35885
 C249 C 0.66285 -0.14153 0.33580
 C250 C 0.69933 -0.13259 0.32677
 C251 C 0.71649 -0.15469 0.30663
 C252 C 0.69741 -0.18549 0.29471
 C253 C 0.66164 -0.19422 0.30599
 N254 N 0.64554 -0.17228 0.32560
 C255 C 0.64284 -0.11949 0.35726
 N256 N 0.61231 -0.13409 0.37299
 C257 C 0.59204 -0.11587 0.39284
 C258 C 0.60214 -0.08060 0.39791
 C259 C 0.63335 -0.06487 0.38180
 C260 C 0.65363 -0.08409 0.36135
 H261 H 0.74499 -0.14784 0.30090
 H262 H 0.64656 -0.21866 0.29998
 H263 H 0.56837 -0.12914 0.40506
 H264 H 0.64167 -0.03753 0.38445
 H265 H 0.71506 -0.10938 0.33578
 H266 H 0.67691 -0.07094 0.34848
 C267 C 0.66178 0.35031 -0.15433
 C268 C 0.70054 0.35553 -0.15525
 C269 C 0.71874 0.33477 -0.17594
 C270 C 0.69865 0.30901 -0.19634
 C271 C 0.66003 0.30386 -0.19344
 N272 N 0.64298 0.32436 -0.17297
 C273 C 0.64077 0.37122 -0.13266
 N274 N 0.60711 0.35776 -0.12257
 C275 C 0.58598 0.37530 -0.10286
 C276 C 0.59843 0.40863 -0.09210
 C277 C 0.63286 0.42319 -0.10256
 C278 C 0.65401 0.40471 -0.12286
 H279 H 0.74874 0.33870 -0.17587
 H280 H 0.64319 0.28327 -0.20649
 H281 H 0.55976 0.36292 -0.09519
 H282 H 0.64315 0.44916 -0.09561
 H283 H 0.71697 0.37475 -0.13958
 H284 H 0.67996 0.41698 -0.13129
 C285 C -0.17133 0.16156 -0.15109
 C286 C -0.20714 0.16575 -0.14109
 C287 C -0.22895 0.19094 -0.16041
 C288 C -0.21568 0.21164 -0.19009
 C289 C -0.18047 0.20589 -0.20019
 N290 N -0.15939 0.18155 -0.18056
 C291 C -0.14591 0.13639 -0.13056
 N292 N -0.11467 0.12929 -0.14552
 C293 C -0.08950 0.10725 -0.12814
 C294 C -0.09488 0.09094 -0.09328
 C295 C -0.12691 0.09780 -0.07742
 C296 C -0.15222 0.12054 -0.09568
 H297 H -0.25641 0.19399 -0.15234
 H298 H -0.16926 0.22137 -0.22297
 H299 H -0.06500 0.10309 -0.14129
 H300 H -0.13259 0.08548 -0.05083
 H301 H -0.21875 0.14987 -0.11889
 H302 H -0.17589 0.12577 -0.08193
 C303 C -0.17835 0.66207 0.34344
 C304 C -0.20883 0.67403 0.35826
 C305 C -0.22956 0.69977 0.33853
 C306 C -0.21997 0.71416 0.30415
 C307 C -0.18943 0.70139 0.29018
 N308 N -0.16954 0.67627 0.30999
 C309 C -0.15451 0.63565 0.36384
 N310 N -0.11903 0.63400 0.35506
 C311 C -0.09502 0.61145 0.37351
 C312 C -0.10619 0.58903 0.40308
 C313 C -0.14292 0.58958 0.41193
 C314 C -0.16718 0.61257 0.39231
 H315 H -0.25326 0.70818 0.35027
 H316 H -0.18079 0.71171 0.26396
 H317 H -0.06692 0.61184 0.36578
 H318 H -0.15292 0.57209 0.43397
 H319 H -0.21638 0.66438 0.38512
 H320 H -0.19549 0.61189 0.39943
 C321 C 0.32175 0.16445 0.34329
 C322 C 0.29096 0.17455 0.35913
 C323 C 0.26863 0.19961 0.34040
 C324 C 0.27690 0.21521 0.30602
 C325 C 0.30781 0.20429 0.29105
 N326 N 0.32924 0.17977 0.30987
 C327 C 0.34720 0.13876 0.36255
 N328 N 0.38242 0.13864 0.35254
 C329 C 0.40781 0.11681 0.36985
 C330 C 0.39841 0.09358 0.39950
 C331 C 0.36200 0.09256 0.40960
 C332 C 0.33630 0.11481 0.39112
 H333 H 0.24471 0.20652 0.35290
 H334 H 0.31549 0.21556 0.26482
 H335 H 0.43561 0.11835 0.36116
 H336 H 0.35335 0.07438 0.43173
 H337 H 0.28434 0.16398 0.38601
 H338 H 0.30828 0.11287 0.39919
 C339 C 0.33105 0.66563 -0.15682
 C340 C 0.29896 0.67585 -0.14323
 C341 C 0.27805 0.70138 -0.16314
 C342 C 0.28902 0.71722 -0.19643
 C343 C 0.32136 0.70653 -0.20899
 N344 N 0.34131 0.68150 -0.18910
 C345 C 0.35485 0.63910 -0.13647
 N346 N 0.39057 0.63786 -0.14479
 C347 C 0.41443 0.61500 -0.12663
 C348 C 0.40283 0.59183 -0.09784
 C349 C 0.36592 0.59201 -0.08944
 C350 C 0.34182 0.61529 -0.10876
 H351 H 0.25314 0.70854 -0.15249
 H352 H 0.33131 0.71848 -0.23414
 H353 H 0.44269 0.61563 -0.13400
 H354 H 0.35562 0.57392 -0.06802
 H355 H 0.29017 0.66498 -0.11723
 H356 H 0.31336 0.61417 -0.10203
 C357 C -0.16063 -0.17463 0.15518
 C358 C -0.15040 -0.20145 0.18193
 C359 C -0.17609 -0.21548 0.20598
 C360 C -0.21153 -0.20251 0.20365
 C361 C -0.22097 -0.17639 0.17595
 N362 N -0.19568 -0.16335 0.15269
 C363 C -0.13418 -0.15728 0.13032
 N364 N -0.14773 -0.14393 0.09649
 C365 C -0.12572 -0.12489 0.07333
 C366 C -0.08770 -0.11719 0.08424
 C367 C -0.07306 -0.13131 0.11886
 C368 C -0.09610 -0.15148 0.14184
 H369 H -0.16786 -0.23555 0.22709
 H370 H -0.24832 -0.16615 0.17300
 H371 H -0.13820 -0.11537 0.04664
 H372 H -0.04417 -0.12563 0.12891
 H373 H -0.12295 -0.21140 0.18430
 H374 H -0.08457 -0.16088 0.16895
 C375 C -0.15335 0.33081 0.67123
 C376 C -0.16604 0.29583 0.66846
 C377 C -0.19069 0.27995 0.69259
 C378 C -0.20382 0.29904 0.71908
 C379 C -0.18897 0.33385 0.72149
 N380 N -0.16456 0.34846 0.69802
 C381 C -0.12868 0.34933 0.64540
 N382 N -0.10252 0.37403 0.65771
 C383 C -0.08049 0.39360 0.63492
 C384 C -0.08512 0.38960 0.59718
 C385 C -0.11189 0.36434 0.58384
 C386 C -0.13347 0.34388 0.60792
 H387 H -0.20008 0.25317 0.68895
 H388 H -0.19597 0.34960 0.74233
 H389 H -0.06034 0.41313 0.64604
 H390 H -0.11626 0.36073 0.55481
 H391 H -0.15697 0.28085 0.64788
 H392 H -0.15463 0.32501 0.59714
 C393 C 0.35397 -0.17046 0.65787
 C394 C 0.33002 -0.19965 0.64915
 C395 C 0.30517 -0.21383 0.67391
 C396 C 0.30411 -0.19907 0.70719
 C397 C 0.32965 -0.17093 0.71556
 N398 N 0.35349 -0.15747 0.69101
 C399 C 0.37849 -0.15221 0.63156
 N400 N 0.40934 -0.13287 0.64468
 C401 C 0.43141 -0.11289 0.62225
 C402 C 0.42219 -0.11072 0.58416
 C403 C 0.39081 -0.13076 0.56996
 C404 C 0.36898 -0.15161 0.59350
 H405 H 0.28587 -0.23537 0.66633
 H406 H 0.33023 -0.15924 0.74132
 H407 H 0.45518 -0.09755 0.63429
 H408 H 0.38283 -0.12983 0.54070
 H409 H 0.33011 -0.21125 0.62344
 H410 H 0.34412 -0.16576 0.58195
 C411 C 0.32899 0.33177 0.15792
 C412 C 0.33761 0.30092 0.17956
 C413 C 0.31275 0.28587 0.20397
 C414 C 0.27956 0.30148 0.20721
 C415 C 0.27174 0.33192 0.18471
 N416 N 0.29631 0.34608 0.16121
 C417 C 0.35468 0.35055 0.13282
 N418 N 0.34781 0.38394 0.12004
 C419 C 0.36987 0.40361 0.09744
 C420 C 0.40137 0.38992 0.08631
 C421 C 0.40896 0.35545 0.09881
 C422 C 0.38566 0.33562 0.12187
 H423 H 0.32016 0.26271 0.22110
 H424 H 0.24616 0.34454 0.18574
 H425 H 0.36315 0.43019 0.08887
 H426 H 0.43265 0.34369 0.09041
 H427 H 0.36352 0.28889 0.17873
 H428 H 0.39191 0.30897 0.13045
 C429 C 0.14905 0.16485 0.16783
 C430 C 0.13101 0.19503 0.17190
 C431 C 0.14885 0.22033 0.19371
 C432 C 0.18450 0.21552 0.21203
 C433 C 0.20173 0.18504 0.20680
 N434 N 0.18391 0.16091 0.18501
 C435 C 0.13091 0.13746 0.14509
 N436 N 0.15160 0.12095 0.12389
 C437 C 0.13616 0.09603 0.10181
 C438 C 0.09792 0.08609 0.10080
 C439 C 0.07631 0.10221 0.12305
 C440 C 0.09263 0.12803 0.14503
 H441 H 0.13473 0.24376 0.19580
 H442 H 0.22891 0.17980 0.22061
 H443 H 0.15369 0.08392 0.08518
 H444 H 0.04668 0.09530 0.12284
 H445 H 0.10364 0.19933 0.15785
 H446 H 0.07558 0.14026 0.16205
 C447 C 0.16376 0.67370 0.65774
 C448 C 0.20173 0.68351 0.65550
 C449 C 0.21999 0.70750 0.67871
 C450 C 0.20089 0.72188 0.70448
 C451 C 0.16307 0.71084 0.70626
 N452 N 0.14586 0.68751 0.68326
 C453 C 0.14243 0.64826 0.63402
 N454 N 0.10808 0.63540 0.64275
 C455 C 0.08653 0.61204 0.62274
 C456 C 0.09922 0.60011 0.59160
 C457 C 0.13439 0.61323 0.58182
 C458 C 0.15594 0.63732 0.60272
 H459 H 0.24902 0.71465 0.67601
 H460 H 0.14714 0.72012 0.72623
 H461 H 0.05931 0.60322 0.63097
 H462 H 0.14548 0.60461 0.55821
 H463 H 0.21772 0.67273 0.63656
 H464 H 0.18255 0.64721 0.59388
 C465 C 0.66475 0.17217 0.66007
 C466 C 0.69900 0.19035 0.65368
 C467 C 0.71577 0.21339 0.67875
 C468 C 0.69854 0.21874 0.70992
 C469 C 0.66426 0.20040 0.71517
 N470 N 0.64856 0.17795 0.69055
 C471 C 0.64496 0.14732 0.63476
 N472 N 0.60928 0.13570 0.64019
 C473 C 0.58892 0.11276 0.61876
 C474 C 0.60432 0.10003 0.58956
 C475 C 0.64106 0.11148 0.58338
 C476 C 0.66153 0.13491 0.60593
 H477 H 0.74174 0.22757 0.67324
 H478 H 0.65015 0.20350 0.73905
 H479 H 0.56056 0.10489 0.62428
 H480 H 0.65418 0.10184 0.56149
 H481 H 0.71270 0.18758 0.62953
 H482 H 0.69000 0.14248 0.60084
 C483 C 0.65028 0.66711 0.16537
 C484 C 0.63473 0.69895 0.16791
 C485 C 0.65415 0.72386 0.18917
 C486 C 0.68893 0.71709 0.20842
 C487 C 0.70383 0.68508 0.20452
 N488 N 0.68447 0.66128 0.18330
 C489 C 0.63022 0.63998 0.14347
 N490 N 0.64962 0.62067 0.12373
 C491 C 0.63242 0.59590 0.10239
 C492 C 0.59359 0.58910 0.10061
 C493 C 0.57323 0.60813 0.12140
 C494 C 0.59139 0.63369 0.14268
 H495 H 0.64193 0.74851 0.19017
 H496 H 0.73032 0.67845 0.21900
 H497 H 0.64903 0.58146 0.08693
 H498 H 0.54321 0.60368 0.12059
 H499 H 0.60805 0.70476 0.15317
 H500 H 0.57527 0.64817 0.15859
   
