data_POSCAR
  _audit_creation_date              2014-09-24
  _audit_creation_method            'ToBaCCo'
  _symmetry_space_group_name_H-M    'P1'
  _symmetry_Int_Tables_number       1
  _symmetry_cell_setting            triclinic
  loop_
  _symmetry_equiv_pos_as_xyz
 x,y,z
_cell_length_a 52.7092
_cell_length_b 52.7695
_cell_length_c 29.0980
_cell_angle_alpha 90.319500
_cell_angle_beta 90.087100
_cell_angle_gamma 87.969100
loop_
  _atom_site_label
  _atom_site_type_symbol
  _atom_site_fract_x
  _atom_site_fract_y
  _atom_site_fract_z
O1 O -0.03147 0.27558 0.04125
 O2 O 0.02009 0.27711 -0.04546
 O3 O -0.02984 0.27434 -0.04889
 O4 O 0.01822 0.27916 0.04307
 O5 O 0.02158 0.23739 0.04594
 O6 O -0.02538 0.23266 -0.04662
 O7 O 0.02379 0.23545 -0.04182
 O8 O -0.02714 0.23387 0.04276
 Cu9 Cu -0.00637 0.28077 -0.00287
 Cu10 Cu -0.00157 0.23070 0.00011
 C11 C -0.03796 0.25429 0.05690
 C12 C 0.03143 0.25635 -0.05702
 C13 C -0.03585 0.25259 -0.06339
 C14 C 0.02847 0.25901 0.05951
 O15 O 0.47571 0.77462 0.54421
 O16 O 0.52549 0.77484 0.45418
 O17 O 0.47531 0.77539 0.45390
 O18 O 0.52577 0.77445 0.54273
 O19 O 0.52658 0.73263 0.54075
 O20 O 0.47685 0.73358 0.45292
 O21 O 0.52611 0.73301 0.45345
 O22 O 0.47738 0.73281 0.54257
 Cu23 Cu 0.50019 0.77909 0.49884
 Cu24 Cu 0.50155 0.72887 0.49727
 C25 C 0.46820 0.75350 0.55888
 C26 C 0.53496 0.75373 0.43987
 C27 C 0.46753 0.75451 0.43822
 C28 C 0.53540 0.75320 0.55557
 O29 O 1.03152 0.72766 0.04440
 O30 O 0.98220 0.72372 -0.04589
 O31 O 1.03203 0.72753 -0.04448
 O32 O 0.98192 0.72347 0.04384
 O33 O 0.97716 0.76516 0.04369
 O34 O 1.02671 0.76914 -0.04392
 O35 O 0.97774 0.76543 -0.04532
 O36 O 1.02592 0.76925 0.04498
 Cu37 Cu 1.00733 0.72137 -0.00065
 Cu38 Cu 1.00138 0.77136 -0.00017
 C39 C 1.03734 0.74932 0.05979
 C40 C 0.97141 0.74402 -0.06072
 C41 C 1.03829 0.74919 -0.05868
 C42 C 0.97090 0.74372 0.05868
 O43 O 0.52529 0.22294 0.54259
 O44 O 0.47447 0.22125 0.45481
 O45 O 0.52439 0.22309 0.45351
 O46 O 0.47548 0.22113 0.54444
 O47 O 0.47263 0.26293 0.54464
 O48 O 0.52086 0.26488 0.45439
 O49 O 0.47175 0.26306 0.45564
 O50 O 0.52170 0.26473 0.54324
 Cu51 Cu 0.50017 0.21786 0.49874
 Cu52 Cu 0.49642 0.26804 0.49952
 C53 C 0.53231 0.24427 0.55751
 C54 C 0.46431 0.24197 0.44052
 C55 C 0.53118 0.24448 0.43893
 C56 C 0.46558 0.24180 0.55981
 O57 O 0.72280 -0.02936 0.03620
 O58 O 0.72398 0.02307 -0.04838
 O59 O 0.72341 -0.02714 -0.05298
 O60 O 0.72304 0.02095 0.04033
 O61 O 0.76490 0.01868 0.04096
 O62 O 0.76531 -0.02820 -0.05207
 O63 O 0.76580 0.02061 -0.04674
 O64 O 0.76466 -0.03087 0.03614
 Cu65 Cu 0.71904 -0.00300 -0.00623
 Cu66 Cu 0.76928 -0.00521 -0.00506
 C67 C 0.74378 -0.03955 0.04938
 C68 C 0.74532 0.03127 -0.06094
 C69 C 0.74457 -0.03605 -0.06799
 C70 C 0.74411 0.02870 0.05523
 O71 O 0.22442 0.52986 0.45891
 O72 O 0.22318 0.47743 0.54337
 O73 O 0.22486 0.52770 0.54765
 O74 O 0.22308 0.47967 0.45426
 O75 O 0.26497 0.47807 0.45299
 O76 O 0.26667 0.52395 0.54741
 O77 O 0.26501 0.47462 0.54101
 O78 O 0.26627 0.52694 0.45961
 Cu79 Cu 0.21962 0.50389 0.50118
 Cu80 Cu 0.26984 0.50058 0.50038
 C81 C 0.24577 0.53780 0.44601
 C82 C 0.24406 0.46652 0.55524
 C83 C 0.24631 0.53455 0.56238
 C84 C 0.24389 0.47048 0.43816
 O85 O 0.26639 1.02806 0.05420
 O86 O 0.27049 0.97714 -0.03373
 O87 O 0.27000 1.02688 -0.03503
 O88 O 0.26708 0.97826 0.05570
 O89 O 0.22532 0.97941 0.04984
 O90 O 0.22826 1.02767 -0.04006
 O91 O 0.22873 0.97841 -0.03909
 O92 O 0.22468 1.02840 0.04887
 Cu93 Cu 0.27270 1.00247 0.01081
 Cu94 Cu 0.22262 1.00356 0.00427
 C95 C 0.24470 1.03702 0.06650
 C96 C 0.25019 0.96900 -0.05124
 C97 C 0.24952 1.03582 -0.05277
 C98 C 0.24559 0.97049 0.06813
 O99 O 0.77514 0.51837 0.54779
 O100 O 0.77278 0.46900 0.45768
 O101 O 0.77559 0.51849 0.45818
 O102 O 0.77190 0.46895 0.54722
 O103 O 0.73013 0.47348 0.54619
 O104 O 0.73376 0.52192 0.45694
 O105 O 0.73098 0.47286 0.45710
 O106 O 0.73335 0.52233 0.54618
 Cu107 Cu 0.77807 0.49330 0.50280
 Cu108 Cu 0.72790 0.49806 0.50144
 C109 C 0.75458 0.52888 0.56222
 C110 C 0.75143 0.46232 0.44231
 C111 C 0.75518 0.52872 0.44249
 C112 C 0.75026 0.46276 0.56183
 C113 C 0.19871 0.20851 0.21692
 C114 C 0.22279 0.19892 0.22941
 C115 C 0.24085 0.21558 0.24608
 C116 C 0.23566 0.24211 0.24792
 C117 C 0.21139 0.25120 0.23311
 C118 C 0.19271 0.23451 0.21902
 C119 C 0.25539 0.26017 0.26441
 C120 C 0.24853 0.28538 0.27754
 C121 C 0.26694 0.30255 0.29058
 C122 C 0.29232 0.29417 0.29413
 C123 C 0.29966 0.26902 0.28386
 C124 C 0.28137 0.25248 0.26745
 H125 H 0.18489 0.19575 0.20318
 H126 H 0.25876 0.20734 0.25760
 H127 H 0.20661 0.27122 0.23201
 H128 H 0.22898 0.29215 0.27778
 H129 H 0.30619 0.30711 0.30707
 H130 H 0.28793 0.23374 0.25700
 C131 C 0.79645 0.78518 0.19501
 C132 C 0.77040 0.79156 0.19543
 C133 C 0.75361 0.77472 0.21533
 C134 C 0.76267 0.75180 0.23542
 C135 C 0.78904 0.74596 0.23432
 C136 C 0.80587 0.76224 0.21322
 C137 C 0.74470 0.73380 0.25649
 C138 C 0.75099 0.70758 0.25876
 C139 C 0.73471 0.69075 0.27980
 C140 C 0.71129 0.69996 0.29664
 C141 C 0.70445 0.72587 0.29515
 C142 C 0.72133 0.74270 0.27541
 H143 H 0.80952 0.79788 0.17921
 H144 H 0.73345 0.77922 0.21362
 H145 H 0.79683 0.72886 0.24998
 H146 H 0.76848 0.69991 0.24407
 H147 H 0.69857 0.68685 0.31228
 H148 H 0.71649 0.76278 0.27632
 C149 C 0.79226 0.20489 0.19727
 C150 C 0.79957 0.22876 0.21218
 C151 C 0.78119 0.24612 0.22921
 C152 C 0.75512 0.24059 0.22883
 C153 C 0.74816 0.21677 0.21109
 C154 C 0.76661 0.19870 0.19597
 C155 C 0.73544 0.25966 0.24635
 C156 C 0.71111 0.25218 0.26018
 C157 C 0.69286 0.27008 0.27633
 C158 C 0.69943 0.29537 0.28202
 C159 C 0.72368 0.30321 0.27052
 C160 C 0.74103 0.28560 0.25067
 H161 H 0.80673 0.19135 0.18530
 H162 H 0.78779 0.26376 0.24290
 H163 H 0.72842 0.21230 0.20748
 H164 H 0.70603 0.23254 0.25884
 H165 H 0.68588 0.30868 0.29774
 H166 H 0.75890 0.29256 0.23903
 C167 C 0.20085 0.80311 0.22644
 C168 C 0.19516 0.77749 0.22973
 C169 C 0.21408 0.75991 0.24416
 C170 C 0.23832 0.76790 0.25777
 C171 C 0.24335 0.79400 0.25448
 C172 C 0.22497 0.81145 0.23770
 C173 C 0.25826 0.74913 0.27464
 C174 C 0.28434 0.75446 0.27218
 C175 C 0.30292 0.73719 0.28871
 C176 C 0.29566 0.71391 0.30605
 C177 C 0.27001 0.70812 0.30966
 C178 C 0.25143 0.72586 0.29431
 H179 H 0.18675 0.81647 0.21267
 H180 H 0.20969 0.74006 0.24441
 H181 H 0.26141 0.80116 0.26507
 H182 H 0.29064 0.77184 0.25723
 H183 H 0.31019 0.70051 0.31816
 H184 H 0.23171 0.72168 0.29937
 C185 C 0.70138 0.29469 0.71506
 C186 C 0.69533 0.26915 0.71809
 C187 C 0.71407 0.25120 0.73182
 C188 C 0.73849 0.25877 0.74526
 C189 C 0.74392 0.28477 0.74217
 C190 C 0.72573 0.30256 0.72589
 C191 C 0.75811 0.23975 0.76248
 C192 C 0.78429 0.24478 0.76081
 C193 C 0.80252 0.22760 0.77886
 C194 C 0.79479 0.20460 0.79670
 C195 C 0.76905 0.19905 0.79918
 C196 C 0.75082 0.21670 0.78239
 H197 H 0.68734 0.30833 0.70199
 H198 H 0.70933 0.23144 0.73191
 H199 H 0.76211 0.29163 0.75268
 H200 H 0.79091 0.26195 0.74558
 H201 H 0.80896 0.19127 0.81032
 H202 H 0.73101 0.21268 0.78679
 C203 C 0.29940 0.70958 0.70334
 C204 C 0.30708 0.73303 0.71963
 C205 C 0.28894 0.75040 0.73752
 C206 C 0.26277 0.74521 0.73699
 C207 C 0.25547 0.72173 0.71811
 C208 C 0.27368 0.70377 0.70180
 C209 C 0.24330 0.76431 0.75517
 C210 C 0.21877 0.75697 0.76830
 C211 C 0.20054 0.77493 0.78436
 C212 C 0.20729 0.80013 0.79043
 C213 C 0.23165 0.80784 0.77955
 C214 C 0.24914 0.79016 0.76036
 H215 H 0.31363 0.69606 0.69040
 H216 H 0.29578 0.76777 0.75195
 H217 H 0.23568 0.71748 0.71441
 H218 H 0.21353 0.73739 0.76635
 H219 H 0.19374 0.81356 0.80584
 H220 H 0.26722 0.79704 0.74958
 C221 C 0.29305 0.28971 0.69917
 C222 C 0.26715 0.29676 0.70013
 C223 C 0.25001 0.28034 0.72029
 C224 C 0.25860 0.25717 0.74010
 C225 C 0.28485 0.25074 0.73867
 C226 C 0.30198 0.26655 0.71723
 C227 C 0.24033 0.23948 0.76121
 C228 C 0.24620 0.21316 0.76330
 C229 C 0.22980 0.19659 0.78471
 C230 C 0.20665 0.20616 0.80207
 C231 C 0.20019 0.23215 0.80062
 C232 C 0.21716 0.24873 0.78044
 H233 H 0.30636 0.30205 0.68309
 H234 H 0.22995 0.28536 0.71898
 H235 H 0.29232 0.23350 0.75430
 H236 H 0.26347 0.20520 0.74823
 H237 H 0.19385 0.19328 0.81812
 H238 H 0.21256 0.26887 0.78132
 C239 C 0.71113 0.70024 0.70571
 C240 C 0.73461 0.69165 0.72314
 C241 C 0.75117 0.70927 0.74159
 C242 C 0.74534 0.73562 0.73984
 C243 C 0.72190 0.74373 0.72003
 C244 C 0.70460 0.72617 0.70362
 C245 C 0.76392 0.75451 0.75699
 C246 C 0.75579 0.77946 0.76929
 C247 C 0.77329 0.79742 0.78307
 C248 C 0.79891 0.79006 0.78794
 C249 C 0.80742 0.76518 0.77820
 C250 C 0.79007 0.74785 0.76118
 H251 H 0.69817 0.68661 0.69209
 H252 H 0.76858 0.70201 0.75701
 H253 H 0.71723 0.76366 0.71552
 H254 H 0.73594 0.78529 0.76816
 H255 H 0.81204 0.80361 0.80138
 H256 H 0.79739 0.72930 0.75102
 C257 C 0.23822 0.09871 0.15852
 C258 C 0.21635 0.08664 0.14362
 C259 C 0.21860 0.06592 0.11392
 C260 C 0.24261 0.05685 0.09891
 C261 C 0.26411 0.06898 0.11587
 N262 N 0.26138 0.08955 0.14414
 C263 C 0.23628 0.12275 0.18498
 N264 N 0.25383 0.14066 0.17788
 C265 C 0.25112 0.16455 0.19549
 C266 C 0.22930 0.17176 0.22064
 C267 C 0.21193 0.15311 0.23106
 C268 C 0.21543 0.12859 0.21363
 H269 H 0.20137 0.05736 0.10206
 H270 H 0.28304 0.06275 0.10545
 H271 H 0.26503 0.17836 0.18692
 H272 H 0.19508 0.15783 0.25106
 H273 H 0.19755 0.09378 0.15287
 H274 H 0.20147 0.11467 0.22125
 C275 C 0.75487 0.59153 0.65595
 C276 C 0.77812 0.58075 0.64046
 C277 C 0.77817 0.55975 0.61094
 C278 C 0.75519 0.54941 0.59703
 C279 C 0.73253 0.55991 0.61529
 N280 N 0.73295 0.58046 0.64350
 C281 C 0.75290 0.61572 0.68204
 N282 N 0.73061 0.62187 0.70362
 C283 C 0.72536 0.64531 0.72144
 C284 C 0.74271 0.66466 0.71631
 C285 C 0.76645 0.65838 0.69680
 C286 C 0.77165 0.63397 0.67965
 H287 H 0.79613 0.55204 0.59810
 H288 H 0.71438 0.55232 0.60614
 H289 H 0.70699 0.64923 0.73704
 H290 H 0.78025 0.67281 0.69158
 H291 H 0.79605 0.58853 0.65030
 H292 H 0.78938 0.63026 0.66181
 C293 C 0.74693 0.88973 0.11993
 C294 C 0.72360 0.90338 0.11781
 C295 C 0.72239 0.92708 0.09614
 C296 C 0.74446 0.93720 0.07764
 C297 C 0.76748 0.92328 0.08250
 N298 N 0.76801 0.90016 0.10248
 C299 C 0.74955 0.86367 0.13770
 N300 N 0.76705 0.84773 0.11745
 C301 C 0.77271 0.82420 0.13368
 C302 C 0.76118 0.81567 0.17390
 C303 C 0.74229 0.83140 0.19454
 C304 C 0.73631 0.85543 0.17635
 H305 H 0.70422 0.93714 0.09285
 H306 H 0.78497 0.93018 0.06867
 H307 H 0.78677 0.81247 0.11571
 H308 H 0.73300 0.82561 0.22573
 H309 H 0.70641 0.89540 0.13087
 H310 H 0.72250 0.86783 0.19357
 C311 C 0.24597 0.39554 0.62512
 C312 C 0.22311 0.41004 0.62451
 C313 C 0.22236 0.43379 0.60302
 C314 C 0.24443 0.44313 0.58314
 C315 C 0.26702 0.42834 0.58637
 N316 N 0.26709 0.40520 0.60627
 C317 C 0.24801 0.36944 0.64292
 N318 N 0.26485 0.35298 0.62219
 C319 C 0.26993 0.32931 0.63828
 C320 C 0.25845 0.32112 0.67881
 C321 C 0.24022 0.33739 0.69997
 C322 C 0.23484 0.36159 0.68196
 H323 H 0.20450 0.44453 0.60099
 H324 H 0.28449 0.43461 0.57141
 H325 H 0.28350 0.31717 0.61995
 H326 H 0.23101 0.33187 0.73142
 H327 H 0.20588 0.40271 0.63867
 H328 H 0.22156 0.37437 0.69960
 C329 C 0.89942 0.24773 0.14883
 C330 C 0.91653 0.22704 0.14188
 C331 C 0.93736 0.22962 0.11317
 C332 C 0.94140 0.25268 0.09108
 C333 C 0.92448 0.27323 0.10015
 N334 N 0.90400 0.27016 0.12784
 C335 C 0.87503 0.24483 0.17341
 N336 N 0.85521 0.26117 0.16355
 C337 C 0.83131 0.25765 0.17926
 C338 C 0.82611 0.23611 0.20516
 C339 C 0.84643 0.21989 0.21819
 C340 C 0.87095 0.22436 0.20301
 H341 H 0.94992 0.21324 0.10726
 H342 H 0.92690 0.29136 0.08384
 H343 H 0.81608 0.27065 0.16869
 H344 H 0.84316 0.20326 0.23874
 H345 H 0.91343 0.20859 0.15629
 H346 H 0.88621 0.21139 0.21332
 C347 C 0.40691 0.74913 0.65430
 C348 C 0.42277 0.72767 0.64559
 C349 C 0.44323 0.72947 0.61575
 C350 C 0.44816 0.75253 0.59436
 C351 C 0.43254 0.77380 0.60524
 N352 N 0.41236 0.77150 0.63394
 C353 C 0.38273 0.74717 0.67994
 N354 N 0.36334 0.76417 0.67079
 C355 C 0.33945 0.76138 0.68718
 C356 C 0.33379 0.73994 0.71298
 C357 C 0.35374 0.72312 0.72547
 C358 C 0.37828 0.72684 0.70962
 H359 H 0.45478 0.71255 0.60841
 H360 H 0.43567 0.79196 0.58948
 H361 H 0.32452 0.77482 0.67702
 H362 H 0.35009 0.70653 0.74585
 H363 H 0.41885 0.70927 0.65946
 H364 H 0.39323 0.71337 0.71929
 C365 C 0.09863 0.75690 0.15081
 C366 C 0.08302 0.77811 0.14004
 C367 C 0.06238 0.77543 0.11081
 C368 C 0.05692 0.75157 0.09223
 C369 C 0.07255 0.73060 0.10518
 N370 N 0.09298 0.73384 0.13305
 C371 C 0.12234 0.75980 0.17724
 N372 N 0.14330 0.74520 0.16612
 C373 C 0.16651 0.74928 0.18482
 C374 C 0.16961 0.76949 0.21567
 C375 C 0.14798 0.78373 0.22959
 C376 C 0.12435 0.77888 0.21071
 H377 H 0.05103 0.79224 0.10210
 H378 H 0.06919 0.71183 0.09181
 H379 H 0.18273 0.73776 0.17346
 H380 H 0.14951 0.79913 0.25409
 H381 H 0.08730 0.79689 0.15226
 H382 H 0.10798 0.79040 0.22136
 C383 C 0.59675 0.25016 0.64556
 C384 C 0.57937 0.27082 0.64115
 C385 C 0.55792 0.26851 0.61369
 C386 C 0.55354 0.24570 0.59058
 C387 C 0.57090 0.22521 0.59693
 N388 N 0.59198 0.22803 0.62333
 C389 C 0.62124 0.25286 0.66987
 N390 N 0.64194 0.23868 0.65577
 C391 C 0.66561 0.24233 0.67283
 C392 C 0.66947 0.26167 0.70510
 C393 C 0.64825 0.27553 0.72187
 C394 C 0.62413 0.27105 0.70474
 H395 H 0.54510 0.28484 0.60962
 H396 H 0.56829 0.20732 0.57947
 H397 H 0.68153 0.23114 0.65929
 H398 H 0.65046 0.29027 0.74748
 H399 H 0.58277 0.28903 0.65678
 H400 H 0.60810 0.28212 0.71809
 C401 C 0.75061 0.10069 0.87136
 C402 C 0.77261 0.08592 0.88035
 C403 C 0.77067 0.06226 0.90030
 C404 C 0.74677 0.05308 0.91182
 C405 C 0.72503 0.06775 0.89912
 N406 N 0.72746 0.09106 0.87984
 C407 C 0.75291 0.12707 0.85606
 N408 N 0.73957 0.13605 0.81910
 C409 C 0.74334 0.15954 0.80159
 C410 C 0.76167 0.17509 0.82117
 C411 C 0.77440 0.16658 0.86084
 C412 C 0.77016 0.14265 0.87818
 H413 H 0.78808 0.05167 0.90839
 H414 H 0.70619 0.06134 0.90655
 H415 H 0.73296 0.16556 0.77121
 H416 H 0.78809 0.17824 0.87791
 H417 H 0.79123 0.09299 0.87315
 H418 H 0.78063 0.13614 0.90819
 C419 C 0.25189 0.60881 0.37889
 C420 C 0.27361 0.59323 0.38576
 C421 C 0.27130 0.56939 0.40496
 C422 C 0.24738 0.56092 0.41767
 C423 C 0.22587 0.57647 0.40759
 N424 N 0.22862 0.59987 0.38893
 C425 C 0.25461 0.63525 0.36414
 N426 N 0.24028 0.64511 0.32913
 C427 C 0.24395 0.66880 0.31240
 C428 C 0.26312 0.68374 0.33087
 C429 C 0.27699 0.67427 0.36862
 C430 C 0.27291 0.65010 0.38508
 H431 H 0.28843 0.55805 0.41161
 H432 H 0.20706 0.57057 0.41653
 H433 H 0.23269 0.67548 0.28349
 H434 H 0.29135 0.68540 0.38501
 H435 H 0.29230 0.59976 0.37746
 H436 H 0.28417 0.64291 0.41366
 C437 C 0.25122 0.90505 0.85774
 C438 C 0.27424 0.91330 0.87608
 C439 C 0.27414 0.93466 0.90477
 C440 C 0.25125 0.94789 0.91499
 C441 C 0.22892 0.93975 0.89413
 N442 N 0.22946 0.91881 0.86680
 C443 C 0.24918 0.88107 0.83138
 N444 N 0.22737 0.87726 0.80753
 C445 C 0.22223 0.85467 0.78764
 C446 C 0.23926 0.83380 0.79236
 C447 C 0.26239 0.83752 0.81496
 C448 C 0.26743 0.86106 0.83451
 H449 H 0.29185 0.94045 0.91975
 H450 H 0.21087 0.94955 0.90047
 H451 H 0.20435 0.85275 0.76983
 H452 H 0.27590 0.82184 0.82000
 H453 H 0.29211 0.90338 0.86898
 H454 H 0.28472 0.86285 0.85408
 C455 C 0.74666 0.39944 0.34978
 C456 C 0.77065 0.40752 0.36359
 C457 C 0.77232 0.42850 0.39280
 C458 C 0.75022 0.44158 0.40798
 C459 C 0.72673 0.43368 0.39148
 N460 N 0.72557 0.41304 0.36355
 C461 C 0.74320 0.37574 0.32326
 N462 N 0.72052 0.37234 0.30202
 C463 C 0.71453 0.35000 0.28200
 C464 C 0.73161 0.32900 0.28389
 C465 C 0.75549 0.33234 0.30406
 C466 C 0.76136 0.35559 0.32371
 H467 H 0.79086 0.43414 0.40421
 H468 H 0.70920 0.44338 0.40179
 H469 H 0.69607 0.34842 0.26615
 H470 H 0.76909 0.31657 0.30714
 H471 H 0.78797 0.39775 0.35251
 H472 H 0.77932 0.35706 0.34135
 C473 C 0.10094 0.25468 0.87278
 C474 C 0.08740 0.27793 0.87715
 C475 C 0.06365 0.27865 0.89894
 C476 C 0.05336 0.25617 0.91553
 C477 C 0.06707 0.23321 0.90752
 N478 N 0.09027 0.23317 0.88765
 C479 C 0.12727 0.25257 0.85611
 N480 N 0.14334 0.23569 0.87738
 C481 C 0.16717 0.23035 0.86200
 C482 C 0.17586 0.24148 0.82153
 C483 C 0.16001 0.25985 0.79995
 C484 C 0.13567 0.26559 0.81738
 H485 H 0.05384 0.29682 0.90411
 H486 H 0.06006 0.21529 0.91906
 H487 H 0.17898 0.21676 0.88071
 H488 H 0.16595 0.26884 0.76858
 H489 H 0.09558 0.29539 0.86598
 H490 H 0.12316 0.27894 0.79950
 C491 C 0.60508 0.74956 0.36695
 C492 C 0.59208 0.77317 0.37056
 C493 C 0.56843 0.77471 0.39266
 C494 C 0.55772 0.75271 0.41008
 C495 C 0.57087 0.72940 0.40329
 N496 N 0.59400 0.72853 0.38306
 C497 C 0.63131 0.74665 0.34984
 N498 N 0.64695 0.72919 0.37065
 C499 C 0.67073 0.72350 0.35533
 C500 C 0.67986 0.73495 0.31549
 C501 C 0.66438 0.75375 0.29425
 C502 C 0.64008 0.75978 0.31155
 H503 H 0.55898 0.79309 0.39744
 H504 H 0.56347 0.71194 0.41614
 H505 H 0.68223 0.70955 0.37384
 H506 H 0.67061 0.76299 0.26333
 H507 H 0.60061 0.79029 0.35861
 H508 H 0.62793 0.77359 0.29399
 C509 C 0.90714 0.74366 0.84964
 C510 C 0.91698 0.72052 0.86712
 C511 C 0.93867 0.72032 0.89493
 C512 C 0.95058 0.74305 0.90520
 C513 C 0.94095 0.76547 0.88492
 N514 N 0.91975 0.76521 0.85842
 C515 C 0.88257 0.74608 0.82486
 N516 N 0.87733 0.76774 0.80090
 C517 C 0.85407 0.77335 0.78270
 C518 C 0.83398 0.75702 0.78948
 C519 C 0.83918 0.73403 0.81227
 C520 C 0.86339 0.72847 0.82999
 H521 H 0.94561 0.70257 0.90958
 H522 H 0.94973 0.78339 0.89128
 H523 H 0.85105 0.79106 0.76459
 H524 H 0.82418 0.72104 0.81887
 H525 H 0.90796 0.70281 0.86015
 H526 H 0.86637 0.71136 0.84982
 C527 C 0.39913 0.24399 0.35287
 C528 C 0.40835 0.22054 0.36995
 C529 C 0.43026 0.21957 0.39719
 C530 C 0.44299 0.24185 0.40732
 C531 C 0.43389 0.26461 0.38755
 N532 N 0.41248 0.26510 0.36156
 C533 C 0.37450 0.24722 0.32853
 N534 N 0.36989 0.26894 0.30441
 C535 C 0.34670 0.27532 0.28665
 C536 C 0.32604 0.25980 0.29414
 C537 C 0.33056 0.23673 0.31704
 C538 C 0.35470 0.23035 0.33426
 H539 H 0.43677 0.20157 0.41144
 H540 H 0.44330 0.28220 0.39384
 H541 H 0.34419 0.29306 0.26844
 H542 H 0.31510 0.22435 0.32419
 H543 H 0.39871 0.20317 0.36304
 H544 H 0.35720 0.21323 0.35424
 C545 C 0.75087 0.89903 0.84454
 C546 C 0.77083 0.91596 0.84683
 C547 C 0.76812 0.93790 0.87338
 C548 C 0.74560 0.94324 0.89763
 C549 C 0.72559 0.92657 0.89272
 N550 N 0.72885 0.90494 0.86733
 C551 C 0.75444 0.87368 0.82280
 N552 N 0.74089 0.85406 0.83881
 C553 C 0.74546 0.82969 0.82464
 C554 C 0.76517 0.82395 0.79356
 C555 C 0.77847 0.84397 0.77489
 C556 C 0.77300 0.86883 0.78895
 H557 H 0.78408 0.95019 0.87639
 H558 H 0.70796 0.92995 0.91114
 H559 H 0.73465 0.81472 0.83948
 H560 H 0.79346 0.84027 0.75006
 H561 H 0.78897 0.91176 0.83072
 H562 H 0.78362 0.88389 0.77404
 C563 C 0.24812 0.40499 0.35183
 C564 C 0.26838 0.42161 0.35294
 C565 C 0.26630 0.44378 0.37900
 C566 C 0.24413 0.44967 0.40396
 C567 C 0.22379 0.43331 0.40018
 N568 N 0.22644 0.41145 0.37524
 C569 C 0.25101 0.37944 0.33058
 N570 N 0.23695 0.36030 0.34708
 C571 C 0.24068 0.33579 0.33309
 C572 C 0.26000 0.32934 0.30160
 C573 C 0.27388 0.34886 0.28258
 C574 C 0.26928 0.37389 0.29651
 H575 H 0.28250 0.45581 0.38114
 H576 H 0.20642 0.43709 0.41918
 H577 H 0.22945 0.32123 0.34825
 H578 H 0.28858 0.34463 0.25742
 H579 H 0.28629 0.41701 0.33630
 H580 H 0.28028 0.38854 0.28119
 C581 C 0.24982 0.09733 0.85584
 C582 C 0.27304 0.08690 0.87205
 C583 C 0.27312 0.06596 0.90132
 C584 C 0.25016 0.05527 0.91444
 C585 C 0.22754 0.06545 0.89524
 N586 N 0.22797 0.08595 0.86733
 C587 C 0.24769 0.12135 0.82963
 N588 N 0.22519 0.12737 0.80863
 C589 C 0.21993 0.15054 0.79015
 C590 C 0.23756 0.16975 0.79368
 C591 C 0.26144 0.16363 0.81279
 C592 C 0.26660 0.13950 0.83083
 H593 H 0.29113 0.05860 0.91451
 H594 H 0.20935 0.05772 0.90341
 H595 H 0.20143 0.15435 0.77497
 H596 H 0.27546 0.17801 0.81673
 H597 H 0.29095 0.09486 0.86294
 H598 H 0.28453 0.13593 0.84810
 C599 C 0.75570 0.59153 0.35032
 C600 C 0.77889 0.58146 0.36744
 C601 C 0.77895 0.56037 0.39641
 C602 C 0.75605 0.54926 0.40813
 C603 C 0.73353 0.55908 0.38832
 N604 N 0.73392 0.57971 0.36072
 C605 C 0.75343 0.61562 0.32438
 N606 N 0.73102 0.62136 0.30281
 C607 C 0.72553 0.64453 0.28450
 C608 C 0.74281 0.66401 0.28877
 C609 C 0.76661 0.65822 0.30848
 C610 C 0.77201 0.63409 0.32635
 H611 H 0.79680 0.55322 0.41056
 H612 H 0.71546 0.55090 0.39577
 H613 H 0.70712 0.64809 0.26884
 H614 H 0.78035 0.67281 0.31297
 H615 H 0.79676 0.58980 0.35932
 H616 H 0.78984 0.63075 0.34406
 C617 C 0.10182 0.75656 0.85584
 C618 C 0.08628 0.77792 0.86643
 C619 C 0.06486 0.77531 0.89365
 C620 C 0.05858 0.75141 0.91047
 C621 C 0.07419 0.73032 0.89773
 N622 N 0.09534 0.73346 0.87181
 C623 C 0.12620 0.75922 0.83147
 N624 N 0.14645 0.74367 0.84260
 C625 C 0.17014 0.74720 0.82567
 C626 C 0.17449 0.76777 0.79671
 C627 C 0.15363 0.78309 0.78283
 C628 C 0.12949 0.77880 0.79982
 H629 H 0.05358 0.79223 0.90233
 H630 H 0.07022 0.71150 0.90978
 H631 H 0.18575 0.73486 0.83691
 H632 H 0.15615 0.79883 0.75972
 H633 H 0.09115 0.79673 0.85569
 H634 H 0.11374 0.79109 0.78904
 C635 C 0.59460 0.25089 0.34916
 C636 C 0.57728 0.27152 0.35491
 C637 C 0.55609 0.26902 0.38276
 C638 C 0.55191 0.24604 0.40500
 C639 C 0.56915 0.22557 0.39721
 N640 N 0.58998 0.22858 0.37043
 C641 C 0.61894 0.25378 0.32464
 N642 N 0.63960 0.23917 0.33733
 C643 C 0.66320 0.24287 0.32019
 C644 C 0.66704 0.26271 0.28938
 C645 C 0.64586 0.27709 0.27406
 C646 C 0.62180 0.27254 0.29116
 H647 H 0.54335 0.28534 0.38795
 H648 H 0.56669 0.20756 0.41394
 H649 H 0.67910 0.23128 0.33256
 H650 H 0.64806 0.29225 0.24959
 H651 H 0.58055 0.28986 0.34010
 H652 H 0.60580 0.28399 0.27887
 C653 C 0.90282 0.24474 0.84177
 C654 C 0.91868 0.22360 0.85244
 C655 C 0.93922 0.22641 0.88201
 C656 C 0.94420 0.25019 0.90113
 C657 C 0.92857 0.27105 0.88822
 N658 N 0.90836 0.26778 0.85988
 C659 C 0.87853 0.24206 0.81658
 N660 N 0.85941 0.25967 0.82392
 C661 C 0.83544 0.25666 0.80795
 C662 C 0.82938 0.23439 0.78449
 C663 C 0.84908 0.21682 0.77373
 C664 C 0.87371 0.22072 0.78917
 H665 H 0.95074 0.20977 0.89104
 H666 H 0.93172 0.28975 0.90212
 H667 H 0.82074 0.27069 0.81677
 H668 H 0.84516 0.19956 0.75512
 H669 H 0.91469 0.20475 0.84035
 H670 H 0.88844 0.20665 0.78097
 C671 C 0.40448 0.75187 0.34595
 C672 C 0.42026 0.73016 0.35254
 C673 C 0.44133 0.73139 0.38127
 C674 C 0.44694 0.75413 0.40360
 C675 C 0.43140 0.77571 0.39469
 N676 N 0.41062 0.77395 0.36711
 C677 C 0.37968 0.75046 0.32200
 N678 N 0.36074 0.76759 0.33340
 C679 C 0.33640 0.76518 0.31889
 C680 C 0.32981 0.74397 0.29283
 C681 C 0.34921 0.72706 0.27797
 C682 C 0.37421 0.73042 0.29187
 H683 H 0.45279 0.71426 0.38710
 H684 H 0.43505 0.79364 0.41121
 H685 H 0.32189 0.77867 0.33086
 H686 H 0.34481 0.71062 0.25738
 H687 H 0.41583 0.71196 0.33796
 H688 H 0.38873 0.71685 0.28046
 C689 C 0.23982 0.90976 0.16380
 C690 C 0.21816 0.92476 0.15250
 C691 C 0.22028 0.94499 0.12237
 C692 C 0.24387 0.95051 0.10335
 C693 C 0.26523 0.93562 0.11658
 N694 N 0.26263 0.91568 0.14549
 C695 C 0.23785 0.88607 0.19052
 N696 N 0.25515 0.86672 0.18285
 C697 C 0.25262 0.84325 0.20104
 C698 C 0.23122 0.83800 0.22750
 C699 C 0.21405 0.85803 0.23830
 C700 C 0.21741 0.88212 0.22032
 H701 H 0.20328 0.95593 0.11308
 H702 H 0.28378 0.93920 0.10264
 H703 H 0.26635 0.82829 0.19210
 H704 H 0.19753 0.85480 0.25929
 H705 H 0.19950 0.92033 0.16477
 H706 H 0.20370 0.89716 0.22868
 C707 C 0.74294 0.40125 0.65532
 C708 C 0.72189 0.41750 0.64596
 C709 C 0.72457 0.43800 0.61663
 C710 C 0.74812 0.44251 0.59644
 C711 C 0.76891 0.42639 0.60780
 N712 N 0.76576 0.40625 0.63600
 C713 C 0.74025 0.37729 0.68097
 N714 N 0.75700 0.35759 0.67239
 C715 C 0.75389 0.33401 0.68965
 C716 C 0.73242 0.32902 0.71610
 C717 C 0.71576 0.34933 0.72774
 C718 C 0.71974 0.37352 0.71072
 H719 H 0.70799 0.44991 0.60881
 H720 H 0.78741 0.42918 0.59296
 H721 H 0.76723 0.31883 0.68008
 H722 H 0.69922 0.34628 0.74878
 H723 H 0.70319 0.41391 0.65905
 H724 H 0.70645 0.38878 0.71990
 C725 C 0.74749 0.09825 0.12968
 C726 C 0.72384 0.08714 0.12435
 C727 C 0.72259 0.06356 0.10220
 C728 C 0.74488 0.05101 0.08625
 C729 C 0.76818 0.06219 0.09501
 N730 N 0.76881 0.08534 0.11529
 C731 C 0.75009 0.12451 0.14615
 N732 N 0.76859 0.13834 0.12714
 C733 C 0.77331 0.16225 0.14111
 C734 C 0.75947 0.17355 0.17750
 C735 C 0.73980 0.15984 0.19702
 C736 C 0.73494 0.13534 0.18123
 H737 H 0.70420 0.05570 0.09587
 H738 H 0.78586 0.05329 0.08341
 H739 H 0.78809 0.17226 0.12390
 H740 H 0.72876 0.16769 0.22539
 H741 H 0.70648 0.09714 0.13474
 H742 H 0.72021 0.12471 0.19735
 C743 C 0.25355 0.60372 0.63586
 C744 C 0.27488 0.58749 0.62959
 C745 C 0.27213 0.56396 0.60884
 C746 C 0.24815 0.55650 0.59401
 C747 C 0.22696 0.57254 0.60407
 N748 N 0.23016 0.59564 0.62406
 C749 C 0.25696 0.63019 0.65034
 N750 N 0.24323 0.64066 0.68570
 C751 C 0.24736 0.66454 0.70159
 C752 C 0.26632 0.67908 0.68173
 C753 C 0.27955 0.66893 0.64365
 C754 C 0.27508 0.64454 0.62820
 H755 H 0.28901 0.55221 0.60222
 H756 H 0.20811 0.56743 0.59350
 H757 H 0.23660 0.67171 0.73082
 H758 H 0.29368 0.67970 0.62614
 H759 H 0.29366 0.59343 0.63901
 H760 H 0.28584 0.63682 0.59934
 C761 C 0.90680 0.74257 0.14838
 C762 C 0.91758 0.71947 0.13203
 C763 C 0.93913 0.71962 0.10400
 C764 C 0.95000 0.74263 0.09246
 C765 C 0.93948 0.76507 0.11163
 N766 N 0.91842 0.76448 0.13829
 C767 C 0.88218 0.74460 0.17304
 N768 N 0.87557 0.76712 0.19357
 C769 C 0.85196 0.77234 0.21049
 C770 C 0.83292 0.75460 0.20580
 C771 C 0.83958 0.73070 0.18719
 C772 C 0.86415 0.72560 0.17073
 H773 H 0.94681 0.70183 0.09032
 H774 H 0.94745 0.78324 0.10432
 H775 H 0.84771 0.79086 0.22534
 H776 H 0.82535 0.71660 0.18244
 H777 H 0.90941 0.70151 0.13995
 H778 H 0.86819 0.70764 0.15381
 C779 C 0.40211 0.24334 0.65112
 C780 C 0.41198 0.21982 0.63495
 C781 C 0.43337 0.21907 0.60647
 C782 C 0.44500 0.24160 0.59434
 C783 C 0.43542 0.26445 0.61345
 N784 N 0.41448 0.26473 0.64050
 C785 C 0.37763 0.24636 0.67602
 N786 N 0.37179 0.26923 0.69599
 C787 C 0.34840 0.27531 0.71311
 C788 C 0.32879 0.25814 0.70925
 C789 C 0.33464 0.23393 0.69117
 C790 C 0.35898 0.22794 0.67449
 H791 H 0.44031 0.20099 0.59286
 H792 H 0.44400 0.28226 0.60568
 H793 H 0.34479 0.29404 0.72755
 H794 H 0.31996 0.22023 0.68705
 H795 H 0.40322 0.20222 0.64329
 H796 H 0.36238 0.20974 0.65803
 C797 C 0.09420 0.25945 0.14495
 C798 C 0.08590 0.28204 0.12341
 C799 C 0.06356 0.28242 0.09738
 C800 C 0.04959 0.26038 0.09279
 C801 C 0.05779 0.23870 0.11701
 N802 N 0.07960 0.23875 0.14182
 C803 C 0.11904 0.25652 0.16845
 N804 N 0.12255 0.23694 0.19828
 C805 C 0.14554 0.23063 0.21679
 C806 C 0.16708 0.24388 0.20437
 C807 C 0.16386 0.26474 0.17496
 C808 C 0.13989 0.27114 0.15692
 H809 H 0.05782 0.29958 0.07935
 H810 H 0.04740 0.22139 0.11494
 H811 H 0.14711 0.21471 0.24005
 H812 H 0.18004 0.27526 0.16404
 H813 H 0.09664 0.29909 0.12587
 H814 H 0.13816 0.28638 0.13230
 C815 C 0.60545 0.74863 0.62912
 C816 C 0.59253 0.77228 0.62575
 C817 C 0.56896 0.77391 0.60340
 C818 C 0.55822 0.75198 0.58527
 C819 C 0.57131 0.72864 0.59154
 N820 N 0.59436 0.72766 0.61224
 C821 C 0.63152 0.74559 0.64715
 N822 N 0.64681 0.72699 0.62850
 C823 C 0.67051 0.72148 0.64446
 C824 C 0.67997 0.73453 0.68263
 C825 C 0.66485 0.75439 0.70169
 C826 C 0.64060 0.76007 0.68388
 H827 H 0.55957 0.79233 0.59902
 H828 H 0.56388 0.71122 0.57812
 H829 H 0.68172 0.70657 0.62768
 H830 H 0.67135 0.76484 0.73133
 H831 H 0.60103 0.78940 0.63818
 H832 H 0.62878 0.77481 0.69985
   
