data_POSCAR
  _audit_creation_date              2014-09-24
  _audit_creation_method            'ToBaCCo'
  _symmetry_space_group_name_H-M    'P1'
  _symmetry_Int_Tables_number       1
  _symmetry_cell_setting            triclinic
  loop_
  _symmetry_equiv_pos_as_xyz
 x,y,z
_cell_length_a 31.7297
_cell_length_b 31.6733
_cell_length_c 47.9721
_cell_angle_alpha 90.044000
_cell_angle_beta 89.959300
_cell_angle_gamma 120.134500
loop_
  _atom_site_label
  _atom_site_type_symbol
  _atom_site_fract_x
  _atom_site_fract_y
  _atom_site_fract_z
C1 C 0.02508 0.51166 1.27577
 C2 C -0.02640 0.48579 1.27581
 C3 C -0.05177 0.47306 1.25043
 C4 C -0.02653 0.48580 1.22502
 C5 C 0.02483 0.51161 1.22500
 C6 C 0.05024 0.52432 1.25033
 H7 H 0.08980 0.54424 1.25019
 H8 H -0.09136 0.45320 1.25046
 C9 C 0.48770 0.51496 1.27576
 C10 C 0.51324 0.48918 1.27581
 C11 C 0.52610 0.47659 1.25049
 C12 C 0.51374 0.48934 1.22510
 C13 C 0.48823 0.51506 1.22503
 C14 C 0.47539 0.52774 1.25033
 H15 H 0.45567 0.54753 1.25017
 H16 H 0.54573 0.45672 1.25054
 C17 C 0.48501 0.97374 1.27621
 C18 C 0.51096 1.02530 1.27630
 C19 C 0.52377 1.05079 1.25096
 C20 C 0.51110 1.02555 1.22557
 C21 C 0.48526 0.97419 1.22548
 C22 C 0.47234 0.94860 1.25075
 H23 H 0.45246 0.90897 1.25054
 H24 H 0.54374 1.09043 1.25094
 C25 C 1.02662 0.51433 0.77486
 C26 C 0.97534 0.48870 0.77485
 C27 C 0.95008 0.47601 0.74950
 C28 C 0.97546 0.48858 0.72416
 C29 C 1.02684 0.51425 0.72415
 C30 C 1.05208 0.52698 0.74955
 H31 H 1.09164 0.54670 0.74967
 H32 H 0.91054 0.45622 0.74949
 C33 C 0.48623 0.51151 0.77534
 C34 C 0.51231 0.48636 0.77530
 C35 C 0.52507 0.47390 0.74992
 C36 C 0.51211 0.48632 0.72460
 C37 C 0.48601 0.51146 0.72464
 C38 C 0.47323 0.52389 0.75003
 H39 H 0.45318 0.54334 0.75008
 H40 H 0.54519 0.45453 0.74986
 C41 C 0.51321 0.02347 0.72456
 C42 C 0.48721 -0.02800 0.72459
 C43 C 0.47456 -0.05323 0.75002
 C44 C 0.48752 -0.02769 0.77537
 C45 C 0.51353 0.02378 0.77530
 C46 C 0.52619 0.04895 0.74989
 H47 H 0.54616 0.08856 0.74983
 H48 H 0.45449 -0.09288 0.75008
 O49 O 0.40455 0.66961 0.96793
 O50 O 0.40692 0.75192 0.97613
 C51 C 0.37611 0.75766 0.96223
 O52 O 0.33111 0.73625 0.96786
 O53 O 0.24897 0.65618 0.97650
 C54 C 0.24298 0.61936 0.96267
 O55 O 0.26433 0.59575 0.96823
 O56 O 0.34425 0.59372 0.97656
 C57 C 0.38087 0.62444 0.96255
 O58 O 0.40705 0.65680 1.02352
 O59 O 0.40498 0.73687 1.03174
 C60 C 0.38137 0.75824 1.03727
 O61 O 0.34468 0.75222 1.02340
 O62 O 0.26471 0.66996 1.03203
 C63 C 0.24329 0.62489 1.03766
 O64 O 0.24912 0.59400 1.02382
 O65 O 0.33127 0.59641 1.03213
 C66 C 0.37635 0.62016 1.03754
 Cr67 Cr 0.40323 0.70248 0.99984
 Cr68 Cr 0.29869 0.70233 0.99995
 Cr69 Cr 0.29857 0.59762 1.00018
 O70 O 0.33350 0.66748 0.99999
 O71 O 0.59481 0.34485 0.97649
 O72 O 0.59678 0.26469 0.96828
 C73 C 0.62051 0.24347 0.96267
 O74 O 0.65726 0.24958 0.97653
 O75 O 0.73745 0.33196 0.96861
 C76 C 0.75872 0.37704 0.96302
 O77 O 0.75265 0.40778 0.97685
 O78 O 0.67064 0.40569 0.96855
 C79 C 0.62569 0.38185 0.96279
 O80 O 0.59646 0.33167 1.03215
 O81 O 0.59418 0.24939 1.02394
 C82 C 0.62477 0.24323 1.03780
 O83 O 0.66978 0.26445 1.03224
 O84 O 0.75214 0.34465 1.02433
 C85 C 0.75823 0.38150 1.03818
 O86 O 0.73719 0.40537 1.03250
 O87 O 0.65733 0.40756 1.02420
 C88 C 0.62030 0.37671 1.03788
 Cr89 Cr 0.59826 0.29900 1.00022
 Cr90 Cr 0.70282 0.29901 1.00042
 Cr91 Cr 0.70310 0.40390 1.00052
 O92 O 0.66806 0.33397 1.00039
 O93 O 0.65628 0.40650 0.52332
 O94 O 0.73620 0.40436 0.53141
 C95 C 0.75752 0.38070 0.53690
 O96 O 0.75139 0.34385 0.52305
 O97 O 0.66922 0.26378 0.53166
 C98 C 0.62425 0.24237 0.53734
 O99 O 0.59342 0.24827 0.52356
 O100 O 0.59591 0.33062 0.53189
 C101 C 0.61965 0.37577 0.53731
 O102 O 0.66900 0.40396 0.46771
 O103 O 0.75114 0.40623 0.47579
 C104 C 0.75691 0.37534 0.46191
 O105 O 0.73547 0.33026 0.46751
 O106 O 0.65546 0.24802 0.47613
 C107 C 0.61866 0.24200 0.46237
 O108 O 0.59515 0.26343 0.46798
 O109 O 0.59323 0.34357 0.47633
 C110 C 0.62391 0.38029 0.46236
 Cr111 Cr 0.70182 0.40260 0.49956
 Cr112 Cr 0.70156 0.29781 0.49959
 Cr113 Cr 0.59709 0.29780 0.49993
 O114 O 0.66683 0.33274 0.49969
 O115 O 0.34271 0.59231 0.52333
 O116 O 0.26269 0.59429 0.53146
 C117 C 0.24159 0.61809 0.53721
 O118 O 0.24777 0.65507 0.52350
 O119 O 0.32994 0.73524 0.53189
 C120 C 0.37489 0.75643 0.53763
 O121 O 0.40567 0.75047 0.52381
 O122 O 0.40337 0.66814 0.53171
 C123 C 0.37951 0.62302 0.53722
 O124 O 0.33012 0.59490 0.46766
 O125 O 0.24793 0.59256 0.47577
 C126 C 0.24190 0.62342 0.46207
 O127 O 0.26308 0.66844 0.46786
 O128 O 0.34314 0.75075 0.47625
 C129 C 0.38003 0.75700 0.46247
 O130 O 0.40380 0.73583 0.46809
 O131 O 0.40581 0.65567 0.47600
 C132 C 0.37514 0.61884 0.46209
 Cr133 Cr 0.29720 0.59621 0.49956
 Cr134 Cr 0.29733 0.70103 0.49987
 Cr135 Cr 0.40197 0.70118 0.49990
 O136 O 0.33217 0.66614 0.49978
 C137 C 0.44785 0.55276 0.34729
 C138 C 0.47681 0.55356 0.37313
 C139 C 0.46281 0.56655 0.39701
 C140 C 0.42126 0.57745 0.39268
 C141 C 0.38024 0.53140 0.37882
 C142 C 0.39422 0.51842 0.35497
 C143 C 0.45364 0.60382 0.34608
 C144 C 0.43967 0.61679 0.36992
 C145 C 0.46264 0.53892 0.32147
 C146 C 0.47447 0.52769 0.30007
 C147 C 0.40581 0.59166 0.41814
 C148 C 0.39227 0.60380 0.43853
 H149 H 0.50576 0.54476 0.37269
 H150 H 0.47974 0.56885 0.41704
 H151 H 0.34346 0.51075 0.38704
 H152 H 0.36942 0.48665 0.34277
 H153 H 0.46754 0.62772 0.32807
 H154 H 0.44162 0.65182 0.37232
 C155 C 0.44670 0.89580 0.34767
 C156 C 0.47693 0.92415 0.37318
 C157 C 0.46386 0.89721 0.39708
 C158 C 0.42188 0.84462 0.39310
 C159 C 0.43901 0.82346 0.36981
 C160 C 0.45205 0.85034 0.34595
 C161 C 0.39349 0.87659 0.35620
 C162 C 0.38044 0.84967 0.38008
 C163 C 0.46062 0.92439 0.32184
 C164 C 0.47200 0.94752 0.30046
 C165 C 0.40757 0.81501 0.41857
 C166 C 0.39529 0.78929 0.43896
 H167 H 0.50603 0.96199 0.37251
 H168 H 0.48173 0.91198 0.41691
 H169 H 0.44078 0.79025 0.37189
 H170 H 0.46498 0.84017 0.32760
 H171 H 0.36831 0.88357 0.34454
 H172 H 0.34406 0.83359 0.38888
 C173 C 0.10306 0.55140 0.34724
 C174 C 0.14647 0.54271 0.34658
 C175 C 0.17344 0.55658 0.37041
 C176 C 0.15440 0.57780 0.39261
 C177 C 0.10096 0.53831 0.39722
 C178 C 0.07395 0.52441 0.37335
 C179 C 0.12520 0.60581 0.35408
 C180 C 0.15218 0.61969 0.37792
 C181 C 0.07437 0.53669 0.32143
 C182 C 0.05123 0.52490 0.30006
 C183 C 0.18408 0.59312 0.41807
 C184 C 0.20976 0.60651 0.43847
 H185 H 0.15524 0.52700 0.32895
 H186 H 0.20531 0.55273 0.37318
 H187 H 0.08571 0.52264 0.41742
 H188 H 0.03557 0.49680 0.37309
 H189 H 0.12009 0.63121 0.34135
 H190 H 0.17018 0.65698 0.38559
 C191 C 0.55233 0.44898 0.34848
 C192 C 0.54742 0.39834 0.34656
 C193 C 0.56102 0.38470 0.37026
 C194 C 0.57820 0.42304 0.39356
 C195 C 0.53596 0.43290 0.39794
 C196 C 0.52233 0.44656 0.37419
 C197 C 0.60557 0.48362 0.35675
 C198 C 0.61918 0.46998 0.38045
 C199 C 0.53800 0.46350 0.32281
 C200 C 0.52663 0.47523 0.30149
 C201 C 0.59331 0.40817 0.41882
 C202 C 0.60673 0.39561 0.43903
 H203 H 0.53436 0.37519 0.32821
 H204 H 0.55960 0.34986 0.37221
 H205 H 0.51833 0.42946 0.41788
 H206 H 0.49299 0.45479 0.37378
 H207 H 0.63038 0.51606 0.34504
 H208 H 0.65566 0.49073 0.38906
 C209 C 0.55008 0.10281 0.34783
 C210 C 0.54574 0.14884 0.34611
 C211 C 0.55923 0.17578 0.36995
 C212 C 0.57575 0.15408 0.39320
 C213 C 0.61664 0.14808 0.38017
 C214 C 0.60313 0.12110 0.35631
 C215 C 0.51959 0.07485 0.37335
 C216 C 0.53311 0.10184 0.39724
 C217 C 0.53573 0.07424 0.32202
 C218 C 0.52410 0.05124 0.30062
 C219 C 0.59052 0.18375 0.41862
 C220 C 0.60313 0.20958 0.43894
 H221 H 0.53314 0.15934 0.32777
 H222 H 0.55819 0.20938 0.37204
 H223 H 0.65296 0.16356 0.38894
 H224 H 0.62787 0.11346 0.34462
 H225 H 0.49001 0.03722 0.37270
 H226 H 0.51516 0.08735 0.41708
 C227 C 0.89592 0.44672 0.34729
 C228 C 0.92242 0.47949 0.37240
 C229 C 0.89537 0.46580 0.39627
 C230 C 0.84455 0.42073 0.39262
 C231 C 0.85380 0.38112 0.38068
 C232 C 0.88082 0.39479 0.35685
 C233 C 0.84808 0.44745 0.34486
 C234 C 0.82108 0.43379 0.36868
 C235 C 0.92457 0.46118 0.32150
 C236 C 0.94762 0.47276 0.30012
 C237 C 0.81485 0.40560 0.41803
 C238 C 0.78911 0.39227 0.43839
 H239 H 0.95913 0.51067 0.37151
 H240 H 0.90891 0.48522 0.41583
 H241 H 0.84040 0.34549 0.39015
 H242 H 0.89057 0.37089 0.34590
 H243 H 0.83643 0.45781 0.32608
 H244 H 0.78630 0.43246 0.37030
 C245 C 0.55286 0.44903 1.15231
 C246 C 0.52341 0.44766 1.12658
 C247 C 0.53664 0.43370 1.10277
 C248 C 0.57801 0.42250 1.10707
 C249 C 0.55986 0.38390 1.13024
 C250 C 0.54665 0.39784 1.15400
 C251 C 0.60637 0.48278 1.14415
 C252 C 0.61959 0.46882 1.12037
 C253 C 0.53878 0.46379 1.17806
 C254 C 0.52737 0.47553 1.19942
 C255 C 0.59249 0.40711 1.08169
 C256 C 0.60491 0.39367 1.06137
 H257 H 0.49470 0.45680 1.12703
 H258 H 0.51931 0.43092 1.08282
 H259 H 0.55756 0.34866 1.12816
 H260 H 0.53305 0.37454 1.17226
 H261 H 0.63164 0.51485 1.15597
 H262 H 0.65619 0.48895 1.11183
 C263 C 0.89620 0.44784 1.15334
 C264 C 0.85299 0.39536 1.15368
 C265 C 0.82623 0.38235 1.12978
 C266 C 0.84526 0.42307 1.10782
 C267 C 0.89882 0.43770 1.10329
 C268 C 0.92562 0.45073 1.12724
 C269 C 0.87383 0.47983 1.14669
 C270 C 0.84706 0.46681 1.12277
 C271 C 0.92465 0.46172 1.17923
 C272 C 0.94759 0.47300 1.20068
 C273 C 0.81580 0.40881 1.08228
 C274 C 0.79025 0.39661 1.06182
 H275 H 0.84419 0.37056 1.17117
 H276 H 0.79452 0.34640 1.12679
 H277 H 0.91431 0.43780 1.08309
 H278 H 0.96406 0.46194 1.12756
 H279 H 0.87865 0.51010 1.15960
 H280 H 0.82895 0.48594 1.11522
 C281 C 0.55182 0.10453 1.15263
 C282 C 0.52204 0.07642 1.12694
 C283 C 0.53607 0.10333 1.10303
 C284 C 0.57847 0.15567 1.10719
 C285 C 0.61912 0.14990 1.12072
 C286 C 0.60510 0.12301 1.14460
 C287 C 0.54722 0.15045 1.15401
 C288 C 0.56122 0.17732 1.13013
 C289 C 0.53699 0.07599 1.17848
 C290 C 0.52513 0.05298 1.19989
 C291 C 0.59396 0.18526 1.08170
 C292 C 0.60755 0.21096 1.06132
 H293 H 0.49254 0.03875 1.12750
 H294 H 0.51863 0.08872 1.08308
 H295 H 0.65568 0.16549 1.11226
 H296 H 0.62966 0.11557 1.15660
 H297 H 0.53408 0.16094 1.17214
 H298 H 0.56006 0.21082 1.12782
 C299 C 0.44858 0.55377 1.15207
 C300 C 0.39516 0.51912 1.14412
 C301 C 0.38134 0.53219 1.12029
 C302 C 0.42229 0.57863 1.10673
 C303 C 0.46428 0.56834 1.10247
 C304 C 0.47812 0.55525 1.12634
 C305 C 0.45381 0.60458 1.15350
 C306 C 0.43999 0.61765 1.12967
 C307 C 0.46314 0.53985 1.17787
 C308 C 0.47469 0.52856 1.19929
 C309 C 0.40699 0.59291 1.08133
 C310 C 0.39349 0.60511 1.06100
 H311 H 0.37040 0.48708 1.15613
 H312 H 0.34472 0.51135 1.11187
 H313 H 0.48158 0.57109 1.08249
 H314 H 0.50732 0.54682 1.12684
 H315 H 0.46723 0.62826 1.17163
 H316 H 0.44159 0.65253 1.12739
 C317 C 0.10404 0.55229 1.15218
 C318 C 0.07746 0.55859 1.12719
 C319 C 0.10456 0.57264 1.10335
 C320 C 0.15552 0.57898 1.10689
 C321 C 0.14657 0.52999 1.11848
 C322 C 0.11949 0.51595 1.14229
 C323 C 0.15169 0.60127 1.15483
 C324 C 0.17874 0.61529 1.13104
 C325 C 0.07534 0.53744 1.17794
 C326 C 0.05226 0.52560 1.19931
 C327 C 0.18527 0.59445 1.08150
 C328 C 0.21105 0.60794 1.06117
 H329 H 0.04065 0.55257 1.12814
 H330 H 0.09096 0.57862 1.08387
 H331 H 0.16022 0.50820 1.10880
 H332 H 0.10993 0.48212 1.15302
 H333 H 0.16318 0.62305 1.17374
 H334 H 0.21341 0.64911 1.12957
 C335 C 0.44715 0.89614 1.15230
 C336 C 0.39405 0.87712 1.14363
 C337 C 0.38123 0.85046 1.11966
 C338 C 0.42277 0.84547 1.10671
 C339 C 0.43958 0.82399 1.12994
 C340 C 0.45239 0.85062 1.15390
 C341 C 0.47770 0.92474 1.12694
 C342 C 0.46486 0.89805 1.10293
 C343 C 0.46078 0.92438 1.17822
 C344 C 0.47189 0.94711 1.19971
 C345 C 0.40870 0.81611 1.08117
 C346 C 0.39654 0.79049 1.06077
 H347 H 0.36878 0.88405 1.15528
 H348 H 0.34496 0.83453 1.11075
 H349 H 0.44130 0.79076 1.12776
 H350 H 0.46508 0.84022 1.17224
 H351 H 0.50684 0.96255 1.12777
 H352 H 0.48295 0.91300 1.08318
 C353 C 0.55184 0.44728 0.65171
 C354 C 0.52236 0.44591 0.62600
 C355 C 0.53583 0.43230 0.60216
 C356 C 0.57742 0.42143 0.60643
 C357 C 0.55942 0.38264 0.62948
 C358 C 0.54598 0.39623 0.65328
 C359 C 0.60533 0.48138 0.64364
 C360 C 0.61879 0.46778 0.61983
 C361 C 0.53752 0.46160 0.67748
 C362 C 0.52592 0.47296 0.69888
 C363 C 0.59208 0.40635 0.58105
 C364 C 0.60450 0.39294 0.56075
 H365 H 0.49348 0.45480 0.62649
 H366 H 0.51853 0.42958 0.58220
 H367 H 0.55738 0.34754 0.62730
 H368 H 0.53243 0.37277 0.67148
 H369 H 0.63040 0.51343 0.65556
 H370 H 0.65539 0.48818 0.61133
 C371 C 0.55292 0.10280 0.65177
 C372 C 0.52245 0.07510 0.62619
 C373 C 0.53614 0.10226 0.60236
 C374 C 0.57893 0.15439 0.60651
 C375 C 0.61962 0.14807 0.61950
 C376 C 0.60595 0.12094 0.64328
 C377 C 0.54882 0.14896 0.65364
 C378 C 0.56248 0.17608 0.62986
 C379 C 0.53848 0.07403 0.67751
 C380 C 0.52692 0.05092 0.69887
 C381 C 0.59405 0.18422 0.58114
 C382 C 0.60736 0.21006 0.56082
 H383 H 0.49275 0.03753 0.62675
 H384 H 0.51820 0.08797 0.58250
 H385 H 0.65597 0.16348 0.61074
 H386 H 0.63057 0.11310 0.65491
 H387 H 0.53624 0.15943 0.67202
 H388 H 0.56160 0.20977 0.62787
 C389 C 0.89655 0.44884 0.65133
 C390 C 0.85235 0.39699 0.65237
 C391 C 0.82543 0.38356 0.62853
 C392 C 0.84536 0.42330 0.60598
 C393 C 0.89842 0.43614 0.60154
 C394 C 0.92538 0.44959 0.62542
 C395 C 0.87562 0.48181 0.64395
 C396 C 0.84869 0.46838 0.62011
 C397 C 0.92509 0.46314 0.67711
 C398 C 0.94806 0.47473 0.69849
 C399 C 0.81572 0.40862 0.58059
 C400 C 0.78991 0.39610 0.56029
 H401 H 0.84302 0.37292 0.67025
 H402 H 0.79304 0.34796 0.62599
 H403 H 0.91346 0.43478 0.58145
 H404 H 0.96353 0.45971 0.62580
 H405 H 0.88148 0.51301 0.65634
 H406 H 0.83148 0.48807 0.61206
 C407 C 0.44661 0.55103 0.65177
 C408 C 0.39337 0.51663 0.64334
 C409 C 0.38012 0.53039 0.61952
 C410 C 0.42141 0.57718 0.60645
 C411 C 0.46347 0.56696 0.60232
 C412 C 0.47673 0.55320 0.62617
 C413 C 0.45183 0.60181 0.65354
 C414 C 0.43860 0.61555 0.62975
 C415 C 0.46074 0.53651 0.67756
 C416 C 0.47223 0.52499 0.69894
 C417 C 0.40694 0.59241 0.58104
 C418 C 0.39463 0.60587 0.56070
 H419 H 0.36831 0.48428 0.65502
 H420 H 0.34371 0.50981 0.61080
 H421 H 0.48123 0.57021 0.58245
 H422 H 0.50589 0.54471 0.62672
 H423 H 0.46482 0.62499 0.67189
 H424 H 0.44026 0.65050 0.62772
 C425 C 0.44719 0.89452 0.65291
 C426 C 0.47665 0.92287 0.62719
 C427 C 0.46268 0.89603 0.60323
 C428 C 0.42064 0.84350 0.60736
 C429 C 0.37980 0.84877 0.62111
 C430 C 0.39376 0.87558 0.64504
 C431 C 0.45231 0.84888 0.65407
 C432 C 0.43836 0.82209 0.63015
 C433 C 0.46199 0.92302 0.67881
 C434 C 0.47387 0.94603 0.70025
 C435 C 0.40524 0.81401 0.58180
 C436 C 0.39181 0.78846 0.56132
 H437 H 0.50591 0.96065 0.62776
 H438 H 0.47994 0.91083 0.58327
 H439 H 0.34316 0.83289 0.61276
 H440 H 0.36907 0.88267 0.65717
 H441 H 0.46575 0.83853 0.67210
 H442 H 0.43987 0.78879 0.62770
 C443 C 0.10385 0.55185 0.65241
 C444 C 0.07670 0.55658 0.62719
 C445 C 0.10339 0.56951 0.60319
 C446 C 0.15456 0.57640 0.60681
 C447 C 0.14614 0.52818 0.61932
 C448 C 0.11947 0.51526 0.64329
 C449 C 0.15135 0.60112 0.65429
 C450 C 0.17800 0.61402 0.63034
 C451 C 0.07554 0.53810 0.67834
 C452 C 0.05268 0.52694 0.69980
 C453 C 0.18392 0.59058 0.58125
 C454 C 0.20947 0.60281 0.56080
 H455 H 0.03982 0.55037 0.62811
 H456 H 0.08937 0.57433 0.58355
 H457 H 0.15984 0.50606 0.61014
 H458 H 0.11033 0.48208 0.65463
 H459 H 0.16304 0.62391 0.67282
 H460 H 0.21251 0.64788 0.62836
 C461 C 0.44743 0.55154 0.84821
 C462 C 0.47724 0.55326 0.87383
 C463 C 0.46413 0.56725 0.89767
 C464 C 0.42253 0.57812 0.89348
 C465 C 0.38095 0.53160 0.88035
 C466 C 0.39405 0.51762 0.85654
 C467 C 0.45333 0.60260 0.84645
 C468 C 0.44025 0.61657 0.87024
 C469 C 0.46137 0.53681 0.82245
 C470 C 0.47269 0.52515 0.80106
 C471 C 0.40822 0.59358 0.91884
 C472 C 0.39598 0.60718 0.93913
 H473 H 0.50609 0.54431 0.87330
 H474 H 0.48171 0.57026 0.91756
 H475 H 0.34446 0.51137 0.88901
 H476 H 0.36879 0.48541 0.84481
 H477 H 0.46664 0.62578 0.82813
 H478 H 0.44236 0.65172 0.87229
 C479 C 0.10486 0.55278 0.84789
 C480 C 0.07643 0.52235 0.87332
 C481 C 0.10319 0.53534 0.89727
 C482 C 0.15568 0.57746 0.89337
 C483 C 0.15068 0.61902 0.88040
 C484 C 0.12393 0.60603 0.85648
 C485 C 0.15026 0.54747 0.84621
 C486 C 0.17697 0.56044 0.87010
 C487 C 0.07654 0.53899 0.82203
 C488 C 0.05375 0.52778 0.80058
 C489 C 0.18511 0.59170 0.91884
 C490 C 0.21076 0.60401 0.93920
 H491 H 0.03867 0.49318 0.87258
 H492 H 0.08837 0.51735 0.91706
 H493 H 0.16665 0.65541 0.88926
 H494 H 0.11698 0.63129 0.84484
 H495 H 0.16052 0.53462 0.82785
 H496 H 0.21013 0.55869 0.87223
 C497 C 0.44808 0.89546 0.84711
 C498 C 0.47780 0.92387 0.87275
 C499 C 0.46393 0.89712 0.89672
 C500 C 0.42175 0.84465 0.89266
 C501 C 0.43919 0.82303 0.86980
 C502 C 0.45302 0.84973 0.84587
 C503 C 0.39474 0.87673 0.85513
 C504 C 0.38090 0.85001 0.87907
 C505 C 0.46272 0.92379 0.82121
 C506 C 0.47442 0.94661 0.79975
 C507 C 0.40646 0.81525 0.91819
 C508 C 0.39305 0.78971 0.93863
 H509 H 0.50713 0.96161 0.87211
 H510 H 0.48135 0.91195 0.91664
 H511 H 0.44059 0.78967 0.87221
 H512 H 0.46627 0.83925 0.82778
 H513 H 0.37004 0.88389 0.84309
 H514 H 0.34433 0.83428 0.88754
 C515 C 0.55326 0.44830 0.84816
 C516 C 0.54846 0.39767 0.84669
 C517 C 0.56249 0.38473 0.87049
 C518 C 0.57998 0.42367 0.89347
 C519 C 0.53772 0.43355 0.89778
 C520 C 0.52366 0.44650 0.87394
 C521 C 0.60662 0.48325 0.85610
 C522 C 0.62067 0.47030 0.87991
 C523 C 0.53836 0.46206 0.82238
 C524 C 0.52643 0.47315 0.80100
 C525 C 0.59544 0.40945 0.91889
 C526 C 0.60887 0.39718 0.93925
 H527 H 0.53516 0.37402 0.82854
 H528 H 0.56121 0.34999 0.87272
 H529 H 0.52040 0.43062 0.91777
 H530 H 0.49426 0.45464 0.87350
 H531 H 0.63120 0.51538 0.84410
 H532 H 0.65728 0.49135 0.88831
 C533 C 0.89680 0.44885 0.84795
 C534 C 0.85128 0.45402 0.84669
 C535 C 0.82457 0.44030 0.87062
 C536 C 0.84597 0.42274 0.89351
 C537 C 0.89842 0.46486 0.89757
 C538 C 0.92517 0.47861 0.87359
 C539 C 0.87788 0.39540 0.85599
 C540 C 0.85116 0.38167 0.87993
 C541 C 0.92517 0.46337 0.82204
 C542 C 0.94804 0.47497 0.80058
 C543 C 0.81654 0.40754 0.91905
 C544 C 0.79093 0.39412 0.93947
 H545 H 0.84094 0.46733 0.82860
 H546 H 0.79136 0.44187 0.87302
 H547 H 0.91322 0.48234 0.91748
 H548 H 0.96289 0.50790 0.87296
 H549 H 0.88492 0.37054 0.84396
 H550 H 0.83531 0.34504 0.88840
 C551 C 0.55313 0.10368 0.84806
 C552 C 0.52267 0.07587 0.87363
 C553 C 0.53597 0.10309 0.89745
 C554 C 0.57841 0.15542 0.89334
 C555 C 0.56174 0.17669 0.86991
 C556 C 0.54846 0.14952 0.84614
 C557 C 0.60621 0.12239 0.85666
 C558 C 0.61950 0.14960 0.88045
 C559 C 0.53895 0.07478 0.82230
 C560 C 0.52741 0.05150 0.80096
 C561 C 0.59293 0.18532 0.91875
 C562 C 0.60530 0.21116 0.93911
 H563 H 0.49325 0.03817 0.87306
 H564 H 0.51798 0.08869 0.91729
 H565 H 0.56044 0.21018 0.87184
 H566 H 0.53581 0.15973 0.82771
 H567 H 0.63115 0.11487 0.84510
 H568 H 0.65582 0.16537 0.88927
   
