data_POSCAR
  _audit_creation_date              2014-09-24
  _audit_creation_method            'ToBaCCo'
  _symmetry_space_group_name_H-M    'P1'
  _symmetry_Int_Tables_number       1
  _symmetry_cell_setting            triclinic
  loop_
  _symmetry_equiv_pos_as_xyz
 x,y,z
_cell_length_a 42.3571
_cell_length_b 42.3563
_cell_length_c 42.3566
_cell_angle_alpha 89.460900
_cell_angle_beta 90.180700
_cell_angle_gamma 89.571800
loop_
  _atom_site_label
  _atom_site_type_symbol
  _atom_site_fract_x
  _atom_site_fract_y
  _atom_site_fract_z
O1 O 0.54294 0.49980 0.02606
 O2 O 0.45592 0.49966 0.02601
 O3 O 0.49982 0.45628 0.02601
 O4 O 0.49904 0.54318 0.02607
 O5 O 0.49890 0.54371 -0.02615
 O6 O 0.49968 0.45681 -0.02621
 O7 O 0.45578 0.50019 -0.02620
 O8 O 0.54280 0.50033 -0.02615
 Cu9 Cu 0.49944 0.49967 0.03131
 Cu10 Cu 0.49927 0.50031 -0.03145
 C11 C 0.55756 0.50009 -0.00004
 C12 C 0.44115 0.49991 -0.00010
 C13 C 0.49988 0.44188 -0.00012
 C14 C 0.49884 0.55811 -0.00003
 O15 O 0.02629 0.54395 0.49989
 O16 O 0.02628 0.45693 0.50010
 O17 O 0.02628 0.50074 0.45655
 O18 O 0.02630 0.50013 0.54345
 O19 O -0.02592 0.50054 0.54329
 O20 O -0.02593 0.50114 0.45638
 O21 O -0.02593 0.45733 0.49994
 O22 O -0.02591 0.54435 0.49973
 Cu23 Cu 0.03156 0.50040 0.50001
 Cu24 Cu -0.03119 0.50088 0.49982
 C25 C 0.00019 0.55885 0.49978
 C26 C 0.00017 0.44244 0.50006
 C27 C 0.00017 0.50104 0.44180
 C28 C 0.00019 0.50023 0.55803
 O29 O 0.49989 0.02597 0.54385
 O30 O 0.49965 0.02574 0.45683
 O31 O 0.45632 0.02579 0.50033
 O32 O 0.54322 0.02592 0.50034
 O33 O 0.54370 -0.02630 0.50097
 O34 O 0.45680 -0.02643 0.50097
 O35 O 0.50012 -0.02647 0.45746
 O36 O 0.50037 -0.02624 0.54448
 Cu37 Cu 0.49973 0.03113 0.50027
 Cu38 Cu 0.50029 -0.03163 0.50103
 C39 C 0.50016 -0.00009 0.55886
 C40 C 0.49985 -0.00040 0.44245
 C41 C 0.44190 -0.00034 0.50066
 C42 C 0.55812 -0.00017 0.50065
 C43 C 0.50159 0.08193 -0.05948
 C44 C 0.49994 0.05924 -0.08229
 C45 C 0.49925 0.03033 -0.06666
 N46 N 0.50037 0.03473 -0.03512
 C47 C 0.50177 0.06621 -0.03059
 C48 C 0.49860 0.00071 -0.08175
 C49 C 0.49905 -0.02892 -0.06592
 C50 C 0.50309 -0.05765 -0.08091
 C51 C 0.50282 -0.08064 -0.05786
 C52 C 0.49861 -0.06548 -0.02925
 N53 N 0.49580 -0.03399 -0.03446
 C54 C 0.49758 -0.08123 0.00040
 C55 C 0.49802 -0.06622 0.03007
 C56 C 0.49819 -0.08195 0.05896
 C57 C 0.49987 -0.05925 0.08177
 C58 C 0.50059 -0.03034 0.06614
 N59 N 0.49945 -0.03474 0.03461
 C60 C 0.50125 -0.00073 0.08124
 C61 C 0.50078 0.02890 0.06541
 C62 C 0.49673 0.05763 0.08041
 C63 C 0.49697 0.08062 0.05735
 C64 C 0.50118 0.06547 0.02873
 N65 N 0.50402 0.03398 0.03395
 C66 C 0.50217 0.08122 -0.00092
 H67 H 0.50235 0.10716 -0.06373
 H68 H 0.49949 0.06358 -0.10751
 H69 H 0.51016 0.01726 0.01734
 H70 H 0.50634 -0.06168 -0.10590
 H71 H 0.50581 -0.10570 -0.06177
 H72 H 0.49741 -0.10717 0.06321
 H73 H 0.50032 -0.06359 0.10699
 H74 H 0.49395 0.10568 0.06127
 H75 H 0.48966 -0.01727 -0.01786
 H76 H 0.49348 0.06166 0.10539
 C77 C -0.05872 0.49901 0.91818
 C78 C -0.08159 0.50066 0.94095
 C79 C -0.06605 0.50110 0.96981
 N80 N -0.03450 0.49982 0.96530
 C81 C -0.02988 0.49857 0.93380
 C82 C -0.08123 0.50164 0.99948
 C83 C -0.06548 0.50099 1.02905
 C84 C -0.08053 0.49677 1.05782
 C85 C -0.05754 0.49694 1.08073
 C86 C -0.02891 0.50126 1.06549
 N87 N -0.03405 0.50425 1.03402
 C88 C 0.00068 0.50228 1.08114
 C89 C 0.03040 0.50189 1.06602
 C90 C 0.05924 0.50176 1.08164
 C91 C 0.08212 0.50007 1.05888
 C92 C 0.06657 0.49931 1.03002
 N93 N 0.03502 0.50042 1.03454
 C94 C 0.08176 0.49858 1.00036
 C95 C 0.06602 0.49904 0.97078
 C96 C 0.08111 0.50295 0.94198
 C97 C 0.05812 0.50281 0.91907
 C98 C 0.02945 0.49881 0.93433
 N99 N 0.03457 0.49599 0.96582
 C100 C -0.00016 0.49803 0.91869
 H101 H -0.06290 0.49841 0.89296
 H102 H -0.10680 0.50128 0.93669
 H103 H 0.01790 0.49003 0.98261
 H104 H -0.10551 0.49349 1.06192
 H105 H -0.06151 0.49381 1.10579
 H106 H 0.06342 0.50257 1.10685
 H107 H 0.10733 0.49965 1.06313
 H108 H 0.06211 0.50577 0.89399
 H109 H -0.01744 0.51053 1.01727
 H110 H 0.10611 0.50604 0.93786
 C111 C 0.08188 -0.05947 0.50110
 C112 C 0.05912 -0.08226 0.49951
 C113 C 0.03023 -0.06663 0.49909
 N114 N 0.03469 -0.03512 0.50031
 C115 C 0.06620 -0.03059 0.50152
 C116 C 0.00058 -0.08174 0.49861
 C117 C -0.02901 -0.06593 0.49936
 C118 C -0.05769 -0.08100 0.50362
 C119 C -0.08065 -0.05795 0.50361
 C120 C -0.06553 -0.02926 0.49935
 N121 N -0.03410 -0.03442 0.49624
 C122 C -0.08125 0.00039 0.49851
 C123 C -0.06619 0.03006 0.49888
 C124 C -0.08186 0.05894 0.49920
 C125 C -0.05911 0.08173 0.50075
 C126 C -0.03021 0.06611 0.50126
 N127 N -0.03468 0.03459 0.50012
 C128 C -0.00056 0.08121 0.50177
 C129 C 0.02903 0.06540 0.50110
 C130 C 0.05772 0.08048 0.49695
 C131 C 0.08068 0.05743 0.49699
 C132 C 0.06555 0.02874 0.50117
 N133 N 0.03411 0.03389 0.50420
 C134 C 0.08127 -0.00092 0.50197
 H135 H 0.10711 -0.06372 0.50167
 H136 H 0.06341 -0.10747 0.49893
 H137 H 0.01747 0.01718 0.51035
 H138 H -0.06170 -0.10603 0.50683
 H139 H -0.10565 -0.06192 0.50682
 H140 H -0.10709 0.06319 0.49858
 H141 H -0.06340 0.10695 0.50126
 H142 H 0.10570 0.06140 0.49386
 H143 H -0.01748 -0.01772 0.48999
 H144 H 0.06174 0.10551 0.49378
 C145 C -0.40855 0.50018 0.99997
 C146 C -0.38008 0.50026 0.99997
 C147 C -0.34607 0.50038 0.99995
 C148 C -0.32979 0.52071 0.97961
 C149 C -0.29677 0.52084 0.97956
 C150 C -0.27956 0.50061 0.99991
 C151 C -0.29617 0.48027 1.02029
 C152 C -0.32919 0.48016 1.02028
 C153 C -0.24446 0.50073 0.99987
 C154 C -0.22740 0.49837 1.02838
 C155 C -0.19438 0.49853 1.02831
 C156 C -0.17796 0.50103 0.99979
 C157 C -0.19469 0.50336 0.97131
 C158 C -0.22771 0.50323 0.97132
 C159 C -0.14398 0.50123 0.99973
 C160 C -0.11550 0.50141 0.99964
 H161 H -0.34261 0.53653 0.96384
 H162 H -0.28471 0.53707 0.96390
 H163 H -0.28363 0.46413 1.03593
 H164 H -0.34154 0.46426 1.03607
 H165 H -0.23959 0.49683 1.05077
 H166 H -0.18166 0.49680 1.05050
 H167 H -0.18221 0.50521 0.94908
 H168 H -0.24012 0.50466 0.94896
 C169 C 0.40909 0.49986 0.99987
 C170 C 0.38060 0.49980 0.99987
 C171 C 0.34660 0.49973 0.99988
 C172 C 0.32989 0.51962 1.02018
 C173 C 0.29687 0.51954 1.02024
 C174 C 0.28009 0.49955 0.99993
 C175 C 0.29712 0.47965 0.97959
 C176 C 0.33014 0.47975 0.97959
 C177 C 0.24499 0.49944 0.99997
 C178 C 0.22798 0.49743 0.97146
 C179 C 0.19496 0.49731 0.97153
 C180 C 0.17849 0.49915 1.00005
 C181 C 0.19517 0.50116 1.02853
 C182 C 0.22818 0.50132 1.02851
 C183 C 0.14451 0.49896 1.00011
 C184 C 0.11603 0.49880 1.00020
 H185 H 0.34238 0.53525 1.03592
 H186 H 0.28447 0.53542 1.03587
 H187 H 0.28492 0.46370 0.96398
 H188 H 0.34282 0.46419 0.96384
 H189 H 0.24019 0.49638 0.94907
 H190 H 0.18228 0.49584 0.94934
 H191 H 0.18265 0.50251 1.05075
 H192 H 0.24057 0.50247 1.05087
 C193 C 0.00019 -0.40908 0.49972
 C194 C 0.00021 -0.38060 0.49967
 C195 C 0.00025 -0.34659 0.49960
 C196 C -0.02018 -0.32998 0.51946
 C197 C -0.02018 -0.29696 0.51940
 C198 C 0.00031 -0.28008 0.49944
 C199 C 0.02078 -0.29702 0.47957
 C200 C 0.02072 -0.33004 0.47966
 C201 C 0.00034 -0.24498 0.49935
 C202 C 0.02889 -0.22829 0.49738
 C203 C 0.02889 -0.19528 0.49727
 C204 C 0.00039 -0.17848 0.49910
 C205 C -0.02814 -0.19483 0.50107
 C206 C -0.02819 -0.22785 0.50120
 C207 C 0.00042 -0.14449 0.49893
 C208 C 0.00048 -0.11601 0.49879
 H209 H -0.03606 -0.34255 0.53506
 H210 H -0.03592 -0.28464 0.53526
 H211 H 0.03653 -0.28474 0.46365
 H212 H 0.03657 -0.34265 0.46412
 H213 H 0.05126 -0.24077 0.49635
 H214 H 0.05111 -0.18285 0.49584
 H215 H -0.05034 -0.18205 0.50240
 H216 H -0.05058 -0.23997 0.50233
 C217 C 0.00016 0.40855 0.50015
 C218 C 0.00014 0.38007 0.50024
 C219 C 0.00011 0.34606 0.50035
 C220 C 0.02230 0.32918 0.51846
 C221 C 0.02227 0.29615 0.51861
 C222 C -0.00003 0.27955 0.50064
 C223 C -0.02224 0.29676 0.48251
 C224 C -0.02215 0.32978 0.48238
 C225 C -0.00011 0.24445 0.50081
 C226 C -0.02876 0.22783 0.50148
 C227 C -0.02882 0.19481 0.50166
 C228 C -0.00029 0.17795 0.50117
 C229 C 0.02833 0.19424 0.50048
 C230 C 0.02845 0.22725 0.50032
 C231 C -0.00038 0.14396 0.50136
 C232 C -0.00045 0.11548 0.50154
 H233 H 0.03958 0.34153 0.53254
 H234 H 0.03940 0.28362 0.53313
 H235 H -0.03943 0.28470 0.46811
 H236 H -0.03938 0.34261 0.46820
 H237 H -0.05112 0.24035 0.50228
 H238 H -0.05110 0.18243 0.50228
 H239 H 0.05055 0.18141 0.50000
 H240 H 0.05087 0.23933 0.49938
 C241 C 0.50018 -0.00001 -0.40908
 C242 C 0.50016 0.00008 -0.38060
 C243 C 0.50009 0.00019 -0.34659
 C244 C 0.48043 0.02116 -0.33038
 C245 C 0.48031 0.02127 -0.29736
 C246 C 0.49987 0.00035 -0.28008
 C247 C 0.51956 -0.02066 -0.29662
 C248 C 0.51966 -0.02070 -0.32964
 C249 C 0.49973 0.00041 -0.24498
 C250 C 0.50116 -0.02814 -0.22774
 C251 C 0.50096 -0.02805 -0.19473
 C252 C 0.49936 0.00053 -0.17848
 C253 C 0.49796 0.02905 -0.19539
 C254 C 0.49813 0.02902 -0.22841
 C255 C 0.49911 0.00059 -0.14450
 C256 C 0.49889 0.00065 -0.11602
 H257 H 0.46511 0.03738 -0.34326
 H258 H 0.46459 0.03743 -0.28535
 H259 H 0.53519 -0.03676 -0.28403
 H260 H 0.53504 -0.03699 -0.34194
 H261 H 0.50199 -0.05057 -0.23978
 H262 H 0.50197 -0.05028 -0.18187
 H263 H 0.49680 0.05132 -0.18305
 H264 H 0.49742 0.05140 -0.24096
 C265 C 0.49979 -0.00049 0.40856
 C266 C 0.49977 -0.00055 0.38009
 C267 C 0.49979 -0.00062 0.34608
 C268 C 0.48005 0.02015 0.32918
 C269 C 0.48011 0.02015 0.29616
 C270 C 0.49994 -0.00067 0.27957
 C271 C 0.51968 -0.02149 0.29680
 C272 C 0.51959 -0.02143 0.32981
 C273 C 0.50007 -0.00067 0.24447
 C274 C 0.50188 -0.02924 0.22784
 C275 C 0.50206 -0.02920 0.19482
 C276 C 0.50045 -0.00065 0.17797
 C277 C 0.49862 0.02789 0.19427
 C278 C 0.49841 0.02791 0.22728
 C279 C 0.50072 -0.00065 0.14399
 C280 C 0.50095 -0.00067 0.11551
 H281 H 0.46456 0.03629 0.34152
 H282 H 0.46435 0.03616 0.28361
 H283 H 0.53551 -0.03750 0.28475
 H284 H 0.53504 -0.03755 0.34265
 H285 H 0.50276 -0.05164 0.24035
 H286 H 0.50339 -0.05144 0.18244
 H287 H 0.49745 0.05013 0.18145
 H288 H 0.49741 0.05030 0.23937
 C289 C 0.49856 -0.40807 -0.00001
 C290 C 0.49835 -0.37962 -0.00000
 C291 C 0.49813 -0.34567 -0.00000
 C292 C 0.51819 -0.32896 -0.02021
 C293 C 0.51802 -0.29597 -0.02021
 C294 C 0.49777 -0.27926 0.00004
 C295 C 0.47769 -0.29629 0.02027
 C296 C 0.47788 -0.32929 0.02021
 C297 C 0.49762 -0.24422 0.00010
 C298 C 0.49557 -0.22766 0.02867
 C299 C 0.49552 -0.19466 0.02870
 C300 C 0.49749 -0.17782 0.00022
 C301 C 0.49950 -0.19404 -0.02833
 C302 C 0.49958 -0.22704 -0.02842
 C303 C 0.49748 -0.14389 0.00028
 C304 C 0.49751 -0.11545 0.00034
 H305 H 0.53402 -0.34143 -0.03589
 H306 H 0.53404 -0.28353 -0.03575
 H307 H 0.46155 -0.28410 0.03583
 H308 H 0.46219 -0.34202 0.03589
 H309 H 0.49445 -0.24021 0.05102
 H310 H 0.49405 -0.18229 0.05093
 H311 H 0.50095 -0.18120 -0.05052
 H312 H 0.50077 -0.23911 -0.05081
 C313 C 0.50017 0.40805 -0.00014
 C314 C 0.50041 0.37961 -0.00018
 C315 C 0.50070 0.34566 -0.00025
 C316 C 0.48018 0.32887 0.01941
 C317 C 0.48043 0.29587 0.01937
 C318 C 0.50124 0.27925 -0.00040
 C319 C 0.52177 0.29636 -0.02009
 C320 C 0.52149 0.32936 -0.01998
 C321 C 0.50150 0.24421 -0.00050
 C322 C 0.50433 0.22768 -0.02903
 C323 C 0.50452 0.19469 -0.02909
 C324 C 0.50192 0.17781 -0.00068
 C325 C 0.49912 0.19400 0.02782
 C326 C 0.49889 0.22699 0.02794
 C327 C 0.50206 0.14388 -0.00078
 C328 C 0.50213 0.11544 -0.00085
 H329 H 0.46392 0.34128 0.03471
 H330 H 0.46407 0.28337 0.03448
 H331 H 0.53833 0.28423 -0.03526
 H332 H 0.53753 0.34214 -0.03524
 H333 H 0.50596 0.24027 -0.05132
 H334 H 0.50661 0.18235 -0.05129
 H335 H 0.49717 0.18112 0.04994
 H336 H 0.49709 0.23903 0.05031
 C337 C -0.40805 -0.00011 0.50058
 C338 C -0.37961 -0.00005 0.50048
 C339 C -0.34567 0.00002 0.50033
 C340 C -0.32949 0.02059 0.48016
 C341 C -0.29649 0.02068 0.47996
 C342 C -0.27926 0.00014 0.49995
 C343 C -0.29577 -0.02046 0.52015
 C344 C -0.32876 -0.02048 0.52032
 C345 C -0.24422 0.00017 0.49972
 C346 C -0.22710 -0.02839 0.50150
 C347 C -0.19410 -0.02833 0.50124
 C348 C -0.17783 0.00023 0.49922
 C349 C -0.19462 0.02876 0.49746
 C350 C -0.22761 0.02876 0.49770
 C351 C -0.14390 0.00027 0.49895
 C352 C -0.11546 0.00031 0.49874
 H353 H -0.34237 0.03650 0.46452
 H354 H -0.28446 0.03651 0.46386
 H355 H -0.28317 -0.03625 0.53609
 H356 H -0.34108 -0.03644 0.53609
 H357 H -0.23921 -0.05079 0.50267
 H358 H -0.18130 -0.05055 0.50252
 H359 H -0.18221 0.05101 0.49599
 H360 H -0.24012 0.05114 0.49671
 C361 C 0.40808 -0.00040 0.50070
 C362 C 0.37963 -0.00045 0.50077
 C363 C 0.34569 -0.00051 0.50086
 C364 C 0.32883 0.02004 0.48088
 C365 C 0.29583 0.02001 0.48098
 C366 C 0.27928 -0.00062 0.50109
 C367 C 0.29647 -0.02121 0.52108
 C368 C 0.32946 -0.02112 0.52096
 C369 C 0.24424 -0.00067 0.50122
 C370 C 0.22763 -0.02927 0.50313
 C371 C 0.19464 -0.02928 0.50326
 C372 C 0.17785 -0.00075 0.50151
 C373 C 0.19412 0.02782 0.49961
 C374 C 0.22711 0.02789 0.49945
 C375 C 0.14392 -0.00079 0.50166
 C376 C 0.11548 -0.00084 0.50180
 H377 H 0.34118 0.03602 0.46517
 H378 H 0.28327 0.03584 0.46503
 H379 H 0.28440 -0.03707 0.53712
 H380 H 0.34231 -0.03706 0.53659
 H381 H 0.24015 -0.05164 0.50411
 H382 H 0.18223 -0.05153 0.50464
 H383 H 0.18131 0.05004 0.49833
 H384 H 0.23923 0.05030 0.49838
 C385 C 0.00017 0.50124 1.40797
 C386 C 0.00018 0.50139 1.37953
 C387 C 0.00020 0.50154 1.34558
 C388 C -0.02220 0.51952 1.32885
 C389 C -0.02221 0.51966 1.29585
 C390 C 0.00026 0.50181 1.27917
 C391 C 0.02270 0.48382 1.29623
 C392 C 0.02264 0.48370 1.32922
 C393 C 0.00030 0.50195 1.24413
 C394 C 0.02891 0.50302 1.22738
 C395 C 0.02892 0.50314 1.19438
 C396 C 0.00038 0.50216 1.17772
 C397 C -0.02820 0.50109 1.19414
 C398 C -0.02828 0.50100 1.22714
 C399 C 0.00044 0.50223 1.14380
 C400 C 0.00053 0.50226 1.11535
 H401 H -0.03962 0.53348 1.34131
 H402 H -0.03951 0.53405 1.28339
 H403 H 0.04002 0.46953 1.28406
 H404 H 0.04003 0.46963 1.34196
 H405 H 0.05126 0.50418 1.23978
 H406 H 0.05118 0.50405 1.18187
 H407 H -0.05042 0.50024 1.18144
 H408 H -0.05065 0.49976 1.23936
 C409 C 0.00020 0.49999 0.59186
 C410 C 0.00020 0.49979 0.62030
 C411 C 0.00021 0.49957 0.65425
 C412 C -0.02178 0.51790 0.67068
 C413 C -0.02181 0.51768 0.70367
 C414 C 0.00020 0.49911 0.72067
 C415 C 0.02222 0.48078 0.70391
 C416 C 0.02219 0.48101 0.67092
 C417 C 0.00018 0.49885 0.75570
 C418 C 0.02878 0.49906 0.77269
 C419 C 0.02872 0.49885 0.80569
 C420 C 0.00012 0.49841 0.82211
 C421 C -0.02845 0.49818 0.80545
 C422 C -0.02845 0.49841 0.77246
 C423 C 0.00007 0.49823 0.85603
 C424 C -0.00001 0.49812 0.88448
 H425 H -0.03884 0.53241 0.65799
 H426 H -0.03878 0.53235 0.71589
 H427 H 0.03919 0.46594 0.71632
 H428 H 0.03925 0.46667 0.65841
 H429 H 0.05118 0.49981 0.76047
 H430 H 0.05096 0.49913 0.81839
 H431 H -0.05072 0.49775 0.81797
 H432 H -0.05083 0.49783 0.76005
   
