data_POSCAR
  _audit_creation_date              2014-09-24
  _audit_creation_method            'ToBaCCo'
  _symmetry_space_group_name_H-M    'P1'
  _symmetry_Int_Tables_number       1
  _symmetry_cell_setting            triclinic
  loop_
  _symmetry_equiv_pos_as_xyz
 x,y,z
_cell_length_a 20.2410
_cell_length_b 20.3197
_cell_length_c 22.2546
_cell_angle_alpha 89.997600
_cell_angle_beta 90.206700
_cell_angle_gamma 120.070900
loop_
  _atom_site_label
  _atom_site_type_symbol
  _atom_site_fract_x
  _atom_site_fract_y
  _atom_site_fract_z
O1 O 0.35015 0.55278 0.30162
 O2 O 0.22581 0.55674 0.31986
 C3 C 0.19078 0.59232 0.33091
 O4 O 0.20041 0.64910 0.30009
 O5 O 0.32997 0.77414 0.31780
 C6 C 0.40102 0.80906 0.32890
 O7 O 0.44829 0.79858 0.29865
 O8 O 0.44681 0.67082 0.31642
 C9 C 0.41002 0.60078 0.32956
 O10 O 0.32763 0.55261 0.18204
 O11 O 0.19930 0.55094 0.20012
 C12 C 0.18847 0.59771 0.16936
 O13 O 0.22404 0.66855 0.18048
 O14 O 0.34926 0.79773 0.19829
 C15 C 0.40650 0.80780 0.16772
 O16 O 0.44234 0.77299 0.17881
 O17 O 0.44621 0.64892 0.19677
 C18 C 0.39792 0.58932 0.16886
 Cr19 Cr 0.27782 0.55751 0.25079
 Cr20 Cr 0.27804 0.72024 0.24917
 Cr21 Cr 0.44167 0.72074 0.24777
 O22 O 0.33264 0.66609 0.24928
 O23 O 0.55315 0.35061 0.69709
 O24 O 0.55721 0.22666 0.67924
 C25 C 0.59310 0.19191 0.66834
 O26 O 0.65037 0.20202 0.69925
 O27 O 0.77563 0.33121 0.68224
 C28 C 0.81042 0.40193 0.67129
 O29 O 0.79988 0.44902 0.70163
 O30 O 0.67155 0.44734 0.68341
 C31 C 0.60131 0.41042 0.66968
 O32 O 0.55269 0.32892 0.81675
 O33 O 0.55140 0.20123 0.79906
 C34 C 0.59870 0.19075 0.82957
 O35 O 0.66974 0.22564 0.81888
 O36 O 0.79931 0.35066 0.80190
 C37 C 0.80921 0.40764 0.83263
 O38 O 0.77419 0.44324 0.82141
 O39 O 0.64962 0.44693 0.80296
 C40 C 0.58960 0.39890 0.83032
 Cr41 Cr 0.55789 0.27896 0.74817
 Cr42 Cr 0.72161 0.27953 0.75056
 Cr43 Cr 0.72172 0.44238 0.75223
 O44 O 0.66697 0.33372 0.75033
 C45 C 0.48518 -0.02728 0.47344
 C46 C 0.40647 -0.07155 0.46183
 C47 C 0.37929 -0.12458 0.41504
 C48 C 0.43016 -0.13481 0.37872
 C49 C 0.50891 -0.09088 0.39055
 C50 C 0.53610 -0.03769 0.43735
 C51 C 0.51380 0.02962 0.52290
 C52 C 0.57468 0.03947 0.55973
 C53 C 0.60072 0.09232 0.60677
 C54 C 0.56634 0.13644 0.61809
 C55 C 0.50581 0.12692 0.58094
 C56 C 0.47993 0.07422 0.53391
 H57 H 0.31825 -0.15776 0.40750
 H58 H 0.54970 -0.09719 0.36340
 H59 H 0.64739 0.09812 0.63454
 H60 H 0.47836 0.16032 0.58806
 H61 H 0.59711 -0.00385 0.44470
 H62 H 0.60140 0.00536 0.55284
 H63 H 0.36566 -0.06583 0.48942
 H64 H 0.43379 0.06895 0.50574
 C65 C 1.02963 0.51378 0.47681
 C66 C 1.03871 0.57400 0.44003
 C67 C 1.09115 0.59976 0.39282
 C68 C 1.13562 0.56577 0.38125
 C69 C 1.12684 0.50590 0.41833
 C70 C 1.07457 0.48030 0.46554
 C71 C 0.97316 0.48542 0.52646
 C72 C 0.92922 0.40708 0.53809
 C73 C 0.87656 0.38014 0.58503
 C74 C 0.86638 0.43087 0.62148
 C75 C 0.91001 0.50926 0.60965
 C76 C 0.96283 0.53621 0.56269
 H77 H 1.09640 0.64594 0.36510
 H78 H 1.16054 0.47877 0.41105
 H79 H 0.84360 0.31937 0.59255
 H80 H 0.90371 0.54993 0.63687
 H81 H 1.06990 0.43467 0.49365
 H82 H 0.93487 0.36637 0.51040
 H83 H 1.00432 0.60041 0.44712
 H84 H 0.99644 0.59695 0.55532
 C85 C 0.49218 0.52024 0.47447
 C86 C 0.41381 0.48370 0.46026
 C87 C 0.38733 0.50944 0.41282
 C88 C 0.43828 0.57334 0.37931
 C89 C 0.51631 0.61069 0.39376
 C90 C 0.54309 0.58396 0.44033
 C91 C 0.52055 0.49203 0.52454
 C92 C 0.58427 0.54284 0.55924
 C93 C 0.61108 0.51624 0.60587
 C94 C 0.57383 0.43848 0.61981
 C95 C 0.50996 0.38762 0.58572
 C96 C 0.48413 0.41394 0.53823
 H97 H 0.32671 0.48016 0.40303
 H98 H 0.55688 0.65973 0.36823
 H99 H 0.66010 0.55672 0.63185
 H100 H 0.48076 0.32721 0.59511
 H101 H 0.60391 0.61275 0.44888
 H102 H 0.61295 0.60344 0.55110
 H103 H 0.37250 0.43569 0.48623
 H104 H 0.43615 0.37273 0.51182
 C105 C 0.48590 -0.02982 1.02284
 C106 C 0.51969 -0.07450 1.03404
 C107 C 0.49377 -0.12723 1.08088
 C108 C 0.43327 -0.13672 1.11765
 C109 C 0.39897 -0.09251 1.10615
 C110 C 0.42505 -0.03962 1.05930
 C111 C 0.51454 0.02710 0.97358
 C112 C 0.46364 0.03757 0.93720
 C113 C 0.49082 0.09076 0.89057
 C114 C 0.56957 0.13463 0.87921
 C115 C 0.62044 0.12433 0.91582
 C116 C 0.59325 0.07130 0.96244
 H117 H 0.52116 -0.16069 1.08814
 H118 H 0.35233 -0.09829 1.13364
 H119 H 0.45004 0.09712 0.86319
 H120 H 0.68147 0.15746 0.90865
 H121 H 0.39839 -0.00546 1.05227
 H122 H 0.40262 0.00378 0.94418
 H123 H 0.56581 -0.06926 1.00615
 H124 H 0.63405 0.06552 0.99026
 C125 C 1.02864 0.51568 1.02840
 C126 C 1.04149 0.46546 1.06318
 C127 C 1.09484 0.49261 1.11010
 C128 C 1.13692 0.57107 1.12377
 C129 C 1.12373 0.62112 1.08836
 C130 C 1.07057 0.59376 1.04144
 C131 C 0.97163 0.48695 0.97872
 C132 C 0.92487 0.51874 0.96852
 C133 C 0.87218 0.49289 0.92125
 C134 C 0.86472 0.43437 0.88309
 C135 C 0.91093 0.40200 0.89362
 C136 C 0.96386 0.42808 0.94084
 H137 H 1.10249 0.45156 1.13576
 H138 H 1.15461 0.68191 1.09646
 H139 H 0.83709 0.51870 0.91478
 H140 H 0.90676 0.35693 0.86503
 H141 H 1.06298 0.63412 1.01483
 H142 H 0.92845 0.56322 0.99750
 H143 H 1.00941 0.40483 1.05471
 H144 H 0.99965 0.40302 0.94704
 C145 C 0.47869 0.50759 1.02436
 C146 C 0.41469 0.45686 1.05842
 C147 C 0.38784 0.48351 1.10481
 C148 C 0.42532 0.56123 1.11915
 C149 C 0.48944 0.61200 1.08567
 C150 C 0.51531 0.58565 1.03842
 C151 C 0.50717 0.47932 0.97458
 C152 C 0.58560 0.51566 0.96115
 C153 C 0.61218 0.48992 0.91396
 C154 C 0.56126 0.42624 0.87990
 C155 C 0.48316 0.38907 0.89359
 C156 C 0.45629 0.41579 0.93993
 H157 H 0.33862 0.44308 1.13032
 H158 H 0.51883 0.67239 1.09538
 H159 H 0.67285 0.51906 0.90476
 H160 H 0.44261 0.34020 0.86763
 H161 H 0.56352 0.62681 1.01249
 H162 H 0.62688 0.56350 0.98755
 H163 H 0.38583 0.39627 1.04998
 H164 H 0.39543 0.38717 0.94787
   
