data_POSCAR
  _audit_creation_date              2014-09-24
  _audit_creation_method            'ToBaCCo'
  _symmetry_space_group_name_H-M    'P1'
  _symmetry_Int_Tables_number       1
  _symmetry_cell_setting            triclinic
  loop_
  _symmetry_equiv_pos_as_xyz
 x,y,z
_cell_length_a 42.1908
_cell_length_b 42.3624
_cell_length_c 42.2118
_cell_angle_alpha 102.424000
_cell_angle_beta 66.836100
_cell_angle_gamma 77.813800
loop_
  _atom_site_label
  _atom_site_type_symbol
  _atom_site_fract_x
  _atom_site_fract_y
  _atom_site_fract_z
C1 C 0.50775 0.49337 -0.00168
 C2 C 0.48404 0.51822 -0.00497
 C3 C 0.45117 0.51397 -0.00823
 C4 C 0.48895 0.55195 -0.00415
 C5 C 0.54031 0.49823 0.00196
 C6 C 0.50260 0.45986 -0.00097
 C7 C 0.45332 0.48576 -0.03454
 C8 C 0.42190 0.48284 -0.03718
 C9 C 0.38760 0.50859 -0.01413
 C10 C 0.38601 0.53704 0.01180
 C11 C 0.41724 0.53954 0.01471
 C12 C 0.49692 0.56154 -0.03547
 C13 C 0.50033 0.59372 -0.03481
 C14 C 0.49475 0.61724 -0.00248
 C15 C 0.48654 0.60764 0.02897
 C16 C 0.48397 0.57509 0.02805
 C17 C 0.54682 0.49050 0.03004
 C18 C 0.57837 0.49247 0.03264
 C19 C 0.60396 0.50261 0.00743
 C20 C 0.59731 0.51079 -0.02043
 C21 C 0.56607 0.50809 -0.02349
 C22 C 0.47081 0.45767 0.02547
 C23 C 0.46792 0.42569 0.02721
 C24 C 0.49700 0.39543 0.00288
 C25 C 0.52857 0.39786 -0.02373
 C26 C 0.53131 0.42969 -0.02557
 H27 H 0.47936 0.46609 -0.05323
 H28 H 0.42480 0.46058 -0.05775
 H29 H 0.36057 0.55759 0.03029
 H30 H 0.41481 0.56162 0.03516
 H31 H 0.50057 0.54400 -0.06043
 H32 H 0.50639 0.60053 -0.05934
 H33 H 0.47744 0.56813 0.05254
 H34 H 0.52754 0.48259 0.04985
 H35 H 0.58270 0.48611 0.05446
 H36 H 0.61682 0.51824 -0.04053
 H37 H 0.56243 0.51300 -0.04617
 H38 H 0.44861 0.48069 0.04518
 H39 H 0.44330 0.42472 0.04814
 H40 H 0.55143 0.37514 -0.04299
 H41 H 0.55614 0.43086 -0.04601
 H42 H 0.48218 0.62526 0.05422
 C43 C -0.00140 0.50644 0.50797
 C44 C -0.00509 0.48163 0.48446
 C45 C -0.00403 0.44781 0.48913
 C46 C -0.00930 0.48613 0.45215
 C47 C -0.00097 0.54002 0.50293
 C48 C 0.00289 0.50149 0.54016
 C49 C 0.02836 0.42470 0.48362
 C50 C 0.02942 0.39212 0.48611
 C51 C -0.00206 0.38246 0.49475
 C52 C -0.03456 0.40594 0.50081
 C53 C -0.03537 0.43816 0.49750
 C54 C 0.01355 0.46100 0.41780
 C55 C 0.00957 0.46374 0.38715
 C56 C -0.01731 0.49180 0.39002
 C57 C -0.04019 0.51712 0.42440
 C58 C -0.03648 0.51411 0.45529
 C59 C -0.02529 0.57011 0.53193
 C60 C -0.02367 0.60201 0.52920
 C61 C 0.00243 0.60455 0.49738
 C62 C 0.02646 0.57435 0.46804
 C63 C 0.02494 0.54232 0.47089
 C64 C -0.02219 0.49142 0.56603
 C65 C -0.01852 0.48858 0.59692
 C66 C 0.00959 0.49683 0.60312
 C67 C 0.03440 0.50721 0.57744
 C68 C 0.03120 0.50931 0.54621
 H69 H 0.05287 0.43171 0.47678
 H70 H 0.05480 0.37452 0.48137
 H71 H -0.05914 0.39909 0.50720
 H72 H -0.06049 0.45568 0.50156
 H73 H 0.03465 0.43915 0.41465
 H74 H 0.02777 0.44386 0.36110
 H75 H -0.05503 0.53342 0.48165
 H76 H -0.04533 0.56885 0.55694
 H77 H -0.04270 0.62467 0.55227
 H78 H 0.04699 0.57540 0.44322
 H79 H 0.04443 0.51935 0.44847
 H80 H -0.04504 0.48645 0.56276
 H81 H -0.03833 0.48096 0.61653
 H82 H 0.05638 0.51364 0.58143
 H83 H 0.05071 0.51739 0.52683
 H84 H -0.06136 0.53889 0.42755
 C85 C 0.51874 0.00063 0.49016
 C86 C 0.48994 -0.00087 0.51904
 C87 C 0.48999 0.00035 0.55459
 C88 C 0.45646 -0.00397 0.51649
 C89 C 0.51609 0.00363 0.45671
 C90 C 0.55436 -0.00061 0.49005
 C91 C 0.47761 -0.02266 0.57177
 C92 C 0.47634 -0.02145 0.60556
 C93 C 0.48808 0.00248 0.62286
 C94 C 0.50040 0.02564 0.60559
 C95 C 0.50064 0.02500 0.57223
 C96 C 0.45855 -0.03029 0.48829
 C97 C 0.42686 -0.03296 0.48635
 C98 C 0.39243 -0.00980 0.51303
 C99 C 0.39042 0.01610 0.54161
 C100 C 0.42212 0.01899 0.54327
 C101 C 0.48786 0.02985 0.45888
 C102 C 0.48586 0.03245 0.42722
 C103 C 0.51250 0.00930 0.39273
 C104 C 0.54109 -0.01652 0.39064
 C105 C 0.54282 -0.01933 0.42231
 C106 C 0.57157 0.02241 0.47771
 C107 C 0.60541 0.02119 0.47632
 C108 C 0.62273 -0.00276 0.48791
 C109 C 0.60543 -0.02595 0.50016
 C110 C 0.57202 -0.02530 0.50051
 H111 H 0.46896 -0.04176 0.55893
 H112 H 0.46666 -0.03977 0.61772
 H113 H 0.50924 0.04477 0.61808
 H114 H 0.50914 0.04381 0.56021
 H115 H 0.48472 -0.04879 0.46782
 H116 H 0.42932 -0.05340 0.46420
 H117 H 0.41990 0.03932 0.56540
 H118 H 0.46743 0.04836 0.48509
 H119 H 0.46369 0.05282 0.42974
 H120 H 0.56202 -0.03479 0.36454
 H121 H 0.56496 -0.03959 0.42002
 H122 H 0.55870 0.04152 0.46918
 H123 H 0.61760 0.03953 0.46669
 H124 H 0.61794 -0.04510 0.50888
 H125 H 0.55997 -0.04412 0.50897
 H126 H 0.36435 0.03438 0.56258
 O127 O 0.46183 0.01294 -0.01855
 O128 O 0.46496 0.02379 0.06918
 O129 O 0.46249 0.06274 0.02948
 O130 O 0.46359 -0.02576 0.02196
 O131 O 0.52375 -0.04438 -0.00950
 O132 O 0.52282 0.04450 0.00133
 O133 O 0.52523 0.00384 0.03940
 O134 O 0.52207 -0.00336 -0.04749
 Cu135 Cu 0.45713 0.02023 0.02842
 Cu136 Cu 0.52953 -0.00177 -0.00698
 C137 C 0.49148 0.00372 -0.04783
 C138 C 0.49573 0.01517 0.06907
 C139 C 0.49251 0.06866 0.01666
 C140 C 0.49382 -0.05010 0.00501
 O141 O -0.05730 0.52963 1.01440
 O142 O 0.03554 0.52728 0.99784
 O143 O 0.00038 0.52660 0.95881
 O144 O -0.02194 0.52945 1.05353
 O145 O -0.00244 0.47291 1.03478
 O146 O 0.01670 0.47015 0.94132
 O147 O 0.05436 0.47074 0.97821
 O148 O -0.03985 0.47319 0.99807
 Cu149 Cu -0.01262 0.53391 1.00801
 Cu150 Cu 0.00909 0.46608 0.98629
 C151 C -0.06434 0.50187 1.00874
 C152 C 0.06073 0.49876 0.98535
 C153 C 0.01142 0.49784 0.93420
 C154 C -0.01534 0.50151 1.06005
 O155 O 0.02899 -0.06284 0.46264
 O156 O 0.02199 0.02556 0.46371
 O157 O 0.06891 -0.02400 0.46515
 O158 O -0.01873 -0.01305 0.46188
 O159 O -0.04774 0.00340 0.52215
 O160 O 0.03908 -0.00389 0.52545
 O161 O -0.00952 0.04433 0.52389
 O162 O 0.00078 -0.04444 0.52299
 Cu163 Cu 0.02820 -0.02039 0.45725
 Cu164 Cu -0.00728 0.00180 0.52969
 C165 C 0.01606 -0.06866 0.49267
 C166 C 0.00510 0.04995 0.49395
 C167 C 0.06877 -0.01533 0.49596
 C168 C -0.04804 -0.00374 0.49153
 C169 C -0.29955 0.50485 1.01338
 N170 N -0.31328 0.52485 0.99752
 N171 N -0.34391 0.52416 0.99556
 C172 C -0.36217 0.50369 1.00973
 N173 N -0.34848 0.48385 1.02578
 N174 N -0.31768 0.48429 1.02742
 C175 C -0.26543 0.50510 1.01494
 N176 N -0.24713 0.47982 1.02262
 N177 N -0.21579 0.47966 1.02331
 C178 C -0.20181 0.50500 1.01674
 N179 N -0.22025 0.53041 1.00934
 N180 N -0.25140 0.53039 1.00831
 C181 C -0.16684 0.50453 1.01660
 N182 N -0.15644 0.53277 1.01710
 N183 N -0.12416 0.53208 1.01557
 C184 C -0.10094 0.50306 1.01321
 N185 N -0.11134 0.47481 1.01281
 N186 N -0.14381 0.47560 1.01468
 C187 C 0.29519 0.50290 0.97859
 N188 N 0.29452 0.53067 1.00219
 N189 N 0.32467 0.53234 1.00456
 C190 C 0.35701 0.50645 0.98330
 N191 N 0.35756 0.47862 0.95953
 N192 N 0.32725 0.47682 0.95732
 C193 C 0.26146 0.50154 0.97661
 N194 N 0.25936 0.47212 0.95824
 N195 N 0.22818 0.47120 0.95762
 C196 C 0.19811 0.49973 0.97512
 N197 N 0.20038 0.52912 0.99319
 N198 N 0.23140 0.52998 0.99401
 C199 C 0.16319 0.49908 0.97568
 N200 N 0.13483 0.52871 0.99017
 N201 N 0.10252 0.52849 0.99243
 C202 C 0.09723 0.49862 0.98043
 N203 N 0.12563 0.46891 0.96572
 N204 N 0.15808 0.46914 0.96329
 C205 C 0.01040 -0.29907 0.49352
 N206 N 0.02974 -0.32711 0.46296
 N207 N 0.02717 -0.35775 0.46402
 C208 C 0.00504 -0.36146 0.49563
 N209 N -0.01431 -0.33330 0.52607
 N210 N -0.01167 -0.30275 0.52505
 C211 C 0.01309 -0.26520 0.49286
 N212 N -0.00444 -0.23806 0.52429
 N213 N -0.00248 -0.20716 0.52404
 C214 C 0.01703 -0.20220 0.49233
 N215 N 0.03464 -0.22934 0.46084
 N216 N 0.03277 -0.26033 0.46111
 C217 C 0.01819 -0.16782 0.49225
 N218 N 0.03481 -0.16178 0.46043
 N219 N 0.03462 -0.13024 0.46053
 C220 C 0.01792 -0.10368 0.49246
 N221 N 0.00155 -0.10980 0.52426
 N222 N 0.00167 -0.14128 0.52414
 C223 C 0.00048 0.28365 0.49755
 N224 N 0.03133 0.28943 0.47703
 N225 N 0.03067 0.32092 0.47663
 C226 C -0.00094 0.34778 0.49646
 N227 N -0.03177 0.34194 0.51698
 N228 N -0.03104 0.31051 0.51767
 C229 C 0.00100 0.24885 0.49735
 N230 N -0.02719 0.24368 0.52319
 N231 N -0.02688 0.21207 0.52274
 C232 C 0.00143 0.18447 0.49618
 N233 N 0.02954 0.18964 0.47027
 N234 N 0.02941 0.22126 0.47094
 C235 C 0.00175 0.14960 0.49546
 N236 N 0.02529 0.12237 0.46503
 N237 N 0.02590 0.09067 0.46440
 C238 C 0.00320 0.08502 0.49429
 N239 N -0.02031 0.11223 0.52477
 N240 N -0.02118 0.14398 0.52527
 C241 C 0.48684 0.00375 -0.27861
 N242 N 0.50275 0.02328 -0.29704
 N243 N 0.50285 0.02315 -0.32867
 C244 C 0.48747 0.00313 -0.34342
 N245 N 0.47168 -0.01648 -0.32484
 N246 N 0.47118 -0.01603 -0.29300
 C247 C 0.48704 0.00363 -0.24397
 N248 N 0.46318 -0.00769 -0.22055
 N249 N 0.46355 -0.00796 -0.18919
 C250 C 0.48813 0.00263 -0.18038
 N251 N 0.51208 0.01378 -0.20388
 N252 N 0.51141 0.01446 -0.23502
 C253 C 0.48900 0.00205 -0.14611
 N254 N 0.51921 0.00295 -0.14215
 N255 N 0.52009 0.00284 -0.11099
 C256 C 0.49067 0.00219 -0.08252
 N257 N 0.46036 0.00138 -0.08640
 N258 N 0.45964 0.00106 -0.11776
 C259 C 0.50735 0.01632 0.29709
 N260 N 0.47818 0.03399 0.33030
 N261 N 0.47985 0.03194 0.36071
 C262 C 0.51066 0.01201 0.35906
 N263 N 0.53978 -0.00562 0.32576
 N264 N 0.53819 -0.00346 0.29538
 C265 C 0.50557 0.01807 0.26346
 N266 N 0.53580 0.00263 0.23064
 N267 N 0.53421 0.00355 0.19995
 C268 C 0.50230 0.01982 0.20093
 N269 N 0.47205 0.03533 0.23376
 N270 N 0.47367 0.03453 0.26449
 C271 C 0.50053 0.01982 0.16690
 N272 N 0.46805 0.03249 0.16711
 N273 N 0.46648 0.03136 0.13597
 C274 C 0.49737 0.01765 0.10355
 N275 N 0.52985 0.00521 0.10339
 N276 N 0.53139 0.00622 0.13448
 C277 C 0.49750 -0.28394 -0.00010
 N278 N 0.51736 -0.31082 -0.03169
 N279 N 0.51669 -0.34225 -0.03238
 C280 C 0.49646 -0.34808 -0.00143
 N281 N 0.47690 -0.32119 0.03024
 N282 N 0.47728 -0.28970 0.03085
 C283 C 0.49728 -0.24913 0.00041
 N284 N 0.47099 -0.22154 0.02894
 N285 N 0.47030 -0.18992 0.02910
 C286 C 0.49607 -0.18473 0.00090
 N287 N 0.52250 -0.21231 -0.02754
 N288 N 0.52297 -0.24394 -0.02788
 C289 C 0.49534 -0.14983 0.00129
 N290 N 0.52511 -0.14415 -0.02165
 N291 N 0.52460 -0.11238 -0.02068
 C292 C 0.49416 -0.08520 0.00295
 N293 N 0.46431 -0.09093 0.02565
 N294 N 0.46494 -0.12265 0.02494
 C295 C 0.49322 0.29916 0.01129
 N296 N 0.52466 0.30281 -0.01106
 N297 N 0.52564 0.33333 -0.01382
 C298 C 0.49527 0.36148 0.00569
 N299 N 0.46376 0.35780 0.02811
 N300 N 0.46272 0.32719 0.03080
 C301 C 0.49259 0.26531 0.01406
 N302 N 0.46088 0.26039 0.03387
 N303 N 0.46064 0.22941 0.03575
 C304 C 0.49211 0.20231 0.01802
 N305 N 0.52377 0.20731 -0.00162
 N306 N 0.52400 0.23821 -0.00359
 C307 C 0.49204 0.16792 0.01914
 N308 N 0.52393 0.14143 0.00253
 N309 N 0.52406 0.10993 0.00232
 C310 C 0.49229 0.10372 0.01868
 N311 N 0.46037 0.13023 0.03546
 N312 N 0.46025 0.16178 0.03575
 C313 C -0.27870 -0.00396 0.48657
 N314 N -0.29307 0.01582 0.47100
 N315 N -0.32492 0.01623 0.47152
 C316 C -0.34352 -0.00340 0.48724
 N317 N -0.32879 -0.02342 0.50252
 N318 N -0.29715 -0.02353 0.50241
 C319 C -0.24407 -0.00379 0.48680
 N320 N -0.23518 -0.01457 0.51116
 N321 N -0.20406 -0.01385 0.51187
 C322 C -0.18052 -0.00269 0.48797
 N323 N -0.18926 0.00786 0.46340
 N324 N -0.22062 0.00753 0.46299
 C325 C -0.14628 -0.00206 0.48890
 N326 N -0.11786 -0.00114 0.45956
 N327 N -0.08651 -0.00145 0.46033
 C328 C -0.08271 -0.00218 0.49067
 N329 N -0.11124 -0.00277 0.52008
 N330 N -0.14239 -0.00288 0.51915
 C331 C 0.29676 -0.01694 0.50791
 N332 N 0.29510 0.00289 0.53877
 N333 N 0.32549 0.00508 0.54037
 C334 C 0.35875 -0.01257 0.51122
 N335 N 0.36036 -0.03254 0.48038
 N336 N 0.32994 -0.03462 0.47872
 C337 C 0.26313 -0.01867 0.50610
 N338 N 0.26414 -0.03516 0.47416
 N339 N 0.23340 -0.03592 0.47250
 C340 C 0.20059 -0.02035 0.50276
 N341 N 0.19963 -0.00405 0.53471
 N342 N 0.23032 -0.00318 0.53634
 C343 C 0.16656 -0.02026 0.50093
 N344 N 0.13414 -0.00655 0.53178
 N345 N 0.10305 -0.00545 0.53018
 C346 C 0.10322 -0.01790 0.49766
 N347 N 0.13565 -0.03172 0.46679
 N348 N 0.16679 -0.03294 0.46840
 C349 C -0.02713 0.49747 1.29600
 N350 N -0.04301 0.52565 1.32639
 N351 N -0.04026 0.52392 1.35645
 C352 C -0.02133 0.49403 1.35715
 N353 N -0.00559 0.46596 1.32671
 N354 N -0.00849 0.46762 1.29681
 C355 C -0.02909 0.49895 1.26233
 N356 N -0.01560 0.46976 1.23356
 N357 N -0.01595 0.47071 1.20239
 C358 C -0.02969 0.50090 1.19870
 N359 N -0.04338 0.53018 1.22751
 N360 N -0.04316 0.52921 1.25883
 C361 C -0.02821 0.50155 1.16348
 N362 N -0.03792 0.53159 1.15754
 N363 N -0.03455 0.53173 1.12479
 C364 C -0.02146 0.50184 1.09689
 N365 N -0.01212 0.47190 1.10299
 N366 N -0.01541 0.47176 1.13563
 C367 C 0.01711 0.49423 0.69875
 N368 N 0.03071 0.51503 0.68077
 N369 N 0.02860 0.51558 0.65021
 C370 C 0.01250 0.49560 0.63664
 N371 N -0.00121 0.47486 0.65474
 N372 N 0.00121 0.47407 0.68512
 C373 C 0.01903 0.49393 0.73267
 N374 N 0.01275 0.46848 0.74648
 N375 N 0.01391 0.46849 0.77756
 C376 C 0.02108 0.49410 0.79616
 N377 N 0.02732 0.51959 0.78238
 N378 N 0.02651 0.51940 0.75109
 C379 C 0.02083 0.49469 0.83117
 N380 N 0.01847 0.52379 0.85445
 N381 N 0.01620 0.52472 0.88707
 C382 C 0.01664 0.49646 0.89737
 N383 N 0.01948 0.46727 0.87389
 N384 N 0.02140 0.46643 0.84145
   
