data_POSCAR
  _audit_creation_date              2014-09-24
  _audit_creation_method            'ToBaCCo'
  _symmetry_space_group_name_H-M    'P1'
  _symmetry_Int_Tables_number       1
  _symmetry_cell_setting            triclinic
  loop_
  _symmetry_equiv_pos_as_xyz
 x,y,z
_cell_length_a 20.7581
_cell_length_b 20.6081
_cell_length_c 53.4041
_cell_angle_alpha 87.864300
_cell_angle_beta 90.163500
_cell_angle_gamma 120.084900
loop_
  _atom_site_label
  _atom_site_type_symbol
  _atom_site_fract_x
  _atom_site_fract_y
  _atom_site_fract_z
C1 C -0.00040 0.04031 0.54699
 H2 H 0.01290 -0.00116 0.55404
 C3 C -0.01031 0.08464 0.56390
 H4 H -0.00424 0.07648 0.58373
 C5 C -0.02433 0.10143 0.51286
 H6 H -0.02796 0.10873 0.49284
 C7 C -0.03540 0.14669 0.52918
 H8 H -0.04801 0.18841 0.52156
 N9 N -0.00425 0.05157 0.52191
 C10 C -0.00420 -0.14387 0.51047
 H11 H -0.04366 -0.15899 0.49552
 C12 C -0.00299 -0.20062 0.52515
 H13 H -0.04221 -0.25855 0.52133
 C14 C 0.09359 -0.05058 0.53367
 H15 H 0.13047 0.00817 0.53705
 C16 C 0.09619 -0.10569 0.54905
 H17 H 0.13550 -0.08867 0.56418
 Zn18 Zn 0.02631 0.00376 0.49872
 N19 N 0.04129 -0.07051 0.51564
 C20 C 0.15050 0.05772 0.46506
 N21 N 0.11694 0.07786 0.48254
 C22 C 0.14502 0.15126 0.48779
 C23 C 0.20405 0.20786 0.47357
 C24 C 0.20919 0.11266 0.45010
 C25 C -0.12144 -0.08980 0.48358
 C26 C -0.17756 -0.13555 0.46726
 C27 C -0.08694 -0.08448 0.43327
 C28 C -0.03334 -0.03878 0.45012
 N29 N -0.05041 -0.04435 0.47494
 H30 H 0.12896 -0.00106 0.46176
 H31 H 0.12027 0.16664 0.50247
 H32 H 0.22285 0.26585 0.47738
 H33 H 0.23225 0.09546 0.43531
 H34 H -0.13381 -0.09295 0.50340
 H35 H -0.23297 -0.17270 0.47493
 H36 H -0.07017 -0.08003 0.41380
 H37 H 0.02245 -0.00093 0.44329
 C38 C 0.04560 -0.18194 0.54538
 C39 C -0.02584 0.14022 0.55502
 C40 C -0.16022 -0.13570 0.44174
 C41 C 0.23493 0.18900 0.45373
 C42 C 1.14219 0.09708 0.13196
 H43 H 1.14359 0.15003 0.13331
 C44 C 1.19225 0.09206 0.11601
 H45 H 1.23209 0.14156 0.10517
 C46 C 1.08836 -0.03123 0.14472
 H47 H 1.04839 -0.07879 0.15617
 C48 C 1.13847 -0.03855 0.12919
 H49 H 1.13572 -0.09233 0.12851
 N50 N 1.09002 0.03556 0.14529
 C51 C 0.90833 0.08136 0.15389
 H52 H 0.90190 0.07840 0.17406
 C53 C 0.85303 0.08079 0.13869
 H54 H 0.80476 0.07856 0.14730
 C55 C 0.97583 0.08156 0.11816
 H56 H 1.02118 0.07766 0.11006
 C57 C 0.92305 0.08294 0.10233
 H58 H 0.92984 0.08154 0.08229
 Zn59 Zn 1.02525 0.05424 0.16475
 N60 N 0.96709 0.07943 0.14347
 C61 C 1.09443 0.20038 0.18660
 N62 N 1.08802 0.13149 0.18585
 C63 C 1.12850 0.11165 0.20099
 C64 C 1.17668 0.16099 0.21825
 C65 C 1.14305 0.25231 0.20357
 C66 C 0.91315 -0.09871 0.17675
 C67 C 0.85553 -0.15477 0.19186
 C68 C 0.88581 -0.06431 0.22379
 C69 C 0.94383 -0.01107 0.20855
 N70 N 0.95651 -0.02862 0.18545
 H71 H 1.06181 0.21481 0.17421
 H72 H 1.12240 0.05655 0.19980
 H73 H 1.20782 0.14332 0.23018
 H74 H 1.14753 0.30687 0.20419
 H75 H 0.92155 -0.11050 0.15786
 H76 H 0.82084 -0.21023 0.18479
 H77 H 0.87569 -0.04869 0.24189
 H78 H 0.97629 0.04555 0.21477
 C79 C 0.85930 0.07973 0.11256
 C80 C 1.19026 0.02341 0.11422
 C81 C 0.84074 -0.13685 0.21544
 C82 C 1.18437 0.23230 0.21983
 C83 C 0.04756 0.90709 0.86791
 H84 H -0.00754 0.85805 0.86793
 C85 C 0.10222 0.90641 0.88282
 H86 H 0.08820 0.85655 0.89433
 C87 C 0.13140 1.03096 0.85266
 H88 H 0.14342 1.07835 0.84028
 C89 C 0.18801 1.03307 0.86765
 H90 H 0.24250 1.08311 0.86706
 N91 N 0.06216 0.96900 0.85357
 C92 C -0.17424 0.89509 0.85282
 H93 H -0.19064 0.87372 0.83429
 C94 C -0.22744 0.89235 0.86962
 H95 H -0.28482 0.86729 0.86387
 C96 C -0.07864 0.95857 0.88199
 H97 H -0.02019 0.98726 0.88641
 C98 C -0.12926 0.95798 0.89910
 H99 H -0.10839 0.98457 0.91674
 Zn100 Zn -0.02372 0.95268 0.83576
 N101 N -0.10138 0.92809 0.85928
 C102 C -0.09826 0.80343 0.81563
 N103 N -0.04159 0.87588 0.81390
 C104 C 0.01218 0.89994 0.79579
 C105 C 0.01043 0.85102 0.77825
 C106 C -0.10194 0.75193 0.79840
 C107 C 0.03056 1.10854 0.81961
 C108 C 0.02733 1.16314 0.80405
 C109 C -0.07449 1.06400 0.78223
 C110 C -0.06816 1.01174 0.79768
 N111 N -0.01576 1.03433 0.81573
 H112 H -0.13966 0.78532 0.83050
 H113 H 0.05700 0.95770 0.79512
 H114 H 0.05432 0.87207 0.76411
 H115 H -0.14698 0.69429 0.80001
 H116 H 0.06847 1.12573 0.83505
 H117 H 0.06476 1.22203 0.80715
 H118 H -0.11648 1.04434 0.76793
 H119 H -0.10601 0.95254 0.79547
 C120 C -0.20481 0.92610 0.89294
 C121 C 0.17337 0.97025 0.88314
 C122 C -0.02612 1.14076 0.78518
 C123 C -0.04688 0.77576 0.77940
 C124 C 0.28255 -0.04570 -0.01347
 C125 C 0.28323 -0.03943 0.01202
 C126 C 0.35430 -0.02020 0.01961
 N127 N 0.39687 -0.01492 -0.00034
 C128 C 0.35295 -0.03112 -0.02058
 C129 C 0.38050 -0.00162 0.04421
 C130 C 0.45293 0.01664 0.05134
 C131 C 0.48934 0.05772 0.07193
 C132 C 0.55823 0.06328 0.07228
 C133 C 0.56126 0.02399 0.05219
 N134 N 0.49671 -0.00427 0.03955
 C135 C 0.62050 0.01125 0.04666
 C136 C 0.62439 -0.02045 0.02414
 C137 C 0.66567 -0.05538 0.02060
 C138 C 0.65910 -0.07293 -0.00413
 C139 C 0.61492 -0.04709 -0.01498
 N140 N 0.59322 -0.01557 0.00242
 C141 C 0.60109 -0.04608 -0.04092
 C142 C 0.54561 -0.03127 -0.05019
 C143 C 0.54030 -0.01082 -0.07482
 C144 C 0.47705 -0.00510 -0.07604
 C145 C 0.44580 -0.02157 -0.05209
 N146 N 0.48769 -0.03789 -0.03651
 C147 C 0.37731 -0.02695 -0.04558
 H148 H 0.23574 -0.05844 -0.02537
 H149 H 0.23716 -0.04650 0.02354
 H150 H 0.47338 -0.06028 -0.01826
 H151 H 0.46890 0.08226 0.08506
 H152 H 0.60088 0.09297 0.08585
 H153 H 0.69686 -0.06741 0.03444
 H154 H 0.68437 -0.10121 -0.01305
 H155 H 0.45627 0.00909 -0.09273
 H156 H 0.48035 -0.04187 0.02519
 H157 H 0.57797 -0.00072 -0.09034
 C158 C -0.08200 0.24196 0.68295
 C159 C -0.08018 0.24198 0.65732
 C160 C -0.05146 0.31583 0.64873
 N161 N -0.03732 0.36058 0.66832
 C162 C -0.05635 0.31550 0.68929
 C163 C -0.03244 0.34182 0.62345
 C164 C -0.01033 0.41636 0.61536
 C165 C 0.02789 0.45112 0.59314
 C166 C 0.03718 0.52212 0.59205
 C167 C 0.00418 0.52880 0.61360
 N168 N -0.02481 0.46400 0.62768
 C169 C -0.00191 0.59214 0.61911
 C170 C -0.02343 0.60277 0.64299
 C171 C -0.04562 0.65429 0.64794
 C172 C -0.05760 0.64992 0.67333
 C173 C -0.04187 0.59623 0.68310
 N174 N -0.02110 0.56736 0.66450
 C175 C -0.04166 0.57856 0.70892
 C176 C -0.03288 0.51817 0.71792
 C177 C -0.01287 0.50981 0.74210
 C178 C -0.01265 0.44316 0.74344
 C179 C -0.03244 0.41260 0.72001
 N180 N -0.04528 0.45848 0.70466
 C181 C -0.04439 0.34119 0.71399
 H182 H -0.10001 0.19296 0.69529
 H183 H -0.09725 0.19300 0.64639
 H184 H -0.06891 0.44617 0.68704
 H185 H 0.04786 0.42819 0.57923
 H186 H 0.06521 0.56403 0.57709
 H187 H -0.05293 0.69091 0.63464
 H188 H -0.07560 0.68280 0.68342
 H189 H -0.00062 0.41951 0.75999
 H190 H -0.05907 0.45030 0.64348
 H191 H 0.00026 0.54772 0.75725
 C192 C 0.67711 0.76529 0.31631
 C193 C 0.67947 0.76519 0.34192
 C194 C 0.63744 0.69100 0.35049
 N195 N 0.60778 0.64604 0.33089
 C196 C 0.63165 0.69135 0.30993
 C197 C 0.63286 0.66501 0.37571
 C198 C 0.58159 0.59018 0.38379
 C199 C 0.58667 0.55493 0.40573
 C200 C 0.52505 0.48404 0.40696
 C201 C 0.48397 0.47785 0.38575
 N202 N 0.51876 0.54283 0.37175
 C203 C 0.41435 0.41473 0.38045
 C204 C 0.38124 0.40422 0.35668
 C205 C 0.30764 0.35247 0.35187
 C206 C 0.29908 0.35681 0.32651
 C207 C 0.36778 0.41085 0.31663
 N208 N 0.41795 0.43986 0.33512
 C209 C 0.38459 0.42862 0.29080
 C210 C 0.45316 0.48880 0.28164
 C211 C 0.48046 0.49690 0.25737
 C212 C 0.54716 0.56334 0.25588
 C213 C 0.55885 0.59408 0.27930
 N214 N 0.50082 0.54848 0.29480
 C215 C 0.61821 0.66552 0.28522
 H216 H 0.70590 0.81480 0.30409
 H217 H 0.70959 0.81451 0.35285
 H218 H 0.49018 0.56094 0.31246
 H219 H 0.63055 0.57737 0.41933
 H220 H 0.51216 0.44183 0.42178
 H221 H 0.26444 0.31554 0.36522
 H222 H 0.24815 0.32359 0.31649
 H223 H 0.58188 0.58677 0.23920
 H224 H 0.49714 0.55687 0.35623
 H225 H 0.45502 0.45899 0.24226
 N226 N 0.00316 0.20118 0.59547
 C227 C -0.02820 0.19289 0.57261
 N228 N -0.05962 0.23517 0.56618
 N229 N -0.06073 0.28278 0.58220
 C230 C -0.02992 0.29036 0.60517
 N231 N 0.00254 0.24904 0.61137
 N232 N 0.73419 0.83006 0.24321
 C233 C 0.77768 0.80844 0.23134
 N234 N 0.76582 0.73812 0.23614
 N235 N 0.71363 0.69193 0.25278
 C236 C 0.67098 0.71412 0.26498
 N237 N 0.68143 0.78358 0.25955
 N238 N 0.21705 -0.09342 -0.08729
 C239 C 0.23015 -0.02920 -0.09982
 N240 N 0.29409 0.03554 -0.09525
 N241 N 0.34216 0.03606 -0.07851
 C242 C 0.32819 -0.02820 -0.06585
 N243 N 0.26504 -0.09299 -0.07064
 N244 N 0.07477 0.77704 0.58577
 C245 C 0.03897 0.75875 0.56358
 N246 N -0.00815 0.68503 0.55939
 N247 N -0.01971 0.63195 0.57673
 C248 C 0.01519 0.65052 0.59904
 N249 N 0.06312 0.72401 0.60314
 N250 N 0.26099 0.25771 0.25735
 C251 C 0.23514 0.28412 0.23851
 N252 N 0.25799 0.35858 0.23707
 N253 N 0.30519 0.40465 0.25375
 C254 C 0.33082 0.37783 0.27255
 N255 N 0.30779 0.30354 0.27404
 N256 N 0.67114 -0.10185 -0.09524
 C257 C 0.74530 -0.06855 -0.09061
 N258 N 0.77111 -0.02761 -0.06981
 N259 N 0.72537 -0.02019 -0.05436
 C260 C 0.65138 -0.05400 -0.05880
 N261 N 0.62505 -0.09503 -0.07959
 N262 N 0.27202 0.06759 0.07674
 C263 C 0.24086 0.01702 0.09634
 N264 N 0.25651 -0.03948 0.09886
 N265 N 0.30163 -0.04498 0.08244
 C266 C 0.33215 0.00542 0.06280
 N267 N 0.31660 0.06180 0.06023
 N268 N 0.71677 0.76845 0.43333
 C269 C 0.78880 0.81563 0.42588
 N270 N 0.80895 0.81138 0.40206
 N271 N 0.75986 0.76288 0.38646
 C272 C 0.68786 0.71688 0.39376
 N273 N 0.66727 0.72046 0.41757
 N274 N 0.02853 0.26416 0.76262
 C275 C -0.03196 0.19602 0.76835
 N276 N -0.09737 0.17755 0.75707
 N277 N -0.10201 0.22469 0.74043
 C278 C -0.04116 0.29194 0.73425
 N279 N 0.02406 0.31112 0.74579
 N280 N 0.72627 0.03496 0.10497
 C281 C 0.79752 0.06841 0.09601
 N282 N 0.81014 0.08492 0.07104
 N283 N 0.75399 0.06824 0.05562
 C284 C 0.68269 0.03371 0.06446
 N285 N 0.66991 0.01782 0.08949
 N286 N 0.30618 0.22986 0.41370
 C287 C 0.28859 0.24825 0.43581
 N288 N 0.31575 0.32207 0.44009
 N289 N 0.35768 0.37515 0.42286
 C290 C 0.37387 0.35647 0.40059
 N291 N 0.34794 0.28288 0.39644
 N292 N 0.00280 0.75021 0.74157
 C293 C -0.04731 0.72354 0.76095
 N294 N -0.09610 0.64850 0.76316
 N295 N -0.09459 0.60226 0.74664
 C296 C -0.04439 0.62937 0.72727
 N297 N 0.00427 0.70419 0.72508
   
