data_POSCAR
  _audit_creation_date              2014-09-24
  _audit_creation_method            'ToBaCCo'
  _symmetry_space_group_name_H-M    'P1'
  _symmetry_Int_Tables_number       1
  _symmetry_cell_setting            triclinic
  loop_
  _symmetry_equiv_pos_as_xyz
 x,y,z
_cell_length_a 42.4367
_cell_length_b 42.3562
_cell_length_c 14.9938
_cell_angle_alpha 90.052200
_cell_angle_beta 89.949500
_cell_angle_gamma 120.052000
loop_
  _atom_site_label
  _atom_site_type_symbol
  _atom_site_fract_x
  _atom_site_fract_y
  _atom_site_fract_z
O1 O 0.25636 0.45312 0.59214
 O2 O 0.19426 0.45148 0.41676
 O3 O 0.25593 0.45106 0.41929
 O4 O 0.19513 0.45304 0.59156
 O5 O 0.22549 0.51328 0.58653
 O6 O 0.28563 0.51124 0.41410
 O7 O 0.22370 0.51158 0.41521
 O8 O 0.28705 0.51331 0.58473
 Cu9 Cu 0.22222 0.44608 0.50490
 Cu10 Cu 0.25839 0.51836 0.49942
 C11 C 0.28281 0.48367 0.61672
 C12 C 0.19782 0.48129 0.38746
 C13 C 0.28188 0.48086 0.38953
 C14 C 0.19998 0.48363 0.61796
 O15 O 0.54902 -0.19194 0.59113
 O16 O 0.54777 -0.25313 0.41321
 O17 O 0.54726 -0.19210 0.41620
 O18 O 0.54907 -0.25390 0.58619
 O19 O 0.48903 -0.28403 0.58956
 O20 O 0.48714 -0.22266 0.42068
 O21 O 0.48766 -0.28393 0.41973
 O22 O 0.48903 -0.22161 0.59240
 Cu23 Cu 0.55435 -0.21952 0.50184
 Cu24 Cu 0.48222 -0.25592 0.50645
 C25 C 0.51920 -0.19575 0.62075
 C26 C 0.51735 -0.27951 0.38786
 C27 C 0.51673 -0.19696 0.38966
 C28 C 0.51926 -0.28053 0.61402
 O29 O 1.19573 0.73998 0.58359
 O30 O 1.25601 0.80097 0.40688
 O31 O 1.19577 0.73899 0.40915
 O32 O 1.25678 0.80262 0.57981
 O33 O 1.28790 0.77361 0.58091
 O34 O 1.22689 0.71005 0.41134
 O35 O 1.28772 0.77270 0.41037
 O36 O 1.22652 0.71072 0.58403
 Cu37 Cu 1.22279 0.77340 0.49516
 Cu38 Cu 1.26021 0.73869 0.49721
 C39 C 1.20045 0.71451 0.61291
 C40 C 1.28267 0.79778 0.37953
 C41 C 1.20094 0.71365 0.38116
 C42 C 1.28355 0.79970 0.60685
 O43 O 0.74798 0.55659 0.58090
 O44 O 0.80666 0.55084 0.40724
 O45 O 0.74651 0.55316 0.40701
 O46 O 0.80821 0.55326 0.58068
 O47 O 0.77540 0.49317 0.58714
 O48 O 0.71561 0.49293 0.41051
 O49 O 0.77559 0.49075 0.41598
 O50 O 0.71459 0.49658 0.57990
 Cu51 Cu 0.78058 0.55953 0.49396
 Cu52 Cu 0.74214 0.48733 0.49996
 C53 C 0.72000 0.52740 0.60645
 C54 C 0.80149 0.51982 0.38317
 C55 C 0.72040 0.52290 0.37958
 C56 C 0.80289 0.52300 0.61119
 O57 O 0.44681 0.25443 0.41576
 O58 O 0.44720 0.19249 0.58801
 O59 O 0.44578 0.25351 0.58709
 O60 O 0.44773 0.19323 0.41272
 O61 O 0.50776 0.22467 0.41320
 O62 O 0.50585 0.28316 0.59212
 O63 O 0.50719 0.22201 0.58556
 O64 O 0.50690 0.28623 0.42215
 Cu65 Cu 0.44082 0.21996 0.50068
 Cu66 Cu 0.51295 0.25687 0.50326
 C67 C 0.47690 0.28196 0.39323
 C68 C 0.47728 0.19634 0.61544
 C69 C 0.47554 0.27933 0.61744
 C70 C 0.47810 0.19866 0.38316
 O71 O 0.73802 0.19897 0.41724
 O72 O 0.80096 0.25911 0.59089
 O73 O 0.73861 0.19893 0.59118
 O74 O 0.80057 0.25952 0.41644
 O75 O 0.77186 0.29087 0.41789
 O76 O 0.71053 0.23091 0.59302
 O77 O 0.77347 0.29158 0.58985
 O78 O 0.70895 0.23003 0.42172
 Cu79 Cu 0.77244 0.22599 0.50363
 Cu80 Cu 0.73842 0.26407 0.50570
 C81 C 0.71226 0.20384 0.39143
 C82 C 0.79833 0.28599 0.61930
 C83 C 0.71374 0.20439 0.62120
 C84 C 0.79699 0.28580 0.38800
 N85 N 0.96176 0.53627 0.09645
 N86 N 0.93399 0.54173 0.10749
 N87 N 1.03833 0.55205 0.15644
 N88 N 1.06730 0.56911 0.20777
 N89 N 1.03806 0.57424 0.09574
 N90 N 1.06662 0.60721 0.10494
 N91 N 0.96151 0.51392 0.15747
 N92 N 0.93325 0.50317 0.21100
 C93 C 0.91647 0.52086 0.17918
 C94 C 1.08452 0.60348 0.17514
 N95 N 1.03760 0.46130 0.09785
 N96 N 1.06465 0.45483 0.11089
 N97 N 0.96121 0.44594 0.15858
 N98 N 0.93263 0.42909 0.21136
 N99 N 0.96121 0.42338 0.09845
 N100 N 0.93287 0.39035 0.10961
 N101 N 1.03824 0.48421 0.15786
 N102 N 1.06617 0.49454 0.21230
 Mn103 Mn 0.99983 0.49905 0.15873
 C104 C 1.08228 0.47589 0.18233
 C105 C 0.91535 0.39443 0.18038
 N106 N 1.03783 0.57401 -0.09659
 N107 N 1.06571 0.60726 -0.10832
 N108 N 0.96112 0.51317 -0.15587
 N109 N 0.93425 0.50375 -0.21281
 N110 N 0.96139 0.53592 -0.09603
 N111 N 0.93494 0.54310 -0.11163
 N112 N 1.03811 0.55155 -0.15658
 N113 N 1.06656 0.56877 -0.20984
 Mn114 Mn 0.99974 0.55550 -0.00002
 C115 C 1.08339 0.60352 -0.17914
 C116 C 0.91805 0.52245 -0.18433
 N117 N 0.96097 0.42300 -0.09429
 N118 N 0.93297 0.38977 -0.10507
 N119 N 1.03721 0.48334 -0.15585
 N120 N 1.06508 0.49414 -0.21030
 N121 N 1.03736 0.46114 -0.09504
 N122 N 1.06528 0.45595 -0.10716
 N123 N 0.96054 0.44525 -0.15460
 N124 N 0.93189 0.42797 -0.20698
 Mn125 Mn 0.99930 0.44179 0.00172
 Mn126 Mn 0.99925 0.49831 -0.15673
 Cl127 Cl 0.99954 0.49865 0.00095
 C128 C 0.91511 0.39340 -0.17552
 C129 C 1.08225 0.47674 -0.17958
 N130 N 0.55540 0.51920 0.15571
 N131 N 0.57328 0.50888 0.20902
 N132 N 0.53804 0.57918 0.09470
 N133 N 0.54369 0.61251 0.10837
 N134 N 0.51633 0.55681 0.15618
 N135 N 0.50634 0.57402 0.21257
 N136 N 0.57725 0.54185 0.09477
 N137 N 0.61073 0.54795 0.10571
 C138 C 0.60778 0.52718 0.17733
 C139 C 0.52362 0.60874 0.18239
 N140 N 0.51479 0.55465 -0.15789
 N141 N 0.50450 0.57149 -0.21465
 N142 N 0.57658 0.54075 -0.09804
 N143 N 0.61054 0.54984 -0.11719
 N144 N 0.55399 0.51708 -0.15633
 N145 N 0.57175 0.50897 -0.21561
 N146 N 0.53734 0.57771 -0.09853
 N147 N 0.54366 0.61105 -0.11447
 Mn148 Mn 0.55770 0.56033 -0.00173
 C149 C 0.52264 0.60655 -0.18660
 C150 C 0.60690 0.52939 -0.19025
 N151 N 0.44903 0.48899 0.15795
 N152 N 0.43152 0.49875 0.21408
 N153 N 0.46499 0.42807 0.09983
 N154 N 0.45718 0.39439 0.11829
 N155 N 0.48780 0.45103 0.15885
 N156 N 0.49634 0.43376 0.21849
 N157 N 0.42653 0.46594 0.09854
 N158 N 0.39292 0.45877 0.11374
 Mn159 Mn 0.50218 0.50399 0.15809
 C160 C 0.39664 0.47976 0.18551
 C161 C 0.47730 0.39853 0.19217
 N162 N 0.48675 0.44848 -0.15302
 N163 N 0.49592 0.43019 -0.20846
 N164 N 0.42559 0.46457 -0.09429
 N165 N 0.39223 0.45868 -0.10717
 N166 N 0.44773 0.48643 -0.15589
 N167 N 0.43027 0.49637 -0.21156
 N168 N 0.46404 0.42658 -0.09225
 N169 N 0.45656 0.39269 -0.10557
 Mn170 Mn 0.50085 0.50162 -0.15675
 Mn171 Mn 0.44488 0.44592 0.00296
 Cl172 Cl 0.50143 0.50298 0.00060
 C173 C 0.47700 0.39552 -0.17764
 C174 C 0.39566 0.47877 -0.18083
 N175 N 0.42166 -0.03988 0.09409
 N176 N 0.38857 -0.06814 0.10411
 N177 N 0.48018 0.03752 0.15761
 N178 N 0.49097 0.06635 0.20929
 N179 N 0.45780 0.03659 0.09590
 N180 N 0.45224 0.06445 0.10486
 N181 N 0.44361 -0.03973 0.15594
 N182 N 0.42622 -0.06836 0.20872
 C183 C 0.39192 -0.08570 0.17566
 C184 C 0.47312 0.08269 0.17596
 N185 N 0.57222 0.04070 0.10293
 N186 N 0.60505 0.06884 0.11709
 N187 N 0.51264 -0.03680 0.16032
 N188 N 0.50206 -0.06488 0.21411
 N189 N 0.53596 -0.03579 0.10115
 N190 N 0.54221 -0.06303 0.11389
 N191 N 0.54905 0.03991 0.16223
 N192 N 0.56540 0.06770 0.21778
 Mn193 Mn 0.49635 0.00023 0.16014
 C194 C 0.60035 0.08543 0.18902
 C195 C 0.52082 -0.08089 0.18474
 N196 N 0.45972 0.03729 -0.09638
 N197 N 0.45269 0.06398 -0.10910
 N198 N 0.44727 -0.03790 -0.15734
 N199 N 0.43109 -0.06468 -0.21530
 N200 N 0.42383 -0.03905 -0.09840
 N201 N 0.39082 -0.06641 -0.11560
 N202 N 0.48352 0.03898 -0.15503
 N203 N 0.49387 0.06729 -0.20827
 Mn204 Mn 0.44034 -0.00131 -0.00117
 C205 C 0.47430 0.08248 -0.17890
 C206 C 0.39598 -0.08231 -0.18833
 N207 N 0.53815 -0.03501 -0.09175
 N208 N 0.54472 -0.06213 -0.10299
 N209 N 0.55227 0.04129 -0.15121
 N210 N 0.56933 0.06992 -0.20383
 N211 N 0.57435 0.04156 -0.08956
 N212 N 0.60726 0.07016 -0.09938
 N213 N 0.51580 -0.03582 -0.15341
 N214 N 0.50594 -0.06394 -0.20716
 Mn215 Mn 0.55558 0.00286 0.00574
 Mn216 Mn 0.49974 0.00166 -0.15529
 Cl217 Cl 0.49802 0.00086 0.00236
 C218 C 0.52436 -0.07994 -0.17522
 C219 C 0.60360 0.08758 -0.17094
 C220 C 1.14611 0.44854 0.28534
 C221 C 1.17290 0.48097 0.32523
 C222 C 1.17285 0.51338 0.30223
 C223 C 1.14389 0.51199 0.25287
 C224 C 1.11517 0.47844 0.22220
 C225 C 1.11840 0.44744 0.23367
 C226 C 1.09118 0.41051 0.26743
 C227 C 1.12147 0.41175 0.32418
 H228 H 1.19349 0.53955 0.32809
 H229 H 1.14316 0.53689 0.24211
 H230 H 1.08165 0.38950 0.21402
 H231 H 1.06919 0.41073 0.30733
 H232 H 1.12929 0.39139 0.30352
 H233 H 1.11704 0.41279 0.39700
 C234 C 0.49067 0.65646 0.33717
 C235 C 0.51606 0.69335 0.32442
 C236 C 0.54125 0.70270 0.25394
 C237 C 0.54265 0.67522 0.20343
 C238 C 0.51975 0.63808 0.22486
 C239 C 0.49291 0.62952 0.28977
 C240 C 0.48364 0.60561 0.37025
 C241 C 0.48058 0.63485 0.42159
 H242 H 0.56074 0.73106 0.24047
 H243 H 0.56313 0.68308 0.15190
 H244 H 0.50672 0.60220 0.39285
 H245 H 0.45729 0.57978 0.36369
 H246 H 0.50151 0.64797 0.47468
 H247 H 0.45226 0.62613 0.44277
 C248 C 0.30070 -0.15148 0.27493
 C249 C 0.30696 -0.17761 0.31621
 C250 C 0.33974 -0.17691 0.29387
 C251 C 0.36709 -0.14768 0.24436
 C252 C 0.36176 -0.11932 0.21351
 C253 C 0.32716 -0.12348 0.22353
 C254 C 0.31638 -0.09684 0.25540
 C255 C 0.28746 -0.12745 0.31197
 H256 H 0.34565 -0.19716 0.32044
 H257 H 0.39293 -0.14641 0.23368
 H258 H 0.30479 -0.08799 0.20092
 H259 H 0.33804 -0.07433 0.29547
 H260 H 0.25925 -0.13612 0.29015
 H261 H 0.29244 -0.12266 0.38485
 C262 C 0.84765 0.54577 0.25950
 C263 C 0.82620 0.51723 0.31817
 C264 C 0.83030 0.48616 0.31601
 C265 C 0.85881 0.48650 0.26707
 C266 C 0.88304 0.51751 0.21745
 C267 C 0.87505 0.54564 0.20917
 C268 C 0.89931 0.58589 0.21874
 C269 C 0.86933 0.58601 0.27415
 H270 H 0.81352 0.46280 0.35778
 H271 H 0.86308 0.46342 0.27210
 H272 H 0.90395 0.60030 0.15395
 H273 H 0.92437 0.59324 0.25760
 H274 H 0.85680 0.60058 0.24132
 H275 H 0.87708 0.59339 0.34516
 C276 C 0.44988 0.30386 0.27691
 C277 C 0.47699 0.31108 0.33992
 C278 C 0.50178 0.34777 0.36079
 C279 C 0.50123 0.37613 0.31387
 C280 C 0.47653 0.36850 0.24335
 C281 C 0.45003 0.33201 0.22862
 C282 C 0.43927 0.31042 0.14431
 C283 C 0.43907 0.27964 0.19690
 H284 H 0.52162 0.35457 0.41347
 H285 H 0.52078 0.40399 0.33140
 H286 H 0.46092 0.32224 0.09249
 H287 H 0.41175 0.30389 0.12142
 H288 H 0.46054 0.27351 0.17551
 H289 H 0.41143 0.25540 0.20418
 C290 C 0.64862 0.16900 0.33545
 C291 C 0.68509 0.17821 0.32790
 C292 C 0.69412 0.16030 0.26203
 C293 C 0.66656 0.13132 0.21241
 C294 C 0.62953 0.11907 0.22998
 C295 C 0.62144 0.13980 0.28856
 C296 C 0.59581 0.12822 0.36589
 C297 C 0.62550 0.16035 0.41698
 H298 H 0.72221 0.16747 0.25202
 H299 H 0.67416 0.11695 0.16517
 H300 H 0.58958 0.10135 0.39354
 H301 H 0.57167 0.13112 0.35225
 H302 H 0.63634 0.15212 0.47446
 H303 H 0.61852 0.18184 0.43196
 C304 C 0.44565 0.14534 -0.28032
 C305 C 0.47766 0.17201 -0.32179
 C306 C 0.51037 0.17260 -0.29946
 C307 C 0.50959 0.14406 -0.24957
 C308 C 0.47638 0.11522 -0.21794
 C309 C 0.44516 0.11802 -0.22826
 C310 C 0.40816 0.09033 -0.26029
 C311 C 0.40872 0.12022 -0.31755
 H312 H 0.53624 0.19334 -0.32630
 H313 H 0.53464 0.14363 -0.23949
 H314 H 0.38756 0.08093 -0.20602
 H315 H 0.40831 0.06818 -0.29984
 H316 H 0.38838 0.12794 -0.29633
 H317 H 0.40928 0.11541 -0.39033
 C318 C 0.65808 0.49917 -0.33860
 C319 C 0.69354 0.52903 -0.34108
 C320 C 0.69949 0.56148 -0.29877
 C321 C 0.67166 0.56185 -0.24745
 C322 C 0.63702 0.53029 -0.24093
 C323 C 0.63050 0.50011 -0.29201
 C324 C 0.61344 0.46092 -0.26664
 C325 C 0.64389 0.45990 -0.31774
 H326 H 0.72585 0.58609 -0.30237
 H327 H 0.67722 0.58659 -0.21303
 H328 H 0.58628 0.44427 -0.29822
 H329 H 0.61440 0.45711 -0.19351
 H330 H 0.63420 0.44248 -0.37839
 H331 H 0.66259 0.45554 -0.27426
 C332 C 0.84869 0.30278 -0.27620
 C333 C 0.82314 0.30984 -0.31731
 C334 C 0.82434 0.34284 -0.29418
 C335 C 0.85361 0.36972 -0.24418
 C336 C 0.88136 0.36356 -0.21309
 C337 C 0.87670 0.32873 -0.22394
 C338 C 0.90295 0.31756 -0.25632
 C339 C 0.87233 0.28918 -0.31380
 H340 H 0.80453 0.34934 -0.32073
 H341 H 0.85553 0.39595 -0.23386
 H342 H 0.91139 0.30540 -0.20229
 H343 H 0.92569 0.33928 -0.29570
 H344 H 0.86321 0.26071 -0.29294
 H345 H 0.87732 0.29454 -0.38652
 C346 C 0.55174 -0.14421 -0.27613
 C347 C 0.51941 -0.17104 -0.31624
 C348 C 0.48703 -0.17106 -0.29318
 C349 C 0.48838 -0.14200 -0.24399
 C350 C 0.52185 -0.11315 -0.21344
 C351 C 0.55279 -0.11641 -0.22456
 C352 C 0.58973 -0.08919 -0.25796
 C353 C 0.58856 -0.11956 -0.31462
 H354 H 0.46095 -0.19173 -0.31917
 H355 H 0.46352 -0.14122 -0.23359
 H356 H 0.61059 -0.07967 -0.20434
 H357 H 0.58964 -0.06713 -0.29795
 H358 H 0.60880 -0.12744 -0.29368
 H359 H 0.58770 -0.11511 -0.38746
 C360 C 0.34642 0.51254 -0.32764
 C361 C 0.31000 0.48510 -0.31984
 C362 C 0.30120 0.45821 -0.25384
 C363 C 0.32895 0.45719 -0.20404
 C364 C 0.36592 0.48232 -0.22163
 C365 C 0.37371 0.51088 -0.28081
 C366 C 0.39921 0.52487 -0.35846
 C367 C 0.36941 0.52698 -0.40942
 H368 H 0.27316 0.43710 -0.24369
 H369 H 0.32157 0.43533 -0.15657
 H370 H 0.40546 0.50422 -0.38599
 H371 H 0.42333 0.55204 -0.34526
 H372 H 0.35855 0.50774 -0.46671
 H373 H 0.37628 0.55541 -0.42468
 C374 C 1.15119 0.69586 -0.27134
 C375 C 1.17501 0.68854 -0.32021
 C376 C 1.17247 0.65436 -0.30641
 C377 C 1.14354 0.62699 -0.25632
 C378 C 1.11709 0.63350 -0.21755
 C379 C 1.12326 0.66915 -0.22014
 C380 C 1.09789 0.68270 -0.24319
 C381 C 1.12842 0.71187 -0.29948
 H382 H 1.19105 0.64771 -0.33979
 H383 H 1.14089 0.60029 -0.25145
 H384 H 1.09100 0.69395 -0.18413
 H385 H 1.07415 0.66272 -0.28320
 H386 H 1.13901 0.73990 -0.27288
 H387 H 1.12232 0.70870 -0.37213
 C388 C 0.85504 0.55263 -0.28147
 C389 C 0.83056 0.52215 -0.33133
 C390 C 0.83685 0.49254 -0.33684
 C391 C 0.86531 0.49271 -0.28871
 C392 C 0.88765 0.52211 -0.23228
 C393 C 0.88268 0.55238 -0.23197
 C394 C 0.87731 0.57161 -0.15525
 C395 C 0.84717 0.57196 -0.20914
 H396 H 0.82000 0.46935 -0.37907
 H397 H 0.86931 0.46945 -0.29423
 H398 H 0.90123 0.59926 -0.14482
 H399 H 0.86731 0.55435 -0.09439
 H400 H 0.85375 0.59982 -0.22966
 H401 H 0.81965 0.55497 -0.17950
 C402 C 0.50794 0.33737 -0.29632
 C403 C 0.47514 0.30687 -0.32278
 C404 C 0.44243 0.30630 -0.30184
 C405 C 0.44290 0.33468 -0.25190
 C406 C 0.47605 0.36439 -0.22306
 C407 C 0.50840 0.36562 -0.24749
 C408 C 0.53746 0.36804 -0.18684
 C409 C 0.53739 0.33784 -0.24109
 H410 H 0.41651 0.28405 -0.32424
 H411 H 0.41744 0.33369 -0.23694
 H412 H 0.52770 0.35980 -0.11724
 H413 H 0.56322 0.39435 -0.19267
 H414 H 0.52804 0.31218 -0.20280
 H415 H 0.56285 0.34707 -0.27994
 C416 C 0.69590 0.15781 -0.25664
 C417 C 0.68767 0.17933 -0.31207
 C418 C 0.65248 0.17483 -0.30511
 C419 C 0.62529 0.14593 -0.25487
 C420 C 0.63306 0.12169 -0.20860
 C421 C 0.66935 0.13002 -0.20490
 C422 C 0.68534 0.10605 -0.21941
 C423 C 0.71435 0.13643 -0.27629
 H424 H 0.64506 0.19156 -0.34440
 H425 H 0.59777 0.14130 -0.25655
 H426 H 0.66706 0.08102 -0.25805
 H427 H 0.69629 0.10128 -0.15672
 H428 H 0.71278 0.12894 -0.34792
 H429 H 0.74200 0.14908 -0.24641
 C430 C 1.16535 0.51214 -0.32536
 C431 C 1.17485 0.48511 -0.31733
 C432 C 1.15745 0.45832 -0.25088
 C433 C 1.12852 0.45678 -0.20094
 C434 C 1.11596 0.48125 -0.21914
 C435 C 1.13618 0.50990 -0.27849
 C436 C 1.12398 0.52301 -0.35655
 C437 C 1.15624 0.52587 -0.40745
 H438 H 1.16488 0.43757 -0.24089
 H439 H 1.11437 0.43490 -0.15331
 H440 H 1.12621 0.54988 -0.34419
 H441 H 1.09730 0.50174 -0.38366
 H442 H 1.17728 0.55446 -0.42311
 H443 H 1.14827 0.50652 -0.46444
 C444 C 0.55248 0.69632 -0.30138
 C445 C 0.51964 0.69251 -0.33291
 C446 C 0.48758 0.65859 -0.31893
 C447 C 0.48864 0.63060 -0.27121
 C448 C 0.52138 0.63618 -0.23373
 C449 C 0.55324 0.66893 -0.25211
 C450 C 0.58146 0.69550 -0.18984
 C451 C 0.58075 0.72552 -0.24362
 H452 H 0.46169 0.65337 -0.34560
 H453 H 0.46367 0.60499 -0.26117
 H454 H 0.60760 0.69556 -0.19583
 H455 H 0.57112 0.69320 -0.12058
 H456 H 0.60649 0.74287 -0.28053
 H457 H 0.57008 0.74073 -0.20558
 C458 C 0.30389 -0.14872 -0.28504
 C459 C 0.31156 -0.17151 -0.33705
 C460 C 0.34815 -0.16272 -0.34491
 C461 C 0.37561 -0.13359 -0.29647
 C462 C 0.36699 -0.11309 -0.23767
 C463 C 0.33100 -0.12039 -0.23540
 C464 C 0.30635 -0.12780 -0.15756
 C465 C 0.27668 -0.15874 -0.21173
 H466 H 0.35560 -0.17827 -0.38879
 H467 H 0.40344 -0.12772 -0.30340
 H468 H 0.30091 -0.10509 -0.14518
 H469 H 0.31484 -0.13728 -0.09790
 H470 H 0.25416 -0.15382 -0.23051
 H471 H 0.26784 -0.18620 -0.18346
 C472 C 0.48628 -0.16509 0.32647
 C473 C 0.51522 -0.17196 0.32441
 C474 C 0.54334 -0.15261 0.26211
 C475 C 0.54410 -0.12422 0.21127
 C476 C 0.51736 -0.11420 0.22430
 C477 C 0.48760 -0.13652 0.27868
 C478 C 0.47022 -0.12695 0.35263
 C479 C 0.46851 -0.15851 0.40470
 H480 H 0.56560 -0.15807 0.25616
 H481 H 0.56696 -0.10846 0.16731
 H482 H 0.44296 -0.13145 0.33408
 H483 H 0.48889 -0.09990 0.38288
 H484 H 0.44025 -0.18131 0.41527
 H485 H 0.48600 -0.14977 0.46526
 C486 C 0.34412 0.51156 0.32463
 C487 C 0.30963 0.48040 0.33141
 C488 C 0.30454 0.44782 0.29257
 C489 C 0.33255 0.44765 0.24254
 C490 C 0.36636 0.47982 0.23238
 C491 C 0.37195 0.51123 0.27662
 C492 C 0.38414 0.54813 0.23823
 C493 C 0.35401 0.54862 0.29158
 H494 H 0.27887 0.42265 0.29989
 H495 H 0.32791 0.42240 0.21259
 H496 H 0.37990 0.54736 0.16489
 H497 H 0.41177 0.56885 0.26083
 H498 H 0.33242 0.54847 0.24929
 H499 H 0.36436 0.56923 0.34600
 C500 C 1.15472 0.69589 0.25889
 C501 C 1.17621 0.68762 0.31419
 C502 C 1.17201 0.65251 0.30679
 C503 C 1.14315 0.62524 0.25679
 C504 C 1.11876 0.63297 0.21137
 C505 C 1.12698 0.66927 0.20742
 C506 C 1.10301 0.68525 0.22199
 C507 C 1.13338 0.71436 0.27866
 H508 H 1.18886 0.64516 0.34569
 H509 H 1.13859 0.59770 0.25831
 H510 H 1.07808 0.66694 0.26080
 H511 H 1.09818 0.69616 0.15930
 H512 H 1.12595 0.71283 0.35032
 H513 H 1.14594 0.74204 0.24868
 C514 C 0.44817 0.15031 0.26515
 C515 C 0.47909 0.17404 0.31487
 C516 C 0.51090 0.17191 0.30129
 C517 C 0.50960 0.14318 0.25107
 C518 C 0.47678 0.11665 0.21180
 C519 C 0.44723 0.12259 0.21361
 C520 C 0.40824 0.09692 0.23574
 C521 C 0.40928 0.12722 0.29244
 H522 H 0.53593 0.19044 0.33549
 H523 H 0.53363 0.14050 0.24729
 H524 H 0.40438 0.07305 0.27537
 H525 H 0.39034 0.09013 0.17632
 H526 H 0.40606 0.12083 0.36495
 H527 H 0.39190 0.13777 0.26575
 C528 C 0.65940 0.49159 0.30750
 C529 C 0.69430 0.52212 0.31365
 C530 C 0.70227 0.55235 0.25901
 C531 C 0.67447 0.55314 0.20901
 C532 C 0.63819 0.52420 0.21514
 C533 C 0.63199 0.49275 0.26038
 C534 C 0.60367 0.46945 0.32697
 C535 C 0.63379 0.46825 0.37900
 H536 H 0.72932 0.57609 0.25887
 H537 H 0.68081 0.57749 0.17167
 H538 H 0.58361 0.44261 0.29829
 H539 H 0.59184 0.48413 0.36267
 H540 H 0.63078 0.44064 0.38084
 H541 H 0.63954 0.48241 0.44455
 C542 C 0.84485 0.30267 0.26935
 C543 C 0.82263 0.31130 0.32103
 C544 C 0.82700 0.34637 0.31016
 C545 C 0.85629 0.37319 0.26017
 C546 C 0.88112 0.36515 0.21802
 C547 C 0.87309 0.32886 0.21785
 C548 C 0.89707 0.31332 0.23758
 C549 C 0.86621 0.28473 0.29417
 H550 H 0.80974 0.35409 0.34612
 H551 H 0.86067 0.40066 0.25876
 H552 H 0.92154 0.33221 0.27707
 H553 H 0.90267 0.30176 0.17704
 H554 H 0.87285 0.28715 0.36649
 H555 H 0.85413 0.25672 0.26628
   
