data_POSCAR
  _audit_creation_date              2014-09-24
  _audit_creation_method            'ToBaCCo'
  _symmetry_space_group_name_H-M    'P1'
  _symmetry_Int_Tables_number       1
  _symmetry_cell_setting            triclinic
  loop_
  _symmetry_equiv_pos_as_xyz
 x,y,z
_cell_length_a 32.6986
_cell_length_b 32.7333
_cell_length_c 32.8182
_cell_angle_alpha 89.898600
_cell_angle_beta 89.930300
_cell_angle_gamma 90.019900
loop_
  _atom_site_label
  _atom_site_type_symbol
  _atom_site_fract_x
  _atom_site_fract_y
  _atom_site_fract_z
N1 N 0.11990 0.22521 0.21807
 N2 N 0.12679 0.19452 0.24305
 C3 C 0.09768 0.19421 0.27222
 C4 C 0.07087 0.22592 0.26444
 C5 C 0.08583 0.24488 0.22989
 H6 H 0.09540 0.17206 0.29660
 H7 H 0.07301 0.27131 0.21476
 Cu8 Cu 0.17172 0.15682 0.23318
 Cu9 Cu 0.15581 0.23815 0.17253
 Cu10 Cu 0.23714 0.17244 0.15558
 N11 N 0.21694 0.11968 0.22252
 N12 N 0.24341 0.12691 0.19319
 C13 C 0.27227 0.09757 0.19338
 C14 C 0.26290 0.07012 0.22399
 C15 C 0.22760 0.08497 0.24183
 H16 H 0.29767 0.09580 0.17233
 H17 H 0.21140 0.07173 0.26738
 N18 N 0.22564 0.22015 0.12088
 N19 N 0.19555 0.24603 0.12808
 C20 C 0.19617 0.27559 0.09942
 C21 C 0.22766 0.26734 0.07261
 C22 C 0.24563 0.23202 0.08701
 H23 H 0.17457 0.30050 0.09729
 H24 H 0.27142 0.21625 0.07368
 H25 H 0.17454 0.17877 0.16222
 H26 H 0.20746 0.21064 0.19610
 N27 N 0.62169 0.72693 0.71900
 N28 N 0.62837 0.69619 0.74397
 C29 C 0.59946 0.69629 0.77333
 C30 C 0.57303 0.72835 0.76573
 C31 C 0.58798 0.74707 0.73105
 H32 H 0.59693 0.67405 0.79761
 H33 H 0.57525 0.77348 0.71582
 Cu34 Cu 0.67262 0.65778 0.73374
 Cu35 Cu 0.65701 0.73897 0.67279
 Cu36 Cu 0.73709 0.67203 0.65506
 N37 N 0.71715 0.61992 0.72272
 N38 N 0.74335 0.62678 0.69305
 C39 C 0.77208 0.59733 0.69324
 C40 C 0.76292 0.57021 0.72420
 C41 C 0.72783 0.58530 0.74223
 H42 H 0.79731 0.59530 0.67201
 H43 H 0.71189 0.57236 0.76810
 N44 N 0.72564 0.71957 0.62005
 N45 N 0.69606 0.74594 0.62761
 C46 C 0.69665 0.77535 0.59882
 C47 C 0.72755 0.76655 0.57152
 C48 C 0.74524 0.73100 0.58578
 H49 H 0.67545 0.80062 0.59701
 H50 H 0.77065 0.71487 0.57218
 H51 H 0.67472 0.67923 0.66259
 H52 H 0.70861 0.71084 0.69576
 N53 N 0.38036 0.77703 0.71769
 N54 N 0.37403 0.80851 0.74172
 C55 C 0.40289 0.80888 0.77106
 C56 C 0.42899 0.77636 0.76438
 C57 C 0.41392 0.75692 0.73024
 H58 H 0.40534 0.83145 0.79495
 H59 H 0.42619 0.72978 0.71601
 Cu60 Cu 0.32918 0.84617 0.73140
 Cu61 Cu 0.34397 0.76340 0.67283
 Cu62 Cu 0.26068 0.82714 0.65747
 N63 N 0.28400 0.88318 0.72029
 N64 N 0.25475 0.87293 0.69485
 C65 C 0.22465 0.90094 0.69672
 C66 C 0.23638 0.93129 0.72370
 C67 C 0.27444 0.91909 0.73781
 H68 H 0.19725 0.90029 0.67832
 H69 H 0.29276 0.93418 0.76068
 N70 N 0.27264 0.77961 0.62260
 N71 N 0.30370 0.75469 0.62911
 C72 C 0.30379 0.72554 0.60017
 C73 C 0.27184 0.73308 0.57376
 C74 C 0.25279 0.76758 0.58874
 H75 H 0.32625 0.70146 0.59747
 H76 H 0.22653 0.78281 0.57570
 H77 H 0.32359 0.82229 0.66138
 H78 H 0.29281 0.79070 0.69762
 N79 N 0.88035 0.27594 0.21722
 N80 N 0.86790 0.29925 0.24731
 C81 C 0.89578 0.29810 0.27749
 C82 C 0.92813 0.27363 0.26504
 C83 C 0.91721 0.26036 0.22644
 H84 H 0.89332 0.31497 0.30569
 H85 H 0.93375 0.23915 0.20732
 Cu86 Cu 0.81792 0.33108 0.24290
 Cu87 Cu 0.84570 0.26338 0.17079
 Cu88 Cu 0.76157 0.32541 0.15690
 N89 N 0.77718 0.37212 0.22912
 N90 N 0.75387 0.36860 0.19670
 C91 C 0.72719 0.39987 0.19567
 C92 C 0.73478 0.42470 0.22876
 C93 C 0.76678 0.40636 0.24933
 H94 H 0.70460 0.40480 0.17214
 H95 H 0.78092 0.41681 0.27721
 N96 N 0.77504 0.27995 0.12016
 N97 N 0.80654 0.25545 0.12604
 C98 C 0.80669 0.22654 0.09684
 C99 C 0.77420 0.23386 0.07101
 C100 C 0.75489 0.26795 0.08654
 H101 H 0.82911 0.20243 0.09404
 H102 H 0.72780 0.28250 0.07443
 H103 H 0.82340 0.32252 0.16973
 H104 H 0.79002 0.28265 0.19399
 N105 N 0.87977 0.72564 0.28027
 N106 N 0.87330 0.69460 0.25571
 C107 C 0.90231 0.69454 0.22644
 C108 C 0.92862 0.72678 0.23373
 C109 C 0.91347 0.74577 0.26810
 H110 H 0.90502 0.67208 0.20247
 H111 H 0.92609 0.77236 0.28304
 Cu112 Cu 0.82925 0.65600 0.26646
 Cu113 Cu 0.84419 0.73805 0.32615
 Cu114 Cu 0.76366 0.67152 0.34391
 N115 N 0.78392 0.61882 0.27696
 N116 N 0.75741 0.62611 0.30621
 C117 C 0.72833 0.59699 0.30587
 C118 C 0.73754 0.56962 0.27522
 C119 C 0.77305 0.58426 0.25754
 H120 H 0.70282 0.59533 0.32681
 H121 H 0.78919 0.57103 0.23200
 N122 N 0.77513 0.71918 0.37862
 N123 N 0.80487 0.74541 0.37102
 C124 C 0.80427 0.77494 0.39958
 C125 C 0.77319 0.76637 0.42679
 C126 C 0.75542 0.73082 0.41271
 H127 H 0.82560 0.80012 0.40134
 H128 H 0.72989 0.71482 0.42633
 H129 H 0.82614 0.67854 0.33720
 H130 H 0.79285 0.70966 0.30290
 N131 N 0.38173 0.22173 -0.21627
 N132 N 0.36949 0.19811 -0.24619
 C133 C 0.39746 0.19926 -0.27640
 C134 C 0.42966 0.22399 -0.26408
 C135 C 0.41854 0.23741 -0.22556
 H136 H 0.39508 0.18238 -0.30460
 H137 H 0.43476 0.25906 -0.20669
 Cu138 Cu 0.31945 0.16626 -0.24146
 Cu139 Cu 0.34663 0.23511 -0.17032
 Cu140 Cu 0.26223 0.17351 -0.15590
 N141 N 0.27846 0.12553 -0.22715
 N142 N 0.25481 0.12961 -0.19497
 C143 C 0.22786 0.09852 -0.19378
 C144 C 0.23569 0.07321 -0.22647
 C145 C 0.26802 0.09111 -0.24699
 H146 H 0.20480 0.09416 -0.17053
 H147 H 0.28224 0.08034 -0.27474
 N148 N 0.27547 0.21961 -0.11989
 N149 N 0.30710 0.24393 -0.12598
 C150 C 0.30717 0.27326 -0.09721
 C151 C 0.27448 0.26643 -0.07142
 C152 C 0.25515 0.23216 -0.08651
 H153 H 0.32975 0.29725 -0.09457
 H154 H 0.22803 0.21777 -0.07421
 H155 H 0.32413 0.17600 -0.16839
 H156 H 0.29108 0.21550 -0.19358
 N157 N 0.61782 0.27749 -0.21705
 N158 N 0.63008 0.30079 -0.24733
 C159 C 0.60203 0.29948 -0.27738
 C160 C 0.56976 0.27499 -0.26460
 C161 C 0.58092 0.26187 -0.22597
 H162 H 0.60442 0.31607 -0.30581
 H163 H 0.56467 0.24043 -0.20677
 Cu164 Cu 0.68029 0.33242 -0.24335
 Cu165 Cu 0.65295 0.26434 -0.17109
 Cu166 Cu 0.73781 0.32545 -0.15812
 N167 N 0.72179 0.37289 -0.22993
 N168 N 0.74546 0.36881 -0.19781
 C169 C 0.77248 0.39979 -0.19688
 C170 C 0.76480 0.42504 -0.22970
 C171 C 0.73235 0.40724 -0.25002
 H172 H 0.79535 0.40429 -0.17353
 H173 H 0.71796 0.41816 -0.27763
 N174 N 0.72441 0.27992 -0.12135
 N175 N 0.69259 0.25574 -0.12685
 C176 C 0.69251 0.22674 -0.09762
 C177 C 0.72538 0.23370 -0.07219
 C178 C 0.74484 0.26764 -0.08796
 H179 H 0.66985 0.20288 -0.09448
 H180 H 0.77216 0.28196 -0.07614
 H181 H 0.67577 0.32325 -0.17015
 H182 H 0.70841 0.28327 -0.19509
 N183 N 0.12085 0.77431 0.28297
 N184 N 0.12508 0.80792 0.26136
 C185 C 0.09662 0.80847 0.23168
 C186 C 0.07296 0.77369 0.23552
 C187 C 0.08902 0.75281 0.26842
 H188 H 0.09238 0.83302 0.20999
 H189 H 0.07818 0.72416 0.28085
 Cu190 Cu 0.16485 0.84946 0.27614
 Cu191 Cu 0.15680 0.76092 0.32827
 Cu192 Cu 0.23899 0.82550 0.34328
 N193 N 0.21393 0.88235 0.28193
 N194 N 0.24450 0.87083 0.30521
 C195 C 0.27549 0.89765 0.30110
 C196 C 0.26314 0.92846 0.27477
 C197 C 0.22375 0.91765 0.26334
 H198 H 0.30392 0.89605 0.31784
 H199 H 0.20415 0.93346 0.24201
 N200 N 0.22752 0.77830 0.37878
 N201 N 0.19681 0.75293 0.37237
 C202 C 0.19687 0.72406 0.40168
 C203 C 0.22858 0.73228 0.42819
 C204 C 0.24730 0.76689 0.41290
 H205 H 0.17467 0.69973 0.40451
 H206 H 0.27330 0.78258 0.42585
 H207 H 0.17588 0.81947 0.34317
 H208 H 0.20474 0.79252 0.30172
 N209 N 0.47785 0.37022 0.47046
 N210 N 0.44770 0.37779 0.49591
 C211 C 0.44763 0.34919 0.52552
 C212 C 0.47892 0.32195 0.51767
 C213 C 0.49740 0.33611 0.48248
 H214 H 0.42571 0.34736 0.55016
 H215 H 0.52321 0.32260 0.46689
 Cu216 Cu 0.40992 0.42254 0.48583
 Cu217 Cu 0.48977 0.40518 0.42377
 Cu218 Cu 0.42386 0.48656 0.40704
 N219 N 0.37283 0.46788 0.47583
 N220 N 0.37947 0.49383 0.44591
 C221 C 0.35026 0.52281 0.44638
 C222 C 0.32352 0.51406 0.47782
 C223 C 0.33862 0.47898 0.49582
 H224 H 0.34793 0.54772 0.42482
 H225 H 0.32574 0.46310 0.52175
 N226 N 0.47052 0.47410 0.37115
 N227 N 0.49654 0.44409 0.37828
 C228 C 0.52565 0.44444 0.34916
 C229 C 0.51698 0.47564 0.32212
 C230 C 0.48185 0.49372 0.33687
 H231 H 0.55078 0.42308 0.34711
 H232 H 0.46609 0.51961 0.32374
 H233 H 0.46309 0.45733 0.44695
 H234 H 0.43028 0.42410 0.41436
 N235 N -0.02125 -0.12721 0.96874
 N236 N -0.05174 -0.12014 0.99392
 C237 C -0.05167 -0.14885 1.02345
 C238 C -0.01991 -0.17562 1.01578
 C239 C -0.00133 -0.16107 0.98082
 H240 H -0.07378 -0.15107 1.04788
 H241 H 0.02481 -0.17417 0.96541
 Cu242 Cu -0.09002 -0.07583 0.98357
 Cu243 Cu -0.00939 -0.09204 0.92223
 Cu244 Cu -0.07615 -0.01149 0.90492
 N245 N -0.12760 -0.03092 0.97331
 N246 N -0.12106 -0.00484 0.94348
 C247 C -0.15054 0.02390 0.94396
 C248 C -0.17733 0.01486 0.97532
 C249 C -0.16196 -0.02014 0.99324
 H250 H -0.15290 0.04895 0.92257
 H251 H -0.17467 -0.03611 1.01921
 N252 N -0.02890 -0.02338 0.86941
 N253 N -0.00261 -0.05308 0.87683
 C254 C 0.02663 -0.05267 0.84782
 C255 C 0.01781 -0.02177 0.82051
 C256 C -0.01760 -0.00391 0.83500
 H257 H 0.05182 -0.07396 0.84589
 H258 H -0.03369 0.02157 0.82149
 H259 H -0.03701 -0.04019 0.94518
 H260 H -0.06906 -0.07379 0.91225
 N261 N 1.02411 0.63004 0.96919
 N262 N 1.05470 0.62276 0.99415
 C263 C 1.05525 0.65170 1.02333
 C264 C 1.02382 0.67884 1.01566
 C265 C 1.00475 0.66426 0.98107
 H266 H 1.07749 0.65373 1.04760
 H267 H 0.97857 0.67750 0.96588
 Cu268 Cu 1.09218 0.57775 0.98409
 Cu269 Cu 1.01119 0.59442 0.92343
 Cu270 Cu 1.07654 0.51260 0.90681
 N271 N 1.12900 0.53217 0.97415
 N272 N 1.12175 0.50580 0.94484
 C273 C 1.15094 0.47677 0.94524
 C274 C 1.17829 0.48591 0.97598
 C275 C 1.16354 0.52128 0.99364
 H276 H 1.15280 0.45152 0.92411
 H277 H 1.17686 0.53749 1.01905
 N278 N 1.02915 0.52466 0.87173
 N279 N 1.00338 0.55489 0.87883
 C280 C 0.97400 0.55455 0.85002
 C281 C 0.98223 0.52314 0.82320
 C282 C 1.01738 0.50491 0.83777
 H283 H 0.94920 0.57628 0.84782
 H284 H 1.03307 0.47907 0.82452
 H285 H 1.03818 0.54254 0.94700
 H286 H 1.07044 0.57517 0.91310
 N287 N 0.52125 0.12720 0.47152
 N288 N 0.55109 0.11929 0.49718
 C289 C 0.55139 0.14808 0.52650
 C290 C 0.52056 0.17574 0.51826
 C291 C 0.50212 0.16165 0.48314
 H292 H 0.57318 0.14971 0.55121
 H293 H 0.47659 0.17543 0.46734
 Cu294 Cu 0.58843 0.07391 0.48817
 Cu295 Cu 0.50915 0.09227 0.42517
 Cu296 Cu 0.57542 0.01174 0.40751
 N297 N 0.62663 0.03000 0.47597
 N298 N 0.62034 0.00468 0.44556
 C299 C 0.65026 -0.02356 0.44504
 C300 C 0.67710 -0.01496 0.47631
 C301 C 0.66135 0.01928 0.49525
 H302 H 0.65290 -0.04796 0.42301
 H303 H 0.67402 0.03475 0.52144
 N304 N 0.52825 0.02379 0.37236
 N305 N 0.50205 0.05352 0.37987
 C306 C 0.47274 0.05321 0.35100
 C307 C 0.48149 0.02233 0.32373
 C308 C 0.51686 0.00440 0.33807
 H309 H 0.44757 0.07454 0.34916
 H310 H 0.53286 -0.02110 0.32454
 H311 H 0.53582 0.03984 0.44790
 H312 H 0.56907 0.07406 0.41646
 N313 N -0.02370 0.12983 0.52887
 N314 N -0.05341 0.12200 0.50308
 C315 C -0.05376 0.15108 0.47393
 C316 C -0.02308 0.17883 0.48246
 C317 C -0.00470 0.16448 0.51754
 H318 H -0.07535 0.15271 0.44905
 H319 H 0.02083 0.17814 0.53341
 Cu320 Cu -0.09024 0.07602 0.51158
 Cu321 Cu -0.01134 0.09443 0.57486
 Cu322 Cu -0.07667 0.01284 0.59160
 N323 N -0.12788 0.03139 0.52312
 N324 N -0.12137 0.00573 0.55329
 C325 C -0.15088 -0.02296 0.55337
 C326 C -0.17770 -0.01432 0.52207
 C327 C -0.16236 0.02042 0.50357
 H328 H -0.15329 -0.04769 0.57514
 H329 H -0.17514 0.03608 0.47749
 N330 N -0.02974 0.02507 0.62702
 N331 N -0.00388 0.05521 0.61977
 C332 C 0.02545 0.05488 0.64859
 C333 C 0.01709 0.02356 0.67557
 C334 C -0.01810 0.00537 0.66112
 H335 H 0.05041 0.07645 0.65058
 H336 H -0.03376 -0.02052 0.67441
 H337 H -0.03739 0.04192 0.55157
 H338 H -0.07107 0.07529 0.58333
 N339 N 0.47749 0.62984 0.03061
 N340 N 0.44713 0.62251 0.00541
 C341 C 0.44689 0.65134 -0.02398
 C342 C 0.47830 0.67847 -0.01622
 C343 C 0.49702 0.66400 0.01866
 H344 H 0.42480 0.65339 -0.04839
 H345 H 0.52300 0.67734 0.03408
 Cu346 Cu 0.40936 0.57772 0.01552
 Cu347 Cu 0.48972 0.59454 0.07692
 Cu348 Cu 0.42384 0.51307 0.09369
 N349 N 0.37228 0.53232 0.02553
 N350 N 0.37910 0.50613 0.05518
 C351 C 0.34989 0.47712 0.05465
 C352 C 0.32298 0.48609 0.02347
 C353 C 0.33798 0.52134 0.00568
 H354 H 0.34774 0.45197 0.07597
 H355 H 0.32502 0.53739 -0.02007
 N356 N 0.47083 0.52525 0.12923
 N357 N 0.49682 0.55532 0.12207
 C358 C 0.52603 0.55493 0.15105
 C359 C 0.51746 0.52364 0.17805
 C360 C 0.48228 0.50556 0.16340
 H361 H 0.55106 0.57641 0.15312
 H362 H 0.46649 0.47971 0.17662
 H363 H 0.46277 0.54257 0.05361
 H364 H 0.43027 0.57556 0.08679
 N365 N 0.52252 -0.12763 0.03118
 N366 N 0.55315 -0.12045 0.00616
 C367 C 0.55324 -0.14904 -0.02336
 C368 C 0.52144 -0.17584 -0.01586
 C369 C 0.50266 -0.16145 0.01899
 H370 H 0.57547 -0.15116 -0.04768
 H371 H 0.47642 -0.17461 0.03423
 Cu372 Cu 0.59137 -0.07620 0.01668
 Cu373 Cu 0.51035 -0.09254 0.07750
 Cu374 Cu 0.57697 -0.01193 0.09508
 N375 N 0.62888 -0.03133 0.02709
 N376 N 0.62216 -0.00525 0.05679
 C377 C 0.65160 0.02355 0.05631
 C378 C 0.67854 0.01454 0.02510
 C379 C 0.66331 -0.02050 0.00726
 H380 H 0.65379 0.04868 0.07755
 H381 H 0.67611 -0.03640 -0.01863
 N382 N 0.52946 -0.02390 0.13028
 N383 N 0.50326 -0.05365 0.12274
 C384 C 0.47378 -0.05331 0.15149
 C385 C 0.48232 -0.02241 0.17877
 C386 C 0.51783 -0.00447 0.16453
 H387 H 0.44860 -0.07465 0.15326
 H388 H 0.53377 0.02104 0.17810
 H389 H 0.53813 -0.04061 0.05462
 H390 H 0.56997 -0.07422 0.08786
 N391 N 1.02251 0.37214 0.53056
 N392 N 1.05316 0.37928 0.50556
 C393 C 1.05304 0.35087 0.47586
 C394 C 1.02107 0.32424 0.48322
 C395 C 1.00241 0.33854 0.51817
 H396 H 1.07527 0.34875 0.45153
 H397 H 0.97612 0.32544 0.53337
 Cu398 Cu 1.09172 0.42319 0.51632
 Cu399 Cu 1.01063 0.40687 0.57720
 Cu400 Cu 1.07754 0.48707 0.59507
 N401 N 1.12922 0.46804 0.52693
 N402 N 1.12249 0.49394 0.55678
 C403 C 1.15193 0.52271 0.55659
 C404 C 1.17889 0.51388 0.52542
 C405 C 1.16371 0.47897 0.50727
 H406 H 1.15416 0.54762 0.57807
 H407 H 1.17662 0.46318 0.48136
 N408 N 1.03029 0.47503 0.63033
 N409 N 1.00393 0.44543 0.62275
 C410 C 0.97454 0.44585 0.65157
 C411 C 0.98335 0.47666 0.67889
 C412 C 1.01887 0.49444 0.66462
 H413 H 0.94915 0.42475 0.65327
 H414 H 1.03487 0.51996 0.67811
 H415 H 1.03857 0.45867 0.55442
 H416 H 1.07032 0.42476 0.58749
 C417 C 0.32810 -0.03532 0.26517
 C418 C 0.34972 -0.00109 0.25098
 C419 C 0.32845 0.03296 0.23618
 C420 C 0.28561 0.03307 0.23576
 C421 C 0.26423 -0.00197 0.24803
 C422 C 0.28509 -0.03658 0.26277
 C423 C 0.39470 -0.00095 0.25123
 C424 C 0.41640 -0.01264 0.21625
 C425 C 0.45930 -0.01159 0.21590
 C426 C 0.48032 0.00015 0.25122
 C427 C 0.45886 0.01133 0.28653
 C428 C 0.41596 0.01132 0.28621
 H429 H 0.34511 -0.06148 0.27623
 H430 H 0.34527 0.05971 0.22617
 H431 H 0.39983 -0.02170 0.18914
 H432 H 0.39910 0.02006 0.31328
 H433 H 0.23113 -0.00155 0.24712
 H434 H 0.51346 0.00052 0.25126
 C435 C 0.17145 -0.03270 0.73260
 C436 C 0.14960 0.00117 0.74710
 C437 C 0.17065 0.03533 0.76183
 C438 C 0.21349 0.03587 0.76196
 C439 C 0.23516 0.00106 0.74969
 C440 C 0.21444 -0.03365 0.73504
 C441 C 0.10463 0.00076 0.74729
 C442 C 0.08335 -0.01134 0.78245
 C443 C 0.04043 -0.01080 0.78313
 C444 C 0.01900 0.00077 0.74796
 C445 C 0.04006 0.01238 0.71252
 C446 C 0.08295 0.01288 0.71250
 H447 H 0.15463 -0.05899 0.72162
 H448 H 0.15368 0.06186 0.77204
 H449 H 0.10023 -0.02027 0.80944
 H450 H 0.09949 0.02198 0.68532
 H451 H 0.26828 0.00167 0.75052
 H452 H -0.01415 0.00080 0.74818
 C453 C 0.67021 0.46383 0.23842
 C454 C 0.64933 0.49915 0.25049
 C455 C 0.67137 0.53352 0.26331
 C456 C 0.71430 0.53289 0.26355
 C457 C 0.73497 0.49710 0.25218
 C458 C 0.71304 0.46243 0.23986
 C459 C 0.60439 0.49978 0.25038
 C460 C 0.58277 0.48667 0.28492
 C461 C 0.53989 0.48730 0.28519
 C462 C 0.51880 0.49979 0.25013
 C463 C 0.54017 0.51224 0.21515
 C464 C 0.58309 0.51289 0.21567
 H465 H 0.65306 0.43716 0.22888
 H466 H 0.65508 0.56089 0.27232
 H467 H 0.59937 0.47686 0.31178
 H468 H 0.59993 0.52248 0.18884
 H469 H 0.76810 0.49621 0.25285
 H470 H 0.48565 0.49977 0.25005
 C471 C 0.82957 0.46415 0.76144
 C472 C 0.85065 0.49955 0.74979
 C473 C 0.82883 0.53399 0.73674
 C474 C 0.78592 0.53338 0.73597
 C475 C 0.76504 0.49755 0.74698
 C476 C 0.78675 0.46278 0.75943
 C477 C 0.89559 0.50012 0.75027
 C478 C 0.91740 0.48745 0.71575
 C479 C 0.96026 0.48805 0.71573
 C480 C 0.98118 0.50010 0.75099
 C481 C 0.95963 0.51213 0.78595
 C482 C 0.91671 0.51280 0.78522
 H483 H 0.84658 0.43741 0.77109
 H484 H 0.84525 0.56142 0.72798
 H485 H 0.90094 0.47798 0.68871
 H486 H 0.89974 0.52210 0.81204
 H487 H 0.73191 0.49676 0.74594
 H488 H 1.01432 0.50004 0.75125
 C489 C 0.26379 0.33245 -0.03473
 C490 C 0.25090 0.35410 -0.00018
 C491 C 0.23816 0.33286 0.03474
 C492 C 0.23885 0.29002 0.03545
 C493 C 0.25095 0.26862 0.00050
 C494 C 0.26315 0.28960 -0.03472
 C495 C 0.25088 0.39901 -0.00047
 C496 C 0.21603 0.42039 -0.01326
 C497 C 0.21554 0.46325 -0.01264
 C498 C 0.25070 0.48454 -0.00044
 C499 C 0.28591 0.46335 0.01180
 C500 C 0.28561 0.42050 0.01238
 H501 H 0.27333 0.34893 -0.06180
 H502 H 0.22867 0.34969 0.06155
 H503 H 0.18907 0.40363 -0.02270
 H504 H 0.31259 0.40383 0.02195
 H505 H 0.25092 0.23550 0.00071
 H506 H 0.25065 0.51764 -0.00041
 C507 C 0.73656 0.16796 -0.03496
 C508 C 0.75013 0.14657 -0.00045
 C509 C 0.76348 0.16808 0.03398
 C510 C 0.76261 0.21092 0.03427
 C511 C 0.74975 0.23206 -0.00058
 C512 C 0.73706 0.21080 -0.03537
 C513 C 0.75028 0.10167 -0.00031
 C514 C 0.78495 0.08031 -0.01361
 C515 C 0.78553 0.03746 -0.01274
 C516 C 0.75062 0.01614 0.00027
 C517 C 0.71554 0.03730 0.01299
 C518 C 0.71579 0.08015 0.01330
 H519 H 0.72664 0.15127 -0.06168
 H520 H 0.77352 0.15147 0.06076
 H521 H 0.81171 0.09710 -0.02368
 H522 H 0.68891 0.09680 0.02317
 H523 H 0.74963 0.26518 -0.00065
 H524 H 0.75073 -0.01697 0.00047
 C525 C 0.23908 0.66705 0.46619
 C526 C 0.25093 0.64582 0.50136
 C527 C 0.26237 0.66744 0.53636
 C528 C 0.26137 0.71028 0.53654
 C529 C 0.25014 0.73135 0.50100
 C530 C 0.23929 0.70989 0.46565
 C531 C 0.25112 0.60093 0.50157
 C532 C 0.28593 0.57956 0.48866
 C533 C 0.28638 0.53671 0.48938
 C534 C 0.25124 0.51541 0.50169
 C535 C 0.21605 0.53659 0.51393
 C536 C 0.21639 0.57943 0.51454
 H537 H 0.23054 0.65021 0.43909
 H538 H 0.27117 0.65089 0.56361
 H539 H 0.31286 0.59632 0.47900
 H540 H 0.18939 0.59609 0.52407
 H541 H 0.24986 0.76446 0.50085
 H542 H 0.25126 0.48230 0.50171
 C543 C 0.76269 0.83209 0.46406
 C544 C 0.75035 0.85355 0.49890
 C545 C 0.73803 0.83214 0.53385
 C546 C 0.73865 0.78930 0.53433
 C547 C 0.75038 0.76805 0.49915
 C548 C 0.76210 0.78923 0.46383
 C549 C 0.75021 0.89846 0.49879
 C550 C 0.71517 0.91976 0.48645
 C551 C 0.71456 0.96261 0.48723
 C552 C 0.74974 0.98401 0.49908
 C553 C 0.78516 0.96290 0.51079
 C554 C 0.78502 0.92004 0.51128
 H555 H 0.77183 0.84876 0.43697
 H556 H 0.72885 0.84887 0.56084
 H557 H 0.68816 0.90295 0.47724
 H558 H 0.81217 0.90344 0.52049
 H559 H 0.75038 0.73494 0.49924
 H560 H 0.74955 1.01712 0.49922
 C561 C -0.03508 0.26585 0.32961
 C562 C -0.00060 0.25224 0.35111
 C563 C 0.03368 0.23779 0.32993
 C564 C 0.03377 0.23728 0.28726
 C565 C -0.00146 0.24909 0.26600
 C566 C -0.03635 0.26322 0.28680
 C567 C -0.00082 0.25216 0.39591
 C568 C -0.01290 0.21692 0.41713
 C569 C -0.01255 0.21634 0.45986
 C570 C -0.00129 0.25167 0.48118
 C571 C 0.01026 0.28721 0.46021
 C572 C 0.01106 0.28714 0.41746
 H573 H -0.06147 0.27637 0.34659
 H574 H 0.06054 0.22804 0.34663
 H575 H -0.02165 0.18980 0.40036
 H576 H 0.02010 0.31442 0.40098
 H577 H -0.00107 0.24808 0.23302
 H578 H -0.00141 0.25148 0.51421
 C579 C -0.03322 0.73775 0.16850
 C580 C 0.00175 0.75109 0.14751
 C581 C 0.03631 0.76393 0.16936
 C582 C 0.03626 0.76258 0.21209
 C583 C 0.00097 0.74989 0.23278
 C584 C -0.03400 0.73791 0.21123
 C585 C 0.00217 0.75144 0.10269
 C586 C -0.00978 0.78662 0.08133
 C587 C -0.00917 0.78707 0.03858
 C588 C 0.00213 0.75166 0.01738
 C589 C 0.01343 0.71615 0.03848
 C590 C 0.01408 0.71638 0.08122
 H591 H -0.06005 0.72831 0.15158
 H592 H 0.06344 0.77392 0.15314
 H593 H -0.01873 0.81375 0.09799
 H594 H 0.02285 0.68910 0.09781
 H595 H 0.00071 0.74944 0.26581
 H596 H 0.00206 0.75172 -0.01565
 C597 C 0.46607 0.23339 0.67122
 C598 C 0.49967 0.24919 0.64975
 C599 C 0.53329 0.26513 0.67095
 C600 C 0.53440 0.26373 0.71377
 C601 C 0.49970 0.24951 0.73486
 C602 C 0.46498 0.23512 0.71403
 C603 C 0.49969 0.24906 0.60491
 C604 C 0.48867 0.28441 0.58335
 C605 C 0.48923 0.28461 0.54059
 C606 C 0.49989 0.24890 0.51958
 C607 C 0.51042 0.21325 0.54089
 C608 C 0.51079 0.21362 0.58364
 H609 H 0.44004 0.22204 0.65427
 H610 H 0.55930 0.27636 0.65379
 H611 H 0.48037 0.31184 0.59986
 H612 H 0.51899 0.18626 0.60038
 H613 H 0.49972 0.24963 0.76782
 H614 H 0.49994 0.24883 0.48656
 C615 C 0.46563 0.76547 0.83046
 C616 C 0.50003 0.75196 0.85217
 C617 C 0.53491 0.73869 0.83105
 C618 C 0.53576 0.73960 0.78833
 C619 C 0.50095 0.75230 0.76690
 C620 C 0.46571 0.76490 0.78771
 C621 C 0.49967 0.75182 0.89698
 C622 C 0.48800 0.71649 0.91830
 C623 C 0.48864 0.71595 0.96105
 C624 C 0.49973 0.75137 0.98230
 C625 C 0.51083 0.78699 0.96123
 C626 C 0.51139 0.78690 0.91849
 H627 H 0.43857 0.77533 0.84682
 H628 H 0.56162 0.72875 0.84789
 H629 H 0.47937 0.68929 0.90160
 H630 H 0.52017 0.81423 0.90195
 H631 H 0.50126 0.75238 0.73387
 H632 H 0.49978 0.75121 1.01532
   
