data_POSCAR
  _audit_creation_date              2014-09-24
  _audit_creation_method            'ToBaCCo'
  _symmetry_space_group_name_H-M    'P1'
  _symmetry_Int_Tables_number       1
  _symmetry_cell_setting            triclinic
  loop_
  _symmetry_equiv_pos_as_xyz
 x,y,z
_cell_length_a 21.3674
_cell_length_b 21.3567
_cell_length_c 21.4542
_cell_angle_alpha 89.943100
_cell_angle_beta 90.105800
_cell_angle_gamma 89.850900
loop_
  _atom_site_label
  _atom_site_type_symbol
  _atom_site_fract_x
  _atom_site_fract_y
  _atom_site_fract_z
C1 C 0.30651 0.38255 1.38623
 N2 N 0.33538 0.33025 1.40791
 C3 C 0.38678 0.30752 1.37853
 N4 N 0.40885 0.33670 1.32687
 C5 C 0.38003 0.38909 1.30509
 N6 N 0.32856 0.41175 1.33450
 C7 C 1.19369 0.62109 0.89134
 N8 N 1.17094 0.59197 0.83989
 C9 C 1.11856 0.61393 0.81143
 N10 N 1.08930 0.66567 0.83391
 C11 C 1.11191 0.69486 0.88538
 N12 N 1.16441 0.67282 0.91381
 C13 C 0.69260 -0.11979 0.10835
 N14 N 0.66960 -0.09070 0.15968
 C15 C 0.61747 -0.11291 0.18801
 N16 N 0.58880 -0.16485 0.16558
 C17 C 0.61168 -0.19400 0.11427
 N18 N 0.66390 -0.17175 0.08593
 C19 C -0.19245 1.11847 -0.38698
 N20 N -0.16315 1.17020 -0.40904
 C21 C -0.11163 1.19257 -0.37955
 N22 N -0.08995 1.16365 -0.32743
 C23 C -0.11924 1.11185 -0.30531
 N24 N -0.17076 1.08955 -0.33484
 C25 C 0.69220 0.62085 0.60932
 N26 N 0.66327 0.67272 0.58663
 C27 C 0.61111 0.69524 0.61501
 N28 N 0.58851 0.66641 0.66664
 C29 C 0.61748 0.61451 0.68932
 N30 N 0.66954 0.59205 0.66092
 C31 C 0.80609 0.38226 0.11418
 N32 N 0.82852 0.41095 0.16606
 C33 C 0.88013 0.38796 0.19522
 N34 N 0.90876 0.33573 0.17298
 C35 C 0.88636 0.30703 0.12117
 N36 N 0.83478 0.33009 0.09205
 C37 C 0.30704 0.11682 0.88606
 N38 N 0.33623 0.16854 0.90821
 C39 C 0.38757 0.19116 0.87882
 N40 N 0.40921 0.16254 0.82669
 C41 C 0.38005 0.11076 0.80444
 N42 N 0.32865 0.08815 0.83386
 C43 C 0.19300 0.87901 0.39112
 N44 N 0.16464 0.82694 0.41373
 C45 C 0.11227 0.80452 0.38559
 N46 N 0.08893 0.83365 0.33432
 C47 C 0.11728 0.88570 0.31173
 N48 N 0.16952 0.90806 0.33985
 Zn49 Zn 0.01346 1.07582 -0.03450
 Zn50 Zn -0.04957 0.95063 -0.04660
 Zn51 Zn 0.07446 0.96216 0.01847
 Zn52 Zn -0.04001 1.01455 0.07792
 O53 O -0.00060 1.00063 0.00366
 O54 O -0.02404 1.08086 -0.10844
 O55 O -0.01108 0.87814 -0.06738
 O56 O 0.14003 1.00524 -0.01055
 O57 O -0.07044 0.98868 -0.11895
 O58 O 0.09445 1.08971 -0.05011
 O59 O 0.07980 0.88774 -0.01830
 O60 O 0.00296 0.98548 0.14371
 O61 O -0.12232 0.92911 -0.00977
 O62 O 0.08844 0.94725 0.09932
 O63 O -0.11420 0.97696 0.08160
 O64 O -0.05544 1.09569 0.09243
 O65 O -0.01520 1.14157 0.00903
 C66 C -0.05721 1.04289 -0.13935
 C67 C 0.04266 0.85720 -0.05270
 C68 C 0.14282 1.05705 -0.03919
 C69 C 0.05540 0.95786 0.14715
 C70 C -0.14402 0.94289 0.04356
 C71 C -0.04376 1.14433 0.06068
 Zn72 Zn 0.51353 0.07614 0.53416
 Zn73 Zn 0.57482 -0.03718 0.48137
 Zn74 Zn 0.45070 -0.04901 0.54589
 Zn75 Zn 0.46017 0.01487 0.42142
 O76 O 0.49964 0.00106 0.49585
 O77 O 0.59451 0.09038 0.54987
 O78 O 0.58024 -0.11159 0.51832
 O79 O 0.42959 -0.01124 0.61807
 O80 O 0.64034 0.00618 0.51038
 O81 O 0.47594 0.08100 0.60800
 O82 O 0.48924 -0.12128 0.56688
 O83 O 0.38600 -0.02298 0.41742
 O84 O 0.58887 -0.05198 0.40056
 O85 O 0.37813 -0.07081 0.50886
 O86 O 0.50330 -0.01391 0.35583
 O87 O 0.44470 0.09598 0.40683
 O88 O 0.48483 0.14175 0.49044
 C89 C 0.64302 0.05803 0.53888
 C90 C 0.54300 -0.14214 0.55253
 C91 C 0.44269 0.04289 0.63863
 C92 C 0.35635 -0.05719 0.45544
 C93 C 0.55585 -0.04132 0.35259
 C94 C 0.45640 0.14455 0.43862
 Zn95 Zn 1.01601 0.42310 0.46490
 Zn96 Zn 1.07704 0.53635 0.51807
 Zn97 Zn 0.95289 0.54843 0.45305
 Zn98 Zn 0.96280 0.48435 0.57762
 O99 O 1.00201 0.49821 0.50325
 O100 O 1.09699 0.40907 0.44895
 O101 O 1.08213 0.61083 0.48136
 O102 O 0.93167 0.51068 0.38077
 O103 O 1.14260 0.49310 0.48882
 O104 O 0.97805 0.41824 0.39108
 O105 O 0.99119 0.62080 0.43234
 O106 O 0.88850 0.52207 0.58132
 O107 O 1.09111 0.55124 0.59897
 O108 O 0.88028 0.57017 0.48997
 O109 O 1.00566 0.51340 0.64339
 O110 O 0.94762 0.40325 0.59214
 O111 O 0.98766 0.35739 0.50858
 C112 C 1.14536 0.44147 0.45991
 C113 C 1.04485 0.64157 0.44707
 C114 C 0.94464 0.45640 0.36035
 C115 C 0.85863 0.55633 0.54328
 C116 C 1.05802 0.54091 0.64682
 C117 C 0.95925 0.35466 0.56032
 Zn118 Zn 0.46171 0.48613 0.92307
 Zn119 Zn 0.57623 0.53781 0.98291
 Zn120 Zn 0.45185 0.55017 1.04727
 Zn121 Zn 0.51517 0.42485 1.03605
 O122 O 0.50107 0.49990 0.99748
 O123 O 0.50459 0.51510 0.85748
 O124 O 0.58132 0.61226 1.01947
 O125 O 0.37913 0.57200 1.01005
 O126 O 0.59022 0.55268 0.90205
 O127 O 0.38731 0.52382 0.91891
 O128 O 0.49023 0.62247 1.06788
 O129 O 0.47722 0.42006 1.10968
 O130 O 0.64192 0.49440 1.01232
 O131 O 0.43070 0.51247 1.11958
 O132 O 0.59616 0.41055 1.05225
 O133 O 0.48692 0.35923 0.99238
 O134 O 0.44679 0.40506 0.90859
 C135 C 0.55703 0.54241 0.85415
 C136 C 0.54397 0.64310 1.05339
 C137 C 0.35742 0.55815 0.95671
 C138 C 0.44378 0.45822 1.14018
 C139 C 0.64464 0.44271 1.04125
 C140 C 0.45864 0.35648 0.94049
 C141 C 1.25297 0.40290 0.41354
 C142 C 1.20441 0.42040 0.43615
 C143 C 0.24822 0.60084 0.91723
 C144 C 0.29761 0.58204 0.93728
 C145 C -0.25304 0.90050 0.08265
 C146 C -0.20375 0.91919 0.06273
 C147 C 0.75089 0.09716 0.58415
 C148 C 0.70218 0.07948 0.56201
 C149 C 0.41318 0.25318 0.39846
 C150 C 0.43437 0.20403 0.41647
 C151 C 0.91526 0.24646 0.60028
 C152 C 0.93689 0.29531 0.58227
 C153 C 0.08492 0.74875 -0.09422
 C154 C 0.06353 0.79767 -0.07584
 C155 C 0.58537 0.75188 1.09411
 C156 C 0.56446 0.70276 1.07608
 C157 C 0.40143 0.41741 1.24829
 C158 C 0.42010 0.43813 1.19945
 C159 C 0.59564 -0.08480 0.24464
 C160 C 0.57755 -0.06348 0.29338
 C161 C -0.09836 1.08379 -0.24809
 C162 C -0.08026 1.06309 -0.19894
 C163 C 1.09699 0.58553 0.75476
 C164 C 1.07929 0.56371 0.70604
 C165 C 0.74957 0.59914 0.58211
 C166 C 0.79889 0.58021 0.56238
 C167 C 0.75243 0.40310 1.08710
 C168 C 0.70379 0.42114 1.06477
 C169 C 0.25052 1.09544 -0.08507
 C170 C 0.20191 1.07804 -0.06267
 C171 C 0.24743 -0.10037 0.41658
 C172 C 0.29671 -0.08128 0.43628
 C173 C 0.58459 -0.25072 0.59441
 C174 C 0.56362 -0.20168 0.57582
 C175 C 1.08616 0.75035 0.40600
 C176 C 1.06534 0.70122 0.42421
 C177 C -0.08728 1.25283 0.10084
 C178 C -0.06598 1.20378 0.08271
 C179 C 0.41569 0.24813 0.90023
 C180 C 0.43681 0.29710 0.91838
 C181 C 0.59598 0.58649 0.74613
 C182 C 0.57832 0.56496 0.79493
 C183 C 0.40102 0.08306 0.74721
 C184 C 0.41937 0.06276 0.69810
 C185 C 0.09509 0.91386 0.25514
 C186 C 0.07696 0.93540 0.20641
 C187 C 0.90194 0.41583 0.25214
 C188 C 0.92083 0.43634 0.30103
   
