data_POSCAR
  _audit_creation_date              2014-09-24
  _audit_creation_method            'ToBaCCo'
  _symmetry_space_group_name_H-M    'P1'
  _symmetry_Int_Tables_number       1
  _symmetry_cell_setting            triclinic
  loop_
  _symmetry_equiv_pos_as_xyz
 x,y,z
_cell_length_a 34.1990
_cell_length_b 37.1158
_cell_length_c 34.5541
_cell_angle_alpha 87.599000
_cell_angle_beta 89.551400
_cell_angle_gamma 92.130500
loop_
  _atom_site_label
  _atom_site_type_symbol
  _atom_site_fract_x
  _atom_site_fract_y
  _atom_site_fract_z
N1 N 0.22009 1.21937 0.17538
 N2 N 0.82870 0.80142 0.21801
 N3 N 0.76783 1.21313 -0.20909
 N4 N 0.21628 0.77072 -0.23736
 C5 C 0.55112 1.01681 -0.00702
 H6 H 0.54811 1.02317 0.02310
 C7 C 0.57818 1.03640 -0.03082
 H8 H 0.59595 1.05791 -0.01887
 C9 C 0.53284 0.97992 -0.05874
 H10 H 0.51579 0.95734 -0.06926
 C11 C 0.55991 0.99849 -0.08342
 H12 H 0.56288 0.99053 -0.11306
 N13 N 0.52886 0.98941 -0.02134
 C14 C 0.43542 0.97522 0.06517
 H15 H 0.43792 0.94672 0.07217
 C16 C 0.40642 0.99438 0.08288
 H17 H 0.38713 0.98050 0.10406
 C18 C 0.45743 1.02760 0.02858
 H19 H 0.47661 1.04016 0.00656
 C20 C 0.42864 1.04781 0.04549
 H21 H 0.42609 1.07585 0.03627
 Zn22 Zn 0.49540 0.96221 0.01362
 N23 N 0.46022 0.99196 0.03864
 C24 C 0.52814 0.94712 0.08790
 N25 N 0.52803 0.93888 0.04990
 C26 C 0.55358 0.91540 0.03579
 C27 C 0.58043 0.89885 0.06023
 C28 C 0.55473 0.93134 0.11337
 C29 C 0.44092 0.94169 -0.04135
 C30 C 0.41543 0.91880 -0.06098
 C31 C 0.43751 0.86862 -0.02113
 C32 C 0.46298 0.89248 -0.00252
 N33 N 0.46426 0.92827 -0.01297
 H34 H 0.50840 0.96668 0.09832
 H35 H 0.55322 0.90976 0.00532
 H36 H 0.60018 0.87993 0.04840
 H37 H 0.55505 0.93894 0.14328
 H38 H 0.44191 0.97038 -0.04845
 H39 H 0.39670 0.93007 -0.08314
 H40 H 0.43660 0.84024 -0.01240
 H41 H 0.48098 0.88248 0.02082
 C42 C 0.40237 1.03110 0.07275
 C43 C 0.58300 1.02710 -0.06947
 C44 C 0.41332 0.88178 -0.05075
 C45 C 0.58156 0.90703 0.09956
 C46 C -0.02931 0.56264 1.03870
 H47 H 0.00126 0.56716 1.03104
 C48 C -0.04894 0.58882 1.05823
 H49 H -0.03311 0.61355 1.06485
 C50 C -0.08723 0.52587 1.03658
 H51 H -0.10249 0.50188 1.02722
 C52 C -0.10780 0.55094 1.05694
 H53 H -0.13830 0.54499 1.06398
 N54 N -0.04854 0.53189 1.02827
 C55 C 0.03607 0.44902 1.01444
 H56 H 0.02962 0.44229 0.98495
 C57 C 0.06054 0.42746 1.03673
 H58 H 0.07218 0.40393 1.02399
 C59 C 0.02553 0.48626 1.06726
 H60 H 0.01109 0.50872 1.07926
 C61 C 0.05056 0.46583 1.09042
 H62 H 0.05573 0.47350 1.11987
 Zn63 Zn -0.01914 0.50011 0.99898
 N64 N 0.01855 0.47731 1.03013
 C65 C 0.04478 0.53570 0.95883
 N66 N 0.00547 0.52877 0.95877
 C67 C -0.01798 0.54582 0.93287
 C68 C -0.00214 0.57153 0.90601
 C69 C 0.06179 0.56177 0.93291
 C70 C -0.07241 0.44076 1.00410
 C71 C -0.09476 0.41159 0.99099
 C72 C -0.07090 0.42653 0.92615
 C73 C -0.04993 0.45608 0.94037
 N74 N -0.05119 0.46274 0.97874
 H75 H 0.06270 0.52240 0.98031
 H76 H -0.04924 0.54016 0.93388
 H77 H -0.02148 0.58477 0.88576
 H78 H 0.09279 0.56825 0.93495
 H79 H -0.07176 0.44576 1.03471
 H80 H -0.11233 0.39539 1.01180
 H81 H -0.06803 0.42114 0.89575
 H82 H -0.03152 0.47287 0.92089
 C83 C 0.06780 0.43538 1.07554
 C84 C -0.08882 0.58321 1.06780
 C85 C -0.09394 0.40373 0.95151
 C86 C 0.03812 0.58068 0.90650
 C87 C 1.06426 0.01970 0.56548
 H88 H 1.07089 0.04832 0.56104
 C89 C 1.08432 -0.00025 0.59348
 H90 H 1.10692 0.01320 0.60993
 C91 C 1.02682 -0.03230 0.54894
 H92 H 1.00371 -0.04448 0.53218
 C93 C 1.04596 -0.05328 0.57694
 H94 H 1.03732 -0.08152 0.58131
 N95 N 1.03648 0.00346 0.54357
 C96 C 1.03193 0.08447 0.44894
 H97 H 1.00122 0.09039 0.45021
 C98 C 1.05654 0.10307 0.42192
 H99 H 1.04455 0.12382 0.40307
 C100 C 1.08454 0.05027 0.47237
 H101 H 1.09511 0.02902 0.49141
 C102 C 1.11013 0.06792 0.44547
 H103 H 1.14023 0.05996 0.44425
 Zn104 Zn 1.01016 0.03382 0.50783
 N105 N 1.04628 0.05897 0.47378
 C106 C 0.99384 0.10183 0.53818
 N107 N 0.98250 0.06633 0.53753
 C108 C 0.95307 0.05222 0.56084
 C109 C 0.93359 0.07407 0.58600
 C110 C 0.97537 0.12460 0.56318
 C111 C 0.99114 -0.02014 0.45667
 C112 C 0.96849 -0.03872 0.43005
 C113 C 0.91494 -0.00027 0.44348
 C114 C 0.93841 0.01716 0.47044
 N115 N 0.97581 0.00706 0.47637
 H116 H 1.01805 0.11231 0.52031
 H117 H 0.94527 0.02372 0.56037
 H118 H 0.91085 0.06217 0.60498
 H119 H 0.98505 0.15268 0.56373
 H120 H 1.02133 -0.02687 0.46108
 H121 H 0.98135 -0.05986 0.41406
 H122 H 0.88551 0.00851 0.43833
 H123 H 0.92721 0.03962 0.48544
 C124 C 1.09624 0.09475 0.41971
 C125 C 1.07518 -0.03728 0.59971
 C126 C 0.93010 -0.02844 0.42281
 C127 C 0.94504 0.11068 0.58772
 C128 C 0.18535 0.27688 1.17258
 C129 C 0.17104 0.30664 1.15150
 C130 C 0.18193 0.31282 1.11218
 C131 C 0.20706 0.28921 1.09470
 C132 C 0.22015 0.25899 1.11553
 C133 C 0.20915 0.25218 1.15460
 C134 C 0.16646 0.34172 1.09059
 C135 C 0.13896 0.36360 1.10741
 C136 C 0.12809 0.35743 1.14673
 C137 C 0.14479 0.32945 1.16876
 C138 C 0.09963 0.37852 1.16302
 C139 C 0.08086 0.40445 1.14019
 C140 C 0.09082 0.41052 1.10076
 C141 C 0.12095 0.39059 1.08501
 H142 H 0.17692 0.27226 1.20272
 H143 H 0.21558 0.29345 1.06454
 H144 H 0.23802 0.24042 1.10062
 H145 H 0.17461 0.34626 1.06033
 H146 H 0.13620 0.32457 1.19886
 H147 H 0.09083 0.37405 1.19308
 H148 H 0.05746 0.41873 1.15324
 H149 H 0.12976 0.39533 1.05500
 C150 C -0.17140 0.74566 1.18112
 C151 C -0.15175 0.71734 1.16491
 C152 C -0.11147 0.71343 1.17215
 C153 C -0.09143 0.73834 1.19490
 C154 C -0.11097 0.76711 1.20997
 C155 C -0.15121 0.77098 1.20353
 C156 C -0.09173 0.68516 1.15591
 C157 C -0.11147 0.66145 1.13147
 C158 C -0.15156 0.66581 1.12367
 C159 C -0.17160 0.69336 1.14090
 C160 C -0.17081 0.64291 1.09819
 C161 C -0.15048 0.61621 1.08017
 C162 C -0.11062 0.61123 1.08787
 C163 C -0.09152 0.63387 1.11411
 H164 H -0.20237 0.74841 1.17584
 H165 H -0.06046 0.73601 1.20039
 H166 H -0.09446 0.78668 1.22623
 H167 H -0.06085 0.68210 1.16159
 H168 H -0.20241 0.69660 1.13499
 H169 H -0.20145 0.64610 1.09159
 H170 H -0.16598 0.59999 1.05952
 H171 H -0.06107 0.63019 1.12108
 C172 C -0.20573 0.24653 0.84411
 C173 C -0.18717 0.27768 0.85794
 C174 C -0.17940 0.30792 0.83246
 C175 C -0.18947 0.30612 0.79333
 C176 C -0.20678 0.27456 0.77946
 C177 C -0.21547 0.24440 0.80466
 C178 C -0.16109 0.33923 0.84637
 C179 C -0.14913 0.34015 0.88510
 C180 C -0.15589 0.30947 0.91021
 C181 C -0.17544 0.27868 0.89668
 C182 C -0.14243 0.30988 0.94834
 C183 C -0.12218 0.34025 0.96151
 C184 C -0.11584 0.37140 0.93719
 C185 C -0.12989 0.37105 0.89894
 H186 H -0.21119 0.22326 0.86369
 H187 H -0.18355 0.32898 0.77333
 H188 H -0.21417 0.27384 0.74908
 H189 H -0.15543 0.36255 0.82688
 H190 H -0.18087 0.25526 0.91610
 H191 H -0.14691 0.28641 0.96783
 H192 H -0.11092 0.33890 0.99067
 H193 H -0.12599 0.39477 0.87977
 C194 C 0.15894 0.73570 0.78941
 C195 C 0.14213 0.70429 0.80751
 C196 C 0.16512 0.67380 0.81427
 C197 C 0.20457 0.67532 0.80257
 C198 C 0.22124 0.70699 0.78510
 C199 C 0.19863 0.73741 0.77861
 C200 C 0.14852 0.64266 0.83331
 C201 C 0.10951 0.64199 0.84645
 C202 C 0.08667 0.67256 0.83959
 C203 C 0.10297 0.70332 0.81982
 C204 C 0.04808 0.67223 0.85338
 C205 C 0.03237 0.64223 0.87454
 C206 C 0.05465 0.61156 0.88185
 C207 C 0.09320 0.61156 0.86714
 H208 H 0.14157 0.75932 0.78485
 H209 H 0.22267 0.65226 0.80752
 H210 H 0.25188 0.70798 0.77684
 H211 H 0.16617 0.61932 0.83867
 H212 H 0.08543 0.72680 0.81477
 H213 H 0.03028 0.69553 0.84859
 H214 H 0.00300 0.64359 0.88614
 H215 H 0.11068 0.58808 0.87206
 C216 C 1.20877 0.19236 0.24110
 C217 C 1.18391 0.17527 0.26932
 C218 C 1.14415 0.16786 0.26055
 C219 C 1.12985 0.17805 0.22394
 C220 C 1.15472 0.19534 0.19620
 C221 C 1.19425 0.20259 0.20456
 C222 C 1.11933 0.15035 0.28844
 C223 C 1.13359 0.14050 0.32518
 C224 C 1.17317 0.14834 0.33417
 C225 C 1.19815 0.16552 0.30612
 C226 C 1.18709 0.13885 0.37111
 C227 C 1.16210 0.12170 0.39890
 C228 C 1.12273 0.11341 0.39023
 C229 C 1.10880 0.12291 0.35309
 H230 H 1.23934 0.19794 0.24741
 H231 H 1.09949 0.17257 0.21672
 H232 H 1.14333 0.20272 0.16793
 H233 H 1.08890 0.14449 0.28160
 H234 H 1.22857 0.17135 0.31295
 H235 H 1.21728 0.14485 0.37860
 H236 H 1.17355 0.11530 0.42738
 H237 H 1.07877 0.11619 0.34562
 C238 C 1.18632 -0.17326 0.73874
 C239 C 1.16585 -0.15370 0.71038
 C240 C 1.15486 -0.17019 0.67573
 C241 C 1.16407 -0.20619 0.67038
 C242 C 1.18411 -0.22559 0.69902
 C243 C 1.19567 -0.20918 0.73314
 C244 C 1.13480 -0.15048 0.64711
 C245 C 1.12524 -0.11462 0.65290
 C246 C 1.13576 -0.09841 0.68784
 C247 C 1.15611 -0.11798 0.71626
 C248 C 1.12576 -0.06281 0.69381
 C249 C 1.10578 -0.04325 0.66537
 C250 C 1.09564 -0.05874 0.63018
 C251 C 1.10540 -0.09465 0.62428
 H252 H 1.19468 -0.16080 0.76541
 H253 H 1.15574 -0.21934 0.64412
 H254 H 1.19100 -0.25335 0.69452
 H255 H 1.12657 -0.16305 0.62044
 H256 H 1.16434 -0.10542 0.74295
 H257 H 1.13330 -0.05008 0.72055
 H258 H 1.09795 -0.01599 0.67116
 H259 H 1.09817 -0.10688 0.59719
 C260 C 0.84020 -0.14530 0.25787
 C261 C 0.85383 -0.12978 0.29178
 C262 C 0.86745 -0.15212 0.32256
 C263 C 0.86537 -0.18970 0.31960
 C264 C 0.85130 -0.20496 0.28590
 C265 C 0.83968 -0.18294 0.25424
 C266 C 0.88360 -0.13652 0.35541
 C267 C 0.88614 -0.09886 0.35788
 C268 C 0.87087 -0.07662 0.32782
 C269 C 0.85490 -0.09221 0.29494
 C270 C 0.87264 -0.03903 0.33076
 C271 C 0.89057 -0.02352 0.36253
 C272 C 0.90732 -0.04528 0.39169
 C273 C 0.90449 -0.08301 0.38951
 H274 H 0.83120 -0.12798 0.23379
 H275 H 0.87514 -0.20728 0.34313
 H276 H 0.85024 -0.23403 0.28416
 H277 H 0.89484 -0.15363 0.37866
 H278 H 0.84400 -0.07509 0.27152
 H279 H 0.86087 -0.02161 0.30812
 H280 H 0.89268 0.00561 0.36361
 H281 H 0.91710 -0.09991 0.41216
 C282 C 0.82275 0.20348 0.74789
 C283 C 0.83837 0.18728 0.71556
 C284 C 0.81362 0.16671 0.69171
 C285 C 0.77340 0.16386 0.69980
 C286 C 0.75799 0.18011 0.73204
 C287 C 0.78247 0.19938 0.75736
 C288 C 0.82958 0.14882 0.66061
 C289 C 0.87005 0.15110 0.65328
 C290 C 0.89461 0.17259 0.67651
 C291 C 0.87861 0.19058 0.70743
 C292 C 0.93496 0.17514 0.66895
 C293 C 0.95107 0.15579 0.63934
 C294 C 0.92717 0.13347 0.61680
 C295 C 0.88652 0.13165 0.62360
 H296 H 0.84247 0.21780 0.76683
 H297 H 0.75387 0.14867 0.68146
 H298 H 0.72673 0.17753 0.73726
 H299 H 0.81065 0.13257 0.64265
 H300 H 0.89759 0.20657 0.72560
 H301 H 0.95416 0.19156 0.68641
 H302 H 0.98247 0.15735 0.63490
 H303 H 0.86782 0.11480 0.60606
 C304 C 0.24873 1.16315 0.15509
 C305 C 0.28044 1.14410 0.14182
 C306 C 0.31762 1.16176 0.13706
 C307 C 0.32236 1.19823 0.14592
 C308 C 0.29043 1.21710 0.15888
 C309 C 0.25340 1.19976 0.16334
 C310 C 0.34925 1.14277 0.12318
 C311 C 0.34398 1.10648 0.11367
 C312 C 0.30673 1.08895 0.11859
 C313 C 0.27528 1.10781 0.13275
 C314 C 0.30136 1.05287 0.10891
 C315 C 0.33249 1.03424 0.09423
 C316 C 0.36975 1.05121 0.08913
 C317 C 0.37527 1.08745 0.09905
 H318 H 0.22008 1.14979 0.15820
 H319 H 0.35062 1.21223 0.14250
 H320 H 0.29444 1.24529 0.16530
 H321 H 0.37777 1.15630 0.11941
 H322 H 0.24671 1.09433 0.13637
 H323 H 0.27295 1.03912 0.11233
 H324 H 0.32716 1.00662 0.08618
 H325 H 0.40390 1.10077 0.09560
 C326 C 0.73444 1.15690 -0.18621
 C327 C 0.70462 1.13868 -0.16420
 C328 C 0.67815 1.15852 -0.14275
 C329 C 0.68155 1.19624 -0.14419
 C330 C 0.71096 1.21424 -0.16651
 C331 C 0.73806 1.19503 -0.18797
 C332 C 0.64884 1.14037 -0.12005
 C333 C 0.64546 1.10256 -0.11874
 C334 C 0.67149 1.08270 -0.14077
 C335 C 0.70103 1.10086 -0.16317
 C336 C 0.66760 1.04494 -0.13992
 C337 C 0.63844 1.02697 -0.11719
 C338 C 0.61287 1.04640 -0.09465
 C339 C 0.61650 1.08427 -0.09567
 H340 H 0.75556 1.14122 -0.20106
 H341 H 0.66137 1.21190 -0.12810
 H342 H 0.71217 1.24346 -0.16742
 H343 H 0.62874 1.15564 -0.10334
 H344 H 0.72119 1.08559 -0.17980
 H345 H 0.68724 1.02929 -0.15667
 H346 H 0.63635 0.99776 -0.11657
 H347 H 0.59659 1.09945 -0.07868
 C348 C 0.25750 0.78206 -0.18000
 C349 C 0.28926 0.80003 -0.16272
 C350 C 0.31477 0.82305 -0.18571
 C351 C 0.30881 0.82680 -0.22573
 C352 C 0.27720 0.80875 -0.24270
 C353 C 0.25083 0.78670 -0.22003
 C354 C 0.34533 0.84251 -0.16825
 C355 C 0.35061 0.83934 -0.12805
 C356 C 0.32582 0.81550 -0.10520
 C357 C 0.29532 0.79597 -0.12268
 C358 C 0.33149 0.81213 -0.06508
 C359 C 0.36073 0.83292 -0.04758
 C360 C 0.38469 0.85754 -0.06984
 C361 C 0.37982 0.86021 -0.11021
 H362 H 0.23725 0.76544 -0.16207
 H363 H 0.32823 0.84412 -0.24384
 H364 H 0.27292 0.81243 -0.27361
 H365 H 0.36451 0.86060 -0.18583
 H366 H 0.27593 0.77813 -0.10505
 H367 H 0.31286 0.79391 -0.04715
 H368 H 0.36379 0.83061 -0.01641
 H369 H 0.39852 0.87883 -0.12764
 C370 C 0.76244 0.82438 0.20859
 C371 C 0.73415 0.84020 0.18476
 C372 C 0.74385 0.85072 0.14592
 C373 C 0.78150 0.84517 0.13157
 C374 C 0.80925 0.82908 0.15535
 C375 C 0.79994 0.81851 0.19389
 C376 C 0.71574 0.86637 0.12192
 C377 C 0.67786 0.87129 0.13605
 C378 C 0.66802 0.86069 0.17478
 C379 C 0.69629 0.84536 0.19898
 C380 C 0.62997 0.86547 0.18857
 C381 C 0.60188 0.88047 0.16419
 C382 C 0.61134 0.89109 0.12559
 C383 C 0.64960 0.88655 0.11188
 H384 H 0.75531 0.81606 0.23834
 H385 H 0.78941 0.85307 0.10191
 H386 H 0.83818 0.82490 0.14380
 H387 H 0.72324 0.87444 0.09217
 H388 H 0.68877 0.83722 0.22871
 H389 H 0.62184 0.85740 0.21813
 H390 H 0.57256 0.88328 0.17541
 H391 H 0.65758 0.89523 0.08244
   
