data_POSCAR
  _audit_creation_date              2014-09-24
  _audit_creation_method            'ToBaCCo'
  _symmetry_space_group_name_H-M    'P1'
  _symmetry_Int_Tables_number       1
  _symmetry_cell_setting            triclinic
  loop_
  _symmetry_equiv_pos_as_xyz
 x,y,z
_cell_length_a 47.3383
_cell_length_b 47.3816
_cell_length_c 33.7737
_cell_angle_alpha 96.081200
_cell_angle_beta 85.020800
_cell_angle_gamma 87.245600
loop_
  _atom_site_label
  _atom_site_type_symbol
  _atom_site_fract_x
  _atom_site_fract_y
  _atom_site_fract_z
C1 C 0.61578 0.66203 0.63334
 N2 N 0.64231 0.65829 0.61412
 C3 C 0.66241 0.64131 0.62790
 N4 N 0.65551 0.62739 0.66036
 C5 C 0.62881 0.63055 0.67933
 N6 N 0.60931 0.64825 0.66581
 C7 C 0.87976 0.31611 0.12798
 N8 N 0.85284 0.31479 0.11695
 C9 C 0.83716 0.33884 0.11253
 N10 N 0.84832 0.36449 0.12021
 C11 C 0.87501 0.36626 0.13168
 N12 N 0.89073 0.34201 0.13503
 C13 C 0.40612 0.17553 -0.15673
 N14 N 0.41121 0.14878 -0.17549
 C15 C 0.39304 0.12819 -0.16826
 N16 N 0.36951 0.13464 -0.14223
 C17 C 0.36419 0.16141 -0.12335
 N18 N 0.38267 0.18173 -0.13060
 C19 C 0.09546 0.84988 0.36976
 N20 N 0.11206 0.84131 0.39772
 C21 C 0.13417 0.85659 0.40883
 N22 N 0.13961 0.88064 0.39177
 C23 C 0.12330 0.88972 0.36393
 N24 N 0.10128 0.87412 0.35302
 N25 N 0.07515 0.16492 0.13184
 N26 N 0.06383 0.14523 0.15180
 C27 C 0.03574 0.15186 0.16003
 C28 C 0.02937 0.17719 0.14482
 C29 C 0.05489 0.18484 0.12721
 H30 H 0.02107 0.13947 0.17628
 H31 H 0.05828 0.20319 0.11128
 Cu32 Cu 0.08737 0.11372 0.16650
 Cu33 Cu 0.11487 0.16273 0.11096
 Cu34 Cu 0.15765 0.10915 0.14023
 N35 N 0.11182 0.08257 0.18049
 N36 N 0.13939 0.08146 0.17070
 C37 C 0.15185 0.06028 0.18758
 C38 C 0.13106 0.04722 0.20908
 C39 C 0.10582 0.06175 0.20373
 H40 H 0.17450 0.05534 0.18555
 H41 H 0.08502 0.05855 0.21788
 N42 N 0.17170 0.13561 0.10299
 N43 N 0.15557 0.15666 0.09285
 C44 C 0.17110 0.17110 0.06736
 C45 C 0.19819 0.15827 0.06074
 C46 C 0.19781 0.13579 0.08372
 H47 H 0.16309 0.18904 0.05353
 H48 H 0.21528 0.12071 0.08617
 H49 H 0.12231 0.11936 0.11134
 H50 H 0.12785 0.14312 0.15762
 N51 N 0.40714 0.80287 0.61305
 N52 N 0.41897 0.81636 0.64279
 C53 C 0.44475 0.80389 0.64545
 C54 C 0.44952 0.78159 0.61538
 C55 C 0.42526 0.78155 0.59525
 H56 H 0.45934 0.81109 0.66679
 H57 H 0.42105 0.76697 0.56986
 Cu58 Cu 0.40093 0.85039 0.67309
 Cu59 Cu 0.36886 0.81387 0.60083
 Cu60 Cu 0.34090 0.87987 0.64467
 N61 N 0.38890 0.88983 0.68960
 N62 N 0.36521 0.90131 0.67921
 C63 C 0.36294 0.92910 0.69326
 C64 C 0.38674 0.93535 0.71293
 C65 C 0.40272 0.90990 0.71003
 H66 H 0.34606 0.94398 0.68771
 H67 H 0.42323 0.90634 0.72105
 N68 N 0.32010 0.85450 0.60875
 N69 N 0.33050 0.82906 0.59280
 C70 C 0.31122 0.81676 0.57057
 C71 C 0.28775 0.83551 0.57215
 C72 C 0.29414 0.85924 0.59650
 H73 H 0.31426 0.79600 0.55363
 H74 H 0.28074 0.87845 0.60482
 H75 H 0.37568 0.85642 0.61496
 H76 H 0.35420 0.83887 0.65364
 N77 N 0.93344 0.67554 0.35317
 N78 N 0.93854 0.66909 0.31428
 C79 C 0.95574 0.68799 0.29947
 C80 C 0.96221 0.70697 0.33095
 C81 C 0.94791 0.69832 0.36466
 H82 H 0.96326 0.68778 0.26826
 H83 H 0.94715 0.70850 0.39499
 Cu84 Cu 0.92328 0.63577 0.28720
 Cu85 Cu 0.90651 0.65503 0.38491
 Cu86 Cu 0.86087 0.61725 0.32733
 N87 N 0.90689 0.60086 0.26706
 N88 N 0.88172 0.59427 0.28167
 C89 C 0.87578 0.56882 0.26367
 C90 C 0.89872 0.55860 0.23685
 C91 C 0.91807 0.57961 0.23976
 H92 H 0.85703 0.55772 0.27166
 H93 H 0.93906 0.57914 0.22416
 N94 N 0.85100 0.63122 0.38391
 N95 N 0.86929 0.64340 0.40667
 C96 C 0.85742 0.64774 0.44468
 C97 C 0.83025 0.63809 0.44568
 C98 C 0.82686 0.62786 0.40659
 H99 H 0.86758 0.65767 0.46961
 H100 H 0.80864 0.61766 0.39572
 H101 H 0.89993 0.61882 0.34684
 H102 H 0.88417 0.65387 0.33665
 N103 N 0.56284 0.35228 -0.10397
 N104 N 0.55785 0.36547 -0.13519
 C105 C 0.53972 0.35079 -0.15677
 C106 C 0.53255 0.32745 -0.13751
 C107 C 0.54741 0.32915 -0.10392
 H108 H 0.53219 0.35669 -0.18426
 H109 H 0.54798 0.31404 -0.08208
 Cu110 Cu 0.57490 0.40101 -0.14362
 Cu111 Cu 0.59084 0.36513 -0.06804
 Cu112 Cu 0.63717 0.41235 -0.10686
 N113 N 0.59264 0.43684 -0.14679
 N114 N 0.61790 0.44081 -0.13451
 C115 C 0.62602 0.46654 -0.14308
 C116 C 0.60424 0.47953 -0.16067
 C117 C 0.58342 0.46011 -0.16247
 H118 H 0.64591 0.47536 -0.13619
 H119 H 0.56334 0.46250 -0.17515
 N120 N 0.64620 0.38908 -0.06404
 N121 N 0.62823 0.37185 -0.04858
 C122 C 0.64072 0.35846 -0.02092
 C123 C 0.66784 0.36781 -0.01862
 C124 C 0.67051 0.38736 -0.04626
 H125 H 0.63095 0.34256 -0.00443
 H126 H 0.68907 0.39884 -0.05382
 H127 H 0.59811 0.40656 -0.08171
 H128 H 0.61400 0.37589 -0.11716
 C129 C -0.05903 0.26683 0.14059
 C130 C -0.07175 0.24131 0.13874
 C131 C -0.10035 0.23911 0.13321
 C132 C -0.11646 0.26422 0.12940
 C133 C -0.10396 0.29106 0.13185
 C134 C -0.07469 0.29210 0.13784
 O135 O -0.03136 0.26425 0.14403
 C136 C -0.02650 0.23650 0.14452
 C137 C -0.05052 0.22146 0.14178
 C138 C -0.05006 0.19204 0.14167
 C139 C -0.02371 0.17757 0.14402
 C140 C 0.00144 0.19262 0.14563
 C141 C -0.00013 0.22254 0.14620
 H142 H -0.10986 0.21875 0.13134
 H143 H -0.13871 0.26261 0.12486
 H144 H -0.06406 0.31187 0.13934
 H145 H -0.06922 0.18062 0.13951
 H146 H -0.02277 0.15465 0.14333
 H147 H 0.01865 0.23463 0.14764
 C148 C 0.55133 0.71157 0.63362
 C149 C 0.54934 0.71204 0.59329
 C150 C 0.56929 0.69769 0.56444
 C151 C 0.59192 0.68199 0.57779
 C152 C 0.59372 0.68052 0.61924
 C153 C 0.57319 0.69573 0.64742
 O154 O 0.53054 0.72674 0.65628
 C155 C 0.51488 0.73689 0.62976
 C156 C 0.52519 0.72834 0.59076
 C157 C 0.51125 0.73579 0.55839
 C158 C 0.48584 0.75289 0.56667
 C159 C 0.47536 0.76253 0.60669
 C160 C 0.49015 0.75433 0.63858
 H161 H 0.56742 0.69842 0.53285
 H162 H 0.60747 0.67030 0.55594
 H163 H 0.57409 0.69509 0.67925
 H164 H 0.51954 0.72861 0.52792
 H165 H 0.47468 0.75911 0.54201
 H166 H 0.48244 0.76107 0.66942
 C167 C 1.04381 0.79324 0.36367
 C168 C 1.03096 0.79924 0.33034
 C169 C 1.03776 0.82221 0.30965
 C170 C 1.05883 0.83956 0.32367
 C171 C 1.07322 0.83334 0.35735
 C172 C 1.06525 0.80974 0.37761
 O173 O 1.03405 0.77067 0.37933
 C174 C 1.01476 0.76208 0.35516
 C175 C 1.01225 0.77865 0.32442
 C176 C 0.99412 0.77270 0.29470
 C177 C 0.97793 0.74873 0.29682
 C178 C 0.97971 0.73175 0.32878
 C179 C 0.99831 0.73865 0.35845
 H180 H 1.02723 0.82662 0.28359
 H181 H 1.06432 0.85738 0.30750
 H182 H 1.07534 0.80424 0.40355
 H183 H 0.99271 0.78585 0.27054
 H184 H 0.96372 0.74362 0.27398
 H185 H 1.00033 0.72580 0.38284
 C186 C 0.45265 0.23722 -0.14105
 C187 C 0.46386 0.23890 -0.17965
 C188 C 0.45724 0.22040 -0.21190
 C189 C 0.43831 0.19932 -0.20398
 C190 C 0.42603 0.19762 -0.16454
 C191 C 0.43322 0.21696 -0.13269
 O192 O 0.46254 0.25601 -0.11450
 C193 C 0.48026 0.27000 -0.13682
 C194 C 0.48161 0.26059 -0.17695
 C195 C 0.49857 0.27261 -0.20568
 C196 C 0.51485 0.29516 -0.19244
 C197 C 0.51435 0.30467 -0.15111
 C198 C 0.49677 0.29188 -0.12295
 H199 H 0.46656 0.22193 -0.24196
 H200 H 0.43293 0.18456 -0.22853
 H201 H 0.42446 0.21583 -0.10223
 H202 H 0.49922 0.26494 -0.23711
 H203 H 0.52835 0.30473 -0.21422
 H204 H 0.49583 0.29889 -0.09127
 C205 C 0.11942 -0.05009 0.30166
 C206 C 0.14401 -0.03737 0.31003
 C207 C 0.16216 -0.04725 0.33629
 C208 C 0.15477 -0.07136 0.35465
 C209 C 0.12974 -0.08553 0.34608
 C210 C 0.11182 -0.07445 0.31904
 O211 O 0.10505 -0.03700 0.27609
 C212 C 0.12106 -0.01567 0.26805
 C213 C 0.14525 -0.01514 0.28786
 C214 C 0.16547 0.00482 0.28308
 C215 C 0.16060 0.02510 0.25674
 C216 C 0.13564 0.02535 0.23628
 C217 C 0.11549 0.00472 0.24225
 H218 H 0.18135 -0.03674 0.34248
 H219 H 0.16896 -0.07913 0.37507
 H220 H 0.09250 -0.08433 0.31173
 H221 H 0.18441 0.00468 0.29887
 H222 H 0.17609 0.04088 0.25277
 H223 H 0.09639 0.00426 0.22677
 C224 C 0.62943 0.57622 -0.24876
 C225 C 0.60186 0.58000 -0.23183
 C226 C 0.58290 0.60098 -0.24121
 C227 C 0.59251 0.61849 -0.26985
 C228 C 0.62072 0.61472 -0.28894
 C229 C 0.63960 0.59355 -0.27722
 O230 O 0.64331 0.55375 -0.23765
 C231 C 0.62398 0.54306 -0.21342
 C232 C 0.59824 0.55835 -0.20898
 C233 C 0.57426 0.54968 -0.18789
 C234 C 0.57678 0.52397 -0.17110
 C235 C 0.60303 0.50773 -0.17531
 C236 C 0.62713 0.51770 -0.19613
 H237 H 0.56119 0.60329 -0.22777
 H238 H 0.57752 0.63448 -0.27777
 H239 H 0.66110 0.58961 -0.29117
 H240 H 0.55409 0.56180 -0.18555
 H241 H 0.55820 0.51648 -0.15532
 H242 H 0.64718 0.50528 -0.20070
 C243 C 0.38400 1.05297 0.78717
 C244 C 0.41187 1.04386 0.77611
 C245 C 0.43435 1.06122 0.78186
 C246 C 0.42784 1.08911 0.79981
 C247 C 0.39930 1.09892 0.81215
 C248 C 0.37708 1.08046 0.80575
 O249 O 0.36583 1.03328 0.77822
 C250 C 0.38262 1.01124 0.76132
 C251 C 0.41099 1.01656 0.75961
 C252 C 0.43231 0.99631 0.74372
 C253 C 0.42406 0.96947 0.72889
 C254 C 0.39491 0.96355 0.72968
 C255 C 0.37391 0.98483 0.74609
 H256 H 0.45610 1.05360 0.77269
 H257 H 0.44509 1.10293 0.80462
 H258 H 0.35509 1.08739 0.81451
 H259 H 0.45450 1.00098 0.74282
 H260 H 0.44038 0.95351 0.71611
 H261 H 0.35153 0.98087 0.74736
 C262 C 0.87874 0.44432 0.16551
 C263 C 0.90764 0.44676 0.16412
 C264 C 0.92703 0.42382 0.15186
 C265 C 0.91616 0.39732 0.14081
 C266 C 0.88640 0.39436 0.14179
 C267 C 0.86752 0.41838 0.15401
 O268 O 0.86390 0.46816 0.18012
 C269 C 0.88383 0.48611 0.18811
 C270 C 0.91097 0.47418 0.17863
 C271 C 0.93496 0.48913 0.18561
 C272 C 0.93078 0.51735 0.20352
 C273 C 0.90295 0.52987 0.21452
 C274 C 0.87920 0.51398 0.20616
 H275 H 0.94968 0.42613 0.15151
 H276 H 0.93088 0.37915 0.13161
 H277 H 0.84472 0.41677 0.15586
 H278 H 0.95612 0.47928 0.17816
 H279 H 0.94923 0.52902 0.21002
 H280 H 0.85769 0.52281 0.21408
 C281 C 0.30043 0.15422 -0.05055
 C282 C 0.29001 0.18205 -0.04305
 C283 C 0.30290 0.20407 -0.06042
 C284 C 0.32753 0.19709 -0.08659
 C285 C 0.33849 0.16845 -0.09526
 C286 C 0.32460 0.14674 -0.07690
 O287 O 0.28522 0.13657 -0.03069
 C288 C 0.26468 0.15361 -0.01034
 C289 C 0.26651 0.18162 -0.01703
 C290 C 0.24675 0.20294 0.00059
 C291 C 0.22417 0.19502 0.02611
 C292 C 0.22205 0.16630 0.03387
 C293 C 0.24273 0.14536 0.01540
 H294 H 0.29435 0.22583 -0.05399
 H295 H 0.33781 0.21395 -0.10046
 H296 H 0.33249 0.12472 -0.08263
 H297 H 0.24854 0.22483 -0.00528
 H298 H 0.20858 0.21129 0.04015
 H299 H 0.24149 0.12322 0.02027
 C300 C 0.72473 0.64013 0.54993
 C301 C 0.74698 0.63545 0.57250
 C302 C 0.74300 0.63168 0.61286
 C303 C 0.71495 0.63299 0.63069
 C304 C 0.69168 0.63850 0.60824
 C305 C 0.69676 0.64206 0.56721
 O306 O 0.73300 0.64268 0.51198
 C307 C 0.76110 0.63971 0.51059
 C308 C 0.77078 0.63551 0.54688
 C309 C 0.79955 0.63269 0.55228
 C310 C 0.81909 0.63410 0.51885
 C311 C 0.80956 0.63774 0.48093
 C312 C 0.78011 0.64058 0.47687
 H313 H 0.76082 0.62789 0.62999
 H314 H 0.71141 0.63035 0.66216
 H315 H 0.67946 0.64612 0.54922
 H316 H 0.80670 0.62961 0.58118
 H317 H 0.84158 0.63179 0.52232
 H318 H 0.77221 0.64370 0.44841
 C319 C 0.77046 0.35725 0.06488
 C320 C 0.75615 0.33286 0.06767
 C321 C 0.76688 0.30987 0.08531
 C322 C 0.79350 0.31208 0.10045
 C323 C 0.80863 0.33710 0.09805
 C324 C 0.79668 0.36007 0.08023
 O325 O 0.75719 0.37616 0.04562
 C326 C 0.73396 0.36345 0.03606
 C327 C 0.73220 0.33699 0.04904
 C328 C 0.70977 0.31987 0.04173
 C329 C 0.68837 0.33042 0.02002
 C330 C 0.68989 0.35752 0.00578
 C331 C 0.71307 0.37425 0.01418
 H332 H 0.75536 0.29076 0.08682
 H333 H 0.80233 0.29429 0.11393
 H334 H 0.80781 0.37929 0.07731
 H335 H 0.70890 0.29904 0.05205
 H336 H 0.67102 0.31713 0.01358
 H337 H 0.71490 0.39503 0.00395
 C338 C 0.19091 0.85502 0.48052
 C339 C 0.19269 0.82663 0.48581
 C340 C 0.17499 0.80720 0.46847
 C341 C 0.15493 0.81742 0.44428
 C342 C 0.15328 0.84649 0.43744
 C343 C 0.17140 0.86553 0.45635
 O344 O 0.21003 0.86987 0.49872
 C345 C 0.22438 0.85042 0.51570
 C346 C 0.21479 0.82357 0.50854
 C347 C 0.22792 0.79981 0.52167
 C348 C 0.25194 0.80394 0.54286
 C349 C 0.26202 0.83151 0.55090
 C350 C 0.24780 0.85508 0.53736
 H351 H 0.17685 0.78492 0.47290
 H352 H 0.14138 0.80250 0.42989
 H353 H 0.17079 0.88782 0.45176
 H354 H 0.22027 0.77881 0.51524
 H355 H 0.26262 0.78572 0.55309
 H356 H 0.25533 0.87627 0.54229
   
