data_POSCAR
  _audit_creation_date              2014-09-24
  _audit_creation_method            'ToBaCCo'
  _symmetry_space_group_name_H-M    'P1'
  _symmetry_Int_Tables_number       1
  _symmetry_cell_setting            triclinic
  loop_
  _symmetry_equiv_pos_as_xyz
 x,y,z
_cell_length_a 31.3697
_cell_length_b 31.1099
_cell_length_c 28.9596
_cell_angle_alpha 90.003900
_cell_angle_beta 89.999800
_cell_angle_gamma 90.069100
loop_
  _atom_site_label
  _atom_site_type_symbol
  _atom_site_fract_x
  _atom_site_fract_y
  _atom_site_fract_z
C1 C 0.09310 0.31074 -0.04266
 C2 C 0.11425 0.31213 0.00010
 C3 C 0.09223 0.31178 0.04200
 C4 C 0.04723 0.31336 0.04193
 C5 C 0.02474 0.31342 -0.00057
 C6 C 0.04766 0.31293 -0.04302
 C7 C 0.02459 0.31864 -0.08415
 C8 C -0.01963 0.32061 -0.08416
 C9 C -0.04331 0.31665 -0.04309
 C10 C -0.02078 0.31505 -0.00055
 C11 C 0.02430 0.31741 0.08326
 C12 C -0.01988 0.31930 0.08327
 C13 C -0.04346 0.31617 0.04203
 C14 C -0.08884 0.31782 0.04195
 C15 C -0.11000 0.32198 -0.00060
 C16 C -0.08866 0.31823 -0.04311
 H17 H 0.04028 0.32408 -0.11680
 H18 H -0.03470 0.32761 -0.11681
 H19 H 0.04034 0.32090 0.11611
 H20 H -0.03491 0.32542 0.11613
 H21 H 0.14872 0.30962 0.00124
 H22 H -0.14454 0.32271 -0.00067
 C23 C 0.40652 0.81481 0.54244
 C24 C 0.38470 0.81473 0.50030
 C25 C 0.40631 0.81487 0.45803
 C26 C 0.45141 0.81722 0.45767
 C27 C 0.47410 0.81767 0.50009
 C28 C 0.45160 0.81713 0.54260
 C29 C 0.47476 0.82003 0.58404
 C30 C 0.51909 0.82046 0.58395
 C31 C 0.54214 0.81803 0.54242
 C32 C 0.51946 0.81814 0.50000
 C33 C 0.47441 0.82024 0.41615
 C34 C 0.51875 0.82076 0.41606
 C35 C 0.54197 0.81823 0.45748
 C36 C 0.58710 0.81687 0.45765
 C37 C 0.60890 0.81708 0.49982
 C38 C 0.58727 0.81661 0.54208
 H39 H 0.45890 0.82271 0.61706
 H40 H 0.53501 0.82346 0.61690
 H41 H 0.45842 0.82298 0.38321
 H42 H 0.53455 0.82388 0.38305
 H43 H 0.35026 0.81149 0.50040
 H44 H 0.64339 0.81458 0.49973
 C45 C 0.90766 0.68851 -0.04159
 C46 C 0.88598 0.68874 0.00059
 C47 C 0.90770 0.68769 0.04275
 C48 C 0.95271 0.68451 0.04299
 C49 C 0.97534 0.68412 0.00060
 C50 C 0.95269 0.68544 -0.04186
 C51 C 0.97559 0.68221 -0.08336
 C52 C 1.01983 0.68015 -0.08336
 C53 C 1.04310 0.68157 -0.04189
 C54 C 1.02072 0.68242 0.00065
 C55 C 0.97557 0.67995 0.08435
 C56 C 1.01985 0.67799 0.08440
 C57 C 1.04347 0.68154 0.04318
 C58 C 1.08898 0.68137 0.04287
 C59 C 1.11007 0.67865 0.00008
 C60 C 1.08814 0.68069 -0.04190
 H61 H 0.95956 0.68025 -0.11635
 H62 H 1.03548 0.67648 -0.11639
 H63 H 0.95941 0.67664 0.11715
 H64 H 1.03495 0.67202 0.11725
 H65 H 0.85159 0.69244 0.00064
 H66 H 1.14462 0.67943 -0.00101
 C67 C 0.41288 0.18382 0.45755
 C68 C 0.39108 0.18342 0.49971
 C69 C 0.41269 0.18380 0.54200
 C70 C 0.45784 0.18251 0.54234
 C71 C 0.48054 0.18256 0.49991
 C72 C 0.45802 0.18255 0.45739
 C73 C 0.48124 0.18015 0.41596
 C74 C 0.52558 0.18069 0.41605
 C75 C 0.54859 0.18361 0.45756
 C76 C 0.52591 0.18306 0.50000
 C77 C 0.48092 0.18004 0.58386
 C78 C 0.52527 0.18049 0.58394
 C79 C 0.54843 0.18346 0.54251
 C80 C 0.59354 0.18569 0.54234
 C81 C 0.61533 0.18589 0.50017
 C82 C 0.59370 0.18591 0.45790
 H83 H 0.46545 0.17709 0.38294
 H84 H 0.54156 0.17804 0.38310
 H85 H 0.46500 0.17697 0.61680
 H86 H 0.54113 0.17775 0.61695
 H87 H 0.35658 0.18582 0.49962
 H88 H 0.64977 0.18906 0.50025
 C89 C 0.68389 0.09306 0.04193
 C90 C 0.68367 0.11522 -0.00001
 C91 C 0.68485 0.09381 -0.04274
 C92 C 0.68222 0.04802 -0.04302
 C93 C 0.68172 0.02497 -0.00055
 C94 C 0.68192 0.04769 0.04190
 C95 C 0.67773 0.02462 0.08325
 C96 C 0.67592 -0.01994 0.08331
 C97 C 0.67925 -0.04374 0.04211
 C98 C 0.68015 -0.02092 -0.00048
 C99 C 0.67622 0.02472 -0.08409
 C100 C 0.67427 -0.01988 -0.08404
 C101 C 0.67857 -0.04369 -0.04298
 C102 C 0.67754 -0.08944 -0.04295
 C103 C 0.67414 -0.11097 -0.00040
 C104 C 0.67816 -0.08951 0.04210
 H105 H 0.67417 0.04082 0.11606
 H106 H 0.66982 -0.03512 0.11617
 H107 H 0.67066 0.04054 -0.11671
 H108 H 0.66712 -0.03515 -0.11662
 H109 H 0.68655 0.14995 0.00107
 H110 H 0.67384 -0.14580 -0.00041
 C111 C 0.18146 0.40531 0.54251
 C112 C 0.18185 0.38334 0.50033
 C113 C 0.18170 0.40515 0.45807
 C114 C 0.17897 0.45060 0.45774
 C115 C 0.17830 0.47347 0.50016
 C116 C 0.17881 0.45077 0.54267
 C117 C 0.17564 0.47412 0.58408
 C118 C 0.17517 0.51883 0.58399
 C119 C 0.17782 0.54210 0.54249
 C120 C 0.17778 0.51921 0.50007
 C121 C 0.17587 0.47378 0.41623
 C122 C 0.17532 0.51848 0.41614
 C123 C 0.17789 0.54190 0.45756
 C124 C 0.17956 0.58740 0.45770
 C125 C 0.17931 0.60941 0.49986
 C126 C 0.17951 0.58762 0.54215
 H127 H 0.17284 0.45811 0.61708
 H128 H 0.17203 0.53489 0.61692
 H129 H 0.17316 0.45765 0.38329
 H130 H 0.17220 0.53441 0.38313
 H131 H 0.18543 0.34866 0.50041
 H132 H 0.18213 0.64416 0.49976
 C133 C 0.31627 0.90685 0.04211
 C134 C 0.31663 0.88462 0.00022
 C135 C 0.31545 0.90595 -0.04256
 C136 C 0.31794 0.95175 -0.04290
 C137 C 0.31831 0.97487 -0.00047
 C138 C 0.31813 0.95222 0.04202
 C139 C 0.32222 0.97536 0.08333
 C140 C 0.32394 1.01992 0.08333
 C141 C 0.32057 1.04366 0.04209
 C142 C 0.31973 1.02077 -0.00047
 C143 C 0.32389 0.97502 -0.08400
 C144 C 0.32562 1.01963 -0.08402
 C145 C 0.32122 1.04348 -0.04300
 C146 C 0.32211 1.08922 -0.04305
 C147 C 0.32548 1.11083 -0.00055
 C148 C 0.32155 1.08944 0.04200
 H149 H 0.32579 0.95922 0.11617
 H150 H 0.32999 1.03516 0.11616
 H151 H 0.32958 0.95920 -0.11659
 H152 H 0.33267 1.03490 -0.11663
 H153 H 0.31383 0.84988 0.00135
 H154 H 0.32568 1.14567 -0.00063
 C155 C 0.82019 0.41266 0.45761
 C156 C 0.82037 0.39066 0.49978
 C157 C 0.82021 0.41245 0.54208
 C158 C 0.82200 0.45797 0.54242
 C159 C 0.82210 0.48085 0.50000
 C160 C 0.82195 0.45815 0.45748
 C161 C 0.82458 0.48157 0.41607
 C162 C 0.82413 0.52627 0.41616
 C163 C 0.82109 0.54946 0.45768
 C164 C 0.82171 0.52659 0.50010
 C165 C 0.82472 0.48123 0.58393
 C166 C 0.82437 0.52594 0.58401
 C167 C 0.82127 0.54930 0.54260
 C168 C 0.81872 0.59476 0.54245
 C169 C 0.81839 0.61673 0.50028
 C170 C 0.81845 0.59492 0.45801
 H171 H 0.82768 0.46565 0.38306
 H172 H 0.82687 0.54241 0.38323
 H173 H 0.82783 0.46517 0.61686
 H174 H 0.82722 0.54195 0.61701
 H175 H 0.81750 0.35590 0.49968
 H176 H 0.81486 0.65142 0.50036
 O177 O 0.25046 0.18424 0.21860
 O178 O 0.20889 0.26078 0.30466
 O179 O 0.19037 0.24166 0.21903
 O180 O 0.26882 0.20350 0.30423
 O181 O 0.31486 0.25214 0.27953
 O182 O 0.23602 0.29104 0.19520
 O183 O 0.25505 0.30959 0.28064
 O184 O 0.29557 0.23362 0.19362
 Cu185 Cu 0.22503 0.21761 0.26404
 Cu186 Cu 0.28004 0.27647 0.23484
 C187 C 0.27954 0.19620 0.19092
 C188 C 0.22535 0.29799 0.30772
 C189 C 0.20002 0.27256 0.19232
 C190 C 0.30497 0.22174 0.30680
 O191 O 0.74946 0.81588 0.21871
 O192 O 0.79094 0.73942 0.30489
 O193 O 0.80952 0.75839 0.21932
 O194 O 0.73112 0.79684 0.30440
 O195 O 0.68502 0.74820 0.27983
 O196 O 0.76371 0.70914 0.19549
 O197 O 0.74473 0.69063 0.28091
 O198 O 0.70420 0.76655 0.19390
 Cu199 Cu 0.77486 0.78258 0.26423
 Cu200 Cu 0.71974 0.72376 0.23513
 C201 C 0.72030 0.80393 0.19110
 C202 C 0.77447 0.70221 0.30794
 C203 C 0.79978 0.72750 0.19263
 C204 C 0.69495 0.77864 0.30701
 O205 O 0.81504 0.24893 0.21867
 O206 O 0.73770 0.20927 0.30460
 O207 O 0.75619 0.19010 0.21898
 O208 O 0.79641 0.26797 0.30428
 O209 O 0.74964 0.31576 0.27954
 O210 O 0.70867 0.23752 0.19510
 O211 O 0.69077 0.25719 0.28052
 O212 O 0.76751 0.29581 0.19364
 Cu213 Cu 0.78108 0.22428 0.26405
 Cu214 Cu 0.72448 0.28143 0.23479
 C215 C 0.80411 0.27858 0.19097
 C216 C 0.70131 0.22692 0.30760
 C217 C 0.72589 0.20071 0.19223
 C218 C 0.77944 0.30492 0.30684
 O219 O 0.29146 0.76265 0.19549
 O220 O 0.25054 0.68447 0.27999
 O221 O 0.23271 0.70432 0.19411
 O222 O 0.30930 0.74318 0.28093
 O223 O 0.26229 0.79109 0.30487
 O224 O 0.18499 0.75102 0.21914
 O225 O 0.20372 0.73223 0.30468
 O226 O 0.24377 0.80998 0.21917
 Cu227 Cu 0.27569 0.71880 0.23524
 Cu228 Cu 0.21894 0.77588 0.26437
 C229 C 0.27414 0.79939 0.19250
 C230 C 0.22070 0.69529 0.30724
 C231 C 0.19603 0.72136 0.19148
 C232 C 0.29871 0.77351 0.30791
 O233 O 0.75617 0.18923 0.78089
 O234 O 0.79640 0.26709 0.69516
 O235 O 0.81518 0.24831 0.78085
 O236 O 0.73753 0.20851 0.69538
 O237 O 0.69064 0.25626 0.71994
 O238 O 0.76812 0.29595 0.80530
 O239 O 0.74951 0.31489 0.71961
 O240 O 0.70986 0.23752 0.80556
 Cu241 Cu 0.78105 0.22347 0.73566
 Cu242 Cu 0.72481 0.28096 0.76496
 C243 C 0.72660 0.20048 0.80831
 C244 C 0.77934 0.30401 0.69238
 C245 C 0.80458 0.27847 0.80808
 C246 C 0.70107 0.22604 0.69273
 O247 O 0.30985 0.74364 0.72015
 O248 O 0.23187 0.70323 0.80475
 O249 O 0.25094 0.68508 0.71924
 O250 O 0.29026 0.76191 0.80595
 O251 O 0.24467 0.81069 0.78084
 O252 O 0.20387 0.73294 0.69533
 O253 O 0.18561 0.75202 0.78115
 O254 O 0.26294 0.79130 0.69542
 Cu255 Cu 0.27548 0.71868 0.76491
 Cu256 Cu 0.21954 0.77655 0.73577
 C257 C 0.29941 0.77383 0.69289
 C258 C 0.19572 0.72128 0.80783
 C259 C 0.22096 0.69604 0.69226
 C260 C 0.27390 0.79915 0.80852
 O261 O 0.25423 0.30962 0.72001
 O262 O 0.29596 0.23288 0.80535
 O263 O 0.31411 0.25218 0.71963
 O264 O 0.23625 0.28964 0.80566
 O265 O 0.18971 0.24146 0.78101
 O266 O 0.26807 0.20342 0.69524
 O267 O 0.25009 0.18393 0.78097
 O268 O 0.20824 0.26085 0.69550
 Cu269 Cu 0.27975 0.27600 0.76502
 Cu270 Cu 0.22440 0.21748 0.73578
 C271 C 0.22455 0.29814 0.69284
 C272 C 0.27971 0.19559 0.80815
 C273 C 0.30417 0.22177 0.69242
 C274 C 0.20001 0.27161 0.80843
 O275 O 0.74536 0.69033 0.71958
 O276 O 0.70402 0.76651 0.80575
 O277 O 0.68545 0.74770 0.71985
 O278 O 0.76389 0.70947 0.80504
 O279 O 0.80955 0.75887 0.78127
 O280 O 0.73150 0.79637 0.69525
 O281 O 0.74912 0.81596 0.78088
 O282 O 0.79153 0.73916 0.69562
 Cu283 Cu 0.72003 0.72361 0.76495
 Cu284 Cu 0.77505 0.78252 0.73585
 C285 C 0.77517 0.70190 0.69265
 C286 C 0.71986 0.80400 0.80835
 C287 C 0.69539 0.77806 0.69256
 C288 C 0.79982 0.72809 0.80810
 N289 N 0.32759 0.15665 0.08325
 C290 C 0.31442 0.11495 0.08190
 N291 N 0.29034 0.10019 0.11763
 N292 N 0.28012 0.12564 0.15294
 C293 C 0.29360 0.16707 0.15406
 N294 N 0.31766 0.18206 0.11865
 N295 N 0.78111 0.60807 0.61581
 C296 C 0.81115 0.62045 0.58475
 N297 N 0.83014 0.65940 0.59019
 N298 N 0.81968 0.68482 0.62544
 C299 C 0.78962 0.67237 0.65640
 N300 N 0.77066 0.63346 0.65105
 N301 N 0.67210 0.84337 0.08348
 C302 C 0.68533 0.88505 0.08203
 N303 N 0.70950 0.89983 0.11768
 N304 N 0.71976 0.87443 0.15300
 C305 C 0.70623 0.83302 0.15423
 N306 N 0.68207 0.81800 0.11890
 N307 N 0.16990 0.34072 0.59025
 C308 C 0.18896 0.37963 0.58483
 N309 N 0.21893 0.39200 0.61598
 N310 N 0.22926 0.36662 0.65128
 C311 C 0.21023 0.32774 0.65659
 N312 N 0.18024 0.31531 0.62554
 N313 N 0.89968 0.28686 0.11773
 C314 C 0.88570 0.31136 0.08189
 N315 N 0.84471 0.32565 0.08316
 N316 N 0.81924 0.31639 0.11859
 C317 C 0.83343 0.29190 0.15410
 N318 N 0.87415 0.27730 0.15306
 N319 N 0.39248 0.77714 0.61582
 C320 C 0.38096 0.80772 0.58477
 N321 N 0.34294 0.82791 0.59034
 N322 N 0.31757 0.81808 0.62568
 C323 C 0.32913 0.78748 0.65664
 N324 N 0.36713 0.76730 0.65118
 N325 N 0.15588 0.67492 0.08325
 C326 C 0.11447 0.68796 0.08267
 N327 N 0.10004 0.71137 0.11913
 N328 N 0.12560 0.72116 0.15437
 C329 C 0.16675 0.70782 0.15471
 N330 N 0.18136 0.68435 0.11860
 N331 N 0.60777 0.22296 0.61594
 C332 C 0.61920 0.19253 0.58468
 N333 N 0.65726 0.17233 0.59001
 N334 N 0.68275 0.18201 0.62531
 C335 C 0.67128 0.21247 0.65647
 N336 N 0.63325 0.23264 0.65125
 N337 N 0.68057 0.16137 0.91698
 C338 C 0.69199 0.11919 0.91736
 N339 N 0.71419 0.10376 0.88054
 N340 N 0.72446 0.12924 0.84521
 C341 C 0.71272 0.17121 0.84512
 N342 N 0.69039 0.18672 0.88153
 N343 N 0.21696 0.60149 0.38433
 C344 C 0.18666 0.61320 0.41537
 N345 N 0.16679 0.65163 0.40981
 N346 N 0.17665 0.67719 0.37447
 C347 C 0.20695 0.66540 0.34350
 N348 N 0.22681 0.62701 0.34897
 N349 N 0.31973 0.83828 0.91731
 C350 C 0.30839 0.88049 0.91757
 N351 N 0.28634 0.89589 0.88066
 N352 N 0.27615 0.87038 0.84533
 C353 C 0.28779 0.82838 0.84535
 N354 N 0.30996 0.81288 0.88188
 N355 N 0.83305 0.34845 0.40968
 C356 C 0.81315 0.38686 0.41525
 N357 N 0.78295 0.39862 0.38411
 N358 N 0.77323 0.37315 0.34866
 C359 C 0.79312 0.33478 0.34318
 N360 N 0.82331 0.32295 0.37425
 N361 N 0.10371 0.28151 0.88056
 C362 C 0.11847 0.30414 0.91748
 N363 N 0.16006 0.31663 0.91723
 N364 N 0.18546 0.30744 0.88180
 C365 C 0.17062 0.28469 0.84527
 N366 N 0.12925 0.27187 0.84523
 N367 N 0.60181 0.77986 0.38404
 C368 C 0.61281 0.81051 0.41528
 N369 N 0.65048 0.83148 0.40983
 N370 N 0.67602 0.82233 0.37443
 C371 C 0.66498 0.79167 0.34328
 N372 N 0.62733 0.77072 0.34863
 N373 N 0.89309 0.72617 0.88510
 C374 C 0.88195 0.69541 0.91615
 N375 N 0.84415 0.67471 0.91065
 N376 N 0.81860 0.68420 0.87536
 C377 C 0.82974 0.71498 0.84441
 N378 N 0.86753 0.73568 0.84981
 N379 N 0.39807 0.22083 0.38394
 C380 C 0.38715 0.19016 0.41517
 N381 N 0.34954 0.16908 0.40969
 N382 N 0.32399 0.17815 0.37427
 C383 C 0.33496 0.20883 0.34312
 N384 N 0.37255 0.22990 0.34850
 N385 N 0.70809 0.90018 0.88112
 C386 C 0.68438 0.88520 0.91703
 N387 N 0.67156 0.84340 0.91582
 N388 N 0.68160 0.81803 0.88044
 C389 C 0.70543 0.83318 0.84493
 N390 N 0.71844 0.87475 0.84584
 N391 N 0.21953 0.39174 0.38479
 C392 C 0.18950 0.37933 0.41586
 N393 N 0.17058 0.34035 0.41043
 N394 N 0.18106 0.31494 0.37518
 C395 C 0.21107 0.32743 0.34418
 N396 N 0.23000 0.36637 0.34953
 N397 N 0.29138 0.09948 0.88108
 C398 C 0.31522 0.11448 0.91689
 N399 N 0.32815 0.15624 0.91553
 N400 N 0.31810 0.18155 0.88011
 C401 C 0.29412 0.16639 0.84472
 N402 N 0.28099 0.12485 0.84577
 N403 N 0.82950 0.65974 0.41042
 C404 C 0.81061 0.62074 0.41584
 N405 N 0.78050 0.60837 0.38485
 N406 N 0.76993 0.63379 0.34967
 C407 C 0.78882 0.67274 0.34433
 N408 N 0.81892 0.68519 0.37525
 N409 N 0.10322 0.71933 0.88561
 C410 C 0.11381 0.68764 0.91575
 N411 N 0.15109 0.66627 0.90937
 N412 N 0.17660 0.67604 0.87410
 C413 C 0.16590 0.70772 0.84403
 N414 N 0.12867 0.72906 0.85032
 N415 N 0.65766 0.17301 0.41037
 C416 C 0.61950 0.19304 0.41568
 N417 N 0.60803 0.22352 0.38450
 N418 N 0.63353 0.23337 0.34925
 C419 C 0.67164 0.21335 0.34403
 N420 N 0.68317 0.18286 0.37513
 N421 N 0.90026 0.28754 0.88098
 C422 C 0.88608 0.31191 0.91684
 N423 N 0.84505 0.32602 0.91554
 N424 N 0.81965 0.31661 0.88013
 C425 C 0.83397 0.29212 0.84467
 N426 N 0.87478 0.27779 0.84567
 N427 N 0.39205 0.77726 0.38464
 C428 C 0.38052 0.80773 0.41582
 N429 N 0.34231 0.82764 0.41055
 N430 N 0.31678 0.81770 0.37536
 C431 C 0.32836 0.78722 0.34426
 N432 N 0.36654 0.76732 0.34944
 N433 N 0.32898 0.84295 0.09053
 C434 C 0.30907 0.88131 0.08461
 N435 N 0.27852 0.89311 0.11534
 N436 N 0.26838 0.86765 0.15065
 C437 C 0.28820 0.82928 0.15640
 N438 N 0.31883 0.81748 0.12584
 N439 N 0.78308 0.39809 0.61560
 C440 C 0.81317 0.38641 0.58431
 N441 N 0.83287 0.34784 0.58954
 N442 N 0.82307 0.32214 0.62479
 C443 C 0.79298 0.33390 0.65601
 N444 N 0.77329 0.37242 0.65085
 N445 N 0.67119 0.15708 0.09019
 C446 C 0.69103 0.11867 0.08440
 N447 N 0.72148 0.10686 0.11524
 N448 N 0.73159 0.13236 0.15054
 C449 C 0.71183 0.17079 0.15616
 N450 N 0.68130 0.18259 0.12548
 N451 N 0.16702 0.65227 0.58962
 C452 C 0.18665 0.61366 0.58435
 N453 N 0.21684 0.60197 0.61553
 N454 N 0.22678 0.62766 0.65071
 C455 C 0.20716 0.66622 0.65591
 N456 N 0.17698 0.67799 0.62481
 N457 N 0.89358 0.72451 0.11656
 C458 C 0.88211 0.69424 0.08510
 N459 N 0.84400 0.67404 0.09018
 N460 N 0.81841 0.68362 0.12539
 C461 C 0.82982 0.71401 0.15666
 N462 N 0.86797 0.73414 0.15176
 N463 N 0.39758 0.22073 0.61563
 C464 C 0.38673 0.19015 0.58426
 N465 N 0.34897 0.16925 0.58943
 N466 N 0.32324 0.17836 0.62471
 C467 C 0.33416 0.20894 0.65601
 N468 N 0.37188 0.22983 0.65091
 N469 N 0.10675 0.27441 0.11544
 C470 C 0.11773 0.30534 0.08453
 N471 N 0.15534 0.32636 0.09025
 N472 N 0.18089 0.31691 0.12554
 C473 C 0.16995 0.28587 0.15628
 N474 N 0.13230 0.26495 0.15074
 N475 N 0.65086 0.83091 0.58972
 C476 C 0.61314 0.81001 0.58432
 N477 N 0.60219 0.77931 0.61551
 N478 N 0.62778 0.77006 0.65085
 C479 C 0.66546 0.79097 0.65617
 N480 N 0.67647 0.82166 0.62505
   
