data_POSCAR
  _audit_creation_date              2014-09-24
  _audit_creation_method            'ToBaCCo'
  _symmetry_space_group_name_H-M    'P1'
  _symmetry_Int_Tables_number       1
  _symmetry_cell_setting            triclinic
  loop_
  _symmetry_equiv_pos_as_xyz
 x,y,z
_cell_length_a 23.6062
_cell_length_b 24.5842
_cell_length_c 23.5986
_cell_angle_alpha 90.022200
_cell_angle_beta 90.047700
_cell_angle_gamma 89.976700
loop_
  _atom_site_label
  _atom_site_type_symbol
  _atom_site_fract_x
  _atom_site_fract_y
  _atom_site_fract_z
C1 C 0.24981 0.25003 0.24999
 C2 C 0.74998 0.74994 0.24993
 C3 C 0.75010 0.24995 0.75030
 C4 C 0.25095 0.75103 0.74895
 C5 C 0.08486 0.07656 0.01873
 H6 H 0.08926 0.07463 -0.02686
 C7 C 0.11938 0.11142 0.05019
 H8 H 0.15041 0.13618 0.02854
 C9 C 0.03818 0.04714 0.10217
 H10 H 0.00575 0.02287 0.12217
 C11 C 0.07136 0.08193 0.13515
 H12 H 0.06491 0.08369 0.18055
 N13 N 0.04609 0.04446 0.04512
 C14 C 0.02061 -0.07901 -0.08533
 H15 H -0.02497 -0.07711 -0.08971
 C16 C 0.05207 -0.11345 -0.12029
 H17 H 0.03044 -0.13796 -0.15163
 C18 C 0.10404 -0.04984 -0.03836
 H19 H 0.12405 -0.02577 -0.00571
 C20 C 0.13702 -0.08427 -0.07194
 H21 H 0.18242 -0.08598 -0.06553
 Zn22 Zn 0.00105 -0.00137 -0.00095
 N23 N 0.04699 -0.04718 -0.04623
 C24 C -0.03689 0.04735 -0.10374
 N25 N -0.04415 0.04467 -0.04661
 C26 C -0.08267 0.07677 -0.01975
 C27 C -0.11765 0.11154 -0.05078
 C28 C -0.07054 0.08208 -0.13630
 C29 C -0.01851 -0.07917 0.08305
 C30 C -0.05000 -0.11341 0.11812
 C31 C -0.13502 -0.08363 0.07024
 C32 C -0.10200 -0.04946 0.03651
 N33 N -0.04490 -0.04717 0.04413
 H34 H -0.00469 0.02305 -0.12411
 H35 H -0.08656 0.07482 0.02588
 H36 H -0.14851 0.13627 -0.02878
 H37 H -0.06463 0.08382 -0.18177
 H38 H 0.02710 -0.07751 0.08726
 H39 H -0.02836 -0.13807 0.14931
 H40 H -0.18046 -0.08506 0.06405
 H41 H -0.12202 -0.02524 0.00400
 C42 C 0.11103 -0.11591 -0.11394
 C43 C 0.11292 0.11397 0.10914
 C44 C -0.10900 -0.11544 0.11205
 C45 C -0.11191 0.11403 -0.10980
 C46 C 0.07597 0.58723 0.52024
 H47 H 0.07211 0.59229 0.47486
 C48 C 0.11004 0.62268 0.55152
 H49 H 0.13257 0.65482 0.52986
 C50 C 0.05071 0.53929 0.60361
 H51 H 0.02706 0.50717 0.62390
 C52 C 0.08463 0.57358 0.63641
 H53 H 0.08727 0.56745 0.68179
 N54 N 0.04743 0.54634 0.54651
 C55 C 0.01961 0.41432 0.42652
 H56 H -0.02574 0.40924 0.43049
 C57 C 0.05073 0.37895 0.39225
 H58 H 0.02902 0.34679 0.36974
 C59 C 0.10303 0.46234 0.45160
 H60 H 0.12337 0.49449 0.47521
 C61 C 0.13568 0.42808 0.41754
 H62 H 0.18103 0.43423 0.41480
 Zn63 Zn 0.00094 0.50085 0.50134
 N64 N 0.04597 0.45525 0.45501
 C65 C -0.04840 0.53873 0.39881
 N66 N -0.04544 0.54609 0.45589
 C67 C -0.07436 0.58695 0.48185
 C68 C -0.10863 0.62197 0.45026
 C69 C -0.08245 0.57260 0.36571
 C70 C -0.01831 0.41475 0.57660
 C71 C -0.04984 0.37930 0.61035
 C72 C -0.13457 0.42820 0.58379
 C73 C -0.10152 0.46252 0.55026
 N74 N -0.04438 0.45557 0.54769
 H75 H -0.02443 0.50667 0.37876
 H76 H -0.07073 0.59226 0.52722
 H77 H -0.13149 0.65408 0.47165
 H78 H -0.08482 0.56623 0.32035
 H79 H 0.02710 0.40973 0.57323
 H80 H -0.02836 0.34720 0.63317
 H81 H -0.17998 0.43423 0.58582
 H82 H -0.12166 0.49452 0.52627
 C83 C 0.10945 0.38587 0.38752
 C84 C 0.11459 0.61585 0.61031
 C85 C -0.10867 0.38603 0.61412
 C86 C -0.11291 0.61474 0.39150
 C87 C 0.58292 0.07729 0.51987
 H88 H 0.58679 0.07545 0.47423
 C89 C 0.61792 0.11196 0.55101
 H90 H 0.64876 0.13673 0.52907
 C91 C 0.53720 0.04768 0.60378
 H92 H 0.50502 0.02334 0.62409
 C93 C 0.57087 0.08231 0.63645
 H94 H 0.56499 0.08394 0.68193
 N95 N 0.54443 0.04516 0.54664
 C96 C 0.51875 -0.07859 0.41683
 H97 H 0.47314 -0.07692 0.41269
 C98 C 0.55022 -0.11286 0.38172
 H99 H 0.52855 -0.13754 0.35057
 C100 C 0.60229 -0.04887 0.46327
 H101 H 0.62235 -0.02464 0.49576
 C102 C 0.63529 -0.08308 0.42949
 H103 H 0.68074 -0.08452 0.43563
 Zn104 Zn 0.49924 -0.00078 0.50088
 N105 N 0.54518 -0.04657 0.45573
 C106 C 0.46206 0.04770 0.39782
 N107 N 0.45419 0.04509 0.45487
 C108 C 0.41540 0.07721 0.48128
 C109 C 0.38079 0.11198 0.44983
 C110 C 0.42878 0.08241 0.36484
 C111 C 0.47975 -0.07864 0.58495
 C112 C 0.44833 -0.11321 0.61975
 C113 C 0.36330 -0.08366 0.57175
 C114 C 0.39624 -0.04914 0.53830
 N115 N 0.45331 -0.04661 0.54605
 H116 H 0.49450 0.02342 0.37780
 H117 H 0.41105 0.07533 0.52687
 H118 H 0.34972 0.13674 0.47148
 H119 H 0.43518 0.08410 0.31944
 H120 H 0.52534 -0.07681 0.58927
 H121 H 0.46997 -0.13789 0.65094
 H122 H 0.31788 -0.08529 0.56544
 H123 H 0.37618 -0.02490 0.50582
 C124 C 0.60923 -0.11491 0.38772
 C125 C 0.61222 0.11430 0.61003
 C126 C 0.38938 -0.11558 0.61343
 C127 C 0.38717 0.11443 0.39087
 C128 C 0.57378 0.58702 0.01834
 H129 H 0.57013 0.59224 -0.02703
 C130 C 0.60812 0.62203 0.04986
 H131 H 0.63100 0.65406 0.02841
 C132 C 0.54785 0.53898 0.10146
 H133 H 0.52388 0.50698 0.12156
 C134 C 0.58197 0.57286 0.13449
 H135 H 0.58439 0.56656 0.17985
 N136 N 0.54485 0.54624 0.04437
 C137 C 0.51810 0.41457 -0.07607
 H138 H 0.47269 0.40954 -0.07280
 C139 C 0.54976 0.37907 -0.10971
 H140 H 0.52836 0.34693 -0.13255
 C141 C 0.60119 0.46242 -0.04961
 H142 H 0.62124 0.49448 -0.02562
 C143 C 0.63436 0.42806 -0.08303
 H144 H 0.67977 0.43411 -0.08498
 Zn145 Zn 0.49858 0.50088 -0.00104
 N146 N 0.54406 0.45547 -0.04718
 C147 C 0.44911 0.53901 -0.10353
 N148 N 0.45216 0.54623 -0.04643
 C149 C 0.42350 0.58723 -0.02039
 C150 C 0.38961 0.62266 -0.05193
 C151 C 0.41538 0.57325 -0.13657
 C152 C 0.47987 0.41452 0.07386
 C153 C 0.44872 0.37915 0.10805
 C154 C 0.36374 0.42818 0.08255
 C155 C 0.39642 0.46244 0.04856
 N156 N 0.45349 0.45539 0.04529
 H157 H 0.47284 0.50681 -0.12364
 H158 H 0.42717 0.59243 0.02499
 H159 H 0.36704 0.65492 -0.03047
 H160 H 0.41299 0.56701 -0.18195
 H161 H 0.52523 0.40948 0.06999
 H162 H 0.47045 0.34704 0.13062
 H163 H 0.31838 0.43429 0.08518
 H164 H 0.37608 0.49455 0.02489
 C165 C 0.60858 0.38583 -0.11339
 C166 C 0.61246 0.61489 0.10862
 C167 C 0.38998 0.38601 0.11263
 C168 C 0.38537 0.61567 -0.11072
 C169 C 0.12715 -0.18225 -0.20470
 C170 C 0.18111 -0.16270 -0.23572
 C171 C 0.21326 -0.21404 -0.21510
 C172 C 0.15905 -0.23349 -0.18397
 C173 C 0.23199 -0.18305 -0.16095
 C174 C 0.20001 -0.13192 -0.18179
 C175 C 0.14653 -0.15181 -0.15125
 C176 C 0.17796 -0.20249 -0.13008
 H177 H 0.08411 -0.18243 -0.22363
 H178 H 0.18020 -0.14357 -0.27817
 H179 H 0.13961 -0.27446 -0.18303
 H180 H 0.27408 -0.18178 -0.14020
 H181 H 0.21690 -0.08980 -0.18093
 H182 H 0.17649 -0.21887 -0.08628
 C183 C 0.19653 0.31772 0.37278
 C184 C 0.17682 0.26698 0.33942
 C185 C 0.21078 0.28662 0.28733
 C186 C 0.23055 0.33731 0.32070
 C187 C 0.15838 0.31819 0.26581
 C188 C 0.12437 0.29862 0.31796
 C189 C 0.14456 0.34896 0.35095
 C190 C 0.17812 0.36890 0.29927
 H191 H 0.21217 0.31754 0.41716
 H192 H 0.17510 0.22555 0.35777
 H193 H 0.27367 0.35492 0.32298
 H194 H 0.14098 0.31946 0.22222
 H195 H 0.08080 0.28180 0.31622
 H196 H 0.17850 0.41117 0.28274
 C197 C 0.67683 -0.20095 0.37214
 C198 C 0.65755 -0.23286 0.31898
 C199 C 0.71102 -0.21332 0.28717
 C200 C 0.73032 -0.18150 0.34030
 C201 C 0.67848 -0.16274 0.26582
 C202 C 0.62498 -0.18224 0.29767
 C203 C 0.64469 -0.15081 0.35045
 C204 C 0.69771 -0.13094 0.31898
 H205 H 0.67597 -0.21665 0.41623
 H206 H 0.63927 -0.27433 0.32006
 H207 H 0.77307 -0.18009 0.35964
 H208 H 0.67809 -0.14519 0.22260
 H209 H 0.58176 -0.18303 0.27918
 H210 H 0.71419 -0.08866 0.31898
 C211 C 0.67815 0.36879 -0.20082
 C212 C 0.73050 0.33730 -0.17899
 C213 C 0.71103 0.28655 -0.21242
 C214 C 0.65871 0.31802 -0.23432
 C215 C 0.67677 0.26693 -0.16052
 C216 C 0.69614 0.31776 -0.12710
 C217 C 0.64424 0.34886 -0.14936
 C218 C 0.62440 0.29844 -0.18240
 H219 H 0.67856 0.41103 -0.21741
 H220 H 0.77361 0.35493 -0.17645
 H221 H 0.64153 0.31935 -0.27798
 H222 H 0.67513 0.22552 -0.14211
 H223 H 0.71145 0.31768 -0.08261
 H224 H 0.58089 0.28150 -0.18443
 C225 C -0.20180 0.18184 -0.12480
 C226 C -0.18056 0.23255 -0.15723
 C227 C -0.21261 0.21324 -0.21072
 C228 C -0.23391 0.16260 -0.17832
 C229 C -0.15962 0.18139 -0.23027
 C230 C -0.12753 0.20060 -0.17677
 C231 C -0.14918 0.15038 -0.14481
 C232 C -0.18093 0.13076 -0.19785
 H233 H -0.22006 0.18250 -0.08150
 H234 H -0.17946 0.27400 -0.13882
 H235 H -0.27714 0.14511 -0.17778
 H236 H -0.14041 0.18008 -0.27306
 H237 H -0.08343 0.21621 -0.17596
 H238 H -0.18109 0.08855 -0.21455
 C239 C -0.12739 0.68234 0.30386
 C240 C -0.17934 0.66258 0.26963
 C241 C -0.21279 0.71333 0.28907
 C242 C -0.16084 0.73312 0.32324
 C243 C -0.23445 0.68193 0.34148
 C244 C -0.20090 0.63117 0.32209
 C245 C -0.14938 0.65132 0.35588
 C246 C -0.18247 0.70170 0.37570
 H247 H -0.08298 0.68249 0.28846
 H248 H -0.17701 0.64485 0.22653
 H249 H -0.14248 0.77455 0.32488
 H250 H -0.27807 0.68057 0.35869
 H251 H -0.21737 0.58889 0.32180
 H252 H -0.18441 0.71874 0.41919
 C253 C 0.29761 0.18228 0.37506
 C254 C 0.31904 0.23287 0.34256
 C255 C 0.28717 0.21342 0.28901
 C256 C 0.26572 0.16288 0.32148
 C257 C 0.34022 0.18149 0.26975
 C258 C 0.37211 0.20081 0.32334
 C259 C 0.35027 0.15071 0.35539
 C260 C 0.31876 0.13096 0.30227
 H261 H 0.27911 0.18313 0.41825
 H262 H 0.32023 0.27436 0.36085
 H263 H 0.22250 0.14537 0.32190
 H264 H 0.35954 0.18016 0.22701
 H265 H 0.41623 0.21639 0.32430
 H266 H 0.31863 0.08869 0.28571
 C267 C 0.31741 0.70382 -0.12662
 C268 C 0.33922 0.73460 -0.17943
 C269 C 0.28646 0.71569 -0.21332
 C270 C 0.26478 0.68480 -0.16027
 C271 C 0.31897 0.66398 -0.23239
 C272 C 0.37152 0.68305 -0.19864
 C273 C 0.34936 0.65277 -0.14630
 C274 C 0.29727 0.63336 -0.17951
 H275 H 0.31614 0.72114 -0.08322
 H276 H 0.35923 0.77527 -0.17723
 H277 H 0.22167 0.68356 -0.14186
 H278 H 0.32126 0.64502 -0.27491
 H279 H 0.41580 0.68232 -0.21442
 H280 H 0.27997 0.59138 -0.17939
 C281 C -0.12486 -0.18266 0.20212
 C282 C -0.17832 -0.16298 0.23397
 C283 C -0.21096 -0.21350 0.21266
 C284 C -0.15755 -0.23322 0.18084
 C285 C -0.23020 -0.18170 0.15950
 C286 C -0.19749 -0.13119 0.18079
 C287 C -0.14451 -0.15125 0.14932
 C288 C -0.17676 -0.20133 0.12766
 H289 H -0.08164 -0.18355 0.22060
 H290 H -0.17789 -0.14537 0.27718
 H291 H -0.13936 -0.27476 0.17980
 H292 H -0.27295 -0.18020 0.14017
 H293 H -0.21389 -0.08887 0.18077
 H294 H -0.17594 -0.21709 0.08359
 C295 C -0.17812 0.36890 0.70163
 C296 C -0.23043 0.33739 0.67977
 C297 C -0.21087 0.28661 0.71310
 C298 C -0.15859 0.31810 0.73503
 C299 C -0.17660 0.26707 0.66115
 C300 C -0.19607 0.31791 0.62783
 C301 C -0.14422 0.34903 0.65012
 C302 C -0.12427 0.29859 0.68305
 H303 H -0.17859 0.41112 0.71830
 H304 H -0.27356 0.35500 0.67729
 H305 H -0.14140 0.31939 0.77870
 H306 H -0.17491 0.22568 0.64265
 H307 H -0.21142 0.31786 0.58335
 H308 H -0.08073 0.28169 0.68503
 C309 C 0.37353 -0.18345 0.70333
 C310 C 0.31937 -0.16524 0.73468
 C311 C 0.28867 -0.21352 0.71293
 C312 C 0.33970 -0.23345 0.68278
 C313 C 0.26882 -0.18343 0.66221
 C314 C 0.30083 -0.13220 0.68227
 C315 C 0.35403 -0.15173 0.65046
 C316 C 0.32167 -0.20205 0.62901
 H317 H 0.41632 -0.18513 0.72274
 H318 H 0.31919 -0.14852 0.77820
 H319 H 0.35713 -0.27523 0.68237
 H320 H 0.22575 -0.18274 0.64374
 H321 H 0.28309 -0.09040 0.68336
 H322 H 0.32143 -0.21887 0.58535
 C323 C 0.32122 0.36900 0.20078
 C324 C 0.26887 0.33732 0.17930
 C325 C 0.28874 0.28667 0.21266
 C326 C 0.34105 0.31833 0.23422
 C327 C 0.32279 0.26706 0.16059
 C328 C 0.30298 0.31776 0.12723
 C329 C 0.35486 0.34908 0.14912
 C330 C 0.37514 0.29878 0.18210
 H331 H 0.32073 0.41127 0.21732
 H332 H 0.22570 0.35485 0.17701
 H333 H 0.35844 0.31965 0.27782
 H334 H 0.32461 0.22563 0.14222
 H335 H 0.28738 0.31755 0.08284
 H336 H 0.41874 0.28201 0.18387
 C337 C 0.20224 0.18207 0.12494
 C338 C 0.18063 0.23263 0.15743
 C339 C 0.21257 0.21330 0.21098
 C340 C 0.23419 0.16279 0.17852
 C341 C 0.15963 0.18128 0.23024
 C342 C 0.12767 0.20047 0.17665
 C343 C 0.14968 0.15039 0.14461
 C344 C 0.18126 0.13076 0.19774
 H345 H 0.22074 0.18293 0.08175
 H346 H 0.17932 0.27412 0.13915
 H347 H 0.27747 0.14538 0.17810
 H348 H 0.14031 0.17994 0.27299
 H349 H 0.08350 0.21594 0.17568
 H350 H 0.18153 0.08851 0.21431
 C351 C 0.18304 0.70367 0.62542
 C352 C 0.16191 0.73472 0.67838
 C353 C 0.21498 0.71564 0.71172
 C354 C 0.23592 0.68443 0.65859
 C355 C 0.18230 0.66423 0.73133
 C356 C 0.12953 0.68344 0.69803
 C357 C 0.15102 0.65287 0.64556
 C358 C 0.20332 0.63326 0.67833
 H359 H 0.18396 0.72089 0.58199
 H360 H 0.14210 0.77554 0.67672
 H361 H 0.27877 0.68268 0.63965
 H362 H 0.18004 0.64551 0.77393
 H363 H 0.08540 0.68302 0.71422
 H364 H 0.22037 0.59118 0.67820
 C365 C 0.70208 0.18204 0.62523
 C366 C 0.68080 0.23269 0.65778
 C367 C 0.71286 0.21329 0.71122
 C368 C 0.73420 0.16269 0.67870
 C369 C 0.65989 0.18142 0.73069
 C370 C 0.62780 0.20072 0.67724
 C371 C 0.64948 0.15055 0.64515
 C372 C 0.68123 0.13084 0.69814
 H373 H 0.72034 0.18276 0.58193
 H374 H 0.67967 0.27417 0.63945
 H375 H 0.77744 0.14520 0.67812
 H376 H 0.64068 0.18004 0.77348
 H377 H 0.58368 0.21634 0.67646
 H378 H 0.68142 0.08860 0.71473
 C379 C 0.70055 0.63118 0.17792
 C380 C 0.73422 0.68180 0.15845
 C381 C 0.71267 0.71337 0.21084
 C382 C 0.67910 0.66276 0.23036
 C383 C 0.66075 0.73326 0.17668
 C384 C 0.68227 0.70167 0.12424
 C385 C 0.64906 0.65143 0.14415
 C386 C 0.62718 0.68261 0.19613
 H387 H 0.71691 0.58885 0.17826
 H388 H 0.77783 0.68029 0.14124
 H389 H 0.67675 0.64511 0.27348
 H390 H 0.64249 0.77474 0.17498
 H391 H 0.68422 0.71862 0.08073
 H392 H 0.58278 0.68293 0.21157
   
