data_POSCAR
  _audit_creation_date              2014-09-24
  _audit_creation_method            'ToBaCCo'
  _symmetry_space_group_name_H-M    'P1'
  _symmetry_Int_Tables_number       1
  _symmetry_cell_setting            triclinic
  loop_
  _symmetry_equiv_pos_as_xyz
 x,y,z
_cell_length_a 29.4296
_cell_length_b 29.4589
_cell_length_c 28.8085
_cell_angle_alpha 89.663500
_cell_angle_beta 90.112300
_cell_angle_gamma 120.286900
loop_
  _atom_site_label
  _atom_site_type_symbol
  _atom_site_fract_x
  _atom_site_fract_y
  _atom_site_fract_z
C1 C 0.52329 0.07779 0.06459
 H2 H 0.56057 0.07885 0.06484
 C3 C 0.51667 0.11333 0.09138
 H4 H 0.54888 0.14179 0.11250
 C5 C 0.43629 0.04059 0.03553
 H6 H 0.40551 0.01295 0.01294
 C7 C 0.42803 0.07557 0.06181
 H8 H 0.39075 0.07451 0.05971
 N9 N 0.48335 0.04228 0.03750
 C10 C 0.52180 -0.08066 0.01422
 H11 H 0.52283 -0.08064 -0.02332
 C12 C 0.52877 -0.11735 0.03940
 H13 H 0.53538 -0.14562 0.02127
 C14 C 0.50976 -0.04527 0.08379
 H15 H 0.50104 -0.01804 0.10092
 C16 C 0.51650 -0.08132 0.11028
 H17 H 0.51342 -0.08141 0.14776
 Zn18 Zn 0.49841 -0.00079 -0.00028
 N19 N 0.51256 -0.04556 0.03663
 C20 C 0.60331 0.04402 -0.03509
 N21 N 0.55755 0.04498 -0.03680
 C22 C 0.55332 0.08135 -0.06284
 C23 C 0.59601 0.11843 -0.08892
 C24 C 0.64707 0.08053 -0.06069
 C25 C 0.39535 -0.08130 -0.01729
 C26 C 0.35239 -0.11728 -0.04363
 C27 C 0.40290 -0.07699 -0.11330
 C28 C 0.44488 -0.04179 -0.08562
 N29 N 0.44037 -0.04452 -0.03853
 H30 H 0.60628 0.01564 -0.01334
 H31 H 0.51677 0.08176 -0.06290
 H32 H 0.59234 0.14743 -0.10932
 H33 H 0.68351 0.07988 -0.05893
 H34 H 0.39322 -0.08318 0.02021
 H35 H 0.31700 -0.14681 -0.02623
 H36 H 0.40727 -0.07488 -0.15075
 H37 H 0.48139 -0.01321 -0.10183
 C38 C 0.52580 -0.11783 0.08785
 C39 C 0.46872 0.11237 0.08982
 C40 C 0.35630 -0.11530 -0.09212
 C41 C 0.64333 0.11812 -0.08773
 C42 C -0.07856 0.47546 0.60286
 H43 H -0.07972 0.43817 0.60385
 C44 C -0.11493 0.48110 0.57603
 H45 H -0.14414 0.44813 0.55612
 C46 C -0.04016 0.56354 0.62879
 H47 H -0.01169 0.59516 0.65017
 C48 C -0.07594 0.57084 0.60241
 H49 H -0.07467 0.60823 0.60322
 N50 N -0.04203 0.51640 0.62838
 C51 C 0.08150 0.47845 0.65189
 H52 H 0.08275 0.47888 0.68943
 C53 C 0.11737 0.47051 0.62671
 H54 H 0.14629 0.46462 0.64485
 C55 C 0.04380 0.48788 0.58225
 H56 H 0.01601 0.49600 0.56504
 C57 C 0.07899 0.48011 0.55574
 H58 H 0.07789 0.48183 0.51821
 Zn59 Zn 0.00241 0.50284 0.66624
 N60 N 0.04567 0.48690 0.62945
 C61 C -0.04162 0.39953 0.70470
 N62 N -0.04204 0.44550 0.70517
 C63 C -0.07691 0.45122 0.73174
 C64 C -0.11288 0.40997 0.75979
 C65 C -0.07710 0.35710 0.73218
 C66 C 0.08364 0.60643 0.67897
 C67 C 0.12080 0.65040 0.70342
 C68 C 0.08374 0.60302 0.77506
 C69 C 0.04728 0.55995 0.74923
 N70 N 0.04783 0.56241 0.70205
 H71 H -0.01435 0.39538 0.68259
 H72 H -0.07706 0.48787 0.73070
 H73 H -0.14087 0.41511 0.78008
 H74 H -0.07613 0.32085 0.73158
 H75 H 0.08371 0.60703 0.64141
 H76 H 0.14889 0.68511 0.68438
 H77 H 0.08352 0.59978 0.81253
 H78 H 0.01953 0.52416 0.76695
 C79 C 0.11629 0.47168 0.57821
 C80 C -0.11374 0.52914 0.57594
 C81 C 0.12146 0.64891 0.75216
 C82 C -0.11341 0.36203 0.76017
 C83 C 0.55263 0.47013 0.39629
 H84 H 0.51626 0.43273 0.39569
 C85 C 0.59442 0.47630 0.42373
 H86 H 0.58999 0.44323 0.44398
 C87 C 0.60294 0.55789 0.36892
 H88 H 0.60626 0.58930 0.34700
 C89 C 0.64593 0.56574 0.39578
 H90 H 0.68183 0.60361 0.39487
 N91 N 0.55736 0.51071 0.36994
 C92 C 0.39546 0.47344 0.34881
 H93 H 0.39356 0.47290 0.31129
 C94 C 0.35262 0.46708 0.37485
 H95 H 0.31790 0.46186 0.35703
 C96 C 0.44444 0.48413 0.41735
 H97 H 0.48067 0.49203 0.43383
 C98 C 0.40257 0.47793 0.44472
 H99 H 0.40676 0.47994 0.48211
 Zn100 Zn 0.49877 0.49657 0.33264
 N101 N 0.44024 0.48190 0.37029
 C102 C 0.43743 0.39269 0.29628
 N103 N 0.48454 0.43835 0.29524
 C104 C 0.52505 0.44343 0.26879
 C105 C 0.51888 0.40192 0.24130
 C106 C 0.42959 0.34995 0.26938
 C107 C 0.52166 0.59983 0.31673
 C108 C 0.52801 0.64288 0.29080
 C109 C 0.51678 0.59354 0.22080
 C110 C 0.51061 0.55145 0.24805
 N111 N 0.51308 0.55527 0.29512
 H112 H 0.40608 0.38910 0.31828
 H113 H 0.56241 0.47986 0.26937
 H114 H 0.55192 0.40662 0.22099
 H115 H 0.39180 0.31396 0.27034
 H116 H 0.52238 0.60142 0.35425
 H117 H 0.53341 0.67746 0.30872
 H118 H 0.51464 0.58968 0.18339
 H119 H 0.50260 0.51539 0.23148
 C120 C 0.35609 0.46991 0.42350
 C121 C 0.64189 0.52460 0.42373
 C122 C 0.52503 0.63984 0.24215
 C123 C 0.47067 0.35436 0.24135
 C124 C 0.23058 0.46480 0.50389
 C125 C 0.21893 0.43086 0.46623
 C126 C 0.25966 0.43196 0.44031
 C127 C 0.15533 0.46739 0.55170
 C128 C 0.32375 0.50068 0.48999
 C129 C 0.28304 0.49950 0.51579
 C130 C 0.18908 0.46534 0.52974
 C131 C 0.31257 0.46707 0.45181
 H132 H 0.17843 0.40383 0.45671
 H133 H 0.24978 0.40526 0.41142
 H134 H 0.36400 0.52878 0.49928
 H135 H 0.29251 0.52616 0.54470
 C136 C 0.53103 0.76639 0.16200
 C137 C 0.56499 0.77747 0.19977
 C138 C 0.56356 0.73639 0.22561
 C139 C 0.52937 0.84248 0.11427
 C140 C 0.49447 0.67310 0.17569
 C141 C 0.49596 0.71416 0.14995
 C142 C 0.53093 0.80830 0.13617
 C143 C 0.52811 0.68370 0.21395
 H144 H 0.59230 0.81778 0.20939
 H145 H 0.59031 0.74582 0.25457
 H146 H 0.46612 0.63304 0.16626
 H147 H 0.46930 0.70515 0.12095
 C148 C 0.24162 0.77627 0.83150
 C149 C 0.25412 0.76222 0.78914
 C150 C 0.21491 0.72141 0.76299
 C151 C 0.31771 0.84955 0.88266
 C152 C 0.15023 0.70887 0.82127
 C153 C 0.18955 0.74975 0.84738
 C154 C 0.28266 0.81651 0.85935
 C155 C 0.16254 0.69397 0.77891
 H156 H 0.29436 0.78228 0.77666
 H157 H 0.22586 0.71041 0.73092
 H158 H 0.11020 0.68892 0.83420
 H159 H 0.17944 0.76030 0.88015
 C160 C 0.77133 0.53744 0.50353
 C161 C 0.72061 0.51249 0.52243
 C162 C 0.67875 0.50940 0.49689
 C163 C 0.84728 0.53446 0.55012
 C164 C 0.73842 0.55735 0.43368
 C165 C 0.78028 0.56031 0.45929
 C166 C 0.81333 0.53692 0.52874
 C167 C 0.68705 0.53119 0.45198
 H168 H 0.71323 0.49464 0.55663
 H169 H 0.63980 0.48966 0.51217
 H170 H 0.74594 0.57401 0.39902
 H171 H 0.81936 0.57947 0.44423
 C172 C 0.45849 0.22581 0.16174
 C173 C 0.48287 0.27652 0.14272
 C174 C 0.48567 0.31806 0.16818
 C175 C 0.46259 0.15073 0.11545
 C176 C 0.43850 0.25810 0.23152
 C177 C 0.43584 0.21655 0.20599
 C178 C 0.45956 0.18424 0.13669
 C179 C 0.46416 0.30947 0.21312
 H180 H 0.50056 0.28414 0.10851
 H181 H 0.50502 0.35702 0.15284
 H182 H 0.42207 0.25036 0.26621
 H183 H 0.41714 0.17749 0.22114
 C184 C -0.23203 0.23338 0.84038
 C185 C -0.20533 0.28403 0.85902
 C186 C -0.16595 0.32565 0.83336
 C187 C -0.31186 0.15749 0.88688
 C188 C -0.17902 0.26588 0.77054
 C189 C -0.21849 0.22428 0.79627
 C190 C -0.27503 0.19154 0.86566
 C191 C -0.15276 0.31718 0.78859
 H192 H -0.21550 0.29152 0.89312
 H193 H -0.14597 0.36455 0.84844
 H194 H -0.17020 0.25822 0.73598
 H195 H -0.23913 0.18527 0.78139
   
