data_POSCAR
  _audit_creation_date              2014-09-24
  _audit_creation_method            'ToBaCCo'
  _symmetry_space_group_name_H-M    'P1'
  _symmetry_Int_Tables_number       1
  _symmetry_cell_setting            triclinic
  loop_
  _symmetry_equiv_pos_as_xyz
 x,y,z
_cell_length_a 47.0778
_cell_length_b 47.1024
_cell_length_c 13.2805
_cell_angle_alpha 89.938100
_cell_angle_beta 90.084400
_cell_angle_gamma 120.181900
loop_
  _atom_site_label
  _atom_site_type_symbol
  _atom_site_fract_x
  _atom_site_fract_y
  _atom_site_fract_z
C1 C 0.22788 0.50663 0.43944
 C2 C 0.22931 0.51314 0.54502
 C3 C 0.25842 0.52116 0.59840
 C4 C 0.28443 0.51919 0.55256
 C5 C 0.28240 0.51250 0.44762
 C6 C 0.25434 0.50600 0.39362
 H7 H 0.25417 0.50241 0.31286
 H8 H 0.25896 0.52463 0.67919
 C9 C 0.48685 -0.28488 0.45632
 C10 C 0.48282 -0.28322 0.56202
 C11 C 0.48353 -0.25548 0.60368
 C12 C 0.49086 -0.22783 0.54440
 C13 C 0.49536 -0.22933 0.43914
 C14 C 0.49352 -0.25743 0.39701
 H15 H 0.49559 -0.25840 0.31594
 H16 H 0.48155 -0.25426 0.68473
 C17 C 1.27491 0.77789 0.44670
 C18 C 1.27364 0.78098 0.55305
 C19 C 1.24701 0.75674 0.60780
 C20 C 1.22180 0.72904 0.55993
 C21 C 1.22278 0.72566 0.45476
 C22 C 1.24930 0.74987 0.39972
 H23 H 1.24912 0.74726 0.31858
 H24 H 1.24684 0.75851 0.68921
 C25 C 0.76799 0.48476 0.45835
 C26 C 0.76891 0.49019 0.56393
 C27 C 0.74230 0.49094 0.60920
 C28 C 0.71401 0.48421 0.55424
 C29 C 0.71312 0.47819 0.44905
 C30 C 0.73991 0.47816 0.40306
 H31 H 0.73995 0.47551 0.32195
 H32 H 0.74244 0.49418 0.69006
 C33 C 0.50779 0.28046 0.45055
 C34 C 0.51364 0.28153 0.55607
 C35 C 0.51488 0.25497 0.60099
 C36 C 0.50729 0.22640 0.54574
 C37 C 0.50213 0.22626 0.44022
 C38 C 0.50234 0.25307 0.39463
 H39 H 0.49920 0.25304 0.31365
 H40 H 0.51774 0.25484 0.68196
 C41 C 0.72990 0.22102 0.44340
 C42 C 0.72691 0.22203 0.54878
 C43 C 0.75118 0.24868 0.60332
 C44 C 0.77885 0.27452 0.55549
 C45 C 0.78129 0.27343 0.44886
 C46 C 0.75709 0.24660 0.39479
 H47 H 0.75853 0.24647 0.31328
 H48 H 0.74880 0.24850 0.68454
 O49 O 0.94880 0.52107 -0.18453
 O50 O 0.91632 0.47314 -0.09790
 C51 C 0.92074 0.49508 -0.16456
 O52 O 1.05687 0.48645 -0.17368
 O53 O 1.08688 0.53157 -0.07390
 C54 C 1.08459 0.51084 -0.14205
 O55 O 0.96489 0.43248 -0.19814
 O56 O 0.92397 0.43140 -0.10187
 C57 C 0.93412 0.42047 -0.17474
 O58 O 1.03955 0.58049 -0.16244
 O59 O 1.07858 0.57585 -0.07165
 C60 C 1.06973 0.59082 -0.13555
 Zr61 Zr 0.99597 0.53688 -0.12171
 O62 O 1.00046 0.54383 -0.27955
 O63 O 0.98716 0.57629 -0.10146
 Zr64 Zr 1.00784 0.47155 -0.13176
 O65 O 1.01389 0.47656 -0.28991
 O66 O 1.01115 0.42838 -0.13701
 O67 O 0.97345 0.48663 -0.15081
 O68 O 1.03023 0.52206 -0.14146
 O69 O 1.03520 0.57356 0.19014
 O70 O 1.07623 0.57281 0.09934
 C71 C 1.06599 0.58505 0.16809
 O72 O 0.96036 0.42459 0.16899
 O73 O 0.92156 0.42840 0.07404
 C74 C 0.93027 0.41425 0.14121
 O75 O 1.05213 0.48017 0.17540
 O76 O 1.08431 0.52937 0.09487
 C77 C 1.08013 0.50635 0.15677
 O78 O 0.94402 0.51442 0.18305
 O79 O 0.91403 0.47058 0.07842
 C80 C 0.91637 0.48993 0.15130
 Zr81 Zr 0.99268 0.53210 0.13073
 O82 O 0.99263 0.53296 0.28998
 O83 O 0.98462 0.57228 0.12113
 Zr84 Zr 1.00448 0.46662 0.12183
 O85 O 1.00562 0.46533 0.28108
 O86 O 1.00853 0.42391 0.11326
 Zr87 Zr 0.95209 0.47159 -0.00708
 Zr88 Zr 1.04857 0.53185 0.00671
 O89 O 1.02626 0.51645 0.14897
 O90 O 0.96956 0.48101 0.14227
 O91 O 1.02274 0.55763 0.00945
 O92 O 0.97870 0.44671 -0.00983
 O93 O 0.96490 0.52118 0.00095
 O94 O 1.03614 0.48220 -0.00137
 H95 H 1.04560 0.53213 -0.19867
 H96 H 0.96649 0.42242 -0.01448
 H97 H 1.03974 0.52428 0.21103
 H98 H 0.94717 0.52671 0.00053
 H99 H 1.03020 0.43228 -0.09529
 H100 H 1.02920 0.42988 0.07743
 H101 H 0.98524 0.46409 0.30603
 H102 H 0.98043 0.50986 0.31281
 H103 H 0.98199 0.57764 0.19138
 H104 H 0.98629 0.58418 -0.16997
 H105 H 0.98831 0.52181 -0.31069
 H106 H 0.99472 0.47719 -0.31773
 O107 O 0.42234 0.46948 0.16491
 O108 O 0.43342 0.51606 0.07765
 C109 C 0.41626 0.49262 0.14098
 O110 O 0.57022 0.52493 0.18707
 O111 O 0.56271 0.48087 0.09295
 C112 C 0.57792 0.50301 0.16188
 O113 O 0.52323 0.56980 0.18898
 O114 O 0.48118 0.56368 0.08622
 C115 C 0.50205 0.57794 0.15869
 O116 O 0.46531 0.42094 0.16037
 O117 O 0.51315 0.43186 0.08161
 C118 C 0.48840 0.41439 0.14024
 Zr119 Zr 0.46037 0.46147 0.11544
 O120 O 0.45924 0.45767 0.27446
 O121 O 0.41353 0.41861 0.10501
 Zr122 Zr 0.53234 0.53278 0.13422
 O123 O 0.52879 0.52682 0.29266
 O124 O 0.57580 0.57890 0.14989
 O125 O 0.48150 0.51175 0.14315
 O126 O 0.50997 0.48226 0.14472
 O127 O 0.47378 0.42835 -0.18875
 O128 O 0.51669 0.43458 -0.09089
 C129 C 0.49508 0.42001 -0.16188
 O130 O 0.53078 0.57489 -0.17571
 O131 O 0.48517 0.56635 -0.08850
 C132 C 0.50834 0.58221 -0.15377
 O133 O 0.57832 0.53065 -0.15967
 O134 O 0.56585 0.48301 -0.07637
 C135 C 0.58400 0.50721 -0.13589
 O136 O 0.43190 0.47777 -0.20007
 O137 O 0.43708 0.51958 -0.09919
 C138 C 0.42382 0.49935 -0.17397
 Zr139 Zr 0.46618 0.46627 -0.13734
 O140 O 0.47091 0.46676 -0.29594
 O141 O 0.41913 0.42359 -0.14704
 Zr142 Zr 0.53848 0.53730 -0.11877
 O143 O 0.54442 0.53857 -0.27701
 O144 O 0.58172 0.58377 -0.10551
 Zr145 Zr 0.47533 0.52446 -0.00429
 Zr146 Zr 0.52326 0.47432 0.00064
 O147 O 0.51662 0.48755 -0.14529
 O148 O 0.48851 0.51709 -0.14955
 O149 O 0.47196 0.44323 -0.01125
 O150 O 0.52668 0.55476 0.00724
 O151 O 0.44403 0.47328 -0.01376
 O152 O 0.55534 0.52555 0.01078
 H153 H 0.51593 0.47373 0.20446
 H154 H 0.53644 0.57892 0.00997
 H155 H 0.52516 0.48127 -0.20414
 H156 H 0.42000 0.46425 -0.01920
 H157 H 0.59252 0.57881 0.10513
 H158 H 0.59771 0.58082 -0.06507
 H159 H 0.52415 0.53608 -0.30782
 H160 H 0.47530 0.48846 -0.32020
 H161 H 0.42022 0.40565 -0.11178
 H162 H 0.41562 0.40316 0.05948
 H163 H 0.46037 0.47772 0.30196
 H164 H 0.50900 0.52738 0.31462
 O165 O 0.52013 -0.05390 0.17838
 O166 O 0.47215 -0.08491 0.09036
 C167 C 0.49404 -0.08159 0.15573
 O168 O 0.48538 0.05485 0.18189
 O169 O 0.53240 0.08569 0.08989
 C170 C 0.51075 0.08257 0.15586
 O171 O 0.43146 -0.03679 0.19733
 O172 O 0.43034 -0.07691 0.09701
 C173 C 0.41929 -0.06730 0.17109
 O174 O 0.57963 0.03713 0.16891
 O175 O 0.57617 0.07721 0.08092
 C176 C 0.59057 0.06760 0.14441
 Zr177 Zr 0.53594 -0.00581 0.12388
 O178 O 0.54025 -0.00242 0.28270
 O179 O 0.57430 -0.01680 0.11536
 Zr180 Zr 0.47097 0.00648 0.13539
 O181 O 0.47555 0.01078 0.29402
 O182 O 0.42786 0.00988 0.14242
 O183 O 0.48554 -0.02845 0.15062
 O184 O 0.52143 0.02844 0.14740
 O185 O 0.57448 0.03678 -0.18350
 O186 O 0.57340 0.07712 -0.08983
 C187 C 0.58601 0.06734 -0.15878
 O188 O 0.42534 -0.03735 -0.17043
 O189 O 0.42833 -0.07728 -0.07933
 C190 C 0.41468 -0.06779 -0.14578
 O191 O 0.48141 0.05481 -0.16420
 O192 O 0.52959 0.08574 -0.07780
 C193 C 0.50695 0.08278 -0.13963
 O194 O 0.51491 -0.05426 -0.18629
 O195 O 0.47048 -0.08510 -0.08486
 C196 C 0.49029 -0.08217 -0.15694
 Zr197 Zr 0.53222 -0.00609 -0.13015
 O198 O 0.53184 -0.00307 -0.28917
 O199 O 0.57062 -0.01706 -0.13640
 Zr200 Zr 0.46729 0.00620 -0.11832
 O201 O 0.46715 0.00949 -0.27729
 O202 O 0.42458 0.01030 -0.11017
 Zr203 Zr 0.47116 -0.04797 0.00456
 Zr204 Zr 0.53215 0.04850 0.00134
 O205 O 0.51723 0.02817 -0.14353
 O206 O 0.48123 -0.02887 -0.14300
 O207 O 0.55748 0.02222 -0.00504
 O208 O 0.44658 -0.02109 0.01044
 O209 O 0.52088 -0.03505 -0.00294
 O210 O 0.48250 0.03629 0.00850
 H211 H 0.53136 0.04313 0.20620
 H212 H 0.42225 -0.03319 0.01390
 H213 H 0.52546 0.04274 -0.20321
 H214 H 0.52659 -0.05262 -0.00492
 H215 H 0.43162 0.02887 0.10071
 H216 H 0.43022 0.03028 -0.07087
 H217 H 0.46591 -0.01062 -0.30471
 H218 H 0.50954 -0.01946 -0.31247
 H219 H 0.58951 0.00029 -0.09870
 H220 H 0.59202 0.00044 0.07385
 H221 H 0.51878 -0.01891 0.31115
 H222 H 0.47627 -0.00860 0.31936
 C223 C 1.18884 0.47917 0.30111
 C224 C 1.20203 0.50341 0.37688
 C225 C 1.18902 0.52439 0.38893
 C226 C 1.16268 0.52045 0.32955
 C227 C 1.14863 0.49492 0.25747
 C228 C 1.16212 0.47467 0.24314
 C229 C 1.12135 0.49014 0.20101
 C230 C 1.10879 0.51125 0.21391
 C231 C 1.12344 0.53716 0.28311
 C232 C 1.15005 0.54159 0.34133
 H233 H 1.19975 0.54414 0.44360
 H234 H 1.15186 0.45518 0.18760
 H235 H 1.11009 0.47033 0.14663
 H236 H 1.16065 0.56142 0.39570
 H237 H 1.19812 0.46251 0.28994
 H238 H 1.11375 0.55350 0.29362
 C239 C 0.46057 0.65491 0.44061
 C240 C 0.48432 0.68684 0.40934
 C241 C 0.50587 0.69004 0.33071
 C242 C 0.50484 0.66227 0.28826
 C243 C 0.48144 0.63055 0.32264
 C244 C 0.45927 0.62716 0.39824
 C245 C 0.48069 0.60280 0.28074
 C246 C 0.50312 0.60658 0.20536
 C247 C 0.52634 0.63806 0.17185
 C248 C 0.52721 0.66576 0.21289
 H249 H 0.52469 0.71420 0.30583
 H250 H 0.44094 0.60304 0.42481
 H251 H 0.46295 0.57841 0.30701
 H252 H 0.54535 0.68987 0.18574
 H253 H 0.44242 0.65124 0.49685
 H254 H 0.54366 0.64113 0.11323
 C255 C 0.31346 -0.20724 0.30505
 C256 C 0.30068 -0.19801 0.38672
 C257 C 0.31349 -0.16427 0.40510
 C258 C 0.33925 -0.14043 0.34692
 C259 C 0.35219 -0.15012 0.26687
 C260 C 0.33902 -0.18358 0.24626
 C261 C 0.37800 -0.12619 0.20870
 C262 C 0.39128 -0.09259 0.23007
 C263 C 0.37802 -0.08332 0.30982
 C264 C 0.35219 -0.10700 0.36746
 H265 H 0.30254 -0.15634 0.46184
 H266 H 0.34865 -0.19148 0.18513
 H267 H 0.38788 -0.13380 0.14748
 H268 H 0.34253 -0.09917 0.42868
 H269 H 0.30455 -0.23287 0.28854
 H270 H 0.38767 -0.05768 0.32819
 C271 C 0.82732 0.52121 0.41534
 C272 C 0.79792 0.49122 0.40199
 C273 C 0.79754 0.46735 0.33785
 C274 C 0.82661 0.47288 0.29078
 C275 C 0.85629 0.50267 0.30784
 C276 C 0.85630 0.52679 0.36941
 C277 C 0.88551 0.50793 0.26305
 C278 C 0.88553 0.48403 0.19981
 C279 C 0.85574 0.45475 0.18177
 C280 C 0.82662 0.44910 0.22752
 H281 H 0.77486 0.44427 0.32688
 H282 H 0.87874 0.54988 0.38254
 H283 H 0.90816 0.53081 0.27672
 H284 H 0.80412 0.42616 0.21322
 H285 H 0.82792 0.54012 0.46315
 H286 H 0.85490 0.43602 0.13260
 C287 C 0.53956 0.33875 0.39074
 C288 C 0.50997 0.30861 0.39388
 C289 C 0.48228 0.30513 0.34274
 C290 C 0.48378 0.33184 0.29127
 C291 C 0.51381 0.36202 0.28700
 C292 C 0.54159 0.36520 0.33673
 C293 C 0.51534 0.38862 0.23452
 C294 C 0.48697 0.38581 0.18995
 C295 C 0.45712 0.35605 0.19647
 C296 C 0.45563 0.32907 0.24546
 H297 H 0.45938 0.28188 0.34587
 H298 H 0.56473 0.38820 0.33478
 H299 H 0.53830 0.41182 0.23107
 H300 H 0.43239 0.30621 0.24879
 H301 H 0.56111 0.34165 0.42961
 H302 H 0.43505 0.35362 0.16271
 C303 C 0.68192 0.20394 0.33058
 C304 C 0.70316 0.19593 0.38086
 C305 C 0.69927 0.16457 0.36915
 C306 C 0.67344 0.14086 0.31034
 C307 C 0.65214 0.14915 0.25976
 C308 C 0.65667 0.18079 0.26996
 C309 C 0.62625 0.12551 0.20138
 C310 C 0.62031 0.09316 0.19616
 C311 C 0.64162 0.08514 0.24661
 C312 C 0.66821 0.10890 0.30223
 H313 H 0.71619 0.15867 0.40606
 H314 H 0.64047 0.18748 0.23210
 H315 H 0.61005 0.13206 0.16284
 H316 H 0.68423 0.10210 0.34068
 H317 H 0.68495 0.22820 0.33852
 H318 H 0.63759 0.06040 0.24361
 C319 C 0.47577 0.16673 -0.42831
 C320 C 0.50247 0.19788 -0.40290
 C321 C 0.52357 0.19986 -0.32423
 C322 C 0.51925 0.17121 -0.27698
 C323 C 0.49293 0.14021 -0.30611
 C324 C 0.47117 0.13831 -0.38101
 C325 C 0.48877 0.11154 -0.26022
 C326 C 0.51083 0.11322 -0.18588
 C327 C 0.53696 0.14422 -0.15722
 C328 C 0.54107 0.17292 -0.20212
 H329 H 0.54425 0.22347 -0.30297
 H330 H 0.45050 0.11482 -0.40305
 H331 H 0.46855 0.08790 -0.28347
 H332 H 0.56147 0.19641 -0.17880
 H333 H 0.45765 0.16427 -0.48308
 H334 H 0.55438 0.14637 -0.10011
 C335 C 0.65474 0.45772 -0.41303
 C336 C 0.68718 0.48310 -0.39426
 C337 C 0.69244 0.50749 -0.32313
 C338 C 0.66581 0.50740 -0.27551
 C339 C 0.63348 0.48157 -0.29457
 C340 C 0.62824 0.45675 -0.36282
 C341 C 0.60689 0.48130 -0.24618
 C342 C 0.61216 0.50728 -0.18272
 C343 C 0.64414 0.53326 -0.16586
 C344 C 0.67090 0.53309 -0.21075
 H345 H 0.71713 0.52757 -0.30886
 H346 H 0.60361 0.43675 -0.37816
 H347 H 0.58204 0.46141 -0.25986
 H348 H 0.69548 0.55323 -0.19596
 H349 H 0.64988 0.43799 -0.46462
 H350 H 0.64838 0.55343 -0.11699
 C351 C 0.79420 0.31296 -0.30249
 C352 C 0.80317 0.30045 -0.38543
 C353 C 0.83691 0.31397 -0.40669
 C354 C 0.86090 0.34011 -0.34983
 C355 C 0.85137 0.35277 -0.26867
 C356 C 0.81800 0.33892 -0.24530
 C357 C 0.87537 0.37893 -0.21183
 C358 C 0.90895 0.39266 -0.23472
 C359 C 0.91813 0.37977 -0.31568
 C360 C 0.89432 0.35372 -0.37265
 H361 H 0.84473 0.30341 -0.46506
 H362 H 0.81026 0.34833 -0.18315
 H363 H 0.86779 0.38854 -0.14979
 H364 H 0.90205 0.34429 -0.43480
 H365 H 0.76862 0.30358 -0.28387
 H366 H 0.94374 0.38985 -0.33530
 C367 C 0.52202 -0.16786 -0.43539
 C368 C 0.49537 -0.19884 -0.40849
 C369 C 0.47354 -0.20024 -0.33345
 C370 C 0.47715 -0.17124 -0.29110
 C371 C 0.50350 -0.14044 -0.32146
 C372 C 0.52592 -0.13907 -0.39298
 C373 C 0.50730 -0.11146 -0.27903
 C374 C 0.48511 -0.11270 -0.20604
 C375 C 0.45871 -0.14351 -0.17719
 C376 C 0.45476 -0.17247 -0.21934
 H377 H 0.45287 -0.22373 -0.31123
 H378 H 0.54662 -0.11571 -0.41583
 H379 H 0.52782 -0.08800 -0.30209
 H380 H 0.43429 -0.19582 -0.19538
 H381 H 0.54058 -0.16584 -0.48756
 H382 H 0.44118 -0.14534 -0.12115
 C383 C 0.32383 0.54247 -0.30572
 C384 C 0.30994 0.52037 -0.38699
 C385 C 0.32103 0.49807 -0.40461
 C386 C 0.34654 0.49902 -0.34811
 C387 C 0.36103 0.52189 -0.26900
 C388 C 0.34931 0.54342 -0.24798
 C389 C 0.38656 0.52237 -0.21196
 C390 C 0.39751 0.50010 -0.23362
 C391 C 0.38272 0.47769 -0.31334
 C392 C 0.35753 0.47711 -0.36968
 H393 H 0.30888 0.47878 -0.45995
 H394 H 0.35993 0.56106 -0.18724
 H395 H 0.39765 0.53981 -0.15087
 H396 H 0.34664 0.45949 -0.43043
 H397 H 0.31585 0.55987 -0.28885
 H398 H 0.39047 0.46026 -0.33238
 C399 C 1.20271 0.67680 -0.34712
 C400 C 1.19712 0.70209 -0.37742
 C401 C 1.16814 0.70142 -0.34876
 C402 C 1.14421 0.67487 -0.29274
 C403 C 1.15005 0.64947 -0.26200
 C404 C 1.17946 0.65077 -0.28904
 C405 C 1.12609 0.62282 -0.20680
 C406 C 1.09583 0.62054 -0.18492
 C407 C 1.09007 0.64568 -0.21639
 C408 C 1.11426 0.67288 -0.26875
 H409 H 1.16399 0.72109 -0.37219
 H410 H 1.18423 0.63142 -0.26658
 H411 H 1.13045 0.60318 -0.18438
 H412 H 1.10929 0.69200 -0.29218
 H413 H 1.22510 0.67723 -0.36882
 H414 H 1.06683 0.64425 -0.20047
 C415 C 0.80827 0.51806 -0.29855
 C416 C 0.79539 0.49412 -0.37518
 C417 C 0.80952 0.47421 -0.39017
 C418 C 0.83671 0.47904 -0.33346
 C419 C 0.85039 0.50431 -0.26059
 C420 C 0.83576 0.52341 -0.24296
 C421 C 0.87833 0.50987 -0.20630
 C422 C 0.89199 0.48979 -0.22219
 C423 C 0.87773 0.46411 -0.29223
 C424 C 0.85046 0.45896 -0.34842
 H425 H 0.79894 0.45444 -0.44478
 H426 H 0.84573 0.54267 -0.18666
 H427 H 0.88919 0.52939 -0.15087
 H428 H 0.84011 0.43930 -0.40339
 H429 H 0.79818 0.53391 -0.28490
 H430 H 0.88803 0.44835 -0.30427
 C431 C 0.53712 0.31996 -0.30063
 C432 C 0.51489 0.30663 -0.38192
 C433 C 0.49248 0.31769 -0.39749
 C434 C 0.49320 0.34245 -0.33783
 C435 C 0.51635 0.35660 -0.25907
 C436 C 0.53812 0.34498 -0.24071
 C437 C 0.51704 0.38185 -0.20019
 C438 C 0.49459 0.39275 -0.21940
 C439 C 0.47146 0.37784 -0.29755
 C440 C 0.47081 0.35308 -0.35599
 H441 H 0.47334 0.30607 -0.45371
 H442 H 0.55595 0.35528 -0.18026
 H443 H 0.53498 0.39300 -0.14030
 H444 H 0.45285 0.34235 -0.41602
 H445 H 0.55458 0.31191 -0.28550
 H446 H 0.45380 0.38546 -0.31472
 C447 C 0.67612 0.20375 -0.34959
 C448 C 0.69830 0.19623 -0.39587
 C449 C 0.69417 0.16475 -0.38438
 C450 C 0.66765 0.14067 -0.32871
 C451 C 0.64549 0.14848 -0.28182
 C452 C 0.64989 0.18006 -0.29292
 C453 C 0.61931 0.12459 -0.22468
 C454 C 0.61453 0.09272 -0.21534
 C455 C 0.63643 0.08509 -0.26336
 C456 C 0.66294 0.10894 -0.31887
 H457 H 0.71188 0.15924 -0.41734
 H458 H 0.63311 0.18645 -0.25766
 H459 H 0.60228 0.13062 -0.18922
 H460 H 0.67962 0.10251 -0.35463
 H461 H 0.67929 0.22808 -0.35703
 H462 H 0.63318 0.06069 -0.25737
 C463 C 1.17016 0.47953 -0.42200
 C464 C 1.20099 0.50731 -0.40017
 C465 C 1.20272 0.52891 -0.32364
 C466 C 1.17391 0.52421 -0.27630
 C467 C 1.14317 0.49696 -0.30280
 C468 C 1.14167 0.47452 -0.37438
 C469 C 1.11430 0.49263 -0.25807
 C470 C 1.11543 0.51530 -0.18712
 C471 C 1.14618 0.54224 -0.16044
 C472 C 1.17513 0.54663 -0.20452
 H473 H 1.22612 0.55035 -0.30505
 H474 H 1.11837 0.45319 -0.39435
 H475 H 1.09090 0.47166 -0.27940
 H476 H 1.19841 0.56773 -0.18318
 H477 H 1.16801 0.46135 -0.47603
 H478 H 1.14791 0.56012 -0.10590
 C479 C 0.45848 0.67482 -0.29950
 C480 C 0.48405 0.69288 -0.36787
 C481 C 0.51053 0.68717 -0.37342
 C482 C 0.51059 0.66227 -0.31615
 C483 C 0.48424 0.64329 -0.24993
 C484 C 0.45853 0.65010 -0.24096
 C485 C 0.48383 0.61750 -0.19544
 C486 C 0.50932 0.61032 -0.20711
 C487 C 0.53554 0.62978 -0.27234
 C488 C 0.53621 0.65554 -0.32610
 H489 H 0.53056 0.70147 -0.42513
 H490 H 0.43817 0.63589 -0.19036
 H491 H 0.46339 0.60272 -0.14565
 H492 H 0.55655 0.66989 -0.37662
 H493 H 0.43799 0.67911 -0.29410
 H494 H 0.55556 0.62499 -0.28265
 C495 C 0.33062 -0.19634 -0.38147
 C496 C 0.30210 -0.19408 -0.38882
 C497 C 0.30100 -0.16786 -0.34264
 C498 C 0.32891 -0.14307 -0.29364
 C499 C 0.35748 -0.14571 -0.28553
 C500 C 0.35800 -0.17255 -0.32903
 C501 C 0.38521 -0.12120 -0.23537
 C502 C 0.38527 -0.09343 -0.19705
 C503 C 0.35726 -0.09044 -0.20787
 C504 C 0.32905 -0.11534 -0.25448
 H505 H 0.27896 -0.16613 -0.34893
 H506 H 0.37974 -0.17484 -0.32397
 H507 H 0.40705 -0.12327 -0.22829
 H508 H 0.30752 -0.11276 -0.26092
 H509 H 0.33160 -0.21658 -0.41652
 H510 H 0.35703 -0.06910 -0.17851
 C511 C 0.52738 -0.18480 0.31397
 C512 C 0.49851 -0.20325 0.36990
 C513 C 0.47358 -0.19522 0.36606
 C514 C 0.47812 -0.16787 0.31102
 C515 C 0.50810 -0.14816 0.25963
 C516 C 0.53231 -0.15720 0.25998
 C517 C 0.51340 -0.11964 0.20966
 C518 C 0.48871 -0.11130 0.20796
 C519 C 0.45861 -0.13159 0.25588
 C520 C 0.45345 -0.15951 0.30810
 H521 H 0.45112 -0.20976 0.40843
 H522 H 0.55525 -0.14261 0.22008
 H523 H 0.53648 -0.10414 0.17130
 H524 H 0.43029 -0.17444 0.34658
 H525 H 0.54672 -0.19087 0.31625
 H526 H 0.43940 -0.12534 0.25487
 C527 C 0.33984 0.54492 0.38119
 C528 C 0.31026 0.51492 0.38893
 C529 C 0.30702 0.48698 0.34059
 C530 C 0.33362 0.48857 0.28857
 C531 C 0.36329 0.51895 0.27972
 C532 C 0.36606 0.54705 0.32565
 C533 C 0.38986 0.52047 0.22712
 C534 C 0.38766 0.49171 0.18850
 C535 C 0.35832 0.46161 0.19911
 C536 C 0.33129 0.46013 0.24724
 H537 H 0.28417 0.46380 0.34715
 H538 H 0.38861 0.57049 0.31995
 H539 H 0.41255 0.54368 0.21932
 H540 H 0.30882 0.43664 0.25399
 H541 H 0.34250 0.56668 0.41769
 H542 H 0.35629 0.43925 0.16943
 C543 C 1.20462 0.67733 0.34146
 C544 C 1.19660 0.69711 0.39985
 C545 C 1.16406 0.69074 0.40089
 C546 C 1.13968 0.66472 0.34427
 C547 C 1.14812 0.64518 0.28486
 C548 C 1.18058 0.65152 0.28449
 C549 C 1.12402 0.61970 0.22640
 C550 C 1.09130 0.61294 0.22739
 C551 C 1.08305 0.63222 0.28774
 C552 C 1.10709 0.65804 0.34522
 H553 H 1.15795 0.70648 0.44381
 H554 H 1.18740 0.63667 0.23968
 H555 H 1.13075 0.60486 0.18110
 H556 H 1.10017 0.67270 0.39062
 H557 H 1.22964 0.68207 0.33959
 H558 H 1.05803 0.62747 0.29013
 C559 C 0.47162 0.18109 0.31561
 C560 C 0.49990 0.19997 0.37379
 C561 C 0.52568 0.19315 0.37138
 C562 C 0.52278 0.16685 0.31407
 C563 C 0.49349 0.14685 0.25968
 C564 C 0.46825 0.15444 0.25983
 C565 C 0.48982 0.11939 0.20715
 C566 C 0.51538 0.11229 0.20614
 C567 C 0.54480 0.13286 0.25710
 C568 C 0.54841 0.15985 0.31148
 H569 H 0.54772 0.20808 0.41527
 H570 H 0.44580 0.13957 0.21780
 H571 H 0.46716 0.10352 0.16714
 H572 H 0.57106 0.17498 0.35237
 H573 H 0.45166 0.18627 0.31657
 H574 H 0.56449 0.12733 0.25777
 C575 C 0.66865 0.45173 0.31786
 C576 C 0.68757 0.47809 0.38300
 C577 C 0.68199 0.50467 0.38656
 C578 C 0.65696 0.50445 0.32904
 C579 C 0.63745 0.47758 0.26506
 C580 C 0.64367 0.45141 0.25947
 C581 C 0.61194 0.47730 0.20883
 C582 C 0.60557 0.50342 0.21684
 C583 C 0.62548 0.53004 0.28038
 C584 C 0.65092 0.53058 0.33564
 H585 H 0.69693 0.52533 0.43553
 H586 H 0.62902 0.43059 0.21087
 H587 H 0.59680 0.45657 0.16039
 H588 H 0.66569 0.55134 0.38434
 H589 H 0.67279 0.43113 0.31392
 H590 H 0.62137 0.55059 0.28787
 C591 C 0.80451 0.33117 0.38957
 C592 C 0.80571 0.30201 0.39007
 C593 C 0.83051 0.30034 0.33659
 C594 C 0.85494 0.32820 0.28662
 C595 C 0.85349 0.35750 0.28602
 C596 C 0.82804 0.35865 0.33702
 C597 C 0.87788 0.38533 0.23605
 C598 C 0.90425 0.38460 0.18984
 C599 C 0.90599 0.35575 0.19245
 C600 C 0.88123 0.32755 0.23930
 H601 H 0.83145 0.27781 0.33764
 H602 H 0.82666 0.38094 0.33766
 H603 H 0.87702 0.40788 0.23587
 H604 H 0.88288 0.30543 0.23978
 H605 H 0.78535 0.33260 0.43032
 H606 H 0.92633 0.35500 0.15720
   
