data_POSCAR
  _audit_creation_date              2014-09-24
  _audit_creation_method            'ToBaCCo'
  _symmetry_space_group_name_H-M    'P1'
  _symmetry_Int_Tables_number       1
  _symmetry_cell_setting            triclinic
  loop_
  _symmetry_equiv_pos_as_xyz
 x,y,z
_cell_length_a 27.1320
_cell_length_b 26.8182
_cell_length_c 18.7729
_cell_angle_alpha 88.326300
_cell_angle_beta 85.442100
_cell_angle_gamma 90.347500
loop_
  _atom_site_label
  _atom_site_type_symbol
  _atom_site_fract_x
  _atom_site_fract_y
  _atom_site_fract_z
C1 C 0.27560 0.31107 0.25340
 C2 C 0.23247 0.28510 0.27979
 C3 C 0.19115 0.31200 0.30763
 C4 C 0.19373 0.36442 0.30962
 C5 C 0.23676 0.38938 0.28267
 C6 C 0.27755 0.36329 0.25437
 C7 C 0.23149 0.23001 0.27722
 C8 C 0.26980 0.20223 0.30533
 C9 C 0.27200 0.15036 0.29758
 C10 C 0.23582 0.12658 0.26162
 C11 C 0.19790 0.15357 0.23251
 C12 C 0.19527 0.20541 0.24112
 H13 H 0.30710 0.29062 0.23075
 H14 H 0.15791 0.29231 0.32861
 H15 H 0.29811 0.22114 0.33221
 H16 H 0.16664 0.22672 0.21745
 H17 H 0.23845 0.42975 0.28363
 H18 H 0.23803 0.08669 0.25432
 C19 C 0.79318 0.80463 0.22346
 C20 C 0.74680 0.78053 0.23132
 C21 C 0.70381 0.80949 0.22835
 C22 C 0.70729 0.86148 0.21843
 C23 C 0.75381 0.88497 0.21130
 C24 C 0.79676 0.85651 0.21382
 C25 C 0.74349 0.72551 0.24397
 C26 C 0.77540 0.70111 0.28934
 C27 C 0.77242 0.64913 0.30086
 C28 C 0.73688 0.62182 0.26885
 C29 C 0.70544 0.64506 0.22335
 C30 C 0.70880 0.69686 0.21038
 H31 H 0.82677 0.78313 0.22537
 H32 H 0.66763 0.79185 0.23490
 H33 H 0.80245 0.72235 0.31547
 H34 H 0.68448 0.71464 0.17447
 H35 H 0.75654 0.92521 0.20458
 H36 H 0.73451 0.58175 0.27799
 C37 C 0.78116 0.28481 0.75308
 C38 C 0.74552 0.24661 0.76684
 C39 C 0.69680 0.25953 0.78962
 C40 C 0.68315 0.30947 0.79399
 C41 C 0.71843 0.34718 0.77888
 C42 C 0.76752 0.33520 0.75877
 C43 C 0.75692 0.19443 0.74715
 C44 C 0.80313 0.17318 0.75778
 C45 C 0.81492 0.12598 0.73155
 C46 C 0.78054 0.09970 0.69468
 C47 C 0.73419 0.12007 0.68441
 C48 C 0.72260 0.16725 0.71096
 H49 H 0.81837 0.27566 0.73276
 H50 H 0.66867 0.23082 0.80029
 H51 H 0.83040 0.19377 0.78450
 H52 H 0.68779 0.18401 0.69955
 H53 H 0.70738 0.38594 0.77969
 H54 H 0.79031 0.06396 0.67227
 C55 C 0.31444 0.78762 0.72051
 C56 C 0.26717 0.76942 0.74414
 C57 C 0.23069 0.80294 0.76869
 C58 C 0.24159 0.85414 0.77193
 C59 C 0.28909 0.87182 0.74818
 C60 C 0.32561 0.83848 0.72283
 C61 C 0.25797 0.71507 0.75256
 C62 C 0.29155 0.68539 0.78746
 C63 C 0.28227 0.63433 0.80063
 C64 C 0.23919 0.61292 0.77878
 C65 C 0.20579 0.64169 0.74265
 C66 C 0.21500 0.69301 0.72986
 H67 H 0.34329 0.76187 0.70306
 H68 H 0.19467 0.78870 0.78894
 H69 H 0.32436 0.70237 0.80592
 H70 H 0.18898 0.71565 0.70259
 H71 H 0.29811 0.91098 0.75249
 H72 H 0.23210 0.57341 0.78863
 C73 C 0.03260 0.10357 0.04208
 H74 H 0.00040 0.11795 0.01823
 C75 C 0.06019 0.13464 0.08344
 H76 H 0.04934 0.17302 0.09104
 C77 C 0.08644 0.03632 0.06221
 H78 H 0.09686 -0.00204 0.05408
 C79 C 0.11454 0.06562 0.10370
 H80 H 0.14631 0.04924 0.12651
 N81 N 0.04610 0.05519 0.03261
 C82 C 0.05216 -0.08559 -0.05908
 H83 H 0.01904 -0.10154 -0.03133
 C84 C 0.08732 -0.11664 -0.09303
 H85 H 0.08149 -0.15665 -0.09103
 C86 C 0.10041 -0.01414 -0.09668
 H87 H 0.10495 0.02599 -0.09827
 C88 C 0.13650 -0.04382 -0.13107
 H89 H 0.16896 -0.02641 -0.15871
 Zn90 Zn 0.01097 0.00785 -0.01855
 N91 N 0.05919 -0.03530 -0.06178
 C92 C -0.00783 0.02728 -0.16128
 N93 N -0.02429 0.03788 -0.09301
 C94 C -0.06502 0.06677 -0.07973
 C95 C -0.09106 0.08542 -0.13652
 C96 C -0.03183 0.04598 -0.21898
 C97 C -0.01127 -0.04661 0.10857
 C98 C -0.03988 -0.07116 0.16379
 C99 C -0.11092 -0.06306 0.09481
 C100 C -0.08093 -0.03756 0.04091
 N101 N -0.03204 -0.02944 0.04907
 H102 H 0.02382 0.00384 -0.17180
 H103 H -0.07784 0.07453 -0.02517
 H104 H -0.12362 0.10793 -0.12558
 H105 H -0.01806 0.03725 -0.27288
 H106 H 0.02755 -0.04066 0.11395
 H107 H -0.02297 -0.08367 0.21144
 H108 H -0.14980 -0.06889 0.08833
 H109 H -0.09678 -0.02412 -0.00699
 C110 C 0.12986 -0.09575 -0.12951
 C111 C 0.10146 0.11544 0.11520
 C112 C -0.09012 -0.07946 0.15751
 C113 C -0.07406 0.07476 -0.20712
 C114 C 0.04351 0.59676 0.55195
 H115 H 0.03195 0.60664 0.49961
 C116 C 0.07993 0.62523 0.58045
 H117 H 0.09637 0.65696 0.55018
 C118 C 0.03774 0.54256 0.65435
 H119 H 0.02146 0.51021 0.68286
 C120 C 0.07494 0.56936 0.68408
 H121 H 0.08699 0.55741 0.73542
 N122 N 0.02338 0.55608 0.58877
 C123 C 0.00286 0.42433 0.47589
 H124 H -0.03028 0.40957 0.50488
 C125 C 0.03439 0.39205 0.43708
 H126 H 0.02585 0.35256 0.43715
 C127 C 0.05505 0.49329 0.44069
 H128 H 0.06338 0.53257 0.44269
 C129 C 0.08739 0.46249 0.40123
 H130 H 0.12033 0.47874 0.37325
 Zn131 Zn -0.02192 0.51589 0.54338
 N132 N 0.01459 0.47368 0.47909
 C133 C -0.08751 0.53561 0.43912
 N134 N -0.06421 0.55686 0.49218
 C135 C -0.07280 0.60508 0.51007
 C136 C -0.10500 0.63436 0.47244
 C137 C -0.12058 0.56325 0.40105
 C138 C -0.04042 0.43546 0.64319
 C139 C -0.07045 0.40049 0.68287
 C140 C -0.14142 0.45093 0.66068
 C141 C -0.11023 0.48450 0.62057
 N142 N -0.06090 0.47558 0.61097
 H143 H -0.08064 0.49700 0.42682
 H144 H -0.05523 0.62072 0.55411
 H145 H -0.11156 0.67272 0.48668
 H146 H -0.13882 0.54574 0.35893
 H147 H -0.00112 0.42900 0.63438
 H148 H -0.05430 0.36723 0.70503
 H149 H -0.18084 0.45757 0.66525
 H150 H -0.12577 0.51665 0.59481
 C151 C 0.07788 0.41089 0.40096
 C152 C 0.09675 0.61087 0.64625
 C153 C -0.12156 0.40756 0.69044
 C154 C -0.12948 0.61333 0.41773
 C155 C 0.53796 0.06330 0.57372
 H156 H 0.49868 0.06346 0.58917
 C157 C 0.57091 0.08594 0.61665
 H158 H 0.55701 0.10435 0.66465
 C159 C 0.60438 0.03859 0.49307
 H160 H 0.61742 0.02027 0.44481
 C161 C 0.63865 0.05962 0.53551
 H162 H 0.67776 0.05770 0.51921
 N163 N 0.55506 0.04018 0.51320
 C164 C 0.57733 -0.06479 0.39687
 H165 H 0.58253 -0.07710 0.45099
 C166 C 0.60639 -0.08520 0.34008
 H167 H 0.63325 -0.11354 0.35097
 C168 C 0.53762 -0.01178 0.31649
 H169 H 0.51210 0.01798 0.30717
 C170 C 0.56520 -0.03179 0.25832
 H171 H 0.56006 -0.01797 0.20466
 Zn172 Zn 0.50901 0.00440 0.46238
 N173 N 0.54406 -0.02826 0.38440
 C174 C 0.42526 0.02736 0.38857
 N175 N 0.46048 0.04801 0.42657
 C176 C 0.46048 0.09778 0.43922
 C177 C 0.42320 0.12839 0.41509
 C178 C 0.38735 0.05649 0.36378
 C179 C 0.50714 -0.06816 0.57249
 C180 C 0.48683 -0.09928 0.62823
 C181 C 0.40530 -0.07838 0.59455
 C182 C 0.42715 -0.04707 0.53981
 N183 N 0.47735 -0.04271 0.52944
 H184 H 0.42636 -0.01211 0.37820
 H185 H 0.48913 0.11383 0.46839
 H186 H 0.42319 0.16781 0.42597
 H187 H 0.35947 0.03909 0.33438
 H188 H 0.54674 -0.06277 0.56542
 H189 H 0.51090 -0.11866 0.66293
 H190 H 0.36540 -0.08109 0.60256
 H191 H 0.40369 -0.02551 0.50718
 C192 C 0.60051 -0.06824 0.26982
 C193 C 0.62180 0.08334 0.59834
 C194 C 0.43552 -0.10449 0.63980
 C195 C 0.38586 0.10767 0.37761
 C196 C 0.58401 0.56048 -0.00140
 H197 H 0.58232 0.55930 -0.05871
 C198 C 0.61749 0.59261 0.02714
 H199 H 0.64179 0.61620 -0.00804
 C200 C 0.55472 0.53107 0.11475
 H201 H 0.52991 0.50735 0.14872
 C202 C 0.58850 0.56164 0.14535
 H203 H 0.58955 0.56118 0.20289
 N204 N 0.55272 0.53140 0.04260
 C205 C 0.58377 0.43856 -0.06555
 H206 H 0.60707 0.46052 -0.03422
 C207 C 0.60461 0.40093 -0.10792
 H208 H 0.64402 0.39463 -0.10961
 C209 C 0.50383 0.41802 -0.09891
 H210 H 0.46448 0.42370 -0.09395
 C211 C 0.52306 0.38018 -0.14173
 H212 H 0.49856 0.35748 -0.17038
 Zn213 Zn 0.50432 0.49194 0.00308
 N214 N 0.53409 0.44615 -0.06150
 C215 C 0.41579 0.51214 -0.05835
 N216 N 0.45960 0.53307 -0.04391
 C217 C 0.46957 0.58218 -0.05954
 C218 C 0.43566 0.61157 -0.09341
 C219 C 0.38093 0.54017 -0.09224
 C220 C 0.47136 0.40475 0.08081
 C221 C 0.43696 0.37642 0.12422
 C222 C 0.39584 0.45271 0.15900
 C223 C 0.43108 0.47959 0.11522
 N224 N 0.46684 0.45521 0.07551
 H225 H 0.40732 0.47388 -0.04215
 H226 H 0.50348 0.59901 -0.04564
 H227 H 0.44395 0.65052 -0.10619
 H228 H 0.34637 0.52285 -0.10353
 H229 H 0.50027 0.38621 0.04896
 H230 H 0.43926 0.33612 0.12565
 H231 H 0.36615 0.47249 0.18760
 H232 H 0.42831 0.51972 0.10959
 C233 C 0.57371 0.37105 -0.14597
 C234 C 0.61994 0.59322 0.10114
 C235 C 0.39783 0.40033 0.16178
 C236 C 0.39112 0.59045 -0.11041
 N237 N 0.20618 -0.11220 -0.19565
 N238 N 0.16566 -0.12806 -0.16371
 N239 N 0.15460 0.39422 0.34055
 N240 N 0.11336 0.37734 0.36833
 N241 N 0.66721 -0.11195 0.21469
 N242 N 0.62991 -0.08650 0.20932
 N243 N 0.63648 0.32070 -0.19579
 N244 N 0.59221 0.33063 -0.18796
 N245 N -0.14022 0.10883 -0.26608
 N246 N -0.09783 0.09245 -0.26835
 N247 N -0.19385 0.62221 0.34199
 N248 N -0.16333 0.64291 0.38005
 N249 N 0.31131 0.12083 0.32282
 N250 N 0.34708 0.13889 0.35412
 N251 N 0.31619 0.60356 -0.16405
 N252 N 0.35685 0.62083 -0.14552
 N253 N -0.15987 -0.12184 0.21334
 N254 N -0.11846 -0.10337 0.21669
 N255 N -0.19914 0.37481 0.73480
 N256 N -0.15296 0.36833 0.72165
 N257 N 0.37156 -0.14676 0.70940
 N258 N 0.41565 -0.13521 0.69905
 N259 N 0.31934 0.39125 0.22373
 N260 N 0.35828 0.37089 0.19636
 N261 N 0.16517 0.12693 0.19075
 N262 N 0.13028 0.14627 0.15797
 N263 N 0.16357 0.61730 0.71820
 N264 N 0.13781 0.63696 0.67132
 N265 N 0.70075 0.09439 0.64230
 N266 N 0.65533 0.10630 0.64294
 N267 N 0.67044 0.61469 0.19136
 N268 N 0.65517 0.62502 0.13044
   
