data_POSCAR
  _audit_creation_date              2014-09-24
  _audit_creation_method            'ToBaCCo'
  _symmetry_space_group_name_H-M    'P1'
  _symmetry_Int_Tables_number       1
  _symmetry_cell_setting            triclinic
  loop_
  _symmetry_equiv_pos_as_xyz
 x,y,z
_cell_length_a 59.9679
_cell_length_b 59.5280
_cell_length_c 53.2076
_cell_angle_alpha 90.075700
_cell_angle_beta 90.028900
_cell_angle_gamma 94.461000
loop_
  _atom_site_label
  _atom_site_type_symbol
  _atom_site_fract_x
  _atom_site_fract_y
  _atom_site_fract_z
C1 C 0.06948 0.26510 0.01250
 C2 C 0.06973 0.26422 -0.01324
 C3 C 0.05060 0.27371 -0.02148
 N4 N 0.03847 0.27994 -0.00161
 C5 C 0.05005 0.27475 0.01914
 C6 C 0.04495 0.27744 -0.04693
 C7 C 0.02281 0.28166 -0.05390
 C8 C 0.01701 0.29240 -0.07581
 C9 C -0.00590 0.29210 -0.07616
 C10 C -0.01358 0.28120 -0.05443
 N11 N 0.00406 0.27521 -0.04073
 C12 C -0.03646 0.27650 -0.04808
 C13 C -0.04313 0.27274 -0.02277
 C14 C -0.06376 0.26297 -0.01502
 C15 C -0.06390 0.26397 0.01071
 C16 C -0.04325 0.27395 0.01786
 N17 N -0.03052 0.27925 -0.00259
 C18 C -0.03683 0.27916 0.04284
 C19 C -0.01434 0.28458 0.04972
 C20 C -0.00727 0.29405 0.07247
 C21 C 0.01570 0.29421 0.07280
 C22 C 0.02193 0.28484 0.05024
 N23 N 0.00355 0.27916 0.03624
 C24 C 0.04383 0.27976 0.04397
 H25 H 0.08205 0.25915 0.02490
 H26 H 0.08251 0.25726 -0.02456
 H27 H 0.00305 0.26945 0.01993
 H28 H 0.02815 0.29986 -0.09003
 H29 H -0.01578 0.29929 -0.09069
 H30 H -0.07729 0.25578 -0.02666
 H31 H -0.07757 0.25786 0.02279
 H32 H 0.02652 0.30009 0.08812
 H33 H 0.00324 0.26528 -0.02458
 H34 H -0.01760 0.29980 0.08748
 C35 C 0.43380 0.76512 0.48580
 C36 C 0.43368 0.76535 0.51158
 C37 C 0.45513 0.77278 0.51911
 N38 N 0.46831 0.77715 0.49883
 C39 C 0.45533 0.77241 0.47844
 C40 C 0.46192 0.77667 0.54427
 C41 C 0.48458 0.78100 0.55135
 C42 C 0.49179 0.78952 0.57448
 C43 C 0.51474 0.78959 0.57463
 C44 C 0.52090 0.78111 0.55158
 N45 N 0.50242 0.77593 0.53750
 C46 C 0.54297 0.77686 0.54480
 C47 C 0.54944 0.77304 0.51972
 C48 C 0.56981 0.76560 0.51248
 C49 C 0.56993 0.76542 0.48671
 C50 C 0.54963 0.77275 0.47907
 N51 N 0.53715 0.77746 0.49927
 C52 C 0.54340 0.77622 0.45385
 C53 C 0.52137 0.78027 0.44668
 C54 C 0.51539 0.78838 0.42340
 C55 C 0.49245 0.78827 0.42325
 C56 C 0.48505 0.78011 0.44644
 N57 N 0.50279 0.77528 0.46061
 C58 C 0.46235 0.77587 0.45331
 H59 H 0.41965 0.76018 0.47385
 H60 H 0.41941 0.76062 0.52341
 H61 H 0.50206 0.76654 0.47752
 H62 H 0.48158 0.79492 0.58978
 H63 H 0.52562 0.79503 0.59006
 H64 H 0.58321 0.76080 0.52450
 H65 H 0.58344 0.76047 0.47495
 H66 H 0.48235 0.79341 0.40773
 H67 H 0.50183 0.76691 0.52074
 H68 H 0.52639 0.79361 0.40802
 C69 C 0.93105 0.70480 0.01432
 C70 C 0.93035 0.70540 -0.01140
 C71 C 0.95084 0.71538 -0.01937
 N72 N 0.96426 0.72017 0.00067
 C73 C 0.95217 0.71370 0.02122
 C74 C 0.95650 0.72113 -0.04459
 C75 C 0.97909 0.72675 -0.05180
 C76 C 0.98583 0.73809 -0.07365
 C77 C 1.00877 0.73908 -0.07425
 C78 C 1.01554 0.72894 -0.05242
 N79 N 0.99740 0.72144 -0.03883
 C80 C 1.03792 0.72538 -0.04642
 C81 C 1.04509 0.72083 -0.02183
 C82 C 1.06627 0.71485 -0.01562
 C83 C 1.06707 0.71383 0.01008
 C84 C 1.04647 0.71963 0.01880
 N85 N 1.03302 0.72381 -0.00079
 C86 C 1.04064 0.72173 0.04448
 C87 C 1.01827 0.72392 0.05226
 C88 C 1.01213 0.73201 0.07555
 C89 C 0.98919 0.73101 0.07599
 C90 C 0.98189 0.72267 0.05284
 N91 N 0.99968 0.71827 0.03851
 C92 C 0.95924 0.71789 0.04614
 H93 H 0.91753 0.69854 0.02650
 H94 H 0.91622 0.69937 -0.02287
 H95 H 0.99905 0.70983 0.02135
 H96 H 0.97536 0.74501 -0.08779
 H97 H 1.01922 0.74654 -0.08908
 H98 H 1.07982 0.71170 -0.02825
 H99 H 1.08126 0.70938 0.02106
 H100 H 0.97911 0.73584 0.09166
 H101 H 0.99753 0.71117 -0.02302
 H102 H 1.02302 0.73815 0.09070
 C103 C 0.56815 0.23261 0.48586
 C104 C 0.56823 0.23164 0.51161
 C105 C 0.54674 0.22410 0.51883
 N106 N 0.53357 0.22039 0.49838
 C107 C 0.54660 0.22568 0.47820
 C108 C 0.53987 0.21968 0.54385
 C109 C 0.51724 0.21493 0.55077
 C110 C 0.51012 0.20597 0.57371
 C111 C 0.48717 0.20560 0.57384
 C112 C 0.48089 0.21432 0.55097
 N113 N 0.49932 0.21996 0.53701
 C114 C 0.45871 0.21829 0.54435
 C115 C 0.45192 0.22228 0.51940
 C116 C 0.43090 0.22824 0.51250
 C117 C 0.43072 0.22927 0.48677
 C118 C 0.45177 0.22425 0.47873
 N119 N 0.46460 0.21971 0.49873
 C120 C 0.45833 0.22259 0.45328
 C121 C 0.48051 0.21935 0.44571
 C122 C 0.48680 0.21369 0.42156
 C123 C 0.50972 0.21369 0.42155
 C124 C 0.51691 0.21967 0.44559
 N125 N 0.49901 0.22313 0.46017
 C126 C 0.53961 0.22329 0.45290
 H127 H 0.58233 0.23788 0.47413
 H128 H 0.58249 0.23599 0.52361
 H129 H 0.49959 0.23031 0.47796
 H130 H 0.52041 0.20050 0.58890
 H131 H 0.47635 0.19979 0.58916
 H132 H 0.41702 0.23135 0.52467
 H133 H 0.41656 0.23312 0.47539
 H134 H 0.51993 0.21010 0.40550
 H135 H 0.49980 0.22931 0.52053
 H136 H 0.47614 0.21023 0.40541
 C137 C 0.70922 -0.07388 -0.01229
 C138 C 0.70964 -0.07407 0.01343
 C139 C 0.71344 -0.05183 0.02122
 N140 N 0.71557 -0.03818 0.00087
 C141 C 0.71281 -0.05154 -0.01967
 C142 C 0.71806 -0.04476 0.04635
 C143 C 0.72160 -0.02165 0.05318
 C144 C 0.73005 -0.01348 0.07608
 C145 C 0.72888 0.00947 0.07592
 C146 C 0.71924 0.01477 0.05327
 N147 N 0.71487 -0.00422 0.03955
 C148 C 0.71303 0.03636 0.04649
 C149 C 0.70696 0.04157 0.02172
 C150 C 0.69563 0.06003 0.01492
 C151 C 0.69505 0.06023 -0.01081
 C152 C 0.70641 0.04209 -0.01886
 N153 N 0.71343 0.03052 0.00110
 C154 C 0.71153 0.03720 -0.04417
 C155 C 0.71750 0.01541 -0.05118
 C156 C 0.72825 0.01026 -0.07329
 C157 C 0.72953 -0.01264 -0.07360
 C158 C 0.72032 -0.02098 -0.05120
 N159 N 0.71296 -0.00371 -0.03771
 C160 C 0.71688 -0.04415 -0.04473
 H161 H 0.70769 -0.08875 -0.02405
 H162 H 0.70850 -0.08913 0.02484
 H163 H 0.70312 -0.00522 -0.02158
 H164 H 0.73596 -0.02289 0.09176
 H165 H 0.73403 0.02083 0.09110
 H166 H 0.68861 0.07211 0.02726
 H167 H 0.68734 0.07246 -0.02230
 H168 H 0.73635 -0.02186 -0.08891
 H169 H 0.70531 -0.00545 0.02322
 H170 H 0.73447 0.02172 -0.08789
 C171 C 0.21112 0.42832 0.48922
 C172 C 0.21126 0.42814 0.51499
 C173 C 0.21395 0.45045 0.52269
 N174 N 0.21564 0.46421 0.50247
 C175 C 0.21375 0.45074 0.48198
 C176 C 0.21690 0.45762 0.54789
 C177 C 0.21859 0.48053 0.55527
 C178 C 0.22648 0.48852 0.57837
 C179 C 0.22465 0.51141 0.57847
 C180 C 0.21534 0.51676 0.55559
 N181 N 0.21161 0.49782 0.54161
 C182 C 0.20953 0.53849 0.54861
 C183 C 0.20393 0.54397 0.52369
 C184 C 0.19426 0.56339 0.51658
 C185 C 0.19398 0.56354 0.49081
 C186 C 0.20351 0.54422 0.48306
 N187 N 0.20951 0.53224 0.50318
 C188 C 0.20856 0.53901 0.45790
 C189 C 0.21448 0.51743 0.45043
 C190 C 0.22355 0.51242 0.42730
 C191 C 0.22553 0.48957 0.42693
 C192 C 0.21796 0.48126 0.45000
 N193 N 0.21106 0.49832 0.46411
 C194 C 0.21641 0.45827 0.45691
 H195 H 0.20982 0.41359 0.47722
 H196 H 0.21009 0.41322 0.52666
 H197 H 0.20231 0.49663 0.48095
 H198 H 0.23290 0.47893 0.59364
 H199 H 0.22953 0.52274 0.59377
 H200 H 0.18833 0.57627 0.52870
 H201 H 0.18779 0.57656 0.47911
 H202 H 0.23182 0.48020 0.41138
 H203 H 0.20267 0.49639 0.52487
 H204 H 0.22816 0.52396 0.41215
 C205 C 0.27299 0.93211 0.01311
 C206 C 0.27410 0.93264 -0.01257
 C207 C 0.28237 0.95425 -0.01915
 N208 N 0.28571 0.96709 0.00171
 C209 C 0.27986 0.95361 0.02145
 C210 C 0.28736 0.96179 -0.04394
 C211 C 0.29141 0.98507 -0.04936
 C212 C 0.30347 0.99368 -0.06989
 C213 C 0.30245 1.01660 -0.06934
 C214 C 0.28977 1.02147 -0.04850
 N215 N 0.28340 1.00216 -0.03612
 C216 C 0.28366 1.04330 -0.04210
 C217 C 0.27769 1.04883 -0.01716
 C218 C 0.26797 1.06822 -0.01006
 C219 C 0.26658 1.06791 0.01559
 C220 C 0.27463 1.04784 0.02355
 N221 N 0.28163 1.03635 0.00339
 C222 C 0.27748 1.04135 0.04903
 C223 C 0.28310 1.01937 0.05589
 C224 C 0.28796 1.01253 0.08015
 C225 C 0.28919 0.98962 0.07948
 C226 C 0.28490 0.98283 0.05493
 N227 N 0.28118 1.00101 0.04072
 C228 C 0.28185 0.96011 0.04696
 H229 H 0.26754 0.91751 0.02422
 H230 H 0.26923 0.91864 -0.02489
 H231 H 0.27464 1.00042 0.02265
 H232 H 0.31216 0.98438 -0.08382
 H233 H 0.31021 1.02839 -0.08279
 H234 H 0.26254 1.08144 -0.02201
 H235 H 0.26052 1.08130 0.02679
 H236 H 0.29185 0.97912 0.09561
 H237 H 0.27216 1.00052 -0.02118
 H238 H 0.28932 1.02258 0.09708
 C239 C 0.78187 0.43036 0.48555
 C240 C 0.78079 0.42953 0.51127
 C241 C 0.78535 0.45142 0.51984
 N242 N 0.78968 0.46547 0.50020
 C243 C 0.78743 0.45266 0.47921
 C244 C 0.78673 0.45787 0.54544
 C245 C 0.78927 0.48059 0.55356
 C246 C 0.79458 0.48754 0.57790
 C247 C 0.79381 0.51055 0.57847
 C248 C 0.78774 0.51708 0.55458
 N249 N 0.78496 0.49872 0.53955
 C250 C 0.78342 0.53931 0.54778
 C251 C 0.78081 0.54628 0.52265
 C252 C 0.77309 0.56668 0.51548
 C253 C 0.77404 0.56737 0.48974
 C254 C 0.78239 0.54742 0.48205
 N255 N 0.78659 0.53459 0.50219
 C256 C 0.78705 0.54180 0.45689
 C257 C 0.79275 0.52016 0.44953
 C258 C 0.80199 0.51515 0.42650
 C259 C 0.80321 0.49219 0.42584
 C260 C 0.79468 0.48381 0.44848
 N261 N 0.78838 0.50098 0.46283
 C262 C 0.79131 0.46067 0.45447
 H263 H 0.77902 0.41609 0.47303
 H264 H 0.77717 0.41442 0.52227
 H265 H 0.77896 0.49937 0.47920
 H266 H 0.79830 0.47718 0.59380
 H267 H 0.79695 0.52119 0.59479
 H268 H 0.76730 0.57968 0.52753
 H269 H 0.76913 0.58101 0.47806
 H270 H 0.80938 0.48269 0.41030
 H271 H 0.77788 0.49826 0.52174
 H272 H 0.80705 0.52679 0.41158
 O273 O 0.23652 0.26795 0.22017
 O274 O 0.28414 0.25415 0.25952
 O275 O 0.26452 0.23711 0.21910
 O276 O 0.25571 0.28511 0.26065
 O277 O 0.23159 0.26355 0.28299
 O278 O 0.24343 0.21468 0.24397
 O279 O 0.26097 0.23398 0.28443
 O280 O 0.21406 0.24476 0.24263
 Cu281 Cu 0.26256 0.26328 0.23754
 Cu282 Cu 0.23524 0.23698 0.26584
 C283 C 0.21721 0.25835 0.22435
 C284 C 0.28056 0.24220 0.27907
 C285 C 0.25550 0.21771 0.22447
 C286 C 0.24197 0.28260 0.27880
 O287 O 0.75790 0.78407 0.24204
 O288 O 0.76984 0.73698 0.28340
 O289 O 0.78767 0.75486 0.24265
 O290 O 0.73967 0.76615 0.28259
 O291 O 0.71775 0.74296 0.25942
 O292 O 0.76580 0.73142 0.21969
 O293 O 0.74777 0.71382 0.26037
 O294 O 0.73590 0.76094 0.21887
 Cu295 Cu 0.76595 0.76283 0.26502
 Cu296 Cu 0.73960 0.73497 0.23725
 C297 C 0.74501 0.78055 0.22326
 C298 C 0.76078 0.71735 0.27906
 C299 C 0.78492 0.74129 0.22425
 C300 C 0.72050 0.75640 0.27792
 O301 O 0.78517 0.24632 0.23920
 O302 O 0.73563 0.23491 0.27941
 O303 O 0.75148 0.21601 0.23974
 O304 O 0.76931 0.26519 0.27905
 O305 O 0.74993 0.28670 0.25497
 O306 O 0.73291 0.23784 0.21515
 O307 O 0.71646 0.25634 0.25501
 O308 O 0.76619 0.26830 0.21525
 Cu309 Cu 0.76232 0.23844 0.26179
 Cu310 Cu 0.73943 0.26444 0.23268
 C311 C 0.78414 0.25919 0.22027
 C312 C 0.71759 0.24377 0.27417
 C313 C 0.73939 0.21861 0.22051
 C314 C 0.76247 0.28433 0.27387
 O315 O 0.26505 0.76062 0.21840
 O316 O 0.24761 0.71412 0.26136
 O317 O 0.23094 0.73139 0.22151
 O318 O 0.28236 0.74320 0.25871
 O319 O 0.26493 0.76640 0.28281
 O320 O 0.21412 0.75596 0.24448
 O321 O 0.23014 0.73769 0.28499
 O322 O 0.24896 0.78450 0.24304
 Cu323 Cu 0.25833 0.73499 0.23766
 Cu324 Cu 0.23775 0.76344 0.26626
 C325 C 0.25982 0.78044 0.22328
 C326 C 0.23587 0.71797 0.28053
 C327 C 0.21390 0.74203 0.22635
 C328 C 0.28236 0.75661 0.27732
 O329 O 0.76892 0.25777 0.71587
 O330 O 0.75190 0.21071 0.75830
 O331 O 0.73541 0.22782 0.71803
 O332 O 0.78597 0.24073 0.75646
 O333 O 0.76748 0.26338 0.78014
 O334 O 0.71725 0.25112 0.74122
 O335 O 0.73355 0.23367 0.78177
 O336 O 0.75135 0.28091 0.74000
 Cu337 Cu 0.76247 0.23197 0.73486
 Cu338 Cu 0.74054 0.25954 0.76314
 C339 C 0.76287 0.27732 0.72060
 C340 C 0.73984 0.21416 0.77733
 C341 C 0.71776 0.23750 0.72284
 C342 C 0.78531 0.25411 0.77504
 O343 O 0.24930 0.78952 0.75618
 O344 O 0.23123 0.74094 0.71624
 O345 O 0.21504 0.76013 0.75596
 O346 O 0.26525 0.77061 0.71662
 O347 O 0.28342 0.74815 0.74083
 O348 O 0.23323 0.73780 0.78035
 O349 O 0.24909 0.71861 0.74096
 O350 O 0.26759 0.76734 0.78061
 Cu351 Cu 0.23834 0.76749 0.73380
 Cu352 Cu 0.26018 0.74077 0.76315
 C353 C 0.26144 0.78674 0.77533
 C354 C 0.23721 0.72151 0.72164
 C355 C 0.21560 0.74734 0.77501
 C356 C 0.28288 0.76104 0.72185
 O357 O 0.21850 0.24360 0.75976
 O358 O 0.26589 0.23140 0.71940
 O359 O 0.24824 0.21403 0.76045
 O360 O 0.23650 0.26140 0.71912
 O361 O 0.25925 0.28416 0.74186
 O362 O 0.27062 0.23702 0.78332
 O363 O 0.28840 0.25423 0.74231
 O364 O 0.24091 0.26660 0.78259
 Cu365 Cu 0.24003 0.23532 0.73739
 Cu366 Cu 0.26702 0.26280 0.76483
 C367 C 0.22158 0.25711 0.77816
 C368 C 0.28524 0.24079 0.72385
 C369 C 0.26138 0.21746 0.77905
 C370 C 0.24604 0.28087 0.72332
 O371 O 0.73676 0.76493 0.71972
 O372 O 0.78373 0.75257 0.76084
 O373 O 0.76583 0.73468 0.72028
 O374 O 0.75484 0.78290 0.76048
 O375 O 0.73132 0.76096 0.78314
 O376 O 0.74314 0.71245 0.74358
 O377 O 0.76055 0.73107 0.78439
 O378 O 0.71391 0.74245 0.74256
 Cu379 Cu 0.76256 0.76100 0.73799
 Cu380 Cu 0.73494 0.73449 0.76572
 C381 C 0.71733 0.75563 0.72397
 C382 C 0.78009 0.73992 0.77984
 C383 C 0.75639 0.71531 0.72503
 C384 C 0.74127 0.78018 0.77875
 C385 C 0.27000 0.09077 0.10517
 C386 C 0.29046 0.08110 0.10228
 C387 C 0.29293 0.06480 0.08376
 C388 C 0.27482 0.05740 0.06821
 C389 C 0.25413 0.06657 0.07184
 C390 C 0.25186 0.08335 0.08984
 C391 C 0.26778 0.10908 0.12349
 N392 N 0.25508 0.12633 0.11796
 N393 N 0.25352 0.14325 0.13409
 C394 C 0.26436 0.14345 0.15651
 N395 N 0.27689 0.12609 0.16217
 N396 N 0.27870 0.10930 0.14587
 C397 C 0.26273 0.16238 0.17413
 C398 C 0.26173 0.15870 0.20018
 C399 C 0.25929 0.17668 0.21669
 C400 C 0.25858 0.19868 0.20740
 C401 C 0.26015 0.20240 0.18139
 C402 C 0.26188 0.18437 0.16488
 H403 H 0.30473 0.08670 0.11379
 H404 H 0.30915 0.05825 0.08124
 H405 H 0.23974 0.06084 0.06056
 H406 H 0.23585 0.09041 0.09191
 H407 H 0.26228 0.14185 0.20770
 H408 H 0.25811 0.17344 0.23669
 H409 H 0.25949 0.21921 0.17379
 H410 H 0.26273 0.18762 0.14487
 C411 C 0.77830 0.58962 0.60527
 C412 C 0.79572 0.59163 0.58752
 C413 C 0.79753 0.57513 0.56911
 C414 C 0.78193 0.55635 0.56801
 C415 C 0.76468 0.55409 0.58582
 C416 C 0.76289 0.57055 0.60433
 C417 C 0.77596 0.60757 0.62421
 N418 N 0.75981 0.60537 0.64214
 N419 N 0.75737 0.62182 0.65869
 C420 C 0.77093 0.64118 0.65799
 N421 N 0.78714 0.64332 0.64015
 N422 N 0.78961 0.62687 0.62364
 C423 C 0.76776 0.65983 0.67581
 C424 C 0.78014 0.68073 0.67308
 C425 C 0.77659 0.69863 0.68922
 C426 C 0.76067 0.69604 0.70857
 C427 C 0.74854 0.67505 0.71160
 C428 C 0.75201 0.65716 0.69537
 H429 H 0.80791 0.60603 0.58770
 H430 H 0.81099 0.57708 0.55552
 H431 H 0.75247 0.53970 0.58519
 H432 H 0.74926 0.56847 0.61767
 H433 H 0.79240 0.68342 0.65824
 H434 H 0.78625 0.71457 0.68640
 H435 H 0.73614 0.67252 0.72632
 H436 H 0.74223 0.64128 0.69806
 C437 C 0.72446 0.90458 0.10122
 C438 C 0.74293 0.91942 0.09468
 C439 C 0.74084 0.93612 0.07661
 C440 C 0.72014 0.93862 0.06494
 C441 C 0.70165 0.92382 0.07153
 C442 C 0.70381 0.90695 0.08941
 C443 C 0.72684 0.88658 0.12003
 N444 N 0.71083 0.86929 0.12253
 N445 N 0.71318 0.85293 0.13916
 C446 C 0.73159 0.85322 0.15408
 N447 N 0.74754 0.87057 0.15166
 N448 N 0.74524 0.88688 0.13496
 C449 C 0.73445 0.83486 0.17230
 C450 C 0.75109 0.83734 0.19093
 C451 C 0.75421 0.81985 0.20774
 C452 C 0.74093 0.79938 0.20615
 C453 C 0.72416 0.79694 0.18767
 C454 C 0.72088 0.81454 0.17101
 H455 H 0.75913 0.91791 0.10324
 H456 H 0.75550 0.94692 0.07144
 H457 H 0.68550 0.92540 0.06284
 H458 H 0.68924 0.89584 0.09406
 H459 H 0.76177 0.85280 0.19252
 H460 H 0.76731 0.82225 0.22173
 H461 H 0.71362 0.78139 0.18601
 H462 H 0.70794 0.81207 0.15686
 C463 C 0.22450 0.40608 0.60313
 C464 C 0.24331 0.41912 0.59392
 C465 C 0.24083 0.43592 0.57603
 C466 C 0.21950 0.44022 0.56737
 C467 C 0.20068 0.42745 0.57665
 C468 C 0.20315 0.41043 0.59428
 C469 C 0.22719 0.38789 0.62160
 N470 N 0.21043 0.37162 0.62570
 N471 N 0.21301 0.35505 0.64201
 C472 C 0.23242 0.35414 0.65501
 N473 N 0.24913 0.37048 0.65101
 N474 N 0.24660 0.38697 0.63460
 C475 C 0.23546 0.33559 0.67293
 C476 C 0.25300 0.33740 0.69052
 C477 C 0.25618 0.31977 0.70712
 C478 C 0.24206 0.29980 0.70632
 C479 C 0.22446 0.29799 0.68881
 C480 C 0.22110 0.31576 0.67240
 H481 H 0.25998 0.41611 0.60023
 H482 H 0.25553 0.44556 0.56886
 H483 H 0.18412 0.43053 0.57001
 H484 H 0.18834 0.40073 0.60104
 H485 H 0.26429 0.35248 0.69150
 H486 H 0.26993 0.32166 0.72035
 H487 H 0.21328 0.28283 0.68778
 H488 H 0.20747 0.31381 0.65903
 C489 C 0.91169 0.27693 0.09944
 C490 C 0.92964 0.26314 0.10138
 C491 C 0.94642 0.26401 0.08312
 C492 C 0.94564 0.27871 0.06261
 C493 C 0.92793 0.29270 0.06075
 C494 C 0.91110 0.29181 0.07896
 C495 C 0.89348 0.27548 0.11836
 N496 N 0.87545 0.28776 0.11572
 N497 N 0.85881 0.28602 0.13235
 C498 C 0.85948 0.27194 0.15236
 N499 N 0.87756 0.25976 0.15509
 N500 N 0.89420 0.26149 0.13845
 C501 C 0.84060 0.26946 0.17041
 C502 C 0.84148 0.25517 0.19136
 C503 C 0.82331 0.25213 0.20779
 C504 C 0.80383 0.26328 0.20363
 C505 C 0.80308 0.27786 0.18294
 C506 C 0.82126 0.28093 0.16655
 H507 H 0.93063 0.25148 0.11687
 H508 H 0.95993 0.25304 0.08481
 H509 H 0.92711 0.30421 0.04509
 H510 H 0.89758 0.30269 0.07688
 H511 H 0.85612 0.24611 0.19496
 H512 H 0.82443 0.24079 0.22356
 H513 H 0.78834 0.28673 0.17922
 H514 H 0.82000 0.29209 0.15064
 C515 C 0.41076 0.77549 0.60121
 C516 C 0.42743 0.76011 0.60197
 C517 C 0.44410 0.76062 0.58358
 C518 C 0.44448 0.77653 0.56413
 C519 C 0.42811 0.79211 0.56349
 C520 C 0.41138 0.79157 0.58181
 C521 C 0.39260 0.77446 0.62021
 N522 N 0.37556 0.78813 0.61841
 N523 N 0.35893 0.78680 0.63506
 C524 C 0.35863 0.77176 0.65427
 N525 N 0.37575 0.75819 0.65616
 N526 N 0.39237 0.75950 0.63949
 C527 C 0.33972 0.76978 0.67231
 C528 C 0.33979 0.75479 0.69272
 C529 C 0.32153 0.75227 0.70910
 C530 C 0.30275 0.76460 0.70539
 C531 C 0.30284 0.77986 0.68525
 C532 C 0.32112 0.78245 0.66894
 H533 H 0.42749 0.74750 0.61661
 H534 H 0.45662 0.74847 0.58435
 H535 H 0.42822 0.80458 0.54868
 H536 H 0.39887 0.80371 0.58067
 H537 H 0.35385 0.74480 0.69594
 H538 H 0.32199 0.74036 0.72443
 H539 H 0.28867 0.78967 0.68190
 H540 H 0.32049 0.79418 0.65346
 C541 C 0.09101 0.72596 0.10063
 C542 C 0.09298 0.73988 0.07936
 C543 C 0.07668 0.73811 0.06055
 C544 C 0.05772 0.72275 0.06292
 C545 C 0.05576 0.70892 0.08439
 C546 C 0.07240 0.71029 0.10286
 C547 C 0.10823 0.72797 0.12050
 N548 N 0.11306 0.70974 0.13422
 N549 N 0.12884 0.71156 0.15190
 C550 C 0.14017 0.73175 0.15678
 N551 N 0.13519 0.75000 0.14321
 N552 N 0.11960 0.74813 0.12534
 C553 C 0.15802 0.73378 0.17593
 C554 C 0.16266 0.75414 0.18898
 C555 C 0.18030 0.75648 0.20618
 C556 C 0.19396 0.73870 0.21015
 C557 C 0.18918 0.71826 0.19733
 C558 C 0.17115 0.71571 0.18062
 H559 H 0.10723 0.75207 0.07719
 H560 H 0.07851 0.74931 0.04452
 H561 H 0.04148 0.69680 0.08668
 H562 H 0.07048 0.69941 0.11914
 H563 H 0.15269 0.76828 0.18578
 H564 H 0.18375 0.77246 0.21572
 H565 H 0.19947 0.70430 0.20012
 H566 H 0.16797 0.69988 0.17072
 C567 C 0.59058 0.22102 0.60136
 C568 C 0.57374 0.23621 0.60206
 C569 C 0.55725 0.23565 0.58346
 C570 C 0.55721 0.21988 0.56385
 C571 C 0.57375 0.20448 0.56325
 C572 C 0.59032 0.20507 0.58179
 C573 C 0.60855 0.22213 0.62061
 N574 N 0.62576 0.20865 0.61895
 N575 N 0.64223 0.21011 0.63582
 C576 C 0.64219 0.22509 0.65512
 N577 N 0.62490 0.23846 0.65686
 N578 N 0.60845 0.23702 0.63997
 C579 C 0.66097 0.22731 0.67335
 C580 C 0.66066 0.24246 0.69363
 C581 C 0.67887 0.24539 0.71005
 C582 C 0.69784 0.23330 0.70652
 C583 C 0.69796 0.21779 0.68659
 C584 C 0.67973 0.21481 0.67022
 H585 H 0.57341 0.24871 0.61682
 H586 H 0.54459 0.24766 0.58420
 H587 H 0.57388 0.19210 0.54832
 H588 H 0.60296 0.19308 0.58070
 H589 H 0.64646 0.25230 0.69668
 H590 H 0.67824 0.25746 0.72523
 H591 H 0.71229 0.20816 0.68338
 H592 H 0.68054 0.20295 0.65486
 C593 C 0.71379 0.08978 0.90145
 C594 C 0.70430 0.06816 0.89533
 C595 C 0.70319 0.05092 0.91326
 C596 C 0.71192 0.05476 0.93765
 C597 C 0.72143 0.07656 0.94354
 C598 C 0.72217 0.09382 0.92579
 C599 C 0.71544 0.10803 0.88253
 N600 N 0.71831 0.12992 0.88987
 N601 N 0.72061 0.14639 0.87295
 C602 C 0.72028 0.14166 0.84798
 N603 N 0.71731 0.11977 0.84061
 N604 N 0.71485 0.10328 0.85755
 C605 C 0.72392 0.16000 0.82932
 C606 C 0.73092 0.15543 0.80477
 C607 C 0.73584 0.17299 0.78774
 C608 C 0.73351 0.19544 0.79480
 C609 C 0.72584 0.19994 0.81909
 C610 C 0.72126 0.18243 0.83623
 H611 H 0.69751 0.06461 0.87676
 H612 H 0.69516 0.03464 0.90811
 H613 H 0.72899 0.08017 0.96174
 H614 H 0.72985 0.11024 0.93100
 H615 H 0.73319 0.13833 0.79891
 H616 H 0.74162 0.16900 0.76909
 H617 H 0.72391 0.21708 0.82510
 H618 H 0.71577 0.18650 0.85496
 C619 C 0.21118 0.59290 0.40369
 C620 C 0.19760 0.57296 0.39926
 C621 C 0.19650 0.55550 0.41693
 C622 C 0.20932 0.55752 0.43903
 C623 C 0.22310 0.57733 0.44324
 C624 C 0.22383 0.59493 0.42591
 C625 C 0.21249 0.61148 0.38522
 N626 N 0.21859 0.63292 0.39262
 N627 N 0.22051 0.64963 0.37597
 C628 C 0.21658 0.64556 0.35118
 N629 N 0.21041 0.62412 0.34376
 N630 N 0.20830 0.60743 0.36046
 C631 C 0.21991 0.66400 0.33265
 C632 C 0.22478 0.65931 0.30744
 C633 C 0.22966 0.67685 0.29039
 C634 C 0.22934 0.69941 0.29809
 C635 C 0.22370 0.70409 0.32307
 C636 C 0.21924 0.68656 0.34024
 H637 H 0.18763 0.57098 0.38232
 H638 H 0.18571 0.54039 0.41336
 H639 H 0.23330 0.57916 0.46004
 H640 H 0.23461 0.61000 0.42971
 H641 H 0.22550 0.64210 0.30107
 H642 H 0.23388 0.67277 0.27121
 H643 H 0.22338 0.72132 0.32955
 H644 H 0.21542 0.69068 0.35951
 C645 C 0.28848 0.91307 0.89753
 C646 C 0.27826 0.93326 0.89384
 C647 C 0.27835 0.94946 0.91288
 C648 C 0.28857 0.94588 0.93625
 C649 C 0.29961 0.92602 0.93945
 C650 C 0.29949 0.90982 0.92041
 C651 C 0.28689 0.89516 0.87805
 N652 N 0.29545 0.87502 0.88221
 N653 N 0.29297 0.85852 0.86526
 C654 C 0.28182 0.86144 0.84342
 N655 N 0.27347 0.88165 0.83915
 N656 N 0.27594 0.89815 0.85610
 C657 C 0.27795 0.84268 0.82516
 C658 C 0.26578 0.84561 0.80297
 C659 C 0.26086 0.82758 0.78654
 C660 C 0.26799 0.80616 0.79189
 C661 C 0.28067 0.80334 0.81373
 C662 C 0.28559 0.82139 0.83017
 H663 H 0.26968 0.93639 0.87643
 H664 H 0.26953 0.96440 0.90966
 H665 H 0.30848 0.92303 0.95671
 H666 H 0.30782 0.89461 0.92378
 H667 H 0.25968 0.86178 0.79845
 H668 H 0.25111 0.83035 0.76985
 H669 H 0.28646 0.78707 0.81836
 H670 H 0.29506 0.81852 0.84704
 C671 C 0.78942 0.41137 0.39508
 C672 C 0.77418 0.42818 0.39551
 C673 C 0.77508 0.44431 0.41462
 C674 C 0.79131 0.44408 0.43357
 C675 C 0.80697 0.42776 0.43285
 C676 C 0.80597 0.41147 0.41384
 C677 C 0.78747 0.39347 0.37565
 N678 N 0.79941 0.37505 0.37744
 N679 N 0.79679 0.35847 0.36059
 C680 C 0.78216 0.35964 0.34121
 N681 N 0.77040 0.37816 0.33931
 N682 N 0.77298 0.39469 0.35617
 C683 C 0.77834 0.34077 0.32313
 C684 C 0.76432 0.34282 0.30221
 C685 C 0.75959 0.32464 0.28595
 C686 C 0.76870 0.30394 0.29025
 C687 C 0.78312 0.30201 0.31083
 C688 C 0.78794 0.32024 0.32706
 H689 H 0.76121 0.42862 0.38140
 H690 H 0.76286 0.45679 0.41489
 H691 H 0.81971 0.42745 0.44726
 H692 H 0.81803 0.39884 0.41399
 H693 H 0.75672 0.35840 0.29853
 H694 H 0.74845 0.32672 0.27024
 H695 H 0.79045 0.28630 0.31462
 H696 H 0.79882 0.31808 0.34298
 C697 C 0.09597 0.27639 0.89753
 C698 C 0.07452 0.26594 0.89300
 C699 C 0.05767 0.26655 0.91108
 C700 C 0.06184 0.27751 0.93431
 C701 C 0.08325 0.28840 0.93848
 C702 C 0.10005 0.28783 0.92038
 C703 C 0.11416 0.27495 0.87883
 N704 N 0.13488 0.28509 0.88322
 N705 N 0.15142 0.28320 0.86685
 C706 C 0.14797 0.27108 0.84536
 N707 N 0.12721 0.26104 0.84089
 N708 N 0.11066 0.26294 0.85727
 C709 C 0.16660 0.26831 0.82757
 C710 C 0.16327 0.25477 0.80602
 C711 C 0.18104 0.25139 0.78981
 C712 C 0.20257 0.26150 0.79475
 C713 C 0.20584 0.27536 0.81604
 C714 C 0.18807 0.27871 0.83227
 H715 H 0.07077 0.25698 0.87560
 H716 H 0.04155 0.25771 0.90722
 H717 H 0.08696 0.29770 0.95569
 H718 H 0.11630 0.29627 0.92443
 H719 H 0.14697 0.24652 0.80177
 H720 H 0.17794 0.24066 0.77354
 H721 H 0.22221 0.28342 0.82037
 H722 H 0.19124 0.28929 0.84865
 C723 C 0.59456 0.77413 0.39727
 C724 C 0.57547 0.75881 0.39659
 C725 C 0.55879 0.75965 0.41482
 C726 C 0.56082 0.77584 0.43402
 C727 C 0.57962 0.79140 0.43454
 C728 C 0.59636 0.79053 0.41639
 C729 C 0.61268 0.77267 0.37852
 N730 N 0.63205 0.78600 0.38050
 N731 N 0.64859 0.78423 0.36409
 C732 C 0.64647 0.76908 0.34496
 N733 N 0.62705 0.75585 0.34289
 N734 N 0.61052 0.75760 0.35932
 C735 C 0.66515 0.76658 0.32716
 C736 C 0.66256 0.75151 0.30680
 C737 C 0.68042 0.74849 0.29060
 C738 C 0.70131 0.76042 0.29439
 C739 C 0.70382 0.77574 0.31450
 C740 C 0.68594 0.77881 0.33067
 H741 H 0.57352 0.74596 0.38217
 H742 H 0.54439 0.74749 0.41416
 H743 H 0.58139 0.80409 0.44916
 H744 H 0.61077 0.80263 0.41744
 H745 H 0.64678 0.74186 0.30348
 H746 H 0.67791 0.73657 0.27527
 H747 H 0.71968 0.78522 0.31791
 H748 H 0.68853 0.79057 0.34613
 C749 C 0.90438 0.72442 0.90151
 C750 C 0.90225 0.73348 0.92566
 C751 C 0.91946 0.73264 0.94321
 C752 C 0.93916 0.72227 0.93731
 C753 C 0.94120 0.71322 0.91297
 C754 C 0.92409 0.71445 0.89525
 C755 C 0.88604 0.72545 0.88306
 N756 N 0.89007 0.72437 0.85797
 N757 N 0.87354 0.72576 0.84143
 C758 C 0.85229 0.72806 0.84933
 N759 N 0.84826 0.72896 0.87440
 N760 N 0.86481 0.72776 0.89092
 C761 C 0.83393 0.73006 0.83109
 C762 C 0.81156 0.72545 0.83853
 C763 C 0.79412 0.72812 0.82166
 C764 C 0.79865 0.73582 0.79711
 C765 C 0.82101 0.74025 0.78957
 C766 C 0.83849 0.73720 0.80633
 H767 H 0.88738 0.74161 0.93091
 H768 H 0.91750 0.74057 0.96133
 H769 H 0.95584 0.70471 0.90778
 H770 H 0.92613 0.70719 0.87680
 H771 H 0.80753 0.71980 0.85745
 H772 H 0.77705 0.72464 0.82803
 H773 H 0.82499 0.74614 0.77073
 H774 H 0.85556 0.74095 0.80009
 C775 C 0.40679 0.22741 0.39777
 C776 C 0.41511 0.24654 0.41126
 C777 C 0.43232 0.24505 0.42873
 C778 C 0.44100 0.22427 0.43356
 C779 C 0.43265 0.20510 0.42015
 C780 C 0.41591 0.20673 0.40207
 C781 C 0.38824 0.22897 0.37982
 N782 N 0.38745 0.21699 0.35805
 N783 N 0.37062 0.21851 0.34191
 C784 C 0.35379 0.23179 0.34715
 N785 N 0.35452 0.24363 0.36899
 N786 N 0.37149 0.24237 0.38494
 C787 C 0.33501 0.23342 0.32954
 C788 C 0.31330 0.23519 0.33878
 C789 C 0.29549 0.23730 0.32224
 C790 C 0.29921 0.23838 0.29621
 C791 C 0.32093 0.23666 0.28692
 C792 C 0.33865 0.23382 0.30346
 H793 H 0.40838 0.26268 0.40816
 H794 H 0.43859 0.26000 0.43892
 H795 H 0.43907 0.18890 0.42377
 H796 H 0.40963 0.19173 0.39199
 H797 H 0.31010 0.23484 0.35881
 H798 H 0.27890 0.23875 0.32983
 H799 H 0.32415 0.23743 0.26690
 H800 H 0.35529 0.23258 0.29595
 C801 C 0.72243 0.90558 0.89970
 C802 C 0.70178 0.90841 0.91131
 C803 C 0.69993 0.92518 0.92942
 C804 C 0.71870 0.93945 0.93638
 C805 C 0.73939 0.93649 0.92495
 C806 C 0.74120 0.91988 0.90665
 C807 C 0.72451 0.88759 0.88078
 N808 N 0.74305 0.88737 0.86617
 N809 N 0.74509 0.87099 0.84944
 C810 C 0.72871 0.85409 0.84669
 N811 N 0.71014 0.85433 0.86127
 N812 N 0.70806 0.87077 0.87791
 C813 C 0.73130 0.83553 0.82860
 C814 C 0.71705 0.81565 0.82964
 C815 C 0.72013 0.79776 0.81328
 C816 C 0.73737 0.79945 0.79534
 C817 C 0.75131 0.81951 0.79393
 C818 C 0.74838 0.83730 0.81046
 H819 H 0.68701 0.89770 0.90636
 H820 H 0.68380 0.92707 0.93802
 H821 H 0.75425 0.94685 0.93048
 H822 H 0.75740 0.91800 0.89828
 H823 H 0.70376 0.81372 0.84341
 H824 H 0.70908 0.78254 0.81479
 H825 H 0.76476 0.82132 0.78034
 H826 H 0.75957 0.85242 0.80907
 C827 C 0.22300 0.40776 0.40010
 C828 C 0.20178 0.41226 0.40922
 C829 C 0.19966 0.42892 0.42741
 C830 C 0.21869 0.44117 0.43698
 C831 C 0.23989 0.43675 0.42803
 C832 C 0.24203 0.42030 0.40960
 C833 C 0.22530 0.38985 0.38113
 N834 N 0.24476 0.38851 0.36835
 N835 N 0.24694 0.37219 0.35159
 C836 C 0.22978 0.35644 0.34698
 N837 N 0.21032 0.35780 0.35973
 N838 N 0.20810 0.37420 0.37640
 C839 C 0.23243 0.33792 0.32886
 C840 C 0.21726 0.31869 0.32875
 C841 C 0.22025 0.30081 0.31235
 C842 C 0.23832 0.30188 0.29547
 C843 C 0.25322 0.32130 0.29520
 C844 C 0.25039 0.33906 0.31182
 H845 H 0.18681 0.40296 0.40226
 H846 H 0.18319 0.43214 0.43425
 H847 H 0.25474 0.44602 0.43538
 H848 H 0.25861 0.41718 0.40308
 H849 H 0.20327 0.31724 0.34166
 H850 H 0.20845 0.28609 0.31295
 H851 H 0.26734 0.32261 0.28245
 H852 H 0.26231 0.35369 0.31134
 C853 C 0.28260 0.09358 0.90120
 C854 C 0.27325 0.07155 0.89674
 C855 C 0.27397 0.05497 0.91522
 C856 C 0.28388 0.05999 0.93880
 C857 C 0.29382 0.08193 0.94288
 C858 C 0.29316 0.09848 0.92437
 C859 C 0.28081 0.11149 0.88209
 N860 N 0.29031 0.13265 0.88611
 N861 N 0.28806 0.14893 0.86937
 C862 C 0.27617 0.14479 0.84790
 N863 N 0.26677 0.12359 0.84380
 N864 N 0.26905 0.10729 0.86053
 C865 C 0.27304 0.16315 0.82970
 C866 C 0.25939 0.15928 0.80838
 C867 C 0.25579 0.17683 0.79178
 C868 C 0.26578 0.19864 0.79608
 C869 C 0.27970 0.20243 0.81717
 C870 C 0.28327 0.18490 0.83378
 H871 H 0.26507 0.06714 0.87908
 H872 H 0.26602 0.03835 0.91138
 H873 H 0.30235 0.08625 0.96039
 H874 H 0.30076 0.11520 0.92836
 H875 H 0.25125 0.14273 0.80463
 H876 H 0.24501 0.17334 0.77568
 H877 H 0.28769 0.21902 0.82102
 H878 H 0.29393 0.18850 0.84995
 C879 C 0.78272 0.59310 0.40047
 C880 C 0.76864 0.57307 0.39950
 C881 C 0.77020 0.55640 0.41773
 C882 C 0.78589 0.55937 0.43723
 C883 C 0.80021 0.57915 0.43809
 C884 C 0.79861 0.59589 0.41992
 C885 C 0.78052 0.61110 0.38160
 N886 N 0.79285 0.63116 0.38350
 N887 N 0.79044 0.64753 0.36691
 C888 C 0.77560 0.64454 0.34766
 N889 N 0.76336 0.62444 0.34567
 N890 N 0.76576 0.60808 0.36228
 C891 C 0.77243 0.66297 0.32958
 C892 C 0.75764 0.65952 0.30918
 C893 C 0.75409 0.67708 0.29260
 C894 C 0.76519 0.69853 0.29607
 C895 C 0.78018 0.70193 0.31629
 C896 C 0.78378 0.68435 0.33282
 H897 H 0.75622 0.57034 0.38482
 H898 H 0.75902 0.54123 0.41680
 H899 H 0.81250 0.58165 0.45296
 H900 H 0.80975 0.61105 0.42122
 H901 H 0.74864 0.64327 0.30606
 H902 H 0.74243 0.67390 0.27722
 H903 H 0.78902 0.71825 0.31947
 H904 H 0.79529 0.68762 0.34832
 C905 C 0.08828 0.73086 0.89594
 C906 C 0.07890 0.70961 0.90372
 C907 C 0.06223 0.70789 0.92212
 C908 C 0.05490 0.72733 0.93328
 C909 C 0.06419 0.74856 0.92564
 C910 C 0.08061 0.75033 0.90695
 C911 C 0.10628 0.73271 0.87683
 N912 N 0.11132 0.75236 0.86440
 N913 N 0.12781 0.75413 0.84758
 C914 C 0.14005 0.73638 0.84261
 N915 N 0.13499 0.71672 0.85503
 N916 N 0.11840 0.71490 0.87172
 C917 C 0.15887 0.73860 0.82455
 C918 C 0.17561 0.72334 0.82503
 C919 C 0.19394 0.72605 0.80879
 C920 C 0.19573 0.74387 0.79143
 C921 C 0.17873 0.75881 0.79052
 C922 C 0.16058 0.75631 0.80704
 H923 H 0.08440 0.69432 0.89554
 H924 H 0.05524 0.69138 0.92793
 H925 H 0.05875 0.76371 0.93422
 H926 H 0.08760 0.76692 0.90148
 H927 H 0.17482 0.70956 0.83835
 H928 H 0.20676 0.71424 0.80988
 H929 H 0.17969 0.77275 0.77740
 H930 H 0.14790 0.76828 0.80611
 C931 C 0.59072 0.22655 0.39587
 C932 C 0.58957 0.20925 0.41393
 C933 C 0.57286 0.20809 0.43227
 C934 C 0.55705 0.22426 0.43301
 C935 C 0.55802 0.24145 0.41495
 C936 C 0.57466 0.24256 0.39651
 C937 C 0.60879 0.22808 0.37679
 N938 N 0.60901 0.24362 0.35809
 N939 N 0.62551 0.24529 0.34128
 C940 C 0.64252 0.23153 0.34247
 N941 N 0.64225 0.21594 0.36110
 N942 N 0.62573 0.21423 0.37788
 C943 C 0.66128 0.23388 0.32426
 C944 C 0.68020 0.22163 0.32747
 C945 C 0.69833 0.22459 0.31100
 C946 C 0.69792 0.23978 0.29084
 C947 C 0.67882 0.25167 0.28729
 C948 C 0.66073 0.24880 0.30385
 H949 H 0.60161 0.19661 0.41396
 H950 H 0.57228 0.19465 0.44601
 H951 H 0.54596 0.25408 0.41529
 H952 H 0.57506 0.25612 0.38293
 H953 H 0.68120 0.20998 0.34297
 H954 H 0.71277 0.21512 0.31422
 H955 H 0.67798 0.26351 0.27194
 H956 H 0.64640 0.25845 0.30075
 C957 C 0.91340 0.27463 0.89508
 C958 C 0.91053 0.28607 0.91781
 C959 C 0.92707 0.28689 0.93633
 C960 C 0.94703 0.27628 0.93272
 C961 C 0.95010 0.26533 0.90960
 C962 C 0.93347 0.26443 0.89110
 C963 C 0.89530 0.27294 0.87598
 N964 N 0.89707 0.26041 0.85481
 N965 N 0.88042 0.25832 0.83815
 C966 C 0.86130 0.26870 0.84194
 N967 N 0.85963 0.28136 0.86302
 N968 N 0.87625 0.28342 0.87966
 C969 C 0.84236 0.26577 0.82398
 C970 C 0.82274 0.27671 0.82816
 C971 C 0.80443 0.27321 0.81201
 C972 C 0.80525 0.25867 0.79126
 C973 C 0.82500 0.24804 0.78675
 C974 C 0.84336 0.25156 0.80293
 H975 H 0.89539 0.29431 0.92147
 H976 H 0.92434 0.29619 0.95344
 H977 H 0.96507 0.25672 0.90615
 H978 H 0.93626 0.25548 0.87379
 H979 H 0.82137 0.28782 0.84412
 H980 H 0.78951 0.28170 0.81602
 H981 H 0.82617 0.23675 0.77091
 H982 H 0.85820 0.24288 0.79912
 C983 C 0.41158 0.77382 0.39591
 C984 C 0.41221 0.79033 0.41491
 C985 C 0.42883 0.79115 0.43336
 C986 C 0.44509 0.77544 0.43325
 C987 C 0.44474 0.75915 0.41416
 C988 C 0.42816 0.75834 0.39564
 C989 C 0.39342 0.77245 0.37690
 N990 N 0.39292 0.75687 0.35817
 N991 N 0.37621 0.75521 0.34160
 C992 C 0.35928 0.76905 0.34305
 N993 N 0.35987 0.78471 0.36167
 N994 N 0.37658 0.78638 0.37822
 C995 C 0.34017 0.76665 0.32529
 C996 C 0.32173 0.77958 0.32849
 C997 C 0.30318 0.77656 0.31264
 C998 C 0.30262 0.76060 0.29313
 C999 C 0.32124 0.74802 0.28951
 C1000 C 0.33980 0.75098 0.30545
 H1001 H 0.39977 0.80255 0.41567
 H1002 H 0.42894 0.80392 0.44789
 H1003 H 0.45719 0.74691 0.41380
 H1004 H 0.42819 0.74542 0.38131
 H1005 H 0.32143 0.79183 0.34352
 H1006 H 0.28914 0.78659 0.31590
 H1007 H 0.32132 0.73559 0.27464
 H1008 H 0.35374 0.74078 0.30239
 C1009 C 0.27819 0.90698 0.10179
 C1010 C 0.29865 0.91928 0.09685
 C1011 C 0.29986 0.93653 0.07897
 C1012 C 0.28050 0.94214 0.06635
 C1013 C 0.25993 0.93036 0.07189
 C1014 C 0.25884 0.91266 0.08917
 C1015 C 0.27701 0.88805 0.11968
 N1016 N 0.26300 0.86943 0.11533
 N1017 N 0.26187 0.85226 0.13140
 C1018 C 0.27452 0.85316 0.15260
 N1019 N 0.28847 0.87183 0.15703
 N1020 N 0.28983 0.88889 0.14076
 C1021 C 0.27256 0.83442 0.17074
 C1022 C 0.27366 0.83873 0.19668
 C1023 C 0.26985 0.82110 0.21387
 C1024 C 0.26561 0.79883 0.20538
 C1025 C 0.26544 0.79443 0.17945
 C1026 C 0.26856 0.81213 0.16227
 H1027 H 0.31379 0.91514 0.10631
 H1028 H 0.31586 0.94550 0.07491
 H1029 H 0.24483 0.93459 0.06241
 H1030 H 0.24284 0.90353 0.09284
 H1031 H 0.27661 0.85581 0.20363
 H1032 H 0.27005 0.82486 0.23380
 H1033 H 0.26202 0.77741 0.17247
 H1034 H 0.26772 0.80841 0.14234
 C1035 C 0.78275 0.40437 0.59982
 C1036 C 0.80310 0.41718 0.59580
 C1037 C 0.80447 0.43456 0.57806
 C1038 C 0.78536 0.43981 0.56473
 C1039 C 0.76491 0.42739 0.56924
 C1040 C 0.76368 0.40959 0.58637
 C1041 C 0.78138 0.38539 0.61765
 N1042 N 0.76802 0.36645 0.61261
 N1043 N 0.76663 0.34928 0.62868
 C1044 C 0.77832 0.35048 0.65055
 N1045 N 0.79161 0.36946 0.65567
 N1046 N 0.79325 0.38653 0.63942
 C1047 C 0.77604 0.33170 0.66863
 C1048 C 0.77588 0.33597 0.69458
 C1049 C 0.77184 0.31823 0.71160
 C1050 C 0.76862 0.29592 0.70294
 C1051 C 0.76967 0.29160 0.67704
 C1052 C 0.77302 0.30938 0.66000
 H1053 H 0.81803 0.41336 0.60589
 H1054 H 0.82040 0.44391 0.57468
 H1055 H 0.75001 0.43125 0.55910
 H1056 H 0.74779 0.40001 0.58928
 H1057 H 0.77807 0.35307 0.70164
 H1058 H 0.77112 0.32194 0.73151
 H1059 H 0.76708 0.27454 0.66993
 H1060 H 0.77317 0.30569 0.64007
 C1061 C 0.71658 0.09028 0.10082
 C1062 C 0.72812 0.09262 0.07790
 C1063 C 0.72715 0.07498 0.06057
 C1064 C 0.71424 0.05478 0.06553
 C1065 C 0.70255 0.05243 0.08837
 C1066 C 0.70391 0.06995 0.10601
 C1067 C 0.71792 0.10907 0.11906
 N1068 N 0.71489 0.10525 0.14405
 N1069 N 0.71687 0.12226 0.16043
 C1070 C 0.72173 0.14376 0.15244
 N1071 N 0.72452 0.14755 0.12745
 N1072 N 0.72274 0.13056 0.11112
 C1073 C 0.72469 0.16266 0.17049
 C1074 C 0.72252 0.18484 0.16241
 C1075 C 0.72661 0.20293 0.17893
 C1076 C 0.73334 0.19925 0.20378
 C1077 C 0.73515 0.17705 0.21202
 C1078 C 0.73066 0.15889 0.19559
 H1079 H 0.73818 0.10801 0.07348
 H1080 H 0.73644 0.07710 0.04317
 H1081 H 0.69237 0.03704 0.09248
 H1082 H 0.69478 0.06775 0.12349
 H1083 H 0.71781 0.18825 0.14321
 H1084 H 0.72513 0.21985 0.17202
 H1085 H 0.74023 0.17373 0.23111
 H1086 H 0.73252 0.14198 0.20231
 C1087 C 0.21371 0.59263 0.60272
 C1088 C 0.22611 0.59432 0.58032
 C1089 C 0.22498 0.57657 0.56312
 C1090 C 0.21105 0.55693 0.56764
 C1091 C 0.19861 0.55517 0.59001
 C1092 C 0.20012 0.57279 0.60755
 C1093 C 0.21508 0.61160 0.62075
 N1094 N 0.21112 0.60812 0.64564
 N1095 N 0.21310 0.62526 0.66186
 C1096 C 0.21886 0.64657 0.65378
 N1097 N 0.22257 0.65004 0.62887
 N1098 N 0.22080 0.63291 0.61271
 C1099 C 0.22189 0.66558 0.67170
 C1100 C 0.22059 0.68782 0.66334
 C1101 C 0.22482 0.70594 0.67982
 C1102 C 0.23085 0.70223 0.70490
 C1103 C 0.23177 0.67997 0.71340
 C1104 C 0.22711 0.66181 0.69702
 H1105 H 0.23690 0.60930 0.57621
 H1106 H 0.23489 0.57820 0.54611
 H1107 H 0.18771 0.54019 0.59382
 H1108 H 0.19035 0.57107 0.62465
 H1109 H 0.21647 0.69124 0.64397
 H1110 H 0.22405 0.72291 0.67272
 H1111 H 0.23630 0.67662 0.73267
 H1112 H 0.22830 0.64485 0.70397
 C1113 C 0.90874 0.72256 0.10282
 C1114 C 0.91516 0.70136 0.09518
 C1115 C 0.93177 0.69976 0.07693
 C1116 C 0.94190 0.71930 0.06580
 C1117 C 0.93545 0.74043 0.07323
 C1118 C 0.91917 0.74207 0.09173
 C1119 C 0.89115 0.72446 0.12203
 N1120 N 0.88921 0.74424 0.13428
 N1121 N 0.87312 0.74620 0.15118
 C1122 C 0.85818 0.72852 0.15644
 N1123 N 0.86012 0.70870 0.14422
 N1124 N 0.87633 0.70669 0.12742
 C1125 C 0.83986 0.73106 0.17462
 C1126 C 0.82072 0.71585 0.17464
 C1127 C 0.80293 0.71904 0.19092
 C1128 C 0.80406 0.73731 0.20775
 C1129 C 0.82343 0.75218 0.20816
 C1130 C 0.84107 0.74918 0.19165
 H1131 H 0.90749 0.68605 0.10344
 H1132 H 0.93662 0.68333 0.07135
 H1133 H 0.94313 0.75564 0.06473
 H1134 H 0.91451 0.75863 0.09707
 H1135 H 0.81927 0.70176 0.16170
 H1136 H 0.78824 0.70725 0.19024
 H1137 H 0.82478 0.76644 0.22087
 H1138 H 0.85563 0.76113 0.19219
 C1139 C 0.40902 0.22027 0.60255
 C1140 C 0.40700 0.20347 0.58386
 C1141 C 0.42330 0.20254 0.56518
 C1142 C 0.44181 0.21847 0.56474
 C1143 C 0.44408 0.23499 0.58357
 C1144 C 0.42788 0.23587 0.60231
 C1145 C 0.39130 0.22194 0.62175
 N1146 N 0.39377 0.23745 0.64049
 N1147 N 0.37757 0.23951 0.65725
 C1148 C 0.35816 0.22619 0.65597
 N1149 N 0.35573 0.21058 0.63731
 N1150 N 0.37196 0.20849 0.62057
 C1151 C 0.33979 0.22914 0.67404
 C1152 C 0.31887 0.21702 0.67113
 C1153 C 0.30125 0.22059 0.68748
 C1154 C 0.30416 0.23629 0.70719
 C1155 C 0.32519 0.24809 0.71041
 C1156 C 0.34278 0.24459 0.69400
 H1157 H 0.39276 0.19113 0.58353
 H1158 H 0.42138 0.18958 0.55086
 H1159 H 0.45829 0.24740 0.58351
 H1160 H 0.43000 0.24902 0.61639
 H1161 H 0.31596 0.20498 0.65599
 H1162 H 0.28527 0.21118 0.68453
 H1163 H 0.32799 0.26030 0.72541
 H1164 H 0.35868 0.25417 0.69686
 C1165 C 0.09391 0.27756 0.10183
 C1166 C 0.09702 0.29267 0.08159
 C1167 C 0.08064 0.29360 0.06300
 C1168 C 0.06086 0.27941 0.06424
 C1169 C 0.05755 0.26452 0.08455
 C1170 C 0.07389 0.26362 0.10318
 C1171 C 0.11164 0.27595 0.12106
 N1172 N 0.10857 0.26161 0.14081
 N1173 N 0.12473 0.25970 0.15768
 C1174 C 0.14467 0.27203 0.15553
 N1175 N 0.14769 0.28647 0.13585
 N1176 N 0.13152 0.28839 0.11899
 C1177 C 0.16294 0.26933 0.17384
 C1178 C 0.18402 0.28104 0.17063
 C1179 C 0.20153 0.27775 0.18725
 C1180 C 0.19836 0.26270 0.20750
 C1181 C 0.17717 0.25131 0.21100
 C1182 C 0.15967 0.25457 0.19436
 H1183 H 0.11218 0.30369 0.07997
 H1184 H 0.08343 0.30526 0.04751
 H1185 H 0.04241 0.25340 0.08576
 H1186 H 0.07092 0.25178 0.11847
 H1187 H 0.18714 0.29256 0.15508
 H1188 H 0.21764 0.28682 0.18404
 H1189 H 0.17416 0.23962 0.22642
 H1190 H 0.14364 0.24532 0.19745
 C1191 C 0.59346 0.77468 0.60217
 C1192 C 0.59569 0.79089 0.58292
 C1193 C 0.57915 0.79183 0.56452
 C1194 C 0.56014 0.77652 0.56491
 C1195 C 0.55769 0.76054 0.58425
 C1196 C 0.57416 0.75965 0.60273
 C1197 C 0.61135 0.77310 0.62119
 N1198 N 0.60866 0.75834 0.64059
 N1199 N 0.62496 0.75643 0.65728
 C1200 C 0.64467 0.76919 0.65529
 N1201 N 0.64732 0.78404 0.63596
 N1202 N 0.63100 0.78597 0.61928
 C1203 C 0.66306 0.76648 0.67343
 C1204 C 0.68418 0.77807 0.67003
 C1205 C 0.70174 0.77477 0.68659
 C1206 C 0.69856 0.75987 0.70696
 C1207 C 0.67734 0.74858 0.71060
 C1208 C 0.65982 0.75182 0.69402
 H1209 H 0.61027 0.80278 0.58196
 H1210 H 0.58124 0.80436 0.54978
 H1211 H 0.54314 0.74857 0.58482
 H1212 H 0.57189 0.74694 0.61724
 H1213 H 0.68727 0.78949 0.65438
 H1214 H 0.71788 0.78375 0.68329
 H1215 H 0.67431 0.73699 0.72612
 H1216 H 0.64376 0.74266 0.69727
   
