data_POSCAR
  _audit_creation_date              2014-09-24
  _audit_creation_method            'ToBaCCo'
  _symmetry_space_group_name_H-M    'P1'
  _symmetry_Int_Tables_number       1
  _symmetry_cell_setting            triclinic
  loop_
  _symmetry_equiv_pos_as_xyz
 x,y,z
_cell_length_a 41.1870
_cell_length_b 39.0172
_cell_length_c 39.9040
_cell_angle_alpha 87.473700
_cell_angle_beta 92.482600
_cell_angle_gamma 85.853400
loop_
  _atom_site_label
  _atom_site_type_symbol
  _atom_site_fract_x
  _atom_site_fract_y
  _atom_site_fract_z
C1 C 0.29174 0.25747 0.21750
 N2 N 0.29655 0.23165 0.24162
 C3 C 0.27216 0.22454 0.26226
 N4 N 0.24306 0.24359 0.25874
 C5 C 0.23829 0.26930 0.23457
 N6 N 0.26261 0.27595 0.21409
 C7 C 0.71071 -0.26662 0.24402
 N8 N 0.70628 -0.23770 0.26529
 C9 C 0.73064 -0.22908 0.28655
 N10 N 0.75984 -0.24775 0.28828
 C11 C 0.76587 -0.27519 0.26922
 N12 N 0.74230 -0.28478 0.24757
 C13 C 0.71824 0.26279 0.77424
 N14 N 0.72370 0.24030 0.74983
 C15 C 0.75410 0.23736 0.73382
 N16 N 0.77781 0.25948 0.74560
 C17 C 0.77144 0.28169 0.77018
 N18 N 0.74193 0.28314 0.78408
 C19 C 0.26860 -0.28221 0.77776
 N20 N 0.24087 -0.30124 0.78379
 C21 C 0.21261 -0.29527 0.76529
 N22 N 0.20991 -0.27072 0.73994
 C23 C 0.23504 -0.25152 0.73227
 N24 N 0.26391 -0.25648 0.75027
 C25 C 0.71921 -0.24156 0.78796
 N26 N 0.74407 -0.26666 0.78855
 C27 C 0.76642 -0.26639 0.76429
 N28 N 0.76367 -0.24105 0.73967
 C29 C 0.73861 -0.21644 0.73870
 N30 N 0.71658 -0.21683 0.76285
 C31 C 0.27614 0.23868 0.76965
 N32 N 0.25132 0.26367 0.76498
 C33 C 0.22949 0.26295 0.73839
 N34 N 0.23275 0.23727 0.71659
 C35 C 0.25754 0.21238 0.72116
 N36 N 0.27903 0.21322 0.74771
 C37 C 0.27001 -0.24649 0.20959
 N38 N 0.24925 -0.27482 0.20818
 C39 C 0.22600 -0.27899 0.23075
 N40 N 0.22215 -0.25653 0.25554
 C41 C 0.24109 -0.22985 0.25906
 N42 N 0.26450 -0.22438 0.23700
 C43 C 0.74366 0.25700 0.20525
 N44 N 0.74588 0.23695 0.23401
 C45 C 0.76836 0.24219 0.25876
 N46 N 0.78870 0.26767 0.25461
 C47 C 0.78678 0.28799 0.22592
 N48 N 0.76416 0.28255 0.20124
 O49 O 0.27355 0.02347 0.46409
 O50 O 0.28558 -0.04439 0.53156
 O51 O 0.28678 -0.04273 0.46595
 O52 O 0.27116 0.02196 0.52893
 O53 O 0.21870 0.01351 0.52556
 O54 O 0.23421 -0.05052 0.46214
 O55 O 0.23314 -0.05279 0.52786
 O56 O 0.22097 0.01562 0.46055
 Cu57 Cu 0.28456 -0.00976 0.49810
 Cu58 Cu 0.22151 -0.01952 0.49372
 C59 C 0.24520 0.03120 0.45090
 C60 C 0.26148 -0.06003 0.54134
 C61 C 0.26301 -0.05721 0.45290
 C62 C 0.24224 0.02895 0.53775
 O63 O 0.76735 0.04790 0.53235
 O64 O 0.78044 -0.01585 0.46762
 O65 O 0.76761 0.05048 0.46669
 O66 O 0.78162 -0.01816 0.53275
 O67 O 0.72904 -0.02615 0.53040
 O68 O 0.71498 0.04276 0.46430
 O69 O 0.72780 -0.02354 0.46546
 O70 O 0.71476 0.04002 0.52978
 Cu71 Cu 0.77952 0.01705 0.50005
 Cu72 Cu 0.71633 0.00761 0.49730
 C73 C 0.73875 0.05458 0.54223
 C74 C 0.75634 -0.03072 0.45573
 C75 C 0.73906 0.05812 0.45402
 C76 C 0.75774 -0.03402 0.54265
 O77 O 0.47161 0.30305 0.03454
 O78 O 0.51962 0.32446 -0.03892
 O79 O 0.45774 0.31716 -0.02955
 O80 O 0.53159 0.31598 0.02519
 O81 O 0.54212 0.26059 0.01766
 O82 O 0.46740 0.26179 -0.03759
 O83 O 0.52894 0.26894 -0.04637
 O84 O 0.48162 0.24778 0.02621
 Cu85 Cu 0.49392 0.32068 -0.00150
 Cu86 Cu 0.50589 0.25425 -0.01080
 C87 C 0.46876 0.27159 0.04293
 C88 C 0.53292 0.30002 -0.05480
 C89 C 0.44992 0.28992 -0.04298
 C90 C 0.54957 0.28839 0.03059
 O91 O 0.52044 0.76484 0.03661
 O92 O 0.47273 0.76351 -0.04207
 O93 O 0.46025 0.75830 0.02077
 O94 O 0.53625 0.75404 -0.02632
 O95 O 0.53704 0.69735 -0.02319
 O96 O 0.46280 0.70148 0.02311
 O97 O 0.47555 0.70668 -0.03919
 O98 O 0.52492 0.70805 0.04089
 Cu99 Cu 0.49786 0.76530 -0.00354
 Cu100 Cu 0.50084 0.69821 0.00141
 C101 C 0.53067 0.73711 0.05243
 C102 C 0.46558 0.73539 -0.05407
 C103 C 0.44870 0.73005 0.02990
 C104 C 0.54934 0.72460 -0.03294
 O105 O 0.04232 0.47147 0.28251
 O106 O -0.02094 0.54273 0.26939
 O107 O -0.02092 0.47687 0.28138
 O108 O 0.04280 0.53731 0.26829
 O109 O 0.03894 0.52978 0.21375
 O110 O -0.02334 0.46827 0.22701
 O111 O -0.02415 0.53388 0.21509
 O112 O 0.03968 0.46296 0.22814
 Cu113 Cu 0.01122 0.50807 0.28084
 Cu114 Cu 0.00782 0.49789 0.21550
 C115 C 0.05135 0.45469 0.25765
 C116 C -0.03372 0.55005 0.24019
 C117 C -0.03297 0.46231 0.25635
 C118 C 0.05132 0.54414 0.23864
 O119 O 0.01764 0.53206 0.78044
 O120 O -0.03511 0.45908 0.78613
 O121 O 0.02775 0.46530 0.78896
 O122 O -0.04454 0.52612 0.78324
 O123 O -0.04780 0.52261 0.72811
 O124 O 0.02729 0.46372 0.73369
 O125 O -0.03495 0.45627 0.73096
 O126 O 0.01460 0.53008 0.72517
 Cu127 Cu -0.00838 0.49581 0.79021
 Cu128 Cu -0.01037 0.49299 0.72400
 C129 C 0.02480 0.54356 0.75154
 C130 C -0.04376 0.44521 0.75918
 C131 C 0.04006 0.45431 0.76256
 C132 C -0.05861 0.53469 0.75492
 C133 C 0.31729 0.26655 0.19488
 C134 C 0.34841 0.24988 0.19565
 C135 C 0.37273 0.25984 0.17145
 C136 C 0.39593 0.23486 0.16120
 C137 C 0.41744 0.24305 0.13636
 C138 C 0.41616 0.27654 0.12139
 C139 C 0.39430 0.30196 0.13318
 C140 C 0.37281 0.29378 0.15793
 C141 C 0.43681 0.28591 0.09338
 C142 C 0.45028 0.26186 0.07213
 H143 H 0.35422 0.22761 0.21260
 H144 H 0.39684 0.20874 0.17179
 H145 H 0.43489 0.22303 0.12906
 H146 H 0.39332 0.32812 0.12267
 H147 H 0.35625 0.31410 0.16631
 H148 H 0.43962 0.31295 0.08785
 H149 H 0.31071 0.28709 0.17617
 H150 H 0.44663 0.23485 0.07619
 C151 C 0.68368 0.72189 0.21795
 C152 C 0.65281 0.73863 0.21358
 C153 C 0.62930 0.72935 0.18699
 C154 C 0.60000 0.74974 0.18112
 C155 C 0.57854 0.74349 0.15439
 C156 C 0.58605 0.71669 0.13288
 C157 C 0.61445 0.69508 0.13985
 C158 C 0.63603 0.70142 0.16653
 C159 C 0.56536 0.71175 0.10245
 C160 C 0.54915 0.73974 0.08439
 H161 H 0.64634 0.76028 0.22875
 H162 H 0.59402 0.77106 0.19680
 H163 H 0.55624 0.75989 0.15046
 H164 H 0.62054 0.67404 0.12388
 H165 H 0.65824 0.68490 0.17061
 H166 H 0.56550 0.68645 0.09230
 H167 H 0.69665 0.72865 0.23153
 H168 H 0.55148 0.76541 0.09300
 C169 C 0.68672 0.26412 -0.20968
 C170 C 0.67912 0.28677 -0.18452
 C171 C 0.64911 0.28615 -0.16532
 C172 C 0.63995 0.31447 -0.14638
 C173 C 0.61313 0.31388 -0.12603
 C174 C 0.59494 0.28475 -0.12418
 C175 C 0.60388 0.25666 -0.14345
 C176 C 0.63063 0.25724 -0.16374
 C177 C 0.56848 0.28109 -0.10056
 C178 C 0.55417 0.30766 -0.08252
 H179 H 0.69607 0.30578 -0.17837
 H180 H 0.65398 0.33692 -0.14685
 H181 H 0.60758 0.33580 -0.11109
 H182 H 0.59059 0.23370 -0.14217
 H183 H 0.63725 0.23442 -0.17703
 H184 H 0.56068 0.25540 -0.09615
 H185 H 0.66930 0.24650 -0.21799
 H186 H 0.55955 0.33406 -0.08750
 C187 C 0.30100 0.70997 -0.19916
 C188 C 0.32892 0.72754 -0.20201
 C189 C 0.35688 0.72053 -0.17747
 C190 C 0.38203 0.74289 -0.17692
 C191 C 0.40720 0.73859 -0.15207
 C192 C 0.40765 0.71174 -0.12725
 C193 C 0.38353 0.68824 -0.12896
 C194 C 0.35827 0.69264 -0.15366
 C195 C 0.43203 0.70838 -0.09868
 C196 C 0.44521 0.73702 -0.08533
 H197 H 0.32947 0.74819 -0.22106
 H198 H 0.38180 0.76424 -0.19526
 H199 H 0.42609 0.75648 -0.15226
 H200 H 0.38356 0.66712 -0.11040
 H201 H 0.33955 0.67455 -0.15363
 H202 H 0.43690 0.68351 -0.08556
 H203 H 0.28541 0.71539 -0.21192
 H204 H 0.43846 0.76235 -0.09677
 C205 C 0.20750 0.29067 0.23004
 C206 C 0.18343 0.29150 0.25350
 C207 C 0.15523 0.31729 0.24986
 C208 C 0.14231 0.33133 0.27859
 C209 C 0.11798 0.35837 0.27561
 C210 C 0.10609 0.37172 0.24367
 C211 C 0.11764 0.35615 0.21507
 C212 C 0.14194 0.32922 0.21806
 C213 C 0.08183 0.40164 0.23897
 C214 C 0.07541 0.42516 0.26360
 H215 H 0.18725 0.27587 0.27666
 H216 H 0.15177 0.32211 0.30336
 H217 H 0.10879 0.36863 0.29835
 H218 H 0.10837 0.36536 0.19022
 H219 H 0.15048 0.31801 0.19542
 H220 H 0.06947 0.40620 0.21447
 H221 H 0.20511 0.30867 0.20848
 H222 H 0.08778 0.42195 0.28810
 C223 C 0.18545 0.68369 0.77310
 C224 C 0.15515 0.68767 0.75584
 C225 C 0.12900 0.66432 0.76212
 C226 C 0.10549 0.66037 0.73639
 C227 C 0.08188 0.63673 0.74047
 C228 C 0.08134 0.61648 0.77051
 C229 C 0.10360 0.62194 0.79697
 C230 C 0.12721 0.64560 0.79290
 C231 C 0.05838 0.58923 0.77482
 C232 C 0.04533 0.57259 0.74770
 H233 H 0.15133 0.70682 0.73527
 H234 H 0.10586 0.67504 0.71273
 H235 H 0.06422 0.63445 0.71999
 H236 H 0.10322 0.60726 0.82062
 H237 H 0.14394 0.64901 0.81391
 H238 H 0.05371 0.58012 0.80008
 H239 H 0.19027 0.66344 0.79244
 H240 H 0.05139 0.57993 0.72240
 C241 C -0.20357 0.70673 0.27209
 C242 C -0.19563 0.67869 0.25255
 C243 C -0.16380 0.65834 0.25496
 C244 C -0.15597 0.63674 0.22884
 C245 C -0.12688 0.61594 0.23042
 C246 C -0.10481 0.61635 0.25829
 C247 C -0.11268 0.63781 0.28452
 C248 C -0.14184 0.65864 0.28294
 C249 C -0.07461 0.59323 0.26186
 C250 C -0.06058 0.57686 0.23504
 H251 H -0.21340 0.67154 0.23377
 H252 H -0.17264 0.63565 0.20721
 H253 H -0.12244 0.59896 0.21018
 H254 H -0.09635 0.63819 0.30651
 H255 H -0.14728 0.67411 0.30408
 H256 H -0.06329 0.58843 0.28681
 H257 H -0.18560 0.71542 0.28972
 H258 H -0.07012 0.58263 0.20960
 C259 C -0.20527 0.30357 0.78110
 C260 C -0.17415 0.30316 0.76827
 C261 C -0.14952 0.32795 0.77627
 C262 C -0.12056 0.32594 0.75894
 C263 C -0.09752 0.35005 0.76333
 C264 C -0.10297 0.37699 0.78512
 C265 C -0.13098 0.37806 0.80392
 C266 C -0.15418 0.35390 0.79949
 C267 C -0.08041 0.40476 0.78750
 C268 C -0.06419 0.41592 0.75956
 H269 H -0.16773 0.28435 0.75004
 H270 H -0.11599 0.30598 0.74132
 H271 H -0.07558 0.34766 0.74938
 H272 H -0.13546 0.39832 0.82120
 H273 H -0.17571 0.35626 0.81393
 H274 H -0.07899 0.41874 0.81031
 H275 H -0.21227 0.32151 0.79982
 H276 H -0.06819 0.40405 0.73585
 C277 C 0.27754 0.19624 0.28808
 C278 C 0.25320 0.18738 0.30955
 C279 C 0.25701 0.15879 0.33559
 C280 C 0.22899 0.14789 0.35045
 C281 C 0.23123 0.12130 0.37531
 C282 C 0.26172 0.10489 0.38592
 C283 C 0.28978 0.11612 0.37142
 C284 C 0.28755 0.14273 0.34657
 C285 C 0.26555 0.07688 0.41256
 C286 C 0.23999 0.05853 0.42414
 H287 H 0.22958 0.20159 0.30653
 H288 H 0.20518 0.16007 0.34283
 H289 H 0.20901 0.11429 0.38635
 H290 H 0.31363 0.10429 0.37941
 H291 H 0.30990 0.15080 0.33662
 H292 H 0.28994 0.06984 0.42308
 H293 H 0.30099 0.18181 0.28936
 H294 H 0.21554 0.06371 0.41330
 C295 C 0.76152 0.21012 0.70322
 C296 C 0.73847 0.18800 0.69292
 C297 C 0.74396 0.16413 0.66556
 C298 C 0.71989 0.14184 0.65738
 C299 C 0.72406 0.11917 0.63148
 C300 C 0.75239 0.11854 0.61292
 C301 C 0.77667 0.14051 0.62147
 C302 C 0.77252 0.16316 0.64743
 C303 C 0.75782 0.09484 0.58527
 C304 C 0.73275 0.07914 0.56861
 H305 H 0.71554 0.18829 0.70530
 H306 H 0.69781 0.14185 0.67118
 H307 H 0.70520 0.10194 0.62663
 H308 H 0.79885 0.14034 0.60783
 H309 H 0.79164 0.17993 0.65317
 H310 H 0.78246 0.09018 0.57720
 H311 H 0.75757 0.22380 0.71868
 H312 H 0.70771 0.08473 0.57489
 C313 C 0.23037 -0.22547 0.70421
 C314 C 0.25536 -0.20586 0.69339
 C315 C 0.25132 -0.17996 0.66480
 C316 C 0.27916 -0.16982 0.64911
 C317 C 0.27653 -0.14545 0.62214
 C318 C 0.24584 -0.13021 0.61049
 C319 C 0.21801 -0.14029 0.62629
 C320 C 0.22064 -0.16471 0.65322
 C321 C 0.24160 -0.10417 0.58198
 C322 C 0.26695 -0.08658 0.56885
 H323 H 0.27942 -0.21070 0.70548
 H324 H 0.30310 -0.18109 0.65752
 H325 H 0.29863 -0.13916 0.61043
 H326 H 0.19407 -0.12897 0.61798
 H327 H 0.19860 -0.17099 0.66511
 H328 H 0.21708 -0.09765 0.57158
 H329 H 0.20669 -0.22265 0.69121
 H330 H 0.29152 -0.09124 0.57948
 C331 C 0.72515 -0.19924 0.30754
 C332 C 0.74974 -0.18842 0.32899
 C333 C 0.74572 -0.15875 0.35084
 C334 C 0.77373 -0.14628 0.36580
 C335 C 0.77130 -0.11897 0.38731
 C336 C 0.74061 -0.10343 0.39437
 C337 C 0.71259 -0.11604 0.37956
 C338 C 0.71502 -0.14337 0.35807
 C339 C 0.73650 -0.07520 0.41794
 C340 C 0.76186 -0.05687 0.43068
 H341 H 0.77365 -0.20203 0.32935
 H342 H 0.79768 -0.15787 0.36098
 H343 H 0.79356 -0.11082 0.39868
 H344 H 0.68861 -0.10486 0.38486
 H345 H 0.69272 -0.15261 0.34790
 H346 H 0.71205 -0.06852 0.42572
 H347 H 0.70143 -0.18536 0.30525
 H348 H 0.78642 -0.06169 0.42268
 C349 C 0.69641 0.76016 -0.18726
 C350 C 0.69711 0.73767 -0.15901
 C351 C 0.67247 0.74132 -0.13309
 C352 C 0.66558 0.71229 -0.11346
 C353 C 0.64110 0.71450 -0.09025
 C354 C 0.62290 0.74596 -0.08624
 C355 C 0.63110 0.77535 -0.10453
 C356 C 0.65564 0.77316 -0.12760
 C357 C 0.59512 0.74920 -0.06378
 C358 C 0.57875 0.72117 -0.05249
 H359 H 0.71510 0.71591 -0.15657
 H360 H 0.67874 0.68766 -0.11657
 H361 H 0.63671 0.69146 -0.07565
 H362 H 0.61807 0.80005 -0.10140
 H363 H 0.66129 0.79655 -0.14095
 H364 H 0.58581 0.77479 -0.05780
 H365 H 0.67712 0.78054 -0.19055
 H366 H 0.58669 0.69547 -0.05915
 C367 C 0.30027 0.23828 -0.20205
 C368 C 0.30230 0.26494 -0.18010
 C369 C 0.32861 0.26444 -0.15350
 C370 C 0.33998 0.29560 -0.14349
 C371 C 0.36614 0.29582 -0.11994
 C372 C 0.38115 0.26472 -0.10543
 C373 C 0.36909 0.23364 -0.11481
 C374 C 0.34303 0.23344 -0.13841
 C375 C 0.40997 0.26334 -0.08158
 C376 C 0.42027 0.29174 -0.06512
 H377 H 0.28594 0.28790 -0.18426
 H378 H 0.32922 0.31981 -0.15469
 H379 H 0.37488 0.32039 -0.11406
 H380 H 0.37996 0.20934 -0.10394
 H381 H 0.33424 0.20895 -0.14466
 H382 H 0.42359 0.23870 -0.07656
 H383 H 0.31830 0.21660 -0.19971
 H384 H 0.40637 0.31633 -0.06820
 C385 C 0.29701 0.76049 0.18321
 C386 C 0.30138 0.74059 0.15551
 C387 C 0.32674 0.74676 0.13123
 C388 C 0.32955 0.72575 0.10374
 C389 C 0.35409 0.72981 0.08110
 C390 C 0.37659 0.75489 0.08566
 C391 C 0.37299 0.77685 0.11238
 C392 C 0.34842 0.77277 0.13508
 C393 C 0.40438 0.75793 0.06358
 C394 C 0.41885 0.72937 0.04869
 H395 H 0.28582 0.71971 0.15154
 H396 H 0.31288 0.70590 0.09990
 H397 H 0.35533 0.71324 0.06009
 H398 H 0.38980 0.79658 0.11624
 H399 H 0.34675 0.78965 0.15585
 H400 H 0.41563 0.78216 0.06170
 H401 H 0.28309 0.75629 0.19624
 H402 H 0.40948 0.70443 0.05309
 C403 C 0.71856 0.25088 0.17930
 C404 C 0.71346 0.27124 0.14967
 C405 C 0.68602 0.26738 0.12523
 C406 C 0.67418 0.29596 0.10459
 C407 C 0.64704 0.29406 0.08271
 C408 C 0.63121 0.26336 0.08095
 C409 C 0.64413 0.23422 0.10019
 C410 C 0.67123 0.23616 0.12222
 C411 C 0.60134 0.26115 0.05938
 C412 C 0.57938 0.28962 0.05192
 H413 H 0.72842 0.29263 0.14559
 H414 H 0.68555 0.32008 0.10591
 H415 H 0.63861 0.31665 0.06720
 H416 H 0.63281 0.21008 0.09871
 H417 H 0.68046 0.21317 0.13671
 H418 H 0.59553 0.23622 0.05087
 H419 H 0.70264 0.23070 0.18477
 H420 H 0.58384 0.31406 0.06240
 C421 C -0.20752 0.70877 0.76416
 C422 C -0.20497 0.67850 0.78427
 C423 C -0.17633 0.65381 0.78254
 C424 C -0.18032 0.61943 0.77547
 C425 C -0.15303 0.59627 0.77280
 C426 C -0.12150 0.60703 0.77830
 C427 C -0.11762 0.64120 0.78619
 C428 C -0.14479 0.66459 0.78769
 C429 C -0.09247 0.58264 0.77811
 C430 C -0.08779 0.55889 0.75334
 H431 H -0.22506 0.67150 0.79917
 H432 H -0.20450 0.61071 0.77149
 H433 H -0.15655 0.56981 0.76732
 H434 H -0.09350 0.64985 0.79088
 H435 H -0.14127 0.69099 0.79341
 H436 H -0.07311 0.58501 0.79697
 H437 H -0.18883 0.71262 0.74632
 H438 H -0.10499 0.55905 0.73201
 C439 C -0.19221 0.31420 0.22154
 C440 C -0.16875 0.32108 0.24635
 C441 C -0.14519 0.34785 0.24285
 C442 C -0.12765 0.35676 0.27174
 C443 C -0.10436 0.38100 0.26976
 C444 C -0.09809 0.39699 0.23866
 C445 C -0.11549 0.38793 0.20973
 C446 C -0.13877 0.36364 0.21171
 C447 C -0.07294 0.42206 0.23497
 C448 C -0.05834 0.43822 0.26169
 H449 H -0.16776 0.30637 0.27011
 H450 H -0.13179 0.34470 0.29601
 H451 H -0.09101 0.38639 0.29259
 H452 H -0.11089 0.39953 0.18539
 H453 H -0.15099 0.35697 0.18867
 H454 H -0.06590 0.42853 0.20974
 H455 H -0.19477 0.32958 0.19825
 H456 H -0.06574 0.43382 0.28707
 C457 C 0.20207 0.28927 0.73272
 C458 C 0.19712 0.31709 0.75322
 C459 C 0.16888 0.34309 0.74863
 C460 C 0.16131 0.36410 0.77527
 C461 C 0.13454 0.38840 0.77246
 C462 C 0.11454 0.39219 0.74280
 C463 C 0.12277 0.37204 0.71572
 C464 C 0.14960 0.34777 0.71851
 C465 C 0.08536 0.41701 0.73903
 C466 C 0.06943 0.43038 0.76629
 H467 H 0.21392 0.31911 0.77458
 H468 H 0.17605 0.36156 0.79852
 H469 H 0.12999 0.40429 0.79351
 H470 H 0.10820 0.37486 0.69237
 H471 H 0.15513 0.33314 0.69684
 H472 H 0.07516 0.42375 0.71391
 H473 H 0.18497 0.28573 0.71208
 H474 H 0.07806 0.42258 0.79164
 C475 C 0.20654 0.69323 0.22873
 C476 C 0.17918 0.69060 0.24790
 C477 C 0.15942 0.66067 0.24715
 C478 C 0.12548 0.66593 0.24247
 C479 C 0.10604 0.63806 0.24411
 C480 C 0.12023 0.60466 0.25170
 C481 C 0.15417 0.59940 0.25676
 C482 C 0.17375 0.62718 0.25386
 C483 C 0.09953 0.57570 0.25624
 C484 C 0.07488 0.56996 0.23265
 H485 H 0.17060 0.71198 0.26243
 H486 H 0.11403 0.69166 0.23767
 H487 H 0.07984 0.64270 0.24066
 H488 H 0.16547 0.57384 0.26293
 H489 H 0.19990 0.62275 0.25814
 H490 H 0.10422 0.55823 0.27805
 H491 H 0.21234 0.67361 0.21107
 H492 H 0.07299 0.58471 0.20891
 C493 C 0.73455 -0.18951 0.71170
 C494 C 0.75564 -0.18778 0.68540
 C495 C 0.75099 -0.16106 0.65785
 C496 C 0.77803 -0.15188 0.64026
 C497 C 0.77456 -0.12615 0.61460
 C498 C 0.74380 -0.10919 0.60602
 C499 C 0.71659 -0.11935 0.62275
 C500 C 0.72007 -0.14500 0.64840
 C501 C 0.73890 -0.08140 0.57949
 C502 C 0.76379 -0.06188 0.56858
 H503 H 0.77704 -0.20568 0.68570
 H504 H 0.80198 -0.16442 0.64662
 H505 H 0.79595 -0.12003 0.60144
 H506 H 0.69254 -0.10718 0.61615
 H507 H 0.69842 -0.15239 0.66039
 H508 H 0.71431 -0.07499 0.56923
 H509 H 0.71433 -0.17038 0.71297
 H510 H 0.78830 -0.06651 0.57945
 C511 C 0.23615 -0.20752 0.28743
 C512 C 0.25631 -0.18123 0.29448
 C513 C 0.25270 -0.15953 0.32385
 C514 C 0.27926 -0.14177 0.33498
 C515 C 0.27691 -0.12105 0.36261
 C516 C 0.24776 -0.11764 0.37973
 C517 C 0.22104 -0.13493 0.36820
 C518 C 0.22338 -0.15558 0.34057
 C519 C 0.24358 -0.09536 0.40863
 C520 C 0.26912 -0.08146 0.42630
 H521 H 0.27666 -0.17745 0.27875
 H522 H 0.30198 -0.14398 0.32226
 H523 H 0.29784 -0.10747 0.36989
 H524 H 0.19813 -0.13232 0.38054
 H525 H 0.20194 -0.16779 0.33218
 H526 H 0.21896 -0.08958 0.41636
 H527 H 0.21693 -0.21327 0.30394
 H528 H 0.29414 -0.08751 0.42026
 C529 C 0.77107 0.22058 0.28999
 C530 C 0.75065 0.19412 0.29574
 C531 C 0.75302 0.17120 0.32644
 C532 C 0.72670 0.15162 0.33356
 C533 C 0.72814 0.12893 0.36175
 C534 C 0.75612 0.12539 0.38351
 C535 C 0.78255 0.14476 0.37621
 C536 C 0.78112 0.16739 0.34800
 C537 C 0.75950 0.10072 0.41294
 C538 C 0.73362 0.08463 0.42666
 H539 H 0.73143 0.19040 0.27713
 H540 H 0.70495 0.15371 0.31710
 H541 H 0.70756 0.11383 0.36574
 H542 H 0.80458 0.14214 0.39225
 H543 H 0.80240 0.18108 0.34296
 H544 H 0.78375 0.09488 0.42433
 H545 H 0.78932 0.22625 0.30881
 H546 H 0.70886 0.09085 0.41707
 C547 C 0.26197 0.18470 0.69761
 C548 C 0.24092 0.18163 0.66976
 C549 C 0.24605 0.15422 0.64563
 C550 C 0.21929 0.14429 0.62643
 C551 C 0.22329 0.11836 0.60352
 C552 C 0.25432 0.10193 0.59931
 C553 C 0.28118 0.11258 0.61784
 C554 C 0.27717 0.13841 0.64075
 C555 C 0.25998 0.07454 0.57524
 C556 C 0.23549 0.05539 0.56214
 H557 H 0.21924 0.19909 0.66618
 H558 H 0.19516 0.15652 0.62928
 H559 H 0.20210 0.11182 0.58892
 H560 H 0.30542 0.10082 0.61463
 H561 H 0.29863 0.14625 0.65406
 H562 H 0.28481 0.06854 0.56823
 H563 H 0.28241 0.16595 0.70288
 H564 H 0.21071 0.05955 0.56979
   
