data_POSCAR
  _audit_creation_date              2014-09-24
  _audit_creation_method            'ToBaCCo'
  _symmetry_space_group_name_H-M    'P1'
  _symmetry_Int_Tables_number       1
  _symmetry_cell_setting            triclinic
  loop_
  _symmetry_equiv_pos_as_xyz
 x,y,z
_cell_length_a 46.0650
_cell_length_b 47.1243
_cell_length_c 17.0921
_cell_angle_alpha 89.884500
_cell_angle_beta 89.589900
_cell_angle_gamma 118.880300
loop_
  _atom_site_label
  _atom_site_type_symbol
  _atom_site_fract_x
  _atom_site_fract_y
  _atom_site_fract_z
C1 C 0.19359 0.52145 0.49425
 C2 C 0.21001 0.52782 0.42151
 C3 C 0.24489 0.54352 0.42088
 C4 C 0.26329 0.55486 0.49078
 C5 C 0.24572 0.55266 0.56069
 C6 C 0.21088 0.53474 0.56396
 C7 C 0.29999 0.56590 0.49230
 C8 C 0.31538 0.56390 0.56196
 C9 C 0.34836 0.56984 0.56212
 C10 C 0.36608 0.57678 0.49140
 C11 C 0.35079 0.57699 0.42099
 C12 C 0.31896 0.57397 0.42257
 H13 H 0.16672 0.50858 0.49585
 H14 H 0.25712 0.54455 0.36619
 H15 H 0.25914 0.56302 0.61377
 H16 H 0.30156 0.55590 0.61621
 H17 H 0.39029 0.57823 0.49018
 H18 H 0.30871 0.57588 0.36750
 C19 C 0.56309 -0.29607 0.49375
 C20 C 0.55972 -0.28327 0.42211
 C21 C 0.55318 -0.25701 0.42392
 C22 C 0.54723 -0.24529 0.49523
 C23 C 0.54611 -0.26215 0.56471
 C24 C 0.55502 -0.28684 0.56542
 C25 C 0.54383 -0.21488 0.49780
 C26 C 0.54662 -0.19833 0.56920
 C27 C 0.54612 -0.16882 0.57067
 C28 C 0.54466 -0.15450 0.50031
 C29 C 0.54124 -0.17032 0.42920
 C30 C 0.53958 -0.20082 0.42840
 H31 H 0.56888 -0.31579 0.49327
 H32 H 0.55466 -0.24493 0.36942
 H33 H 0.53968 -0.25523 0.61914
 H34 H 0.55032 -0.20713 0.62441
 H35 H 0.54492 -0.13137 0.50109
 H36 H 0.53577 -0.21267 0.37264
 C37 C 1.34838 0.79218 0.50241
 C38 C 1.33332 0.77894 0.43028
 C39 C 1.30056 0.75281 0.43169
 C40 C 1.28108 0.74359 0.50100
 C41 C 1.29636 0.75953 0.57070
 C42 C 1.32981 0.78323 0.57203
 C43 C 1.24414 0.72101 0.49916
 C44 C 1.22553 0.70735 0.56903
 C45 C 1.19068 0.69294 0.56952
 C46 C 1.17443 0.68887 0.49806
 C47 C 1.19195 0.69803 0.42755
 C48 C 1.22654 0.71480 0.42805
 H49 H 1.37350 0.81218 0.50405
 H50 H 1.29033 0.73993 0.37822
 H51 H 1.28223 0.75497 0.62433
 H52 H 1.23779 0.70909 0.62387
 H53 H 1.14760 0.67513 0.49599
 H54 H 1.23895 0.72323 0.37233
 C55 C 0.80263 0.46329 0.52430
 C56 C 0.78622 0.45120 0.45389
 C57 C 0.75153 0.43598 0.45303
 C58 C 0.73317 0.43549 0.52057
 C59 C 0.75046 0.44720 0.59152
 C60 C 0.78509 0.46059 0.59351
 C61 C 0.69692 0.42538 0.51415
 C62 C 0.67517 0.41596 0.57975
 C63 C 0.64145 0.40774 0.57147
 C64 C 0.62950 0.40788 0.49593
 C65 C 0.65136 0.42031 0.43248
 C66 C 0.68454 0.42854 0.44153
 H67 H 0.82943 0.47422 0.52553
 H68 H 0.73923 0.42587 0.39843
 H69 H 0.73767 0.44732 0.64463
 H70 H 0.68409 0.41506 0.63753
 H71 H 0.60442 0.40367 0.48795
 H72 H 0.70097 0.43950 0.39197
 C73 C 0.45667 0.30573 0.49465
 C74 C 0.45524 0.29010 0.42451
 C75 C 0.45720 0.26136 0.42629
 C76 C 0.46298 0.24919 0.49728
 C77 C 0.46791 0.26776 0.56594
 C78 C 0.46323 0.29518 0.56597
 C79 C 0.46177 0.21652 0.50027
 C80 C 0.45721 0.19939 0.57197
 C81 C 0.45220 0.16737 0.57338
 C82 C 0.45015 0.15210 0.50161
 C83 C 0.45624 0.16878 0.43057
 C84 C 0.46308 0.20111 0.43044
 H85 H 0.45468 0.32773 0.49262
 H86 H 0.45304 0.24852 0.37187
 H87 H 0.47369 0.26014 0.62028
 H88 H 0.45541 0.20974 0.62667
 H89 H 0.44603 0.12743 0.50068
 H90 H 0.46862 0.21359 0.37497
 C91 C 0.64148 0.20148 0.49658
 C92 C 0.65714 0.21522 0.42539
 C93 C 0.68852 0.24288 0.42540
 C94 C 0.70583 0.25548 0.49603
 C95 C 0.69027 0.23986 0.56662
 C96 C 0.65821 0.21323 0.56713
 C97 C 0.74092 0.28271 0.49567
 C98 C 0.75489 0.30238 0.56276
 C99 C 0.78832 0.32725 0.56285
 C100 C 0.80681 0.33284 0.49321
 C101 C 0.79377 0.31365 0.42754
 C102 C 0.76119 0.28859 0.42858
 H103 H 0.61778 0.17942 0.49664
 H104 H 0.69950 0.25351 0.36946
 H105 H 0.70340 0.24713 0.62142
 H106 H 0.73953 0.29894 0.61363
 H107 H 0.83235 0.35199 0.48926
 H108 H 0.75238 0.27353 0.37727
 O109 O 0.94689 0.42461 0.13272
 O110 O 0.91379 0.43874 0.06106
 C111 C 0.91810 0.42105 0.11278
 O112 O 1.04938 0.56799 0.14723
 O113 O 1.08456 0.55637 0.07515
 C114 C 1.07876 0.57293 0.12739
 O115 O 0.95642 0.52483 0.15841
 O116 O 0.91821 0.48613 0.07786
 C117 C 0.92617 0.50489 0.13847
 O118 O 1.03943 0.46083 0.13441
 O119 O 1.07968 0.50584 0.07109
 C120 C 1.07020 0.48212 0.12117
 Zr121 Zr 0.99535 0.45859 0.09280
 O122 O 0.99553 0.45228 0.21540
 O123 O 0.99091 0.41252 0.07165
 Zr124 Zr 1.00182 0.53332 0.10752
 O125 O 1.00496 0.53388 0.23093
 O126 O 1.00064 0.57769 0.11099
 O127 O 0.96931 0.48356 0.11490
 O128 O 1.02685 0.50717 0.11609
 O129 O 1.04316 0.46993 -0.14396
 O130 O 1.08169 0.51024 -0.06754
 C131 C 1.07346 0.48955 -0.12428
 O132 O 0.95979 0.53530 -0.13433
 O133 O 0.92017 0.49242 -0.06400
 C134 C 0.92918 0.51464 -0.11749
 O135 O 1.05236 0.57572 -0.12114
 O136 O 1.08604 0.56041 -0.05606
 C137 C 1.08130 0.57924 -0.10364
 O138 O 0.95256 0.43943 -0.15955
 O139 O 0.91589 0.44493 -0.07788
 C140 C 0.92302 0.43428 -0.14108
 Zr141 Zr 0.99809 0.46520 -0.10133
 O142 O 1.00203 0.46424 -0.22443
 O143 O 0.98959 0.41682 -0.09907
 Zr144 Zr 1.00420 0.53987 -0.08707
 O145 O 1.00923 0.54765 -0.20953
 O146 O 1.00386 0.58428 -0.07121
 Zr147 Zr 0.95033 0.47908 0.00098
 Zr148 Zr 1.04954 0.51942 0.00460
 O149 O 1.02974 0.51461 -0.10828
 O150 O 0.97256 0.49140 -0.11109
 O151 O 1.02647 0.46850 -0.00412
 O152 O 0.97400 0.52984 0.01044
 O153 O 0.96679 0.44459 -0.00702
 O154 O 1.03337 0.55436 0.01225
 H155 H 1.04060 0.51206 0.16362
 H156 H 0.95978 0.54024 0.01383
 H157 H 1.04464 0.52213 -0.15465
 H158 H 0.94975 0.42154 -0.01256
 H159 H 1.02159 0.59463 0.08754
 H160 H 1.02525 0.59983 -0.04765
 H161 H 0.99353 0.52696 -0.23438
 H162 H 1.00384 0.48476 -0.24415
 H163 H 1.00995 0.41728 -0.07915
 H164 H 0.98888 0.40250 0.12382
 H165 H 0.98080 0.45982 0.23883
 H166 H 0.99094 0.51134 0.24919
 O167 O 0.56591 0.49490 0.14120
 O168 O 0.53746 0.44868 0.06879
 C169 C 0.55803 0.46533 0.12320
 O170 O 0.44456 0.51294 0.12914
 O171 O 0.47632 0.56036 0.06132
 C172 C 0.45340 0.54289 0.11181
 O173 O 0.45221 0.43767 0.14192
 O174 O 0.48326 0.42130 0.06845
 C175 C 0.46237 0.41708 0.12459
 O176 O 0.56441 0.57314 0.13517
 O177 O 0.53235 0.58872 0.06410
 C178 C 0.55408 0.59356 0.11793
 Zr179 Zr 0.54887 0.52581 0.09483
 O180 O 0.55027 0.52906 0.21841
 O181 O 0.60115 0.55144 0.08571
 Zr182 Zr 0.46488 0.48332 0.09198
 O183 O 0.45931 0.48349 0.21486
 O184 O 0.41307 0.45541 0.07776
 O185 O 0.50791 0.48004 0.11001
 O186 O 0.50563 0.52840 0.10765
 O187 O 0.56691 0.57360 -0.14276
 O188 O 0.53348 0.58864 -0.07431
 C189 C 0.55587 0.59366 -0.12716
 O190 O 0.45577 0.43869 -0.15189
 O191 O 0.48529 0.42189 -0.07518
 C192 C 0.46580 0.41818 -0.13324
 O193 O 0.44666 0.51268 -0.14241
 O194 O 0.47659 0.56001 -0.07466
 C195 C 0.45433 0.54226 -0.12550
 O196 O 0.57022 0.49602 -0.14052
 O197 O 0.53985 0.44923 -0.06935
 C198 C 0.56240 0.46654 -0.12078
 Zr199 Zr 0.55088 0.52613 -0.10050
 O200 O 0.55246 0.52847 -0.22432
 O201 O 0.60332 0.55086 -0.09546
 Zr202 Zr 0.46688 0.48363 -0.10252
 O203 O 0.46429 0.48503 -0.22580
 O204 O 0.41478 0.45365 -0.09651
 Zr205 Zr 0.50981 0.46294 -0.00286
 Zr206 Zr 0.50616 0.54663 -0.00528
 O207 O 0.50781 0.52877 -0.11718
 O208 O 0.51028 0.48040 -0.11681
 O209 O 0.55522 0.55451 -0.00331
 O210 O 0.46103 0.45559 -0.00473
 O211 O 0.55689 0.50445 -0.00161
 O212 O 0.45851 0.50562 -0.00617
 H213 H 0.50450 0.54005 0.15475
 H214 H 0.44272 0.43292 -0.00517
 H215 H 0.50726 0.54056 -0.16471
 H216 H 0.57701 0.50191 0.00013
 H217 H 0.40344 0.45053 0.13127
 H218 H 0.40541 0.46574 -0.06822
 H219 H 0.48530 0.48711 -0.24661
 H220 H 0.54087 0.50598 -0.24407
 H221 H 0.61002 0.57011 -0.06199
 H222 H 0.60945 0.55548 0.14009
 H223 H 0.53500 0.50722 0.23942
 H224 H 0.47956 0.48482 0.23773
 O225 O 0.44366 0.01527 0.14913
 O226 O 0.47515 0.05986 0.07207
 C227 C 0.45467 0.04540 0.12962
 O228 O 0.55186 -0.02035 0.13522
 O229 O 0.51689 -0.06616 0.06747
 C230 C 0.53972 -0.05089 0.11896
 O231 O 0.55807 0.06147 0.13857
 O232 O 0.52962 0.08183 0.06918
 C233 C 0.55108 0.08431 0.12139
 O234 O 0.43326 -0.06810 0.14391
 O235 O 0.46114 -0.08864 0.07184
 C236 C 0.44030 -0.09088 0.12619
 Zr237 Zr 0.45382 -0.02010 0.10019
 O238 O 0.44923 -0.02299 0.22346
 O239 O 0.40200 -0.04004 0.08869
 Zr240 Zr 0.53775 0.01367 0.09529
 O241 O 0.54082 0.01300 0.21877
 O242 O 0.58974 0.03520 0.08124
 O243 O 0.49831 0.02297 0.11346
 O244 O 0.49362 -0.02850 0.11290
 O245 O 0.43031 -0.06921 -0.13140
 O246 O 0.45983 -0.08930 -0.06539
 C247 C 0.43727 -0.09209 -0.11463
 O248 O 0.55613 0.06062 -0.14452
 O249 O 0.52877 0.08152 -0.07189
 C250 C 0.54952 0.08359 -0.12625
 O251 O 0.55028 -0.02088 -0.14039
 O252 O 0.51610 -0.06656 -0.06952
 C253 C 0.53864 -0.05129 -0.12291
 O254 O 0.44272 0.01473 -0.14428
 O255 O 0.47467 0.05982 -0.07122
 C256 C 0.45404 0.04509 -0.12756
 Zr257 Zr 0.45250 -0.02062 -0.09415
 O258 O 0.44713 -0.02579 -0.21681
 O259 O 0.40083 -0.03778 -0.08283
 Zr260 Zr 0.53629 0.01305 -0.09971
 O261 O 0.53596 0.01045 -0.22342
 O262 O 0.58877 0.03646 -0.09942
 Zr263 Zr 0.49914 0.04107 -0.00001
 Zr264 Zr 0.49115 -0.04792 0.00070
 O265 O 0.49193 -0.02929 -0.11185
 O266 O 0.49674 0.02231 -0.11317
 O267 O 0.44440 -0.04988 0.00374
 O268 O 0.54524 0.04192 -0.00267
 O269 O 0.44962 0.00373 0.00311
 O270 O 0.54097 -0.01095 -0.00230
 H271 H 0.49294 -0.04082 0.16052
 H272 H 0.56586 0.06309 -0.00377
 H273 H 0.49032 -0.04224 -0.15881
 H274 H 0.43197 0.01004 0.00369
 H275 H 0.59893 0.03884 0.13477
 H276 H 0.59544 0.02351 -0.06579
 H277 H 0.52407 0.02172 -0.24322
 H278 H 0.46843 -0.00957 -0.24018
 H279 H 0.39100 -0.05914 -0.05619
 H280 H 0.39298 -0.04313 0.14269
 H281 H 0.47195 -0.01357 0.24412
 H282 H 0.52683 0.02183 0.24023
 C283 C 1.13821 0.48886 0.29334
 C284 C 1.14978 0.50760 0.22497
 N285 N 1.18224 0.53049 0.21967
 C286 C 1.20337 0.53609 0.28043
 C287 C 1.19113 0.51907 0.35192
 N288 N 1.15875 0.49549 0.35505
 N289 N 1.10610 0.46553 0.29891
 C290 C 1.08456 0.46083 0.24029
 C291 C 1.09519 0.48129 0.17391
 N292 N 1.12792 0.50398 0.16738
 H293 H 1.22865 0.55541 0.27451
 H294 H 1.05887 0.44260 0.24810
 C295 C 0.57567 0.66526 0.28852
 C296 C 0.55693 0.66401 0.22313
 N297 N 0.54236 0.68311 0.22114
 C298 C 0.54489 0.70266 0.28246
 C299 C 0.56154 0.70201 0.35122
 N300 N 0.57692 0.68351 0.35083
 N301 N 0.59064 0.64665 0.29106
 C302 C 0.58664 0.62573 0.23251
 C303 C 0.56557 0.62219 0.16947
 N304 N 0.55172 0.64208 0.16557
 H305 H 0.53168 0.71635 0.27931
 H306 H 0.59825 0.61061 0.23789
 C307 C 0.39805 -0.16391 0.29741
 C308 C 0.37950 -0.16481 0.23185
 N309 N 0.34690 -0.18708 0.22924
 C310 C 0.33164 -0.20783 0.29009
 C311 C 0.34947 -0.20535 0.35935
 N312 N 0.38257 -0.18357 0.35961
 N313 N 0.43074 -0.14178 0.30022
 C314 C 0.44548 -0.11985 0.24138
 C315 C 0.42648 -0.11932 0.17806
 N316 N 0.39384 -0.14201 0.17445
 H317 H 0.30530 -0.22393 0.28588
 H318 H 0.47131 -0.10170 0.24627
 C319 C 0.85538 0.49213 0.31168
 C320 C 0.84798 0.46828 0.25471
 N321 N 0.81943 0.43957 0.26136
 C322 C 0.79823 0.43352 0.32304
 C323 C 0.80629 0.45706 0.38160
 N324 N 0.83462 0.48588 0.37353
 N325 N 0.88396 0.52063 0.30641
 C326 C 0.90609 0.52617 0.24775
 C327 C 0.89963 0.50190 0.19213
 N328 N 0.87036 0.47357 0.19641
 H329 H 0.77605 0.41022 0.32776
 H330 H 0.92908 0.54887 0.24632
 C331 C 0.43853 0.34208 0.28956
 C332 C 0.45995 0.34617 0.22667
 N333 N 0.47635 0.32872 0.22520
 C334 C 0.47308 0.30813 0.28496
 C335 C 0.45315 0.30549 0.35037
 N336 N 0.43597 0.32228 0.34991
 N337 N 0.42265 0.35991 0.29247
 C338 C 0.42802 0.38252 0.23666
 C339 C 0.45099 0.38821 0.17577
 N340 N 0.46593 0.36930 0.17154
 H341 H 0.48757 0.29565 0.28371
 H342 H 0.41558 0.39691 0.24204
 C343 C 0.59833 0.16443 0.27186
 C344 C 0.61588 0.14984 0.23905
 N345 N 0.64752 0.15975 0.26127
 C346 C 0.66220 0.18301 0.31644
 C347 C 0.64405 0.19620 0.35328
 N348 N 0.61244 0.18666 0.32973
 N349 N 0.56688 0.15487 0.24804
 C350 C 0.55192 0.13077 0.19460
 C351 C 0.56857 0.11453 0.16617
 N352 N 0.60040 0.12481 0.18864
 H353 H 0.68710 0.18970 0.33497
 H354 H 0.52673 0.12320 0.17769
 C355 C 0.43590 0.09923 -0.29834
 C356 C 0.45308 0.11462 -0.23048
 N357 N 0.46677 0.14740 -0.22522
 C358 C 0.46487 0.16547 -0.28566
 C359 C 0.44984 0.15017 -0.35658
 N360 N 0.43525 0.11722 -0.35928
 N361 N 0.42181 0.06665 -0.30457
 C362 C 0.42511 0.04863 -0.24704
 C363 C 0.44442 0.06393 -0.18089
 N364 N 0.45749 0.09674 -0.17350
 H365 H 0.47722 0.19154 -0.27998
 H366 H 0.41414 0.02273 -0.25523
 C367 C 0.61840 0.43368 -0.24981
 C368 C 0.58368 0.41798 -0.25583
 N369 N 0.56869 0.39537 -0.31201
 C370 C 0.58683 0.38897 -0.36517
 C371 C 0.62187 0.40630 -0.36310
 N372 N 0.63656 0.42731 -0.30295
 N373 N 0.63357 0.45776 -0.19683
 C374 C 0.61572 0.46748 -0.15121
 C375 C 0.58113 0.45251 -0.15887
 N376 N 0.56582 0.42768 -0.21024
 H377 H 0.57396 0.37130 -0.41027
 H378 H 0.62847 0.48744 -0.11120
 C379 C 0.85527 0.38906 -0.32293
 C380 C 0.84449 0.38018 -0.24553
 N381 N 0.81333 0.35528 -0.23216
 C382 C 0.79301 0.33835 -0.29263
 C383 C 0.80477 0.34616 -0.37074
 N384 N 0.83544 0.37201 -0.38209
 N385 N 0.88626 0.41312 -0.33846
 C386 C 0.90764 0.42835 -0.27981
 C387 C 0.89780 0.41893 -0.20184
 N388 N 0.86603 0.39537 -0.18581
 H389 H 0.76900 0.31808 -0.27890
 H390 H 0.93242 0.44738 -0.29412
 C391 C 0.56231 -0.10333 -0.28831
 C392 C 0.53848 -0.11999 -0.22978
 N393 N 0.52009 -0.15280 -0.23339
 C394 C 0.52386 -0.16955 -0.29398
 C395 C 0.54633 -0.15263 -0.35506
 N396 N 0.56528 -0.11988 -0.34986
 N397 N 0.58055 -0.07061 -0.28560
 C398 C 0.57529 -0.05356 -0.22859
 C399 C 0.54991 -0.06983 -0.17258
 N400 N 0.53249 -0.10289 -0.17378
 H401 H 0.50810 -0.19554 -0.29682
 H402 H 0.58972 -0.02739 -0.22958
 C403 C 0.40761 0.57580 -0.28293
 C404 C 0.39012 0.54512 -0.24761
 N405 N 0.35884 0.52438 -0.27081
 C406 C 0.34433 0.53265 -0.32888
 C407 C 0.36219 0.56273 -0.36724
 N408 N 0.39353 0.58374 -0.34297
 N409 N 0.43894 0.59646 -0.25895
 C410 C 0.45383 0.58746 -0.20275
 C411 C 0.43700 0.55598 -0.17092
 N412 N 0.40538 0.53577 -0.19394
 H413 H 0.31964 0.51526 -0.34746
 H414 H 0.47918 0.60390 -0.18676
 C415 C 1.15827 0.64716 -0.24839
 C416 C 1.12705 0.64553 -0.24464
 N417 N 1.11939 0.66272 -0.29588
 C418 C 1.14086 0.68033 -0.35361
 C419 C 1.17150 0.68052 -0.36175
 N420 N 1.17998 0.66482 -0.30659
 N421 N 1.16499 0.62863 -0.19833
 C422 C 1.14157 0.60791 -0.14659
 C423 C 1.10977 0.60525 -0.14579
 N424 N 1.10378 0.62472 -0.19410
 H425 H 1.13368 0.69358 -0.39382
 H426 H 1.14720 0.59262 -0.10940
 C427 C 0.85629 0.50591 -0.27673
 C428 C 0.84778 0.48492 -0.21217
 N429 N 0.81703 0.45869 -0.20763
 C430 C 0.79478 0.45187 -0.26624
 C431 C 0.80413 0.47167 -0.33343
 N432 N 0.83452 0.49859 -0.33597
 N433 N 0.88725 0.53160 -0.28274
 C434 C 0.91061 0.53666 -0.22841
 C435 C 0.90289 0.51452 -0.16618
 N436 N 0.87133 0.48949 -0.15887
 H437 H 0.77105 0.42999 -0.26291
 H438 H 0.93539 0.55676 -0.23626
 C439 C 0.44863 0.34813 -0.30422
 C440 C 0.46815 0.35073 -0.23941
 N441 N 0.48428 0.33301 -0.23733
 C442 C 0.48220 0.31328 -0.29786
 C443 C 0.46415 0.31222 -0.36540
 N444 N 0.44760 0.32958 -0.36521
 N445 N 0.43211 0.36528 -0.30711
 C446 C 0.43510 0.38598 -0.24902
 C447 C 0.45642 0.39052 -0.18603
 N448 N 0.47209 0.37227 -0.18206
 H449 H 0.49625 0.30043 -0.29469
 H450 H 0.42219 0.39993 -0.25423
 C451 C 0.59765 0.16255 -0.28025
 C452 C 0.61516 0.14883 -0.24359
 N453 N 0.64716 0.15886 -0.26400
 C454 C 0.66231 0.18149 -0.32102
 C455 C 0.64432 0.19390 -0.36117
 N456 N 0.61237 0.18427 -0.33938
 N457 N 0.56564 0.15253 -0.25908
 C458 C 0.55011 0.12875 -0.20438
 C459 C 0.56701 0.11358 -0.17166
 N460 N 0.59927 0.12428 -0.19161
 H461 H 0.68755 0.18834 -0.33794
 H462 H 0.52434 0.12045 -0.19016
 C463 C 1.14220 0.49713 -0.29681
 C464 C 1.15246 0.51962 -0.23577
 N465 N 1.18327 0.54582 -0.23902
 C466 C 1.20395 0.55085 -0.30131
 C467 C 1.19271 0.52936 -0.36547
 N468 N 1.16210 0.50285 -0.35998
 N469 N 1.11184 0.47064 -0.29406
 C470 C 1.09054 0.46617 -0.23435
 C471 C 1.09947 0.48990 -0.17583
 N472 N 1.13068 0.51590 -0.17712
 H473 H 1.22778 0.57257 -0.30244
 H474 H 1.06612 0.44513 -0.23526
 C475 C 0.57326 0.66322 -0.30105
 C476 C 0.55349 0.66042 -0.23581
 N477 N 0.53609 0.67683 -0.23488
 C478 C 0.53706 0.69551 -0.29681
 C479 C 0.55556 0.69707 -0.36482
 N480 N 0.57342 0.68092 -0.36371
 N481 N 0.59062 0.64680 -0.30264
 C482 C 0.58810 0.62662 -0.24303
 C483 C 0.56640 0.62184 -0.17979
 N484 N 0.55008 0.63947 -0.17720
 H485 H 0.52168 0.70696 -0.29390
 H486 H 0.60137 0.61298 -0.24754
 C487 C 0.38876 -0.16925 -0.27089
 C488 C 0.37215 -0.15401 -0.23664
 N489 N 0.34142 -0.16136 -0.26122
 C490 C 0.32665 -0.18288 -0.31976
 C491 C 0.34372 -0.19713 -0.35701
 N492 N 0.37445 -0.19006 -0.33129
 N493 N 0.41961 -0.16166 -0.24578
 C494 C 0.43493 -0.13882 -0.18959
 C495 C 0.41905 -0.12214 -0.15904
 N496 N 0.38786 -0.13051 -0.18297
 H497 H 0.30246 -0.18761 -0.33958
 H498 H 0.45998 -0.13229 -0.17281
 C499 C 0.55932 -0.10468 0.28615
 C500 C 0.53471 -0.12054 0.22993
 N501 N 0.51408 -0.15297 0.23669
 C502 C 0.51655 -0.17014 0.29807
 C503 C 0.54023 -0.15395 0.35635
 N504 N 0.56125 -0.12161 0.34814
 N505 N 0.57965 -0.07226 0.28050
 C506 C 0.57578 -0.05465 0.22257
 C507 C 0.54989 -0.07005 0.16864
 N508 N 0.53033 -0.10286 0.17294
 H509 H 0.49928 -0.19579 0.30316
 H510 H 0.59170 -0.02864 0.22122
 C511 C 0.41071 0.58087 0.26895
 C512 C 0.39067 0.55276 0.22612
 N513 N 0.35774 0.53578 0.24190
 C514 C 0.34399 0.54506 0.30010
 C515 C 0.36426 0.57191 0.34679
 N516 N 0.39726 0.58939 0.32958
 N517 N 0.44365 0.59796 0.25231
 C518 C 0.45756 0.58767 0.19636
 C519 C 0.43789 0.55834 0.15748
 N520 N 0.40479 0.54172 0.17298
 H521 H 0.31783 0.53027 0.31315
 H522 H 0.48404 0.60107 0.18608
 C523 C 1.15693 0.64447 0.25838
 C524 C 1.12693 0.64501 0.24953
 N525 N 1.12160 0.66686 0.28977
 C526 C 1.14434 0.68731 0.34130
 C527 C 1.17333 0.68522 0.35478
 N528 N 1.17926 0.66429 0.31146
 N529 N 1.16183 0.62204 0.21930
 C530 C 1.13772 0.59958 0.17328
 C531 C 1.10698 0.59900 0.16796
 N532 N 1.10263 0.62213 0.20542
 H533 H 1.13880 0.70343 0.37560
 H534 H 1.14200 0.58154 0.14413
 C535 C 0.43610 0.10107 0.29378
 C536 C 0.45919 0.11622 0.23311
 N537 N 0.47923 0.14884 0.23452
 C538 C 0.47775 0.16692 0.29492
 C539 C 0.45555 0.15154 0.35760
 N540 N 0.43496 0.11896 0.35431
 N541 N 0.41688 0.06840 0.29434
 C542 C 0.42055 0.04996 0.23836
 C543 C 0.44497 0.06483 0.17974
 N544 N 0.46316 0.09778 0.17761
 H545 H 0.49492 0.19264 0.29573
 H546 H 0.40557 0.02386 0.24182
 C547 C 0.59949 0.42356 0.27184
 C548 C 0.61706 0.45657 0.25148
 N549 N 0.64672 0.47598 0.28477
 C550 C 0.65936 0.46408 0.33909
 C551 C 0.64108 0.43146 0.36285
 N552 N 0.61154 0.41185 0.32822
 N553 N 0.56990 0.40420 0.23762
 C554 C 0.55676 0.41659 0.18539
 C555 C 0.57344 0.45000 0.16888
 N556 N 0.60341 0.46907 0.20179
 H557 H 0.68256 0.48041 0.36676
 H558 H 0.53293 0.40084 0.15983
 C559 C 0.83510 0.35567 0.24595
 C560 C 0.86559 0.35585 0.25242
 N561 N 0.86950 0.33769 0.30873
 C562 C 0.84474 0.32037 0.36090
 C563 C 0.81501 0.32183 0.35765
 N564 N 0.81071 0.33906 0.29930
 N565 N 0.83153 0.37461 0.19127
 C566 C 0.85733 0.39445 0.14416
 C567 C 0.88846 0.39608 0.15349
 N568 N 0.89159 0.37623 0.20672
 H569 H 0.84906 0.30750 0.40800
 H570 H 0.85389 0.40986 0.10244
   
