data_POSCAR
  _audit_creation_date              2014-09-24
  _audit_creation_method            'ToBaCCo'
  _symmetry_space_group_name_H-M    'P1'
  _symmetry_Int_Tables_number       1
  _symmetry_cell_setting            triclinic
  loop_
  _symmetry_equiv_pos_as_xyz
 x,y,z
_cell_length_a 31.3908
_cell_length_b 31.6526
_cell_length_c 44.9603
_cell_angle_alpha 89.270600
_cell_angle_beta 90.058700
_cell_angle_gamma 91.889100
loop_
  _atom_site_label
  _atom_site_type_symbol
  _atom_site_fract_x
  _atom_site_fract_y
  _atom_site_fract_z
O1 O -0.03705 0.45766 1.02774
 O2 O -0.03738 0.53952 0.96951
 O3 O -0.03403 0.45708 0.96999
 O4 O -0.03587 0.54002 1.02737
 O5 O 0.03442 0.54316 1.02712
 O6 O 0.03623 0.46048 0.97108
 O7 O 0.03283 0.54277 0.96930
 O8 O 0.03322 0.46080 1.02881
 Cu9 Cu -0.04309 0.49828 0.99856
 Cu10 Cu 0.04117 0.50215 0.99909
 C11 C -0.00213 0.44502 1.03826
 C12 C -0.00262 0.55549 0.95941
 C13 C 0.00172 0.44430 0.96103
 C14 C -0.00074 0.55588 1.03691
 O15 O 0.45916 0.03743 0.52645
 O16 O 0.54212 0.03482 0.46956
 O17 O 0.45912 0.03403 0.46867
 O18 O 0.54223 0.03321 0.52733
 O19 O 0.53821 -0.03648 0.52780
 O20 O 0.45551 -0.03564 0.47054
 O21 O 0.53841 -0.03481 0.46996
 O22 O 0.45514 -0.03223 0.52825
 Cu23 Cu 0.50101 0.04182 0.49795
 Cu24 Cu 0.49645 -0.04173 0.49932
 C25 C 0.44261 0.00337 0.53701
 C26 C 0.55469 -0.00012 0.45986
 C27 C 0.44304 -0.00100 0.45969
 C28 C 0.55475 -0.00212 0.53727
 C29 C -0.05525 0.00571 0.26413
 C30 C -0.01745 0.01295 0.24814
 C31 C -0.01062 0.05105 0.23248
 C32 C -0.04167 0.08199 0.23238
 C33 C -0.07947 0.07456 0.24867
 C34 C -0.08637 0.03654 0.26475
 C35 C 0.01497 -0.01949 0.24762
 C36 C 0.00720 -0.05694 0.23204
 C37 C 0.03808 -0.08795 0.23114
 C38 C 0.07670 -0.08129 0.24654
 C39 C 0.08475 -0.04387 0.26250
 C40 C 0.05361 -0.01296 0.26268
 H41 H -0.06038 -0.02398 0.27608
 H42 H 0.01890 0.05648 0.22033
 H43 H -0.02292 -0.06180 0.22057
 H44 H 0.05877 0.01581 0.27517
 H45 H -0.10350 0.09834 0.24885
 H46 H 0.10091 -0.10481 0.24541
 C47 C -0.01135 -0.05099 0.76767
 C48 C -0.01752 -0.01363 0.75153
 C49 C -0.05516 -0.00862 0.73536
 C50 C -0.08687 -0.04103 0.73495
 C51 C -0.08038 -0.07844 0.75140
 C52 C -0.04278 -0.08356 0.76790
 C53 C 0.01593 0.01997 0.75108
 C54 C 0.05322 0.01479 0.73472
 C55 C 0.08545 0.04664 0.73401
 C56 C 0.07986 0.08371 0.75035
 C57 C 0.04257 0.08915 0.76707
 C58 C 0.01058 0.05703 0.76708
 H59 H 0.01809 -0.05474 0.77990
 H60 H -0.05899 0.02010 0.72240
 H61 H 0.05649 -0.01374 0.72196
 H62 H -0.01809 0.06018 0.78015
 H63 H -0.10496 -0.10327 0.75194
 H64 H 0.10461 0.10836 0.75008
 C65 C 0.00213 -0.34478 0.10162
 C66 C -0.03683 -0.36483 0.09363
 C67 C -0.03799 -0.39724 0.07269
 C68 C -0.00020 -0.41029 0.05938
 C69 C 0.03866 -0.39033 0.06750
 C70 C 0.03979 -0.35795 0.08825
 C71 C 0.00382 -0.30956 0.12321
 C72 C 0.03786 -0.30544 0.14344
 C73 C 0.04148 -0.27059 0.16211
 C74 C 0.01096 -0.23909 0.16122
 C75 C -0.02388 -0.24392 0.14171
 C76 C -0.02737 -0.27870 0.12288
 C77 C 0.01646 -0.20062 0.17970
 C78 C 0.00612 -0.16077 0.16811
 C79 C 0.01281 -0.12435 0.18492
 C80 C 0.03026 -0.12685 0.21364
 C81 C 0.04042 -0.16660 0.22536
 C82 C 0.03343 -0.20312 0.20862
 H83 H -0.06637 -0.35570 0.10374
 H84 H -0.06842 -0.41209 0.06695
 H85 H 0.06836 -0.39937 0.05755
 H86 H 0.07023 -0.34265 0.09337
 H87 H 0.06206 -0.32900 0.14463
 H88 H 0.06892 -0.26775 0.17664
 H89 H -0.04833 -0.22060 0.14079
 H90 H -0.05383 -0.28074 0.10745
 H91 H -0.00617 -0.15753 0.14572
 H92 H 0.00523 -0.09403 0.17519
 H93 H 0.05338 -0.16946 0.24760
 H94 H 0.04112 -0.23335 0.21842
 C95 C -0.00607 0.34479 0.10406
 C96 C 0.03308 0.36450 0.09585
 C97 C 0.03455 0.39737 0.07468
 C98 C -0.00312 0.41124 0.06137
 C99 C -0.04222 0.39183 0.06988
 C100 C -0.04366 0.35899 0.09086
 C101 C -0.00798 0.30862 0.12551
 C102 C -0.04178 0.30399 0.14592
 C103 C -0.04564 0.26825 0.16439
 C104 C -0.01564 0.23634 0.16305
 C105 C 0.01899 0.24166 0.14337
 C106 C 0.02273 0.27733 0.12478
 C107 C -0.02137 0.19699 0.18125
 C108 C -0.01185 0.15761 0.16922
 C109 C -0.01830 0.12043 0.18589
 C110 C -0.03467 0.12167 0.21491
 C111 C -0.04423 0.16092 0.22701
 C112 C -0.03752 0.19821 0.21040
 H113 H 0.06258 0.35460 0.10584
 H114 H 0.06516 0.41178 0.06867
 H115 H -0.07185 0.40155 0.05997
 H116 H -0.07426 0.34403 0.09620
 H117 H -0.06562 0.32783 0.14740
 H118 H -0.07288 0.26506 0.17909
 H119 H 0.04306 0.21802 0.14212
 H120 H 0.04898 0.27972 0.10918
 H121 H -0.00025 0.15538 0.14665
 H122 H -0.01124 0.09054 0.17584
 H123 H -0.05637 0.16282 0.24948
 H124 H -0.04462 0.22804 0.22050
 C125 C 0.33914 0.01153 0.59925
 C126 C 0.35622 -0.02790 0.59302
 C127 C 0.39019 -0.03079 0.57303
 C128 C 0.40791 0.00578 0.55917
 C129 C 0.39133 0.04521 0.56601
 C130 C 0.35732 0.04802 0.58572
 C131 C 0.30198 0.01499 0.61930
 C132 C 0.26846 0.04120 0.61135
 C133 C 0.23401 0.04592 0.63047
 C134 C 0.23232 0.02475 0.65814
 C135 C 0.26563 -0.00197 0.66594
 C136 C 0.30004 -0.00692 0.64665
 C137 C 0.19585 0.03064 0.67862
 C138 C 0.17843 -0.00351 0.69536
 C139 C 0.14316 0.00184 0.71373
 C140 C 0.12433 0.04143 0.71571
 C141 C 0.14221 0.07573 0.69935
 C142 C 0.17760 0.07043 0.68112
 H143 H 0.34263 -0.05655 0.60307
 H144 H 0.40229 -0.06161 0.56822
 H145 H 0.40424 0.07405 0.55582
 H146 H 0.34522 0.07888 0.59046
 H147 H 0.26876 0.05787 0.59016
 H148 H 0.20845 0.06589 0.62342
 H149 H 0.26557 -0.01839 0.68721
 H150 H 0.32565 -0.02705 0.65342
 H151 H 0.19146 -0.03465 0.69379
 H152 H 0.13056 -0.02510 0.72636
 H153 H 0.12828 0.10653 0.70009
 H154 H 0.19064 0.09759 0.66893
 C155 C -0.34158 -0.00850 0.59976
 C156 C -0.35901 0.03068 0.59256
 C157 C -0.39306 0.03301 0.57248
 C158 C -0.41052 -0.00390 0.55954
 C159 C -0.39361 -0.04308 0.56740
 C160 C -0.35951 -0.04532 0.58717
 C161 C -0.30427 -0.01139 0.61984
 C162 C -0.27047 -0.03722 0.61237
 C163 C -0.23590 -0.04153 0.63157
 C164 C -0.23439 -0.02035 0.65887
 C165 C -0.26797 0.00603 0.66616
 C166 C -0.30249 0.01060 0.64677
 C167 C -0.19784 -0.02594 0.67948
 C168 C -0.18076 0.00829 0.69573
 C169 C -0.14535 0.00322 0.71418
 C170 C -0.12602 -0.03614 0.71671
 C171 C -0.14359 -0.07053 0.70087
 C172 C -0.17912 -0.06553 0.68260
 H173 H -0.34561 0.05957 0.60189
 H174 H -0.40542 0.06364 0.56689
 H175 H -0.40631 -0.07216 0.55793
 H176 H -0.34712 -0.07599 0.59267
 H177 H -0.27066 -0.05393 0.59150
 H178 H -0.21013 -0.06122 0.62488
 H179 H -0.26804 0.02246 0.68713
 H180 H -0.32832 0.03044 0.65315
 H181 H -0.19416 0.03927 0.69370
 H182 H -0.13303 0.03023 0.72640
 H183 H -0.12929 -0.10117 0.70204
 H184 H -0.19190 -0.09276 0.67083
 C185 C -0.00708 -0.34519 0.89538
 C186 C 0.03230 -0.36080 0.90466
 C187 C 0.03397 -0.39389 0.92556
 C188 C -0.00377 -0.41231 0.93760
 C189 C -0.04312 -0.39706 0.92780
 C190 C -0.04470 -0.36391 0.90714
 C191 C -0.00924 -0.30865 0.87433
 C192 C -0.04221 -0.30669 0.85320
 C193 C -0.04635 -0.27091 0.83504
 C194 C -0.01737 -0.23628 0.83734
 C195 C 0.01645 -0.23882 0.85777
 C196 C 0.02038 -0.27449 0.87611
 C197 C -0.02324 -0.19721 0.81921
 C198 C -0.01446 -0.15717 0.83146
 C199 C -0.02070 -0.12039 0.81475
 C200 C -0.03625 -0.12272 0.78551
 C201 C -0.04521 -0.16259 0.77321
 C202 C -0.03857 -0.19945 0.78983
 H203 H 0.06188 -0.34748 0.89572
 H204 H 0.06489 -0.40480 0.93235
 H205 H -0.07298 -0.41015 0.93648
 H206 H -0.07555 -0.35223 0.90097
 H207 H -0.06518 -0.33271 0.85085
 H208 H -0.07300 -0.26997 0.81978
 H209 H 0.03981 -0.21308 0.85977
 H210 H 0.04595 -0.27472 0.89228
 H211 H -0.00352 -0.15416 0.85420
 H212 H -0.01407 -0.09002 0.82489
 H213 H -0.05673 -0.16524 0.75058
 H214 H -0.04504 -0.22971 0.77952
 C215 C 0.00878 0.34124 0.89983
 C216 C -0.03080 0.35848 0.90634
 C217 C -0.03333 0.39232 0.92599
 C218 C 0.00376 0.40975 0.93922
 C219 C 0.04335 0.39300 0.93208
 C220 C 0.04580 0.35913 0.91271
 C221 C 0.01186 0.30423 0.88015
 C222 C 0.03820 0.27090 0.88814
 C223 C 0.04262 0.23660 0.86932
 C224 C 0.02104 0.23488 0.84194
 C225 C -0.00585 0.26798 0.83413
 C226 C -0.01051 0.30224 0.85311
 C227 C 0.02677 0.19865 0.82173
 C228 C -0.00781 0.18131 0.80559
 C229 C -0.00254 0.14630 0.78746
 C230 C 0.03738 0.12769 0.78512
 C231 C 0.07209 0.14547 0.80090
 C232 C 0.06688 0.18058 0.81888
 H233 H -0.05985 0.34513 0.89680
 H234 H -0.06428 0.40455 0.93104
 H235 H 0.07257 0.40569 0.94178
 H236 H 0.07678 0.34691 0.90773
 H237 H 0.05520 0.27124 0.90911
 H238 H 0.06274 0.21121 0.87639
 H239 H -0.02260 0.26786 0.81307
 H240 H -0.03074 0.32770 0.84632
 H241 H -0.03919 0.19422 0.80744
 H242 H -0.02981 0.13374 0.77529
 H243 H 0.10316 0.13170 0.79988
 H244 H 0.09436 0.19357 0.83061
 C245 C -0.34692 0.00157 0.39524
 C246 C -0.36162 0.03930 0.40700
 C247 C -0.39429 0.03860 0.42799
 C248 C -0.41311 0.00004 0.43813
 C249 C -0.39850 -0.03784 0.42628
 C250 C -0.36584 -0.03704 0.40504
 C251 C -0.31118 0.00290 0.37350
 C252 C -0.27919 -0.02710 0.37493
 C253 C -0.24389 -0.02374 0.35600
 C254 C -0.23957 0.00985 0.33531
 C255 C -0.27220 0.03912 0.33332
 C256 C -0.30762 0.03556 0.35205
 C257 C -0.20052 0.01540 0.31673
 C258 C -0.20281 0.03111 0.28736
 C259 C -0.16580 0.03808 0.27047
 C260 C -0.12575 0.02906 0.28246
 C261 C -0.12341 0.01289 0.31162
 C262 C -0.16032 0.00632 0.32860
 H263 H -0.34722 0.06955 0.40047
 H264 H -0.40431 0.06853 0.43654
 H265 H -0.41220 -0.06817 0.43337
 H266 H -0.35557 -0.06667 0.39618
 H267 H -0.28073 -0.05249 0.39130
 H268 H -0.21974 -0.04729 0.35778
 H269 H -0.26985 0.06561 0.31787
 H270 H -0.33204 0.05879 0.34997
 H271 H -0.23325 0.03780 0.27732
 H272 H -0.16849 0.05005 0.24790
 H273 H -0.09286 0.00618 0.32152
 H274 H -0.15719 -0.00495 0.35131
 C275 C 0.34409 -0.00570 0.39319
 C276 C 0.35795 -0.04277 0.40713
 C277 C 0.39015 -0.04100 0.42847
 C278 C 0.40930 -0.00208 0.43663
 C279 C 0.39556 0.03513 0.42277
 C280 C 0.36325 0.03333 0.40124
 C281 C 0.30906 -0.00819 0.37094
 C282 C 0.27690 0.02170 0.37056
 C283 C 0.24211 0.01713 0.35126
 C284 C 0.23867 -0.01751 0.33207
 C285 C 0.27145 -0.04662 0.33176
 C286 C 0.30631 -0.04192 0.35088
 C287 C 0.20021 -0.02433 0.31332
 C288 C 0.18053 -0.06473 0.31152
 C289 C 0.14338 -0.07112 0.29482
 C290 C 0.12519 -0.03729 0.27935
 C291 C 0.14533 0.00302 0.28080
 C292 C 0.18232 0.00946 0.29772
 H293 H 0.34330 -0.07325 0.40195
 H294 H 0.39974 -0.07028 0.43882
 H295 H 0.40975 0.06558 0.42853
 H296 H 0.35350 0.06242 0.39073
 H297 H 0.27781 0.04776 0.38594
 H298 H 0.21710 0.03985 0.35213
 H299 H 0.26998 -0.07318 0.31681
 H300 H 0.33101 -0.06497 0.35012
 H301 H 0.19326 -0.09123 0.32369
 H302 H 0.12833 -0.10238 0.29464
 H303 H 0.13262 0.02961 0.26873
 H304 H 0.19714 0.04082 0.29845
   
