data_POSCAR
  _audit_creation_date              2014-09-24
  _audit_creation_method            'ToBaCCo'
  _symmetry_space_group_name_H-M    'P1'
  _symmetry_Int_Tables_number       1
  _symmetry_cell_setting            triclinic
  loop_
  _symmetry_equiv_pos_as_xyz
 x,y,z
_cell_length_a 25.7121
_cell_length_b 25.6600
_cell_length_c 25.6813
_cell_angle_alpha 87.214800
_cell_angle_beta 88.784500
_cell_angle_gamma 82.165100
loop_
  _atom_site_label
  _atom_site_type_symbol
  _atom_site_fract_x
  _atom_site_fract_y
  _atom_site_fract_z
Zn1 Zn 0.75913 0.70331 0.79108
 Zn2 Zn 0.76137 0.79902 0.71990
 Zn3 Zn 0.67686 0.73051 0.71119
 Zn4 Zn 0.67858 0.79821 0.80273
 O5 O 0.71899 0.75780 0.75625
 O6 O 0.82792 0.70379 0.77929
 O7 O 0.74911 0.80327 0.65130
 O8 O 0.68637 0.65997 0.71214
 O9 O 0.82986 0.77506 0.72730
 O10 O 0.74700 0.63996 0.77223
 O11 O 0.68720 0.75185 0.64495
 O12 O 0.60945 0.80040 0.79188
 O13 O 0.75255 0.86579 0.73911
 O14 O 0.60870 0.74938 0.72480
 O15 O 0.69043 0.86545 0.79992
 O16 O 0.69019 0.77497 0.86900
 O17 O 0.74870 0.70386 0.86038
 C18 C 0.85315 0.73497 0.75235
 C19 C 0.71766 0.78220 0.62425
 C20 C 0.71652 0.62615 0.73885
 C21 C 0.58474 0.77861 0.75863
 C22 C 0.72179 0.88950 0.77223
 C23 C 0.71980 0.73556 0.88866
 Zn24 Zn 0.17793 0.72193 0.70035
 Zn25 Zn 0.18207 0.79023 0.79119
 Zn26 Zn 0.26399 0.69770 0.77674
 Zn27 Zn 0.26085 0.79368 0.70506
 O28 O 0.22120 0.75094 0.74320
 O29 O 0.10958 0.74136 0.71527
 O30 O 0.19557 0.76660 0.85697
 O31 O 0.25268 0.63383 0.75967
 O32 O 0.11313 0.79236 0.78203
 O33 O 0.18782 0.65114 0.70372
 O34 O 0.25589 0.69752 0.84598
 O35 O 0.33014 0.77302 0.71206
 O36 O 0.19273 0.85745 0.78863
 O37 O 0.33194 0.70075 0.76335
 O38 O 0.25025 0.86093 0.72381
 O39 O 0.24748 0.79512 0.63646
 O40 O 0.18762 0.74079 0.63302
 C41 C 0.08710 0.77107 0.74960
 C42 C 0.22684 0.72781 0.87532
 C43 C 0.22009 0.61850 0.72949
 C44 C 0.35527 0.73378 0.73686
 C45 C 0.22138 0.88305 0.75933
 C46 C 0.21707 0.77131 0.61069
 Zn47 Zn 0.73751 0.20909 0.78201
 Zn48 Zn 0.81972 0.20912 0.69911
 Zn49 Zn 0.73890 0.30394 0.70947
 Zn50 Zn 0.82158 0.27836 0.78957
 O51 O 0.77944 0.25017 0.74504
 O52 O 0.74683 0.14181 0.76431
 O53 O 0.80973 0.23246 0.63268
 O54 O 0.66996 0.30251 0.72054
 O55 O 0.80729 0.14210 0.70190
 O56 O 0.66922 0.23194 0.77370
 O57 O 0.75043 0.30307 0.64033
 O58 O 0.81271 0.34888 0.78627
 O59 O 0.88845 0.20567 0.71108
 O60 O 0.75039 0.36779 0.72769
 O61 O 0.89011 0.25780 0.77722
 O62 O 0.80922 0.26019 0.85651
 O63 O 0.74852 0.20725 0.85060
 C64 C 0.77674 0.11804 0.73059
 C65 C 0.78038 0.27178 0.61253
 C66 C 0.64529 0.27108 0.74783
 C67 C 0.78176 0.38220 0.75985
 C68 C 0.91354 0.22721 0.74414
 C69 C 0.77838 0.23038 0.87752
 Zn70 Zn 0.32387 0.20337 0.70861
 Zn71 Zn 0.23841 0.20091 0.78786
 Zn72 Zn 0.32058 0.27221 0.79988
 Zn73 Zn 0.24115 0.29633 0.71641
 O74 O 0.28099 0.24322 0.75333
 O75 O 0.31257 0.13634 0.70927
 O76 O 0.24880 0.19675 0.85688
 O77 O 0.38989 0.25427 0.78886
 O78 O 0.24840 0.13422 0.76761
 O79 O 0.39170 0.20148 0.72282
 O80 O 0.30732 0.25155 0.86621
 O81 O 0.25171 0.36020 0.73431
 O82 O 0.16989 0.22405 0.77864
 O83 O 0.30990 0.34297 0.79706
 O84 O 0.17233 0.29495 0.72622
 O85 O 0.25403 0.29520 0.64755
 O86 O 0.31601 0.22664 0.64225
 C87 C 0.28031 0.11156 0.73476
 C88 C 0.27757 0.21960 0.88543
 C89 C 0.41501 0.22430 0.75624
 C90 C 0.28066 0.37557 0.76814
 C91 C 0.14685 0.26367 0.75269
 C92 C 0.28594 0.26465 0.62092
 Zn93 Zn 0.67804 0.73410 0.21082
 Zn94 Zn 0.76205 0.80267 0.22155
 Zn95 Zn 0.67452 0.80569 0.29984
 Zn96 Zn 0.75519 0.71020 0.29588
 O97 O 0.71743 0.76325 0.25700
 O98 O 0.69190 0.75303 0.14448
 O99 O 0.75077 0.87078 0.23641
 O100 O 0.60635 0.80675 0.28575
 O101 O 0.75567 0.80213 0.15207
 O102 O 0.60887 0.75148 0.22173
 O103 O 0.68649 0.87299 0.29519
 O104 O 0.73642 0.71053 0.36313
 O105 O 0.82964 0.78174 0.23743
 O106 O 0.68124 0.78457 0.36735
 O107 O 0.82393 0.71532 0.29481
 O108 O 0.74844 0.64557 0.27530
 O109 O 0.68933 0.66388 0.21346
 C110 C 0.72498 0.78082 0.12424
 C111 C 0.71880 0.89593 0.26755
 C112 C 0.58334 0.78205 0.25355
 C113 C 0.70688 0.74375 0.38907
 C114 C 0.85079 0.74631 0.26962
 C115 C 0.71956 0.63086 0.24088
 Zn116 Zn 0.26396 0.78653 0.21177
 Zn117 Zn 0.18566 0.71420 0.19464
 Zn118 Zn 0.26108 0.68971 0.28128
 Zn119 Zn 0.17499 0.78095 0.28782
 O120 O 0.22141 0.74290 0.24408
 O121 O 0.25823 0.79081 0.14210
 O122 O 0.19453 0.64365 0.19832
 O123 O 0.33042 0.69260 0.27371
 O124 O 0.20329 0.73345 0.12983
 O125 O 0.33185 0.76574 0.22440
 O126 O 0.25080 0.62541 0.26272
 O127 O 0.18286 0.75824 0.35481
 O128 O 0.11680 0.73400 0.19922
 O129 O 0.24660 0.69102 0.34998
 O130 O 0.10727 0.77943 0.27091
 O131 O 0.18380 0.84941 0.28728
 O132 O 0.25065 0.85253 0.23208
 C133 C 0.23258 0.76630 0.11206
 C134 C 0.22215 0.61059 0.22813
 C135 C 0.35544 0.72613 0.24982
 C136 C 0.21400 0.72115 0.37641
 C137 C 0.08804 0.76002 0.23217
 C138 C 0.21673 0.87482 0.26328
 Zn139 Zn 0.73632 0.30957 0.21167
 Zn140 Zn 0.81772 0.21641 0.19601
 Zn141 Zn 0.82223 0.28199 0.28861
 Zn142 Zn 0.73867 0.21228 0.28144
 O143 O 0.77870 0.25514 0.24447
 O144 O 0.74437 0.31068 0.14191
 O145 O 0.88635 0.22036 0.20048
 O146 O 0.81076 0.35230 0.28936
 O147 O 0.80137 0.23903 0.13098
 O148 O 0.74789 0.37293 0.23153
 O149 O 0.89030 0.26680 0.27047
 O150 O 0.75170 0.20870 0.34988
 O151 O 0.81014 0.14765 0.20012
 O152 O 0.81440 0.25948 0.35520
 O153 O 0.74970 0.14568 0.26241
 O154 O 0.66966 0.23310 0.27420
 O155 O 0.66797 0.30638 0.22447
 C156 C 0.77158 0.27880 0.11250
 C157 C 0.91241 0.24242 0.23227
 C158 C 0.77939 0.38633 0.26422
 C159 C 0.78370 0.22961 0.37642
 C160 C 0.78035 0.12259 0.22887
 C161 C 0.64454 0.27273 0.25004
 Zn162 Zn 0.23476 0.28375 0.22339
 Zn163 Zn 0.32090 0.19429 0.20773
 Zn164 Zn 0.32500 0.26526 0.29629
 Zn165 Zn 0.24721 0.18945 0.29803
 O166 O 0.28194 0.23330 0.25620
 O167 O 0.24133 0.28337 0.15367
 O168 O 0.39026 0.19464 0.21481
 O169 O 0.31101 0.33533 0.29224
 O170 O 0.30549 0.21775 0.14209
 O171 O 0.24339 0.34971 0.23914
 O172 O 0.39271 0.24967 0.27836
 O173 O 0.26687 0.18626 0.36447
 O174 O 0.31075 0.12646 0.21102
 O175 O 0.32066 0.24668 0.36423
 O176 O 0.25532 0.12301 0.27774
 O177 O 0.17828 0.20994 0.29961
 O178 O 0.16753 0.27630 0.24042
 C179 C 0.27209 0.25493 0.12396
 C180 C 0.41576 0.21944 0.24483
 C181 C 0.27657 0.36661 0.26776
 C182 C 0.29615 0.21285 0.38819
 C183 C 0.28240 0.10101 0.24101
 C184 C 0.14896 0.24525 0.27384
 C185 C -0.08932 0.72321 0.74959
 C186 C -0.05877 0.76087 0.74079
 C187 C -0.00131 0.74785 0.73802
 C188 C 0.02957 0.78249 0.75173
 H189 H -0.07610 0.80184 0.73740
 H190 H 0.01579 0.70906 0.72646
 H191 H -0.07157 0.68277 0.75684
 H192 H 0.01216 0.81957 0.76716
 C193 C 0.72161 -0.05380 0.77879
 C194 C 0.75043 -0.02468 0.74837
 C195 C 0.74838 0.03220 0.75516
 C196 C 0.77693 0.06128 0.72441
 H197 H 0.77550 -0.04281 0.71792
 H198 H 0.72347 0.05034 0.78572
 H199 H 0.69626 -0.03531 0.80885
 H200 H 0.80196 0.04274 0.69415
 C201 C 0.72042 0.72574 -0.05449
 C202 C 0.71418 0.76515 -0.02184
 C203 C 0.71376 0.75459 0.03498
 C204 C 0.72735 0.78957 0.06727
 H205 H 0.71040 0.80563 -0.03711
 H206 H 0.70296 0.71742 0.05048
 H207 H 0.72832 0.68537 -0.03918
 H208 H 0.74175 0.82497 0.05152
 C209 C 0.52700 0.78819 0.75899
 C210 C 0.49858 0.75542 0.73719
 C211 C 0.44090 0.76544 0.73728
 C212 C 0.41283 0.72557 0.73496
 H213 H 0.51796 0.71973 0.72045
 H214 H 0.42129 0.80525 0.74132
 H215 H 0.50747 0.82203 0.77869
 H216 H 0.43259 0.68542 0.73546
 C217 C 0.22042 -0.06051 0.76764
 C218 C 0.25094 -0.03049 0.74059
 C219 C 0.24894 0.02567 0.75100
 C220 C 0.28072 0.05539 0.72535
 H221 H 0.27782 -0.04744 0.71091
 H222 H 0.22144 0.04273 0.78012
 H223 H 0.19398 -0.04323 0.79753
 H224 H 0.30828 0.03794 0.69648
 C225 C 0.22919 0.71675 -0.06818
 C226 C 0.22343 0.75525 -0.03460
 C227 C 0.22397 0.74276 0.02180
 C228 C 0.23584 0.77724 0.05548
 H229 H 0.21880 0.79611 -0.04875
 H230 H 0.21464 0.70454 0.03593
 H231 H 0.23781 0.67607 -0.05395
 H232 H 0.24833 0.81409 0.04126
 C233 C -0.02892 0.21536 0.74421
 C234 C 0.00137 0.24947 0.76040
 C235 C 0.05888 0.23668 0.75977
 C236 C 0.08928 0.27479 0.75369
 H237 H -0.01625 0.28795 0.77239
 H238 H 0.07642 0.19575 0.76241
 H239 H -0.01095 0.17861 0.72852
 H240 H 0.07140 0.31527 0.74699
 C241 C 0.71603 0.56990 0.73022
 C242 C 0.74950 0.53211 0.75391
 C243 C 0.74866 0.47621 0.74396
 C244 C 0.78234 0.43859 0.76762
 H245 H 0.77800 0.54241 0.78079
 H246 H 0.71996 0.46576 0.71737
 H247 H 0.68794 0.55937 0.70301
 H248 H 0.81069 0.44939 0.79441
 C249 C 0.77728 0.22168 -0.06564
 C250 C 0.78256 0.26008 -0.03372
 C251 C 0.78219 0.24987 0.02305
 C252 C 0.76929 0.28873 0.05567
 H253 H 0.78626 0.29941 -0.04950
 H254 H 0.79206 0.20966 0.03834
 H255 H 0.76943 0.18359 -0.04968
 H256 H 0.75615 0.32836 0.04041
 C257 C 0.58761 0.28100 0.74996
 C258 C 0.55876 0.24280 0.76330
 C259 C 0.50113 0.25327 0.76519
 C260 C 0.47253 0.21492 0.75689
 H261 H 0.57770 0.20283 0.77104
 H262 H 0.48202 0.29295 0.77106
 H263 H 0.56842 0.32011 0.73883
 H264 H 0.49189 0.17650 0.74658
 C265 C 0.21950 0.56173 0.72402
 C266 C 0.25101 0.52529 0.75177
 C267 C 0.24994 0.46877 0.74554
 C268 C 0.28065 0.43235 0.77411
 H269 H 0.27794 0.53716 0.77942
 H270 H 0.22375 0.45689 0.71717
 H271 H 0.19239 0.54962 0.69670
 H272 H 0.30658 0.44449 0.80258
 C273 C 0.27685 0.20757 -0.05799
 C274 C 0.28341 0.24345 -0.02360
 C275 C 0.28390 0.22990 0.03279
 C276 C 0.26956 0.26667 0.06732
 H277 H 0.28737 0.28346 -0.03704
 H278 H 0.29534 0.18928 0.04610
 H279 H 0.26876 0.16883 -0.04425
 H280 H 0.25456 0.30642 0.05369
 C281 C -0.09254 0.74145 0.27965
 C282 C -0.05985 0.76657 0.24978
 C283 C -0.00357 0.76173 0.26158
 C284 C 0.03127 0.76831 0.22351
 H285 H -0.07430 0.78965 0.21530
 H286 H 0.00967 0.75003 0.30077
 H287 H -0.07726 0.71638 0.31258
 H288 H 0.01804 0.77536 0.18365
 C289 C 0.71877 -0.04710 0.27235
 C290 C 0.75118 -0.01960 0.24446
 C291 C 0.74984 0.03731 0.25088
 C292 C 0.78141 0.06561 0.22279
 H293 H 0.77884 -0.03905 0.21681
 H294 H 0.72244 0.05629 0.27904
 H295 H 0.69119 -0.02719 0.29979
 H296 H 0.80860 0.04658 0.19449
 C297 C 0.71653 0.79380 0.56765
 C298 C 0.69852 0.76169 0.53504
 C299 C 0.69903 0.77317 0.47845
 C300 C 0.70279 0.73407 0.44564
 H301 H 0.68553 0.72527 0.54995
 H302 H 0.69922 0.81344 0.46359
 H303 H 0.73280 0.82832 0.55228
 H304 H 0.70714 0.69357 0.46084
 C305 C 0.52567 0.78949 0.25330
 C306 C 0.49861 0.75033 0.24315
 C307 C 0.44086 0.75867 0.24328
 C308 C 0.41318 0.71844 0.25125
 H309 H 0.51917 0.71149 0.23600
 H310 H 0.42074 0.79848 0.23771
 H311 H 0.50501 0.82709 0.26443
 H312 H 0.43327 0.67917 0.26019
 C313 C 0.21567 -0.06877 0.27243
 C314 C 0.24938 -0.03989 0.24832
 C315 C 0.24890 0.01615 0.25859
 C316 C 0.28150 0.04482 0.23248
 H317 H 0.27802 -0.05779 0.22064
 H318 H 0.22162 0.03404 0.28746
 H319 H 0.18694 -0.05074 0.29993
 H320 H 0.30804 0.02669 0.20312
 C321 C 0.21583 0.77994 0.55360
 C322 C 0.20397 0.74322 0.52231
 C323 C 0.20342 0.75255 0.46525
 C324 C 0.21260 0.71248 0.43345
 H325 H 0.19639 0.70520 0.53875
 H326 H 0.19758 0.79273 0.44912
 H327 H 0.22724 0.81634 0.53679
 H328 H 0.22275 0.67269 0.44968
 C329 C -0.03075 0.24084 0.22282
 C330 C 0.00125 0.25580 0.25779
 C331 C 0.05753 0.25545 0.24588
 C332 C 0.09226 0.24991 0.28420
 H333 H -0.01377 0.26709 0.29597
 H334 H 0.07094 0.25692 0.20557
 H335 H -0.01479 0.22714 0.18573
 H336 H 0.07908 0.24372 0.32413
 C337 C 0.72006 0.57457 0.23202
 C338 C 0.75070 0.53653 0.25847
 C339 C 0.74920 0.48082 0.24808
 C340 C 0.78015 0.44236 0.27369
 H341 H 0.77692 0.54642 0.28787
 H342 H 0.72241 0.47121 0.21908
 H343 H 0.69412 0.56414 0.20261
 H344 H 0.80701 0.45221 0.30250
 C345 C 0.78124 0.28208 0.55571
 C346 C 0.79362 0.24348 0.52271
 C347 C 0.79412 0.25485 0.46602
 C348 C 0.78493 0.21856 0.43308
 H349 H 0.80169 0.20292 0.53748
 H350 H 0.79993 0.29397 0.45117
 H351 H 0.76942 0.32203 0.54060
 H352 H 0.77484 0.18099 0.44822
 C353 C 0.58687 0.28047 0.25180
 C354 C 0.55934 0.23985 0.25431
 C355 C 0.50161 0.24854 0.25653
 C356 C 0.47344 0.21220 0.24100
 H357 H 0.57947 0.19990 0.25355
 H358 H 0.48194 0.28555 0.27029
 H359 H 0.56659 0.32038 0.24855
 H360 H 0.49309 0.17677 0.22405
 C361 C 0.22037 0.55402 0.22200
 C362 C 0.24834 0.51662 0.25178
 C363 C 0.24572 0.46029 0.24510
 C364 C 0.27622 0.42351 0.27330
 H365 H 0.27375 0.52757 0.28140
 H366 H 0.21932 0.44892 0.21666
 H367 H 0.19520 0.54289 0.19228
 H368 H 0.30306 0.43551 0.30097
 C369 C 0.28783 0.27370 0.56403
 C370 C 0.30534 0.23494 0.53259
 C371 C 0.30480 0.24388 0.47568
 C372 C 0.30094 0.20425 0.44483
 H373 H 0.31769 0.19549 0.54884
 H374 H 0.30446 0.28359 0.45904
 H375 H 0.27208 0.31216 0.54752
 H376 H 0.29677 0.16552 0.46189
   
