data_POSCAR
  _audit_creation_date              2014-09-24
  _audit_creation_method            'ToBaCCo'
  _symmetry_space_group_name_H-M    'P1'
  _symmetry_Int_Tables_number       1
  _symmetry_cell_setting            triclinic
  loop_
  _symmetry_equiv_pos_as_xyz
 x,y,z
_cell_length_a 24.4722
_cell_length_b 24.3743
_cell_length_c 30.7136
_cell_angle_alpha 89.338200
_cell_angle_beta 89.834800
_cell_angle_gamma 83.185100
loop_
  _atom_site_label
  _atom_site_type_symbol
  _atom_site_fract_x
  _atom_site_fract_y
  _atom_site_fract_z
C1 C -0.00212 0.55142 1.02407
 C2 C -0.00224 0.55198 0.97806
 C3 C -0.00263 0.50229 0.95557
 C4 C -0.00277 0.45214 0.97826
 C5 C -0.00260 0.45153 1.02417
 C6 C -0.00233 0.50116 1.04674
 H7 H -0.00213 0.50065 1.08211
 H8 H -0.00265 0.50253 0.92022
 C9 C 0.45152 -0.00140 0.52183
 C10 C 0.45184 -0.00352 0.47604
 C11 C 0.50165 -0.00426 0.45333
 C12 C 0.55123 -0.00296 0.47587
 C13 C 0.55088 -0.00102 0.52176
 C14 C 0.50102 -0.00023 0.54439
 H15 H 0.50073 0.00134 0.57968
 H16 H 0.50171 -0.00575 0.41802
 C17 C 0.11288 -0.00244 0.26465
 H18 H 0.11387 0.00039 0.22948
 C19 C 0.16150 -0.00328 0.28839
 H20 H 0.19978 -0.00061 0.27118
 C21 C 0.06117 -0.00729 0.32963
 H22 H 0.02192 -0.00815 0.34561
 C23 C 0.10886 -0.00826 0.35468
 H24 H 0.10581 -0.01098 0.38980
 N25 N 0.06411 -0.00500 0.28542
 C26 C -0.04084 -0.07194 0.18993
 H27 H -0.07550 -0.03995 0.18942
 C28 C -0.04197 -0.11922 0.16486
 H29 H -0.07789 -0.12345 0.14526
 C30 C 0.04707 -0.10606 0.21765
 H31 H 0.08134 -0.10123 0.23875
 C32 C 0.04766 -0.15400 0.19314
 H33 H 0.08309 -0.18508 0.19501
 Zn34 Zn 0.00047 -0.00218 0.25021
 N35 N 0.00338 -0.06606 0.21542
 C36 C -0.00179 0.05980 0.17080
 N37 N -0.00160 0.06229 0.21502
 C38 C -0.00042 0.11110 0.23577
 C39 C -0.00054 0.16021 0.21196
 C40 C -0.00186 0.10797 0.14568
 C41 C -0.07010 -0.04482 0.31034
 C42 C -0.11748 -0.04630 0.33557
 C43 C -0.15156 0.04432 0.30757
 C44 C -0.10357 0.04402 0.28284
 N45 N -0.06380 0.00008 0.28494
 H46 H -0.00127 0.02047 0.15488
 H47 H 0.00047 0.11177 0.27098
 H48 H -0.00062 0.19872 0.22919
 H49 H -0.00134 0.10509 0.11053
 H50 H -0.03820 -0.07958 0.31089
 H51 H -0.12140 -0.08211 0.35600
 H52 H -0.18304 0.07937 0.30501
 H53 H -0.09864 0.07864 0.26154
 C54 C 0.00267 -0.16114 0.16635
 C55 C 0.15995 -0.00638 0.33406
 C56 C -0.15900 -0.00127 0.33439
 C57 C -0.00125 0.15909 0.16625
 C58 C -0.00242 0.11632 0.76433
 H59 H -0.00200 0.11817 0.72912
 C60 C -0.00270 0.16468 0.78824
 H61 H -0.00336 0.20381 0.77109
 C62 C -0.00235 0.06277 0.82922
 H63 H -0.00112 0.02287 0.84508
 C64 C -0.00254 0.11015 0.85443
 H65 H -0.00145 0.10608 0.88957
 N66 N -0.00278 0.06675 0.78501
 C67 C 0.06022 0.00269 0.67026
 H68 H 0.02077 0.00368 0.65442
 C69 C 0.10778 0.00288 0.64502
 H70 H 0.10432 0.00400 0.60988
 C71 C 0.11243 0.00271 0.73511
 H72 H 0.11369 0.00294 0.77032
 C73 C 0.16097 0.00281 0.71118
 H74 H 0.19963 0.00224 0.72831
 Zn75 Zn -0.00020 0.00332 0.74977
 N76 N 0.06345 0.00202 0.71448
 C77 C -0.06956 -0.03821 0.68947
 N78 N -0.06422 0.00602 0.71502
 C79 C -0.10465 0.04932 0.71717
 C80 C -0.15241 0.04957 0.69235
 C81 C -0.11664 -0.03969 0.66416
 C82 C 0.04649 -0.10164 0.78218
 C83 C 0.04713 -0.15014 0.80690
 C84 C -0.04231 -0.11587 0.83558
 C85 C -0.04124 -0.06803 0.81029
 N86 N 0.00289 -0.06159 0.78455
 H87 H -0.03710 -0.07244 0.68887
 H88 H -0.10042 0.08338 0.73857
 H89 H -0.18446 0.08404 0.69495
 H90 H -0.11977 -0.07497 0.64361
 H91 H 0.08064 -0.09641 0.76082
 H92 H 0.08250 -0.18123 0.80494
 H93 H -0.07815 -0.12048 0.85543
 H94 H -0.07585 -0.03600 0.81090
 C95 C 0.15908 0.00283 0.66547
 C96 C -0.00271 0.16201 0.83395
 C97 C 0.00228 -0.15778 0.83404
 C98 C -0.15889 0.00461 0.66542
 C99 C 0.00011 -0.30957 0.09240
 C100 C 0.02135 -0.31233 0.13471
 C101 C 0.02228 -0.26409 0.15872
 C102 C -0.00150 -0.40112 0.04730
 C103 C -0.01933 -0.21003 0.09810
 C104 C -0.02023 -0.25835 0.07415
 C105 C -0.00084 -0.35932 0.06780
 C106 C 0.00195 -0.21234 0.14070
 H107 H 0.03702 -0.35179 0.14920
 H108 H 0.03815 -0.26738 0.19164
 H109 H -0.03469 -0.17080 0.08312
 H110 H -0.03672 -0.25576 0.04142
 C111 C -0.00141 0.30976 0.09192
 C112 C 0.03077 0.30109 0.12949
 C113 C 0.03105 0.25202 0.15351
 C114 C -0.00236 0.40326 0.04726
 C115 C -0.03295 0.21988 0.10228
 C116 C -0.03311 0.26901 0.07826
 C117 C -0.00200 0.36058 0.06756
 C118 C -0.00098 0.21089 0.14030
 H119 H 0.05565 0.33227 0.14023
 H120 H 0.05678 0.24603 0.18219
 H121 H -0.05852 0.18935 0.09151
 H122 H -0.05819 0.27534 0.04921
 C123 C 0.30815 0.00192 0.59084
 C124 C 0.26693 -0.02921 0.57728
 C125 C 0.21830 -0.02873 0.60137
 C126 C 0.40090 -0.00024 0.54621
 C127 C 0.25186 0.03448 0.65249
 C128 C 0.30044 0.03388 0.62838
 C129 C 0.35856 0.00075 0.56649
 C130 C 0.21029 0.00297 0.63938
 H131 H 0.27253 -0.05413 0.54826
 H132 H 0.18742 -0.05392 0.59069
 H133 H 0.24662 0.05999 0.68117
 H134 H 0.33201 0.05831 0.63906
 C135 C -0.30705 0.00180 0.59099
 C136 C -0.28288 0.05081 0.59430
 C137 C -0.23459 0.05175 0.61836
 C138 C -0.39897 0.00013 0.54626
 C139 C -0.23430 -0.04557 0.63568
 C140 C -0.28262 -0.04638 0.61165
 C141 C -0.35705 0.00097 0.56663
 C142 C -0.20979 0.00356 0.63939
 H143 H -0.30137 0.08831 0.57830
 H144 H -0.21634 0.09001 0.62015
 H145 H -0.21665 -0.08314 0.65196
 H146 H -0.30108 -0.08451 0.60939
 C147 C -0.00008 -0.30759 0.90899
 C148 C 0.02091 -0.30958 0.86655
 C149 C 0.02178 -0.26089 0.84220
 C150 C -0.00167 -0.40003 0.95464
 C151 C -0.01935 -0.20793 0.90277
 C152 C -0.02019 -0.25670 0.92705
 C153 C -0.00102 -0.35781 0.93391
 C154 C 0.00166 -0.20947 0.86003
 H155 H 0.03640 -0.34879 0.85221
 H156 H 0.03745 -0.26357 0.80920
 H157 H -0.03453 -0.16897 0.91760
 H158 H -0.03648 -0.25471 0.95988
 C159 C -0.00231 0.31003 0.90878
 C160 C 0.02920 0.30291 0.87075
 C161 C 0.02925 0.25472 0.84654
 C162 C -0.00277 0.40189 0.95377
 C163 C -0.03368 0.22039 0.89846
 C164 C -0.03362 0.26864 0.92267
 C165 C -0.00264 0.35995 0.93335
 C166 C -0.00235 0.21295 0.86001
 H167 H 0.05377 0.33461 0.85982
 H168 H 0.05451 0.24991 0.81751
 H169 H -0.05891 0.18933 0.90944
 H170 H -0.05820 0.27378 0.95206
 C171 C -0.30816 -0.00308 0.40846
 C172 C -0.28274 0.04530 0.40536
 C173 C -0.23408 0.04585 0.38149
 C174 C -0.40093 -0.00327 0.45278
 C175 C -0.23585 -0.05065 0.36398
 C176 C -0.28455 -0.05107 0.38783
 C177 C -0.35862 -0.00332 0.43256
 C178 C -0.21015 -0.00210 0.36041
 H179 H -0.30057 0.08262 0.42135
 H180 H -0.21491 0.08364 0.37983
 H181 H -0.21884 -0.08801 0.34768
 H182 H -0.30397 -0.08871 0.38994
 C183 C 0.30915 -0.00677 0.40781
 C184 C 0.30922 -0.03664 0.36919
 C185 C 0.26065 -0.03688 0.34540
 C186 C 0.40154 -0.00481 0.45184
 C187 C 0.21156 0.02245 0.39900
 C188 C 0.26020 0.02257 0.42277
 C189 C 0.35941 -0.00578 0.43180
 C190 C 0.21127 -0.00710 0.35991
 H191 H 0.34685 -0.05967 0.35741
 H192 H 0.26165 -0.06072 0.31582
 H193 H 0.17445 0.04633 0.41078
 H194 H 0.25973 0.04589 0.45262
   
