data_POSCAR
  _audit_creation_date              2014-09-24
  _audit_creation_method            'ToBaCCo'
  _symmetry_space_group_name_H-M    'P1'
  _symmetry_Int_Tables_number       1
  _symmetry_cell_setting            triclinic
  loop_
  _symmetry_equiv_pos_as_xyz
 x,y,z
_cell_length_a 29.0969
_cell_length_b 29.6464
_cell_length_c 28.2431
_cell_angle_alpha 89.190700
_cell_angle_beta 88.068300
_cell_angle_gamma 88.657200
loop_
  _atom_site_label
  _atom_site_type_symbol
  _atom_site_fract_x
  _atom_site_fract_y
  _atom_site_fract_z
C1 C 0.18408 1.23869 0.17244
 C2 C 0.16060 1.22014 0.21232
 C3 C 0.17618 1.17981 0.23441
 C4 C 0.21678 1.15885 0.21631
 C5 C 0.24142 1.17703 0.17738
 C6 C 0.22477 1.21670 0.15538
 H7 H 0.12956 1.23729 0.22493
 H8 H 0.22934 1.12767 0.23239
 H9 H 0.24262 1.22866 0.12385
 C10 C 0.82157 0.75052 0.19136
 C11 C 0.78243 0.76943 0.16996
 C12 C 0.76144 0.80971 0.18653
 C13 C 0.77915 0.83068 0.22594
 C14 C 0.81853 0.81313 0.24740
 C15 C 0.83887 0.77258 0.23080
 H16 H 0.76821 0.75255 0.14019
 H17 H 0.76349 0.86199 0.23860
 H18 H 0.86822 0.75914 0.24899
 C19 C 0.81355 1.25881 -0.18035
 C20 C 0.83048 1.23813 -0.22245
 C21 C 0.81118 1.19815 -0.23899
 C22 C 0.77443 1.17919 -0.21249
 C23 C 0.75687 1.19929 -0.17067
 C24 C 0.77662 1.23888 -0.15519
 H25 H 0.85930 1.25233 -0.24137
 H26 H 0.76064 1.14776 -0.22396
 H27 H 0.76337 1.25392 -0.12254
 C28 C 0.17562 0.76628 -0.17689
 C29 C 0.15596 0.78967 -0.21498
 C30 C 0.17491 0.82972 -0.23354
 C31 C 0.21473 0.84596 -0.21285
 C32 C 0.23469 0.82330 -0.17443
 C33 C 0.21474 0.78364 -0.15637
 H34 H 0.12524 0.77656 -0.23004
 H35 H 0.23054 0.87666 -0.22532
 H36 H 0.22805 0.76775 -0.12487
 C37 C 0.57243 1.04451 -0.02260
 H38 H 0.57513 1.04460 0.01552
 C39 C 0.60309 1.06923 -0.05116
 H40 H 0.62950 1.08763 -0.03425
 C41 C 0.53614 1.01767 -0.09019
 H42 H 0.51076 0.99671 -0.10536
 C43 C 0.56608 1.04189 -0.12009
 H44 H 0.56303 1.03970 -0.15811
 N45 N 0.53954 1.01972 -0.04235
 C46 C 0.43391 1.00294 0.06926
 H47 H 0.43256 0.96651 0.07084
 C48 C 0.40299 1.02893 0.09684
 H49 H 0.37796 1.01221 0.11983
 C50 C 0.46713 1.06884 0.03593
 H51 H 0.49161 1.08428 0.01151
 C52 C 0.43682 1.09617 0.06290
 H53 H 0.43968 1.13236 0.05961
 Zn54 Zn 0.50136 0.98519 -0.00089
 N55 N 0.46497 1.02313 0.03937
 C56 C 0.54210 0.94975 0.08251
 N57 N 0.54059 0.94694 0.03456
 C58 C 0.56963 0.91872 0.00981
 C59 C 0.60197 0.89187 0.03320
 C60 C 0.57406 0.92359 0.10736
 C61 C 0.42900 0.97538 -0.06134
 C62 C 0.39627 0.95329 -0.08683
 C63 C 0.42721 0.88199 -0.05835
 C64 C 0.45962 0.90552 -0.03353
 N65 N 0.46004 0.95138 -0.03567
 H66 H 0.51932 0.97300 0.10147
 H67 H 0.56788 0.91744 -0.02836
 H68 H 0.62389 0.86926 0.01241
 H69 H 0.57527 0.92669 0.14546
 H70 H 0.42970 1.01185 -0.06184
 H71 H 0.37184 0.97302 -0.10710
 H72 H 0.42817 0.84553 -0.05671
 H73 H 0.48408 0.88708 -0.01230
 C74 C 0.40346 1.07615 0.09318
 C75 C 0.59994 1.06833 -0.10077
 C76 C 0.39469 0.90607 -0.08519
 C77 C 0.60512 0.89479 0.08269
 C78 C -0.01063 0.56656 1.06551
 H79 H 0.02643 0.56818 1.06175
 C80 C -0.03494 0.59716 1.09451
 H81 H -0.01592 0.62247 1.11223
 C82 C -0.07993 0.53341 1.04350
 H83 H -0.09736 0.50922 1.02267
 C84 C -0.10565 0.56337 1.07218
 H85 H -0.14283 0.56170 1.07349
 N86 N -0.03326 0.53549 1.04083
 C87 C 0.06780 0.42906 1.00747
 H88 H 0.06549 0.42865 0.96932
 C89 C 0.09562 0.39717 1.03031
 H90 H 0.11394 0.37212 1.00907
 C91 C 0.04356 0.46065 1.08100
 H92 H 0.02240 0.48474 1.10069
 C93 C 0.07101 0.42941 1.10531
 H94 H 0.07100 0.43004 1.14365
 Zn95 Zn 0.00273 0.49891 0.99894
 N96 N 0.04258 0.45999 1.03291
 C97 C 0.08364 0.53695 0.95746
 N98 N 0.03686 0.53844 0.95891
 C99 C 0.01302 0.57075 0.93472
 C100 C 0.03628 0.60354 0.90801
 C101 C 0.10831 0.56916 0.93123
 C102 C -0.05782 0.42891 0.98791
 C103 C -0.08360 0.39794 0.96401
 C104 C -0.06267 0.43559 0.89027
 C105 C -0.03703 0.46574 0.91564
 N106 N -0.03502 0.46183 0.96356
 H107 H 0.10200 0.51139 0.97741
 H108 H -0.02418 0.57155 0.93706
 H109 H 0.01670 0.62943 0.88955
 H110 H 0.14546 0.56685 0.93041
 H111 H -0.05521 0.42627 1.02598
 H112 H -0.10096 0.37159 0.98408
 H113 H -0.06379 0.44002 0.85231
 H114 H -0.01820 0.49179 0.89685
 C115 C 0.09757 0.39714 1.08004
 C116 C -0.08324 0.59573 1.09824
 C117 C -0.08581 0.40048 0.91449
 C118 C 0.08450 0.60365 0.90680
 C119 C 1.05065 -0.00658 0.57562
 H120 H 1.04787 0.02988 0.57539
 C121 C 1.07741 -0.02895 0.60911
 H122 H 1.09441 -0.00901 0.63473
 C123 C 1.02879 -0.07619 0.54406
 H124 H 1.00893 -0.09455 0.51945
 C125 C 1.05527 -0.09995 0.57683
 H126 H 1.05593 -0.13650 0.57668
 N127 N 1.02733 -0.03030 0.54374
 C128 C 1.00347 0.06156 0.42501
 H129 H 0.96657 0.05891 0.42295
 C130 C 1.02783 0.08728 0.39137
 H131 H 1.00907 0.10362 0.36327
 C132 C 1.07237 0.04049 0.46275
 H133 H 1.08970 0.02146 0.49001
 C134 C 1.09813 0.06591 0.42983
 H135 H 1.13517 0.06654 0.43238
 Zn136 Zn 0.98967 0.00308 0.50185
 N137 N 1.02585 0.03913 0.46000
 C138 C 0.94883 0.08541 0.53438
 N139 N 0.94948 0.03974 0.53965
 C140 C 0.92459 0.01925 0.57504
 C141 C 0.89875 0.04499 0.60780
 C142 C 0.92317 0.11244 0.56612
 C143 C 0.98230 -0.06211 0.43332
 C144 C 0.96103 -0.08983 0.40162
 C145 C 0.88720 -0.06303 0.43284
 C146 C 0.90999 -0.03595 0.46430
 N147 N 0.95674 -0.03594 0.46380
 H148 H 0.96915 0.10114 0.50633
 H149 H 0.92609 -0.01713 0.57870
 H150 H 0.88014 0.02809 0.63652
 H151 H 0.92324 0.14857 0.56063
 H152 H 1.01944 -0.06117 0.43353
 H153 H 0.98261 -0.11094 0.37880
 H154 H 0.84995 -0.06230 0.43320
 H155 H 0.89033 -0.01437 0.48837
 C156 C 1.07591 0.09003 0.39377
 C157 C 1.08029 -0.07642 0.60974
 C158 C 0.91270 -0.08986 0.40036
 C159 C 0.89870 0.09227 0.60440
 C160 C 0.16434 0.27733 1.15038
 C161 C 0.18230 0.29941 1.11231
 C162 C 0.15822 0.33690 1.08743
 C163 C 0.12395 0.36236 1.10682
 H164 H 0.21462 0.28885 1.09578
 H165 H 0.17045 0.34381 1.05155
 H166 H 0.13129 0.28901 1.16468
 H167 H 0.11481 0.35835 1.14405
 C168 C -0.15736 0.71163 1.17084
 C169 C -0.11939 0.69011 1.18657
 C170 C -0.09438 0.65316 1.16118
 C171 C -0.11123 0.62927 1.12591
 H172 H -0.10283 0.70101 1.21783
 H173 H -0.06005 0.64560 1.17298
 H174 H -0.17217 0.69967 1.13887
 H175 H -0.14685 0.63370 1.11681
 C176 C -0.16706 0.29747 0.83912
 C177 C -0.13157 0.32059 0.81988
 C178 C -0.10948 0.35851 0.84326
 C179 C -0.11173 0.36540 0.89022
 H180 H -0.11727 0.31284 0.78517
 H181 H -0.08760 0.37892 0.82048
 H182 H -0.18216 0.30913 0.87242
 H183 H -0.13104 0.34250 0.91293
 C184 C 0.15222 0.72580 0.84266
 C185 C 0.17376 0.69300 0.86730
 C186 C 0.15067 0.65387 0.89003
 C187 C 0.10820 0.64053 0.88045
 H188 H 0.21020 0.69512 0.87303
 H189 H 0.17009 0.63614 0.91673
 H190 H 0.11594 0.72366 0.83630
 H191 H 0.08862 0.65832 0.85393
 C192 C 1.15240 0.15851 0.27279
 C193 C 1.11291 0.17388 0.29375
 C194 C 1.08671 0.14912 0.33127
 C195 C 1.10400 0.11549 0.35812
 H196 H 1.09634 0.20478 0.28215
 H197 H 1.05151 0.16063 0.33740
 H198 H 1.16670 0.12662 0.28510
 H199 H 1.14026 0.10674 0.35523
 C200 C 1.15225 -0.14785 0.72903
 C201 C 1.16613 -0.10948 0.70737
 C202 C 1.14029 -0.08492 0.67035
 C203 C 1.10676 -0.10253 0.64533
 H204 H 1.19672 -0.09292 0.71770
 H205 H 1.15099 -0.05081 0.66294
 H206 H 1.12071 -0.16246 0.71800
 H207 H 1.09883 -0.13781 0.64971
 C208 C 0.83893 -0.16134 0.28595
 C209 C 0.88461 -0.16004 0.29072
 C210 C 0.90777 -0.13267 0.32568
 C211 C 0.88794 -0.11720 0.36608
 H212 H 0.90721 -0.17746 0.26543
 H213 H 0.94340 -0.12591 0.31704
 H214 H 0.81616 -0.14032 0.30777
 H215 H 0.85212 -0.12386 0.37426
 C216 C 0.82799 0.17500 0.72019
 C217 C 0.86281 0.18847 0.69105
 C218 C 0.88249 0.16231 0.65055
 C219 C 0.87411 0.11880 0.64211
 H220 H 0.87899 0.22033 0.69578
 H221 H 0.90787 0.17981 0.62892
 H222 H 0.81131 0.14395 0.71219
 H223 H 0.85107 0.10036 0.66563
 C224 C 0.28226 1.15147 0.15820
 C225 C 0.31654 1.17059 0.13262
 C226 C 0.35509 1.14516 0.10908
 C227 C 0.36801 1.10271 0.12052
 H228 H 0.31575 1.20663 0.12612
 H229 H 0.37251 1.16276 0.08021
 H230 H 0.28311 1.11552 0.16510
 H231 H 0.35063 1.08540 0.14966
 C232 C 0.72018 1.17864 -0.14019
 C233 C 0.69212 1.14662 -0.15422
 C234 C 0.65879 1.12605 -0.12042
 C235 C 0.63242 1.09228 -0.13345
 H236 H 0.69366 1.13492 -0.19034
 H237 H 0.65641 1.13863 -0.08464
 H238 H 0.71620 1.19039 -0.10404
 H239 H 0.63452 1.08169 -0.17009
 C240 C 0.27417 0.84428 -0.15195
 C241 C 0.30504 0.82130 -0.12611
 C242 C 0.34314 0.84249 -0.10162
 C243 C 0.35887 0.88381 -0.11209
 H244 H 0.30196 0.78529 -0.12089
 H245 H 0.35812 0.82268 -0.07341
 H246 H 0.27717 0.88028 -0.15714
 H247 H 0.34410 0.90346 -0.14053
 C248 C 0.72183 0.83141 0.16268
 C249 C 0.71574 0.82785 0.11598
 C250 C 0.67934 0.85207 0.08980
 C251 C 0.64017 0.86895 0.10970
 H252 H 0.74072 0.80906 0.09442
 H253 H 0.68605 0.85574 0.05212
 H254 H 0.69968 0.85383 0.18357
 H255 H 0.63378 0.86514 0.14749
   
