data_POSCAR
  _audit_creation_date              2014-09-24
  _audit_creation_method            'ToBaCCo'
  _symmetry_space_group_name_H-M    'P1'
  _symmetry_Int_Tables_number       1
  _symmetry_cell_setting            triclinic
  loop_
  _symmetry_equiv_pos_as_xyz
 x,y,z
_cell_length_a 39.1718
_cell_length_b 39.4528
_cell_length_c 39.5513
_cell_angle_alpha 90.027600
_cell_angle_beta 90.052900
_cell_angle_gamma 91.578600
loop_
  _atom_site_label
  _atom_site_type_symbol
  _atom_site_fract_x
  _atom_site_fract_y
  _atom_site_fract_z
C1 C 0.26482 0.24560 0.22326
 N2 N 0.26453 0.22076 0.24711
 C3 C 0.24025 0.21982 0.27167
 N4 N 0.21628 0.24403 0.27226
 C5 C 0.21625 0.26900 0.24866
 N6 N 0.24060 0.26960 0.22424
 C7 C 0.73731 -0.24738 0.21931
 N8 N 0.73727 -0.22292 0.24358
 C9 C 0.76087 -0.22249 0.26876
 N10 N 0.78469 -0.24681 0.26956
 C11 C 0.78531 -0.27145 0.24559
 N12 N 0.76146 -0.27151 0.22058
 C13 C 0.72124 0.24603 0.77507
 N14 N 0.71992 0.22119 0.75124
 C15 C 0.74363 0.22049 0.72620
 N16 N 0.76867 0.24497 0.72512
 C17 C 0.77047 0.26996 0.74877
 N18 N 0.74659 0.27020 0.77367
 C19 C 0.27703 -0.24650 0.77969
 N20 N 0.27760 -0.22219 0.75531
 C21 C 0.25327 -0.22205 0.73072
 N22 N 0.22809 -0.24650 0.73072
 C23 C 0.22712 -0.27087 0.75497
 N24 N 0.25167 -0.27066 0.77918
 C25 C 0.72599 -0.25467 0.76872
 N26 N 0.72747 -0.23116 0.74364
 C27 C 0.75165 -0.23234 0.71913
 N28 N 0.77478 -0.25737 0.71987
 C29 C 0.77385 -0.28117 0.74478
 N30 N 0.74932 -0.27955 0.76902
 C31 C 0.27142 0.25079 0.76996
 N32 N 0.27012 0.22720 0.74494
 C33 C 0.24549 0.22785 0.72076
 N34 N 0.22189 0.25247 0.72178
 C35 C 0.22287 0.27629 0.74666
 N36 N 0.24771 0.27525 0.77064
 C37 C 0.28440 -0.25095 0.22605
 N38 N 0.28390 -0.22718 0.25090
 C39 C 0.25939 -0.22812 0.27515
 N40 N 0.23494 -0.25322 0.27439
 C41 C 0.23480 -0.27724 0.24966
 N42 N 0.25969 -0.27585 0.22567
 C43 C 0.71864 0.25072 0.22820
 N44 N 0.71786 0.22669 0.25278
 C45 C 0.74141 0.22714 0.27793
 N46 N 0.76597 0.25206 0.27839
 C47 C 0.76734 0.27640 0.25402
 N48 N 0.74349 0.27550 0.22891
 O49 O 0.27501 0.03231 0.46597
 O50 O 0.27931 -0.03146 0.53385
 O51 O 0.27958 -0.03316 0.46788
 O52 O 0.27495 0.03411 0.53194
 O53 O 0.21872 0.02907 0.53180
 O54 O 0.22339 -0.03875 0.46781
 O55 O 0.22311 -0.03687 0.53357
 O56 O 0.21879 0.02707 0.46617
 Cu57 Cu 0.28284 0.00097 0.49994
 Cu58 Cu 0.21537 -0.00543 0.49985
 C59 C 0.24610 0.04062 0.45449
 C60 C 0.25192 -0.04510 0.54530
 C61 C 0.25234 -0.04744 0.45679
 C62 C 0.24609 0.04318 0.54281
 O63 O 0.71752 0.02658 0.53235
 O64 O 0.72261 -0.03694 0.46423
 O65 O 0.72212 -0.03899 0.53022
 O66 O 0.71783 0.02853 0.46643
 O67 O 0.77401 0.03417 0.46704
 O68 O 0.77835 -0.03386 0.53058
 O69 O 0.77882 -0.03155 0.46505
 O70 O 0.77373 0.03197 0.53261
 Cu71 Cu 0.71437 -0.00577 0.49827
 Cu72 Cu 0.78186 0.00074 0.49889
 C73 C 0.74483 0.04022 0.54404
 C74 C 0.75165 -0.04512 0.45304
 C75 C 0.75093 -0.04804 0.54128
 C76 C 0.74516 0.04293 0.45581
 O77 O 0.46100 0.27650 0.03217
 O78 O 0.52850 0.27651 -0.03223
 O79 O 0.46193 0.27608 -0.03357
 O80 O 0.52769 0.27637 0.03340
 O81 O 0.52588 0.22044 0.03338
 O82 O 0.46077 0.22014 -0.03351
 O83 O 0.52699 0.22056 -0.03253
 O84 O 0.45952 0.22057 0.03253
 Cu85 Cu 0.49490 0.28197 -0.00004
 Cu86 Cu 0.49312 0.21483 0.00001
 C87 C 0.44869 0.24861 0.04343
 C88 C 0.53929 0.24862 -0.04346
 C89 C 0.45025 0.24799 -0.04510
 C90 C 0.53804 0.24834 0.04481
 O91 O 0.54082 0.72365 0.03083
 O92 O 0.47214 0.72411 -0.03239
 O93 O 0.53868 0.72380 -0.03466
 O94 O 0.47414 0.72425 0.03309
 O95 O 0.47634 0.78021 0.03321
 O96 O 0.54022 0.77977 -0.03485
 O97 O 0.47409 0.78007 -0.03284
 O98 O 0.54260 0.77961 0.03120
 Cu99 Cu 0.50626 0.71834 -0.00076
 Cu100 Cu 0.50852 0.78554 -0.00079
 C101 C 0.55348 0.75150 0.04184
 C102 C 0.46139 0.75207 -0.04349
 C103 C 0.55037 0.75175 -0.04640
 C104 C 0.46422 0.75234 0.04472
 O105 O 0.03264 0.46694 0.27912
 O106 O -0.03008 0.53449 0.27847
 O107 O -0.03345 0.46838 0.28013
 O108 O 0.03595 0.53309 0.27726
 O109 O 0.03521 0.53118 0.22150
 O110 O -0.03505 0.46713 0.22436
 O111 O -0.03148 0.53294 0.22271
 O112 O 0.03159 0.46527 0.22337
 Cu113 Cu 0.00138 0.50087 0.28432
 Cu114 Cu -0.00002 0.49899 0.21737
 C115 C 0.04283 0.45449 0.25142
 C116 C -0.04150 0.54530 0.25054
 C117 C -0.04616 0.45672 0.25279
 C118 C 0.04746 0.54320 0.24889
 O119 O 0.03218 0.53349 0.72249
 O120 O -0.03396 0.46529 0.71929
 O121 O -0.03421 0.53154 0.72076
 O122 O 0.03239 0.46721 0.72130
 O123 O 0.03080 0.46629 0.77705
 O124 O -0.03596 0.52995 0.77651
 O125 O -0.03577 0.46445 0.77506
 O126 O 0.03057 0.53208 0.77823
 Cu127 Cu -0.00072 0.49951 0.71535
 Cu128 Cu -0.00269 0.49808 0.78229
 C129 C 0.04270 0.54444 0.75098
 C130 C -0.04625 0.45332 0.74665
 C131 C -0.04655 0.54162 0.74860
 C132 C 0.04298 0.45576 0.74933
 C133 C 0.34220 0.24995 0.14563
 C134 C 0.33657 0.21991 0.16462
 C135 C 0.31157 0.21870 0.19011
 C136 C 0.29139 0.24685 0.19659
 C137 C 0.29658 0.27631 0.17721
 C138 C 0.32163 0.27795 0.15218
 C139 C 0.36957 0.25046 0.11911
 C140 C 0.37844 0.27967 0.10023
 C141 C 0.40411 0.27890 0.07585
 C142 C 0.42152 0.24899 0.06939
 C143 C 0.41302 0.21976 0.08814
 C144 C 0.38754 0.22039 0.11314
 C145 C 0.35564 0.19117 0.15782
 C146 C 0.38031 0.19129 0.13241
 H147 H 0.35123 0.16809 0.17221
 H148 H 0.39417 0.16831 0.12800
 H149 H 0.30755 0.19561 0.20460
 H150 H 0.28138 0.29842 0.18154
 H151 H 0.41021 0.30185 0.06182
 H152 H 0.42660 0.19661 0.08366
 H153 H 0.32426 0.30130 0.13817
 H154 H 0.36612 0.30347 0.10402
 C155 C 0.66179 0.74984 0.14208
 C156 C 0.66427 0.77764 0.16463
 C157 C 0.68908 0.77830 0.19031
 C158 C 0.71255 0.75205 0.19343
 C159 C 0.71071 0.72517 0.17003
 C160 C 0.68568 0.72397 0.14490
 C161 C 0.63409 0.74946 0.11588
 C162 C 0.62751 0.72159 0.09432
 C163 C 0.60127 0.72237 0.07048
 C164 C 0.58117 0.75103 0.06720
 C165 C 0.58735 0.77888 0.08862
 C166 C 0.61316 0.77804 0.11328
 C167 C 0.64225 0.80482 0.16120
 C168 C 0.61764 0.80528 0.13572
 H169 H 0.64432 0.82629 0.17825
 H170 H 0.60147 0.82706 0.13393
 H171 H 0.69025 0.79965 0.20759
 H172 H 0.72840 0.70458 0.17123
 H173 H 0.59689 0.70050 0.05432
 H174 H 0.57151 0.80091 0.08665
 H175 H 0.68571 0.70268 0.12780
 H176 H 0.64198 0.69878 0.09572
 C177 C 0.64521 0.25004 -0.14626
 C178 C 0.64901 0.22003 -0.16536
 C179 C 0.67363 0.21890 -0.19114
 C180 C 0.69520 0.24712 -0.19782
 C181 C 0.69185 0.27654 -0.17830
 C182 C 0.66720 0.27808 -0.15296
 C183 C 0.61811 0.25050 -0.11951
 C184 C 0.61098 0.27970 -0.10052
 C185 C 0.58542 0.27891 -0.07599
 C186 C 0.56641 0.24899 -0.06949
 C187 C 0.57320 0.21976 -0.08829
 C188 C 0.59854 0.22041 -0.11344
 C189 C 0.62846 0.19125 -0.15843
 C190 C 0.60403 0.19133 -0.13280
 H191 H 0.63148 0.16819 -0.17290
 H192 H 0.58895 0.16833 -0.12830
 H193 H 0.67622 0.19585 -0.20574
 H194 H 0.70817 0.29869 -0.18278
 H195 H 0.58067 0.30185 -0.06191
 H196 H 0.55836 0.19660 -0.08376
 H197 H 0.66601 0.30141 -0.13887
 H198 H 0.62458 0.30351 -0.10436
 C199 C 0.35324 0.75075 -0.14393
 C200 C 0.35232 0.77847 -0.16657
 C201 C 0.32734 0.77916 -0.19212
 C202 C 0.30227 0.75301 -0.19491
 C203 C 0.30276 0.72619 -0.17147
 C204 C 0.32784 0.72498 -0.14653
 C205 C 0.38093 0.75032 -0.11778
 C206 C 0.38579 0.72249 -0.09615
 C207 C 0.41197 0.72323 -0.07224
 C208 C 0.43378 0.75179 -0.06896
 C209 C 0.42937 0.77960 -0.09049
 C210 C 0.40356 0.77881 -0.11522
 C211 C 0.37601 0.80554 -0.16324
 C212 C 0.40071 0.80596 -0.13778
 H213 H 0.37519 0.82696 -0.18035
 H214 H 0.41818 0.82768 -0.13605
 H215 H 0.32726 0.80043 -0.20947
 H216 H 0.28385 0.70565 -0.17239
 H217 H 0.41497 0.70139 -0.05603
 H218 H 0.44654 0.80155 -0.08853
 H219 H 0.32659 0.70376 -0.12938
 H220 H 0.37001 0.69972 -0.09752
 C221 C 0.14104 0.34675 0.25296
 C222 C 0.15979 0.34146 0.22292
 C223 C 0.18442 0.31627 0.22173
 C224 C 0.19022 0.29552 0.24988
 C225 C 0.17095 0.30025 0.27930
 C226 C 0.14679 0.32553 0.28093
 C227 C 0.11561 0.37449 0.25347
 C228 C 0.09731 0.38324 0.28273
 C229 C 0.07392 0.40927 0.28193
 C230 C 0.06790 0.42712 0.25196
 C231 C 0.08612 0.41878 0.22271
 C232 C 0.11016 0.39300 0.22337
 C233 C 0.15361 0.36108 0.19416
 C234 C 0.12905 0.38600 0.19426
 H235 H 0.16779 0.35690 0.17108
 H236 H 0.12505 0.40028 0.17126
 H237 H 0.19879 0.31256 0.19867
 H238 H 0.17477 0.28456 0.30138
 H239 H 0.06027 0.41525 0.30489
 H240 H 0.08200 0.43273 0.19952
 H241 H 0.13281 0.32784 0.30424
 H242 H 0.10084 0.37056 0.30656
 C243 C 0.14822 0.65069 0.75670
 C244 C 0.15421 0.66991 0.72696
 C245 C 0.17953 0.69588 0.72661
 C246 C 0.19971 0.70251 0.75535
 C247 C 0.19400 0.68305 0.78458
 C248 C 0.16861 0.65762 0.78536
 C249 C 0.12083 0.62339 0.75617
 C250 C 0.11180 0.60407 0.78493
 C251 C 0.08637 0.57869 0.78310
 C252 C 0.06935 0.57169 0.75259
 C253 C 0.07787 0.59101 0.72384
 C254 C 0.10314 0.61695 0.72551
 C255 C 0.13528 0.66274 0.69762
 C256 C 0.11056 0.63661 0.69681
 H257 H 0.13991 0.67732 0.67478
 H258 H 0.09688 0.63186 0.67338
 H259 H 0.18395 0.71047 0.70373
 H260 H 0.20915 0.68755 0.80714
 H261 H 0.08023 0.56428 0.80570
 H262 H 0.06456 0.58612 0.70022
 H263 H 0.16569 0.64352 0.80856
 H264 H 0.12386 0.60819 0.80914
 C265 C -0.13998 0.65263 0.25030
 C266 C -0.16221 0.65432 0.22219
 C267 C -0.18717 0.67922 0.22088
 C268 C -0.18981 0.70346 0.24685
 C269 C -0.16682 0.70220 0.27416
 C270 C -0.14244 0.67717 0.27596
 C271 C -0.11440 0.62507 0.25124
 C272 C -0.09309 0.61955 0.27932
 C273 C -0.06966 0.59356 0.27898
 C274 C -0.06659 0.57259 0.25059
 C275 C -0.08785 0.57765 0.22257
 C276 C -0.11205 0.60329 0.22293
 C277 C -0.15911 0.63147 0.19530
 C278 C -0.13423 0.60685 0.19543
 H279 H -0.17593 0.63288 0.17361
 H280 H -0.13264 0.59003 0.17385
 H281 H -0.20418 0.67987 0.19926
 H282 H -0.16769 0.72046 0.29458
 H283 H -0.05364 0.59008 0.30098
 H284 H -0.08605 0.56117 0.20073
 H285 H -0.12559 0.67776 0.29753
 H286 H -0.09431 0.63472 0.30194
 C287 C -0.15100 0.34631 0.74435
 C288 C -0.17348 0.34444 0.77231
 C289 C -0.19968 0.31946 0.77339
 C290 C -0.20341 0.29519 0.74744
 C291 C -0.18026 0.29659 0.72025
 C292 C -0.15461 0.32181 0.71860
 C293 C -0.12392 0.37394 0.74379
 C294 C -0.10207 0.37974 0.71595
 C295 C -0.07711 0.40571 0.71681
 C296 C -0.07304 0.42626 0.74553
 C297 C -0.09492 0.42098 0.77320
 C298 C -0.12058 0.39546 0.77232
 C299 C -0.16936 0.36715 0.79934
 C300 C -0.14315 0.39175 0.79959
 H301 H -0.18640 0.36559 0.82089
 H302 H -0.14078 0.40841 0.82131
 H303 H -0.21680 0.31872 0.79493
 H304 H -0.18200 0.27831 0.69982
 H305 H -0.06064 0.40944 0.69507
 H306 H -0.09237 0.43719 0.79527
 H307 H -0.13768 0.32141 0.69714
 H308 H -0.10400 0.36477 0.69318
 C309 C 0.23899 0.14277 0.34908
 C310 C 0.26900 0.14951 0.33002
 C311 C 0.26911 0.17413 0.30432
 C312 C 0.23992 0.19297 0.29785
 C313 C 0.21042 0.18656 0.31716
 C314 C 0.20984 0.16177 0.34230
 C315 C 0.23983 0.11615 0.37612
 C316 C 0.21086 0.10630 0.39520
 C317 C 0.21301 0.08169 0.42037
 C318 C 0.24410 0.06636 0.42741
 C319 C 0.27305 0.07568 0.40831
 C320 C 0.27105 0.10008 0.38255
 C321 C 0.29886 0.13210 0.33711
 C322 C 0.29997 0.10822 0.36305
 H323 H 0.32190 0.13734 0.32266
 H324 H 0.32382 0.09576 0.36778
 H325 H 0.29221 0.17915 0.28988
 H326 H 0.18752 0.20070 0.31277
 H327 H 0.19025 0.07488 0.43463
 H328 H 0.29711 0.06364 0.41321
 H329 H 0.18643 0.15824 0.35632
 H330 H 0.18622 0.11710 0.39103
 C331 C 0.74017 0.14207 0.65006
 C332 C 0.77004 0.16255 0.65482
 C333 C 0.77081 0.18807 0.67951
 C334 C 0.74242 0.19336 0.70028
 C335 C 0.71309 0.17256 0.69608
 C336 C 0.71187 0.14733 0.67125
 C337 C 0.74025 0.11554 0.62284
 C338 C 0.71135 0.09500 0.61475
 C339 C 0.71282 0.07069 0.58911
 C340 C 0.74314 0.06605 0.57107
 C341 C 0.77197 0.08648 0.57883
 C342 C 0.77066 0.11128 0.60418
 C343 C 0.79910 0.15731 0.63513
 C344 C 0.79952 0.13202 0.61059
 H345 H 0.82202 0.17287 0.63891
 H346 H 0.82274 0.12885 0.59618
 H347 H 0.79383 0.20364 0.68277
 H348 H 0.69083 0.17598 0.71181
 H349 H 0.69017 0.05532 0.58356
 H350 H 0.79544 0.08342 0.56477
 H351 H 0.68863 0.13217 0.66922
 H352 H 0.68733 0.09742 0.62771
 C353 C 0.25646 -0.14547 0.65273
 C354 C 0.22657 -0.16581 0.65789
 C355 C 0.22581 -0.19080 0.68317
 C356 C 0.25425 -0.19560 0.70409
 C357 C 0.28359 -0.17493 0.69938
 C358 C 0.28478 -0.15029 0.67403
 C359 C 0.25638 -0.11947 0.62502
 C360 C 0.28529 -0.09912 0.61663
 C361 C 0.28383 -0.07521 0.59066
 C362 C 0.25351 -0.07076 0.57252
 C363 C 0.22465 -0.09106 0.58050
 C364 C 0.22596 -0.11549 0.60625
 C365 C 0.19750 -0.16092 0.63804
 C366 C 0.19709 -0.13610 0.61302
 H367 H 0.17456 -0.17638 0.64210
 H368 H 0.17385 -0.13317 0.59853
 H369 H 0.20281 -0.20629 0.68676
 H370 H 0.30590 -0.17797 0.71516
 H371 H 0.30651 -0.05995 0.58497
 H372 H 0.20117 -0.08815 0.56639
 H373 H 0.30804 -0.13522 0.67170
 H374 H 0.30933 -0.10136 0.62963
 C375 C 0.76055 -0.14648 0.34711
 C376 C 0.73095 -0.15294 0.32729
 C377 C 0.73137 -0.17725 0.30132
 C378 C 0.76067 -0.19605 0.29531
 C379 C 0.78973 -0.18998 0.31538
 C380 C 0.78979 -0.16550 0.34082
 C381 C 0.75920 -0.12013 0.37435
 C382 C 0.78782 -0.11050 0.39411
 C383 C 0.78522 -0.08607 0.41940
 C384 C 0.75404 -0.07073 0.42590
 C385 C 0.72543 -0.07985 0.40617
 C386 C 0.72789 -0.10404 0.38026
 C387 C 0.70098 -0.13555 0.33390
 C388 C 0.69936 -0.11194 0.36007
 H389 H 0.67825 -0.14059 0.31888
 H390 H 0.67544 -0.09947 0.36439
 H391 H 0.70859 -0.18204 0.28628
 H392 H 0.81268 -0.20414 0.31136
 H393 H 0.80773 -0.07941 0.43416
 H394 H 0.70132 -0.06777 0.41066
 H395 H 0.81288 -0.16221 0.35544
 H396 H 0.81251 -0.12129 0.39036
 C397 C 0.65041 0.75088 -0.15461
 C398 C 0.67188 0.72268 -0.15635
 C399 C 0.69713 0.72115 -0.18147
 C400 C 0.70078 0.74690 -0.20597
 C401 C 0.67849 0.77425 -0.20472
 C402 C 0.65386 0.77632 -0.17941
 C403 C 0.62452 0.75206 -0.12676
 C404 C 0.60406 0.78034 -0.12105
 C405 C 0.58026 0.78018 -0.09482
 C406 C 0.57594 0.75177 -0.07384
 C407 C 0.59639 0.72360 -0.07906
 C408 C 0.62099 0.72379 -0.10489
 C409 C 0.66767 0.69589 -0.13334
 C410 C 0.64241 0.69618 -0.10854
 H411 H 0.68389 0.67412 -0.13480
 H412 H 0.63993 0.67464 -0.09163
 H413 H 0.71355 0.69947 -0.18212
 H414 H 0.68015 0.79450 -0.22318
 H415 H 0.56489 0.80229 -0.09118
 H416 H 0.59364 0.70176 -0.06254
 H417 H 0.63757 0.79791 -0.17997
 H418 H 0.60626 0.80296 -0.13626
 C419 C 0.34882 0.24652 -0.15252
 C420 C 0.33031 0.27644 -0.15738
 C421 C 0.30498 0.27762 -0.18251
 C422 C 0.29819 0.24957 -0.20359
 C423 C 0.31720 0.22027 -0.19924
 C424 C 0.34207 0.21865 -0.17405
 C425 C 0.37505 0.24601 -0.12487
 C426 C 0.39329 0.21685 -0.11661
 C427 C 0.41745 0.21764 -0.09066
 C428 C 0.42433 0.24752 -0.07236
 C429 C 0.40618 0.27668 -0.08021
 C430 C 0.38138 0.27602 -0.10594
 C431 C 0.33740 0.30511 -0.13739
 C432 C 0.36265 0.30503 -0.11251
 H433 H 0.32339 0.32811 -0.14123
 H434 H 0.36732 0.32795 -0.09793
 H435 H 0.29082 0.30061 -0.18588
 H436 H 0.31264 0.19827 -0.21518
 H437 H 0.43102 0.19474 -0.08510
 H438 H 0.41097 0.29980 -0.06594
 H439 H 0.35579 0.19543 -0.17205
 H440 H 0.38915 0.19309 -0.12965
 C441 C 0.36193 0.75331 0.15092
 C442 C 0.33868 0.72527 0.15245
 C443 C 0.31276 0.72420 0.17701
 C444 C 0.31014 0.75026 0.20116
 C445 C 0.33408 0.77750 0.20007
 C446 C 0.35942 0.77912 0.17531
 C447 C 0.38859 0.75395 0.12371
 C448 C 0.41105 0.78195 0.11827
 C449 C 0.43541 0.78133 0.09255
 C450 C 0.43831 0.75272 0.07184
 C451 C 0.41596 0.72478 0.07686
 C452 C 0.39082 0.72543 0.10216
 C453 C 0.34174 0.69820 0.12981
 C454 C 0.36757 0.69804 0.10557
 H455 H 0.32413 0.67656 0.13111
 H456 H 0.36906 0.67630 0.08892
 H457 H 0.29502 0.70262 0.17753
 H458 H 0.33324 0.79800 0.21826
 H459 H 0.45226 0.80328 0.08906
 H460 H 0.41761 0.70278 0.06056
 H461 H 0.37698 0.80064 0.17599
 H462 H 0.41001 0.80472 0.13327
 C463 C 0.64164 0.24653 0.15007
 C464 C 0.66124 0.27674 0.15550
 C465 C 0.68677 0.27790 0.18056
 C466 C 0.69258 0.24952 0.20099
 C467 C 0.67275 0.21981 0.19577
 C468 C 0.64775 0.21823 0.17068
 C469 C 0.61485 0.24616 0.12293
 C470 C 0.59520 0.21690 0.11455
 C471 C 0.57046 0.21782 0.08923
 C472 C 0.56441 0.24792 0.07163
 C473 C 0.58396 0.27722 0.07961
 C474 C 0.60930 0.27645 0.10480
 C475 C 0.65491 0.30570 0.13624
 C476 C 0.62929 0.30565 0.11168
 H477 H 0.66977 0.32890 0.14044
 H478 H 0.62523 0.32881 0.09770
 H479 H 0.70165 0.30114 0.18458
 H480 H 0.67660 0.19750 0.21110
 H481 H 0.55584 0.19481 0.08355
 H482 H 0.57980 0.30053 0.06589
 H483 H 0.63336 0.19469 0.16815
 H484 H 0.59860 0.19294 0.12702
 C485 C -0.15236 0.64193 0.74874
 C486 C -0.15353 0.66413 0.72072
 C487 C -0.17780 0.68969 0.71962
 C488 C -0.20192 0.69308 0.74573
 C489 C -0.20128 0.67009 0.77290
 C490 C -0.17687 0.64505 0.77449
 C491 C -0.12530 0.61577 0.74952
 C492 C -0.12021 0.59439 0.77751
 C493 C -0.09457 0.57054 0.77708
 C494 C -0.07354 0.56708 0.74870
 C495 C -0.07824 0.58834 0.72074
 C496 C -0.10350 0.61296 0.72118
 C497 C -0.13073 0.66047 0.69376
 C498 C -0.10661 0.63512 0.69376
 H499 H -0.13177 0.67727 0.67213
 H500 H -0.08979 0.63316 0.67215
 H501 H -0.17799 0.70669 0.69808
 H502 H -0.21950 0.67151 0.79341
 H503 H -0.09138 0.55451 0.79903
 H504 H -0.06173 0.58623 0.69889
 H505 H -0.17786 0.62827 0.79599
 H506 H -0.13542 0.59590 0.80013
 C507 C -0.15379 0.35255 0.25697
 C508 C -0.17610 0.35014 0.22887
 C509 C -0.20263 0.32538 0.22825
 C510 C -0.20669 0.30185 0.25483
 C511 C -0.18375 0.30395 0.28223
 C512 C -0.15790 0.32893 0.28340
 C513 C -0.12620 0.37968 0.25697
 C514 C -0.10445 0.38583 0.28485
 C515 C -0.07882 0.41106 0.28345
 C516 C -0.07394 0.43062 0.25419
 C517 C -0.09578 0.42509 0.22645
 C518 C -0.12214 0.40022 0.22784
 C519 C -0.17137 0.37199 0.20124
 C520 C -0.14465 0.39610 0.20051
 H521 H -0.18827 0.37005 0.17957
 H522 H -0.14179 0.41203 0.17831
 H523 H -0.21960 0.32408 0.20659
 H524 H -0.18572 0.28634 0.30318
 H525 H -0.06244 0.41496 0.30527
 H526 H -0.09260 0.44052 0.20393
 H527 H -0.14114 0.32892 0.30503
 H528 H -0.10692 0.37169 0.30807
 C529 C 0.14743 0.35391 0.75097
 C530 C 0.15224 0.33527 0.72082
 C531 C 0.17660 0.30980 0.71964
 C532 C 0.19701 0.30299 0.74792
 C533 C 0.19270 0.32206 0.77749
 C534 C 0.16824 0.34707 0.77910
 C535 C 0.12064 0.38037 0.75143
 C536 C 0.11248 0.39883 0.78070
 C537 C 0.08728 0.42314 0.77987
 C538 C 0.06969 0.42994 0.74984
 C539 C 0.07751 0.41162 0.72054
 C540 C 0.10245 0.38669 0.72123
 C541 C 0.13298 0.34240 0.69195
 C542 C 0.10891 0.36780 0.69204
 H543 H 0.13677 0.32829 0.66880
 H544 H 0.09487 0.37248 0.66896
 H545 H 0.17997 0.29558 0.69647
 H546 H 0.20811 0.31748 0.79968
 H547 H 0.08169 0.43683 0.80287
 H548 H 0.06376 0.41635 0.69729
 H549 H 0.16625 0.36083 0.80253
 H550 H 0.12498 0.39474 0.80459
 C551 C 0.15714 0.64537 0.24622
 C552 C 0.15950 0.66782 0.27409
 C553 C 0.18496 0.69360 0.27491
 C554 C 0.20921 0.69693 0.24877
 C555 C 0.20735 0.67375 0.22172
 C556 C 0.18168 0.64852 0.22035
 C557 C 0.12893 0.61885 0.24586
 C558 C 0.12259 0.59713 0.21809
 C559 C 0.09601 0.57281 0.21906
 C560 C 0.07532 0.56923 0.24781
 C561 C 0.08119 0.59092 0.27546
 C562 C 0.10734 0.61597 0.27446
 C563 C 0.13675 0.66414 0.30123
 C564 C 0.11160 0.63845 0.30166
 H565 H 0.13868 0.68114 0.32273
 H566 H 0.09491 0.63644 0.32345
 H567 H 0.18605 0.71073 0.29636
 H568 H 0.22559 0.67515 0.20116
 H569 H 0.09186 0.55648 0.19733
 H570 H 0.06492 0.58876 0.29756
 H571 H 0.18174 0.63157 0.19895
 H572 H 0.13759 0.59871 0.19527
 C573 C 0.75506 -0.15546 0.64158
 C574 C 0.72490 -0.16174 0.66052
 C575 C 0.72410 -0.18672 0.68576
 C576 C 0.75274 -0.20637 0.69211
 C577 C 0.78227 -0.20086 0.67263
 C578 C 0.78354 -0.17567 0.64779
 C579 C 0.75509 -0.12779 0.61556
 C580 C 0.78438 -0.11787 0.59696
 C581 C 0.78304 -0.09186 0.57306
 C582 C 0.75244 -0.07530 0.56685
 C583 C 0.72320 -0.08483 0.58538
 C584 C 0.72441 -0.11049 0.60987
 C585 C 0.69558 -0.14329 0.65402
 C586 C 0.69521 -0.11852 0.62896
 H587 H 0.67242 -0.14828 0.66837
 H588 H 0.67178 -0.10515 0.62474
 H589 H 0.70091 -0.19110 0.70025
 H590 H 0.80469 -0.21575 0.67689
 H591 H 0.80599 -0.08491 0.55917
 H592 H 0.69953 -0.07186 0.58113
 H593 H 0.80695 -0.17257 0.63367
 H594 H 0.80863 -0.12962 0.60066
 C595 C 0.26002 -0.15114 0.35279
 C596 C 0.23047 -0.17188 0.34725
 C597 C 0.23052 -0.19727 0.32229
 C598 C 0.25946 -0.20191 0.30204
 C599 C 0.28850 -0.18096 0.30729
 C600 C 0.28889 -0.15603 0.33232
 C601 C 0.25904 -0.12452 0.37985
 C602 C 0.28758 -0.10372 0.38838
 C603 C 0.28530 -0.07902 0.41348
 C604 C 0.25451 -0.07420 0.43067
 C605 C 0.22600 -0.09504 0.42266
 C606 C 0.22814 -0.12028 0.39771
 C607 C 0.20090 -0.16684 0.36630
 C608 C 0.19965 -0.14139 0.39073
 H609 H 0.17820 -0.18259 0.36200
 H610 H 0.17604 -0.13832 0.40452
 H611 H 0.20776 -0.21301 0.31826
 H612 H 0.31121 -0.18389 0.29208
 H613 H 0.30773 -0.06340 0.41920
 H614 H 0.20217 -0.09182 0.43606
 H615 H 0.31196 -0.14072 0.33494
 H616 H 0.31197 -0.10612 0.37615
 C617 C 0.73902 0.14858 0.35382
 C618 C 0.76858 0.16960 0.34952
 C619 C 0.76899 0.19551 0.32516
 C620 C 0.74056 0.20044 0.30427
 C621 C 0.71150 0.17926 0.30827
 C622 C 0.71062 0.15377 0.33274
 C623 C 0.73956 0.12136 0.38027
 C624 C 0.71098 0.10015 0.38762
 C625 C 0.71288 0.07495 0.41225
 C626 C 0.74330 0.07003 0.43008
 C627 C 0.77182 0.09122 0.42321
 C628 C 0.77007 0.11695 0.39879
 C629 C 0.79772 0.16434 0.36917
 C630 C 0.79856 0.13839 0.39303
 H631 H 0.82041 0.18034 0.36580
 H632 H 0.82186 0.13517 0.40733
 H633 H 0.79178 0.21142 0.32208
 H634 H 0.68919 0.18242 0.29249
 H635 H 0.69045 0.05903 0.41712
 H636 H 0.79535 0.08793 0.43714
 H637 H 0.68759 0.13828 0.33443
 H638 H 0.68688 0.10264 0.37482
 C639 C 0.24191 0.15059 0.64338
 C640 C 0.27216 0.15706 0.66218
 C641 C 0.27302 0.18215 0.68736
 C642 C 0.24435 0.20172 0.69381
 C643 C 0.21470 0.19596 0.67448
 C644 C 0.21337 0.17068 0.64970
 C645 C 0.24185 0.12286 0.61734
 C646 C 0.21252 0.11283 0.59877
 C647 C 0.21387 0.08684 0.57481
 C648 C 0.24451 0.07037 0.56852
 C649 C 0.27376 0.08000 0.58706
 C650 C 0.27256 0.10567 0.61158
 C651 C 0.30151 0.13869 0.65561
 C652 C 0.30182 0.11384 0.63058
 H653 H 0.32473 0.14379 0.66986
 H654 H 0.32528 0.10055 0.62631
 H655 H 0.29629 0.18666 0.70174
 H656 H 0.19223 0.21076 0.67881
 H657 H 0.19090 0.07982 0.56093
 H658 H 0.29748 0.06713 0.58276
 H659 H 0.18987 0.16741 0.63571
 H660 H 0.18825 0.12453 0.60251
   
