data_POSCAR
  _audit_creation_date              2014-09-24
  _audit_creation_method            'ToBaCCo'
  _symmetry_space_group_name_H-M    'P1'
  _symmetry_Int_Tables_number       1
  _symmetry_cell_setting            triclinic
  loop_
  _symmetry_equiv_pos_as_xyz
 x,y,z
_cell_length_a 30.5900
_cell_length_b 30.7920
_cell_length_c 74.7319
_cell_angle_alpha 88.413800
_cell_angle_beta 87.030900
_cell_angle_gamma 120.172700
loop_
  _atom_site_label
  _atom_site_type_symbol
  _atom_site_fract_x
  _atom_site_fract_y
  _atom_site_fract_z
C1 C -0.03458 0.00542 0.53415
 H2 H -0.02968 -0.02449 0.53966
 C3 C -0.03741 0.03891 0.54565
 H4 H -0.03596 0.03353 0.55994
 C5 C -0.03893 0.05090 0.50886
 H6 H -0.03732 0.05643 0.49443
 C7 C -0.04197 0.08536 0.51993
 H8 H -0.04309 0.11717 0.51393
 N9 N -0.03424 0.01252 0.51608
 C10 C 0.03902 -0.06833 0.51579
 H11 H 0.07280 -0.03754 0.50884
 C12 C 0.04210 -0.10562 0.52586
 H13 H 0.07847 -0.10328 0.52659
 C14 C -0.04978 -0.10974 0.52293
 H15 H -0.08547 -0.11101 0.52165
 C16 C -0.04847 -0.14761 0.53306
 H17 H -0.08335 -0.17753 0.53982
 Zn18 Zn -0.01539 -0.02424 0.50077
 N19 N -0.00651 -0.07105 0.51462
 C20 C 0.08318 0.05950 0.49641
 N21 N 0.04526 0.02362 0.48742
 C22 C 0.04768 0.02579 0.46916
 C23 C 0.08884 0.06570 0.45924
 C24 C 0.12478 0.10061 0.48698
 C25 C -0.10821 -0.06028 0.48317
 C26 C -0.14278 -0.08981 0.47091
 C27 C -0.08861 -0.12345 0.46299
 C28 C -0.05565 -0.09368 0.47540
 N29 N -0.06525 -0.06220 0.48491
 H30 H 0.07990 0.05738 0.51093
 H31 H 0.01672 -0.00210 0.46220
 H32 H 0.08904 0.06772 0.44474
 H33 H 0.15388 0.12976 0.49431
 H34 H -0.11541 -0.03537 0.49109
 H35 H -0.17494 -0.08480 0.46945
 H36 H -0.07948 -0.14910 0.45649
 H37 H -0.02187 -0.09554 0.47747
 C38 C -0.00218 -0.14606 0.53460
 C39 C -0.03954 0.08039 0.53854
 C40 C -0.13318 -0.12179 0.46009
 C41 C 0.12745 0.10435 0.46814
 C42 C 1.10923 0.09721 0.14442
 H43 H 1.11024 0.13250 0.14606
 C44 C 1.14731 0.09615 0.13373
 H45 H 1.17712 0.13084 0.12696
 C46 C 1.06785 0.00904 0.15093
 H47 H 1.03682 -0.02469 0.15774
 C48 C 1.10534 0.00626 0.14034
 H49 H 1.10298 -0.02982 0.13916
 N50 N 1.07018 0.05403 0.15255
 C51 C 0.93759 0.07091 0.15775
 H52 H 0.92868 0.06574 0.17213
 C53 C 0.90194 0.06899 0.14631
 H54 H 0.86578 0.06256 0.15203
 C55 C 0.99338 0.08020 0.13283
 H56 H 1.02803 0.08260 0.12752
 C57 C 0.95919 0.07898 0.12096
 H58 H 0.96880 0.08185 0.10666
 Zn59 Zn 1.02058 0.06069 0.16634
 N60 N 0.98159 0.07488 0.15086
 C61 C 1.04834 0.15246 0.18348
 N62 N 1.05559 0.11258 0.18189
 C63 C 1.09061 0.10854 0.19113
 C64 C 1.11983 0.14519 0.20267
 C65 C 1.07684 0.19017 0.19499
 C66 C 0.93918 -0.03843 0.17099
 C67 C 0.89941 -0.08073 0.18056
 C68 C 0.93512 -0.04416 0.20815
 C69 C 0.97364 -0.00223 0.19809
 N70 N 0.97474 0.00013 0.17985
 H71 H 1.02066 0.15512 0.17581
 H72 H 1.09573 0.07653 0.18950
 H73 H 1.14686 0.14063 0.21010
 H74 H 1.07101 0.22191 0.19608
 H75 H 0.94049 -0.03526 0.15649
 H76 H 0.87044 -0.11044 0.17336
 H77 H 0.93386 -0.04466 0.22267
 H78 H 1.00143 0.02912 0.20494
 C79 C 0.91188 0.07122 0.12763
 C80 C 1.14563 0.05023 0.13148
 C81 C 0.89677 -0.08351 0.19939
 C82 C 1.11335 0.18683 0.20469
 C83 C 0.06450 0.94497 0.85842
 H84 H 0.03204 0.90734 0.85854
 C85 C 0.10460 0.95432 0.86874
 H86 H 0.10227 0.92373 0.87703
 C87 C 0.10619 1.03045 0.84750
 H88 H 0.10670 1.05972 0.83901
 C89 C 0.14731 1.04156 0.85770
 H90 H 0.17942 1.07956 0.85697
 N91 N 0.06582 0.98277 0.84815
 C92 C -0.09177 0.93711 0.84151
 H93 H -0.09283 0.93560 0.82708
 C94 C -0.13344 0.93214 0.85198
 H95 H -0.16679 0.92468 0.84527
 C96 C -0.04627 0.94876 0.86728
 H97 H -0.01154 0.95735 0.87318
 C98 C -0.08707 0.94354 0.87829
 H99 H -0.08161 0.94904 0.89239
 Zn100 Zn 0.00987 0.96341 0.83418
 N101 N -0.04903 0.94603 0.84924
 C102 C -0.04126 0.86420 0.82109
 N103 N 0.00312 0.90858 0.82138
 C104 C 0.04651 0.91590 0.81257
 C105 C 0.04636 0.87819 0.80268
 C106 C -0.04319 0.82532 0.81124
 C107 C 0.01774 1.05600 0.82438
 C108 C 0.01554 1.09104 0.81270
 C109 C 0.01987 1.04476 0.78776
 C110 C 0.02153 1.01047 0.79988
 N111 N 0.01964 1.01615 0.81783
 H112 H -0.07514 0.85898 0.82841
 H113 H 0.08130 0.95151 0.81312
 H114 H 0.08117 0.88539 0.79543
 H115 H -0.07874 0.79020 0.81106
 H116 H 0.01530 1.05910 0.83873
 H117 H 0.01148 1.12106 0.81823
 H118 H 0.02074 1.03906 0.77355
 H119 H 0.02224 0.97826 0.79489
 C120 C -0.13150 0.93634 0.87075
 C121 C 0.14687 1.00307 0.86843
 C122 C 0.01528 1.08488 0.79413
 C123 C 0.00111 0.83218 0.80186
 C124 C 0.43011 0.01417 -0.01901
 C125 C 0.40774 0.02088 -0.00333
 C126 C 0.42582 0.02048 0.01344
 C127 C 0.46949 0.01616 0.01456
 C128 C 0.49230 0.00868 -0.00117
 C129 C 0.47205 0.00677 -0.01799
 C130 C 0.49457 -0.00198 -0.03329
 C131 C 0.53515 -0.01020 -0.03203
 C132 C 0.55634 -0.00762 -0.01556
 C133 C 0.53528 0.00280 -0.00004
 C134 C 0.49117 0.01961 0.03097
 C135 C 0.53412 0.01530 0.03198
 C136 C 0.55685 0.00698 0.01664
 C137 C 0.60006 0.00179 0.01760
 C138 C 0.61885 -0.01084 0.00239
 C139 C 0.59756 -0.01590 -0.01408
 H140 H 0.48078 -0.00305 -0.04640
 H141 H 0.55000 -0.01818 -0.04415
 H142 H 0.47546 0.02630 0.04318
 H143 H 0.54885 0.01774 0.04500
 H144 H 0.37441 0.02455 -0.00411
 H145 H 0.65147 -0.01567 0.00327
 C146 C -0.00235 0.56044 0.68336
 C147 C 0.00468 0.58699 0.66697
 C148 C 0.00414 0.56592 0.65059
 C149 C -0.00383 0.51647 0.65047
 C150 C -0.00901 0.48981 0.66698
 C151 C -0.00767 0.51207 0.68347
 C152 C -0.01089 0.48575 0.69962
 C153 C -0.01575 0.43834 0.69962
 C154 C -0.01789 0.41524 0.68347
 C155 C -0.01541 0.44080 0.66702
 C156 C -0.00597 0.49326 0.63433
 C157 C -0.01462 0.44432 0.63442
 C158 C -0.01919 0.41751 0.65060
 C159 C -0.02773 0.36788 0.65086
 C160 C -0.02945 0.34344 0.66716
 C161 C -0.02308 0.36693 0.68335
 H162 H -0.00897 0.50188 0.71244
 H163 H -0.01853 0.41964 0.71246
 H164 H -0.00127 0.51253 0.62144
 H165 H -0.01714 0.42791 0.62162
 H166 H 0.00911 0.62424 0.66697
 H167 H -0.03411 0.30610 0.66714
 C168 C 0.57668 0.62279 0.34919
 C169 C 0.60064 0.64706 0.33249
 C170 C 0.57910 0.62738 0.31649
 C171 C 0.53114 0.58300 0.31709
 C172 C 0.50701 0.55706 0.33387
 C173 C 0.53011 0.57667 0.34999
 C174 C 0.50663 0.54913 0.36639
 C175 C 0.46132 0.50330 0.36696
 C176 C 0.43750 0.48349 0.35117
 C177 C 0.46002 0.51107 0.33450
 C178 C 0.50652 0.56424 0.30137
 C179 C 0.45941 0.52033 0.30207
 C180 C 0.43596 0.49251 0.31845
 C181 C 0.38879 0.44693 0.31926
 C182 C 0.36723 0.42007 0.33580
 C183 C 0.39150 0.43695 0.35162
 H184 H 0.52343 0.56241 0.37894
 H185 H 0.44481 0.48376 0.37995
 H186 H 0.52314 0.58389 0.28840
 H187 H 0.44173 0.50840 0.28959
 H188 H 0.63721 0.68149 0.33193
 H189 H 0.33201 0.38428 0.33624
 C190 C 0.00212 0.13749 0.56302
 C191 C 0.00798 0.17541 0.57413
 C192 C -0.02296 0.19675 0.57303
 C193 C -0.05925 0.18023 0.56016
 C194 C -0.06479 0.14244 0.54887
 C195 C -0.03448 0.12035 0.55035
 C196 C -0.01552 0.23626 0.58541
 C197 C -0.05230 0.24545 0.59098
 C198 C -0.04564 0.28023 0.60528
 C199 C -0.08775 0.26991 0.61689
 C200 C -0.08207 0.29932 0.63147
 C201 C -0.03437 0.34015 0.63445
 C202 C 0.00746 0.35193 0.62250
 C203 C 0.00190 0.32236 0.60796
 H204 H 0.02681 0.12197 0.56419
 H205 H 0.03654 0.18778 0.58378
 H206 H -0.08287 0.19677 0.55862
 H207 H -0.09304 0.13014 0.53913
 H208 H 0.02042 0.25513 0.59144
 H209 H -0.08990 0.22316 0.58639
 H210 H -0.12476 0.23792 0.61505
 H211 H -0.11467 0.28970 0.64064
 H212 H 0.04454 0.38336 0.62466
 H213 H 0.03487 0.33233 0.59896
 C214 C 0.80302 0.86185 0.20598
 C215 C 0.76118 0.82702 0.21724
 C216 C 0.76781 0.80389 0.23246
 C217 C 0.81718 0.81589 0.23616
 C218 C 0.85904 0.85128 0.22506
 C219 C 0.85239 0.87500 0.20999
 C220 C 0.72343 0.77124 0.24512
 C221 C 0.72045 0.73350 0.25547
 C222 C 0.67936 0.70491 0.26974
 C223 C 0.66637 0.65541 0.27484
 C224 C 0.63159 0.62925 0.28952
 C225 C 0.60986 0.65249 0.29950
 C226 C 0.62215 0.70166 0.29433
 C227 C 0.65640 0.72764 0.27950
 H228 H 0.79695 0.88017 0.19458
 H229 H 0.72358 0.81877 0.21423
 H230 H 0.82377 0.79975 0.24804
 H231 H 0.89676 0.86094 0.22844
 H232 H 0.69231 0.77861 0.24584
 H233 H 0.74911 0.72290 0.25346
 H234 H 0.68398 0.63737 0.26767
 H235 H 0.62308 0.59156 0.29354
 H236 H 0.60631 0.72037 0.30210
 H237 H 0.66666 0.76624 0.27626
 C238 C 0.21285 0.05659 -0.11083
 C239 C 0.25014 0.06367 -0.09927
 C240 C 0.26535 0.02778 -0.09721
 C241 C 0.24310 -0.01499 -0.10740
 C242 C 0.20590 -0.02200 -0.11894
 C243 C 0.18968 0.01319 -0.12055
 C244 C 0.30166 0.03504 -0.08350
 C245 C 0.32321 0.00666 -0.08134
 C246 C 0.35417 0.01086 -0.06614
 C247 C 0.35553 -0.03196 -0.06001
 C248 C 0.38138 -0.03067 -0.04496
 C249 C 0.40718 0.01382 -0.03601
 C250 C 0.40732 0.05712 -0.04243
 C251 C 0.38137 0.05585 -0.05743
 H252 H 0.20088 0.08419 -0.11165
 H253 H 0.26637 0.09689 -0.09159
 H254 H 0.25274 -0.04415 -0.10626
 H255 H 0.18925 -0.05549 -0.12647
 H256 H 0.30890 0.06393 -0.07424
 H257 H 0.31575 -0.02305 -0.09019
 H258 H 0.33514 -0.06698 -0.06652
 H259 H 0.38035 -0.06462 -0.04004
 H260 H 0.42703 0.09176 -0.03564
 H261 H 0.38269 0.09008 -0.06209
 C262 C -0.03990 0.76341 0.54526
 C263 C -0.04136 0.72611 0.55674
 C264 C -0.00339 0.73797 0.56860
 C265 C 0.03680 0.78810 0.56852
 C266 C 0.03818 0.82552 0.55703
 C267 C -0.00066 0.81373 0.54551
 C268 C -0.00954 0.69803 0.58177
 C269 C 0.02898 0.69904 0.58993
 C270 C 0.02225 0.66191 0.60453
 C271 C 0.06212 0.67489 0.61565
 C272 C 0.05664 0.64294 0.63030
 C273 C 0.01133 0.59703 0.63401
 C274 C -0.02821 0.58316 0.62272
 C275 C -0.02272 0.61498 0.60799
 H276 H -0.06996 0.75295 0.53633
 H277 H -0.07275 0.68788 0.55655
 H278 H 0.06603 0.79915 0.57781
 H279 H 0.06848 0.86406 0.55773
 H280 H -0.04785 0.66744 0.58499
 H281 H 0.06721 0.72964 0.58642
 H282 H 0.09722 0.71054 0.61329
 H283 H 0.08745 0.65440 0.63897
 H284 H -0.06362 0.54800 0.62548
 H285 H -0.05394 0.60248 0.59954
 C286 C 0.12257 0.24594 0.22867
 C287 C 0.15117 0.27924 0.24140
 C288 C 0.20232 0.29359 0.24265
 C289 C 0.22449 0.27435 0.23066
 C290 C 0.19595 0.24119 0.21797
 C291 C 0.14447 0.22589 0.21703
 C292 C 0.22986 0.32527 0.25741
 C293 C 0.28061 0.35053 0.25764
 C294 C 0.30787 0.37713 0.27329
 C295 C 0.35658 0.38453 0.27514
 C296 C 0.38311 0.40763 0.28998
 C297 C 0.36179 0.42466 0.30308
 C298 C 0.31349 0.41809 0.30119
 C299 C 0.28680 0.39481 0.28637
 H300 H 0.08286 0.23446 0.22839
 H301 H 0.13299 0.29311 0.25053
 H302 H 0.26322 0.28304 0.23135
 H303 H 0.21404 0.22676 0.20906
 H304 H 0.20685 0.32605 0.26874
 H305 H 0.30370 0.34998 0.24630
 H306 H 0.37374 0.37141 0.26527
 H307 H 0.42012 0.41186 0.29135
 H308 H 0.29650 0.43100 0.31122
 H309 H 0.25005 0.39121 0.28521
 C310 C 0.79640 -0.04859 -0.12572
 C311 C 0.76068 -0.04404 -0.11472
 C312 C 0.75522 -0.05546 -0.09618
 C313 C 0.78590 -0.07226 -0.08884
 C314 C 0.82178 -0.07659 -0.09977
 C315 C 0.82870 -0.06383 -0.11842
 C316 C 0.72028 -0.04576 -0.08473
 C317 C 0.70043 -0.06890 -0.06844
 C318 C 0.67024 -0.05579 -0.05589
 C319 C 0.64056 -0.09045 -0.04157
 C320 C 0.61546 -0.07797 -0.02838
 C321 C 0.61952 -0.03054 -0.02924
 C322 C 0.64851 0.00411 -0.04361
 C323 C 0.67367 -0.00835 -0.05687
 H324 H 0.80044 -0.03688 -0.13977
 H325 H 0.73790 -0.03047 -0.12069
 H326 H 0.78366 -0.08059 -0.07456
 H327 H 0.84354 -0.09064 -0.09339
 H328 H 0.71064 -0.01887 -0.09006
 H329 H 0.70625 -0.09921 -0.06394
 H330 H 0.63768 -0.12696 -0.04037
 H331 H 0.59374 -0.10490 -0.01723
 H332 H 0.65289 0.04129 -0.04425
 H333 H 0.69737 0.02005 -0.06734
 C334 C 0.23574 0.08765 0.11872
 C335 C 0.27192 0.08820 0.10638
 C336 C 0.25838 0.04930 0.09469
 C337 C 0.20776 0.00944 0.09568
 C338 C 0.17149 0.00902 0.10798
 C339 C 0.18492 0.04845 0.11949
 C340 C 0.29697 0.05338 0.08086
 C341 C 0.29480 0.01350 0.07325
 C342 C 0.33157 0.01798 0.05858
 C343 C 0.33927 -0.02275 0.05608
 C344 C 0.37124 -0.02118 0.04172
 C345 C 0.39580 0.02106 0.02952
 C346 C 0.38816 0.06183 0.03192
 C347 C 0.35644 0.06044 0.04635
 H348 H 0.24751 0.11823 0.12757
 H349 H 0.31058 0.11938 0.10585
 H350 H 0.19550 -0.02045 0.08653
 H351 H 0.13252 -0.02121 0.10798
 H352 H 0.32884 0.09063 0.07717
 H353 H 0.26584 -0.02409 0.07819
 H354 H 0.32008 -0.05609 0.06516
 H355 H 0.37597 -0.05338 0.03985
 H356 H 0.40613 0.09432 0.02243
 H357 H 0.35013 0.09185 0.04749
 C358 C 0.85224 0.83176 0.43314
 C359 C 0.82019 0.80285 0.42031
 C360 C 0.76950 0.79056 0.42112
 C361 C 0.75156 0.80903 0.43490
 C362 C 0.78374 0.83852 0.44776
 C363 C 0.83499 0.85020 0.44740
 C364 C 0.73787 0.75982 0.40694
 C365 C 0.68702 0.73276 0.40839
 C366 C 0.65772 0.70152 0.39386
 C367 C 0.60889 0.69342 0.39170
 C368 C 0.58164 0.66646 0.37747
 C369 C 0.60261 0.64660 0.36536
 C370 C 0.65048 0.65292 0.36789
 C371 C 0.67764 0.67972 0.38208
 H372 H 0.89136 0.84141 0.43097
 H373 H 0.83537 0.79005 0.40960
 H374 H 0.71288 0.80128 0.43577
 H375 H 0.76683 0.84971 0.45836
 H376 H 0.75812 0.75889 0.39477
 H377 H 0.66594 0.73404 0.42024
 H378 H 0.59248 0.70928 0.40070
 H379 H 0.54479 0.66212 0.37562
 H380 H 0.66704 0.63755 0.35872
 H381 H 0.71418 0.68323 0.38374
 C382 C -0.02434 0.09685 0.76733
 C383 C -0.03323 0.12698 0.75554
 C384 C -0.01141 0.17880 0.75759
 C385 C 0.01918 0.19978 0.77200
 C386 C 0.02823 0.16951 0.78381
 C387 C 0.00677 0.11772 0.78155
 C388 C -0.02229 0.20858 0.74443
 C389 C 0.00270 0.25905 0.74251
 C390 C -0.00658 0.28716 0.72817
 C391 C 0.03264 0.33566 0.72227
 C392 C 0.02670 0.36218 0.70804
 C393 C -0.01886 0.34092 0.69958
 C394 C -0.05876 0.29320 0.70577
 C395 C -0.05295 0.26669 0.72005
 H396 H -0.04261 0.05690 0.76545
 H397 H -0.05736 0.10958 0.74472
 H398 H 0.03593 0.23922 0.77442
 H399 H 0.05236 0.18674 0.79463
 H400 H -0.05052 0.18731 0.73519
 H401 H 0.03370 0.28089 0.75069
 H402 H 0.06854 0.35249 0.72835
 H403 H 0.05809 0.39882 0.70331
 H404 H -0.09424 0.27632 0.69942
 H405 H -0.08482 0.23029 0.72461
 C406 C 0.86568 0.02987 0.10085
 C407 C 0.82730 0.01795 0.08935
 C408 C 0.79388 0.03631 0.09179
 C409 C 0.79940 0.06667 0.10626
 C410 C 0.83801 0.07862 0.11784
 C411 C 0.87172 0.06050 0.11520
 C412 C 0.75366 0.02167 0.07910
 C413 C 0.72748 0.04534 0.07667
 C414 C 0.69101 0.03195 0.06260
 C415 C 0.68325 0.06943 0.05492
 C416 C 0.65236 0.05921 0.04064
 C417 C 0.62808 0.01107 0.03398
 C418 C 0.63409 -0.02702 0.04207
 C419 C 0.66487 -0.01688 0.05636
 H420 H 0.89006 0.01412 0.09870
 H421 H 0.82370 -0.00590 0.07846
 H422 H 0.77374 0.08063 0.10890
 H423 H 0.84158 0.10213 0.12882
 H424 H 0.74796 -0.00819 0.07051
 H425 H 0.73587 0.07813 0.08399
 H426 H 0.70256 0.10718 0.05956
 H427 H 0.64846 0.08919 0.03444
 H428 H 0.61545 -0.06444 0.03714
 H429 H 0.66829 -0.04730 0.06237
 C430 C 0.17896 0.19806 0.46285
 C431 C 0.21142 0.24094 0.45174
 C432 C 0.23375 0.23686 0.43547
 C433 C 0.22370 0.18899 0.43067
 C434 C 0.19085 0.14609 0.44169
 C435 C 0.16750 0.15011 0.45774
 C436 C 0.26311 0.28217 0.42306
 C437 C 0.29907 0.28727 0.41074
 C438 C 0.32400 0.32952 0.39688
 C439 C 0.37255 0.34342 0.38931
 C440 C 0.39531 0.37992 0.37507
 C441 C 0.36962 0.40275 0.36801
 C442 C 0.32124 0.38927 0.37557
 C443 C 0.29864 0.35312 0.38996
 H444 H 0.16089 0.20217 0.47502
 H445 H 0.21817 0.27731 0.45564
 H446 H 0.23915 0.18415 0.41802
 H447 H 0.18258 0.10955 0.43744
 H448 H 0.25462 0.31220 0.42418
 H449 H 0.31115 0.25970 0.41078
 H450 H 0.39254 0.32535 0.39425
 H451 H 0.43234 0.38932 0.36916
 H452 H 0.30060 0.40595 0.37006
 H453 H 0.26055 0.34224 0.39508
 C454 C 0.04115 0.78353 0.79042
 C455 C 0.04342 0.75025 0.77861
 C456 C 0.00494 0.72494 0.76699
 C457 C -0.03667 0.73281 0.76773
 C458 C -0.03893 0.76615 0.77958
 C459 C 0.00046 0.79261 0.79079
 C460 C 0.01194 0.69442 0.75335
 C461 C -0.02587 0.65921 0.74461
 C462 C -0.01736 0.63278 0.72973
 C463 C -0.05746 0.58590 0.72555
 C464 C -0.05198 0.56156 0.71082
 C465 C -0.00633 0.58381 0.69996
 C466 C 0.03386 0.63059 0.70408
 C467 C 0.02851 0.65490 0.71883
 H468 H 0.07175 0.80286 0.79907
 H469 H 0.07591 0.74500 0.77830
 H470 H -0.06645 0.71520 0.75868
 H471 H -0.07036 0.77296 0.77937
 H472 H 0.05007 0.70137 0.75055
 H473 H -0.06469 0.64856 0.74852
 H474 H -0.09335 0.56840 0.73356
 H475 H -0.08376 0.52591 0.70761
 H476 H 0.06903 0.64872 0.69564
 H477 H 0.05968 0.69177 0.72119
   
