data_POSCAR
  _audit_creation_date              2014-09-24
  _audit_creation_method            'ToBaCCo'
  _symmetry_space_group_name_H-M    'P1'
  _symmetry_Int_Tables_number       1
  _symmetry_cell_setting            triclinic
  loop_
  _symmetry_equiv_pos_as_xyz
 x,y,z
_cell_length_a 58.8467
_cell_length_b 56.8617
_cell_length_c 20.3591
_cell_angle_alpha 90.341400
_cell_angle_beta 89.911800
_cell_angle_gamma 120.030600
loop_
  _atom_site_label
  _atom_site_type_symbol
  _atom_site_fract_x
  _atom_site_fract_y
  _atom_site_fract_z
C1 C 0.16813 0.47378 0.44447
 C2 C 0.15462 0.46987 0.50382
 C3 C 0.16681 0.47273 0.56491
 C4 C 0.19239 0.47593 0.56635
 C5 C 0.20548 0.47736 0.50649
 C6 C 0.19360 0.47693 0.44552
 C7 C 0.20684 0.47812 0.38695
 C8 C 0.23148 0.48048 0.38797
 C9 C 0.24359 0.48076 0.44752
 C10 C 0.23056 0.47923 0.50753
 C11 C 0.20466 0.47631 0.62585
 C12 C 0.22949 0.47905 0.62692
 C13 C 0.24255 0.47965 0.56847
 C14 C 0.26786 0.48212 0.56902
 C15 C 0.28053 0.48441 0.50886
 C16 C 0.26857 0.48291 0.44858
 H17 H 0.19807 0.47674 0.33939
 H18 H 0.24092 0.48209 0.34127
 H19 H 0.19510 0.47416 0.67261
 H20 H 0.23829 0.48086 0.67456
 H21 H 0.13554 0.46847 0.50250
 H22 H 0.29940 0.48532 0.50855
 C23 C 0.59438 -0.26121 0.43404
 C24 C 0.59354 -0.27394 0.49299
 C25 C 0.59140 -0.26353 0.55388
 C26 C 0.59068 -0.23888 0.55554
 C27 C 0.59149 -0.22570 0.49558
 C28 C 0.59338 -0.23695 0.43477
 C29 C 0.59306 -0.22442 0.37587
 C30 C 0.58965 -0.20196 0.37613
 C31 C 0.58687 -0.19087 0.43537
 C32 C 0.58825 -0.20249 0.49592
 C33 C 0.58646 -0.22857 0.61436
 C34 C 0.58336 -0.20589 0.61475
 C35 C 0.58453 -0.19217 0.55641
 C36 C 0.57946 -0.17018 0.55589
 C37 C 0.57779 -0.15952 0.49526
 C38 C 0.58137 -0.16937 0.43557
 H39 H 0.59478 -0.23233 0.32877
 H40 H 0.58854 -0.19385 0.32912
 H41 H 0.58440 -0.23851 0.66082
 H42 H 0.57875 -0.20016 0.66140
 H43 H 0.59327 -0.29317 0.49114
 H44 H 0.57411 -0.14262 0.49421
 C45 C 1.30120 0.80003 0.43254
 C46 C 1.30960 0.81611 0.48956
 C47 C 1.29766 0.80645 0.55089
 C48 C 1.27415 0.78080 0.55286
 C49 C 1.26541 0.76396 0.49588
 C50 C 1.27936 0.77331 0.43581
 C51 C 1.26990 0.75649 0.37975
 C52 C 1.24741 0.73099 0.38253
 C53 C 1.23306 0.72157 0.44096
 C54 C 1.24209 0.73808 0.49843
 C55 C 1.25787 0.77270 0.60850
 C56 C 1.23489 0.74771 0.61064
 C57 C 1.22720 0.72935 0.55756
 C58 C 1.20375 0.70362 0.55942
 C59 C 1.19575 0.68766 0.50208
 C60 C 1.20966 0.69620 0.44336
 H61 H 1.27945 0.76307 0.33261
 H62 H 1.24108 0.71888 0.33800
 H63 H 1.26220 0.78616 0.65024
 H64 H 1.22284 0.74351 0.65388
 H65 H 1.32761 0.83555 0.48668
 H66 H 1.17811 0.66782 0.50281
 C67 C 0.69329 0.51343 0.55606
 C68 C 0.68136 0.50989 0.49432
 C69 C 0.69455 0.51172 0.43564
 C70 C 0.72031 0.51580 0.43810
 C71 C 0.73273 0.51895 0.49992
 C72 C 0.71927 0.51775 0.55904
 C73 C 0.73160 0.51922 0.61936
 C74 C 0.75706 0.52373 0.62190
 C75 C 0.77091 0.52536 0.56426
 C76 C 0.75862 0.52298 0.50261
 C77 C 0.73369 0.51607 0.38054
 C78 C 0.75909 0.52025 0.38324
 C79 C 0.77198 0.52404 0.44364
 C80 C 0.79791 0.52879 0.44666
 C81 C 0.81046 0.53320 0.50734
 C82 C 0.79708 0.53027 0.56648
 H83 H 0.72166 0.51656 0.66571
 H84 H 0.76579 0.52607 0.66994
 H85 H 0.72455 0.51277 0.33274
 H86 H 0.76865 0.52067 0.33743
 H87 H 0.66195 0.50763 0.49143
 H88 H 0.83010 0.53597 0.50848
 C89 C 0.46215 0.28122 0.56874
 C90 C 0.46281 0.29405 0.51006
 C91 C 0.46368 0.28301 0.44936
 C92 C 0.46306 0.25786 0.44664
 C93 C 0.46187 0.24427 0.50598
 C94 C 0.46153 0.25610 0.56729
 C95 C 0.46165 0.24315 0.62552
 C96 C 0.46244 0.21914 0.62390
 C97 C 0.46257 0.20673 0.56388
 C98 C 0.46249 0.21961 0.50416
 C99 C 0.46447 0.24646 0.38654
 C100 C 0.46522 0.22236 0.38463
 C101 C 0.46438 0.20868 0.44274
 C102 C 0.46663 0.18506 0.44139
 C103 C 0.46741 0.17311 0.50053
 C104 C 0.46506 0.18315 0.56172
 H105 H 0.46169 0.25182 0.67306
 H106 H 0.46382 0.21101 0.67057
 H107 H 0.46544 0.25634 0.34049
 H108 H 0.46710 0.21495 0.33706
 H109 H 0.46411 0.31377 0.51178
 H110 H 0.46902 0.15491 0.49865
 C111 C 0.74207 0.16510 0.44170
 C112 C 0.73362 0.15060 0.50033
 C113 C 0.74232 0.16350 0.56120
 C114 C 0.76105 0.19154 0.56378
 C115 C 0.77063 0.20635 0.50462
 C116 C 0.76077 0.19314 0.44332
 C117 C 0.76927 0.20841 0.38541
 C118 C 0.78728 0.23613 0.38750
 C119 C 0.79792 0.24960 0.44747
 C120 C 0.78922 0.23465 0.50688
 C121 C 0.76987 0.20523 0.62404
 C122 C 0.78769 0.23294 0.62639
 C123 C 0.79837 0.24802 0.56858
 C124 C 0.81644 0.27643 0.57048
 C125 C 0.82476 0.29062 0.51102
 C126 C 0.81633 0.27779 0.44990
 H127 H 0.76187 0.19905 0.33788
 H128 H 0.79238 0.24696 0.34147
 H129 H 0.76278 0.19468 0.67019
 H130 H 0.79243 0.24240 0.67437
 H131 H 0.71849 0.12933 0.49872
 H132 H 0.83950 0.31203 0.51214
 N133 N 0.97340 0.55187 0.07811
 N134 N 0.95765 0.56169 0.08985
 N135 N 1.02498 0.55212 0.11166
 N136 N 1.04599 0.56339 0.14987
 N137 N 1.02693 0.56910 0.06563
 N138 N 1.04907 0.59241 0.07166
 N139 N 0.97077 0.53437 0.12352
 N140 N 0.95280 0.53141 0.16674
 C141 C 0.94491 0.54867 0.14522
 C142 C 1.06091 0.58851 0.12402
 N143 N 1.00717 0.47700 0.07130
 N144 N 1.02019 0.46419 0.08371
 N145 N 0.95906 0.47870 0.12715
 N146 N 0.94223 0.46891 0.17635
 N147 N 0.95377 0.45964 0.08314
 N148 N 0.93348 0.43636 0.10158
 N149 N 1.01304 0.49642 0.11470
 N150 N 1.03060 0.49768 0.15695
 Mn151 Mn 0.99200 0.51546 0.12007
 C152 C 1.03514 0.47776 0.13627
 C153 C 0.92625 0.44253 0.15936
 N154 N 1.02170 0.56581 -0.07527
 N155 N 1.04145 0.58912 -0.09593
 N156 N 0.96195 0.52900 -0.10562
 N157 N 0.94329 0.52654 -0.14566
 N158 N 0.96809 0.54875 -0.06313
 N159 N 0.95409 0.56066 -0.07399
 N160 N 1.01559 0.54663 -0.11946
 N161 N 1.03074 0.55639 -0.17148
 Mn162 Mn 0.99762 0.55916 0.00142
 C163 C 1.04710 0.58269 -0.15555
 C164 C 0.93840 0.54618 -0.12483
 N165 N 0.94843 0.45632 -0.05818
 N166 N 0.92767 0.43220 -0.06973
 N167 N 1.00425 0.49122 -0.11583
 N168 N 1.01984 0.49189 -0.16336
 N169 N 1.00208 0.47403 -0.07007
 N170 N 1.01589 0.46230 -0.08552
 N171 N 0.95040 0.47376 -0.10290
 N172 N 0.93088 0.46219 -0.14522
 Mn173 Mn 0.97782 0.46651 0.00657
 Mn174 Mn 0.98302 0.51012 -0.11144
 Cl175 Cl 0.98763 0.51281 0.00421
 C176 C 0.91665 0.43639 -0.12354
 C177 C 1.02715 0.47400 -0.14329
 N178 N 0.44115 0.44005 0.08192
 N179 N 0.43115 0.41389 0.09357
 N180 N 0.44610 0.49535 0.11789
 N181 N 0.43820 0.50717 0.16081
 N182 N 0.42725 0.48054 0.07607
 N183 N 0.40578 0.48149 0.09038
 N184 N 0.46023 0.45469 0.12335
 N185 N 0.46394 0.43889 0.16384
 C186 C 0.44558 0.41351 0.14484
 C187 C 0.41312 0.49855 0.14294
 N188 N 0.51771 0.54873 0.06375
 N189 N 0.52873 0.57539 0.07045
 N190 N 0.51473 0.49596 0.11627
 N191 N 0.52351 0.48532 0.15970
 N192 N 0.53230 0.50870 0.07029
 N193 N 0.55374 0.50733 0.08188
 N194 N 0.50030 0.53626 0.11024
 N195 N 0.49854 0.55395 0.14882
 Mn196 Mn 0.48038 0.49556 0.11761
 C197 C 0.51632 0.57820 0.12353
 C198 C 0.54779 0.49246 0.13769
 N199 N 0.42521 0.47616 -0.06635
 N200 N 0.40429 0.47847 -0.07817
 N201 N 0.45693 0.44760 -0.10441
 N202 N 0.45966 0.42976 -0.13986
 N203 N 0.43902 0.43547 -0.05891
 N204 N 0.42877 0.40881 -0.06277
 N205 N 0.44280 0.48801 -0.11270
 N206 N 0.43467 0.49907 -0.15652
 Mn207 Mn 0.43277 0.45785 0.00821
 C208 C 0.41071 0.49306 -0.13456
 C209 C 0.44198 0.40569 -0.11357
 N210 N 0.53021 0.50428 -0.07177
 N211 N 0.55218 0.50463 -0.08785
 N212 N 0.49679 0.52856 -0.12030
 N213 N 0.49479 0.54284 -0.16800
 N214 N 0.51548 0.54428 -0.07909
 N215 N 0.52695 0.56994 -0.09863
 N216 N 0.51121 0.48853 -0.11227
 N217 N 0.51957 0.47756 -0.15627
 Mn218 Mn 0.52431 0.52685 -0.00416
 Mn219 Mn 0.47690 0.48808 -0.11280
 Cl220 Cl 0.47862 0.49214 0.00227
 C221 C 0.54503 0.48745 -0.14016
 C222 C 0.51346 0.56861 -0.15413
 N223 N 0.45645 -0.02515 0.06197
 N224 N 0.43106 -0.04144 0.07134
 N225 N 0.50316 0.02727 0.11779
 N226 N 0.51120 0.04626 0.16349
 N227 N 0.48959 0.03125 0.07255
 N228 N 0.48764 0.05290 0.08701
 N229 N 0.47013 -0.02952 0.10620
 N230 N 0.45443 -0.04919 0.14619
 C231 C 0.43017 -0.05663 0.12329
 C232 C 0.50147 0.06214 0.14378
 N233 N 0.56440 0.01997 0.07643
 N234 N 0.58884 0.03905 0.08948
 N235 N 0.51555 -0.03620 0.10898
 N236 N 0.50854 -0.05580 0.15223
 N237 N 0.53208 -0.03662 0.06619
 N238 N 0.53700 -0.05634 0.07990
 N239 N 0.54820 0.02056 0.11997
 N240 N 0.56100 0.04022 0.16302
 Mn241 Mn 0.50919 -0.00459 0.11383
 C242 C 0.58629 0.05151 0.14374
 C243 C 0.52178 -0.06843 0.13307
 N244 N 0.49271 0.03519 -0.06986
 N245 N 0.48971 0.05632 -0.08239
 N246 N 0.47536 -0.02262 -0.12319
 N247 N 0.46182 -0.03810 -0.17329
 N248 N 0.45958 -0.02145 -0.07922
 N249 N 0.43484 -0.03636 -0.09805
 N250 N 0.50863 0.03377 -0.11284
 N251 N 0.51724 0.05394 -0.15469
 Mn252 Mn 0.47436 0.00507 -0.00359
 C253 C 0.50557 0.06803 -0.13504
 C254 C 0.43662 -0.04700 -0.15620
 N255 N 0.53501 -0.03278 -0.07563
 N256 N 0.53875 -0.05314 -0.09199
 N257 N 0.55341 0.02705 -0.11025
 N258 N 0.56820 0.04810 -0.14754
 N259 N 0.56762 0.02378 -0.06555
 N260 N 0.59271 0.04228 -0.07221
 N261 N 0.52059 -0.02966 -0.12006
 N262 N 0.51393 -0.04786 -0.16728
 Mn263 Mn 0.55008 -0.00643 0.00037
 Mn264 Mn 0.51449 0.00206 -0.11704
 Cl265 Cl 0.51199 -0.00102 -0.00158
 C266 C 0.52516 -0.06252 -0.14902
 C267 C 0.59260 0.05739 -0.12338
 C268 C 1.13029 0.45927 0.37195
 C269 C 1.11762 0.46510 0.32177
 C270 C 1.13120 0.49006 0.28805
 C271 C 1.15778 0.50786 0.30189
 C272 C 1.17049 0.50159 0.35078
 C273 C 1.15674 0.47755 0.38749
 C274 C 1.11781 0.49714 0.24253
 C275 C 1.09115 0.47929 0.22940
 C276 C 1.07812 0.45347 0.25962
 C277 C 1.09137 0.44666 0.30610
 C278 C 1.05181 0.43515 0.24403
 C279 C 1.03823 0.44272 0.20084
 C280 C 1.05059 0.46885 0.17398
 C281 C 1.07710 0.48700 0.18761
 H282 H 1.11953 0.44059 0.39953
 H283 H 1.16854 0.52700 0.27624
 H284 H 1.19063 0.51642 0.36279
 H285 H 1.12797 0.51669 0.21831
 H286 H 1.08111 0.42725 0.33095
 H287 H 1.04162 0.41519 0.26615
 H288 H 1.01771 0.42860 0.19065
 H289 H 1.08661 0.50714 0.16632
 C290 C 0.56619 0.70693 0.34705
 C291 C 0.56189 0.68817 0.29692
 C292 C 0.58328 0.68635 0.27094
 C293 C 0.60872 0.70386 0.29484
 C294 C 0.61269 0.72195 0.34635
 C295 C 0.59140 0.72328 0.37307
 C296 C 0.57869 0.66617 0.22416
 C297 C 0.55289 0.64703 0.20562
 C298 C 0.53161 0.64915 0.23138
 C299 C 0.53632 0.67011 0.27544
 C300 C 0.50581 0.62935 0.21564
 C301 C 0.50102 0.60676 0.17802
 C302 C 0.52192 0.60413 0.15342
 C303 C 0.54786 0.62478 0.16520
 H304 H 0.54974 0.70775 0.36871
 H305 H 0.62535 0.70274 0.27570
 H306 H 0.63219 0.73433 0.36667
 H307 H 0.59501 0.66447 0.20499
 H308 H 0.51994 0.67143 0.29585
 H309 H 0.48932 0.63066 0.23504
 H310 H 0.48091 0.59093 0.16938
 H311 H 0.56399 0.62248 0.14712
 C312 C 0.32026 -0.16334 0.35322
 C313 C 0.33875 -0.14910 0.30421
 C314 C 0.35411 -0.15970 0.27830
 C315 C 0.34911 -0.18547 0.29814
 C316 C 0.33004 -0.19994 0.34581
 C317 C 0.31602 -0.18862 0.37520
 C318 C 0.37471 -0.14396 0.23483
 C319 C 0.37966 -0.11807 0.21607
 C320 C 0.36285 -0.10855 0.23802
 C321 C 0.34269 -0.12400 0.28246
 C322 C 0.36694 -0.08334 0.21659
 C323 C 0.38818 -0.06713 0.17602
 C324 C 0.40595 -0.07558 0.15776
 C325 C 0.40149 -0.10121 0.17700
 H326 H 0.30945 -0.15451 0.37548
 H327 H 0.36051 -0.19403 0.27836
 H328 H 0.32753 -0.21911 0.36290
 H329 H 0.38718 -0.15158 0.21681
 H330 H 0.33046 -0.11621 0.30124
 H331 H 0.35404 -0.07593 0.23228
 H332 H 0.39147 -0.04737 0.16148
 H333 H 0.41515 -0.10780 0.16224
 C334 C 0.83296 0.54731 0.36067
 C335 C 0.84917 0.54323 0.31684
 C336 C 0.84376 0.51649 0.30287
 C337 C 0.82135 0.49430 0.32945
 C338 C 0.80526 0.49854 0.37251
 C339 C 0.81135 0.52498 0.38968
 C340 C 0.86130 0.51236 0.26459
 C341 C 0.88404 0.53459 0.23942
 C342 C 0.88862 0.56125 0.24978
 C343 C 0.87125 0.56542 0.28883
 C344 C 0.91082 0.58332 0.22188
 C345 C 0.92870 0.57908 0.18574
 C346 C 0.92500 0.55285 0.17852
 C347 C 0.90253 0.53063 0.20487
 H348 H 0.83776 0.56772 0.37461
 H349 H 0.81680 0.47369 0.31885
 H350 H 0.78882 0.48120 0.39534
 H351 H 0.85754 0.49189 0.25562
 H352 H 0.87520 0.58591 0.29852
 H353 H 0.91451 0.60386 0.22863
 H354 H 0.94593 0.59640 0.16538
 H355 H 0.89947 0.51029 0.19839
 C356 C 0.44727 0.29913 0.35691
 C357 C 0.45145 0.32004 0.31351
 C358 C 0.47714 0.34231 0.30487
 C359 C 0.49835 0.34249 0.33656
 C360 C 0.49398 0.32172 0.37986
 C361 C 0.46843 0.30040 0.39158
 C362 C 0.48109 0.36461 0.26723
 C363 C 0.45970 0.36499 0.23825
 C364 C 0.43421 0.34211 0.24367
 C365 C 0.43025 0.31976 0.28131
 C366 C 0.41303 0.34231 0.21273
 C367 C 0.41690 0.36530 0.17865
 C368 C 0.44189 0.38857 0.17615
 C369 C 0.46329 0.38819 0.20521
 H370 H 0.42751 0.28281 0.36686
 H371 H 0.51815 0.35930 0.33018
 H372 H 0.51038 0.32303 0.40711
 H373 H 0.50069 0.38201 0.26226
 H374 H 0.41059 0.30257 0.28716
 H375 H 0.39341 0.32487 0.21576
 H376 H 0.40021 0.36524 0.15613
 H377 H 0.48271 0.40600 0.20240
 C378 C 0.70519 0.15219 0.36445
 C379 C 0.68826 0.13517 0.31518
 C380 C 0.69425 0.11722 0.28101
 C381 C 0.71751 0.11713 0.29602
 C382 C 0.73393 0.13368 0.34662
 C383 C 0.72763 0.15099 0.38144
 C384 C 0.67634 0.09885 0.23478
 C385 C 0.65211 0.09751 0.22442
 C386 C 0.64640 0.11574 0.25841
 C387 C 0.66472 0.13480 0.30237
 C388 C 0.62192 0.11385 0.25023
 C389 C 0.60276 0.09329 0.21128
 C390 C 0.60793 0.07473 0.17832
 C391 C 0.63292 0.07739 0.18330
 H392 H 0.70021 0.16530 0.39231
 H393 H 0.72244 0.10351 0.27052
 H394 H 0.75109 0.13242 0.35997
 H395 H 0.68074 0.08481 0.20921
 H396 H 0.66010 0.14847 0.32896
 H397 H 0.61726 0.12767 0.27585
 H398 H 0.58365 0.09164 0.20760
 H399 H 0.63688 0.06291 0.15839
 C400 C 0.48740 0.16469 -0.37462
 C401 C 0.48843 0.14979 -0.32145
 C402 C 0.46779 0.13876 -0.27519
 C403 C 0.44700 0.14402 -0.28157
 C404 C 0.44638 0.15946 -0.33419
 C405 C 0.46645 0.16971 -0.38168
 C406 C 0.46803 0.12214 -0.22457
 C407 C 0.48868 0.11649 -0.22002
 C408 C 0.50985 0.12875 -0.26484
 C409 C 0.50962 0.14533 -0.31495
 C410 C 0.53055 0.12341 -0.26064
 C411 C 0.52959 0.10476 -0.21526
 C412 C 0.50806 0.09124 -0.17283
 C413 C 0.48804 0.09791 -0.17354
 H414 H 0.50311 0.17266 -0.41057
 H415 H 0.43099 0.13579 -0.24661
 H416 H 0.42968 0.16247 -0.33928
 H417 H 0.45187 0.11304 -0.19002
 H418 H 0.52560 0.15413 -0.35011
 H419 H 0.54703 0.13288 -0.29413
 H420 H 0.54537 0.10016 -0.21500
 H421 H 0.47135 0.08749 -0.14102
 C422 C 0.65240 0.49357 -0.38114
 C423 C 0.63730 0.49461 -0.32910
 C424 C 0.64864 0.51626 -0.28330
 C425 C 0.67515 0.53620 -0.28970
 C426 C 0.69012 0.53498 -0.34166
 C427 C 0.67899 0.51363 -0.38807
 C428 C 0.63312 0.51801 -0.23309
 C429 C 0.60633 0.49853 -0.22876
 C430 C 0.59525 0.47652 -0.27383
 C431 C 0.61083 0.47459 -0.32324
 C432 C 0.56849 0.45723 -0.27022
 C433 C 0.55252 0.46036 -0.22457
 C434 C 0.56304 0.48260 -0.18103
 C435 C 0.59015 0.50122 -0.18191
 H436 H 0.64346 0.47694 -0.41624
 H437 H 0.68415 0.55308 -0.25542
 H438 H 0.71015 0.55142 -0.34706
 H439 H 0.64171 0.53488 -0.19861
 H440 H 0.60217 0.45791 -0.35828
 H441 H 0.55974 0.44017 -0.30409
 H442 H 0.53171 0.44566 -0.22439
 H443 H 0.59837 0.51851 -0.14868
 C444 C 0.82861 0.31671 -0.36228
 C445 C 0.84199 0.33353 -0.30877
 C446 C 0.85442 0.32523 -0.26259
 C447 C 0.85249 0.29974 -0.26988
 C448 C 0.83919 0.28309 -0.32370
 C449 C 0.82723 0.29143 -0.37090
 C450 C 0.86941 0.34297 -0.21159
 C451 C 0.87259 0.36913 -0.20743
 C452 C 0.85946 0.37701 -0.25280
 C453 C 0.84395 0.35902 -0.30246
 C454 C 0.86307 0.40327 -0.24983
 C455 C 0.88079 0.42216 -0.20509
 C456 C 0.89473 0.41495 -0.16157
 C457 C 0.88983 0.38809 -0.16111
 H458 H 0.81940 0.32343 -0.39790
 H459 H 0.86203 0.29308 -0.23521
 H460 H 0.83943 0.26428 -0.33011
 H461 H 0.87943 0.33686 -0.17691
 H462 H 0.83432 0.36531 -0.33792
 H463 H 0.85306 0.40956 -0.28402
 H464 H 0.88424 0.44274 -0.20588
 H465 H 0.90073 0.38250 -0.12799
 C466 C 0.55354 -0.15436 -0.38505
 C467 C 0.55017 -0.14042 -0.33262
 C468 C 0.56852 -0.13050 -0.28056
 C469 C 0.58954 -0.13559 -0.28113
 C470 C 0.59280 -0.14955 -0.33389
 C471 C 0.57499 -0.15885 -0.38690
 C472 C 0.56599 -0.11495 -0.23017
 C473 C 0.54556 -0.10891 -0.23215
 C474 C 0.52686 -0.11963 -0.28358
 C475 C 0.52912 -0.13553 -0.33292
 C476 C 0.50668 -0.11342 -0.28642
 C477 C 0.50572 -0.09563 -0.24074
 C478 C 0.52466 -0.08404 -0.19078
 C479 C 0.54411 -0.09140 -0.18535
 H480 H 0.53943 -0.16167 -0.42504
 H481 H 0.60387 -0.12809 -0.24176
 H482 H 0.60996 -0.15192 -0.33471
 H483 H 0.58033 -0.10685 -0.19078
 H484 H 0.51500 -0.14330 -0.37288
 H485 H 0.49213 -0.12161 -0.32530
 H486 H 0.49044 -0.09041 -0.24545
 H487 H 0.55885 -0.08243 -0.14704
 C488 C 0.30763 0.49997 -0.36448
 C489 C 0.32175 0.49736 -0.31253
 C490 C 0.30904 0.47559 -0.26808
 C491 C 0.28208 0.45730 -0.27535
 C492 C 0.26811 0.45996 -0.32761
 C493 C 0.28075 0.48120 -0.37324
 C494 C 0.32371 0.47190 -0.21890
 C495 C 0.35099 0.48941 -0.21483
 C496 C 0.36340 0.51165 -0.25841
 C497 C 0.34866 0.51568 -0.30621
 C498 C 0.39061 0.52886 -0.25562
 C499 C 0.40568 0.52326 -0.21280
 C500 C 0.39381 0.50071 -0.17101
 C501 C 0.36633 0.48434 -0.17037
 H502 H 0.31768 0.51654 -0.39890
 H503 H 0.27200 0.44037 -0.24201
 H504 H 0.24773 0.44451 -0.33428
 H505 H 0.31409 0.45486 -0.18561
 H506 H 0.35835 0.53244 -0.34031
 H507 H 0.40037 0.54604 -0.28841
 H508 H 0.42683 0.53623 -0.21361
 H509 H 0.35712 0.46679 -0.13852
 C510 C 1.16000 0.68022 -0.39228
 C511 C 1.14309 0.66646 -0.34033
 C512 C 1.15343 0.66594 -0.27818
 C513 C 1.18075 0.67953 -0.26934
 C514 C 1.19760 0.69266 -0.32220
 C515 C 1.18743 0.69308 -0.38459
 C516 C 1.13628 0.65107 -0.22688
 C517 C 1.10906 0.63594 -0.23815
 C518 C 1.09895 0.63655 -0.30083
 C519 C 1.11596 0.65227 -0.35086
 C520 C 1.07204 0.62059 -0.31346
 C521 C 1.05529 0.60339 -0.26526
 C522 C 1.06503 0.60255 -0.20310
 C523 C 1.09180 0.61928 -0.18891
 H524 H 1.15169 0.68064 -0.43952
 H525 H 1.18909 0.67915 -0.22222
 H526 H 1.21852 0.70134 -0.31493
 H527 H 1.14414 0.65045 -0.17918
 H528 H 1.10813 0.65255 -0.39890
 H529 H 1.06406 0.62079 -0.36127
 H530 H 1.03463 0.59054 -0.27656
 H531 H 1.09928 0.61829 -0.14098
 C532 C 0.83542 0.54975 -0.36123
 C533 C 0.84941 0.54684 -0.30922
 C534 C 0.83776 0.52263 -0.27223
 C535 C 0.81165 0.50268 -0.28461
 C536 C 0.79758 0.50607 -0.33527
 C537 C 0.80949 0.52931 -0.37520
 C538 C 0.85266 0.51837 -0.22509
 C539 C 0.87891 0.53826 -0.21371
 C540 C 0.88988 0.56338 -0.24700
 C541 C 0.87512 0.56741 -0.29499
 C542 C 0.91577 0.58368 -0.23325
 C543 C 0.93109 0.57864 -0.18952
 C544 C 0.92087 0.55311 -0.16008
 C545 C 0.89467 0.53314 -0.17122
 H546 H 0.84477 0.56781 -0.39147
 H547 H 0.80236 0.48408 -0.25644
 H548 H 0.77792 0.48966 -0.34598
 H549 H 0.84406 0.49936 -0.19849
 H550 H 0.88386 0.58625 -0.32233
 H551 H 0.92439 0.60315 -0.25771
 H552 H 0.95138 0.59412 -0.18148
 H553 H 0.88683 0.51344 -0.14816
 C554 C 0.44434 0.29464 -0.33558
 C555 C 0.44812 0.31370 -0.28634
 C556 C 0.47386 0.33499 -0.27205
 C557 C 0.49539 0.33595 -0.30407
 C558 C 0.49142 0.31708 -0.35311
 C559 C 0.46594 0.29689 -0.37031
 C560 C 0.47764 0.35585 -0.22883
 C561 C 0.45602 0.35601 -0.20054
 C562 C 0.43039 0.33397 -0.21125
 C563 C 0.42660 0.31278 -0.25388
 C564 C 0.40895 0.33426 -0.18158
 C565 C 0.41276 0.35700 -0.14540
 C566 C 0.43799 0.37968 -0.13910
 C567 C 0.45960 0.37867 -0.16471
 H568 H 0.42466 0.27909 -0.34951
 H569 H 0.51521 0.35202 -0.29334
 H570 H 0.50815 0.31899 -0.38004
 H571 H 0.49730 0.37266 -0.21980
 H572 H 0.40689 0.29632 -0.26410
 H573 H 0.38918 0.31743 -0.18857
 H574 H 0.39590 0.35751 -0.12577
 H575 H 0.47915 0.39612 -0.15918
 C576 C 0.71010 0.15316 -0.34900
 C577 C 0.69360 0.13593 -0.29980
 C578 C 0.69583 0.11337 -0.27992
 C579 C 0.71497 0.10882 -0.30898
 C580 C 0.73089 0.12574 -0.35928
 C581 C 0.72837 0.14782 -0.37982
 C582 C 0.67812 0.09507 -0.23380
 C583 C 0.65752 0.09841 -0.20970
 C584 C 0.65556 0.12118 -0.22937
 C585 C 0.67397 0.14010 -0.27296
 C586 C 0.63434 0.12390 -0.20804
 C587 C 0.61441 0.10348 -0.17086
 C588 C 0.61585 0.08056 -0.15225
 C589 C 0.63788 0.07851 -0.16965
 H590 H 0.70788 0.16996 -0.36587
 H591 H 0.71694 0.09161 -0.29458
 H592 H 0.74476 0.12128 -0.38327
 H593 H 0.67956 0.07753 -0.21929
 H594 H 0.67218 0.15731 -0.28865
 H595 H 0.63252 0.14117 -0.22277
 H596 H 0.59742 0.10521 -0.15797
 H597 H 0.63872 0.06052 -0.15630
 C598 C 1.12672 0.45774 -0.37043
 C599 C 1.11283 0.46281 -0.32167
 C600 C 1.12613 0.48595 -0.28072
 C601 C 1.15332 0.50290 -0.28736
 C602 C 1.16705 0.49768 -0.33595
 C603 C 1.15392 0.47528 -0.37891
 C604 C 1.11192 0.49221 -0.23533
 C605 C 1.08458 0.47556 -0.23036
 C606 C 1.07148 0.45174 -0.26939
 C607 C 1.08568 0.44554 -0.31477
 C608 C 1.04423 0.43482 -0.26344
 C609 C 1.02997 0.44179 -0.22057
 C610 C 1.04270 0.46583 -0.18362
 C611 C 1.07000 0.48258 -0.18800
 H612 H 1.11627 0.44028 -0.40268
 H613 H 1.16383 0.52076 -0.25648
 H614 H 1.18769 0.51224 -0.34257
 H615 H 1.12204 0.51032 -0.20495
 H616 H 1.07552 0.42762 -0.34572
 H617 H 1.03392 0.41643 -0.29265
 H618 H 1.00887 0.42878 -0.21745
 H619 H 1.07975 0.50114 -0.15914
 C620 C 0.56373 0.69306 -0.39434
 C621 C 0.55764 0.67497 -0.34233
 C622 C 0.57406 0.68262 -0.28643
 C623 C 0.59587 0.70904 -0.28283
 C624 C 0.60146 0.72738 -0.33456
 C625 C 0.58556 0.71940 -0.39116
 C626 C 0.56843 0.66362 -0.23585
 C627 C 0.54634 0.63732 -0.24056
 C628 C 0.52949 0.63053 -0.29569
 C629 C 0.53532 0.64924 -0.34607
 C630 C 0.50714 0.60488 -0.30055
 C631 C 0.50185 0.58555 -0.25269
 C632 C 0.51886 0.59124 -0.19894
 C633 C 0.54091 0.61747 -0.19217
 H634 H 0.55112 0.68679 -0.43738
 H635 H 0.60870 0.71543 -0.24034
 H636 H 0.61863 0.74747 -0.33132
 H637 H 0.58127 0.66919 -0.19346
 H638 H 0.52256 0.64364 -0.38871
 H639 H 0.49393 0.59956 -0.34208
 H640 H 0.48454 0.56574 -0.25889
 H641 H 0.55405 0.62213 -0.15073
 C642 C 0.32514 -0.14964 -0.39299
 C643 C 0.34185 -0.13458 -0.34106
 C644 C 0.34402 -0.14812 -0.28556
 C645 C 0.32907 -0.17651 -0.28264
 C646 C 0.31303 -0.19143 -0.33539
 C647 C 0.31095 -0.17833 -0.39191
 C648 C 0.36180 -0.13317 -0.23514
 C649 C 0.37803 -0.10491 -0.24063
 C650 C 0.37565 -0.09139 -0.29610
 C651 C 0.35726 -0.10624 -0.34526
 C652 C 0.39237 -0.06331 -0.30270
 C653 C 0.41187 -0.04887 -0.25597
 C654 C 0.41452 -0.06214 -0.20129
 C655 C 0.39732 -0.09005 -0.19294
 H656 H 0.32350 -0.13888 -0.43485
 H657 H 0.33063 -0.18727 -0.24073
 H658 H 0.30351 -0.21336 -0.33327
 H659 H 0.36366 -0.14361 -0.19287
 H660 H 0.35569 -0.09585 -0.38804
 H661 H 0.39085 -0.05266 -0.34492
 H662 H 0.42517 -0.02734 -0.26287
 H663 H 0.39967 -0.10028 -0.15092
 C664 C 0.55357 -0.15838 0.36450
 C665 C 0.55067 -0.14366 0.31346
 C666 C 0.57200 -0.12803 0.27107
 C667 C 0.59576 -0.12784 0.28005
 C668 C 0.59866 -0.14210 0.33216
 C669 C 0.57766 -0.15727 0.37497
 C670 C 0.56955 -0.11204 0.22230
 C671 C 0.54637 -0.11078 0.21703
 C672 C 0.52501 -0.12667 0.25924
 C673 C 0.52713 -0.14337 0.30625
 C674 C 0.50221 -0.12477 0.25564
 C675 C 0.50097 -0.10637 0.21285
 C676 C 0.52221 -0.09008 0.17170
 C677 C 0.54460 -0.09294 0.17251
 H678 H 0.53743 -0.16985 0.39803
 H679 H 0.61236 -0.11593 0.24823
 H680 H 0.61748 -0.14071 0.34024
 H681 H 0.58602 -0.09977 0.19031
 H682 H 0.51084 -0.15526 0.33907
 H683 H 0.48568 -0.13681 0.28758
 H684 H 0.48353 -0.10451 0.21275
 H685 H 0.56117 -0.08019 0.14134
 C686 C 0.30828 0.50227 0.37624
 C687 C 0.32280 0.49944 0.32514
 C688 C 0.31108 0.47596 0.28475
 C689 C 0.28487 0.45594 0.29559
 C690 C 0.27074 0.45867 0.34748
 C691 C 0.28233 0.48175 0.38836
 C692 C 0.32604 0.47239 0.23601
 C693 C 0.35279 0.49158 0.22860
 C694 C 0.36434 0.51519 0.26862
 C695 C 0.34918 0.51918 0.31577
 C696 C 0.39117 0.53397 0.26272
 C697 C 0.40673 0.52882 0.21993
 C698 C 0.39567 0.50515 0.18110
 C699 C 0.36849 0.48696 0.18409
 H700 H 0.31740 0.51994 0.40826
 H701 H 0.27559 0.43776 0.26539
 H702 H 0.25095 0.44238 0.35696
 H703 H 0.31714 0.45420 0.20567
 H704 H 0.35819 0.53714 0.34693
 H705 H 0.40032 0.55218 0.29286
 H706 H 0.42761 0.54316 0.21808
 H707 H 0.35989 0.46852 0.15469
 C708 C 1.18470 0.68538 0.33801
 C709 C 1.16592 0.66549 0.29585
 C710 C 1.16010 0.63821 0.30086
 C711 C 1.17441 0.63166 0.34475
 C712 C 1.19274 0.65148 0.38709
 C713 C 1.19734 0.67820 0.38564
 C714 C 1.13916 0.61773 0.26474
 C715 C 1.12378 0.62413 0.22417
 C716 C 1.13060 0.65160 0.21622
 C717 C 1.15167 0.67210 0.25191
 C718 C 1.11565 0.65804 0.17432
 C719 C 1.09354 0.63743 0.14263
 C720 C 1.08573 0.61002 0.15300
 C721 C 1.10120 0.60347 0.19297
 H722 H 1.18786 0.70587 0.33762
 H723 H 1.17037 0.61093 0.34892
 H724 H 1.20210 0.64558 0.42413
 H725 H 1.13419 0.59672 0.27023
 H726 H 1.15630 0.69304 0.24742
 H727 H 1.12073 0.67898 0.16712
 H728 H 1.08197 0.64294 0.11177
 H729 H 1.09548 0.58235 0.20044
 C730 C 0.49003 0.16790 0.37114
 C731 C 0.49008 0.15129 0.32008
 C732 C 0.46869 0.13910 0.27581
 C733 C 0.44789 0.14435 0.28272
 C734 C 0.44770 0.16041 0.33490
 C735 C 0.46859 0.17199 0.37992
 C736 C 0.46793 0.12096 0.22744
 C737 C 0.48783 0.11416 0.22447
 C738 C 0.50934 0.12675 0.26842
 C739 C 0.51057 0.14559 0.31496
 C740 C 0.52880 0.11944 0.26715
 C741 C 0.52640 0.09893 0.22499
 C742 C 0.50489 0.08580 0.18213
 C743 C 0.48601 0.09405 0.18056
 H744 H 0.50606 0.17661 0.40625
 H745 H 0.43129 0.13516 0.24942
 H746 H 0.43081 0.16300 0.34160
 H747 H 0.45134 0.11127 0.19409
 H748 H 0.52691 0.15488 0.34917
 H749 H 0.54541 0.12892 0.30040
 H750 H 0.54122 0.09297 0.22667
 H751 H 0.46925 0.08381 0.14794
 C752 C 0.65522 0.49035 0.36175
 C753 C 0.64029 0.49242 0.31081
 C754 C 0.65159 0.51541 0.26948
 C755 C 0.67787 0.53562 0.27906
 C756 C 0.69234 0.53379 0.33124
 C757 C 0.68106 0.51132 0.37347
 C758 C 0.63610 0.51846 0.22158
 C759 C 0.60920 0.49937 0.21638
 C760 C 0.59808 0.47621 0.25730
 C761 C 0.61381 0.47260 0.30315
 C762 C 0.57110 0.45764 0.25396
 C763 C 0.55501 0.46265 0.21312
 C764 C 0.56566 0.48588 0.17349
 C765 C 0.59293 0.50376 0.17358
 H766 H 0.64633 0.47313 0.39469
 H767 H 0.68684 0.55344 0.24810
 H768 H 0.71201 0.55046 0.34030
 H769 H 0.64466 0.53631 0.19061
 H770 H 0.60511 0.45505 0.33511
 H771 H 0.56227 0.43978 0.28484
 H772 H 0.53405 0.44857 0.21342
 H773 H 0.60119 0.52186 0.14356
 C774 C 0.83104 0.32044 0.38523
 C775 C 0.84676 0.33863 0.33631
 C776 C 0.85944 0.33052 0.28992
 C777 C 0.85632 0.30444 0.29365
 C778 C 0.84163 0.28694 0.34440
 C779 C 0.82879 0.29468 0.39059
 C780 C 0.87592 0.34897 0.24239
 C781 C 0.88089 0.37582 0.24264
 C782 C 0.86851 0.38406 0.28965
 C783 C 0.85103 0.36523 0.33517
 C784 C 0.87452 0.41126 0.29174
 C785 C 0.89317 0.43028 0.24892
 C786 C 0.90551 0.42226 0.20209
 C787 C 0.89888 0.39487 0.19830
 H788 H 0.82154 0.32676 0.42123
 H789 H 0.86615 0.29800 0.25900
 H790 H 0.84095 0.26762 0.34878
 H791 H 0.88570 0.34275 0.20693
 H792 H 0.84160 0.37158 0.37135
 H793 H 0.86529 0.41795 0.32759
 H794 H 0.89800 0.45130 0.25242
 H795 H 0.90860 0.38862 0.16275
   
