data_POSCAR
  _audit_creation_date              2014-09-24
  _audit_creation_method            'ToBaCCo'
  _symmetry_space_group_name_H-M    'P1'
  _symmetry_Int_Tables_number       1
  _symmetry_cell_setting            triclinic
  loop_
  _symmetry_equiv_pos_as_xyz
 x,y,z
_cell_length_a 31.0278
_cell_length_b 28.1983
_cell_length_c 15.7472
_cell_angle_alpha 90.112900
_cell_angle_beta 90.501400
_cell_angle_gamma 125.113300
loop_
  _atom_site_label
  _atom_site_type_symbol
  _atom_site_fract_x
  _atom_site_fract_y
  _atom_site_fract_z
C1 C 0.43277 0.85227 0.48910
 C2 C 0.44435 0.88034 0.56810
 C3 C 0.47046 0.94100 0.56925
 C4 C 0.48079 0.97290 0.49357
 C5 C 0.46551 0.94192 0.41561
 C6 C 0.44277 0.88229 0.41326
 C7 C 0.50641 1.03756 0.49636
 C8 C 0.52854 1.07213 0.42309
 C9 C 0.55039 1.13213 0.42397
 C10 C 0.55275 1.15814 0.50212
 C11 C 0.53396 1.12557 0.57660
 C12 C 0.50912 1.06558 0.57255
 H13 H 0.41330 0.80584 0.48574
 H14 H 0.48430 0.96302 0.62967
 H15 H 0.46932 0.96267 0.35598
 H16 H 0.52758 1.05214 0.36438
 H17 H 0.57236 1.20457 0.50664
 H18 H 0.49179 1.04166 0.63022
 C19 C 0.13156 0.53427 0.49086
 C20 C 0.10664 0.52118 0.56984
 C21 C 0.05378 0.50344 0.57090
 C22 C 0.02836 0.50506 0.49680
 C23 C 0.05710 0.52385 0.42046
 C24 C 0.10742 0.53572 0.41679
 C25 C -0.02796 0.48638 0.49885
 C26 C -0.05955 0.46698 0.42416
 C27 C -0.11233 0.44956 0.42470
 C28 C -0.13435 0.44774 0.50352
 C29 C -0.10472 0.46398 0.57855
 C30 C -0.05136 0.48577 0.57568
 H31 H 0.17039 0.54330 0.48597
 H32 H 0.03288 0.48974 0.62981
 H33 H 0.04068 0.52837 0.36284
 H34 H -0.04268 0.46648 0.36510
 H35 H -0.17554 0.43113 0.50790
 H36 H -0.02920 0.50071 0.63462
 C37 C 0.41565 0.55015 0.50238
 C38 C 0.43226 0.54042 0.57998
 C39 C 0.47272 0.53161 0.57851
 C40 C 0.49917 0.53632 0.50297
 C41 C 0.48402 0.55092 0.42823
 C42 C 0.44134 0.55532 0.42684
 C43 C 0.54078 0.52421 0.50117
 C44 C 0.55657 0.51371 0.42359
 C45 C 0.59498 0.50230 0.42050
 C46 C 0.61574 0.49718 0.49646
 C47 C 0.59844 0.50355 0.57499
 C48 C 0.56347 0.52012 0.57659
 H49 H 0.38537 0.55791 0.50072
 H50 H 0.48154 0.51868 0.63673
 H51 H 0.50448 0.55854 0.36937
 H52 H 0.53907 0.51347 0.36408
 H53 H 0.64282 0.48464 0.49432
 H54 H 0.55408 0.52889 0.63780
 O55 O 0.39568 0.62646 -0.07364
 O56 O 0.39662 0.71625 -0.11393
 C57 C 0.37582 0.74279 -0.12993
 O58 O 0.34141 0.73969 -0.08246
 O59 O 0.25310 0.63837 -0.11150
 C60 C 0.22653 0.58390 -0.12243
 O61 O 0.22669 0.54987 -0.06953
 O62 O 0.31143 0.55411 -0.09662
 C63 C 0.35971 0.58207 -0.11539
 O64 O 0.39889 0.65358 0.09172
 O65 O 0.40461 0.74687 0.05261
 C66 C 0.37276 0.74910 0.10038
 O67 O 0.32372 0.72071 0.08508
 O68 O 0.23187 0.62450 0.05624
 C69 C 0.22679 0.58744 0.10874
 O70 O 0.24939 0.56212 0.09902
 O71 O 0.33143 0.56085 0.07362
 C72 C 0.37278 0.60090 0.11345
 Cr73 Cr 0.39656 0.68449 -0.01069
 Cr74 Cr 0.28852 0.67961 -0.01307
 Cr75 Cr 0.28107 0.55927 0.00140
 O76 O 0.32213 0.64096 -0.00695
 O77 O 0.61408 0.39634 -0.06867
 O78 O 0.59202 0.29381 -0.09387
 C79 C 0.60684 0.26199 -0.11427
 O80 O 0.64323 0.26312 -0.07456
 O81 O 0.73765 0.35391 -0.10529
 C82 C 0.77190 0.40731 -0.11776
 O83 O 0.77659 0.44656 -0.07006
 O84 O 0.69997 0.45829 -0.09695
 C85 C 0.65169 0.43548 -0.11424
 O86 O 0.61497 0.38057 0.10073
 O87 O 0.59130 0.27732 0.07798
 C88 C 0.61987 0.26470 0.11629
 O89 O 0.66555 0.28192 0.09261
 O90 O 0.76180 0.36931 0.06240
 C91 C 0.77306 0.41005 0.11352
 O92 O 0.75993 0.44445 0.09972
 O93 O 0.68970 0.46535 0.07257
 C94 C 0.64807 0.43394 0.11552
 Cr95 Cr 0.60568 0.33796 0.00383
 Cr96 Cr 0.70122 0.31891 -0.00605
 Cr97 Cr 0.72986 0.45088 0.00121
 O98 O 0.67861 0.36907 -0.00024
 C99 C 0.41591 0.79120 -0.35502
 C100 C 0.42733 0.84723 -0.35647
 C101 C 0.41542 0.86576 -0.28187
 C102 C 0.39702 0.83112 -0.20849
 C103 C 0.39192 0.77822 -0.20665
 C104 C 0.39953 0.75825 -0.28215
 C105 C 0.43068 0.73433 -0.30002
 C106 C 0.44899 0.77056 -0.38017
 H107 H 0.41910 0.90629 -0.27992
 H108 H 0.38888 0.84680 -0.15230
 H109 H 0.40503 0.68688 -0.31295
 H110 H 0.46295 0.74875 -0.25287
 H111 H 0.43412 0.74372 -0.43914
 H112 H 0.49183 0.80596 -0.37952
 C113 C 0.19084 0.56325 -0.35372
 C114 C 0.13528 0.52759 -0.35488
 C115 C 0.11082 0.50096 -0.27655
 C116 C 0.14069 0.51639 -0.20043
 C117 C 0.19525 0.55949 -0.20065
 C118 C 0.21965 0.57901 -0.27892
 C119 C 0.26101 0.63848 -0.30873
 C120 C 0.22948 0.62194 -0.39102
 H121 H 0.06876 0.46918 -0.27250
 H122 H 0.12070 0.49765 -0.14106
 H123 H 0.29964 0.64498 -0.31639
 H124 H 0.26219 0.67311 -0.27251
 H125 H 0.25079 0.62023 -0.44599
 H126 H 0.21212 0.64667 -0.40208
 C127 C 0.43927 0.55669 -0.26546
 C128 C 0.41002 0.54067 -0.34184
 C129 C 0.35857 0.52742 -0.33632
 C130 C 0.34082 0.53710 -0.26046
 C131 C 0.37439 0.56183 -0.18877
 C132 C 0.42241 0.56811 -0.19176
 C133 C 0.47666 0.61784 -0.16706
 C134 C 0.49542 0.60549 -0.24746
 H135 H 0.33210 0.51073 -0.39068
 H136 H 0.30230 0.52927 -0.26013
 H137 H 0.49086 0.60919 -0.10802
 H138 H 0.48164 0.66017 -0.16847
 H139 H 0.52051 0.58982 -0.23456
 H140 H 0.51137 0.64069 -0.29509
 C141 C 0.56246 0.13972 -0.27097
 C142 C 0.54333 0.15429 -0.33964
 C143 C 0.53637 0.19897 -0.32671
 C144 C 0.55406 0.23191 -0.25072
 C145 C 0.58020 0.22171 -0.18709
 C146 C 0.58094 0.17287 -0.19715
 C147 C 0.62475 0.16564 -0.18722
 C148 C 0.60436 0.12913 -0.26808
 H149 H 0.51978 0.21032 -0.37679
 H150 H 0.55075 0.26796 -0.24471
 H151 H 0.62012 0.14027 -0.12984
 H152 H 0.66428 0.20703 -0.19444
 H153 H 0.58785 0.08272 -0.25722
 H154 H 0.63209 0.14936 -0.32202
 C155 C 0.83726 0.39509 -0.30933
 C156 C 0.86900 0.45190 -0.33899
 C157 C 0.87601 0.49632 -0.28623
 C158 C 0.84589 0.48245 -0.21176
 C159 C 0.80873 0.42396 -0.18884
 C160 C 0.80808 0.38154 -0.23638
 C161 C 0.76351 0.32463 -0.27191
 C162 C 0.79566 0.33957 -0.35228
 H163 H 0.90233 0.54120 -0.30496
 H164 H 0.84973 0.51721 -0.17500
 H165 H 0.72691 0.32263 -0.28136
 H166 H 0.75835 0.28744 -0.23718
 H167 H 0.77725 0.34576 -0.40804
 H168 H 0.80889 0.31093 -0.36366
 C169 C 0.66113 0.49559 -0.33368
 C170 C 0.61217 0.48670 -0.34525
 C171 C 0.57399 0.45501 -0.28209
 C172 C 0.58670 0.43846 -0.20684
 C173 C 0.63812 0.45362 -0.19222
 C174 C 0.67387 0.47991 -0.25901
 C175 C 0.72934 0.53253 -0.25959
 C176 C 0.71538 0.54968 -0.34142
 H177 H 0.53426 0.44318 -0.29047
 H178 H 0.55656 0.41501 -0.15941
 H179 H 0.75806 0.52143 -0.26887
 H180 H 0.73844 0.56248 -0.20551
 H181 H 0.73605 0.54841 -0.39775
 H182 H 0.71639 0.58958 -0.33491
 C183 C 0.81245 0.43523 0.34487
 C184 C 0.85688 0.43358 0.34896
 C185 C 0.86832 0.41498 0.27372
 C186 C 0.84037 0.40582 0.19714
 C187 C 0.80133 0.41650 0.19297
 C188 C 0.78597 0.42744 0.26930
 C189 C 0.77544 0.47115 0.29185
 C190 C 0.80482 0.48036 0.37472
 H191 H 0.89864 0.40729 0.27274
 H192 H 0.85098 0.39303 0.14055
 H193 H 0.73271 0.45076 0.30078
 H194 H 0.79601 0.50966 0.24987
 H195 H 0.77890 0.46616 0.43100
 H196 H 0.84255 0.52409 0.38066
 C197 C 0.57598 0.21894 0.34163
 C198 C 0.57050 0.16595 0.34900
 C199 C 0.58720 0.14935 0.27810
 C200 C 0.60252 0.18104 0.20198
 C201 C 0.60039 0.22927 0.19328
 C202 C 0.59047 0.24956 0.26615
 C203 C 0.55472 0.26809 0.27926
 C204 C 0.53835 0.23429 0.36171
 H205 H 0.58942 0.11252 0.28053
 H206 H 0.61488 0.16701 0.14918
 H207 H 0.52249 0.24952 0.23093
 H208 H 0.57712 0.31570 0.28955
 H209 H 0.49662 0.19586 0.36121
 H210 H 0.55070 0.26262 0.41892
 C211 C 0.57321 0.46015 0.27340
 C212 C 0.61080 0.49260 0.33722
 C213 C 0.66393 0.51648 0.31782
 C214 C 0.67700 0.50137 0.24136
 C215 C 0.63701 0.46047 0.18489
 C216 C 0.58575 0.44395 0.19998
 C217 C 0.53329 0.38687 0.19543
 C218 C 0.51970 0.40453 0.27689
 H219 H 0.69498 0.54483 0.36298
 H220 H 0.71773 0.51817 0.22974
 H221 H 0.53560 0.34934 0.20369
 H222 H 0.50957 0.38378 0.13965
 H223 H 0.51503 0.37776 0.33251
 H224 H 0.48791 0.41111 0.26797
 C225 C 0.15958 0.52070 0.31607
 C226 C 0.13574 0.54882 0.33598
 C227 C 0.14445 0.59313 0.28174
 C228 C 0.17362 0.60571 0.20675
 C229 C 0.19412 0.57379 0.18454
 C230 C 0.18772 0.53256 0.24204
 C231 C 0.16494 0.46994 0.22703
 C232 C 0.13473 0.45720 0.30879
 H233 H 0.12884 0.61788 0.29731
 H234 H 0.17984 0.64004 0.16620
 H235 H 0.19504 0.46055 0.23111
 H236 H 0.13913 0.45211 0.16950
 H237 H 0.14816 0.44150 0.36033
 H238 H 0.09131 0.43151 0.29900
 C239 C 0.37976 0.79429 0.32685
 C240 C 0.42700 0.84952 0.33222
 C241 C 0.46033 0.86940 0.26106
 C242 C 0.44364 0.83649 0.18489
 C243 C 0.39287 0.78420 0.17842
 C244 C 0.36300 0.76282 0.25215
 C245 C 0.30660 0.73871 0.26843
 C246 C 0.32518 0.77353 0.35095
 H247 H 0.49875 0.91037 0.26400
 H248 H 0.46933 0.85299 0.13049
 H249 H 0.28253 0.69110 0.27859
 H250 H 0.28988 0.75387 0.22196
 H251 H 0.31171 0.74589 0.40843
 H252 H 0.31944 0.80899 0.35226
 C253 C 0.37507 0.52463 0.30902
 C254 C 0.42455 0.56590 0.34515
 C255 C 0.46049 0.61436 0.29566
 C256 C 0.44438 0.62464 0.21812
 C257 C 0.39226 0.58590 0.18735
 C258 C 0.35951 0.53422 0.23171
 C259 C 0.30400 0.50513 0.25945
 C260 C 0.32092 0.49481 0.34435
 H261 H 0.50027 0.64564 0.31885
 H262 H 0.47213 0.66406 0.18415
 H263 H 0.27650 0.46451 0.22295
 H264 H 0.29218 0.53556 0.26365
 H265 H 0.30279 0.44821 0.35693
 H266 H 0.31841 0.51916 0.39733
   
