data_POSCAR
  _audit_creation_date              2014-09-24
  _audit_creation_method            'ToBaCCo'
  _symmetry_space_group_name_H-M    'P1'
  _symmetry_Int_Tables_number       1
  _symmetry_cell_setting            triclinic
  loop_
  _symmetry_equiv_pos_as_xyz
 x,y,z
_cell_length_a 54.5327
_cell_length_b 54.5010
_cell_length_c 25.2553
_cell_angle_alpha 89.907800
_cell_angle_beta 90.054500
_cell_angle_gamma 119.980300
loop_
  _atom_site_label
  _atom_site_type_symbol
  _atom_site_fract_x
  _atom_site_fract_y
  _atom_site_fract_z
C1 C 0.49978 0.99941 0.47434
 C2 C 0.49982 0.99937 0.52824
 C3 C 0.48610 0.97265 0.55932
 C4 C 0.51356 1.02606 0.55930
 C5 C 0.51274 1.02614 0.44328
 C6 C 0.48680 0.97274 0.44325
 C7 C 0.45727 0.95280 0.55330
 C8 C 0.44465 0.92800 0.58366
 C9 C 0.46060 0.92255 0.62123
 C10 C 0.48961 0.94284 0.62694
 C11 C 0.50207 0.96754 0.59656
 C12 C 0.49762 1.03113 0.59662
 C13 C 0.51013 1.05585 0.62683
 C14 C 0.53899 1.07598 0.62068
 C15 C 0.55501 1.07074 0.58342
 C16 C 0.54242 1.04594 0.55315
 C17 C 0.53378 1.03124 0.40596
 C18 C 0.54599 1.05598 0.37570
 C19 C 0.53723 1.07611 0.38180
 C20 C 0.51597 1.07086 0.41906
 C21 C 0.50376 1.04603 0.44939
 C22 C 0.49579 0.95284 0.44926
 C23 C 0.48361 0.92810 0.41879
 C24 C 0.46237 0.92295 0.38150
 C25 C 0.45358 0.94307 0.37555
 C26 C 0.46576 0.96773 0.40594
 H27 H 0.44447 0.95663 0.52533
 H28 H 0.42232 0.91327 0.57768
 H29 H 0.50293 0.93989 0.65508
 H30 H 0.52434 0.98271 0.60193
 H31 H 0.47536 1.01595 0.60213
 H32 H 0.49715 1.05910 0.65520
 H33 H 0.55521 1.04216 0.52518
 H34 H 0.54087 1.01605 0.40049
 H35 H 0.56222 1.05924 0.34734
 H36 H 0.50863 1.08582 0.42462
 H37 H 0.48718 1.04223 0.47736
 H38 H 0.51237 0.95657 0.47722
 H39 H 0.49097 0.91314 0.42424
 H40 H 0.43736 0.93989 0.34717
 H41 H 0.45866 0.98292 0.40055
 H42 H 0.57730 1.08570 0.57782
 C43 C -0.00034 0.49998 0.47158
 C44 C -0.00031 0.49996 0.52548
 C45 C 0.02639 0.51290 0.55651
 C46 C -0.02698 0.48702 0.55659
 C47 C -0.02704 0.48624 0.44054
 C48 C 0.02634 0.51372 0.44048
 C49 C 0.04625 0.50388 0.55038
 C50 C 0.07106 0.51608 0.58066
 C51 C 0.07634 0.53736 0.61788
 C52 C 0.05624 0.54615 0.62399
 C53 C 0.03151 0.53395 0.59379
 C54 C -0.03204 0.46598 0.59399
 C55 C -0.05671 0.45381 0.62434
 C56 C -0.07681 0.46261 0.61826
 C57 C -0.07160 0.48387 0.58090
 C58 C -0.04685 0.49604 0.55048
 C59 C -0.03212 0.50220 0.40318
 C60 C -0.05682 0.48970 0.37287
 C61 C -0.07702 0.46075 0.37885
 C62 C -0.07168 0.44476 0.41637
 C63 C -0.04689 0.45738 0.44670
 C64 C 0.04621 0.54260 0.44656
 C65 C 0.07099 0.55519 0.41622
 C66 C 0.07622 0.53916 0.37898
 C67 C 0.05612 0.51028 0.37291
 C68 C 0.03141 0.49776 0.40318
 H69 H 0.04244 0.48729 0.52244
 H70 H 0.08600 0.50871 0.57509
 H71 H 0.05951 0.56240 0.65233
 H72 H 0.01635 0.54107 0.59927
 H73 H -0.01687 0.45886 0.59947
 H74 H -0.05993 0.43758 0.65278
 H75 H -0.04308 0.51262 0.52244
 H76 H -0.01696 0.52448 0.39769
 H77 H -0.05990 0.50287 0.34457
 H78 H -0.08650 0.42244 0.42223
 H79 H -0.04309 0.44459 0.47473
 H80 H 0.04243 0.55539 0.47451
 H81 H 0.08595 0.57750 0.42176
 H82 H 0.05935 0.49729 0.34456
 H83 H 0.01624 0.47549 0.39773
 H84 H -0.08654 0.49125 0.57535
 C85 C 0.50004 0.50006 0.47465
 C86 C 0.50005 0.50007 0.52856
 C87 C 0.48710 0.51384 0.55954
 C88 C 0.51299 0.48632 0.55972
 C89 C 0.51377 0.48709 0.44367
 C90 C 0.48632 0.51303 0.44349
 C91 C 0.49610 0.54270 0.55333
 C92 C 0.48393 0.55534 0.58358
 C93 C 0.46264 0.53938 0.62107
 C94 C 0.45389 0.51042 0.62710
 C95 C 0.46608 0.49790 0.59687
 C96 C 0.53401 0.50227 0.59701
 C97 C 0.54621 0.48976 0.62741
 C98 C 0.53746 0.46080 0.62158
 C99 C 0.51616 0.44482 0.58413
 C100 C 0.50400 0.45745 0.55371
 C101 C 0.49781 0.46604 0.40638
 C102 C 0.51033 0.45385 0.37612
 C103 C 0.53920 0.46264 0.38218
 C104 C 0.55523 0.48390 0.41944
 C105 C 0.54264 0.49608 0.44977
 C106 C 0.45745 0.50403 0.44954
 C107 C 0.44486 0.51621 0.41904
 C108 C 0.46089 0.53745 0.38167
 C109 C 0.48976 0.54623 0.37567
 C110 C 0.50228 0.53405 0.40610
 H111 H 0.51267 0.55548 0.52532
 H112 H 0.49142 0.57767 0.57768
 H113 H 0.43767 0.49727 0.65538
 H114 H 0.45898 0.47562 0.60239
 H115 H 0.54112 0.52455 0.60238
 H116 H 0.56243 0.50292 0.65566
 H117 H 0.48742 0.44466 0.52573
 H118 H 0.47554 0.45894 0.40092
 H119 H 0.49733 0.43762 0.34776
 H120 H 0.57754 0.49126 0.42497
 H121 H 0.55544 0.51267 0.47772
 H122 H 0.44465 0.48746 0.47757
 H123 H 0.42256 0.50885 0.42453
 H124 H 0.50275 0.56245 0.34723
 H125 H 0.52455 0.54115 0.40067
 H126 H 0.50868 0.42249 0.57838
 O127 O 0.37503 0.66812 -0.06212
 O128 O 0.37624 0.71602 -0.04559
 C129 C 0.35865 0.72018 -0.07158
 O130 O 0.33230 0.70697 -0.06237
 O131 O 0.28442 0.66029 -0.04585
 C132 C 0.28031 0.63856 -0.07172
 O133 O 0.29351 0.62539 -0.06234
 O134 O 0.34014 0.62414 -0.04550
 C135 C 0.36189 0.64176 -0.07138
 O136 O 0.37612 0.66011 0.04309
 O137 O 0.37497 0.70682 0.05961
 C138 C 0.36184 0.72005 0.06886
 O139 O 0.34016 0.71601 0.04284
 O140 O 0.29346 0.66816 0.05936
 C141 C 0.28021 0.64179 0.06866
 O142 O 0.28431 0.62416 0.04280
 O143 O 0.33212 0.62528 0.05965
 C144 C 0.35846 0.63839 0.06903
 Cr145 Cr 0.37401 0.68698 -0.00126
 Cr146 Cr 0.31337 0.68707 -0.00150
 Cr147 Cr 0.31331 0.62632 -0.00135
 O148 O 0.33356 0.66679 -0.00138
 O149 O 0.62518 0.33213 -0.06039
 O150 O 0.62402 0.28425 -0.04367
 C151 C 0.64163 0.28013 -0.06957
 O152 O 0.66798 0.29336 -0.06032
 O153 O 0.71583 0.34006 -0.04388
 C154 C 0.71990 0.36178 -0.06987
 O155 O 0.70668 0.37493 -0.06058
 O156 O 0.66003 0.37612 -0.04386
 C157 C 0.63829 0.35850 -0.06973
 O158 O 0.62408 0.34008 0.04479
 O159 O 0.62527 0.29338 0.06149
 C160 C 0.63841 0.28015 0.07082
 O161 O 0.66012 0.28426 0.04489
 O162 O 0.70680 0.33213 0.06135
 C163 C 0.72002 0.35849 0.07055
 O164 O 0.71590 0.37612 0.04458
 O165 O 0.66806 0.37494 0.06130
 C166 C 0.64172 0.36180 0.07067
 Cr167 Cr 0.62622 0.31325 0.00055
 Cr168 Cr 0.68689 0.31324 0.00051
 Cr169 Cr 0.68688 0.37395 0.00036
 O170 O 0.66666 0.33348 0.00048
 N171 N 0.40856 0.85611 -0.32296
 C172 C 0.42425 0.85156 -0.28681
 N173 N 0.45213 0.87076 -0.28197
 N174 N 0.46399 0.89386 -0.31226
 C175 C 0.44848 0.89877 -0.34862
 N176 N 0.42046 0.87925 -0.35329
 C177 C 0.41150 0.82715 -0.25290
 C178 C 0.40146 0.80715 -0.22319
 C179 C 0.39023 0.78395 -0.18642
 N180 N 0.40793 0.77772 -0.15941
 N181 N 0.39779 0.75709 -0.12338
 C182 C 0.36959 0.74199 -0.11311
 N183 N 0.35189 0.74819 -0.14043
 N184 N 0.36205 0.76885 -0.17647
 N185 N 0.14462 0.55242 -0.32284
 C186 C 0.14932 0.57295 -0.28733
 N187 N 0.13031 0.58195 -0.28320
 N188 N 0.10727 0.57075 -0.31357
 C189 C 0.10234 0.55011 -0.34919
 N190 N 0.12154 0.54122 -0.35326
 C191 C 0.17365 0.58458 -0.25332
 C192 C 0.19360 0.59451 -0.22354
 C193 C 0.21673 0.60645 -0.18671
 N194 N 0.22291 0.63037 -0.15982
 N195 N 0.24349 0.64083 -0.12375
 C196 C 0.25857 0.62771 -0.11330
 N197 N 0.25242 0.60382 -0.14050
 N198 N 0.23182 0.59335 -0.17658
 N199 N 0.44789 0.59194 -0.32224
 C200 C 0.42768 0.57625 -0.28609
 N201 N 0.41900 0.54834 -0.28117
 N202 N 0.43019 0.53646 -0.31139
 C203 C 0.45056 0.55200 -0.34770
 N204 N 0.45909 0.58003 -0.35251
 C205 C 0.41604 0.58900 -0.25227
 C206 C 0.40609 0.59905 -0.22264
 C207 C 0.39412 0.61026 -0.18597
 N208 N 0.37018 0.59253 -0.15908
 N209 N 0.35968 0.60266 -0.12314
 C210 C 0.37278 0.63086 -0.11282
 N211 N 0.39670 0.64859 -0.14001
 N212 N 0.40720 0.63845 -0.17597
 N213 N 0.59213 0.14430 -0.32019
 C214 C 0.57629 0.14898 -0.28464
 N215 N 0.54831 0.12992 -0.28042
 N216 N 0.53650 0.10688 -0.31076
 C217 C 0.55221 0.10198 -0.34641
 N218 N 0.58029 0.12123 -0.35057
 C219 C 0.58896 0.17332 -0.25069
 C220 C 0.59896 0.19328 -0.22099
 C221 C 0.61014 0.21644 -0.18425
 N222 N 0.59242 0.22261 -0.15731
 N223 N 0.60253 0.24322 -0.12134
 C224 C 0.63072 0.25835 -0.11103
 N225 N 0.64845 0.25220 -0.13827
 N226 N 0.63833 0.23157 -0.17426
 N227 N 0.85509 0.44770 -0.32199
 C228 C 0.85045 0.42719 -0.28634
 N229 N 0.86945 0.41816 -0.28227
 N230 N 0.89240 0.42930 -0.31284
 C231 C 0.89727 0.44992 -0.34860
 N232 N 0.87808 0.45884 -0.35261
 C233 C 0.82621 0.41562 -0.25213
 C234 C 0.80634 0.40574 -0.22219
 C235 C 0.78330 0.39384 -0.18518
 N236 N 0.77718 0.36995 -0.15810
 N237 N 0.75668 0.35951 -0.12190
 C238 C 0.74159 0.37262 -0.11152
 N239 N 0.74768 0.39649 -0.13890
 N240 N 0.76822 0.40694 -0.17511
 N241 N 0.55222 0.40827 -0.32123
 C242 C 0.57244 0.42397 -0.28512
 N243 N 0.58112 0.45188 -0.28039
 N244 N 0.56992 0.46375 -0.31076
 C245 C 0.54955 0.44819 -0.34703
 N246 N 0.54102 0.42016 -0.35165
 C247 C 0.58409 0.41123 -0.25116
 C248 C 0.59405 0.40120 -0.22141
 C249 C 0.60603 0.39000 -0.18461
 N250 N 0.62995 0.40773 -0.15772
 N251 N 0.64046 0.39761 -0.12168
 C252 C 0.62739 0.36940 -0.11127
 N253 N 0.60349 0.35167 -0.13847
 N254 N 0.59297 0.36180 -0.17452
 N255 N 0.87043 0.45185 0.28086
 C256 C 0.85122 0.42394 0.28572
 N257 N 0.85575 0.40823 0.32191
 N258 N 0.87884 0.42012 0.35227
 C259 C 0.89830 0.44815 0.34753
 N260 N 0.89348 0.46371 0.31118
 C261 C 0.82686 0.41121 0.25180
 C262 C 0.80689 0.40118 0.22209
 C263 C 0.78373 0.38998 0.18532
 N264 N 0.76862 0.36179 0.17537
 N265 N 0.74799 0.35166 0.13935
 C266 C 0.74182 0.36940 0.11204
 N267 N 0.75692 0.39760 0.12231
 N268 N 0.77753 0.40772 0.15831
 N269 N 0.55232 0.14443 0.32232
 C270 C 0.57283 0.14911 0.28677
 N271 N 0.58180 0.13007 0.28268
 N272 N 0.57060 0.10703 0.31313
 C273 C 0.54998 0.10212 0.34879
 N274 N 0.54111 0.12135 0.35282
 C275 C 0.58445 0.17344 0.25268
 C276 C 0.59438 0.19339 0.22284
 C277 C 0.60631 0.21652 0.18594
 N278 N 0.63020 0.22268 0.15896
 N279 N 0.64066 0.24327 0.12284
 C280 C 0.62757 0.25839 0.11243
 N281 N 0.60370 0.25225 0.13972
 N282 N 0.59324 0.23165 0.17585
 N283 N 0.54854 0.41818 0.28294
 C284 C 0.57655 0.42721 0.28695
 N285 N 0.59240 0.44771 0.32249
 N286 N 0.58055 0.45886 0.35306
 C287 C 0.55244 0.44994 0.34911
 N288 N 0.53672 0.42932 0.31346
 C289 C 0.58923 0.41565 0.25277
 C290 C 0.59922 0.40576 0.22286
 C291 C 0.61037 0.39386 0.18588
 N292 N 0.63853 0.40696 0.17572
 N293 N 0.64862 0.39651 0.13954
 C294 C 0.63086 0.37265 0.11228
 N295 N 0.60269 0.35954 0.12275
 N296 N 0.59262 0.36998 0.15891
 N297 N 0.14448 0.59233 0.31960
 C298 C 0.14915 0.57649 0.28406
 N299 N 0.13011 0.54849 0.27993
 N300 N 0.10709 0.53667 0.31034
 C301 C 0.10220 0.55239 0.34599
 N302 N 0.12143 0.58049 0.35005
 C303 C 0.17346 0.58917 0.25003
 C304 C 0.19341 0.59917 0.22026
 C305 C 0.21654 0.61034 0.18345
 N306 N 0.22269 0.59259 0.15654
 N307 N 0.24329 0.60269 0.12052
 C308 C 0.25842 0.63090 0.11015
 N309 N 0.25229 0.64865 0.13736
 N310 N 0.23167 0.63854 0.17339
 N311 N 0.41797 0.86934 0.28190
 C312 C 0.42700 0.85034 0.28579
 N313 N 0.44749 0.85492 0.32138
 N314 N 0.45862 0.87787 0.35210
 C315 C 0.44968 0.89706 0.34827
 N316 N 0.42909 0.89225 0.31258
 C317 C 0.41547 0.82616 0.25145
 C318 C 0.40562 0.80634 0.22141
 C319 C 0.39378 0.78335 0.18430
 N320 N 0.40685 0.76825 0.17424
 N321 N 0.39645 0.74776 0.13797
 C322 C 0.37265 0.74173 0.11052
 N323 N 0.35956 0.75683 0.12089
 N324 N 0.36996 0.77730 0.15714
 N325 N 0.40770 0.55238 0.32163
 C326 C 0.42355 0.57287 0.28598
 N327 N 0.45155 0.58188 0.28201
 N328 N 0.46338 0.57075 0.31268
 C329 C 0.44765 0.55015 0.34843
 N330 N 0.41955 0.54124 0.35234
 C331 C 0.41087 0.58444 0.25166
 C332 C 0.40089 0.59433 0.22164
 C333 C 0.38976 0.60625 0.18454
 N334 N 0.40753 0.63013 0.15749
 N335 N 0.39748 0.64059 0.12123
 C336 C 0.36930 0.62751 0.11073
 N337 N 0.35153 0.60364 0.13807
 N338 N 0.36160 0.59317 0.17435
   
