data_POSCAR
  _audit_creation_date              2014-09-24
  _audit_creation_method            'ToBaCCo'
  _symmetry_space_group_name_H-M    'P1'
  _symmetry_Int_Tables_number       1
  _symmetry_cell_setting            triclinic
  loop_
  _symmetry_equiv_pos_as_xyz
 x,y,z
_cell_length_a 35.9523
_cell_length_b 21.7873
_cell_length_c 21.7166
_cell_angle_alpha 89.810600
_cell_angle_beta 90.120100
_cell_angle_gamma 89.879000
loop_
  _atom_site_label
  _atom_site_type_symbol
  _atom_site_fract_x
  _atom_site_fract_y
  _atom_site_fract_z
O1 O 0.05200 0.10463 0.11405
 O2 O 0.09290 0.05008 0.05437
 C3 C 0.08528 0.08894 0.09750
 O4 O -0.05120 -0.11448 0.10761
 O5 O -0.09247 -0.05582 0.05171
 C6 C -0.08459 -0.09842 0.09141
 O7 O 0.05305 -0.10733 0.11320
 O8 O 0.09379 -0.05241 0.05323
 C9 C 0.08636 -0.09151 0.09655
 O10 O -0.05186 0.10984 0.10852
 O11 O -0.09278 0.05148 0.05250
 C12 C -0.08516 0.09377 0.09230
 Zr13 Zr 0.00016 0.07521 0.07852
 O14 O -0.00330 0.07337 0.17582
 O15 O 0.00407 0.17218 0.07864
 Zr16 Zr 0.00067 -0.08013 0.07691
 O17 O 0.00040 -0.08971 0.17389
 O18 O 0.00224 -0.17646 0.06625
 O19 O 0.03345 -0.00244 0.08988
 O20 O -0.03195 -0.00264 0.08908
 O21 O -0.05210 0.11228 -0.10608
 O22 O -0.09294 0.05263 -0.05102
 C23 C -0.08537 0.09578 -0.09014
 O24 O 0.05269 -0.10654 -0.11317
 O25 O 0.09361 -0.05147 -0.05362
 C26 C 0.08600 -0.09044 -0.09673
 O27 O -0.05155 -0.11352 -0.10752
 O28 O -0.09264 -0.05481 -0.05205
 C29 C -0.08491 -0.09731 -0.09161
 O30 O 0.05230 0.10642 -0.11161
 O31 O 0.09341 0.05036 -0.05279
 C32 C 0.08568 0.09025 -0.09531
 Zr33 Zr 0.00007 0.07691 -0.07712
 O34 O -0.00430 0.07715 -0.17437
 O35 O 0.00416 0.17383 -0.07653
 Zr36 Zr 0.00037 -0.07813 -0.07810
 O37 O -0.00393 -0.07679 -0.17534
 O38 O 0.00431 -0.17508 -0.07824
 Zr39 Zr 0.05569 -0.00128 0.00010
 Zr40 Zr -0.05536 -0.00149 0.00021
 O41 O -0.03222 -0.00056 -0.08879
 O42 O 0.03336 -0.00040 -0.08976
 O43 O -0.03314 0.08805 0.00080
 O44 O 0.03311 -0.09024 -0.00059
 O45 O 0.03241 0.08740 0.00080
 O46 O -0.03283 -0.09094 -0.00055
 H47 H -0.04880 -0.00281 0.12511
 H48 H 0.05023 -0.12595 -0.00072
 H49 H -0.04907 -0.00029 -0.12495
 H50 H 0.04914 0.12348 0.00104
 H51 H 0.00342 -0.19382 0.10843
 H52 H -0.01421 -0.19072 -0.04845
 H53 H 0.01681 -0.05164 -0.19128
 H54 H 0.01690 0.05322 -0.19065
 H55 H -0.01638 0.18969 -0.05084
 H56 H -0.01695 0.18841 0.05399
 H57 H 0.01701 0.04658 0.19110
 H58 H -0.00855 -0.05050 0.19113
 O59 O 0.55251 0.60653 0.61033
 O60 O 0.59330 0.55036 0.55167
 C61 C 0.58580 0.59005 0.59414
 O62 O 0.44693 0.38870 0.60557
 O63 O 0.40611 0.44844 0.54986
 C64 C 0.41363 0.40557 0.58948
 O65 O 0.55119 0.39357 0.61281
 O66 O 0.59239 0.44796 0.55324
 C67 C 0.58455 0.40906 0.59649
 O68 O 0.44825 0.61403 0.60491
 O69 O 0.40702 0.55534 0.54985
 C70 C 0.41488 0.59813 0.58896
 Zr71 Zr 0.50003 0.57780 0.57594
 O72 O 0.49587 0.57666 0.67320
 O73 O 0.50458 0.67466 0.57617
 Zr74 Zr 0.49929 0.42277 0.57648
 O75 O 0.49545 0.41994 0.67369
 O76 O 0.50088 0.32601 0.57044
 O77 O 0.53285 0.49990 0.58839
 O78 O 0.46730 0.50075 0.58745
 O79 O 0.44747 0.61293 0.39096
 O80 O 0.40641 0.55457 0.44696
 C81 C 0.41411 0.59708 0.40719
 O82 O 0.55133 0.39203 0.38650
 O83 O 0.59241 0.44734 0.44522
 C84 C 0.58468 0.40782 0.40271
 O85 O 0.44750 0.38711 0.39260
 O86 O 0.40667 0.44732 0.44693
 C87 C 0.41423 0.40402 0.40818
 O88 O 0.55177 0.60642 0.38502
 O89 O 0.59266 0.55080 0.44458
 C90 C 0.58505 0.59016 0.40155
 Zr91 Zr 0.49969 0.57765 0.42031
 O92 O 0.49532 0.57705 0.32307
 O93 O 0.50415 0.67454 0.42014
 Zr94 Zr 0.49949 0.42261 0.42124
 O95 O 0.49520 0.42370 0.32397
 O96 O 0.50276 0.32561 0.42204
 Zr97 Zr 0.55523 0.49970 0.49867
 Zr98 Zr 0.44412 0.50100 0.49842
 O99 O 0.46718 0.50040 0.40944
 O100 O 0.53285 0.49979 0.40879
 O101 O 0.46673 0.59024 0.49806
 O102 O 0.53190 0.41121 0.49915
 O103 O 0.53223 0.58864 0.49808
 O104 O 0.46611 0.41130 0.49886
 H105 H 0.45055 0.50096 0.62362
 H106 H 0.54862 0.37499 0.49950
 H107 H 0.45028 0.50041 0.37335
 H108 H 0.54909 0.62455 0.49792
 H109 H 0.50058 0.31055 0.61340
 H110 H 0.48570 0.31086 0.45455
 H111 H 0.51662 0.44713 0.30782
 H112 H 0.51605 0.55183 0.30710
 H113 H 0.48318 0.69095 0.44450
 H114 H 0.48464 0.69106 0.54931
 H115 H 0.51761 0.55389 0.68948
 H116 H 0.51373 0.44961 0.68997
 C117 C 0.11594 0.11740 0.12837
 C118 C 0.14189 0.14157 0.15365
 C119 C 0.17301 0.17075 0.18309
 C120 C 0.19695 0.20787 0.14861
 C121 C 0.22714 0.23656 0.17703
 C122 C 0.23378 0.22845 0.24042
 C123 C 0.20960 0.19088 0.27466
 C124 C 0.17939 0.16225 0.24613
 C125 C 0.26573 0.25924 0.27063
 C126 C 0.28727 0.22809 0.31503
 C127 C 0.31746 0.25712 0.34317
 C128 C 0.32647 0.31760 0.32736
 C129 C 0.30517 0.34902 0.28341
 C130 C 0.27499 0.32009 0.25519
 C131 C 0.35756 0.34753 0.35614
 C132 C 0.38351 0.37307 0.38000
 H133 H 0.19232 0.21457 0.09972
 H134 H 0.24554 0.26450 0.14928
 H135 H 0.21372 0.18436 0.32365
 H136 H 0.16096 0.13370 0.27325
 H137 H 0.28111 0.18100 0.32733
 H138 H 0.33384 0.23236 0.37707
 H139 H 0.31183 0.39594 0.27102
 H140 H 0.25864 0.34556 0.22185
 C141 C 0.88488 0.87066 0.12017
 C142 C 0.85897 0.84528 0.14434
 C143 C 0.82783 0.81567 0.17327
 C144 C 0.81990 0.75413 0.16065
 C145 C 0.78951 0.72553 0.18866
 C146 C 0.76668 0.75821 0.22971
 C147 C 0.77490 0.82009 0.24202
 C148 C 0.80527 0.84858 0.21395
 C149 C 0.73445 0.72797 0.25964
 C150 C 0.72632 0.73919 0.32196
 C151 C 0.69587 0.71099 0.35008
 C152 C 0.67314 0.67126 0.31637
 C153 C 0.68101 0.65967 0.25441
 C154 C 0.71147 0.68781 0.22618
 C155 C 0.64183 0.64241 0.34557
 C156 C 0.61577 0.61847 0.37071
 H157 H 0.83724 0.72823 0.12928
 H158 H 0.78417 0.67766 0.17885
 H159 H 0.75755 0.84670 0.27273
 H160 H 0.81108 0.89633 0.22382
 H161 H 0.74377 0.76919 0.34915
 H162 H 0.69010 0.72007 0.39815
 H163 H 0.66353 0.62905 0.22789
 H164 H 0.71675 0.67884 0.17796
 C165 C 0.88392 0.12700 0.88155
 C166 C 0.85795 0.15272 0.85756
 C167 C 0.82684 0.18279 0.82859
 C168 C 0.80423 0.22262 0.86244
 C169 C 0.77375 0.25127 0.83433
 C170 C 0.76550 0.24029 0.77196
 C171 C 0.78849 0.20029 0.73833
 C172 C 0.81895 0.17175 0.76651
 C173 C 0.73302 0.27024 0.74206
 C174 C 0.71037 0.23720 0.70099
 C175 C 0.67999 0.26552 0.67234
 C176 C 0.67184 0.32714 0.68431
 C177 C 0.69409 0.36037 0.72525
 C178 C 0.72448 0.33212 0.75402
 C179 C 0.64089 0.35632 0.65400
 C180 C 0.61507 0.38051 0.62804
 H181 H 0.81004 0.23128 0.91061
 H182 H 0.75632 0.28125 0.86159
 H183 H 0.78316 0.19158 0.69005
 H184 H 0.83633 0.14108 0.73988
 H185 H 0.71592 0.18930 0.69150
 H186 H 0.66289 0.23936 0.64080
 H187 H 0.68808 0.40818 0.73465
 H188 H 0.74165 0.35894 0.78483
 C189 C 0.11669 0.88160 0.87205
 C190 C 0.14268 0.85797 0.84637
 C191 C 0.17386 0.82952 0.81638
 C192 C 0.18295 0.84553 0.75581
 C193 C 0.21331 0.81787 0.72680
 C194 C 0.23500 0.77385 0.75813
 C195 C 0.22560 0.75812 0.81903
 C196 C 0.19523 0.78580 0.84790
 C197 C 0.26720 0.74426 0.72745
 C198 C 0.30042 0.73342 0.76013
 C199 C 0.33054 0.70468 0.73155
 C200 C 0.32789 0.68645 0.67000
 C201 C 0.29506 0.69733 0.63694
 C202 C 0.26490 0.72610 0.66543
 C203 C 0.35866 0.65580 0.64109
 C204 C 0.38440 0.62969 0.61717
 H205 H 0.16664 0.87949 0.73107
 H206 H 0.22013 0.83147 0.68017
 H207 H 0.24142 0.72380 0.84405
 H208 H 0.18836 0.77298 0.89477
 H209 H 0.30322 0.74762 0.80765
 H210 H 0.35586 0.69657 0.75749
 H211 H 0.29269 0.68319 0.58931
 H212 H 0.23956 0.73313 0.63930
 C213 C 0.11630 0.11915 0.87394
 C214 C 0.14216 0.14356 0.84853
 C215 C 0.17312 0.17291 0.81864
 C216 C 0.19803 0.20829 0.85305
 C217 C 0.22806 0.23704 0.82417
 C218 C 0.23361 0.23077 0.76036
 C219 C 0.20845 0.19497 0.72619
 C220 C 0.17841 0.16628 0.75518
 C221 C 0.26545 0.26156 0.72962
 C222 C 0.28574 0.23134 0.68334
 C223 C 0.31579 0.26033 0.65468
 C224 C 0.32594 0.31987 0.67180
 C225 C 0.30589 0.35037 0.71766
 C226 C 0.27586 0.32147 0.74640
 C227 C 0.35694 0.34971 0.64249
 C228 C 0.38287 0.37502 0.61817
 H229 H 0.19428 0.21357 0.90225
 H230 H 0.24721 0.26356 0.85190
 H231 H 0.21168 0.18987 0.67691
 H232 H 0.15925 0.13911 0.72807
 H233 H 0.27872 0.18496 0.66992
 H234 H 0.33117 0.23624 0.61933
 H235 H 0.31343 0.39654 0.73114
 H236 H 0.26050 0.34629 0.78122
 C237 C 0.88446 0.87190 0.87957
 C238 C 0.85855 0.84655 0.85521
 C239 C 0.82749 0.81686 0.82591
 C240 C 0.82036 0.75468 0.83700
 C241 C 0.79018 0.72593 0.80847
 C242 C 0.76671 0.75906 0.76836
 C243 C 0.77411 0.82159 0.75762
 C244 C 0.80428 0.85024 0.78622
 C245 C 0.73469 0.72860 0.73780
 C246 C 0.72595 0.74174 0.67593
 C247 C 0.69573 0.71334 0.64724
 C248 C 0.67380 0.67146 0.67990
 C249 C 0.68228 0.65795 0.74140
 C250 C 0.71253 0.68627 0.77020
 C251 C 0.64262 0.64249 0.65022
 C252 C 0.61659 0.61846 0.62490
 H253 H 0.83820 0.72837 0.86755
 H254 H 0.78550 0.67758 0.81710
 H255 H 0.75629 0.84857 0.72770
 H256 H 0.80946 0.89846 0.77747
 H257 H 0.74276 0.77343 0.64948
 H258 H 0.68950 0.72398 0.59954
 H259 H 0.66545 0.62569 0.76717
 H260 H 0.71824 0.67575 0.81805
 C261 C 0.11436 0.88294 0.12498
 C262 C 0.14048 0.85926 0.15075
 C263 C 0.17187 0.83088 0.18080
 C264 C 0.20689 0.83215 0.15282
 C265 C 0.23736 0.80397 0.18145
 C266 C 0.23321 0.77408 0.23857
 C267 C 0.19790 0.77333 0.26648
 C268 C 0.16746 0.80151 0.23773
 C269 C 0.26549 0.74344 0.26862
 C270 C 0.27082 0.74734 0.33272
 C271 C 0.30114 0.71821 0.36088
 C272 C 0.32652 0.68479 0.32543
 C273 C 0.32148 0.68066 0.26167
 C274 C 0.29121 0.70977 0.23341
 C275 C 0.35755 0.65431 0.35443
 C276 C 0.38346 0.62840 0.37856
 H277 H 0.21064 0.85488 0.10883
 H278 H 0.26424 0.80610 0.15918
 H279 H 0.19369 0.75005 0.31003
 H280 H 0.14045 0.80008 0.25971
 H281 H 0.25179 0.77351 0.36099
 H282 H 0.30480 0.72178 0.41028
 H283 H 0.34086 0.65469 0.23380
 H284 H 0.28762 0.70515 0.18413
 C285 C 0.88412 0.12451 0.12098
 C286 C 0.85816 0.14996 0.14505
 C287 C 0.82704 0.17994 0.17389
 C288 C 0.81945 0.16935 0.23620
 C289 C 0.78906 0.19795 0.26421
 C290 C 0.76580 0.23763 0.23022
 C291 C 0.77372 0.24810 0.16762
 C292 C 0.80413 0.21938 0.13968
 C293 C 0.73339 0.26779 0.25996
 C294 C 0.72451 0.32940 0.24670
 C295 C 0.69414 0.35779 0.27508
 C296 C 0.67222 0.32503 0.31697
 C297 C 0.68075 0.26371 0.33031
 C298 C 0.71110 0.23525 0.30205
 C299 C 0.64119 0.35439 0.34669
 C300 C 0.61530 0.37883 0.37201
 H301 H 0.83704 0.13900 0.26315
 H302 H 0.78401 0.18960 0.31265
 H303 H 0.75609 0.27775 0.14003
 H304 H 0.80966 0.22773 0.09135
 H305 H 0.74138 0.35591 0.21513
 H306 H 0.68788 0.40536 0.26458
 H307 H 0.66392 0.23788 0.36257
 H308 H 0.71688 0.18756 0.31259
   
