data_POSCAR
  _audit_creation_date              2014-09-24
  _audit_creation_method            'ToBaCCo'
  _symmetry_space_group_name_H-M    'P1'
  _symmetry_Int_Tables_number       1
  _symmetry_cell_setting            triclinic
  loop_
  _symmetry_equiv_pos_as_xyz
 x,y,z
_cell_length_a 33.0517
_cell_length_b 34.8778
_cell_length_c 41.5514
_cell_angle_alpha 90.914400
_cell_angle_beta 91.675400
_cell_angle_gamma 91.600800
loop_
  _atom_site_label
  _atom_site_type_symbol
  _atom_site_fract_x
  _atom_site_fract_y
  _atom_site_fract_z
Si1 Si 1.25916 0.26756 0.25646
 Si2 Si 0.74735 -0.23223 0.25016
 Si3 Si 0.76918 0.25285 -0.24977
 Si4 Si 1.25918 -0.25339 -0.24118
 Si5 Si 0.23346 0.25066 0.74207
 Si6 Si 0.74152 0.74614 0.74879
 Si7 Si 0.74605 0.23394 0.24938
 Si8 Si 0.25242 0.73788 0.24103
 O9 O 1.08739 0.05035 0.01973
 O10 O 0.93418 -0.05111 0.02018
 O11 O 0.96445 0.06735 0.03378
 O12 O 1.05792 -0.06891 0.02149
 O13 O 0.94187 0.01127 0.04525
 O14 O 1.08263 -0.01501 0.03896
 O15 O 0.99106 -0.06769 0.03784
 O16 O 1.03486 0.06469 0.04405
 C17 C 1.07207 0.06504 0.04371
 C18 C 0.95445 -0.06634 0.04186
 C19 C 0.94646 0.04555 0.05283
 C20 C 1.07750 -0.04994 0.04292
 O21 O 1.08670 -0.03971 -0.02235
 O22 O 0.92706 0.04333 -0.01149
 O23 O 1.04791 0.07573 -0.02120
 O24 O 0.96418 -0.07130 -0.02621
 O25 O 0.93661 -0.01849 -0.03825
 O26 O 1.07367 0.02493 -0.04063
 O27 O 1.03067 -0.05978 -0.04203
 O28 O 0.97896 0.06700 -0.03216
 Co29 Co 1.07512 0.00464 -0.00076
 Co30 Co 0.94233 -0.00333 0.00359
 Co31 Co 1.00669 0.06244 0.00579
 Co32 Co 1.01076 -0.06074 -0.00189
 O33 O 1.00872 0.00078 0.00178
 C34 C 1.06739 -0.05583 -0.04503
 C35 C 0.94206 0.06218 -0.03343
 C36 C 1.06449 0.05894 -0.04407
 C37 C 0.94320 -0.05227 -0.04547
 O38 O 1.07489 0.55646 0.51442
 O39 O 0.91829 0.46270 0.51562
 O40 O 0.95299 0.58064 0.52396
 O41 O 1.04110 0.43886 0.51798
 O42 O 0.92855 0.52598 0.53742
 O43 O 1.06716 0.49202 0.53499
 O44 O 0.97393 0.44475 0.53496
 O45 O 1.02267 0.57591 0.53640
 C46 C 1.05946 0.57133 0.53826
 C47 C 0.93721 0.44761 0.53813
 C48 C 0.93383 0.56055 0.54354
 C49 C 1.05986 0.45764 0.53980
 O50 O 1.07107 0.46534 0.47355
 O51 O 0.91652 0.55452 0.47915
 O52 O 1.03917 0.58272 0.47135
 O53 O 0.94756 0.43800 0.47105
 O54 O 0.92398 0.49090 0.45532
 O55 O 1.06315 0.52982 0.45439
 O56 O 1.01414 0.44576 0.45500
 O57 O 0.96971 0.57599 0.45863
 Co58 Co 1.06192 0.51066 0.49459
 Co59 Co 0.92926 0.50858 0.49659
 Co60 Co 0.99607 0.57237 0.49743
 Co61 Co 0.99429 0.44813 0.49493
 O62 O 0.99545 0.51000 0.49587
 C63 C 1.05076 0.44937 0.45125
 C64 C 0.93260 0.57265 0.45729
 C65 C 1.05668 0.56423 0.44990
 C66 C 0.92914 0.45640 0.44989
 O67 O 0.57140 0.04439 0.52309
 O68 O 0.41044 -0.04820 0.51877
 O69 O 0.44958 0.06926 0.52906
 O70 O 0.53231 -0.07247 0.53026
 O71 O 0.42203 0.01550 0.54232
 O72 O 0.55989 -0.01891 0.54577
 O73 O 0.46388 -0.06546 0.54182
 O74 O 0.51766 0.06379 0.54235
 C75 C 0.55445 0.06101 0.54542
 C76 C 0.42684 -0.06397 0.54202
 C77 C 0.42849 0.05010 0.54820
 C78 C 0.55179 -0.05295 0.55143
 O79 O 0.56811 -0.04964 0.48638
 O80 O 0.41359 0.04441 0.48409
 O81 O 0.53741 0.06787 0.47721
 O82 O 0.44421 -0.07303 0.47552
 O83 O 0.42072 -0.01931 0.46047
 O84 O 0.56142 0.01345 0.46417
 O85 O 0.51216 -0.06776 0.46523
 O86 O 0.46798 0.06238 0.46356
 Co87 Co 0.55763 -0.00269 0.50476
 Co88 Co 0.42442 -0.00197 0.50154
 Co89 Co 0.49300 0.05966 0.50297
 Co90 Co 0.48834 -0.06356 0.50332
 O91 O 0.49093 -0.00213 0.50308
 C92 C 0.54915 -0.06670 0.46389
 C93 C 0.43080 0.06152 0.46223
 C94 C 0.55661 0.04759 0.45784
 C95 C 0.42530 -0.05388 0.45489
 O96 O 0.58462 0.53795 0.02178
 O97 O 0.44014 0.44106 0.02571
 O98 O 0.45852 0.55980 0.02133
 O99 O 0.56427 0.42007 0.01502
 O100 O 0.44328 0.50598 0.04060
 O101 O 0.58317 0.47295 0.03570
 O102 O 0.49894 0.42288 0.03959
 O103 O 0.52849 0.55739 0.03960
 C104 C 0.56552 0.55410 0.04358
 C105 C 0.46323 0.42712 0.04654
 C106 C 0.44333 0.54114 0.04346
 C107 C 0.58086 0.43789 0.03807
 O108 O 0.58495 0.45276 -0.02979
 O109 O 0.42955 0.52547 -0.02261
 O110 O 0.55109 0.56672 -0.02122
 O111 O 0.46397 0.41116 -0.01935
 O112 O 0.43964 0.46127 -0.03860
 O113 O 0.57387 0.51690 -0.04250
 O114 O 0.52823 0.42522 -0.04333
 O115 O 0.48231 0.55354 -0.04017
 Co116 Co 0.57506 0.49454 -0.00341
 Co117 Co 0.44475 0.48396 0.00097
 Co118 Co 0.50549 0.55236 -0.00026
 Co119 Co 0.51338 0.42674 -0.00189
 O120 O 0.50965 0.48947 -0.00116
 C121 C 0.56374 0.43318 -0.04994
 C122 C 0.44611 0.54438 -0.04415
 C123 C 0.56645 0.55115 -0.04483
 C124 C 0.44320 0.42633 -0.04078
 C125 C 1.16857 0.19257 0.22039
 C126 C 1.17835 0.18741 0.18764
 C127 C 1.21442 0.20556 0.17708
 C128 C 1.23773 0.22985 0.19784
 C129 C 1.22664 0.23586 0.22963
 C130 C 1.19287 0.21603 0.24113
 C131 C 1.22723 0.19941 0.14585
 C132 C 1.20538 0.17505 0.12476
 C133 C 1.16895 0.15669 0.13382
 C134 C 1.15417 0.16443 0.16520
 C135 C 1.11523 0.15006 0.17262
 C136 C 1.09166 0.12862 0.15019
 C137 C 1.10660 0.11926 0.12008
 C138 C 1.14609 0.13198 0.11199
 C139 C 1.16133 0.11913 0.08240
 C140 C 1.13739 0.09670 0.06096
 C141 C 1.09745 0.08643 0.06804
 C142 C 1.08228 0.09736 0.09787
 H143 H 1.14306 0.17801 0.23085
 H144 H 1.26506 0.24358 0.18922
 H145 H 1.18512 0.21880 0.26619
 H146 H 1.25468 0.21340 0.13765
 H147 H 1.21704 0.17245 0.10090
 H148 H 1.10143 0.15630 0.19523
 H149 H 1.06153 0.11899 0.15661
 H150 H 1.19192 0.12526 0.07534
 H151 H 1.15012 0.08797 0.03834
 H152 H 1.05166 0.08870 0.10382
 C153 C 1.15436 0.69663 0.71672
 C154 C 1.16929 0.67466 0.69082
 C155 C 1.21190 0.67211 0.68881
 C156 C 1.23792 0.69265 0.71041
 C157 C 1.22255 0.71616 0.73432
 C158 C 1.18076 0.71697 0.73816
 C159 C 1.22857 0.64985 0.66479
 C160 C 1.20402 0.63072 0.64187
 C161 C 1.16146 0.63352 0.64172
 C162 C 1.14373 0.65576 0.66664
 C163 C 1.10125 0.65943 0.66587
 C164 C 1.07699 0.64286 0.64125
 C165 C 1.09384 0.62159 0.61658
 C166 C 1.13619 0.61582 0.61684
 C167 C 1.15156 0.59304 0.59174
 C168 C 1.12636 0.57847 0.56681
 C169 C 1.08492 0.58562 0.56594
 C170 C 1.06862 0.60654 0.59129
 H171 H 1.12254 0.69888 0.72103
 H172 H 1.27045 0.69138 0.70792
 H173 H 1.16825 0.73361 0.75743
 H174 H 1.26113 0.64759 0.66339
 H175 H 1.21976 0.61476 0.62400
 H176 H 1.08574 0.67589 0.68359
 H177 H 1.04462 0.64716 0.64133
 H178 H 1.18293 0.58590 0.59040
 H179 H 1.13963 0.56166 0.54789
 H180 H 1.03640 0.61172 0.59107
 C181 C 0.74048 0.19315 0.66558
 C182 C 0.70226 0.17526 0.67031
 C183 C 0.68374 0.18188 0.70022
 C184 C 0.70381 0.20433 0.72466
 C185 C 0.74118 0.22244 0.71905
 C186 C 0.75942 0.21619 0.68954
 C187 C 0.64518 0.16634 0.70543
 C188 C 0.62388 0.14563 0.68121
 C189 C 0.64093 0.13847 0.65097
 C190 C 0.68159 0.15174 0.64614
 C191 C 0.70044 0.14066 0.61749
 C192 C 0.67972 0.11901 0.59366
 C193 C 0.63913 0.10833 0.59692
 C194 C 0.61893 0.11817 0.62547
 C195 C 0.57719 0.10825 0.62681
 C196 C 0.55669 0.08952 0.60093
 C197 C 0.57703 0.07945 0.57305
 C198 C 0.61844 0.08844 0.57142
 H199 H 0.75621 0.19078 0.64333
 H200 H 0.69021 0.20778 0.74787
 H201 H 0.78881 0.22897 0.68481
 H202 H 0.63091 0.17093 0.72828
 H203 H 0.59427 0.13474 0.68721
 H204 H 0.73171 0.14756 0.61300
 H205 H 0.69549 0.11122 0.57210
 H206 H 0.55915 0.11571 0.64704
 H207 H 0.52458 0.08303 0.60271
 H208 H 0.63430 0.08114 0.54977
 C209 C 0.64976 0.72638 0.19363
 C210 C 0.66193 0.68999 0.18250
 C211 C 0.70055 0.67751 0.19296
 C212 C 0.72509 0.70022 0.21431
 C213 C 0.71244 0.73601 0.22500
 C214 C 0.67489 0.74903 0.21425
 C215 C 0.71491 0.64281 0.18155
 C216 C 0.69264 0.62085 0.15880
 C217 C 0.65443 0.63239 0.14703
 C218 C 0.63786 0.66636 0.16044
 C219 C 0.59779 0.67548 0.15142
 C220 C 0.57551 0.65353 0.12866
 C221 C 0.59247 0.62218 0.11343
 C222 C 0.63221 0.61112 0.12228
 C223 C 0.64856 0.58005 0.10509
 C224 C 0.62654 0.56134 0.08004
 C225 C 0.58738 0.57245 0.07151
 C226 C 0.57017 0.60239 0.08877
 H227 H 0.62173 0.73885 0.18589
 H228 H 0.75461 0.69038 0.22182
 H229 H 0.66505 0.77718 0.22138
 H230 H 0.74419 0.63289 0.18976
 H231 H 0.70601 0.59450 0.15126
 H232 H 0.58245 0.69924 0.16197
 H233 H 0.54494 0.66179 0.12235
 H234 H 0.67884 0.57036 0.10955
 H235 H 0.64044 0.53822 0.06704
 H236 H 0.53995 0.61138 0.08211
 C237 C 0.77061 -0.15835 0.17618
 C238 C 0.81336 -0.15544 0.17504
 C239 C 0.83618 -0.17489 0.19884
 C240 C 0.81665 -0.19644 0.22243
 C241 C 0.77446 -0.20042 0.22197
 C242 C 0.75171 -0.18049 0.19929
 C243 C 0.87834 -0.17341 0.19864
 C244 C 0.89858 -0.15454 0.17443
 C245 C 0.87732 -0.13576 0.14957
 C246 C 0.83409 -0.13479 0.15071
 C247 C 0.81302 -0.11342 0.12736
 C248 C 0.83307 -0.09532 0.10276
 C249 C 0.87479 -0.09799 0.10014
 C250 C 0.89773 -0.11800 0.12351
 C251 C 0.94002 -0.12010 0.11926
 C252 C 0.95834 -0.10322 0.09291
 C253 C 0.93527 -0.08379 0.06994
 C254 C 0.89358 -0.08098 0.07392
 H255 H 0.75071 -0.14487 0.15909
 H256 H 0.83449 -0.21033 0.24084
 H257 H 0.71897 -0.18245 0.19898
 H258 H 0.89596 -0.18778 0.21701
 H259 H 0.93113 -0.15506 0.17604
 H260 H 0.78079 -0.10983 0.12743
 H261 H 0.81552 -0.07954 0.08523
 H262 H 0.95978 -0.13518 0.13542
 H263 H 0.99070 -0.10571 0.09039
 H264 H 0.87550 -0.06578 0.05633
 C265 C 0.86758 0.30960 0.70991
 C266 C 0.84896 0.33243 0.68602
 C267 C 0.80608 0.33352 0.68524
 C268 C 0.78325 0.31073 0.70585
 C269 C 0.80213 0.28645 0.72760
 C270 C 0.84435 0.28705 0.73042
 C271 C 0.78592 0.35654 0.66335
 C272 C 0.80716 0.37789 0.64132
 C273 C 0.84975 0.37663 0.63989
 C274 C 0.87109 0.35360 0.66264
 C275 C 0.91354 0.35142 0.66046
 C276 C 0.93437 0.37018 0.63643
 C277 C 0.91396 0.39227 0.61385
 C278 C 0.87152 0.39662 0.61571
 C279 C 0.85249 0.42032 0.59281
 C280 C 0.87421 0.43705 0.56825
 C281 C 0.91570 0.43128 0.56565
 C282 C 0.93568 0.40953 0.58898
 H283 H 0.89994 0.30836 0.71331
 H284 H 0.75043 0.31089 0.70418
 H285 H 0.85963 0.26985 0.74814
 H286 H 0.75315 0.35768 0.66292
 H287 H 0.78884 0.39427 0.62507
 H288 H 0.93162 0.33447 0.67649
 H289 H 0.96683 0.36694 0.63530
 H290 H 0.82080 0.42656 0.59291
 H291 H 0.85817 0.45442 0.55097
 H292 H 0.96797 0.40537 0.58743
 C293 C 0.34314 -0.17727 0.72141
 C294 C 0.33014 -0.17377 0.68882
 C295 C 0.29285 -0.19205 0.67900
 C296 C 0.27173 -0.21554 0.70019
 C297 C 0.28649 -0.22061 0.73161
 C298 C 0.32118 -0.20000 0.74252
 C299 C 0.27690 -0.18715 0.64800
 C300 C 0.29712 -0.16435 0.62630
 C301 C 0.33498 -0.14653 0.63448
 C302 C 0.35255 -0.15262 0.66578
 C303 C 0.39253 -0.13882 0.67250
 C304 C 0.41458 -0.11963 0.64944
 C305 C 0.39718 -0.11204 0.61931
 C306 C 0.35660 -0.12411 0.61185
 C307 C 0.33923 -0.11307 0.58201
 C308 C 0.36200 -0.09292 0.55988
 C309 C 0.40279 -0.08334 0.56654
 C310 C 0.42017 -0.09257 0.59646
 H311 H 0.36967 -0.16225 0.73141
 H312 H 0.24361 -0.22971 0.69207
 H313 H 0.33181 -0.20209 0.76732
 H314 H 0.24839 -0.20108 0.64040
 H315 H 0.28304 -0.16270 0.60267
 H316 H 0.40831 -0.14395 0.69502
 H317 H 0.44556 -0.11043 0.65534
 H318 H 0.30792 -0.11891 0.57527
 H319 H 0.34772 -0.08538 0.53714
 H320 H 0.45152 -0.08434 0.60203
 C321 C 0.28640 0.34780 0.18894
 C322 C 0.32902 0.34763 0.18655
 C323 C 0.35101 0.32356 0.20755
 C324 C 0.33074 0.30089 0.23002
 C325 C 0.28852 0.30041 0.23080
 C326 C 0.26669 0.32445 0.21067
 C327 C 0.39289 0.32135 0.20530
 C328 C 0.41326 0.34063 0.18135
 C329 C 0.39249 0.36377 0.15910
 C330 C 0.35014 0.36912 0.16305
 C331 C 0.33013 0.39537 0.14307
 C332 C 0.34968 0.41300 0.11806
 C333 C 0.38981 0.40520 0.11193
 C334 C 0.41230 0.38126 0.13265
 C335 C 0.45315 0.37474 0.12514
 C336 C 0.47013 0.39034 0.09765
 C337 C 0.44698 0.41274 0.07685
 C338 C 0.40719 0.42071 0.08460
 H339 H 0.26711 0.36431 0.17350
 H340 H 0.34786 0.28302 0.24615
 H341 H 0.23392 0.32446 0.21112
 H342 H 0.40997 0.30345 0.22156
 H343 H 0.44546 0.33682 0.18092
 H344 H 0.29915 0.40308 0.14613
 H345 H 0.33280 0.43225 0.10283
 H346 H 0.47246 0.35685 0.13940
 H347 H 0.50115 0.38404 0.09225
 H348 H 0.38916 0.43837 0.06879
 C349 C 0.85290 0.17765 -0.21233
 C350 C 0.84120 0.17291 -0.18004
 C351 C 0.80488 0.18999 -0.17062
 C352 C 0.78362 0.21362 -0.19177
 C353 C 0.79713 0.21992 -0.22285
 C354 C 0.83070 0.20040 -0.23347
 C355 C 0.79005 0.18369 -0.14005
 C356 C 0.81046 0.16072 -0.11840
 C357 C 0.84753 0.14419 -0.12610
 C358 C 0.86396 0.15167 -0.15694
 C359 C 0.90328 0.13914 -0.16312
 C360 C 0.92580 0.11995 -0.13999
 C361 C 0.90949 0.11107 -0.11034
 C362 C 0.86955 0.12177 -0.10342
 C363 C 0.85328 0.10946 -0.07403
 C364 C 0.87658 0.08932 -0.05183
 C365 C 0.91685 0.08118 -0.05794
 C366 C 0.93302 0.09172 -0.08742
 H367 H 0.87851 0.16350 -0.22209
 H368 H 0.75632 0.22700 -0.18392
 H369 H 0.84019 0.20318 -0.25807
 H370 H 0.76223 0.19664 -0.13276
 H371 H 0.79724 0.15788 -0.09513
 H372 H 0.91826 0.14533 -0.18523
 H373 H 0.95630 0.11181 -0.14545
 H374 H 0.82244 0.11434 -0.06772
 H375 H 0.86325 0.08080 -0.02943
 H376 H 0.96393 0.08460 -0.09259
 C377 C 0.83891 0.69813 0.28466
 C378 C 0.82865 0.69198 0.31710
 C379 C 0.79222 0.70769 0.32782
 C380 C 0.76894 0.73064 0.30760
 C381 C 0.78029 0.73764 0.27608
 C382 C 0.81462 0.72019 0.26441
 C383 C 0.77897 0.70043 0.35869
 C384 C 0.80067 0.67719 0.37920
 C385 C 0.83738 0.66117 0.36992
 C386 C 0.85267 0.67026 0.33904
 C387 C 0.89190 0.65844 0.33163
 C388 C 0.91522 0.63809 0.35357
 C389 C 0.89972 0.62724 0.38306
 C390 C 0.85997 0.63744 0.39109
 C391 C 0.84416 0.62306 0.41990
 C392 C 0.86770 0.60144 0.44068
 C393 C 0.90782 0.59360 0.43373
 C394 C 0.92366 0.60624 0.40469
 H395 H 0.86476 0.68531 0.27403
 H396 H 0.74143 0.74253 0.31652
 H397 H 0.82268 0.72339 0.23952
 H398 H 0.75124 0.71261 0.36705
 H399 H 0.78864 0.67360 0.40281
 H400 H 0.90607 0.66589 0.30945
 H401 H 0.94555 0.63040 0.34721
 H402 H 0.81339 0.62727 0.42675
 H403 H 0.85453 0.59138 0.46269
 H404 H 0.95442 0.59941 0.39881
 C405 C 0.34404 0.19141 0.29021
 C406 C 0.33462 0.18721 0.32304
 C407 C 0.30041 0.20637 0.33438
 C408 C 0.27876 0.23079 0.31431
 C409 C 0.28958 0.23584 0.28242
 C410 C 0.32126 0.21493 0.27012
 C411 C 0.28773 0.20102 0.36569
 C412 C 0.30776 0.17632 0.38601
 C413 C 0.34226 0.15689 0.37608
 C414 C 0.35724 0.16406 0.34476
 C415 C 0.39489 0.14893 0.33669
 C416 C 0.41688 0.12708 0.35840
 C417 C 0.40136 0.11795 0.38828
 C418 C 0.36307 0.13156 0.39698
 C419 C 0.34678 0.11881 0.42613
 C420 C 0.36868 0.09543 0.44659
 C421 C 0.40760 0.08422 0.43897
 C422 C 0.42379 0.09526 0.40963
 H423 H 0.36795 0.17594 0.27918
 H424 H 0.25281 0.24527 0.32351
 H425 H 0.32849 0.21680 0.24494
 H426 H 0.26174 0.21582 0.37451
 H427 H 0.29640 0.17428 0.40999
 H428 H 0.40895 0.15490 0.31415
 H429 H 0.44612 0.11681 0.35153
 H430 H 0.31678 0.12564 0.43346
 H431 H 0.35525 0.08666 0.46889
 H432 H 0.45357 0.08586 0.40330
 C433 C 0.35931 0.68823 -0.20757
 C434 C 0.34295 0.66374 -0.18403
 C435 C 0.30026 0.66212 -0.18136
 C436 C 0.27576 0.68628 -0.19958
 C437 C 0.29287 0.71218 -0.22088
 C438 C 0.33447 0.71196 -0.22574
 C439 C 0.28216 0.63711 -0.15996
 C440 C 0.30549 0.61424 -0.14026
 C441 C 0.34822 0.61611 -0.14066
 C442 C 0.36731 0.64143 -0.16277
 C443 C 0.41002 0.64495 -0.16182
 C444 C 0.43327 0.62545 -0.13941
 C445 C 0.41509 0.60102 -0.11752
 C446 C 0.37246 0.59486 -0.11858
 C447 C 0.35583 0.56824 -0.09688
 C448 C 0.38011 0.55108 -0.07358
 C449 C 0.42174 0.55945 -0.07121
 C450 C 0.43929 0.58349 -0.09395
 H451 H 0.39110 0.68971 -0.21259
 H452 H 0.24326 0.68573 -0.19651
 H453 H 0.34814 0.73030 -0.24335
 H454 H 0.24950 0.63555 -0.15807
 H455 H 0.28888 0.59646 -0.12401
 H456 H 0.42652 0.66385 -0.17730
 H457 H 0.46587 0.63001 -0.13891
 H458 H 0.32417 0.56010 -0.09704
 H459 H 0.36592 0.53173 -0.05686
 H460 H 0.47168 0.58945 -0.09277
 C461 C 1.23621 -0.19728 -0.15564
 C462 C 1.20257 -0.17447 -0.16304
 C463 C 1.18556 -0.17697 -0.19477
 C464 C 1.20331 -0.19980 -0.21836
 C465 C 1.23604 -0.22263 -0.21028
 C466 C 1.25246 -0.22103 -0.17892
 C467 C 1.15067 -0.15711 -0.20262
 C468 C 1.13117 -0.13612 -0.17927
 C469 C 1.14697 -0.13282 -0.14737
 C470 C 1.18466 -0.15017 -0.13980
 C471 C 1.20356 -0.14219 -0.10945
 C472 C 1.18517 -0.11980 -0.08654
 C473 C 1.14671 -0.10566 -0.09250
 C474 C 1.12668 -0.11234 -0.12282
 C475 C 1.08658 -0.09949 -0.12680
 C476 C 1.06746 -0.08090 -0.10163
 C477 C 1.08795 -0.07373 -0.07212
 C478 C 1.12779 -0.08560 -0.06792
 H479 H 1.24986 -0.19840 -0.13181
 H480 H 1.19109 -0.20041 -0.24287
 H481 H 1.27827 -0.23789 -0.17223
 H482 H 1.13767 -0.15863 -0.22688
 H483 H 1.10426 -0.12177 -0.18715
 H484 H 1.23329 -0.15201 -0.10298
 H485 H 1.20083 -0.11435 -0.06355
 H486 H 1.06864 -0.10478 -0.14857
 H487 H 1.03645 -0.07221 -0.10520
 H488 H 1.14352 -0.08070 -0.04487
 C489 C 1.23541 0.34877 0.32547
 C490 C 1.19271 0.35108 0.32522
 C491 C 1.16999 0.32792 0.30240
 C492 C 1.18957 0.30359 0.28094
 C493 C 1.23163 0.30095 0.28252
 C494 C 1.25434 0.32413 0.30438
 C495 C 1.12786 0.32863 0.30145
 C496 C 1.10745 0.35043 0.32364
 C497 C 1.12855 0.37296 0.34756
 C498 C 1.17187 0.37465 0.34740
 C499 C 1.19292 0.39959 0.36960
 C500 C 1.17270 0.42020 0.39259
 C501 C 1.13080 0.41672 0.39458
 C502 C 1.10790 0.39353 0.37191
 C503 C 1.06538 0.39101 0.37531
 C504 C 1.04689 0.40984 0.40060
 C505 C 1.06998 0.43182 0.42327
 C506 C 1.11181 0.43579 0.41969
 H507 H 1.25518 0.36473 0.34215
 H508 H 1.17193 0.28656 0.26333
 H509 H 1.28706 0.32265 0.30560
 H510 H 1.11036 0.31142 0.28377
 H511 H 1.07492 0.34902 0.32130
 H512 H 1.22529 0.40401 0.36989
 H513 H 1.19023 0.43849 0.40947
 H514 H 1.04555 0.37392 0.35947
 H515 H 1.01439 0.40648 0.40277
 H516 H 1.12986 0.45305 0.43700
 C517 C 0.72139 -0.14616 0.31508
 C518 C 0.68310 -0.15721 0.32696
 C519 C 0.66316 -0.19011 0.31272
 C520 C 0.68173 -0.21168 0.28881
 C521 C 0.71982 -0.20066 0.27799
 C522 C 0.73942 -0.16780 0.29113
 C523 C 0.62512 -0.20196 0.32284
 C524 C 0.60605 -0.18190 0.34681
 C525 C 0.62462 -0.14922 0.36214
 C526 C 0.66419 -0.13716 0.35260
 C527 C 0.68385 -0.10616 0.36956
 C528 C 0.66557 -0.08751 0.39489
 C529 C 0.62666 -0.09828 0.40392
 C530 C 0.60526 -0.12875 0.38723
 C531 C 0.56510 -0.13728 0.39622
 C532 C 0.54756 -0.11711 0.42109
 C533 C 0.56916 -0.08783 0.43807
 C534 C 0.60882 -0.07855 0.42946
 H535 H 0.73833 -0.12110 0.32379
 H536 H 0.66704 -0.23788 0.27952
 H537 H 0.76924 -0.15918 0.28331
 H538 H 0.60987 -0.22719 0.31213
 H539 H 0.57702 -0.19359 0.35337
 H540 H 0.71398 -0.09603 0.36436
 H541 H 0.68206 -0.06418 0.40742
 H542 H 0.54594 -0.15886 0.38423
 H543 H 0.51680 -0.12474 0.42720
 H544 H 0.62548 -0.05547 0.44220
 C545 C 0.74482 0.33293 -0.17984
 C546 C 0.70217 0.33521 -0.17957
 C547 C 0.67911 0.31212 -0.20225
 C548 C 0.69846 0.28833 -0.22451
 C549 C 0.74065 0.28593 -0.22360
 C550 C 0.76347 0.30869 -0.20143
 C551 C 0.63692 0.31235 -0.20215
 C552 C 0.61697 0.33366 -0.17921
 C553 C 0.63854 0.35650 -0.15572
 C554 C 0.68177 0.35868 -0.15694
 C555 C 0.70323 0.38422 -0.13546
 C556 C 0.68358 0.40501 -0.11221
 C557 C 0.64184 0.40109 -0.10910
 C558 C 0.61849 0.37710 -0.13090
 C559 C 0.57624 0.37391 -0.12619
 C560 C 0.55847 0.39289 -0.10051
 C561 C 0.58196 0.41589 -0.07876
 C562 C 0.62353 0.42049 -0.08372
 H563 H 0.76478 0.34848 -0.16303
 H564 H 0.68058 0.27147 -0.24205
 H565 H 0.79619 0.30723 -0.20037
 H566 H 0.61904 0.29511 -0.21956
 H567 H 0.58439 0.33187 -0.18072
 H568 H 0.73549 0.38917 -0.13612
 H569 H 0.70147 0.42385 -0.09600
 H570 H 0.55619 0.35607 -0.14128
 H571 H 0.52621 0.38886 -0.09733
 H572 H 0.64205 0.43828 -0.06711
 C573 C 1.20785 0.15384 -0.20490
 C574 C 1.17075 0.16167 -0.19026
 C575 C 1.15216 0.19674 -0.19784
 C576 C 1.16992 0.22226 -0.21957
 C577 C 1.20666 0.21394 -0.23355
 C578 C 1.22556 0.17979 -0.22586
 C579 C 1.11654 0.20666 -0.18304
 C580 C 1.09980 0.18348 -0.15972
 C581 C 1.11774 0.14884 -0.15059
 C582 C 1.15252 0.13679 -0.16735
 C583 C 1.16799 0.10035 -0.16055
 C584 C 1.15180 0.07753 -0.13677
 C585 C 1.11999 0.09020 -0.11844
 C586 C 1.10229 0.12594 -0.12512
 C587 C 1.07081 0.13786 -0.10517
 C588 C 1.05834 0.11567 -0.07943
 C589 C 1.07625 0.08064 -0.07280
 C590 C 1.10645 0.06763 -0.09290
 H591 H 1.22492 0.12873 -0.19962
 H592 H 1.15585 0.24928 -0.22476
 H593 H 1.25490 0.17357 -0.23524
 H594 H 1.10188 0.23316 -0.18901
 H595 H 1.07238 0.19344 -0.14945
 H596 H 1.19252 0.08835 -0.17351
 H597 H 1.16502 0.04997 -0.13218
 H598 H 1.05607 0.16479 -0.10804
 H599 H 1.03473 0.12626 -0.06437
 H600 H 1.12059 0.04059 -0.08789
 C601 C 1.22637 0.65314 0.30345
 C602 C 1.18565 0.65889 0.31150
 C603 C 1.16575 0.69020 0.29727
 C604 C 1.18539 0.71323 0.27460
 C605 C 1.22544 0.70643 0.26639
 C606 C 1.24596 0.67696 0.28178
 C607 C 1.12668 0.69889 0.30630
 C608 C 1.10738 0.67809 0.33000
 C609 C 1.12598 0.64675 0.34495
 C610 C 1.16472 0.63567 0.33416
 C611 C 1.18105 0.60152 0.34608
 C612 C 1.16133 0.58003 0.36907
 C613 C 1.12519 0.59218 0.38182
 C614 C 1.10708 0.62590 0.37020
 C615 C 1.07155 0.63804 0.38518
 C616 C 1.05517 0.61770 0.41067
 C617 C 1.07296 0.58420 0.42169
 C618 C 1.10757 0.57119 0.40671
 H619 H 1.24450 0.63151 0.31457
 H620 H 1.16982 0.73730 0.26433
 H621 H 1.27760 0.67235 0.27727
 H622 H 1.11111 0.72260 0.29542
 H623 H 1.07731 0.68674 0.33558
 H624 H 1.20877 0.59010 0.33746
 H625 H 1.17507 0.55403 0.37751
 H626 H 1.05655 0.66393 0.37862
 H627 H 1.02849 0.62838 0.42197
 H628 H 1.12184 0.54554 0.41539
 C629 C 0.65016 0.20747 0.30745
 C630 C 0.65885 0.17098 0.32001
 C631 C 0.69304 0.15221 0.30807
 C632 C 0.71836 0.17034 0.28596
 C633 C 0.70970 0.20675 0.27453
 C634 C 0.67538 0.22498 0.28528
 C635 C 0.70243 0.11581 0.31880
 C636 C 0.67886 0.09746 0.34132
 C637 C 0.64513 0.11518 0.35468
 C638 C 0.63538 0.15286 0.34430
 C639 C 0.60342 0.17161 0.35935
 C640 C 0.58213 0.15452 0.38395
 C641 C 0.59095 0.11769 0.39408
 C642 C 0.62171 0.09700 0.37893
 C643 C 0.62784 0.05893 0.38884
 C644 C 0.60600 0.04307 0.41380
 C645 C 0.57725 0.06437 0.42994
 C646 C 0.56938 0.10154 0.41956
 H647 H 0.62425 0.22340 0.31431
 H648 H 0.74567 0.15658 0.27869
 H649 H 0.66836 0.25338 0.27705
 H650 H 0.72851 0.10132 0.30979
 H651 H 0.68888 0.06971 0.34858
 H652 H 0.59480 0.20022 0.35337
 H653 H 0.55849 0.17043 0.39523
 H654 H 0.64907 0.04038 0.37771
 H655 H 0.61228 0.01402 0.42085
 H656 H 0.54659 0.11799 0.43142
 C657 C 0.71046 0.64620 -0.20417
 C658 C 0.67363 0.65474 -0.18941
 C659 C 0.65679 0.69098 -0.19553
 C660 C 0.67600 0.71705 -0.21592
 C661 C 0.71260 0.70819 -0.22984
 C662 C 0.72977 0.67278 -0.22367
 C663 C 0.62164 0.70160 -0.18040
 C664 C 0.60405 0.67808 -0.15776
 C665 C 0.62059 0.64243 -0.14982
 C666 C 0.65427 0.62949 -0.16746
 C667 C 0.66765 0.59192 -0.16234
 C668 C 0.65080 0.56883 -0.13905
 C669 C 0.62060 0.58246 -0.11952
 C670 C 0.60487 0.61939 -0.12464
 C671 C 0.57530 0.63238 -0.10336
 C672 C 0.56269 0.60992 -0.07786
 C673 C 0.57852 0.57363 -0.07292
 C674 C 0.60680 0.55967 -0.09429
 H675 H 0.72629 0.62012 -0.19978
 H676 H 0.66334 0.74500 -0.21982
 H677 H 0.75911 0.66612 -0.23283
 H678 H 0.60822 0.72898 -0.18539
 H679 H 0.57711 0.68854 -0.14704
 H680 H 0.69096 0.57929 -0.17630
 H681 H 0.66240 0.54034 -0.13569
 H682 H 0.56242 0.66034 -0.10493
 H683 H 0.54063 0.62123 -0.06171
 H684 H 0.61930 0.53160 -0.09053
 C685 C 0.80058 -0.22380 -0.16511
 C686 C 0.81993 -0.18800 -0.17055
 C687 C 0.81287 -0.17058 -0.20071
 C688 C 0.79000 -0.19024 -0.22528
 C689 C 0.77149 -0.22600 -0.21943
 C690 C 0.77675 -0.24220 -0.18907
 C691 C 0.82847 -0.13364 -0.20594
 C692 C 0.84984 -0.11321 -0.18150
 C693 C 0.85831 -0.12987 -0.15136
 C694 C 0.84523 -0.16873 -0.14669
 C695 C 0.85872 -0.18754 -0.11872
 C696 C 0.88231 -0.16845 -0.09516
 C697 C 0.89234 -0.12965 -0.09801
 C698 C 0.88008 -0.10945 -0.12585
 C699 C 0.88917 -0.06950 -0.12642
 C700 C 0.90964 -0.05076 -0.10040
 C701 C 0.92248 -0.07140 -0.07351
 C702 C 0.91412 -0.11087 -0.07274
 H703 H 0.80223 -0.23784 -0.14221
 H704 H 0.78659 -0.17763 -0.24881
 H705 H 0.76293 -0.26963 -0.18352
 H706 H 0.82331 -0.12002 -0.22891
 H707 H 0.86065 -0.08476 -0.18726
 H708 H 0.85266 -0.21762 -0.11484
 H709 H 0.89213 -0.18412 -0.07413
 H710 H 0.87961 -0.05179 -0.14611
 H711 H 0.91552 -0.02009 -0.10131
 H712 H 0.92335 -0.12691 -0.05173
 C713 C 0.81855 0.26784 0.32726
 C714 C 0.82458 0.30796 0.32445
 C715 C 0.80499 0.32618 0.29826
 C716 C 0.78202 0.30442 0.27509
 C717 C 0.77624 0.26483 0.27863
 C718 C 0.79481 0.24685 0.30469
 C719 C 0.80820 0.36597 0.29553
 C720 C 0.82918 0.38832 0.31889
 C721 C 0.84921 0.37149 0.34538
 C722 C 0.84866 0.33053 0.34714
 C723 C 0.87265 0.31335 0.37125
 C724 C 0.89442 0.33530 0.39414
 C725 C 0.89261 0.37513 0.39436
 C726 C 0.87008 0.39405 0.37012
 C727 C 0.86857 0.43463 0.37234
 C728 C 0.88818 0.45513 0.39785
 C729 C 0.91016 0.43593 0.42165
 C730 C 0.91281 0.39601 0.41927
 H731 H 0.83074 0.25188 0.34710
 H732 H 0.76913 0.31844 0.25435
 H733 H 0.79097 0.21619 0.30771
 H734 H 0.79353 0.38011 0.27548
 H735 H 0.82993 0.41883 0.31514
 H736 H 0.87601 0.28280 0.37271
 H737 H 0.91224 0.32080 0.41232
 H738 H 0.85143 0.45124 0.35539
 H739 H 0.88564 0.48601 0.39918
 H740 H 0.92977 0.38077 0.43753
 C741 C 0.34632 -0.22323 0.29899
 C742 C 0.33056 -0.19140 0.31555
 C743 C 0.29066 -0.18061 0.30704
 C744 C 0.26697 -0.20247 0.28449
 C745 C 0.28320 -0.23366 0.26818
 C746 C 0.32296 -0.24389 0.27573
 C747 C 0.27446 -0.14814 0.32115
 C748 C 0.29717 -0.12566 0.34329
 C749 C 0.33665 -0.13566 0.35324
 C750 C 0.35291 -0.16999 0.34019
 C751 C 0.39022 -0.18250 0.35305
 C752 C 0.41088 -0.16227 0.37782
 C753 C 0.39617 -0.12798 0.38985
 C754 C 0.35970 -0.11335 0.37686
 C755 C 0.34791 -0.07688 0.38807
 C756 C 0.37013 -0.05710 0.41249
 C757 C 0.40444 -0.07311 0.42684
 C758 C 0.41757 -0.10838 0.41512
 H759 H 0.37684 -0.23253 0.30305
 H760 H 0.23583 -0.19489 0.27948
 H761 H 0.33609 -0.26839 0.26409
 H762 H 0.24395 -0.13978 0.31478
 H763 H 0.28220 -0.10133 0.35329
 H764 H 0.40349 -0.20887 0.34541
 H765 H 0.43885 -0.17353 0.38754
 H766 H 0.32198 -0.06263 0.37813
 H767 H 0.35968 -0.02959 0.42081
 H768 H 0.44445 -0.12066 0.42578
 C769 C 0.30567 0.33995 -0.21787
 C770 C 0.31210 0.32909 -0.18546
 C771 C 0.29506 0.29341 -0.17599
 C772 C 0.27071 0.27103 -0.19758
 C773 C 0.26411 0.28248 -0.22934
 C774 C 0.28247 0.31664 -0.23947
 C775 C 0.30264 0.27995 -0.14507
 C776 C 0.32776 0.30060 -0.12342
 C777 C 0.34530 0.33639 -0.13153
 C778 C 0.33554 0.35184 -0.16237
 C779 C 0.34858 0.38981 -0.16871
 C780 C 0.37095 0.41171 -0.14586
 C781 C 0.38272 0.39613 -0.11643
 C782 C 0.37123 0.35778 -0.10933
 C783 C 0.38672 0.34214 -0.08045
 C784 C 0.41076 0.36434 -0.05884
 C785 C 0.41983 0.40289 -0.06500
 C786 C 0.40599 0.41864 -0.09397
 H787 H 0.31929 0.36558 -0.22751
 H788 H 0.25776 0.24411 -0.18960
 H789 H 0.27909 0.32534 -0.26428
 H790 H 0.28943 0.25281 -0.13764
 H791 H 0.33166 0.28837 -0.09992
 H792 H 0.34055 0.40396 -0.19078
 H793 H 0.37957 0.44101 -0.15147
 H794 H 0.38160 0.31256 -0.07419
 H795 H 0.42169 0.35137 -0.03684
 H796 H 0.41373 0.44828 -0.09918
 C797 C 1.16439 -0.23180 0.17708
 C798 C 1.17283 -0.19246 0.17127
 C799 C 1.20576 -0.17457 0.18889
 C800 C 1.22935 -0.19552 0.21075
 C801 C 1.22032 -0.23432 0.21628
 C802 C 1.18799 -0.25226 0.19895
 C803 C 1.21560 -0.13597 0.18424
 C804 C 1.19383 -0.11453 0.16221
 C805 C 1.16118 -0.13094 0.14356
 C806 C 1.15045 -0.17056 0.14820
 C807 C 1.11818 -0.18711 0.12921
 C808 C 1.09786 -0.16625 0.10594
 C809 C 1.10830 -0.12790 0.10079
 C810 C 1.13948 -0.10931 0.11990
 C811 C 1.14777 -0.06990 0.11417
 C812 C 1.12708 -0.05054 0.08978
 C813 C 1.09753 -0.06962 0.07019
 C814 C 1.08789 -0.10818 0.07624
 H815 H 1.14010 -0.24791 0.16490
 H816 H 1.25550 -0.18159 0.22267
 H817 H 1.18106 -0.28252 0.20201
 H818 H 1.24072 -0.12213 0.19768
 H819 H 1.20393 -0.08512 0.16004
 H820 H 1.10806 -0.21653 0.13135
 H821 H 1.07375 -0.18047 0.09162
 H822 H 1.17014 -0.05309 0.12796
 H823 H 1.13484 -0.02062 0.08588
 H824 H 1.06457 -0.12310 0.06156
 C825 C 1.14898 0.27573 0.67079
 C826 C 1.14681 0.31627 0.67170
 C827 C 1.16890 0.33642 0.69672
 C828 C 1.19223 0.31655 0.71949
 C829 C 1.19603 0.27680 0.71677
 C830 C 1.17339 0.25654 0.69290
 C831 C 1.16875 0.37640 0.69828
 C832 C 1.14917 0.39710 0.67446
 C833 C 1.12802 0.37850 0.64836
 C834 C 1.12486 0.33745 0.64802
 C835 C 1.10019 0.31896 0.62384
 C836 C 1.08138 0.33953 0.59964
 C837 C 1.08687 0.37922 0.59814
 C838 C 1.11006 0.39948 0.62247
 C839 C 1.11535 0.43972 0.61916
 C840 C 1.09874 0.45862 0.59264
 C841 C 1.07618 0.43823 0.56865
 C842 C 1.06982 0.39861 0.57194
 H843 H 1.13368 0.25805 0.65249
 H844 H 1.20834 0.33241 0.73863
 H845 H 1.17536 0.22570 0.69068
 H846 H 1.18507 0.39196 0.71761
 H847 H 1.15095 0.42786 0.67732
 H848 H 1.09444 0.28841 0.62306
 H849 H 1.06307 0.32400 0.58140
 H850 H 1.13316 0.45730 0.63611
 H851 H 1.10405 0.48929 0.59072
 H852 H 1.05226 0.38249 0.55359
 C853 C 0.65377 -0.22970 0.68035
 C854 C 0.65079 -0.18930 0.68116
 C855 C 0.67479 -0.16837 0.70465
 C856 C 0.70039 -0.18751 0.72638
 C857 C 0.70410 -0.22728 0.72405
 C858 C 0.68011 -0.24813 0.70137
 C859 C 0.67395 -0.12841 0.70575
 C860 C 0.65161 -0.10853 0.68294
 C861 C 0.62829 -0.12799 0.65841
 C862 C 0.62607 -0.16902 0.65869
 C863 C 0.59949 -0.18844 0.63632
 C864 C 0.57815 -0.16880 0.61291
 C865 C 0.58270 -0.12914 0.61053
 C866 C 0.60742 -0.10795 0.63337
 C867 C 0.61134 -0.06775 0.62935
 C868 C 0.59248 -0.04986 0.60329
 C869 C 0.56889 -0.07124 0.58050
 C870 C 0.56335 -0.11075 0.58479
 H871 H 0.63742 -0.24791 0.66299
 H872 H 0.71798 -0.17121 0.74445
 H873 H 0.68210 -0.27900 0.69945
 H874 H 0.69175 -0.11223 0.72390
 H875 H 0.65304 -0.07773 0.68532
 H876 H 0.59420 -0.21904 0.63635
 H877 H 0.55862 -0.18504 0.59592
 H878 H 0.62988 -0.04944 0.64523
 H879 H 0.59714 -0.01921 0.60062
 H880 H 0.54499 -0.12758 0.56739
 C881 C 0.69366 0.26064 0.16139
 C882 C 0.67687 0.29708 0.16610
 C883 C 0.68101 0.31429 0.19723
 C884 C 0.69981 0.29471 0.22270
 C885 C 0.71740 0.25926 0.21715
 C886 C 0.71364 0.24231 0.18648
 C887 C 0.66710 0.35118 0.20256
 C888 C 0.65074 0.37211 0.17735
 C889 C 0.64612 0.35624 0.14593
 C890 C 0.65715 0.31731 0.14076
 C891 C 0.64762 0.29967 0.11057
 C892 C 0.62976 0.31985 0.08574
 C893 C 0.62170 0.35860 0.08961
 C894 C 0.63022 0.37766 0.11956
 C895 C 0.62332 0.41755 0.12149
 C896 C 0.60795 0.43722 0.09494
 C897 C 0.59850 0.41774 0.06585
 C898 C 0.60532 0.37842 0.06345
 H899 H 0.69329 0.24609 0.13832
 H900 H 0.70137 0.30748 0.24664
 H901 H 0.72634 0.21467 0.18157
 H902 H 0.66988 0.36445 0.22633
 H903 H 0.64095 0.40048 0.18341
 H904 H 0.65256 0.26979 0.10561
 H905 H 0.62282 0.30505 0.06301
 H906 H 0.63045 0.43453 0.14291
 H907 H 0.60306 0.46771 0.09727
 H908 H 0.59846 0.36323 0.04088
 C909 C 0.84793 0.20528 0.20050
 C910 C 0.83934 0.16799 0.18770
 C911 C 0.80327 0.14892 0.19733
 C912 C 0.77590 0.16772 0.21709
 C913 C 0.78441 0.20513 0.22841
 C914 C 0.82071 0.22346 0.22023
 C915 C 0.79410 0.11161 0.18643
 C916 C 0.81953 0.09283 0.16573
 C917 C 0.85490 0.11108 0.15431
 C918 C 0.86468 0.14949 0.16513
 C919 C 0.89841 0.16871 0.15196
 C920 C 0.92113 0.15155 0.12843
 C921 C 0.91204 0.11421 0.11765
 C922 C 0.87982 0.09284 0.13128
 C923 C 0.87359 0.05424 0.12083
 C924 C 0.89640 0.03868 0.09635
 C925 C 0.92615 0.06091 0.08137
 C926 C 0.93453 0.09838 0.09273
 H927 H 0.87522 0.22143 0.19559
 H928 H 0.74723 0.15381 0.22243
 H929 H 0.82774 0.25260 0.22837
 H930 H 0.76669 0.09680 0.19378
 H931 H 0.80962 0.06438 0.15808
 H932 H 0.90728 0.19783 0.15837
 H933 H 0.94595 0.16791 0.11835
 H934 H 0.85132 0.03523 0.13101
 H935 H 0.88978 0.00935 0.08848
 H936 H 0.95814 0.11551 0.08178
 C937 C 0.83855 0.72381 0.69061
 C938 C 0.82717 0.68859 0.67492
 C939 C 0.78963 0.67108 0.68293
 C940 C 0.76409 0.68912 0.70437
 C941 C 0.77599 0.72360 0.71983
 C942 C 0.81330 0.74084 0.71284
 C943 C 0.77764 0.63554 0.66960
 C944 C 0.80246 0.61633 0.64889
 C945 C 0.83996 0.63254 0.63984
 C946 C 0.85167 0.67001 0.65184
 C947 C 0.88669 0.68801 0.63960
 C948 C 0.90934 0.67007 0.61632
 C949 C 0.89909 0.63294 0.60536
 C950 C 0.86525 0.61308 0.61803
 C951 C 0.85811 0.57438 0.60838
 C952 C 0.88154 0.55727 0.58521
 C953 C 0.91282 0.57801 0.57074
 C954 C 0.92211 0.61562 0.58146
 H955 H 0.86712 0.73842 0.68681
 H956 H 0.73502 0.67578 0.70942
 H957 H 0.82308 0.76762 0.72444
 H958 H 0.74883 0.62219 0.67551
 H959 H 0.79055 0.58930 0.63928
 H960 H 0.89647 0.71675 0.64658
 H961 H 0.93530 0.68539 0.60691
 H962 H 0.83492 0.55636 0.61855
 H963 H 0.87428 0.52785 0.57795
 H964 H 0.94701 0.63151 0.57099
 C965 C 0.33133 0.22277 0.68638
 C966 C 0.31943 0.18713 0.67170
 C967 C 0.28108 0.17110 0.67941
 C968 C 0.25531 0.19100 0.69959
 C969 C 0.26770 0.22603 0.71396
 C970 C 0.30589 0.24166 0.70731
 C971 C 0.26865 0.13513 0.66716
 C972 C 0.29376 0.11415 0.64785
 C973 C 0.33205 0.12891 0.63914
 C974 C 0.34432 0.16668 0.65005
 C975 C 0.38038 0.18311 0.63821
 C976 C 0.40366 0.16333 0.61648
 C977 C 0.39286 0.12594 0.60661
 C978 C 0.35774 0.10767 0.61877
 C979 C 0.34982 0.06876 0.61005
 C980 C 0.37396 0.04990 0.58828
 C981 C 0.40673 0.06904 0.57435
 C982 C 0.41662 0.10684 0.58420
 H983 H 0.36054 0.23631 0.68291
 H984 H 0.22582 0.17860 0.70477
 H985 H 0.31641 0.26854 0.71824
 H986 H 0.23928 0.12283 0.67286
 H987 H 0.28156 0.08685 0.63908
 H988 H 0.39066 0.21197 0.64432
 H989 H 0.43051 0.17747 0.60737
 H990 H 0.32540 0.05195 0.61984
 H991 H 0.36608 0.02041 0.58162
 H992 H 0.44253 0.12158 0.57411
 C993 C 0.33542 0.71682 0.17362
 C994 C 0.33192 0.67676 0.16749
 C995 C 0.30311 0.65553 0.18518
 C996 C 0.27853 0.67399 0.20738
 C997 C 0.28292 0.71354 0.21336
 C998 C 0.31123 0.73471 0.19605
 C999 C 0.29878 0.61595 0.18058
 C1000 C 0.32259 0.59665 0.15900
 C1001 C 0.35156 0.61631 0.14059
 C1002 C 0.35575 0.65715 0.14444
 C1003 C 0.38309 0.67704 0.12470
 C1004 C 0.40530 0.65795 0.10188
 C1005 C 0.40193 0.61821 0.09810
 C1006 C 0.37576 0.59662 0.11785
 C1007 C 0.37496 0.55617 0.11387
 C1008 C 0.39764 0.53838 0.09036
 C1009 C 0.42190 0.56006 0.06993
 C1010 C 0.42439 0.59998 0.07432
 H1011 H 0.35676 0.73526 0.16177
 H1012 H 0.25576 0.65733 0.21966
 H1013 H 0.31491 0.76544 0.19991
 H1014 H 0.27673 0.59958 0.19394
 H1015 H 0.31681 0.56618 0.15683
 H1016 H 0.38751 0.70772 0.12572
 H1017 H 0.42538 0.67459 0.08697
 H1018 H 0.35729 0.53731 0.12857
 H1019 H 0.39557 0.50744 0.08783
 H1020 H 0.44361 0.61700 0.05900
   
