data_POSCAR
  _audit_creation_date              2014-09-24
  _audit_creation_method            'ToBaCCo'
  _symmetry_space_group_name_H-M    'P1'
  _symmetry_Int_Tables_number       1
  _symmetry_cell_setting            triclinic
  loop_
  _symmetry_equiv_pos_as_xyz
 x,y,z
_cell_length_a 39.7563
_cell_length_b 39.7608
_cell_length_c 21.8357
_cell_angle_alpha 89.959200
_cell_angle_beta 89.959500
_cell_angle_gamma 90.067100
loop_
  _atom_site_label
  _atom_site_type_symbol
  _atom_site_fract_x
  _atom_site_fract_y
  _atom_site_fract_z
O1 O -0.03285 0.22629 0.05856
 O2 O 0.03445 0.22476 -0.05870
 O3 O -0.03207 0.22579 -0.06041
 O4 O 0.03342 0.22544 0.05994
 O5 O 0.03217 0.16988 0.06036
 O6 O -0.03243 0.17023 -0.05915
 O7 O 0.03261 0.16925 -0.05832
 O8 O -0.03288 0.17072 0.05960
 Cu9 Cu 0.00079 0.23123 -0.00033
 Cu10 Cu -0.00023 0.16452 0.00069
 C11 C -0.04438 0.19854 0.07863
 C12 C 0.04524 0.19653 -0.07783
 C13 C -0.04360 0.19788 -0.07960
 C14 C 0.04414 0.19741 0.07998
 O15 O 0.46706 0.72800 0.56264
 O16 O 0.53343 0.72792 0.44354
 O17 O 0.46705 0.72788 0.44379
 O18 O 0.53361 0.72815 0.56239
 O19 O 0.53294 0.67258 0.56271
 O20 O 0.46771 0.67231 0.44428
 O21 O 0.53278 0.67236 0.44404
 O22 O 0.46775 0.67244 0.56294
 Cu23 Cu 0.50029 0.73365 0.50312
 Cu24 Cu 0.50030 0.66692 0.50358
 C25 C 0.45587 0.70003 0.58232
 C26 C 0.54456 0.69992 0.42411
 C27 C 0.45590 0.69984 0.42443
 C28 C 0.54484 0.70021 0.58200
 O29 O 0.96693 0.77513 -0.06028
 O30 O 1.03357 0.77423 0.05826
 O31 O 0.96725 0.77418 0.05840
 O32 O 1.03378 0.77511 -0.06041
 O33 O 1.03298 0.83063 -0.05944
 O34 O 0.96790 0.82975 0.05933
 O35 O 1.03299 0.82979 0.05923
 O36 O 0.96791 0.83066 -0.05936
 Cu37 Cu 1.00037 0.76900 -0.00131
 Cu38 Cu 1.00045 0.83569 0.00001
 C39 C 0.95573 0.80326 -0.07918
 C40 C 1.04476 0.80209 0.07835
 C41 C 0.95610 0.80203 0.07852
 C42 C 1.04508 0.80323 -0.07931
 O43 O 0.53307 0.27201 0.56098
 O44 O 0.46681 0.27209 0.44212
 O45 O 0.53314 0.27239 0.44216
 O46 O 0.46662 0.27186 0.56082
 O47 O 0.46716 0.32743 0.56124
 O48 O 0.53236 0.32796 0.44265
 O49 O 0.46728 0.32766 0.44260
 O50 O 0.53233 0.32758 0.56135
 Cu51 Cu 0.49993 0.26643 0.50153
 Cu52 Cu 0.49978 0.33317 0.50204
 C53 C 0.54420 0.29997 0.58071
 C54 C 0.45558 0.30007 0.42276
 C55 C 0.54422 0.30046 0.42277
 C56 C 0.45533 0.29975 0.58050
 O57 O 0.77396 -0.03256 0.05806
 O58 O 0.77508 0.03476 -0.05918
 O59 O 0.77475 -0.03180 -0.06089
 O60 O 0.77409 0.03372 0.05939
 O61 O 0.82967 0.03316 0.06012
 O62 O 0.83032 -0.03149 -0.05930
 O63 O 0.83061 0.03357 -0.05855
 O64 O 0.82952 -0.03191 0.05941
 Cu65 Cu 0.76881 0.00101 -0.00088
 Cu66 Cu 0.83553 0.00080 0.00052
 C67 C 0.80177 -0.04376 0.07826
 C68 C 0.80325 0.04591 -0.07814
 C69 C 0.80282 -0.04304 -0.07986
 C70 C 0.80197 0.04482 0.07954
 O71 O 0.27201 0.53300 0.44028
 O72 O 0.27134 0.46662 0.55928
 O73 O 0.27141 0.53311 0.55910
 O74 O 0.27184 0.46657 0.44053
 O75 O 0.32741 0.46719 0.44138
 O76 O 0.32698 0.53240 0.55983
 O77 O 0.32691 0.46725 0.56001
 O78 O 0.32758 0.53230 0.44115
 Cu79 Cu 0.26599 0.49984 0.49974
 Cu80 Cu 0.33272 0.49979 0.50069
 C81 C 0.30011 0.54414 0.42110
 C82 C 0.29922 0.45541 0.57918
 C83 C 0.29932 0.54428 0.57897
 C84 C 0.29989 0.45535 0.42145
 O85 O 0.22535 1.03466 0.05947
 O86 O 0.22590 0.96809 -0.05917
 O87 O 0.22477 1.03464 -0.05894
 O88 O 0.22657 0.96815 0.05989
 O89 O 0.17100 0.96774 0.06069
 O90 O 0.16926 1.03279 -0.05807
 O91 O 0.17033 0.96774 -0.05804
 O92 O 0.16984 1.03278 0.06060
 Cu93 Cu 0.23131 1.00142 0.00019
 Cu94 Cu 0.16462 1.00013 0.00140
 C95 C 0.19726 1.04536 0.07949
 C96 C 0.19800 0.95645 -0.07825
 C97 C 0.19650 1.04536 -0.07796
 C98 C 0.19887 0.95650 0.07998
 O99 O 0.72810 0.53334 0.56064
 O100 O 0.72743 0.46709 0.44172
 O101 O 0.72756 0.53343 0.44186
 O102 O 0.72780 0.46690 0.56056
 O103 O 0.67223 0.46769 0.56131
 O104 O 0.67198 0.53287 0.44272
 O105 O 0.67186 0.46779 0.44263
 O106 O 0.67252 0.53282 0.56139
 Cu107 Cu 0.73338 0.50017 0.50115
 Cu108 Cu 0.66664 0.50030 0.50212
 C109 C 0.70023 0.54457 0.58057
 C110 C 0.69934 0.45600 0.42252
 C111 C 0.69953 0.54463 0.42268
 C112 C 0.69985 0.45577 0.58048
 C113 C 0.22727 0.18223 0.19110
 C114 C 0.19523 0.19373 0.17466
 C115 C 0.18387 0.22601 0.18969
 C116 C 0.20564 0.24816 0.22121
 C117 C 0.23843 0.23723 0.23773
 C118 C 0.24931 0.20421 0.22250
 C119 C 0.28182 0.19401 0.23953
 C120 C 0.30344 0.21581 0.27011
 C121 C 0.29326 0.24853 0.28581
 C122 C 0.26042 0.25940 0.26949
 C123 C 0.19541 0.28083 0.23712
 C124 C 0.21698 0.30257 0.26794
 C125 C 0.24951 0.29238 0.28483
 C126 C 0.27157 0.31440 0.31607
 C127 C 0.30376 0.30309 0.33190
 C128 C 0.31514 0.27081 0.31684
 H129 H 0.29095 0.16899 0.22958
 H130 H 0.32833 0.20666 0.28108
 H131 H 0.17053 0.28998 0.22612
 H132 H 0.20783 0.32756 0.27807
 H133 H 0.17923 0.17768 0.14708
 H134 H 0.31985 0.31931 0.35898
 C135 C 0.72821 0.68490 0.31460
 C136 C 0.69608 0.69635 0.33061
 C137 C 0.68464 0.72850 0.31475
 C138 C 0.70639 0.75047 0.28259
 C139 C 0.73921 0.73949 0.26627
 C140 C 0.75019 0.70666 0.28251
 C141 C 0.78272 0.69638 0.26569
 C142 C 0.80425 0.71791 0.23419
 C143 C 0.79397 0.75044 0.21745
 C144 C 0.76113 0.76141 0.23367
 C145 C 0.69609 0.78299 0.26575
 C146 C 0.71760 0.80450 0.23416
 C147 C 0.75014 0.79422 0.21739
 C148 C 0.77214 0.81600 0.18538
 C149 C 0.80430 0.80458 0.16956
 C150 C 0.81576 0.77246 0.18550
 H151 H 0.79191 0.67148 0.27649
 H152 H 0.82915 0.70872 0.22333
 H153 H 0.67119 0.79218 0.27660
 H154 H 0.70840 0.82939 0.22326
 H155 H 0.68010 0.68035 0.35842
 H156 H 0.82033 0.82061 0.14190
 C157 C 0.81567 0.22851 0.18585
 C158 C 0.80430 0.19627 0.17039
 C159 C 0.77219 0.18474 0.18644
 C160 C 0.75013 0.20653 0.21808
 C161 C 0.76103 0.23946 0.23389
 C162 C 0.79384 0.25053 0.21751
 C163 C 0.80405 0.28316 0.23382
 C164 C 0.78247 0.30468 0.26508
 C165 C 0.74997 0.29430 0.28204
 C166 C 0.73905 0.26138 0.26616
 C167 C 0.71761 0.19616 0.23492
 C168 C 0.69602 0.21769 0.26613
 C169 C 0.70624 0.25031 0.28254
 C170 C 0.68444 0.27228 0.31436
 C171 C 0.69582 0.30450 0.32994
 C172 C 0.72795 0.31604 0.31391
 H173 H 0.82892 0.29243 0.22281
 H174 H 0.79161 0.32965 0.27557
 H175 H 0.70847 0.17119 0.22438
 H176 H 0.67114 0.20842 0.27703
 H177 H 0.82036 0.18023 0.14294
 H178 H 0.67980 0.32049 0.35758
 C179 C 0.31592 0.72836 0.31464
 C180 C 0.30437 0.69615 0.33013
 C181 C 0.27224 0.68475 0.31393
 C182 C 0.25037 0.70661 0.28198
 C183 C 0.26145 0.73949 0.26611
 C184 C 0.29427 0.75043 0.28263
 C185 C 0.30466 0.78300 0.26614
 C186 C 0.28323 0.80462 0.23475
 C187 C 0.25069 0.79440 0.21784
 C188 C 0.23962 0.76152 0.23370
 C189 C 0.21785 0.69638 0.26495
 C190 C 0.19641 0.71801 0.23362
 C191 C 0.20678 0.75060 0.21726
 C192 C 0.18508 0.77272 0.18549
 C193 C 0.19661 0.80492 0.17003
 C194 C 0.22877 0.81629 0.18608
 H195 H 0.32957 0.79216 0.27710
 H196 H 0.29250 0.82954 0.22412
 H197 H 0.20858 0.67144 0.27546
 H198 H 0.17151 0.70885 0.22261
 H199 H 0.32025 0.68007 0.35785
 H200 H 0.18065 0.82105 0.14254
 C201 C 0.81665 0.22681 0.81166
 C202 C 0.80536 0.19448 0.82678
 C203 C 0.77330 0.18286 0.81049
 C204 C 0.75118 0.20478 0.77919
 C205 C 0.76199 0.23785 0.76391
 C206 C 0.79479 0.24890 0.78027
 C207 C 0.80494 0.28162 0.76429
 C208 C 0.78329 0.30328 0.73354
 C209 C 0.75075 0.29297 0.71683
 C210 C 0.73991 0.25995 0.73225
 C211 C 0.71867 0.19446 0.76229
 C212 C 0.69696 0.21619 0.73184
 C213 C 0.70706 0.24897 0.71610
 C214 C 0.68509 0.27118 0.68521
 C215 C 0.69640 0.30352 0.67008
 C216 C 0.72861 0.31492 0.68568
 H217 H 0.82982 0.29086 0.77518
 H218 H 0.79239 0.32831 0.72334
 H219 H 0.70959 0.16939 0.77226
 H220 H 0.67207 0.20695 0.72099
 H221 H 0.82142 0.17847 0.85427
 H222 H 0.68023 0.31970 0.64312
 C223 C 0.31463 0.72855 0.68639
 C224 C 0.30317 0.69644 0.67016
 C225 C 0.27074 0.68517 0.68472
 C226 C 0.24849 0.70707 0.71574
 C227 C 0.25953 0.73981 0.73255
 C228 C 0.29265 0.75060 0.71766
 C229 C 0.30300 0.78303 0.73502
 C230 C 0.28131 0.80460 0.76588
 C231 C 0.24849 0.79450 0.78133
 C232 C 0.23739 0.76182 0.76431
 C233 C 0.21563 0.69702 0.73096
 C234 C 0.19386 0.71866 0.76152
 C235 C 0.20423 0.75106 0.77903
 C236 C 0.18226 0.77312 0.81039
 C237 C 0.19393 0.80506 0.82731
 C238 C 0.22637 0.81631 0.81282
 H239 H 0.32810 0.79209 0.72524
 H240 H 0.29061 0.82940 0.77725
 H241 H 0.20634 0.67222 0.71963
 H242 H 0.16873 0.70963 0.77107
 H243 H 0.31941 0.68037 0.64312
 H244 H 0.17785 0.82106 0.85481
 C245 C 0.22558 0.18215 0.80840
 C246 C 0.19346 0.19365 0.82441
 C247 C 0.18197 0.22578 0.80852
 C248 C 0.20384 0.24787 0.77688
 C249 C 0.23677 0.23699 0.76102
 C250 C 0.24767 0.20406 0.77683
 C251 C 0.28026 0.19387 0.76024
 C252 C 0.30199 0.21563 0.72974
 C253 C 0.29185 0.24831 0.71366
 C254 C 0.25889 0.25914 0.72938
 C255 C 0.19361 0.28045 0.76029
 C256 C 0.21533 0.30218 0.72969
 C257 C 0.24802 0.29207 0.71360
 C258 C 0.27026 0.31412 0.68276
 C259 C 0.30258 0.30287 0.66760
 C260 C 0.31389 0.27059 0.68290
 H261 H 0.28939 0.16889 0.77053
 H262 H 0.32694 0.20650 0.71918
 H263 H 0.16862 0.28956 0.77063
 H264 H 0.20617 0.32712 0.71910
 H265 H 0.17752 0.17769 0.85234
 H266 H 0.31885 0.31913 0.64087
 C267 C 0.72978 0.68533 0.68503
 C268 C 0.69744 0.69665 0.67020
 C269 C 0.68614 0.72886 0.68590
 C270 C 0.70822 0.75099 0.71685
 C271 C 0.74126 0.74013 0.73199
 C272 C 0.75212 0.70729 0.71574
 C273 C 0.78490 0.69717 0.73119
 C274 C 0.80675 0.71886 0.76149
 C275 C 0.79656 0.75138 0.77850
 C276 C 0.76349 0.76220 0.76348
 C277 C 0.69805 0.78353 0.73365
 C278 C 0.71983 0.80516 0.76423
 C279 C 0.75256 0.79499 0.77997
 C280 C 0.77474 0.81683 0.81126
 C281 C 0.80709 0.80553 0.82606
 C282 C 0.81860 0.77348 0.80967
 H283 H 0.79405 0.67228 0.72024
 H284 H 0.83181 0.70977 0.77124
 H285 H 0.67302 0.79265 0.72365
 H286 H 0.71068 0.83005 0.77516
 H287 H 0.68116 0.68049 0.64337
 H288 H 0.82318 0.82158 0.85346
 C289 C 0.19550 0.07193 0.12094
 C290 C 0.22182 0.09110 0.13667
 C291 C 0.21571 0.12235 0.17109
 C292 C 0.23749 0.14804 0.17044
 H293 H 0.24676 0.08587 0.11896
 H294 H 0.19129 0.12573 0.19239
 H295 H 0.17066 0.07898 0.13713
 H296 H 0.26207 0.14470 0.14987
 C297 C 0.69906 0.57235 0.62482
 C298 C 0.72455 0.59381 0.63310
 C299 C 0.71862 0.62526 0.66694
 C300 C 0.73989 0.65129 0.66370
 H301 H 0.74832 0.58996 0.60976
 H302 H 0.69480 0.62834 0.69053
 H303 H 0.67496 0.57756 0.64609
 H304 H 0.76397 0.64824 0.64111
 C305 C 0.80289 0.92848 0.12261
 C306 C 0.77729 0.90723 0.13167
 C307 C 0.78324 0.87594 0.16606
 C308 C 0.76186 0.84996 0.16386
 H309 H 0.75344 0.91112 0.10871
 H310 H 0.80720 0.87286 0.18914
 H311 H 0.82703 0.92321 0.14364
 H312 H 0.73762 0.85295 0.14189
 C313 C 0.30045 0.42754 0.62332
 C314 C 0.27512 0.40584 0.63128
 C315 C 0.28124 0.37429 0.66482
 C316 C 0.26004 0.34819 0.66166
 H317 H 0.25138 0.40958 0.60787
 H318 H 0.30512 0.37121 0.68817
 H319 H 0.32455 0.42244 0.64466
 H320 H 0.23590 0.35123 0.63935
 C321 C 0.92791 0.19758 0.12310
 C322 C 0.90688 0.22329 0.13222
 C323 C 0.87562 0.21749 0.16682
 C324 C 0.84966 0.23882 0.16431
 H325 H 0.91089 0.24711 0.10913
 H326 H 0.87251 0.19362 0.19025
 H327 H 0.92248 0.17347 0.14421
 H328 H 0.85266 0.26298 0.14196
 C329 C 0.42798 0.69854 0.62643
 C330 C 0.40636 0.72384 0.63490
 C331 C 0.37476 0.71751 0.66826
 C332 C 0.34880 0.73884 0.66576
 H333 H 0.41020 0.74774 0.61201
 H334 H 0.37153 0.69341 0.69085
 H335 H 0.42280 0.67432 0.64731
 H336 H 0.35201 0.76320 0.64423
 C337 C 0.07247 0.80330 0.12277
 C338 C 0.09384 0.77783 0.13162
 C339 C 0.12515 0.78386 0.16592
 C340 C 0.15110 0.76250 0.16378
 H341 H 0.09002 0.75400 0.10854
 H342 H 0.12822 0.80782 0.18900
 H343 H 0.07766 0.82744 0.14390
 H344 H 0.14808 0.73827 0.14178
 C345 C 0.57200 0.30137 0.62490
 C346 C 0.59353 0.27600 0.63335
 C347 C 0.62499 0.28213 0.66705
 C348 C 0.65104 0.26093 0.66399
 H349 H 0.58972 0.25217 0.61022
 H350 H 0.62807 0.30601 0.69040
 H351 H 0.57716 0.32553 0.64595
 H352 H 0.64801 0.23680 0.64163
 C353 C 0.80516 0.07267 0.88078
 C354 C 0.77882 0.09164 0.86455
 C355 C 0.78498 0.12301 0.83042
 C356 C 0.76316 0.14861 0.83111
 H357 H 0.75379 0.08614 0.88161
 H358 H 0.80942 0.12653 0.80926
 H359 H 0.83007 0.08004 0.86535
 H360 H 0.73857 0.14512 0.85160
 C361 C 0.30186 0.57187 0.37673
 C362 C 0.27656 0.59337 0.36731
 C363 C 0.28303 0.62473 0.33337
 C364 C 0.26177 0.65076 0.33522
 H365 H 0.25252 0.58961 0.38977
 H366 H 0.30719 0.62776 0.31087
 H367 H 0.32621 0.57699 0.35628
 H368 H 0.23736 0.64777 0.35668
 C369 C 0.19666 0.92886 0.87712
 C370 C 0.22202 0.90740 0.86800
 C371 C 0.21578 0.87626 0.83326
 C372 C 0.23683 0.85006 0.83534
 H373 H 0.24588 0.91100 0.89112
 H374 H 0.19189 0.87356 0.80977
 H375 H 0.17247 0.92380 0.85608
 H376 H 0.26098 0.85272 0.85778
 C377 C 0.69765 0.42839 0.37800
 C378 C 0.72312 0.40719 0.36796
 C379 C 0.71685 0.37594 0.33369
 C380 C 0.73826 0.35002 0.33532
 H381 H 0.74720 0.41107 0.39014
 H382 H 0.69273 0.37286 0.31118
 H383 H 0.67328 0.42314 0.35780
 H384 H 0.76263 0.35307 0.35680
 C385 C 0.07189 0.19447 0.88090
 C386 C 0.09104 0.22069 0.86443
 C387 C 0.12218 0.21438 0.82977
 C388 C 0.14794 0.23606 0.82995
 H389 H 0.08581 0.24574 0.88155
 H390 H 0.12537 0.18994 0.80852
 H391 H 0.07897 0.16953 0.86534
 H392 H 0.14476 0.26064 0.85052
 C393 C 0.57217 0.69837 0.37946
 C394 C 0.59353 0.72380 0.36968
 C395 C 0.62472 0.71753 0.33514
 C396 C 0.65074 0.73887 0.33659
 H397 H 0.58980 0.74780 0.39218
 H398 H 0.62765 0.69343 0.31250
 H399 H 0.57727 0.67407 0.35892
 H400 H 0.64785 0.76323 0.35816
 C401 C 0.92903 0.80512 0.87964
 C402 C 0.90993 0.77881 0.86348
 C403 C 0.87855 0.78504 0.82948
 C404 C 0.85284 0.76327 0.83016
 H405 H 0.91533 0.75379 0.88060
 H406 H 0.87512 0.80950 0.80840
 H407 H 0.92172 0.83003 0.86420
 H408 H 0.85624 0.73866 0.85056
 C409 C 0.42787 0.30149 0.37842
 C410 C 0.40654 0.27597 0.36938
 C411 C 0.37515 0.28200 0.33542
 C412 C 0.34915 0.26067 0.33824
 H413 H 0.41043 0.25207 0.39221
 H414 H 0.37208 0.30591 0.31213
 H415 H 0.42261 0.32572 0.35769
 H416 H 0.35220 0.23652 0.36057
 C417 C 0.80449 0.92947 0.87537
 C418 C 0.77917 0.90797 0.86584
 C419 C 0.78553 0.87681 0.83136
 C420 C 0.76438 0.85065 0.83342
 H421 H 0.75519 0.91155 0.88859
 H422 H 0.80952 0.87406 0.80819
 H423 H 0.82880 0.92449 0.85473
 H424 H 0.74015 0.85339 0.85561
 C425 C 0.30153 0.42751 0.37735
 C426 C 0.27618 0.40596 0.36832
 C427 C 0.28253 0.37450 0.33471
 C428 C 0.26123 0.34846 0.33703
 H429 H 0.25219 0.40976 0.39088
 H430 H 0.30663 0.37144 0.31204
 H431 H 0.32584 0.42235 0.35684
 H432 H 0.23689 0.35151 0.35865
 C433 C 0.19434 0.07194 0.88060
 C434 C 0.22052 0.09114 0.86406
 C435 C 0.21415 0.12232 0.82955
 C436 C 0.23585 0.14808 0.82968
 H437 H 0.24559 0.08595 0.88112
 H438 H 0.18966 0.12554 0.80846
 H439 H 0.16937 0.07897 0.86514
 H440 H 0.26046 0.14485 0.85011
 C441 C 0.69795 0.57233 0.37825
 C442 C 0.72341 0.59366 0.36858
 C443 C 0.71716 0.62496 0.33437
 C444 C 0.73853 0.65095 0.33614
 H445 H 0.74743 0.58984 0.39098
 H446 H 0.69307 0.62799 0.31174
 H447 H 0.67363 0.57753 0.35786
 H448 H 0.76288 0.64797 0.35773
 C449 C 0.07182 0.80506 0.87952
 C450 C 0.09081 0.77871 0.86340
 C451 C 0.12233 0.78486 0.82966
 C452 C 0.14789 0.76299 0.83047
 H453 H 0.08526 0.75369 0.88046
 H454 H 0.12599 0.80936 0.80877
 H455 H 0.07926 0.82995 0.86414
 H456 H 0.14427 0.73836 0.85067
 C457 C 0.57188 0.30214 0.37827
 C458 C 0.59324 0.27676 0.36862
 C459 C 0.62448 0.28310 0.33425
 C460 C 0.65053 0.26186 0.33611
 H461 H 0.58948 0.25274 0.39114
 H462 H 0.62743 0.30717 0.31140
 H463 H 0.57702 0.32647 0.35775
 H464 H 0.64762 0.23755 0.35794
 C465 C 0.92899 0.19659 0.87543
 C466 C 0.90779 0.22211 0.86585
 C467 C 0.87663 0.21603 0.83118
 C468 C 0.85054 0.23720 0.83350
 H469 H 0.91156 0.24600 0.88875
 H470 H 0.87374 0.19212 0.80784
 H471 H 0.92378 0.17236 0.85463
 H472 H 0.85337 0.26136 0.85584
 C473 C 0.42825 0.69822 0.37993
 C474 C 0.40693 0.72363 0.37011
 C475 C 0.37577 0.71733 0.33548
 C476 C 0.34979 0.73868 0.33676
 H477 H 0.41068 0.74766 0.39253
 H478 H 0.37284 0.69323 0.31282
 H479 H 0.42311 0.67391 0.35945
 H480 H 0.35270 0.76303 0.35835
 C481 C 0.19802 0.92887 0.12463
 C482 C 0.22366 0.90769 0.13333
 C483 C 0.21780 0.87632 0.16762
 C484 C 0.23912 0.85036 0.16499
 H485 H 0.24742 0.91164 0.10999
 H486 H 0.19387 0.87313 0.19087
 H487 H 0.17395 0.92349 0.14596
 H488 H 0.26333 0.85342 0.14286
 C489 C 0.69844 0.42796 0.62472
 C490 C 0.72382 0.40645 0.63337
 C491 C 0.71760 0.37499 0.66716
 C492 C 0.73889 0.34900 0.66459
 H493 H 0.74769 0.41028 0.61037
 H494 H 0.69360 0.37186 0.69014
 H495 H 0.67425 0.42278 0.64571
 H496 H 0.76316 0.35210 0.64266
 C497 C 0.80317 0.07234 0.12430
 C498 C 0.77755 0.09346 0.13359
 C499 C 0.78346 0.12480 0.16781
 C500 C 0.76201 0.15066 0.16540
 H501 H 0.75368 0.08951 0.11071
 H502 H 0.80744 0.12803 0.19076
 H503 H 0.82734 0.07765 0.14519
 H504 H 0.73777 0.14749 0.14348
 C505 C 0.30066 0.57210 0.62315
 C506 C 0.27538 0.59376 0.63141
 C507 C 0.28156 0.62512 0.66550
 C508 C 0.26044 0.65126 0.66279
 H509 H 0.25161 0.59011 0.60803
 H510 H 0.30541 0.62801 0.68902
 H511 H 0.32478 0.57713 0.64450
 H512 H 0.23633 0.64839 0.64030
 C513 C 0.92841 0.80322 0.12302
 C514 C 0.90708 0.77767 0.13204
 C515 C 0.87573 0.78365 0.16628
 C516 C 0.84978 0.76223 0.16412
 H517 H 0.91094 0.75382 0.10907
 H518 H 0.87261 0.80764 0.18921
 H519 H 0.92318 0.82737 0.14404
 H520 H 0.85284 0.73797 0.14227
 C521 C 0.42737 0.30100 0.62443
 C522 C 0.40572 0.27563 0.63231
 C523 C 0.37406 0.28170 0.66553
 C524 C 0.34803 0.26045 0.66208
 H525 H 0.40958 0.25187 0.60901
 H526 H 0.37088 0.30557 0.68886
 H527 H 0.42216 0.32511 0.64562
 H528 H 0.35118 0.23633 0.63975
 C529 C 0.07155 0.19583 0.12493
 C530 C 0.09289 0.22126 0.13468
 C531 C 0.12396 0.21507 0.16949
 C532 C 0.15004 0.23633 0.16758
 H533 H 0.08927 0.24521 0.11190
 H534 H 0.12677 0.19109 0.19267
 H535 H 0.07654 0.17156 0.14574
 H536 H 0.14724 0.26054 0.14539
 C537 C 0.57276 0.69880 0.62598
 C538 C 0.59443 0.72412 0.63431
 C539 C 0.62598 0.71786 0.66776
 C540 C 0.65203 0.73915 0.66508
 H541 H 0.59065 0.74799 0.61130
 H542 H 0.62909 0.69383 0.69062
 H543 H 0.57789 0.67461 0.64697
 H544 H 0.64894 0.76344 0.64329
   
