data_POSCAR
  _audit_creation_date              2014-09-24
  _audit_creation_method            'ToBaCCo'
  _symmetry_space_group_name_H-M    'P1'
  _symmetry_Int_Tables_number       1
  _symmetry_cell_setting            triclinic
  loop_
  _symmetry_equiv_pos_as_xyz
 x,y,z
_cell_length_a 10.5819
_cell_length_b 31.5436
_cell_length_c 10.7369
_cell_angle_alpha 90.772000
_cell_angle_beta 86.500000
_cell_angle_gamma 88.887300
loop_
  _atom_site_label
  _atom_site_type_symbol
  _atom_site_fract_x
  _atom_site_fract_y
  _atom_site_fract_z
N1 N 0.17123 0.07268 0.13018
 N2 N 0.21229 0.11207 0.12242
 N3 N 0.10956 -0.01581 0.25062
 N4 N 0.11400 -0.04853 0.32637
 N5 N 0.21612 -0.01349 0.18188
 N6 N 0.29622 -0.04363 0.21179
 N7 N 0.06727 0.07138 0.20328
 N8 N 0.03551 0.10957 0.24667
 C9 C 0.12688 0.13471 0.19694
 C10 C 0.23216 -0.06511 0.30245
 N11 N -0.21270 -0.04240 0.11374
 N12 N -0.24449 -0.08261 0.12087
 N13 N -0.19484 0.05496 0.16409
 N14 N -0.22878 0.09363 0.20385
 N15 N -0.25637 0.04444 0.06622
 N16 N -0.33512 0.07800 0.03513
 N17 N -0.15229 -0.03132 0.21215
 N18 N -0.14403 -0.06339 0.28883
 Mn19 Mn -0.04288 0.01986 0.20907
 C20 C -0.20290 -0.09500 0.23150
 C21 C -0.31487 0.10746 0.12390
 N22 N 0.28045 -0.03094 -0.07950
 N23 N 0.34388 -0.06687 -0.03842
 N24 N 0.17537 0.04447 -0.22805
 N25 N 0.16849 0.07651 -0.30529
 N26 N 0.23684 0.05563 -0.13041
 N27 N 0.27221 0.09540 -0.13909
 N28 N 0.21705 -0.04161 -0.17661
 N29 N 0.23517 -0.08213 -0.20506
 Mn30 Mn 0.22746 0.02114 0.02552
 C31 C 0.31199 -0.09748 -0.11958
 C32 C 0.23059 0.10788 -0.24938
 N33 N -0.19208 0.02851 -0.19473
 N34 N -0.27111 0.05883 -0.22523
 N35 N -0.04582 -0.05995 -0.21335
 N36 N -0.02328 -0.10056 -0.24713
 N37 N -0.15470 -0.05628 -0.14887
 N38 N -0.21250 -0.09496 -0.14211
 N39 N -0.08697 0.02895 -0.26642
 N40 N -0.09123 0.06090 -0.34513
 Mn41 Mn -0.20457 -0.00636 -0.04071
 Mn42 Mn 0.06578 -0.00727 -0.22312
 Cl43 Cl 0.01164 0.00686 -0.00749
 C44 C -0.20801 0.07863 -0.31986
 C45 C -0.12792 -0.12172 -0.20219
 N46 N 0.76397 0.52782 0.62216
 N47 N 0.83601 0.56153 0.63546
 N48 N 0.62893 0.44028 0.66849
 N49 N 0.60567 0.40131 0.70498
 N50 N 0.71655 0.44002 0.57639
 N51 N 0.75574 0.40063 0.54966
 N52 N 0.68047 0.52553 0.71745
 N53 N 0.69646 0.55636 0.79792
 C54 C 0.79405 0.57869 0.74759
 C55 C 0.68673 0.37690 0.63175
 N56 N 0.27461 0.46982 0.62231
 N57 N 0.19265 0.43913 0.61247
 N58 N 0.41076 0.54465 0.74541
 N59 N 0.42269 0.57490 0.83013
 N60 N 0.32340 0.55548 0.66932
 N61 N 0.27429 0.59312 0.69985
 N62 N 0.36131 0.45892 0.69900
 N63 N 0.33938 0.42087 0.74398
 Mn64 Mn 0.52072 0.49221 0.70866
 C65 C 0.23308 0.40905 0.69039
 C66 C 0.33590 0.60475 0.80085
 N67 N 0.70898 0.45617 0.31320
 N68 N 0.73779 0.41553 0.29487
 N69 N 0.67336 0.55379 0.28144
 N70 N 0.69355 0.59236 0.23939
 N71 N 0.76035 0.54274 0.35762
 N72 N 0.84054 0.57377 0.37002
 N73 N 0.62431 0.46826 0.23543
 N74 N 0.59679 0.43648 0.16133
 Mn75 Mn 0.73936 0.49164 0.46706
 C76 C 0.66887 0.40389 0.19857
 C77 C 0.79929 0.60422 0.29401
 N78 N 0.31925 0.57295 0.40760
 N79 N 0.27978 0.61227 0.43465
 N80 N 0.35612 0.48532 0.26640
 N81 N 0.33670 0.45227 0.19289
 N82 N 0.26984 0.48722 0.35968
 N83 N 0.18907 0.45632 0.35021
 N84 N 0.40527 0.57247 0.31398
 N85 N 0.42725 0.61146 0.27677
 Mn86 Mn 0.29555 0.52149 0.51476
 Mn87 Mn 0.51454 0.52014 0.27298
 Cl88 Cl 0.51776 0.50641 0.49092
 C89 C 0.34661 0.63587 0.35085
 C90 C 0.23050 0.43499 0.24544
 C91 C 0.19482 0.25236 0.16481
 C92 C 0.08085 0.26877 0.21326
 C93 C -0.01571 0.24401 0.26301
 C94 C 0.00295 0.20012 0.25823
 C95 C 0.11725 0.18158 0.20487
 C96 C 0.21571 0.20820 0.15823
 O97 O 0.27764 0.28243 0.13429
 C98 C 0.21325 0.31833 0.16398
 C99 C 0.09215 0.31130 0.21126
 C100 C 0.00993 0.34338 0.25668
 C101 C 0.05449 0.38469 0.25619
 C102 C 0.18046 0.39319 0.21342
 C103 C 0.26039 0.35968 0.16310
 H104 H -0.10081 0.25816 0.30753
 H105 H -0.07187 0.18064 0.29760
 H106 H 0.30523 0.19505 0.12000
 H107 H -0.08273 0.33653 0.29776
 H108 H -0.00657 0.40977 0.29678
 H109 H 0.35800 0.36518 0.13388
 C110 C 0.82565 0.78602 0.21956
 C111 C 0.84020 0.77784 0.34317
 C112 C 0.83639 0.80938 0.43503
 C113 C 0.82016 0.85140 0.39765
 C114 C 0.80592 0.86072 0.27055
 C115 C 0.80850 0.82756 0.18062
 O116 O 0.82391 0.75114 0.14887
 C117 C 0.83732 0.72025 0.23013
 C118 C 0.84809 0.73512 0.34985
 C119 C 0.85218 0.70873 0.45148
 C120 C 0.84584 0.66509 0.42950
 C121 C 0.83262 0.64885 0.30780
 C122 C 0.82968 0.67674 0.20621
 H123 H 0.84408 0.80180 0.53180
 H124 H 0.81774 0.87657 0.46747
 H125 H 0.79978 0.83414 0.08340
 H126 H 0.85259 0.72161 0.54462
 H127 H 0.84143 0.64409 0.50813
 H128 H 0.81666 0.66486 0.11336
 C129 C 0.78355 0.19353 0.58829
 C130 C 0.65508 0.20124 0.60109
 C131 C 0.56780 0.16963 0.62449
 C132 C 0.61454 0.12841 0.64072
 C133 C 0.74667 0.11953 0.63268
 C134 C 0.83225 0.15230 0.60169
 O135 O 0.84989 0.22893 0.57889
 C136 C 0.76104 0.25948 0.58733
 C137 C 0.64062 0.24397 0.60159
 C138 C 0.53407 0.26975 0.62540
 C139 C 0.55155 0.31345 0.63536
 C140 C 0.67415 0.33060 0.62007
 C141 C 0.78042 0.30330 0.59326
 H142 H 0.46764 0.17691 0.63627
 H143 H 0.54807 0.10386 0.66647
 H144 H 0.93309 0.14655 0.60003
 H145 H 0.44114 0.25651 0.63845
 H146 H 0.46942 0.33402 0.65427
 H147 H 0.87459 0.31578 0.58230
 C148 C 0.29766 0.78826 0.83372
 C149 C 0.34783 0.77440 0.94137
 C150 C 0.39704 0.80193 1.02743
 C151 C 0.39118 0.84556 1.00310
 C152 C 0.33368 0.86081 0.89541
 C153 C 0.28937 0.83122 0.80831
 O154 O 0.26247 0.75710 0.76036
 C155 C 0.29114 0.72271 0.82299
 C156 C 0.34286 0.73141 0.93473
 C157 C 0.38438 0.69971 1.01221
 C158 C 0.37793 0.65747 0.96997
 C159 C 0.32799 0.64805 0.85357
 C160 C 0.28072 0.68118 0.78097
 H161 H 0.43998 0.79019 1.10944
 H162 H 0.42796 0.86729 1.07021
 H163 H 0.24796 0.84114 0.72333
 H164 H 0.42607 0.70737 1.09892
 H165 H 0.41520 0.63232 1.02561
 H166 H 0.24391 0.67512 0.69065
 C167 C 0.22248 0.22716 0.76603
 C168 C 0.17624 0.23594 0.65219
 C169 C 0.15693 0.20485 0.56303
 C170 C 0.18135 0.16263 0.59407
 C171 C 0.22308 0.15247 0.71314
 C172 C 0.24654 0.18535 0.79947
 O173 O 0.24363 0.26175 0.83302
 C174 C 0.20908 0.29298 0.75973
 C175 C 0.16559 0.27869 0.64893
 C176 C 0.12876 0.30562 0.55633
 C177 C 0.14032 0.34924 0.57673
 C178 C 0.19242 0.36478 0.68649
 C179 C 0.22417 0.33628 0.78106
 H180 H 0.12414 0.21291 0.47298
 H181 H 0.16452 0.13784 0.52665
 H182 H 0.28020 0.17859 0.89042
 H183 H 0.09450 0.29334 0.47054
 H184 H 0.11629 0.37066 0.50360
 H185 H 0.26642 0.34722 0.86478
 C186 C 0.91429 0.76059 0.77635
 C187 C 0.80522 0.75095 0.84447
 C188 C 0.71296 0.78032 0.88289
 C189 C 0.73487 0.82236 0.85617
 C190 C 0.85280 0.83574 0.79902
 C191 C 0.94341 0.80378 0.75430
 O192 O 0.97692 0.72544 0.73306
 C193 C 0.90429 0.69372 0.77643
 C194 C 0.80121 0.70860 0.84844
 C195 C 0.70958 0.68319 0.90260
 C196 C 0.71882 0.64007 0.87740
 C197 C 0.81487 0.62286 0.79228
 C198 C 0.91318 0.64991 0.74455
 H199 H 0.62510 0.77094 0.93009
 H200 H 0.65971 0.84462 0.88692
 H201 H 1.03127 0.81203 0.70442
 H202 H 0.63268 0.69636 0.96241
 H203 H 0.64485 0.62066 0.91900
 H204 H 0.98811 0.63794 0.67958
 C205 C 0.24140 0.81895 0.38414
 C206 C 0.37018 0.81177 0.37597
 C207 C 0.45701 0.84380 0.35670
 C208 C 0.40959 0.88499 0.34130
 C209 C 0.27733 0.89340 0.34563
 C210 C 0.19183 0.86005 0.37106
 O211 O 0.17612 0.78328 0.39166
 C212 C 0.26604 0.75309 0.38700
 C213 C 0.38612 0.76910 0.37688
 C214 C 0.49429 0.74373 0.35820
 C215 C 0.47900 0.69988 0.34978
 C216 C 0.35683 0.68225 0.36109
 C217 C 0.24847 0.70915 0.38195
 H218 H 0.55751 0.83694 0.34811
 H219 H 0.47595 0.91001 0.32013
 H220 H 0.09054 0.86535 0.37072
 H221 H 0.58679 0.75740 0.34717
 H222 H 0.56233 0.67961 0.33381
 H223 H 0.15407 0.69642 0.38890
 C224 C 0.63845 0.21973 0.20056
 C225 C 0.59094 0.23362 0.09148
 C226 C 0.55747 0.20603 -0.00227
 C227 C 0.57936 0.16250 0.01454
 C228 C 0.64029 0.14766 0.12114
 C229 C 0.66417 0.17685 0.21796
 O230 O 0.66854 0.25102 0.27592
 C231 C 0.64315 0.28539 0.21174
 C232 C 0.59603 0.27660 0.09782
 C233 C 0.57324 0.30794 0.01148
 C234 C 0.60042 0.34994 0.04413
 C235 C 0.64845 0.35959 0.16147
 C236 C 0.66814 0.32681 0.24689
 H237 H 0.51927 0.21768 -0.08701
 H238 H 0.55719 0.14096 -0.06018
 H239 H 0.70732 0.16694 0.30205
 H240 H 0.53764 0.30027 -0.07834
 H241 H 0.58331 0.37492 -0.02134
 H242 H 0.70159 0.33327 0.33825
   
