data_POSCAR
  _audit_creation_date              2014-09-24
  _audit_creation_method            'ToBaCCo'
  _symmetry_space_group_name_H-M    'P1'
  _symmetry_Int_Tables_number       1
  _symmetry_cell_setting            triclinic
  loop_
  _symmetry_equiv_pos_as_xyz
 x,y,z
_cell_length_a 47.3678
_cell_length_b 46.5240
_cell_length_c 46.5526
_cell_angle_alpha 90.377300
_cell_angle_beta 89.970400
_cell_angle_gamma 90.067200
loop_
  _atom_site_label
  _atom_site_type_symbol
  _atom_site_fract_x
  _atom_site_fract_y
  _atom_site_fract_z
N1 N 0.19036 1.24207 0.16283
 N2 N 0.17261 1.24400 0.18444
 C3 C 0.15653 1.26760 0.18109
 C4 C 0.16443 1.28119 0.15578
 C5 C 0.18616 1.26422 0.14495
 H6 H 0.13977 1.27378 0.19558
 H7 H 0.19779 1.26718 0.12522
 Cu8 Cu 0.17096 1.21416 0.21355
 Cu9 Cu 0.21623 1.20987 0.15832
 Cu10 Cu 0.21889 1.16093 0.21408
 N11 N 0.17042 1.18462 0.24297
 N12 N 0.18928 1.16395 0.24301
 C13 C 0.18358 1.14578 0.26460
 C14 C 0.15972 1.15544 0.27910
 C15 C 0.15210 1.18036 0.26467
 H16 H 0.19576 1.12668 0.26888
 H17 H 0.13415 1.19399 0.26902
 N18 N 0.24663 1.16148 0.18251
 N19 N 0.24551 1.17998 0.16118
 C20 C 0.26676 1.17440 0.14275
 C21 C 0.28188 1.15108 0.15278
 C22 C 0.26848 1.14350 0.17808
 H23 H 0.27055 1.18605 0.12311
 H24 H 0.27412 1.12605 0.19214
 H25 H 0.19498 1.17920 0.18272
 H26 H 0.21988 1.20385 0.20191
 N27 N 0.80708 0.74820 0.17152
 N28 N 0.82422 0.74799 0.19369
 C29 C 0.84358 0.72713 0.18992
 C30 C 0.83820 0.71339 0.16397
 C31 C 0.81481 0.72737 0.15296
 H32 H 0.86039 0.72248 0.20487
 H33 H 0.80469 0.72333 0.13251
 Cu34 Cu 0.82015 0.77544 0.22502
 Cu35 Cu 0.77709 0.77650 0.16755
 Cu36 Cu 0.77574 0.83133 0.21813
 N37 N 0.82237 0.80874 0.25028
 N38 N 0.80508 0.83057 0.24744
 C39 C 0.81172 0.85092 0.26695
 C40 C 0.83456 0.84144 0.28308
 C41 C 0.84061 0.81439 0.27174
 H42 H 0.80076 0.87118 0.26888
 H43 H 0.85733 0.79998 0.27805
 N44 N 0.74794 0.82811 0.18677
 N45 N 0.74853 0.80727 0.16742
 C46 C 0.72768 0.81155 0.14828
 C47 C 0.71318 0.83628 0.15592
 C48 C 0.72661 0.84613 0.18051
 H49 H 0.72349 0.79777 0.12999
 H50 H 0.72175 0.86548 0.19248
 H51 H 0.79982 0.80747 0.18964
 H52 H 0.77220 0.78765 0.21035
 N53 N 0.81848 1.24365 -0.16081
 N54 N 0.84012 1.24097 -0.17829
 C55 C 0.85877 1.26216 -0.17281
 C56 C 0.84837 1.27896 -0.15051
 C57 C 0.82270 1.26652 -0.14349
 H58 H 0.87880 1.26462 -0.18366
 H59 H 0.80831 1.27331 -0.12676
 Cu60 Cu 0.84269 1.20937 -0.20562
 Cu61 Cu 0.78742 1.21621 -0.16049
 Cu62 Cu 0.79044 1.16080 -0.21047
 N63 N 0.83921 1.18376 -0.23860
 N64 N 0.81859 1.16499 -0.24060
 C65 C 0.82209 1.14910 -0.26459
 C66 C 0.84646 1.15826 -0.27851
 C67 C 0.85659 1.18052 -0.26125
 H68 H 0.80832 1.13158 -0.27070
 H69 H 0.87549 1.19312 -0.26439
 N70 N 0.75947 1.16490 -0.18251
 N71 N 0.75825 1.18608 -0.16356
 C72 C 0.73550 1.18222 -0.14667
 C73 C 0.72164 1.15743 -0.15539
 C74 C 0.73742 1.14712 -0.17829
 H75 H 0.72976 1.19615 -0.12895
 H76 H 0.73371 1.12755 -0.19034
 H77 H 0.80959 1.18177 -0.17594
 H78 H 0.79165 1.20434 -0.20339
 N79 N 0.18374 0.75843 -0.17029
 N80 N 0.16139 0.76199 -0.18655
 C81 C 0.14235 0.74139 -0.18055
 C82 C 0.15328 0.72394 -0.15925
 C83 C 0.17968 0.73545 -0.15335
 H84 H 0.12198 0.73946 -0.19083
 H85 H 0.19456 0.72822 -0.13737
 Cu86 Cu 0.15838 0.79380 -0.21321
 Cu87 Cu 0.21564 0.78483 -0.17119
 Cu88 Cu 0.21467 0.83669 -0.22407
 N89 N 0.16031 0.81996 -0.24553
 N90 N 0.18238 0.83645 -0.24990
 C91 C 0.17771 0.85285 -0.27311
 C92 C 0.15107 0.84646 -0.28400
 C93 C 0.14079 0.82528 -0.26580
 H94 H 0.19247 0.86869 -0.28091
 H95 H 0.12054 0.81464 -0.26683
 N96 N 0.24537 0.83346 -0.19577
 N97 N 0.24580 0.81365 -0.17564
 C98 C 0.26851 0.81799 -0.15877
 C99 C 0.28307 0.84182 -0.16864
 C100 C 0.26775 0.85098 -0.19220
 H101 H 0.27340 0.80549 -0.13994
 H102 H 0.27220 0.86945 -0.20541
 H103 H 0.19525 0.82032 -0.18778
 H104 H 0.20965 0.79362 -0.21424
 Si105 Si 0.50095 0.99567 -0.00677
 Si106 Si 0.00638 0.50159 1.00509
 Si107 Si 0.99656 0.00335 0.49622
 C108 C 0.12532 0.35288 1.11608
 C109 C 0.14797 0.33865 1.10271
 C110 C 0.16123 0.31549 1.11602
 C111 C 0.15209 0.30565 1.14308
 C112 C 0.12981 0.32051 1.15672
 C113 C 0.11668 0.34380 1.14341
 C114 C 0.11024 0.37635 1.10114
 N115 N 0.08987 0.39183 1.11475
 N116 N 0.07555 0.41210 1.10090
 C117 C 0.08093 0.41769 1.07282
 N118 N 0.10143 0.40235 1.05928
 N119 N 0.11579 0.38215 1.07314
 C120 C 0.06411 0.43925 1.05695
 C121 C 0.06628 0.44122 1.02690
 C122 C 0.04934 0.46039 1.01172
 C123 C 0.03028 0.47827 1.02626
 C124 C 0.02819 0.47668 1.05623
 C125 C 0.04497 0.45733 1.07148
 H126 H 0.15533 0.34521 1.08173
 H127 H 0.17832 0.30516 1.10458
 H128 H 0.12210 0.31421 1.17760
 H129 H 0.09935 0.35433 1.15439
 H130 H 0.08063 0.42751 1.01498
 H131 H 0.05089 0.46102 0.98851
 H132 H 0.01318 0.48982 1.06788
 H133 H 0.04269 0.45630 1.09459
 C134 C -0.11371 0.64623 1.12264
 C135 C -0.10192 0.66246 1.14523
 C136 C -0.11765 0.68396 1.15895
 C137 C -0.14544 0.68986 1.15026
 C138 C -0.15732 0.67341 1.12790
 C139 C -0.14169 0.65181 1.11432
 C140 C -0.09682 0.62404 1.10743
 N141 N -0.10895 0.60659 1.08744
 N142 N -0.09366 0.58717 1.07319
 C143 C -0.06556 0.58440 1.07826
 N144 N -0.05345 0.60176 1.09835
 N145 N -0.06875 0.62114 1.11265
 C146 C -0.04842 0.56344 1.06167
 C147 C -0.01881 0.56322 1.06408
 C148 C -0.00264 0.54428 1.04746
 C149 C -0.01573 0.52498 1.02848
 C150 C -0.04521 0.52495 1.02610
 C151 C -0.06142 0.54396 1.04257
 H152 H -0.08046 0.65870 1.15224
 H153 H -0.10776 0.69630 1.17597
 H154 H -0.17877 0.67713 1.12088
 H155 H -0.15148 0.63971 1.09705
 H156 H -0.00807 0.57802 1.07842
 H157 H 0.02016 0.54488 1.04924
 H158 H -0.05580 0.51073 1.01111
 H159 H -0.08414 0.54359 1.04008
 C160 C -0.10914 0.34905 0.89245
 C161 C -0.13175 0.33472 0.90573
 C162 C -0.14581 0.31233 0.89160
 C163 C -0.13749 0.30357 0.86392
 C164 C -0.11511 0.31811 0.85048
 C165 C -0.10116 0.34066 0.86454
 C166 C -0.09362 0.37210 0.90794
 N167 N -0.07386 0.38826 0.89433
 N168 N -0.05950 0.40851 0.90850
 C169 C -0.06423 0.41339 0.93690
 N170 N -0.08405 0.39730 0.95046
 N171 N -0.09845 0.37713 0.93628
 C172 C -0.04777 0.43534 0.95295
 C173 C -0.04932 0.43681 0.98310
 C174 C -0.03324 0.45690 0.99837
 C175 C -0.01569 0.47620 0.98384
 C176 C -0.01404 0.47493 0.95381
 C177 C -0.02995 0.45465 0.93847
 H178 H -0.13853 0.34066 0.92717
 H179 H -0.16281 0.30153 0.90270
 H180 H -0.10834 0.31213 0.82906
 H181 H -0.08386 0.35125 0.85366
 H182 H -0.06264 0.42217 0.99498
 H183 H -0.03445 0.45732 1.02161
 H184 H -0.00019 0.48921 0.94216
 H185 H -0.02818 0.45405 0.91528
 C186 C 0.11183 0.65391 0.88421
 C187 C 0.14094 0.65864 0.88772
 C188 C 0.15445 0.68113 0.87340
 C189 C 0.13919 0.69941 0.85518
 C190 C 0.11015 0.69437 0.85134
 C191 C 0.09665 0.67194 0.86568
 C192 C 0.09722 0.63076 0.90019
 N193 N 0.06887 0.62710 0.89777
 N194 N 0.05558 0.60683 0.91266
 C195 C 0.07005 0.58931 0.93062
 N196 N 0.09843 0.59285 0.93294
 N197 N 0.11173 0.61314 0.91805
 C198 C 0.05505 0.56731 0.94779
 C199 C 0.07002 0.54892 0.96620
 C200 C 0.05571 0.52882 0.98305
 C201 C 0.02624 0.52667 0.98165
 C202 C 0.01123 0.54490 0.96338
 C203 C 0.02547 0.56493 0.94649
 H204 H 0.15333 0.64514 0.90176
 H205 H 0.17687 0.68411 0.87669
 H206 H 0.09760 0.70801 0.83765
 H207 H 0.07421 0.66893 0.86242
 H208 H 0.09278 0.55024 0.96787
 H209 H 0.06772 0.51543 0.99746
 H210 H -0.01159 0.54377 0.96233
 H211 H 0.01322 0.57879 0.93268
 C212 C 1.11630 0.11449 0.34753
 C213 C 1.14039 0.10189 0.33523
 C214 C 1.15495 0.11557 0.31308
 C215 C 1.14569 0.14222 0.30233
 C216 C 1.12174 0.15499 0.31512
 C217 C 1.10733 0.14134 0.33744
 C218 C 1.10028 0.09933 0.37024
 N219 N 1.07913 0.11270 0.38481
 N220 N 1.06429 0.09875 0.40466
 C221 C 1.06989 0.07080 0.41069
 N222 N 1.09110 0.05748 0.39620
 N223 N 1.10600 0.07145 0.37644
 C224 C 1.05283 0.05493 0.43209
 C225 C 1.05508 0.02488 0.43423
 C226 C 1.03837 0.00976 0.45370
 C227 C 1.01950 0.02438 0.47174
 C228 C 1.01716 0.05432 0.46979
 C229 C 1.03368 0.06949 0.45012
 H230 H 1.14801 0.08128 0.34261
 H231 H 1.17321 0.10475 0.30428
 H232 H 1.11380 0.17551 0.30800
 H233 H 1.08885 0.15169 0.34647
 H234 H 1.06941 0.01294 0.42052
 H235 H 1.04011 -0.01343 0.45460
 H236 H 1.00226 0.06601 0.48302
 H237 H 1.03134 0.09260 0.44895
 C238 C 1.10843 -0.11314 0.64683
 C239 C 1.09510 -0.13474 0.66283
 C240 C 1.10925 -0.14836 0.68528
 C241 C 1.13716 -0.14063 0.69255
 C242 C 1.15059 -0.11927 0.67605
 C243 C 1.13643 -0.10578 0.65352
 C244 C 1.09297 -0.09793 0.62378
 N245 N 1.10627 -0.07839 0.60693
 N246 N 1.09216 -0.06415 0.58678
 C247 C 1.06413 -0.06878 0.58267
 N248 N 1.05086 -0.08841 0.59943
 N249 N 1.06498 -0.10269 0.61952
 C250 C 1.04819 -0.05226 0.56090
 C251 C 1.01862 -0.05452 0.55922
 C252 C 1.00348 -0.03814 0.53948
 C253 C 1.01758 -0.01952 0.52080
 C254 C 1.04703 -0.01721 0.52226
 C255 C 1.06223 -0.03347 0.54211
 H256 H 1.07357 -0.14108 0.65818
 H257 H 1.09788 -0.16465 0.69702
 H258 H 1.17203 -0.11261 0.68041
 H259 H 1.14739 -0.08927 0.64159
 H260 H 1.00707 -0.06861 0.57344
 H261 H 0.98067 -0.03985 0.53893
 H262 H 1.05835 -0.00249 0.50854
 H263 H 1.08496 -0.03109 0.54289
 C264 C 0.87825 -0.11345 0.34923
 C265 C 0.85553 -0.10065 0.33482
 C266 C 0.84096 -0.11557 0.31330
 C267 C 0.84881 -0.14376 0.30536
 C268 C 0.87148 -0.15660 0.32013
 C269 C 0.88591 -0.14168 0.34178
 C270 C 0.89412 -0.09726 0.37153
 N271 N 0.91431 -0.11032 0.38752
 N272 N 0.92893 -0.09557 0.40714
 C273 C 0.92402 -0.06712 0.41156
 N274 N 0.90377 -0.05409 0.39564
 N275 N 0.88912 -0.06885 0.37608
 C276 C 0.94078 -0.05047 0.43283
 C277 C 0.93852 -0.02035 0.43428
 C278 C 0.95501 -0.00455 0.45362
 C279 C 0.97370 -0.01852 0.47214
 C280 C 0.97601 -0.04852 0.47091
 C281 C 0.95968 -0.06439 0.45143
 H282 H 0.84895 -0.07896 0.34009
 H283 H 0.82375 -0.10459 0.30284
 H284 H 0.87835 -0.17821 0.31516
 H285 H 0.90332 -0.15223 0.35245
 H286 H 0.92435 -0.00889 0.42018
 H287 H 0.95327 0.01867 0.45400
 H288 H 0.99076 -0.05975 0.48454
 H289 H 0.96203 -0.08753 0.45082
 C290 C 0.88590 0.12055 0.64840
 C291 C 0.85937 0.11085 0.65772
 C292 C 0.84615 0.12355 0.68146
 C293 C 0.85904 0.14644 0.69655
 C294 C 0.88525 0.15668 0.68646
 C295 C 0.89850 0.14383 0.66284
 C296 C 0.90081 0.10584 0.62446
 N297 N 0.92820 0.11210 0.61852
 N298 N 0.94204 0.09800 0.59791
 C299 C 0.92907 0.07706 0.58227
 N300 N 0.90159 0.07099 0.58801
 N301 N 0.88776 0.08504 0.60869
 C302 C 0.94490 0.06048 0.56026
 C303 C 0.93089 0.04100 0.54191
 C304 C 0.94608 0.02439 0.52211
 C305 C 0.97549 0.02699 0.52031
 C306 C 0.98954 0.04640 0.53845
 C307 C 0.97440 0.06317 0.55808
 H308 H 0.84899 0.09301 0.64703
 H309 H 0.82591 0.11501 0.68794
 H310 H 0.89609 0.17429 0.69696
 H311 H 0.91885 0.15202 0.65610
 H312 H 0.90821 0.03832 0.54306
 H313 H 0.93482 0.00910 0.50877
 H314 H 1.01232 0.04836 0.53763
 H315 H 0.98592 0.07779 0.57198
 C316 C 0.35106 1.10787 0.11061
 C317 C 0.34392 1.13621 0.10327
 C318 C 0.32165 1.15033 0.11713
 C319 C 0.30611 1.13650 0.13875
 C320 C 0.31358 1.10835 0.14642
 C321 C 0.33572 1.09418 0.13247
 C322 C 0.37390 1.09242 0.09515
 N323 N 0.37835 1.06397 0.09965
 N324 N 0.39831 1.04983 0.08522
 C325 C 0.41475 1.06354 0.06570
 N326 N 0.41043 1.09204 0.06131
 N327 N 0.39041 1.10617 0.07571
 C328 C 0.43640 1.04755 0.04906
 C329 C 0.45527 1.06209 0.03085
 C330 C 0.47509 1.04682 0.01454
 C331 C 0.47640 1.01680 0.01620
 C332 C 0.45763 1.00221 0.03422
 C333 C 0.43795 1.01741 0.05068
 H334 H 0.35530 1.14743 0.08656
 H335 H 0.31670 1.17210 0.11087
 H336 H 0.30198 1.09693 0.16281
 H337 H 0.34066 1.07238 0.13871
 H338 H 0.45459 1.08527 0.02900
 H339 H 0.48892 1.05852 0.00030
 H340 H 0.45808 0.97897 0.03543
 H341 H 0.42366 1.00547 0.06430
 C342 C 0.65097 1.11563 -0.11472
 C343 C 0.65882 1.10831 -0.14296
 C344 C 0.68149 1.12213 -0.15630
 C345 C 0.69676 1.14369 -0.14178
 C346 C 0.68850 1.15143 -0.11378
 C347 C 0.66594 1.13752 -0.10039
 C348 C 0.62787 1.10001 -0.09996
 N349 N 0.62266 1.10463 -0.07161
 N350 N 0.60258 1.08995 -0.05805
 C351 C 0.58678 1.07006 -0.07225
 N352 N 0.59184 1.06558 -0.10066
 N353 N 0.61198 1.08022 -0.11422
 C354 C 0.56511 1.05305 -0.05686
 C355 C 0.54703 1.03425 -0.07191
 C356 C 0.52731 1.01747 -0.05718
 C357 C 0.52531 1.01926 -0.02719
 C358 C 0.54323 1.03793 -0.01210
 C359 C 0.56281 1.05484 -0.02677
 H360 H 0.64771 1.09159 -0.15467
 H361 H 0.68704 1.11583 -0.17799
 H362 H 0.69982 1.16778 -0.10182
 H363 H 0.66045 1.14378 -0.07865
 H364 H 0.54828 1.03226 -0.09506
 H365 H 0.51412 1.00277 -0.06926
 H366 H 0.54223 1.03927 0.01112
 H367 H 0.57647 1.06893 -0.01445
 C368 C 0.35390 0.88379 -0.12793
 C369 C 0.33789 0.89806 -0.14887
 C370 C 0.31529 0.88426 -0.16244
 C371 C 0.30804 0.85587 -0.15536
 C372 C 0.32439 0.84139 -0.13484
 C373 C 0.34709 0.85517 -0.12132
 C374 C 0.37692 0.89903 -0.11249
 N375 N 0.39335 0.88509 -0.09315
 N376 N 0.41330 0.89912 -0.07851
 C377 C 0.41762 0.92768 -0.08255
 N378 N 0.40131 0.94155 -0.10203
 N379 N 0.38142 0.92753 -0.11669
 C380 C 0.43893 0.94364 -0.06539
 C381 C 0.44062 0.97378 -0.06698
 C382 C 0.45967 0.98901 -0.04979
 C383 C 0.47765 0.97445 -0.03099
 C384 C 0.47632 0.94441 -0.02946
 C385 C 0.45713 0.92911 -0.04654
 H386 H 0.34257 0.92008 -0.15457
 H387 H 0.30316 0.89620 -0.17799
 H388 H 0.31966 0.81942 -0.12907
 H389 H 0.35901 0.84348 -0.10537
 H390 H 0.42685 0.98571 -0.08111
 H391 H 0.46015 1.01225 -0.05093
 H392 H 0.48956 0.93274 -0.01466
 H393 H 0.45634 0.90594 -0.04470
 C394 C 0.64565 0.87782 0.11006
 C395 C 0.65111 0.88479 0.13896
 C396 C 0.67282 0.87113 0.15391
 C397 C 0.68952 0.85007 0.14037
 C398 C 0.68374 0.84275 0.11162
 C399 C 0.66213 0.85651 0.09663
 C400 C 0.62339 0.89312 0.09382
 N401 N 0.62009 0.88856 0.06517
 N402 N 0.60067 0.90291 0.05038
 C403 C 0.58366 0.92240 0.06361
 N404 N 0.58681 0.92682 0.09231
 N405 N 0.60628 0.91251 0.10709
 C406 C 0.56269 0.93906 0.04694
 C407 C 0.54377 0.95781 0.06089
 C408 C 0.52476 0.97431 0.04504
 C409 C 0.52428 0.97229 0.01500
 C410 C 0.54302 0.95364 0.00099
 C411 C 0.56193 0.93701 0.01679
 H412 H 0.63882 0.90106 0.15001
 H413 H 0.67644 0.87709 0.17611
 H414 H 0.69625 0.82680 0.10040
 H415 H 0.65851 0.85056 0.07441
 H416 H 0.54383 0.96001 0.08406
 H417 H 0.51093 0.98903 0.05632
 H418 H 0.54320 0.95212 -0.02224
 H419 H 0.57626 0.92293 0.00531
   
