data_POSCAR
  _audit_creation_date              2014-09-24
  _audit_creation_method            'ToBaCCo'
  _symmetry_space_group_name_H-M    'P1'
  _symmetry_Int_Tables_number       1
  _symmetry_cell_setting            triclinic
  loop_
  _symmetry_equiv_pos_as_xyz
 x,y,z
_cell_length_a 48.0766
_cell_length_b 47.4798
_cell_length_c 48.1321
_cell_angle_alpha 89.972700
_cell_angle_beta 89.987300
_cell_angle_gamma 90.005100
loop_
  _atom_site_label
  _atom_site_type_symbol
  _atom_site_fract_x
  _atom_site_fract_y
  _atom_site_fract_z
N1 N 0.59322 0.66937 0.61270
 N2 N 0.58236 0.65785 0.63509
 C3 C 0.55977 0.67275 0.64277
 C4 C 0.55650 0.69459 0.62419
 C5 C 0.57794 0.69196 0.60538
 H6 H 0.54668 0.66815 0.66048
 H7 H 0.58209 0.70544 0.58775
 Cu8 Cu 0.59889 0.62456 0.65191
 Cu9 Cu 0.62631 0.65428 0.59474
 Cu10 Cu 0.65609 0.59491 0.62443
 N11 N 0.61576 0.59127 0.66839
 N12 N 0.63816 0.57978 0.65751
 C13 C 0.64554 0.55719 0.67276
 C14 C 0.62673 0.55456 0.69419
 C15 C 0.60809 0.57636 0.69097
 H16 H 0.66321 0.54373 0.66857
 H17 H 0.59037 0.58096 0.70406
 N18 N 0.67116 0.61331 0.59093
 N19 N 0.65982 0.63592 0.57962
 C20 C 0.67480 0.64342 0.55713
 C21 C 0.69643 0.62464 0.55432
 C22 C 0.69365 0.60584 0.57593
 H23 H 0.67037 0.66117 0.54377
 H24 H 0.70704 0.58809 0.58032
 H25 H 0.62085 0.61313 0.60765
 H26 H 0.64316 0.63605 0.62991
 N27 N 0.90743 0.32965 0.11255
 N28 N 0.91799 0.34083 0.13524
 C29 C 0.94055 0.32590 0.14296
 C30 C 0.94408 0.30439 0.12407
 C31 C 0.92286 0.30723 0.10505
 H32 H 0.95341 0.33028 0.16087
 H33 H 0.91894 0.29403 0.08716
 Cu34 Cu 0.90122 0.37380 0.15244
 Cu35 Cu 0.87453 0.34495 0.09445
 Cu36 Cu 0.84486 0.40436 0.12404
 N37 N 0.88470 0.40750 0.16843
 N38 N 0.86265 0.41934 0.15722
 C39 C 0.85552 0.44215 0.17224
 C40 C 0.87411 0.44460 0.19388
 C41 C 0.89236 0.42242 0.19099
 H42 H 0.83815 0.45591 0.16778
 H43 H 0.90984 0.41760 0.20430
 N44 N 0.82988 0.38612 0.09047
 N45 N 0.84119 0.36348 0.07919
 C46 C 0.82627 0.35607 0.05664
 C47 C 0.80472 0.37494 0.05376
 C48 C 0.80748 0.39369 0.07539
 H49 H 0.83067 0.33829 0.04331
 H50 H 0.79413 0.41147 0.07976
 H51 H 0.88029 0.38591 0.10787
 H52 H 0.85724 0.36304 0.12949
 N53 N 0.40668 0.17053 -0.11284
 N54 N 0.41724 0.15932 -0.13551
 C55 C 0.43983 0.17423 -0.14321
 C56 C 0.44340 0.19575 -0.12435
 C57 C 0.42215 0.19292 -0.10536
 H58 H 0.45271 0.16983 -0.16110
 H59 H 0.41824 0.20614 -0.08748
 Cu60 Cu 0.40045 0.12637 -0.15271
 Cu61 Cu 0.37374 0.15528 -0.09475
 Cu62 Cu 0.34402 0.09589 -0.12431
 N63 N 0.38390 0.09267 -0.16868
 N64 N 0.36183 0.08085 -0.15747
 C65 C 0.35469 0.05803 -0.17246
 C66 C 0.37331 0.05554 -0.19409
 C67 C 0.39158 0.07771 -0.19121
 H68 H 0.33732 0.04429 -0.16800
 H69 H 0.40908 0.08250 -0.20451
 N70 N 0.32903 0.11418 -0.09077
 N71 N 0.34036 0.13681 -0.07950
 C72 C 0.32542 0.14426 -0.05697
 C73 C 0.30384 0.12542 -0.05409
 C74 C 0.30660 0.10664 -0.07570
 H75 H 0.32983 0.16203 -0.04364
 H76 H 0.29322 0.08887 -0.08007
 H77 H 0.37947 0.11431 -0.10814
 H78 H 0.35646 0.13719 -0.12978
 N79 N 0.09230 0.82980 0.38771
 N80 N 0.08141 0.84136 0.36536
 C81 C 0.05883 0.82645 0.35765
 C82 C 0.05564 0.80457 0.37619
 C83 C 0.07708 0.80716 0.39500
 H84 H 0.04573 0.83109 0.33996
 H85 H 0.08129 0.79364 0.41261
 Cu86 Cu 0.09787 0.87474 0.34861
 Cu87 Cu 0.12539 0.84491 0.40567
 Cu88 Cu 0.15505 0.90442 0.37610
 N89 N 0.11467 0.90810 0.33220
 N90 N 0.13706 0.91961 0.34308
 C91 C 0.14438 0.94224 0.32787
 C92 C 0.12557 0.94492 0.30645
 C93 C 0.10699 0.92306 0.30966
 H94 H 0.16203 0.95572 0.33205
 H95 H 0.08929 0.91847 0.29657
 N96 N 0.17018 0.88596 0.40952
 N97 N 0.15888 0.86330 0.42079
 C98 C 0.17389 0.85577 0.44324
 C99 C 0.19549 0.87459 0.44607
 C100 C 0.19267 0.89344 0.42452
 H101 H 0.16951 0.83797 0.45656
 H102 H 0.20602 0.91123 0.42015
 H103 H 0.11984 0.88609 0.39287
 H104 H 0.14218 0.86327 0.37052
 C105 C 0.10416 0.14541 0.12530
 N106 N 0.12413 0.14540 0.10537
 C107 C 0.14423 0.12533 0.10554
 N108 N 0.14435 0.10527 0.12563
 C109 C 0.12438 0.10527 0.14556
 N110 N 0.10429 0.12534 0.14539
 C111 C 0.39525 0.85468 0.62538
 N112 N 0.37529 0.85464 0.60545
 C113 C 0.35515 0.87466 0.60558
 N114 N 0.35497 0.89472 0.62565
 C115 C 0.37493 0.89477 0.64559
 N116 N 0.39507 0.87474 0.64545
 C117 C 0.89590 0.64522 0.37472
 N118 N 0.89574 0.62520 0.35460
 C119 C 0.87567 0.60510 0.35446
 N120 N 0.85575 0.60503 0.37444
 C121 C 0.85590 0.62505 0.39456
 N122 N 0.87597 0.64514 0.39469
 C123 C 0.60507 0.35544 -0.12563
 N124 N 0.60527 0.37549 -0.14572
 C125 C 0.62544 0.39549 -0.14591
 N126 N 0.64541 0.39543 -0.12600
 C127 C 0.64522 0.37538 -0.10590
 N128 N 0.62505 0.35538 -0.10571
 C129 C 0.00355 0.24549 0.12451
 N130 N 0.03078 0.25295 0.12473
 N131 N 0.05057 0.23329 0.12487
 C132 C 0.04372 0.20558 0.12481
 N133 N 0.01649 0.19812 0.12459
 N134 N -0.00330 0.21778 0.12444
 C135 C -0.01776 0.26664 0.12435
 C136 C -0.03569 0.28440 0.12422
 C137 C 0.06502 0.18441 0.12497
 C138 C 0.08290 0.16661 0.12512
 C139 C 0.49593 0.75467 0.62473
 N140 N 0.46870 0.74720 0.62488
 N141 N 0.44891 0.76685 0.62501
 C142 C 0.45575 0.79456 0.62500
 N143 N 0.48298 0.80203 0.62485
 N144 N 0.50277 0.78238 0.62472
 C145 C 0.51724 0.73351 0.62456
 C146 C 0.53515 0.71575 0.62440
 C147 C 0.43444 0.81572 0.62512
 C148 C 0.41655 0.83351 0.62523
 C149 C 0.99634 0.74549 0.37555
 N150 N 1.00324 0.71779 0.37562
 N151 N 0.98349 0.69809 0.37544
 C152 C 0.95625 0.70549 0.37519
 N153 N 0.94934 0.73319 0.37512
 N154 N 0.96909 0.75289 0.37530
 C155 C 1.01760 0.76670 0.37577
 C156 C 1.03547 0.78450 0.37596
 C157 C 0.93499 0.68428 0.37501
 C158 C 0.91714 0.66645 0.37487
 C159 C 0.50416 0.25565 -0.12478
 N160 N 0.49739 0.28338 -0.12480
 N161 N 0.51723 0.30298 -0.12495
 C162 C 0.54444 0.29545 -0.12509
 N163 N 0.55121 0.26772 -0.12507
 N164 N 0.53137 0.24811 -0.12492
 C165 C 0.48279 0.23454 -0.12462
 C166 C 0.46483 0.21683 -0.12450
 C167 C 0.56580 0.31656 -0.12527
 C168 C 0.58373 0.33430 -0.12543
 C169 C 0.12506 0.00509 0.24600
 N170 N 0.14725 0.00822 0.22887
 N171 N 0.14711 0.02790 0.20912
 C172 C 0.12477 0.04504 0.20591
 N173 N 0.10258 0.04191 0.22304
 N174 N 0.10273 0.02222 0.24279
 C175 C 0.12523 -0.01610 0.26727
 C176 C 0.12537 -0.03389 0.28515
 C177 C 0.12462 0.06624 0.18465
 C178 C 0.12451 0.08406 0.16680
 C179 C 0.62626 0.49559 -0.24644
 N180 N 0.60859 0.47339 -0.24808
 N181 N 0.60843 0.45372 -0.22831
 C182 C 0.62596 0.45566 -0.20631
 N183 N 0.64364 0.47786 -0.20468
 N184 N 0.64379 0.49753 -0.22445
 C185 C 0.62643 0.51675 -0.26773
 C186 C 0.62656 0.53453 -0.28562
 C187 C 0.62579 0.43449 -0.18503
 C188 C 0.62564 0.41669 -0.16717
 C189 C 0.37402 0.99512 0.74578
 N190 N 0.35660 0.97271 0.74743
 N191 N 0.35679 0.95297 0.72775
 C192 C 0.37440 0.95505 0.70583
 N193 N 0.39182 0.97746 0.70417
 N194 N 0.39163 0.99720 0.72385
 C195 C 0.37380 1.01639 0.76695
 C196 C 0.37359 1.03425 0.78473
 C197 C 0.37458 0.93382 0.68463
 C198 C 0.37473 0.91598 0.66681
 C199 C 0.87481 0.50494 0.25409
 N200 N 0.89481 0.50490 0.27397
 N201 N 0.89499 0.52460 0.29368
 C202 C 0.87519 0.54494 0.29411
 N203 N 0.85520 0.54498 0.27423
 N204 N 0.85501 0.52528 0.25452
 C205 C 0.87459 0.48371 0.23289
 C206 C 0.87438 0.46586 0.21509
 C207 C 0.87537 0.56613 0.31535
 C208 C 0.87551 0.58393 0.33320
 C209 C 0.24396 0.12537 0.00589
 N210 N 0.23396 0.10072 0.01607
 N211 N 0.21437 0.10071 0.03566
 C212 C 0.20418 0.12534 0.04566
 N213 N 0.21418 0.14998 0.03548
 N214 N 0.23378 0.14999 0.01589
 C215 C 0.26505 0.12538 -0.01521
 C216 C 0.28276 0.12540 -0.03295
 C217 C 0.18308 0.12532 0.06675
 C218 C 0.16535 0.12532 0.08446
 C219 C 0.75632 0.62474 0.49436
 N220 N 0.78175 0.63591 0.49956
 N221 N 0.80133 0.63596 0.47995
 C222 C 0.79606 0.62485 0.45454
 N223 N 0.77062 0.61367 0.44933
 N224 N 0.75105 0.61362 0.46894
 C225 C 0.73524 0.62469 0.51547
 C226 C 0.71753 0.62466 0.53320
 C227 C 0.81713 0.62490 0.43343
 C228 C 0.83483 0.62496 0.41568
 C229 C 0.74491 0.37510 -0.00626
 N230 N 0.73452 0.39976 -0.01599
 N231 N 0.71494 0.39981 -0.03559
 C232 C 0.70516 0.37521 -0.04604
 N233 N 0.71555 0.35055 -0.03631
 N234 N 0.73513 0.35050 -0.01671
 C235 C 0.76598 0.37504 0.01486
 C236 C 0.78366 0.37499 0.03260
 C237 C 0.68407 0.37527 -0.06713
 C238 C 0.66634 0.37532 -0.08483
 C239 C 0.25544 0.87456 0.50596
 N240 N 0.27184 0.85164 0.50977
 N241 N 0.29144 0.85165 0.52935
 C242 C 0.29522 0.87458 0.54571
 N243 N 0.27882 0.89750 0.54190
 N244 N 0.25923 0.89749 0.52232
 C245 C 0.23434 0.87455 0.48488
 C246 C 0.21662 0.87456 0.46717
 C247 C 0.31632 0.87459 0.56679
 C248 C 0.33404 0.87461 0.58450
   
