data_POSCAR
  _audit_creation_date              2014-09-24
  _audit_creation_method            'ToBaCCo'
  _symmetry_space_group_name_H-M    'P1'
  _symmetry_Int_Tables_number       1
  _symmetry_cell_setting            triclinic
  loop_
  _symmetry_equiv_pos_as_xyz
 x,y,z
_cell_length_a 12.2840
_cell_length_b 12.2840
_cell_length_c 19.7797
_cell_angle_alpha 79.887400
_cell_angle_beta 100.112600
_cell_angle_gamma 82.752000
loop_
  _atom_site_label
  _atom_site_type_symbol
  _atom_site_fract_x
  _atom_site_fract_y
  _atom_site_fract_z
O1 O -0.07659 0.63789 0.91550
 O2 O -0.12295 0.39344 1.03810
 O3 O -0.11783 0.60247 1.04116
 O4 O -0.08019 0.42368 0.91268
 O5 O 0.10154 0.38459 0.95761
 O6 O 0.06414 0.56239 1.08584
 O7 O 0.05898 0.35391 1.08283
 O8 O 0.10511 0.59819 0.96047
 Cu9 Cu -0.11766 0.51852 0.97179
 Cu10 Cu 0.10095 0.47084 1.02570
 C11 C 0.02177 0.66089 0.91844
 C12 C -0.03973 0.33272 1.08129
 C13 C -0.03300 0.61218 1.08526
 C14 C 0.01684 0.37188 0.91455
 O15 O 0.64607 -0.05900 0.58283
 O16 O 0.40179 -0.10513 0.46047
 O17 O 0.61539 -0.10156 0.45761
 O18 O 0.43759 -0.06416 0.58584
 O19 O 0.39751 0.11781 0.54116
 O20 O 0.57630 0.08017 0.41268
 O21 O 0.36209 0.07657 0.41550
 O22 O 0.60653 0.12293 0.53810
 Cu23 Cu 0.52914 -0.10097 0.52570
 Cu24 Cu 0.48146 0.11764 0.47179
 C25 C 0.66726 0.03971 0.58129
 C26 C 0.33909 -0.02179 0.41844
 C27 C 0.62810 -0.01686 0.41455
 C28 C 0.38780 0.03298 0.58526
 C29 C -0.05550 -0.15786 0.21021
 C30 C -0.14661 -0.15296 0.25381
 C31 C -0.14778 -0.06581 0.28816
 C32 C -0.05747 0.00811 0.27601
 C33 C -0.07575 -0.04273 0.16159
 C34 C -0.07619 0.04401 0.19584
 C35 C 0.05480 -0.16154 0.26152
 C36 C 0.05386 -0.07434 0.29576
 H37 H -0.20492 -0.21232 0.25701
 H38 H -0.05891 0.07892 0.30411
 H39 H -0.07786 -0.03141 0.10556
 H40 H 0.12890 -0.22354 0.26713
 C41 C 0.15784 0.05548 0.71021
 C42 C 0.16152 -0.05482 0.76152
 C43 C 0.07432 -0.05388 0.79576
 C44 C -0.00813 0.05745 0.77601
 C45 C 0.04271 0.07573 0.66159
 C46 C -0.04403 0.07617 0.69584
 C47 C 0.15294 0.14659 0.75381
 C48 C 0.06579 0.14776 0.78816
 H49 H 0.22352 -0.12892 0.76713
 H50 H -0.07894 0.05889 0.80411
 H51 H 0.03139 0.07784 0.60556
 H52 H 0.21230 0.20490 0.75701
 C53 C -0.04559 -0.31452 0.13307
 C54 C -0.05233 -0.24742 0.17032
 C55 C -0.05552 0.23995 0.12426
 C56 C -0.06692 0.15335 0.15943
 C57 C 0.31450 0.04557 0.63307
 C58 C 0.24740 0.05231 0.67032
 C59 C -0.23997 0.05550 0.62426
 C60 C -0.15337 0.06690 0.65943
 C61 C 0.03898 -0.23877 0.87473
 C62 C 0.05438 -0.15407 0.83894
 C63 C 0.03120 0.29481 0.86864
 C64 C 0.04556 0.22803 0.83167
 C65 C -0.29483 -0.03122 0.36864
 C66 C -0.22805 -0.04558 0.33167
 C67 C 0.23875 -0.03900 0.37473
 C68 C 0.15405 -0.05440 0.33894
   
