data_POSCAR
  _audit_creation_date              2014-09-24
  _audit_creation_method            'ToBaCCo'
  _symmetry_space_group_name_H-M    'P1'
  _symmetry_Int_Tables_number       1
  _symmetry_cell_setting            triclinic
  loop_
  _symmetry_equiv_pos_as_xyz
 x,y,z
_cell_length_a 19.9815
_cell_length_b 19.9815
_cell_length_c 37.3540
_cell_angle_alpha 90.000000
_cell_angle_beta 90.000000
_cell_angle_gamma 119.999500
loop_
  _atom_site_label
  _atom_site_type_symbol
  _atom_site_fract_x
  _atom_site_fract_y
  _atom_site_fract_z
Zn1 Zn 0.94901 0.04905 1.01595
 Zn2 Zn 1.10003 0.05100 1.01595
 Zn3 Zn 0.95097 -0.10002 1.01595
 Zn4 Zn 1.00001 0.00001 0.95087
 O5 O 1.00001 0.00001 0.99975
 O6 O 1.00883 0.13121 1.04334
 O7 O 1.12238 -0.00882 1.04334
 O8 O 0.86880 -0.12237 1.04334
 O9 O 1.12083 0.13330 1.04302
 O10 O 0.86671 -0.01245 1.04302
 O11 O 1.01247 -0.12082 1.04302
 O12 O 0.95150 -0.09512 0.93229
 O13 O 1.16997 0.08560 0.98042
 O14 O 0.91563 -0.16995 0.98042
 O15 O 1.09513 0.04663 0.93229
 O16 O 0.95338 0.04852 0.93229
 O17 O 0.91442 0.08439 0.98042
 C18 C 1.07885 0.16094 1.05288
 C19 C 1.08209 -0.07884 1.05288
 C20 C 0.83907 -0.08208 1.05288
 C21 C 0.91875 -0.16135 0.94673
 C22 C 1.16136 0.08011 0.94673
 C23 C 0.91991 0.08127 0.94673
 Zn24 Zn 0.05100 0.95097 0.51596
 Zn25 Zn -0.10002 0.94902 0.51596
 Zn26 Zn 0.04904 1.10004 0.51596
 Zn27 Zn 0.00000 1.00001 0.45087
 O28 O 0.00000 1.00001 0.49975
 O29 O -0.00882 0.86881 0.54334
 O30 O -0.12237 1.00884 0.54334
 O31 O 0.13121 1.12239 0.54334
 O32 O -0.12082 0.86672 0.54302
 O33 O 0.13330 1.01247 0.54302
 O34 O -0.01246 1.12084 0.54302
 O35 O 0.04851 1.09514 0.43229
 O36 O -0.16996 0.91442 0.48043
 O37 O 0.08438 1.16997 0.48043
 O38 O -0.09512 0.95339 0.43229
 O39 O 0.04663 0.95150 0.43229
 O40 O 0.08559 0.91563 0.48043
 C41 C -0.07884 0.83907 0.55288
 C42 C -0.08208 1.07886 0.55288
 C43 C 0.16094 1.08210 0.55288
 C44 C 0.08127 1.16137 0.44673
 C45 C -0.16135 0.91991 0.44673
 C46 C 0.08011 0.91875 0.44673
 O47 O 0.21716 0.53255 0.27969
 O48 O 0.22058 0.66310 0.29113
 C49 C 0.25657 0.73504 0.29757
 O50 O 0.31538 0.78285 0.27969
 O51 O 0.44252 0.77943 0.29113
 C52 C 0.47847 0.74344 0.29757
 O53 O 0.46746 0.68463 0.27969
 O54 O 0.33691 0.55749 0.29113
 C55 C 0.26498 0.52154 0.29756
 O56 O 0.22042 0.55743 0.20859
 O57 O 0.21724 0.68479 0.22003
 C58 C 0.26503 0.74377 0.20223
 O59 O 0.33701 0.77960 0.20859
 O60 O 0.46756 0.78277 0.22003
 C61 C 0.47874 0.73498 0.20223
 O62 O 0.44259 0.66300 0.20859
 O63 O 0.31522 0.53246 0.22003
 C64 C 0.25624 0.52127 0.20223
 Cr65 Cr 0.22311 0.61160 0.24985
 Cr66 Cr 0.38849 0.77690 0.24985
 Cr67 Cr 0.38841 0.61152 0.24985
 O68 O 0.33334 0.66667 0.24983
 O69 O 0.78284 0.46747 0.77969
 O70 O 0.77943 0.33692 0.79113
 C71 C 0.74344 0.26499 0.79757
 O72 O 0.68463 0.21718 0.77969
 O73 O 0.55749 0.22059 0.79113
 C74 C 0.52154 0.25658 0.79757
 O75 O 0.53254 0.31539 0.77969
 O76 O 0.66309 0.44253 0.79113
 C77 C 0.73503 0.47848 0.79757
 O78 O 0.77958 0.44258 0.70859
 O79 O 0.78277 0.31522 0.72003
 C80 C 0.73498 0.25625 0.70223
 O81 O 0.66300 0.22043 0.70859
 O82 O 0.53245 0.21725 0.72003
 C83 C 0.52127 0.26504 0.70223
 O84 O 0.55743 0.33702 0.70859
 O85 O 0.68479 0.46757 0.72003
 C86 C 0.74376 0.47875 0.70223
 Cr87 Cr 0.77690 0.38842 0.74985
 Cr88 Cr 0.61152 0.22312 0.74985
 Cr89 Cr 0.61160 0.38850 0.74985
 O90 O 0.66667 0.33335 0.74983
 C91 C 0.16926 0.34415 0.12155
 C92 C 0.23763 0.36318 0.13979
 C93 C 0.26653 0.42163 0.16559
 C94 C 0.11103 0.22682 0.07619
 C95 C 0.15924 0.44327 0.15464
 C96 C 0.13040 0.38464 0.12883
 C97 C 0.13765 0.28099 0.09648
 C98 C 0.22731 0.46194 0.17358
 H99 H 0.26809 0.33210 0.13442
 H100 H 0.31914 0.43453 0.17956
 H101 H 0.12763 0.47311 0.16010
 H102 H 0.07728 0.37022 0.11492
 C103 C 0.65587 0.82512 0.12155
 C104 C 0.63684 0.87446 0.13980
 C105 C 0.57839 0.84492 0.16559
 C106 C 0.77320 0.88422 0.07619
 C107 C 0.55674 0.71598 0.15463
 C108 C 0.61537 0.74577 0.12883
 C109 C 0.71902 0.85667 0.09648
 C110 C 0.53808 0.76538 0.17359
 H111 H 0.66792 0.93600 0.13443
 H112 H 0.56549 0.88462 0.17956
 H113 H 0.52690 0.65453 0.16010
 H114 H 0.62980 0.70707 0.11491
 C115 C 0.17490 0.83076 0.12155
 C116 C 0.25425 0.86962 0.12883
 C117 C 0.28403 0.84077 0.15463
 C118 C 0.11579 0.88899 0.07619
 C119 C 0.15510 0.73348 0.16559
 C120 C 0.12556 0.76239 0.13979
 C121 C 0.14334 0.86236 0.09648
 C122 C 0.23463 0.77270 0.17359
 H123 H 0.29294 0.92273 0.11491
 H124 H 0.34548 0.87238 0.16010
 H125 H 0.11540 0.68088 0.17956
 H126 H 0.06402 0.73193 0.13443
 C127 C 0.83075 0.65587 0.62155
 C128 C 0.86961 0.61537 0.62883
 C129 C 0.84077 0.55674 0.65464
 C130 C 0.88898 0.77320 0.57619
 C131 C 0.73348 0.57839 0.66559
 C132 C 0.76238 0.63684 0.63979
 C133 C 0.86236 0.71902 0.59648
 C134 C 0.77270 0.53808 0.67359
 H135 H 0.92273 0.62980 0.61492
 H136 H 0.87237 0.52690 0.66010
 H137 H 0.68087 0.56549 0.67956
 H138 H 0.73193 0.66792 0.63443
 C139 C 0.34415 0.17490 0.62155
 C140 C 0.36318 0.12556 0.63980
 C141 C 0.42162 0.15511 0.66559
 C142 C 0.22681 0.11580 0.57619
 C143 C 0.44327 0.28404 0.65463
 C144 C 0.38464 0.25425 0.62883
 C145 C 0.28099 0.14335 0.59648
 C146 C 0.46193 0.23464 0.67359
 H147 H 0.33210 0.06403 0.63443
 H148 H 0.43452 0.11540 0.67956
 H149 H 0.47311 0.34549 0.66010
 H150 H 0.37022 0.29295 0.61491
 C151 C 0.82511 0.16927 0.62155
 C152 C 0.74576 0.13041 0.62883
 C153 C 0.71598 0.15925 0.65464
 C154 C 0.88422 0.11103 0.57619
 C155 C 0.84491 0.26654 0.66559
 C156 C 0.87445 0.23763 0.63979
 C157 C 0.85667 0.13766 0.59648
 C158 C 0.76538 0.22732 0.67359
 H159 H 0.70707 0.07729 0.61492
 H160 H 0.65453 0.12764 0.66010
 H161 H 0.88461 0.31914 0.67956
 H162 H 0.93599 0.26809 0.63443
 C163 C 0.34592 0.17089 0.87891
 C164 C 0.36496 0.23922 0.86064
 C165 C 0.42293 0.26771 0.83463
 C166 C 0.22816 0.11261 0.92401
 C167 C 0.44414 0.16010 0.84543
 C168 C 0.38598 0.13166 0.87146
 C169 C 0.28272 0.13934 0.90394
 C170 C 0.46273 0.22808 0.82643
 H171 H 0.33415 0.26991 0.86612
 H172 H 0.43582 0.32029 0.82063
 H173 H 0.47362 0.12820 0.83982
 H174 H 0.37147 0.07852 0.88536
 C175 C 0.82496 0.65409 0.87891
 C176 C 0.74569 0.61404 0.87146
 C177 C 0.71595 0.55588 0.84544
 C178 C 0.88445 0.77185 0.92401
 C179 C 0.84478 0.57709 0.83462
 C180 C 0.87427 0.63506 0.86064
 C181 C 0.85662 0.71730 0.90394
 C182 C 0.76535 0.53729 0.82643
 H183 H 0.70704 0.62854 0.88537
 H184 H 0.65457 0.52639 0.83983
 H185 H 0.88446 0.56420 0.82062
 H186 H 0.93576 0.66587 0.86611
 C187 C 0.82913 0.17505 0.87891
 C188 C 0.86835 0.25433 0.87146
 C189 C 0.83992 0.28406 0.84543
 C190 C 0.88740 0.11556 0.92401
 C191 C 0.73231 0.15524 0.83463
 C192 C 0.76079 0.12575 0.86064
 C193 C 0.86067 0.14340 0.90395
 C194 C 0.77194 0.23467 0.82643
 H195 H 0.92150 0.29297 0.88537
 H196 H 0.87182 0.34544 0.83983
 H197 H 0.67974 0.11556 0.82063
 H198 H 0.73011 0.06426 0.86612
 C199 C 0.65409 0.82913 0.37891
 C200 C 0.61403 0.86835 0.37146
 C201 C 0.55587 0.83992 0.34543
 C202 C 0.77185 0.88740 0.42401
 C203 C 0.57708 0.73230 0.33463
 C204 C 0.63505 0.76079 0.36064
 C205 C 0.71729 0.86068 0.40395
 C206 C 0.53728 0.77194 0.32643
 H207 H 0.62854 0.92150 0.38537
 H208 H 0.52639 0.87182 0.33982
 H209 H 0.56419 0.67973 0.32063
 H210 H 0.66586 0.73011 0.36612
 C211 C 0.17505 0.34593 0.37891
 C212 C 0.12574 0.36496 0.36064
 C213 C 0.15523 0.42293 0.33462
 C214 C 0.11556 0.22817 0.42401
 C215 C 0.28406 0.44414 0.34543
 C216 C 0.25433 0.38598 0.37146
 C217 C 0.14339 0.28272 0.40395
 C218 C 0.23466 0.46273 0.32643
 H219 H 0.06425 0.33415 0.36611
 H220 H 0.11555 0.43582 0.32062
 H221 H 0.34544 0.47363 0.33983
 H222 H 0.29297 0.37148 0.38537
 C223 C 0.17089 0.82497 0.37891
 C224 C 0.13166 0.74569 0.37146
 C225 C 0.16009 0.71596 0.34543
 C226 C 0.11261 0.88445 0.42401
 C227 C 0.26770 0.84478 0.33463
 C228 C 0.23922 0.87427 0.36064
 C229 C 0.13934 0.85662 0.40395
 C230 C 0.22807 0.76535 0.32643
 H231 H 0.07852 0.70705 0.38537
 H232 H 0.12819 0.65458 0.33983
 H233 H 0.32027 0.88446 0.32063
 H234 H 0.26990 0.93576 0.36612
   
