data_POSCAR
  _audit_creation_date              2014-09-24
  _audit_creation_method            'ToBaCCo'
  _symmetry_space_group_name_H-M    'P1'
  _symmetry_Int_Tables_number       1
  _symmetry_cell_setting            triclinic
  loop_
  _symmetry_equiv_pos_as_xyz
 x,y,z
_cell_length_a 39.6319
_cell_length_b 39.6886
_cell_length_c 13.0889
_cell_angle_alpha 90.047100
_cell_angle_beta 89.956600
_cell_angle_gamma 119.895500
loop_
  _atom_site_label
  _atom_site_type_symbol
  _atom_site_fract_x
  _atom_site_fract_y
  _atom_site_fract_z
C1 C 0.20316 0.47077 0.44820
 C2 C 0.20188 0.46678 0.55720
 C3 C 0.23047 0.46138 0.60645
 C4 C 0.26325 0.46480 0.55450
 C5 C 0.26561 0.47153 0.44695
 C6 C 0.23575 0.47387 0.39641
 H7 H 0.23788 0.47722 0.31402
 H8 H 0.22869 0.45765 0.68868
 C9 C 0.53143 -0.26605 0.44764
 C10 C 0.53013 -0.26549 0.55669
 C11 C 0.53159 -0.23362 0.60726
 C12 C 0.53170 -0.20264 0.55435
 C13 C 0.53043 -0.20447 0.44531
 C14 C 0.53162 -0.23503 0.39475
 H15 H 0.53161 -0.23479 0.31190
 H16 H 0.53155 -0.23388 0.69011
 C17 C 1.26574 0.79815 0.44668
 C18 C 1.26638 0.79643 0.55589
 C19 C 1.23562 0.76563 0.60787
 C20 C 1.20508 0.73484 0.55577
 C21 C 1.20433 0.73529 0.44751
 C22 C 1.23400 0.76728 0.39511
 H23 H 1.23265 0.76723 0.31241
 H24 H 1.23610 0.76499 0.69076
 C25 C 0.79490 0.52902 0.44593
 C26 C 0.79709 0.53234 0.55474
 C27 C 0.76674 0.53449 0.60620
 C28 C 0.73418 0.53201 0.55432
 C29 C 0.73334 0.52887 0.44550
 C30 C 0.76382 0.52824 0.39406
 H31 H 0.76285 0.52614 0.31124
 H32 H 0.76788 0.53694 0.68866
 C33 C 0.47072 0.26606 0.44630
 C34 C 0.46694 0.26479 0.55500
 C35 C 0.46460 0.23231 0.60646
 C36 C 0.46729 0.20234 0.55488
 C37 C 0.47096 0.20474 0.44614
 C38 C 0.47179 0.23587 0.39455
 H39 H 0.47422 0.23708 0.31181
 H40 H 0.46178 0.23090 0.68884
 C41 C 0.73502 0.20410 0.44847
 C42 C 0.73612 0.20472 0.55674
 C43 C 0.76830 0.23486 0.60700
 C44 C 0.79879 0.26615 0.55328
 C45 C 0.79657 0.26561 0.44408
 C46 C 0.76560 0.23418 0.39425
 H47 H 0.76459 0.23388 0.31137
 H48 H 0.76856 0.23427 0.68978
 N49 N 0.95863 0.53946 0.11084
 N50 N 0.93031 0.54715 0.12847
 N51 N 1.04010 0.55624 0.18232
 N52 N 1.06770 0.57506 0.25058
 N53 N 1.04033 0.58036 0.11318
 N54 N 1.06798 0.61634 0.13314
 N55 N 0.95813 0.51501 0.17906
 N56 N 0.92917 0.50481 0.24382
 C57 C 0.91205 0.52495 0.21113
 C58 C 1.08493 0.61242 0.21873
 N59 N 1.04121 0.46106 0.10952
 N60 N 1.06869 0.45232 0.12853
 N61 N 0.95831 0.44311 0.17737
 N62 N 0.92938 0.42396 0.24185
 N63 N 0.95919 0.41962 0.10815
 N64 N 0.93110 0.38352 0.12475
 N65 N 1.03997 0.48337 0.18186
 N66 N 1.06599 0.48975 0.25319
 Mn67 Mn 0.99916 0.49948 0.18110
 C68 C 1.08397 0.47068 0.21807
 C69 C 0.91260 0.38693 0.20793
 N70 N 1.04120 0.58146 -0.10836
 N71 N 1.06897 0.61760 -0.12648
 N72 N 0.96021 0.51733 -0.18131
 N73 N 0.93383 0.51039 -0.25195
 N74 N 0.95918 0.54003 -0.10969
 N75 N 0.93155 0.54861 -0.12899
 N76 N 1.04184 0.55783 -0.17758
 N77 N 1.07022 0.57690 -0.24348
 Mn78 Mn 0.99985 0.56078 0.00151
 C79 C 1.08695 0.61403 -0.21061
 C80 C 0.91591 0.52967 -0.21778
 N81 N 0.96001 0.42080 -0.11242
 N82 N 0.93287 0.38467 -0.13283
 N83 N 1.04235 0.48602 -0.17945
 N84 N 1.07121 0.49604 -0.24444
 N85 N 1.04215 0.46199 -0.11031
 N86 N 1.07094 0.45488 -0.12667
 N87 N 0.96076 0.44461 -0.18325
 N88 N 0.93471 0.42528 -0.25465
 Mn89 Mn 1.00064 0.44044 -0.00132
 Mn90 Mn 1.00124 0.50143 -0.18126
 Cl91 Cl 1.00022 0.50054 0.00000
 C92 C 0.91727 0.38808 -0.22153
 C93 C 1.08891 0.47661 -0.21029
 N94 N 0.46011 0.41931 0.11275
 N95 N 0.45251 0.38341 0.13029
 N96 N 0.44345 0.48450 0.18302
 N97 N 0.42492 0.49496 0.24812
 N98 N 0.41928 0.46023 0.11469
 N99 N 0.38346 0.45301 0.13248
 N100 N 0.48446 0.44325 0.18114
 N101 N 0.49471 0.42456 0.24598
 C102 C 0.47466 0.38736 0.21314
 C103 C 0.38760 0.47516 0.21549
 N104 N 0.53877 0.58000 0.11043
 N105 N 0.54782 0.61622 0.13035
 N106 N 0.55643 0.51498 0.17896
 N107 N 0.57542 0.50503 0.24354
 N108 N 0.58008 0.53922 0.10989
 N109 N 0.61614 0.54697 0.12673
 N110 N 0.51630 0.55649 0.18245
 N111 N 0.50997 0.57604 0.25407
 Mn112 Mn 0.50010 0.49977 0.18232
 C113 C 0.52936 0.61308 0.21999
 C114 C 0.61252 0.52506 0.20987
 N115 N 0.41807 0.45976 -0.10614
 N116 N 0.38153 0.44966 -0.12665
 N117 N 0.48241 0.44249 -0.17937
 N118 N 0.48909 0.42293 -0.25024
 N119 N 0.45952 0.41894 -0.10784
 N120 N 0.45059 0.38272 -0.12745
 N121 N 0.44141 0.48282 -0.17764
 N122 N 0.42148 0.48859 -0.24917
 Mn123 Mn 0.43882 0.43914 0.00342
 C124 C 0.38434 0.46821 -0.21583
 C125 C 0.46951 0.38585 -0.21630
 N126 N 0.57907 0.53854 -0.11063
 N127 N 0.61525 0.54723 -0.13048
 N128 N 0.51347 0.55569 -0.17833
 N129 N 0.50344 0.57459 -0.24316
 N130 N 0.53808 0.57957 -0.11011
 N131 N 0.54590 0.61554 -0.12763
 N132 N 0.55524 0.51553 -0.18148
 N133 N 0.57460 0.50842 -0.25216
 Mn134 Mn 0.55942 0.55976 -0.00018
 Mn135 Mn 0.49818 0.49917 -0.18007
 Cl136 Cl 0.49912 0.49946 0.00125
 C137 C 0.61185 0.52799 -0.21876
 C138 C 0.52377 0.61181 -0.21032
 N139 N 0.41963 -0.04104 0.10887
 N140 N 0.38329 -0.06813 0.12819
 N141 N 0.48475 0.04113 0.18054
 N142 N 0.49479 0.06992 0.24572
 N143 N 0.46052 0.04085 0.11173
 N144 N 0.45292 0.06920 0.12922
 N145 N 0.44307 -0.04043 0.18062
 N146 N 0.42336 -0.06656 0.25136
 C147 C 0.38629 -0.08391 0.21707
 C148 C 0.47482 0.08719 0.21260
 N149 N 0.58073 0.04052 0.11295
 N150 N 0.61680 0.06801 0.13310
 N151 N 0.51512 -0.04151 0.18038
 N152 N 0.50498 -0.07040 0.24526
 N153 N 0.53956 -0.04110 0.11189
 N154 N 0.54719 -0.06942 0.12934
 N155 N 0.55664 0.04035 0.18212
 N156 N 0.57545 0.06783 0.25049
 Mn157 Mn 0.49991 -0.00012 0.18182
 C158 C 0.61283 0.08492 0.21880
 C159 C 0.52509 -0.08759 0.21225
 N160 N 0.46145 0.04174 -0.10864
 N161 N 0.45225 0.06887 -0.12831
 N162 N 0.44461 -0.04039 -0.18011
 N163 N 0.42594 -0.06914 -0.24548
 N164 N 0.42053 -0.04007 -0.11162
 N165 N 0.38464 -0.06832 -0.12944
 N166 N 0.48465 0.04126 -0.17959
 N167 N 0.49143 0.06758 -0.25010
 Mn168 Mn 0.44011 0.00036 0.00006
 C169 C 0.47148 0.08486 -0.21652
 C170 C 0.38865 -0.08632 -0.21269
 N171 N 0.54011 -0.04079 -0.10877
 N172 N 0.54905 -0.06809 -0.12874
 N173 N 0.55767 0.04182 -0.17739
 N174 N 0.57684 0.07015 -0.24338
 N175 N 0.58140 0.04112 -0.10845
 N176 N 0.61759 0.06882 -0.12667
 N177 N 0.51758 -0.03965 -0.18057
 N178 N 0.51109 -0.06559 -0.25205
 Mn179 Mn 0.56089 -0.00007 0.00191
 Mn180 Mn 0.50113 0.00078 -0.18030
 Cl181 Cl 0.50052 0.00024 0.00083
 C182 C 0.53047 -0.08337 -0.21816
 C183 C 0.61408 0.08682 -0.21065
 N184 N 1.13627 0.45619 0.42840
 C185 C 1.17229 0.46901 0.38841
 N186 N 1.17771 0.47927 0.28780
 N187 N 1.14927 0.47872 0.23214
 C188 C 1.11420 0.46796 0.27501
 N189 N 1.10805 0.45633 0.37374
 N190 N 0.52973 0.67209 0.43560
 C191 C 0.53259 0.70409 0.38993
 N192 N 0.53615 0.70647 0.28612
 N193 N 0.53606 0.67804 0.23141
 C194 C 0.53194 0.64576 0.27831
 N195 N 0.52895 0.64338 0.38133
 N196 N 0.29238 -0.16974 0.28442
 C197 C 0.29526 -0.17098 0.38808
 N198 N 0.32768 -0.14218 0.43300
 N199 N 0.35631 -0.11448 0.37832
 C200 C 0.35349 -0.11376 0.27550
 N201 N 0.32078 -0.14161 0.22923
 N202 N 0.82870 0.49536 0.38229
 C203 C 0.82436 0.52718 0.38109
 N204 N 0.84690 0.55699 0.31720
 N205 N 0.87412 0.55581 0.26002
 C206 C 0.87963 0.52474 0.26486
 N207 N 0.85627 0.49443 0.32627
 N208 N 0.50436 0.33353 0.38370
 C209 C 0.47264 0.29737 0.38156
 N210 N 0.44288 0.29018 0.31739
 N211 N 0.44401 0.31863 0.26080
 C212 C 0.47496 0.35518 0.26659
 N213 N 0.50524 0.36207 0.32828
 N214 N 0.66547 0.16152 0.40848
 C215 C 0.70315 0.17268 0.38852
 N216 N 0.71124 0.15605 0.30826
 N217 N 0.68260 0.12837 0.25272
 C218 C 0.64488 0.11658 0.27514
 N219 N 0.63687 0.13377 0.35363
 N220 N 0.45980 0.16869 -0.28422
 C221 C 0.46657 0.17165 -0.38694
 N222 N 0.47375 0.14495 -0.43120
 N223 N 0.47516 0.11744 -0.37675
 C224 C 0.46874 0.11488 -0.27487
 N225 N 0.46059 0.14074 -0.22934
 N226 N 0.67006 0.52520 -0.43257
 C227 C 0.70391 0.53247 -0.38785
 N228 N 0.70744 0.53917 -0.28512
 N229 N 0.67852 0.53837 -0.23075
 C230 C 0.64459 0.53025 -0.27673
 N231 N 0.64096 0.52378 -0.37860
 N232 N 0.85762 0.32908 -0.43585
 C233 C 0.82972 0.29634 -0.38982
 N234 N 0.83185 0.29371 -0.28638
 N235 N 0.86005 0.32249 -0.23237
 C236 C 0.88704 0.35540 -0.27951
 N237 N 0.88540 0.35811 -0.38220
 N238 N 0.53045 -0.14223 -0.43367
 C239 C 0.53310 -0.17150 -0.38796
 N240 N 0.53665 -0.17035 -0.28416
 N241 N 0.53677 -0.14190 -0.22949
 C242 C 0.53287 -0.11359 -0.27644
 N243 N 0.52988 -0.11419 -0.37945
 N244 N 0.32717 0.47128 -0.43125
 C245 C 0.29278 0.46296 -0.38792
 N246 N 0.28826 0.45463 -0.28599
 N247 N 0.31689 0.45530 -0.23072
 C248 C 0.35144 0.46477 -0.27506
 N249 N 0.35594 0.47249 -0.37635
 N250 N 1.15382 0.71148 -0.31265
 C251 C 1.17448 0.70350 -0.38190
 N252 N 1.16813 0.66671 -0.38814
 N253 N 1.14060 0.63846 -0.33199
 C254 C 1.11913 0.64614 -0.26519
 N255 N 1.12649 0.68325 -0.25543
 N256 N 0.85528 0.52705 -0.43191
 C257 C 0.82799 0.53330 -0.38714
 N258 N 0.83069 0.53952 -0.28417
 N259 N 0.85896 0.53910 -0.22963
 C260 C 0.88543 0.53190 -0.27572
 N261 N 0.88310 0.52601 -0.37783
 N262 N 0.45929 0.29089 -0.28387
 C263 C 0.46573 0.29455 -0.38675
 N264 N 0.47206 0.32808 -0.43116
 N265 N 0.47305 0.35683 -0.37672
 C266 C 0.46701 0.35314 -0.27467
 N267 N 0.45966 0.31946 -0.22899
 N268 N 0.66769 0.16785 -0.38807
 C269 C 0.70462 0.17454 -0.37982
 N270 N 0.71232 0.15409 -0.30944
 N271 N 0.68372 0.12671 -0.25307
 C272 C 0.64650 0.11900 -0.26490
 N273 N 0.63909 0.14029 -0.33276
 N274 N 1.16305 0.49645 -0.40485
 C275 C 1.17515 0.47093 -0.38017
 N276 N 1.16162 0.45024 -0.29203
 N277 N 1.13489 0.45273 -0.23570
 C278 C 1.12127 0.47660 -0.26440
 N279 N 1.13639 0.49896 -0.34876
 N280 N 0.55644 0.70972 -0.31136
 C281 C 0.52738 0.70294 -0.37770
 N282 N 0.49576 0.66674 -0.38242
 N283 N 0.49433 0.63783 -0.32742
 C284 C 0.52397 0.64433 -0.26368
 N285 N 0.55476 0.68090 -0.25527
 N286 N 0.29085 -0.15213 -0.31361
 C287 C 0.29794 -0.17430 -0.37961
 N288 N 0.33435 -0.16939 -0.38432
 N289 N 0.36315 -0.14171 -0.32959
 C290 C 0.35633 -0.11870 -0.26613
 N291 N 0.31957 -0.12479 -0.25776
 N292 N 0.49649 -0.17052 0.38431
 C293 C 0.52796 -0.17549 0.37967
 N294 N 0.55711 -0.15348 0.31338
 N295 N 0.55567 -0.12622 0.25724
 C296 C 0.52503 -0.12005 0.26557
 N297 N 0.49530 -0.14292 0.32927
 N298 N 0.28999 0.44404 0.31744
 C299 C 0.29707 0.47371 0.38174
 N300 N 0.33344 0.50515 0.38524
 N301 N 0.36219 0.50587 0.33071
 C302 C 0.35535 0.47567 0.26875
 N303 N 0.31863 0.44503 0.26175
 N304 N 1.15679 0.71111 0.30530
 C305 C 1.17322 0.70333 0.38652
 N306 N 1.16165 0.66572 0.40813
 N307 N 1.13380 0.63693 0.35395
 C308 C 1.11679 0.64463 0.27454
 N309 N 1.12898 0.68227 0.25046
 N310 N 0.50472 0.17096 0.38238
 C311 C 0.47284 0.17530 0.38123
 N312 N 0.44287 0.15256 0.31787
 N313 N 0.44397 0.12521 0.26118
 C314 C 0.47509 0.11971 0.26605
 N315 N 0.50556 0.14325 0.32691
 N316 N 0.66625 0.49515 0.37992
 C317 C 0.70222 0.52716 0.38024
 N318 N 0.70947 0.55724 0.31734
 N319 N 0.68121 0.55612 0.25977
 C320 C 0.64479 0.52484 0.26319
 N321 N 0.63789 0.49427 0.32356
 N322 N 0.82953 0.33275 0.37950
 C323 C 0.82540 0.29669 0.37764
 N324 N 0.84789 0.28956 0.31277
 N325 N 0.87488 0.31800 0.25543
 C326 C 0.88021 0.35448 0.26106
 N327 N 0.85683 0.36126 0.32331
   
