data_POSCAR
  _audit_creation_date              2014-09-24
  _audit_creation_method            'ToBaCCo'
  _symmetry_space_group_name_H-M    'P1'
  _symmetry_Int_Tables_number       1
  _symmetry_cell_setting            triclinic
  loop_
  _symmetry_equiv_pos_as_xyz
 x,y,z
_cell_length_a 42.0806
_cell_length_b 41.8818
_cell_length_c 41.8825
_cell_angle_alpha 89.999600
_cell_angle_beta 90.000000
_cell_angle_gamma 90.000000
loop_
  _atom_site_label
  _atom_site_type_symbol
  _atom_site_fract_x
  _atom_site_fract_y
  _atom_site_fract_z
Si1 Si 0.24999 0.50000 1.00001
 Si2 Si 0.75000 0.50000 0.00001
 Si3 Si 0.00001 0.24975 0.50001
 Si4 Si 1.00001 0.75025 0.50000
 Si5 Si 0.50001 0.00000 0.25025
 Si6 Si 0.50001 0.00000 0.74975
 C7 C 0.29783 0.02556 0.46184
 H8 H 0.29778 0.04388 0.48004
 C9 C 0.31966 0.02703 0.43682
 H10 H 0.33627 0.04676 0.43597
 C11 C 0.27668 -0.02285 0.44169
 H12 H 0.26035 -0.04260 0.44406
 C13 C 0.29822 -0.02239 0.41628
 H14 H 0.29791 -0.04173 0.39914
 N15 N 0.27682 0.00098 0.46376
 C16 C 0.20219 0.03816 0.52556
 H17 H 0.20223 0.01996 0.54389
 C18 C 0.18035 0.06318 0.52703
 H19 H 0.16375 0.06403 0.54676
 C20 C 0.22334 0.05832 0.47716
 H21 H 0.23967 0.05595 0.45741
 C22 C 0.20180 0.08372 0.47762
 H23 H 0.20211 0.10087 0.45828
 Zn24 Zn 0.25001 -0.00000 0.50000
 N25 N 0.22319 0.03624 0.50099
 C26 C 0.27668 0.02285 0.55832
 N27 N 0.27683 -0.00099 0.53625
 C28 C 0.29783 -0.02556 0.53817
 C29 C 0.31967 -0.02703 0.56318
 C30 C 0.29822 0.02239 0.58372
 C31 C 0.20219 -0.03817 0.47445
 C32 C 0.18035 -0.06318 0.47298
 C33 C 0.20180 -0.08373 0.52239
 C34 C 0.22334 -0.05832 0.52285
 N35 N 0.22319 -0.03624 0.49902
 H36 H 0.26035 0.04260 0.55595
 H37 H 0.29778 -0.04389 0.51996
 H38 H 0.33627 -0.04676 0.56403
 H39 H 0.29791 0.04173 0.60087
 H40 H 0.20223 -0.01996 0.45612
 H41 H 0.16375 -0.06403 0.45325
 H42 H 0.20211 -0.10087 0.54173
 H43 H 0.23967 -0.05595 0.54260
 C44 C 0.17979 0.08630 0.50273
 C45 C 0.32023 0.00272 0.41370
 C46 C 0.17979 -0.08631 0.49728
 C47 C 0.32023 -0.00273 0.58631
 C48 C 0.70219 0.02556 0.53817
 H49 H 0.70223 0.04388 0.51996
 C50 C 0.68035 0.02703 0.56318
 H51 H 0.66375 0.04676 0.56404
 C52 C 0.72333 -0.02285 0.55832
 H53 H 0.73966 -0.04260 0.55595
 C54 C 0.70179 -0.02239 0.58373
 H55 H 0.70210 -0.04173 0.60087
 N56 N 0.72319 0.00098 0.53624
 C57 C 0.79782 0.03817 0.47445
 H58 H 0.79778 0.01996 0.45612
 C59 C 0.81966 0.06318 0.47298
 H60 H 0.83626 0.06403 0.45325
 C61 C 0.77668 0.05832 0.52285
 H62 H 0.76035 0.05595 0.54260
 C63 C 0.79822 0.08372 0.52239
 H64 H 0.79791 0.10087 0.54173
 Zn65 Zn 0.75001 0.00000 0.50000
 N66 N 0.77682 0.03624 0.49902
 C67 C 0.72333 0.02285 0.44169
 N68 N 0.72319 -0.00098 0.46376
 C69 C 0.70219 -0.02556 0.46184
 C70 C 0.68035 -0.02703 0.43682
 C71 C 0.70179 0.02239 0.41628
 C72 C 0.79782 -0.03817 0.52556
 C73 C 0.81966 -0.06318 0.52703
 C74 C 0.79822 -0.08372 0.47762
 C75 C 0.77668 -0.05832 0.47716
 N76 N 0.77682 -0.03624 0.50099
 H77 H 0.73966 0.04260 0.44406
 H78 H 0.70223 -0.04388 0.48004
 H79 H 0.66375 -0.04676 0.43597
 H80 H 0.70211 0.04173 0.39914
 H81 H 0.79778 -0.01996 0.54389
 H82 H 0.83626 -0.06403 0.54676
 H83 H 0.79791 -0.10087 0.45827
 H84 H 0.76035 -0.05595 0.45740
 C85 C 0.82022 0.08630 0.49728
 C86 C 0.67979 0.00272 0.58631
 C87 C 0.82022 -0.08630 0.50273
 C88 C 0.67979 -0.00272 0.41370
 C89 C 0.47435 0.20239 1.03795
 H90 H 0.45634 0.20219 1.01951
 C91 C 0.47280 0.18050 1.06301
 H92 H 0.45333 0.16362 1.06368
 C93 C 0.52207 0.22415 1.05862
 H94 H 0.54160 0.24074 1.05645
 C95 C 0.52152 0.20259 1.08408
 H96 H 0.54056 0.20315 1.10145
 N97 N 0.49863 0.22372 1.03626
 C98 C 0.46251 0.29893 0.97411
 H99 H 0.48112 0.29923 0.95629
 C100 C 0.43746 0.32067 0.97217
 H101 H 0.43700 0.33756 0.95261
 C102 C 0.44128 0.27693 1.02167
 H103 H 0.44320 0.26029 1.04127
 C104 C 0.41580 0.29831 1.02069
 H105 H 0.39818 0.29758 1.03952
 Zn106 Zn 0.49999 0.25064 1.00000
 N107 N 0.46391 0.27755 0.99848
 C108 C 0.47792 0.22415 0.94138
 N109 N 0.50136 0.22372 0.96375
 C110 C 0.52564 0.20239 0.96206
 C111 C 0.52719 0.18050 0.93699
 C112 C 0.47847 0.20259 0.91592
 C113 C 0.53747 0.29894 1.02589
 C114 C 0.56252 0.32067 1.02783
 C115 C 0.58418 0.29832 0.97931
 C116 C 0.55870 0.27694 0.97834
 N117 N 0.53607 0.27755 1.00152
 H118 H 0.45838 0.24073 0.94355
 H119 H 0.54365 0.20220 0.98049
 H120 H 0.54667 0.16363 0.93633
 H121 H 0.45943 0.20314 0.89855
 H122 H 0.51886 0.29924 1.04371
 H123 H 0.56298 0.33756 1.04739
 H124 H 0.60180 0.29759 0.96049
 H125 H 0.55678 0.26029 0.95874
 C126 C 0.41373 0.32068 0.99576
 C127 C 0.49672 0.18024 1.08643
 C128 C 0.58626 0.32069 1.00424
 C129 C 0.50328 0.18024 0.91358
 C130 C 0.47435 0.79761 -0.03794
 H131 H 0.45634 0.79781 -0.01951
 C132 C 0.47280 0.81950 -0.06301
 H133 H 0.45333 0.83638 -0.06368
 C134 C 0.52207 0.77585 -0.05862
 H135 H 0.54160 0.75927 -0.05645
 C136 C 0.52152 0.79741 -0.08408
 H137 H 0.54056 0.79686 -0.10145
 N138 N 0.49863 0.77628 -0.03625
 C139 C 0.46251 0.70107 0.02589
 H140 H 0.48112 0.70077 0.04372
 C141 C 0.43746 0.67933 0.02784
 H142 H 0.43700 0.66244 0.04740
 C143 C 0.44128 0.72307 -0.02166
 H144 H 0.44320 0.73971 -0.04126
 C145 C 0.41580 0.70169 -0.02069
 H146 H 0.39818 0.70242 -0.03951
 Zn147 Zn 0.49999 0.74936 0.00000
 N148 N 0.46391 0.72245 0.00152
 C149 C 0.47792 0.77585 0.05863
 N150 N 0.50136 0.77628 0.03626
 C151 C 0.52564 0.79761 0.03795
 C152 C 0.52719 0.81950 0.06301
 C153 C 0.47847 0.79742 0.08408
 C154 C 0.53747 0.70107 -0.02588
 C155 C 0.56252 0.67933 -0.02782
 C156 C 0.58418 0.70169 0.02070
 C157 C 0.55870 0.72307 0.02167
 N158 N 0.53607 0.72245 -0.00151
 H159 H 0.45838 0.75927 0.05646
 H160 H 0.54365 0.79781 0.01951
 H161 H 0.54667 0.83638 0.06368
 H162 H 0.45943 0.79686 0.10145
 H163 H 0.51886 0.70077 -0.04371
 H164 H 0.56298 0.66244 -0.04738
 H165 H 0.60180 0.70241 0.03952
 H166 H 0.55678 0.73971 0.04127
 C167 C 0.41373 0.67932 0.00424
 C168 C 0.49672 0.81976 -0.08642
 C169 C 0.58626 0.67931 -0.00423
 C170 C 0.50328 0.81976 0.08643
 C171 C 1.03747 0.47411 0.20107
 H172 H 1.01886 0.45629 0.20077
 C173 C 1.06252 0.47217 0.17934
 H174 H 1.06298 0.45261 0.16244
 C175 C 1.05870 0.52166 0.22307
 H176 H 1.05678 0.54126 0.23971
 C177 C 1.08419 0.52069 0.20169
 H178 H 1.10180 0.53951 0.20242
 N179 N 1.03607 0.49848 0.22245
 C180 C 0.97435 0.46205 0.29761
 H181 H 0.95634 0.48049 0.29781
 C182 C 0.97280 0.43699 0.31950
 H183 H 0.95333 0.43632 0.33638
 C184 C 1.02207 0.44138 0.27585
 H185 H 1.04161 0.44354 0.25927
 C186 C 1.02152 0.41592 0.29742
 H187 H 1.04056 0.39855 0.29686
 Zn188 Zn 0.99999 0.50000 0.24936
 N189 N 0.99863 0.46374 0.27628
 C190 C 0.94128 0.47833 0.22307
 N191 N 0.96392 0.50152 0.22245
 C192 C 0.96251 0.52589 0.20107
 C193 C 0.93747 0.52783 0.17934
 C194 C 0.91580 0.47931 0.20169
 C195 C 1.02564 0.53794 0.29761
 C196 C 1.02719 0.56300 0.31950
 C197 C 0.97848 0.58408 0.29742
 C198 C 0.97792 0.55862 0.27585
 N199 N 1.00136 0.53625 0.27628
 H200 H 0.94320 0.45873 0.23972
 H201 H 0.98112 0.54371 0.20077
 H202 H 0.93700 0.54739 0.16245
 H203 H 0.89818 0.46048 0.20242
 H204 H 1.04365 0.51950 0.29781
 H205 H 1.04667 0.56367 0.33638
 H206 H 0.95943 0.60145 0.29686
 H207 H 0.95839 0.55645 0.25927
 C208 C 0.99672 0.41357 0.31976
 C209 C 1.08626 0.49576 0.17932
 C210 C 1.00328 0.58642 0.31976
 C211 C 0.91373 0.50424 0.17932
 C212 C -0.03749 0.47411 0.79894
 H213 H -0.01888 0.45629 0.79924
 C214 C -0.06253 0.47217 0.82067
 H215 H -0.06300 0.45261 0.83757
 C216 C -0.05872 0.52167 0.77694
 H217 H -0.05680 0.54127 0.76030
 C218 C -0.08420 0.52069 0.79832
 H219 H -0.10182 0.53952 0.79759
 N220 N -0.03608 0.49848 0.77756
 C221 C 0.02564 0.46206 0.70240
 H222 H 0.04365 0.48049 0.70220
 C223 C 0.02719 0.43699 0.68051
 H224 H 0.04667 0.43633 0.66363
 C225 C -0.02208 0.44138 0.72416
 H226 H -0.04161 0.44355 0.74074
 C227 C -0.02152 0.41592 0.70259
 H228 H -0.04057 0.39855 0.70315
 Zn229 Zn -0.00001 0.50000 0.75065
 N230 N 0.00136 0.46374 0.72373
 C231 C 0.05870 0.47834 0.77694
 N232 N 0.03607 0.50152 0.77756
 C233 C 0.03747 0.52589 0.79894
 C234 C 0.06252 0.52783 0.82068
 C235 C 0.08419 0.47931 0.79832
 C236 C -0.02565 0.53795 0.70240
 C237 C -0.02720 0.56301 0.68051
 C238 C 0.02152 0.58408 0.70259
 C239 C 0.02207 0.55862 0.72416
 N240 N -0.00137 0.53626 0.72373
 H241 H 0.05678 0.45874 0.76030
 H242 H 0.01886 0.54371 0.79924
 H243 H 0.06298 0.54739 0.83757
 H244 H 0.10180 0.46049 0.79759
 H245 H -0.04366 0.51951 0.70220
 H246 H -0.04667 0.56368 0.66363
 H247 H 0.04056 0.60145 0.70315
 H248 H 0.04161 0.55646 0.74074
 C249 C 0.00328 0.41358 0.68025
 C250 C -0.08627 0.49576 0.82069
 C251 C -0.00328 0.58643 0.68025
 C252 C 0.08626 0.50424 0.82069
 C253 C 0.08428 0.18170 0.50269
 N254 N 0.08056 0.20196 0.47762
 N255 N 0.05631 0.22245 0.47688
 C256 C 0.03501 0.22336 0.50118
 N257 N 0.03882 0.20329 0.52626
 N258 N 0.06302 0.18284 0.52703
 C259 C 0.10999 0.15799 0.50312
 N260 N 0.11248 0.13713 0.52777
 N261 N 0.13488 0.11469 0.52778
 C262 C 0.15573 0.11217 0.50315
 N263 N 0.15334 0.13325 0.47857
 N264 N 0.13089 0.15572 0.47853
 C265 C 0.68228 0.58447 -0.00520
 N266 N 0.68247 0.56185 -0.02841
 N267 N 0.70291 0.53761 -0.02722
 C268 C 0.72393 0.53518 -0.00281
 N269 N 0.72398 0.55785 0.02030
 N270 N 0.70352 0.58212 0.01912
 C271 C 0.65845 0.61008 -0.00566
 N272 N 0.65707 0.63195 0.01822
 N273 N 0.63444 0.65421 0.01846
 C274 C 0.61228 0.65545 -0.00512
 N275 N 0.61390 0.63366 -0.02910
 N276 N 0.63651 0.61142 -0.02936
 C277 C 0.91574 -0.18170 0.50268
 N278 N 0.91946 -0.20195 0.47761
 N279 N 0.94371 -0.22245 0.47687
 C280 C 0.96501 -0.22336 0.50117
 N281 N 0.96120 -0.20328 0.52625
 N282 N 0.93700 -0.18284 0.52702
 C283 C 0.89003 -0.15799 0.50311
 N284 N 0.88754 -0.13713 0.52777
 N285 N 0.86513 -0.11469 0.52778
 C286 C 0.84429 -0.11217 0.50314
 N287 N 0.84668 -0.13325 0.47857
 N288 N 0.86912 -0.15572 0.47853
 C289 C 0.31770 0.41553 0.99480
 N290 N 0.31752 0.43815 0.97159
 N291 N 0.29708 0.46239 0.97278
 C292 C 0.27606 0.46482 0.99719
 N293 N 0.27600 0.44215 1.02030
 N294 N 0.29647 0.41788 1.01912
 C295 C 0.34153 0.38992 0.99434
 N296 N 0.34291 0.36805 1.01821
 N297 N 0.36554 0.34579 1.01846
 C298 C 0.38771 0.34455 0.99488
 N299 N 0.38608 0.36634 0.97090
 N300 N 0.36347 0.38858 0.97064
 C301 C 0.91575 0.18169 0.49733
 N302 N 0.93701 0.18284 0.47299
 N303 N 0.96120 0.20328 0.47376
 C304 C 0.96501 0.22336 0.49884
 N305 N 0.94371 0.22244 0.52314
 N306 N 0.91946 0.20195 0.52240
 C307 C 0.89003 0.15799 0.49690
 N308 N 0.86912 0.15572 0.52148
 N309 N 0.84668 0.13325 0.52144
 C310 C 0.84429 0.11217 0.49686
 N311 N 0.86514 0.11469 0.47223
 N312 N 0.88754 0.13713 0.47224
 C313 C 0.31770 0.58447 0.00521
 N314 N 0.29647 0.58212 -0.01911
 N315 N 0.27600 0.55785 -0.02029
 C316 C 0.27606 0.53518 0.00283
 N317 N 0.29708 0.53761 0.02723
 N318 N 0.31752 0.56185 0.02842
 C319 C 0.34153 0.61009 0.00567
 N320 N 0.36347 0.61142 0.02937
 N321 N 0.38608 0.63366 0.02911
 C322 C 0.38771 0.65545 0.00513
 N323 N 0.36554 0.65422 -0.01845
 N324 N 0.34291 0.63195 -0.01820
 C325 C 0.08428 -0.18170 0.49732
 N326 N 0.06302 -0.18284 0.47298
 N327 N 0.03882 -0.20329 0.47375
 C328 C 0.03501 -0.22336 0.49883
 N329 N 0.05631 -0.22245 0.52314
 N330 N 0.08056 -0.20196 0.52239
 C331 C 0.10999 -0.15799 0.49689
 N332 N 0.13089 -0.15572 0.52148
 N333 N 0.15334 -0.13325 0.52144
 C334 C 0.15573 -0.11217 0.49686
 N335 N 0.13488 -0.11470 0.47222
 N336 N 0.11248 -0.13713 0.47224
 C337 C 0.68228 0.41553 1.00521
 N338 N 0.68247 0.43815 1.02842
 N339 N 0.70291 0.46239 1.02723
 C340 C 0.72393 0.46482 1.00283
 N341 N 0.72398 0.44215 0.97971
 N342 N 0.70352 0.41789 0.98089
 C343 C 0.65845 0.38992 1.00567
 N344 N 0.65707 0.36805 0.98179
 N345 N 0.63444 0.34579 0.98155
 C346 C 0.61228 0.34455 1.00513
 N347 N 0.61390 0.36634 1.02911
 N348 N 0.63651 0.38858 1.02937
 C349 C 0.49686 0.08455 1.18209
 N350 N 0.47281 0.06300 1.18318
 N351 N 0.47369 0.03873 1.20368
 C352 C 0.49862 0.03514 1.22384
 N353 N 0.52263 0.05673 1.22298
 N354 N 0.52177 0.08105 1.20245
 C355 C 0.49636 0.11032 1.15831
 N356 N 0.52065 0.13154 1.15618
 N357 N 0.52058 0.15403 1.13365
 C358 C 0.49627 0.15614 1.11236
 N359 N 0.47192 0.13498 1.11474
 N360 N 0.47196 0.11254 1.13725
 C361 C -0.00314 0.68209 0.58455
 N362 N 0.02177 0.70245 0.58106
 N363 N 0.02263 0.72298 0.55673
 C364 C -0.00138 0.72384 0.53514
 N365 N -0.02631 0.70367 0.53873
 N366 N -0.02719 0.68318 0.56300
 C367 C -0.00364 0.65831 0.61033
 N368 N -0.02804 0.63725 0.61254
 N369 N -0.02808 0.61474 0.63499
 C370 C -0.00373 0.61236 0.65614
 N371 N 0.02058 0.63365 0.65403
 N372 N 0.02065 0.65618 0.63155
 C373 C 0.49686 0.91545 -0.18208
 N374 N 0.52177 0.91895 -0.20244
 N375 N 0.52263 0.94327 -0.22298
 C376 C 0.49862 0.96486 -0.22384
 N377 N 0.47369 0.96127 -0.20367
 N378 N 0.47281 0.93700 -0.18317
 C379 C 0.49636 0.88968 -0.15831
 N380 N 0.47196 0.88747 -0.13724
 N381 N 0.47193 0.86502 -0.11474
 C382 C 0.49627 0.84386 -0.11235
 N383 N 0.52058 0.84597 -0.13364
 N384 N 0.52065 0.86846 -0.15617
 C385 C 0.99686 0.31791 0.41546
 N386 N 0.97281 0.31682 0.43701
 N387 N 0.97369 0.29633 0.46128
 C388 C 0.99862 0.27616 0.46487
 N389 N 1.02263 0.27702 0.44328
 N390 N 1.02177 0.29755 0.41895
 C391 C 0.99636 0.34169 0.38969
 N392 N 1.02065 0.34382 0.36847
 N393 N 1.02058 0.36635 0.34598
 C394 C 0.99627 0.38764 0.34387
 N395 N 0.97193 0.38526 0.36503
 N396 N 0.97196 0.36275 0.38747
 C397 C 0.50314 0.91545 0.18209
 N398 N 0.52720 0.93700 0.18318
 N399 N 0.52632 0.96127 0.20367
 C400 C 0.50140 0.96486 0.22384
 N401 N 0.47738 0.94327 0.22299
 N402 N 0.47824 0.91895 0.20245
 C403 C 0.50365 0.88968 0.15831
 N404 N 0.47936 0.86846 0.15618
 N405 N 0.47942 0.84598 0.13365
 C406 C 0.50372 0.84386 0.11236
 N407 N 0.52807 0.86502 0.11474
 N408 N 0.52804 0.88746 0.13725
 C409 C 0.00314 0.31792 0.58456
 N410 N -0.02176 0.29755 0.58106
 N411 N -0.02262 0.27702 0.55674
 C412 C 0.00140 0.27616 0.53515
 N413 N 0.02632 0.29633 0.53874
 N414 N 0.02720 0.31683 0.56301
 C415 C 0.00365 0.34169 0.61033
 N416 N 0.02804 0.36276 0.61254
 N417 N 0.02807 0.38526 0.63499
 C418 C 0.00372 0.38764 0.65615
 N419 N -0.02058 0.36635 0.65403
 N420 N -0.02064 0.34382 0.63155
 C421 C 0.50315 0.08455 0.81792
 N422 N 0.52720 0.06300 0.81683
 N423 N 0.52632 0.03873 0.79633
 C424 C 0.50140 0.03514 0.77616
 N425 N 0.47738 0.05673 0.77702
 N426 N 0.47824 0.08106 0.79756
 C427 C 0.50365 0.11032 0.84169
 N428 N 0.47936 0.13154 0.84383
 N429 N 0.47942 0.15403 0.86636
 C430 C 0.50372 0.15614 0.88765
 N431 N 0.52807 0.13498 0.88526
 N432 N 0.52804 0.11254 0.86276
 C433 C 1.00314 0.68208 0.41545
 N434 N 1.02720 0.68317 0.43700
 N435 N 1.02632 0.70367 0.46127
 C436 C 1.00140 0.72384 0.46486
 N437 N 0.97738 0.72298 0.44327
 N438 N 0.97824 0.70244 0.41895
 C439 C 1.00365 0.65831 0.38968
 N440 N 0.97936 0.65617 0.36847
 N441 N 0.97942 0.63364 0.34598
 C442 C 1.00372 0.61235 0.34387
 N443 N 1.02807 0.61473 0.36502
 N444 N 1.02804 0.63724 0.38747
 C445 C 1.18228 0.49480 0.08448
 N446 N 1.20351 0.51912 0.08212
 N447 N 1.22398 0.52030 0.05786
 C448 C 1.22392 0.49718 0.03518
 N449 N 1.20291 0.47278 0.03761
 N450 N 1.18246 0.47158 0.06186
 C451 C 1.15845 0.49433 0.11009
 N452 N 1.13651 0.47063 0.11142
 N453 N 1.11390 0.47090 0.13366
 C454 C 1.11228 0.49487 0.15546
 N455 N 1.13444 0.51846 0.15422
 N456 N 1.15707 0.51821 0.13196
 C457 C 0.58427 0.00268 0.68170
 N458 N 0.56301 0.02702 0.68284
 N459 N 0.53882 0.02625 0.70329
 C460 C 0.53501 0.00117 0.72336
 N461 N 0.55630 -0.02313 0.72245
 N462 N 0.58056 -0.02239 0.70196
 C463 C 0.60999 0.00311 0.65799
 N464 N 0.63089 -0.02147 0.65572
 N465 N 0.65334 -0.02144 0.63325
 C466 C 0.65573 0.00314 0.61217
 N467 N 0.63488 0.02778 0.61470
 N468 N 0.61248 0.02777 0.63714
 C469 C -0.18229 0.49480 0.91554
 N470 N -0.20353 0.51912 0.91789
 N471 N -0.22399 0.52030 0.94215
 C472 C -0.22393 0.49718 0.96483
 N473 N -0.20292 0.47278 0.96240
 N474 N -0.18248 0.47158 0.93816
 C475 C -0.15846 0.49433 0.88992
 N476 N -0.13652 0.47063 0.88859
 N477 N -0.11391 0.47090 0.86635
 C478 C -0.11229 0.49487 0.84455
 N479 N -0.13445 0.51846 0.84579
 N480 N -0.15709 0.51821 0.86805
 C481 C 0.41574 0.00268 0.31831
 N482 N 0.43700 0.02702 0.31717
 N483 N 0.46120 0.02625 0.29672
 C484 C 0.46501 0.00117 0.27665
 N485 N 0.44371 -0.02313 0.27756
 N486 N 0.41946 -0.02239 0.29805
 C487 C 0.39003 0.00311 0.34202
 N488 N 0.36912 -0.02147 0.34429
 N489 N 0.34668 -0.02144 0.36675
 C490 C 0.34429 0.00314 0.38783
 N491 N 0.36514 0.02778 0.38531
 N492 N 0.38754 0.02777 0.36287
 C493 C 0.18228 0.50520 0.91554
 N494 N 0.18246 0.52842 0.93816
 N495 N 0.20291 0.52722 0.96240
 C496 C 0.22392 0.50282 0.96483
 N497 N 0.22398 0.47970 0.94215
 N498 N 0.20351 0.48088 0.91789
 C499 C 0.15845 0.50567 0.88992
 N500 N 0.15707 0.48179 0.86805
 N501 N 0.13444 0.48154 0.84579
 C502 C 0.11228 0.50513 0.84456
 N503 N 0.11390 0.52910 0.86635
 N504 N 0.13651 0.52937 0.88859
 C505 C 0.58427 -0.00268 0.31831
 N506 N 0.56301 -0.02702 0.31716
 N507 N 0.53882 -0.02625 0.29672
 C508 C 0.53501 -0.00117 0.27665
 N509 N 0.55630 0.02313 0.27756
 N510 N 0.58056 0.02239 0.29805
 C511 C 0.60999 -0.00311 0.34201
 N512 N 0.63089 0.02147 0.34429
 N513 N 0.65334 0.02144 0.36675
 C514 C 0.65573 -0.00314 0.38783
 N515 N 0.63488 -0.02778 0.38531
 N516 N 0.61248 -0.02777 0.36287
 C517 C 0.81771 0.50520 0.08448
 N518 N 0.79647 0.48088 0.08212
 N519 N 0.77601 0.47970 0.05786
 C520 C 0.77607 0.50282 0.03518
 N521 N 0.79708 0.52722 0.03761
 N522 N 0.81752 0.52842 0.06186
 C523 C 0.84154 0.50567 0.11009
 N524 N 0.86348 0.52937 0.11142
 N525 N 0.88609 0.52910 0.13367
 C526 C 0.88771 0.50513 0.15546
 N527 N 0.86555 0.48154 0.15422
 N528 N 0.84291 0.48179 0.13196
 C529 C 0.41574 -0.00268 0.68170
 N530 N 0.41946 0.02239 0.70196
 N531 N 0.44371 0.02313 0.72245
 C532 C 0.46501 -0.00117 0.72336
 N533 N 0.46120 -0.02625 0.70329
 N534 N 0.43700 -0.02702 0.68284
 C535 C 0.39003 -0.00311 0.65799
 N536 N 0.38754 -0.02777 0.63713
 N537 N 0.36514 -0.02778 0.61470
 C538 C 0.34429 -0.00314 0.61217
 N539 N 0.34668 0.02144 0.63325
 N540 N 0.36912 0.02147 0.65572
   
