data_POSCAR
  _audit_creation_date              2014-09-24
  _audit_creation_method            'ToBaCCo'
  _symmetry_space_group_name_H-M    'P1'
  _symmetry_Int_Tables_number       1
  _symmetry_cell_setting            triclinic
  loop_
  _symmetry_equiv_pos_as_xyz
 x,y,z
_cell_length_a 22.7958
_cell_length_b 22.7958
_cell_length_c 37.1910
_cell_angle_alpha 81.420200
_cell_angle_beta 98.580400
_cell_angle_gamma 86.307200
loop_
  _atom_site_label
  _atom_site_type_symbol
  _atom_site_fract_x
  _atom_site_fract_y
  _atom_site_fract_z
O1 O -0.05458 0.56339 0.95404
 O2 O -0.07275 0.43292 1.02168
 O3 O -0.07212 0.54658 1.02221
 O4 O -0.05532 0.44846 0.95343
 O5 O 0.04203 0.43702 0.97222
 O6 O 0.02528 0.53501 1.04093
 O7 O 0.02464 0.42149 1.04040
 O8 O 0.04277 0.55179 0.97283
 Cu9 Cu -0.07349 0.49902 0.98578
 Cu10 Cu 0.04354 0.48519 1.00832
 C11 C -0.00288 0.58006 0.95236
 C12 C -0.02711 0.40538 1.04259
 C13 C -0.02624 0.55714 1.04327
 C14 C -0.00386 0.42562 0.95152
 O15 O 0.44820 -0.04278 0.47283
 O16 O 0.57850 -0.02465 0.54039
 O17 O 0.46498 -0.02530 0.54093
 O18 O 0.56297 -0.04204 0.47222
 O19 O 0.55152 0.05531 0.45343
 O20 O 0.45341 0.07211 0.52222
 O21 O 0.56707 0.07274 0.52168
 O22 O 0.43659 0.05456 0.45404
 Cu23 Cu 0.51480 -0.04355 0.50832
 Cu24 Cu 0.50096 0.07348 0.48578
 C25 C 0.41993 0.00286 0.45236
 C26 C 0.59461 0.02710 0.54259
 C27 C 0.44285 0.02622 0.54327
 C28 C 0.57437 0.00385 0.45152
 C29 C -0.04877 -0.11606 0.22935
 C30 C -0.09810 -0.11286 0.25299
 C31 C -0.09676 -0.06526 0.27130
 C32 C -0.04639 -0.02524 0.26443
 C33 C -0.05597 -0.05575 0.20392
 C34 C -0.05465 -0.00835 0.22231
 C35 C 0.00956 -0.11561 0.25582
 C36 C 0.01071 -0.06797 0.27409
 H37 H -0.13137 -0.14479 0.25475
 H38 H -0.04551 0.01345 0.27943
 H39 H -0.05915 -0.05103 0.17416
 H40 H 0.04736 -0.14847 0.25867
 C41 C 0.11605 0.04875 0.72935
 C42 C 0.11560 -0.00958 0.75582
 C43 C 0.06796 -0.01073 0.77409
 C44 C 0.02524 0.04637 0.76443
 C45 C 0.05574 0.05595 0.70392
 C46 C 0.00834 0.05463 0.72231
 C47 C 0.11286 0.09809 0.75299
 C48 C 0.06525 0.09674 0.77130
 H49 H 0.14847 -0.04738 0.75867
 H50 H -0.01346 0.04550 0.77943
 H51 H 0.05102 0.05913 0.67416
 H52 H 0.14478 0.13135 0.75475
 C53 C -0.03257 -0.40484 0.07012
 C54 C -0.03728 -0.37244 0.09253
 C55 C -0.04211 -0.33295 0.11890
 C56 C -0.09295 -0.29315 0.11500
 C57 C -0.09611 -0.25230 0.13935
 C58 C -0.04847 -0.25115 0.16772
 C59 C 0.00194 -0.29164 0.17201
 C60 C 0.00509 -0.33250 0.14766
 C61 C -0.04958 -0.20582 0.19071
 C62 C -0.04969 -0.16625 0.20887
 H63 H -0.12960 -0.29298 0.09277
 H64 H -0.13509 -0.22086 0.13562
 H65 H 0.03921 -0.29081 0.19368
 H66 H 0.04470 -0.36294 0.15083
 C67 C -0.03363 0.35754 0.06766
 C68 C -0.03886 0.31466 0.08981
 C69 C -0.04433 0.26274 0.11586
 C70 C 0.00344 0.24009 0.14382
 C71 C -0.00041 0.18746 0.16772
 C72 C -0.05208 0.15736 0.16378
 C73 C -0.10028 0.18062 0.13627
 C74 C -0.09643 0.23324 0.11236
 C75 C -0.05394 0.10043 0.18602
 C76 C -0.05471 0.05151 0.20336
 H77 H 0.04402 0.26244 0.14667
 H78 H 0.03731 0.16958 0.18870
 H79 H -0.14025 0.15742 0.13279
 H80 H -0.13354 0.25026 0.09075
 C81 C 0.40483 0.03255 0.57012
 C82 C 0.37243 0.03726 0.59253
 C83 C 0.33294 0.04209 0.61891
 C84 C 0.29316 0.09295 0.61502
 C85 C 0.25231 0.09610 0.63937
 C86 C 0.25114 0.04844 0.66772
 C87 C 0.29162 -0.00197 0.67200
 C88 C 0.33247 -0.00513 0.64765
 C89 C 0.20581 0.04956 0.69072
 C90 C 0.16625 0.04967 0.70887
 H91 H 0.29301 0.12961 0.59280
 H92 H 0.22089 0.13509 0.63565
 H93 H 0.29077 -0.03926 0.69366
 H94 H 0.36290 -0.04475 0.65081
 C95 C -0.35755 0.03361 0.56766
 C96 C -0.31467 0.03885 0.58981
 C97 C -0.26275 0.04432 0.61586
 C98 C -0.23324 0.09642 0.61236
 C99 C -0.18062 0.10026 0.63626
 C100 C -0.15737 0.05207 0.66378
 C101 C -0.18748 0.00040 0.66773
 C102 C -0.24010 -0.00345 0.64382
 C103 C -0.10044 0.05392 0.68602
 C104 C -0.05152 0.05469 0.70336
 H105 H -0.25025 0.13352 0.59074
 H106 H -0.15741 0.14022 0.63278
 H107 H -0.16961 -0.03731 0.68871
 H108 H -0.26246 -0.04402 0.64668
 C109 C 0.00409 -0.36729 0.92747
 C110 C 0.01035 -0.32238 0.90727
 C111 C 0.01837 -0.26825 0.88379
 C112 C 0.04925 -0.27039 0.85408
 C113 C 0.05836 -0.21764 0.83189
 C114 C 0.03668 -0.16251 0.83932
 C115 C 0.00554 -0.16037 0.86892
 C116 C -0.00358 -0.21313 0.89111
 C117 C 0.04696 -0.10831 0.81674
 C118 C 0.05620 -0.06346 0.79756
 H119 H 0.06655 -0.31272 0.84821
 H120 H 0.08253 -0.21982 0.80908
 H121 H -0.01139 -0.11801 0.87493
 H122 H -0.02738 -0.21094 0.91407
 C123 C 0.00255 0.38501 0.92606
 C124 C 0.00834 0.34981 0.90537
 C125 C 0.01581 0.30682 0.88133
 C126 C -0.00971 0.25252 0.88675
 C127 C -0.00094 0.20989 0.86417
 C128 C 0.03342 0.22137 0.83607
 C129 C 0.05862 0.27583 0.83049
 C130 C 0.04985 0.31845 0.85307
 C131 C 0.04371 0.17705 0.81335
 C132 C 0.05309 0.14020 0.79428
 H133 H -0.03596 0.24297 0.90858
 H134 H -0.02056 0.16792 0.86877
 H135 H 0.08534 0.28514 0.80889
 H136 H 0.06994 0.36019 0.84869
 C137 C -0.38503 -0.00256 0.42606
 C138 C -0.34983 -0.00835 0.40536
 C139 C -0.30684 -0.01582 0.38132
 C140 C -0.25255 0.00973 0.38673
 C141 C -0.20992 0.00096 0.36415
 C142 C -0.22139 -0.03343 0.33607
 C143 C -0.27584 -0.05865 0.33050
 C144 C -0.31846 -0.04988 0.35308
 C145 C -0.17707 -0.04372 0.31335
 C146 C -0.14022 -0.05310 0.29428
 H147 H -0.24301 0.03600 0.40856
 H148 H -0.16796 0.02059 0.36874
 H149 H -0.28514 -0.08540 0.30890
 H150 H -0.36019 -0.06999 0.34871
 C151 C 0.36728 -0.00410 0.42747
 C152 C 0.32236 -0.01036 0.40727
 C153 C 0.26823 -0.01838 0.38379
 C154 C 0.27037 -0.04926 0.35408
 C155 C 0.21762 -0.05837 0.33189
 C156 C 0.16249 -0.03669 0.33932
 C157 C 0.16036 -0.00554 0.36892
 C158 C 0.21311 0.00357 0.39111
 C159 C 0.10829 -0.04697 0.31674
 C160 C 0.06344 -0.05621 0.29756
 H161 H 0.31270 -0.06657 0.34822
 H162 H 0.21980 -0.08255 0.30909
 H163 H 0.11799 0.01139 0.37493
 H164 H 0.21092 0.02738 0.41407
   
