data_POSCAR
  _audit_creation_date              2014-09-24
  _audit_creation_method            'ToBaCCo'
  _symmetry_space_group_name_H-M    'P1'
  _symmetry_Int_Tables_number       1
  _symmetry_cell_setting            triclinic
  loop_
  _symmetry_equiv_pos_as_xyz
 x,y,z
_cell_length_a 26.4523
_cell_length_b 26.4513
_cell_length_c 26.4347
_cell_angle_alpha 89.955000
_cell_angle_beta 90.132100
_cell_angle_gamma 90.001400
loop_
  _atom_site_label
  _atom_site_type_symbol
  _atom_site_fract_x
  _atom_site_fract_y
  _atom_site_fract_z
O1 O -0.13030 0.06841 0.00118
 O2 O 0.12969 0.06804 -0.00111
 O3 O -0.00162 0.12948 0.06866
 O4 O 0.00213 0.13027 -0.06826
 O5 O 0.00066 0.06915 -0.13018
 O6 O -0.00275 0.06747 0.13003
 O7 O 0.06819 0.12979 -0.00174
 O8 O -0.06858 0.12996 0.00226
 Zr9 Zr -0.00025 0.08878 0.00004
 O10 O 0.04554 0.04598 -0.04591
 O11 O -0.04621 0.04551 0.04557
 C12 C -0.11538 0.11514 0.00271
 C13 C 0.11494 0.11485 -0.00227
 C14 C -0.00311 0.11435 0.11539
 C15 C 0.00234 0.11596 -0.11531
 H16 H 0.06679 0.06661 0.06757
 O17 O 0.04518 0.04521 0.04579
 H18 H -0.06759 0.06771 -0.06754
 O19 O -0.04606 0.04597 -0.04597
 O20 O 0.12927 -0.06864 0.00215
 O21 O -0.13064 -0.06833 -0.00223
 O22 O 0.06771 -0.00341 0.12991
 O23 O 0.06808 0.00285 -0.13017
 O24 O -0.06884 -0.00185 -0.13048
 O25 O -0.06892 0.00077 0.12957
 O26 O 0.00158 -0.13055 0.06754
 O27 O -0.00201 -0.12960 -0.06935
 O28 O 0.00041 -0.06943 0.12945
 O29 O -0.00246 -0.06762 -0.13074
 O30 O 0.12937 -0.00218 0.06842
 O31 O -0.13047 0.00220 0.06772
 O32 O -0.13042 -0.00096 -0.06911
 O33 O 0.12960 0.00148 -0.06824
 O34 O 0.06761 -0.13023 0.00068
 O35 O -0.06916 -0.12991 -0.00353
 Zr36 Zr 0.08834 -0.00021 -0.00002
 Zr37 Zr -0.08934 0.00003 -0.00059
 Zr38 Zr -0.00062 -0.00075 0.08861
 Zr39 Zr -0.00045 0.00050 -0.08928
 Zr40 Zr -0.00064 -0.08897 -0.00076
 O41 O -0.04638 -0.04559 -0.04658
 O42 O 0.04523 -0.04633 0.04548
 C43 C 0.11437 -0.11541 0.00235
 C44 C -0.11608 -0.11525 -0.00383
 C45 C 0.11448 -0.00385 0.11514
 C46 C 0.11487 0.00310 -0.11510
 C47 C -0.11574 -0.00229 -0.11597
 C48 C -0.11565 0.00242 0.11458
 C49 C 0.00186 -0.11625 0.11460
 C50 C -0.00312 -0.11447 -0.11606
 H51 H -0.06798 -0.06777 0.06641
 O52 O -0.04634 -0.04607 0.04502
 H53 H 0.06673 -0.06695 -0.06774
 O54 O 0.04511 -0.04551 -0.04611
 O55 O 0.37026 0.56897 0.00229
 O56 O 0.63031 0.56879 -0.00048
 O57 O 0.49915 0.63036 0.06911
 O58 O 0.50258 0.63056 -0.06776
 O59 O 0.50178 0.56905 -0.12950
 O60 O 0.49772 0.56862 0.13052
 O61 O 0.56874 0.63049 -0.00171
 O62 O 0.43197 0.63056 0.00200
 Zr63 Zr 0.50031 0.58939 0.00057
 O64 O 0.54603 0.54641 -0.04529
 O65 O 0.45431 0.54629 0.04620
 C66 C 0.38519 0.61572 0.00308
 C67 C 0.61550 0.61557 -0.00197
 C68 C 0.49756 0.61561 0.11600
 C69 C 0.50319 0.61574 -0.11456
 H70 H 0.56741 0.56755 0.06812
 O71 O 0.54584 0.54606 0.04639
 H72 H 0.43290 0.56800 -0.06690
 O73 O 0.45448 0.54635 -0.04530
 O74 O 0.63001 0.43213 0.00228
 O75 O 0.36996 0.43224 -0.00136
 O76 O 0.56841 0.49766 0.13058
 O77 O 0.56852 0.50315 -0.12944
 O78 O 0.43164 0.49969 -0.12992
 O79 O 0.43169 0.50158 0.13031
 O80 O 0.50202 0.37034 0.06845
 O81 O 0.49787 0.37069 -0.06841
 O82 O 0.50137 0.43180 0.13026
 O83 O 0.49854 0.43252 -0.12994
 O84 O 0.63000 0.49885 0.06922
 O85 O 0.37008 0.50258 0.06848
 O86 O 0.37014 0.49844 -0.06847
 O87 O 0.63014 0.50223 -0.06761
 O88 O 0.56835 0.37050 0.00235
 O89 O 0.43154 0.37055 -0.00214
 Zr90 Zr 0.58897 0.50049 0.00067
 Zr91 Zr 0.41121 0.50055 0.00015
 Zr92 Zr 0.50002 0.50026 0.08928
 Zr93 Zr 0.50007 0.50073 -0.08854
 Zr94 Zr 0.49998 0.41161 0.00013
 O95 O 0.45414 0.45478 -0.04577
 O96 O 0.54585 0.45450 0.04625
 C97 C 0.61513 0.38537 0.00325
 C98 C 0.38475 0.38544 -0.00271
 C99 C 0.61534 0.49729 0.11609
 C100 C 0.61531 0.50365 -0.11444
 C101 C 0.38473 0.49825 -0.11541
 C102 C 0.38493 0.50293 0.11534
 C103 C 0.50260 0.38509 0.11529
 C104 C 0.49726 0.38569 -0.11521
 H105 H 0.43274 0.43308 0.06730
 O106 O 0.45435 0.45471 0.04583
 H107 H 0.56729 0.43339 -0.06690
 O108 O 0.54574 0.45493 -0.04530
 O109 O -0.12977 0.56916 0.50219
 O110 O 0.13006 0.56797 0.49750
 O111 O -0.00133 0.63075 0.56699
 O112 O 0.00275 0.62944 0.43013
 O113 O 0.00067 0.56729 0.36900
 O114 O -0.00221 0.56966 0.62926
 O115 O 0.06863 0.62980 0.49737
 O116 O -0.06808 0.63049 0.49990
 Zr117 Zr 0.00014 0.58898 0.49905
 O118 O 0.04568 0.54531 0.45366
 O119 O -0.04575 0.54657 0.54545
 C120 C -0.11501 0.61605 0.50187
 C121 C 0.11534 0.61478 0.49644
 C122 C -0.00273 0.61628 0.61391
 C123 C 0.00262 0.61419 0.38344
 H124 H 0.06737 0.56770 0.56671
 O125 O 0.04570 0.54600 0.54529
 H126 H -0.06745 0.56711 0.43210
 O127 O -0.04589 0.54559 0.45384
 O128 O 0.12967 0.43126 0.50263
 O129 O -0.13024 0.43214 0.49814
 O130 O 0.06843 0.49995 0.63032
 O131 O 0.06776 0.50038 0.36988
 O132 O -0.06918 0.49670 0.37010
 O133 O -0.06838 0.50355 0.63010
 O134 O 0.00230 0.37072 0.56977
 O135 O -0.00219 0.36945 0.43292
 O136 O 0.00112 0.43283 0.63097
 O137 O -0.00301 0.43054 0.37067
 O138 O 0.12997 0.49799 0.56865
 O139 O -0.13011 0.50228 0.56841
 O140 O -0.13058 0.49911 0.43186
 O141 O 0.12956 0.50136 0.43157
 O142 O 0.06784 0.36984 0.50258
 O143 O -0.06877 0.37034 0.49975
 Zr144 Zr 0.08872 0.49977 0.50009
 Zr145 Zr -0.08905 0.50048 0.50009
 Zr146 Zr -0.00005 0.50088 0.58903
 Zr147 Zr -0.00055 0.49930 0.41103
 Zr148 Zr -0.00032 0.41124 0.50092
 O149 O -0.04628 0.45401 0.45468
 O150 O 0.04568 0.45451 0.54647
 C151 C 0.11466 0.38451 0.50360
 C152 C -0.11548 0.38532 0.49806
 C153 C 0.11518 0.49820 0.61548
 C154 C 0.11458 0.50174 0.38474
 C155 C -0.11590 0.49698 0.38508
 C156 C -0.11520 0.50393 0.61521
 C157 C 0.00264 0.38594 0.61647
 C158 C -0.00361 0.38390 0.38598
 H159 H -0.06745 0.43356 0.56794
 O160 O -0.04587 0.45495 0.54618
 H161 H 0.06673 0.43214 0.43330
 O162 O 0.04525 0.45393 0.45472
 O163 O 0.37009 0.06738 0.50251
 O164 O 0.62990 0.06868 0.49717
 O165 O 0.49767 0.12968 0.56810
 O166 O 0.50184 0.12919 0.43119
 O167 O 0.50084 0.06743 0.36967
 O168 O 0.49932 0.06823 0.62997
 O169 O 0.56792 0.12995 0.49812
 O170 O 0.43143 0.12927 0.50109
 Zr171 Zr 0.49989 0.08839 0.49976
 O172 O 0.54565 0.04543 0.45386
 O173 O 0.45445 0.04533 0.54590
 C174 C 0.38474 0.11425 0.50272
 C175 C 0.61475 0.11537 0.49665
 C176 C 0.49756 0.11496 0.61499
 C177 C 0.50222 0.11422 0.38443
 H178 H 0.56758 0.06735 0.56696
 O179 O 0.54605 0.04559 0.54546
 H180 H 0.43242 0.06630 0.43265
 O181 O 0.45422 0.04487 0.45425
 O182 O 0.63090 -0.06817 0.50213
 O183 O 0.37091 -0.06949 0.49806
 O184 O 0.56937 -0.00239 0.62982
 O185 O 0.56791 0.00096 0.36965
 O186 O 0.43123 -0.00346 0.37025
 O187 O 0.43244 0.00185 0.63020
 O188 O 0.50396 -0.13006 0.56883
 O189 O 0.49956 -0.13082 0.43202
 O190 O 0.50263 -0.06826 0.63028
 O191 O 0.49762 -0.06935 0.37013
 O192 O 0.63078 -0.00069 0.56801
 O193 O 0.37059 0.00032 0.56864
 O194 O 0.36995 -0.00262 0.43212
 O195 O 0.62991 0.00231 0.43112
 O196 O 0.56956 -0.13015 0.50132
 O197 O 0.43285 -0.13085 0.49893
 Zr198 Zr 0.58929 0.00005 0.49974
 Zr199 Zr 0.41152 -0.00088 0.50026
 Zr200 Zr 0.50075 -0.00017 0.58892
 Zr201 Zr 0.49983 -0.00082 0.41106
 Zr202 Zr 0.50100 -0.08934 0.50023
 O203 O 0.45453 -0.04673 0.45445
 O204 O 0.54672 -0.04589 0.54589
 C205 C 0.61625 -0.11505 0.50251
 C206 C 0.38601 -0.11619 0.49752
 C207 C 0.61607 -0.00239 0.61480
 C208 C 0.61475 0.00265 0.38436
 C209 C 0.38455 -0.00412 0.38530
 C210 C 0.38556 0.00196 0.61541
 C211 C 0.50438 -0.11501 0.61556
 C212 C 0.49772 -0.11610 0.38518
 H213 H 0.43382 -0.06793 0.56761
 O214 O 0.45521 -0.04627 0.54593
 H215 H 0.56774 -0.06747 0.43264
 O216 O 0.54614 -0.04600 0.45426
 C217 C 0.23008 0.23009 -0.00539
 C218 C 0.18014 0.24123 -0.02002
 C219 C 0.14278 0.20388 -0.01893
 C220 C 0.15457 0.15436 -0.00366
 C221 C 0.20455 0.14302 0.01047
 C222 C 0.24179 0.18049 0.00986
 C223 C 0.26964 0.27011 -0.00553
 C224 C 0.31969 0.25877 -0.01939
 C225 C 0.35702 0.29616 -0.01850
 C226 C 0.34512 0.34591 -0.00419
 C227 C 0.29502 0.35744 0.00910
 C228 C 0.25780 0.31995 0.00869
 H229 H 0.10474 0.21372 -0.03057
 H230 H 0.21477 0.10532 0.02284
 H231 H 0.39515 0.28614 -0.02946
 H232 H 0.28466 0.39531 0.02069
 H233 H 0.27959 0.17074 0.02222
 H234 H 0.32998 0.22106 -0.03144
 H235 H 0.16995 0.27875 -0.03287
 H236 H 0.21991 0.32988 0.02043
 C237 C 0.23086 -0.27063 0.49352
 C238 C 0.18122 -0.25868 0.50823
 C239 C 0.14365 -0.29575 0.50866
 C240 C 0.15493 -0.34579 0.49491
 C241 C 0.20449 -0.35782 0.48014
 C242 C 0.24196 -0.32061 0.47922
 C243 C 0.27092 -0.23122 0.49365
 C244 C 0.32054 -0.24308 0.50875
 C245 C 0.35802 -0.20587 0.50956
 C246 C 0.34662 -0.15583 0.49578
 C247 C 0.29709 -0.14395 0.48055
 C248 C 0.25975 -0.18126 0.47926
 H249 H 0.10593 -0.28536 0.52064
 H250 H 0.21425 -0.39593 0.46885
 H251 H 0.39573 -0.21616 0.52183
 H252 H 0.28723 -0.10586 0.46915
 H253 H 0.27954 -0.33093 0.46683
 H254 H 0.33028 -0.28095 0.52089
 H255 H 0.17153 -0.22082 0.52033
 H256 H 0.22220 -0.17101 0.46651
 C257 C 0.77040 0.77092 -0.00609
 C258 C 0.75743 0.82219 -0.00055
 C259 C 0.79465 0.85972 -0.00058
 C260 C 0.84621 0.84707 -0.00523
 C261 C 0.85909 0.79565 -0.01083
 C262 C 0.82173 0.75828 -0.01167
 C263 C 0.73069 0.73083 -0.00554
 C264 C 0.74066 0.68301 0.01569
 C265 C 0.70347 0.64546 0.01631
 C266 C 0.65509 0.65505 -0.00344
 C267 C 0.64484 0.70277 -0.02440
 C268 C 0.68229 0.74006 -0.02585
 H269 H 0.78279 0.89864 0.00406
 H270 H 0.89810 0.78399 -0.01507
 H271 H 0.71231 0.60918 0.03319
 H272 H 0.60802 0.71107 -0.04038
 H273 H 0.83322 0.71940 -0.01718
 H274 H 0.77699 0.67470 0.03268
 H275 H 0.71847 0.83346 0.00478
 H276 H 0.67338 0.77592 -0.04346
 C277 C 0.76933 0.27039 0.49427
 C278 C 0.75814 0.32035 0.47988
 C279 C 0.79546 0.35770 0.48123
 C280 C 0.84496 0.34583 0.49654
 C281 C 0.85631 0.29582 0.51050
 C282 C 0.81888 0.25861 0.50962
 C283 C 0.72943 0.23081 0.49383
 C284 C 0.74090 0.18090 0.47958
 C285 C 0.70369 0.14345 0.48043
 C286 C 0.65402 0.15514 0.49506
 C287 C 0.64233 0.20513 0.50864
 C288 C 0.67966 0.24247 0.50828
 H289 H 0.78563 0.39578 0.46976
 H290 H 0.89399 0.28553 0.52287
 H291 H 0.71378 0.10539 0.46923
 H292 H 0.60450 0.21530 0.52046
 H293 H 0.82862 0.22076 0.52184
 H294 H 0.77859 0.17081 0.46733
 H295 H 0.72061 0.33055 0.46701
 H296 H 0.66968 0.28028 0.52030
 C297 C 0.76965 0.23029 0.00629
 C298 C 0.75776 0.18063 -0.00848
 C299 C 0.79497 0.14319 -0.00920
 C300 C 0.84508 0.15464 0.00435
 C301 C 0.85703 0.20422 0.01920
 C302 C 0.81970 0.24156 0.02039
 C303 C 0.73014 0.27026 0.00638
 C304 C 0.74183 0.31988 -0.00872
 C305 C 0.70461 0.35732 -0.00927
 C306 C 0.65469 0.34590 0.00476
 C307 C 0.64293 0.29637 0.01992
 C308 C 0.68028 0.25904 0.02096
 H309 H 0.78460 0.10544 -0.02120
 H310 H 0.89519 0.21412 0.03037
 H311 H 0.71480 0.39503 -0.02156
 H312 H 0.60492 0.28651 0.03145
 H313 H 0.82998 0.27916 0.03283
 H314 H 0.77959 0.32965 -0.02104
 H315 H 0.71983 0.17082 -0.02041
 H316 H 0.67016 0.22147 0.03367
 C317 C 0.77156 -0.27005 0.50464
 C318 C 0.75880 -0.32135 0.51037
 C319 C 0.79603 -0.35884 0.50923
 C320 C 0.84742 -0.34613 0.50317
 C321 C 0.86019 -0.29460 0.49824
 C322 C 0.82279 -0.25724 0.49855
 C323 C 0.73160 -0.23020 0.50453
 C324 C 0.74113 -0.18190 0.52482
 C325 C 0.70384 -0.14440 0.52390
 C326 C 0.65585 -0.15454 0.50348
 C327 C 0.64602 -0.20281 0.48368
 C328 C 0.68353 -0.24002 0.48379
 H329 H 0.78428 -0.39782 0.51367
 H330 H 0.89910 -0.28287 0.49324
 H331 H 0.71233 -0.10767 0.53989
 H332 H 0.60954 -0.21157 0.46717
 H333 H 0.83413 -0.21831 0.49308
 H334 H 0.77724 -0.17312 0.54202
 H335 H 0.71996 -0.33272 0.51628
 H336 H 0.67497 -0.27624 0.46680
 C337 C 0.22949 0.26896 0.50664
 C338 C 0.24097 0.31893 0.52082
 C339 C 0.20375 0.35642 0.51983
 C340 C 0.15401 0.34474 0.50517
 C341 C 0.14231 0.29471 0.49163
 C342 C 0.17964 0.25735 0.49211
 C343 C 0.26942 0.22931 0.50635
 C344 C 0.25821 0.17923 0.52036
 C345 C 0.29555 0.14185 0.51908
 C346 C 0.34512 0.15377 0.50425
 C347 C 0.35650 0.20388 0.49072
 C348 C 0.31906 0.24112 0.49150
 H349 H 0.21388 0.39450 0.53095
 H350 H 0.10444 0.28454 0.47976
 H351 H 0.28567 0.10370 0.53022
 H352 H 0.39422 0.21426 0.47873
 H353 H 0.16960 0.21953 0.48011
 H354 H 0.22064 0.16895 0.53286
 H355 H 0.27868 0.32906 0.53315
 H356 H 0.32889 0.27902 0.47957
 C357 C 0.22971 0.76983 0.00579
 C358 C 0.24077 0.81972 0.02043
 C359 C 0.20336 0.85696 0.01928
 C360 C 0.15387 0.84506 0.00394
 C361 C 0.14261 0.79511 -0.01017
 C362 C 0.18015 0.75798 -0.00950
 C363 C 0.26979 0.73044 0.00594
 C364 C 0.25862 0.68042 0.02011
 C365 C 0.29607 0.64321 0.01921
 C366 C 0.34567 0.65524 0.00458
 C367 C 0.35704 0.70532 -0.00901
 C368 C 0.31948 0.74242 -0.00859
 H369 H 0.21312 0.89499 0.03089
 H370 H 0.10494 0.78482 -0.02258
 H371 H 0.28622 0.60507 0.03041
 H372 H 0.39480 0.71574 -0.02084
 H373 H 0.17051 0.72017 -0.02185
 H374 H 0.22100 0.67007 0.03239
 H375 H 0.27828 0.82995 0.03329
 H376 H 0.32921 0.78033 -0.02056
 C377 C -0.00643 0.22894 0.23110
 C378 C -0.02033 0.17883 0.24224
 C379 C -0.01920 0.14162 0.20474
 C380 C -0.00460 0.15374 0.15511
 C381 C 0.00884 0.20389 0.14382
 C382 C 0.00819 0.24096 0.18141
 C383 C -0.00673 0.26844 0.27114
 C384 C -0.02128 0.31833 0.25978
 C385 C -0.02030 0.35574 0.29704
 C386 C -0.00528 0.34407 0.34672
 C387 C 0.00862 0.29410 0.35833
 C388 C 0.00815 0.25679 0.32093
 H389 H -0.03026 0.10343 0.21456
 H390 H 0.02067 0.21441 0.10605
 H391 H -0.03169 0.39376 0.28697
 H392 H 0.02079 0.28397 0.39616
 H393 H 0.02002 0.27891 0.17166
 H394 H -0.03388 0.32846 0.22212
 H395 H -0.03265 0.16841 0.27985
 H396 H 0.02040 0.21901 0.33085
 C397 C 0.49412 0.27052 0.76951
 C398 C 0.50905 0.32021 0.75782
 C399 C 0.50957 0.35766 0.79508
 C400 C 0.49570 0.34623 0.84509
 C401 C 0.48066 0.29665 0.85684
 C402 C 0.47963 0.25931 0.81946
 C403 C 0.49425 0.23047 0.72995
 C404 C 0.50862 0.18068 0.74196
 C405 C 0.50925 0.14316 0.70478
 C406 C 0.49604 0.15459 0.65453
 C407 C 0.48164 0.20431 0.64244
 C408 C 0.48052 0.24173 0.67974
 H409 H 0.52172 0.39541 0.78486
 H410 H 0.46921 0.28673 0.89489
 H411 H 0.52089 0.10533 0.71532
 H412 H 0.47075 0.21427 0.60418
 H413 H 0.46700 0.22174 0.82964
 H414 H 0.52029 0.17079 0.77998
 H415 H 0.52128 0.33004 0.72002
 H416 H 0.46838 0.27940 0.66928
 C417 C -0.00601 0.77108 0.76843
 C418 C -0.02048 0.82101 0.75724
 C419 C -0.01951 0.85822 0.79471
 C420 C -0.00447 0.84620 0.84429
 C421 C 0.00958 0.79623 0.85562
 C422 C 0.00906 0.75917 0.81807
 C423 C -0.00615 0.73163 0.72849
 C424 C -0.02075 0.68179 0.73982
 C425 C -0.01966 0.64439 0.70262
 C426 C -0.00441 0.65606 0.65309
 C427 C 0.00955 0.70599 0.64151
 C428 C 0.00891 0.74331 0.67886
 H429 H -0.03104 0.89629 0.78493
 H430 H 0.02179 0.78586 0.89336
 H431 H -0.03118 0.60638 0.71260
 H432 H 0.02185 0.71610 0.60378
 H433 H 0.02131 0.72133 0.82778
 H434 H -0.03347 0.67172 0.77740
 H435 H -0.03310 0.83127 0.71963
 H436 H 0.02116 0.78110 0.66904
 C437 C 0.49487 -0.27112 0.23002
 C438 C 0.48954 -0.32251 0.24263
 C439 C 0.49060 -0.35981 0.20521
 C440 C 0.49623 -0.34681 0.15379
 C441 C 0.50078 -0.29520 0.14119
 C442 C 0.50055 -0.25804 0.17877
 C443 C 0.49499 -0.23143 0.27010
 C444 C 0.47428 -0.18327 0.26075
 C445 C 0.47539 -0.14578 0.29800
 C446 C 0.49642 -0.15577 0.34580
 C447 C 0.51653 -0.20395 0.35552
 C448 C 0.51622 -0.24118 0.31802
 H449 H 0.48647 -0.39888 0.21681
 H450 H 0.50546 -0.28324 0.10228
 H451 H 0.45914 -0.10913 0.28961
 H452 H 0.53348 -0.21258 0.39186
 H453 H 0.50573 -0.21903 0.16754
 H454 H 0.45665 -0.17457 0.22480
 H455 H 0.48399 -0.33408 0.28151
 H456 H 0.53348 -0.27733 0.32641
 C457 C 0.00495 0.76939 0.22788
 C458 C 0.01003 0.75694 0.17641
 C459 C 0.00878 0.79446 0.13911
 C460 C 0.00323 0.84584 0.15217
 C461 C -0.00112 0.85827 0.20385
 C462 C -0.00071 0.82061 0.24100
 C463 C 0.00512 0.72921 0.26763
 C464 C 0.02579 0.73854 0.31588
 C465 C 0.02483 0.70129 0.35346
 C466 C 0.00400 0.65347 0.34351
 C467 C -0.01596 0.64371 0.29522
 C468 C -0.01580 0.68122 0.25789
 H469 H 0.01274 0.78296 0.10000
 H470 H -0.00574 0.89714 0.21587
 H471 H 0.04102 0.70974 0.39017
 H472 H -0.03272 0.60735 0.28658
 H473 H -0.00573 0.83176 0.28005
 H474 H 0.04324 0.77450 0.32461
 H475 H 0.01554 0.71812 0.16477
 H476 H -0.03300 0.67279 0.22169
 C477 C 0.50759 -0.26941 0.77043
 C478 C 0.49258 -0.31898 0.75853
 C479 C 0.49155 -0.35633 0.79580
 C480 C 0.50500 -0.34484 0.84593
 C481 C 0.52003 -0.29533 0.85790
 C482 C 0.52157 -0.25809 0.82050
 C483 C 0.50791 -0.22957 0.73090
 C484 C 0.49263 -0.18002 0.74246
 C485 C 0.49203 -0.14272 0.70512
 C486 C 0.50619 -0.15425 0.65526
 C487 C 0.52164 -0.20370 0.64366
 C488 C 0.52273 -0.24089 0.68114
 H489 H 0.47940 -0.39405 0.78545
 H490 H 0.53105 -0.28543 0.89611
 H491 H 0.47957 -0.10504 0.71516
 H492 H 0.53329 -0.21360 0.60569
 H493 H 0.53416 -0.22052 0.83075
 H494 H 0.48015 -0.17023 0.78018
 H495 H 0.48070 -0.32876 0.72056
 H496 H 0.53559 -0.27844 0.67120
 C497 C 0.50536 0.26956 0.23000
 C498 C 0.52004 0.25853 0.18012
 C499 C 0.51913 0.29600 0.14287
 C500 C 0.50397 0.34549 0.15476
 C501 C 0.48980 0.35671 0.20470
 C502 C 0.49024 0.31913 0.24182
 C503 C 0.50534 0.22950 0.26945
 C504 C 0.51954 0.24070 0.31950
 C505 C 0.51849 0.20330 0.35680
 C506 C 0.50369 0.15371 0.34482
 C507 C 0.49005 0.14231 0.29471
 C508 C 0.49063 0.17983 0.25751
 H509 H 0.53075 0.28629 0.10484
 H510 H 0.47751 0.39438 0.21498
 H511 H 0.52974 0.21318 0.39495
 H512 H 0.47810 0.10454 0.28434
 H513 H 0.47785 0.32874 0.27961
 H514 H 0.53196 0.27831 0.32981
 H515 H 0.53276 0.22100 0.16992
 H516 H 0.47866 0.17008 0.21957
 C517 C 0.00557 0.23046 0.77164
 C518 C -0.00040 0.17930 0.75841
 C519 C -0.00079 0.14157 0.79548
 C520 C 0.00386 0.15390 0.84717
 C521 C 0.00981 0.20521 0.86033
 C522 C 0.01105 0.24279 0.82312
 C523 C 0.00560 0.27073 0.73201
 C524 C -0.01516 0.31873 0.74189
 C525 C -0.01548 0.35632 0.70465
 C526 C 0.00416 0.34660 0.65631
 C527 C 0.02483 0.29876 0.64623
 C528 C 0.02595 0.26144 0.68372
 H529 H -0.00568 0.10275 0.78340
 H530 H 0.01409 0.21662 0.89946
 H531 H -0.03210 0.39270 0.71338
 H532 H 0.04077 0.29036 0.60947
 H533 H 0.01685 0.28157 0.83482
 H534 H -0.03211 0.32712 0.77814
 H535 H -0.00570 0.16826 0.71934
 H536 H 0.04327 0.22546 0.67489
 C537 C 0.22956 -0.00783 0.23037
 C538 C 0.24111 0.00812 0.18098
 C539 C 0.20386 0.00895 0.14350
 C540 C 0.15405 -0.00565 0.15466
 C541 C 0.14241 -0.02167 0.20396
 C542 C 0.17981 -0.02298 0.24133
 C543 C 0.26912 -0.00800 0.27036
 C544 C 0.25726 0.00604 0.32023
 C545 C 0.29461 0.00679 0.35763
 C546 C 0.34480 -0.00599 0.34593
 C547 C 0.35667 -0.02022 0.29615
 C548 C 0.31922 -0.02145 0.25886
 H549 H 0.21393 0.02189 0.10597
 H550 H 0.10447 -0.03366 0.21358
 H551 H 0.28428 0.01825 0.39555
 H552 H 0.39489 -0.03076 0.28602
 H553 H 0.16982 -0.03633 0.27872
 H554 H 0.21927 0.01745 0.33022
 H555 H 0.27878 0.02090 0.17144
 H556 H 0.32947 -0.03336 0.22108
 C557 C 0.27082 0.49579 0.77074
 C558 C 0.25822 0.49026 0.82212
 C559 C 0.29560 0.49128 0.85958
 C560 C 0.34700 0.49702 0.84679
 C561 C 0.35961 0.50176 0.79520
 C562 C 0.32206 0.50159 0.75786
 C563 C 0.23071 0.49595 0.73090
 C564 C 0.23999 0.47553 0.68262
 C565 C 0.20263 0.47651 0.64509
 C566 C 0.15478 0.49714 0.65514
 C567 C 0.14516 0.51704 0.70341
 C568 C 0.18276 0.51686 0.74066
 H569 H 0.28397 0.48698 0.89862
 H570 H 0.39851 0.50656 0.78340
 H571 H 0.21098 0.46043 0.60838
 H572 H 0.10879 0.53369 0.71211
 H573 H 0.33330 0.50691 0.71888
 H574 H 0.27597 0.45817 0.67387
 H575 H 0.21937 0.48459 0.83356
 H576 H 0.17439 0.53392 0.77688
 C577 C 0.77099 -0.00533 0.77002
 C578 C 0.75793 0.00060 0.82119
 C579 C 0.79510 0.00094 0.85880
 C580 C 0.84666 -0.00373 0.84625
 C581 C 0.85963 -0.00964 0.79490
 C582 C 0.82232 -0.01085 0.75746
 C583 C 0.73134 -0.00524 0.72992
 C584 C 0.74105 0.01614 0.68214
 C585 C 0.70382 0.01649 0.64459
 C586 C 0.65572 -0.00372 0.65419
 C587 C 0.64577 -0.02494 0.70184
 C588 C 0.68327 -0.02609 0.73913
 H589 H 0.78321 0.00585 0.89768
 H590 H 0.89868 -0.01393 0.78338
 H591 H 0.71238 0.03353 0.60833
 H592 H 0.60915 -0.04132 0.71006
 H593 H 0.83380 -0.01661 0.71861
 H594 H 0.77717 0.03349 0.67392
 H595 H 0.71893 0.00591 0.83230
 H596 H 0.67467 -0.04383 0.77500
 C597 C -0.27117 0.49402 0.23001
 C598 C -0.25820 0.50000 0.17880
 C599 C -0.29545 0.50042 0.14124
 C600 C -0.34700 0.49575 0.15384
 C601 C -0.35989 0.48981 0.20522
 C602 C -0.32249 0.48854 0.24263
 C603 C -0.23142 0.49408 0.27007
 C604 C -0.24108 0.51531 0.31789
 C605 C -0.20377 0.51566 0.35538
 C606 C -0.15562 0.49558 0.34571
 C607 C -0.14572 0.47452 0.29801
 C608 C -0.18330 0.47337 0.26078
 H609 H -0.28361 0.50537 0.10235
 H610 H -0.39892 0.48558 0.21680
 H611 H -0.21232 0.53261 0.39165
 H612 H -0.10908 0.45829 0.28969
 H613 H -0.33393 0.48277 0.28149
 H614 H -0.27721 0.53256 0.32620
 H615 H -0.21923 0.50532 0.16762
 H616 H -0.17471 0.45575 0.22487
 C617 C 0.23050 0.00580 0.77023
 C618 C 0.24193 -0.00926 0.82000
 C619 C 0.20453 -0.00965 0.85724
 C620 C 0.15464 0.00452 0.84556
 C621 C 0.14313 0.01967 0.79588
 C622 C 0.18067 0.02055 0.75874
 C623 C 0.27024 0.00551 0.73041
 C624 C 0.25843 -0.00876 0.68053
 C625 C 0.29576 -0.00955 0.64322
 C626 C 0.34597 0.00342 0.65495
 C627 C 0.35788 0.01768 0.70477
 C628 C 0.32042 0.01895 0.74199
 H629 H 0.21458 -0.02192 0.89505
 H630 H 0.10517 0.03131 0.78577
 H631 H 0.28535 -0.02108 0.60530
 H632 H 0.39609 0.02838 0.71496
 H633 H 0.17068 0.03326 0.72109
 H634 H 0.22046 -0.02022 0.67040
 H635 H 0.27962 -0.02171 0.83005
 H636 H 0.33073 0.03100 0.77975
 C637 C 0.26967 0.50527 0.23022
 C638 C 0.25836 0.51960 0.18020
 C639 C 0.29572 0.51883 0.14291
 C640 C 0.34540 0.50417 0.15487
 C641 C 0.35688 0.49034 0.20493
 C642 C 0.31942 0.49064 0.24209
 C643 C 0.22970 0.50508 0.26973
 C644 C 0.24094 0.51935 0.31975
 C645 C 0.20363 0.51819 0.35707
 C646 C 0.15405 0.50320 0.34516
 C647 C 0.14260 0.48946 0.29508
 C648 C 0.18003 0.49014 0.25788
 H649 H 0.28576 0.53017 0.10480
 H650 H 0.39469 0.47843 0.21530
 H651 H 0.21356 0.52953 0.39518
 H652 H 0.10486 0.47736 0.28474
 H653 H 0.32929 0.47852 0.27997
 H654 H 0.27852 0.53195 0.33003
 H655 H 0.22070 0.53194 0.16990
 H656 H 0.17021 0.47808 0.21999
 C657 C 0.76931 0.00590 0.22952
 C658 C 0.75794 0.01985 0.17942
 C659 C 0.79522 0.01867 0.14209
 C660 C 0.84487 0.00397 0.15409
 C661 C 0.85641 -0.00948 0.20425
 C662 C 0.81902 -0.00876 0.24145
 C663 C 0.72943 0.00605 0.26906
 C664 C 0.74075 0.02075 0.31893
 C665 C 0.70355 0.01967 0.35635
 C666 C 0.65403 0.00434 0.34465
 C667 C 0.64249 -0.00974 0.29470
 C668 C 0.67981 -0.00914 0.25740
 H669 H 0.78523 0.02975 0.10390
 H670 H 0.89421 -0.02138 0.21467
 H671 H 0.71352 0.03127 0.39437
 H672 H 0.60478 -0.02211 0.28454
 H673 H 0.82892 -0.02060 0.27941
 H674 H 0.77831 0.03355 0.32903
 H675 H 0.72028 0.03220 0.16909
 H676 H 0.66995 -0.02151 0.21962
 C677 C -0.26964 0.50707 0.77047
 C678 C -0.25791 0.49181 0.82011
 C679 C -0.29513 0.49115 0.85753
 C680 C -0.34509 0.50524 0.84611
 C681 C -0.35689 0.52054 0.79655
 C682 C -0.31955 0.52168 0.75924
 C683 C -0.23012 0.50714 0.73048
 C684 C -0.24208 0.49286 0.68063
 C685 C -0.20492 0.49233 0.64317
 C686 C -0.15475 0.50555 0.65473
 C687 C -0.14272 0.51991 0.70450
 C688 C -0.18001 0.52093 0.74187
 H689 H -0.28489 0.47875 0.89525
 H690 H -0.39492 0.53211 0.78665
 H691 H -0.21538 0.48070 0.60529
 H692 H -0.10453 0.53080 0.71456
 H693 H -0.32975 0.53452 0.72169
 H694 H -0.28003 0.48116 0.67066
 H695 H -0.22013 0.47946 0.82992
 H696 H -0.16963 0.53300 0.77960
   
