data_POSCAR
  _audit_creation_date              2014-09-24
  _audit_creation_method            'ToBaCCo'
  _symmetry_space_group_name_H-M    'P1'
  _symmetry_Int_Tables_number       1
  _symmetry_cell_setting            triclinic
  loop_
  _symmetry_equiv_pos_as_xyz
 x,y,z
_cell_length_a 6.2053
_cell_length_b 6.2072
_cell_length_c 15.6259
_cell_angle_alpha 89.682400
_cell_angle_beta 90.322000
_cell_angle_gamma 119.784000
loop_
  _atom_site_label
  _atom_site_type_symbol
  _atom_site_fract_x
  _atom_site_fract_y
  _atom_site_fract_z
C1 C 0.00182 -0.00152 0.50042
 C2 C 0.99847 0.00170 0.16621
 C3 C 0.00309 1.00315 0.83330
 O4 O 0.63865 -0.16516 0.07470
 O5 O 0.18787 -0.16246 -0.07663
 O6 O 0.58929 -0.23158 -0.09060
 O7 O 0.17645 -0.23183 0.08986
 O8 O 0.35533 0.16915 0.07401
 O9 O 0.80539 0.16964 -0.07673
 O10 O 0.40324 0.23824 -0.09223
 O11 O 0.81861 0.23579 0.08939
 Cu12 Cu 0.38131 -0.22904 -0.00119
 Cu13 Cu 0.61223 0.23526 -0.00186
 C14 C 0.81325 0.03320 0.10694
 C15 C 0.20788 0.03483 -0.10966
 C16 C 0.78517 -0.02882 -0.10791
 C17 C 0.18196 -0.02934 0.10685
 O18 O -0.16383 0.63874 0.59161
 O19 O -0.16198 0.18763 0.74282
 O20 O -0.23199 0.58721 0.75806
 O21 O -0.23370 0.17320 0.57756
 O22 O 0.16796 0.35566 0.59220
 O23 O 0.16872 0.80580 0.74281
 O24 O 0.23846 0.40481 0.75940
 O25 O 0.23778 0.82123 0.57777
 Cu26 Cu -0.22846 0.38193 0.66767
 Cu27 Cu 0.23399 0.61152 0.66833
 C28 C 0.03449 0.81415 0.55967
 C29 C 0.03521 0.20825 0.77625
 C30 C -0.02952 0.78468 0.77456
 C31 C -0.03042 0.18102 0.55982
 O32 O 0.19354 0.35892 0.40926
 O33 O 0.64030 0.80811 0.25760
 O34 O 0.17450 0.41239 0.24304
 O35 O 0.58959 0.82387 0.42364
 O36 O 0.80840 0.64020 0.40906
 O37 O 0.35885 0.19368 0.25742
 O38 O 0.82413 0.58952 0.24298
 O39 O 0.41250 0.17476 0.42358
 Cu40 Cu 0.38404 0.61622 0.33336
 Cu41 Cu 0.61636 0.38409 0.33328
 C42 C 0.21693 0.18262 0.44128
 C43 C 0.81603 0.78550 0.22547
 C44 C 0.18242 0.21690 0.22537
 C45 C 0.78566 0.81583 0.44117
   
