data_POSCAR
  _audit_creation_date              2014-09-24
  _audit_creation_method            'ToBaCCo'
  _symmetry_space_group_name_H-M    'P1'
  _symmetry_Int_Tables_number       1
  _symmetry_cell_setting            triclinic
  loop_
  _symmetry_equiv_pos_as_xyz
 x,y,z
_cell_length_a 17.3685
_cell_length_b 17.5277
_cell_length_c 17.4687
_cell_angle_alpha 91.183500
_cell_angle_beta 91.293200
_cell_angle_gamma 90.712200
loop_
  _atom_site_label
  _atom_site_type_symbol
  _atom_site_fract_x
  _atom_site_fract_y
  _atom_site_fract_z
C1 C 0.00320 0.42356 0.19795
 C2 C 0.07661 0.43069 0.24680
 C3 C 0.08132 0.49493 0.29152
 C4 C 0.00988 0.54716 0.28393
 C5 C -0.06226 0.42958 0.25404
 C6 C -0.06028 0.49404 0.29850
 C7 C -0.00021 0.49754 0.15189
 C8 C 0.00323 0.56262 0.19712
 H9 H 0.12333 0.39011 0.24308
 H10 H 0.01288 0.59923 0.32127
 H11 H -0.11091 0.38982 0.25298
 H12 H -0.00607 0.49836 0.08987
 C13 C 0.01068 0.41627 0.79390
 C14 C -0.04856 0.41880 0.73449
 C15 C -0.04554 0.48616 0.69023
 C16 C 0.01926 0.53716 0.71194
 C17 C 0.08285 0.42274 0.75495
 C18 C 0.08787 0.48920 0.70980
 C19 C 0.00351 0.48683 0.83958
 C20 C 0.00872 0.55402 0.79330
 H21 H -0.09954 0.38175 0.73381
 H22 H 0.02344 0.58835 0.67547
 H23 H 0.13117 0.38463 0.76385
 H24 H -0.00588 0.48877 0.90089
 C25 C 0.20594 0.00042 0.41602
 C26 C 0.25686 0.07148 0.42417
 C27 C 0.30048 0.07523 0.48966
 C28 C 0.29019 0.00505 0.54161
 C29 C 0.26046 -0.06653 0.42307
 C30 C 0.30390 -0.06561 0.48878
 C31 C 0.15829 -0.00063 0.48937
 C32 C 0.20273 0.00172 0.55540
 H33 H 0.25356 0.11841 0.38449
 H34 H 0.32687 0.00714 0.59456
 H35 H 0.25825 -0.11536 0.38357
 H36 H 0.09581 -0.00426 0.48910
 C37 C 0.77918 -0.00089 0.40572
 C38 C 0.72192 -0.06076 0.40927
 C39 C 0.67929 -0.05871 0.47787
 C40 C 0.69944 0.00558 0.52903
 C41 C 0.73557 0.07317 0.41447
 C42 C 0.69427 0.07708 0.47935
 C43 C 0.82923 -0.00636 0.47938
 C44 C 0.78628 -0.00258 0.54416
 H45 H 0.72267 -0.11133 0.37196
 H46 H 0.66418 0.00884 0.58134
 H47 H 0.74367 0.12165 0.37744
 H48 H 0.89142 -0.01223 0.48025
 C49 C 0.41699 0.20828 1.00480
 C50 C 0.42428 0.25365 1.07495
 C51 C 0.49310 0.29907 1.08069
 C52 C 0.54241 0.29089 1.01274
 C53 C 0.42262 0.26204 0.94314
 C54 C 0.49181 0.30712 0.94573
 C55 C 0.48710 0.16263 1.00148
 C56 C 0.55699 0.20847 1.00586
 H57 H 0.38469 0.24887 1.12214
 H58 H 0.59539 0.32723 1.01638
 H59 H 0.38382 0.26060 0.89322
 H60 H 0.48695 0.10089 0.99412
 C61 C 0.41480 0.79213 1.01254
 C62 C 0.41905 0.73046 0.95026
 C63 C 0.48487 0.68946 0.95355
 C64 C 0.53891 0.71206 1.02173
 C65 C 0.42249 0.75012 1.08740
 C66 C 0.48754 0.70833 1.09256
 C67 C 0.48474 0.83808 1.00665
 C68 C 0.55315 0.79316 1.01200
 H69 H 0.38077 0.72925 0.90000
 H70 H 0.59151 0.67671 1.02620
 H71 H 0.38283 0.75688 1.13431
 H72 H 0.48531 0.89900 0.99621
 B73 B 0.98621 1.06908 0.03131
 B74 B 0.98606 1.06770 -0.06461
 B75 B 1.06434 1.03886 -0.01518
 B76 B 1.03366 0.99199 0.06161
 B77 B 0.93721 0.99167 0.05913
 B78 B 0.90677 1.03890 -0.01854
 B79 B 0.98451 0.91204 -0.06617
 B80 B 0.98467 0.91335 0.03043
 B81 B 0.90628 0.94238 -0.01937
 B82 B 0.93657 0.98962 -0.09645
 B83 B 1.03388 0.98991 -0.09456
 B84 B 1.06285 0.94324 -0.01596
 B85 B 0.59276 0.50925 0.46944
 B86 B 0.59439 0.50980 0.56560
 B87 B 0.56285 0.58619 0.51910
 B88 B 0.51357 0.55552 0.44036
 B89 B 0.51390 0.45920 0.43778
 B90 B 0.56378 0.43122 0.51656
 B91 B 0.43757 0.50722 0.56535
 B92 B 0.43523 0.50670 0.46851
 B93 B 0.46647 0.42902 0.51614
 B94 B 0.51698 0.46032 0.59528
 B95 B 0.51671 0.55605 0.59605
 B96 B 0.46638 0.58512 0.51871
 C97 C 0.99901 1.35077 0.15512
 C98 C 0.99531 1.28731 0.12737
 C99 C 0.99117 1.21151 0.09887
 C100 C 0.98826 1.14731 0.07302
 C101 C 0.99801 0.63883 0.16584
 C102 C 0.99363 0.70194 0.13874
 C103 C 0.98894 0.77531 0.10523
 C104 C 0.98594 0.83677 0.07457
 C105 C 1.00528 1.34860 -0.16780
 C106 C 0.99965 1.28526 -0.14417
 C107 C 0.99311 1.20926 -0.12284
 C108 C 0.98863 1.14473 -0.10254
 C109 C 1.00091 0.62694 -0.17919
 C110 C 0.99478 0.69233 -0.15757
 C111 C 0.98896 0.76906 -0.13232
 C112 C 0.98560 0.83356 -0.10745
 C113 C 1.16307 0.99796 0.34272
 C114 C 1.13394 0.99627 0.27946
 C115 C 1.10312 0.99460 0.20409
 C116 C 1.07567 0.99336 0.14018
 C117 C 1.17032 0.99833 -0.36880
 C118 C 1.14281 0.99543 -0.30573
 C119 C 1.10916 0.99235 -0.23236
 C120 C 1.07835 0.99046 -0.17087
 C121 C 0.81924 0.99602 0.33427
 C122 C 0.84534 0.99431 0.27180
 C123 C 0.87195 0.99310 0.19753
 C124 C 0.89673 0.99244 0.13457
 C125 C 0.81781 0.99386 -0.37956
 C126 C 0.84129 0.99158 -0.31452
 C127 C 0.86852 0.98981 -0.23838
 C128 C 0.89477 0.98914 -0.17431
 C129 C 1.34719 1.16768 0.00028
 C130 C 1.28372 1.13845 -0.00384
 C131 C 1.20786 1.10776 -0.00852
 C132 C 1.14356 1.08060 -0.01203
 C133 C 0.62951 1.17763 -0.00088
 C134 C 0.69296 1.14944 -0.00675
 C135 C 0.76689 1.11476 -0.01298
 C136 C 0.82891 1.08342 -0.01695
 C137 C 1.34268 0.83187 0.00620
 C138 C 1.27927 0.85655 -0.00020
 C139 C 1.20373 0.88086 -0.00766
 C140 C 1.13962 0.90384 -0.01281
 C141 C 0.62512 0.82188 0.00180
 C142 C 0.68955 0.84545 -0.00653
 C143 C 0.76501 0.87341 -0.01444
 C144 C 0.82861 0.90031 -0.01877
 C145 C 0.87080 0.51295 0.33962
 C146 C 0.80859 0.51852 0.36891
 C147 C 0.73388 0.51730 0.40020
 C148 C 0.67069 0.51353 0.42777
 C149 C 0.15306 0.51125 0.33323
 C150 C 0.21646 0.51523 0.36362
 C151 C 0.29201 0.51309 0.39666
 C152 C 0.35587 0.50939 0.42564
 C153 C 0.88530 0.50961 0.66246
 C154 C 0.81927 0.51911 0.64383
 C155 C 0.74046 0.51940 0.62464
 C156 C 0.67405 0.51519 0.60446
 C157 C 0.15682 0.50786 0.67984
 C158 C 0.22107 0.51466 0.65680
 C159 C 0.29702 0.51398 0.63109
 C160 C 0.36076 0.51037 0.60628
 C161 C 0.50770 0.67501 0.16405
 C162 C 0.51555 0.65056 0.22722
 C163 C 0.51697 0.62313 0.30188
 C164 C 0.51519 0.59706 0.36463
 C165 C 0.50984 0.65784 0.88245
 C166 C 0.52041 0.63779 0.81765
 C167 C 0.52306 0.61702 0.74005
 C168 C 0.52083 0.59568 0.67449
 C169 C 0.51163 0.33396 0.15055
 C170 C 0.51808 0.36093 0.21534
 C171 C 0.51822 0.39067 0.29248
 C172 C 0.51596 0.41745 0.35736
 C173 C 0.51296 0.34074 0.87850
 C174 C 0.52133 0.36633 0.81495
 C175 C 0.52282 0.39427 0.73864
 C176 C 0.52074 0.41972 0.67437
 C177 C 0.65508 0.87273 0.50305
 C178 C 0.63889 0.80786 0.51641
 C179 C 0.62138 0.73022 0.52235
 C180 C 0.60172 0.66456 0.52227
 C181 C 0.66733 0.14986 0.50393
 C182 C 0.64872 0.21456 0.51497
 C183 C 0.62738 0.29105 0.51897
 C184 C 0.60471 0.35517 0.51832
 C185 C 0.34150 0.86433 0.51019
 C186 C 0.36841 0.80162 0.51895
 C187 C 0.39781 0.72646 0.52193
 C188 C 0.42453 0.66300 0.52121
 C189 C 0.33902 0.14704 0.50976
 C190 C 0.36683 0.21059 0.51714
 C191 C 0.39720 0.28634 0.51872
 C192 C 0.42449 0.35023 0.51749
   
