data_POSCAR
  _audit_creation_date              2014-09-24
  _audit_creation_method            'ToBaCCo'
  _symmetry_space_group_name_H-M    'P1'
  _symmetry_Int_Tables_number       1
  _symmetry_cell_setting            triclinic
  loop_
  _symmetry_equiv_pos_as_xyz
 x,y,z
_cell_length_a 56.1038
_cell_length_b 55.5161
_cell_length_c 54.2182
_cell_angle_alpha 88.709800
_cell_angle_beta 86.053100
_cell_angle_gamma 86.928800
loop_
  _atom_site_label
  _atom_site_type_symbol
  _atom_site_fract_x
  _atom_site_fract_y
  _atom_site_fract_z
N1 N 0.25028 0.21995 0.21026
 N2 N 0.24197 0.24060 0.20108
 C3 C 0.25611 0.24683 0.18115
 C4 C 0.27416 0.22909 0.17760
 C5 C 0.26990 0.21221 0.19638
 H6 H 0.25358 0.26315 0.17015
 H7 H 0.28039 0.19577 0.20004
 Cu8 Cu 0.21338 0.25733 0.21590
 Cu9 Cu 0.23511 0.20516 0.23989
 Cu10 Cu 0.20262 0.24728 0.27668
 N11 N 0.18848 0.27590 0.23491
 N12 N 0.18461 0.27213 0.25884
 C13 C 0.16743 0.28806 0.26775
 C14 C 0.15996 0.30242 0.24834
 C15 C 0.17372 0.29426 0.22770
 H16 H 0.16089 0.28915 0.28695
 H17 H 0.17339 0.30137 0.20899
 N18 N 0.21421 0.21548 0.28917
 N19 N 0.22583 0.19907 0.27503
 C20 C 0.23002 0.17890 0.28869
 C21 C 0.22043 0.18289 0.31256
 C22 C 0.21058 0.20620 0.31217
 H23 H 0.23923 0.16259 0.28169
 H24 H 0.20100 0.21552 0.32744
 H25 H 0.20285 0.22607 0.24662
 H26 H 0.23196 0.23925 0.25182
 N27 N 0.72142 -0.19128 0.19351
 N28 N 0.73082 -0.21185 0.18482
 C29 C 0.71755 -0.21907 0.16682
 C30 C 0.69892 -0.20199 0.16410
 C31 C 0.70202 -0.18460 0.18123
 H32 H 0.72113 -0.23556 0.15668
 H33 H 0.69068 -0.16851 0.18481
 Cu34 Cu 0.75922 -0.22759 0.19808
 Cu35 Cu 0.73422 -0.17519 0.22081
 Cu36 Cu 0.78256 -0.20397 0.24726
 N37 N 0.78597 -0.24372 0.21404
 N38 N 0.79448 -0.23465 0.23362
 C39 C 0.81209 -0.24964 0.24153
 C40 C 0.81496 -0.26907 0.22602
 C41 C 0.79811 -0.26479 0.20868
 H42 H 0.82217 -0.24662 0.25738
 H43 H 0.79461 -0.27626 0.19363
 N44 N 0.76819 -0.17276 0.25857
 N45 N 0.74966 -0.16176 0.24861
 C46 C 0.74372 -0.14115 0.26076
 C47 C 0.75934 -0.13907 0.27909
 C48 C 0.77463 -0.15941 0.27719
 H49 H 0.72902 -0.12859 0.25675
 H50 H 0.78911 -0.16437 0.28875
 H51 H 0.76887 -0.18934 0.21537
 H52 H 0.74801 -0.20668 0.23654
 N53 N 0.72176 0.24561 0.78876
 N54 N 0.72575 0.26713 0.79673
 C55 C 0.71123 0.27185 0.81703
 C56 C 0.69745 0.25226 0.82207
 C57 C 0.70455 0.23589 0.80376
 H58 H 0.71073 0.28830 0.82742
 H59 H 0.69766 0.21835 0.80135
 Cu60 Cu 0.74949 0.28713 0.78017
 Cu61 Cu 0.73887 0.23209 0.75931
 Cu62 Cu 0.78649 0.26372 0.73446
 N63 N 0.77893 0.30211 0.76910
 N64 N 0.79339 0.29276 0.75133
 C65 C 0.81246 0.30636 0.74748
 C66 C 0.80979 0.32531 0.76381
 C67 C 0.78829 0.32207 0.77722
 H68 H 0.82707 0.30259 0.73386
 H69 H 0.78020 0.33327 0.79192
 N70 N 0.77664 0.23401 0.72002
 N71 N 0.75855 0.22174 0.72946
 C72 C 0.75618 0.20256 0.71514
 C73 C 0.77364 0.20299 0.69583
 C74 C 0.78620 0.22309 0.69950
 H75 H 0.74257 0.18957 0.71830
 H76 H 0.80107 0.22940 0.68781
 H77 H 0.76918 0.24947 0.76616
 H78 H 0.74968 0.26378 0.74261
 N79 N 0.28516 -0.25000 0.79585
 N80 N 0.28192 -0.27312 0.79955
 C81 C 0.29671 -0.28199 0.81643
 C82 C 0.30985 -0.26346 0.82380
 C83 C 0.30213 -0.24335 0.81037
 H84 H 0.29768 -0.30051 0.82307
 H85 H 0.30838 -0.22530 0.81099
 Cu86 Cu 0.25841 -0.28969 0.78267
 Cu87 Cu 0.26710 -0.23050 0.77242
 Cu88 Cu 0.21870 -0.25715 0.75028
 N89 N 0.22894 -0.30295 0.77386
 N90 N 0.21328 -0.29007 0.76146
 C91 C 0.19469 -0.30357 0.75772
 C92 C 0.19899 -0.32616 0.76842
 C93 C 0.22086 -0.32510 0.77852
 H94 H 0.17940 -0.29737 0.74779
 H95 H 0.23020 -0.33939 0.78847
 N96 N 0.22732 -0.22414 0.74092
 N97 N 0.24623 -0.21415 0.74863
 C98 C 0.24843 -0.19243 0.73726
 C99 C 0.22989 -0.18870 0.72181
 C100 C 0.21685 -0.20902 0.72470
 H101 H 0.26263 -0.18048 0.73974
 H102 H 0.20141 -0.21285 0.71485
 H103 H 0.23757 -0.25039 0.78082
 H104 H 0.25570 -0.25769 0.75135
 N105 N 0.75167 -0.21404 0.80336
 N106 N 0.76533 -0.23084 0.81366
 C107 C 0.75310 -0.24036 0.83346
 C108 C 0.73061 -0.22886 0.83568
 C109 C 0.73032 -0.21223 0.81626
 H110 H 0.75991 -0.25478 0.84520
 H111 H 0.71564 -0.19995 0.81158
 Cu112 Cu 0.79752 -0.23914 0.79987
 Cu113 Cu 0.76230 -0.19613 0.77371
 Cu114 Cu 0.81630 -0.21586 0.74445
 N115 N 0.82526 -0.25309 0.78084
 N116 N 0.83239 -0.24407 0.75912
 C117 C 0.85105 -0.25784 0.74946
 C118 C 0.85588 -0.27645 0.76601
 C119 C 0.83919 -0.27287 0.78584
 H120 H 0.86013 -0.25485 0.73148
 H121 H 0.83675 -0.28413 0.80225
 N122 N 0.79715 -0.18767 0.73266
 N123 N 0.77632 -0.18043 0.74357
 C124 C 0.76709 -0.16157 0.73065
 C125 C 0.78293 -0.15662 0.71082
 C126 C 0.80181 -0.17349 0.71261
 H127 H 0.75001 -0.15218 0.73514
 H128 H 0.81747 -0.17569 0.69993
 H129 H 0.78346 -0.22525 0.76038
 H130 H 0.79887 -0.20135 0.77608
 N131 N 0.26729 0.20160 0.81531
 N132 N 0.25823 0.22267 0.82294
 C133 C 0.27001 0.22944 0.84222
 C134 C 0.28732 0.21167 0.84696
 C135 C 0.28513 0.19419 0.82954
 H136 H 0.26658 0.24625 0.85185
 H137 H 0.29611 0.17773 0.82691
 Cu138 Cu 0.23270 0.23992 0.80642
 Cu139 Cu 0.25615 0.18631 0.78652
 Cu140 Cu 0.20659 0.21379 0.76051
 N141 N 0.20274 0.25290 0.79454
 N142 N 0.19286 0.24315 0.77613
 C143 C 0.17304 0.25659 0.77094
 C144 C 0.17040 0.27562 0.78715
 C145 C 0.18942 0.27262 0.80192
 H146 H 0.16145 0.25275 0.75655
 H147 H 0.19348 0.28426 0.81664
 N148 N 0.22317 0.18397 0.74756
 N149 N 0.24221 0.17370 0.75732
 C150 C 0.25016 0.15454 0.74372
 C151 C 0.23536 0.15253 0.72467
 C152 C 0.21840 0.17145 0.72761
 H153 H 0.26582 0.14306 0.74710
 H154 H 0.20414 0.17619 0.71570
 H155 H 0.24167 0.21663 0.76894
 H156 H 0.22154 0.20108 0.79240
 N157 N 0.26851 -0.23570 0.21840
 N158 N 0.25947 -0.25050 0.20338
 C159 C 0.27632 -0.25699 0.18549
 C160 C 0.29699 -0.24558 0.18966
 C161 C 0.29139 -0.23230 0.21067
 H162 H 0.27367 -0.26900 0.17061
 H163 H 0.30309 -0.22076 0.21946
 Cu164 Cu 0.22648 -0.25956 0.20859
 Cu165 Cu 0.24975 -0.22123 0.24625
 Cu166 Cu 0.19318 -0.24193 0.25999
 N167 N 0.19694 -0.27459 0.21934
 N168 N 0.18379 -0.26757 0.23916
 C169 C 0.16471 -0.28135 0.24231
 C170 C 0.16612 -0.29792 0.22346
 C171 C 0.18677 -0.29310 0.20929
 H172 H 0.15119 -0.27976 0.25747
 H173 H 0.19402 -0.30265 0.19306
 N174 N 0.20638 -0.21615 0.27872
 N175 N 0.22812 -0.20862 0.27359
 C176 C 0.23232 -0.19147 0.28965
 C177 C 0.21227 -0.18800 0.30573
 C178 C 0.19614 -0.20387 0.29824
 H179 H 0.24872 -0.18213 0.28952
 H180 H 0.17835 -0.20638 0.30656
 H181 H 0.22887 -0.25097 0.25205
 H182 H 0.21561 -0.22473 0.23447
 N183 N 0.71840 0.24055 0.19332
 N184 N 0.72482 0.26130 0.18360
 C185 C 0.71295 0.26604 0.16312
 C186 C 0.69843 0.24718 0.15986
 C187 C 0.70231 0.23131 0.17939
 H188 H 0.71437 0.28222 0.15173
 H189 H 0.69349 0.21475 0.18375
 Cu190 Cu 0.74700 0.28068 0.19949
 Cu191 Cu 0.72952 0.22838 0.22457
 Cu192 Cu 0.78015 0.25415 0.24328
 N193 N 0.77544 0.29486 0.20993
 N194 N 0.78865 0.28436 0.22661
 C195 C 0.80700 0.29830 0.23027
 C196 C 0.80508 0.31857 0.21500
 C197 C 0.78491 0.31575 0.20238
 H198 H 0.82041 0.29417 0.24334
 H199 H 0.77761 0.32811 0.18879
 N200 N 0.76805 0.22382 0.25790
 N201 N 0.74843 0.21451 0.25105
 C202 C 0.74383 0.19487 0.26518
 C203 C 0.76130 0.19160 0.28174
 C204 C 0.77646 0.21024 0.27669
 H205 H 0.72864 0.18389 0.26381
 H206 H 0.79194 0.21408 0.28646
 H207 H 0.74436 0.25838 0.23918
 H208 H 0.76233 0.24157 0.21427
 C209 C 0.23256 -0.00011 0.50881
 C210 C 0.23543 -0.02458 0.51001
 C211 C 0.23781 -0.03770 0.53398
 C212 C 0.23600 -0.03955 0.48761
 C213 C 0.23244 0.01348 0.48490
 C214 C 0.22926 0.01445 0.53152
 C215 C 0.25593 -0.03264 0.54942
 C216 C 0.25807 -0.04529 0.57183
 C217 C 0.24216 -0.06318 0.57920
 C218 C 0.22434 -0.06854 0.56340
 C219 C 0.22222 -0.05590 0.54103
 C220 C 0.25566 -0.05562 0.48202
 C221 C 0.25617 -0.07030 0.46139
 C222 C 0.23681 -0.06961 0.44627
 C223 C 0.21707 -0.05347 0.45187
 C224 C 0.21668 -0.03858 0.47240
 C225 C 0.21351 0.03027 0.48069
 C226 C 0.21378 0.04437 0.45904
 C227 C 0.23323 0.04217 0.44125
 C228 C 0.25188 0.02493 0.44521
 C229 C 0.25161 0.01084 0.46694
 C230 C 0.20939 0.01169 0.54833
 C231 C 0.20603 0.02606 0.56926
 C232 C 0.22264 0.04317 0.57390
 C233 C 0.24247 0.04599 0.55693
 C234 C 0.24563 0.03184 0.53585
 H235 H 0.26850 -0.01902 0.54404
 H236 H 0.27218 -0.04107 0.58345
 H237 H 0.21228 -0.08279 0.56788
 H238 H 0.20833 -0.06029 0.52921
 H239 H 0.27068 -0.05669 0.49360
 H240 H 0.27164 -0.08247 0.45739
 H241 H 0.20125 -0.02643 0.47655
 H242 H 0.19850 0.03249 0.49426
 H243 H 0.19866 0.05681 0.45630
 H244 H 0.26699 0.02281 0.43175
 H245 H 0.26658 -0.00177 0.46997
 H246 H 0.19636 -0.00138 0.54504
 H247 H 0.19049 0.02376 0.58193
 H248 H 0.25523 0.05948 0.55956
 H249 H 0.26090 0.03440 0.52288
 H250 H 0.20209 -0.05206 0.44029
 C251 C 0.78919 0.03076 0.49559
 C252 C 0.79094 0.00626 0.49508
 C253 C 0.79118 -0.00707 0.47160
 C254 C 0.79300 -0.00849 0.51807
 C255 C 0.78616 0.04388 0.51922
 C256 C 0.79045 0.04580 0.47262
 C257 C 0.77293 -0.00290 0.45531
 C258 C 0.77294 -0.01617 0.43369
 C259 C 0.79113 -0.03410 0.42812
 C260 C 0.80938 -0.03808 0.44444
 C261 C 0.80935 -0.02481 0.46600
 C262 C 0.77637 -0.02595 0.52440
 C263 C 0.77858 -0.04044 0.54560
 C264 C 0.79765 -0.03785 0.56073
 C265 C 0.81445 -0.02058 0.55414
 C266 C 0.81210 -0.00593 0.53306
 C267 C 0.80247 0.06105 0.52429
 C268 C 0.79933 0.07429 0.54595
 C269 C 0.77944 0.07096 0.56276
 C270 C 0.76340 0.05338 0.55784
 C271 C 0.76664 0.04002 0.53620
 C272 C 0.81063 0.04409 0.45584
 C273 C 0.81207 0.05919 0.43484
 C274 C 0.79326 0.07601 0.43016
 C275 C 0.77315 0.07780 0.44713
 C276 C 0.77184 0.06289 0.46822
 H277 H 0.75852 0.01045 0.45949
 H278 H 0.75869 -0.01221 0.42159
 H279 H 0.82363 -0.05172 0.44065
 H280 H 0.82356 -0.02838 0.47835
 H281 H 0.76171 -0.02835 0.51285
 H282 H 0.76570 -0.05405 0.54968
 H283 H 0.82535 0.00717 0.52820
 H284 H 0.81773 0.06412 0.51147
 H285 H 0.81266 0.08693 0.54940
 H286 H 0.74805 0.05032 0.57054
 H287 H 0.75373 0.02698 0.53247
 H288 H 0.82539 0.03133 0.45921
 H289 H 0.82787 0.05771 0.42220
 H290 H 0.75867 0.09108 0.44453
 H291 H 0.75629 0.06470 0.48118
 H292 H 0.82943 -0.01844 0.56533
 C293 C 0.49531 0.19541 0.01926
 C294 C 0.49549 0.19447 -0.00582
 C295 C 0.47326 0.19181 -0.01861
 C296 C 0.51782 0.19650 -0.02193
 C297 C 0.51777 0.19661 0.03201
 C298 C 0.47270 0.19557 0.03523
 C299 C 0.45947 0.17161 -0.01415
 C300 C 0.43890 0.16914 -0.02688
 C301 C 0.43168 0.18695 -0.04401
 C302 C 0.44571 0.20703 -0.04860
 C303 C 0.46635 0.20936 -0.03608
 C304 C 0.52438 0.17878 -0.03949
 C305 C 0.54481 0.18088 -0.05544
 C306 C 0.55896 0.20089 -0.05440
 C307 C 0.55248 0.21858 -0.03658
 C308 C 0.53199 0.21647 -0.02065
 C309 C 0.52077 0.21612 0.04726
 C310 C 0.54186 0.21762 0.05929
 C311 C 0.56024 0.19946 0.05642
 C312 C 0.55695 0.17965 0.04159
 C313 C 0.53594 0.17828 0.02936
 C314 C 0.45409 0.21299 0.03175
 C315 C 0.43300 0.21308 0.04708
 C316 C 0.43031 0.19595 0.06651
 C317 C 0.44903 0.17864 0.06994
 C318 C 0.47006 0.17853 0.05457
 H319 H 0.46479 0.15769 -0.00102
 H320 H 0.42855 0.15337 -0.02328
 H321 H 0.44112 0.22070 -0.06226
 H322 H 0.47696 0.22490 -0.03998
 H323 H 0.51363 0.16328 -0.04084
 H324 H 0.54940 0.16696 -0.06889
 H325 H 0.52705 0.23054 -0.00746
 H326 H 0.50682 0.23029 0.04971
 H327 H 0.54346 0.23274 0.07120
 H328 H 0.57074 0.16530 0.03936
 H329 H 0.53376 0.16290 0.01794
 H330 H 0.45594 0.22656 0.01718
 H331 H 0.41896 0.22647 0.04339
 H332 H 0.44745 0.16520 0.08468
 H333 H 0.48425 0.16502 0.05765
 H334 H 0.56308 0.23402 -0.03468
 C335 C 0.50415 0.75694 -0.01352
 C336 C 0.50393 0.75401 0.01147
 C337 C 0.52602 0.75544 0.02477
 C338 C 0.48155 0.75001 0.02692
 C339 C 0.48187 0.75765 -0.02680
 C340 C 0.52666 0.76044 -0.02895
 C341 C 0.53415 0.73559 0.03888
 C342 C 0.55495 0.73667 0.05149
 C343 C 0.56765 0.75781 0.05068
 C344 C 0.55944 0.77775 0.03653
 C345 C 0.53875 0.77657 0.02373
 C346 C 0.46738 0.73060 0.02279
 C347 C 0.44640 0.72718 0.03767
 C348 C 0.43941 0.74287 0.05713
 C349 C 0.45364 0.76239 0.06108
 C350 C 0.47457 0.76576 0.04625
 C351 C 0.46340 0.77523 -0.02157
 C352 C 0.44315 0.77655 -0.03532
 C353 C 0.44097 0.76024 -0.05435
 C354 C 0.45958 0.74272 -0.05959
 C355 C 0.47985 0.74152 -0.04598
 C356 C 0.52845 0.78095 -0.04438
 C357 C 0.54930 0.78446 -0.05927
 C358 C 0.56880 0.76752 -0.05919
 C359 C 0.56690 0.74678 -0.04385
 C360 C 0.54598 0.74329 -0.02890
 H361 H 0.52450 0.71917 0.03991
 H362 H 0.56098 0.72105 0.06215
 H363 H 0.56910 0.79412 0.03499
 H364 H 0.53263 0.79211 0.01303
 H365 H 0.47263 0.71807 0.00813
 H366 H 0.43571 0.71211 0.03413
 H367 H 0.48517 0.78095 0.04960
 H368 H 0.46490 0.78818 -0.00719
 H369 H 0.42921 0.79041 -0.03116
 H370 H 0.45893 0.73037 -0.07465
 H371 H 0.49412 0.72811 -0.05053
 H372 H 0.51370 0.79433 -0.04478
 H373 H 0.55017 0.80052 -0.07095
 H374 H 0.58120 0.73298 -0.04350
 H375 H 0.54474 0.72709 -0.01747
 H376 H 0.44853 0.77542 0.07525
 C377 C -0.00530 0.51273 0.22175
 C378 C -0.02950 0.51301 0.22100
 C379 C -0.04275 0.49049 0.22245
 C380 C -0.04399 0.53589 0.21810
 C381 C 0.00761 0.53532 0.22287
 C382 C 0.00965 0.48983 0.22125
 C383 C -0.05828 0.48587 0.20412
 C384 C -0.07152 0.46523 0.20560
 C385 C -0.06976 0.44889 0.22573
 C386 C -0.05395 0.45340 0.24389
 C387 C -0.04069 0.47409 0.24238
 C388 C -0.04029 0.55071 0.19702
 C389 C -0.05503 0.57149 0.19370
 C390 C -0.07345 0.57793 0.21154
 C391 C -0.07711 0.56302 0.23264
 C392 C -0.06258 0.54211 0.23578
 C393 C 0.00235 0.55152 0.24223
 C394 C 0.01582 0.57184 0.24400
 C395 C 0.03486 0.57629 0.22655
 C396 C 0.03963 0.56029 0.20679
 C397 C 0.02628 0.53993 0.20516
 C398 C 0.02564 0.48483 0.23969
 C399 C 0.04056 0.46386 0.23891
 C400 C 0.03981 0.44751 0.21954
 C401 C 0.02402 0.45274 0.20092
 C402 C 0.00901 0.47369 0.20177
 H403 H -0.06000 0.49822 0.18851
 H404 H -0.08282 0.46212 0.19076
 H405 H -0.05214 0.44107 0.25950
 H406 H -0.02904 0.47746 0.25690
 H407 H -0.02630 0.54592 0.18295
 H408 H -0.05206 0.58255 0.17717
 H409 H -0.06589 0.53066 0.25197
 H410 H -0.01183 0.54815 0.25627
 H411 H 0.01163 0.58387 0.25932
 H412 H 0.05353 0.56327 0.19244
 H413 H 0.03051 0.52769 0.19001
 H414 H 0.02664 0.49726 0.25465
 H415 H 0.05303 0.46092 0.25315
 H416 H 0.02334 0.44062 0.18563
 H417 H -0.00283 0.47750 0.18706
 H418 H -0.09158 0.56709 0.24639
 C419 C 0.02162 0.49322 0.75471
 C420 C -0.00258 0.49700 0.75699
 C421 C -0.01887 0.47695 0.75570
 C422 C -0.01412 0.52134 0.76130
 C423 C 0.03778 0.51358 0.75362
 C424 C 0.03315 0.46853 0.75385
 C425 C -0.01746 0.46190 0.73516
 C426 C -0.03337 0.44351 0.73391
 C427 C -0.05116 0.44007 0.75299
 C428 C -0.05236 0.45505 0.77369
 C429 C -0.03646 0.47342 0.77490
 C430 C -0.03032 0.53115 0.74475
 C431 C -0.04224 0.55351 0.74923
 C432 C -0.03833 0.56634 0.77054
 C433 C -0.02231 0.55634 0.78723
 C434 C -0.01016 0.53408 0.78258
 C435 C 0.05585 0.51405 0.77020
 C436 C 0.07114 0.53313 0.76949
 C437 C 0.06882 0.55199 0.75188
 C438 C 0.05075 0.55141 0.73526
 C439 C 0.03549 0.53229 0.73597
 C440 C 0.02868 0.45178 0.77318
 C441 C 0.04027 0.42886 0.77263
 C442 C 0.05665 0.42237 0.75277
 C443 C 0.06078 0.43902 0.73329
 C444 C 0.04934 0.46200 0.73395
 H445 H -0.00420 0.46455 0.71999
 H446 H -0.03198 0.43216 0.71784
 H447 H -0.06524 0.45255 0.78916
 H448 H -0.03774 0.48479 0.79096
 H449 H -0.03384 0.52137 0.72843
 H450 H -0.05502 0.56031 0.73637
 H451 H 0.00195 0.52654 0.79579
 H452 H 0.05786 0.49979 0.78399
 H453 H 0.08433 0.53316 0.78310
 H454 H 0.04853 0.56573 0.72157
 H455 H 0.02191 0.53206 0.72272
 H456 H 0.01637 0.45657 0.78878
 H457 H 0.03624 0.41627 0.78767
 H458 H 0.07326 0.43440 0.71777
 H459 H 0.05306 0.47472 0.71891
 H460 H -0.01927 0.56574 0.80393
 C461 C 0.29391 0.22927 0.15827
 C462 C 0.31139 0.21053 0.15572
 C463 C 0.33173 0.21137 0.13712
 N464 N 0.34818 0.19257 0.13534
 N465 N 0.36694 0.19323 0.11892
 C466 C 0.36996 0.21275 0.10368
 N467 N 0.35347 0.23153 0.10543
 N468 N 0.33470 0.23086 0.12183
 C469 C 0.39082 0.21398 0.08576
 C470 C 0.40843 0.19525 0.08347
 H471 H 0.31042 0.19482 0.16785
 H472 H 0.39243 0.23039 0.07482
 H473 H 0.29478 0.24482 0.14588
 H474 H 0.40656 0.17948 0.09544
 C475 C 0.68032 0.79817 0.14827
 C476 C 0.67706 0.77930 0.13245
 C477 C 0.65663 0.77959 0.11679
 N478 N 0.65194 0.75941 0.10472
 N479 N 0.63321 0.75927 0.09087
 C480 C 0.61855 0.77935 0.08852
 N481 N 0.62338 0.79959 0.10039
 N482 N 0.64204 0.79970 0.11432
 C483 C 0.59759 0.77944 0.07363
 C484 C 0.58947 0.75830 0.06446
 H485 H 0.68915 0.76344 0.13209
 H486 H 0.58763 0.79645 0.07105
 H487 H 0.66754 0.81352 0.14890
 H488 H 0.59851 0.74120 0.06900
 C489 C 0.67897 0.25022 -0.15750
 C490 C 0.66666 0.22930 -0.15269
 C491 C 0.64764 0.22781 -0.13273
 N492 N 0.63660 0.20684 -0.12831
 N493 N 0.61905 0.20533 -0.11059
 C494 C 0.61187 0.22476 -0.09664
 N495 N 0.62294 0.24571 -0.10103
 N496 N 0.64051 0.24721 -0.11873
 C497 C 0.59210 0.22362 -0.07743
 C498 C 0.58009 0.20251 -0.07223
 H499 H 0.67092 0.21355 -0.16386
 H500 H 0.58654 0.24013 -0.06800
 H501 H 0.67499 0.26577 -0.14592
 H502 H 0.58571 0.18656 -0.08270
 C503 C 0.32819 0.73434 -0.15805
 C504 C 0.33875 0.75419 -0.14897
 C505 C 0.35733 0.75136 -0.13108
 N506 N 0.36574 0.77109 -0.12095
 N507 N 0.38280 0.76872 -0.10500
 C508 C 0.39210 0.74653 -0.09864
 N509 N 0.38370 0.72683 -0.10879
 N510 N 0.36660 0.72918 -0.12466
 C511 C 0.41159 0.74351 -0.08186
 C512 C 0.41985 0.76274 -0.06931
 H513 H 0.33318 0.77224 -0.15489
 H514 H 0.41959 0.72552 -0.07939
 H515 H 0.33322 0.71638 -0.15136
 H516 H 0.41030 0.78020 -0.07014
 C517 C 0.14169 0.32245 0.25021
 C518 C 0.13372 0.33510 0.22959
 C519 C 0.11581 0.35543 0.23187
 N520 N 0.10763 0.36643 0.21127
 N521 N 0.09166 0.38508 0.21307
 C522 C 0.08332 0.39343 0.23557
 N523 N 0.09151 0.38243 0.25616
 N524 N 0.10742 0.36376 0.25436
 C525 C 0.06620 0.41439 0.23798
 C526 C 0.05599 0.42556 0.21763
 H527 H 0.14068 0.33000 0.21123
 H528 H 0.06144 0.42094 0.25640
 H529 H 0.13421 0.32723 0.26851
 H530 H 0.05950 0.41759 0.19960
 C531 C 0.18493 0.65382 0.76905
 C532 C 0.16301 0.65396 0.75830
 C533 C 0.14849 0.63265 0.75898
 N534 N 0.12712 0.63389 0.74862
 N535 N 0.11369 0.61479 0.74914
 C536 C 0.12117 0.59371 0.76004
 N537 N 0.14256 0.59245 0.77036
 N538 N 0.15599 0.61156 0.76985
 C539 C 0.10648 0.57251 0.76103
 C540 C 0.08434 0.57281 0.75071
 H541 H 0.15607 0.67007 0.74909
 H542 H 0.11363 0.55630 0.76988
 H543 H 0.19151 0.63754 0.77830
 H544 H 0.07831 0.58886 0.74070
 C545 C -0.16860 0.71142 0.22845
 C546 C -0.16512 0.69286 0.21146
 C547 C -0.14799 0.67232 0.21527
 N548 N -0.14136 0.65710 0.19650
 N549 N -0.12597 0.63836 0.19987
 C550 C -0.11677 0.63410 0.22218
 N551 N -0.12353 0.64923 0.24098
 N552 N -0.13878 0.66803 0.23757
 C553 C -0.10029 0.61319 0.22649
 C554 C -0.08923 0.59958 0.20721
 H555 H -0.17463 0.69353 0.19473
 H556 H -0.09632 0.60883 0.24538
 H557 H -0.15779 0.71104 0.24429
 H558 H -0.09144 0.60551 0.18829
 C559 C -0.17483 0.34384 0.76669
 C560 C -0.15311 0.34547 0.75271
 C561 C -0.13686 0.36488 0.75586
 N562 N -0.11558 0.36490 0.74238
 N563 N -0.10058 0.38232 0.74494
 C564 C -0.10633 0.40041 0.76107
 N565 N -0.12763 0.40042 0.77455
 N566 N -0.14262 0.38297 0.77201
 C567 C -0.09001 0.41983 0.76407
 C568 C -0.06784 0.42057 0.75075
 H569 H -0.14749 0.33206 0.73905
 H570 H -0.09606 0.43404 0.77667
 H571 H -0.18005 0.35729 0.78049
 H572 H -0.06285 0.40676 0.73728
 C573 C 0.21967 0.16632 0.33413
 C574 C 0.22978 0.14283 0.33351
 C575 C 0.22813 0.12659 0.35535
 N576 N 0.23872 0.10402 0.35442
 N577 N 0.23723 0.08920 0.37411
 C578 C 0.22505 0.09643 0.39543
 N579 N 0.21444 0.11895 0.39631
 N580 N 0.21595 0.13375 0.37667
 C581 C 0.22312 0.08054 0.41747
 C582 C 0.23459 0.05764 0.41861
 H583 H 0.23908 0.13610 0.31670
 H584 H 0.21293 0.08769 0.43359
 H585 H 0.21060 0.17297 0.35111
 H586 H 0.24614 0.05144 0.40295
 C587 C 0.77817 0.18669 0.67485
 C588 C 0.76583 0.16588 0.67227
 C589 C 0.77074 0.15057 0.65048
 N590 N 0.75981 0.12947 0.64900
 N591 N 0.76417 0.11564 0.62923
 C592 C 0.77956 0.12248 0.61022
 N593 N 0.79040 0.14359 0.61171
 N594 N 0.78610 0.15735 0.63145
 C595 C 0.78459 0.10778 0.58808
 C596 C 0.77489 0.08544 0.58540
 H597 H 0.75244 0.16062 0.68641
 H598 H 0.79593 0.11536 0.57329
 H599 H 0.79196 0.19142 0.66088
 H600 H 0.76253 0.07884 0.59993
 C601 C 0.22513 -0.16870 0.70430
 C602 C 0.24188 -0.15182 0.69703
 C603 C 0.23767 -0.13439 0.67671
 N604 N 0.25574 -0.12114 0.66683
 N605 N 0.25242 -0.10635 0.64751
 C606 C 0.23087 -0.10422 0.63744
 N607 N 0.21275 -0.11722 0.64752
 N608 N 0.21609 -0.13204 0.66676
 C609 C 0.22702 -0.08901 0.61537
 C610 C 0.24528 -0.07658 0.60280
 H611 H 0.25904 -0.15250 0.70508
 H612 H 0.20927 -0.08810 0.60868
 H613 H 0.20842 -0.16848 0.69540
 H614 H 0.26251 -0.07644 0.61067
 C615 C 0.75881 -0.11968 0.29725
 C616 C 0.77677 -0.11812 0.31357
 C617 C 0.77585 -0.09990 0.33290
 N618 N 0.79436 -0.09904 0.34762
 N619 N 0.79366 -0.08316 0.36572
 C620 C 0.77440 -0.06755 0.36983
 N621 N 0.75589 -0.06836 0.35506
 N622 N 0.75660 -0.08424 0.33691
 C623 C 0.77312 -0.05048 0.39032
 C624 C 0.79185 -0.04925 0.40587
 H625 H 0.79210 -0.13082 0.31242
 H626 H 0.75676 -0.03950 0.39348
 H627 H 0.74387 -0.10647 0.29781
 H628 H 0.80775 -0.06091 0.40215
 C629 C 0.71125 0.76595 -0.14552
 C630 C 0.68914 0.77873 -0.14477
 C631 C 0.66938 0.77341 -0.12657
 N632 N 0.64839 0.78666 -0.12699
 N633 N 0.63015 0.78206 -0.11087
 C634 C 0.63218 0.76402 -0.09369
 N635 N 0.65320 0.75075 -0.09324
 N636 N 0.67148 0.75536 -0.10939
 C637 C 0.61199 0.75865 -0.07594
 C638 C 0.59020 0.77206 -0.07592
 H639 H 0.68597 0.79316 -0.15807
 H640 H 0.61465 0.74400 -0.06280
 H641 H 0.71449 0.75164 -0.13207
 H642 H 0.58869 0.78709 -0.08892
 C643 C 0.30514 0.21280 -0.13449
 C644 C 0.32118 0.19358 -0.12940
 C645 C 0.34013 0.19592 -0.11226
 N646 N 0.35426 0.17636 -0.10620
 N647 N 0.37194 0.17845 -0.09131
 C648 C 0.37618 0.20022 -0.08199
 N649 N 0.36206 0.21975 -0.08805
 N650 N 0.34434 0.21764 -0.10286
 C651 C 0.39626 0.20320 -0.06649
 C652 C 0.41017 0.18372 -0.05765
 H653 H 0.32005 0.17648 -0.13834
 H654 H 0.40013 0.22141 -0.06192
 H655 H 0.30573 0.22953 -0.12471
 H656 H 0.40485 0.16553 -0.06030
 C657 C 0.32018 0.75376 0.17518
 C658 C 0.32444 0.74171 0.15290
 C659 C 0.34757 0.74269 0.13837
 N660 N 0.35074 0.73233 0.11584
 N661 N 0.37144 0.73372 0.10235
 C662 C 0.38972 0.74548 0.11095
 N663 N 0.38657 0.75569 0.13350
 N664 N 0.36591 0.75433 0.14694
 C665 C 0.41251 0.74799 0.09624
 C666 C 0.41700 0.73887 0.07248
 H667 H 0.31042 0.73192 0.14557
 H668 H 0.42610 0.75749 0.10464
 H669 H 0.33423 0.76381 0.18216
 H670 H 0.40385 0.72797 0.06502
 C671 C 0.68103 0.24580 0.14087
 C672 C 0.66910 0.22488 0.13739
 C673 C 0.64983 0.22405 0.12043
 N674 N 0.64013 0.20274 0.11637
 N675 N 0.62194 0.20182 0.10192
 C676 C 0.61272 0.22221 0.09107
 N677 N 0.62244 0.24351 0.09509
 N678 N 0.64070 0.24442 0.10946
 C679 C 0.59186 0.22170 0.07611
 C680 C 0.58243 0.20018 0.06955
 H681 H 0.67370 0.20857 0.14772
 H682 H 0.58376 0.23880 0.07018
 H683 H 0.67735 0.26176 0.12963
 H684 H 0.59195 0.18321 0.07363
 C685 C -0.12675 0.70482 0.76216
 C686 C -0.12243 0.68659 0.77969
 C687 C -0.10546 0.66596 0.77423
 N688 N -0.09995 0.64988 0.79247
 N689 N -0.08522 0.63069 0.78759
 C690 C -0.07554 0.62683 0.76426
 N691 N -0.08107 0.64288 0.74604
 N692 N -0.09570 0.66212 0.75094
 C693 C -0.06020 0.60516 0.75827
 C694 C -0.05174 0.58938 0.77645
 H695 H -0.13177 0.68716 0.79782
 H696 H -0.05548 0.60162 0.73894
 H697 H -0.11634 0.70451 0.74457
 H698 H -0.05466 0.59424 0.79570
 C699 C -0.17980 0.33948 0.21257
 C700 C -0.15946 0.34147 0.22564
 C701 C -0.14513 0.36299 0.22311
 N702 N -0.12504 0.36414 0.23556
 N703 N -0.11204 0.38360 0.23345
 C704 C -0.11870 0.40264 0.21882
 N705 N -0.13877 0.40148 0.20641
 N706 N -0.15173 0.38205 0.20850
 C707 C -0.10474 0.42437 0.21613
 C708 C -0.08385 0.42697 0.22822
 H709 H -0.15387 0.32701 0.23802
 H710 H -0.11165 0.43888 0.20459
 H711 H -0.18509 0.35392 0.20000
 H712 H -0.07807 0.41277 0.24084
 C713 C 0.15203 0.29553 0.78867
 C714 C 0.13727 0.30146 0.76956
 C715 C 0.12062 0.32288 0.77069
 N716 N 0.11068 0.33151 0.74992
 N717 N 0.09628 0.35142 0.75058
 C718 C 0.09119 0.36332 0.77209
 N719 N 0.10086 0.35449 0.79290
 N720 N 0.11536 0.33469 0.79221
 C721 C 0.07595 0.38572 0.77313
 C722 C 0.06975 0.39852 0.75187
 H723 H 0.13900 0.29113 0.75277
 H724 H 0.07104 0.39316 0.79116
 H725 H 0.15125 0.30684 0.80476
 H726 H 0.07657 0.39190 0.73396
 C727 C 0.15021 0.68255 0.21920
 C728 C 0.12901 0.67902 0.23350
 C729 C 0.11389 0.65883 0.22908
 N730 N 0.09269 0.65664 0.24241
 N731 N 0.07904 0.63829 0.23871
 C732 C 0.08612 0.62142 0.22157
 N733 N 0.10730 0.62363 0.20828
 N734 N 0.12091 0.64197 0.21194
 C735 C 0.07164 0.60072 0.21739
 C736 C 0.04926 0.59759 0.22970
 H737 H 0.12329 0.69126 0.24825
 H738 H 0.07945 0.58738 0.20461
 H739 H 0.15553 0.67052 0.20412
 H740 H 0.04239 0.61087 0.24308
 C741 C 0.77930 -0.13798 0.69152
 C742 C 0.79755 -0.13164 0.67425
 C743 C 0.79353 -0.11371 0.65438
 N744 N 0.81240 -0.10584 0.63998
 N745 N 0.80900 -0.08998 0.62158
 C746 C 0.78658 -0.08148 0.61684
 N747 N 0.76772 -0.08940 0.63120
 N748 N 0.77112 -0.10517 0.64967
 C749 C 0.78246 -0.06460 0.59608
 C750 C 0.80118 -0.05366 0.58264
 H751 H 0.81540 -0.13984 0.67537
 H752 H 0.76417 -0.06054 0.59156
 H753 H 0.76179 -0.12882 0.69116
 H754 H 0.81912 -0.05622 0.58881
 C755 C 0.20864 -0.17122 0.32654
 C756 C 0.22723 -0.15806 0.33416
 C757 C 0.22442 -0.14136 0.35496
 N758 N 0.24396 -0.13104 0.36254
 N759 N 0.24200 -0.11589 0.38134
 C760 C 0.22037 -0.11039 0.39325
 N761 N 0.20076 -0.12059 0.38558
 N762 N 0.20274 -0.13584 0.36679
 C763 C 0.21808 -0.09376 0.41419
 C764 C 0.23815 -0.08554 0.42465
 H765 H 0.24488 -0.16035 0.32491
 H766 H 0.20030 -0.08880 0.42207
 H767 H 0.19114 -0.16959 0.33629
 H768 H 0.25575 -0.09223 0.41761
 C769 C 0.76172 0.17298 0.30145
 C770 C 0.78065 0.16897 0.31662
 C771 C 0.77954 0.15100 0.33702
 N772 N 0.79918 0.14516 0.34963
 N773 N 0.79815 0.12917 0.36836
 C774 C 0.77739 0.11852 0.37519
 N775 N 0.75777 0.12444 0.36264
 N776 N 0.75883 0.14031 0.34387
 C777 C 0.77554 0.10146 0.39628
 C778 C 0.79542 0.09211 0.40808
 H779 H 0.79658 0.17909 0.31350
 H780 H 0.75788 0.09580 0.40237
 H781 H 0.74633 0.16198 0.30402
 H782 H 0.81318 0.09601 0.40042
 C783 C 0.23859 0.13475 0.70483
 C784 C 0.22121 0.13146 0.68821
 C785 C 0.22525 0.11443 0.66773
 N786 N 0.20681 0.10907 0.65421
 N787 N 0.21034 0.09404 0.63533
 C788 C 0.23248 0.08391 0.62919
 N789 N 0.25092 0.08935 0.64264
 N790 N 0.24736 0.10427 0.66160
 C791 C 0.23689 0.06786 0.60795
 C792 C 0.21835 0.05850 0.59589
 H793 H 0.20410 0.14143 0.69033
 H794 H 0.25529 0.06290 0.60206
 H795 H 0.25514 0.12374 0.70349
 H796 H 0.20008 0.06172 0.60337
   
