data_POSCAR
  _audit_creation_date              2014-09-24
  _audit_creation_method            'ToBaCCo'
  _symmetry_space_group_name_H-M    'P1'
  _symmetry_Int_Tables_number       1
  _symmetry_cell_setting            triclinic
  loop_
  _symmetry_equiv_pos_as_xyz
 x,y,z
_cell_length_a 37.3094
_cell_length_b 37.3391
_cell_length_c 37.2302
_cell_angle_alpha 89.960800
_cell_angle_beta 89.882400
_cell_angle_gamma 90.026200
loop_
  _atom_site_label
  _atom_site_type_symbol
  _atom_site_fract_x
  _atom_site_fract_y
  _atom_site_fract_z
N1 N 0.14444 0.16883 0.24282
 N2 N 0.17032 0.14504 0.24360
 C3 C 0.16622 0.12426 0.27291
 C4 C 0.13585 0.13542 0.29158
 C5 C 0.12293 0.16401 0.27146
 H6 H 0.18390 0.10240 0.27972
 H7 H 0.09930 0.17991 0.27661
 Cu8 Cu 0.20610 0.14224 0.20544
 Cu9 Cu 0.13922 0.20284 0.20366
 Cu10 Cu 0.20985 0.20832 0.14350
 N11 N 0.24404 0.14449 0.16943
 N12 N 0.24545 0.17036 0.14558
 C13 C 0.27387 0.16516 0.12391
 C14 C 0.29159 0.13424 0.13468
 C15 C 0.27173 0.12200 0.16389
 H16 H 0.28077 0.18268 0.10186
 H17 H 0.27673 0.09840 0.17989
 N18 N 0.17097 0.24396 0.14543
 N19 N 0.14379 0.24153 0.16797
 C20 C 0.12143 0.26928 0.16236
 C21 C 0.13507 0.29028 0.13478
 C22 C 0.16657 0.27325 0.12477
 H23 H 0.09696 0.27370 0.17725
 H24 H 0.18500 0.28151 0.10394
 H25 H 0.16953 0.17767 0.16388
 H26 H 0.19409 0.20585 0.19721
 N27 N -0.14476 0.83143 0.24251
 N28 N -0.17091 0.85497 0.24353
 C29 C -0.16622 0.87642 0.27225
 C30 C -0.13541 0.86577 0.29022
 C31 C -0.12261 0.83706 0.27039
 H32 H -0.18395 0.89812 0.27949
 H33 H -0.09878 0.82147 0.27551
 Cu34 Cu -0.20862 0.85483 0.20718
 Cu35 Cu -0.14071 0.79585 0.20453
 Cu36 Cu -0.20630 0.79553 0.13938
 N37 N -0.24497 0.85494 0.16948
 N38 N -0.24427 0.83118 0.14348
 C39 C -0.27223 0.83679 0.12143
 C40 C -0.29183 0.86585 0.13410
 C41 C -0.27348 0.87658 0.16480
 H42 H -0.27747 0.82093 0.09777
 H43 H -0.28025 0.89843 0.18255
 N44 N -0.16950 0.75775 0.14301
 N45 N -0.14442 0.75795 0.16793
 C46 C -0.12337 0.72900 0.16359
 C47 C -0.13563 0.70951 0.13439
 C48 C -0.16505 0.72865 0.12213
 H49 H -0.10073 0.72272 0.18047
 H50 H -0.18199 0.72202 0.09960
 H51 H -0.16780 0.82495 0.16592
 H52 H -0.19498 0.79298 0.19360
 N53 N -0.14453 0.16916 -0.24241
 N54 N -0.17074 0.14570 -0.24352
 C55 C -0.16674 0.12516 -0.27299
 C56 C -0.13624 0.13622 -0.29136
 C57 C -0.12294 0.16431 -0.27098
 H58 H -0.18457 0.10357 -0.28027
 H59 H -0.09904 0.17987 -0.27607
 Cu60 Cu -0.20692 0.14338 -0.20571
 Cu61 Cu -0.13935 0.20312 -0.20322
 Cu62 Cu -0.21021 0.20879 -0.14329
 N63 N -0.24456 0.14508 -0.16937
 N64 N -0.24583 0.17080 -0.14538
 C65 C -0.27421 0.16554 -0.12367
 C66 C -0.29208 0.13474 -0.13457
 C67 C -0.27229 0.12261 -0.16385
 H68 H -0.28105 0.18297 -0.10157
 H69 H -0.27741 0.09912 -0.17995
 N70 N -0.17126 0.24435 -0.14524
 N71 N -0.14397 0.24183 -0.16765
 C72 C -0.12155 0.26951 -0.16200
 C73 C -0.13523 0.29052 -0.13451
 C74 C -0.16685 0.27363 -0.12462
 H75 H -0.09698 0.27385 -0.17677
 H76 H -0.18533 0.28194 -0.10388
 H77 H -0.17009 0.17781 -0.16361
 H78 H -0.19415 0.20663 -0.19681
 N79 N 0.14468 0.83180 -0.24216
 N80 N 0.17139 0.85468 -0.24380
 C81 C 0.16727 0.87550 -0.27309
 C82 C 0.13620 0.86520 -0.29078
 C83 C 0.12266 0.83730 -0.27020
 H84 H 0.18550 0.89664 -0.28081
 H85 H 0.09838 0.82224 -0.27487
 Cu86 Cu 0.20846 0.85531 -0.20697
 Cu87 Cu 0.13968 0.79734 -0.20319
 Cu88 Cu 0.21018 0.79165 -0.14300
 N89 N 0.24504 0.85505 -0.16968
 N90 N 0.24570 0.82984 -0.14509
 C91 C 0.27355 0.83555 -0.12294
 C92 C 0.29168 0.86612 -0.13413
 C93 C 0.27258 0.87770 -0.16403
 H94 H 0.27986 0.81852 -0.10036
 H95 H 0.27816 0.90082 -0.18057
 N96 N 0.17128 0.75600 -0.14511
 N97 N 0.14415 0.75848 -0.16762
 C98 C 0.12183 0.73064 -0.16213
 C99 C 0.13542 0.70958 -0.13466
 C100 C 0.16687 0.72661 -0.12461
 H101 H 0.09742 0.72620 -0.17703
 H102 H 0.18525 0.71829 -0.10385
 H103 H 0.17074 0.82290 -0.16420
 H104 H 0.19430 0.79266 -0.19652
 N105 N 0.16914 1.14375 0.75716
 N106 N 0.14558 1.16991 0.75631
 C107 C 0.12422 1.16549 0.72754
 C108 C 0.13497 1.13488 0.70931
 C109 C 0.16365 1.12189 0.72904
 H110 H 0.10255 1.18328 0.72045
 H111 H 0.17932 1.09815 0.72368
 Cu112 Cu 0.14555 1.20675 0.79333
 Cu113 Cu 0.20458 1.13936 0.79526
 Cu114 Cu 0.20457 1.20483 0.86087
 N115 N 0.14554 1.24368 0.83026
 N116 N 0.16909 1.24285 0.85647
 C117 C 0.16355 1.27091 0.87837
 C118 C 0.13486 1.29058 0.86536
 C119 C 0.12415 1.27238 0.83469
 H120 H 0.17920 1.27626 0.90217
 H121 H 0.10247 1.27944 0.81687
 N122 N 0.24237 1.16814 0.85703
 N123 N 0.24236 1.14316 0.83198
 C124 C 0.27153 1.12239 0.83616
 C125 C 0.29093 1.13477 0.86534
 C126 C 0.27155 1.16392 0.87780
 H127 H 0.27804 1.09991 0.81913
 H128 H 0.27809 1.18089 0.90033
 H129 H 0.17593 1.16605 0.83422
 H130 H 0.20749 1.19359 0.80652
 N131 N 0.83111 0.85617 0.75735
 N132 N 0.85464 0.83003 0.75635
 C133 C 0.87595 0.83451 0.72747
 C134 C 0.86525 0.86519 0.70939
 C135 C 0.83663 0.87816 0.72928
 H136 H 0.89763 0.81674 0.72025
 H137 H 0.82108 0.90200 0.72410
 Cu138 Cu 0.85517 0.79272 0.79295
 Cu139 Cu 0.79579 0.86044 0.79550
 Cu140 Cu 0.79556 0.79495 0.86082
 N141 N 0.85448 0.75608 0.83024
 N142 N 0.83086 0.75693 0.85644
 C143 C 0.83633 0.72886 0.87839
 C144 C 0.86500 0.70914 0.86533
 C145 C 0.87578 0.72732 0.83463
 H146 H 0.82070 0.72357 0.90227
 H147 H 0.89752 0.72026 0.81680
 N148 N 0.75785 0.83159 0.85715
 N149 N 0.75797 0.85663 0.83217
 C150 C 0.72888 0.87748 0.83643
 C151 C 0.70940 0.86508 0.86565
 C152 C 0.72866 0.83583 0.87801
 H153 H 0.72249 0.90004 0.81945
 H154 H 0.72206 0.81881 0.90054
 H155 H 0.82501 0.83350 0.83405
 H156 H 0.79322 0.80614 0.80641
 N157 N 0.16816 0.85654 1.24118
 N158 N 0.14587 0.82940 1.24349
 C159 C 0.12633 0.83262 1.27373
 C160 C 0.13674 0.86368 1.29132
 C161 C 0.16343 0.87812 1.26970
 H162 H 0.10567 0.81401 1.28188
 H163 H 0.17789 0.90287 1.27377
 Cu164 Cu 0.14279 0.79414 1.20522
 Cu165 Cu 0.20000 0.86283 1.20015
 Cu166 Cu 0.21373 0.78514 1.15070
 N167 N 0.14411 0.75738 1.16834
 N168 N 0.17199 0.75394 1.14701
 C169 C 0.16677 0.72576 1.12513
 C170 C 0.13367 0.71068 1.13304
 C171 C 0.12010 0.73162 1.16066
 H172 H 0.18607 0.71665 1.10547
 H173 H 0.09482 0.72824 1.17444
 N174 N 0.24604 0.82689 1.14842
 N175 N 0.24034 0.85665 1.16664
 C176 C 0.26657 0.88022 1.15904
 C177 C 0.28991 0.86469 1.13463
 C178 C 0.27593 0.83084 1.12848
 H179 H 0.26838 0.90678 1.17044
 H180 H 0.28674 0.81047 1.11094
 H181 H 0.18025 0.82629 1.16195
 H182 H 0.20629 0.80911 1.20107
 N183 N 0.82916 1.14541 1.24436
 N184 N 0.85439 1.16993 1.24353
 C185 C 0.87724 1.16413 1.27087
 C186 C 0.86573 1.13428 1.28989
 C187 C 0.83507 1.12318 1.27213
 H188 H 0.90046 1.18048 1.27643
 H189 H 0.81820 1.10059 1.27870
 Cu190 Cu 0.85449 1.20717 1.20704
 Cu191 Cu 0.79087 1.14344 1.20911
 Cu192 Cu 0.79651 1.20338 1.13822
 N193 N 0.85362 1.24392 1.17003
 N194 N 0.83088 1.24227 1.14321
 C195 C 0.83646 1.27024 1.12112
 C196 C 0.86427 1.29074 1.13481
 C197 C 0.87441 1.27312 1.16598
 H198 H 0.82157 1.27490 1.09671
 H199 H 0.89544 1.28080 1.18432
 N200 N 0.75762 1.16798 1.14307
 N201 N 0.75517 1.14565 1.17042
 C202 C 0.72576 1.12522 1.16633
 C203 C 0.70867 1.13512 1.13486
 C204 C 0.72970 1.16244 1.12090
 H205 H 0.71750 1.10461 1.18495
 H206 H 0.72521 1.17716 1.09634
 H207 H 0.82219 1.16460 1.16928
 H208 H 0.79191 1.19687 1.19285
 N209 N 0.53782 1.06324 0.96158
 N210 N 0.56504 1.08538 0.95704
 N211 N 0.46254 1.03859 0.93643
 N212 N 0.43584 1.04359 0.91379
 N213 N 0.46247 1.06338 0.96139
 N214 N 0.43574 1.08596 0.95642
 N215 N 0.53791 1.03837 0.93667
 N216 N 0.56519 1.04292 0.91450
 C217 C 0.58191 1.07238 0.92754
 C218 C 0.41934 1.07327 0.92661
 N219 N 0.46206 0.93657 0.96145
 N220 N 0.43462 0.91471 0.95705
 N221 N 0.53755 0.96124 0.93660
 N222 N 0.56445 0.95631 0.91409
 N223 N 0.53742 0.93638 0.96155
 N224 N 0.56423 0.91386 0.95670
 N225 N 0.46219 0.96147 0.93652
 N226 N 0.43482 0.95722 0.91451
 Mn227 Mn 0.50005 0.99991 0.93612
 C228 C 0.41785 0.92789 0.92762
 C229 C 0.58087 0.92663 0.92698
 N230 N 0.46192 1.06320 1.03874
 N231 N 0.43452 1.08514 1.04307
 N232 N 0.53723 1.03839 1.06387
 N233 N 0.56420 1.04317 1.08625
 N234 N 0.53729 1.06324 1.03891
 N235 N 0.56425 1.08559 1.04361
 N236 N 0.46181 1.03831 1.06368
 N237 N 0.43433 1.04265 1.08563
 Mn238 Mn 0.49987 1.06369 1.00017
 C239 C 0.41753 1.07200 1.07247
 C240 C 0.58082 1.07275 1.07326
 N241 N 0.53737 0.93636 1.03893
 N242 N 0.56467 0.91433 1.04341
 N243 N 0.46185 0.96120 1.06375
 N244 N 0.43451 0.95664 1.08585
 N245 N 0.46192 0.93640 1.03879
 N246 N 0.43465 0.91430 1.04320
 N247 N 0.53731 0.96119 1.06388
 N248 N 0.56456 0.95671 1.08601
 Mn249 Mn 0.49970 0.93599 1.00018
 Mn250 Mn 0.49956 0.99977 1.06424
 Cl251 Cl 0.49981 0.99984 1.00018
 C252 C 0.58141 0.92732 1.07293
 C253 C 0.41778 0.92724 1.07271
 N254 N -0.03860 0.46225 -0.06351
 N255 N -0.04323 0.43513 -0.08575
 N256 N -0.06347 0.53756 -0.03858
 N257 N -0.08565 0.56468 -0.04314
 N258 N -0.03857 0.53759 -0.06353
 N259 N -0.04312 0.56475 -0.08576
 N260 N -0.06348 0.46224 -0.03853
 N261 N -0.08571 0.43513 -0.04309
 C262 C -0.07276 0.41843 -0.07269
 C263 C -0.07263 0.58141 -0.07271
 N264 N -0.03885 0.53761 0.06373
 N265 N -0.04379 0.56453 0.08617
 N266 N -0.06358 0.46230 0.03880
 N267 N -0.08584 0.43522 0.04340
 N268 N -0.03876 0.46227 0.06375
 N269 N -0.04346 0.43514 0.08600
 N270 N -0.06365 0.53757 0.03877
 N271 N -0.08612 0.56443 0.04354
 Mn272 Mn -0.06396 0.49992 0.00011
 C273 C -0.07342 0.58105 0.07323
 C274 C -0.07297 0.41850 0.07297
 N275 N 0.03863 0.53766 -0.06360
 N276 N 0.04336 0.56476 -0.08590
 N277 N 0.06340 0.46229 -0.03859
 N278 N 0.08550 0.43508 -0.04313
 N279 N 0.03857 0.46232 -0.06353
 N280 N 0.04309 0.43512 -0.08569
 N281 N 0.06346 0.53762 -0.03868
 N282 N 0.08576 0.56469 -0.04334
 Mn283 Mn 0.00001 0.49996 -0.06398
 C284 C 0.07290 0.58141 -0.07293
 C285 C 0.07250 0.41837 -0.07265
 N286 N 0.03851 0.46229 0.06378
 N287 N 0.04322 0.43522 0.08613
 N288 N 0.06330 0.53769 0.03863
 N289 N 0.08489 0.56541 0.04252
 N290 N 0.03840 0.53773 0.06360
 N291 N 0.04238 0.56550 0.08515
 N292 N 0.06339 0.46230 0.03880
 N293 N 0.08568 0.43526 0.04346
 Mn294 Mn -0.00016 0.49997 0.06417
 Mn295 Mn 0.06382 0.49997 0.00005
 Cl296 Cl -0.00007 0.49995 0.00009
 C297 C 0.07279 0.41857 0.07312
 C298 C 0.07157 0.58250 0.07171
 N299 N 0.96195 -0.06310 0.53759
 N300 N 0.95733 -0.08534 0.56476
 N301 N 0.93698 -0.03831 0.46213
 N302 N 0.91469 -0.04287 0.43503
 N303 N 0.96185 -0.06317 0.46201
 N304 N 0.95713 -0.08533 0.43480
 N305 N 0.93707 -0.03826 0.53764
 N306 N 0.91483 -0.04291 0.56484
 C307 C 0.92780 -0.07241 0.58153
 C308 C 0.92756 -0.07233 0.41819
 N309 N 0.96192 0.06359 0.46189
 N310 N 0.95770 0.08535 0.43430
 N311 N 0.93695 0.03889 0.53756
 N312 N 0.91434 0.04386 0.56442
 N313 N 0.96178 0.06382 0.53745
 N314 N 0.95672 0.08642 0.56425
 N315 N 0.93703 0.03873 0.46202
 N316 N 0.91520 0.04289 0.43451
 Mn317 Mn 0.93659 0.00026 0.49985
 C318 C 0.92840 0.07213 0.41747
 C319 C 0.92700 0.07362 0.58088
 N320 N 1.03914 -0.06320 0.46198
 N321 N 1.04422 -0.08594 0.43534
 N322 N 1.06402 -0.03816 0.53744
 N323 N 1.08640 -0.04283 0.56446
 N324 N 1.03917 -0.06307 0.53754
 N325 N 1.04398 -0.08536 0.56464
 N326 N 1.06404 -0.03835 0.46189
 N327 N 1.08675 -0.04351 0.43516
 Mn328 Mn 1.00052 -0.06357 0.49977
 C329 C 1.07403 -0.07330 0.41880
 C330 C 1.07357 -0.07241 0.58123
 N331 N 1.03900 0.06383 0.53720
 N332 N 1.04344 0.08596 0.56444
 N333 N 1.06395 0.03886 0.46161
 N334 N 1.08633 0.04362 0.43451
 N335 N 1.03907 0.06371 0.46162
 N336 N 1.04383 0.08602 0.43450
 N337 N 1.06391 0.03902 0.53719
 N338 N 1.08599 0.04359 0.56444
 Mn339 Mn 1.00044 0.06417 0.49954
 Mn340 Mn 1.06441 0.00035 0.49953
 Cl341 Cl 1.00050 0.00030 0.49968
 C342 C 1.07290 0.07302 0.58120
 C343 C 1.07345 0.07316 0.41780
 C344 C 1.08946 0.13488 0.33859
 C345 C 1.12080 0.12038 0.32305
 C346 C 1.13636 0.09015 0.33960
 C347 C 1.12095 0.07486 0.37027
 C348 C 1.08972 0.08939 0.38538
 C349 C 1.07418 0.11957 0.36929
 H350 H 1.07637 0.15808 0.32727
 H351 H 1.16036 0.07785 0.32901
 H352 H 1.13354 0.05157 0.38214
 H353 H 1.05007 0.13137 0.38038
 C354 C 0.86567 -0.08764 0.33911
 C355 C 0.88063 -0.11837 0.32316
 C356 C 0.91122 -0.13374 0.33901
 C357 C 0.92643 -0.11879 0.36983
 C358 C 0.91143 -0.08815 0.38561
 C359 C 0.88090 -0.07272 0.36996
 H360 H 0.84224 -0.07489 0.32783
 H361 H 0.92358 -0.15741 0.32780
 H362 H 0.94996 -0.13128 0.38132
 H363 H 0.86877 -0.04903 0.38154
 C364 C 0.91014 0.13591 0.65940
 C365 C 0.87951 0.12061 0.67538
 C366 C 0.86444 0.08992 0.65947
 C367 C 0.87977 0.07479 0.62872
 C368 C 0.91051 0.08996 0.61310
 C369 C 0.92545 0.12075 0.62865
 H370 H 0.92251 0.15961 0.67053
 H371 H 0.84093 0.07726 0.67079
 H372 H 0.86762 0.05107 0.61727
 H373 H 0.94910 0.13311 0.61713
 C374 C 1.08982 -0.13426 0.66021
 C375 C 1.12043 -0.11900 0.67611
 C376 C 1.13557 -0.08831 0.66015
 C377 C 1.12039 -0.07323 0.62932
 C378 C 1.08977 -0.08847 0.61369
 C379 C 1.07468 -0.11916 0.62940
 H380 H 1.07740 -0.15794 0.67139
 H381 H 1.15902 -0.07564 0.67147
 H382 H 1.13262 -0.04955 0.61779
 H383 H 1.05109 -0.13153 0.61790
 C384 C 0.33884 1.13395 1.08855
 C385 C 0.32252 1.11870 1.11920
 C386 C 0.33798 1.08747 1.13387
 C387 C 0.36869 1.07229 1.11862
 C388 C 0.38479 1.08779 1.08828
 C389 C 0.36947 1.11864 1.07331
 H390 H 0.32817 1.15771 1.07593
 H391 H 0.32673 1.07455 1.15731
 H392 H 0.37989 1.04839 1.13068
 H393 H 0.38123 1.13109 1.04979
 C394 C 0.33833 0.91269 0.86640
 C395 C 0.32258 0.88167 0.88130
 C396 C 0.33870 0.86649 0.91202
 C397 C 0.36947 0.88161 0.92705
 C398 C 0.38507 0.91225 0.91187
 C399 C 0.36915 0.92772 0.88150
 H400 H 0.32720 0.92558 0.84295
 H401 H 0.32786 0.84284 0.92477
 H402 H 0.38111 0.86916 0.95058
 H403 H 0.38058 0.95147 0.86928
 C404 C 0.66112 0.86637 1.08793
 C405 C 0.67688 0.88105 1.11906
 C406 C 0.66050 0.91137 1.13465
 C407 C 0.62960 0.92637 1.11965
 C408 C 0.61413 0.91151 1.08876
 C409 C 0.63020 0.88139 1.07306
 H410 H 0.67233 0.84314 1.07477
 H411 H 0.67133 0.92388 1.15844
 H412 H 0.61780 0.94967 1.13232
 H413 H 0.61887 0.86934 1.04918
 C414 C 0.66125 1.08822 0.86592
 C415 C 0.67687 1.11928 0.88077
 C416 C 0.66057 1.13445 0.91144
 C417 C 0.62988 1.11915 0.92661
 C418 C 0.61450 1.08837 0.91157
 C419 C 0.63049 1.07304 0.88112
 H420 H 0.67243 1.07542 0.84242
 H421 H 0.67131 1.15814 0.92414
 H422 H 0.61816 1.13151 0.95017
 H423 H 0.61919 1.04925 0.86894
 C424 C 0.13440 0.33942 0.08845
 C425 C 0.11926 0.32340 0.11917
 C426 C 0.08875 0.33932 0.13469
 C427 C 0.07373 0.37026 0.11981
 C428 C 0.08885 0.38604 0.08908
 C429 C 0.11937 0.37036 0.07360
 H430 H 0.15775 0.32807 0.07554
 H431 H 0.07635 0.32807 0.15842
 H432 H 0.05022 0.38181 0.13238
 H433 H 0.13162 0.38193 0.04988
 C434 C -0.13441 0.33939 -0.08802
 C435 C -0.11931 0.32349 -0.11879
 C436 C -0.08872 0.33936 -0.13425
 C437 C -0.07363 0.37020 -0.11930
 C438 C -0.08876 0.38591 -0.08858
 C439 C -0.11930 0.37022 -0.07310
 H440 H -0.15778 0.32803 -0.07513
 H441 H -0.07635 0.32818 -0.15800
 H442 H -0.05008 0.38175 -0.13182
 H443 H -0.13152 0.38174 -0.04936
 C444 C 0.08906 0.66058 -0.13452
 C445 C 0.11956 0.67646 -0.11905
 C446 C 0.13460 0.66047 -0.08834
 C447 C 0.11947 0.62959 -0.07344
 C448 C 0.08898 0.61393 -0.08888
 C449 C 0.07394 0.62968 -0.11958
 H450 H 0.07674 0.67182 -0.15824
 H451 H 0.15793 0.67181 -0.07546
 H452 H 0.13164 0.61803 -0.04972
 H453 H 0.05044 0.61815 -0.13209
 C454 C -0.08966 0.66015 0.13470
 C455 C -0.12013 0.67607 0.11916
 C456 C -0.13530 0.65991 0.08862
 C457 C -0.12023 0.62896 0.07385
 C458 C -0.08966 0.61341 0.08925
 C459 C -0.07462 0.62921 0.11990
 H460 H -0.07714 0.67152 0.15823
 H461 H -0.15874 0.67111 0.07583
 H462 H -0.13247 0.61731 0.05023
 H463 H -0.05107 0.61774 0.13239
 C464 C 1.13441 0.08870 0.66023
 C465 C 1.11909 0.11918 0.67631
 C466 C 1.08832 0.13429 0.66061
 C467 C 1.07330 0.11929 0.62972
 C468 C 1.08870 0.08889 0.61383
 C469 C 1.11936 0.07373 0.62938
 H470 H 1.15809 0.07624 0.67127
 H471 H 1.07558 0.15763 0.67211
 H472 H 1.04957 0.13149 0.61831
 H473 H 1.13179 0.05024 0.61770
 C474 C 0.91201 -0.13403 0.66066
 C475 C 0.88121 -0.11896 0.67642
 C476 C 0.86591 -0.08844 0.66043
 C477 C 0.88106 -0.07334 0.62962
 C478 C 0.91180 -0.08843 0.61405
 C479 C 0.92713 -0.11891 0.62982
 H480 H 0.92470 -0.15741 0.67208
 H481 H 0.84218 -0.07604 0.67152
 H482 H 0.86867 -0.04982 0.61799
 H483 H 0.95088 -0.13109 0.61836
 C484 C 1.13676 -0.09040 0.34069
 C485 C 1.12128 -0.12082 0.32468
 C486 C 1.09045 -0.13581 0.34052
 C487 C 1.07524 -0.12049 0.37121
 C488 C 1.09051 -0.08988 0.38678
 C489 C 1.12152 -0.07510 0.37137
 H490 H 1.16065 -0.07823 0.32962
 H491 H 1.07764 -0.15914 0.32911
 H492 H 1.05135 -0.13251 0.38259
 H493 H 1.13396 -0.05158 0.38292
 C494 C 0.91305 0.13312 0.33787
 C495 C 0.88226 0.11798 0.32226
 C496 C 0.86723 0.08720 0.33812
 C497 C 0.88236 0.07221 0.36892
 C498 C 0.91283 0.08763 0.38458
 C499 C 0.92816 0.11809 0.36869
 H500 H 0.92555 0.15669 0.32655
 H501 H 0.84370 0.07454 0.32698
 H502 H 0.87007 0.04859 0.38055
 H503 H 0.95178 0.13045 0.38016
 C504 C 0.08818 0.33919 -0.13410
 C505 C 0.11891 0.32350 -0.11891
 C506 C 0.13412 0.33951 -0.08831
 C507 C 0.11900 0.37028 -0.07329
 C508 C 0.08838 0.38582 -0.08854
 C509 C 0.07309 0.37000 -0.11907
 H510 H 0.07553 0.32776 -0.15754
 H511 H 0.15776 0.32847 -0.07577
 H512 H 0.13134 0.38190 -0.04972
 H513 H 0.04939 0.38140 -0.13134
 C514 C -0.08903 0.33932 0.13438
 C515 C -0.11978 0.32371 0.11914
 C516 C -0.13498 0.33983 0.08858
 C517 C -0.11976 0.37062 0.07362
 C518 C -0.08906 0.38603 0.08888
 C519 C -0.07384 0.37013 0.11940
 H520 H -0.07637 0.32778 0.15776
 H521 H -0.15870 0.32886 0.07610
 H522 H -0.13207 0.38235 0.05007
 H523 H -0.05012 0.38144 0.13170
 C524 C -0.13433 0.66020 -0.08827
 C525 C -0.11906 0.67623 -0.11892
 C526 C -0.08832 0.66055 -0.13420
 C527 C -0.07325 0.62974 -0.11920
 C528 C -0.08856 0.61392 -0.08861
 C529 C -0.11922 0.62942 -0.07330
 H530 H -0.15800 0.67124 -0.07569
 H531 H -0.07564 0.67199 -0.15768
 H532 H -0.04955 0.61835 -0.13154
 H533 H -0.13160 0.61777 -0.04968
 C534 C 0.13219 0.66254 0.08589
 C535 C 0.11715 0.67836 0.11671
 C536 C 0.08644 0.66264 0.13207
 C537 C 0.07150 0.63164 0.11731
 C538 C 0.08689 0.61568 0.08687
 C539 C 0.11722 0.63155 0.07115
 H540 H 0.15553 0.67400 0.07301
 H541 H 0.07406 0.67385 0.15581
 H542 H 0.04802 0.62005 0.12992
 H543 H 0.12951 0.61994 0.04749
 C544 C 0.34059 1.08925 0.86489
 C545 C 0.32449 1.11960 0.88045
 C546 C 0.34054 1.13494 0.91096
 C547 C 0.37151 1.12004 0.92577
 C548 C 0.38715 1.08949 0.91043
 C549 C 0.37155 1.07437 0.87973
 H550 H 0.32931 1.07665 0.84135
 H551 H 0.32923 1.15835 0.92373
 H552 H 0.38307 1.13234 0.94941
 H553 H 0.38314 1.05086 0.86726
 C554 C 0.33852 0.86573 1.08792
 C555 C 0.32266 0.88076 1.11870
 C556 C 0.33840 0.91131 1.13412
 C557 C 0.36930 0.92641 1.11917
 C558 C 0.38509 0.91133 1.08846
 C559 C 0.36938 0.88089 1.07293
 H560 H 0.32697 0.84246 1.07508
 H561 H 0.32718 0.92343 1.15800
 H562 H 0.38088 0.94986 1.13174
 H563 H 0.38091 0.86879 1.04914
 C564 C 0.65984 1.08872 1.13465
 C565 C 0.67559 1.11940 1.11931
 C566 C 0.65952 1.13469 1.08879
 C567 C 0.62868 1.11958 1.07391
 C568 C 0.61320 1.08888 1.08921
 C569 C 0.62900 1.07364 1.11976
 H570 H 0.67134 1.07598 1.15801
 H571 H 0.67058 1.15840 1.07628
 H572 H 0.61699 1.13194 1.05036
 H573 H 0.61761 1.04995 1.13211
 C574 C 0.65973 0.86498 0.91140
 C575 C 0.67585 0.88030 0.88083
 C576 C 0.65984 0.91068 0.86526
 C577 C 0.62886 0.92558 0.88013
 C578 C 0.61316 0.91044 0.91086
 C579 C 0.62875 0.87990 0.92624
 H580 H 0.67100 0.84157 0.92418
 H581 H 0.67117 0.92327 0.84169
 H582 H 0.61731 0.94909 0.86765
 H583 H 0.61711 0.86762 0.94991
   
