data_POSCAR
  _audit_creation_date              2014-09-24
  _audit_creation_method            'ToBaCCo'
  _symmetry_space_group_name_H-M    'P1'
  _symmetry_Int_Tables_number       1
  _symmetry_cell_setting            triclinic
  loop_
  _symmetry_equiv_pos_as_xyz
 x,y,z
_cell_length_a 32.9284
_cell_length_b 33.0100
_cell_length_c 32.9949
_cell_angle_alpha 89.953800
_cell_angle_beta 90.066800
_cell_angle_gamma 90.135100
loop_
  _atom_site_label
  _atom_site_type_symbol
  _atom_site_fract_x
  _atom_site_fract_y
  _atom_site_fract_z
C1 C 0.51928 1.00383 -0.50042
 C2 C 0.47815 1.00422 -0.50048
 C3 C 0.45409 1.00722 -0.53832
 C4 C 0.45412 1.00178 -0.46265
 C5 C 0.54336 1.00464 -0.46249
 C6 C 0.54334 1.00258 -0.53828
 C7 C 0.42679 1.03923 -0.54258
 C8 C 0.40011 1.04068 -0.57529
 C9 C 0.39933 1.00967 -0.60502
 C10 C 0.42872 0.97840 -0.60115
 C11 C 0.45536 0.97709 -0.56807
 C12 C 0.45570 1.03249 -0.43329
 C13 C 0.42884 1.03180 -0.40042
 C14 C 0.39987 1.00061 -0.39681
 C15 C 0.39951 0.96926 -0.42555
 C16 C 0.42626 0.96995 -0.45819
 C17 C 0.54168 0.97279 -0.43431
 C18 C 0.56867 0.97201 -0.40147
 C19 C 0.59787 1.00282 -0.39675
 C20 C 0.59832 1.03530 -0.42426
 C21 C 0.57143 1.03610 -0.45683
 C22 C 0.57060 0.97055 -0.54392
 C23 C 0.59752 0.97086 -0.57642
 C24 C 0.59792 1.00339 -0.60386
 C25 C 0.56952 1.03480 -0.59916
 C26 C 0.54251 1.03452 -0.56640
 H27 H 0.42584 1.06314 -0.52011
 H28 H 0.38112 1.06724 -0.57728
 H29 H 0.42970 0.95288 -0.62157
 H30 H 0.47584 0.95165 -0.56485
 H31 H 0.47660 1.05764 -0.43664
 H32 H 0.42954 1.05648 -0.37883
 H33 H 0.42463 0.94604 -0.48062
 H34 H 0.52063 0.94791 -0.43860
 H35 H 0.56789 0.94650 -0.38083
 H36 H 0.62004 1.05977 -0.42095
 H37 H 0.57314 1.06089 -0.47831
 H38 H 0.57166 0.94570 -0.52247
 H39 H 0.61860 0.94594 -0.57971
 H40 H 0.56942 1.06036 -0.61975
 H41 H 0.52209 1.05982 -0.56212
 H42 H 0.37800 0.94451 -0.42315
 C43 C -0.48070 1.49978 -0.00019
 C44 C -0.52185 1.49863 0.00104
 C45 C -0.54431 1.45980 0.00271
 C46 C -0.54725 1.53566 0.00055
 C47 C -0.45748 1.53823 -0.00308
 C48 C -0.45585 1.46237 0.00143
 C49 C -0.56765 1.44788 -0.03076
 C50 C -0.59210 1.41339 -0.02864
 C51 C -0.59426 1.39072 0.00732
 C52 C -0.57045 1.40242 0.04075
 C53 C -0.54536 1.43663 0.03834
 C54 C -0.54560 1.56342 -0.03169
 C55 C -0.57301 1.59577 -0.03344
 C56 C -0.60275 1.60045 -0.00323
 C57 C -0.60347 1.57322 0.02948
 C58 C -0.57610 1.54115 0.03127
 C59 C -0.45975 1.56796 0.02712
 C60 C -0.43330 1.60127 0.02648
 C61 C -0.40342 1.60524 -0.00411
 C62 C -0.40308 1.57593 -0.03531
 C63 C -0.42951 1.54295 -0.03460
 C64 C -0.42660 1.45833 0.03207
 C65 C -0.39934 1.42608 0.03159
 C66 C -0.40059 1.39729 0.00027
 C67 C -0.43079 1.40059 -0.02974
 C68 C -0.45809 1.43304 -0.02929
 H69 H -0.56738 1.46574 -0.05832
 H70 H -0.61052 1.40526 -0.05462
 H71 H -0.57161 1.38533 0.06875
 H72 H -0.52778 1.44579 0.06456
 H73 H -0.52403 1.55930 -0.05609
 H74 H -0.57201 1.61616 -0.05914
 H75 H -0.57786 1.52010 0.05642
 H76 H -0.48074 1.56446 0.05213
 H77 H -0.43477 1.62210 0.05169
 H78 H -0.38275 1.57834 -0.06091
 H79 H -0.42762 1.52049 -0.05846
 H80 H -0.42433 1.48075 0.05592
 H81 H -0.37682 1.42398 0.05544
 H82 H -0.43219 1.37907 -0.05446
 H83 H -0.47989 1.43612 -0.05368
 H84 H -0.62559 1.57648 0.05352
 C85 C -0.00372 0.49928 0.48059
 C86 C -0.00469 0.49803 0.52171
 C87 C -0.00525 0.53504 0.54728
 C88 C -0.00516 0.45908 0.54400
 C89 C -0.00555 0.46188 0.45560
 C90 C -0.00183 0.53784 0.45745
 C91 C 0.02601 0.56390 0.54569
 C92 C 0.02682 0.59630 0.57314
 C93 C -0.00334 0.60023 0.60345
 C94 C -0.03529 0.57156 0.60358
 C95 C -0.03608 0.53956 0.57607
 C96 C 0.03014 0.44605 0.56360
 C97 C 0.02944 0.41185 0.58850
 C98 C -0.00709 0.39037 0.59552
 C99 C -0.04238 0.40351 0.57484
 C100 C -0.04126 0.43724 0.54912
 C101 C -0.03680 0.45760 0.42715
 C102 C -0.03674 0.42554 0.39966
 C103 C -0.00510 0.39666 0.39948
 C104 C 0.02547 0.40042 0.42948
 C105 C 0.02540 0.43284 0.45688
 C106 C -0.03293 0.56678 0.45980
 C107 C -0.03338 0.59987 0.43313
 C108 C -0.00295 0.60420 0.40349
 C109 C 0.02892 0.57601 0.40248
 C110 C 0.02937 0.54316 0.42905
 H111 H 0.05057 0.56057 0.52415
 H112 H 0.05262 0.61657 0.57186
 H113 H -0.06057 0.57395 0.62431
 H114 H -0.06085 0.51797 0.57752
 H115 H 0.05814 0.46303 0.56033
 H116 H 0.05720 0.40424 0.60428
 H117 H -0.06883 0.44707 0.53415
 H118 H -0.06111 0.47963 0.42583
 H119 H -0.06223 0.42337 0.37908
 H120 H 0.05115 0.38010 0.43046
 H121 H 0.05043 0.43617 0.47793
 H122 H -0.05768 0.56283 0.48103
 H123 H -0.05847 0.62098 0.43441
 H124 H 0.05316 0.57892 0.38050
 H125 H 0.05358 0.52112 0.42671
 H126 H -0.07090 0.38746 0.57777
 O127 O -0.10497 1.00093 -0.05452
 O128 O 0.10367 0.99754 -0.05430
 O129 O -0.00124 1.05342 -0.10470
 O130 O 0.00086 0.94400 -0.10352
 O131 O -0.00022 0.89496 -0.05373
 O132 O -0.00164 1.10359 -0.05601
 O133 O 0.05439 0.99726 -0.10391
 O134 O -0.05569 1.00033 -0.10403
 Zr135 Zr -0.00062 0.99907 -0.07109
 O136 O 0.03574 0.96231 -0.03620
 O137 O -0.03704 1.03649 -0.03702
 C138 C -0.09325 1.00106 -0.09205
 C139 C 0.09195 0.99680 -0.09184
 C140 C -0.00207 1.09105 -0.09336
 C141 C 0.00111 0.90658 -0.09136
 H142 H 0.05377 1.05295 -0.05413
 O143 O 0.03627 1.03587 -0.03675
 H144 H -0.05508 0.94561 -0.05322
 O145 O -0.03760 0.96300 -0.03610
 O146 O 0.10373 1.00042 0.05476
 O147 O -0.10496 1.00012 0.05467
 O148 O 0.05554 1.10367 0.00112
 O149 O 0.05335 0.89509 -0.00038
 O150 O -0.05672 0.89598 0.00253
 O151 O -0.05476 1.10443 -0.00241
 O152 O 0.00177 1.05549 0.10390
 O153 O -0.00290 0.94606 0.10507
 O154 O 0.00160 1.10461 0.05416
 O155 O -0.00318 0.89609 0.05629
 O156 O 0.10417 1.05349 0.00107
 O157 O -0.10443 1.05513 -0.00236
 O158 O -0.10552 0.94591 0.00253
 O159 O 0.10308 0.94430 -0.00129
 O160 O 0.05450 1.00175 0.10434
 O161 O -0.05567 1.00008 0.10429
 Zr162 Zr 0.07048 0.99919 0.00020
 Zr163 Zr -0.07181 1.00029 0.00011
 Zr164 Zr 0.00002 1.07127 -0.00056
 Zr165 Zr -0.00135 0.92837 0.00093
 Zr166 Zr -0.00060 1.00046 0.07146
 O167 O -0.03776 0.96360 0.03731
 O168 O 0.03647 1.03665 0.03656
 C169 C 0.09204 1.00169 0.09227
 C170 C -0.09324 0.99985 0.09222
 C171 C 0.09292 1.09112 0.00179
 C172 C 0.09101 0.90685 -0.00172
 C173 C -0.09414 0.90829 0.00341
 C174 C -0.09241 1.09260 -0.00338
 C175 C 0.00261 1.09292 0.09178
 C176 C -0.00403 0.90842 0.09370
 H177 H -0.05405 1.05471 0.05342
 O178 O -0.03687 1.03709 0.03637
 H179 H 0.05283 0.94580 0.05464
 O180 O 0.03563 0.96312 0.03723
 C181 C 0.30977 1.00793 0.30313
 C182 C 0.30414 1.03048 0.33857
 C183 C 0.33390 1.03145 0.36862
 C184 C 0.37072 1.00953 0.36468
 C185 C 0.37593 0.98693 0.32851
 C186 C 0.34609 0.98639 0.29828
 C187 C 0.27760 1.00676 0.27174
 N188 N 0.28468 0.99023 0.23474
 N189 N 0.25559 0.98934 0.20665
 C190 C 0.21819 1.00481 0.21443
 N191 N 0.21112 1.02124 0.25144
 N192 N 0.24022 1.02224 0.27946
 C193 C 0.18584 1.00392 0.18324
 C194 C 0.14561 1.01399 0.19327
 C195 C 0.11507 1.01312 0.16383
 C196 C 0.12418 1.00250 0.12363
 C197 C 0.16444 0.99259 0.11359
 C198 C 0.19487 0.99312 0.14308
 H199 H 0.27636 1.04727 0.34346
 H200 H 0.32608 1.04772 0.39589
 H201 H 0.40368 0.97082 0.32199
 H202 H 0.35153 0.96891 0.27107
 H203 H 0.13759 1.02238 0.22395
 H204 H 0.08441 1.02109 0.17251
 H205 H 0.17247 0.98408 0.08294
 H206 H 0.22553 0.98529 0.13430
 C207 C -0.30969 1.00660 0.30402
 C208 C -0.30011 0.99614 0.34418
 C209 C -0.33013 0.99543 0.37390
 C210 C -0.37049 1.00524 0.36428
 C211 C -0.38012 1.01643 0.32436
 C212 C -0.35002 1.01694 0.29443
 C213 C -0.27770 1.00617 0.27249
 N214 N -0.28694 1.01258 0.23288
 N215 N -0.25809 1.01146 0.20462
 C216 C -0.21882 1.00393 0.21479
 N217 N -0.20961 0.99766 0.25440
 N218 N -0.23843 0.99871 0.28262
 C219 C -0.18671 1.00249 0.18342
 C220 C -0.14574 0.99753 0.19443
 C221 C -0.11541 0.99646 0.16489
 C222 C -0.12535 1.00018 0.12362
 C223 C -0.16636 1.00481 0.11261
 C224 C -0.19665 1.00603 0.14216
 H225 H -0.26939 0.98817 0.35274
 H226 H -0.32171 0.98739 0.40461
 H227 H -0.41104 1.02402 0.31616
 H228 H -0.35840 1.02526 0.26380
 H229 H -0.13699 0.99467 0.22594
 H230 H -0.08416 0.99273 0.17445
 H231 H -0.17517 1.00783 0.08112
 H232 H -0.22788 1.00977 0.13259
 C233 C -0.30986 0.99785 -0.30437
 C234 C -0.35046 0.98842 -0.29486
 C235 C -0.38054 0.98950 -0.32486
 C236 C -0.37060 1.00037 -0.36480
 C237 C -0.33000 1.00927 -0.37433
 C238 C -0.30000 1.00798 -0.34453
 C239 C -0.27787 0.99769 -0.27275
 N240 N -0.23840 1.00410 -0.28283
 N241 N -0.20956 1.00464 -0.25454
 C242 C -0.21895 0.99888 -0.21491
 N243 N -0.25843 0.99238 -0.20479
 N244 N -0.28730 0.99178 -0.23312
 C245 C -0.18680 0.99979 -0.18347
 C246 C -0.19685 0.99696 -0.14219
 C247 C -0.16653 0.99773 -0.11258
 C248 C -0.12538 1.00119 -0.12353
 C249 C -0.11534 1.00416 -0.16482
 C250 C -0.14570 1.00354 -0.19443
 H251 H -0.35907 0.98038 -0.26422
 H252 H -0.41165 0.98261 -0.31673
 H253 H -0.32135 1.01704 -0.40504
 H254 H -0.26908 1.01526 -0.35303
 H255 H -0.22818 0.99415 -0.13266
 H256 H -0.17542 0.99531 -0.08108
 H257 H -0.08400 1.00694 -0.17435
 H258 H -0.13686 1.00581 -0.22594
 C259 C 0.30807 1.00181 -0.30403
 C260 C 0.29812 0.99257 -0.34440
 C261 C 0.32796 0.99243 -0.37431
 C262 C 0.36852 1.00157 -0.36467
 C263 C 0.37855 1.01141 -0.32449
 C264 C 0.34862 1.01138 -0.29439
 C265 C 0.27621 1.00109 -0.27238
 N266 N 0.28564 1.00705 -0.23274
 N267 N 0.25686 1.00595 -0.20441
 C268 C 0.21746 0.99887 -0.21452
 N269 N 0.20806 0.99299 -0.25415
 N270 N 0.23681 0.99404 -0.28244
 C271 C 0.18538 0.99768 -0.18310
 C272 C 0.14434 0.99300 -0.19404
 C273 C 0.11403 0.99240 -0.16446
 C274 C 0.12405 0.99635 -0.12323
 C275 C 0.16514 1.00065 -0.11229
 C276 C 0.19542 1.00138 -0.14187
 H277 H 0.26722 0.98523 -0.35300
 H278 H 0.31922 0.98546 -0.40518
 H279 H 0.40962 1.01843 -0.31625
 H280 H 0.35731 1.01872 -0.26360
 H281 H 0.13552 0.99003 -0.22552
 H282 H 0.08272 0.98895 -0.17397
 H283 H 0.17401 1.00386 -0.08084
 H284 H 0.22670 1.00493 -0.13236
 C285 C 0.31689 1.29526 0.01198
 C286 C 0.31946 1.32394 0.04336
 C287 C 0.34941 1.35404 0.04266
 C288 C 0.37693 1.35639 0.01027
 C289 C 0.37490 1.32731 -0.02068
 C290 C 0.34539 1.29685 -0.01968
 C291 C 0.28396 1.26464 0.01149
 N292 N 0.28660 1.23146 -0.01264
 N293 N 0.25656 1.20441 -0.01393
 C294 C 0.22248 1.20955 0.00861
 N295 N 0.21980 1.24275 0.03275
 N296 N 0.24997 1.26969 0.03423
 C297 C 0.18903 1.17954 0.00675
 C298 C 0.14989 1.18931 0.02063
 C299 C 0.11838 1.16086 0.01849
 C300 C 0.12559 1.12189 0.00302
 C301 C 0.16474 1.11215 -0.01073
 C302 C 0.19601 1.14072 -0.00915
 H303 H 0.29810 1.32337 0.06828
 H304 H 0.35018 1.37636 0.06669
 H305 H 0.39593 1.32845 -0.04588
 H306 H 0.34422 1.27523 -0.04432
 H307 H 0.14352 1.21905 0.03289
 H308 H 0.08856 1.16913 0.02952
 H309 H 0.17120 1.08244 -0.02303
 H310 H 0.22580 1.13220 -0.02002
 C311 C 0.30541 0.69301 -0.00972
 C312 C 0.29528 0.65294 0.00062
 C313 C 0.32510 0.62305 0.00234
 C314 C 0.36581 0.63239 -0.00634
 C315 C 0.37599 0.67221 -0.01747
 C316 C 0.34610 0.70229 -0.01898
 C317 C 0.27366 0.72480 -0.01010
 N318 N 0.28338 0.76433 -0.01632
 N319 N 0.25480 0.79284 -0.01568
 C320 C 0.21528 0.78302 -0.00883
 N321 N 0.20558 0.74348 -0.00281
 N322 N 0.23414 0.71502 -0.00339
 C323 C 0.18347 0.81471 -0.00742
 C324 C 0.14239 0.80407 -0.00241
 C325 C 0.11240 0.83390 -0.00061
 C326 C 0.12276 0.87513 -0.00364
 C327 C 0.16385 0.88575 -0.00875
 C328 C 0.19381 0.85591 -0.01067
 H329 H 0.26428 0.64459 0.00777
 H330 H 0.31624 0.59245 0.01031
 H331 H 0.40717 0.68025 -0.02416
 H332 H 0.35494 0.73283 -0.02716
 H333 H 0.13330 0.77264 0.00016
 H334 H 0.08110 0.82457 0.00333
 H335 H 0.17297 0.91719 -0.01137
 H336 H 0.22512 0.86522 -0.01453
 C337 C -0.31265 0.69765 0.00062
 C338 C -0.35076 0.70384 0.01861
 C339 C -0.38072 0.67368 0.01713
 C340 C -0.37362 0.63652 -0.00291
 C341 C -0.33517 0.63092 -0.02108
 C342 C -0.30531 0.66086 -0.01921
 C343 C -0.28040 0.72902 0.00250
 N344 N -0.24202 0.72030 -0.00968
 N345 N -0.21289 0.74828 -0.00840
 C346 C -0.22086 0.78629 0.00503
 N347 N -0.25924 0.79508 0.01728
 N348 N -0.28840 0.76701 0.01612
 C349 C -0.18838 0.81747 0.00571
 C350 C -0.19755 0.85829 0.01348
 C351 C -0.16697 0.88774 0.01291
 C352 C -0.12646 0.87700 0.00484
 C353 C -0.11723 0.83609 -0.00235
 C354 C -0.14783 0.80672 -0.00206
 H355 H -0.35748 0.73199 0.03401
 H356 H -0.40984 0.68043 0.03061
 H357 H -0.32687 0.60264 -0.03530
 H358 H -0.27622 0.65490 -0.03324
 H359 H -0.22845 0.86762 0.01956
 H360 H -0.17513 0.91895 0.01880
 H361 H -0.08639 0.82674 -0.00874
 H362 H -0.13964 0.77555 -0.00803
 C363 C -0.30835 1.30503 -0.00571
 C364 C -0.29826 1.34528 0.00394
 C365 C -0.32824 1.37501 0.00581
 C366 C -0.36908 1.36533 -0.00200
 C367 C -0.37925 1.32523 -0.01209
 C368 C -0.34921 1.29534 -0.01379
 C369 C -0.27635 1.27352 -0.00693
 N370 N -0.28594 1.23393 -0.01298
 N371 N -0.25711 1.20568 -0.01338
 C372 C -0.21746 1.21580 -0.00781
 N373 N -0.20789 1.25539 -0.00193
 N374 N -0.23670 1.28361 -0.00147
 C375 C -0.18538 1.18433 -0.00754
 C376 C -0.14422 1.19520 -0.00381
 C377 C -0.11403 1.16552 -0.00276
 C378 C -0.12428 1.12422 -0.00526
 C379 C -0.16544 1.11340 -0.00929
 C380 C -0.19559 1.14308 -0.01047
 H381 H -0.26715 1.35392 0.01022
 H382 H -0.31937 1.40580 0.01296
 H383 H -0.41052 1.31689 -0.01806
 H384 H -0.35805 1.26465 -0.02135
 H385 H -0.13522 1.22668 -0.00157
 H386 H -0.08267 1.17499 0.00033
 H387 H -0.17450 1.08191 -0.01147
 H388 H -0.22696 1.13360 -0.01339
 C389 C 0.00021 1.30514 0.30810
 C390 C -0.02007 1.34179 0.30105
 C391 C -0.02209 1.37149 0.33106
 C392 C -0.00358 1.36580 0.36934
 C393 C 0.01696 1.32883 0.37609
 C394 C 0.01858 1.29894 0.34603
 C395 C 0.00207 1.27379 0.27591
 N396 N 0.01630 1.23602 0.28392
 N397 N 0.01744 1.20789 0.25498
 C398 C 0.00455 1.21636 0.21675
 N399 N -0.00950 1.25418 0.20873
 N400 N -0.01076 1.28224 0.23768
 C401 C 0.00517 1.18494 0.18458
 C402 C -0.00330 1.19516 0.14405
 C403 C -0.00363 1.16545 0.11386
 C404 C 0.00418 1.12472 0.12351
 C405 C 0.01299 1.11455 0.16399
 C406 C 0.01362 1.14431 0.19412
 H407 H -0.03440 1.34776 0.27210
 H408 H -0.03678 1.39964 0.32304
 H409 H 0.03069 1.32193 0.40506
 H410 H 0.03433 1.27092 0.35257
 H411 H -0.00979 1.22617 0.13557
 H412 H -0.01057 1.17436 0.08303
 H413 H 0.01942 1.08352 0.17249
 H414 H 0.02027 1.13534 0.22499
 C415 C -0.00934 1.29631 -0.31586
 C416 C 0.02575 1.30365 -0.33880
 C417 C 0.02637 1.33409 -0.36825
 C418 C -0.00841 1.35779 -0.37627
 C419 C -0.04408 1.34903 -0.35408
 C420 C -0.04431 1.31912 -0.32400
 C421 C -0.00906 1.26556 -0.28313
 N422 N -0.03595 1.26756 -0.25199
 N423 N -0.03491 1.24049 -0.22200
 C424 C -0.00712 1.21013 -0.22208
 N425 N 0.01959 1.20801 -0.25334
 N426 N 0.01877 1.23526 -0.28313
 C427 C -0.00586 1.17990 -0.18889
 C428 C 0.01228 1.14195 -0.19520
 C429 C 0.01332 1.11316 -0.16417
 C430 C -0.00306 1.12192 -0.12587
 C431 C -0.02076 1.16004 -0.11930
 C432 C -0.02251 1.18862 -0.15065
 H433 H 0.05315 1.28634 -0.33347
 H434 H 0.05410 1.33811 -0.38535
 H435 H -0.07142 1.36670 -0.35801
 H436 H -0.07190 1.31404 -0.30688
 H437 H 0.02526 1.13427 -0.22433
 H438 H 0.02733 1.08410 -0.17006
 H439 H -0.03383 1.16751 -0.09014
 H440 H -0.03653 1.21768 -0.14484
 C441 C 0.00223 0.69237 -0.30579
 C442 C -0.01773 0.65553 -0.29839
 C443 C -0.01962 0.62557 -0.32813
 C444 C -0.00136 0.63116 -0.36651
 C445 C 0.01913 0.66820 -0.37353
 C446 C 0.02062 0.69839 -0.34371
 C447 C 0.00355 0.72412 -0.27395
 N448 N 0.01734 0.76206 -0.28224
 N449 N 0.01779 0.79055 -0.25362
 C450 C 0.00460 0.78229 -0.21546
 N451 N -0.00899 0.74431 -0.20717
 N452 N -0.00956 0.71590 -0.23578
 C453 C 0.00448 0.81403 -0.18361
 C454 C -0.00452 0.80406 -0.14314
 C455 C -0.00531 0.83398 -0.11318
 C456 C 0.00259 0.87469 -0.12299
 C457 C 0.01177 0.88465 -0.16343
 C458 C 0.01284 0.85467 -0.19334
 H459 H -0.03199 0.64964 -0.26942
 H460 H -0.03412 0.59734 -0.31987
 H461 H 0.03280 0.67495 -0.40254
 H462 H 0.03619 0.72652 -0.35048
 H463 H -0.01100 0.77306 -0.13451
 H464 H -0.01254 0.82521 -0.08238
 H465 H 0.01827 0.91566 -0.17204
 H466 H 0.01987 0.86345 -0.22417
 C467 C -0.00869 0.69686 0.31127
 C468 C -0.01767 0.70629 0.35189
 C469 C -0.01621 0.67628 0.38194
 C470 C -0.00539 0.63635 0.37203
 C471 C 0.00319 0.62694 0.33141
 C472 C 0.00153 0.65674 0.30145
 C473 C -0.00949 0.72844 0.27918
 N474 N -0.00319 0.71833 0.23978
 N475 N -0.00321 0.74649 0.21087
 C476 C -0.00946 0.78608 0.22004
 N477 N -0.01587 0.79624 0.25944
 N478 N -0.01591 0.76803 0.28839
 C479 C -0.00877 0.81743 0.18772
 C480 C -0.01229 0.85875 0.19733
 C481 C -0.01085 0.88822 0.16687
 C482 C -0.00596 0.87710 0.12599
 C483 C -0.00279 0.83574 0.11637
 C484 C -0.00410 0.80631 0.14684
 H485 H -0.02573 0.73687 0.36052
 H486 H -0.02285 0.68442 0.41302
 H487 H 0.01087 0.59628 0.32267
 H488 H 0.00848 0.64825 0.27054
 H489 H -0.01593 0.86843 0.22845
 H490 H -0.01359 0.91975 0.17544
 H491 H 0.00100 0.82601 0.08527
 H492 H -0.00136 0.77478 0.13826
   
