data_POSCAR
  _audit_creation_date              2014-09-24
  _audit_creation_method            'ToBaCCo'
  _symmetry_space_group_name_H-M    'P1'
  _symmetry_Int_Tables_number       1
  _symmetry_cell_setting            triclinic
  loop_
  _symmetry_equiv_pos_as_xyz
 x,y,z
_cell_length_a 23.7592
_cell_length_b 23.7592
_cell_length_c 43.2480
_cell_angle_alpha 90.000000
_cell_angle_beta 90.000000
_cell_angle_gamma 120.000200
loop_
  _atom_site_label
  _atom_site_type_symbol
  _atom_site_fract_x
  _atom_site_fract_y
  _atom_site_fract_z
Zn1 Zn 0.95851 0.04249 1.01390
 Zn2 Zn 1.08403 0.04152 1.01391
 Zn3 Zn 0.95754 -0.08400 1.01390
 Zn4 Zn 1.00003 0.00000 0.95788
 O5 O 1.00003 0.00000 0.99997
 O6 O 1.01000 0.11180 1.03726
 O7 O 1.10186 -0.00997 1.03726
 O8 O 0.88822 -0.10183 1.03726
 O9 O 1.10260 0.11084 1.03736
 O10 O 0.88919 -0.00826 1.03736
 O11 O 1.00829 -0.10257 1.03736
 O12 O 0.96032 -0.07982 0.94182
 O13 O 1.14285 0.07098 0.98318
 O14 O 0.92819 -0.14282 0.98318
 O15 O 1.07985 0.04012 0.94182
 O16 O 0.95991 0.03971 0.94182
 O17 O 0.92904 0.07184 0.98318
 C18 C 1.06881 0.13602 1.04570
 C19 C 1.06725 -0.06879 1.04570
 C20 C 0.86401 -0.06723 1.04570
 C21 C 0.93209 -0.13589 0.95401
 C22 C 1.13592 0.06796 0.95401
 C23 C 0.93207 0.06794 0.95401
 Zn24 Zn 0.04154 0.95751 0.51390
 Zn25 Zn -0.08398 0.95849 0.51391
 Zn26 Zn 0.04252 1.08401 0.51390
 Zn27 Zn 0.00003 1.00000 0.45788
 O28 O 0.00003 1.00000 0.49997
 O29 O -0.00995 0.88820 0.53726
 O30 O -0.10180 1.00997 0.53726
 O31 O 0.11183 1.10183 0.53726
 O32 O -0.10255 0.88917 0.53736
 O33 O 0.11086 1.00826 0.53736
 O34 O -0.00823 1.10258 0.53736
 O35 O 0.03973 1.07982 0.44182
 O36 O -0.14279 0.92902 0.48318
 O37 O 0.07186 1.14282 0.48318
 O38 O -0.07980 0.95989 0.44182
 O39 O 0.04014 0.96030 0.44182
 O40 O 0.07101 0.92816 0.48318
 C41 C -0.06876 0.86398 0.54570
 C42 C -0.06720 1.06879 0.54570
 C43 C 0.13604 1.06723 0.54570
 C44 C 0.06796 1.13589 0.45401
 C45 C -0.13587 0.93204 0.45401
 C46 C 0.06798 0.93207 0.45401
 O47 O 0.23800 0.57441 0.28558
 O48 O 0.23547 0.68161 0.27613
 C49 C 0.27610 0.73145 0.29113
 O50 O 0.33646 0.76202 0.28558
 O51 O 0.44619 0.76456 0.27613
 C52 C 0.45540 0.72393 0.29113
 O53 O 0.42562 0.66357 0.28558
 O54 O 0.31842 0.55384 0.27613
 C55 C 0.26858 0.54463 0.29113
 O56 O 0.23522 0.55391 0.22411
 O57 O 0.23802 0.66394 0.21465
 C58 C 0.26861 0.72436 0.20921
 O59 O 0.31874 0.76481 0.22411
 O60 O 0.42597 0.76201 0.21465
 C61 C 0.45580 0.73142 0.20921
 O62 O 0.44612 0.68129 0.22411
 O63 O 0.33609 0.57406 0.21465
 C64 C 0.27567 0.54423 0.20921
 Cr65 Cr 0.24035 0.62029 0.25011
 Cr66 Cr 0.37999 0.75968 0.25011
 Cr67 Cr 0.37974 0.62004 0.25011
 O68 O 0.33336 0.66667 0.25007
 O69 O 0.76205 0.42559 0.78558
 O70 O 0.76458 0.31840 0.77613
 C71 C 0.72395 0.26856 0.79113
 O72 O 0.66360 0.23798 0.78558
 O73 O 0.55386 0.23544 0.77613
 C74 C 0.54466 0.27607 0.79113
 O75 O 0.57444 0.33643 0.78558
 O76 O 0.68163 0.44616 0.77613
 C77 C 0.73147 0.45537 0.79113
 O78 O 0.76483 0.44610 0.72411
 O79 O 0.76203 0.33607 0.71465
 C80 C 0.73144 0.27565 0.70921
 O81 O 0.68131 0.23519 0.72411
 O82 O 0.57408 0.23800 0.71465
 C83 C 0.54425 0.26859 0.70921
 O84 O 0.55393 0.31871 0.72411
 O85 O 0.66396 0.42594 0.71465
 C86 C 0.72438 0.45577 0.70921
 Cr87 Cr 0.75970 0.37972 0.75011
 Cr88 Cr 0.62006 0.24032 0.75011
 Cr89 Cr 0.62031 0.37997 0.75011
 O90 O 0.66669 0.33333 0.75007
 C91 C 0.19069 0.27571 0.09534
 C92 C 0.15371 0.30319 0.10530
 C93 C 0.08932 0.27675 0.09537
 C94 C 0.06180 0.22273 0.07575
 C95 C 0.09840 0.19433 0.06583
 C96 C 0.16331 0.22168 0.07573
 C97 C 0.18118 0.35723 0.12644
 C98 C 0.20378 0.40168 0.14461
 C99 C 0.22963 0.45266 0.16645
 C100 C 0.25108 0.49514 0.18565
 H101 H 0.24053 0.29568 0.10296
 H102 H 0.06019 0.29754 0.10300
 H103 H 0.01175 0.20292 0.06857
 H104 H 0.19285 0.20107 0.06853
 C105 C 0.72327 0.81254 0.09537
 C106 C 0.69684 0.85049 0.10530
 C107 C 0.72432 0.91497 0.09534
 C108 C 0.77834 0.94161 0.07573
 C109 C 0.80570 0.90405 0.06583
 C110 C 0.77730 0.83906 0.07575
 C111 C 0.64279 0.82392 0.12644
 C112 C 0.59834 0.80207 0.14461
 C113 C 0.54736 0.77695 0.16645
 C114 C 0.50489 0.75592 0.18565
 H115 H 0.70248 0.76262 0.10300
 H116 H 0.70435 0.94484 0.10296
 H117 H 0.79896 0.99175 0.06853
 H118 H 0.79710 0.80881 0.06857
 C119 C 0.08506 0.80933 0.09534
 C120 C 0.14953 0.84632 0.10530
 C121 C 0.18748 0.91071 0.09537
 C122 C 0.16097 0.93822 0.07575
 C123 C 0.09598 0.90163 0.06583
 C124 C 0.05842 0.83671 0.07573
 C125 C 0.17610 0.81885 0.12644
 C126 C 0.19796 0.79625 0.14461
 C127 C 0.22308 0.77039 0.16645
 C128 C 0.24411 0.74895 0.18565
 H129 H 0.05519 0.75949 0.10296
 H130 H 0.23741 0.93984 0.10300
 H131 H 0.19122 0.98828 0.06857
 H132 H 0.00827 0.80718 0.06853
 C133 C 0.91073 0.72325 0.59537
 C134 C 0.84634 0.69681 0.60530
 C135 C 0.80936 0.72430 0.59534
 C136 C 0.83674 0.77832 0.57573
 C137 C 0.90165 0.80568 0.56583
 C138 C 0.93825 0.77728 0.57575
 C139 C 0.81887 0.64277 0.62644
 C140 C 0.79628 0.59832 0.64461
 C141 C 0.77042 0.54734 0.66645
 C142 C 0.74897 0.50486 0.68565
 H143 H 0.93987 0.70246 0.60300
 H144 H 0.75952 0.70433 0.60296
 H145 H 0.80721 0.79893 0.56853
 H146 H 0.98830 0.79708 0.56857
 C147 C 0.27678 0.18746 0.59537
 C148 C 0.30322 0.14951 0.60530
 C149 C 0.27573 0.08504 0.59534
 C150 C 0.22171 0.05840 0.57573
 C151 C 0.19435 0.09595 0.56583
 C152 C 0.22275 0.16095 0.57575
 C153 C 0.35726 0.17608 0.62644
 C154 C 0.40171 0.19793 0.64461
 C155 C 0.45269 0.22305 0.66645
 C156 C 0.49517 0.24409 0.68565
 H157 H 0.29757 0.23738 0.60300
 H158 H 0.29570 0.05517 0.60296
 H159 H 0.20109 0.00825 0.56853
 H160 H 0.20295 0.19120 0.56857
 C161 C 0.91499 0.19067 0.59534
 C162 C 0.85052 0.15368 0.60530
 C163 C 0.81257 0.08930 0.59537
 C164 C 0.83908 0.06178 0.57575
 C165 C 0.90407 0.09837 0.56583
 C166 C 0.94163 0.16329 0.57573
 C167 C 0.82395 0.18116 0.62644
 C168 C 0.80210 0.20375 0.64461
 C169 C 0.77697 0.22961 0.66645
 C170 C 0.75594 0.25105 0.68565
 H171 H 0.94486 0.24051 0.60296
 H172 H 0.76265 0.06016 0.60300
 H173 H 0.80883 0.01172 0.56857
 H174 H 0.99178 0.19282 0.56853
 C175 C 0.31138 0.15686 0.92667
 C176 C 0.30317 0.15327 0.89453
 C177 C 0.24057 0.12179 0.88195
 C178 C 0.18631 0.09403 0.90132
 C179 C 0.19385 0.09734 0.93367
 C180 C 0.25705 0.12906 0.94616
 C181 C 0.35849 0.18162 0.87418
 C182 C 0.40334 0.20457 0.85626
 C183 C 0.45416 0.23048 0.83436
 C184 C 0.49620 0.25177 0.81496
 H185 H 0.35968 0.18112 0.93664
 H186 H 0.23366 0.11871 0.85711
 H187 H 0.13844 0.07002 0.89092
 H188 H 0.26451 0.13245 0.97094
 C189 C 0.88127 0.75946 0.88195
 C190 C 0.85015 0.69686 0.89453
 C191 C 0.84553 0.68865 0.92667
 C192 C 0.87206 0.74298 0.94616
 C193 C 0.90353 0.80617 0.93367
 C194 C 0.90777 0.81371 0.90132
 C195 C 0.82317 0.64154 0.87418
 C196 C 0.80128 0.59669 0.85626
 C197 C 0.77637 0.54587 0.83436
 C198 C 0.75563 0.50383 0.81496
 H199 H 0.88510 0.76637 0.85711
 H200 H 0.82149 0.64035 0.93664
 H201 H 0.86799 0.73552 0.97094
 H202 H 0.93163 0.86159 0.89092
 C203 C 0.87824 0.11876 0.88195
 C204 C 0.84676 0.14988 0.89453
 C205 C 0.84317 0.15450 0.92667
 C206 C 0.87097 0.12797 0.94616
 C207 C 0.90269 0.09650 0.93367
 C208 C 0.90600 0.09226 0.90132
 C209 C 0.81841 0.17685 0.87418
 C210 C 0.79546 0.19875 0.85626
 C211 C 0.76955 0.22365 0.83436
 C212 C 0.74825 0.24440 0.81496
 H213 H 0.88132 0.11493 0.85711
 H214 H 0.81890 0.17853 0.93664
 H215 H 0.86758 0.13203 0.97094
 H216 H 0.93001 0.06840 0.89092
 C217 C 0.75948 0.87821 0.38195
 C218 C 0.69688 0.84674 0.39453
 C219 C 0.68867 0.84314 0.42667
 C220 C 0.74301 0.87095 0.44616
 C221 C 0.80620 0.90267 0.43367
 C222 C 0.81374 0.90597 0.40132
 C223 C 0.64156 0.81839 0.37418
 C224 C 0.59671 0.79544 0.35626
 C225 C 0.54589 0.76952 0.33436
 C226 C 0.50385 0.74823 0.31496
 H227 H 0.76639 0.88129 0.35711
 H228 H 0.64037 0.81888 0.43664
 H229 H 0.73555 0.86755 0.47094
 H230 H 0.86161 0.92998 0.39092
 C231 C 0.11878 0.24055 0.38195
 C232 C 0.14990 0.30315 0.39453
 C233 C 0.15452 0.31136 0.42667
 C234 C 0.12799 0.25702 0.44616
 C235 C 0.09652 0.19383 0.43367
 C236 C 0.09228 0.18629 0.40132
 C237 C 0.17688 0.35847 0.37418
 C238 C 0.19877 0.40331 0.35626
 C239 C 0.22368 0.45413 0.33436
 C240 C 0.24443 0.49618 0.31496
 H241 H 0.11495 0.23364 0.35711
 H242 H 0.17856 0.35966 0.43664
 H243 H 0.13206 0.26448 0.47094
 H244 H 0.06842 0.13842 0.39092
 C245 C 0.12181 0.88125 0.38195
 C246 C 0.15329 0.85012 0.39453
 C247 C 0.15688 0.84550 0.42667
 C248 C 0.12908 0.87204 0.44616
 C249 C 0.09736 0.90351 0.43367
 C250 C 0.09406 0.90775 0.40132
 C251 C 0.18164 0.82315 0.37418
 C252 C 0.20459 0.80126 0.35626
 C253 C 0.23051 0.77635 0.33436
 C254 C 0.25180 0.75560 0.31496
 H255 H 0.11874 0.88508 0.35711
 H256 H 0.18115 0.82147 0.43664
 H257 H 0.13248 0.86797 0.47094
 H258 H 0.07005 0.93160 0.39092
   
