data_POSCAR
  _audit_creation_date              2014-09-24
  _audit_creation_method            'ToBaCCo'
  _symmetry_space_group_name_H-M    'P1'
  _symmetry_Int_Tables_number       1
  _symmetry_cell_setting            triclinic
  loop_
  _symmetry_equiv_pos_as_xyz
 x,y,z
_cell_length_a 43.9857
_cell_length_b 43.9891
_cell_length_c 8.8964
_cell_angle_alpha 89.998100
_cell_angle_beta 90.001000
_cell_angle_gamma 89.999900
loop_
  _atom_site_label
  _atom_site_type_symbol
  _atom_site_fract_x
  _atom_site_fract_y
  _atom_site_fract_z
O1 O 0.27406 0.27906 0.40249
 O2 O 0.21629 0.21976 0.34058
 O3 O 0.27418 0.21985 0.40230
 O4 O 0.21618 0.27894 0.34078
 O5 O 0.22662 0.27901 0.09762
 O6 O 0.28461 0.21991 0.15917
 O7 O 0.22673 0.21980 0.09743
 O8 O 0.28450 0.27910 0.15933
 Cu9 Cu 0.24410 0.24940 0.39593
 Cu10 Cu 0.25670 0.24946 0.10400
 C11 C 0.28905 0.28908 0.29118
 C12 C 0.21174 0.20978 0.20873
 C13 C 0.28920 0.20991 0.29095
 C14 C 0.21160 0.28894 0.20899
 O15 O 0.72687 0.22077 0.40128
 O16 O 0.78486 0.27986 0.33975
 O17 O 0.72698 0.27996 0.40150
 O18 O 0.78475 0.22067 0.33956
 O19 O 0.77431 0.22071 0.09640
 O20 O 0.71654 0.28001 0.15834
 O21 O 0.77442 0.27993 0.09662
 O22 O 0.71643 0.22083 0.15812
 Cu23 Cu 0.75695 0.25031 0.39490
 Cu24 Cu 0.74435 0.25038 0.10298
 C25 C 0.71184 0.21084 0.28991
 C26 C 0.78945 0.28987 0.20798
 C27 C 0.71199 0.28998 0.29021
 C28 C 0.78929 0.21068 0.20772
 O29 O 0.78447 0.72099 0.65999
 O30 O 0.72670 0.78029 0.59807
 O31 O 0.78459 0.78018 0.65978
 O32 O 0.72660 0.72109 0.59824
 O33 O 0.71616 0.72115 0.84140
 O34 O 0.77416 0.78024 0.90292
 O35 O 0.71626 0.78033 0.84123
 O36 O 0.77403 0.72103 0.90315
 Cu37 Cu 0.75667 0.75064 0.60464
 Cu38 Cu 0.74407 0.75070 0.89656
 C39 C 0.78900 0.71100 0.79183
 C40 C 0.71170 0.79030 0.70937
 C41 C 0.78919 0.79018 0.79156
 C42 C 0.71158 0.71115 0.70961
 O43 O 0.28360 0.78000 0.84144
 O44 O 0.22583 0.72070 0.90336
 O45 O 0.28370 0.72082 0.84163
 O46 O 0.22571 0.77991 0.90315
 O47 O 0.21527 0.77985 0.66002
 O48 O 0.27326 0.72076 0.59847
 O49 O 0.21539 0.72066 0.66020
 O50 O 0.27316 0.77996 0.59828
 Cu51 Cu 0.25579 0.75037 0.89678
 Cu52 Cu 0.24319 0.75031 0.60486
 C53 C 0.28815 0.78998 0.70959
 C54 C 0.21085 0.71068 0.79204
 C55 C 0.28828 0.71082 0.70985
 C56 C 0.21067 0.78985 0.79180
 O57 O 0.97045 -0.02453 -0.15328
 O58 O 1.02976 0.03324 -0.09154
 O59 O 1.02967 -0.02463 -0.15318
 O60 O 0.97058 0.03336 -0.09171
 O61 O 0.97052 0.02295 0.15148
 O62 O 1.02962 -0.03505 0.09000
 O63 O 1.02973 0.02282 0.15164
 O64 O 0.97042 -0.03494 0.08990
 Cu65 Cu 1.00012 0.00543 -0.14682
 Cu66 Cu 1.00007 -0.00714 0.14514
 C67 C 0.96043 -0.03950 -0.04193
 C68 C 1.03974 0.03780 0.04030
 C69 C 1.03962 -0.03964 -0.04179
 C70 C 0.96059 0.03797 0.04009
 O71 O 0.47052 0.47656 0.34812
 O72 O 0.52961 0.53455 0.40987
 O73 O 0.52973 0.47669 0.34799
 O74 O 0.47043 0.53444 0.40995
 O75 O 0.47045 0.52398 0.65309
 O76 O 0.52976 0.46622 0.59112
 O77 O 0.52966 0.52409 0.65300
 O78 O 0.47057 0.46610 0.59126
 Cu79 Cu 0.50007 0.50664 0.35460
 Cu80 Cu 0.50012 0.49402 0.64651
 C81 C 0.46058 0.46153 0.45945
 C82 C 0.53961 0.53912 0.54168
 C83 C 0.53975 0.46169 0.45927
 C84 C 0.46044 0.53898 0.54180
 O85 O 0.02936 0.52320 -0.15145
 O86 O -0.02983 0.46531 -0.08999
 O87 O -0.02983 0.52321 -0.15147
 O88 O 0.02936 0.46532 -0.08995
 O89 O 0.02937 0.47571 0.15326
 O90 O -0.02983 0.53361 0.09173
 O91 O -0.02985 0.47570 0.15322
 O92 O 0.02935 0.53360 0.09175
 Cu93 Cu -0.00024 0.49318 -0.14510
 Cu94 Cu -0.00024 0.50572 0.14688
 C95 C 0.03933 0.53819 -0.04005
 C96 C -0.03982 0.46072 0.04181
 C97 C -0.03980 0.53821 -0.04008
 C98 C 0.03935 0.46073 0.04185
 O99 O 0.52937 1.02432 0.34691
 O100 O 0.47017 0.96646 0.40894
 O101 O 0.47015 1.02433 0.34696
 O102 O 0.52936 0.96647 0.40891
 O103 O 0.52938 0.97695 0.65202
 O104 O 0.47017 1.03481 0.59007
 O105 O 0.47016 0.97694 0.65205
 O106 O 0.52936 1.03481 0.59002
 Cu107 Cu 0.49976 0.99431 0.35354
 Cu108 Cu 0.49976 1.00696 0.64543
 C109 C 0.53935 1.03934 0.45818
 C110 C 0.46018 0.96192 0.54078
 C111 C 0.46017 1.03935 0.45824
 C112 C 0.53936 0.96194 0.54074
 C113 C 1.14674 0.14408 0.14405
 C114 C 1.12834 0.13701 0.28645
 C115 C 1.10663 0.11531 0.26587
 C116 C 1.10545 0.10280 0.10490
 C117 C 1.13785 0.09160 0.07235
 C118 C 1.15956 0.11331 0.09293
 C119 C 1.12296 0.15255 0.02490
 C120 C 1.10126 0.13084 0.00432
 C121 C 1.17007 0.16748 0.16636
 C122 C 1.18915 0.18677 0.18527
 C123 C 1.08205 0.07947 0.08260
 C124 C 1.06276 0.06039 0.06370
 H125 H 1.13204 0.14807 0.39402
 H126 H 1.09174 0.10777 0.35578
 H127 H 1.14326 0.06865 0.03629
 H128 H 1.18357 0.10896 0.07451
 H129 H 1.12317 0.17371 -0.03786
 H130 H 1.08287 0.13342 -0.07609
 C131 C 0.64649 0.64552 0.64524
 C132 C 0.63655 0.62986 0.79143
 C133 C 0.61484 0.60815 0.77089
 C134 C 0.60521 0.60423 0.60620
 C135 C 0.63484 0.59786 0.52057
 C136 C 0.65654 0.61958 0.54110
 C137 C 0.61701 0.65775 0.57541
 C138 C 0.59531 0.63604 0.55488
 C139 C 0.66982 0.66892 0.66748
 C140 C 0.68893 0.68819 0.68630
 C141 C 0.58182 0.58088 0.58393
 C142 C 0.56256 0.56177 0.56506
 H143 H 0.64575 0.63534 0.90139
 H144 H 0.60545 0.59503 0.86326
 H145 H 0.63845 0.57806 0.44999
 H146 H 0.67875 0.61837 0.48811
 H147 H 0.61350 0.68138 0.54474
 H148 H 0.57320 0.64107 0.50663
 C149 C -0.14672 0.35430 0.14490
 C150 C -0.11421 0.34281 0.17176
 C151 C -0.09252 0.36453 0.15131
 C152 C -0.10545 0.39562 0.10601
 C153 C -0.12856 0.40353 0.22927
 C154 C -0.15025 0.38180 0.24973
 C155 C -0.14633 0.36769 -0.01443
 C156 C -0.12463 0.38942 -0.03488
 C157 C -0.17004 0.33089 0.16709
 C158 C -0.18913 0.31161 0.18593
 C159 C -0.08207 0.41897 0.08386
 C160 C -0.06280 0.43809 0.06509
 H161 H -0.10872 0.31965 0.20402
 H162 H -0.06844 0.35998 0.16606
 H163 H -0.12793 0.42434 0.29477
 H164 H -0.16821 0.38400 0.33275
 H165 H -0.16172 0.36072 -0.10336
 H166 H -0.12145 0.40105 -0.14134
 C167 C 0.35318 0.85564 0.64480
 C168 C 0.35663 0.86574 0.48052
 C169 C 0.37835 0.88744 0.45990
 C170 C 0.39449 0.89691 0.60558
 C171 C 0.40684 0.86720 0.67240
 C172 C 0.38512 0.84551 0.69302
 C173 C 0.34717 0.88504 0.73298
 C174 C 0.36890 0.90673 0.71235
 C175 C 0.32984 0.83226 0.66716
 C176 C 0.31075 0.81298 0.68611
 C177 C 0.41790 0.92023 0.58322
 C178 C 0.43718 0.93931 0.56427
 H179 H 0.34320 0.85666 0.38851
 H180 H 0.38352 0.89694 0.35019
 H181 H 0.43055 0.86352 0.70104
 H182 H 0.39023 0.82325 0.73932
 H183 H 0.32760 0.88850 0.80529
 H184 H 0.36792 0.92878 0.76699
 C185 C -0.14626 0.64504 -0.14359
 C186 C -0.14062 0.63717 0.02219
 C187 C -0.11903 0.61534 0.04273
 C188 C -0.10520 0.60352 -0.10453
 C189 C -0.09334 0.63195 -0.18559
 C190 C -0.11493 0.65378 -0.20613
 C191 C -0.15402 0.61462 -0.21906
 C192 C -0.13243 0.59280 -0.19852
 C193 C -0.16947 0.66856 -0.16587
 C194 C -0.18847 0.68793 -0.18475
 C195 C -0.08192 0.58007 -0.08228
 C196 C -0.06272 0.56089 -0.06343
 H197 H -0.15254 0.64780 0.11524
 H198 H -0.11246 0.60728 0.15340
 H199 H -0.07005 0.63470 -0.22358
 H200 H -0.11012 0.67522 -0.26170
 H201 H -0.17465 0.61059 -0.28304
 H202 H -0.13456 0.57007 -0.24489
 C203 C 0.35313 1.14558 0.35430
 C204 C 0.35892 1.13788 0.52014
 C205 C 0.38065 1.11620 0.54075
 C206 C 0.39446 1.10434 0.39350
 C207 C 0.40610 1.13278 0.31170
 C208 C 0.38436 1.15446 0.29109
 C209 C 0.34550 1.11506 0.27954
 C210 C 0.36723 1.09338 0.30016
 C211 C 0.32977 1.16894 0.33197
 C212 C 0.31065 1.18820 0.31305
 C213 C 0.41788 1.08103 0.41584
 C214 C 0.43717 1.06195 0.43477
 H215 H 0.34700 1.14851 0.61318
 H216 H 0.38735 1.10826 0.65147
 H217 H 0.42935 1.13563 0.27328
 H218 H 0.38901 1.17588 0.23502
 H219 H 0.32485 1.11086 0.21599
 H220 H 0.36521 1.07060 0.25426
 C221 C 1.14670 -0.14586 -0.14501
 C222 C 1.14858 -0.11961 -0.25834
 C223 C 1.12683 -0.09794 -0.23785
 C224 C 1.10533 -0.10465 -0.10604
 C225 C 1.12623 -0.10895 0.03058
 C226 C 1.14798 -0.13062 0.01008
 C227 C 1.11412 -0.15804 -0.15905
 C228 C 1.09237 -0.13637 -0.13856
 C229 C 1.17008 -0.16921 -0.16723
 C230 C 1.18922 -0.18845 -0.18611
 C231 C 1.08190 -0.08135 -0.08384
 C232 C 1.06261 -0.06227 -0.06505
 H233 H 1.16550 -0.11817 -0.34693
 H234 H 1.12512 -0.07794 -0.30887
 H235 H 1.12411 -0.09612 0.13430
 H236 H 1.16449 -0.13635 0.09624
 H237 H 1.10861 -0.18161 -0.18300
 H238 H 1.06824 -0.14138 -0.14497
 C239 C 0.64690 0.35558 0.35510
 C240 C 0.64879 0.38188 0.24202
 C241 C 0.62705 0.40355 0.26270
 C242 C 0.60554 0.39679 0.39442
 C243 C 0.62642 0.39243 0.53102
 C244 C 0.64817 0.37076 0.51034
 C245 C 0.61432 0.34342 0.34089
 C246 C 0.59257 0.36508 0.36156
 C247 C 0.67027 0.33223 0.33269
 C248 C 0.68937 0.31297 0.31371
 C249 C 0.58210 0.42007 0.41682
 C250 C 0.56279 0.43913 0.43579
 H251 H 0.66572 0.38335 0.15347
 H252 H 0.62534 0.42358 0.19188
 H253 H 0.62431 0.40522 0.63486
 H254 H 0.66468 0.36499 0.59646
 H255 H 0.60880 0.31986 0.31669
 H256 H 0.56844 0.36008 0.35507
 C257 C 0.85319 -0.14556 -0.14527
 C258 C 0.84344 -0.11374 -0.19736
 C259 C 0.86521 -0.09209 -0.17688
 C260 C 0.89459 -0.10438 -0.10631
 C261 C 0.90462 -0.13044 -0.20978
 C262 C 0.88285 -0.15209 -0.23027
 C263 C 0.86272 -0.14154 0.01951
 C264 C 0.88449 -0.11989 0.04000
 C265 C 0.82979 -0.16889 -0.16749
 C266 C 0.81064 -0.18812 -0.18636
 C267 C 0.91806 -0.08111 -0.08411
 C268 C 0.93739 -0.06206 -0.06529
 H269 H 0.82138 -0.10867 -0.24606
 H270 H 0.86181 -0.06847 -0.20803
 H271 H 0.92685 -0.13177 -0.26241
 H272 H 0.88644 -0.17196 -0.30044
 H273 H 0.85321 -0.15455 0.11196
 H274 H 0.89363 -0.11435 0.15002
 C275 C 0.35392 0.35490 0.35581
 C276 C 0.34436 0.38647 0.29945
 C277 C 0.36601 0.40825 0.32001
 C278 C 0.39510 0.39631 0.39490
 C279 C 0.40560 0.36984 0.29521
 C280 C 0.38396 0.34807 0.27465
 C281 C 0.36274 0.35962 0.52111
 C282 C 0.38439 0.38139 0.54167
 C283 C 0.33066 0.33144 0.33352
 C284 C 0.31161 0.31212 0.31462
 C285 C 0.41842 0.41971 0.41718
 C286 C 0.43765 0.43885 0.43605
 H287 H 0.32251 0.39130 0.24791
 H288 H 0.36271 0.43172 0.28608
 H289 H 0.42806 0.36833 0.24510
 H290 H 0.38787 0.32791 0.20694
 H291 H 0.35285 0.34699 0.61385
 H292 H 0.39304 0.38741 0.65204
 C293 C 0.14600 0.64482 -0.14341
 C294 C 0.12434 0.65153 -0.01226
 C295 C 0.10270 0.62975 0.00826
 C296 C 0.10484 0.60340 -0.10440
 C297 C 0.13749 0.59142 -0.08932
 C298 C 0.15913 0.61321 -0.10983
 C299 C 0.12526 0.64026 -0.28038
 C300 C 0.10363 0.61848 -0.25987
 C301 C 0.16926 0.66829 -0.16565
 C302 C 0.18829 0.68763 -0.18453
 C303 C 0.08152 0.57999 -0.08218
 C304 C 0.06229 0.56085 -0.06336
 H305 H 0.12587 0.67160 0.05836
 H306 H 0.08570 0.63116 0.09646
 H307 H 0.14311 0.56791 -0.06469
 H308 H 0.18329 0.60836 -0.10276
 H309 H 0.12740 0.65300 -0.38438
 H310 H 0.08723 0.61257 -0.34629
 C311 C 0.64659 1.14538 0.35436
 C312 C 0.62493 1.15227 0.48525
 C313 C 0.60315 1.13064 0.50582
 C314 C 0.60517 1.10422 0.39348
 C315 C 0.63773 1.09206 0.40898
 C316 C 0.65951 1.11370 0.38841
 C317 C 0.62588 1.14088 0.21726
 C318 C 0.60410 1.11924 0.23782
 C319 C 0.67000 1.16869 0.33209
 C320 C 0.68916 1.18791 0.31324
 C321 C 0.58170 1.08097 0.41578
 C322 C 0.56238 1.06192 0.43470
 H323 H 0.62656 1.17237 0.55565
 H324 H 0.58612 1.13220 0.59385
 H325 H 0.64320 1.06852 0.43392
 H326 H 0.68364 1.10870 0.39574
 H327 H 0.62813 1.15356 0.11314
 H328 H 0.58770 1.11339 0.15133
 C329 C 0.14643 0.35450 0.14480
 C330 C 0.14226 0.37553 0.28098
 C331 C 0.12052 0.39721 0.26058
 C332 C 0.10508 0.39574 0.10601
 C333 C 0.09295 0.36312 0.09322
 C334 C 0.11469 0.34144 0.11361
 C335 C 0.15293 0.37586 0.01221
 C336 C 0.13119 0.39755 -0.00819
 C337 C 0.16980 0.33114 0.16692
 C338 C 0.18893 0.31189 0.18569
 C339 C 0.08165 0.41904 0.08389
 C340 C 0.06235 0.43812 0.06513
 H341 H 0.15523 0.37356 0.38436
 H342 H 0.11486 0.41381 0.34646
 H343 H 0.06936 0.35753 0.07015
 H344 H 0.10973 0.31729 0.10801
 H345 H 0.17284 0.37411 -0.05939
 H346 H 0.13247 0.41437 -0.09728
 C347 C 0.64657 0.85586 0.64461
 C348 C 0.62750 0.86220 0.78574
 C349 C 0.60574 0.88384 0.76515
 C350 C 0.60517 0.89704 0.60544
 C351 C 0.60160 0.86941 0.50152
 C352 C 0.62336 0.84776 0.52212
 C353 C 0.65939 0.88693 0.59811
 C354 C 0.63762 0.90858 0.57750
 C355 C 0.66995 0.83253 0.66694
 C356 C 0.68908 0.81328 0.68588
 C357 C 0.58171 0.92031 0.58311
 C358 C 0.56239 0.93936 0.56419
 H359 H 0.63082 0.85070 0.89250
 H360 H 0.59041 0.89089 0.85424
 H361 H 0.58358 0.86706 0.41893
 H362 H 0.62398 0.82687 0.45719
 H363 H 0.68344 0.89152 0.58269
 H364 H 0.64302 0.93172 0.54444
 C365 C 0.85408 0.14476 0.14325
 C366 C 0.86614 0.14308 -0.01844
 C367 C 0.88775 0.12127 -0.03890
 C368 C 0.89518 0.10328 0.10434
 C369 C 0.86453 0.09068 0.15848
 C370 C 0.84292 0.11249 0.17894
 C371 C 0.88241 0.14920 0.24160
 C372 C 0.90402 0.12739 0.22114
 C373 C 0.83085 0.16826 0.16545
 C374 C 0.81183 0.18762 0.18430
 C375 C 0.91847 0.07984 0.08218
 C376 C 0.93768 0.06067 0.06339
 H377 H 0.85838 0.15772 -0.10892
 H378 H 0.89850 0.11723 -0.14693
 H379 H 0.86019 0.06674 0.17896
 H380 H 0.82006 0.10724 0.21694
 H381 H 0.88525 0.16783 0.32045
 H382 H 0.92536 0.12734 0.28246
 C383 C 0.35340 0.64522 0.64549
 C384 C 0.35758 0.62417 0.78159
 C385 C 0.37930 0.60247 0.76106
 C386 C 0.39472 0.60396 0.60644
 C387 C 0.40687 0.63657 0.59373
 C388 C 0.38515 0.65826 0.61425
 C389 C 0.34687 0.62388 0.51284
 C390 C 0.36860 0.60218 0.49231
 C391 C 0.33005 0.66860 0.66772
 C392 C 0.31093 0.68786 0.68654
 C393 C 0.41813 0.58065 0.58417
 C394 C 0.43743 0.56157 0.56527
 H395 H 0.34462 0.62614 0.88501
 H396 H 0.38495 0.58586 0.84687
 H397 H 0.43046 0.64214 0.57061
 H398 H 0.39013 0.68241 0.60871
 H399 H 0.32696 0.62566 0.44130
 H400 H 0.36729 0.58538 0.40318
   
