data_POSCAR
  _audit_creation_date              2014-09-24
  _audit_creation_method            'ToBaCCo'
  _symmetry_space_group_name_H-M    'P1'
  _symmetry_Int_Tables_number       1
  _symmetry_cell_setting            triclinic
  loop_
  _symmetry_equiv_pos_as_xyz
 x,y,z
_cell_length_a 18.7122
_cell_length_b 20.9296
_cell_length_c 20.8318
_cell_angle_alpha 87.102700
_cell_angle_beta 88.947500
_cell_angle_gamma 88.239700
loop_
  _atom_site_label
  _atom_site_type_symbol
  _atom_site_fract_x
  _atom_site_fract_y
  _atom_site_fract_z
C1 C 0.20257 0.15958 0.25668
 N2 N 0.16992 0.21841 0.24843
 C3 C 0.19438 0.26166 0.20281
 N4 N 0.24989 0.24450 0.16314
 C5 C 0.28360 0.18626 0.17187
 N6 N 0.25979 0.14467 0.21915
 C7 C -0.20822 0.83018 0.26753
 N8 N -0.15450 0.79201 0.24343
 C9 C -0.16223 0.76527 0.18546
 N10 N -0.22117 0.78074 0.14991
 C11 C -0.27434 0.81866 0.17390
 N12 N -0.26823 0.84133 0.23311
 C13 C -0.15980 0.19117 -0.25676
 N14 N -0.11862 0.23858 -0.23601
 C15 C -0.14146 0.27435 -0.18607
 N16 N -0.20388 0.26023 -0.15510
 C17 C -0.24535 0.21359 -0.17528
 N18 N -0.22335 0.17963 -0.22658
 C19 C 0.20138 0.84053 -0.24806
 N20 N 0.16128 0.78833 -0.23415
 C21 C 0.17746 0.74815 -0.18279
 N22 N 0.23182 0.76139 -0.14369
 C23 C 0.27276 0.81233 -0.15803
 N24 N 0.25706 0.85159 -0.21024
 C25 C 0.13443 1.19113 0.71845
 N26 N 0.11304 1.24149 0.75262
 C27 C 0.15211 1.25902 0.80231
 N28 N 0.21136 1.22404 0.82016
 C29 C 0.23336 1.17282 0.78702
 N30 N 0.19544 1.15698 0.73526
 C31 C 0.84056 0.79357 0.75502
 N32 N 0.85721 0.73735 0.78774
 C33 C 0.81994 0.71999 0.84249
 N34 N 0.76971 0.76072 0.86645
 C35 C 0.75298 0.81687 0.83453
 N36 N 0.78777 0.83267 0.77863
 C37 C 0.13861 0.80849 1.27251
 N38 N 0.12854 0.75019 1.25053
 C39 C 0.16320 0.73090 1.19705
 N40 N 0.20752 0.77187 1.16335
 C41 C 0.21795 0.83137 1.18511
 N42 N 0.18338 0.84908 1.23965
 C43 C 0.81922 1.18669 1.25407
 N44 N 0.76375 1.15557 1.22823
 C45 C 0.73638 1.17759 1.17041
 N46 N 0.76461 1.23013 1.13958
 C47 C 0.81850 1.26132 1.16567
 N48 N 0.84567 1.23878 1.22234
 O49 O 0.55870 0.96084 0.84992
 O50 O 0.42920 0.91048 1.07006
 O51 O 0.64828 0.95562 1.02720
 O52 O 0.40229 0.92026 0.95877
 O53 O 0.55809 0.89657 1.05375
 O54 O 0.42502 0.96664 0.86678
 O55 O 0.33033 0.96575 1.04849
 O56 O 0.64808 0.98598 0.91192
 C57 C 0.62359 0.95603 0.86566
 C58 C 0.36237 0.91853 1.08189
 C59 C 0.62367 0.90209 1.04547
 C60 C 0.40397 0.91932 0.89901
 O61 O 0.43078 1.09034 0.88347
 O62 O 0.58261 1.00148 1.11570
 O63 O 0.61078 1.10825 0.94050
 O64 O 0.39482 1.07300 1.03842
 O65 O 0.45232 1.02708 1.11631
 O66 O 0.56111 1.08027 0.85556
 O67 O 0.34980 1.03715 0.93631
 O68 O 0.59989 1.07935 1.05067
 Co69 Co 0.49405 1.02298 0.87522
 Co70 Co 0.50529 0.96432 1.07853
 Co71 Co 0.61722 1.03008 0.98314
 Co72 Co 0.40402 0.99710 0.99954
 O73 O 0.50868 1.00751 0.97929
 C74 C 0.36657 1.08332 0.89890
 C75 C 0.60712 1.05579 1.10535
 C76 C 0.60246 1.11503 0.88183
 C77 C 0.41196 1.07182 1.09574
 O78 O 0.07692 0.44498 0.14066
 O79 O 0.11810 0.54532 -0.08180
 O80 O 0.06899 0.33601 -0.02532
 O81 O 0.09331 0.61321 0.03275
 O82 O 0.11907 0.42471 -0.06841
 O83 O 0.07526 0.56774 0.12635
 O84 O 0.04686 0.62709 -0.07249
 O85 O 0.12015 0.40039 0.05426
 C86 C 0.12349 0.40898 0.11321
 C87 C 0.10393 0.60348 -0.09460
 C88 C 0.11292 0.36365 -0.06709
 C89 C 0.10782 0.60784 0.09055
 O90 O -0.06589 0.57203 0.10388
 O91 O -0.01650 0.42732 -0.10782
 O92 O -0.00577 0.36671 0.08788
 O93 O -0.07764 0.58461 -0.03729
 O94 O -0.02090 0.54438 -0.11874
 O95 O -0.06509 0.44970 0.12206
 O96 O -0.03163 0.65777 0.04276
 O97 O -0.05451 0.39045 -0.01749
 Co98 Co 0.00703 0.50760 0.11373
 Co99 Co 0.04819 0.48688 -0.08600
 Co100 Co 0.03340 0.40254 0.01485
 Co101 Co 0.00745 0.59241 0.00134
 O102 O 0.02269 0.49775 0.01217
 C103 C -0.06779 0.63320 0.09160
 C104 C -0.06023 0.39399 -0.07636
 C105 C -0.05602 0.39023 0.12049
 C106 C -0.07418 0.57526 -0.09618
 O107 O 1.08789 0.06277 0.43227
 O108 O 0.84176 0.05912 0.55955
 O109 O 0.93890 0.08422 0.39931
 O110 O 1.00918 0.07719 0.60287
 O111 O 0.83823 0.04797 0.43845
 O112 O 1.10269 0.06220 0.54873
 O113 O 0.90695 0.02222 0.64034
 O114 O 1.03793 0.03041 0.34208
 C115 C 1.08346 0.06581 0.37049
 C116 C 0.86041 0.06161 0.61749
 C117 C 0.87134 0.08646 0.40126
 C118 C 1.07066 0.09257 0.58899
 O119 O 1.09697 -0.06452 0.56583
 O120 O 0.85435 -0.07816 0.45371
 O121 O 1.01466 -0.07821 0.39879
 O122 O 0.95701 -0.09073 0.61176
 O123 O 0.85093 -0.06632 0.57472
 O124 O 1.10880 -0.06379 0.44747
 O125 O 1.05014 -0.02919 0.65862
 O126 O 0.90525 -0.03041 0.37019
 Co127 Co 1.08557 -0.00118 0.49904
 Co128 Co 0.85635 -0.00893 0.50624
 Co129 Co 0.98197 0.00381 0.40727
 Co130 Co 0.98709 -0.00725 0.59822
 O131 O 0.96977 -0.00369 0.50297
 C132 C 1.09617 -0.06562 0.62786
 C133 C 0.87135 -0.07684 0.39471
 C134 C 1.07802 -0.09192 0.40691
 C135 C 0.89086 -0.10036 0.61124
 C136 C 1.17484 0.11161 0.29835
 C137 C 1.11532 0.11960 0.33363
 H138 H 1.20142 0.06474 0.29970
 H139 H 1.08738 0.16568 0.33415
 C140 C 0.79886 -0.13472 0.32254
 C141 C 0.85957 -0.13122 0.35440
 H142 H 0.75453 -0.10292 0.33540
 H143 H 0.90623 -0.15956 0.34052
 C144 C 0.86924 0.14622 0.69547
 C145 C 0.82833 0.11095 0.65907
 H146 H 0.92671 0.14032 0.69179
 H147 H 0.77094 0.11934 0.65862
 C148 C 1.18157 -0.11276 0.70484
 C149 C 1.12893 -0.12028 0.66402
 H150 H 1.20798 -0.06727 0.70370
 H151 H 1.10357 -0.16595 0.66169
 C152 C 0.33595 1.16532 1.12800
 C153 C 0.37705 1.11318 1.14262
 H154 H 0.33997 1.18921 1.08075
 H155 H 0.37832 1.09408 1.19201
 C156 C 0.32484 0.82958 0.88415
 C157 C 0.37424 0.86975 0.86222
 H158 H 0.32077 0.81527 0.93479
 H159 H 0.38194 0.87704 0.81054
 C160 C 0.66871 0.84218 1.13710
 C161 C 0.67230 0.85225 1.07314
 H162 H 0.62528 0.86537 1.16312
 H163 H 0.71971 0.83806 1.04613
 C164 C 0.69504 1.19536 0.86170
 C165 C 0.64845 1.15502 0.84004
 H166 H 0.68937 1.21125 0.91033
 H167 H 0.65032 1.14377 0.78974
 C168 C 0.15376 0.32284 0.19105
 C169 C 0.17622 0.36874 0.14905
 H170 H 0.09971 0.32607 0.21057
 H171 H 0.22895 0.36372 0.12719
 C172 C -0.09656 0.32528 -0.16261
 C173 C -0.11171 0.35375 -0.10720
 H174 H -0.04784 0.33637 -0.18907
 H175 H -0.15834 0.33992 -0.07884
 C176 C 0.13048 0.69592 -0.16411
 C177 C 0.15437 0.64478 -0.12910
 H178 H 0.07411 0.70197 -0.17488
 H179 H 0.21109 0.63601 -0.12178
 C180 C -0.10583 0.72220 0.15930
 C181 C -0.12242 0.67358 0.12317
 H182 H -0.05048 0.72992 0.17031
 H183 H -0.17795 0.66277 0.11642
 C184 C 1.08979 0.17166 0.67077
 C185 C 1.11437 0.13274 0.62686
 H186 H 1.03444 0.18817 0.67010
 H187 H 1.17162 0.12309 0.62313
 C188 C 0.88049 -0.18590 0.70041
 C189 C 0.85321 -0.13963 0.66068
 H190 H 0.93302 -0.20692 0.69094
 H191 H 0.79740 -0.12515 0.66703
 C192 C 1.09887 -0.17229 0.32566
 C193 C 1.12195 -0.12654 0.36099
 H194 H 1.04960 -0.19586 0.33904
 H195 H 1.17554 -0.10906 0.35265
 C196 C 0.85474 0.16424 0.30962
 C197 C 0.82834 0.12073 0.35122
 H198 H 0.90657 0.18339 0.31892
 H199 H 0.77428 0.10491 0.34534
 C200 C 0.12707 0.30946 -0.16286
 C201 C 0.15630 0.32464 -0.10831
 H202 H 0.07800 0.33405 -0.17838
 H203 H 0.20362 0.30001 -0.08911
 C204 C -0.15036 0.31297 0.13225
 C205 C -0.10104 0.34754 0.15923
 H206 H -0.16471 0.32374 0.08257
 H207 H -0.08791 0.34010 0.20955
 C208 C -0.16033 0.66222 -0.11837
 C209 C -0.11904 0.61482 -0.14059
 H210 H -0.17378 0.66265 -0.06753
 H211 H -0.10664 0.61380 -0.19156
 C212 C 0.14476 0.67182 0.17573
 C213 C 0.15709 0.65304 0.11634
 H214 H 0.10835 0.64444 0.20672
 H215 H 0.18977 0.68126 0.08281
 C216 C 0.29432 1.13201 0.81053
 C217 C 0.31063 1.12777 0.87318
 H218 H 0.32285 1.10191 0.77719
 H219 H 0.27776 1.15302 0.90759
 C220 C 0.25909 0.88026 1.14722
 C221 C 0.32133 0.86769 1.11702
 H222 H 0.23953 0.92950 1.14805
 H223 H 0.34466 0.81965 1.12078
 C224 C 0.68014 1.14477 1.13613
 C225 C 0.65242 1.08736 1.15213
 H226 H 0.66414 1.16877 1.09109
 H227 H 0.66717 1.06172 1.19659
 C228 C 0.70320 0.86255 0.86463
 C229 C 0.67134 0.91170 0.83196
 H230 H 0.69201 0.85520 0.91569
 H231 H 0.67703 0.91722 0.78015
   
