data_POSCAR
  _audit_creation_date              2014-09-24
  _audit_creation_method            'ToBaCCo'
  _symmetry_space_group_name_H-M    'P1'
  _symmetry_Int_Tables_number       1
  _symmetry_cell_setting            triclinic
  loop_
  _symmetry_equiv_pos_as_xyz
 x,y,z
_cell_length_a 20.9287
_cell_length_b 20.9287
_cell_length_c 20.9287
_cell_angle_alpha 90.000000
_cell_angle_beta 90.000000
_cell_angle_gamma 90.000000
loop_
  _atom_site_label
  _atom_site_type_symbol
  _atom_site_fract_x
  _atom_site_fract_y
  _atom_site_fract_z
O1 O 0.59259 0.50000 0.05298
 O2 O 0.40769 0.50010 0.05317
 O3 O 0.50001 0.40762 0.05253
 O4 O 0.50000 0.59181 0.05278
 O5 O 0.49988 0.59297 -0.05247
 O6 O 0.50017 0.40781 -0.05277
 O7 O 0.40770 0.49998 -0.05212
 O8 O 0.59206 0.50016 -0.05231
 Cu9 Cu 0.50008 0.49981 0.06251
 Cu10 Cu 0.49993 0.50024 -0.06241
 C11 C 0.62637 0.50002 -0.00019
 C12 C 0.37362 0.50031 -0.00015
 C13 C 0.50024 0.37365 0.00015
 C14 C 0.49982 0.62653 0.00151
 O15 O 0.05293 0.59260 0.50010
 O16 O 0.05224 0.40805 0.50021
 O17 O 0.05250 0.49979 0.40785
 O18 O 0.05296 0.49987 0.59244
 O19 O -0.05233 0.49996 0.59217
 O20 O -0.05279 0.50033 0.40751
 O21 O -0.05304 0.40729 0.49979
 O22 O -0.05235 0.59206 0.49993
 Cu23 Cu 0.06247 0.50008 0.50008
 Cu24 Cu -0.06246 0.49992 0.49989
 C25 C -0.00012 0.62644 0.50092
 C26 C -0.00038 0.37358 0.50006
 C27 C 0.00007 0.50032 0.37360
 C28 C -0.00025 0.49945 0.62640
 O29 O 0.49973 0.05272 0.59317
 O30 O 0.49990 0.05242 0.40800
 O31 O 0.40734 0.05295 0.49988
 O32 O 0.59178 0.05276 0.50004
 O33 O 0.59301 -0.05248 0.49990
 O34 O 0.40803 -0.05233 0.50011
 O35 O 0.50032 -0.05286 0.40735
 O36 O 0.50018 -0.05250 0.59163
 Cu37 Cu 0.49974 0.06248 0.50027
 Cu38 Cu 0.50030 -0.06243 0.49974
 C39 C 0.50012 -0.00177 0.62664
 C40 C 0.49995 0.00021 0.37360
 C41 C 0.37361 0.00016 0.49996
 C42 C 0.62655 0.00150 0.50019
 C43 C 0.49954 0.16558 -0.11893
 C44 C 0.50047 0.11896 -0.16540
 C45 C 0.50057 0.06104 -0.13493
 N46 N 0.49999 0.07064 -0.07052
 C47 C 0.49931 0.13521 -0.06078
 C48 C 0.50051 0.00121 -0.16991
 C49 C 0.50072 -0.05908 -0.13464
 C50 C 0.49184 -0.11742 -0.16417
 C51 C 0.49180 -0.16387 -0.11742
 C52 C 0.50041 -0.13403 -0.05954
 N53 N 0.50714 -0.06973 -0.06993
 C54 C 0.50081 -0.16983 0.00015
 C55 C 0.50086 -0.13557 0.06060
 C56 C 0.50050 -0.16577 0.11899
 C57 C 0.49951 -0.11909 0.16556
 C58 C 0.49930 -0.06129 0.13522
 N59 N 0.50005 -0.07095 0.07073
 C60 C 0.49947 -0.00041 0.16962
 C61 C 0.49945 0.05890 0.13424
 C62 C 0.50817 0.11732 0.16405
 C63 C 0.50816 0.16397 0.11744
 C64 C 0.49943 0.13424 0.05935
 N65 N 0.49285 0.06978 0.06984
 C66 C 0.49907 0.16969 -0.00047
 H67 H 0.49929 0.21646 -0.12658
 H68 H 0.50071 0.12663 -0.21639
 H69 H 0.48021 0.03607 0.03609
 H70 H 0.48475 -0.12471 -0.21454
 H71 H 0.48476 -0.21440 -0.12477
 H72 H 0.50071 -0.21654 0.12656
 H73 H 0.49929 -0.12659 0.21646
 H74 H 0.51524 0.21446 0.12474
 H75 H 0.51980 -0.03604 -0.03612
 H76 H 0.51525 0.12471 0.21448
 C77 C -0.11883 0.50049 0.83445
 C78 C -0.16558 0.49951 0.88113
 C79 C -0.13518 0.49935 0.93954
 N80 N -0.07065 0.50002 0.92931
 C81 C -0.06047 0.50089 0.86484
 C82 C -0.16961 0.49932 0.99981
 C83 C -0.13425 0.49946 1.05968
 C84 C -0.16401 0.50818 1.11750
 C85 C -0.11751 0.50823 1.16400
 C86 C -0.05971 0.49972 1.13422
 N87 N -0.06982 0.49290 1.06981
 C88 C 0.00044 0.49915 1.16965
 C89 C 0.06041 0.49903 1.13527
 C90 C 0.11887 0.49948 1.16566
 C91 C 0.16562 0.50049 1.11905
 C92 C 0.13534 0.50089 1.06116
 N93 N 0.07076 0.49998 1.07081
 C94 C 0.16967 0.50034 0.99998
 C95 C 0.13412 0.50033 0.94102
 C96 C 0.16398 0.49180 0.88264
 C97 C 0.11757 0.49180 0.83602
 C98 C 0.05967 0.50042 0.86575
 N99 N 0.06985 0.50710 0.93022
 C100 C -0.00075 0.50121 0.83035
 H101 H -0.12660 0.50071 0.78352
 H102 H -0.21649 0.49929 0.87343
 H103 H 0.03601 0.51982 0.96397
 H104 H -0.21446 0.51524 1.12474
 H105 H -0.12473 0.51524 1.21444
 H106 H 0.12658 0.49929 1.21653
 H107 H 0.21652 0.50071 1.12659
 H108 H 0.12472 0.48477 0.78557
 H109 H -0.03604 0.48019 1.03604
 H110 H 0.21442 0.48476 0.87528
 C111 C 0.16560 -0.11885 0.49954
 C112 C 0.11909 -0.16556 0.50050
 C113 C 0.06092 -0.13521 0.50090
 N114 N 0.07076 -0.07068 0.50002
 C115 C 0.13518 -0.06065 0.49931
 C116 C 0.00032 -0.16958 0.49963
 C117 C -0.05920 -0.13416 0.50020
 C118 C -0.11727 -0.16398 0.49183
 C119 C -0.16381 -0.11740 0.49181
 C120 C -0.13399 -0.05955 0.50043
 N121 N -0.06961 -0.06972 0.50713
 C122 C -0.16985 0.00003 0.50116
 C123 C -0.13560 0.06057 0.50087
 C124 C -0.16578 0.11901 0.50050
 C125 C -0.11911 0.16559 0.49949
 C126 C -0.06100 0.13520 0.49904
 N127 N -0.07100 0.07077 0.50001
 C128 C -0.00128 0.16967 0.49904
 C129 C 0.05917 0.13424 0.49968
 C130 C 0.11729 0.16405 0.50820
 C131 C 0.16399 0.11754 0.50815
 C132 C 0.13426 0.05951 0.49946
 N133 N 0.06975 0.06987 0.49286
 C134 C 0.16963 -0.00037 0.49929
 H135 H 0.21648 -0.12656 0.49929
 H136 H 0.12661 -0.21647 0.50070
 H137 H 0.03608 0.03607 0.48020
 H138 H -0.12471 -0.21445 0.48476
 H139 H -0.21437 -0.12478 0.48476
 H140 H -0.21655 0.12656 0.50071
 H141 H -0.12660 0.21648 0.49929
 H142 H 0.21446 0.12474 0.51524
 H143 H -0.03599 -0.03602 0.51982
 H144 H 0.12470 0.21448 0.51524
 N145 N -0.30085 0.49971 0.99863
 N146 N -0.24349 0.49953 0.99913
 N147 N 0.30078 0.50024 0.99957
 N148 N 0.24337 0.50023 0.99915
 N149 N -0.00086 -0.30092 0.50061
 N150 N -0.00020 -0.24352 0.50017
 N151 N 0.00237 0.30094 0.50012
 N152 N 0.00048 0.24338 0.49961
 N153 N 0.49993 -0.00451 -0.30039
 N154 N 0.50078 0.00519 -0.24387
 N155 N 0.49955 0.00121 0.30090
 N156 N 0.49956 0.00017 0.24336
 N157 N 0.50065 -0.30054 0.00298
 N158 N 0.49995 -0.24366 -0.00414
 N159 N 0.49982 0.30082 -0.00005
 N160 N 0.49949 0.24322 -0.00015
 N161 N -0.30052 0.00332 0.50014
 N162 N -0.24368 -0.00417 0.49974
 N163 N 0.30089 -0.00130 0.49987
 N164 N 0.24343 -0.00077 0.49961
 N165 N 0.00140 0.49965 1.30090
 N166 N 0.00003 0.49951 1.24334
 N167 N -0.00085 0.50009 0.69907
 N168 N -0.00056 0.50059 0.75672
   
