data_POSCAR
  _audit_creation_date              2014-09-24
  _audit_creation_method            'ToBaCCo'
  _symmetry_space_group_name_H-M    'P1'
  _symmetry_Int_Tables_number       1
  _symmetry_cell_setting            triclinic
  loop_
  _symmetry_equiv_pos_as_xyz
 x,y,z
_cell_length_a 20.2985
_cell_length_b 21.0121
_cell_length_c 25.6730
_cell_angle_alpha 90.897200
_cell_angle_beta 95.502000
_cell_angle_gamma 79.236600
loop_
  _atom_site_label
  _atom_site_type_symbol
  _atom_site_fract_x
  _atom_site_fract_y
  _atom_site_fract_z
C1 C 0.00544 0.55935 1.02862
 C2 C 0.00234 0.56308 0.97268
 C3 C 0.00570 0.50573 0.94357
 C4 C 0.01643 0.44501 0.96709
 C5 C 0.01858 0.43980 1.02216
 C6 C 0.01372 0.49735 1.05200
 H7 H 0.01753 0.49413 1.09429
 H8 H 0.00429 0.50765 0.90117
 C9 C 0.44152 -0.01412 0.51913
 C10 C 0.44134 -0.00203 0.46509
 C11 C 0.50244 -0.00467 0.44327
 C12 C 0.56517 -0.02093 0.47343
 C13 C 0.56508 -0.03505 0.52746
 C14 C 0.50373 -0.03168 0.54928
 H15 H 0.50501 -0.03935 0.59101
 H16 H 0.49990 0.00283 0.40150
 C17 C 0.08445 0.04162 0.28297
 H18 H 0.07262 0.08491 0.25923
 C19 C 0.14214 0.03221 0.31818
 H20 H 0.17216 0.06968 0.32111
 C21 C 0.05785 -0.05768 0.30838
 H22 H 0.02455 -0.09247 0.30450
 C23 C 0.11543 -0.06927 0.34395
 H24 H 0.12611 -0.11320 0.36721
 N25 N 0.04332 -0.00281 0.27872
 C26 C -0.08529 -0.04661 0.13953
 H27 H -0.12242 -0.00257 0.13512
 C28 C -0.09065 -0.09815 0.10519
 H29 H -0.13227 -0.09332 0.07490
 C30 C 0.01451 -0.10624 0.18327
 H31 H 0.05608 -0.10933 0.21318
 C32 C 0.01081 -0.15908 0.15007
 H33 H 0.05033 -0.20149 0.15479
 Zn34 Zn -0.03567 0.01469 0.23058
 N35 N -0.03438 -0.05206 0.17874
 C36 C -0.01819 0.10305 0.15173
 N37 N -0.03928 0.09691 0.19978
 C38 C -0.05867 0.14968 0.22986
 C39 C -0.05609 0.21165 0.21237
 C40 C -0.01468 0.16433 0.13269
 C41 C -0.17502 0.03877 0.23900
 C42 C -0.23450 0.04141 0.26271
 C43 C -0.16817 0.00608 0.34368
 C44 C -0.10987 0.00428 0.31840
 N45 N -0.11416 0.01914 0.26660
 H46 H -0.00264 0.06031 0.12867
 H47 H -0.07460 0.14338 0.26816
 H48 H -0.07100 0.25295 0.23723
 H49 H 0.00174 0.16773 0.09418
 H50 H -0.17757 0.05320 0.19860
 H51 H -0.28244 0.05681 0.23990
 H52 H -0.16302 -0.00525 0.38497
 H53 H -0.06141 -0.00863 0.34052
 C54 C -0.04354 -0.15612 0.11131
 C55 C 0.15874 -0.02424 0.34910
 C56 C -0.23169 0.02387 0.31542
 C57 C -0.03268 0.21969 0.16371
 C58 C 0.06516 0.10447 0.81064
 H59 H 0.11389 0.08906 0.79615
 C60 C 0.05247 0.16131 0.83982
 H61 H 0.09253 0.18851 0.84782
 C62 C -0.04427 0.08469 0.82039
 H63 H -0.08128 0.05386 0.81303
 C64 C -0.05912 0.14107 0.84965
 H65 H -0.10798 0.15377 0.86462
 N66 N 0.01705 0.06751 0.80182
 C67 C 0.16698 -0.06817 0.74745
 H68 H 0.16355 -0.10015 0.77913
 C69 C 0.22618 -0.07679 0.72256
 H70 H 0.26719 -0.11591 0.73510
 C71 C 0.11909 0.02221 0.69361
 H72 H 0.07781 0.06147 0.68295
 C73 C 0.17753 0.01548 0.66772
 H74 H 0.17955 0.05038 0.63776
 Zn75 Zn 0.03332 -0.01149 0.76584
 N76 N 0.11431 -0.01990 0.73218
 C77 C -0.06174 0.04262 0.68525
 N78 N -0.04221 -0.01119 0.71574
 C79 C -0.07858 -0.05960 0.71280
 C80 C -0.13624 -0.05539 0.67755
 C81 C -0.11893 0.04889 0.64964
 C82 C 0.04263 -0.06494 0.86731
 C83 C 0.05019 -0.11413 0.90454
 C84 C 0.05805 -0.19246 0.83445
 C85 C 0.05076 -0.14186 0.79862
 N86 N 0.04206 -0.07942 0.81537
 H87 H -0.03420 0.08194 0.68976
 H88 H -0.06386 -0.10123 0.73819
 H89 H -0.16328 -0.09513 0.67591
 H90 H -0.13371 0.09249 0.62612
 H91 H 0.03766 -0.01525 0.88016
 H92 H 0.04977 -0.10187 0.94566
 H93 H 0.06545 -0.24180 0.82022
 H94 H 0.05259 -0.15234 0.75733
 C95 C 0.23189 -0.03535 0.68165
 C96 C -0.01066 0.18032 0.85960
 C97 C 0.05659 -0.17861 0.88815
 C98 C -0.15745 -0.00011 0.64560
 C99 C 0.00020 -0.38721 0.06334
 C100 C -0.03300 -0.32681 0.05217
 C101 C -0.02688 -0.27343 0.08939
 C102 C -0.05163 -0.21153 0.07613
 H103 H -0.06342 -0.31587 0.01534
 H104 H -0.00013 -0.28513 0.12758
 H105 H 0.02217 -0.39652 0.10336
 H106 H -0.08037 -0.20102 0.03843
 C107 C 0.02702 0.37814 0.04599
 C108 C 0.00496 0.36691 0.09200
 C109 C 0.00702 0.29955 0.10890
 C110 C -0.02937 0.28635 0.14683
 H111 H -0.02073 0.40619 0.11459
 H112 H 0.03724 0.26068 0.08879
 H113 H 0.04729 0.33591 0.02392
 H114 H -0.05777 0.32651 0.16706
 C115 C 0.37757 -0.00205 0.54466
 C116 C 0.36832 -0.03303 0.58774
 C117 C 0.30363 -0.01821 0.61110
 C118 C 0.29545 -0.04664 0.65573
 H119 H 0.40799 -0.07010 0.60564
 H120 H 0.26286 0.01564 0.59095
 H121 H 0.33611 0.03347 0.52694
 H122 H 0.33739 -0.08139 0.67386
 C123 C -0.37279 -0.05040 0.56390
 C124 C -0.32654 -0.01244 0.56834
 C125 C -0.26644 -0.02725 0.60620
 C126 C -0.21890 0.00936 0.60805
 H127 H -0.33330 0.03026 0.54379
 H128 H -0.26225 -0.06762 0.63264
 H129 H -0.36803 -0.09082 0.59059
 H130 H -0.22625 0.05001 0.58122
 C131 C 0.00112 -0.38144 0.94231
 C132 C 0.03561 -0.33410 0.95481
 C133 C 0.03360 -0.28250 0.91630
 C134 C 0.06104 -0.23037 0.92738
 H135 H 0.06681 -0.33452 0.99151
 H136 H 0.00696 -0.28651 0.87808
 H137 H -0.02229 -0.38145 0.90241
 H138 H 0.08336 -0.22370 0.96670
 C139 C 0.02829 0.38883 0.93161
 C140 C -0.00945 0.34311 0.92841
 C141 C 0.00607 0.28801 0.89289
 C142 C -0.02677 0.23856 0.89254
 H143 H -0.05035 0.34558 0.95306
 H144 H 0.04536 0.28812 0.86726
 H145 H 0.06712 0.38751 0.90518
 H146 H -0.06774 0.24105 0.91714
 C147 C -0.37357 -0.02591 0.45007
 C148 C -0.36750 0.00194 0.40446
 C149 C -0.30150 -0.00384 0.38355
 C150 C -0.29581 0.02703 0.33942
 H151 H -0.41009 0.03233 0.38316
 H152 H -0.25809 -0.03401 0.40415
 H153 H -0.32775 -0.05189 0.47082
 H154 H -0.34098 0.05475 0.31883
 C155 C 0.37886 0.01378 0.42920
 C156 C 0.32920 -0.02022 0.42782
 C157 C 0.27029 -0.00480 0.38894
 C158 C 0.21938 -0.03740 0.38749
 H159 H 0.33263 -0.06015 0.45478
 H160 H 0.26992 0.03314 0.36094
 H161 H 0.37652 0.05108 0.39999
 H162 H 0.22279 -0.07652 0.41526
   
