data_POSCAR
  _audit_creation_date              2014-09-24
  _audit_creation_method            'ToBaCCo'
  _symmetry_space_group_name_H-M    'P1'
  _symmetry_Int_Tables_number       1
  _symmetry_cell_setting            triclinic
  loop_
  _symmetry_equiv_pos_as_xyz
 x,y,z
_cell_length_a 34.9053
_cell_length_b 41.5052
_cell_length_c 22.7046
_cell_angle_alpha 89.907000
_cell_angle_beta 90.031900
_cell_angle_gamma 89.701500
loop_
  _atom_site_label
  _atom_site_type_symbol
  _atom_site_fract_x
  _atom_site_fract_y
  _atom_site_fract_z
C1 C 0.70823 0.32574 0.50213
 C2 C 0.71799 0.31195 0.55680
 C3 C 0.73442 0.28085 0.55679
 C4 C 0.73794 0.26247 0.50457
 C5 C 0.72610 0.27684 0.45102
 C6 C 0.71265 0.30873 0.44937
 C7 C 0.75365 0.22854 0.50647
 C8 C 0.76864 0.21344 0.45541
 C9 C 0.78199 0.18123 0.45655
 C10 C 0.78304 0.16525 0.51128
 C11 C 0.76992 0.17996 0.56283
 C12 C 0.75393 0.21088 0.55976
 H13 H 0.69436 0.34909 0.50009
 H14 H 0.74568 0.27163 0.59773
 H15 H 0.72713 0.26369 0.41010
 H16 H 0.76896 0.22635 0.41428
 H17 H 0.79681 0.14190 0.51507
 H18 H 0.74180 0.22066 0.59967
 C19 C 0.21654 0.83482 0.50073
 C20 C 0.22586 0.82116 0.55569
 C21 C 0.24089 0.78953 0.55670
 C22 C 0.24452 0.77102 0.50458
 C23 C 0.23241 0.78520 0.45098
 C24 C 0.21983 0.81724 0.44852
 C25 C 0.26125 0.73740 0.50567
 C26 C 0.27551 0.72309 0.45358
 C27 C 0.29001 0.69157 0.45332
 C28 C 0.29258 0.67466 0.50650
 C29 C 0.28027 0.68829 0.56001
 C30 C 0.26365 0.71936 0.55857
 H31 H 0.20368 0.85857 0.49825
 H32 H 0.25119 0.78013 0.59813
 H33 H 0.23270 0.77177 0.41037
 H34 H 0.27574 0.73615 0.41253
 H35 H 0.30720 0.65161 0.50625
 H36 H 0.25141 0.72876 0.59866
 C37 C 0.28382 0.33280 -0.50133
 C38 C 0.27268 0.31990 -0.55551
 C39 C 0.25515 0.28960 -0.55675
 C40 C 0.25138 0.27072 -0.50508
 C41 C 0.26406 0.28416 -0.45119
 C42 C 0.27892 0.31552 -0.44890
 C43 C 0.23487 0.23723 -0.50795
 C44 C 0.22011 0.22174 -0.45717
 C45 C 0.20626 0.18983 -0.45937
 C46 C 0.20416 0.17472 -0.51473
 C47 C 0.21706 0.18984 -0.56600
 C48 C 0.23375 0.22032 -0.56194
 H49 H 0.29782 0.35603 -0.50003
 H50 H 0.24450 0.28128 -0.59864
 H51 H 0.26264 0.27069 -0.41058
 H52 H 0.22044 0.23401 -0.41544
 H53 H 0.18986 0.15175 -0.51894
 H54 H 0.24582 0.23034 -0.60165
 C55 C -0.20078 0.82246 -0.48649
 C56 C -0.20308 0.80708 -0.54161
 C57 C -0.21891 0.77581 -0.54337
 C58 C -0.23492 0.76128 -0.49260
 C59 C -0.23354 0.77846 -0.43900
 C60 C -0.21543 0.80836 -0.43533
 C61 C -0.25296 0.72841 -0.49518
 C62 C -0.25676 0.70952 -0.44359
 C63 C -0.27541 0.67971 -0.44470
 C64 C -0.28824 0.66751 -0.49854
 C65 C -0.28343 0.68481 -0.55099
 C66 C -0.26697 0.71562 -0.54877
 H67 H -0.18510 0.84475 -0.48206
 H68 H -0.21967 0.76316 -0.58468
 H69 H -0.24655 0.76905 -0.39945
 H70 H -0.24520 0.71751 -0.40200
 H71 H -0.30345 0.64483 -0.49934
 H72 H -0.26542 0.72930 -0.58914
 N73 N -0.04024 0.94126 -0.06021
 N74 N -0.06560 0.91833 -0.07008
 N75 N 0.03702 0.96661 -0.10876
 N76 N 0.06302 0.96275 -0.15022
 N77 N 0.04001 0.94380 -0.06889
 N78 N 0.06796 0.92353 -0.08260
 N79 N -0.04341 0.96415 -0.09988
 N80 N -0.07119 0.95767 -0.13725
 C81 C -0.08511 0.92922 -0.11789
 C82 C 0.08229 0.93592 -0.13329
 N83 N 0.03407 1.05894 -0.07065
 N84 N 0.05850 1.08159 -0.08679
 N85 N -0.04695 1.03313 -0.10053
 N86 N -0.07541 1.03750 -0.13784
 N87 N -0.04606 1.05644 -0.06152
 N88 N -0.07369 1.07763 -0.07201
 N89 N 0.03342 1.03564 -0.10967
 N90 N 0.05764 1.04149 -0.15276
 Mn91 Mn -0.00500 0.99988 -0.10517
 C92 C 0.07335 1.07003 -0.13783
 C93 C -0.09213 1.06512 -0.11931
 N94 N 0.04571 0.94401 0.05831
 N95 N 0.07149 0.92161 0.07111
 N96 N -0.03357 0.96476 0.10631
 N97 N -0.05663 0.95794 0.15049
 N98 N -0.03420 0.94168 0.06684
 N99 N -0.05743 0.91834 0.08357
 N100 N 0.04682 0.96738 0.09718
 N101 N 0.07378 0.96185 0.13660
 Mn102 Mn 0.00283 0.94232 -0.00105
 C103 C 0.08932 0.93350 0.11941
 C104 C -0.07168 0.92911 0.13550
 N105 N -0.03982 1.05702 0.06593
 N106 N -0.06586 1.07853 0.08211
 N107 N 0.04338 1.03643 0.09634
 N108 N 0.07113 1.04286 0.13377
 N109 N 0.04026 1.05937 0.05670
 N110 N 0.06559 1.08230 0.06678
 N111 N -0.03700 1.03397 0.10542
 N112 N -0.06132 1.03885 0.14885
 Mn113 Mn -0.00291 1.05836 -0.00239
 Mn114 Mn 0.00491 1.00066 0.10172
 Cl115 Cl -0.00005 1.00031 -0.00168
 C116 C -0.07941 1.06651 0.13360
 C117 C 0.08507 1.07134 0.11458
 N118 N 0.53672 0.46286 -0.10515
 N119 N 0.56298 0.45713 -0.14545
 N120 N 0.45659 0.44158 -0.06243
 N121 N 0.43102 0.41924 -0.07526
 N122 N 0.45610 0.46453 -0.10233
 N123 N 0.42983 0.45877 -0.14257
 N124 N 0.53696 0.44019 -0.06477
 N125 N 0.56326 0.41813 -0.07707
 C126 C 0.57958 0.42933 -0.12730
 C127 C 0.41408 0.43070 -0.12487
 N128 N 0.45936 0.46626 0.10416
 N129 N 0.43279 0.46226 0.14465
 N130 N 0.53855 0.44101 0.06290
 N131 N 0.56307 0.41785 0.07701
 N132 N 0.54005 0.46449 0.10151
 N133 N 0.56600 0.45824 0.14218
 N134 N 0.45825 0.44287 0.06531
 N135 N 0.43112 0.42202 0.07898
 Mn136 Mn 0.49758 0.44101 0.00027
 C137 C 0.41517 0.43475 0.12829
 C138 C 0.58046 0.42929 0.12606
 N139 N 0.45767 0.53363 -0.10446
 N140 N 0.43059 0.53929 -0.14363
 N141 N 0.53942 0.55516 -0.06838
 N142 N 0.56670 0.57592 -0.08169
 N143 N 0.53833 0.53184 -0.10731
 N144 N 0.56502 0.53582 -0.14763
 N145 N 0.45893 0.55688 -0.06540
 N146 N 0.43286 0.57917 -0.07737
 Mn147 Mn 0.49717 0.49822 -0.10527
 C148 C 0.41504 0.56760 -0.12598
 C149 C 0.58271 0.56325 -0.13097
 N150 N 0.54169 0.53372 0.09939
 N151 N 0.56713 0.54025 0.14053
 N152 N 0.46117 0.55807 0.06184
 N153 N 0.43719 0.58153 0.07613
 N154 N 0.46100 0.53538 0.10220
 N155 N 0.43651 0.54251 0.14443
 N156 N 0.54127 0.55644 0.05904
 N157 N 0.56604 0.57929 0.07234
 Mn158 Mn 0.50055 0.49994 0.10225
 Mn159 Mn 0.50021 0.55699 -0.00331
 Cl160 Cl 0.49888 0.49903 -0.00147
 C161 C 0.58250 0.56848 0.12275
 C162 C 0.42151 0.57114 0.12729
 C163 C 0.31429 0.37178 0.29368
 C164 C 0.31524 0.33769 0.29434
 C165 C 0.29913 0.32072 0.34180
 C166 C 0.28234 0.33728 0.38922
 C167 C 0.27891 0.37092 0.38615
 C168 C 0.29448 0.38799 0.33899
 C169 C 0.33631 0.38909 0.24667
 C170 C 0.34070 0.42282 0.24619
 C171 C 0.36515 0.43754 0.20591
 C172 C 0.38534 0.41921 0.16438
 C173 C 0.37950 0.38584 0.16195
 C174 C 0.35580 0.37060 0.20355
 C175 C 0.33373 0.32081 0.24904
 C176 C 0.35326 0.33692 0.20430
 H177 H 0.33396 0.29470 0.24899
 H178 H 0.36793 0.32273 0.17115
 H179 H 0.30191 0.29470 0.34362
 H180 H 0.26516 0.38419 0.42140
 H181 H 0.36905 0.46339 0.20829
 H182 H 0.39528 0.37150 0.13020
 H183 H 0.29159 0.41385 0.33983
 H184 H 0.32675 0.43820 0.27790
 C185 C -0.15641 0.85541 0.30843
 C186 C -0.17184 0.87297 0.35619
 C187 C -0.18833 0.85681 0.40397
 C188 C -0.18901 0.82284 0.40702
 C189 C -0.17469 0.80555 0.35822
 C190 C -0.15864 0.82153 0.30987
 C191 C -0.13722 0.87378 0.25968
 C192 C -0.12074 0.85882 0.20992
 C193 C -0.10075 0.87696 0.16809
 C194 C -0.09662 0.91031 0.17506
 C195 C -0.11441 0.92558 0.22279
 C196 C -0.13464 0.90771 0.26482
 C197 C -0.16996 0.90666 0.35701
 C198 C -0.15150 0.92364 0.31255
 H199 H -0.18205 0.92012 0.39347
 H200 H -0.14991 0.94964 0.31607
 H201 H -0.20118 0.87118 0.43858
 H202 H -0.17364 0.77952 0.35811
 H203 H -0.08740 0.86469 0.13131
 H204 H -0.11178 0.95145 0.22802
 H205 H -0.14721 0.80685 0.27482
 H206 H -0.12238 0.83317 0.20303
 C207 C 0.67092 0.64051 0.29223
 C208 C 0.69203 0.62222 0.33385
 C209 C 0.70870 0.63734 0.38257
 C210 C 0.70332 0.67042 0.39265
 C211 C 0.68315 0.68873 0.35077
 C212 C 0.66730 0.67404 0.30100
 C213 C 0.65141 0.62293 0.24294
 C214 C 0.63030 0.63869 0.19826
 C215 C 0.60953 0.62094 0.15688
 C216 C 0.60916 0.58721 0.15945
 C217 C 0.63192 0.57132 0.20129
 C218 C 0.65322 0.58883 0.24253
 C219 C 0.69490 0.58870 0.32837
 C220 C 0.67544 0.57232 0.28420
 H221 H 0.71121 0.57476 0.36016
 H222 H 0.67734 0.54625 0.28322
 H223 H 0.72483 0.62303 0.41408
 H224 H 0.67828 0.71423 0.35761
 H225 H 0.59233 0.63366 0.12455
 H226 H 0.63224 0.54520 0.20274
 H227 H 0.65117 0.68914 0.27115
 H228 H 0.62885 0.66460 0.19527
 C229 C 0.17994 1.14362 0.27476
 C230 C 0.19838 1.12556 0.31964
 C231 C 0.21365 1.14117 0.36905
 C232 C 0.20962 1.17460 0.37592
 C233 C 0.19349 1.19270 0.32983
 C234 C 0.17900 1.17748 0.27970
 C235 C 0.15966 1.12568 0.22663
 C236 C 0.13897 1.14116 0.18114
 C237 C 0.11638 1.12335 0.14216
 C238 C 0.11397 1.08980 0.14771
 C239 C 0.13668 1.07402 0.18984
 C240 C 0.15932 1.09160 0.22926
 C241 C 0.19940 1.09187 0.31694
 C242 C 0.18009 1.07525 0.27289
 H243 H 0.21392 1.07808 0.35093
 H244 H 0.18035 1.04914 0.27419
 H245 H 0.22670 1.12705 0.40401
 H246 H 0.18995 1.21853 0.33404
 H247 H 0.09933 1.13599 0.10955
 H248 H 0.13542 1.04800 0.19371
 H249 H 0.16561 1.19254 0.24678
 H250 H 0.13882 1.16700 0.17609
 C251 C 0.67731 0.36023 -0.29007
 C252 C 0.69011 0.37802 -0.33939
 C253 C 0.70614 0.36213 -0.38799
 C254 C 0.70894 0.32823 -0.38984
 C255 C 0.69913 0.31098 -0.33844
 C256 C 0.68350 0.32668 -0.28948
 C257 C 0.65593 0.37780 -0.24239
 C258 C 0.63945 0.36218 -0.19333
 C259 C 0.61609 0.37920 -0.15391
 C260 C 0.60872 0.41208 -0.16253
 C261 C 0.62691 0.42820 -0.20895
 C262 C 0.65007 0.41140 -0.24897
 C263 C 0.68539 0.41152 -0.34124
 C264 C 0.66581 0.42786 -0.29697
 H265 H 0.69578 0.42523 -0.37859
 H266 H 0.66175 0.45366 -0.30149
 H267 H 0.71595 0.37647 -0.42487
 H268 H 0.70052 0.28494 -0.33706
 H269 H 0.60248 0.36631 -0.11814
 H270 H 0.62174 0.45375 -0.21549
 H271 H 0.67508 0.31193 -0.25260
 H272 H 0.64317 0.33671 -0.18569
 C273 C 0.18596 0.87391 -0.29656
 C274 C 0.18881 0.83995 -0.29345
 C275 C 0.20531 0.82252 -0.34030
 C276 C 0.21769 0.83847 -0.39182
 C277 C 0.21795 0.87241 -0.39158
 C278 C 0.20264 0.88983 -0.34476
 C279 C 0.16327 0.89129 -0.25031
 C280 C 0.15548 0.92460 -0.25332
 C281 C 0.13034 0.93905 -0.21362
 C282 C 0.11270 0.92091 -0.16931
 C283 C 0.12197 0.88812 -0.16346
 C284 C 0.14655 0.87307 -0.20430
 C285 C 0.17325 0.82349 -0.24515
 C286 C 0.15279 0.83973 -0.20134
 H287 H 0.17586 0.79751 -0.24211
 H288 H 0.14034 0.82575 -0.16590
 H289 H 0.20479 0.79644 -0.33857
 H290 H 0.22980 0.88587 -0.42812
 H291 H 0.12390 0.96448 -0.21862
 H292 H 0.10829 0.87392 -0.12939
 H293 H 0.20319 0.91572 -0.34822
 H294 H 0.16727 0.93979 -0.28723
 C295 C 0.31719 0.63861 -0.28636
 C296 C 0.30440 0.62132 -0.33616
 C297 C 0.28920 0.63777 -0.38482
 C298 C 0.28728 0.67170 -0.38622
 C299 C 0.29637 0.68849 -0.33416
 C300 C 0.31128 0.67222 -0.28509
 C301 C 0.33843 0.62048 -0.23909
 C302 C 0.35548 0.63563 -0.19010
 C303 C 0.37893 0.61814 -0.15137
 C304 C 0.38581 0.58523 -0.16057
 C305 C 0.36701 0.56957 -0.20685
 C306 C 0.34382 0.58686 -0.24629
 C307 C 0.30853 0.58778 -0.33858
 C308 C 0.32773 0.57090 -0.29450
 H309 H 0.29804 0.57448 -0.37629
 H310 H 0.33141 0.54510 -0.29949
 H311 H 0.27969 0.62389 -0.42244
 H312 H 0.29522 0.71453 -0.33248
 H313 H 0.39297 0.63070 -0.11567
 H314 H 0.37184 0.54403 -0.21388
 H315 H 0.31946 0.68657 -0.24761
 H316 H 0.35222 0.66110 -0.18211
 C317 C -0.19408 1.12986 -0.28120
 C318 C -0.19075 1.16379 -0.28456
 C319 C -0.20568 1.18052 -0.33340
 C320 C -0.22331 1.16378 -0.37969
 C321 C -0.22937 1.13057 -0.37380
 C322 C -0.21521 1.11380 -0.32509
 C323 C -0.17258 1.11236 -0.23359
 C324 C -0.17036 1.07849 -0.23086
 C325 C -0.14558 1.06330 -0.19133
 C326 C -0.12297 1.08136 -0.15268
 C327 C -0.12701 1.11498 -0.15177
 C328 C -0.15097 1.13063 -0.19280
 C329 C -0.17068 1.18056 -0.24093
 C330 C -0.15147 1.16435 -0.19575
 H331 H -0.16867 1.20659 -0.24288
 H332 H -0.13528 1.17839 -0.16426
 H333 H -0.20093 1.20622 -0.33750
 H334 H -0.24372 1.11730 -0.40836
 H335 H -0.14314 1.03727 -0.19238
 H336 H -0.10938 1.12907 -0.12220
 H337 H -0.21991 1.08816 -0.32392
 H338 H -0.18613 1.06325 -0.26053
 C339 C 0.68409 0.62689 -0.29458
 C340 C 0.68355 0.66100 -0.29411
 C341 C 0.69950 0.67830 -0.34130
 C342 C 0.71561 0.66203 -0.38956
 C343 C 0.71876 0.62836 -0.38760
 C344 C 0.70343 0.61097 -0.34068
 C345 C 0.66204 0.60930 -0.24800
 C346 C 0.65719 0.57562 -0.24869
 C347 C 0.63258 0.56072 -0.20886
 C348 C 0.61270 0.57883 -0.16666
 C349 C 0.61906 0.61209 -0.16303
 C350 C 0.64292 0.62753 -0.20413
 C351 C 0.66552 0.67757 -0.24802
 C352 C 0.64594 0.66118 -0.20368
 H353 H 0.66562 0.70368 -0.24708
 H354 H 0.63157 0.67516 -0.16991
 H355 H 0.69701 0.70435 -0.34232
 H356 H 0.73199 0.61534 -0.42363
 H357 H 0.62831 0.53495 -0.21214
 H358 H 0.60355 0.62625 -0.13070
 H359 H 0.70603 0.58510 -0.34241
 H360 H 0.67087 0.56043 -0.28098
 C361 C 0.16366 1.13738 -0.31179
 C362 C 0.16200 1.17143 -0.31184
 C363 C 0.17751 1.18901 -0.35932
 C364 C 0.19388 1.17303 -0.40820
 C365 C 0.19695 1.13917 -0.40570
 C366 C 0.18234 1.12172 -0.35855
 C367 C 0.14406 1.11935 -0.26324
 C368 C 0.14230 1.08546 -0.26169
 C369 C 0.12052 1.06977 -0.21923
 C370 C 0.10033 1.08725 -0.17656
 C371 C 0.10355 1.12094 -0.17531
 C372 C 0.12482 1.13713 -0.21891
 C373 C 0.14372 1.18766 -0.26547
 C374 C 0.12563 1.17089 -0.21997
 H375 H 0.14266 1.21376 -0.26498
 H376 H 0.11116 1.18459 -0.18593
 H377 H 0.17415 1.21495 -0.35955
 H378 H 0.21146 1.12573 -0.43999
 H379 H 0.11875 1.04372 -0.22066
 H380 H 0.08785 1.13461 -0.14252
 H381 H 0.18569 1.09592 -0.36024
 H382 H 0.15649 1.07050 -0.29380
 C383 C 0.32016 0.36374 -0.29380
 C384 C 0.32775 0.33046 -0.30159
 C385 C 0.31273 0.31416 -0.35074
 C386 C 0.29030 0.33072 -0.39243
 C387 C 0.28068 0.36307 -0.38209
 C388 C 0.29521 0.37936 -0.33348
 C389 C 0.34042 0.38123 -0.24531
 C390 C 0.33840 0.41496 -0.23883
 C391 C 0.36118 0.43064 -0.19759
 C392 C 0.38590 0.41318 -0.16080
 C393 C 0.38663 0.37945 -0.16427
 C394 C 0.36481 0.36342 -0.20727
 C395 C 0.35125 0.31402 -0.26136
 C396 C 0.36899 0.33007 -0.21479
 H397 H 0.35663 0.28845 -0.26663
 H398 H 0.38753 0.31636 -0.18565
 H399 H 0.32009 0.28908 -0.35809
 H400 H 0.26244 0.37607 -0.41269
 H401 H 0.36026 0.45672 -0.19553
 H402 H 0.40621 0.36590 -0.13647
 H403 H 0.28709 0.40430 -0.32858
 H404 H 0.32072 0.42989 -0.26677
 C405 C -0.17964 0.85601 -0.27700
 C406 C -0.19725 0.87372 -0.32312
 C407 C -0.21210 0.85768 -0.37233
 C408 C -0.20856 0.82414 -0.37765
 C409 C -0.19341 0.80641 -0.33036
 C410 C -0.17928 0.82207 -0.28046
 C411 C -0.15956 0.87431 -0.22916
 C412 C -0.13941 0.85916 -0.18275
 C413 C -0.11687 0.87721 -0.14408
 C414 C -0.11399 0.91066 -0.15084
 C415 C -0.13621 0.92617 -0.19391
 C416 C -0.15873 0.90835 -0.23310
 C417 C -0.19782 0.90743 -0.32178
 C418 C -0.17882 0.92439 -0.27785
 H419 H -0.21174 0.92095 -0.35671
 H420 H -0.17870 0.95048 -0.28018
 H421 H -0.22438 0.87150 -0.40834
 H422 H -0.19034 0.78048 -0.33343
 H423 H -0.10021 0.86478 -0.11072
 H424 H -0.13459 0.95213 -0.19874
 H425 H -0.16661 0.80728 -0.24649
 H426 H -0.13961 0.83339 -0.17675
 C427 C 0.33623 0.64519 0.29844
 C428 C 0.31460 0.62755 0.34005
 C429 C 0.29799 0.64326 0.38835
 C430 C 0.30406 0.67625 0.39807
 C431 C 0.32530 0.69378 0.35658
 C432 C 0.34098 0.67856 0.30720
 C433 C 0.35507 0.62711 0.24905
 C434 C 0.37596 0.64236 0.20382
 C435 C 0.39596 0.62413 0.16207
 C436 C 0.39577 0.59041 0.16484
 C437 C 0.37321 0.57505 0.20732
 C438 C 0.35259 0.59307 0.24886
 C439 C 0.31107 0.59408 0.33485
 C440 C 0.33022 0.57714 0.29083
 H441 H 0.29444 0.58061 0.36669
 H442 H 0.32780 0.55112 0.29003
 H443 H 0.28118 0.62950 0.41958
 H444 H 0.33102 0.71913 0.36326
 H445 H 0.41297 0.63644 0.12920
 H446 H 0.37241 0.54894 0.20885
 H447 H 0.35781 0.69310 0.27763
 H448 H 0.37774 0.66823 0.20052
 C449 C -0.17291 1.13073 0.30820
 C450 C -0.17201 1.16478 0.30938
 C451 C -0.18818 1.18168 0.35718
 C452 C -0.20489 1.16507 0.40503
 C453 C -0.20754 1.13124 0.40103
 C454 C -0.19202 1.11443 0.35369
 C455 C -0.15232 1.11340 0.25964
 C456 C -0.14889 1.07958 0.25788
 C457 C -0.12639 1.06461 0.21525
 C458 C -0.10715 1.08278 0.17264
 C459 C -0.11183 1.11638 0.17186
 C460 C -0.13368 1.13185 0.21575
 C461 C -0.15399 1.18167 0.26368
 C462 C -0.13550 1.16558 0.21767
 H463 H -0.15358 1.20778 0.26400
 H464 H -0.12140 1.17978 0.18405
 H465 H -0.18514 1.20761 0.35837
 H466 H -0.22241 1.11733 0.43419
 H467 H -0.12329 1.03863 0.21649
 H468 H -0.09669 1.13058 0.13930
 H469 H -0.19516 1.08862 0.35406
 H470 H -0.16221 1.06418 0.29008
 C471 C 0.67226 0.35917 0.29539
 C472 C 0.66406 0.32601 0.30247
 C473 C 0.67878 0.30898 0.35123
 C474 C 0.70164 0.32466 0.39316
 C475 C 0.71194 0.35685 0.38342
 C476 C 0.69762 0.37389 0.33526
 C477 C 0.65230 0.37750 0.24731
 C478 C 0.65480 0.41124 0.24167
 C479 C 0.63249 0.42771 0.20043
 C480 C 0.60777 0.41101 0.16289
 C481 C 0.60644 0.37728 0.16579
 C482 C 0.62776 0.36049 0.20873
 C483 C 0.64030 0.31040 0.26187
 C484 C 0.62297 0.32718 0.21553
 H485 H 0.63446 0.28490 0.26659
 H486 H 0.60429 0.31409 0.18599
 H487 H 0.67086 0.28403 0.35807
 H488 H 0.73051 0.36917 0.41419
 H489 H 0.63389 0.45377 0.19885
 H490 H 0.58687 0.36431 0.13742
 H491 H 0.70623 0.39867 0.33080
 H492 H 0.67253 0.42559 0.27019
 C493 C 0.18064 0.86574 0.29162
 C494 C 0.17200 0.83279 0.30042
 C495 C 0.18608 0.81651 0.35039
 C496 C 0.20881 0.83267 0.39185
 C497 C 0.21943 0.86465 0.38067
 C498 C 0.20568 0.88098 0.33130
 C499 C 0.16133 0.88333 0.24205
 C500 C 0.16430 0.91693 0.23442
 C501 C 0.14217 0.93285 0.19227
 C502 C 0.11726 0.91571 0.15576
 C503 C 0.11574 0.88204 0.16025
 C504 C 0.13682 0.86584 0.20415
 C505 C 0.14845 0.81662 0.26027
 C506 C 0.13164 0.83270 0.21273
 H507 H 0.14232 0.79126 0.26634
 H508 H 0.11300 0.81925 0.18367
 H509 H 0.17784 0.79174 0.35835
 H510 H 0.23795 0.87733 0.41102
 H511 H 0.14366 0.95888 0.18941
 H512 H 0.09599 0.86876 0.13267
 H513 H 0.21454 0.90563 0.32570
 H514 H 0.18214 0.93162 0.26218
   
