data_POSCAR
  _audit_creation_date              2014-09-24
  _audit_creation_method            'ToBaCCo'
  _symmetry_space_group_name_H-M    'P1'
  _symmetry_Int_Tables_number       1
  _symmetry_cell_setting            triclinic
  loop_
  _symmetry_equiv_pos_as_xyz
 x,y,z
_cell_length_a 20.0100
_cell_length_b 20.3095
_cell_length_c 22.7485
_cell_angle_alpha 89.949100
_cell_angle_beta 89.990800
_cell_angle_gamma 89.966900
loop_
  _atom_site_label
  _atom_site_type_symbol
  _atom_site_fract_x
  _atom_site_fract_y
  _atom_site_fract_z
C1 C 0.41888 -0.00239 0.24900
 C2 C 0.08136 0.00144 0.74887
 C3 C 0.58440 0.49941 0.24883
 C4 C 0.91709 0.49925 0.74961
 C5 C 0.25122 0.33429 0.99942
 C6 C 0.75084 0.16585 1.00019
 C7 C 0.24969 0.66583 0.49986
 C8 C 0.74991 0.83365 0.49932
 C9 C 0.00289 0.24941 0.37394
 C10 C -0.00037 0.74930 0.12381
 C11 C 0.50174 0.24876 0.62567
 C12 C 0.50067 0.74997 0.87382
 C13 C -0.24909 0.66667 0.99966
 C14 C -0.25063 0.33218 0.49761
 C15 C 0.25049 -0.16543 -0.00016
 C16 C 0.25029 1.16600 0.50002
 C17 C 0.09019 0.49834 0.24945
 C18 C -0.08802 0.99930 0.25028
 C19 C 0.41331 0.50098 -0.25077
 C20 C 0.58909 -0.00017 -0.24956
 C21 C 0.00082 0.24945 0.88191
 C22 C 0.50251 0.24940 0.11814
 C23 C 0.00067 0.74970 0.61649
 C24 C 0.49986 0.74953 0.38131
 Zr25 Zr 0.05768 -0.04978 1.08337
 O26 O 0.13232 -0.02914 1.14540
 O27 O 0.04225 -0.14519 1.10759
 O28 O 0.00027 -0.03829 1.16930
 O29 O 0.17139 -0.08420 0.96226
 O30 O -0.07724 0.04084 1.15317
 O31 O 0.15117 -0.10700 1.05859
 O32 O -0.03728 -0.18325 1.04437
 O33 O -0.04572 -0.05996 1.06954
 O34 O 0.04399 -0.09564 1.00215
 O35 O 0.01870 0.04649 1.08236
 O36 O 0.10443 0.01100 1.02025
 Zr37 Zr -0.05860 0.04743 0.91924
 Zr38 Zr -0.08287 0.03621 1.06318
 Zr39 Zr 0.08499 -0.03355 0.94026
 Zr40 Zr -0.05700 -0.10432 0.98727
 O41 O 0.17819 0.01305 0.93088
 O42 O -0.15113 -0.13408 1.01857
 O43 O -0.01581 -0.04696 0.92019
 O44 O -0.10243 -0.01176 0.98453
 O45 O -0.04341 0.09544 0.99878
 O46 O 0.04505 0.05948 0.93366
 C47 C 0.00353 -0.18980 1.08772
 C48 C 0.18655 -0.11574 1.00891
 C49 C -0.04823 0.00178 1.18842
 O50 O -0.16399 -0.01280 1.10147
 O51 O -0.17171 0.08273 1.03774
 O52 O -0.14706 0.11077 0.94360
 C53 C -0.18454 0.11709 0.99208
 O54 O 0.13043 0.12196 1.07988
 Zr55 Zr 0.05824 0.10330 1.01502
 O56 O -0.03969 0.14262 0.89461
 O57 O -0.08012 0.13248 1.09481
 O58 O 0.03391 0.18703 1.06554
 O59 O 0.14841 0.13454 0.97757
 O60 O 0.03182 0.18399 0.96335
 C61 C -0.00500 0.18885 0.91750
 O62 O -0.14378 0.01122 0.87506
 O63 O 0.08748 -0.12120 0.89374
 O64 O -0.01374 0.02976 0.82891
 O65 O 0.08659 -0.01551 0.85111
 O66 O -0.02628 -0.18855 0.93968
 O67 O -0.11691 -0.11730 0.91198
 C68 C 0.04465 0.00355 0.81269
 H69 H 0.06403 -0.13998 0.99873
 H70 H -0.15105 -0.01674 0.97803
 H71 H 0.06822 0.08503 0.90273
 H72 H 0.02819 0.06954 1.11974
 H73 H -0.15600 -0.18050 1.00624
 H74 H -0.19597 -0.02137 1.06925
 H75 H -0.09007 0.16512 1.06368
 H76 H 0.06894 0.22059 1.05836
 H77 H -0.05792 -0.22462 0.94911
 H78 H 0.04605 -0.12386 0.87011
 H79 H 0.18891 0.01347 0.88863
 H80 H 0.15421 0.18075 0.99039
 H81 H -0.13560 -0.16226 0.91171
 H82 H -0.13109 0.00361 0.83400
 H83 H 0.11017 -0.00623 1.17826
 H84 H 0.14786 0.07892 1.09278
 Zr85 Zr 0.55816 0.45035 0.58204
 O86 O 0.63598 0.47563 0.63963
 O87 O 0.53992 0.35665 0.61139
 O88 O 0.50232 0.46311 0.66854
 O89 O 0.65789 0.39879 0.45644
 O90 O 0.42702 0.54406 0.65244
 O91 O 0.65263 0.39477 0.55655
 O92 O 0.47007 0.31277 0.54283
 O93 O 0.45347 0.44339 0.57384
 O94 O 0.54028 0.39884 0.50389
 O95 O 0.52027 0.54759 0.57979
 O96 O 0.60144 0.50530 0.51293
 Zr97 Zr 0.43927 0.54515 0.41705
 Zr98 Zr 0.41787 0.53970 0.56226
 Zr99 Zr 0.57417 0.45619 0.43625
 Zr100 Zr 0.43706 0.39514 0.49504
 O101 O 0.66131 0.48737 0.39340
 O102 O 0.37143 0.38942 0.56491
 O103 O 0.47319 0.44671 0.42066
 O104 O 0.39615 0.48935 0.48514
 O105 O 0.45768 0.59451 0.49518
 O106 O 0.54266 0.55238 0.43022
 C107 C 0.50595 0.30933 0.58952
 C108 C 0.68238 0.37878 0.50535
 C109 C 0.45437 0.50376 0.68763
 O110 O 0.32451 0.50224 0.58880
 O111 O 0.32822 0.58444 0.53852
 O112 O 0.35048 0.60835 0.44270
 C113 C 0.31424 0.61678 0.49190
 O114 O 0.64559 0.58996 0.56142
 Zr115 Zr 0.55972 0.59897 0.50936
 O116 O 0.45837 0.64174 0.39362
 O117 O 0.42530 0.63851 0.58805
 O118 O 0.54413 0.68140 0.56429
 O119 O 0.64411 0.63874 0.46831
 O120 O 0.53262 0.68182 0.46104
 C121 C 0.49428 0.68774 0.41622
 O122 O 0.35855 0.50917 0.36685
 O123 O 0.51319 0.38039 0.40109
 O124 O 0.49072 0.53168 0.32814
 O125 O 0.57542 0.46060 0.34641
 O126 O 0.42145 0.30399 0.45041
 O127 O 0.34940 0.37412 0.44756
 C128 C 0.54295 0.49553 0.31016
 H129 H 0.56146 0.35496 0.50156
 H130 H 0.34726 0.48674 0.47941
 H131 H 0.56660 0.57610 0.39863
 H132 H 0.53118 0.57160 0.61636
 H133 H 0.35122 0.34609 0.55829
 H134 H 0.32818 0.48872 0.63018
 H135 H 0.41076 0.66857 0.55639
 H136 H 0.58251 0.71149 0.55864
 H137 H 0.39459 0.27338 0.47519
 H138 H 0.52857 0.33667 0.41499
 H139 H 0.68696 0.51104 0.42399
 H140 H 0.65668 0.67820 0.49130
 H141 H 0.31160 0.38104 0.47479
 H142 H 0.37728 0.49509 0.32876
 H143 H 0.61424 0.49388 0.67493
 H144 H 0.63479 0.61017 0.59957
 Zr145 Zr 0.44245 1.04830 0.58394
 O146 O 0.36776 1.02706 0.64575
 O147 O 0.45844 1.14330 0.60924
 O148 O 0.50041 1.03764 0.66956
 O149 O 0.32915 1.08467 0.46313
 O150 O 0.57604 0.95710 0.65311
 O151 O 0.34918 1.10666 0.55951
 O152 O 0.53827 1.18137 0.54620
 O153 O 0.54575 1.05803 0.56932
 O154 O 0.45635 1.09476 0.50335
 O155 O 0.48118 0.95177 0.58263
 O156 O 0.39527 0.98835 0.52030
 Zr157 Zr 0.55762 0.95176 0.41933
 Zr158 Zr 0.58268 0.96183 0.56280
 Zr159 Zr 0.41503 1.03361 0.44058
 Zr160 Zr 0.55717 1.10364 0.48773
 O161 O 0.32022 0.99101 0.42819
 O162 O 0.65117 1.13120 0.52055
 O163 O 0.51556 1.04714 0.42026
 O164 O 0.60217 1.01077 0.48423
 O165 O 0.54276 0.90246 0.49901
 O166 O 0.45382 0.94001 0.43343
 C167 C 0.49761 1.18777 0.58970
 C168 C 0.31411 1.11614 0.50971
 C169 C 0.54852 0.99714 0.68856
 O170 O 0.66379 1.00925 0.60259
 O171 O 0.67203 0.91662 0.53715
 O172 O 0.64788 0.88984 0.44263
 C173 C 0.68519 0.88277 0.49123
 O174 O 0.37357 0.87873 0.58384
 Zr175 Zr 0.44066 0.89577 0.51467
 O176 O 0.53970 0.85712 0.39362
 O177 O 0.58420 0.86010 0.57829
 O178 O 0.45095 0.80379 0.55772
 O179 O 0.34858 0.87439 0.47573
 O180 O 0.46896 0.81521 0.46308
 C181 C 0.50548 0.81048 0.41692
 O182 O 0.63758 0.98716 0.36864
 O183 O 0.41808 1.11717 0.38859
 O184 O 0.51271 0.96692 0.32911
 O185 O 0.41577 1.01865 0.35103
 O186 O 0.52618 1.18986 0.44234
 O187 O 0.61836 1.11884 0.41329
 C188 C 0.45595 0.99609 0.31270
 H189 H 0.43689 1.13929 0.50246
 H190 H 0.65069 1.01540 0.47684
 H191 H 0.43077 0.91490 0.40219
 H192 H 0.47163 0.92934 0.62031
 H193 H 0.65661 1.17791 0.50936
 H194 H 0.69393 1.02168 0.56999
 H195 H 0.54356 0.84990 0.60073
 H196 H 0.41134 0.77664 0.54790
 H197 H 0.55758 1.22601 0.45210
 H198 H 0.41454 1.15448 0.41583
 H199 H 0.31515 0.98271 0.38581
 H200 H 0.33580 0.83038 0.49048
 H201 H 0.63756 1.16356 0.41514
 H202 H 0.61950 1.02236 0.34334
 H203 H 0.39035 1.00634 0.67953
 H204 H 0.35297 0.92147 0.59329
 Zr205 Zr -0.05739 0.54848 1.08345
 O206 O -0.13432 0.52871 1.14375
 O207 O -0.04148 0.64341 1.10818
 O208 O 0.00003 0.53632 1.16952
 O209 O -0.16993 0.58551 0.96219
 O210 O 0.07757 0.45744 1.15267
 O211 O -0.15014 0.60726 1.05871
 O212 O 0.03649 0.68245 1.04384
 O213 O 0.04613 0.55823 1.06959
 O214 O -0.04316 0.59465 1.00235
 O215 O -0.01838 0.45205 1.08217
 O216 O -0.10411 0.48795 1.02021
 Zr217 Zr 0.05885 0.45177 0.91897
 Zr218 Zr 0.08325 0.46199 1.06291
 Zr219 Zr -0.08449 0.53311 0.94047
 Zr220 Zr 0.05785 0.60309 0.98753
 O221 O -0.17797 0.48683 0.93180
 O222 O 0.15029 0.63343 1.02157
 O223 O 0.01637 0.54632 0.92028
 O224 O 0.10279 0.51035 0.98441
 O225 O 0.04372 0.40327 0.99836
 O226 O -0.04478 0.43987 0.93340
 C227 C -0.00385 0.68852 1.08766
 C228 C -0.18508 0.61691 1.00891
 C229 C 0.04901 0.49636 1.18815
 O230 O 0.16349 0.51302 1.10066
 O231 O 0.17241 0.41606 1.03743
 O232 O 0.14904 0.38990 0.94260
 C233 C 0.18607 0.38278 0.99137
 O234 O -0.12932 0.37634 1.07985
 Zr235 Zr -0.05784 0.39558 1.01466
 O236 O 0.04111 0.35626 0.89467
 O237 O 0.08226 0.36491 1.09438
 O238 O -0.03317 0.31152 1.06478
 O239 O -0.14818 0.36455 0.97751
 O240 O -0.03118 0.31504 0.96290
 C241 C 0.00633 0.31005 0.91746
 O242 O 0.14293 0.48845 0.87439
 O243 O -0.08685 0.62104 0.89421
 O244 O 0.01340 0.47051 0.82878
 O245 O -0.08671 0.51567 0.85147
 O246 O 0.02868 0.68635 0.93787
 O247 O 0.12208 0.61540 0.91463
 C248 C -0.04487 0.49723 0.81281
 H249 H -0.06287 0.63910 0.99871
 H250 H 0.15141 0.51527 0.97787
 H251 H -0.06784 0.41440 0.90241
 H252 H -0.02774 0.42886 1.11952
 H253 H 0.15561 0.67956 1.00851
 H254 H 0.19558 0.52156 1.06850
 H255 H 0.09083 0.33265 1.06268
 H256 H -0.06817 0.27792 1.05770
 H257 H 0.05976 0.72260 0.94800
 H258 H -0.04561 0.62346 0.87030
 H259 H -0.18949 0.48731 0.88971
 H260 H -0.15404 0.31841 0.99057
 H261 H 0.13998 0.66069 0.91395
 H262 H 0.13078 0.49105 0.83282
 H263 H -0.11257 0.51161 1.17950
 H264 H -0.14555 0.41940 1.09376
 Zr265 Zr -0.05628 0.44965 0.41572
 O266 O -0.12861 0.47462 0.35279
 O267 O -0.04085 0.35458 0.39058
 O268 O 0.00169 0.46005 0.33019
 O269 O -0.17306 0.41576 0.53522
 O270 O 0.07936 0.53822 0.34730
 O271 O -0.14942 0.39093 0.44003
 O272 O 0.03737 0.31611 0.45486
 O273 O 0.04719 0.43905 0.43060
 O274 O -0.04474 0.40350 0.49715
 O275 O -0.01676 0.54581 0.41744
 O276 O -0.10372 0.51120 0.47789
 Zr277 Zr 0.05791 0.54651 0.58090
 Zr278 Zr 0.08435 0.53525 0.43774
 Zr279 Zr -0.08638 0.46633 0.55824
 Zr280 Zr 0.05574 0.39415 0.51340
 O281 O -0.17971 0.51302 0.56631
 O282 O 0.14776 0.35363 0.48801
 O283 O 0.01416 0.45219 0.57976
 O284 O 0.10146 0.48670 0.51633
 O285 O 0.04440 0.59490 0.50141
 O286 O -0.04557 0.55925 0.56540
 C287 C -0.00215 0.30996 0.41056
 C288 C -0.18676 0.38298 0.48882
 C289 C 0.05036 0.49994 0.31153
 O290 O 0.17329 0.48624 0.41712
 O291 O 0.17290 0.58189 0.46253
 O292 O 0.14760 0.60935 0.55673
 C293 C 0.18522 0.61638 0.50819
 O294 O -0.12792 0.62370 0.41847
 Zr295 Zr -0.05693 0.60338 0.48389
 O296 O 0.03887 0.64175 0.60584
 O297 O 0.08547 0.63102 0.40343
 O298 O -0.03093 0.68668 0.43291
 O299 O -0.14726 0.63536 0.52065
 O300 O -0.02934 0.68412 0.53501
 C301 C 0.00632 0.68868 0.58157
 O302 O 0.14236 0.51132 0.62636
 O303 O -0.08971 0.37870 0.60471
 O304 O 0.01283 0.52669 0.67058
 O305 O -0.08873 0.48503 0.64734
 O306 O 0.02026 0.31313 0.56322
 O307 O 0.12072 0.38451 0.58582
 C308 C -0.04604 0.50154 0.68617
 H309 H -0.06463 0.35910 0.50024
 H310 H 0.15004 0.48146 0.52317
 H311 H -0.06884 0.58510 0.59605
 H312 H -0.02542 0.56906 0.37996
 H313 H 0.14725 0.30665 0.49978
 H314 H 0.17152 0.47711 0.37480
 H315 H 0.08959 0.66451 0.43482
 H316 H -0.06445 0.72173 0.44044
 H317 H 0.04947 0.27503 0.55427
 H318 H -0.04984 0.37723 0.63042
 H319 H -0.19166 0.51223 0.60830
 H320 H -0.15214 0.68186 0.50828
 H321 H 0.12993 0.33754 0.59351
 H322 H 0.13071 0.50814 0.66815
 H323 H -0.10530 0.49949 0.32170
 H324 H -0.14590 0.58099 0.40545
 Zr325 Zr 0.44385 -0.05004 -0.08247
 O326 O 0.36585 -0.02458 -0.13991
 O327 O 0.46038 -0.14344 -0.11125
 O328 O 0.49933 -0.03690 -0.16913
 O329 O 0.33126 -0.08427 0.03749
 O330 O 0.57922 0.03931 -0.15157
 O331 O 0.35100 -0.10825 -0.05853
 O332 O 0.53397 -0.18490 -0.04436
 O333 O 0.54741 -0.06115 -0.07020
 O334 O 0.45991 -0.09976 -0.00330
 O335 O 0.48345 0.04603 -0.07989
 O336 O 0.39872 0.00709 -0.01587
 Zr337 Zr 0.56149 0.04588 0.08294
 Zr338 Zr 0.58513 0.03450 -0.06143
 Zr339 Zr 0.42140 -0.04015 0.06270
 Zr340 Zr 0.56118 -0.10632 0.01125
 O341 O 0.33767 0.01365 0.08957
 O342 O 0.66008 -0.12102 -0.01531
 O343 O 0.52345 -0.05085 0.08109
 O344 O 0.60615 -0.01305 0.01793
 O345 O 0.54541 0.09308 0.00349
 O346 O 0.45773 0.05472 0.06989
 C347 C 0.49617 -0.18958 -0.08991
 C348 C 0.31559 -0.11641 -0.00891
 C349 C 0.54903 0.00205 -0.18757
 O350 O 0.66487 -0.01868 -0.09782
 O351 O 0.67276 0.08361 -0.03745
 O352 O 0.65012 0.10893 0.05767
 C353 C 0.68640 0.11678 0.00856
 O354 O 0.35756 0.09577 -0.06294
 Zr355 Zr 0.44357 0.09971 -0.01079
 O356 O 0.54463 0.14218 0.10632
 O357 O 0.58563 0.12866 -0.09760
 O358 O 0.46446 0.17971 -0.06698
 O359 O 0.35923 0.14297 0.02788
 O360 O 0.47164 0.18223 0.03767
 C361 C 0.50912 0.18806 0.08310
 O362 O 0.63908 0.00816 0.13538
 O363 O 0.40426 -0.12476 0.10992
 O364 O 0.50943 0.03738 0.17078
 O365 O 0.44264 -0.04889 0.15264
 O366 O 0.53222 -0.15396 0.08915
 O367 O 0.62691 -0.17883 0.04543
 C368 C 0.46326 -0.00535 0.18863
 H369 H 0.43939 -0.14376 -0.00179
 H370 H 0.65472 -0.01604 0.02564
 H371 H 0.43483 0.08028 0.10088
 H372 H 0.47415 0.06985 -0.11693
 H373 H 0.65370 -0.13890 -0.05523
 H374 H 0.70078 -0.02037 -0.06795
 H375 H 0.58667 0.16233 -0.06618
 H376 H 0.42733 0.21152 -0.06240
 H377 H 0.51425 -0.19719 0.07746
 H378 H 0.40897 -0.16142 0.08200
 H379 H 0.33297 0.00429 0.13176
 H380 H 0.35119 0.18475 0.00652
 H381 H 0.61408 -0.22217 0.02865
 H382 H 0.61752 -0.00941 0.17105
 H383 H 0.38723 -0.00857 -0.17623
 H384 H 0.37118 0.10828 -0.10294
 Zr385 Zr 0.55906 0.54953 -0.08438
 O386 O 0.63472 0.52724 -0.14515
 O387 O 0.54501 0.64478 -0.10963
 O388 O 0.50235 0.53835 -0.17036
 O389 O 0.67202 0.58518 0.03673
 O390 O 0.42417 0.46058 -0.15305
 O391 O 0.65206 0.60769 -0.05962
 O392 O 0.46379 0.68161 -0.04786
 O393 O 0.45521 0.56008 -0.07120
 O394 O 0.54531 0.59618 -0.00355
 O395 O 0.51914 0.45345 -0.08229
 O396 O 0.60532 0.48837 -0.02125
 Zr397 Zr 0.44323 0.45216 0.08086
 Zr398 Zr 0.41762 0.46397 -0.06268
 Zr399 Zr 0.58605 0.53382 0.05836
 Zr400 Zr 0.44442 0.60456 0.01108
 O401 O 0.67965 0.48763 0.06728
 O402 O 0.34902 0.62926 -0.02023
 O403 O 0.48516 0.54686 0.07829
 O404 O 0.39909 0.51190 0.01624
 O405 O 0.45713 0.40393 0.00141
 O406 O 0.54670 0.44039 0.06596
 C407 C 0.50517 0.68881 -0.09053
 C408 C 0.68708 0.61691 -0.00983
 C409 C 0.45337 0.49882 -0.18887
 O410 O 0.32900 0.51296 -0.08573
 O411 O 0.32841 0.41829 -0.03806
 O412 O 0.35349 0.39014 0.05594
 C413 C 0.31575 0.38370 0.00752
 O414 O 0.63080 0.37610 -0.07967
 Zr415 Zr 0.55868 0.39609 -0.01534
 O416 O 0.46235 0.35732 0.10669
 O417 O 0.41650 0.36792 -0.09599
 O418 O 0.53315 0.31355 -0.06725
 O419 O 0.64877 0.36398 0.02183
 O420 O 0.53184 0.31533 0.03631
 C421 C 0.49611 0.31057 0.08285
 O422 O 0.36803 0.48665 0.13725
 O423 O 0.58760 0.62211 0.10424
 O424 O 0.48851 0.46964 0.17046
 O425 O 0.58795 0.51645 0.14729
 O426 O 0.47176 0.69037 0.05805
 O427 O 0.38789 0.63591 0.08359
 C428 C 0.54668 0.49675 0.18592
 H429 H 0.56487 0.64071 -0.00015
 H430 H 0.35044 0.51670 0.02228
 H431 H 0.57022 0.41488 0.09670
 H432 H 0.52822 0.43008 -0.11957
 H433 H 0.34188 0.67555 -0.00825
 H434 H 0.32722 0.51572 -0.12884
 H435 H 0.41148 0.33458 -0.06451
 H436 H 0.56643 0.27844 -0.05929
 H437 H 0.44278 0.72709 0.04436
 H438 H 0.54583 0.62508 0.12738
 H439 H 0.69003 0.48622 0.10958
 H440 H 0.65366 0.31746 0.00957
 H441 H 0.35963 0.59799 0.09296
 H442 H 0.32868 0.49780 0.11310
 H443 H 0.61259 0.50486 -0.17830
 H444 H 0.64578 0.41890 -0.09521
 Zr445 Zr 0.05818 1.04913 0.41707
 O446 O 0.13480 1.02452 0.35801
 O447 O 0.04546 1.14371 0.39030
 O448 O 0.00033 1.03825 0.33119
 O449 O 0.17029 1.08464 0.53814
 O450 O -0.07140 0.95409 0.34630
 O451 O 0.15051 1.10784 0.44173
 O452 O -0.03570 1.18140 0.45184
 O453 O -0.04590 1.05801 0.42859
 O454 O 0.04133 1.09752 0.49686
 O455 O 0.02076 0.95197 0.41846
 O456 O 0.10470 0.99317 0.48379
 Zr457 Zr -0.05936 0.95242 0.58020
 Zr458 Zr -0.08161 0.96116 0.43621
 Zr459 Zr 0.08076 1.03956 0.56250
 Zr460 Zr -0.06023 1.10401 0.50932
 O461 O 0.16645 0.99105 0.59299
 O462 O -0.15709 1.11917 0.47719
 O463 O -0.02078 1.04904 0.57899
 O464 O -0.10420 1.01046 0.51404
 O465 O -0.04082 0.90417 0.50124
 O466 O 0.04477 0.94458 0.56887
 C467 C 0.00638 1.18827 0.40951
 C468 C 0.18567 1.11657 0.49144
 C469 C -0.04629 0.99632 0.31159
 O470 O -0.16232 1.00555 0.39246
 O471 O -0.17111 0.91542 0.46090
 O472 O -0.14883 0.89009 0.55621
 C473 C -0.18527 0.88249 0.50722
 O474 O 0.14372 0.91163 0.43199
 Zr475 Zr 0.06183 0.89994 0.48849
 O476 O -0.04190 0.85564 0.60175
 O477 O -0.08226 0.85890 0.42372
 O478 O 0.05646 0.81149 0.43967
 O479 O 0.14762 0.86874 0.53284
 O480 O 0.03463 0.81648 0.53615
 C481 C -0.00471 0.81035 0.58037
 O482 O -0.14069 0.98842 0.62900
 O483 O 0.08631 1.13208 0.59933
 O484 O -0.00898 0.96225 0.66927
 O485 O 0.05931 1.04743 0.65219
 O486 O -0.05631 1.20062 0.54467
 O487 O -0.10124 1.13003 0.59079
 C488 C 0.03751 1.00430 0.68787
 H489 H 0.06096 1.14210 0.49911
 H490 H -0.15295 1.01355 0.52087
 H491 H 0.06723 0.91967 0.60056
 H492 H 0.03192 0.92869 0.38159
 H493 H -0.17479 1.15780 0.49843
 H494 H -0.19520 1.01720 0.42316
 H495 H -0.04213 0.84859 0.40063
 H496 H 0.09848 0.78688 0.44626
 H497 H -0.09552 1.22646 0.53076
 H498 H 0.04076 1.15101 0.59733
 H499 H 0.16742 0.99781 0.63570
 H500 H 0.16770 0.83327 0.50891
 H501 H -0.14010 1.10084 0.59498
 H502 H -0.12575 0.99260 0.66992
 H503 H 0.11232 1.00799 0.32241
 H504 H 0.13310 0.88846 0.39525
 Zr505 Zr 0.70349 0.30834 0.16741
 O506 O 0.73739 0.38161 0.11005
 O507 O 0.60922 0.29365 0.13601
 O508 O 0.71325 0.25250 0.08156
 O509 O 0.66792 0.42025 0.28886
 O510 O 0.79683 0.17971 0.09796
 O511 O 0.64572 0.40063 0.19233
 O512 O 0.56830 0.21685 0.19986
 O513 O 0.69478 0.20628 0.17973
 O514 O 0.65120 0.29204 0.24552
 O515 O 0.80265 0.27223 0.16982
 O516 O 0.75799 0.35294 0.23554
 Zr517 Zr 0.79851 0.19209 0.33248
 Zr518 Zr 0.79315 0.17182 0.18948
 Zr519 Zr 0.70970 0.32957 0.31335
 Zr520 Zr 0.64524 0.19206 0.25889
 O521 O 0.76154 0.41231 0.34366
 O522 O 0.63525 0.09603 0.22695
 O523 O 0.69979 0.22845 0.33017
 O524 O 0.74001 0.14954 0.26630
 O525 O 0.85112 0.21093 0.25518
 O526 O 0.80665 0.29479 0.32111
 C527 C 0.56347 0.25529 0.15506
 C528 C 0.63678 0.43619 0.24178
 C529 C 0.75477 0.20563 0.06251
 O530 O 0.77178 0.08568 0.14372
 O531 O 0.82890 0.07862 0.21253
 O532 O 0.85848 0.10168 0.30675
 C533 C 0.86325 0.06410 0.25828
 O534 O 0.82577 0.41204 0.23234
 Zr535 Zr 0.85349 0.31262 0.24181
 O536 O 0.89434 0.20827 0.35918
 O537 O 0.89805 0.18096 0.19499
 O538 O 0.92320 0.32175 0.17282
 O539 O 0.91997 0.38311 0.27597
 O540 O 0.93581 0.28105 0.29188
 C541 C 0.94106 0.24403 0.33753
 O542 O 0.76308 0.11594 0.38622
 O543 O 0.62147 0.34336 0.35814
 O544 O 0.79023 0.24329 0.42002
 O545 O 0.70039 0.30605 0.40258
 O546 O 0.58397 0.21926 0.33013
 O547 O 0.57761 0.12224 0.29452
 C548 C 0.74630 0.28811 0.43785
 H549 H 0.60625 0.31185 0.24550
 H550 H 0.73643 0.10173 0.27407
 H551 H 0.83203 0.31767 0.35220
 H552 H 0.82574 0.28178 0.13251
 H553 H 0.61586 0.10393 0.18779
 H554 H 0.72286 0.08641 0.14121
 H555 H 0.91193 0.21072 0.16312
 H556 H 0.96634 0.30550 0.18833
 H557 H 0.54306 0.23835 0.31259
 H558 H 0.58539 0.34213 0.32878
 H559 H 0.75241 0.41478 0.38598
 H560 H 0.94632 0.40253 0.24336
 H561 H 0.53347 0.12877 0.27520
 H562 H 0.74204 0.13672 0.42066
 H563 H 0.75338 0.35958 0.07409
 H564 H 0.83441 0.42149 0.19039
 Zr565 Zr 0.79902 0.69066 0.66711
 O566 O 0.76465 0.61832 0.60951
 O567 O 0.89287 0.70664 0.63416
 O568 O 0.78869 0.74729 0.58107
 O569 O 0.85684 0.59464 0.79279
 O570 O 0.70293 0.81813 0.59578
 O571 O 0.85127 0.59536 0.69285
 O572 O 0.93620 0.78102 0.69890
 O573 O 0.80470 0.79310 0.67557
 O574 O 0.85365 0.70930 0.74400
 O575 O 0.69980 0.72575 0.66931
 O576 O 0.74680 0.64868 0.73814
 Zr577 Zr 0.70608 0.80903 0.83171
 Zr578 Zr 0.70673 0.82694 0.68665
 Zr579 Zr 0.79808 0.67619 0.81381
 Zr580 Zr 0.85627 0.81071 0.75223
 O581 O 0.76908 0.58884 0.85574
 O582 O 0.85491 0.87561 0.68249
 O583 O 0.80597 0.77604 0.82739
 O584 O 0.76105 0.85120 0.76203
 O585 O 0.65224 0.78868 0.75524
 O586 O 0.69964 0.70666 0.82037
 C587 C 0.93952 0.74413 0.65316
 C588 C 0.87024 0.56670 0.74379
 C589 C 0.74620 0.79321 0.56122
 O590 O 0.73141 0.91033 0.63655
 O591 O 0.66774 0.91838 0.71143
 O592 O 0.64495 0.89894 0.80759
 C593 C 0.63717 0.93473 0.75837
 O594 O 0.67513 0.58715 0.73144
 Zr595 Zr 0.65061 0.68718 0.74252
 O596 O 0.60992 0.79213 0.85985
 O597 O 0.60326 0.80793 0.68037
 O598 O 0.58039 0.68306 0.67334
 O599 O 0.58458 0.61576 0.77567
 O600 O 0.56888 0.71860 0.79304
 C601 C 0.56325 0.75598 0.83826
 O602 O 0.74647 0.88629 0.88159
 O603 O 0.87882 0.72776 0.85235
 O604 O 0.71795 0.75827 0.92041
 O605 O 0.79514 0.67855 0.90379
 O606 O 0.94934 0.82091 0.79711
 O607 O 0.88123 0.89763 0.79768
 C608 C 0.75593 0.70793 0.93886
 H609 H 0.89855 0.68896 0.74448
 H610 H 0.76528 0.89940 0.76713
 H611 H 0.67590 0.68276 0.85192
 H612 H 0.67738 0.71468 0.63194
 H613 H 0.90105 0.89140 0.68224
 H614 H 0.76075 0.93893 0.66031
 H615 H 0.57668 0.84531 0.69568
 H616 H 0.53796 0.70076 0.68908
 H617 H 0.98214 0.84478 0.77209
 H618 H 0.92088 0.71489 0.83279
 H619 H 0.74591 0.56264 0.82531
 H620 H 0.55408 0.60177 0.74368
 H621 H 0.90046 0.92953 0.76946
 H622 H 0.76022 0.86770 0.91976
 H623 H 0.74888 0.64136 0.57398
 H624 H 0.67360 0.58029 0.68842
 Zr625 Zr 0.20305 0.19056 0.83237
 O626 O 0.23780 0.11756 0.88931
 O627 O 0.10917 0.20723 0.86527
 O628 O 0.21309 0.24723 0.91824
 O629 O 0.14931 0.09204 0.70606
 O630 O 0.29813 0.31874 0.90305
 O631 O 0.14778 0.09682 0.80621
 O632 O 0.06533 0.27997 0.79912
 O633 O 0.19765 0.29309 0.82324
 O634 O 0.14920 0.20892 0.75528
 O635 O 0.30253 0.22563 0.83043
 O636 O 0.25579 0.14804 0.76190
 Zr637 Zr 0.29643 0.30915 0.66753
 Zr638 Zr 0.29571 0.32666 0.81202
 Zr639 Zr 0.20539 0.17576 0.68592
 Zr640 Zr 0.14585 0.31049 0.74669
 O641 O 0.23766 0.09120 0.64145
 O642 O 0.14474 0.37585 0.81617
 O643 O 0.19677 0.27560 0.67179
 O644 O 0.24104 0.35116 0.73701
 O645 O 0.35024 0.28820 0.74391
 O646 O 0.30342 0.20679 0.67931
 C647 C 0.06211 0.24376 0.84538
 C648 C 0.13096 0.06697 0.75516
 C649 C 0.25511 0.29365 0.93773
 O650 O 0.27436 0.41081 0.86158
 O651 O 0.33415 0.41884 0.78808
 O652 O 0.35800 0.39890 0.69234
 C653 C 0.36518 0.43531 0.74131
 O654 O 0.32491 0.08703 0.76735
 Zr655 Zr 0.35189 0.18664 0.75738
 O656 O 0.39326 0.29127 0.64124
 O657 O 0.39953 0.30592 0.81280
 O658 O 0.42221 0.18294 0.82643
 O659 O 0.41897 0.11512 0.72572
 O660 O 0.43375 0.21565 0.70619
 C661 C 0.43954 0.25410 0.66173
 O662 O 0.25752 0.38714 0.61648
 O663 O 0.12391 0.22967 0.65138
 O664 O 0.28351 0.25746 0.57918
 O665 O 0.20631 0.17817 0.59598
 O666 O 0.05232 0.32129 0.70249
 O667 O 0.12260 0.39711 0.69981
 C668 C 0.24539 0.20738 0.56076
 H669 H 0.10453 0.18820 0.75492
 H670 H 0.23699 0.39939 0.73200
 H671 H 0.32716 0.18298 0.64772
 H672 H 0.32500 0.21489 0.86790
 H673 H 0.09882 0.39253 0.81467
 H674 H 0.23978 0.43610 0.84045
 H675 H 0.42611 0.34529 0.80193
 H676 H 0.46533 0.19818 0.81002
 H677 H 0.02056 0.34693 0.72716
 H678 H 0.08163 0.21353 0.66865
 H679 H 0.25878 0.06337 0.67191
 H680 H 0.44584 0.09787 0.75898
 H681 H 0.10345 0.42949 0.72756
 H682 H 0.24272 0.36824 0.57868
 H683 H 0.25177 0.14027 0.92552
 H684 H 0.32893 0.07864 0.81004
 Zr685 Zr 0.29781 0.80798 0.33212
 O686 O 0.26276 0.88103 0.38864
 O687 O 0.39173 0.79167 0.36471
 O688 O 0.28828 0.75226 0.41836
 O689 O 0.34993 0.90810 0.20681
 O690 O 0.20325 0.68093 0.40289
 O691 O 0.35358 0.90164 0.30662
 O692 O 0.43509 0.71842 0.29889
 O693 O 0.30321 0.70512 0.32312
 O694 O 0.35187 0.78991 0.25500
 O695 O 0.19805 0.77329 0.33015
 O696 O 0.24433 0.85070 0.26215
 Zr697 Zr 0.20414 0.69121 0.16707
 Zr698 Zr 0.20478 0.67257 0.31142
 Zr699 Zr 0.29499 0.82355 0.18633
 Zr700 Zr 0.35473 0.68805 0.24612
 O701 O 0.26727 0.90921 0.14100
 O702 O 0.35468 0.61936 0.31321
 O703 O 0.30425 0.72380 0.17093
 O704 O 0.25943 0.64865 0.23610
 O705 O 0.14965 0.71100 0.24338
 O706 O 0.19679 0.79327 0.17942
 C707 C 0.43867 0.75509 0.34480
 C708 C 0.36945 0.93222 0.25571
 C709 C 0.24613 0.70598 0.43777
 O710 O 0.21693 0.58317 0.35519
 O711 O 0.17069 0.57901 0.28803
 O712 O 0.14448 0.60039 0.19268
 C713 C 0.13837 0.56347 0.24157
 O714 O 0.17417 0.91241 0.26501
 Zr715 Zr 0.14796 0.81236 0.25732
 O716 O 0.10853 0.70782 0.13881
 O717 O 0.10079 0.69247 0.31045
 O718 O 0.07804 0.81517 0.32695
 O719 O 0.07958 0.88346 0.22672
 O720 O 0.06720 0.78209 0.20484
 C721 C 0.06188 0.74422 0.15982
 O722 O 0.23839 0.61630 0.11156
 O723 O 0.37537 0.76578 0.15385
 O724 O 0.21639 0.74310 0.07897
 O725 O 0.29068 0.82432 0.09664
 O726 O 0.44878 0.67460 0.20344
 O727 O 0.37953 0.60247 0.19782
 C728 C 0.25390 0.79370 0.06085
 H729 H 0.39653 0.81072 0.25422
 H730 H 0.26346 0.60062 0.23021
 H731 H 0.17323 0.81753 0.14795
 H732 H 0.17571 0.78380 0.36762
 H733 H 0.40025 0.60174 0.31032
 H734 H 0.26258 0.58271 0.37119
 H735 H 0.07487 0.65212 0.30134
 H736 H 0.03523 0.79918 0.31062
 H737 H 0.47966 0.64894 0.22905
 H738 H 0.41887 0.78358 0.16730
 H739 H 0.24192 0.93577 0.16978
 H740 H 0.05293 0.90024 0.26028
 H741 H 0.36973 0.56340 0.22233
 H742 H 0.25887 0.63733 0.07685
 H743 H 0.24545 0.85779 0.42350
 H744 H 0.17111 0.92171 0.30759
 Zr745 Zr 0.20142 0.81053 0.66717
 O746 O 0.23676 0.88622 0.61278
 O747 O 0.10845 0.79239 0.63360
 O748 O 0.21253 0.75442 0.58081
 O749 O 0.14321 0.90638 0.79155
 O750 O 0.29776 0.68263 0.59598
 O751 O 0.14468 0.90364 0.69164
 O752 O 0.06455 0.72002 0.69997
 O753 O 0.19666 0.70807 0.67611
 O754 O 0.14701 0.79125 0.74428
 O755 O 0.30073 0.77551 0.66965
 O756 O 0.25393 0.85227 0.73811
 Zr757 Zr 0.29551 0.69215 0.83189
 Zr758 Zr 0.29445 0.67444 0.68695
 Zr759 Zr 0.20257 0.82478 0.81375
 Zr760 Zr 0.14500 0.68971 0.75257
 O761 O 0.23123 0.91232 0.85537
 O762 O 0.13869 0.62545 0.68239
 O763 O 0.19525 0.72462 0.82763
 O764 O 0.24064 0.64971 0.76245
 O765 O 0.34914 0.71257 0.75548
 O766 O 0.30139 0.79460 0.82041
 C767 C 0.06162 0.75562 0.65328
 C768 C 0.12709 0.93310 0.74236
 C769 C 0.25419 0.70735 0.56139
 O770 O 0.26190 0.59267 0.63890
 O771 O 0.33473 0.58302 0.71000
 O772 O 0.35725 0.60263 0.80614
 C773 C 0.36506 0.56646 0.75703
 O774 O 0.32653 0.91417 0.73213
 Zr775 Zr 0.35050 0.81402 0.74262
 O776 O 0.39113 0.70935 0.86013
 O777 O 0.39806 0.69349 0.68002
 O778 O 0.42131 0.81729 0.67361
 O779 O 0.41590 0.88598 0.77582
 O780 O 0.43238 0.78238 0.79307
 C781 C 0.43797 0.74497 0.83835
 O782 O 0.26154 0.61537 0.88615
 O783 O 0.12270 0.77223 0.85284
 O784 O 0.28351 0.74387 0.92002
 O785 O 0.20569 0.82295 0.90380
 O786 O 0.05338 0.67721 0.79899
 O787 O 0.12158 0.60272 0.79849
 C788 C 0.24526 0.79378 0.93875
 H789 H 0.10194 0.81116 0.74509
 H790 H 0.23751 0.60151 0.76768
 H791 H 0.32517 0.81878 0.85174
 H792 H 0.32330 0.78585 0.63231
 H793 H 0.09446 0.60574 0.68870
 H794 H 0.23639 0.56409 0.66598
 H795 H 0.42520 0.65655 0.69548
 H796 H 0.46383 0.80024 0.68975
 H797 H 0.02037 0.65416 0.77361
 H798 H 0.08034 0.78432 0.83335
 H799 H 0.25542 0.93801 0.82516
 H800 H 0.44782 0.89857 0.74441
 H801 H 0.12988 0.56613 0.77091
 H802 H 0.24653 0.63475 0.92359
 H803 H 0.25544 0.86440 0.57769
 H804 H 0.32780 0.92111 0.68916
 Zr805 Zr 0.30087 0.19028 0.16614
 O806 O 0.26692 0.11606 0.10931
 O807 O 0.39543 0.20498 0.13508
 O808 O 0.29002 0.24691 0.08033
 O809 O 0.35697 0.09242 0.29042
 O810 O 0.20443 0.31761 0.09588
 O811 O 0.35624 0.09596 0.19074
 O812 O 0.43505 0.28385 0.19726
 O813 O 0.30677 0.29331 0.17632
 O814 O 0.35487 0.20894 0.24319
 O815 O 0.20129 0.22479 0.16857
 O816 O 0.24835 0.14735 0.23663
 Zr817 Zr 0.20685 0.30688 0.33068
 Zr818 Zr 0.20783 0.32557 0.18694
 Zr819 Zr 0.29954 0.17442 0.31242
 Zr820 Zr 0.35761 0.31031 0.25437
 O821 O 0.27431 0.08645 0.35482
 O822 O 0.36276 0.40275 0.21447
 O823 O 0.30685 0.27371 0.32847
 O824 O 0.26201 0.35046 0.26205
 O825 O 0.15282 0.28674 0.25467
 O826 O 0.20100 0.20460 0.31914
 C827 C 0.44073 0.24413 0.15366
 C828 C 0.37332 0.06600 0.24149
 C829 C 0.24770 0.29324 0.06105
 O830 O 0.22533 0.41280 0.14182
 O831 O 0.17188 0.41872 0.21008
 O832 O 0.14466 0.39568 0.30480
 C833 C 0.13891 0.43342 0.25647
 O834 O 0.17642 0.08527 0.23131
 Zr835 Zr 0.15181 0.18538 0.24157
 O836 O 0.11213 0.29020 0.36071
 O837 O 0.10402 0.30507 0.18692
 O838 O 0.08106 0.18146 0.17279
 O839 O 0.08561 0.11417 0.27518
 O840 O 0.07094 0.21749 0.29324
 C841 C 0.06545 0.25468 0.33876
 O842 O 0.24278 0.38513 0.38036
 O843 O 0.38309 0.22731 0.34501
 O844 O 0.21942 0.25754 0.41972
 O845 O 0.29368 0.17527 0.40273
 O846 O 0.45830 0.32461 0.28096
 O847 O 0.38759 0.35564 0.33315
 C848 C 0.25586 0.20617 0.43821
 H849 H 0.39979 0.18867 0.24302
 H850 H 0.26505 0.39843 0.26905
 H851 H 0.17750 0.18059 0.35079
 H852 H 0.17855 0.21460 0.13128
 H853 H 0.38350 0.43261 0.24347
 H854 H 0.27358 0.41061 0.13442
 H855 H 0.07764 0.34480 0.19706
 H856 H 0.03811 0.19702 0.18933
 H857 H 0.47569 0.36548 0.26222
 H858 H 0.42564 0.20979 0.32926
 H859 H 0.24533 0.06259 0.32683
 H860 H 0.05539 0.09949 0.24324
 H861 H 0.35460 0.39088 0.33903
 H862 H 0.22421 0.37801 0.41949
 H863 H 0.24967 0.13798 0.07367
 H864 H 0.17463 0.07790 0.18839
 Zr865 Zr 0.70073 0.69066 0.33149
 O866 O 0.73257 0.61414 0.38703
 O867 O 0.60578 0.70396 0.36165
 O868 O 0.71183 0.74619 0.41801
 O869 O 0.64104 0.59681 0.20700
 O870 O 0.79747 0.81721 0.40335
 O871 O 0.64773 0.59571 0.30681
 O872 O 0.56778 0.78731 0.30319
 O873 O 0.69485 0.79378 0.32247
 O874 O 0.64678 0.71106 0.25450
 O875 O 0.79996 0.72525 0.32949
 O876 O 0.75316 0.64843 0.26072
 Zr877 Zr 0.79550 0.80848 0.16772
 Zr878 Zr 0.79341 0.82652 0.31266
 Zr879 Zr 0.70193 0.67656 0.18517
 Zr880 Zr 0.64438 0.81255 0.24458
 O881 O 0.72945 0.58837 0.14397
 O882 O 0.63361 0.90442 0.28509
 O883 O 0.69527 0.77624 0.17062
 O884 O 0.74036 0.85227 0.23695
 O885 O 0.84879 0.78794 0.24428
 O886 O 0.80104 0.70600 0.17878
 C887 C 0.56139 0.74522 0.34511
 C888 C 0.62805 0.56822 0.25587
 C889 C 0.75393 0.79254 0.43777
 O890 O 0.76350 0.90828 0.36213
 O891 O 0.83304 0.91815 0.28960
 O892 O 0.85581 0.89866 0.19331
 C893 C 0.86370 0.93439 0.24258
 O894 O 0.82341 0.58672 0.26708
 Zr895 Zr 0.84977 0.68640 0.25664
 O896 O 0.89125 0.79198 0.13983
 O897 O 0.89680 0.80879 0.32178
 O898 O 0.92004 0.68437 0.32577
 O899 O 0.91863 0.61565 0.22626
 O900 O 0.93096 0.71508 0.20396
 C901 C 0.93718 0.75418 0.15987
 O902 O 0.76557 0.88176 0.10888
 O903 O 0.62169 0.72907 0.14617
 O904 O 0.78382 0.75693 0.07962
 O905 O 0.70550 0.67835 0.09527
 O906 O 0.54384 0.81706 0.21465
 O907 O 0.61979 0.86507 0.16811
 C908 C 0.74549 0.70729 0.06064
 H909 H 0.60139 0.69185 0.25396
 H910 H 0.73714 0.90043 0.23101
 H911 H 0.82472 0.68162 0.14750
 H912 H 0.82207 0.71434 0.36691
 H913 H 0.60788 0.93236 0.25766
 H914 H 0.73300 0.93367 0.33682
 H915 H 0.92382 0.84415 0.30357
 H916 H 0.96237 0.70144 0.30929
 H917 H 0.52295 0.85805 0.22999
 H918 H 0.57920 0.71718 0.16552
 H919 H 0.75234 0.56197 0.17449
 H920 H 0.94471 0.59838 0.25999
 H921 H 0.65925 0.89185 0.15870
 H922 H 0.73083 0.86252 0.08355
 H923 H 0.75243 0.63532 0.42192
 H924 H 0.82530 0.57917 0.31000
 Zr925 Zr 0.79933 0.30824 0.83176
 O926 O 0.76477 0.38128 0.88901
 O927 O 0.89379 0.29396 0.86357
 O928 O 0.78957 0.25197 0.91792
 O929 O 0.85794 0.40353 0.70644
 O930 O 0.70216 0.18346 0.90351
 O931 O 0.85141 0.40346 0.80635
 O932 O 0.93510 0.21575 0.80145
 O933 O 0.80487 0.20543 0.82360
 O934 O 0.85395 0.28878 0.75477
 O935 O 0.69963 0.27404 0.82944
 O936 O 0.74819 0.35042 0.76025
 Zr937 Zr 0.70564 0.19106 0.66748
 Zr938 Zr 0.70630 0.17291 0.81189
 Zr939 Zr 0.79910 0.32229 0.68453
 Zr940 Zr 0.85617 0.18734 0.74665
 O941 O 0.77122 0.41014 0.64293
 O942 O 0.84872 0.11792 0.81283
 O943 O 0.80625 0.22198 0.67105
 O944 O 0.76082 0.14839 0.73641
 O945 O 0.65145 0.21191 0.74393
 O946 O 0.70022 0.29343 0.67829
 C947 C 0.93960 0.25492 0.84551
 C948 C 0.87074 0.43175 0.75545
 C949 C 0.74655 0.20677 0.93804
 O950 O 0.71861 0.08234 0.85464
 O951 O 0.67034 0.08001 0.78907
 O952 O 0.64456 0.10126 0.69355
 C953 C 0.63781 0.06471 0.74261
 O954 O 0.67880 0.41313 0.76649
 Zr955 Zr 0.65151 0.31370 0.75601
 O956 O 0.61083 0.20899 0.63889
 O957 O 0.60207 0.18721 0.80521
 O958 O 0.58118 0.32575 0.82427
 O959 O 0.58843 0.38510 0.71880
 O960 O 0.56920 0.28080 0.70681
 C961 C 0.56400 0.24412 0.66101
 O962 O 0.73809 0.11496 0.61264
 O963 O 0.87927 0.27031 0.64544
 O964 O 0.71715 0.24253 0.57897
 O965 O 0.79465 0.32177 0.59428
 O966 O 0.94966 0.17909 0.70182
 O967 O 0.88359 0.09988 0.70314
 C968 C 0.75499 0.29242 0.55958
 H969 H 0.89906 0.30861 0.75406
 H970 H 0.76476 0.10027 0.73050
 H971 H 0.67654 0.31774 0.64690
 H972 H 0.67651 0.28495 0.86636
 H973 H 0.89545 0.10563 0.81925
 H974 H 0.76047 0.08475 0.87717
 H975 H 0.58862 0.21404 0.83927
 H976 H 0.53796 0.30970 0.80882
 H977 H 0.98358 0.15686 0.72689
 H978 H 0.92136 0.28349 0.66475
 H979 H 0.74577 0.43531 0.67263
 H980 H 0.55877 0.40275 0.74996
 H981 H 0.90835 0.07099 0.73070
 H982 H 0.75871 0.13564 0.57792
 H983 H 0.74792 0.35895 0.92455
 H984 H 0.67626 0.42081 0.80935
   
