data_POSCAR
  _audit_creation_date              2014-09-24
  _audit_creation_method            'ToBaCCo'
  _symmetry_space_group_name_H-M    'P1'
  _symmetry_Int_Tables_number       1
  _symmetry_cell_setting            triclinic
  loop_
  _symmetry_equiv_pos_as_xyz
 x,y,z
_cell_length_a 47.3898
_cell_length_b 50.6713
_cell_length_c 47.6572
_cell_angle_alpha 89.869100
_cell_angle_beta 89.628200
_cell_angle_gamma 91.064500
loop_
  _atom_site_label
  _atom_site_type_symbol
  _atom_site_fract_x
  _atom_site_fract_y
  _atom_site_fract_z
C1 C 0.19974 0.23114 0.22390
 C2 C 0.19662 0.24607 0.19929
 C3 C 0.21742 0.24588 0.17871
 C4 C 0.24136 0.23033 0.18224
 C5 C 0.24476 0.21632 0.20690
 C6 C 0.22393 0.21679 0.22783
 C7 C 0.18140 0.22454 0.24551
 N8 N 0.19398 0.20652 0.26231
 C9 C 0.22015 0.20200 0.25181
 C10 C 0.26774 0.20055 0.20345
 N11 N 0.27798 0.20393 0.17698
 C12 C 0.26219 0.22238 0.16391
 C13 C 0.20831 0.26137 0.15689
 N14 N 0.18258 0.27088 0.16376
 C15 C 0.17509 0.26136 0.18945
 H16 H 0.15992 0.23118 0.24784
 H17 H 0.23458 0.18747 0.25976
 H18 H 0.27487 0.18593 0.21830
 H19 H 0.26444 0.22826 0.14213
 H20 H 0.21949 0.26533 0.13740
 H21 H 0.15555 0.26554 0.20033
 C22 C -0.18579 0.77367 0.23744
 C23 C -0.19356 0.74962 0.22471
 C24 C -0.21487 0.74891 0.20479
 C25 C -0.22860 0.77221 0.19726
 C26 C -0.22024 0.79577 0.20932
 C27 C -0.19895 0.79650 0.22932
 C28 C -0.16536 0.78099 0.25672
 N29 N -0.16600 0.80768 0.25995
 C30 C -0.18638 0.81719 0.24305
 C31 C -0.23507 0.81551 0.19698
 N32 N -0.25277 0.80466 0.17779
 C33 C -0.24906 0.77807 0.17773
 C34 C -0.21537 0.72400 0.19340
 N35 N -0.19474 0.70970 0.20550
 C36 C -0.18153 0.72508 0.22491
 H37 H -0.15087 0.76799 0.26715
 H38 H -0.19184 0.83776 0.24095
 H39 H -0.23302 0.83637 0.20166
 H40 H -0.25987 0.76418 0.16411
 H41 H -0.22820 0.71750 0.17593
 H42 H -0.16305 0.71956 0.23662
 C43 C -0.19808 0.22829 -0.25022
 C44 C -0.20455 0.25143 -0.23546
 C45 C -0.22612 0.25106 -0.21553
 C46 C -0.24150 0.22759 -0.21011
 C47 C -0.23474 0.20495 -0.22449
 C48 C -0.21307 0.20528 -0.24440
 C49 C -0.17695 0.22180 -0.26905
 N50 N -0.17887 0.19539 -0.27417
 C51 C -0.20091 0.18528 -0.25909
 C52 C -0.25058 0.18455 -0.21350
 N53 N -0.26714 0.19404 -0.19267
 C54 C -0.26188 0.22047 -0.19042
 C55 C -0.22524 0.27503 -0.20206
 N56 N -0.20368 0.28984 -0.21306
 C57 C -0.19105 0.27567 -0.23362
 H58 H -0.16078 0.23505 -0.27743
 H59 H -0.20737 0.16467 -0.25838
 H60 H -0.24950 0.16405 -0.21976
 H61 H -0.27124 0.23330 -0.17494
 H62 H -0.23810 0.28057 -0.18424
 H63 H -0.17220 0.28180 -0.24503
 C64 C 0.20544 0.78272 -0.23803
 C65 C 0.20322 0.76603 -0.21454
 C66 C 0.22403 0.76659 -0.19424
 C67 C 0.24767 0.78350 -0.19752
 C68 C 0.24998 0.79960 -0.22095
 C69 C 0.22883 0.79916 -0.24129
 C70 C 0.18682 0.78893 -0.25903
 N71 N 0.19848 0.80870 -0.27490
 C72 C 0.22437 0.81477 -0.26440
 C73 C 0.27349 0.81551 -0.21763
 N74 N 0.28567 0.80951 -0.19276
 C75 C 0.27013 0.78979 -0.18038
 C76 C 0.21532 0.74969 -0.17303
 N77 N 0.19012 0.73860 -0.18033
 C78 C 0.18254 0.74848 -0.20562
 H79 H 0.16579 0.78060 -0.26166
 H80 H 0.23815 0.83063 -0.27181
 H81 H 0.28060 0.83101 -0.23184
 H82 H 0.27412 0.78143 -0.15988
 H83 H 0.22653 0.74560 -0.15382
 H84 H 0.16317 0.74353 -0.21649
 C85 C 0.20365 1.18683 0.78279
 C86 C 0.22073 1.18362 0.80664
 C87 C 0.21612 1.19897 0.83025
 C88 C 0.19509 1.21805 0.83025
 C89 C 0.17890 1.22157 0.80664
 C90 C 0.18291 1.20571 0.78304
 C91 C 0.20116 1.17348 0.75759
 N92 N 0.17914 1.18365 0.74309
 C93 C 0.16818 1.20354 0.75849
 C94 C 0.16042 1.24146 0.81225
 N95 N 0.16486 1.25006 0.83887
 C96 C 0.18593 1.23568 0.85017
 C97 C 0.23477 1.19126 0.85045
 N98 N 0.25091 1.17183 0.83977
 C99 C 0.24257 1.16696 0.81299
 H100 H 0.21351 1.15680 0.75100
 H101 H 0.15000 1.21499 0.75278
 H102 H 0.14481 1.24905 0.79799
 H103 H 0.19428 1.23814 0.87112
 H104 H 0.23665 1.19934 0.87139
 H105 H 0.25150 1.15222 0.79932
 C106 C 0.78174 0.80444 0.75861
 C107 C 0.75985 0.80401 0.77875
 C108 C 0.75718 0.78290 0.79720
 C109 C 0.77594 0.76187 0.79560
 C110 C 0.79732 0.76232 0.77578
 C111 C 0.80040 0.78377 0.75740
 C112 C 0.79078 0.82283 0.73891
 N113 N 0.81458 0.81384 0.72623
 C114 C 0.82051 0.78994 0.73746
 C115 C 0.81297 0.74006 0.77966
 N116 N 0.80167 0.72608 0.80149
 C117 C 0.77897 0.73930 0.81140
 C118 C 0.73555 0.78836 0.81552
 N119 N 0.72487 0.81219 0.80871
 C120 C 0.73951 0.82191 0.78619
 H121 H 0.78122 0.84168 0.73475
 H122 H 0.83841 0.77802 0.73186
 H123 H 0.83161 0.73475 0.76783
 H124 H 0.76591 0.73322 0.82908
 H125 H 0.72847 0.77612 0.83294
 H126 H 0.73620 0.84095 0.77653
 C127 C 0.21704 0.78518 1.24896
 C128 C 0.24103 0.78306 1.23164
 C129 C 0.24114 0.76476 1.21013
 C130 C 0.21746 0.74848 1.20549
 C131 C 0.19362 0.75097 1.22209
 C132 C 0.19343 0.76939 1.24400
 C133 C 0.21024 0.80201 1.27055
 N134 N 0.18309 0.79690 1.27864
 C135 C 0.17264 0.77704 1.26238
 C136 C 0.17303 0.73462 1.21099
 N137 N 0.18398 0.72220 1.18828
 C138 C 0.21113 0.73052 1.18477
 C139 C 0.26529 0.76910 1.19461
 N140 N 0.27985 0.78973 1.20592
 C141 C 0.26534 0.79829 1.22876
 H142 H 0.22385 0.81730 1.27922
 H143 H 0.15137 0.76892 1.26360
 H144 H 0.15147 0.73243 1.21841
 H145 H 0.22487 0.72475 1.16770
 H146 H 0.27089 0.75913 1.17534
 H147 H 0.27100 0.81547 1.24111
 C148 C 0.79291 1.20709 1.23799
 C149 C 0.77110 1.20688 1.21813
 C150 C 0.76763 1.22844 1.20067
 C151 C 0.78551 1.25066 1.20318
 C152 C 0.80699 1.25082 1.22269
 C153 C 0.81090 1.22881 1.23997
 C154 C 0.80219 1.18857 1.25688
 N155 N 0.82557 1.19846 1.26991
 C156 C 0.83101 1.22308 1.25965
 C157 C 0.82146 1.27447 1.21994
 N158 N 0.80923 1.28867 1.19929
 C159 C 0.78727 1.27425 1.18885
 C160 C 0.74612 1.22223 1.18242
 N161 N 0.73634 1.19751 1.18847
 C162 C 0.75137 1.18799 1.21035
 H163 H 0.79301 1.16909 1.26033
 H164 H 0.84844 1.23585 1.26586
 H165 H 0.83979 1.28073 1.23182
 H166 H 0.77383 1.28033 1.17181
 H167 H 0.73842 1.23463 1.16570
 H168 H 0.74870 1.16847 1.21939
 O169 O 0.52644 0.98009 0.95515
 O170 O 0.47875 0.96908 1.06764
 O171 O 0.56335 0.98680 1.03576
 O172 O 0.46733 0.96009 0.98248
 O173 O 0.53021 0.96604 1.05811
 O174 O 0.47541 0.98953 0.95241
 O175 O 0.46085 0.95308 1.03018
 O176 O 0.54705 0.96607 0.99188
 C177 C 0.54122 0.96305 0.96677
 C178 C 0.46453 0.95171 1.05573
 C179 C 0.55561 0.96819 1.05141
 C180 C 0.46757 0.96661 0.95778
 O181 O 0.48432 1.03599 0.97567
 O182 O 0.53338 1.01889 1.06217
 O183 O 0.57368 1.00980 0.98530
 O184 O 0.44583 1.00413 1.03886
 O185 O 0.48014 1.01917 1.06642
 O186 O 0.53570 1.03057 0.97202
 O187 O 0.44814 1.01149 0.98808
 O188 O 0.54459 1.03277 1.02087
 Co189 Co 0.50533 1.00751 0.96842
 Co190 Co 0.50575 0.99352 1.05870
 Co191 Co 0.54357 0.99912 1.00591
 Co192 Co 0.45927 0.98336 1.00975
 O193 O 0.50192 0.99477 1.01285
 C194 C 0.45830 1.03319 0.97924
 C195 C 0.54449 1.03619 1.04671
 C196 C 0.56199 1.02673 0.96826
 C197 C 0.45482 1.01924 1.05834
 O198 O 0.02521 0.48023 0.02852
 O199 O 0.02373 0.52800 -0.04607
 O200 O -0.00634 0.44878 -0.02722
 O201 O -0.00214 0.55865 0.01981
 O202 O 0.01834 0.47767 -0.05227
 O203 O 0.02723 0.52775 0.02487
 O204 O -0.00277 0.55946 -0.03065
 O205 O -0.00746 0.45128 0.02413
 C206 C 0.01783 0.45670 0.02875
 C207 C 0.02013 0.55190 -0.04141
 C208 C 0.01361 0.45451 -0.04397
 C209 C 0.02241 0.55166 0.02494
 O210 O -0.02373 0.53034 0.05215
 O211 O -0.03492 0.48344 -0.06386
 O212 O -0.05847 0.47261 0.02284
 O213 O -0.05716 0.54049 -0.02916
 O214 O -0.02910 0.53239 -0.06304
 O215 O -0.02698 0.48308 0.05380
 O216 O -0.05497 0.53683 0.02099
 O217 O -0.05905 0.46385 -0.02998
 Co218 Co -0.00094 0.50536 0.03605
 Co219 Co -0.00638 0.50555 -0.05133
 Co220 Co -0.03144 0.46361 -0.00262
 Co221 Co -0.02817 0.54521 -0.00479
 O222 O -0.01660 0.50474 -0.00602
 C223 C -0.04845 0.53637 0.04607
 C224 C -0.05565 0.46947 -0.05539
 C225 C -0.05184 0.47577 0.04784
 C226 C -0.05262 0.53995 -0.05467
 O227 O 1.05906 0.02626 0.46410
 O228 O 0.96048 0.03170 0.52171
 O229 O 1.00245 0.04239 0.45318
 O230 O 1.02412 0.03528 0.54371
 O231 O 0.96034 0.03100 0.46923
 O232 O 1.05881 0.03528 0.51476
 O233 O 0.98104 0.01181 0.55599
 O234 O 1.03476 0.01586 0.42503
 C235 C 1.05624 0.02774 0.43725
 C236 C 0.96512 0.02959 0.54740
 C237 C 0.97643 0.04695 0.45572
 C238 C 1.04617 0.04578 0.53462
 O239 O 1.05793 -0.01715 0.52798
 O240 O 0.95951 -0.02221 0.47079
 O241 O 1.02276 -0.02664 0.44897
 O242 O 0.99977 -0.03331 0.53942
 O243 O 0.95855 -0.02134 0.52328
 O244 O 1.05740 -0.02637 0.47748
 O245 O 1.03354 -0.00739 0.56731
 O246 O 0.98126 -0.00227 0.43663
 Co247 Co 1.05367 0.00451 0.49606
 Co248 Co 0.96356 0.00477 0.49623
 Co249 Co 1.01381 0.00780 0.45440
 Co250 Co 1.01318 0.00107 0.53813
 O251 O 1.00814 0.00459 0.49626
 C252 C 1.05480 -0.01889 0.55482
 C253 C 0.96462 -0.02013 0.44511
 C254 C 1.04409 -0.03732 0.45822
 C255 C 0.97350 -0.03741 0.53700
 C256 C 1.15583 0.16197 0.32341
 N257 N 1.14084 0.17967 0.30846
 N258 N 1.15347 0.19495 0.28917
 C259 C 1.18154 0.19282 0.28379
 N260 N 1.19656 0.17535 0.29910
 N261 N 1.18398 0.16030 0.31861
 C262 C 1.14144 0.14337 0.34259
 N263 N 1.15616 0.12938 0.36176
 N264 N 1.14320 0.11118 0.37777
 C265 C 1.11515 0.10608 0.37483
 N266 N 1.10047 0.12013 0.35574
 N267 N 1.11334 0.13851 0.34001
 C268 C 1.10080 0.08509 0.39105
 N269 N 1.07635 0.07433 0.38139
 N270 N 1.06278 0.05552 0.39589
 C271 C 1.07300 0.04687 0.42071
 N272 N 1.09750 0.05761 0.43049
 N273 N 1.11132 0.07626 0.41575
 C274 C 0.88099 -0.14565 0.31190
 N275 N 0.88224 -0.17237 0.31398
 N276 N 0.86736 -0.18782 0.29664
 C277 C 0.85035 -0.17703 0.27697
 N278 N 0.84927 -0.15033 0.27504
 N279 N 0.86440 -0.13497 0.29201
 C280 C 0.89621 -0.12815 0.33123
 N281 N 0.90112 -0.10256 0.32398
 N282 N 0.91304 -0.08580 0.34199
 C283 C 0.92010 -0.09391 0.36809
 N284 N 0.91530 -0.11955 0.37539
 N285 N 0.90365 -0.13644 0.35721
 C286 C 0.93187 -0.07492 0.38820
 N287 N 0.93139 -0.08015 0.41614
 N288 N 0.94138 -0.06245 0.43435
 C289 C 0.95230 -0.03897 0.42524
 N290 N 0.95293 -0.03381 0.39730
 N291 N 0.94266 -0.05138 0.37912
 C292 C 0.87195 0.15074 0.67656
 N293 N 0.85254 0.13931 0.69390
 N294 N 0.83600 0.15401 0.70986
 C295 C 0.83841 0.18076 0.70944
 N296 N 0.85812 0.19228 0.69226
 N297 N 0.87444 0.17750 0.67590
 C298 C 0.88906 0.13401 0.65840
 N299 N 0.89964 0.14316 0.63361
 N300 N 0.91309 0.12700 0.61624
 C301 C 0.91669 0.10127 0.62321
 N302 N 0.90652 0.09230 0.64819
 N303 N 0.89278 0.10833 0.66536
 C304 C 0.93008 0.08302 0.60364
 N305 N 0.93993 0.05957 0.61288
 N306 N 0.95120 0.04251 0.59498
 C307 C 0.95254 0.04813 0.56715
 N308 N 0.94263 0.07154 0.55790
 N309 N 0.93167 0.08873 0.57584
 C310 C 1.15839 -0.14781 0.66604
 N311 N 1.14427 -0.16717 0.68037
 N312 N 1.15758 -0.18202 0.69901
 C313 C 1.18544 -0.17780 0.70433
 N314 N 1.19959 -0.15861 0.68967
 N315 N 1.18635 -0.14399 0.67080
 C316 C 1.14322 -0.12995 0.64744
 N317 N 1.15736 -0.11460 0.62841
 N318 N 1.14365 -0.09719 0.61280
 C319 C 1.11540 -0.09426 0.61602
 N320 N 1.10130 -0.10964 0.63501
 N321 N 1.11493 -0.12725 0.65033
 C322 C 1.10029 -0.07423 0.60010
 N323 N 1.07528 -0.06530 0.60986
 N324 N 1.06125 -0.04720 0.59563
 C325 C 1.07155 -0.03750 0.57099
 N326 N 1.09655 -0.04645 0.56111
 N327 N 1.11081 -0.06436 0.57557
 C328 C 0.33464 1.15490 1.14067
 N329 N 0.33062 1.15483 1.16886
 N330 N 0.31255 1.17127 1.18072
 C331 C 0.29802 1.18869 1.16493
 N332 N 0.30257 1.18919 1.13672
 N333 N 0.32042 1.17247 1.12479
 C334 C 0.35309 1.13536 1.12776
 N335 N 0.35070 1.12906 1.10019
 N336 N 0.36646 1.11018 1.08905
 C337 C 0.38526 1.09709 1.10507
 N338 N 0.38780 1.10360 1.13254
 N339 N 0.37186 1.12224 1.14373
 C340 C 0.40276 1.07633 1.09306
 N341 N 0.42612 1.06834 1.10677
 N342 N 0.44243 1.04984 1.09584
 C343 C 0.43574 1.03833 1.07102
 N344 N 0.41221 1.04610 1.05740
 N345 N 0.39604 1.06485 1.06819
 C346 C 0.35164 0.84995 0.84229
 N347 N 0.34161 0.85709 0.81684
 N348 N 0.32043 0.84352 0.80515
 C349 C 0.30829 0.82242 0.81854
 N350 N 0.31858 0.81515 0.84389
 N351 N 0.33986 0.82864 0.85551
 C352 C 0.37358 0.86590 0.85622
 N353 N 0.38415 0.85791 0.88114
 N354 N 0.40238 0.87320 0.89504
 C355 C 0.41072 0.89707 0.88462
 N356 N 0.40044 0.90497 0.85950
 N357 N 0.38223 0.88960 0.84551
 C358 C 0.42844 0.91470 0.90177
 N359 N 0.43476 0.93988 0.89360
 N360 N 0.44833 0.95643 0.91088
 C361 C 0.45594 0.94830 0.93690
 N362 N 0.45004 0.92304 0.94473
 N363 N 0.43661 0.90656 0.92752
 C364 C 0.69300 0.84765 1.13101
 N365 N 0.71323 0.85966 1.14663
 N366 N 0.73088 0.84550 1.16177
 C367 C 0.72932 0.81871 1.16166
 N368 N 0.70926 0.80659 1.14567
 N369 N 0.69123 0.82084 1.13079
 C370 C 0.67303 0.86389 1.11566
 N371 N 0.64673 0.85469 1.10938
 N372 N 0.62799 0.87060 1.09768
 C373 C 0.63504 0.89612 1.09166
 N374 N 0.66146 0.90510 1.09753
 N375 N 0.68003 0.88934 1.10949
 C376 C 0.61428 0.91425 1.08025
 N377 N 0.62290 0.93768 1.06895
 N378 N 0.60416 0.95481 1.05964
 C379 C 0.57611 0.94929 1.06169
 N380 N 0.56744 0.92587 1.07300
 N381 N 0.58622 0.90860 1.08206
 C382 C 0.68130 1.14774 0.85623
 N383 N 0.68117 1.17443 0.85906
 N384 N 0.69803 1.18974 0.84314
 C385 C 0.71535 1.17887 0.82362
 N386 N 0.71514 1.15220 0.82077
 N387 N 0.69860 1.13696 0.83684
 C388 C 0.66347 1.13040 0.87380
 N389 N 0.66975 1.10448 0.87622
 N390 N 0.65356 1.08825 0.89160
 C391 C 0.63027 1.09726 0.90485
 N392 N 0.62387 1.12319 0.90241
 N393 N 0.64028 1.13954 0.88725
 C394 C 0.61239 1.07905 0.92136
 N395 N 0.58548 1.08528 0.92820
 N396 N 0.56924 1.06841 0.94285
 C397 C 0.57945 1.04487 0.95136
 N398 N 0.60637 1.03870 0.94463
 N399 N 0.62249 1.05542 0.92971
 C400 C 0.13564 0.32307 0.11677
 N401 N 0.16381 0.32089 0.11216
 N402 N 0.17884 0.30382 0.12695
 C403 C 0.16629 0.28853 0.14709
 N404 N 0.13814 0.29077 0.15170
 N405 N 0.12308 0.30761 0.13671
 C406 C 0.11897 0.34215 0.10097
 N407 N 0.09039 0.34004 0.10088
 N408 N 0.07504 0.35769 0.08735
 C409 C 0.08765 0.37829 0.07363
 N410 N 0.11627 0.38044 0.07369
 N411 N 0.13166 0.36259 0.08700
 C412 C 0.07030 0.39828 0.05999
 N413 N 0.08125 0.42239 0.05291
 N414 N 0.06477 0.44099 0.04236
 C415 C 0.03682 0.43602 0.03831
 N416 N 0.02605 0.41179 0.04497
 N417 N 0.04244 0.39332 0.05571
 C418 C -0.17050 0.35791 -0.17689
 N419 N -0.15864 0.34782 -0.20046
 N420 N -0.16980 0.32643 -0.21264
 C421 C -0.19325 0.31434 -0.20170
 N422 N -0.20536 0.32474 -0.17842
 N423 N -0.19418 0.34609 -0.16624
 C424 C -0.15654 0.37957 -0.16155
 N425 N -0.16630 0.38671 -0.13589
 N426 N -0.15214 0.40432 -0.12048
 C427 C -0.12774 0.41555 -0.13019
 N428 N -0.11824 0.40881 -0.15610
 N429 N -0.13236 0.39110 -0.17149
 C430 C -0.11056 0.43240 -0.11166
 N431 N -0.08644 0.44443 -0.12110
 N432 N -0.06944 0.45733 -0.10339
 C433 C -0.07589 0.45849 -0.07561
 N434 N -0.10019 0.44679 -0.06631
 N435 N -0.11725 0.43408 -0.08401
 C436 C 0.14356 0.68317 -0.13450
 N437 N 0.16018 0.70127 -0.12121
 N438 N 0.17538 0.71897 -0.13590
 C439 C 0.17415 0.71944 -0.16438
 N440 N 0.15737 0.70146 -0.17761
 N441 N 0.14254 0.68354 -0.16296
 C442 C 0.12696 0.66335 -0.11865
 N443 N 0.11934 0.64022 -0.13099
 N444 N 0.10384 0.62228 -0.11706
 C445 C 0.09501 0.62692 -0.09042
 N446 N 0.10252 0.65012 -0.07805
 N447 N 0.11841 0.66794 -0.09186
 C448 C 0.07699 0.60729 -0.07584
 N449 N 0.05895 0.61446 -0.05505
 N450 N 0.04114 0.59676 -0.04352
 C451 C 0.04107 0.57121 -0.05212
 N452 N 0.05946 0.56402 -0.07253
 N453 N 0.07695 0.58174 -0.08428
 C454 C -0.16271 0.64108 0.17174
 N455 N -0.15015 0.65271 0.19418
 N456 N -0.16108 0.67416 0.20581
 C457 C -0.18497 0.68478 0.19542
 N458 N -0.19784 0.67277 0.17336
 N459 N -0.18692 0.65135 0.16174
 C460 C -0.14873 0.61974 0.15651
 N461 N -0.15965 0.61057 0.13207
 N462 N -0.14538 0.59363 0.11634
 C463 C -0.11967 0.58519 0.12448
 N464 N -0.10900 0.59393 0.14923
 N465 N -0.12326 0.61091 0.16495
 C466 C -0.10244 0.56941 0.10533
 N467 N -0.07610 0.56199 0.11271
 N468 N -0.05924 0.55043 0.09413
 C469 C -0.06806 0.54599 0.06748
 N470 N -0.09456 0.55297 0.06026
 N471 N -0.11144 0.56444 0.07886
 C472 C 1.14374 0.15473 0.67139
 N473 N 1.16841 0.14493 0.68094
 N474 N 1.18030 0.15454 0.70418
 C475 C 1.16806 0.17448 0.71860
 N476 N 1.14364 0.18451 0.70865
 N477 N 1.13164 0.17473 0.68564
 C478 C 1.12931 0.14293 0.64712
 N479 N 1.10128 0.14666 0.64332
 N480 N 1.08756 0.13462 0.62250
 C481 C 1.10147 0.11872 0.60442
 N482 N 1.12960 0.11533 0.60794
 N483 N 1.14326 0.12712 0.62897
 C484 C 1.08596 0.10329 0.58326
 N485 N 1.10005 0.09125 0.56214
 N486 N 1.08667 0.07440 0.54518
 C487 C 1.05874 0.06882 0.54877
 N488 N 1.04450 0.08128 0.56954
 N489 N 1.05782 0.09838 0.58632
 C490 C 0.86252 -0.14782 0.66694
 N491 N 0.87124 -0.17077 0.67838
 N492 N 0.85544 -0.18336 0.69758
 C493 C 0.83044 -0.17336 0.70633
 N494 N 0.82181 -0.15029 0.69493
 N495 N 0.83748 -0.13785 0.67550
 C496 C 0.87983 -0.13390 0.64568
 N497 N 0.90760 -0.13939 0.64214
 N498 N 0.92330 -0.12623 0.62322
 C499 C 0.91165 -0.10735 0.60693
 N500 N 0.88385 -0.10209 0.61035
 N501 N 0.86827 -0.11501 0.62942
 C502 C 0.92864 -0.09181 0.58668
 N503 N 0.91541 -0.07647 0.56773
 N504 N 0.93013 -0.06029 0.55097
 C505 C 0.95869 -0.05870 0.55244
 N506 N 0.97212 -0.07439 0.57107
 N507 N 0.95732 -0.09079 0.58781
 C508 C 1.13941 -0.16383 0.33909
 N509 N 1.12624 -0.18216 0.32282
 N510 N 1.14058 -0.19519 0.30327
 C511 C 1.16858 -0.19017 0.29899
 N512 N 1.18170 -0.17177 0.31531
 N513 N 1.16742 -0.15895 0.33504
 C514 C 1.12356 -0.14883 0.36011
 N515 N 1.13743 -0.13472 0.38006
 N516 N 1.12326 -0.12003 0.39829
 C517 C 1.09470 -0.11872 0.39715
 N518 N 1.08078 -0.13295 0.37728
 N519 N 1.09494 -0.14787 0.35920
 C520 C 1.07965 -0.10039 0.41556
 N521 N 1.05303 -0.09278 0.40949
 N522 N 1.04088 -0.07360 0.42411
 C523 C 1.05482 -0.06156 0.44552
 N524 N 1.08111 -0.06970 0.45202
 N525 N 1.09331 -0.08871 0.43730
 C526 C 0.87248 0.16023 0.32824
 N527 N 0.88141 0.18385 0.31764
 N528 N 0.86597 0.19643 0.29873
 C529 C 0.84119 0.18574 0.28944
 N530 N 0.83243 0.16202 0.29997
 N531 N 0.84768 0.14961 0.31912
 C532 C 0.88908 0.14626 0.34933
 N533 N 0.87657 0.12718 0.36533
 N534 N 0.89139 0.11396 0.38414
 C535 C 0.91937 0.11909 0.38754
 N536 N 0.93201 0.13817 0.37152
 N537 N 0.91705 0.15166 0.35286
 C538 C 0.93537 0.10310 0.40745
 N539 N 0.96396 0.10138 0.40590
 N540 N 0.97762 0.08439 0.42220
 C541 C 0.96312 0.06878 0.44075
 N542 N 0.93470 0.07106 0.44264
 N543 N 0.92111 0.08782 0.42633
 C544 C 0.12310 0.31016 -0.12362
 N545 N 0.14096 0.29509 -0.10856
 N546 N 0.15474 0.27546 -0.12080
 C547 C 0.15083 0.26996 -0.14844
 N548 N 0.13272 0.28494 -0.16333
 N549 N 0.11928 0.30476 -0.15120
 C550 C 0.10821 0.33212 -0.11062
 N551 N 0.09871 0.35209 -0.12680
 N552 N 0.08481 0.37198 -0.11534
 C553 C 0.07956 0.37244 -0.08734
 N554 N 0.08896 0.35241 -0.07111
 N555 N 0.10323 0.33266 -0.08254
 C556 C 0.06345 0.39405 -0.07518
 N557 N 0.04920 0.39085 -0.05055
 N558 N 0.03340 0.41017 -0.04043
 C559 C 0.03161 0.43346 -0.05441
 N560 N 0.04616 0.43675 -0.07881
 N561 N 0.06163 0.41733 -0.08911
 C562 C -0.16117 0.36054 0.16820
 N563 N -0.14808 0.34876 0.19002
 N564 N -0.15793 0.32593 0.20038
 C565 C -0.18115 0.31398 0.18923
 N566 N -0.19445 0.32596 0.16764
 N567 N -0.18461 0.34879 0.15729
 C568 C -0.14866 0.38412 0.15479
 N569 N -0.16036 0.39425 0.13130
 N570 N -0.14726 0.41355 0.11703
 C571 C -0.12202 0.42349 0.12577
 N572 N -0.11063 0.41380 0.14966
 N573 N -0.12373 0.39447 0.16393
 C574 C -0.10555 0.44137 0.10747
 N575 N -0.07915 0.44957 0.11474
 N576 N -0.06247 0.46210 0.09622
 C577 C -0.07159 0.46676 0.06975
 N578 N -0.09825 0.45922 0.06277
 N579 N -0.11494 0.44682 0.08129
 C580 C -0.16547 0.65934 -0.16507
 N581 N -0.18887 0.67017 -0.15364
 N582 N -0.19992 0.69174 -0.16483
 C583 C -0.18788 0.70340 -0.18779
 N584 N -0.16465 0.69233 -0.19936
 N585 N -0.15364 0.67074 -0.18821
 C586 C -0.15193 0.63690 -0.15147
 N587 N -0.12805 0.62662 -0.16250
 N588 N -0.11431 0.60785 -0.14889
 C589 C -0.12396 0.59868 -0.12375
 N590 N -0.14809 0.60867 -0.11295
 N591 N -0.16185 0.62741 -0.12658
 C592 C -0.10709 0.58044 -0.10713
 N593 N -0.11469 0.57460 -0.08030
 N594 N -0.09779 0.56069 -0.06396
 C595 C -0.07270 0.55201 -0.07386
 N596 N -0.06535 0.55733 -0.10090
 N597 N -0.08224 0.57134 -0.11723
 C598 C 0.14037 0.67287 0.13378
 N599 N 0.16899 0.67267 0.13467
 N600 N 0.18301 0.68847 0.15226
 C601 C 0.16891 0.70477 0.16983
 N602 N 0.14029 0.70477 0.16909
 N603 N 0.12629 0.68919 0.15130
 C604 C 0.12473 0.65583 0.11425
 N605 N 0.09732 0.66072 0.10857
 N606 N 0.08271 0.64506 0.09138
 C607 C 0.09489 0.62381 0.07937
 N608 N 0.12236 0.61889 0.08499
 N609 N 0.13709 0.63475 0.10200
 C610 C 0.07780 0.60576 0.06214
 N611 N 0.08640 0.58087 0.05652
 N612 N 0.06927 0.56373 0.04352
 C613 C 0.04307 0.57100 0.03551
 N614 N 0.03483 0.59605 0.04055
 N615 N 0.05183 0.61308 0.05366
 C616 C 0.31513 1.13592 0.88368
 N617 N 0.29342 1.14736 0.89745
 N618 N 0.27283 1.15881 0.88328
 C619 C 0.27290 1.15892 0.85478
 N620 N 0.29451 1.14728 0.84095
 N621 N 0.31532 1.13609 0.85516
 C622 C 0.33776 1.12334 0.89954
 N623 N 0.36307 1.11842 0.88729
 N624 N 0.38338 1.10672 0.90173
 C625 C 0.37903 1.09934 0.92886
 N626 N 0.35372 1.10425 0.94108
 N627 N 0.33355 1.11623 0.92675
 C628 C 0.40054 1.08457 0.94409
 N629 N 0.39300 1.06894 0.96616
 N630 N 0.41180 1.05344 0.97827
 C631 C 0.43899 1.05337 0.96912
 N632 N 0.44671 1.06949 0.94748
 N633 N 0.42780 1.08474 0.93512
 C634 C 0.34619 0.82950 1.16618
 N635 N 0.33748 0.83699 1.19214
 N636 N 0.31663 0.82384 1.20530
 C637 C 0.30382 0.80267 1.19301
 N638 N 0.31289 0.79499 1.16725
 N639 N 0.33361 0.80818 1.15406
 C640 C 0.36740 0.84521 1.15054
 N641 N 0.37216 0.84042 1.12290
 N642 N 0.38984 0.85579 1.10805
 C643 C 0.40355 0.87643 1.12034
 N644 N 0.39910 0.88101 1.14808
 N645 N 0.38129 0.86572 1.16290
 C646 C 0.42135 0.89457 1.10354
 N647 N 0.43650 0.91416 1.11613
 N648 N 0.45099 0.93183 1.10082
 C649 C 0.45079 0.93066 1.07236
 N650 N 0.43587 0.91092 1.05975
 N651 N 0.42149 0.89315 1.07508
 C652 C 0.67409 1.15624 1.14499
 N653 N 0.68226 1.14819 1.17085
 N654 N 0.70222 1.16144 1.18480
 C655 C 0.71461 1.18342 1.17354
 N656 N 0.70631 1.19160 1.14773
 N657 N 0.68651 1.17819 1.13366
 C658 C 0.65243 1.14109 1.12961
 N659 N 0.64821 1.14500 1.10172
 N660 N 0.62922 1.13036 1.08783
 C661 C 0.61361 1.11149 1.10143
 N662 N 0.61769 1.10785 1.12933
 N663 N 0.63676 1.12229 1.14312
 C664 C 0.59359 1.09413 1.08644
 N665 N 0.57672 1.07727 1.10134
 N666 N 0.56024 1.05972 1.08836
 C667 C 0.55991 1.05825 1.05995
 N668 N 0.57644 1.07538 1.04488
 N669 N 0.59294 1.09309 1.05792
 C670 C 0.66230 0.85043 0.85352
 N671 N 0.67464 0.82864 0.86412
 N672 N 0.69448 0.81625 0.84957
 C673 C 0.70295 0.82529 0.82394
 N674 N 0.69061 0.84711 0.81332
 N675 N 0.67060 0.85940 0.82781
 C676 C 0.64101 0.86454 0.87003
 N677 N 0.62582 0.88407 0.85823
 N678 N 0.60731 0.89748 0.87350
 C679 C 0.60339 0.89198 0.90118
 N680 N 0.61850 0.87237 0.91296
 N681 N 0.63686 0.85882 0.89763
 C682 C 0.58462 0.90825 0.91843
 N683 N 0.58556 0.90714 0.94690
 N684 N 0.57067 0.92378 0.96248
 C685 C 0.55403 0.94196 0.95015
 N686 N 0.55263 0.94266 0.92171
 N687 N 0.56765 0.92615 0.90615
   
