data_POSCAR
  _audit_creation_date              2014-09-24
  _audit_creation_method            'ToBaCCo'
  _symmetry_space_group_name_H-M    'P1'
  _symmetry_Int_Tables_number       1
  _symmetry_cell_setting            triclinic
  loop_
  _symmetry_equiv_pos_as_xyz
 x,y,z
_cell_length_a 58.1764
_cell_length_b 58.3752
_cell_length_c 58.5208
_cell_angle_alpha 89.897100
_cell_angle_beta 90.037900
_cell_angle_gamma 90.169300
loop_
  _atom_site_label
  _atom_site_type_symbol
  _atom_site_fract_x
  _atom_site_fract_y
  _atom_site_fract_z
N1 N 0.16628 0.22412 0.22371
 N2 N 0.17130 0.20630 0.23656
 C3 C 0.15569 0.20462 0.25350
 C4 C 0.14027 0.22234 0.25102
 C5 C 0.14736 0.23439 0.23202
 H6 H 0.15532 0.19139 0.26645
 H7 H 0.13918 0.24929 0.22464
 Cu8 Cu 0.19730 0.18670 0.22936
 Cu9 Cu 0.18422 0.23235 0.19681
 Cu10 Cu 0.23072 0.19769 0.18380
 N11 N 0.22338 0.16734 0.22186
 N12 N 0.23640 0.17177 0.20400
 C13 C 0.25280 0.15562 0.20236
 C14 C 0.24981 0.14038 0.22011
 C15 C 0.23106 0.14817 0.23218
 H16 H 0.26571 0.15482 0.18909
 H17 H 0.22347 0.14027 0.24711
 N18 N 0.22218 0.22469 0.16542
 N19 N 0.20444 0.23786 0.17034
 C20 C 0.20283 0.25452 0.15444
 C21 C 0.22038 0.25159 0.13896
 C22 C 0.23233 0.23262 0.14627
 H23 H 0.18978 0.26766 0.15398
 H24 H 0.24714 0.22507 0.13809
 H25 H 0.19575 0.19965 0.18975
 H26 H 0.21471 0.21804 0.20783
 N27 N 0.66730 0.72443 0.72437
 N28 N 0.67261 0.70683 0.73741
 C29 C 0.65693 0.70498 0.75427
 C30 C 0.64116 0.72235 0.75155
 C31 C 0.64813 0.73438 0.73249
 H32 H 0.65678 0.69187 0.76735
 H33 H 0.63971 0.74907 0.72496
 Cu34 Cu 0.69910 0.68769 0.73078
 Cu35 Cu 0.68524 0.73277 0.69756
 Cu36 Cu 0.73180 0.69835 0.68445
 N37 N 0.72489 0.66817 0.72266
 N38 N 0.73761 0.67243 0.70456
 C39 C 0.75385 0.65615 0.70269
 C40 C 0.75106 0.64100 0.72055
 C41 C 0.73260 0.64897 0.73291
 H42 H 0.76652 0.65522 0.68921
 H43 H 0.72522 0.64119 0.74801
 N44 N 0.72320 0.72534 0.66615
 N45 N 0.70544 0.73847 0.67114
 C46 C 0.70379 0.75518 0.65530
 C47 C 0.72133 0.75234 0.63979
 C48 C 0.73331 0.73336 0.64702
 H49 H 0.69071 0.76830 0.65490
 H50 H 0.74812 0.72586 0.63879
 H51 H 0.69688 0.69998 0.69099
 H52 H 0.71597 0.71886 0.70848
 N53 N 0.33369 0.77731 0.72465
 N54 N 0.32880 0.79537 0.73715
 C55 C 0.34454 0.79733 0.75396
 C56 C 0.35993 0.77957 0.75175
 C57 C 0.35267 0.76718 0.73306
 H58 H 0.34503 0.81080 0.76662
 H59 H 0.36080 0.75218 0.72591
 Cu60 Cu 0.30275 0.81483 0.72968
 Cu61 Cu 0.31557 0.76869 0.69800
 Cu62 Cu 0.26880 0.80303 0.68474
 N63 N 0.27640 0.83388 0.72228
 N64 N 0.26316 0.82914 0.70464
 C65 C 0.24654 0.84508 0.70304
 C66 C 0.24963 0.86047 0.72060
 C67 C 0.26864 0.85302 0.73251
 H68 H 0.23340 0.84559 0.68995
 H69 H 0.27634 0.86109 0.74729
 N70 N 0.27734 0.77587 0.66670
 N71 N 0.29516 0.76280 0.67174
 C72 C 0.29679 0.74604 0.65602
 C73 C 0.27919 0.74878 0.64052
 C74 C 0.26718 0.76775 0.64765
 H75 H 0.30996 0.73302 0.65562
 H76 H 0.25238 0.77524 0.63934
 H77 H 0.30383 0.80121 0.69032
 H78 H 0.28513 0.78311 0.70899
 N79 N 0.83358 0.27495 0.22458
 N80 N 0.82831 0.29250 0.23763
 C81 C 0.84404 0.29433 0.25446
 C82 C 0.85979 0.27697 0.25167
 C83 C 0.85280 0.26498 0.23264
 H84 H 0.84424 0.30741 0.26752
 H85 H 0.86121 0.25034 0.22505
 Cu86 Cu 0.80179 0.31166 0.23105
 Cu87 Cu 0.81557 0.26675 0.19778
 Cu88 Cu 0.76900 0.30124 0.18472
 N89 N 0.77598 0.33122 0.22299
 N90 N 0.76323 0.32706 0.20489
 C91 C 0.74695 0.34332 0.20309
 C92 C 0.74975 0.35834 0.22101
 C93 C 0.76826 0.35031 0.23332
 H94 H 0.73421 0.34430 0.18966
 H95 H 0.77563 0.35797 0.24847
 N96 N 0.77758 0.27433 0.16638
 N97 N 0.79533 0.26117 0.17137
 C98 C 0.79699 0.24455 0.15551
 C99 C 0.77947 0.24749 0.13996
 C100 C 0.76748 0.26643 0.14721
 H101 H 0.81009 0.23146 0.15508
 H102 H 0.75270 0.27400 0.13895
 H103 H 0.80391 0.29959 0.19124
 H104 H 0.78484 0.28064 0.20871
 N105 N 0.83313 0.72452 0.27604
 N106 N 0.82846 0.70634 0.26360
 C107 C 0.84423 0.70459 0.24684
 C108 C 0.85941 0.72263 0.24901
 C109 C 0.85200 0.73495 0.26764
 H110 H 0.84487 0.69111 0.23420
 H111 H 0.85993 0.75015 0.27472
 Cu112 Cu 0.80260 0.68649 0.27105
 Cu113 Cu 0.81483 0.73298 0.30257
 Cu114 Cu 0.76839 0.69795 0.31577
 N115 N 0.77641 0.66705 0.27842
 N116 N 0.76309 0.67167 0.29597
 C117 C 0.74664 0.65547 0.29760
 C118 C 0.74991 0.64002 0.28015
 C119 C 0.76887 0.64773 0.26828
 H120 H 0.73348 0.65482 0.31063
 H121 H 0.77667 0.63969 0.25358
 N122 N 0.77658 0.72532 0.33371
 N123 N 0.79427 0.73866 0.32871
 C124 C 0.79564 0.75554 0.34434
 C125 C 0.77799 0.75258 0.35974
 C126 C 0.76624 0.73337 0.35266
 H127 H 0.80864 0.76882 0.34472
 H128 H 0.75146 0.72570 0.36090
 H129 H 0.80342 0.70031 0.31034
 H130 H 0.78460 0.71802 0.29150
 N131 N 0.33393 0.22496 -0.22517
 N132 N 0.32914 0.20683 -0.23765
 C133 C 0.34490 0.20501 -0.25443
 C134 C 0.36016 0.22297 -0.25220
 C135 C 0.35286 0.23531 -0.23354
 H136 H 0.34546 0.19153 -0.26708
 H137 H 0.36088 0.25043 -0.22639
 Cu138 Cu 0.30317 0.18711 -0.23022
 Cu139 Cu 0.31575 0.23342 -0.19856
 Cu140 Cu 0.26914 0.19863 -0.18536
 N141 N 0.27687 0.16782 -0.22285
 N142 N 0.26361 0.17245 -0.20525
 C143 C 0.24707 0.15634 -0.20364
 C144 C 0.25021 0.14092 -0.22114
 C145 C 0.26919 0.14856 -0.23303
 H146 H 0.23396 0.15570 -0.19056
 H147 H 0.27694 0.14051 -0.24775
 N148 N 0.27756 0.22589 -0.16732
 N149 N 0.29531 0.23914 -0.17235
 C150 C 0.29689 0.25591 -0.15662
 C151 C 0.27933 0.25298 -0.14113
 C152 C 0.26739 0.23388 -0.14826
 H153 H 0.31002 0.26905 -0.15621
 H154 H 0.25265 0.22623 -0.13995
 H155 H 0.30416 0.20079 -0.19087
 H156 H 0.28539 0.21867 -0.20960
 N157 N 0.66586 0.27511 -0.22434
 N158 N 0.67068 0.29322 -0.23690
 C159 C 0.65498 0.29501 -0.25376
 C160 C 0.63972 0.27705 -0.25150
 C161 C 0.64696 0.26474 -0.23275
 H162 H 0.65448 0.30846 -0.26649
 H163 H 0.63893 0.24961 -0.22558
 Cu164 Cu 0.69665 0.31294 -0.22950
 Cu165 Cu 0.68402 0.26664 -0.19767
 Cu166 Cu 0.73069 0.30138 -0.18459
 N167 N 0.72298 0.33221 -0.22217
 N168 N 0.73625 0.32754 -0.20456
 C169 C 0.75282 0.34362 -0.20299
 C170 C 0.74969 0.35905 -0.22055
 C171 C 0.73068 0.35145 -0.23242
 H172 H 0.76595 0.34422 -0.18992
 H173 H 0.72293 0.35952 -0.24717
 N174 N 0.72226 0.27415 -0.16645
 N175 N 0.70447 0.26093 -0.17140
 C176 C 0.70294 0.24413 -0.15563
 C177 C 0.72059 0.24703 -0.14020
 C178 C 0.73251 0.26611 -0.14741
 H179 H 0.68985 0.23095 -0.15518
 H180 H 0.74734 0.27370 -0.13920
 H181 H 0.69565 0.29925 -0.19011
 H182 H 0.71437 0.28133 -0.20876
 N183 N 0.16708 0.77538 0.27583
 N184 N 0.17187 0.79348 0.26324
 C185 C 0.15621 0.79516 0.24634
 C186 C 0.14098 0.77716 0.24857
 C187 C 0.14825 0.76494 0.26738
 H188 H 0.15567 0.80857 0.23359
 H189 H 0.14024 0.74981 0.27455
 Cu190 Cu 0.19772 0.81334 0.27069
 Cu191 Cu 0.18518 0.76705 0.30258
 Cu192 Cu 0.23168 0.80199 0.31573
 N193 N 0.22395 0.83273 0.27807
 N194 N 0.23719 0.82813 0.29572
 C195 C 0.25369 0.84428 0.29733
 C196 C 0.25052 0.85966 0.27974
 C197 C 0.23157 0.85200 0.26781
 H198 H 0.26678 0.84495 0.31045
 H199 H 0.22382 0.86001 0.25303
 N200 N 0.22329 0.77477 0.33390
 N201 N 0.20556 0.76148 0.32893
 C202 C 0.20404 0.74471 0.34473
 C203 C 0.22163 0.74769 0.36020
 C204 C 0.23351 0.76680 0.35298
 H205 H 0.19099 0.73149 0.34516
 H206 H 0.24829 0.77445 0.36122
 H207 H 0.19666 0.79972 0.31010
 H208 H 0.21550 0.78184 0.29153
 N209 N 0.47334 0.41636 0.47372
 N210 N 0.45537 0.42139 0.48639
 C211 C 0.45339 0.40572 0.50322
 C212 C 0.47105 0.39023 0.50087
 C213 C 0.48339 0.39734 0.48205
 H214 H 0.44000 0.40537 0.51602
 H215 H 0.49834 0.38912 0.47480
 Cu216 Cu 0.43606 0.44756 0.47913
 Cu217 Cu 0.48200 0.43442 0.44704
 Cu218 Cu 0.44796 0.48144 0.43420
 N219 N 0.41719 0.47407 0.47194
 N220 N 0.42196 0.48727 0.45431
 C221 C 0.40615 0.50402 0.45290
 C222 C 0.39079 0.50107 0.47058
 C223 C 0.39815 0.48199 0.48235
 H224 H 0.40570 0.51718 0.43987
 H225 H 0.39008 0.47438 0.49718
 N226 N 0.47499 0.47272 0.41593
 N227 N 0.48795 0.45481 0.42080
 C228 C 0.50470 0.45315 0.40500
 C229 C 0.50207 0.47083 0.38963
 C230 C 0.48317 0.48292 0.39691
 H231 H 0.51770 0.43995 0.40451
 H232 H 0.47582 0.49785 0.38878
 H233 H 0.46795 0.46484 0.45825
 H234 H 0.44946 0.44648 0.43967
 N235 N -0.02692 -0.08395 0.97349
 N236 N -0.04504 -0.07890 0.98593
 C237 C -0.04719 -0.09451 1.00279
 C238 C -0.02948 -0.10999 1.00069
 C239 C -0.01693 -0.10292 0.98200
 H240 H -0.06074 -0.09486 1.01543
 H241 H -0.00190 -0.11115 0.97494
 Cu242 Cu -0.06432 -0.05281 0.97831
 Cu243 Cu -0.01801 -0.06603 0.94680
 Cu244 Cu -0.05201 -0.01915 0.93333
 N245 N -0.08318 -0.02640 0.97077
 N246 N -0.07823 -0.01328 0.95313
 C247 C -0.09409 0.00340 0.95141
 C248 C -0.10967 0.00048 0.96889
 C249 C -0.10239 -0.01850 0.98088
 H250 H -0.09444 0.01646 0.93828
 H251 H -0.11065 -0.02608 0.99562
 N252 N -0.02476 -0.02792 0.91539
 N253 N -0.01183 -0.04579 0.92050
 C254 C 0.00503 -0.04759 0.90482
 C255 C 0.00249 -0.03004 0.88928
 C256 C -0.01646 -0.01789 0.89634
 H257 H 0.01799 -0.06082 0.90449
 H258 H -0.02381 -0.00308 0.88799
 H259 H -0.03226 -0.03557 0.95768
 H260 H -0.05050 -0.05408 0.93900
 N261 N 1.02681 0.58450 0.97353
 N262 N 1.04471 0.57935 0.98628
 C263 C 1.04668 0.59496 1.00312
 C264 C 1.02907 0.61052 1.00067
 C265 C 1.01678 0.60350 0.98181
 H266 H 1.05998 0.59518 1.01604
 H267 H 1.00184 0.61175 0.97452
 Cu268 Cu 1.06386 0.55302 0.97923
 Cu269 Cu 1.01815 0.56658 0.94683
 Cu270 Cu 1.05207 0.51956 0.93400
 N271 N 1.08276 0.52661 0.97187
 N272 N 1.07801 0.51356 0.95417
 C273 C 1.09384 0.49684 0.95269
 C274 C 1.10919 0.49965 0.97041
 C275 C 1.10181 0.51862 0.98226
 H276 H 1.09432 0.48380 0.93959
 H277 H 1.10989 0.52613 0.99713
 N278 N 1.02508 0.52845 0.91566
 N279 N 1.01217 0.54636 0.92055
 C280 C 0.99546 0.54820 0.90469
 C281 C 0.99808 0.53063 0.88925
 C282 C 1.01692 0.51842 0.89657
 H283 H 0.98252 0.56145 0.90419
 H284 H 1.02426 0.50354 0.88839
 H285 H 1.03204 0.53600 0.95801
 H286 H 1.05073 0.55447 0.93967
 N287 N 0.52613 0.08415 0.47417
 N288 N 0.54372 0.07863 0.48718
 C289 C 0.54578 0.09422 0.50404
 C290 C 0.52855 0.11015 0.50133
 C291 C 0.51639 0.10338 0.48229
 H292 H 0.55893 0.09419 0.51711
 H293 H 0.50174 0.11194 0.47479
 Cu294 Cu 0.56256 0.05197 0.48053
 Cu295 Cu 0.51750 0.06642 0.44738
 Cu296 Cu 0.55139 0.01958 0.43422
 N297 N 0.58180 0.02602 0.47237
 N298 N 0.57732 0.01342 0.45428
 C299 C 0.59345 -0.00297 0.45235
 C300 C 0.60872 -0.00040 0.47016
 C301 C 0.60098 0.01809 0.48255
 H302 H 0.59420 -0.01558 0.43886
 H303 H 0.60893 0.02534 0.49761
 N304 N 0.52440 0.02854 0.41597
 N305 N 0.51149 0.04642 0.42098
 C306 C 0.49474 0.04832 0.40518
 C307 C 0.49734 0.03084 0.38965
 C308 C 0.51621 0.01861 0.39685
 H309 H 0.48177 0.06155 0.40480
 H310 H 0.52352 0.00376 0.38860
 H311 H 0.53106 0.03559 0.45828
 H312 H 0.55026 0.05438 0.44076
 N313 N -0.02650 0.08438 0.52627
 N314 N -0.04464 0.07941 0.51376
 C315 C -0.04668 0.09511 0.49698
 C316 C -0.02887 0.11057 0.49920
 C317 C -0.01639 0.10340 0.51789
 H318 H -0.06020 0.09552 0.48430
 H319 H -0.00131 0.11157 0.52503
 Cu320 Cu -0.06409 0.05326 0.52111
 Cu321 Cu -0.01773 0.06625 0.55285
 Cu322 Cu -0.05201 0.01926 0.56586
 N323 N -0.08308 0.02676 0.52839
 N324 N -0.07823 0.01350 0.54595
 C325 C -0.09414 -0.00323 0.54744
 C326 C -0.10965 -0.00022 0.52990
 C327 C -0.10226 0.01889 0.51812
 H328 H -0.09457 -0.01643 0.56043
 H329 H -0.11042 0.02655 0.50337
 N330 N -0.02475 0.02791 0.58394
 N331 N -0.01170 0.04581 0.57901
 C332 C 0.00521 0.04742 0.59470
 C333 C 0.00256 0.02970 0.61005
 C334 C -0.01649 0.01766 0.60288
 H335 H 0.01830 0.06059 0.59512
 H336 H -0.02388 0.00273 0.61104
 H337 H -0.03214 0.03588 0.54168
 H338 H -0.05029 0.05423 0.56046
 N339 N 0.47460 0.58279 0.02559
 N340 N 0.45643 0.57791 0.01309
 C341 C 0.45442 0.59366 -0.00365
 C342 C 0.47227 0.60906 -0.00141
 C343 C 0.48476 0.60180 0.01725
 H344 H 0.44085 0.59417 -0.01628
 H345 H 0.49985 0.60994 0.02441
 Cu346 Cu 0.43687 0.55184 0.02045
 Cu347 Cu 0.48329 0.56464 0.05219
 Cu348 Cu 0.44876 0.51785 0.06525
 N349 N 0.41775 0.52544 0.02774
 N350 N 0.42253 0.51219 0.04532
 C351 C 0.40651 0.49557 0.04687
 C352 C 0.39100 0.49865 0.02934
 C353 C 0.39850 0.51768 0.01751
 H354 H 0.40598 0.48244 0.05993
 H355 H 0.39034 0.52540 0.00279
 N356 N 0.47604 0.52638 0.08334
 N357 N 0.48920 0.54420 0.07838
 C358 C 0.50607 0.54577 0.09411
 C359 C 0.50328 0.52813 0.10952
 C360 C 0.48419 0.51616 0.10234
 H361 H 0.51921 0.55890 0.09455
 H362 H 0.47667 0.50133 0.11056
 H363 H 0.46873 0.53433 0.04106
 H364 H 0.45066 0.55281 0.05980
 N365 N 0.52617 -0.08420 0.02682
 N366 N 0.54387 -0.07872 0.01391
 C367 C 0.54584 -0.09428 -0.00297
 C368 C 0.52844 -0.11015 -0.00039
 C369 C 0.51627 -0.10337 0.01860
 H370 H 0.55904 -0.09427 -0.01597
 H371 H 0.50153 -0.11190 0.02603
 Cu372 Cu 0.56296 -0.05217 0.02074
 Cu373 Cu 0.51765 -0.06651 0.05363
 Cu374 Cu 0.55192 -0.01978 0.06702
 N375 N 0.58242 -0.02630 0.02902
 N376 N 0.57798 -0.01368 0.04708
 C377 C 0.59422 0.00269 0.04906
 C378 C 0.60953 0.00008 0.03132
 C379 C 0.60169 -0.01840 0.01891
 H380 H 0.59500 0.01534 0.06251
 H381 H 0.60960 -0.02565 0.00385
 N382 N 0.52481 -0.02870 0.08514
 N383 N 0.51177 -0.04655 0.08006
 C384 C 0.49498 -0.04846 0.09582
 C385 C 0.49769 -0.03101 0.11139
 C386 C 0.51666 -0.01879 0.10427
 H387 H 0.48191 -0.06167 0.09614
 H388 H 0.52408 -0.00398 0.11257
 H389 H 0.53154 -0.03570 0.04285
 H390 H 0.55049 -0.05456 0.06045
 N391 N 1.02628 0.41654 0.52583
 N392 N 1.04440 0.42164 0.51335
 C393 C 1.04635 0.40613 0.49641
 C394 C 1.02850 0.39070 0.49852
 C395 C 1.01609 0.39767 0.51728
 H396 H 1.05984 0.40587 0.48371
 H397 H 1.00099 0.38946 0.52435
 Cu398 Cu 1.06390 0.44767 0.52098
 Cu399 Cu 1.01759 0.43428 0.55260
 Cu400 Cu 1.05189 0.48107 0.56610
 N401 N 1.08291 0.47408 0.52853
 N402 N 1.07806 0.48710 0.54621
 C403 C 1.09402 0.50376 0.54794
 C404 C 1.10957 0.50095 0.53043
 C405 C 1.10216 0.48204 0.51841
 H406 H 1.09449 0.51672 0.56112
 H407 H 1.11037 0.47452 0.50366
 N408 N 1.02467 0.47215 0.58412
 N409 N 1.01162 0.45432 0.57900
 C410 C 0.99482 0.45239 0.59474
 C411 C 0.99752 0.46982 0.61034
 C412 C 1.01651 0.48204 0.60325
 H413 H 0.98178 0.43916 0.59507
 H414 H 1.02395 0.49680 0.61162
 H415 H 1.03200 0.46480 0.54175
 H416 H 1.05019 0.44619 0.56033
 C417 C 0.34815 -0.02055 0.25450
 C418 C 0.36018 -0.00019 0.25019
 C419 C 0.34814 0.02009 0.24585
 C420 C 0.32399 0.02018 0.24571
 C421 C 0.31208 -0.00035 0.25013
 C422 C 0.32400 -0.02080 0.25457
 C423 C 0.38545 -0.00012 0.25024
 C424 C 0.39752 -0.00511 0.23017
 C425 C 0.42167 -0.00514 0.23006
 C426 C 0.43354 -0.00008 0.25038
 C427 C 0.42160 0.00495 0.27063
 C428 C 0.39745 0.00488 0.27038
 H429 H 0.35764 -0.03608 0.25813
 H430 H 0.35764 0.03568 0.24225
 H431 H 0.38805 -0.00922 0.21476
 H432 H 0.38794 0.00894 0.28576
 H433 H 0.29346 -0.00041 0.25011
 H434 H 0.45216 -0.00005 0.25043
 C435 C 0.15166 -0.02058 0.74570
 C436 C 0.13964 -0.00025 0.74973
 C437 C 0.15168 0.02011 0.75397
 C438 C 0.17583 0.02030 0.75425
 C439 C 0.18773 -0.00022 0.75015
 C440 C 0.17580 -0.02076 0.74589
 C441 C 0.11437 -0.00032 0.74968
 C442 C 0.10231 -0.00484 0.76989
 C443 C 0.07816 -0.00524 0.76997
 C444 C 0.06629 -0.00100 0.74946
 C445 C 0.07823 0.00352 0.72906
 C446 C 0.10237 0.00386 0.72936
 H447 H 0.14214 -0.03629 0.74274
 H448 H 0.14219 0.03568 0.75737
 H449 H 0.11179 -0.00836 0.78545
 H450 H 0.11189 0.00702 0.71375
 H451 H 0.20634 -0.00008 0.74970
 H452 H 0.04767 -0.00063 0.74951
 C453 C 0.65145 0.47869 0.24609
 C454 C 0.63945 0.49903 0.25017
 C455 C 0.65152 0.51931 0.25463
 C456 C 0.67566 0.51946 0.25502
 C457 C 0.68754 0.49894 0.25088
 C458 C 0.67559 0.47845 0.24644
 C459 C 0.61420 0.49905 0.25001
 C460 C 0.60204 0.49530 0.27032
 C461 C 0.57790 0.49535 0.27038
 C462 C 0.56610 0.49919 0.24975
 C463 C 0.57814 0.50297 0.22925
 C464 C 0.60229 0.50288 0.22957
 H465 H 0.64191 0.46302 0.24299
 H466 H 0.64204 0.53488 0.25808
 H467 H 0.61145 0.49263 0.28609
 H468 H 0.61188 0.50551 0.21391
 H469 H 0.70615 0.49904 0.25053
 H470 H 0.54749 0.49925 0.24965
 C471 C 0.84864 0.47948 0.75421
 C472 C 0.86078 0.49980 0.74999
 C473 C 0.84885 0.52016 0.74575
 C474 C 0.82470 0.52039 0.74563
 C475 C 0.81268 0.49990 0.74995
 C476 C 0.82449 0.47936 0.75429
 C477 C 0.88605 0.49976 0.74998
 C478 C 0.89803 0.49491 0.72982
 C479 C 0.92217 0.49490 0.72960
 C480 C 0.93414 0.49982 0.74990
 C481 C 0.92229 0.50472 0.77023
 C482 C 0.89814 0.50463 0.77009
 H483 H 0.85806 0.46389 0.75775
 H484 H 0.85843 0.53572 0.74221
 H485 H 0.88849 0.49093 0.71441
 H486 H 0.88869 0.50862 0.78553
 H487 H 0.79407 0.49994 0.74993
 H488 H 0.95276 0.49985 0.74986
 C489 C 0.25411 0.35133 -0.02110
 C490 C 0.24964 0.36317 -0.00080
 C491 C 0.24553 0.35103 0.01945
 C492 C 0.24586 0.32697 0.01960
 C493 C 0.25032 0.31525 -0.00089
 C494 C 0.25451 0.32727 -0.02132
 C495 C 0.24962 0.38835 -0.00066
 C496 C 0.22916 0.40032 -0.00453
 C497 C 0.22894 0.42439 -0.00412
 C498 C 0.24954 0.43627 0.00018
 C499 C 0.27017 0.42442 0.00413
 C500 C 0.27003 0.40036 0.00364
 H501 H 0.25760 0.36092 -0.03659
 H502 H 0.24243 0.36039 0.03512
 H503 H 0.21341 0.39084 -0.00753
 H504 H 0.28569 0.39090 0.00695
 H505 H 0.24997 0.29670 -0.00106
 H506 H 0.24964 0.45482 -0.00011
 C507 C 0.74624 0.14829 -0.02021
 C508 C 0.75021 0.13638 0.00019
 C509 C 0.75445 0.14845 0.02042
 C510 C 0.75481 0.17251 0.02042
 C511 C 0.75073 0.18430 -0.00016
 C512 C 0.74645 0.17235 -0.02057
 C513 C 0.75019 0.11120 0.00031
 C514 C 0.77041 0.09925 -0.00463
 C515 C 0.77057 0.07519 -0.00463
 C516 C 0.75015 0.06327 0.00038
 C517 C 0.72974 0.07510 0.00535
 C518 C 0.72994 0.09917 0.00527
 H519 H 0.74328 0.13876 -0.03582
 H520 H 0.75783 0.13904 0.03604
 H521 H 0.78591 0.10874 -0.00872
 H522 H 0.71445 0.10860 0.00930
 H523 H 0.75032 0.20285 -0.00016
 H524 H 0.75013 0.04472 0.00040
 C525 C 0.24675 0.64911 0.48046
 C526 C 0.25062 0.63725 0.50091
 C527 C 0.25472 0.64939 0.52114
 C528 C 0.25504 0.67345 0.52108
 C529 C 0.25110 0.68518 0.50044
 C530 C 0.24696 0.67317 0.48004
 C531 C 0.25061 0.61208 0.50111
 C532 C 0.27101 0.60012 0.49692
 C533 C 0.27123 0.57605 0.49723
 C534 C 0.25068 0.56415 0.50173
 C535 C 0.23010 0.57598 0.50597
 C536 C 0.23025 0.60005 0.50561
 H537 H 0.24389 0.63954 0.46486
 H538 H 0.25801 0.64002 0.53680
 H539 H 0.28672 0.60961 0.49374
 H540 H 0.21464 0.60949 0.50910
 H541 H 0.25067 0.70373 0.50038
 H542 H 0.25056 0.54560 0.50135
 C543 C 0.75302 0.85173 0.47915
 C544 C 0.74937 0.86370 0.49953
 C545 C 0.74570 0.85167 0.51993
 C546 C 0.74566 0.82761 0.52014
 C547 C 0.74933 0.81577 0.49956
 C548 C 0.75303 0.82767 0.47898
 C549 C 0.74943 0.88887 0.49951
 C550 C 0.72912 0.90087 0.49497
 C551 C 0.72906 0.92493 0.49470
 C552 C 0.74967 0.93680 0.49901
 C553 C 0.77018 0.92492 0.50353
 C554 C 0.76986 0.90086 0.50379
 H555 H 0.75560 0.86122 0.46342
 H556 H 0.74317 0.86112 0.53565
 H557 H 0.71348 0.89140 0.49139
 H558 H 0.78554 0.89139 0.50696
 H559 H 0.74932 0.79721 0.49957
 H560 H 0.74963 0.95535 0.49945
 C561 C -0.02085 0.25399 0.35021
 C562 C -0.00034 0.25043 0.36223
 C563 C 0.02018 0.24676 0.35032
 C564 C 0.02039 0.24665 0.32631
 C565 C -0.00031 0.25021 0.31442
 C566 C -0.02102 0.25389 0.32621
 C567 C -0.00039 0.25054 0.38735
 C568 C -0.00476 0.23025 0.39942
 C569 C -0.00512 0.23022 0.42342
 C570 C -0.00103 0.25084 0.43514
 C571 C 0.00332 0.27131 0.42320
 C572 C 0.00366 0.27097 0.39920
 H573 H -0.03667 0.25655 0.35961
 H574 H 0.03599 0.24429 0.35980
 H575 H -0.00817 0.21461 0.39005
 H576 H 0.00670 0.28663 0.38968
 H577 H -0.00030 0.25012 0.29591
 H578 H -0.00066 0.25083 0.45365
 C579 C -0.02060 0.74659 0.14935
 C580 C -0.00008 0.74998 0.13731
 C581 C 0.02055 0.75333 0.14919
 C582 C 0.02085 0.75332 0.17320
 C583 C 0.00014 0.74990 0.18512
 C584 C -0.02068 0.74651 0.17336
 C585 C -0.00021 0.75003 0.11220
 C586 C -0.00491 0.77029 0.10026
 C587 C -0.00533 0.77046 0.07626
 C588 C -0.00101 0.75000 0.06440
 C589 C 0.00362 0.72953 0.07621
 C590 C 0.00407 0.72974 0.10021
 H591 H -0.03650 0.74427 0.13998
 H592 H 0.03637 0.75568 0.13969
 H593 H -0.00850 0.78581 0.10972
 H594 H 0.00734 0.71409 0.10964
 H595 H 0.00022 0.74987 0.20363
 H596 H -0.00069 0.75012 0.04590
 C597 C 0.47956 0.24667 0.64941
 C598 C 0.50013 0.25016 0.63747
 C599 C 0.52069 0.25359 0.64946
 C600 C 0.52086 0.25356 0.67347
 C601 C 0.50010 0.25005 0.68528
 C602 C 0.47936 0.24659 0.67341
 C603 C 0.50013 0.25020 0.61236
 C604 C 0.49560 0.27048 0.60038
 C605 C 0.49526 0.27063 0.57638
 C606 C 0.49950 0.25013 0.56456
 C607 C 0.50399 0.22965 0.57641
 C608 C 0.50434 0.22988 0.60041
 H609 H 0.46372 0.24429 0.63995
 H610 H 0.53655 0.25601 0.64005
 H611 H 0.49206 0.28603 0.60982
 H612 H 0.50747 0.21422 0.60986
 H613 H 0.50008 0.25001 0.70379
 H614 H 0.49987 0.25023 0.54605
 C615 C 0.48020 0.75460 0.85083
 C616 C 0.50057 0.75020 0.86280
 C617 C 0.52101 0.74627 0.85084
 C618 C 0.52128 0.74675 0.82684
 C619 C 0.50072 0.75115 0.81500
 C620 C 0.48009 0.75513 0.82684
 C621 C 0.50052 0.75003 0.88792
 C622 C 0.49627 0.72960 0.89979
 C623 C 0.49587 0.72934 0.92379
 C624 C 0.49986 0.74986 0.93572
 C625 C 0.50411 0.77048 0.92398
 C626 C 0.50442 0.77037 0.89997
 H627 H 0.46455 0.75794 0.86028
 H628 H 0.53674 0.74320 0.86029
 H629 H 0.49294 0.71403 0.89027
 H630 H 0.50736 0.78613 0.89060
 H631 H 0.50065 0.75091 0.79650
 H632 H 0.50023 0.74967 0.95422
 C633 C 0.08279 0.23479 0.28889
 C634 C 0.06745 0.25175 0.28170
 C635 C 0.04726 0.25574 0.29397
 C636 C 0.12025 0.22669 0.26467
 C637 C 0.05776 0.22590 0.32085
 C638 C 0.07795 0.22192 0.30853
 C639 C 0.10327 0.23036 0.27586
 C640 C 0.04212 0.24278 0.31362
 H641 H 0.07105 0.26184 0.26656
 H642 H 0.03572 0.26906 0.28817
 H643 H 0.05416 0.21548 0.33575
 H644 H 0.08968 0.20869 0.31420
 C645 C 0.58355 0.73451 0.78930
 C646 C 0.56854 0.75191 0.78245
 C647 C 0.54837 0.75597 0.79474
 C648 C 0.62107 0.72653 0.76514
 C649 C 0.55823 0.72533 0.82095
 C650 C 0.57839 0.72127 0.80861
 C651 C 0.60405 0.73012 0.77630
 C652 C 0.54294 0.74267 0.81408
 H653 H 0.57239 0.76229 0.76757
 H654 H 0.53711 0.76964 0.78921
 H655 H 0.55438 0.71465 0.83561
 H656 H 0.58985 0.70771 0.81402
 C657 C 0.41787 0.76818 0.78938
 C658 C 0.41739 0.75406 0.80873
 C659 C 0.43758 0.74991 0.82103
 C660 C 0.38011 0.77552 0.76530
 C661 C 0.45878 0.77410 0.79469
 C662 C 0.43858 0.77823 0.78243
 C663 C 0.39722 0.77215 0.77642
 C664 C 0.45853 0.75982 0.81408
 H665 H 0.40146 0.74613 0.81421
 H666 H 0.43690 0.73864 0.83573
 H667 H 0.47457 0.78223 0.78910
 H668 H 0.43914 0.78924 0.76751
 C669 C -0.08346 0.26534 0.28860
 C670 C -0.07860 0.27841 0.30805
 C671 C -0.05839 0.27458 0.32042
 C672 C -0.12109 0.27305 0.26445
 C673 C -0.04787 0.24451 0.29393
 C674 C -0.06809 0.24835 0.28162
 C675 C -0.10402 0.26955 0.27558
 C676 C -0.04274 0.25765 0.31342
 H677 H -0.09035 0.29166 0.31357
 H678 H -0.05478 0.28514 0.33519
 H679 H -0.03633 0.23114 0.28831
 H680 H -0.07171 0.23810 0.26661
 C681 C -0.08305 0.73505 0.21108
 C682 C -0.06748 0.75191 0.21816
 C683 C -0.04728 0.75578 0.20580
 C684 C -0.12052 0.72704 0.23541
 C685 C -0.05827 0.72602 0.17906
 C686 C -0.07845 0.72216 0.19147
 C687 C -0.10353 0.73071 0.22420
 C688 C -0.04239 0.74279 0.18617
 H689 H -0.07090 0.76202 0.23329
 H690 H -0.03556 0.76903 0.21150
 H691 H -0.05486 0.71558 0.16418
 H692 H -0.09036 0.70901 0.18589
 C693 C 0.41682 0.23500 0.71084
 C694 C 0.42156 0.22209 0.69128
 C695 C 0.44180 0.22598 0.67896
 C696 C 0.37922 0.22704 0.73499
 C697 C 0.45256 0.25582 0.70571
 C698 C 0.43232 0.25192 0.71797
 C699 C 0.39628 0.23067 0.72385
 C700 C 0.45759 0.24282 0.68612
 H701 H 0.40972 0.20890 0.68565
 H702 H 0.44532 0.21553 0.66411
 H703 H 0.46422 0.26911 0.71145
 H704 H 0.42879 0.26204 0.73306
 C705 C 0.58328 0.26499 0.71118
 C706 C 0.56775 0.24806 0.71824
 C707 C 0.54756 0.24420 0.70587
 C708 C 0.62073 0.27295 0.73557
 C709 C 0.55844 0.27409 0.67915
 C710 C 0.57863 0.27794 0.69157
 C711 C 0.60375 0.26931 0.72432
 C712 C 0.54261 0.25725 0.68625
 H713 H 0.57121 0.23790 0.73337
 H714 H 0.53587 0.23090 0.71158
 H715 H 0.55498 0.28458 0.66427
 H716 H 0.59051 0.29114 0.68599
 C717 C 0.08346 0.76468 0.21060
 C718 C 0.07874 0.77763 0.19101
 C719 C 0.05848 0.77379 0.17868
 C720 C 0.12095 0.77273 0.23491
 C721 C 0.04770 0.74391 0.20546
 C722 C 0.06796 0.74776 0.21773
 C723 C 0.10396 0.76904 0.22368
 C724 C 0.04267 0.75697 0.18586
 H725 H 0.09059 0.79083 0.18538
 H726 H 0.05496 0.78429 0.16382
 H727 H 0.03603 0.73062 0.21122
 H728 H 0.07148 0.73760 0.23284
 C729 C 0.28651 0.08216 0.23236
 C730 C 0.30605 0.08267 0.24633
 C731 C 0.31833 0.06255 0.25059
 C732 C 0.26287 0.12000 0.22452
 C733 C 0.29158 0.04134 0.22685
 C734 C 0.27934 0.06147 0.22260
 C735 C 0.27372 0.10281 0.22813
 C736 C 0.31118 0.04164 0.24095
 H737 H 0.31172 0.09859 0.25401
 H738 H 0.33320 0.06327 0.26171
 H739 H 0.28584 0.02558 0.21893
 H740 H 0.26429 0.06090 0.21170
 C741 C 0.78757 0.58261 0.73251
 C742 C 0.80714 0.58297 0.74644
 C743 C 0.81931 0.56277 0.75062
 C744 C 0.76408 0.62058 0.72484
 C745 C 0.79238 0.54178 0.72689
 C746 C 0.78026 0.56200 0.72271
 C747 C 0.77488 0.60333 0.72837
 C748 C 0.81201 0.54192 0.74095
 H749 H 0.81292 0.59884 0.75415
 H750 H 0.83420 0.56338 0.76172
 H751 H 0.78653 0.52607 0.71894
 H752 H 0.76518 0.56154 0.71185
 C753 C 0.78671 0.41729 0.76732
 C754 C 0.77962 0.43794 0.77712
 C755 C 0.79195 0.45810 0.77297
 C756 C 0.76288 0.37942 0.77506
 C757 C 0.81865 0.43700 0.74925
 C758 C 0.80627 0.41685 0.75342
 C759 C 0.77382 0.39662 0.77149
 C760 C 0.81158 0.45787 0.75893
 H761 H 0.76455 0.43846 0.78798
 H762 H 0.78627 0.47383 0.78092
 H763 H 0.83353 0.43633 0.73817
 H764 H 0.81188 0.40096 0.74571
 C765 C 0.28656 -0.08302 0.26785
 C766 C 0.30611 -0.08340 0.25393
 C767 C 0.31838 -0.06320 0.24969
 C768 C 0.26290 -0.12099 0.27562
 C769 C 0.29160 -0.04216 0.27338
 C770 C 0.27938 -0.06238 0.27761
 C771 C 0.27377 -0.10374 0.27205
 C772 C 0.31121 -0.04233 0.25931
 H773 H 0.31180 -0.09928 0.24626
 H774 H 0.33325 -0.06382 0.23860
 H775 H 0.28585 -0.02644 0.28129
 H776 H 0.26432 -0.06191 0.28848
 C777 C 0.21327 -0.08280 0.73309
 C778 C 0.19367 -0.07768 0.72020
 C779 C 0.18138 -0.05757 0.72442
 C780 C 0.23708 -0.12040 0.72481
 C781 C 0.20827 -0.04767 0.75451
 C782 C 0.22051 -0.06778 0.75027
 C783 C 0.22612 -0.10332 0.72857
 C784 C 0.18860 -0.04229 0.74158
 H785 H 0.18796 -0.08916 0.70680
 H786 H 0.16648 -0.05377 0.71400
 H787 H 0.21408 -0.03641 0.76803
 H788 H 0.23563 -0.07161 0.76039
 C789 C 0.71296 0.41632 0.23374
 C790 C 0.72015 0.43129 0.25098
 C791 C 0.70795 0.45144 0.25518
 C792 C 0.73663 0.37864 0.22549
 C793 C 0.68120 0.44167 0.22493
 C794 C 0.69344 0.42152 0.22075
 C795 C 0.72575 0.39576 0.22925
 C796 C 0.68836 0.45689 0.24216
 H797 H 0.73520 0.42741 0.26117
 H798 H 0.71371 0.46266 0.26876
 H799 H 0.66636 0.44552 0.21444
 H800 H 0.68777 0.41008 0.20731
 C801 C 0.71320 0.58162 0.26809
 C802 C 0.69367 0.58203 0.25412
 C803 C 0.68138 0.56184 0.24993
 C804 C 0.73684 0.61958 0.27581
 C805 C 0.70811 0.54078 0.27376
 C806 C 0.72036 0.56098 0.27793
 C807 C 0.72599 0.60233 0.27226
 C808 C 0.68851 0.54097 0.25966
 H809 H 0.68802 0.59791 0.24637
 H810 H 0.66652 0.56249 0.23879
 H811 H 0.71384 0.52505 0.28174
 H812 H 0.73541 0.56048 0.28883
 C813 C 0.21339 0.08254 0.76696
 C814 C 0.19383 0.08288 0.75302
 C815 C 0.18152 0.06268 0.74896
 C816 C 0.23708 0.12051 0.77455
 C817 C 0.20830 0.04172 0.77282
 C818 C 0.22056 0.06194 0.77688
 C819 C 0.22619 0.10327 0.77104
 C820 C 0.18867 0.04185 0.75877
 H821 H 0.18816 0.09873 0.74522
 H822 H 0.16664 0.06327 0.73785
 H823 H 0.21405 0.02603 0.78086
 H824 H 0.23563 0.06150 0.78775
 C825 C 0.23310 0.28909 0.08141
 C826 C 0.22002 0.30853 0.07633
 C827 C 0.22423 0.32095 0.05629
 C828 C 0.22483 0.26500 0.11884
 C829 C 0.25469 0.29452 0.04639
 C830 C 0.25046 0.28215 0.06643
 C831 C 0.22858 0.27609 0.10184
 C832 C 0.24157 0.31403 0.04106
 H833 H 0.20649 0.31401 0.08777
 H834 H 0.21367 0.33573 0.05253
 H835 H 0.26836 0.28895 0.03517
 H836 H 0.26072 0.26716 0.07022
 C837 C 0.73377 0.78996 0.58225
 C838 C 0.72082 0.80955 0.57741
 C839 C 0.72479 0.82193 0.55730
 C840 C 0.72571 0.76581 0.61969
 C841 C 0.75480 0.79519 0.54687
 C842 C 0.75081 0.78286 0.56698
 C843 C 0.72939 0.77693 0.60270
 C844 C 0.74176 0.81481 0.54175
 H845 H 0.70754 0.81516 0.58908
 H846 H 0.71431 0.83680 0.55371
 H847 H 0.76819 0.78947 0.53540
 H848 H 0.76097 0.76775 0.57059
 C849 C 0.76511 0.79021 0.41698
 C850 C 0.77807 0.80984 0.42184
 C851 C 0.77402 0.82216 0.44191
 C852 C 0.77342 0.76608 0.37971
 C853 C 0.74392 0.79529 0.45225
 C854 C 0.74798 0.78301 0.43218
 C855 C 0.76961 0.77720 0.39662
 C856 C 0.75698 0.81494 0.45740
 H857 H 0.79143 0.81551 0.41023
 H858 H 0.78452 0.83707 0.44552
 H859 H 0.73046 0.78950 0.46368
 H860 H 0.73781 0.76787 0.42855
 C861 C 0.26763 0.29011 -0.08330
 C862 C 0.25363 0.30957 -0.08374
 C863 C 0.24948 0.32178 -0.06363
 C864 C 0.27511 0.26630 -0.12096
 C865 C 0.27343 0.29515 -0.04260
 C866 C 0.27757 0.28298 -0.06272
 C867 C 0.27166 0.27728 -0.10389
 C868 C 0.25925 0.31464 -0.04280
 H869 H 0.24581 0.31520 -0.09958
 H870 H 0.23829 0.33656 -0.06428
 H871 H 0.28146 0.28941 -0.02691
 H872 H 0.28850 0.26799 -0.06221
 C873 C 0.73353 0.20965 -0.08266
 C874 C 0.72057 0.19008 -0.07748
 C875 C 0.72485 0.17783 -0.05737
 C876 C 0.72507 0.23358 -0.12012
 C877 C 0.75517 0.20467 -0.04760
 C878 C 0.75087 0.21687 -0.06771
 C879 C 0.72890 0.22254 -0.10312
 C880 C 0.74215 0.18505 -0.04215
 H881 H 0.70705 0.18439 -0.08890
 H882 H 0.71437 0.16297 -0.05352
 H883 H 0.76880 0.21047 -0.03638
 H884 H 0.76104 0.23196 -0.07158
 C885 C 0.23444 0.71036 0.41781
 C886 C 0.25175 0.71755 0.43280
 C887 C 0.25592 0.70537 0.45296
 C888 C 0.22610 0.73428 0.38031
 C889 C 0.22557 0.67861 0.44311
 C890 C 0.22141 0.69084 0.42296
 C891 C 0.22989 0.72325 0.39732
 C892 C 0.24282 0.68581 0.45839
 H893 H 0.26198 0.73261 0.42895
 H894 H 0.26952 0.71116 0.46422
 H895 H 0.21503 0.66378 0.44695
 H896 H 0.20791 0.68517 0.41150
 C897 C 0.26756 0.71133 0.58282
 C898 C 0.25354 0.69181 0.58330
 C899 C 0.24953 0.67939 0.56326
 C900 C 0.27497 0.73537 0.62039
 C901 C 0.27365 0.70598 0.54221
 C902 C 0.27764 0.71835 0.56226
 C903 C 0.27154 0.72430 0.60335
 C904 C 0.25950 0.68639 0.54247
 H905 H 0.24560 0.68627 0.59912
 H906 H 0.23835 0.66455 0.56394
 H907 H 0.28182 0.71161 0.52655
 H908 H 0.28858 0.73340 0.56171
 C909 C 0.76769 0.21024 0.08217
 C910 C 0.75364 0.19074 0.08267
 C911 C 0.74953 0.17836 0.06263
 C912 C 0.77522 0.23418 0.11977
 C913 C 0.77360 0.20495 0.04153
 C914 C 0.77770 0.21727 0.06158
 C915 C 0.77174 0.22317 0.10270
 C916 C 0.75941 0.18539 0.04181
 H917 H 0.74577 0.18518 0.09852
 H918 H 0.73833 0.16353 0.06334
 H919 H 0.78171 0.21059 0.02584
 H920 H 0.78866 0.23230 0.06101
 C921 C 0.48229 0.33256 0.53871
 C922 C 0.49623 0.33312 0.55821
 C923 C 0.50032 0.31302 0.57060
 C924 C 0.47507 0.37013 0.51446
 C925 C 0.47642 0.29178 0.54406
 C926 C 0.47234 0.31188 0.53172
 C927 C 0.47839 0.35310 0.52565
 C928 C 0.49054 0.29210 0.56359
 H929 H 0.50407 0.34903 0.56373
 H930 H 0.51147 0.31377 0.58541
 H931 H 0.46839 0.27602 0.53843
 H932 H 0.46148 0.31127 0.51669
 C933 C -0.01847 0.83239 0.03866
 C934 C -0.00453 0.83296 0.05816
 C935 C -0.00040 0.81287 0.07054
 C936 C -0.02559 0.86994 0.01436
 C937 C -0.02428 0.79161 0.04400
 C938 C -0.02840 0.81170 0.03167
 C939 C -0.02235 0.85292 0.02558
 C940 C -0.01014 0.79194 0.06351
 H941 H 0.00329 0.84888 0.06367
 H942 H 0.01076 0.81362 0.08533
 H943 H -0.03228 0.77582 0.03835
 H944 H -0.03926 0.81108 0.01663
 C945 C 0.01654 0.66770 0.03860
 C946 C -0.00102 0.68253 0.03175
 C947 C -0.00531 0.70255 0.04405
 C948 C 0.02483 0.63045 0.01436
 C949 C 0.02547 0.69293 0.07029
 C950 C 0.02974 0.67291 0.05792
 C951 C 0.02113 0.64734 0.02558
 C952 C 0.00795 0.70803 0.06342
 H953 H -0.01138 0.67864 0.01685
 H954 H -0.01911 0.71367 0.03853
 H955 H 0.03612 0.69682 0.08497
 H956 H 0.04343 0.66158 0.06334
 C957 C 0.51656 0.16764 0.53898
 C958 C 0.52977 0.17281 0.55831
 C959 C 0.52562 0.19290 0.57060
 C960 C 0.52453 0.13019 0.51493
 C961 C 0.49497 0.20267 0.54428
 C962 C 0.49913 0.18257 0.53204
 C963 C 0.52099 0.14717 0.52606
 C964 C 0.50822 0.20811 0.56366
 H965 H 0.54335 0.16139 0.56379
 H966 H 0.53626 0.19675 0.58529
 H967 H 0.48125 0.21386 0.53870
 H968 H 0.48876 0.17871 0.51714
 C969 C -0.01773 0.16829 0.46132
 C970 C -0.00376 0.16783 0.44186
 C971 C 0.00022 0.18792 0.42940
 C972 C -0.02486 0.13070 0.48561
 C973 C -0.02385 0.20898 0.45579
 C974 C -0.02782 0.18888 0.46820
 C975 C -0.02158 0.14774 0.47441
 C976 C -0.00970 0.20875 0.43630
 H977 H 0.00417 0.15198 0.43642
 H978 H 0.01139 0.18725 0.41463
 H979 H -0.03198 0.22467 0.46134
 H980 H -0.03872 0.18942 0.48320
 C981 C 0.48331 0.66705 0.96111
 C982 C 0.47315 0.68756 0.96814
 C983 C 0.47711 0.70777 0.95592
 C984 C 0.47626 0.62927 0.98513
 C985 C 0.50130 0.68700 0.92941
 C986 C 0.49734 0.66679 0.94169
 C987 C 0.47951 0.64640 0.97404
 C988 C 0.49132 0.70774 0.93646
 H989 H 0.46221 0.68793 0.98311
 H990 H 0.46891 0.72339 0.96158
 H991 H 0.51251 0.68649 0.91466
 H992 H 0.50533 0.65102 0.93613
 C993 C 0.51637 0.83244 0.96173
 C994 C 0.52948 0.82759 0.94229
 C995 C 0.52542 0.80752 0.92989
 C996 C 0.52433 0.86983 0.98596
 C997 C 0.49503 0.79714 0.95632
 C998 C 0.49911 0.81722 0.96867
 C999 C 0.52076 0.85288 0.97477
 C1000 C 0.50820 0.79202 0.93683
 H1001 H 0.54294 0.83923 0.93682
 H1002 H 0.53601 0.80392 0.91513
 H1003 H 0.48145 0.78572 0.96190
 H1004 H 0.48883 0.82083 0.98365
 C1005 C 0.01597 0.33346 0.46053
 C1006 C 0.02909 0.32837 0.44116
 C1007 C 0.02488 0.30825 0.42887
 C1008 C 0.02425 0.37078 0.48476
 C1009 C -0.00569 0.29833 0.45526
 C1010 C -0.00147 0.31844 0.46749
 C1011 C 0.02055 0.35387 0.47354
 C1012 C 0.00751 0.29295 0.43587
 H1013 H 0.04268 0.33984 0.43567
 H1014 H 0.03549 0.30445 0.41417
 H1015 H -0.01939 0.28706 0.46087
 H1016 H -0.01177 0.32224 0.48242
 C1017 C 0.33329 0.53856 0.48396
 C1018 C 0.31839 0.53146 0.50136
 C1019 C 0.29829 0.54373 0.50577
 C1020 C 0.37072 0.51452 0.47526
 C1021 C 0.30799 0.57040 0.47544
 C1022 C 0.32809 0.55808 0.47105
 C1023 C 0.35373 0.52560 0.47920
 C1024 C 0.29281 0.56330 0.49280
 H1025 H 0.32228 0.51641 0.51149
 H1026 H 0.28712 0.53802 0.51944
 H1027 H 0.30411 0.58522 0.46500
 H1028 H 0.33947 0.56368 0.45749
 C1029 C 0.83244 0.03779 -0.01894
 C1030 C 0.83328 0.05738 -0.00521
 C1031 C 0.81320 0.06968 -0.00069
 C1032 C 0.87010 0.01383 -0.02683
 C1033 C 0.79138 0.04285 -0.02375
 C1034 C 0.81148 0.03060 -0.02826
 C1035 C 0.85300 0.02486 -0.02324
 C1036 C 0.79200 0.06247 -0.00983
 H1037 H 0.84941 0.06306 0.00214
 H1038 H 0.81417 0.08456 0.01028
 H1039 H 0.77539 0.03707 -0.03129
 H1040 H 0.81065 0.01550 -0.03896
 C1041 C 0.66774 0.03738 0.01935
 C1042 C 0.66701 0.05701 0.00560
 C1043 C 0.68713 0.06941 0.00119
 C1044 C 0.62992 0.01336 0.02710
 C1045 C 0.70878 0.04262 0.02441
 C1046 C 0.68864 0.03027 0.02880
 C1047 C 0.64711 0.02438 0.02358
 C1048 C 0.70826 0.06228 0.01047
 H1049 H 0.65093 0.06263 -0.00185
 H1050 H 0.68624 0.08431 -0.00981
 H1051 H 0.72472 0.03690 0.03204
 H1052 H 0.68938 0.01514 0.03953
 C1053 C 0.16784 0.53827 0.51886
 C1054 C 0.16738 0.55780 0.50495
 C1055 C 0.18759 0.57018 0.50087
 C1056 C 0.12993 0.51428 0.52626
 C1057 C 0.20876 0.54357 0.52469
 C1058 C 0.18855 0.53124 0.52877
 C1059 C 0.14714 0.52532 0.52285
 C1060 C 0.20853 0.56315 0.51063
 H1061 H 0.15145 0.56336 0.49715
 H1062 H 0.18691 0.58502 0.48975
 H1063 H 0.22455 0.53791 0.53269
 H1064 H 0.18908 0.51619 0.53962
 C1065 C 0.16675 0.46201 -0.01660
 C1066 C 0.18182 0.46893 0.00072
 C1067 C 0.20195 0.45661 0.00489
 C1068 C 0.12930 0.48618 -0.02499
 C1069 C 0.19193 0.43023 -0.02551
 C1070 C 0.17181 0.44261 -0.02966
 C1071 C 0.14629 0.47506 -0.02116
 C1072 C 0.20729 0.43717 -0.00825
 H1073 H 0.17805 0.48390 0.01097
 H1074 H 0.21328 0.46218 0.01849
 H1075 H 0.19570 0.41551 -0.03607
 H1076 H 0.16029 0.43715 -0.04316
 C1077 C 0.66693 0.96252 0.48177
 C1078 C 0.68768 0.96967 0.47196
 C1079 C 0.70785 0.95737 0.47605
 C1080 C 0.62908 0.98638 0.47434
 C1081 C 0.68655 0.93059 0.49968
 C1082 C 0.66639 0.94293 0.49559
 C1083 C 0.64627 0.97542 0.47776
 C1084 C 0.70753 0.93773 0.49002
 H1085 H 0.68828 0.98476 0.46118
 H1086 H 0.72367 0.96311 0.46812
 H1087 H 0.68581 0.91570 0.51073
 H1088 H 0.65042 0.93728 0.50330
 C1089 C 0.83249 0.96241 0.51676
 C1090 C 0.81758 0.96953 0.49939
 C1091 C 0.79739 0.95727 0.49501
 C1092 C 0.87014 0.98637 0.52533
 C1093 C 0.80700 0.93058 0.52530
 C1094 C 0.82719 0.94289 0.52967
 C1095 C 0.85305 0.97533 0.52145
 C1096 C 0.79183 0.93770 0.50797
 H1097 H 0.82154 0.98458 0.48926
 H1098 H 0.78621 0.96299 0.48135
 H1099 H 0.80306 0.91575 0.53574
 H1100 H 0.83859 0.93727 0.54320
 C1101 C 0.33258 0.46179 0.01722
 C1102 C 0.31190 0.46883 0.02714
 C1103 C 0.29164 0.45663 0.02296
 C1104 C 0.37060 0.48546 0.02498
 C1105 C 0.31268 0.43019 -0.00106
 C1106 C 0.33294 0.44244 0.00314
 C1107 C 0.35335 0.47456 0.02140
 C1108 C 0.29178 0.43720 0.00876
 H1109 H 0.31145 0.48375 0.03811
 H1110 H 0.27589 0.46226 0.03101
 H1111 H 0.31329 0.41547 -0.01227
 H1112 H 0.34885 0.43688 -0.00467
 C1113 C 0.53995 0.48335 0.33228
 C1114 C 0.53293 0.50044 0.31703
 C1115 C 0.54534 0.50446 0.29698
 C1116 C 0.51563 0.47524 0.36960
 C1117 C 0.57200 0.47436 0.30743
 C1118 C 0.55954 0.47036 0.32748
 C1119 C 0.52683 0.47894 0.35266
 C1120 C 0.56497 0.49139 0.29190
 H1121 H 0.51782 0.51063 0.32061
 H1122 H 0.53970 0.51790 0.28552
 H1123 H 0.58688 0.46386 0.30387
 H1124 H 0.56508 0.45704 0.33914
 C1125 C 0.04031 -0.01847 0.83170
 C1126 C 0.03323 -0.02828 0.81105
 C1127 C 0.04562 -0.02410 0.79102
 C1128 C 0.01606 -0.02592 0.86920
 C1129 C 0.07237 -0.00035 0.81224
 C1130 C 0.05993 -0.00455 0.83227
 C1131 C 0.02724 -0.02251 0.85219
 C1132 C 0.06528 -0.01001 0.79136
 H1133 H 0.01810 -0.03913 0.81043
 H1134 H 0.03992 -0.03204 0.77529
 H1135 H 0.08727 0.01078 0.81300
 H1136 H 0.06552 0.00319 0.84815
 C1137 C 0.04054 0.01662 0.66721
 C1138 C 0.06009 0.02965 0.67240
 C1139 C 0.07248 0.02531 0.69243
 C1140 C 0.01624 0.02520 0.62998
 C1141 C 0.04584 -0.00522 0.70207
 C1142 C 0.03350 -0.00086 0.68204
 C1143 C 0.02747 0.02133 0.64687
 C1144 C 0.06542 0.00788 0.70754
 H1145 H 0.06564 0.04328 0.66107
 H1146 H 0.08732 0.03584 0.69631
 H1147 H 0.04017 -0.01895 0.71320
 H1148 H 0.01843 -0.01109 0.67816
 C1149 C 0.54085 0.51537 0.16703
 C1150 C 0.56055 0.52823 0.17205
 C1151 C 0.57281 0.52409 0.19220
 C1152 C 0.51681 0.52369 0.12957
 C1153 C 0.54574 0.49410 0.20230
 C1154 C 0.53353 0.49826 0.18215
 C1155 C 0.52791 0.51992 0.14656
 C1156 C 0.56547 0.50705 0.20760
 H1157 H 0.56633 0.54158 0.16049
 H1158 H 0.58778 0.53451 0.19594
 H1159 H 0.53985 0.48065 0.21366
 H1160 H 0.51833 0.48816 0.17840
 C1161 C 0.45966 -0.01931 0.16874
 C1162 C 0.46671 -0.02869 0.18961
 C1163 C 0.45425 -0.02426 0.20951
 C1164 C 0.48410 -0.02691 0.13144
 C1165 C 0.42745 -0.00119 0.18770
 C1166 C 0.43996 -0.00563 0.16781
 C1167 C 0.47286 -0.02346 0.14838
 C1168 C 0.43454 -0.01036 0.20881
 H1169 H 0.48189 -0.03936 0.19051
 H1170 H 0.45994 -0.03183 0.22544
 H1171 H 0.41250 0.00977 0.18666
 H1172 H 0.43439 0.00177 0.15175
 C1173 C 0.95979 0.48120 0.66794
 C1174 C 0.96694 0.47162 0.68869
 C1175 C 0.95461 0.47591 0.70871
 C1176 C 0.98401 0.47382 0.63046
 C1177 C 0.92775 0.49925 0.68726
 C1178 C 0.94014 0.49495 0.66725
 C1179 C 0.97285 0.47717 0.64747
 C1180 C 0.93493 0.48986 0.70824
 H1181 H 0.98209 0.46089 0.68941
 H1182 H 0.96037 0.46818 0.72454
 H1183 H 0.91283 0.51026 0.68640
 H1184 H 0.93449 0.50251 0.65129
 C1185 C 0.96023 0.51878 0.83172
 C1186 C 0.94052 0.50499 0.83254
 C1187 C 0.92804 0.50057 0.81259
 C1188 C 0.98456 0.52645 0.86914
 C1189 C 0.95489 0.52386 0.79095
 C1190 C 0.96733 0.52827 0.81091
 C1191 C 0.97337 0.52297 0.85215
 C1192 C 0.93517 0.50986 0.79154
 H1193 H 0.93491 0.49751 0.84855
 H1194 H 0.91308 0.48953 0.81354
 H1195 H 0.96062 0.53152 0.77507
 H1196 H 0.98251 0.53903 0.81010
 C1197 C 0.45939 0.01911 0.33217
 C1198 C 0.43968 0.00532 0.33296
 C1199 C 0.42723 0.00089 0.31300
 C1200 C 0.48375 0.02672 0.36957
 C1201 C 0.45411 0.02417 0.29138
 C1202 C 0.46651 0.02859 0.31136
 C1203 C 0.47253 0.02326 0.35259
 C1204 C 0.43439 0.01017 0.29196
 H1205 H 0.43405 -0.00216 0.34897
 H1206 H 0.41227 -0.01015 0.31393
 H1207 H 0.45986 0.03182 0.27551
 H1208 H 0.48171 0.03934 0.31057
   
