data_POSCAR
  _audit_creation_date              2014-09-24
  _audit_creation_method            'ToBaCCo'
  _symmetry_space_group_name_H-M    'P1'
  _symmetry_Int_Tables_number       1
  _symmetry_cell_setting            triclinic
  loop_
  _symmetry_equiv_pos_as_xyz
 x,y,z
_cell_length_a 28.0836
_cell_length_b 28.3076
_cell_length_c 27.8850
_cell_angle_alpha 89.529200
_cell_angle_beta 89.118500
_cell_angle_gamma 89.830600
loop_
  _atom_site_label
  _atom_site_type_symbol
  _atom_site_fract_x
  _atom_site_fract_y
  _atom_site_fract_z
C1 C 0.20770 0.17424 0.23085
 C2 C 0.18380 0.15431 0.27025
 C3 C 0.14586 0.17809 0.29364
 C4 C 0.13321 0.22352 0.27710
 C5 C 0.15721 0.24402 0.23755
 C6 C 0.19451 0.21923 0.21425
 C7 C 0.24346 0.14876 0.20696
 C8 C 0.26790 0.16769 0.16666
 C9 C 0.25334 0.21256 0.14933
 C10 C 0.21692 0.23830 0.17295
 C11 C 0.20083 0.28168 0.15446
 C12 C 0.16323 0.30678 0.17717
 C13 C 0.14238 0.28771 0.21919
 H14 H 0.19381 0.11908 0.28209
 H15 H 0.10394 0.24271 0.29330
 H16 H 0.25221 0.11354 0.21975
 H17 H 0.26884 0.22740 0.11691
 H18 H 0.21605 0.29399 0.12084
 H19 H 0.11218 0.30546 0.23579
 C20 C -0.23474 0.83190 0.24768
 C21 C -0.21589 0.84396 0.29218
 C22 C -0.17561 0.82035 0.31078
 C23 C -0.15670 0.78188 0.28479
 C24 C -0.17548 0.76931 0.24031
 C25 C -0.21407 0.79487 0.22130
 C26 C -0.27146 0.85900 0.22766
 C27 C -0.28915 0.84909 0.18161
 C28 C -0.26721 0.81230 0.15529
 C29 C -0.22999 0.78532 0.17470
 C30 C -0.20664 0.75080 0.14706
 C31 C -0.16671 0.72642 0.16496
 C32 C -0.15323 0.73437 0.21264
 H33 H -0.23007 0.87477 0.31038
 H34 H -0.12477 0.76409 0.29650
 H35 H -0.28430 0.88917 0.24759
 H36 H -0.27789 0.80568 0.11877
 H37 H -0.21952 0.74392 0.11153
 H38 H -0.12334 0.71502 0.22729
 C39 C -0.23280 0.16644 -0.23110
 C40 C -0.21049 0.14435 -0.27034
 C41 C -0.16637 0.16074 -0.28873
 C42 C -0.14470 0.19922 -0.26644
 C43 C -0.16641 0.22127 -0.22708
 C44 C -0.21057 0.20500 -0.20922
 C45 C -0.27550 0.14857 -0.21170
 C46 C -0.29657 0.16816 -0.17007
 C47 C -0.27334 0.20670 -0.14831
 C48 C -0.23097 0.22543 -0.16781
 C49 C -0.20732 0.26268 -0.14502
 C50 C -0.16331 0.27949 -0.16314
 C51 C -0.14319 0.25791 -0.20394
 H52 H -0.22661 0.11291 -0.28458
 H53 H -0.10966 0.21072 -0.27835
 H54 H -0.29124 0.11768 -0.22778
 H55 H -0.28618 0.22109 -0.11478
 H56 H -0.22277 0.27712 -0.11259
 H57 H -0.10856 0.26928 -0.21727
 C58 C 0.25837 0.81593 -0.25222
 C59 C 0.23990 0.83203 -0.29588
 C60 C 0.20009 0.80998 -0.31651
 C61 C 0.18127 0.76950 -0.29361
 C62 C 0.19889 0.75373 -0.24971
 C63 C 0.23690 0.77738 -0.22829
 C64 C 0.29506 0.84067 -0.23016
 C65 C 0.31100 0.82761 -0.18429
 C66 C 0.28781 0.79001 -0.15985
 C67 C 0.25089 0.76481 -0.18149
 C68 C 0.22542 0.72958 -0.15595
 C69 C 0.18643 0.70670 -0.17709
 C70 C 0.17531 0.71773 -0.22479
 H71 H 0.25400 0.86441 -0.31133
 H72 H 0.14941 0.75300 -0.30687
 H73 H 0.30967 0.87164 -0.24800
 H74 H 0.29685 0.78157 -0.12318
 H75 H 0.23540 0.72151 -0.11956
 H76 H 0.14548 0.70028 -0.24139
 C77 C 0.17794 1.22910 0.76010
 C78 C 0.15443 1.20291 0.72487
 C79 C 0.17092 1.15758 0.71123
 C80 C 0.21037 1.13850 0.73566
 C81 C 0.23433 1.16441 0.77040
 C82 C 0.21836 1.20996 0.78247
 C83 C 0.15979 1.27285 0.77544
 C84 C 0.18140 1.29813 0.81290
 C85 C 0.22218 1.27835 0.83434
 C86 C 0.24078 1.23488 0.81937
 C87 C 0.27932 1.21441 0.84352
 C88 C 0.29585 1.16902 0.83152
 C89 C 0.27255 1.14424 0.79505
 H90 H 0.12229 1.21750 0.70981
 H91 H 0.22208 1.10271 0.72833
 H92 H 0.12694 1.28570 0.76011
 H93 H 0.23792 1.29480 0.86515
 H94 H 0.29448 1.23299 0.87335
 H95 H 0.28293 1.10821 0.78712
 C96 C 0.81422 0.77020 0.77374
 C97 C 0.83409 0.79037 0.73177
 C98 C 0.81375 0.83092 0.70990
 C99 C 0.77352 0.85151 0.73267
 C100 C 0.75371 0.83202 0.77508
 C101 C 0.77393 0.79105 0.79544
 C102 C 0.83581 0.73099 0.79580
 C103 C 0.81768 0.71158 0.83934
 C104 C 0.77769 0.73355 0.86088
 C105 C 0.75581 0.77278 0.83926
 C106 C 0.71767 0.79560 0.86247
 C107 C 0.69684 0.83639 0.84261
 C108 C 0.71572 0.85457 0.79899
 H109 H 0.86691 0.77533 0.71797
 H110 H 0.75877 0.88411 0.71857
 H111 H 0.86791 0.71631 0.77968
 H112 H 0.76440 0.72204 0.89558
 H113 H 0.70571 0.78268 0.89725
 H114 H 0.70246 0.88758 0.78450
 C115 C 0.17301 0.75161 1.23024
 C116 C 0.14716 0.77716 1.26523
 C117 C 0.16639 0.81836 1.28552
 C118 C 0.21315 0.83140 1.27246
 C119 C 0.23859 0.80710 1.23688
 C120 C 0.21851 0.76719 1.21542
 C121 C 0.15273 0.71261 1.20759
 C122 C 0.17665 0.68906 1.16952
 C123 C 0.22175 0.70603 1.15458
 C124 C 0.24271 0.74473 1.17717
 C125 C 0.28562 0.76383 1.15921
 C126 C 0.30496 0.80488 1.17938
 C127 C 0.28205 0.82479 1.21966
 H128 H 0.11207 0.76501 1.27562
 H129 H 0.22883 0.86240 1.28842
 H130 H 0.11686 0.70218 1.21788
 H131 H 0.23977 0.69139 1.12356
 H132 H 0.30167 0.74824 1.12765
 H133 H 0.29589 0.85705 1.23478
 C134 C 0.83333 1.23360 1.22556
 C135 C 0.85590 1.20695 1.26161
 C136 C 0.83226 1.16904 1.28534
 C137 C 0.78582 1.15773 1.27057
 C138 C 0.76315 1.18373 1.23447
 C139 C 0.78680 1.22186 1.21196
 C140 C 0.85762 1.27010 1.20104
 C141 C 0.83576 1.29588 1.16361
 C142 C 0.78966 1.28281 1.14991
 C143 C 0.76518 1.24609 1.17357
 C144 C 0.72078 1.23113 1.15706
 C145 C 0.69745 1.19210 1.17840
 C146 C 0.71852 1.16969 1.21809
 H147 H 0.89263 1.21481 1.26942
 H148 H 0.76788 1.12699 1.28549
 H149 H 0.89419 1.27685 1.21027
 H150 H 0.77339 1.30024 1.11951
 H151 H 0.70652 1.24826 1.12566
 H152 H 0.70164 1.13877 1.23395
 O153 O 0.52685 0.94717 0.94562
 O154 O 0.44559 0.96444 1.10809
 O155 O 0.59111 0.99675 1.06036
 O156 O 0.44026 0.94219 0.95867
 O157 O 0.53585 0.96144 1.10493
 O158 O 0.46225 0.97986 0.89385
 O159 O 0.43728 0.92827 1.04260
 O160 O 0.58771 0.98501 0.97305
 C161 C 0.57091 0.94981 0.95133
 C162 C 0.43303 0.92841 1.08657
 C163 C 0.57870 0.96581 1.09168
 C164 C 0.43441 0.94867 0.91402
 O165 O 0.46369 1.05912 0.93745
 O166 O 0.53815 1.05107 1.11102
 O167 O 0.54923 1.07471 0.96442
 O168 O 0.39634 1.01647 1.05773
 O169 O 0.44857 1.05549 1.09990
 O170 O 0.54272 1.02799 0.90799
 O171 O 0.40209 1.02908 0.97122
 O172 O 0.55298 1.08610 1.04561
 Co173 Co 0.49371 1.00275 0.94490
 Co174 Co 0.49214 1.00825 1.09731
 Co175 Co 0.56487 1.03353 1.01124
 Co176 Co 0.42527 0.98151 1.00856
 O177 O 0.49578 1.00830 1.01799
 C178 C 0.41999 1.06003 0.94446
 C179 C 0.55599 1.08521 1.08943
 C180 C 0.56017 1.06526 0.92249
 C181 C 0.40662 1.04990 1.08609
 O182 O 0.01897 0.45949 0.08957
 O183 O 0.05022 0.54149 -0.10320
 O184 O 0.07852 0.43736 -0.04722
 O185 O 0.05979 0.57654 0.01829
 O186 O 0.03990 0.45350 -0.10996
 O187 O 0.03268 0.54517 0.08239
 O188 O 0.02495 0.59984 -0.05870
 O189 O 0.06967 0.45050 0.03491
 C190 C 0.05928 0.44533 0.07739
 C191 C 0.05293 0.58380 -0.09036
 C192 C 0.07464 0.43419 -0.09103
 C193 C 0.06348 0.57019 0.06197
 O194 O -0.05735 0.55864 0.05452
 O195 O -0.04973 0.45948 -0.09736
 O196 O -0.02110 0.41188 0.03349
 O197 O -0.06086 0.57539 -0.03006
 O198 O -0.04264 0.55021 -0.10040
 O199 O -0.06709 0.47061 0.05254
 O200 O -0.01810 0.62184 0.02814
 O201 O -0.01348 0.40546 -0.05291
 Co202 Co -0.01592 0.50793 0.06186
 Co203 Co -0.00035 0.50167 -0.09415
 Co204 Co 0.02658 0.43185 -0.00790
 Co205 Co -0.00027 0.57094 -0.00527
 O206 O 0.00422 0.50087 -0.01497
 C207 C -0.04925 0.60309 0.05855
 C208 C -0.04582 0.41750 -0.08232
 C209 C -0.06009 0.42705 0.05041
 C210 C -0.06830 0.57524 -0.07391
 O211 O 1.08618 0.03462 0.44986
 O212 O 0.93662 0.05688 0.53752
 O213 O 0.95914 0.01231 0.38415
 O214 O 1.04827 0.00783 0.59960
 O215 O 0.93139 0.04776 0.44908
 O216 O 1.09016 0.04147 0.54057
 O217 O 0.96069 0.01416 0.59775
 O218 O 1.01545 0.05591 0.43334
 C219 C 1.05886 0.06348 0.43067
 C220 C 0.94126 0.05122 0.58170
 C221 C 0.92825 0.04170 0.40364
 C222 C 1.07830 0.03863 0.58442
 O223 O 1.10069 -0.04715 0.54593
 O224 O 0.90820 -0.04388 0.46433
 O225 O 1.04558 -0.02778 0.40174
 O226 O 0.95723 -0.07723 0.56472
 O227 O 0.90227 -0.02865 0.55201
 O228 O 1.08684 -0.05823 0.45900
 O229 O 1.04006 -0.08451 0.57214
 O230 O 0.97202 -0.06559 0.42853
 Co231 Co 1.08247 -0.00763 0.49870
 Co232 Co 0.92778 0.00561 0.50085
 Co233 Co 0.99338 -0.00555 0.43504
 Co234 Co 1.00129 -0.03299 0.57743
 O235 O 1.00448 -0.01222 0.50538
 C236 C 1.08370 -0.08117 0.56823
 C237 C 0.92908 -0.07205 0.43682
 C238 C 1.07557 -0.05766 0.41587
 C239 C 0.91489 -0.06720 0.56945
 C240 C 1.12033 0.15292 0.33112
 C241 C 1.07886 0.17697 0.35941
 C242 C 1.05780 0.14819 0.39336
 C243 C 1.07984 0.09854 0.39579
 C244 C 1.07714 0.07964 0.34462
 C245 C 1.09778 0.10788 0.31106
 C246 C 1.15401 0.13584 0.37071
 C247 C 1.13311 0.10745 0.40412
 H248 H 1.06808 0.21354 0.35576
 H249 H 1.02999 0.16046 0.41768
 H250 H 1.05974 0.04693 0.33521
 H251 H 1.09748 0.09919 0.27319
 H252 H 1.19096 0.14667 0.37327
 H253 H 1.15240 0.09442 0.43500
 C254 C 0.85178 -0.15611 0.34694
 C255 C 0.82205 -0.13549 0.38885
 C256 C 0.84759 -0.10865 0.41952
 C257 C 0.90090 -0.10506 0.40619
 C258 C 0.91798 -0.15654 0.40336
 C259 C 0.89216 -0.18357 0.37263
 C260 C 0.87688 -0.11354 0.32360
 C261 C 0.90199 -0.08715 0.35415
 H262 H 0.78457 -0.14303 0.39511
 H263 H 0.83164 -0.09332 0.45153
 H264 H 0.94604 -0.17107 0.42545
 H265 H 0.89800 -0.22135 0.37023
 H266 H 0.87533 -0.10488 0.28561
 H267 H 0.92126 -0.05635 0.34162
 C268 C 0.86205 0.13268 0.67441
 C269 C 0.89785 0.09984 0.69932
 C270 C 0.92500 0.07367 0.66884
 C271 C 0.91398 0.08229 0.61568
 C272 C 0.86016 0.07371 0.61181
 C273 C 0.83301 0.10023 0.64195
 C274 C 0.89255 0.16218 0.63857
 C275 C 0.91996 0.13569 0.60804
 H276 H 0.90185 0.09777 0.73796
 H277 H 0.95232 0.04965 0.68159
 H278 H 0.84444 0.05008 0.58609
 H279 H 0.79449 0.10009 0.63995
 H280 H 0.89164 0.20046 0.63636
 H281 H 0.94285 0.15127 0.58050
 C282 C 1.17119 -0.16404 0.65011
 C283 C 1.13870 -0.12977 0.67803
 C284 C 1.11013 -0.10303 0.65022
 C285 C 1.11589 -0.11255 0.59656
 C286 C 1.16947 -0.10573 0.58562
 C287 C 1.19835 -0.13287 0.61335
 C288 C 1.13702 -0.19289 0.61852
 C289 C 1.10780 -0.16573 0.59092
 H290 H 1.13857 -0.12642 0.71683
 H291 H 1.08605 -0.07679 0.66526
 H292 H 1.18352 -0.08359 0.55678
 H293 H 1.23661 -0.13410 0.60734
 H294 H 1.13803 -0.23102 0.61503
 H295 H 1.08344 -0.18074 0.56535
 C296 C 0.30470 1.13914 1.14379
 C297 C 0.33803 1.16272 1.10592
 C298 C 0.37104 1.13271 1.08640
 C299 C 0.36845 1.08198 1.10629
 C300 C 0.37218 1.08745 1.16083
 C301 C 0.33968 1.11760 1.18021
 C302 C 0.28373 1.09626 1.11771
 C303 C 0.31685 1.06654 1.09819
 H304 H 0.33835 1.19996 1.09675
 H305 H 0.39762 1.14440 1.06026
 H306 H 0.39900 1.06998 1.18236
 H307 H 0.33959 1.12611 1.21812
 H308 H 0.24578 1.09004 1.11449
 H309 H 0.30702 1.03513 1.07865
 C310 C 0.34654 0.85901 0.84120
 C311 C 0.37606 0.83467 0.88048
 C312 C 0.40549 0.86443 0.90399
 C313 C 0.40333 0.91598 0.88615
 C314 C 0.41409 0.91291 0.83210
 C315 C 0.38471 0.88286 0.80861
 C316 C 0.32109 0.90016 0.86657
 C317 C 0.35063 0.92982 0.88986
 H318 H 0.37627 0.79691 0.88742
 H319 H 0.42980 0.85192 0.93125
 H320 H 0.44345 0.93099 0.81416
 H321 H 0.38994 0.87508 0.77086
 H322 H 0.28286 0.90588 0.86562
 H323 H 0.33765 0.96103 0.90834
 C324 C 0.67560 0.87921 1.15906
 C325 C 0.69885 0.91576 1.12482
 C326 C 0.66742 0.94457 1.10197
 C327 C 0.61513 0.93461 1.11526
 C328 C 0.60817 0.88191 1.10479
 C329 C 0.63936 0.85294 1.12785
 C330 C 0.64347 0.90870 1.19311
 C331 C 0.61264 0.93789 1.17015
 H332 H 0.73706 0.91868 1.11900
 H333 H 0.67892 0.97178 1.07675
 H334 H 0.58032 0.86845 1.08207
 H335 H 0.63727 0.81476 1.12520
 H336 H 0.64147 0.90447 1.23175
 H337 H 0.58666 0.95925 1.18950
 C338 C 0.66401 1.14360 0.85311
 C339 C 0.63679 1.17012 0.89330
 C340 C 0.60232 1.14403 0.91545
 C341 C 0.59686 1.09391 0.89538
 C342 C 0.58877 1.10168 0.84156
 C343 C 0.62379 1.12782 0.81937
 C344 C 0.68138 1.09753 0.87682
 C345 C 0.64649 1.07162 0.89834
 H346 H 0.63975 1.20752 0.90059
 H347 H 0.57830 1.15927 0.94205
 H348 H 0.55790 1.08874 0.82282
 H349 H 0.62228 1.13742 0.78165
 H350 H 0.71820 1.08565 0.87581
 H351 H 0.65357 1.03757 0.91497
 C352 C 0.13764 0.34719 0.15194
 C353 C 0.16530 0.37232 0.11108
 C354 C 0.13936 0.40541 0.08751
 C355 C 0.08802 0.41128 0.10686
 C356 C 0.06633 0.36172 0.10589
 C357 C 0.09228 0.32844 0.12881
 C358 C 0.12010 0.38831 0.18408
 C359 C 0.09395 0.42189 0.16035
 H360 H 0.20318 0.36856 0.10405
 H361 H 0.15527 0.42807 0.06008
 H362 H 0.03215 0.35363 0.09035
 H363 H 0.08053 0.29199 0.13179
 H364 H 0.12851 0.39135 0.22178
 H365 H 0.07980 0.45321 0.17773
 C366 C -0.13439 0.31772 -0.13903
 C367 C -0.08914 0.29698 -0.11650
 C368 C -0.05981 0.32967 -0.09740
 C369 C -0.07815 0.38062 -0.10229
 C370 C -0.08657 0.38757 -0.15618
 C371 C -0.11630 0.35527 -0.17513
 C372 C -0.15784 0.34702 -0.09846
 C373 C -0.12823 0.37985 -0.07932
 H374 H -0.08112 0.25945 -0.11524
 H375 H -0.02684 0.31986 -0.08009
 H376 H -0.07115 0.41603 -0.17759
 H377 H -0.12656 0.35674 -0.21250
 H378 H -0.19460 0.34411 -0.08658
 H379 H -0.13963 0.40361 -0.05098
 C380 C 0.15271 0.67315 -0.15055
 C381 C 0.10093 0.69150 -0.15206
 C382 C 0.06816 0.66146 -0.13282
 C383 C 0.08967 0.61586 -0.11268
 C384 C 0.11830 0.59443 -0.15465
 C385 C 0.15121 0.62425 -0.17421
 C386 C 0.16071 0.66224 -0.09694
 C387 C 0.12761 0.63229 -0.07727
 H388 H 0.09094 0.72572 -0.16670
 H389 H 0.03041 0.66983 -0.13142
 H390 H 0.11362 0.55874 -0.16770
 H391 H 0.17460 0.61380 -0.20365
 H392 H 0.18923 0.67626 -0.07567
 H393 H 0.12846 0.62126 -0.03991
 C394 C -0.13634 0.69322 0.13432
 C395 C -0.08255 0.70287 0.13900
 C396 C -0.05410 0.67215 0.11470
 C397 C -0.08155 0.63492 0.08679
 C398 C -0.11391 0.61058 0.12432
 C399 C -0.14244 0.64108 0.14916
 C400 C -0.14403 0.69397 0.07952
 C401 C -0.11547 0.66337 0.05495
 H402 H -0.06798 0.73204 0.15906
 H403 H -0.01555 0.67475 0.11468
 H404 H -0.11466 0.57273 0.13073
 H405 H -0.16751 0.62915 0.17666
 H406 H -0.16722 0.71807 0.06056
 H407 H -0.11565 0.66105 0.01611
 C408 C 1.14598 0.12843 0.67715
 C409 C 1.17944 0.09934 0.64418
 C410 C 1.15658 0.06928 0.61463
 C411 C 1.10206 0.07133 0.61912
 C412 C 1.09123 0.06180 0.67250
 C413 C 1.11409 0.09146 0.70260
 C414 C 1.11262 0.15362 0.64129
 C415 C 1.08961 0.12367 0.61137
 H416 H 1.21790 0.10313 0.64288
 H417 H 1.17566 0.04711 0.58914
 H418 H 1.06750 0.03425 0.68569
 H419 H 1.10962 0.08904 0.74130
 H420 H 1.10947 0.19157 0.63691
 H421 H 1.06626 0.13628 0.58332
 C422 C 0.83809 -0.14405 0.67087
 C423 C 0.80594 -0.12030 0.63280
 C424 C 0.83035 -0.09458 0.59851
 C425 C 0.88462 -0.09509 0.60502
 C426 C 0.89149 -0.07772 0.65641
 C427 C 0.86783 -0.10326 0.69048
 C428 C 0.87333 -0.17343 0.64005
 C429 C 0.89767 -0.14785 0.60632
 H430 H 0.76756 -0.12452 0.63189
 H431 H 0.81279 -0.07672 0.56905
 H432 H 0.91077 -0.04589 0.66524
 H433 H 0.86836 -0.09370 0.72812
 H434 H 0.87573 -0.21166 0.64067
 H435 H 0.92126 -0.16448 0.58022
 C436 C 1.13901 -0.14974 0.32035
 C437 C 1.14067 -0.09728 0.30476
 C438 C 1.12015 -0.06701 0.33663
 C439 C 1.09877 -0.09151 0.38116
 C440 C 1.06456 -0.12854 0.36128
 C441 C 1.08538 -0.15902 0.32949
 C442 C 1.16088 -0.15073 0.37053
 C443 C 1.14007 -0.12051 0.40218
 H444 H 1.15610 -0.08501 0.27098
 H445 H 1.11850 -0.02917 0.33021
 H446 H 1.02689 -0.12998 0.37050
 H447 H 1.06449 -0.18552 0.31167
 H448 H 1.19020 -0.17372 0.38045
 H449 H 1.15200 -0.11779 0.43890
 C450 C 0.85702 0.13737 0.31784
 C451 C 0.82586 0.11547 0.35857
 C452 C 0.84906 0.08329 0.38653
 C453 C 0.90158 0.07628 0.37235
 C454 C 0.90085 0.06294 0.31905
 C455 C 0.87782 0.09468 0.29084
 C456 C 0.89957 0.15820 0.34502
 C457 C 0.92280 0.12620 0.37305
 H458 H 0.78928 0.12575 0.36623
 H459 H 0.83193 0.06575 0.41688
 H460 H 0.91658 0.03094 0.30454
 H461 H 0.87438 0.08963 0.25248
 H462 H 0.90865 0.19540 0.34562
 H463 H 0.95172 0.13624 0.39611
 C464 C 0.15587 0.33634 -0.16400
 C465 C 0.12802 0.36991 -0.19747
 C466 C 0.10133 0.40297 -0.17379
 C467 C 0.10518 0.40001 -0.11879
 C468 C 0.09171 0.34895 -0.10613
 C469 C 0.11809 0.31601 -0.12930
 C470 C 0.18539 0.37071 -0.13335
 C471 C 0.15871 0.40354 -0.10946
 H472 H 0.13076 0.36937 -0.23633
 H473 H 0.08111 0.42991 -0.19257
 H474 H 0.06230 0.33921 -0.08253
 H475 H 0.11150 0.27845 -0.12446
 H476 H 0.22398 0.37219 -0.13346
 H477 H 0.17457 0.43141 -0.08854
 C478 C -0.13712 0.33293 0.13383
 C479 C -0.16675 0.37642 0.11812
 C480 C -0.14236 0.40786 0.08953
 C481 C -0.09044 0.39332 0.07952
 C482 C -0.06922 0.38591 0.12952
 C483 C -0.09356 0.35491 0.15793
 C484 C -0.11766 0.31219 0.08658
 C485 C -0.09349 0.34360 0.05824
 H486 H -0.20338 0.38257 0.12939
 H487 H -0.15834 0.44019 0.07603
 H488 H -0.03912 0.40565 0.14271
 H489 H -0.08445 0.35015 0.19529
 H490 H -0.12298 0.27577 0.07605
 H491 H -0.07850 0.33406 0.02351
 C492 C -0.15594 0.67428 -0.13682
 C493 C -0.13971 0.63441 -0.17072
 C494 C -0.11143 0.60133 -0.14980
 C495 C -0.10201 0.61024 -0.09634
 C496 C -0.08186 0.66047 -0.09476
 C497 C -0.10977 0.69366 -0.11568
 C498 C -0.18027 0.64711 -0.09444
 C499 C -0.15178 0.61393 -0.07328
 H500 H -0.15103 0.63133 -0.20762
 H501 H -0.09879 0.57052 -0.16916
 H502 H -0.04837 0.66939 -0.07824
 H503 H -0.09994 0.73074 -0.11674
 H504 H -0.21744 0.65023 -0.08399
 H505 H -0.16440 0.59080 -0.04459
 C506 C 0.15067 0.65518 0.14150
 C507 C 0.17866 0.62330 0.10565
 C508 C 0.15040 0.59449 0.07908
 C509 C 0.09714 0.59943 0.09099
 C510 C 0.09349 0.59062 0.14554
 C511 C 0.12155 0.61939 0.17177
 C512 C 0.11400 0.68103 0.11055
 C513 C 0.08633 0.65223 0.08451
 H514 H 0.21711 0.62028 0.10363
 H515 H 0.16481 0.56875 0.05409
 H516 H 0.07233 0.56274 0.16215
 H517 H 0.12422 0.61560 0.21042
 H518 H 0.11050 0.71923 0.10866
 H519 H 0.05968 0.66629 0.06061
 C520 C 0.33169 1.14287 0.86249
 C521 C 0.36552 1.11034 0.83394
 C522 C 0.39451 1.08360 0.86174
 C523 C 0.38813 1.09203 0.91584
 C524 C 0.39512 1.14539 0.92177
 C525 C 0.36572 1.17220 0.89371
 C526 C 0.30561 1.11019 0.89826
 C527 C 0.33476 1.08383 0.92604
 H528 H 0.36787 1.10961 0.79507
 H529 H 0.42085 1.05979 0.84636
 H530 H 0.42184 1.16070 0.94462
 H531 H 0.36867 1.21036 0.89224
 H532 H 0.26710 1.10851 0.90196
 H533 H 0.32074 1.05994 0.95342
 C534 C 0.34269 0.83445 1.15360
 C535 C 0.37063 0.81265 1.11093
 C536 C 0.40139 0.84335 1.08873
 C537 C 0.40182 0.89273 1.11128
 C538 C 0.34990 0.90928 1.11086
 C539 C 0.31921 0.87896 1.13253
 C540 C 0.38197 0.85309 1.18649
 C541 C 0.41278 0.88370 1.16439
 H542 H 0.36941 0.77588 1.10064
 H543 H 0.42492 0.83274 1.05947
 H544 H 0.33810 0.94238 1.09503
 H545 H 0.28121 0.88613 1.13463
 H546 H 0.38591 0.84217 1.22363
 H547 H 0.44284 0.89899 1.18266
 C548 C 0.65642 1.16712 1.15426
 C549 C 0.67478 1.12091 1.13214
 C550 C 0.64082 1.09459 1.11151
 C551 C 0.59094 1.11658 1.11379
 C552 C 0.58132 1.12538 1.16741
 C553 C 0.61552 1.15194 1.18857
 C554 C 0.63068 1.19279 1.11283
 C555 C 0.59666 1.16614 1.09161
 H556 H 0.71169 1.10942 1.13323
 H557 H 0.64891 1.06053 1.09583
 H558 H 0.54993 1.11283 1.18674
 H559 H 0.61311 1.16216 1.22596
 H560 H 0.63547 1.22956 1.10296
 H561 H 0.57413 1.18001 1.06349
 C562 C 0.66097 0.86496 0.87206
 C563 C 0.62684 0.89588 0.84257
 C564 C 0.59755 0.92346 0.86964
 C565 C 0.60392 0.91745 0.92403
 C566 C 0.59753 0.86435 0.93335
 C567 C 0.62715 0.83674 0.90600
 C568 C 0.68664 0.89948 0.90503
 C569 C 0.65710 0.92672 0.93215
 H570 H 0.62363 0.89434 0.80390
 H571 H 0.57063 0.94593 0.85366
 H572 H 0.57114 0.84972 0.95810
 H573 H 0.62503 0.79849 0.90703
 H574 H 0.72513 0.90182 0.90729
 H575 H 0.67064 0.95194 0.95765
   
