data_POSCAR
  _audit_creation_date              2014-09-24
  _audit_creation_method            'ToBaCCo'
  _symmetry_space_group_name_H-M    'P1'
  _symmetry_Int_Tables_number       1
  _symmetry_cell_setting            triclinic
  loop_
  _symmetry_equiv_pos_as_xyz
 x,y,z
_cell_length_a 38.3672
_cell_length_b 51.7496
_cell_length_c 43.5219
_cell_angle_alpha 89.935000
_cell_angle_beta 89.781900
_cell_angle_gamma 90.119800
loop_
  _atom_site_label
  _atom_site_type_symbol
  _atom_site_fract_x
  _atom_site_fract_y
  _atom_site_fract_z
O1 O 0.24648 0.27979 0.28993
 O2 O 0.20589 0.22810 0.24368
 O3 O 0.24656 0.22952 0.29132
 O4 O 0.20372 0.27838 0.24355
 O5 O 0.24876 0.27876 0.21192
 O6 O 0.29204 0.22969 0.26026
 O7 O 0.25144 0.22849 0.21261
 O8 O 0.29149 0.28012 0.25826
 Cu9 Cu 0.22114 0.25394 0.27025
 Cu10 Cu 0.27548 0.25433 0.23266
 C11 C 0.27600 0.28882 0.28189
 C12 C 0.22189 0.21940 0.22023
 C13 C 0.27653 0.22107 0.28408
 C14 C 0.21870 0.28693 0.21954
 O15 O 0.70327 0.27576 0.25830
 O16 O 0.74584 0.22610 0.21104
 O17 O 0.70451 0.22556 0.25818
 O18 O 0.74605 0.27653 0.21130
 O19 O 0.79055 0.27719 0.24312
 O20 O 0.75010 0.22542 0.28890
 O21 O 0.79159 0.22693 0.24160
 O22 O 0.74792 0.27561 0.29006
 Cu23 Cu 0.72043 0.25109 0.23153
 Cu24 Cu 0.77458 0.25140 0.26902
 C25 C 0.71797 0.28389 0.28254
 C26 C 0.77590 0.21793 0.21826
 C27 C 0.72039 0.21662 0.28145
 C28 C 0.77554 0.28561 0.21915
 O29 O 0.75619 0.78007 0.70631
 O30 O 0.79920 0.72950 0.75179
 O31 O 0.75417 0.72972 0.70684
 O32 O 0.80004 0.77984 0.75142
 O33 O 0.75641 0.78067 0.78447
 O34 O 0.71113 0.73023 0.74055
 O35 O 0.75606 0.73039 0.78539
 O36 O 0.71222 0.78036 0.73915
 Cu37 Cu 0.78176 0.75461 0.72575
 Cu38 Cu 0.72963 0.75545 0.76575
 C39 C 0.72686 0.78885 0.71490
 C40 C 0.78522 0.72142 0.77650
 C41 C 0.72467 0.72149 0.71603
 C42 C 0.78596 0.78899 0.77556
 O43 O 0.30481 0.77812 0.75361
 O44 O 0.26521 0.72483 0.79820
 O45 O 0.30707 0.72810 0.75084
 O46 O 0.26441 0.77511 0.80170
 O47 O 0.21890 0.77614 0.77100
 O48 O 0.26085 0.72781 0.72082
 O49 O 0.21917 0.72596 0.76805
 O50 O 0.25928 0.77814 0.72283
 Cu51 Cu 0.28993 0.75146 0.77918
 Cu52 Cu 0.23497 0.75207 0.74262
 C53 C 0.28883 0.78713 0.73042
 C54 C 0.23524 0.71639 0.79081
 C55 C 0.29134 0.71990 0.72716
 C56 C 0.23444 0.78387 0.79509
 C57 C 0.98285 0.00075 0.00340
 C58 C 1.01831 -0.00028 0.00486
 C59 C 1.03820 0.01909 0.02284
 C60 C 1.03854 -0.02069 -0.01110
 C61 C 0.96229 -0.01678 -0.01662
 C62 C 0.96311 0.01939 0.02249
 C63 C 1.03520 0.04553 0.01623
 C64 C 1.05108 0.06386 0.03509
 C65 C 1.07061 0.05608 0.06074
 C66 C 1.07482 0.02951 0.06651
 C67 C 1.05879 0.01117 0.04766
 C68 C 1.06470 -0.01378 -0.03215
 C69 C 1.08205 -0.03276 -0.04909
 C70 C 1.07376 -0.05904 -0.04508
 C71 C 1.04845 -0.06594 -0.02307
 C72 C 1.03112 -0.04695 -0.00614
 C73 C 0.93461 -0.03111 -0.00409
 C74 C 0.91619 -0.04866 -0.02222
 C75 C 0.92506 -0.05223 -0.05332
 C76 C 0.95209 -0.03721 -0.06607
 C77 C 0.97030 -0.01949 -0.04796
 C78 C 0.96377 0.01756 0.05465
 C79 C 0.94736 0.03629 0.07266
 C80 C 0.93037 0.05725 0.05874
 C81 C 0.92915 0.05874 0.02653
 C82 C 0.94510 0.03976 0.00852
 H83 H 1.01993 0.05197 -0.00320
 H84 H 1.04798 0.08416 0.02970
 H85 H 1.08953 0.02293 0.08620
 H86 H 1.06140 -0.00917 0.05306
 H87 H 1.07083 0.00638 -0.03622
 H88 H 1.10117 -0.02679 -0.06604
 H89 H 1.01148 -0.05268 0.01047
 H90 H 0.92771 -0.02911 0.01995
 H91 H 0.89500 -0.05946 -0.01185
 H92 H 0.95973 -0.03955 -0.08987
 H93 H 0.99106 -0.00820 -0.05829
 H94 H 0.97753 0.00187 0.06573
 H95 H 0.94876 0.03482 0.09744
 H96 H 0.91593 0.07462 0.01534
 H97 H 0.94440 0.04140 -0.01628
 H98 H 1.04198 -0.08604 -0.01901
 C99 C 0.48254 0.49881 0.50754
 C100 C 0.51805 0.49874 0.50730
 C101 C 0.53846 0.51846 0.52435
 C102 C 0.53842 0.47915 0.48995
 C103 C 0.46161 0.48066 0.48861
 C104 C 0.46275 0.51702 0.52721
 C105 C 0.53374 0.54493 0.51869
 C106 C 0.55333 0.56329 0.53466
 C107 C 0.57829 0.55550 0.55635
 C108 C 0.58326 0.52895 0.56164
 C109 C 0.56359 0.51063 0.54571
 C110 C 0.56408 0.48726 0.46900
 C111 C 0.58341 0.46918 0.45240
 C112 C 0.57762 0.44257 0.45655
 C113 C 0.55223 0.43446 0.47789
 C114 C 0.53296 0.45259 0.49459
 C115 C 0.43542 0.46571 0.50255
 C116 C 0.41574 0.44834 0.48523
 C117 C 0.42178 0.44559 0.45351
 C118 C 0.44760 0.46098 0.43946
 C119 C 0.46715 0.47847 0.45680
 C120 C 0.46535 0.51585 0.55933
 C121 C 0.44653 0.53309 0.57767
 C122 C 0.42518 0.55192 0.56412
 C123 C 0.42257 0.55298 0.53196
 C124 C 0.44092 0.53546 0.51366
 H125 H 0.51510 0.55136 0.50171
 H126 H 0.54935 0.58357 0.52968
 H127 H 0.60202 0.52236 0.57841
 H128 H 0.56773 0.49028 0.55027
 H129 H 0.56878 0.50766 0.46517
 H130 H 0.60250 0.47603 0.43589
 H131 H 0.51382 0.44592 0.51116
 H132 H 0.43044 0.46730 0.52699
 H133 H 0.39560 0.43719 0.49666
 H134 H 0.45307 0.45922 0.41513
 H135 H 0.48675 0.49020 0.44544
 H136 H 0.48188 0.50157 0.57012
 H137 H 0.44903 0.53200 0.60242
 H138 H 0.40603 0.56719 0.52103
 H139 H 0.43853 0.53650 0.48890
 H140 H 0.54758 0.41409 0.48195
 C141 C 0.01282 0.49419 -0.01122
 C142 C -0.02268 0.49507 -0.00996
 C143 C -0.04328 0.47596 0.00807
 C144 C -0.04268 0.51530 -0.02650
 C145 C 0.03307 0.51164 -0.03172
 C146 C 0.03323 0.47600 0.00801
 C147 C -0.03923 0.44930 0.00329
 C148 C -0.05856 0.43156 0.02063
 C149 C -0.08249 0.44015 0.04292
 C150 C -0.08694 0.46687 0.04721
 C151 C -0.06762 0.48458 0.02987
 C152 C -0.06912 0.50812 -0.04698
 C153 C -0.08769 0.52693 -0.06309
 C154 C -0.08032 0.55332 -0.05886
 C155 C -0.05427 0.56046 -0.03786
 C156 C -0.03577 0.54164 -0.02170
 C157 C 0.05887 0.52773 -0.01934
 C158 C 0.07738 0.54480 -0.03822
 C159 C 0.07065 0.54593 -0.06994
 C160 C 0.04533 0.52929 -0.08238
 C161 C 0.02679 0.51225 -0.06346
 C162 C 0.02917 0.47550 0.04008
 C163 C 0.04859 0.45832 0.05790
 C164 C 0.07268 0.44147 0.04402
 C165 C 0.07701 0.44232 0.01193
 C166 C 0.05758 0.45949 -0.00585
 H167 H -0.02102 0.44226 -0.01382
 H168 H -0.05439 0.41111 0.01692
 H169 H -0.10559 0.47409 0.06383
 H170 H -0.07138 0.50507 0.03370
 H171 H -0.07494 0.48790 -0.05089
 H172 H -0.10737 0.52081 -0.07930
 H173 H -0.01601 0.54759 -0.00546
 H174 H 0.06413 0.52747 0.00509
 H175 H 0.09640 0.55754 -0.02785
 H176 H 0.04000 0.52932 -0.10679
 H177 H 0.00745 0.49960 -0.07353
 H178 H 0.01108 0.48850 0.05129
 H179 H 0.04511 0.45846 0.08260
 H180 H 0.09504 0.42940 0.00051
 H181 H 0.06118 0.45967 -0.03055
 H182 H -0.04844 0.58063 -0.03367
 C183 C 0.51334 0.99430 0.49021
 C184 C 0.47804 0.99674 0.49200
 C185 C 0.45668 0.97870 0.51078
 C186 C 0.45949 1.01736 0.47492
 C187 C 0.53426 1.00988 0.46823
 C188 C 0.53239 0.97633 0.51061
 C189 C 0.45854 0.95194 0.50582
 C190 C 0.43960 0.93492 0.52439
 C191 C 0.41822 0.94434 0.54815
 C192 C 0.41576 0.97120 0.55258
 C193 C 0.43470 0.98823 0.53392
 C194 C 0.43359 1.01085 0.45364
 C195 C 0.41822 1.02999 0.43552
 C196 C 0.42832 1.05601 0.43857
 C197 C 0.45337 1.06254 0.46076
 C198 C 0.46869 1.04341 0.47885
 C199 C 0.56057 1.02631 0.47903
 C200 C 0.57795 1.04298 0.45883
 C201 C 0.56948 1.04333 0.42741
 C202 C 0.54414 1.02599 0.41648
 C203 C 0.52679 1.00935 0.43669
 C204 C 0.53098 0.97942 0.54262
 C205 C 0.54773 0.96180 0.56187
 C206 C 0.56583 0.94068 0.54939
 C207 C 0.56758 0.93783 0.51732
 C208 C 0.55130 0.95571 0.49806
 H209 H 0.47497 0.94424 0.48775
 H210 H 0.44223 0.91435 0.52055
 H211 H 0.39911 0.97902 0.57041
 H212 H 0.43275 1.00883 0.53792
 H213 H 0.42617 0.99084 0.45031
 H214 H 0.39921 1.02430 0.41848
 H215 H 0.48821 1.04884 0.49556
 H216 H 0.56668 1.02695 0.50330
 H217 H 0.59712 1.05623 0.46801
 H218 H 0.53756 1.02541 0.39232
 H219 H 0.50695 0.99645 0.42787
 H220 H 0.51664 0.99535 0.55263
 H221 H 0.54591 0.96431 0.58652
 H222 H 0.58165 0.92181 0.50721
 H223 H 0.55266 0.95311 0.47339
 H224 H 0.46116 1.08246 0.46412
 C225 C 1.22466 0.18807 0.17653
 C226 C 1.21011 0.16837 0.15880
 C227 C 1.17670 0.15880 0.16541
 C228 C 1.15831 0.16899 0.19069
 C229 C 1.17293 0.18869 0.20852
 C230 C 1.20621 0.19852 0.20155
 C231 C 1.16250 0.13785 0.14585
 C232 C 1.12831 0.13325 0.14249
 C233 C 1.11433 0.11308 0.12170
 C234 C 1.08049 0.11596 0.11012
 C235 C 1.06640 0.09754 0.09026
 C236 C 1.08576 0.07563 0.08176
 C237 C 1.11940 0.07245 0.09382
 C238 C 1.13354 0.09092 0.11363
 H239 H 1.25044 0.19508 0.17061
 H240 H 1.22496 0.16072 0.13965
 H241 H 1.13294 0.16158 0.19713
 H242 H 1.15819 0.19617 0.22782
 H243 H 1.18105 0.12697 0.13228
 H244 H 1.10961 0.14573 0.15374
 H245 H 1.06497 0.13266 0.11626
 H246 H 1.04013 0.10026 0.08185
 H247 H 1.13492 0.05576 0.08770
 H248 H 1.15928 0.08755 0.12283
 C249 C 0.67284 0.69286 0.70788
 C250 C 0.65428 0.67486 0.69051
 C251 C 0.66806 0.66520 0.66293
 C252 C 0.70087 0.67417 0.65287
 C253 C 0.71946 0.69223 0.67028
 C254 C 0.70561 0.70181 0.69794
 C255 C 0.64680 0.64665 0.64497
 C256 C 0.66008 0.63038 0.62402
 C257 C 0.63847 0.61163 0.60668
 C258 C 0.65429 0.58926 0.59501
 C259 C 0.63481 0.57105 0.57869
 C260 C 0.59909 0.57497 0.57340
 C261 C 0.58337 0.59761 0.58457
 C262 C 0.60283 0.61579 0.60094
 H263 H 0.66133 0.69991 0.72902
 H264 H 0.62899 0.66845 0.69868
 H265 H 0.71198 0.66783 0.63131
 H266 H 0.74450 0.69891 0.66185
 H267 H 0.61930 0.64562 0.65048
 H268 H 0.68799 0.62958 0.62051
 H269 H 0.68177 0.58574 0.59875
 H270 H 0.64780 0.55402 0.56991
 H271 H 0.55588 0.60114 0.58093
 H272 H 0.58990 0.63318 0.60866
 C273 C -0.17570 0.31515 0.20999
 C274 C -0.15918 0.33394 0.19203
 C275 C -0.17437 0.34275 0.16473
 C276 C -0.20708 0.33285 0.15610
 C277 C -0.22377 0.31411 0.17413
 C278 C -0.20820 0.30484 0.20126
 C279 C -0.15568 0.36268 0.14649
 C280 C -0.16014 0.36607 0.11620
 C281 C -0.14026 0.38541 0.09800
 C282 C -0.13551 0.38126 0.06640
 C283 C -0.11672 0.39895 0.04851
 C284 C -0.10258 0.42136 0.06181
 C285 C -0.10786 0.42574 0.09335
 C286 C -0.12657 0.40805 0.11124
 H287 H -0.16282 0.30872 0.23074
 H288 H -0.13416 0.34142 0.19937
 H289 H -0.22016 0.33977 0.13572
 H290 H -0.24888 0.30689 0.16669
 H291 H -0.13595 0.37381 0.15832
 H292 H -0.17736 0.35326 0.10374
 H293 H -0.14613 0.36415 0.05555
 H294 H -0.11359 0.39524 0.02417
 H295 H -0.09718 0.44278 0.10430
 H296 H -0.13058 0.41239 0.13530
 C297 C 0.33787 0.81795 0.71924
 C298 C 0.35313 0.83732 0.70120
 C299 C 0.33584 0.84708 0.67531
 C300 C 0.30235 0.83765 0.66838
 C301 C 0.28710 0.81831 0.68640
 C302 C 0.30478 0.80809 0.71189
 C303 C 0.35322 0.86727 0.65646
 C304 C 0.34612 0.87110 0.62663
 C305 C 0.36441 0.89044 0.60722
 C306 C 0.36529 0.88666 0.57531
 C307 C 0.38253 0.90421 0.55613
 C308 C 0.39899 0.92613 0.56844
 C309 C 0.39743 0.93028 0.60032
 C310 C 0.38028 0.91266 0.61954
 H311 H 0.35210 0.81060 0.73881
 H312 H 0.37877 0.84444 0.70724
 H313 H 0.28761 0.84532 0.64932
 H314 H 0.26139 0.81136 0.68032
 H315 H 0.37404 0.87811 0.66717
 H316 H 0.32770 0.85851 0.61523
 H317 H 0.35290 0.86989 0.56518
 H318 H 0.38279 0.90072 0.53160
 H319 H 0.40997 0.94696 0.61048
 H320 H 0.37926 0.91670 0.64390
 C321 C -0.16462 0.69145 -0.21454
 C322 C -0.14723 0.67315 -0.19668
 C323 C -0.16159 0.66440 -0.16884
 C324 C -0.19371 0.67465 -0.15899
 C325 C -0.21114 0.69298 -0.17688
 C326 C -0.19678 0.70160 -0.20484
 C327 C -0.14165 0.64538 -0.15042
 C328 C -0.15608 0.62999 -0.12902
 C329 C -0.13594 0.61075 -0.11109
 C330 C -0.15359 0.58948 -0.09836
 C331 C -0.13561 0.57088 -0.08139
 C332 C -0.09956 0.57327 -0.07650
 C333 C -0.08197 0.59482 -0.08874
 C334 C -0.09994 0.61341 -0.10576
 H335 H -0.15275 0.69774 -0.23589
 H336 H -0.12242 0.66575 -0.20470
 H337 H -0.20520 0.66909 -0.13725
 H338 H -0.23570 0.70060 -0.16861
 H339 H -0.11428 0.64324 -0.15594
 H340 H -0.18400 0.63033 -0.12546
 H341 H -0.18137 0.58714 -0.10176
 H342 H -0.15000 0.55473 -0.07181
 H343 H -0.05418 0.59716 -0.08547
 H344 H -0.08554 0.62993 -0.11429
 C345 C 0.27516 1.19257 0.32887
 C346 C 0.29031 1.17337 0.34692
 C347 C 0.32301 1.16311 0.33929
 C348 C 0.34023 1.17239 0.31284
 C349 C 0.32511 1.19170 0.29474
 C350 C 0.29228 1.20203 0.30245
 C351 C 0.33731 1.14226 0.35899
 C352 C 0.37101 1.13537 0.35946
 C353 C 0.38481 1.11478 0.37981
 C354 C 0.42040 1.11496 0.38712
 C355 C 0.43448 1.09598 0.40623
 C356 C 0.41327 1.07623 0.41835
 C357 C 0.37775 1.07576 0.41063
 C358 C 0.36367 1.09473 0.39148
 H359 H 0.24986 1.19989 0.33569
 H360 H 0.27634 1.16649 0.36702
 H361 H 0.36499 1.16453 0.30556
 H362 H 0.33905 1.19827 0.27449
 H363 H 0.31929 1.13312 0.37482
 H364 H 0.38975 1.14598 0.34573
 H365 H 0.43737 1.12995 0.37812
 H366 H 0.46210 1.09656 0.41120
 H367 H 0.36072 1.06082 0.41961
 H368 H 0.33638 1.09330 0.38561
 C369 C 1.23551 -0.18921 -0.15877
 C370 C 1.21985 -0.17098 -0.13954
 C371 C 1.18680 -0.16102 -0.14630
 C372 C 1.16986 -0.16939 -0.17316
 C373 C 1.18548 -0.18765 -0.19244
 C374 C 1.21855 -0.19786 -0.18552
 C375 C 1.17163 -0.14136 -0.12540
 C376 C 1.13741 -0.13622 -0.12364
 C377 C 1.12227 -0.11655 -0.10271
 C378 C 1.08673 -0.11821 -0.09523
 C379 C 1.07112 -0.09977 -0.07624
 C380 C 1.09070 -0.07909 -0.06441
 C381 C 1.12627 -0.07733 -0.07197
 C382 C 1.14189 -0.09576 -0.09099
 H383 H 1.26101 -0.19645 -0.15257
 H384 H 1.23362 -0.16471 -0.11917
 H385 H 1.14488 -0.16158 -0.17981
 H386 H 1.17165 -0.19357 -0.21292
 H387 H 1.18942 -0.13172 -0.10994
 H388 H 1.11928 -0.14756 -0.13704
 H389 H 1.07090 -0.13381 -0.10420
 H390 H 1.04351 -0.10141 -0.07135
 H391 H 1.14209 -0.06167 -0.06315
 H392 H 1.16908 -0.09324 -0.09688
 C393 C 0.66680 0.31233 0.29398
 C394 C 0.64891 0.32944 0.31314
 C395 C 0.66350 0.33761 0.34101
 C396 C 0.69647 0.32810 0.34946
 C397 C 0.71441 0.31098 0.33025
 C398 C 0.69972 0.30284 0.30235
 C399 C 0.64290 0.35521 0.36091
 C400 C 0.65682 0.37008 0.38294
 C401 C 0.63592 0.38802 0.40210
 C402 C 0.65249 0.40951 0.41523
 C403 C 0.63366 0.42710 0.43306
 C404 C 0.59784 0.42344 0.43842
 C405 C 0.58140 0.40157 0.42595
 C406 C 0.60022 0.38400 0.40805
 H407 H 0.65466 0.30638 0.27270
 H408 H 0.62348 0.33630 0.30615
 H409 H 0.70825 0.33325 0.37114
 H410 H 0.73957 0.30381 0.33751
 H411 H 0.61535 0.35678 0.35601
 H412 H 0.68478 0.37043 0.38602
 H413 H 0.68004 0.41287 0.41138
 H414 H 0.64720 0.44352 0.44282
 H415 H 0.55382 0.39825 0.42962
 H416 H 0.58672 0.36722 0.39923
 C417 C 0.83534 -0.18155 -0.21742
 C418 C 0.85213 -0.16223 -0.20057
 C419 C 0.83741 -0.15279 -0.17328
 C420 C 0.80499 -0.16256 -0.16351
 C421 C 0.78804 -0.18173 -0.18041
 C422 C 0.80303 -0.19163 -0.20755
 C423 C 0.85598 -0.13234 -0.15601
 C424 C 0.85298 -0.12955 -0.12549
 C425 C 0.87189 -0.10952 -0.10785
 C426 C 0.87927 -0.11419 -0.07682
 C427 C 0.89664 -0.09569 -0.05922
 C428 C 0.90657 -0.07186 -0.07217
 C429 C 0.89878 -0.06705 -0.10320
 C430 C 0.88161 -0.08566 -0.12088
 H431 H 0.84771 -0.18848 -0.23824
 H432 H 0.87693 -0.15482 -0.20872
 H433 H 0.79230 -0.15514 -0.14312
 H434 H 0.76309 -0.18874 -0.17211
 H435 H 0.87412 -0.12026 -0.16867
 H436 H 0.83760 -0.14334 -0.11248
 H437 H 0.87191 -0.13236 -0.06622
 H438 H 0.90268 -0.10021 -0.03554
 H439 H 0.90540 -0.04871 -0.11371
 H440 H 0.87533 -0.08106 -0.14447
 C441 C 0.32286 0.32195 0.28903
 C442 C 0.33892 0.34139 0.30616
 C443 C 0.32552 0.34866 0.33488
 C444 C 0.29499 0.33657 0.34582
 C445 C 0.27872 0.31724 0.32855
 C446 C 0.29265 0.30958 0.30007
 C447 C 0.34370 0.36919 0.35234
 C448 C 0.34297 0.37073 0.38309
 C449 C 0.36293 0.39034 0.40054
 C450 C 0.37342 0.38453 0.43059
 C451 C 0.39259 0.40238 0.44771
 C452 C 0.40132 0.42665 0.43527
 C453 C 0.39028 0.43265 0.40534
 C454 C 0.37124 0.41473 0.38816
 H455 H 0.33412 0.31666 0.26708
 H456 H 0.36220 0.35056 0.29710
 H457 H 0.28331 0.34223 0.36745
 H458 H 0.25534 0.30821 0.33757
 H459 H 0.36022 0.38228 0.33941
 H460 H 0.32929 0.35606 0.39620
 H461 H 0.36721 0.36594 0.44071
 H462 H 0.40101 0.39701 0.47054
 H463 H 0.39588 0.45138 0.39535
 H464 H 0.36259 0.42025 0.36545
 C465 C 0.23643 0.68322 -0.16702
 C466 C 0.22034 0.66355 -0.15001
 C467 C 0.18625 0.65550 -0.15683
 C468 C 0.16834 0.66790 -0.18085
 C469 C 0.18444 0.68747 -0.19789
 C470 C 0.21864 0.69537 -0.19120
 C471 C 0.16997 0.63497 -0.13765
 C472 C 0.14207 0.62113 -0.14638
 C473 C 0.12483 0.60153 -0.12660
 C474 C 0.08950 0.59597 -0.13163
 C475 C 0.07198 0.57789 -0.11336
 C476 C 0.08954 0.56470 -0.08982
 C477 C 0.12514 0.56986 -0.08520
 C478 C 0.14265 0.58803 -0.10340
 H479 H 0.26276 0.68892 -0.16121
 H480 H 0.23464 0.65454 -0.13146
 H481 H 0.14165 0.66312 -0.18629
 H482 H 0.16985 0.69664 -0.21614
 H483 H 0.18153 0.63140 -0.11541
 H484 H 0.13036 0.62460 -0.16855
 H485 H 0.07522 0.60599 -0.14945
 H486 H 0.04448 0.57462 -0.11730
 H487 H 0.13960 0.55959 -0.06772
 H488 H 0.17018 0.59107 -0.09953
 C489 C 0.72219 1.18501 0.32503
 C490 C 0.70704 1.16532 0.34257
 C491 C 0.67373 1.15582 0.33552
 C492 C 0.65557 1.16681 0.31066
 C493 C 0.67077 1.18649 0.29307
 C494 C 0.70425 1.19579 0.30004
 C495 C 0.65879 1.13514 0.35528
 C496 C 0.63166 1.12021 0.34730
 C497 C 0.61676 1.10009 0.36777
 C498 C 0.58149 1.09348 0.36459
 C499 C 0.56623 1.07495 0.38377
 C500 C 0.58608 1.06235 0.40635
 C501 C 0.62163 1.06851 0.40905
 C502 C 0.63687 1.08712 0.38993
 H503 H 0.74799 1.19176 0.33108
 H504 H 0.72153 1.15740 0.36170
 H505 H 0.62944 1.16076 0.30489
 H506 H 0.65614 1.19456 0.27412
 H507 H 0.67094 1.13223 0.37742
 H508 H 0.61894 1.12305 0.32545
 H509 H 0.56550 1.10306 0.34758
 H510 H 0.53868 1.07089 0.38135
 H511 H 0.63776 1.05874 0.42577
 H512 H 0.66445 1.09095 0.39231
 C513 C 0.16748 0.31534 0.20881
 C514 C 0.15023 0.33360 0.19084
 C515 C 0.16564 0.34339 0.16394
 C516 C 0.19923 0.33479 0.15569
 C517 C 0.21652 0.31647 0.17373
 C518 C 0.20077 0.30647 0.20043
 C519 C 0.14583 0.36270 0.14581
 C520 C 0.15277 0.36883 0.11644
 C521 C 0.13177 0.38763 0.09866
 C522 C 0.14737 0.40053 0.07378
 C523 C 0.12834 0.41813 0.05618
 C524 C 0.09309 0.42301 0.06290
 C525 C 0.07732 0.40985 0.08757
 C526 C 0.09636 0.39229 0.10520
 H527 H 0.15461 0.30812 0.22930
 H528 H 0.12454 0.33997 0.19790
 H529 H 0.21261 0.34230 0.13569
 H530 H 0.24228 0.31019 0.16679
 H531 H 0.12411 0.37190 0.15731
 H532 H 0.17470 0.36016 0.10473
 H533 H 0.17450 0.39716 0.06811
 H534 H 0.14134 0.42811 0.03749
 H535 H 0.05000 0.41271 0.09286
 H536 H 0.08295 0.38201 0.12339
 C537 C 0.72930 0.82439 0.67599
 C538 C 0.71318 0.84353 0.65844
 C539 C 0.67707 0.84733 0.66040
 C540 C 0.65741 0.83216 0.68097
 C541 C 0.67364 0.81332 0.69897
 C542 C 0.70969 0.80910 0.69644
 C543 C 0.66082 0.86758 0.64128
 C544 C 0.62893 0.86496 0.62924
 C545 C 0.61335 0.88470 0.60893
 C546 C 0.59133 0.87676 0.58507
 C547 C 0.57629 0.89494 0.56543
 C548 C 0.58235 0.92145 0.56981
 C549 C 0.60383 0.92946 0.59406
 C550 C 0.61937 0.91125 0.61337
 H551 H 0.75718 0.82171 0.67376
 H552 H 0.72886 0.85516 0.64294
 H553 H 0.62961 0.83508 0.68350
 H554 H 0.65792 0.80187 0.71462
 H555 H 0.67657 0.88424 0.63520
 H556 H 0.61470 0.84707 0.63262
 H557 H 0.58609 0.85642 0.58141
 H558 H 0.55945 0.88835 0.54711
 H559 H 0.60880 0.94981 0.59790
 H560 H 0.63556 0.91799 0.63205
 C561 C 0.77215 0.18206 0.18000
 C562 C 0.78751 0.16236 0.16277
 C563 C 0.82355 0.15815 0.16408
 C564 C 0.84399 0.17367 0.18350
 C565 C 0.82853 0.19312 0.20117
 C566 C 0.79247 0.19757 0.19948
 C567 C 0.83879 0.13690 0.14581
 C568 C 0.87084 0.13813 0.13357
 C569 C 0.88546 0.11711 0.11452
 C570 C 0.90807 0.12335 0.09021
 C571 C 0.92225 0.10389 0.07178
 C572 C 0.91467 0.07782 0.07782
 C573 C 0.89260 0.07151 0.10252
 C574 C 0.87796 0.09098 0.12064
 H575 H 0.74425 0.18489 0.17844
 H576 H 0.77123 0.15048 0.14816
 H577 H 0.87175 0.17047 0.18555
 H578 H 0.84479 0.20471 0.21608
 H579 H 0.82224 0.12047 0.14072
 H580 H 0.88601 0.15570 0.13588
 H581 H 0.91447 0.14333 0.08529
 H582 H 0.93960 0.10917 0.05310
 H583 H 0.88650 0.05152 0.10764
 H584 H 0.86130 0.08555 0.13971
 C585 C 0.34543 0.69913 0.70684
 C586 C 0.36229 0.68177 0.68727
 C587 C 0.34299 0.66564 0.66782
 C588 C 0.30643 0.66761 0.66770
 C589 C 0.28957 0.68537 0.68685
 C590 C 0.30892 0.70117 0.70675
 C591 C 0.36176 0.64767 0.64726
 C592 C 0.34936 0.62426 0.63999
 C593 C 0.36901 0.60605 0.62034
 C594 C 0.36686 0.57946 0.62634
 C595 C 0.38544 0.56185 0.60829
 C596 C 0.40578 0.57053 0.58344
 C597 C 0.40736 0.59710 0.57701
 C598 C 0.38930 0.61474 0.59539
 H599 H 0.36101 0.71124 0.72175
 H600 H 0.39048 0.68073 0.68754
 H601 H 0.29093 0.65581 0.65240
 H602 H 0.26141 0.68661 0.68625
 H603 H 0.38760 0.65325 0.63957
 H604 H 0.32525 0.61753 0.65032
 H605 H 0.35115 0.57234 0.64528
 H606 H 0.38356 0.54141 0.61346
 H607 H 0.42289 0.60421 0.55796
 H608 H 0.39081 0.63509 0.58977
   
