data_POSCAR
  _audit_creation_date              2014-09-24
  _audit_creation_method            'ToBaCCo'
  _symmetry_space_group_name_H-M    'P1'
  _symmetry_Int_Tables_number       1
  _symmetry_cell_setting            triclinic
  loop_
  _symmetry_equiv_pos_as_xyz
 x,y,z
_cell_length_a 23.0385
_cell_length_b 23.4136
_cell_length_c 34.6333
_cell_angle_alpha 71.382800
_cell_angle_beta 107.554300
_cell_angle_gamma 68.175500
loop_
  _atom_site_label
  _atom_site_type_symbol
  _atom_site_fract_x
  _atom_site_fract_y
  _atom_site_fract_z
O1 O -0.08951 0.47877 1.00009
 O2 O -0.05546 0.60918 0.93428
 O3 O -0.06222 0.50109 0.93111
 O4 O -0.08091 0.58484 1.00394
 O5 O 0.03447 0.51410 1.05271
 O6 O 0.05313 0.43071 0.97993
 O7 O 0.05985 0.53868 0.98313
 O8 O 0.02586 0.40813 1.04888
 Cu9 Cu -0.08364 0.55062 0.96230
 Cu10 Cu 0.05501 0.46578 1.02095
 C11 C -0.03756 0.42133 1.03545
 C12 C 0.00780 0.59653 0.94812
 C13 C -0.00149 0.45094 0.94369
 C14 C -0.02623 0.56384 1.04046
 O15 O 0.61084 -0.04602 0.56098
 O16 O 0.48166 -0.08295 0.49782
 O17 O 0.58979 -0.07440 0.49321
 O18 O 0.50357 -0.05459 0.56583
 O19 O 0.43132 0.05915 0.51544
 O20 O 0.51761 0.03934 0.44284
 O21 O 0.40956 0.03078 0.44747
 O22 O 0.53849 0.06769 0.51056
 Cu23 Cu 0.55363 -0.07601 0.53444
 Cu24 Cu 0.46686 0.06066 0.47392
 C25 C 0.59649 0.01715 0.54627
 C26 C 0.42357 -0.03226 0.46221
 C27 C 0.56891 -0.02071 0.45610
 C28 C 0.45295 0.00565 0.55291
 C29 C -0.06615 -0.13514 0.22916
 C30 C -0.11488 -0.13061 0.25122
 C31 C -0.12076 -0.08615 0.26923
 C32 C -0.07758 -0.05034 0.26368
 C33 C -0.09612 -0.05892 0.19332
 C34 C -0.10139 -0.01467 0.21158
 C35 C 0.00524 -0.15602 0.26719
 C36 C -0.00103 -0.11109 0.28506
 H37 H -0.14172 -0.16023 0.25282
 H38 H -0.08300 -0.01415 0.27851
 H39 H -0.10178 -0.04402 0.15868
 H40 H 0.05640 -0.19667 0.27488
 C41 C 0.13403 0.07276 0.73313
 C42 C 0.15211 0.00408 0.77221
 C43 C 0.10301 0.01318 0.78761
 C44 C 0.04143 0.08968 0.76307
 C45 C 0.05880 0.10146 0.69573
 C46 C 0.01044 0.10951 0.71166
 C47 C 0.12572 0.12389 0.75246
 C48 C 0.07720 0.13260 0.76812
 H49 H 0.19343 -0.04768 0.78172
 H50 H 0.00186 0.09747 0.77595
 H51 H 0.04789 0.10330 0.66241
 H52 H 0.15617 0.14986 0.75433
 C53 C -0.04991 -0.25666 0.16494
 C54 C -0.05823 -0.31568 0.17846
 C55 C -0.05395 -0.35366 0.15353
 C56 C -0.04140 -0.33232 0.11529
 C57 C -0.03285 -0.27340 0.10185
 C58 C -0.03711 -0.23546 0.12676
 C59 C -0.02846 -0.17667 0.11264
 C60 C -0.01598 -0.15597 0.07501
 C61 C -0.01188 -0.19305 0.05063
 C62 C -0.02012 -0.25113 0.06374
 C63 C -0.06247 -0.41248 0.16763
 C64 C -0.07482 -0.43322 0.20532
 C65 C -0.07902 -0.39607 0.22969
 C66 C -0.07090 -0.33789 0.21654
 C67 C -0.03696 -0.37078 0.08967
 C68 C -0.03256 -0.40141 0.06761
 C69 C -0.05533 -0.21685 0.18966
 C70 C -0.06003 -0.18145 0.20859
 H71 H -0.03119 -0.14608 0.13047
 H72 H -0.00946 -0.11092 0.06474
 H73 H -0.00231 -0.17669 0.02138
 H74 H -0.01645 -0.27821 0.04364
 H75 H -0.05966 -0.44300 0.14973
 H76 H -0.08114 -0.47837 0.21569
 H77 H -0.08859 -0.41243 0.25895
 H78 H -0.07455 -0.31064 0.23653
 C79 C -0.09475 0.15997 0.14542
 C80 C -0.09588 0.17463 0.10215
 C81 C -0.08531 0.22962 0.08010
 C82 C -0.07356 0.26955 0.10149
 C83 C -0.07277 0.25512 0.14464
 C84 C -0.08356 0.20021 0.16664
 C85 C -0.08180 0.18620 0.21000
 C86 C -0.06962 0.22530 0.23105
 C87 C -0.05908 0.27899 0.20953
 C88 C -0.06065 0.29400 0.16679
 C89 C -0.08623 0.24302 0.03697
 C90 C -0.09732 0.20324 0.01624
 C91 C -0.10750 0.14934 0.03786
 C92 C -0.10684 0.13496 0.08031
 C93 C -0.06115 0.32453 0.07925
 C94 C -0.05052 0.36929 0.05980
 C95 C -0.10103 0.10089 0.16907
 C96 C -0.10336 0.04963 0.18845
 H97 H -0.08955 0.14483 0.22810
 H98 H -0.06833 0.21386 0.26425
 H99 H -0.04964 0.30922 0.22602
 H100 H -0.05215 0.33625 0.15138
 H101 H -0.07844 0.28428 0.01879
 H102 H -0.09807 0.21435 -0.01679
 H103 H -0.11601 0.11852 0.02165
 H104 H -0.11511 0.09255 0.09570
 C105 C 0.27174 0.04497 0.67844
 C106 C 0.27228 0.10340 0.64996
 C107 C 0.31272 0.09465 0.62613
 C108 C 0.35229 0.02753 0.63093
 C109 C 0.35375 -0.03140 0.66072
 C110 C 0.31333 -0.02264 0.68455
 C111 C 0.31506 -0.08218 0.71382
 C112 C 0.35567 -0.14851 0.71944
 C113 C 0.39527 -0.15710 0.69618
 C114 C 0.39447 -0.09940 0.66708
 C115 C 0.31201 0.15394 0.59755
 C116 C 0.27255 0.21998 0.59269
 C117 C 0.23295 0.22855 0.61595
 C118 C 0.23259 0.17111 0.64429
 C119 C 0.38926 0.01963 0.60393
 C120 C 0.41881 0.01325 0.58087
 C121 C 0.22545 0.05499 0.69936
 C122 C 0.18523 0.06314 0.71541
 H123 H 0.28535 -0.07820 0.73278
 H124 H 0.35642 -0.19348 0.74199
 H125 H 0.42681 -0.20876 0.70072
 H126 H 0.42623 -0.10873 0.64978
 H127 H 0.34204 0.14989 0.57879
 H128 H 0.27273 0.26473 0.57076
 H129 H 0.20237 0.27996 0.61205
 H130 H 0.20118 0.18029 0.66182
 C131 C -0.15843 0.09137 0.64972
 C132 C -0.19896 0.12575 0.60085
 C133 C -0.25064 0.11055 0.58021
 C134 C -0.26137 0.06098 0.60862
 C135 C -0.22134 0.02715 0.65754
 C136 C -0.16994 0.04266 0.67817
 C137 C -0.13060 0.00827 0.72716
 C138 C -0.14144 -0.04040 0.75494
 C139 C -0.19121 -0.05606 0.73474
 C140 C -0.23097 -0.02272 0.68661
 C141 C -0.29005 0.14509 0.53122
 C142 C -0.27866 0.19317 0.50345
 C143 C -0.22811 0.20802 0.52366
 C144 C -0.18860 0.17489 0.57177
 C145 C -0.31277 0.04419 0.58730
 C146 C -0.35545 0.03100 0.56854
 C147 C -0.10167 0.10243 0.67068
 C148 C -0.05217 0.10826 0.68870
 H149 H -0.09105 0.01846 0.74452
 H150 H -0.11075 -0.06640 0.79235
 H151 H -0.19914 -0.09419 0.75647
 H152 H -0.26923 -0.03646 0.67250
 H153 H -0.32992 0.13527 0.51384
 H154 H -0.30921 0.21903 0.46605
 H155 H -0.21944 0.24541 0.50194
 H156 H -0.14999 0.18828 0.58588
 C157 C 0.07300 -0.14621 0.84981
 C158 C 0.04390 -0.17175 0.82206
 C159 C 0.02905 -0.22467 0.84126
 C160 C 0.04410 -0.25226 0.88820
 C161 C 0.07220 -0.22593 0.91573
 C162 C 0.08664 -0.17271 0.89645
 C163 C 0.11428 -0.14690 0.92451
 C164 C 0.12718 -0.17282 0.97033
 C165 C 0.11311 -0.22488 0.98923
 C166 C 0.08599 -0.25136 0.96243
 C167 C -0.00121 -0.24846 0.81265
 C168 C -0.01657 -0.22061 0.76632
 C169 C -0.00176 -0.16910 0.74759
 C170 C 0.02842 -0.14497 0.77502
 C171 C 0.03056 -0.30746 0.90834
 C172 C 0.01976 -0.35301 0.92632
 C173 C 0.08681 -0.09123 0.82983
 C174 C 0.09610 -0.04450 0.81181
 H175 H 0.12607 -0.10639 0.91135
 H176 H 0.14818 -0.15237 0.99128
 H177 H 0.12319 -0.24483 1.02483
 H178 H 0.07572 -0.29168 0.97868
 H179 H -0.01367 -0.28845 0.82567
 H180 H -0.04010 -0.23911 0.74485
 H181 H -0.01388 -0.14756 0.71158
 H182 H 0.03867 -0.10463 0.75880
 C183 C 0.03937 0.25660 0.82911
 C184 C 0.03499 0.23195 0.87055
 C185 C 0.02509 0.27371 0.89278
 C186 C 0.01956 0.33993 0.87341
 C187 C 0.02303 0.36497 0.83167
 C188 C 0.03299 0.32318 0.80945
 C189 C 0.03659 0.34921 0.76785
 C190 C 0.03052 0.41464 0.74874
 C191 C 0.02076 0.45549 0.77045
 C192 C 0.01701 0.43121 0.81145
 C193 C 0.02128 0.24772 0.93433
 C194 C 0.02721 0.18236 0.95340
 C195 C 0.03672 0.14163 0.93160
 C196 C 0.04060 0.16587 0.89064
 C197 C 0.01146 0.38152 0.89694
 C198 C 0.00529 0.41443 0.91755
 C199 C 0.05181 0.21295 0.80720
 C200 C 0.06294 0.17646 0.78926
 H201 H 0.04405 0.31941 0.74965
 H202 H 0.03340 0.43374 0.71689
 H203 H 0.01607 0.50628 0.75546
 H204 H 0.00932 0.46489 0.82705
 H205 H 0.01374 0.27751 0.95254
 H206 H 0.02449 0.16318 0.98529
 H207 H 0.04119 0.09094 0.94651
 H208 H 0.04800 0.13230 0.87496
 C209 C -0.24139 -0.05646 0.33500
 C210 C -0.23821 -0.01865 0.35955
 C211 C -0.27882 -0.01049 0.38333
 C212 C -0.32240 -0.04021 0.38239
 C213 C -0.32608 -0.07746 0.35747
 C214 C -0.28545 -0.08563 0.33371
 C215 C -0.28984 -0.12328 0.30915
 C216 C -0.33312 -0.15204 0.30808
 C217 C -0.37283 -0.14404 0.33131
 C218 C -0.36956 -0.10725 0.35577
 C219 C -0.27455 0.02736 0.40777
 C220 C -0.23145 0.05633 0.40869
 C221 C -0.19179 0.04835 0.38543
 C222 C -0.19491 0.01136 0.36109
 C223 C -0.36243 -0.03335 0.40770
 C224 C -0.39456 -0.02768 0.42936
 C225 C -0.19876 -0.06614 0.31154
 C226 C -0.16322 -0.07486 0.29222
 H227 H -0.25997 -0.13089 0.29053
 H228 H -0.33582 -0.18070 0.28913
 H229 H -0.40635 -0.16650 0.33038
 H230 H -0.40146 -0.10239 0.37327
 H231 H -0.30443 0.03503 0.42638
 H232 H -0.22882 0.08510 0.42756
 H233 H -0.15838 0.07094 0.38625
 H234 H -0.16309 0.00659 0.34353
 C235 C 0.16478 -0.09224 0.35229
 C236 C 0.21983 -0.14331 0.39808
 C237 C 0.27445 -0.13224 0.42009
 C238 C 0.27373 -0.07014 0.39612
 C239 C 0.21928 -0.01957 0.35002
 C240 C 0.16460 -0.03060 0.32805
 C241 C 0.11060 0.02088 0.28198
 C242 C 0.11087 0.08126 0.25826
 C243 C 0.16422 0.09209 0.27978
 C244 C 0.21793 0.04245 0.32513
 C245 C 0.32879 -0.18398 0.46597
 C246 C 0.32915 -0.24489 0.48942
 C247 C 0.27577 -0.25572 0.46789
 C248 C 0.22162 -0.20571 0.42273
 C249 C 0.32786 -0.05742 0.41924
 C250 C 0.37204 -0.04624 0.43867
 C251 C 0.10773 -0.10231 0.33015
 C252 C 0.05907 -0.10824 0.31060
 H253 H 0.06779 0.01500 0.26374
 H254 H 0.06961 0.11980 0.22296
 H255 H 0.16407 0.13915 0.26122
 H256 H 0.25840 0.05314 0.34036
 H257 H 0.37161 -0.17806 0.48413
 H258 H 0.37116 -0.28395 0.52448
 H259 H 0.27636 -0.30318 0.48623
 H260 H 0.18139 -0.21658 0.40741
   
