data_POSCAR
  _audit_creation_date              2014-09-24
  _audit_creation_method            'ToBaCCo'
  _symmetry_space_group_name_H-M    'P1'
  _symmetry_Int_Tables_number       1
  _symmetry_cell_setting            triclinic
  loop_
  _symmetry_equiv_pos_as_xyz
 x,y,z
_cell_length_a 21.7065
_cell_length_b 20.2255
_cell_length_c 34.4813
_cell_angle_alpha 89.269800
_cell_angle_beta 89.118600
_cell_angle_gamma 87.925000
loop_
  _atom_site_label
  _atom_site_type_symbol
  _atom_site_fract_x
  _atom_site_fract_y
  _atom_site_fract_z
C1 C -0.05137 0.67624 0.99259
 C2 C -0.05321 0.64717 1.02979
 C3 C -0.04165 0.57825 1.03362
 C4 C -0.02412 0.53994 1.00105
 C5 C -0.01610 0.57245 0.96498
 C6 C -0.03263 0.63953 0.95983
 C7 C -0.01608 0.46604 1.00361
 C8 C -0.02718 0.42764 0.97080
 C9 C -0.01646 0.35919 0.97123
 C10 C 0.00080 0.32710 1.00583
 C11 C 0.00871 0.36350 1.03984
 C12 C 0.00147 0.43297 1.03823
 H13 H -0.06018 0.72907 0.99001
 H14 H -0.04839 0.55420 1.06141
 H15 H 0.00156 0.54507 0.94018
 H16 H -0.04417 0.45063 0.94435
 H17 H 0.00451 0.27365 1.00638
 H18 H 0.00965 0.46077 1.06414
 C19 C 0.34548 -0.00278 0.50161
 C20 C 0.37815 -0.00780 0.53644
 C21 C 0.44197 0.00102 0.53559
 C22 C 0.47323 0.01793 0.50084
 C23 C 0.43877 0.02445 0.46653
 C24 C 0.37578 0.01173 0.46645
 C25 C 0.54121 0.02926 0.50034
 C26 C 0.57694 0.01865 0.46635
 C27 C 0.64005 0.03172 0.46482
 C28 C 0.66868 0.05098 0.49911
 C29 C 0.63484 0.05951 0.53404
 C30 C 0.57099 0.05030 0.53384
 H31 H 0.29595 -0.00681 0.50185
 H32 H 0.46681 -0.00552 0.56239
 H33 H 0.46042 0.03959 0.43955
 H34 H 0.55582 -0.00011 0.44068
 H35 H 0.71801 0.05364 0.49932
 H36 H 0.54464 0.05993 0.56018
 C37 C 0.13358 -0.00390 0.28649
 H38 H 0.13847 0.03090 0.26271
 C39 C 0.17921 -0.00956 0.31471
 H40 H 0.21937 0.02016 0.31144
 C41 C 0.07423 -0.08331 0.31978
 H42 H 0.03241 -0.11074 0.32195
 C43 C 0.11852 -0.09060 0.34847
 H44 H 0.11064 -0.12434 0.37255
 N45 N 0.08217 -0.04021 0.28974
 C46 C -0.05170 -0.10530 0.20669
 H47 H -0.08045 -0.06069 0.20405
 C48 C -0.06445 -0.16072 0.18489
 H49 H -0.10411 -0.15820 0.16628
 C50 C 0.03438 -0.16181 0.23481
 H51 H 0.07358 -0.16161 0.25372
 C52 C 0.02357 -0.21827 0.21331
 H53 H 0.05461 -0.26118 0.21600
 Zn54 Zn 0.01416 -0.02724 0.25663
 N55 N -0.00286 -0.10663 0.23091
 C56 C 0.07542 0.02423 0.19164
 N57 N 0.02990 0.03807 0.21814
 C58 C -0.00569 0.09468 0.21551
 C59 C 0.00392 0.14003 0.18527
 C60 C 0.08639 0.06799 0.16085
 C61 C -0.10345 -0.03712 0.29420
 C62 C -0.14795 -0.02010 0.32245
 C63 C -0.08737 0.07278 0.33955
 C64 C -0.04417 0.05400 0.31109
 N65 N -0.05266 -0.00026 0.28924
 H66 H 0.10238 -0.02165 0.19404
 H67 H -0.04280 0.10398 0.23616
 H68 H -0.02656 0.18336 0.18317
 H69 H 0.12205 0.05550 0.13959
 H70 H -0.10836 -0.08136 0.27748
 H71 H -0.18650 -0.05187 0.32673
 H72 H -0.07899 0.11531 0.35725
 H73 H -0.00264 0.08149 0.30717
 C74 C -0.02546 -0.21776 0.18726
 C75 C 0.17127 -0.05258 0.34671
 C76 C -0.13973 0.03526 0.34591
 C77 C 0.05044 0.12673 0.15728
 C78 C 0.06159 0.05851 0.80067
 H79 H 0.08506 0.01057 0.79841
 C80 C 0.07229 0.09855 0.83231
 H81 H 0.10486 0.08153 0.85407
 C82 C -0.01231 0.13681 0.77619
 H83 H -0.04659 0.15051 0.75487
 C84 C -0.00309 0.17846 0.80747
 H85 H -0.02906 0.22501 0.80882
 N86 N 0.01915 0.07761 0.77381
 C87 C 0.05363 -0.06135 0.67965
 H88 H 0.00925 -0.08398 0.67919
 C89 C 0.09843 -0.07787 0.65164
 H90 H 0.08827 -0.11372 0.62978
 C91 C 0.11911 0.01576 0.70746
 H92 H 0.12608 0.05387 0.72847
 C93 C 0.16530 0.00078 0.67990
 H94 H 0.20711 0.02812 0.68042
 Zn95 Zn -0.00305 0.01240 0.73854
 N96 N 0.06439 -0.01482 0.70656
 C97 C -0.05145 0.09385 0.67999
 N98 N -0.06603 0.04451 0.70525
 C99 C -0.12124 0.01497 0.70374
 C100 C -0.16392 0.03409 0.67543
 C101 C -0.09257 0.11425 0.65113
 C102 C -0.07700 -0.04181 0.79525
 C103 C -0.09347 -0.08600 0.82455
 C104 C -0.01486 -0.16356 0.80075
 C105 C 0.00001 -0.11770 0.77167
 N106 N -0.03042 -0.05781 0.76996
 H107 H -0.00675 0.11563 0.68141
 H108 H -0.13124 -0.02549 0.72332
 H109 H -0.20609 0.00747 0.67375
 H110 H -0.07929 0.15204 0.63041
 H111 H -0.09945 0.00677 0.79370
 H112 H -0.12934 -0.07121 0.84519
 H113 H 0.01150 -0.20981 0.80205
 H114 H 0.03789 -0.12871 0.75181
 C115 C 0.15483 -0.04609 0.65107
 C116 C 0.03833 0.15830 0.83674
 C117 C -0.06122 -0.14700 0.82838
 C118 C -0.14931 0.08381 0.64825
 C119 C -0.06531 -0.31037 0.06130
 C120 C -0.05450 -0.32477 0.09871
 C121 C -0.05915 -0.27077 0.12714
 C122 C -0.03221 -0.27570 0.16177
 H123 H -0.03649 -0.37295 0.10787
 H124 H -0.07957 -0.22387 0.11763
 H125 H -0.07945 -0.25956 0.05439
 H126 H -0.00855 -0.32190 0.16976
 C127 C 0.01853 0.33010 0.07801
 C128 C 0.04161 0.26806 0.08193
 C129 C 0.03932 0.23259 0.11955
 C130 C 0.05906 0.16919 0.12232
 H131 H 0.05971 0.24157 0.05692
 H132 H 0.01885 0.25770 0.14438
 H133 H 0.00353 0.35671 0.10378
 H134 H 0.08156 0.14645 0.09728
 C135 C 0.34616 -0.01592 0.57449
 C136 C 0.29075 -0.04236 0.57861
 C137 C 0.25574 -0.03774 0.61552
 C138 C 0.19791 -0.05854 0.61785
 H139 H 0.26920 -0.06455 0.55409
 H140 H 0.27640 -0.01396 0.63977
 H141 H 0.36808 0.00320 0.59987
 H142 H 0.17985 -0.08376 0.59311
 C143 C -0.33681 0.07161 0.56978
 C144 C -0.27794 0.08842 0.57354
 C145 C -0.24739 0.08495 0.61143
 C146 C -0.18784 0.09919 0.61396
 H147 H -0.25011 0.10180 0.54861
 H148 H -0.27248 0.06638 0.63641
 H149 H -0.36387 0.06472 0.59616
 H150 H -0.16493 0.12028 0.58876
 C151 C -0.02795 -0.33208 0.92235
 C152 C -0.05439 -0.27366 0.91203
 C153 C -0.04385 -0.24403 0.87336
 C154 C -0.07448 -0.18792 0.86334
 H155 H -0.08468 -0.24661 0.93185
 H156 H -0.00910 -0.26657 0.85451
 H157 H -0.00302 -0.36003 0.90008
 H158 H -0.10924 -0.16818 0.88344
 C159 C -0.02578 0.32231 0.93522
 C160 C 0.01240 0.27273 0.92390
 C161 C 0.00378 0.24003 0.88656
 C162 C 0.04611 0.19636 0.87272
 H163 H 0.05131 0.25760 0.94169
 H164 H -0.03833 0.25103 0.87099
 H165 H -0.06202 0.33997 0.91598
 H166 H 0.08679 0.18498 0.88978
 C167 C -0.32713 0.02210 0.42950
 C168 C -0.27022 0.04356 0.42227
 C169 C -0.23660 0.02804 0.38586
 C170 C -0.18082 0.05248 0.37930
 H171 H -0.24729 0.07360 0.44292
 H172 H -0.25706 -0.00422 0.36528
 H173 H -0.34984 -0.00278 0.40628
 H174 H -0.16333 0.08648 0.40022
 C175 C 0.34170 0.01646 0.42958
 C176 C 0.29519 -0.02294 0.42223
 C177 C 0.25963 -0.01646 0.38624
 C178 C 0.21474 -0.05837 0.37951
 H179 H 0.28278 -0.06067 0.44326
 H180 H 0.26873 0.02420 0.36657
 H181 H 0.35656 0.05136 0.40753
 H182 H 0.20700 -0.09752 0.40065
   
