data_POSCAR
  _audit_creation_date              2014-09-24
  _audit_creation_method            'ToBaCCo'
  _symmetry_space_group_name_H-M    'P1'
  _symmetry_Int_Tables_number       1
  _symmetry_cell_setting            triclinic
  loop_
  _symmetry_equiv_pos_as_xyz
 x,y,z
_cell_length_a 43.0662
_cell_length_b 42.0821
_cell_length_c 42.9812
_cell_angle_alpha 89.924000
_cell_angle_beta 87.870900
_cell_angle_gamma 90.019700
loop_
  _atom_site_label
  _atom_site_type_symbol
  _atom_site_fract_x
  _atom_site_fract_y
  _atom_site_fract_z
N1 N 0.58459 0.67724 0.61334
 N2 N 0.57234 0.66442 0.63886
 C3 C 0.54666 0.68082 0.64774
 C4 C 0.54261 0.70523 0.62661
 C5 C 0.56709 0.70212 0.60508
 H6 H 0.53190 0.67514 0.66783
 H7 H 0.57166 0.71691 0.58483
 Cu8 Cu 0.59096 0.62723 0.65760
 Cu9 Cu 0.62212 0.66064 0.59260
 Cu10 Cu 0.65566 0.59433 0.62562
 N11 N 0.60999 0.59005 0.67592
 N12 N 0.63535 0.57739 0.66334
 C13 C 0.64385 0.55245 0.68070
 C14 C 0.62259 0.54910 0.70548
 C15 C 0.60142 0.57353 0.70170
 H16 H 0.66410 0.53782 0.67585
 H17 H 0.58153 0.57924 0.71668
 N18 N 0.67272 0.61496 0.58748
 N19 N 0.66011 0.64036 0.57508
 C20 C 0.67705 0.64881 0.54941
 C21 C 0.70152 0.62770 0.54545
 C22 C 0.69794 0.60654 0.56995
 H23 H 0.67168 0.66862 0.53457
 H24 H 0.71273 0.58643 0.57447
 H25 H 0.61633 0.61425 0.60758
 H26 H 0.64061 0.64059 0.63176
 N27 N 0.91138 0.32133 0.10757
 N28 N 0.92272 0.33414 0.13259
 C29 C 0.94753 0.31715 0.14103
 C30 C 0.95212 0.29243 0.12009
 C31 C 0.92858 0.29584 0.09917
 H32 H 0.96130 0.32214 0.16098
 H33 H 0.92387 0.28084 0.07953
 Cu34 Cu 0.90374 0.37158 0.15179
 Cu35 Cu 0.87486 0.33828 0.08794
 Cu36 Cu 0.84115 0.40558 0.12112
 N37 N 0.88502 0.40979 0.16970
 N38 N 0.86041 0.42280 0.15775
 C39 C 0.85209 0.44860 0.17455
 C40 C 0.87264 0.45201 0.19836
 C41 C 0.89326 0.42700 0.19446
 H42 H 0.83268 0.46377 0.16953
 H43 H 0.91279 0.42189 0.20876
 N44 N 0.82509 0.38464 0.08402
 N45 N 0.83782 0.35893 0.07148
 C46 C 0.82170 0.35043 0.04655
 C47 C 0.79765 0.37184 0.04320
 C48 C 0.80061 0.39321 0.06731
 H49 H 0.82733 0.33036 0.03178
 H50 H 0.78592 0.41358 0.07210
 H51 H 0.88099 0.38468 0.10229
 H52 H 0.85497 0.35908 0.12740
 N53 N 0.41571 0.17757 -0.11308
 N54 N 0.42789 0.16472 -0.13857
 C55 C 0.45363 0.18105 -0.14751
 C56 C 0.45778 0.20544 -0.12644
 C57 C 0.43331 0.20239 -0.10488
 H58 H 0.46834 0.17536 -0.16762
 H59 H 0.42880 0.21720 -0.08468
 Cu60 Cu 0.40909 0.12765 -0.15726
 Cu61 Cu 0.37808 0.16112 -0.09231
 Cu62 Cu 0.34419 0.09503 -0.12524
 N63 N 0.38986 0.09059 -0.17552
 N64 N 0.36441 0.07804 -0.16294
 C65 C 0.35581 0.05316 -0.18025
 C66 C 0.37702 0.04979 -0.20499
 C67 C 0.39834 0.07402 -0.20126
 H68 H 0.33552 0.03857 -0.17541
 H69 H 0.41830 0.07947 -0.21625
 N70 N 0.32723 0.11569 -0.08716
 N71 N 0.33997 0.14100 -0.07477
 C72 C 0.32307 0.14949 -0.04912
 C73 C 0.29849 0.12849 -0.04515
 C74 C 0.30197 0.10736 -0.06962
 H75 H 0.32854 0.16924 -0.03428
 H76 H 0.28708 0.08732 -0.07412
 H77 H 0.38364 0.11472 -0.10722
 H78 H 0.35951 0.14122 -0.13145
 N79 N 0.08852 0.82087 0.39244
 N80 N 0.07684 0.83406 0.36773
 C81 C 0.05201 0.81709 0.35933
 C82 C 0.04774 0.79201 0.37997
 C83 C 0.07151 0.79516 0.40067
 H84 H 0.03799 0.82236 0.33961
 H85 H 0.07649 0.77986 0.42004
 Cu86 Cu 0.09543 0.87199 0.34899
 Cu87 Cu 0.12518 0.83767 0.41193
 Cu88 Cu 0.15879 0.90517 0.37878
 N89 N 0.11444 0.90992 0.33067
 N90 N 0.13934 0.92263 0.34232
 C91 C 0.14780 0.94834 0.32538
 C92 C 0.12704 0.95200 0.30178
 C93 C 0.10616 0.92723 0.30594
 H94 H 0.16745 0.96327 0.33015
 H95 H 0.08642 0.92235 0.29186
 N96 N 0.17502 0.88400 0.41573
 N97 N 0.16234 0.85821 0.42825
 C98 C 0.17853 0.84961 0.45312
 C99 C 0.20258 0.87102 0.45644
 C100 C 0.19955 0.89251 0.43239
 H101 H 0.17291 0.82949 0.46790
 H102 H 0.21419 0.91295 0.42763
 H103 H 0.11917 0.88429 0.39817
 H104 H 0.14453 0.85883 0.37235
 N105 N 0.08661 0.17291 0.11472
 N106 N 0.07386 0.16022 0.14007
 C107 C 0.04812 0.17676 0.14845
 C108 C 0.04455 0.20113 0.12717
 C109 C 0.06940 0.19787 0.10610
 H110 H 0.03297 0.17117 0.16829
 H111 H 0.07435 0.21254 0.08584
 Cu112 Cu 0.09190 0.12294 0.15922
 Cu113 Cu 0.12428 0.15593 0.09454
 Cu114 Cu 0.15677 0.08944 0.12823
 N115 N 0.11039 0.08567 0.17794
 N116 N 0.13583 0.07280 0.16574
 C117 C 0.14391 0.04785 0.18328
 C118 C 0.12236 0.04476 0.20775
 C119 C 0.10138 0.06923 0.20365
 H120 H 0.16408 0.03303 0.17876
 H121 H 0.08131 0.07493 0.21839
 N122 N 0.17452 0.10978 0.09026
 N123 N 0.16232 0.13525 0.07761
 C124 C 0.17996 0.14369 0.05242
 C125 C 0.20432 0.12245 0.04890
 C126 C 0.20016 0.10129 0.07338
 H127 H 0.17560 0.16385 0.03759
 H128 H 0.21485 0.08141 0.07880
 H129 H 0.11785 0.10966 0.10956
 H130 H 0.14199 0.13586 0.13403
 N131 N 0.40811 0.82690 0.60944
 N132 N 0.42008 0.83994 0.63404
 C133 C 0.44487 0.82278 0.64224
 C134 C 0.44877 0.79778 0.62159
 C135 C 0.42492 0.80112 0.60108
 H136 H 0.45917 0.82792 0.66177
 H137 H 0.41988 0.78591 0.58170
 Cu138 Cu 0.40213 0.87807 0.65285
 Cu139 Cu 0.37138 0.84399 0.59030
 Cu140 Cu 0.33813 0.91117 0.62420
 N141 N 0.38292 0.91545 0.67192
 N142 N 0.35783 0.92818 0.66067
 C143 C 0.34947 0.95365 0.67794
 C144 C 0.37049 0.95712 0.70132
 C145 C 0.39141 0.93247 0.69671
 H146 H 0.32977 0.96863 0.67347
 H147 H 0.41138 0.92756 0.71045
 N148 N 0.32161 0.89047 0.58719
 N149 N 0.33418 0.86482 0.57438
 C150 C 0.31743 0.85623 0.54992
 C151 C 0.29327 0.87752 0.54707
 C152 C 0.29662 0.89891 0.57115
 H153 H 0.32225 0.83589 0.53517
 H154 H 0.28184 0.91894 0.57685
 H155 H 0.37751 0.89051 0.60410
 H156 H 0.35267 0.86481 0.63029
 N157 N 0.91335 0.67228 0.38549
 N158 N 0.92603 0.65971 0.36009
 C159 C 0.95175 0.67632 0.35166
 C160 C 0.95535 0.70061 0.37296
 C161 C 0.93058 0.69722 0.39411
 H162 H 0.96684 0.67084 0.33177
 H163 H 0.92567 0.71181 0.41439
 Cu164 Cu 0.90794 0.62251 0.34094
 Cu165 Cu 0.87571 0.65522 0.40573
 Cu166 Cu 0.84309 0.58889 0.37200
 N167 N 0.88940 0.58530 0.32222
 N168 N 0.86395 0.57241 0.33443
 C169 C 0.85582 0.54753 0.31687
 C170 C 0.87737 0.54450 0.29239
 C171 C 0.89837 0.56894 0.29650
 H172 H 0.83564 0.53270 0.32139
 H173 H 0.91844 0.57468 0.28175
 N174 N 0.82543 0.60906 0.41004
 N175 N 0.83770 0.63447 0.42271
 C176 C 0.82011 0.64283 0.44793
 C177 C 0.79571 0.62162 0.45145
 C178 C 0.79980 0.60054 0.42694
 H179 H 0.82451 0.66295 0.46276
 H180 H 0.78505 0.58071 0.42151
 H181 H 0.88206 0.60901 0.39062
 H182 H 0.85790 0.63532 0.36623
 N183 N 0.59234 0.32720 -0.10981
 N184 N 0.58040 0.34016 -0.13450
 C185 C 0.55564 0.32293 -0.14266
 C186 C 0.55174 0.29797 -0.12190
 C187 C 0.57555 0.30141 -0.10136
 H188 H 0.54135 0.32801 -0.16222
 H189 H 0.58056 0.28627 -0.08187
 Cu190 Cu 0.59831 0.37832 -0.15339
 Cu191 Cu 0.62898 0.34447 -0.09066
 Cu192 Cu 0.66204 0.41183 -0.12466
 N193 N 0.61735 0.41582 -0.17251
 N194 N 0.64232 0.42874 -0.16122
 C195 C 0.65055 0.45430 -0.17850
 C196 C 0.62956 0.45763 -0.20194
 C197 C 0.60881 0.43281 -0.19735
 H198 H 0.67014 0.46943 -0.17400
 H199 H 0.58889 0.42777 -0.21112
 N200 N 0.67857 0.39119 -0.08757
 N201 N 0.66608 0.36547 -0.07473
 C202 C 0.68283 0.35692 -0.05024
 C203 C 0.70692 0.37832 -0.04739
 C204 C 0.70352 0.39972 -0.07151
 H205 H 0.67809 0.33654 -0.03548
 H206 H 0.71826 0.41981 -0.07724
 H207 H 0.62272 0.39096 -0.10461
 H208 H 0.64775 0.36539 -0.13064
 C209 C -0.02436 0.26846 0.12131
 C210 C -0.02270 0.24465 0.09403
 C211 C -0.00007 0.22232 0.09648
 C212 C 0.01903 0.22558 0.12578
 C213 C 0.03129 0.25987 0.12474
 C214 C 0.00869 0.28226 0.12229
 C215 C -0.02785 0.24758 0.15062
 C216 C -0.00523 0.22522 0.15302
 H217 H -0.03749 0.24516 0.07419
 H218 H 0.00401 0.20405 0.07900
 H219 H 0.05571 0.26604 0.12578
 H220 H 0.01392 0.30748 0.12110
 H221 H -0.04654 0.25017 0.16810
 H222 H -0.00485 0.20909 0.17268
 C223 C 0.51704 0.72967 0.62584
 C224 C 0.49365 0.72958 0.65383
 C225 C 0.47099 0.75197 0.65198
 C226 C 0.47358 0.77253 0.62244
 C227 C 0.50664 0.78632 0.62226
 C228 C 0.52932 0.76395 0.62414
 C229 C 0.49697 0.72620 0.59724
 C230 C 0.47426 0.74854 0.59539
 H231 H 0.49469 0.71367 0.67361
 H232 H 0.45286 0.75486 0.67000
 H233 H 0.51177 0.81155 0.62080
 H234 H 0.55379 0.77011 0.62440
 H235 H 0.50038 0.70772 0.57984
 H236 H 0.45860 0.74894 0.57623
 C237 C 1.02423 0.76801 0.37875
 C238 C 0.99115 0.78175 0.37814
 C239 C 0.96856 0.75935 0.37569
 C240 C 0.98086 0.72510 0.37431
 C241 C 1.00491 0.72506 0.34689
 C242 C 1.02752 0.74744 0.34926
 C243 C 1.02283 0.74391 0.40586
 C244 C 1.00019 0.72157 0.40343
 H245 H 0.98589 0.80695 0.37955
 H246 H 0.94411 0.76548 0.37490
 H247 H 1.00437 0.70915 0.32711
 H248 H 1.04607 0.75026 0.33166
 H249 H 1.03775 0.74426 0.42560
 H250 H 0.99626 0.70312 0.42081
 C251 C 0.48339 0.22987 -0.12579
 C252 C 0.50677 0.22970 -0.15380
 C253 C 0.52946 0.25210 -0.15207
 C254 C 0.52691 0.27272 -0.12262
 C255 C 0.49387 0.28651 -0.12248
 C256 C 0.47116 0.26415 -0.12425
 C257 C 0.50348 0.22644 -0.09719
 C258 C 0.52622 0.24878 -0.09546
 H259 H 0.50571 0.21375 -0.17350
 H260 H 0.54759 0.25493 -0.17010
 H261 H 0.48876 0.31175 -0.12113
 H262 H 0.44669 0.27032 -0.12452
 H263 H 0.50006 0.20799 -0.07971
 H264 H 0.54190 0.24921 -0.07632
 C265 C 0.12625 -0.02269 0.27692
 C266 C 0.09695 -0.00193 0.27965
 C267 C 0.09518 0.02052 0.25695
 C268 C 0.12301 0.02027 0.23338
 C269 C 0.15168 0.02351 0.25336
 C270 C 0.15345 0.00112 0.27611
 C271 C 0.12616 -0.03642 0.24381
 C272 C 0.12436 -0.01400 0.22109
 H273 H 0.07904 -0.00471 0.29791
 H274 H 0.07558 0.03659 0.25600
 H275 H 0.16916 0.04190 0.24987
 H276 H 0.17262 0.00060 0.29172
 H277 H 0.12738 -0.06165 0.23867
 H278 H 0.12394 -0.02012 0.19658
 C279 C 0.62376 0.52587 -0.27022
 C280 C 0.65262 0.52955 -0.25050
 C281 C 0.65498 0.50716 -0.22784
 C282 C 0.62818 0.48291 -0.22676
 C283 C 0.59857 0.50316 -0.22366
 C284 C 0.59614 0.52558 -0.24630
 C285 C 0.62549 0.49157 -0.28254
 C286 C 0.62792 0.46919 -0.25986
 H287 H 0.66980 0.54823 -0.25406
 H288 H 0.67432 0.50693 -0.21242
 H289 H 0.58087 0.49999 -0.20527
 H290 H 0.57610 0.54109 -0.24693
 H291 H 0.62481 0.48537 -0.30703
 H292 H 0.62943 0.44398 -0.26503
 C293 C 0.37581 1.02529 0.76949
 C294 C 0.34681 1.02861 0.75000
 C295 C 0.34459 1.00624 0.72735
 C296 C 0.37171 0.98236 0.72613
 C297 C 0.40104 1.00306 0.72287
 C298 C 0.40327 1.02548 0.74547
 C299 C 0.37455 0.99101 0.78188
 C300 C 0.37232 0.96861 0.75925
 H301 H 0.32942 1.04702 0.75375
 H302 H 0.32512 1.00574 0.71209
 H303 H 0.41865 1.00025 0.70433
 H304 H 0.42294 1.04150 0.74602
 H305 H 0.37534 0.98489 0.80638
 H306 H 0.37109 0.94338 0.76445
 C307 C 0.87344 0.47725 0.22321
 C308 C 0.90288 0.49785 0.22063
 C309 C 0.90465 0.52024 0.24334
 C310 C 0.87670 0.52008 0.26676
 C311 C 0.84816 0.52353 0.24663
 C312 C 0.84638 0.50121 0.22387
 C313 C 0.87327 0.46344 0.25634
 C314 C 0.87508 0.48578 0.27906
 H315 H 0.92087 0.49502 0.20248
 H316 H 0.92435 0.53619 0.24440
 H317 H 0.83076 0.54199 0.25003
 H318 H 0.82728 0.50081 0.20817
 H319 H 0.87187 0.43820 0.26148
 H320 H 0.87534 0.47960 0.30358
 C321 C 0.27356 0.12742 -0.01956
 C322 C 0.24051 0.12666 -0.03188
 C323 C 0.21774 0.12451 -0.00914
 C324 C 0.22993 0.12353 0.02400
 C325 C 0.25292 0.09548 0.02364
 C326 C 0.27566 0.09759 0.00088
 C327 C 0.27322 0.15536 0.00357
 C328 C 0.25043 0.15325 0.02628
 H329 H 0.23545 0.12771 -0.05642
 H330 H 0.19327 0.12360 -0.01430
 H331 H 0.25153 0.07544 0.03949
 H332 H 0.29351 0.07956 -0.00236
 H333 H 0.28911 0.17533 0.00229
 H334 H 0.24720 0.17122 0.04421
 C335 C 0.72646 0.62661 0.51988
 C336 C 0.72429 0.59681 0.49947
 C337 C 0.74704 0.59469 0.47672
 C338 C 0.77010 0.62269 0.47634
 C339 C 0.74968 0.65245 0.47402
 C340 C 0.72688 0.65458 0.49672
 C341 C 0.75950 0.62575 0.53222
 C342 C 0.78227 0.62359 0.50949
 H343 H 0.70639 0.57881 0.50273
 H344 H 0.74839 0.57467 0.46090
 H345 H 0.75297 0.67044 0.45606
 H346 H 0.71105 0.67458 0.49795
 H347 H 0.76455 0.62675 0.55676
 H348 H 0.80674 0.62262 0.51466
 C349 C 0.77366 0.37303 0.01852
 C350 C 0.77404 0.34510 -0.00462
 C351 C 0.75208 0.34733 -0.02650
 C352 C 0.73163 0.37714 -0.02344
 C353 C 0.71821 0.37620 0.01018
 C354 C 0.74014 0.37395 0.03209
 C355 C 0.77668 0.40285 -0.00201
 C356 C 0.75477 0.40508 -0.02394
 H357 H 0.78982 0.32508 -0.00398
 H358 H 0.74944 0.32940 -0.04435
 H359 H 0.69353 0.37721 0.01625
 H360 H 0.73417 0.37292 0.05683
 H361 H 0.79453 0.42079 0.00055
 H362 H 0.75410 0.42510 -0.03977
 C363 C 0.22656 0.87220 0.48112
 C364 C 0.22629 0.84416 0.50421
 C365 C 0.24823 0.84639 0.52610
 C366 C 0.26856 0.87631 0.52311
 C367 C 0.28200 0.87559 0.48948
 C368 C 0.26008 0.87334 0.46757
 C369 C 0.22343 0.90191 0.50171
 C370 C 0.24532 0.90414 0.52365
 H371 H 0.21059 0.82407 0.50352
 H372 H 0.25094 0.82839 0.54391
 H373 H 0.30667 0.87674 0.48342
 H374 H 0.26606 0.87245 0.44282
 H375 H 0.20550 0.91977 0.49919
 H376 H 0.24590 0.92409 0.53953
   
