data_POSCAR
  _audit_creation_date              2014-09-24
  _audit_creation_method            'ToBaCCo'
  _symmetry_space_group_name_H-M    'P1'
  _symmetry_Int_Tables_number       1
  _symmetry_cell_setting            triclinic
  loop_
  _symmetry_equiv_pos_as_xyz
 x,y,z
_cell_length_a 25.1718
_cell_length_b 25.5626
_cell_length_c 25.3474
_cell_angle_alpha 90.323700
_cell_angle_beta 89.185000
_cell_angle_gamma 90.172000
loop_
  _atom_site_label
  _atom_site_type_symbol
  _atom_site_fract_x
  _atom_site_fract_y
  _atom_site_fract_z
N1 N 0.20891 1.21071 0.19480
 N2 N 0.79357 0.78658 0.21891
 N3 N 0.79306 1.20851 -0.20189
 N4 N 0.20304 0.80200 -0.21006
 C5 C 0.60794 1.01550 -0.04156
 H6 H 0.62193 0.98299 -0.01887
 C7 C 0.64421 1.04276 -0.07313
 H8 H 0.68529 1.03054 -0.07284
 C9 C 0.53851 1.07190 -0.06655
 H10 H 0.49730 1.08337 -0.06378
 C11 C 0.57389 1.10144 -0.09741
 H12 H 0.55919 1.13516 -0.11837
 N13 N 0.55588 1.02958 -0.03940
 C14 C 0.42250 1.00469 0.06954
 H15 H 0.41928 0.96268 0.06519
 C16 C 0.38477 1.03185 0.09960
 H17 H 0.35370 1.00945 0.11873
 C18 C 0.46883 1.08322 0.05044
 H19 H 0.50203 1.10298 0.03177
 C20 C 0.43161 1.11213 0.07985
 H21 H 0.43626 1.15417 0.08297
 Zn22 Zn 0.50766 0.98826 0.00208
 N23 N 0.46295 1.03057 0.04500
 C24 C 0.54931 0.95329 0.09868
 N25 N 0.54703 0.94294 0.04605
 C26 C 0.57532 0.90296 0.02398
 C27 C 0.60936 0.87321 0.05465
 C28 C 0.58280 0.92440 0.13086
 C29 C 0.43425 0.97523 -0.07939
 C30 C 0.39738 0.94905 -0.11064
 C31 C 0.41832 0.86902 -0.06544
 C32 C 0.45481 0.89677 -0.03502
 N33 N 0.46236 0.94894 -0.04263
 H34 H 0.52648 0.98514 0.11555
 H35 H 0.57304 0.89555 -0.01799
 H36 H 0.63292 0.84272 0.03597
 H37 H 0.58392 0.93375 0.17248
 H38 H 0.43922 1.01693 -0.08352
 H39 H 0.37444 0.97158 -0.13813
 H40 H 0.41227 0.82767 -0.05830
 H41 H 0.47562 0.87678 -0.00417
 C42 C 0.38820 1.08670 0.10405
 C43 C 0.62735 1.08628 -0.10219
 C44 C 0.38912 0.89504 -0.10395
 C45 C 0.61472 0.88477 0.10846
 C46 C -0.01518 0.57941 1.07279
 H47 H 0.02773 0.58131 1.07028
 C48 C -0.04290 0.61358 1.10631
 H49 H -0.02070 0.64200 1.12889
 C50 C -0.09582 0.54216 1.04319
 H51 H -0.11640 0.51527 1.01755
 C52 C -0.12513 0.57576 1.07595
 H53 H -0.16812 0.57395 1.07563
 N54 N -0.04182 0.54441 1.04235
 C55 C 0.07669 0.42598 1.00182
 H56 H 0.07463 0.42705 0.95923
 C57 C 0.11022 0.39030 1.02612
 H58 H 0.13454 0.36523 1.00135
 C59 C 0.04732 0.45847 1.08488
 H60 H 0.02194 0.48431 1.10769
 C61 C 0.08015 0.42326 1.11085
 H62 H 0.07999 0.42274 1.15359
 Zn63 Zn -0.00156 0.50262 0.99470
 N64 N 0.04613 0.45913 1.03127
 C65 C 0.08969 0.55015 0.94734
 N66 N 0.03567 0.54899 0.94937
 C67 C 0.00635 0.58355 0.92156
 C68 C 0.03124 0.62128 0.89010
 C69 C 0.11622 0.58726 0.91638
 C70 C -0.07433 0.42154 0.98448
 C71 C -0.10722 0.38545 0.95937
 C72 C -0.08232 0.42402 0.87578
 C73 C -0.04999 0.45953 0.90267
 N74 N -0.04686 0.45781 0.95612
 H75 H 0.11236 0.52314 0.97058
 H76 H -0.03656 0.58201 0.92426
 H77 H 0.00670 0.64754 0.86781
 H78 H 0.15926 0.58805 0.91568
 H79 H -0.07020 0.42042 1.02689
 H80 H -0.12711 0.35691 0.98388
 H81 H -0.08384 0.42592 0.83313
 H82 H -0.02684 0.48783 0.88067
 C83 C 0.11151 0.38793 1.08157
 C84 C -0.09876 0.61191 1.10820
 C85 C -0.11174 0.38616 0.90392
 C86 C 0.08708 0.62404 0.88796
 C87 C 1.08153 -0.00342 0.57521
 H88 H 1.08263 0.03888 0.57647
 C89 C 1.11213 -0.03226 0.61009
 H90 H 1.13701 -0.01179 0.63802
 C91 C 1.04619 -0.08129 0.53851
 H92 H 1.01957 -0.10031 0.51138
 C93 C 1.07615 -0.11168 0.57266
 H94 H 1.07305 -0.15375 0.56969
 N95 N 1.04926 -0.02818 0.54047
 C96 C 1.01562 0.09152 0.42391
 H97 H 0.97274 0.09201 0.42748
 C98 C 1.04120 0.12343 0.38699
 H99 H 1.01723 0.14919 0.36359
 C100 C 1.09798 0.05727 0.45148
 H101 H 1.11980 0.03064 0.47597
 C102 C 1.12525 0.08834 0.41475
 H103 H 1.16812 0.08560 0.41160
 Zn104 Zn 1.00438 0.01390 0.49923
 N105 N 1.04408 0.05921 0.45507
 C106 C 0.96803 0.10547 0.55188
 N107 N 0.96154 0.05285 0.54707
 C108 C 0.92789 0.02622 0.57963
 C109 C 0.89877 0.05261 0.61870
 C110 C 0.94036 0.13339 0.59098
 C111 C 0.99072 -0.05739 0.41784
 C112 C 0.96415 -0.08882 0.38157
 C113 C 0.88077 -0.05934 0.41937
 C114 C 0.90904 -0.02854 0.45516
 N115 N 0.96309 -0.02842 0.45393
 H116 H 0.99581 0.12582 0.52635
 H117 H 0.92433 -0.01581 0.57574
 H118 H 0.87246 0.03034 0.64433
 H119 H 0.94640 0.17520 0.59298
 H120 H 1.03369 -0.05621 0.41750
 H121 H 0.98750 -0.11252 0.35453
 H122 H 0.83775 -0.05893 0.42068
 H123 H 0.88773 -0.00431 0.48330
 C124 C 1.09684 0.12119 0.38112
 C125 C 1.10899 -0.08707 0.60988
 C126 C 0.90827 -0.08956 0.38155
 C127 C 0.90561 0.10680 0.62585
 C128 C 0.18822 0.25687 1.16990
 C129 C 0.18973 0.26268 1.11728
 C130 C 0.16211 0.30454 1.08841
 C131 C 0.14371 0.34900 1.11038
 H132 H 0.20806 0.23251 1.09312
 H133 H 0.15591 0.29661 1.04706
 H134 H 0.16652 0.28452 1.19430
 H135 H 0.15014 0.35665 1.15180
 C136 C -0.18044 0.74443 1.19069
 C137 C -0.14246 0.71496 1.21224
 C138 C -0.11221 0.67458 1.18264
 C139 C -0.13071 0.64950 1.14000
 H140 H -0.13031 0.72266 1.25232
 H141 H -0.07363 0.66467 1.19789
 H142 H -0.19203 0.73715 1.15034
 H143 H -0.17133 0.65569 1.12811
 C144 C -0.19078 0.25559 0.81923
 C145 C -0.19851 0.26885 0.87284
 C146 C -0.17540 0.31154 0.89890
 C147 C -0.14225 0.34946 0.87549
 H148 H -0.22019 0.24230 0.89835
 H149 H -0.18363 0.31325 0.94076
 H150 H -0.16814 0.28222 0.79511
 H151 H -0.13906 0.35091 0.83298
 C152 C 0.17718 0.75711 0.81324
 C153 C 0.12404 0.75272 0.81582
 C154 C 0.09500 0.71052 0.84376
 C155 C 0.11632 0.66447 0.85724
 H156 H 0.09991 0.78365 0.79985
 H157 H 0.05401 0.71893 0.85369
 H158 H 0.20173 0.72921 0.83348
 H159 H 0.15741 0.65630 0.84733
 C160 C 1.18486 0.19174 0.24309
 C161 C 1.13239 0.19564 0.25238
 C162 C 1.10359 0.17005 0.29652
 C163 C 1.12643 0.15113 0.34003
 H164 H 1.10785 0.21457 0.22346
 H165 H 1.06132 0.16585 0.29114
 H166 H 1.20929 0.16930 0.26937
 H167 H 1.16881 0.15532 0.34506
 C168 C 1.17980 -0.16927 0.74721
 C169 C 1.15609 -0.19355 0.70681
 C170 C 1.12883 -0.16591 0.66385
 C171 C 1.13956 -0.11637 0.64970
 H172 H 1.15358 -0.23584 0.70668
 H173 H 1.09840 -0.18806 0.64399
 H174 H 1.18191 -0.12703 0.74860
 H175 H 1.17080 -0.09509 0.66942
 C176 C 0.81873 -0.18608 0.26183
 C177 C 0.86878 -0.16852 0.25683
 C178 C 0.89765 -0.13736 0.29665
 C179 C 0.87760 -0.12156 0.34347
 H180 H 0.89029 -0.17674 0.22043
 H181 H 0.93754 -0.12607 0.28513
 H182 H 0.79480 -0.17666 0.29626
 H183 H 0.83685 -0.13033 0.35413
 C184 C 0.81551 0.18882 0.75225
 C185 C 0.86346 0.20665 0.72918
 C186 C 0.88943 0.18238 0.68632
 C187 C 0.87810 0.13172 0.66771
 H188 H 0.88346 0.24073 0.74455
 H189 H 0.92333 0.20331 0.67041
 H190 H 0.79551 0.15676 0.73282
 H191 H 0.84946 0.10820 0.68922
 C192 C 0.25411 1.18369 0.17214
 C193 C 0.25844 1.13150 0.17524
 C194 C 0.30002 1.10015 0.14837
 C195 C 0.34768 1.11868 0.13281
 H196 H 0.22727 1.10951 0.19501
 H197 H 0.28964 1.05967 0.14195
 H198 H 0.28227 1.20577 0.14845
 H199 H 0.35741 1.15929 0.14029
 C200 C 0.75236 1.18101 -0.17812
 C201 C 0.75018 1.12609 -0.17874
 C202 C 0.71155 1.09632 -0.15246
 C203 C 0.66247 1.11553 -0.13415
 H204 H 0.78327 1.10456 -0.19578
 H205 H 0.72001 1.05503 -0.14895
 H206 H 0.72388 1.20166 -0.15339
 H207 H 0.64935 1.15337 -0.14782
 C208 C 0.24871 0.82259 -0.18318
 C209 C 0.28314 0.85584 -0.20635
 C210 C 0.32752 0.88191 -0.17887
 C211 C 0.34784 0.86567 -0.13312
 H212 H 0.27720 0.86726 -0.24688
 H213 H 0.34423 0.91582 -0.19836
 H214 H 0.25431 0.81110 -0.14265
 H215 H 0.33454 0.82910 -0.11617
 C216 C 0.74341 0.80417 0.19880
 C217 C 0.72438 0.85239 0.20855
 C218 C 0.67749 0.87531 0.18281
 C219 C 0.65543 0.85625 0.13870
 H220 H 0.74508 0.87810 0.23541
 H221 H 0.66456 0.91258 0.19862
 H222 H 0.72238 0.77817 0.17252
 H223 H 0.67114 0.82108 0.12059
   
