data_POSCAR
  _audit_creation_date              2014-09-24
  _audit_creation_method            'ToBaCCo'
  _symmetry_space_group_name_H-M    'P1'
  _symmetry_Int_Tables_number       1
  _symmetry_cell_setting            triclinic
  loop_
  _symmetry_equiv_pos_as_xyz
 x,y,z
_cell_length_a 22.9876
_cell_length_b 23.3000
_cell_length_c 37.2788
_cell_angle_alpha 88.517700
_cell_angle_beta 88.229500
_cell_angle_gamma 94.677600
loop_
  _atom_site_label
  _atom_site_type_symbol
  _atom_site_fract_x
  _atom_site_fract_y
  _atom_site_fract_z
O1 O -0.05353 0.43921 1.03863
 O2 O -0.06684 0.55670 0.97225
 O3 O -0.06625 0.44384 0.96949
 O4 O -0.05389 0.55002 1.04096
 O5 O 0.04156 0.56081 1.03114
 O6 O 0.02962 0.45103 0.96194
 O7 O 0.02839 0.56326 0.96198
 O8 O 0.04231 0.44948 1.03090
 Cu9 Cu -0.06979 0.49650 1.00594
 Cu10 Cu 0.04501 0.50707 0.99544
 C11 C -0.00327 0.42476 1.04652
 C12 C -0.02149 0.58067 0.95596
 C13 C -0.02027 0.42821 0.95409
 C14 C -0.00405 0.57372 1.04821
 O15 O 0.44675 0.04626 0.52929
 O16 O 0.56894 0.04616 0.46406
 O17 O 0.45552 0.03954 0.46024
 O18 O 0.56020 0.04637 0.53392
 O19 O 0.55458 -0.04856 0.53683
 O20 O 0.45047 -0.05534 0.46450
 O21 O 0.56418 -0.04866 0.46706
 O22 O 0.44139 -0.04866 0.53381
 Cu23 Cu 0.50856 0.05406 0.49656
 Cu24 Cu 0.50226 -0.05975 0.50092
 C25 C 0.42254 -0.00084 0.54238
 C26 C 0.58777 -0.00085 0.45420
 C27 C 0.43450 -0.00946 0.45019
 C28 C 0.57543 -0.00035 0.54783
 C29 C 0.01766 -0.00797 0.24524
 C30 C -0.00736 0.00929 0.75221
 C31 C -0.04803 -0.37346 0.09861
 C32 C -0.04394 -0.33174 0.12486
 C33 C 0.00865 -0.29814 0.12931
 C34 C 0.05792 -0.30856 0.10787
 C35 C 0.05396 -0.35062 0.08179
 C36 C 0.00076 -0.38305 0.07659
 C37 C 0.01028 -0.25263 0.15633
 C38 C 0.04550 -0.20392 0.15272
 C39 C 0.04157 -0.15536 0.17724
 C40 C 0.05520 -0.09915 0.16365
 C41 C 0.04815 -0.05198 0.18522
 C42 C 0.02602 -0.05970 0.22096
 C43 C 0.01844 -0.11654 0.23539
 C44 C 0.02484 -0.16377 0.21367
 H45 H -0.08952 -0.39807 0.09549
 H46 H -0.08236 -0.32486 0.14125
 H47 H 0.09963 -0.28464 0.11132
 H48 H 0.09248 -0.35735 0.06547
 H49 H -0.02241 -0.25711 0.17800
 H50 H 0.07399 -0.19675 0.12908
 H51 H 0.07036 -0.09161 0.13599
 H52 H 0.06013 -0.00947 0.17364
 H53 H 0.00617 -0.12445 0.26347
 H54 H 0.01710 -0.20671 0.22553
 C55 C 0.05737 0.36278 0.08362
 C56 C 0.06234 0.31869 0.10920
 C57 C 0.01234 0.28915 0.12545
 C58 C -0.04295 0.30589 0.11645
 C59 C -0.04793 0.35006 0.09093
 C60 C 0.00214 0.37867 0.07400
 C61 C 0.01961 0.24155 0.15165
 C62 C -0.02098 0.19745 0.15794
 C63 C -0.01164 0.14724 0.18160
 C64 C -0.04209 0.09422 0.17512
 C65 C -0.03265 0.04526 0.19575
 C66 C 0.00859 0.04748 0.22308
 C67 C 0.03502 0.10212 0.23152
 C68 C 0.02582 0.15113 0.21069
 H69 H 0.09682 0.38423 0.07127
 H70 H 0.10543 0.30699 0.11590
 H71 H -0.08246 0.28551 0.12928
 H72 H -0.09111 0.36172 0.08444
 H73 H 0.06162 0.24073 0.16394
 H74 H -0.06067 0.19532 0.14297
 H75 H -0.07267 0.09040 0.15360
 H76 H -0.05694 0.00500 0.18988
 H77 H 0.06248 0.10757 0.25440
 H78 H 0.04732 0.19209 0.21785
 C79 C 0.33841 0.04913 0.56633
 C80 C 0.28805 0.05044 0.58803
 C81 C 0.26984 0.00401 0.61143
 C82 C 0.30261 -0.04442 0.61247
 C83 C 0.35256 -0.04625 0.59014
 C84 C 0.37095 0.00063 0.56691
 C85 C 0.21501 0.00655 0.63286
 C86 C 0.20624 -0.01704 0.66591
 C87 C 0.15166 -0.01120 0.68711
 C88 C 0.15366 -0.00556 0.72434
 C89 C 0.10278 0.00177 0.74464
 C90 C 0.04828 0.00387 0.72827
 C91 C 0.04646 -0.00586 0.69102
 C92 C 0.09745 -0.01229 0.67073
 H93 H 0.35114 0.08570 0.54846
 H94 H 0.26323 0.08797 0.58658
 H95 H 0.28884 -0.08140 0.62976
 H96 H 0.37672 -0.08424 0.59099
 H97 H 0.18219 0.03218 0.62183
 H98 H 0.24120 -0.03747 0.67870
 H99 H 0.19482 -0.00595 0.73770
 H100 H 0.10585 0.00617 0.77338
 H101 H 0.00581 -0.01006 0.67721
 H102 H 0.09418 -0.01952 0.64226
 C103 C -0.36587 -0.05160 0.59184
 C104 C -0.32388 -0.05183 0.61802
 C105 C -0.29619 -0.00010 0.62969
 C106 C -0.31291 0.05238 0.61524
 C107 C -0.35514 0.05260 0.58891
 C108 C -0.38165 0.00053 0.57669
 C109 C -0.25045 -0.00372 0.65674
 C110 C -0.20995 0.03916 0.66336
 C111 C -0.16100 0.03196 0.68777
 C112 C -0.11023 0.06936 0.68339
 C113 C -0.06194 0.06201 0.70435
 C114 C -0.06220 0.01597 0.72979
 C115 C -0.11511 -0.01864 0.73594
 C116 C -0.16357 -0.01097 0.71514
 H117 H -0.38558 -0.09255 0.58323
 H118 H -0.31233 -0.09285 0.62880
 H119 H -0.29400 0.09333 0.62419
 H120 H -0.36673 0.09348 0.57798
 H121 H -0.24775 -0.04544 0.66971
 H122 H -0.20935 0.07956 0.64836
 H123 H -0.10749 0.10388 0.66322
 H124 H -0.02335 0.09158 0.70009
 H125 H -0.12007 -0.05133 0.75715
 H126 H -0.20310 -0.03842 0.72105
 C127 C -0.07959 -0.34695 0.92917
 C128 C -0.08310 -0.29732 0.90771
 C129 C -0.03423 -0.27333 0.88758
 C130 C 0.01851 -0.29957 0.88930
 C131 C 0.02261 -0.34826 0.91151
 C132 C -0.02632 -0.37247 0.93199
 C133 C -0.03801 -0.21890 0.86692
 C134 C -0.01180 -0.20880 0.83457
 C135 C -0.01374 -0.15330 0.81480
 C136 C -0.02022 -0.15271 0.77762
 C137 C -0.02013 -0.10052 0.75832
 C138 C -0.01267 -0.04715 0.77553
 C139 C -0.00365 -0.04855 0.81290
 C140 C -0.00546 -0.10084 0.83230
 H141 H -0.11825 -0.36399 0.94450
 H142 H -0.12407 -0.27749 0.90688
 H143 H 0.05716 -0.28124 0.87447
 H144 H 0.06438 -0.36650 0.91283
 H145 H -0.06466 -0.18708 0.87817
 H146 H 0.00981 -0.24275 0.82162
 H147 H -0.02552 -0.19275 0.76350
 H148 H -0.02513 -0.10163 0.72955
 H149 H 0.00676 -0.00979 0.82743
 H150 H 0.00201 -0.10029 0.86084
 C151 C -0.07919 0.35831 0.91671
 C152 C -0.08302 0.31220 0.89337
 C153 C -0.03245 0.28864 0.88028
 C154 C 0.02231 0.31257 0.89105
 C155 C 0.02613 0.35886 0.91418
 C156 C -0.02455 0.38193 0.92755
 C157 C -0.03901 0.23748 0.85726
 C158 C 0.00465 0.21913 0.83692
 C159 C -0.00059 0.16640 0.81525
 C160 C 0.04269 0.15935 0.78878
 C161 C 0.04133 0.10965 0.76856
 C162 C -0.00265 0.06421 0.77493
 C163 C -0.04744 0.07287 0.80053
 C164 C -0.04592 0.12248 0.82087
 H165 H -0.11910 0.37496 0.92661
 H166 H -0.12578 0.29445 0.88580
 H167 H 0.06243 0.29491 0.88272
 H168 H 0.06888 0.37561 0.92234
 H169 H -0.08207 0.21515 0.85677
 H170 H 0.04632 0.24430 0.83511
 H171 H 0.07766 0.19282 0.78343
 H172 H 0.07449 0.10806 0.74753
 H173 H -0.08341 0.04027 0.80524
 H174 H -0.07995 0.12539 0.84123
 C175 C -0.33881 0.05383 0.41550
 C176 C -0.29064 0.05608 0.39170
 C177 C -0.26720 0.00548 0.38071
 C178 C -0.29315 -0.04793 0.39417
 C179 C -0.34154 -0.05029 0.41811
 C180 C -0.36485 0.00064 0.42930
 C181 C -0.21414 0.01103 0.35681
 C182 C -0.19588 -0.03150 0.33684
 C183 C -0.14201 -0.02443 0.31362
 C184 C -0.13734 -0.05913 0.28369
 C185 C -0.08687 -0.05425 0.26154
 C186 C -0.03832 -0.01616 0.26963
 C187 C -0.04466 0.02039 0.29885
 C188 C -0.09499 0.01549 0.32097
 H189 H -0.35517 0.09415 0.42330
 H190 H -0.27137 0.09778 0.38194
 H191 H -0.27551 -0.08790 0.38713
 H192 H -0.36005 -0.09206 0.42821
 H193 H -0.19045 0.05313 0.35472
 H194 H -0.22217 -0.07210 0.33605
 H195 H -0.17336 -0.08949 0.27704
 H196 H -0.08667 -0.07992 0.23780
 H197 H -0.00986 0.05246 0.30496
 H198 H -0.09628 0.04259 0.34405
 C199 C 0.36274 -0.06787 0.41415
 C200 C 0.31708 -0.07230 0.39033
 C201 C 0.29769 -0.02292 0.37385
 C202 C 0.32546 0.03134 0.38141
 C203 C 0.37105 0.03584 0.40552
 C204 C 0.38969 -0.01372 0.42247
 C205 C 0.24564 -0.02967 0.35145
 C206 C 0.23328 0.00845 0.32583
 C207 C 0.17887 0.00186 0.30551
 C208 C 0.17872 0.02376 0.27018
 C209 C 0.12740 0.01974 0.25089
 C210 C 0.07390 -0.00331 0.26711
 C211 C 0.07539 -0.02807 0.30202
 C212 C 0.12671 -0.02453 0.32115
 H213 H 0.37587 -0.10695 0.42677
 H214 H 0.29621 -0.11453 0.38515
 H215 H 0.31074 0.07049 0.36989
 H216 H 0.39073 0.07818 0.41151
 H217 H 0.21702 -0.06866 0.35586
 H218 H 0.26442 0.04460 0.31863
 H219 H 0.21858 0.04348 0.25732
 H220 H 0.12929 0.03566 0.22331
 H221 H 0.03694 -0.05056 0.31483
 H222 H 0.12504 -0.04179 0.34842
   
