data_POSCAR
  _audit_creation_date              2014-09-24
  _audit_creation_method            'ToBaCCo'
  _symmetry_space_group_name_H-M    'P1'
  _symmetry_Int_Tables_number       1
  _symmetry_cell_setting            triclinic
  loop_
  _symmetry_equiv_pos_as_xyz
 x,y,z
_cell_length_a 63.3225
_cell_length_b 63.2909
_cell_length_c 49.0829
_cell_angle_alpha 90.111900
_cell_angle_beta 89.910500
_cell_angle_gamma 90.300800
loop_
  _atom_site_label
  _atom_site_type_symbol
  _atom_site_fract_x
  _atom_site_fract_y
  _atom_site_fract_z
O1 O 0.02226 0.29072 -0.02878
 O2 O -0.01892 0.29041 0.02450
 O3 O 0.02246 0.29078 0.02423
 O4 O -0.01905 0.29026 -0.02855
 O5 O -0.01877 0.25542 -0.02838
 O6 O 0.02246 0.25593 0.02416
 O7 O -0.01854 0.25560 0.02457
 O8 O 0.02221 0.25587 -0.02875
 Cu9 Cu 0.00166 0.29405 -0.00213
 Cu10 Cu 0.00185 0.25224 -0.00208
 C11 C 0.02930 0.27330 -0.03783
 C12 C -0.02586 0.27291 0.03364
 C13 C 0.02962 0.27338 0.03312
 C14 C -0.02602 0.27269 -0.03745
 O15 O 0.47750 0.78842 0.52582
 O16 O 0.51879 0.78794 0.47273
 O17 O 0.47752 0.78825 0.47289
 O18 O 0.51883 0.78810 0.52573
 O19 O 0.51817 0.75325 0.52595
 O20 O 0.47732 0.75339 0.47280
 O21 O 0.51832 0.75309 0.47298
 O22 O 0.47719 0.75355 0.52596
 Cu23 Cu 0.49821 0.79168 0.49929
 Cu24 Cu 0.49769 0.74984 0.49943
 C25 C 0.47027 0.77104 0.53493
 C26 C 0.52566 0.77040 0.46382
 C27 C 0.47038 0.77082 0.46380
 C28 C 0.52558 0.77062 0.53485
 O29 O 0.97723 0.71116 -0.02677
 O30 O 1.01911 0.71101 0.02540
 O31 O 0.97785 0.71084 0.02611
 O32 O 1.01863 0.71142 -0.02768
 O33 O 1.01843 0.74623 -0.02723
 O34 O 0.97812 0.74570 0.02674
 O35 O 1.01905 0.74585 0.02574
 O36 O 0.97739 0.74597 -0.02630
 Cu37 Cu 0.99823 0.70761 -0.00083
 Cu38 Cu 0.99825 0.74941 -0.00026
 C39 C 0.97001 0.72862 -0.03538
 C40 C 1.02622 0.72845 0.03452
 C41 C 0.97103 0.72821 0.03562
 C42 C 1.02560 0.72897 -0.03665
 O43 O 0.48127 0.20962 0.47151
 O44 O 0.52253 0.20830 0.52455
 O45 O 0.48122 0.20825 0.52452
 O46 O 0.52258 0.20956 0.47167
 O47 O 0.52212 0.24441 0.47250
 O48 O 0.48208 0.24307 0.52687
 O49 O 0.52286 0.24316 0.52565
 O50 O 0.48081 0.24442 0.47425
 Cu51 Cu 0.50189 0.20542 0.49786
 Cu52 Cu 0.50205 0.24726 0.49984
 C53 C 0.47370 0.22729 0.46426
 C54 C 0.52976 0.22555 0.53412
 C55 C 0.47465 0.22545 0.53482
 C56 C 0.52943 0.22723 0.46307
 O57 O 0.70727 0.01958 -0.02228
 O58 O 0.70769 -0.02208 0.03035
 O59 O 0.70831 0.01918 0.03067
 O60 O 0.70645 -0.02182 -0.02276
 O61 O 0.74125 -0.02151 -0.02489
 O62 O 0.74311 0.01811 0.02995
 O63 O 0.74240 -0.02317 0.02771
 O64 O 0.74210 0.01934 -0.02298
 Cu65 Cu 0.70392 -0.00125 0.00413
 Cu66 Cu 0.74569 -0.00182 0.00241
 C67 C 0.72470 0.02668 -0.03147
 C68 C 0.72517 -0.03006 0.03770
 C69 C 0.72606 0.02568 0.03943
 C70 C 0.72356 -0.02862 -0.03303
 O71 O 0.21029 0.47888 0.52598
 O72 O 0.20935 0.52069 0.47370
 O73 O 0.21006 0.47942 0.47308
 O74 O 0.20953 0.52023 0.52684
 O75 O 0.24438 0.52117 0.52614
 O76 O 0.24489 0.48053 0.47260
 O77 O 0.24421 0.52165 0.47391
 O78 O 0.24512 0.47998 0.52588
 Cu79 Cu 0.20630 0.49970 0.49995
 Cu80 Cu 0.24814 0.50078 0.49962
 C81 C 0.22790 0.47225 0.53479
 C82 C 0.22667 0.52851 0.46520
 C83 C 0.22760 0.47301 0.46366
 C84 C 0.22691 0.52793 0.53531
 O85 O 0.29072 1.02180 0.02750
 O86 O 0.29075 0.98082 -0.02613
 O87 O 0.29071 1.02220 -0.02555
 O88 O 0.29079 0.98044 0.02685
 O89 O 0.25596 0.98041 0.02690
 O90 O 0.25592 1.02179 -0.02543
 O91 O 0.25592 0.98078 -0.02598
 O92 O 0.25593 1.02140 0.02753
 Cu93 Cu 0.29425 1.00135 0.00065
 Cu94 Cu 0.25247 1.00109 0.00076
 C95 C 0.27327 1.02868 0.03670
 C96 C 0.27328 0.97372 -0.03512
 C97 C 0.27325 1.02922 -0.03445
 C98 C 0.27333 0.97323 0.03575
 O99 O 0.79197 0.51947 0.53021
 O100 O 0.79360 0.47927 0.47584
 O101 O 0.79282 0.52063 0.47728
 O102 O 0.79262 0.47817 0.52885
 O103 O 0.75784 0.47675 0.52655
 O104 O 0.75799 0.52011 0.47705
 O105 O 0.75878 0.47931 0.47398
 O106 O 0.75716 0.51796 0.53000
 Cu107 Cu 0.79626 0.49947 0.50317
 Cu108 Cu 0.75446 0.49850 0.50190
 C109 C 0.77426 0.52559 0.53941
 C110 C 0.77645 0.47247 0.46555
 C111 C 0.77536 0.52771 0.46849
 C112 C 0.77514 0.46993 0.53606
 C113 C 0.22111 0.23350 0.17598
 C114 C 0.23602 0.21791 0.17718
 C115 C 0.24603 0.22005 0.20215
 N116 N 0.23776 0.23643 0.21620
 C117 C 0.22254 0.24469 0.20021
 C118 C 0.26128 0.20597 0.21247
 C119 C 0.27320 0.21018 0.23620
 C120 C 0.28471 0.19525 0.25041
 C121 C 0.29468 0.20577 0.27134
 C122 C 0.28905 0.22686 0.26928
 N123 N 0.27601 0.22942 0.24773
 C124 C 0.29672 0.24324 0.28631
 C125 C 0.28734 0.26346 0.28760
 C126 C 0.29577 0.28073 0.30126
 C127 C 0.28098 0.29644 0.29999
 C128 C 0.26410 0.28838 0.28524
 N129 N 0.26798 0.26818 0.27781
 C130 C 0.24477 0.29892 0.28106
 C131 C 0.22876 0.29129 0.26351
 C132 C 0.20826 0.29889 0.26262
 C133 C 0.19809 0.28815 0.24205
 C134 C 0.21270 0.27443 0.23075
 N135 N 0.23138 0.27655 0.24382
 C136 C 0.20884 0.26118 0.20805
 H137 H 0.21034 0.23620 0.15926
 H138 H 0.23899 0.20619 0.16157
 H139 H 0.24566 0.27002 0.23776
 H140 H 0.28581 0.17850 0.24616
 H141 H 0.30493 0.19867 0.28634
 H142 H 0.31086 0.28184 0.31148
 H143 H 0.28243 0.31191 0.30924
 H144 H 0.18183 0.29036 0.23597
 H145 H 0.27113 0.24375 0.23963
 H146 H 0.20133 0.31102 0.27530
 C147 C 0.79448 0.77873 0.20053
 C148 C 0.77853 0.79326 0.19924
 C149 C 0.76136 0.78450 0.21276
 N150 N 0.76640 0.76521 0.22251
 C151 C 0.78667 0.76169 0.21518
 C152 C 0.74097 0.79349 0.21392
 C153 C 0.72475 0.78554 0.23098
 C154 C 0.70355 0.79071 0.22886
 C155 C 0.69326 0.78070 0.24994
 C156 C 0.70843 0.76961 0.26427
 N157 N 0.72758 0.77271 0.25267
 C158 C 0.70450 0.75783 0.28819
 C159 C 0.71887 0.74288 0.29860
 C160 C 0.71699 0.73301 0.32368
 C161 C 0.73286 0.71839 0.32496
 C162 C 0.74394 0.71986 0.30066
 N163 N 0.73535 0.73483 0.28456
 C164 C 0.76063 0.70641 0.29288
 C165 C 0.77373 0.71034 0.27007
 C166 C 0.78765 0.69588 0.25883
 C167 C 0.79814 0.70611 0.23810
 C168 C 0.79021 0.72648 0.23707
 N169 N 0.77551 0.72898 0.25682
 C170 C 0.79753 0.74253 0.21938
 H171 H 0.80995 0.78047 0.19138
 H172 H 0.77942 0.80841 0.18911
 H173 H 0.76876 0.74319 0.26279
 H174 H 0.69622 0.80070 0.21374
 H175 H 0.67650 0.78150 0.25421
 H176 H 0.70527 0.73587 0.33932
 H177 H 0.73580 0.70778 0.34178
 H178 H 0.81033 0.69930 0.22541
 H179 H 0.74202 0.76821 0.26083
 H180 H 0.79014 0.67969 0.26505
 C181 C 0.76997 0.21760 0.17851
 C182 C 0.78537 0.23289 0.17815
 C183 C 0.78359 0.24395 0.20245
 N184 N 0.76764 0.23592 0.21763
 C185 C 0.75927 0.21982 0.20300
 C186 C 0.79749 0.26021 0.21096
 C187 C 0.79362 0.27326 0.23384
 C188 C 0.80837 0.28676 0.24551
 C189 C 0.79822 0.29738 0.26614
 C190 C 0.77757 0.28994 0.26671
 N191 N 0.77486 0.27541 0.24675
 C192 C 0.76163 0.29750 0.28440
 C193 C 0.74199 0.28721 0.28845
 C194 C 0.72584 0.29484 0.30477
 C195 C 0.71032 0.27967 0.30494
 C196 C 0.71745 0.26321 0.28873
 N197 N 0.73690 0.26779 0.27889
 C198 C 0.70671 0.24376 0.28507
 C199 C 0.71387 0.22744 0.26765
 C200 C 0.70609 0.20691 0.26759
 C201 C 0.71646 0.19627 0.24716
 C202 C 0.73014 0.21063 0.23505
 N203 N 0.72835 0.22962 0.24754
 C204 C 0.74299 0.20622 0.21215
 H205 H 0.76705 0.20611 0.16258
 H206 H 0.79665 0.23549 0.16190
 H207 H 0.73488 0.24375 0.24081
 H208 H 0.82473 0.28889 0.23967
 H209 H 0.80528 0.30931 0.27910
 H210 H 0.72540 0.30961 0.31590
 H211 H 0.69567 0.28053 0.31625
 H212 H 0.71403 0.17986 0.24172
 H213 H 0.76054 0.26908 0.24038
 H214 H 0.69410 0.20022 0.28078
 C215 C 0.21617 0.76587 0.17703
 C216 C 0.23190 0.78082 0.17618
 C217 C 0.24285 0.77924 0.20051
 N218 N 0.23431 0.76389 0.21622
 C219 C 0.21800 0.75569 0.20189
 C220 C 0.25937 0.79292 0.20867
 C221 C 0.27244 0.78892 0.23140
 C222 C 0.28628 0.80345 0.24289
 C223 C 0.29679 0.79314 0.26340
 C224 C 0.28892 0.77265 0.26408
 N225 N 0.27427 0.77016 0.24430
 C226 C 0.29623 0.75654 0.28154
 C227 C 0.28532 0.73727 0.28562
 C228 C 0.29297 0.72034 0.30046
 C229 C 0.27700 0.70567 0.30163
 C230 C 0.26000 0.71420 0.28777
 N231 N 0.26513 0.73351 0.27801
 C232 C 0.23965 0.70494 0.28632
 C233 C 0.22358 0.71256 0.26899
 C234 C 0.20243 0.70689 0.27068
 C235 C 0.19228 0.71683 0.24956
 C236 C 0.20749 0.72837 0.23563
 N237 N 0.22654 0.72559 0.24748
 C238 C 0.20369 0.74034 0.21188
 H239 H 0.20457 0.76299 0.16126
 H240 H 0.23483 0.79172 0.15962
 H241 H 0.24101 0.73049 0.23963
 H242 H 0.28871 0.81975 0.23698
 H243 H 0.30893 0.79999 0.27620
 H244 H 0.30832 0.71880 0.30987
 H245 H 0.27775 0.69058 0.31190
 H246 H 0.17559 0.71571 0.24502
 H247 H 0.26759 0.75592 0.23809
 H248 H 0.19504 0.69664 0.28556
 C249 C 0.78275 0.23220 0.82283
 C250 C 0.76703 0.21725 0.82395
 C251 C 0.75613 0.21851 0.79955
 N252 N 0.76469 0.23366 0.78354
 C253 C 0.78097 0.24206 0.79775
 C254 C 0.73962 0.20472 0.79162
 C255 C 0.72671 0.20832 0.76863
 C256 C 0.71299 0.19358 0.75736
 C257 C 0.70262 0.20353 0.73643
 C258 C 0.71043 0.22403 0.73532
 N259 N 0.72493 0.22687 0.75521
 C260 C 0.70315 0.23986 0.71741
 C261 C 0.71392 0.25918 0.71309
 C262 C 0.70618 0.27591 0.69799
 C263 C 0.72199 0.29075 0.69682
 C264 C 0.73901 0.28250 0.71090
 N265 N 0.73403 0.26319 0.72084
 C266 C 0.75925 0.29200 0.71251
 C267 C 0.77533 0.28454 0.72995
 C268 C 0.79646 0.29030 0.72826
 C269 C 0.80662 0.28056 0.74952
 C270 C 0.79144 0.26905 0.76355
 N271 N 0.77240 0.27164 0.75160
 C272 C 0.79525 0.25733 0.78751
 H273 H 0.79432 0.23530 0.83857
 H274 H 0.76407 0.20657 0.84073
 H275 H 0.75793 0.26674 0.75946
 H276 H 0.71054 0.17738 0.76368
 H277 H 0.69059 0.19646 0.72365
 H278 H 0.69085 0.27724 0.68847
 H279 H 0.72113 0.30578 0.68641
 H280 H 0.82329 0.28181 0.75409
 H281 H 0.73152 0.24123 0.76114
 H282 H 0.80382 0.30050 0.71328
 C283 C 0.27638 0.70641 0.69756
 C284 C 0.29230 0.72114 0.69853
 C285 C 0.28458 0.73819 0.71318
 N286 N 0.26438 0.73446 0.72085
 C287 C 0.25932 0.71504 0.71131
 C288 C 0.29545 0.75752 0.71709
 C289 C 0.28809 0.77373 0.73448
 C290 C 0.29595 0.79422 0.73509
 C291 C 0.28542 0.80463 0.75559
 C292 C 0.27155 0.79016 0.76714
 N293 N 0.27339 0.77134 0.75428
 C294 C 0.25848 0.79426 0.78991
 C295 C 0.24190 0.78065 0.79811
 C296 C 0.23094 0.78233 0.82248
 C297 C 0.21518 0.76741 0.82168
 C298 C 0.21700 0.75714 0.79682
 N299 N 0.23334 0.76526 0.78244
 C300 C 0.20269 0.74176 0.78690
 C301 C 0.20658 0.72962 0.76323
 C302 C 0.19144 0.71797 0.74934
 C303 C 0.20169 0.70784 0.72835
 C304 C 0.22283 0.71353 0.73007
 N305 N 0.22569 0.72674 0.75146
 C306 C 0.23898 0.70574 0.71287
 H307 H 0.27719 0.69122 0.68748
 H308 H 0.30768 0.71954 0.68915
 H309 H 0.24013 0.73170 0.75931
 H310 H 0.30813 0.80100 0.72227
 H311 H 0.28786 0.82095 0.76147
 H312 H 0.23389 0.79327 0.83903
 H313 H 0.20359 0.76459 0.83750
 H314 H 0.19437 0.69745 0.71354
 H315 H 0.26670 0.75714 0.76056
 H316 H 0.17473 0.71688 0.75382
 C317 C 0.28108 0.29191 0.69282
 C318 C 0.29618 0.27648 0.69317
 C319 C 0.28854 0.26048 0.70980
 N320 N 0.26919 0.26557 0.71938
 C321 C 0.26466 0.28487 0.70925
 C322 C 0.29877 0.24095 0.71412
 C323 C 0.29123 0.22517 0.73209
 C324 C 0.29856 0.20455 0.73288
 C325 C 0.28800 0.19457 0.75373
 C326 C 0.27465 0.20939 0.76532
 N327 N 0.27684 0.22803 0.75213
 C328 C 0.26169 0.20570 0.78834
 C329 C 0.24561 0.21965 0.79682
 C330 C 0.23463 0.21806 0.82120
 C331 C 0.21947 0.23343 0.82077
 C332 C 0.22169 0.24393 0.79616
 N333 N 0.23765 0.23545 0.78153
 C334 C 0.20815 0.26006 0.78690
 C335 C 0.21247 0.27267 0.76378
 C336 C 0.19811 0.28616 0.75165
 C337 C 0.20863 0.29630 0.73089
 C338 C 0.22910 0.28857 0.73068
 N339 N 0.23135 0.27436 0.75101
 C340 C 0.24530 0.29557 0.71292
 H341 H 0.28195 0.30644 0.68130
 H342 H 0.31091 0.27688 0.68197
 H343 H 0.24548 0.26795 0.75766
 H344 H 0.31036 0.19740 0.71989
 H345 H 0.29006 0.17828 0.75978
 H346 H 0.23720 0.20692 0.83754
 H347 H 0.20805 0.23645 0.83672
 H348 H 0.20191 0.30810 0.71759
 H349 H 0.27064 0.24241 0.75834
 H350 H 0.18177 0.28861 0.75729
 C351 C 0.76766 0.78738 0.81841
 C352 C 0.78260 0.77186 0.81973
 C353 C 0.77825 0.75779 0.79876
 N354 N 0.76102 0.76419 0.78487
 C355 C 0.75452 0.78231 0.79676
 C356 C 0.79061 0.73982 0.79247
 C357 C 0.78574 0.72494 0.77172
 C358 C 0.79922 0.70896 0.76340
 C359 C 0.78913 0.69808 0.74297
 C360 C 0.76979 0.70779 0.73896
 N361 N 0.76768 0.72389 0.75699
 C362 C 0.75497 0.70155 0.71879
 C363 C 0.73690 0.71331 0.71135
 C364 C 0.72355 0.70805 0.68998
 C365 C 0.70873 0.72367 0.68850
 C366 C 0.71335 0.73799 0.70910
 N367 N 0.73062 0.73162 0.72293
 C368 C 0.70131 0.75628 0.71489
 C369 C 0.70620 0.77122 0.73555
 C370 C 0.69300 0.78761 0.74325
 C371 C 0.70298 0.79836 0.76390
 C372 C 0.72198 0.78819 0.76858
 N373 N 0.72399 0.77191 0.75083
 C374 C 0.73661 0.79421 0.78908
 H375 H 0.76649 0.80073 0.83213
 H376 H 0.79519 0.77105 0.83458
 H377 H 0.73729 0.76275 0.74802
 H378 H 0.81486 0.70555 0.77103
 H379 H 0.79556 0.68471 0.73206
 H380 H 0.72456 0.69456 0.67647
 H381 H 0.69608 0.72440 0.67374
 H382 H 0.69671 0.81197 0.77449
 H383 H 0.75414 0.73261 0.76039
 H384 H 0.67761 0.79137 0.73508
 C385 C 0.27215 0.07727 0.09626
 C386 C 0.29147 0.06993 0.08585
 C387 C 0.29192 0.05367 0.06649
 C388 C 0.27302 0.04449 0.05687
 C389 C 0.25373 0.05175 0.06761
 C390 C 0.25333 0.06784 0.08709
 C391 C 0.27146 0.09502 0.11600
 N392 N 0.25301 0.10044 0.12820
 N393 N 0.25208 0.11689 0.14509
 C394 C 0.26955 0.12868 0.15050
 N395 N 0.28808 0.12318 0.13847
 N396 N 0.28902 0.10667 0.12161
 C397 C 0.26811 0.14767 0.16813
 C398 C 0.28531 0.16171 0.17073
 C399 C 0.28329 0.18042 0.18572
 C400 C 0.26407 0.18537 0.19839
 C401 C 0.24713 0.17108 0.19666
 C402 C 0.24910 0.15244 0.18164
 H403 H 0.30627 0.07681 0.09256
 H404 H 0.30711 0.04854 0.05883
 H405 H 0.23881 0.04511 0.06091
 H406 H 0.23816 0.07310 0.09462
 H407 H 0.30018 0.15851 0.16065
 H408 H 0.29652 0.19129 0.18690
 H409 H 0.23223 0.17461 0.20649
 H410 H 0.23558 0.14195 0.18026
 C411 C 0.77161 0.57493 0.59979
 C412 C 0.75370 0.56245 0.59417
 C413 C 0.75462 0.54627 0.57478
 C414 C 0.77353 0.54204 0.56085
 C415 C 0.79158 0.55415 0.56695
 C416 C 0.79059 0.57051 0.58609
 C417 C 0.77031 0.59284 0.61918
 N418 N 0.78553 0.60804 0.61965
 N419 N 0.78395 0.62460 0.63632
 C420 C 0.76713 0.62659 0.65333
 N421 N 0.75201 0.61129 0.65303
 N422 N 0.75353 0.59480 0.63627
 C423 C 0.76492 0.64539 0.67112
 C424 C 0.74994 0.64559 0.69230
 C425 C 0.74717 0.66367 0.70826
 C426 C 0.75919 0.68190 0.70320
 C427 C 0.77430 0.68175 0.68229
 C428 C 0.77727 0.66359 0.66651
 H429 H 0.73882 0.56547 0.60431
 H430 H 0.74046 0.53716 0.57058
 H431 H 0.80637 0.55130 0.55652
 H432 H 0.80470 0.57975 0.59005
 H433 H 0.74023 0.63183 0.69643
 H434 H 0.73535 0.66362 0.72425
 H435 H 0.78356 0.69579 0.67800
 H436 H 0.78886 0.66400 0.65028
 C437 C 0.72639 0.91830 0.09236
 C438 C 0.70748 0.92918 0.08774
 C439 C 0.70699 0.94630 0.06972
 C440 C 0.72556 0.95323 0.05651
 C441 C 0.74459 0.94262 0.06200
 C442 C 0.74492 0.92521 0.07940
 C443 C 0.72690 0.89950 0.11009
 N444 N 0.74068 0.88365 0.10482
 N445 N 0.74141 0.86668 0.12076
 C446 C 0.72853 0.86497 0.14278
 N447 N 0.71476 0.88085 0.14815
 N448 N 0.71386 0.89773 0.13199
 C449 C 0.73001 0.84638 0.16079
 C450 C 0.72599 0.84816 0.18886
 C451 C 0.72927 0.83092 0.20612
 C452 C 0.73618 0.81152 0.19550
 C453 C 0.73921 0.80950 0.16727
 C454 C 0.73645 0.82683 0.15014
 H455 H 0.69297 0.92409 0.09748
 H456 H 0.69204 0.95407 0.06617
 H457 H 0.75925 0.94738 0.05234
 H458 H 0.75974 0.91719 0.08281
 H459 H 0.72108 0.86309 0.19757
 H460 H 0.72682 0.83280 0.22784
 H461 H 0.74425 0.79460 0.15861
 H462 H 0.73944 0.82498 0.12853
 C463 C 0.23004 0.42155 0.59302
 C464 C 0.24769 0.43474 0.58897
 C465 C 0.24694 0.45127 0.57017
 C466 C 0.22843 0.45518 0.55532
 C467 C 0.21063 0.44229 0.55977
 C468 C 0.21148 0.42555 0.57828
 C469 C 0.23120 0.40345 0.61202
 N470 N 0.21709 0.38726 0.61038
 N471 N 0.21857 0.37065 0.62688
 C472 C 0.23414 0.36960 0.64583
 N473 N 0.24814 0.38588 0.64762
 N474 N 0.24674 0.40242 0.63101
 C475 C 0.23620 0.35087 0.66365
 C476 C 0.24865 0.35183 0.68733
 C477 C 0.25119 0.33396 0.70366
 C478 C 0.24154 0.31479 0.69641
 C479 C 0.22902 0.31374 0.67292
 C480 C 0.22622 0.33168 0.65678
 H481 H 0.26225 0.43205 0.59994
 H482 H 0.26089 0.46099 0.56724
 H483 H 0.19616 0.44489 0.54856
 H484 H 0.19759 0.41572 0.58103
 H485 H 0.25648 0.36639 0.69323
 H486 H 0.26096 0.33496 0.72172
 H487 H 0.22158 0.29899 0.66701
 H488 H 0.21662 0.33040 0.63860
 C489 C 0.92510 0.27154 0.09249
 C490 C 0.93464 0.25276 0.08358
 C491 C 0.95088 0.25325 0.06434
 C492 C 0.95819 0.27258 0.05359
 C493 C 0.94888 0.29143 0.06295
 C494 C 0.93246 0.29089 0.08206
 C495 C 0.90725 0.27076 0.11205
 N496 N 0.89527 0.28811 0.11698
 N497 N 0.87874 0.28708 0.13378
 C498 C 0.87355 0.26869 0.14644
 N499 N 0.88566 0.25142 0.14168
 N500 N 0.90212 0.25243 0.12483
 C501 C 0.85469 0.26718 0.16426
 C502 C 0.85073 0.24867 0.17929
 C503 C 0.83239 0.24666 0.19491
 C504 C 0.81758 0.26304 0.19569
 C505 C 0.82164 0.28173 0.18125
 C506 C 0.84007 0.28382 0.16571
 H507 H 0.92935 0.23757 0.09115
 H508 H 0.95761 0.23837 0.05782
 H509 H 0.95404 0.30664 0.05527
 H510 H 0.92550 0.30565 0.08859
 H511 H 0.86168 0.23560 0.17879
 H512 H 0.82954 0.23217 0.20607
 H513 H 0.81034 0.29452 0.18166
 H514 H 0.84262 0.29827 0.15440
 C515 C 0.42068 0.77065 0.59502
 C516 C 0.43316 0.75264 0.59073
 C517 C 0.44929 0.75281 0.57128
 C518 C 0.45353 0.77110 0.55599
 C519 C 0.44137 0.78925 0.56066
 C520 C 0.42500 0.78898 0.57983
 C521 C 0.40294 0.77009 0.61472
 N522 N 0.38714 0.78448 0.61332
 N523 N 0.37076 0.78347 0.63035
 C524 C 0.36958 0.76813 0.64962
 N525 N 0.38550 0.75388 0.65121
 N526 N 0.40180 0.75481 0.63406
 C527 C 0.35097 0.76645 0.66783
 C528 C 0.35184 0.75428 0.69175
 C529 C 0.33396 0.75189 0.70822
 C530 C 0.31485 0.76138 0.70084
 C531 C 0.31396 0.77373 0.67720
 C532 C 0.33191 0.77640 0.66094
 H533 H 0.43019 0.73825 0.60203
 H534 H 0.45846 0.73861 0.56821
 H535 H 0.44425 0.80356 0.54914
 H536 H 0.41573 0.80314 0.58274
 H537 H 0.36631 0.74650 0.69767
 H538 H 0.33484 0.74227 0.72640
 H539 H 0.29927 0.78106 0.67120
 H540 H 0.33069 0.78579 0.64260
 C541 C 0.07592 0.72940 0.09436
 C542 C 0.06547 0.74808 0.08702
 C543 C 0.04929 0.74770 0.06773
 C544 C 0.04306 0.72862 0.05541
 C545 C 0.05327 0.70986 0.06299
 C546 C 0.06957 0.71026 0.08220
 C547 C 0.09364 0.73009 0.11406
 N548 N 0.10566 0.71275 0.11876
 N549 N 0.12206 0.71369 0.13571
 C550 C 0.12709 0.73200 0.14875
 N551 N 0.11495 0.74925 0.14423
 N552 N 0.09860 0.74832 0.12726
 C553 C 0.14593 0.73346 0.16659
 C554 C 0.15056 0.75237 0.18054
 C555 C 0.16902 0.75435 0.19584
 C556 C 0.18328 0.73753 0.19744
 C557 C 0.17846 0.71840 0.18432
 C558 C 0.15993 0.71637 0.16902
 H559 H 0.06994 0.76312 0.09592
 H560 H 0.04171 0.76242 0.06242
 H561 H 0.04883 0.69490 0.05386
 H562 H 0.07726 0.69557 0.08742
 H563 H 0.14009 0.76581 0.17928
 H564 H 0.17246 0.76918 0.20601
 H565 H 0.18931 0.70526 0.18540
 H566 H 0.15684 0.70158 0.15862
 C567 C 0.57890 0.22546 0.59458
 C568 C 0.56628 0.24340 0.59070
 C569 C 0.55032 0.24336 0.57110
 C570 C 0.54640 0.22528 0.55522
 C571 C 0.55870 0.20718 0.55944
 C572 C 0.57492 0.20732 0.57878
 C573 C 0.59643 0.22596 0.61451
 N574 N 0.61243 0.21179 0.61297
 N575 N 0.62866 0.21286 0.63017
 C576 C 0.62949 0.22805 0.64975
 N577 N 0.61336 0.24206 0.65148
 N578 N 0.59721 0.24107 0.63417
 C579 C 0.64796 0.22991 0.66808
 C580 C 0.64684 0.24221 0.69195
 C581 C 0.66463 0.24492 0.70845
 C582 C 0.68387 0.23561 0.70117
 C583 C 0.68501 0.22308 0.67764
 C584 C 0.66716 0.22010 0.66133
 H585 H 0.56899 0.25765 0.60246
 H586 H 0.54102 0.25752 0.56841
 H587 H 0.55605 0.19303 0.54745
 H588 H 0.58433 0.19323 0.58136
 H589 H 0.63227 0.24988 0.69777
 H590 H 0.66356 0.25467 0.72655
 H591 H 0.69980 0.21587 0.67174
 H592 H 0.66856 0.21062 0.64305
 C593 C 0.72616 0.07731 0.91000
 C594 C 0.74455 0.06597 0.91630
 C595 C 0.74395 0.04947 0.93509
 C596 C 0.72493 0.04376 0.94795
 C597 C 0.70644 0.05480 0.94136
 C598 C 0.70706 0.07147 0.92265
 C599 C 0.72719 0.09536 0.89082
 N600 N 0.71041 0.10837 0.88732
 N601 N 0.71173 0.12499 0.87075
 C602 C 0.72987 0.12927 0.85694
 N603 N 0.74656 0.11615 0.86030
 N604 N 0.74526 0.09959 0.87689
 C605 C 0.73177 0.14814 0.83921
 C606 C 0.75032 0.15168 0.82405
 C607 C 0.75265 0.16987 0.80829
 C608 C 0.73653 0.18495 0.80742
 C609 C 0.71781 0.18136 0.82206
 C610 C 0.71543 0.16309 0.83781
 H611 H 0.75954 0.07002 0.90699
 H612 H 0.75847 0.04124 0.93962
 H613 H 0.69154 0.05077 0.95096
 H614 H 0.69260 0.07983 0.91821
 H615 H 0.76319 0.14049 0.82452
 H616 H 0.76715 0.17236 0.79698
 H617 H 0.70521 0.19286 0.82159
 H618 H 0.70094 0.16086 0.84921
 C619 C 0.22638 0.58112 0.40997
 C620 C 0.24379 0.57740 0.42695
 C621 C 0.24398 0.56002 0.44437
 C622 C 0.22659 0.54620 0.44561
 C623 C 0.20914 0.54986 0.42866
 C624 C 0.20914 0.56705 0.41072
 C625 C 0.22632 0.59979 0.39194
 N626 N 0.21514 0.59985 0.36833
 N627 N 0.21570 0.61659 0.35188
 C628 C 0.22726 0.63399 0.35857
 N629 N 0.23824 0.63396 0.38230
 N630 N 0.23785 0.61718 0.39858
 C631 C 0.22858 0.65241 0.34017
 C632 C 0.23402 0.67239 0.35061
 C633 C 0.23683 0.68957 0.33318
 C634 C 0.23471 0.68702 0.30491
 C635 C 0.22870 0.66722 0.29444
 C636 C 0.22548 0.65008 0.31196
 H637 H 0.25735 0.58790 0.42668
 H638 H 0.25760 0.55766 0.45732
 H639 H 0.19554 0.53942 0.42921
 H640 H 0.19550 0.56960 0.39787
 H641 H 0.23629 0.67471 0.37228
 H642 H 0.24122 0.70478 0.34167
 H643 H 0.22696 0.66496 0.27268
 H644 H 0.22134 0.63484 0.30336
 C645 C 0.27174 0.92334 0.90580
 C646 C 0.25331 0.93454 0.91245
 C647 C 0.25392 0.95104 0.93134
 C648 C 0.27299 0.95688 0.94391
 C649 C 0.29154 0.94604 0.93686
 C650 C 0.29090 0.92939 0.91807
 C651 C 0.27071 0.90513 0.88678
 N652 N 0.28756 0.89220 0.88324
 N653 N 0.28626 0.87537 0.86694
 C654 C 0.26807 0.87081 0.85345
 N655 N 0.25131 0.88385 0.85683
 N656 N 0.25259 0.90062 0.87315
 C657 C 0.26621 0.85167 0.83612
 C658 C 0.24767 0.84786 0.82108
 C659 C 0.24539 0.82939 0.80575
 C660 C 0.26153 0.81432 0.80521
 C661 C 0.28022 0.81817 0.81973
 C662 C 0.28256 0.83671 0.83503
 H663 H 0.23827 0.93033 0.90342
 H664 H 0.23937 0.95912 0.93624
 H665 H 0.30648 0.95017 0.94622
 H666 H 0.30540 0.92115 0.91334
 H667 H 0.23480 0.85904 0.82132
 H668 H 0.23090 0.82670 0.79453
 H669 H 0.29282 0.80667 0.81951
 H670 H 0.29704 0.83914 0.84635
 C671 C 0.77683 0.42357 0.40458
 C672 C 0.75905 0.43650 0.40806
 C673 C 0.75904 0.45253 0.42766
 C674 C 0.77693 0.45620 0.44392
 C675 C 0.79494 0.44369 0.43994
 C676 C 0.79483 0.42742 0.42061
 C677 C 0.77625 0.40574 0.38502
 N678 N 0.79014 0.38954 0.38710
 N679 N 0.78894 0.37300 0.37032
 C680 C 0.77389 0.37205 0.35066
 N681 N 0.76016 0.38837 0.34839
 N682 N 0.76128 0.40483 0.36526
 C683 C 0.77188 0.35327 0.33280
 C684 C 0.75974 0.35415 0.30885
 C685 C 0.75692 0.33614 0.29273
 C686 C 0.76598 0.31691 0.30044
 C687 C 0.77830 0.31597 0.32410
 C688 C 0.78138 0.33404 0.34004
 H689 H 0.74491 0.43392 0.39609
 H690 H 0.74497 0.46199 0.43018
 H691 H 0.80893 0.44613 0.45223
 H692 H 0.80880 0.41778 0.41832
 H693 H 0.75229 0.36873 0.30266
 H694 H 0.74731 0.33705 0.27454
 H695 H 0.78529 0.30117 0.33035
 H696 H 0.79073 0.33281 0.35842
 C697 C 0.07927 0.27230 0.90260
 C698 C 0.06824 0.25371 0.90941
 C699 C 0.05190 0.25413 0.92852
 C700 C 0.04607 0.27316 0.94114
 C701 C 0.05676 0.29186 0.93395
 C702 C 0.07325 0.29142 0.91495
 C703 C 0.09729 0.27152 0.88331
 N704 N 0.11015 0.28854 0.87969
 N705 N 0.12685 0.28745 0.86318
 C706 C 0.13134 0.26931 0.84955
 N707 N 0.11835 0.25238 0.85300
 N708 N 0.10171 0.25345 0.86953
 C709 C 0.15041 0.26764 0.83214
 C710 C 0.15420 0.24912 0.81705
 C711 C 0.17273 0.24693 0.80191
 C712 C 0.18788 0.26315 0.80160
 C713 C 0.18401 0.28187 0.81605
 C714 C 0.16541 0.28413 0.83117
 H715 H 0.07244 0.23871 0.90033
 H716 H 0.04392 0.23946 0.93353
 H717 H 0.05263 0.30677 0.94334
 H718 H 0.08137 0.30604 0.91010
 H719 H 0.14298 0.23615 0.81720
 H720 H 0.17546 0.23241 0.79075
 H721 H 0.19558 0.29454 0.81601
 H722 H 0.16299 0.29860 0.84253
 C723 C 0.57556 0.76890 0.40406
 C724 C 0.56498 0.75025 0.41178
 C725 C 0.54869 0.75081 0.43097
 C726 C 0.54248 0.77003 0.44282
 C727 C 0.55278 0.78874 0.43479
 C728 C 0.56919 0.78817 0.41568
 C729 C 0.59348 0.76806 0.38458
 N730 N 0.60546 0.78548 0.37944
 N731 N 0.62204 0.78445 0.36273
 C732 C 0.62731 0.76596 0.35040
 N733 N 0.61520 0.74861 0.35537
 N734 N 0.59867 0.74964 0.37209
 C735 C 0.64633 0.76446 0.33283
 C736 C 0.65126 0.74535 0.31962
 C737 C 0.66986 0.74342 0.30454
 C738 C 0.68397 0.76049 0.30244
 C739 C 0.67887 0.77978 0.31485
 C740 C 0.66020 0.78176 0.32992
 H741 H 0.56946 0.73512 0.40328
 H742 H 0.54104 0.73612 0.43664
 H743 H 0.54836 0.80380 0.44355
 H744 H 0.57695 0.80283 0.41015
 H745 H 0.64091 0.73174 0.32127
 H746 H 0.67351 0.72845 0.29493
 H747 H 0.68959 0.79312 0.31339
 H748 H 0.65689 0.79671 0.33975
 C749 C 0.91967 0.72952 0.90782
 C750 C 0.92953 0.74838 0.91613
 C751 C 0.94619 0.74807 0.93473
 C752 C 0.95364 0.72882 0.94529
 C753 C 0.94404 0.70988 0.93644
 C754 C 0.92715 0.71026 0.91810
 C755 C 0.90140 0.73007 0.88903
 N756 N 0.88825 0.71315 0.88651
 N757 N 0.87138 0.71399 0.87035
 C758 C 0.86703 0.73175 0.85593
 N759 N 0.88030 0.74858 0.85828
 N760 N 0.89709 0.74778 0.87454
 C761 C 0.84791 0.73306 0.83867
 C762 C 0.84573 0.74955 0.81974
 C763 C 0.82732 0.75143 0.80434
 C764 C 0.81063 0.73703 0.80781
 C765 C 0.81284 0.72033 0.82631
 C766 C 0.83138 0.71828 0.84152
 H767 H 0.92411 0.76350 0.90866
 H768 H 0.95314 0.76301 0.94087
 H769 H 0.94929 0.69473 0.94400
 H770 H 0.91996 0.69544 0.91197
 H771 H 0.85821 0.76110 0.81691
 H772 H 0.82589 0.76434 0.79001
 H773 H 0.80010 0.70906 0.82918
 H774 H 0.83255 0.70543 0.85595
 C775 C 0.42122 0.22919 0.40884
 C776 C 0.42536 0.24615 0.42657
 C777 C 0.44271 0.24567 0.44405
 C778 C 0.45608 0.22803 0.44459
 C779 C 0.45199 0.21105 0.42684
 C780 C 0.43484 0.21173 0.40888
 C781 C 0.40255 0.22975 0.39081
 N782 N 0.40206 0.21867 0.36707
 N783 N 0.38528 0.21960 0.35074
 C784 C 0.36825 0.23143 0.35768
 N785 N 0.36870 0.24235 0.38150
 N786 N 0.38553 0.24159 0.39768
 C787 C 0.34972 0.23295 0.33949
 C788 C 0.32993 0.23858 0.35017
 C789 C 0.31261 0.24123 0.33298
 C790 C 0.31483 0.23877 0.30470
 C791 C 0.33447 0.23268 0.29400
 C792 C 0.35174 0.22961 0.31129
 H793 H 0.41522 0.25987 0.42687
 H794 H 0.44540 0.25894 0.45760
 H795 H 0.46207 0.19728 0.42682
 H796 H 0.43197 0.19842 0.39547
 H797 H 0.32784 0.24104 0.37185
 H798 H 0.29753 0.24567 0.34166
 H799 H 0.33649 0.23067 0.27223
 H800 H 0.36681 0.22531 0.30250
 C801 C 0.72301 0.92179 0.90685
 C802 C 0.70474 0.92625 0.92209
 C803 C 0.70472 0.94270 0.94118
 C804 C 0.72304 0.95482 0.94567
 C805 C 0.74120 0.95053 0.93018
 C806 C 0.74115 0.93430 0.91089
 C807 C 0.72348 0.90381 0.88749
 N808 N 0.73961 0.90178 0.86941
 N809 N 0.74058 0.88519 0.85276
 C810 C 0.72553 0.86984 0.85353
 N811 N 0.70931 0.87192 0.87149
 N812 N 0.70828 0.88858 0.88808
 C813 C 0.72729 0.85089 0.83591
 C814 C 0.71475 0.83287 0.84084
 C815 C 0.71748 0.81453 0.82531
 C816 C 0.73257 0.81402 0.80439
 C817 C 0.74474 0.83208 0.79896
 C818 C 0.74218 0.85034 0.81462
 H819 H 0.69049 0.91696 0.91938
 H820 H 0.69050 0.94562 0.95285
 H821 H 0.75554 0.95966 0.93309
 H822 H 0.75550 0.93127 0.89955
 H823 H 0.70321 0.83274 0.85714
 H824 H 0.70807 0.80063 0.82982
 H825 H 0.75652 0.83185 0.78294
 H826 H 0.75204 0.86394 0.81021
 C827 C 0.22913 0.42385 0.40301
 C828 C 0.21067 0.42757 0.41818
 C829 C 0.21003 0.44382 0.43750
 C830 C 0.22794 0.45646 0.44235
 C831 C 0.24634 0.45285 0.42705
 C832 C 0.24688 0.43682 0.40744
 C833 C 0.23009 0.40617 0.38326
 N834 N 0.24555 0.40541 0.36407
 N835 N 0.24683 0.38913 0.34692
 C836 C 0.23279 0.37287 0.34834
 N837 N 0.21728 0.37368 0.36746
 N838 N 0.21591 0.39002 0.38450
 C839 C 0.23487 0.35429 0.33018
 C840 C 0.22508 0.33501 0.33699
 C841 C 0.22809 0.31710 0.32078
 C842 C 0.24063 0.31826 0.29727
 C843 C 0.24997 0.33756 0.28997
 C844 C 0.24724 0.35541 0.30639
 H845 H 0.19670 0.41791 0.41515
 H846 H 0.19563 0.44621 0.44902
 H847 H 0.26036 0.46240 0.43026
 H848 H 0.26136 0.43431 0.39616
 H849 H 0.21554 0.33360 0.35523
 H850 H 0.22086 0.30226 0.32671
 H851 H 0.25973 0.33864 0.27188
 H852 H 0.25491 0.37005 0.30055
 C853 C 0.27213 0.07860 0.90733
 C854 C 0.25331 0.06902 0.91629
 C855 C 0.25371 0.05270 0.93536
 C856 C 0.27300 0.04534 0.94587
 C857 C 0.29189 0.05471 0.93651
 C858 C 0.29144 0.07121 0.91758
 C859 C 0.27145 0.09645 0.88784
 N860 N 0.28889 0.10842 0.88279
 N861 N 0.28798 0.12490 0.86596
 C862 C 0.26960 0.13004 0.85341
 N863 N 0.25223 0.11795 0.85830
 N864 N 0.25313 0.10154 0.87517
 C865 C 0.26822 0.14882 0.83549
 C866 C 0.24972 0.15267 0.82050
 C867 C 0.24786 0.17089 0.80474
 C868 C 0.26438 0.18571 0.80377
 C869 C 0.28306 0.18176 0.81817
 C870 C 0.28500 0.16344 0.83385
 H871 H 0.23814 0.07433 0.90887
 H872 H 0.23880 0.04593 0.94189
 H873 H 0.30708 0.04952 0.94402
 H874 H 0.30623 0.07820 0.91101
 H875 H 0.23654 0.14171 0.82114
 H876 H 0.23337 0.17365 0.79362
 H877 H 0.29596 0.19306 0.81762
 H878 H 0.29945 0.16097 0.84512
 C879 C 0.77383 0.57885 0.41075
 C880 C 0.79297 0.57301 0.42306
 C881 C 0.79360 0.55620 0.44156
 C882 C 0.77508 0.54503 0.44826
 C883 C 0.75601 0.55078 0.43578
 C884 C 0.75541 0.56742 0.41720
 C885 C 0.77283 0.59697 0.39170
 N886 N 0.75476 0.60111 0.37789
 N887 N 0.75349 0.61770 0.36137
 C888 C 0.77023 0.63093 0.35795
 N889 N 0.78837 0.62676 0.37165
 N890 N 0.78965 0.61011 0.38815
 C891 C 0.76839 0.64981 0.34028
 C892 C 0.78470 0.66498 0.33902
 C893 C 0.78235 0.68326 0.32333
 C894 C 0.76371 0.68663 0.30860
 C895 C 0.74763 0.67133 0.30933
 C896 C 0.74991 0.65314 0.32503
 H897 H 0.80746 0.58145 0.41850
 H898 H 0.80853 0.55215 0.45086
 H899 H 0.74147 0.54244 0.44041
 H900 H 0.74038 0.57147 0.40815
 H901 H 0.79912 0.66292 0.35049
 H902 H 0.79492 0.69493 0.32297
 H903 H 0.73318 0.67365 0.29794
 H904 H 0.73707 0.64178 0.32539
 C905 C 0.07430 0.73056 0.90395
 C906 C 0.06678 0.71116 0.91406
 C907 C 0.05048 0.71056 0.93334
 C908 C 0.04142 0.72939 0.94319
 C909 C 0.04885 0.74876 0.93274
 C910 C 0.06499 0.74932 0.91334
 C911 C 0.09209 0.73138 0.88427
 N912 N 0.09773 0.74992 0.87235
 N913 N 0.11418 0.75094 0.85547
 C914 C 0.12576 0.73347 0.84979
 N915 N 0.12005 0.71487 0.86156
 N916 N 0.10354 0.71384 0.87841
 C917 C 0.14470 0.73497 0.83206
 C918 C 0.15854 0.71777 0.82924
 C919 C 0.17716 0.71980 0.81404
 C920 C 0.18222 0.73901 0.80136
 C921 C 0.16811 0.75596 0.80336
 C922 C 0.14958 0.75399 0.81861
 H923 H 0.07354 0.69641 0.90718
 H924 H 0.04522 0.69531 0.94077
 H925 H 0.04232 0.76363 0.93963
 H926 H 0.07039 0.76455 0.90603
 H927 H 0.15526 0.70289 0.83928
 H928 H 0.18787 0.70655 0.81267
 H929 H 0.17171 0.77086 0.79352
 H930 H 0.13924 0.76751 0.82016
 C931 C 0.57990 0.22931 0.40431
 C932 C 0.57539 0.21061 0.41862
 C933 C 0.55869 0.20981 0.43724
 C934 C 0.54634 0.22779 0.44226
 C935 C 0.55073 0.24644 0.42780
 C936 C 0.56723 0.24715 0.40886
 C937 C 0.59805 0.23037 0.38531
 N938 N 0.59952 0.24602 0.36649
 N939 N 0.61614 0.24729 0.34990
 C940 C 0.63206 0.23304 0.35155
 N941 N 0.63057 0.21737 0.37033
 N942 N 0.61388 0.21602 0.38680
 C943 C 0.65090 0.23495 0.33382
 C944 C 0.66989 0.22491 0.34091
 C945 C 0.68798 0.22759 0.32490
 C946 C 0.68728 0.24001 0.30131
 C947 C 0.66829 0.24968 0.29383
 C948 C 0.65028 0.24729 0.31004
 H949 H 0.58480 0.19657 0.41546
 H950 H 0.55573 0.19523 0.44813
 H951 H 0.54144 0.26052 0.43119
 H952 H 0.57034 0.26181 0.39822
 H953 H 0.67091 0.21541 0.35917
 H954 H 0.70259 0.22015 0.33100
 H955 H 0.66757 0.25938 0.27571
 H956 H 0.63588 0.25514 0.30399
 C957 C 0.92398 0.27070 0.90313
 C958 C 0.93022 0.29002 0.91492
 C959 C 0.94667 0.29077 0.93391
 C960 C 0.95714 0.27220 0.94166
 C961 C 0.95107 0.25295 0.92963
 C962 C 0.93475 0.25221 0.91056
 C963 C 0.90604 0.26960 0.88378
 N964 N 0.90109 0.25115 0.87108
 N965 N 0.88454 0.24985 0.85447
 C966 C 0.87217 0.26692 0.84983
 N967 N 0.87719 0.28544 0.86237
 N968 N 0.89379 0.28676 0.87897
 C969 C 0.85315 0.26506 0.83235
 C970 C 0.83906 0.28205 0.82963
 C971 C 0.82045 0.27971 0.81456
 C972 C 0.81565 0.26038 0.80194
 C973 C 0.82995 0.24362 0.80391
 C974 C 0.84850 0.24591 0.81899
 H975 H 0.92230 0.30456 0.90961
 H976 H 0.95098 0.30585 0.94282
 H977 H 0.95885 0.23836 0.93506
 H978 H 0.93039 0.23705 0.90193
 H979 H 0.84216 0.29702 0.83959
 H980 H 0.80957 0.29281 0.81319
 H981 H 0.82653 0.22863 0.79414
 H982 H 0.85902 0.23254 0.82049
 C983 C 0.42106 0.77016 0.40359
 C984 C 0.42532 0.78856 0.41874
 C985 C 0.44160 0.78891 0.43796
 C986 C 0.45372 0.77076 0.44273
 C987 C 0.44953 0.75240 0.42749
 C988 C 0.43348 0.75215 0.40799
 C989 C 0.40341 0.76953 0.38386
 N990 N 0.40232 0.75415 0.36457
 N991 N 0.38608 0.75317 0.34739
 C992 C 0.37018 0.76745 0.34890
 N993 N 0.37132 0.78289 0.36811
 N994 N 0.38763 0.78396 0.38518
 C995 C 0.35163 0.76571 0.33070
 C996 C 0.33256 0.77570 0.33757
 C997 C 0.31465 0.77294 0.32134
 C998 C 0.31560 0.76048 0.29774
 C999 C 0.33471 0.75096 0.29036
 C1000 C 0.35256 0.75342 0.30681
 H1001 H 0.41608 0.80272 0.41574
 H1002 H 0.44445 0.80327 0.44943
 H1003 H 0.45867 0.73820 0.43064
 H1004 H 0.43054 0.73771 0.39673
 H1005 H 0.33130 0.78517 0.35589
 H1006 H 0.29994 0.78030 0.32733
 H1007 H 0.33563 0.74124 0.27221
 H1008 H 0.36704 0.74561 0.30092
 C1009 C 0.27193 0.92230 0.09379
 C1010 C 0.25346 0.93345 0.08738
 C1011 C 0.25401 0.95011 0.06880
 C1012 C 0.27308 0.95615 0.05630
 C1013 C 0.29166 0.94532 0.06308
 C1014 C 0.29107 0.92851 0.08156
 C1015 C 0.27098 0.90399 0.11256
 N1016 N 0.28790 0.89113 0.11589
 N1017 N 0.28668 0.87424 0.13202
 C1018 C 0.26851 0.86954 0.14554
 N1019 N 0.25168 0.88251 0.14235
 N1020 N 0.25288 0.89934 0.12620
 C1021 C 0.26676 0.85037 0.16272
 C1022 C 0.24826 0.84645 0.17784
 C1023 C 0.24609 0.82797 0.19307
 C1024 C 0.26230 0.81298 0.19344
 C1025 C 0.28096 0.81693 0.17882
 C1026 C 0.28320 0.83549 0.16362
 H1027 H 0.23843 0.92912 0.09638
 H1028 H 0.23943 0.95819 0.06409
 H1029 H 0.30659 0.94958 0.05377
 H1030 H 0.30560 0.92030 0.08611
 H1031 H 0.23533 0.85757 0.17775
 H1032 H 0.23163 0.82520 0.20437
 H1033 H 0.29362 0.80550 0.17890
 H1034 H 0.29764 0.83800 0.15223
 C1035 C 0.77418 0.41660 0.59016
 C1036 C 0.79134 0.43077 0.59049
 C1037 C 0.79176 0.44816 0.57288
 C1038 C 0.77480 0.45191 0.55514
 C1039 C 0.75750 0.43795 0.55524
 C1040 C 0.75729 0.42037 0.57235
 C1041 C 0.77378 0.39781 0.60801
 N1042 N 0.76231 0.38050 0.60087
 N1043 N 0.76154 0.36364 0.61699
 C1044 C 0.77209 0.36343 0.64105
 N1045 N 0.78359 0.38075 0.64824
 N1046 N 0.78452 0.39757 0.63196
 C1047 C 0.77042 0.34491 0.65926
 C1048 C 0.77331 0.34707 0.68753
 C1049 C 0.76999 0.32982 0.70483
 C1050 C 0.76406 0.31008 0.69412
 C1051 C 0.76207 0.30772 0.66580
 C1052 C 0.76498 0.32501 0.64857
 H1053 H 0.80459 0.42819 0.60398
 H1054 H 0.80528 0.45871 0.57323
 H1055 H 0.74426 0.44038 0.54168
 H1056 H 0.74379 0.40980 0.57177
 H1057 H 0.77745 0.36224 0.69633
 H1058 H 0.77163 0.33194 0.72663
 H1059 H 0.75776 0.29255 0.65711
 H1060 H 0.76286 0.32283 0.62685
 C1061 C 0.72895 0.07608 0.09843
 C1062 C 0.74727 0.06497 0.09106
 C1063 C 0.74628 0.04841 0.07222
 C1064 C 0.72692 0.04248 0.06044
 C1065 C 0.70852 0.05325 0.06826
 C1066 C 0.70953 0.06991 0.08697
 C1067 C 0.73024 0.09438 0.11728
 N1068 N 0.71331 0.10711 0.12137
 N1069 N 0.71475 0.12402 0.13749
 C1070 C 0.73317 0.12889 0.15026
 N1071 N 0.75003 0.11606 0.14634
 N1072 N 0.74861 0.09919 0.13018
 C1073 C 0.73510 0.14817 0.16732
 C1074 C 0.75375 0.15222 0.18202
 C1075 C 0.75607 0.17086 0.19700
 C1076 C 0.73986 0.18587 0.19750
 C1077 C 0.72106 0.18175 0.18335
 C1078 C 0.71867 0.16304 0.16844
 H1079 H 0.76249 0.06928 0.09947
 H1080 H 0.76073 0.04040 0.06669
 H1081 H 0.69336 0.04908 0.05954
 H1082 H 0.69510 0.07807 0.09226
 H1083 H 0.76668 0.14110 0.18175
 H1084 H 0.77066 0.17377 0.20792
 H1085 H 0.70840 0.19320 0.18352
 H1086 H 0.70410 0.16043 0.15738
 C1087 C 0.22680 0.58037 0.59107
 C1088 C 0.20946 0.56643 0.59017
 C1089 C 0.20944 0.54923 0.57216
 C1090 C 0.22697 0.54542 0.55528
 C1091 C 0.24449 0.55907 0.55678
 C1092 C 0.24432 0.57646 0.57427
 C1093 C 0.22666 0.59920 0.60892
 N1094 N 0.23826 0.61651 0.60216
 N1095 N 0.23850 0.63348 0.61820
 C1096 C 0.22728 0.63380 0.64178
 N1097 N 0.21566 0.61648 0.64860
 N1098 N 0.21526 0.59954 0.63239
 C1099 C 0.22838 0.65247 0.65988
 C1100 C 0.22514 0.65050 0.68810
 C1101 C 0.22818 0.66789 0.70534
 C1102 C 0.23416 0.68757 0.69457
 C1103 C 0.23640 0.68976 0.66626
 C1104 C 0.23377 0.67233 0.64912
 H1105 H 0.19574 0.56913 0.60287
 H1106 H 0.19574 0.53893 0.57140
 H1107 H 0.25817 0.55661 0.54390
 H1108 H 0.25795 0.58685 0.57468
 H1109 H 0.22102 0.63536 0.69693
 H1110 H 0.22634 0.66591 0.72713
 H1111 H 0.24076 0.70487 0.65754
 H1112 H 0.23615 0.67437 0.62742
 C1113 C 0.92211 0.72867 0.09658
 C1114 C 0.92604 0.71034 0.08122
 C1115 C 0.94221 0.71003 0.06179
 C1116 C 0.95456 0.72816 0.05702
 C1117 C 0.95073 0.74644 0.07250
 C1118 C 0.93479 0.74664 0.09221
 C1119 C 0.90452 0.72931 0.11648
 N1120 N 0.90364 0.74470 0.13577
 N1121 N 0.88743 0.74573 0.15304
 C1122 C 0.87135 0.73148 0.15165
 N1123 N 0.87227 0.71603 0.13245
 N1124 N 0.88855 0.71492 0.11528
 C1125 C 0.85283 0.73329 0.16994
 C1126 C 0.83367 0.72322 0.16329
 C1127 C 0.81579 0.72601 0.17960
 C1128 C 0.81686 0.73862 0.20307
 C1129 C 0.83605 0.74824 0.21023
 C1130 C 0.85387 0.74573 0.19371
 H1131 H 0.91659 0.69621 0.08420
 H1132 H 0.94477 0.69572 0.05012
 H1133 H 0.96005 0.76062 0.06936
 H1134 H 0.93212 0.76104 0.10363
 H1135 H 0.83232 0.71363 0.14508
 H1136 H 0.80103 0.71856 0.17378
 H1137 H 0.83706 0.75806 0.22829
 H1138 H 0.86842 0.75361 0.19944
 C1139 C 0.42500 0.22538 0.59471
 C1140 C 0.42861 0.20741 0.57852
 C1141 C 0.44508 0.20721 0.55948
 C1142 C 0.45802 0.22510 0.55598
 C1143 C 0.45454 0.24297 0.57236
 C1144 C 0.43832 0.24305 0.59166
 C1145 C 0.40707 0.22604 0.61408
 N1146 N 0.40631 0.24099 0.63393
 N1147 N 0.38979 0.24216 0.65068
 C1148 C 0.37329 0.22852 0.64819
 N1149 N 0.37409 0.21348 0.62842
 N1150 N 0.39068 0.21223 0.61177
 C1151 C 0.35449 0.23058 0.66595
 C1152 C 0.33521 0.22100 0.65866
 C1153 C 0.31714 0.22412 0.67453
 C1154 C 0.31814 0.23657 0.69814
 C1155 C 0.33742 0.24571 0.70589
 C1156 C 0.35543 0.24284 0.68986
 H1157 H 0.41868 0.19352 0.58048
 H1158 H 0.44737 0.19324 0.54708
 H1159 H 0.46433 0.25695 0.57020
 H1160 H 0.43592 0.25717 0.60375
 H1161 H 0.33393 0.21155 0.64031
 H1162 H 0.30230 0.21706 0.66826
 H1163 H 0.33838 0.25542 0.72405
 H1164 H 0.37006 0.25035 0.69609
 C1165 C 0.08033 0.27244 0.09152
 C1166 C 0.07421 0.29154 0.07931
 C1167 C 0.05748 0.29197 0.06071
 C1168 C 0.04663 0.27329 0.05378
 C1169 C 0.05259 0.25427 0.06625
 C1170 C 0.06916 0.25386 0.08495
 C1171 C 0.09854 0.27166 0.11045
 N1172 N 0.10308 0.25360 0.12408
 N1173 N 0.11980 0.25255 0.14040
 C1174 C 0.13277 0.26950 0.14380
 N1175 N 0.12818 0.28763 0.13030
 N1176 N 0.11140 0.28870 0.11399
 C1177 C 0.15181 0.26794 0.16123
 C1178 C 0.16670 0.28451 0.16236
 C1179 C 0.18512 0.28247 0.17783
 C1180 C 0.18893 0.26388 0.19249
 C1181 C 0.17392 0.24752 0.19188
 C1182 C 0.15558 0.24949 0.17638
 H1183 H 0.08242 0.30615 0.08397
 H1184 H 0.05327 0.30687 0.05142
 H1185 H 0.04451 0.23961 0.06144
 H1186 H 0.07342 0.23887 0.09393
 H1187 H 0.16431 0.29893 0.15096
 H1188 H 0.19656 0.29526 0.17810
 H1189 H 0.17656 0.23310 0.20321
 H1190 H 0.14444 0.23646 0.17612
 C1191 C 0.57538 0.76937 0.59445
 C1192 C 0.57046 0.78822 0.58079
 C1193 C 0.55404 0.78875 0.56178
 C1194 C 0.54236 0.77039 0.55580
 C1195 C 0.54715 0.75160 0.56962
 C1196 C 0.56339 0.75112 0.58882
 C1197 C 0.59319 0.76853 0.61396
 N1198 N 0.59574 0.75151 0.63042
 N1199 N 0.61211 0.75039 0.64734
 C1200 C 0.62668 0.76618 0.64846
 N1201 N 0.62409 0.78326 0.63209
 N1202 N 0.60766 0.78443 0.61523
 C1203 C 0.64535 0.76443 0.66648
 C1204 C 0.66264 0.77831 0.66355
 C1205 C 0.68072 0.77583 0.67952
 C1206 C 0.68174 0.75957 0.69882
 C1207 C 0.66433 0.74607 0.70236
 C1208 C 0.64634 0.74840 0.68625
 H1209 H 0.57934 0.80257 0.58473
 H1210 H 0.55074 0.80346 0.55143
 H1211 H 0.53839 0.73720 0.56554
 H1212 H 0.56677 0.73633 0.59892
 H1213 H 0.66240 0.79080 0.64851
 H1214 H 0.69404 0.78639 0.67661
 H1215 H 0.66487 0.73351 0.71729
 H1216 H 0.63327 0.73754 0.68916
   
