data_POSCAR
  _audit_creation_date              2014-09-24
  _audit_creation_method            'ToBaCCo'
  _symmetry_space_group_name_H-M    'P1'
  _symmetry_Int_Tables_number       1
  _symmetry_cell_setting            triclinic
  loop_
  _symmetry_equiv_pos_as_xyz
 x,y,z
_cell_length_a 38.0685
_cell_length_b 36.9329
_cell_length_c 15.7636
_cell_angle_alpha 89.953700
_cell_angle_beta 89.350600
_cell_angle_gamma 120.424100
loop_
  _atom_site_label
  _atom_site_type_symbol
  _atom_site_fract_x
  _atom_site_fract_y
  _atom_site_fract_z
C1 C 0.34780 0.49986 0.45024
 C2 C 0.34972 0.50008 0.53702
 C3 C 0.31123 0.48886 0.56787
 N4 N 0.28579 0.48136 0.50238
 C5 C 0.30817 0.48852 0.43041
 C6 C 0.29928 0.48196 0.65485
 C7 C 0.25926 0.46964 0.68294
 C8 C 0.24258 0.45215 0.76181
 C9 C 0.20476 0.44819 0.76623
 C10 C 0.19975 0.46459 0.69124
 N11 N 0.23298 0.47733 0.64069
 C12 C 0.16629 0.47000 0.67350
 C13 C 0.16008 0.48160 0.59185
 C14 C 0.13558 0.49851 0.57470
 C15 C 0.13585 0.50284 0.48842
 C16 C 0.16065 0.48867 0.45579
 N17 N 0.17542 0.47567 0.51899
 C18 C 0.16633 0.48436 0.36865
 C19 C 0.19703 0.47692 0.33759
 C20 C 0.19910 0.46405 0.25609
 C21 C 0.23484 0.46321 0.25029
 C22 C 0.25368 0.47587 0.32831
 N23 N 0.23044 0.48427 0.38092
 C24 C 0.29281 0.48255 0.34697
 H25 H 0.37260 0.50649 0.40690
 H26 H 0.37617 0.50658 0.57323
 H27 H 0.23908 0.49904 0.43934
 H28 H 0.25612 0.44356 0.81202
 H29 H 0.18381 0.43568 0.81972
 H30 H 0.11914 0.50676 0.61969
 H31 H 0.11937 0.51469 0.45362
 H32 H 0.24607 0.45502 0.19446
 H33 H 0.23967 0.49524 0.58560
 H34 H 0.17734 0.45648 0.20588
 C35 C 0.61603 -0.32099 0.53411
 C36 C 0.61712 -0.31995 0.44734
 C37 C 0.60353 -0.29305 0.42279
 N38 N 0.59450 -0.27758 0.49157
 C39 C 0.60147 -0.29503 0.55949
 C40 C 0.58891 -0.29212 0.34184
 C41 C 0.58238 -0.25932 0.31514
 C42 C 0.56480 -0.25872 0.23892
 C43 C 0.56256 -0.22272 0.23817
 C44 C 0.57828 -0.20261 0.31448
 N45 N 0.59161 -0.22432 0.35974
 C46 C 0.57928 -0.16552 0.34072
 C47 C 0.58331 -0.15270 0.42642
 C48 C 0.58559 -0.11587 0.45326
 C49 C 0.58326 -0.11771 0.54023
 C50 C 0.57981 -0.15555 0.56402
 N51 N 0.57980 -0.17694 0.49423
 C52 C 0.57191 -0.17176 0.64803
 C53 C 0.57031 -0.20954 0.67152
 C54 C 0.55258 -0.23190 0.74585
 C55 C 0.55587 -0.26722 0.74336
 C56 C 0.57650 -0.26502 0.66862
 N57 N 0.58591 -0.22927 0.62605
 C58 C 0.58521 -0.29612 0.64059
 H59 H 0.62191 -0.34122 0.57389
 H60 H 0.62425 -0.33918 0.40730
 H61 H 0.60390 -0.21766 0.57147
 H62 H 0.55428 -0.28206 0.18939
 H63 H 0.54962 -0.21317 0.18821
 H64 H 0.58730 -0.09092 0.41410
 H65 H 0.58282 -0.09438 0.58101
 H66 H 0.54398 -0.29188 0.79095
 H67 H 0.60759 -0.21473 0.41622
 H68 H 0.53786 -0.22428 0.79605
 C69 C 1.10178 0.70939 0.41849
 C70 C 1.09736 0.70182 0.50423
 C71 C 1.13555 0.72666 0.53885
 N72 N 1.16311 0.74930 0.47713
 C73 C 1.14254 0.73858 0.40335
 C74 C 1.14545 0.72368 0.62379
 C75 C 1.18398 0.75135 0.65899
 C76 C 1.19860 0.74367 0.73316
 C77 C 1.23749 0.77671 0.74330
 C78 C 1.24538 0.80408 0.67594
 N79 N 1.21226 0.78889 0.62595
 C80 C 1.28289 0.84135 0.66042
 C81 C 1.29143 0.86453 0.58441
 C82 C 1.32359 0.90528 0.57353
 C83 C 1.32816 0.91290 0.48808
 C84 C 1.29895 0.87629 0.44982
 N85 N 1.27609 0.84697 0.50876
 C86 C 1.29798 0.86797 0.36245
 C87 C 1.26339 0.83360 0.32493
 C88 C 1.26306 0.81707 0.24566
 C89 C 1.22434 0.78372 0.23413
 C90 C 1.20214 0.78029 0.30710
 N91 N 1.22584 0.81131 0.36138
 C92 C 1.16111 0.74872 0.32191
 H93 H 1.07809 0.69367 0.37202
 H94 H 1.06961 0.67931 0.53701
 H95 H 1.21622 0.81816 0.41812
 H96 H 1.18330 0.71650 0.77462
 H97 H 1.25784 0.77974 0.79373
 H98 H 1.34328 0.92619 0.62195
 H99 H 1.35177 0.94116 0.45727
 H100 H 1.21403 0.76364 0.17908
 H101 H 1.20851 0.80413 0.57431
 H102 H 1.28826 0.82734 0.20123
 C103 C 0.88272 0.57899 0.44857
 C104 C 0.88635 0.58228 0.53495
 C105 C 0.84825 0.57134 0.56764
 N106 N 0.82155 0.56206 0.50370
 C107 C 0.84264 0.56675 0.43069
 C108 C 0.83794 0.56617 0.65549
 C109 C 0.80013 0.56015 0.68604
 C110 C 0.78242 0.54205 0.76380
 C111 C 0.74521 0.53964 0.76741
 C112 C 0.74117 0.55645 0.69192
 N113 N 0.77514 0.56968 0.64335
 C114 C 0.70644 0.55881 0.66965
 C115 C 0.70002 0.56908 0.58760
 C116 C 0.66913 0.57697 0.56688
 C117 C 0.66509 0.57325 0.48069
 C118 C 0.69366 0.56330 0.45197
 N119 N 0.71514 0.56112 0.51717
 C120 C 0.69452 0.54882 0.37015
 C121 C 0.72695 0.54393 0.33997
 C122 C 0.72699 0.52497 0.26422
 C123 C 0.76416 0.52726 0.25776
 C124 C 0.78550 0.54692 0.33054
 N125 N 0.76300 0.55785 0.37921
 C126 C 0.82539 0.55594 0.34884
 H127 H 0.90678 0.58414 0.40433
 H128 H 0.91371 0.59069 0.57000
 H129 H 0.77332 0.57690 0.43240
 H130 H 0.79447 0.53057 0.81196
 H131 H 0.72332 0.52639 0.81921
 H132 H 0.64968 0.58194 0.61007
 H133 H 0.64221 0.57516 0.44398
 H134 H 0.77409 0.51552 0.20547
 H135 H 0.78169 0.58600 0.58600
 H136 H 0.70289 0.51118 0.21814
 C137 C 0.47271 0.11079 0.54350
 C138 C 0.47200 0.11037 0.45662
 C139 C 0.45183 0.13115 0.43273
 N140 N 0.44085 0.14485 0.50203
 C141 C 0.45383 0.13270 0.56962
 C142 C 0.44176 0.13546 0.34876
 C143 C 0.42635 0.16232 0.32951
 C144 C 0.40793 0.16236 0.25415
 C145 C 0.40469 0.19791 0.25437
 C146 C 0.42059 0.21818 0.33043
 N147 N 0.43338 0.19615 0.37600
 C148 C 0.42786 0.25862 0.35122
 C149 C 0.43518 0.27468 0.43482
 C150 C 0.44579 0.31535 0.45650
 C151 C 0.44934 0.31790 0.54333
 C152 C 0.44078 0.27872 0.57183
 N153 N 0.43165 0.25226 0.50551
 C154 C 0.44071 0.26747 0.65788
 C155 C 0.43648 0.22861 0.68190
 C156 C 0.42512 0.21106 0.76253
 C157 C 0.42653 0.17470 0.76137
 C158 C 0.43899 0.17121 0.68022
 N159 N 0.44482 0.20408 0.63199
 C160 C 0.44761 0.13986 0.65489
 H161 H 0.48602 0.09701 0.58298
 H162 H 0.48490 0.09632 0.41608
 H163 H 0.45846 0.21188 0.57212
 H164 H 0.39969 0.14029 0.20258
 H165 H 0.39319 0.20841 0.20321
 H166 H 0.45047 0.34056 0.41420
 H167 H 0.45748 0.34544 0.58113
 H168 H 0.41982 0.15356 0.81464
 H169 H 0.45194 0.20740 0.42875
 H170 H 0.41685 0.22332 0.81668
 C171 C 0.68240 0.10182 0.53561
 C172 C 0.67984 0.10622 0.44981
 C173 C 0.70964 0.14691 0.42876
 N174 N 0.73017 0.16753 0.49889
 C175 C 0.71340 0.14014 0.56463
 C176 C 0.71405 0.16563 0.34802
 C177 C 0.74770 0.20488 0.32323
 C178 C 0.75029 0.22555 0.24777
 C179 C 0.78762 0.26188 0.24625
 C180 C 0.80666 0.26273 0.32126
 N181 N 0.78254 0.22741 0.36694
 C182 C 0.84518 0.29600 0.34583
 C183 C 0.85865 0.30218 0.43061
 C184 C 0.89578 0.33496 0.45732
 C185 C 0.89463 0.33373 0.54435
 C186 C 0.85700 0.30000 0.56787
 N187 N 0.83507 0.28076 0.49838
 C188 C 0.84194 0.29060 0.65201
 C189 C 0.80653 0.25313 0.67797
 C190 C 0.78864 0.24691 0.75784
 C191 C 0.75494 0.20749 0.75857
 C192 C 0.75298 0.19043 0.67905
 N193 N 0.78528 0.21814 0.63093
 C194 C 0.72020 0.15145 0.65168
 H195 H 0.66226 0.07433 0.57332
 H196 H 0.65769 0.08262 0.40813
 H197 H 0.79337 0.21287 0.57095
 H198 H 0.72761 0.21558 0.19877
 H199 H 0.79902 0.28539 0.19632
 H200 H 0.92048 0.35832 0.41828
 H201 H 0.91836 0.35574 0.58570
 H202 H 0.73353 0.19366 0.81102
 H203 H 0.79065 0.21782 0.42159
 H204 H 0.79834 0.26883 0.80994
 O205 O 0.94885 0.50661 -0.16039
 O206 O 1.03811 0.58100 0.14242
 O207 O 0.91267 0.49137 0.07949
 O208 O 1.07689 0.57365 -0.11359
 O209 O 0.96406 0.54976 0.11707
 O210 O 1.01906 0.55533 -0.16763
 O211 O 1.07404 0.60587 0.02558
 O212 O 0.93741 0.52830 -0.05023
 C213 C 0.93494 0.52697 -0.12750
 C214 C 1.06517 0.61131 0.09926
 C215 C 0.92617 0.52605 0.11674
 C216 C 1.05592 0.58054 -0.16347
 O217 O 1.03505 0.49273 -0.14028
 O218 O 0.95347 0.47400 0.16124
 O219 O 0.90222 0.44339 -0.06912
 O220 O 1.08002 0.54733 0.10463
 O221 O 1.02499 0.50291 0.16756
 O222 O 0.95950 0.44518 -0.10821
 O223 O 1.07601 0.51187 -0.03306
 O224 O 0.94193 0.44003 0.04654
 Co225 Co 0.99217 0.50176 -0.12972
 Co226 Co 0.99562 0.52674 0.13487
 Co227 Co 0.94247 0.48494 -0.00611
 Co228 Co 1.06952 0.55590 -0.00372
 O229 O 1.00233 0.52008 0.00325
 C230 C 1.06399 0.49299 -0.10186
 C231 C 0.94011 0.43950 0.12510
 C232 C 0.92050 0.42673 -0.11194
 C233 C 1.06208 0.51772 0.15628
 O234 O 0.45062 0.41029 -0.10574
 O235 O 0.41767 0.45533 0.11403
 O236 O 0.50178 0.41379 0.09334
 O237 O 0.44094 0.51949 -0.06867
 O238 O 0.44463 0.40941 0.10857
 O239 O 0.42824 0.46270 -0.13706
 O240 O 0.44086 0.52002 0.08881
 O241 O 0.50424 0.41149 -0.06035
 C242 C 0.46992 0.39189 -0.09586
 C243 C 0.41182 0.48531 0.11280
 C244 C 0.46501 0.39210 0.11365
 C245 C 0.42076 0.49140 -0.12221
 O246 O 0.50381 0.51987 -0.17063
 O247 O 0.51410 0.46897 0.18617
 O248 O 0.56495 0.49475 -0.05773
 O249 O 0.52220 0.56263 0.08552
 O250 O 0.48821 0.51703 0.18399
 O251 O 0.52515 0.46729 -0.16058
 O252 O 0.51965 0.56818 -0.07429
 O253 O 0.55882 0.49696 0.08873
 Co254 Co 0.47799 0.46602 -0.12850
 Co255 Co 0.46820 0.46416 0.13629
 Co256 Co 0.52854 0.45615 0.01530
 Co257 Co 0.48184 0.53653 0.00879
 O258 O 0.48858 0.48075 0.00690
 C259 C 0.52028 0.55791 -0.14958
 C260 C 0.55084 0.49058 0.16492
 C261 C 0.56048 0.48939 -0.13433
 C262 C 0.51459 0.55398 0.16176
 O263 O 0.55118 0.02865 -0.16730
 O264 O 0.54827 -0.03753 0.11767
 O265 O 0.56805 0.09087 0.05517
 O266 O 0.48893 -0.10175 -0.07729
 O267 O 0.57220 0.03749 0.10324
 O268 O 0.53090 -0.04738 -0.15945
 O269 O 0.49442 -0.09602 0.08253
 O270 O 0.58114 0.04780 -0.04962
 C271 C 0.58325 0.05006 -0.12852
 C272 C 0.52915 -0.07669 0.11553
 C273 C 0.58303 0.07604 0.11130
 C274 C 0.51713 -0.08477 -0.13420
 O275 O 0.45738 -0.06696 -0.17078
 O276 O 0.49801 0.02242 0.15855
 O277 O 0.52093 0.06368 -0.09088
 O278 O 0.43167 -0.08108 0.08442
 O279 O 0.47701 -0.05201 0.17764
 O280 O 0.47413 0.00676 -0.14812
 O281 O 0.42278 -0.09035 -0.05823
 O282 O 0.49078 0.04474 0.04112
 Co283 Co 0.50363 -0.01910 -0.14597
 Co284 Co 0.52197 -0.00834 0.12622
 Co285 Co 0.53421 0.04262 -0.00020
 Co286 Co 0.46361 -0.08626 0.00690
 O287 O 0.50320 -0.02012 -0.00775
 C288 C 0.42399 -0.08855 -0.13572
 C289 C 0.48436 0.04157 0.11792
 C290 C 0.48857 0.04481 -0.13278
 C291 C 0.44077 -0.06758 0.15663
 C292 C 1.09596 0.45830 0.30748
 C293 C 1.13835 0.48766 0.30793
 C294 C 1.15424 0.52332 0.25638
 C295 C 1.12883 0.53137 0.20747
 C296 C 1.08627 0.50420 0.20806
 C297 C 1.06946 0.46634 0.25747
 C298 C 1.07952 0.42100 0.35630
 C299 C 1.03788 0.39236 0.35749
 C300 C 1.01197 0.39981 0.30902
 C301 C 1.02741 0.43592 0.25875
 H302 H 1.09872 0.41354 0.39369
 H303 H 1.02569 0.36405 0.39568
 H304 H 0.97967 0.37720 0.30978
 H305 H 1.00563 0.43863 0.22089
 H306 H 1.18660 0.54602 0.25640
 H307 H 1.14289 0.56017 0.17046
 C308 C 0.52619 0.64168 0.30703
 C309 C 0.56909 0.66925 0.29891
 C310 C 0.59254 0.65626 0.25368
 C311 C 0.57432 0.61720 0.21509
 C312 C 0.53218 0.58948 0.22120
 C313 C 0.50759 0.60154 0.26767
 C314 C 0.50128 0.65326 0.35315
 C315 C 0.45912 0.62721 0.35614
 C316 C 0.44094 0.58853 0.31618
 C317 C 0.46477 0.57546 0.27343
 H318 H 0.51391 0.68264 0.38680
 H319 H 0.44050 0.63688 0.39052
 H320 H 0.40820 0.56842 0.31891
 H321 H 0.44904 0.54478 0.24552
 H322 H 0.62523 0.67681 0.24736
 H323 H 0.59321 0.60912 0.17719
 C324 C 0.33769 -0.08798 0.23823
 C325 C 0.33484 -0.10947 0.31494
 C326 C 0.36966 -0.10967 0.34404
 C327 C 0.40527 -0.09278 0.29521
 C328 C 0.40735 -0.07501 0.21582
 C329 C 0.37422 -0.07049 0.18858
 C330 C 0.30551 -0.08228 0.21124
 C331 C 0.30888 -0.06068 0.13624
 C332 C 0.34445 -0.04371 0.08753
 C333 C 0.37691 -0.04821 0.11345
 H334 H 0.27774 -0.09395 0.24839
 H335 H 0.28393 -0.05666 0.11636
 H336 H 0.34715 -0.02647 0.02990
 H337 H 0.40442 -0.03300 0.07527
 H338 H 0.36845 -0.12553 0.40285
 H339 H 0.43029 -0.09628 0.31701
 C340 C 0.88272 0.58520 0.23868
 C341 C 0.84954 0.55058 0.28026
 C342 C 0.84026 0.50982 0.26064
 C343 C 0.86403 0.50287 0.20296
 C344 C 0.89881 0.53647 0.16504
 C345 C 0.90790 0.57831 0.18101
 C346 C 0.89164 0.62659 0.25444
 C347 C 0.92476 0.66065 0.21469
 C348 C 0.94930 0.65413 0.15823
 C349 C 0.94098 0.61353 0.14090
 H350 H 0.87306 0.63292 0.29745
 H351 H 0.93128 0.69225 0.22738
 H352 H 0.97468 0.68071 0.12685
 H353 H 0.96039 0.61050 0.09470
 H354 H 0.81482 0.48311 0.29190
 H355 H 0.85620 0.47078 0.19124
 C356 C 0.40110 0.29492 0.25561
 C357 C 0.43244 0.28737 0.28032
 C358 C 0.47037 0.30886 0.23953
 C359 C 0.47884 0.34009 0.18015
 C360 C 0.44963 0.35110 0.15892
 C361 C 0.40922 0.32614 0.19244
 C362 C 0.36185 0.27196 0.29251
 C363 C 0.33069 0.27855 0.26626
 C364 C 0.33791 0.30757 0.20225
 C365 C 0.37656 0.33094 0.16511
 H366 H 0.35488 0.24848 0.34116
 H367 H 0.30061 0.26056 0.29473
 H368 H 0.31329 0.31177 0.18069
 H369 H 0.37971 0.35139 0.11307
 H370 H 0.49440 0.30282 0.25705
 H371 H 0.50959 0.35750 0.15453
 C372 C 0.64472 0.14838 0.29288
 C373 C 0.67980 0.14431 0.28742
 C374 C 0.68304 0.12030 0.22261
 C375 C 0.65187 0.09972 0.16445
 C376 C 0.61681 0.10308 0.16827
 C377 C 0.61302 0.12771 0.23261
 C378 C 0.64027 0.17218 0.35770
 C379 C 0.60518 0.17506 0.36373
 C380 C 0.57408 0.15456 0.30542
 C381 C 0.57786 0.13112 0.24037
 H382 H 0.66366 0.18848 0.40446
 H383 H 0.60204 0.19319 0.41405
 H384 H 0.54687 0.15678 0.31078
 H385 H 0.55306 0.11566 0.19663
 H386 H 0.70974 0.11708 0.21779
 H387 H 0.65495 0.08051 0.11634
 C388 C 0.42426 0.07201 -0.27282
 C389 C 0.45196 0.11569 -0.28205
 C390 C 0.48561 0.13564 -0.22891
 C391 C 0.49524 0.11226 -0.17544
 C392 C 0.47085 0.06836 -0.17168
 C393 C 0.43282 0.04840 -0.21391
 C394 C 0.38748 0.05176 -0.31834
 C395 C 0.35910 0.00953 -0.30380
 C396 C 0.36638 -0.01302 -0.24283
 C397 C 0.40269 0.00604 -0.19798
 H398 H 0.37990 0.06863 -0.36378
 H399 H 0.33085 -0.00550 -0.33842
 H400 H 0.34352 -0.04533 -0.22951
 H401 H 0.40575 -0.01233 -0.14842
 H402 H 0.50642 0.16923 -0.23379
 H403 H 0.52360 0.12861 -0.14130
 C404 C 0.64079 0.49676 -0.29182
 C405 C 0.67173 0.53911 -0.27765
 C406 C 0.66516 0.56344 -0.21900
 C407 C 0.62830 0.54671 -0.17519
 C408 C 0.59683 0.50539 -0.18927
 C409 C 0.60291 0.47973 -0.24744
 C410 C 0.64713 0.47081 -0.34843
 C411 C 0.61703 0.42911 -0.36034
 C412 C 0.57999 0.41244 -0.31709
 C413 C 0.57293 0.43727 -0.26094
 H414 H 0.67561 0.48227 -0.38285
 H415 H 0.62265 0.40953 -0.40280
 H416 H 0.55672 0.37999 -0.32657
 H417 H 0.54395 0.42247 -0.22816
 H418 H 0.68833 0.59592 -0.20870
 H419 H 0.62412 0.56637 -0.13000
 C420 C 0.89008 0.32372 -0.22503
 C421 C 0.86236 0.32390 -0.28356
 C422 C 0.85155 0.35487 -0.27866
 C423 C 0.86884 0.38643 -0.21840
 C424 C 0.89766 0.38809 -0.16186
 C425 C 0.90771 0.35591 -0.16312
 C426 C 0.90077 0.29230 -0.22721
 C427 C 0.92797 0.29232 -0.16879
 C428 C 0.94466 0.32327 -0.10714
 C429 C 0.93446 0.35459 -0.10368
 H430 H 0.88833 0.26765 -0.27407
 H431 H 0.93608 0.26816 -0.17124
 H432 H 0.96573 0.32306 -0.06204
 H433 H 0.94762 0.37758 -0.05414
 H434 H 0.82978 0.35474 -0.32253
 H435 H 0.86097 0.41082 -0.21844
 C436 C 0.58919 -0.11325 -0.24592
 C437 C 0.56014 -0.15039 -0.28700
 C438 C 0.51864 -0.16756 -0.26787
 C439 C 0.50552 -0.14779 -0.21139
 C440 C 0.53335 -0.10929 -0.17526
 C441 C 0.57571 -0.09241 -0.18976
 C442 C 0.63135 -0.09614 -0.26023
 C443 C 0.65963 -0.05939 -0.21973
 C444 C 0.64652 -0.03921 -0.16416
 C445 C 0.60502 -0.05550 -0.14892
 H446 H 0.64272 -0.11109 -0.30247
 H447 H 0.69189 -0.04662 -0.23117
 H448 H 0.66863 -0.01091 -0.13234
 H449 H 0.59623 -0.03933 -0.10388
 H450 H 0.49616 -0.19622 -0.29820
 H451 H 0.47314 -0.16156 -0.19963
 C452 C 0.36221 0.52675 -0.26469
 C453 C 0.32829 0.48678 -0.28430
 C454 C 0.32468 0.45075 -0.24627
 C455 C 0.35389 0.45351 -0.19047
 C456 C 0.38828 0.49229 -0.17148
 C457 C 0.39284 0.52963 -0.20905
 C458 C 0.36642 0.56396 -0.30022
 C459 C 0.40088 0.60282 -0.28516
 C460 C 0.43159 0.60556 -0.23408
 C461 C 0.42773 0.56960 -0.19616
 H462 H 0.34329 0.56329 -0.34056
 H463 H 0.40391 0.63092 -0.31386
 H464 H 0.45866 0.63577 -0.22375
 H465 H 0.45297 0.57404 -0.15855
 H466 H 0.29945 0.41994 -0.26169
 H467 H 0.35018 0.42471 -0.16372
 C468 C 1.09001 0.68647 -0.26979
 C469 C 1.11872 0.68737 -0.32915
 C470 C 1.12432 0.65272 -0.33524
 C471 C 1.10329 0.61823 -0.28151
 C472 C 1.07535 0.61687 -0.22145
 C473 C 1.06780 0.65066 -0.21599
 C474 C 1.08318 0.72050 -0.26220
 C475 C 1.05501 0.71921 -0.20309
 C476 C 1.03331 0.68425 -0.15053
 C477 C 1.03960 0.65028 -0.15649
 H478 H 1.09944 0.74818 -0.30204
 H479 H 1.05002 0.74549 -0.19796
 H480 H 1.01162 0.68354 -0.10460
 H481 H 1.02233 0.62394 -0.11397
 H482 H 1.14644 0.65316 -0.37980
 H483 H 1.10919 0.59250 -0.28617
 C484 C 0.88096 0.58431 -0.21414
 C485 C 0.86318 0.55970 -0.28796
 C486 C 0.87016 0.52667 -0.30566
 C487 C 0.89318 0.51727 -0.25240
 C488 C 0.91089 0.54053 -0.17882
 C489 C 0.90542 0.57498 -0.15983
 C490 C 0.87700 0.61950 -0.19582
 C491 C 0.89614 0.64464 -0.12592
 C492 C 0.92018 0.63583 -0.07390
 C493 C 0.92506 0.60157 -0.09070
 H494 H 0.85976 0.62840 -0.23614
 H495 H 0.89290 0.67159 -0.11290
 H496 H 0.93573 0.65616 -0.02109
 H497 H 0.94525 0.59702 -0.05053
 H498 H 0.85665 0.50701 -0.36065
 H499 H 0.89673 0.49082 -0.26899
 C500 C 0.41280 0.30278 -0.25313
 C501 C 0.44476 0.29549 -0.27671
 C502 C 0.48017 0.31314 -0.22781
 C503 C 0.48635 0.34142 -0.16327
 C504 C 0.45677 0.35215 -0.14332
 C505 C 0.41818 0.32982 -0.18359
 C506 C 0.37494 0.28232 -0.29473
 C507 C 0.34290 0.28768 -0.26775
 C508 C 0.34750 0.31256 -0.19783
 C509 C 0.38446 0.33305 -0.15546
 H510 H 0.36951 0.26150 -0.34752
 H511 H 0.31404 0.27168 -0.30010
 H512 H 0.32210 0.31559 -0.17561
 H513 H 0.38565 0.35004 -0.09875
 H514 H 0.50425 0.30653 -0.24259
 H515 H 0.51560 0.35690 -0.13230
 C516 C 0.65080 0.13056 -0.29976
 C517 C 0.68706 0.12905 -0.29086
 C518 C 0.69039 0.10670 -0.22210
 C519 C 0.65734 0.08319 -0.16666
 C520 C 0.61991 0.08109 -0.17858
 C521 C 0.61679 0.10570 -0.24544
 C522 C 0.64815 0.15738 -0.36080
 C523 C 0.61220 0.15772 -0.37212
 C524 C 0.57845 0.13223 -0.32198
 C525 C 0.58080 0.10699 -0.25929
 H526 H 0.67388 0.17884 -0.39992
 H527 H 0.61063 0.17801 -0.41964
 H528 H 0.55044 0.13251 -0.33070
 H529 H 0.55402 0.08916 -0.22216
 H530 H 0.71842 0.10644 -0.21282
 H531 H 0.66041 0.06489 -0.11664
 C532 C 1.09616 0.43993 -0.26716
 C533 C 1.13912 0.46586 -0.26000
 C534 C 1.15494 0.49174 -0.18876
 C535 C 1.12939 0.49657 -0.13209
 C536 C 1.08720 0.47572 -0.14465
 C537 C 1.07003 0.44475 -0.20883
 C538 C 1.07871 0.40898 -0.33076
 C539 C 1.03658 0.38422 -0.33812
 C540 C 1.01106 0.38897 -0.28122
 C541 C 1.02749 0.41842 -0.21647
 H542 H 1.09749 0.40342 -0.37472
 H543 H 1.02368 0.36091 -0.38758
 H544 H 0.97838 0.36936 -0.28667
 H545 H 1.00662 0.41957 -0.17136
 H546 H 1.18756 0.51149 -0.18115
 H547 H 1.14323 0.51987 -0.08277
 C548 C 0.53594 0.62779 -0.34227
 C549 C 0.56943 0.66612 -0.31261
 C550 C 0.58745 0.66654 -0.23566
 C551 C 0.57274 0.63015 -0.18732
 C552 C 0.53943 0.59198 -0.21382
 C553 C 0.52136 0.59019 -0.29354
 C554 C 0.51505 0.62657 -0.41709
 C555 C 0.48261 0.58906 -0.44606
 C556 C 0.46946 0.55222 -0.40061
 C557 C 0.48786 0.55271 -0.32462
 H558 H 0.52302 0.65454 -0.45345
 H559 H 0.46728 0.58850 -0.50365
 H560 H 0.44438 0.52307 -0.42361
 H561 H 0.47465 0.52315 -0.29186
 H562 H 0.61299 0.69542 -0.21247
 H563 H 0.58682 0.63216 -0.12679
 C564 C 0.35101 -0.14892 -0.31520
 C565 C 0.31597 -0.14806 -0.28567
 C566 C 0.31559 -0.13337 -0.20404
 C567 C 0.35054 -0.11573 -0.15505
 C568 C 0.38674 -0.11245 -0.18611
 C569 C 0.38674 -0.13083 -0.26534
 C570 C 0.35072 -0.16865 -0.39247
 C571 C 0.38511 -0.16931 -0.42112
 C572 C 0.42012 -0.15139 -0.37275
 C573 C 0.42093 -0.13276 -0.29545
 H574 H 0.32369 -0.18452 -0.43069
 H575 H 0.38436 -0.18436 -0.48052
 H576 H 0.44662 -0.15255 -0.39449
 H577 H 0.44837 -0.12099 -0.25947
 H578 H 0.28889 -0.13312 -0.18021
 H579 H 0.34989 -0.10252 -0.09408
 C580 C 0.59787 -0.11114 0.22249
 C581 C 0.56866 -0.14268 0.27742
 C582 C 0.52781 -0.15360 0.27274
 C583 C 0.51569 -0.13310 0.21663
 C584 C 0.54405 -0.10061 0.16369
 C585 C 0.58548 -0.08996 0.16484
 C586 C 0.63913 -0.10011 0.22382
 C587 C 0.66751 -0.06941 0.16863
 C588 C 0.65534 -0.04931 0.11123
 C589 C 0.61474 -0.05942 0.10902
 H590 H 0.64966 -0.11525 0.26712
 H591 H 0.69908 -0.06135 0.17001
 H592 H 0.67745 -0.02587 0.06794
 H593 H 0.60650 -0.04363 0.06235
 H594 H 0.50516 -0.17792 0.31394
 H595 H 0.48393 -0.14164 0.21709
 C596 C 0.33741 0.51450 0.21419
 C597 C 0.31893 0.48202 0.27602
 C598 C 0.32641 0.44867 0.27309
 C599 C 0.35419 0.44868 0.21500
 C600 C 0.37517 0.48181 0.15652
 C601 C 0.36443 0.51349 0.15182
 C602 C 0.33021 0.54842 0.21389
 C603 C 0.34718 0.57926 0.15080
 C604 C 0.37127 0.57677 0.08670
 C605 C 0.37971 0.54418 0.08673
 H606 H 0.31132 0.55135 0.26197
 H607 H 0.34108 0.60488 0.15089
 H608 H 0.38343 0.60016 0.03653
 H609 H 0.39716 0.54269 0.03387
 H610 H 0.31204 0.42332 0.31917
 H611 H 0.36092 0.42354 0.21939
 C612 C 1.11332 0.72122 0.19489
 C613 C 1.13936 0.71770 0.25373
 C614 C 1.14269 0.68171 0.25405
 C615 C 1.11945 0.64862 0.20025
 C616 C 1.09220 0.65042 0.14402
 C617 C 1.08943 0.68711 0.13933
 C618 C 1.10989 0.75739 0.19121
 C619 C 1.08374 0.76006 0.13343
 C620 C 1.06047 0.72677 0.07913
 C621 C 1.06295 0.69036 0.08226
 H622 H 1.12747 0.78377 0.23253
 H623 H 1.08146 0.78809 0.13085
 H624 H 1.04023 0.72910 0.03467
 H625 H 1.04422 0.66494 0.03977
 H626 H 1.16246 0.67864 0.29878
 H627 H 1.12179 0.62062 0.20457
 C628 C 0.47311 0.13142 0.20664
 C629 C 0.44828 0.11143 0.27931
 C630 C 0.43097 0.06779 0.28883
 C631 C 0.44137 0.04504 0.23376
 C632 C 0.46585 0.06395 0.16174
 C633 C 0.47867 0.10686 0.14375
 C634 C 0.49383 0.17557 0.19618
 C635 C 0.51525 0.19455 0.12160
 C636 C 0.51668 0.17014 0.05628
 C637 C 0.49877 0.12689 0.06707
 H638 H 0.49401 0.19600 0.24534
 H639 H 0.53027 0.22831 0.11399
 H640 H 0.53219 0.18483 -0.00279
 H641 H 0.50001 0.10976 0.01340
 H642 H 0.41160 0.05170 0.34325
 H643 H 0.43110 0.01258 0.24901
 C644 C 0.62212 0.49198 0.33708
 C645 C 0.65669 0.53207 0.31968
 C646 C 0.65496 0.55737 0.25609
 C647 C 0.61975 0.54360 0.20928
 C648 C 0.58483 0.50431 0.22507
 C649 C 0.58586 0.47778 0.28930
 C650 C 0.62332 0.46525 0.39973
 C651 C 0.58988 0.42529 0.41429
 C652 C 0.55478 0.41112 0.36703
 C653 C 0.55266 0.43682 0.30503
 H654 H 0.65024 0.47468 0.43707
 H655 H 0.59132 0.40491 0.46163
 H656 H 0.52913 0.37982 0.37792
 H657 H 0.52490 0.42360 0.26962
 H658 H 0.68119 0.58801 0.24245
 H659 H 0.62001 0.56368 0.15888
 C660 C 0.89894 0.33051 0.22773
 C661 C 0.86935 0.33039 0.28332
 C662 C 0.86331 0.36467 0.28333
 C663 C 0.88620 0.39897 0.23028
 C664 C 0.91587 0.40027 0.17480
 C665 C 0.92263 0.36589 0.17327
 C666 C 0.90642 0.29685 0.22719
 C667 C 0.93718 0.29835 0.17571
 C668 C 0.96100 0.33331 0.12436
 C669 C 0.95379 0.36677 0.12267
 H670 H 0.88895 0.26948 0.26728
 H671 H 0.94295 0.27252 0.17652
 H672 H 0.98549 0.33469 0.08632
 H673 H 0.97360 0.39378 0.08362
 H674 H 0.84096 0.36509 0.32590
 H675 H 0.88091 0.42511 0.23323
   
