data_POSCAR
  _audit_creation_date              2014-09-24
  _audit_creation_method            'ToBaCCo'
  _symmetry_space_group_name_H-M    'P1'
  _symmetry_Int_Tables_number       1
  _symmetry_cell_setting            triclinic
  loop_
  _symmetry_equiv_pos_as_xyz
 x,y,z
_cell_length_a 37.7576
_cell_length_b 37.7441
_cell_length_c 37.8330
_cell_angle_alpha 90.044100
_cell_angle_beta 90.059500
_cell_angle_gamma 89.829000
loop_
  _atom_site_label
  _atom_site_type_symbol
  _atom_site_fract_x
  _atom_site_fract_y
  _atom_site_fract_z
C1 C 0.33801 0.33515 1.38105
 C2 C 0.30760 0.34876 1.39751
 C3 C 0.29075 0.37897 1.38393
 C4 C 0.30433 0.39591 1.35391
 C5 C 0.33472 0.38263 1.33714
 C6 C 0.35167 0.35210 1.35072
 C7 C 0.35476 0.30462 1.39413
 C8 C 0.38483 0.29089 1.37719
 C9 C 0.39849 0.30773 1.34716
 C10 C 0.38206 0.33830 1.33375
 C11 C 0.39519 0.35508 1.30341
 C12 C 0.37828 0.38528 1.28993
 C13 C 0.34822 0.39907 1.30677
 H14 H 0.29687 0.33569 1.42068
 H15 H 0.29109 0.41921 1.34344
 H16 H 0.34422 0.29139 1.41728
 H17 H 0.42170 0.29691 1.33408
 H18 H 0.41836 0.34452 1.29008
 H19 H 0.33523 0.42237 1.29603
 C20 C 1.16284 0.66658 0.88340
 C21 C 1.19338 0.65306 0.89978
 C22 C 1.21029 0.62292 0.88610
 C23 C 1.19665 0.60597 0.85605
 C24 C 1.16615 0.61915 0.83935
 C25 C 1.14914 0.64961 0.85304
 C26 C 1.14601 0.69704 0.89656
 C27 C 1.11582 0.71066 0.87970
 C28 C 1.10212 0.69378 0.84965
 C29 C 1.11863 0.66329 0.83614
 C30 C 1.10546 0.64650 0.80578
 C31 C 1.12244 0.61639 0.79220
 C32 C 1.15261 0.60270 0.80896
 H33 H 1.20414 0.66614 0.92296
 H34 H 1.20993 0.58273 0.84549
 H35 H 1.15657 0.71030 0.91974
 H36 H 1.07883 0.70452 0.83662
 H37 H 1.08220 0.65698 0.79252
 H38 H 1.16565 0.57946 0.79815
 C39 C 0.66160 -0.16647 0.11636
 C40 C 0.69205 -0.15301 0.09999
 C41 C 0.70888 -0.12296 0.11370
 C42 C 0.69530 -0.10601 0.14375
 C43 C 0.66490 -0.11910 0.16046
 C44 C 0.64793 -0.14949 0.14675
 C45 C 0.64484 -0.19687 0.10318
 C46 C 0.61474 -0.21042 0.12007
 C47 C 0.60108 -0.19353 0.15015
 C48 C 0.61753 -0.16311 0.16366
 C49 C 0.60440 -0.14632 0.19406
 C50 C 0.62134 -0.11628 0.20766
 C51 C 0.65141 -0.10265 0.19089
 H52 H 0.70287 -0.16603 0.07680
 H53 H 0.70862 -0.08284 0.15425
 H54 H 0.65538 -0.21015 0.08000
 H55 H 0.57787 -0.20423 0.16319
 H56 H 0.58122 -0.15675 0.20734
 H57 H 0.66442 -0.07946 0.20171
 C58 C -0.16280 1.16442 -0.38168
 C59 C -0.19327 1.15100 -0.39812
 C60 C -0.21019 1.12099 -0.38443
 C61 C -0.19663 1.10407 -0.35432
 C62 C -0.16619 1.11714 -0.33756
 C63 C -0.14917 1.14747 -0.35125
 C64 C -0.14596 1.19474 -0.39483
 C65 C -0.11586 1.20824 -0.37790
 C66 C -0.10222 1.19142 -0.34781
 C67 C -0.11872 1.16106 -0.33430
 C68 C -0.10561 1.14431 -0.30387
 C69 C -0.12261 1.11433 -0.29028
 C70 C -0.15272 1.10072 -0.30710
 H71 H -0.20397 1.16407 -0.42135
 H72 H -0.20993 1.08093 -0.34377
 H73 H -0.15639 1.20805 -0.41803
 H74 H -0.07899 1.20216 -0.33481
 H75 H -0.08241 1.15472 -0.29057
 H76 H -0.16576 1.07759 -0.29627
 C77 C 0.66175 0.66668 0.61703
 C78 C 0.69226 0.65311 0.60070
 C79 C 0.70909 0.62296 0.61437
 C80 C 0.69545 0.60602 0.64433
 C81 C 0.66498 0.61923 0.66099
 C82 C 0.64801 0.64972 0.64733
 C83 C 0.64498 0.69717 0.60389
 C84 C 0.61482 0.71084 0.62072
 C85 C 0.60108 0.69398 0.65071
 C86 C 0.61753 0.66345 0.66419
 C87 C 0.60434 0.64667 0.69449
 C88 C 0.62128 0.61653 0.70805
 C89 C 0.65142 0.60279 0.69132
 H90 H 0.70312 0.66612 0.57759
 H91 H 0.70877 0.58278 0.65480
 H92 H 0.65558 0.71043 0.58077
 H93 H 0.57782 0.70476 0.66370
 H94 H 0.58110 0.65719 0.70773
 H95 H 0.66443 0.57952 0.70212
 C96 C 0.83743 0.33490 0.11880
 C97 C 0.80699 0.34855 0.10238
 C98 C 0.79018 0.37876 0.11603
 C99 C 0.80383 0.39564 0.14611
 C100 C 0.83425 0.38233 0.16285
 C101 C 0.85115 0.35180 0.14919
 C102 C 0.85414 0.30438 0.10565
 C103 C 0.88425 0.29062 0.12254
 C104 C 0.89798 0.30743 0.15263
 C105 C 0.88158 0.33798 0.16612
 C106 C 0.89478 0.35472 0.19650
 C107 C 0.87791 0.38491 0.21007
 C108 C 0.84782 0.39873 0.19327
 H109 H 0.79622 0.33552 0.07917
 H110 H 0.79062 0.41894 0.15664
 H111 H 0.84356 0.29118 0.08245
 H112 H 0.92120 0.29658 0.16567
 H113 H 0.91798 0.34414 0.20979
 H114 H 0.83487 0.42202 0.20406
 C115 C 0.33664 0.16439 0.88154
 C116 C 0.30627 0.15086 0.89798
 C117 C 0.28941 0.12079 0.88426
 C118 C 0.30294 0.10392 0.85410
 C119 C 0.33329 0.11711 0.83734
 C120 C 0.35024 0.14749 0.85107
 C121 C 0.35340 0.19477 0.89473
 C122 C 0.38340 0.20838 0.87780
 C123 C 0.39701 0.19162 0.84767
 C124 C 0.38058 0.16120 0.83412
 C125 C 0.39367 0.14451 0.80366
 C126 C 0.37676 0.11447 0.79002
 C127 C 0.34674 0.10074 0.80683
 H128 H 0.29559 0.16388 0.92125
 H129 H 0.28970 0.08073 0.84352
 H130 H 0.34299 0.20804 0.91796
 H131 H 0.42017 0.20245 0.83468
 H132 H 0.41681 0.15501 0.79036
 H133 H 0.33376 0.07756 0.79598
 C134 C 0.16147 0.83325 0.38369
 C135 C 0.19197 0.84674 0.40005
 C136 C 0.20873 0.87680 0.38634
 C137 C 0.19504 0.89372 0.35632
 C138 C 0.16459 0.88060 0.33964
 C139 C 0.14770 0.85021 0.35333
 C140 C 0.14477 0.80285 0.39686
 C141 C 0.11463 0.78927 0.37999
 C142 C 0.10086 0.80613 0.34994
 C143 C 0.11725 0.83656 0.33644
 C144 C 0.10402 0.85332 0.30607
 C145 C 0.12091 0.88337 0.29248
 C146 C 0.15101 0.89703 0.30925
 H147 H 0.20287 0.83375 0.42321
 H148 H 0.20830 0.91689 0.34583
 H149 H 0.15539 0.78959 0.42002
 H150 H 0.07762 0.79541 0.33691
 H151 H 0.08081 0.84287 0.29279
 H152 H 0.16397 0.92021 0.29843
 Zn153 Zn 0.04358 0.97946 0.00784
 Zn154 Zn -0.02742 0.97243 -0.02695
 Zn155 Zn -0.02105 1.00707 0.04410
 Zn156 Zn 0.00671 1.04373 -0.01997
 O157 O 0.00042 1.00064 0.00122
 O158 O 0.04702 0.93780 -0.01439
 O159 O -0.06753 0.95888 -0.00539
 O160 O 0.00492 0.99076 0.08029
 O161 O -0.00537 0.93235 -0.04032
 O162 O 0.05294 0.97035 0.05337
 O163 O -0.06260 0.98469 0.04703
 O164 O -0.00969 1.07993 0.00606
 O165 O -0.04091 0.99419 -0.06700
 O166 O -0.03036 1.05267 0.05359
 O167 O -0.01563 1.04686 -0.06152
 O168 O 0.05226 1.05320 -0.02911
 O169 O 0.07966 1.00553 -0.00837
 C170 C 0.02544 0.92073 -0.03354
 C171 C -0.07939 0.96552 0.02526
 C172 C 0.03504 0.97588 0.08116
 C173 C -0.02472 1.08064 0.03599
 C174 C -0.03451 1.02504 -0.07858
 C175 C 0.08027 1.03551 -0.02343
 Zn176 Zn 0.54355 -0.02032 0.49228
 Zn177 Zn 0.47252 -0.02720 0.52685
 Zn178 Zn 0.50670 0.04404 0.51994
 Zn179 Zn 0.47899 0.00725 0.45579
 O180 O 0.50041 0.00091 0.49875
 O181 O 0.54694 -0.06194 0.51455
 O182 O 0.45899 -0.00536 0.56683
 O183 O 0.55225 0.05350 0.52919
 O184 O 0.49451 -0.06726 0.54031
 O185 O 0.57963 0.00577 0.50858
 O186 O 0.48431 0.04729 0.56144
 O187 O 0.46973 0.05283 0.44625
 O188 O 0.43245 -0.04079 0.50518
 O189 O 0.49037 0.08018 0.49383
 O190 O 0.43743 -0.01512 0.45273
 O191 O 0.50501 -0.00913 0.41969
 O192 O 0.55298 -0.02951 0.44678
 C193 C 0.52532 -0.07894 0.53364
 C194 C 0.46538 0.02550 0.57843
 C195 C 0.58025 0.03578 0.52359
 C196 C 0.47538 0.08084 0.46385
 C197 C 0.42061 -0.03422 0.47448
 C198 C 0.53513 -0.02401 0.41892
 Zn199 Zn 0.97988 0.49293 0.54412
 Zn200 Zn 1.00769 0.45624 0.47991
 Zn201 Zn 0.97306 0.52749 0.47308
 Zn202 Zn 1.04420 0.52054 0.50771
 O203 O 1.00117 0.49934 0.50117
 O204 O 0.97078 0.44735 0.55351
 O205 O 0.98531 0.45308 0.43838
 O206 O 0.93292 0.54104 0.49477
 O207 O 0.99149 0.42008 0.50589
 O208 O 0.93823 0.51534 0.54721
 O209 O 0.95961 0.50570 0.43302
 O210 O 1.04729 0.56219 0.48553
 O211 O 1.05328 0.44676 0.47072
 O212 O 0.99480 0.56759 0.45972
 O213 O 1.08040 0.49448 0.49137
 O214 O 1.05366 0.52964 0.55323
 O215 O 1.00588 0.50919 0.58028
 C216 C 0.97648 0.41938 0.53583
 C217 C 0.96622 0.47486 0.42138
 C218 C 0.92122 0.53445 0.52548
 C219 C 1.02555 0.57924 0.46645
 C220 C 1.08118 0.46448 0.47633
 C221 C 1.03592 0.52408 0.58108
 Zn222 Zn 0.47915 0.49324 0.95595
 Zn223 Zn 0.54361 0.52079 0.99236
 Zn224 Zn 0.47253 0.52789 1.02699
 Zn225 Zn 0.50707 0.45659 1.02013
 O226 O 0.50055 0.49967 0.99889
 O227 O 0.50509 0.50943 0.91980
 O228 O 0.54680 0.56246 1.01456
 O229 O 0.43236 0.54148 1.00530
 O230 O 0.55297 0.52984 0.94685
 O231 O 0.43752 0.51571 0.95287
 O232 O 0.49436 0.56797 1.04036
 O233 O 0.48479 0.45352 1.06166
 O234 O 0.57982 0.49470 1.00868
 O235 O 0.45915 0.50617 1.06705
 O236 O 0.55267 0.44704 1.02932
 O237 O 0.49076 0.42042 0.99414
 O238 O 0.46997 0.44766 0.94654
 C239 C 0.53514 0.52428 0.91900
 C240 C 0.52512 0.57957 1.03364
 C241 C 0.42058 0.53488 0.97460
 C242 C 0.46577 0.47534 1.07867
 C243 C 0.58059 0.46471 1.02371
 C244 C 0.47569 0.41970 0.96421
 C245 C 1.26063 0.39145 0.39944
 C246 C 1.23375 0.40239 0.41277
 C247 C 1.20199 0.41517 0.42781
 C248 C 1.17463 0.42616 0.44006
 C249 C 1.14232 0.43920 0.45364
 C250 C 1.11451 0.45057 0.46447
 C251 C 0.24051 0.61047 0.90148
 C252 C 0.26749 0.59941 0.91458
 C253 C 0.29937 0.58634 0.92918
 C254 C 0.32683 0.57499 0.94092
 C255 C 0.35926 0.56141 0.95375
 C256 C 0.38716 0.54950 0.96381
 C257 C -0.25926 0.89011 0.09748
 C258 C -0.23232 0.90112 0.08450
 C259 C -0.20046 0.91417 0.07006
 C260 C -0.17303 0.92550 0.05846
 C261 C -0.14063 0.93906 0.04582
 C262 C -0.11277 0.95095 0.03590
 C263 C 0.75966 0.10868 0.60008
 C264 C 0.73275 0.09784 0.58679
 C265 C 0.70098 0.08512 0.57183
 C266 C 0.67361 0.07416 0.55966
 C267 C 0.64131 0.06111 0.54617
 C268 C 0.61353 0.04972 0.53540
 C269 C 0.40026 0.26065 0.38956
 C270 C 0.41340 0.23367 0.40056
 C271 C 0.42810 0.20181 0.41355
 C272 C 0.44002 0.17438 0.42478
 C273 C 0.45320 0.14201 0.43813
 C274 C 0.46375 0.11418 0.44974
 C275 C 0.90054 0.24000 0.60900
 C276 C 0.91378 0.26686 0.59808
 C277 C 0.92866 0.29861 0.58527
 C278 C 0.94076 0.32596 0.57424
 C279 C 0.95413 0.35826 0.56114
 C280 C 0.96480 0.38606 0.54974
 C281 C 0.10028 0.74083 -0.10791
 C282 C 0.08698 0.76777 -0.09696
 C283 C 0.07209 0.79960 -0.08409
 C284 C 0.06007 0.82703 -0.07295
 C285 C 0.04689 0.85943 -0.05963
 C286 C 0.03654 0.88732 -0.04793
 C287 C 0.59928 0.75944 1.10770
 C288 C 0.58606 0.73252 1.09679
 C289 C 0.57125 0.70071 1.08398
 C290 C 0.55931 0.67328 1.07290
 C291 C 0.54626 0.64088 1.05964
 C292 C 0.53604 0.61299 1.04800
 C293 C 0.39135 0.40162 1.25816
 C294 C 0.40228 0.41479 1.23130
 C295 C 0.41515 0.42952 1.19954
 C296 C 0.42630 0.44139 1.17217
 C297 C 0.43964 0.45436 1.13984
 C298 C 0.45135 0.46450 1.11202
 C299 C 0.60828 -0.09993 0.23949
 C300 C 0.59738 -0.08673 0.26640
 C301 C 0.58460 -0.07188 0.29818
 C302 C 0.57358 -0.05981 0.32555
 C303 C 0.56048 -0.04644 0.35786
 C304 C 0.54907 -0.03576 0.38565
 C305 C -0.10954 1.09805 -0.25842
 C306 C -0.09855 1.08499 -0.23147
 C307 C -0.08557 1.07042 -0.19963
 C308 C -0.07431 1.05870 -0.17220
 C309 C -0.06083 1.04590 -0.13981
 C310 C -0.04902 1.03584 -0.11195
 C311 C 1.10931 0.60003 0.76041
 C312 C 1.09836 0.58680 0.73354
 C313 C 1.08550 0.57194 0.70179
 C314 C 1.07443 0.55984 0.67445
 C315 C 1.06129 0.54647 0.64216
 C316 C 1.04986 0.53579 0.61438
 C317 C 0.74102 0.60980 0.59819
 C318 C 0.76802 0.59875 0.58519
 C319 C 0.79993 0.58570 0.57069
 C320 C 0.82741 0.57439 0.55902
 C321 C 0.85987 0.56087 0.54626
 C322 C 0.88779 0.54901 0.53624
 C323 C 0.76005 0.39129 1.10054
 C324 C 0.73317 0.40229 1.08722
 C325 C 0.70140 0.41515 1.07220
 C326 C 0.67405 0.42621 1.05995
 C327 C 0.64173 0.43932 1.04639
 C328 C 0.61392 0.45075 1.03556
 C329 C 0.25935 1.10838 -0.10023
 C330 C 0.23253 1.09748 -0.08689
 C331 C 0.20083 1.08474 -0.07186
 C332 C 0.17353 1.07379 -0.05961
 C333 C 0.14128 1.06077 -0.04605
 C334 C 0.11353 1.04941 -0.03524
 C335 C 0.24063 -0.11009 0.40251
 C336 C 0.26762 -0.09901 0.41543
 C337 C 0.29950 -0.08586 0.42977
 C338 C 0.32696 -0.07444 0.44130
 C339 C 0.35938 -0.06078 0.45388
 C340 C 0.38725 -0.04884 0.46378
 C341 C 0.59937 -0.25894 0.60834
 C342 C 0.58618 -0.23197 0.59738
 C343 C 0.57145 -0.20009 0.58445
 C344 C 0.55957 -0.17264 0.57325
 C345 C 0.54656 -0.14022 0.55985
 C346 C 0.53633 -0.11233 0.54809
 C347 C 1.09924 0.75912 0.39236
 C348 C 1.08608 0.73220 0.40326
 C349 C 1.07136 0.70038 0.41608
 C350 C 1.05950 0.67295 0.42718
 C351 C 1.04654 0.64055 0.44044
 C352 C 1.03639 0.61266 0.45209
 C353 C -0.10033 1.26040 0.11010
 C354 C -0.08716 1.23344 0.09907
 C355 C -0.07238 1.20160 0.08608
 C356 C -0.06038 1.17419 0.07488
 C357 C -0.04708 1.14183 0.06158
 C358 C -0.03644 1.11399 0.05003
 C359 C 0.39973 0.24019 0.89094
 C360 C 0.41294 0.26709 0.90189
 C361 C 0.42779 0.29887 0.91472
 C362 C 0.43988 0.32625 0.92577
 C363 C 0.45326 0.35857 0.93887
 C364 C 0.46395 0.38638 0.95029
 C365 C 0.60815 0.60018 0.73979
 C366 C 0.59723 0.58696 0.76663
 C367 C 0.58443 0.57209 0.79835
 C368 C 0.57343 0.56000 0.82567
 C369 C 0.56037 0.54663 0.85794
 C370 C 0.54900 0.53596 0.88572
 C371 C 0.38984 0.09824 0.75814
 C372 C 0.40088 0.08525 0.73119
 C373 C 0.41396 0.07079 0.69934
 C374 C 0.42532 0.05914 0.67192
 C375 C 0.43891 0.04640 0.63956
 C376 C 0.45081 0.03636 0.61174
 C377 C 0.10778 0.89969 0.26067
 C378 C 0.09689 0.91292 0.23377
 C379 C 0.08415 0.92782 0.20199
 C380 C 0.07321 0.93995 0.17461
 C381 C 0.06022 0.95339 0.14229
 C382 C 0.04889 0.96412 0.11448
 C383 C 0.89109 0.40121 0.24187
 C384 C 0.90212 0.41435 0.26875
 C385 C 0.91514 0.42903 0.30052
 C386 C 0.92642 0.44087 0.32789
 C387 C 0.93989 0.45382 0.36023
 C388 C 0.95171 0.46398 0.38805
   
