data_POSCAR
  _audit_creation_date              2014-09-24
  _audit_creation_method            'ToBaCCo'
  _symmetry_space_group_name_H-M    'P1'
  _symmetry_Int_Tables_number       1
  _symmetry_cell_setting            triclinic
  loop_
  _symmetry_equiv_pos_as_xyz
 x,y,z
_cell_length_a 42.3740
_cell_length_b 42.3622
_cell_length_c 55.2415
_cell_angle_alpha 89.930300
_cell_angle_beta 90.005900
_cell_angle_gamma 90.212900
loop_
  _atom_site_label
  _atom_site_type_symbol
  _atom_site_fract_x
  _atom_site_fract_y
  _atom_site_fract_z
C1 C 1.20662 0.25887 0.28789
 H2 H 1.20676 0.23334 0.28820
 C3 C 1.18815 0.27547 0.30443
 H4 H 1.17401 0.26240 0.31735
 C5 C 1.22570 0.30668 0.27095
 H6 H 1.24085 0.31876 0.25821
 C7 C 1.20761 0.32424 0.28720
 H8 H 1.20887 0.34976 0.28654
 N9 N 1.22478 0.27459 0.27152
 C10 C 1.24149 0.20624 0.21404
 H11 H 1.26703 0.20641 0.21373
 C12 C 1.22476 0.18801 0.19734
 H13 H 1.23773 0.17408 0.18431
 C14 C 1.19385 0.22505 0.23109
 H15 H 1.18188 0.24003 0.24393
 C16 C 1.17615 0.20720 0.21469
 H17 H 1.15065 0.20844 0.21533
 Zn18 Zn 1.25071 0.24999 0.25107
 N19 N 1.22592 0.22417 0.23053
 C20 C 1.27560 0.19306 0.27076
 N21 N 1.27654 0.22512 0.27147
 C22 C 1.29458 0.24062 0.28797
 C23 C 1.31285 0.22387 0.30459
 C24 C 1.29346 0.17527 0.28705
 C25 C 1.25994 0.29422 0.21434
 C26 C 1.27665 0.31282 0.19784
 C27 C 1.32529 0.29367 0.21522
 C28 C 1.30761 0.27545 0.23143
 N29 N 1.27553 0.27614 0.23076
 H30 H 1.26056 0.18115 0.25787
 H31 H 1.29448 0.26616 0.28838
 H32 H 1.32680 0.23714 0.31751
 H33 H 1.29194 0.14977 0.28603
 H34 H 1.23442 0.29391 0.21395
 H35 H 1.26367 0.32687 0.18486
 H36 H 1.35079 0.29258 0.21595
 H37 H 1.31959 0.26036 0.24422
 C38 C 1.19161 0.18846 0.19741
 C39 C 1.18860 0.30864 0.30432
 C40 C 1.30981 0.31258 0.19803
 C41 C 1.31242 0.19054 0.30454
 C42 C 0.70633 -0.24092 0.28713
 H43 H 0.70646 -0.26646 0.28756
 C44 C 0.68794 -0.22419 0.30364
 H45 H 0.67383 -0.23716 0.31665
 C46 C 0.72539 -0.19326 0.26995
 H47 H 0.74052 -0.18128 0.25714
 C48 C 0.70738 -0.17556 0.28616
 H49 H 0.70865 -0.15005 0.28539
 N50 N 0.72444 -0.22534 0.27066
 C51 C 0.74127 -0.29407 0.21353
 H52 H 0.76679 -0.29368 0.21314
 C53 C 0.72462 -0.31269 0.19704
 H54 H 0.73764 -0.32668 0.18408
 C55 C 0.69354 -0.27551 0.23062
 H56 H 0.68151 -0.26051 0.24341
 C57 C 0.67592 -0.29376 0.21443
 H58 H 0.65041 -0.29277 0.21517
 Zn59 Zn 0.75034 -0.25009 0.25033
 N60 N 0.72562 -0.27610 0.22995
 C61 C 0.77510 -0.30690 0.27015
 N62 N 0.77613 -0.27482 0.27078
 C63 C 0.79425 -0.25926 0.28723
 C64 C 0.81254 -0.27602 0.30382
 C65 C 0.79301 -0.32462 0.28644
 C66 C 0.75960 -0.20617 0.21342
 C67 C 0.77634 -0.18772 0.19685
 C68 C 0.82495 -0.20681 0.21432
 C69 C 0.80724 -0.22489 0.23060
 N70 N 0.77517 -0.22415 0.22991
 H71 H 0.75997 -0.31885 0.25735
 H72 H 0.79419 -0.23372 0.28760
 H73 H 0.82665 -0.26308 0.31682
 H74 H 0.79165 -0.35013 0.28573
 H75 H 0.73407 -0.20646 0.21302
 H76 H 0.76338 -0.17373 0.18381
 H77 H 0.85045 -0.20791 0.21506
 H78 H 0.81919 -0.23990 0.24345
 C79 C 0.69147 -0.31259 0.19726
 C80 C 0.68842 -0.19103 0.30339
 C81 C 0.80949 -0.18799 0.19706
 C82 C 0.81196 -0.30919 0.30366
 C83 C 0.70604 0.25926 -0.21329
 H84 H 0.70626 0.23372 -0.21287
 C85 C 0.68772 0.27592 -0.19668
 H86 H 0.67376 0.26289 -0.18361
 C87 C 0.72481 0.30700 -0.23052
 H88 H 0.73980 0.31903 -0.24340
 C89 C 0.70686 0.32462 -0.21421
 H90 H 0.70804 0.35014 -0.21497
 N91 N 0.72400 0.27491 -0.22983
 C92 C 0.74061 0.20620 -0.28716
 H93 H 0.76613 0.20657 -0.28763
 C94 C 0.72385 0.18769 -0.30367
 H95 H 0.73679 0.17375 -0.31671
 C96 C 0.69299 0.22475 -0.26989
 H97 H 0.68104 0.23971 -0.25704
 C98 C 0.67527 0.20660 -0.28610
 H99 H 0.64976 0.20763 -0.28529
 Zn100 Zn 0.74989 0.25024 -0.25030
 N101 N 0.72507 0.22413 -0.27065
 C102 C 0.77532 0.19352 -0.23060
 N103 N 0.77599 0.22561 -0.22992
 C104 C 0.79405 0.24130 -0.21349
 C105 C 0.81264 0.22468 -0.19700
 C106 C 0.79354 0.17594 -0.21442
 C107 C 0.75892 0.29430 -0.28726
 C108 C 0.77555 0.31279 -0.30389
 C109 C 0.82426 0.29376 -0.28649
 C110 C 0.80660 0.27567 -0.27019
 N111 N 0.77454 0.27633 -0.27082
 H112 H 0.76026 0.18145 -0.24340
 H113 H 0.79373 0.26683 -0.21308
 H114 H 0.82669 0.23773 -0.18403
 H115 H 0.79248 0.15042 -0.21517
 H116 H 0.73339 0.29398 -0.28760
 H117 H 0.76220 0.32667 -0.31676
 H118 H 0.84976 0.29246 -0.28553
 H119 H 0.81860 0.26068 -0.25735
 C120 C 0.69069 0.18784 -0.30338
 C121 C 0.68809 0.30908 -0.19690
 C122 C 0.80887 0.31266 -0.30391
 C123 C 0.81244 0.19151 -0.19723
 C124 C 1.20523 -0.24080 -0.21288
 H125 H 1.20560 -0.26633 -0.21233
 C126 C 1.18664 -0.22411 -0.19648
 H127 H 1.17263 -0.23709 -0.18342
 C128 C 1.22387 -0.19309 -0.23027
 H129 H 1.23891 -0.18108 -0.24313
 C130 C 1.20565 -0.17544 -0.21418
 H131 H 1.20669 -0.14993 -0.21508
 N132 N 1.22323 -0.22518 -0.22940
 C133 C 1.24041 -0.29391 -0.28643
 H134 H 1.26593 -0.29337 -0.28688
 C135 C 1.22380 -0.31267 -0.30285
 H136 H 1.23685 -0.32662 -0.31582
 C137 C 1.19263 -0.27558 -0.26926
 H138 H 1.18057 -0.26061 -0.25647
 C139 C 1.17506 -0.29397 -0.28538
 H140 H 1.14955 -0.29313 -0.28458
 Zn141 Zn 1.24930 -0.24980 -0.24967
 N142 N 1.22471 -0.27599 -0.27001
 C143 C 1.27441 -0.30644 -0.22984
 N144 N 1.27524 -0.27435 -0.22919
 C145 C 1.29323 -0.25869 -0.21272
 C146 C 1.31162 -0.27536 -0.19613
 C147 C 1.29242 -0.32406 -0.21356
 C148 C 1.25828 -0.20596 -0.28668
 C149 C 1.27490 -0.18736 -0.30323
 C150 C 1.32362 -0.20588 -0.28557
 C151 C 1.30603 -0.22412 -0.26933
 N152 N 1.27395 -0.22373 -0.27011
 H153 H 1.25937 -0.31847 -0.24266
 H154 H 1.29301 -0.23316 -0.21234
 H155 H 1.32563 -0.26235 -0.18311
 H156 H 1.29123 -0.34958 -0.21428
 H157 H 1.23275 -0.20652 -0.28716
 H158 H 1.26186 -0.17355 -0.31632
 H159 H 1.34913 -0.20671 -0.28475
 H160 H 1.31808 -0.23896 -0.25641
 C161 C 1.19065 -0.31276 -0.30255
 C162 C 1.18680 -0.19094 -0.19690
 C163 C 1.30805 -0.18727 -0.30291
 C164 C 1.31125 -0.30853 -0.19632
 C165 C 0.25957 0.20532 0.71312
 H166 H 0.23404 0.20541 0.71290
 C167 C 0.27612 0.18693 0.69651
 H168 H 0.26303 0.17279 0.68362
 C169 C 0.30740 0.22447 0.72989
 H170 H 0.31950 0.23964 0.74259
 C171 C 0.32492 0.20647 0.71357
 H172 H 0.35043 0.20778 0.71414
 N173 N 0.27532 0.22348 0.72943
 C174 C 0.20723 0.24020 0.78705
 H175 H 0.20747 0.26574 0.78734
 C176 C 0.18898 0.22353 0.80378
 H177 H 0.17513 0.23672 0.81675
 C178 C 0.22587 0.19253 0.76998
 H179 H 0.24077 0.18055 0.75710
 C180 C 0.20800 0.17484 0.78640
 H181 H 0.20927 0.14934 0.78561
 Zn182 Zn 0.25079 0.24937 0.74992
 N183 N 0.22507 0.22460 0.77054
 C184 C 0.19378 0.27424 0.73043
 N185 N 0.22585 0.27518 0.72959
 C186 C 0.24130 0.29323 0.71301
 C187 C 0.22444 0.31157 0.69651
 C188 C 0.17596 0.29220 0.71423
 C189 C 0.29513 0.25870 0.78649
 C190 C 0.31374 0.27548 0.80290
 C191 C 0.29442 0.32406 0.78549
 C192 C 0.27619 0.30632 0.76937
 N193 N 0.27696 0.27424 0.77010
 H194 H 0.18192 0.25916 0.74335
 H195 H 0.26682 0.29310 0.71249
 H196 H 0.23730 0.32562 0.68341
 H197 H 0.15046 0.29093 0.71510
 H198 H 0.29487 0.23317 0.78693
 H199 H 0.32787 0.26256 0.81586
 H200 H 0.29327 0.34957 0.78472
 H201 H 0.26102 0.31825 0.75661
 C202 C 0.18927 0.19028 0.80379
 C203 C 0.30928 0.18747 0.69649
 C204 C 0.31342 0.30865 0.80265
 C205 C 0.19129 0.31109 0.69688
 C206 C 0.75846 0.70610 0.71310
 H207 H 0.73293 0.70623 0.71270
 C208 C 0.77516 0.68772 0.69656
 H209 H 0.76218 0.67364 0.68357
 C210 C 0.80613 0.72513 0.73020
 H211 H 0.81812 0.74024 0.74299
 C212 C 0.82380 0.70713 0.71395
 H213 H 0.84931 0.70840 0.71468
 N214 N 0.77405 0.72420 0.72954
 C215 C 0.70531 0.74107 0.78676
 H216 H 0.70567 0.76661 0.78708
 C217 C 0.68676 0.72444 0.80334
 H218 H 0.67284 0.73767 0.81623
 C219 C 0.72389 0.69335 0.76974
 H220 H 0.73887 0.68132 0.75693
 C221 C 0.70573 0.67571 0.78601
 H222 H 0.70687 0.65020 0.78519
 Zn223 Zn 0.74932 0.75015 0.74990
 N224 N 0.72327 0.72542 0.77035
 C225 C 0.69255 0.77502 0.73003
 N226 N 0.72463 0.77601 0.72942
 C227 C 0.74022 0.79412 0.71294
 C228 C 0.72351 0.81241 0.69632
 C229 C 0.67487 0.79294 0.71371
 C230 C 0.79326 0.75938 0.78679
 C231 C 0.81170 0.77610 0.80336
 C232 C 0.79264 0.82475 0.78590
 C233 C 0.77458 0.80706 0.76962
 N234 N 0.77530 0.77497 0.77030
 H235 H 0.68056 0.75991 0.74286
 H236 H 0.76575 0.79403 0.71259
 H237 H 0.73649 0.82650 0.68330
 H238 H 0.64937 0.79161 0.71441
 H239 H 0.79297 0.73385 0.78720
 H240 H 0.82567 0.76312 0.81639
 H241 H 0.79154 0.85026 0.78515
 H242 H 0.75958 0.81903 0.75677
 C243 C 0.68688 0.69119 0.80330
 C244 C 0.80832 0.68820 0.69674
 C245 C 0.81143 0.80927 0.80316
 C246 C 0.69035 0.81186 0.69646
 C247 C 0.75940 0.20572 0.21265
 H248 H 0.73388 0.20613 0.21215
 C249 C 0.77603 0.18712 0.19623
 H250 H 0.76301 0.17315 0.18319
 C251 C 0.80714 0.22427 0.22996
 H252 H 0.81919 0.23927 0.24280
 C253 C 0.82474 0.20604 0.21384
 H254 H 0.85025 0.20703 0.21470
 N255 N 0.77507 0.22368 0.22914
 C256 C 0.70641 0.24087 0.28627
 H257 H 0.70696 0.26640 0.28671
 C258 C 0.68766 0.22425 0.30272
 H259 H 0.67373 0.23729 0.31571
 C260 C 0.72471 0.19309 0.26910
 H261 H 0.73966 0.18102 0.25630
 C262 C 0.70633 0.17550 0.28525
 H263 H 0.70716 0.14999 0.28446
 Zn264 Zn 0.75050 0.24977 0.24945
 N265 N 0.72431 0.22517 0.26983
 C266 C 0.69388 0.27497 0.22967
 N267 N 0.72596 0.27575 0.22898
 C268 C 0.74163 0.29374 0.21248
 C269 C 0.72498 0.31217 0.19590
 C270 C 0.67628 0.29303 0.21341
 C271 C 0.79438 0.25874 0.28639
 C272 C 0.81295 0.27537 0.30292
 C273 C 0.79437 0.32410 0.28528
 C274 C 0.77616 0.30650 0.26905
 N275 N 0.77659 0.27441 0.26984
 H276 H 0.68184 0.25994 0.24252
 H277 H 0.76715 0.29348 0.21207
 H278 H 0.73801 0.32617 0.18286
 H279 H 0.65077 0.29188 0.21416
 H280 H 0.79385 0.23321 0.28687
 H281 H 0.82678 0.26233 0.31601
 H282 H 0.79350 0.34962 0.28445
 H283 H 0.76130 0.31855 0.25615
 C284 C 0.68756 0.19109 0.30243
 C285 C 0.80919 0.18723 0.19660
 C286 C 0.81299 0.30853 0.30260
 C287 C 0.69183 0.31185 0.19613
 C288 C 0.25942 0.70659 0.21322
 H289 H 0.23389 0.70678 0.21286
 C290 C 0.27606 0.68830 0.19658
 H291 H 0.26302 0.67433 0.18355
 C292 C 0.30717 0.72540 0.23034
 H293 H 0.31921 0.74039 0.24319
 C294 C 0.32477 0.70747 0.21400
 H295 H 0.35028 0.70868 0.21471
 N296 N 0.27508 0.72455 0.22972
 C297 C 0.20648 0.74113 0.28717
 H298 H 0.20687 0.76666 0.28763
 C299 C 0.18796 0.72437 0.30370
 H300 H 0.17404 0.73732 0.31675
 C301 C 0.22497 0.69350 0.26989
 H302 H 0.23990 0.68154 0.25702
 C303 C 0.20681 0.67577 0.28613
 H304 H 0.20781 0.65026 0.28532
 Zn305 Zn 0.25045 0.75042 0.25023
 N306 N 0.22438 0.72558 0.27064
 C307 C 0.19367 0.77574 0.23060
 N308 N 0.22575 0.77652 0.22987
 C309 C 0.24136 0.79463 0.21341
 C310 C 0.22467 0.81315 0.19691
 C311 C 0.17602 0.79389 0.21441
 C312 C 0.29454 0.75945 0.28711
 C313 C 0.31304 0.77606 0.30371
 C314 C 0.29398 0.82480 0.28634
 C315 C 0.27588 0.80715 0.27006
 N316 N 0.27655 0.77509 0.27069
 H317 H 0.18166 0.76064 0.24342
 H318 H 0.26689 0.79439 0.21296
 H319 H 0.23767 0.82723 0.18390
 H320 H 0.15051 0.79273 0.21519
 H321 H 0.29423 0.73391 0.28744
 H322 H 0.32694 0.76268 0.31656
 H323 H 0.29268 0.85031 0.28538
 H324 H 0.26088 0.81917 0.25724
 C325 C 0.18807 0.69120 0.30342
 C326 C 0.30922 0.68870 0.19673
 C327 C 0.31289 0.80939 0.30373
 C328 C 0.19152 0.81283 0.19717
 O329 O 1.05448 0.01709 0.03009
 O330 O 0.94630 -0.01582 0.02982
 O331 O 0.98405 0.05458 0.02987
 O332 O 1.01686 -0.05337 0.03019
 O333 O 0.94056 0.03716 0.01625
 O334 O 1.06047 -0.03593 0.01676
 O335 O 0.96378 -0.05943 0.01670
 O336 O 1.03720 0.06067 0.01668
 C337 C 1.05079 0.04565 0.03305
 C338 C 0.95008 -0.04436 0.03295
 C339 C 0.95546 0.05069 0.03273
 C340 C 1.04545 -0.04955 0.03317
 O341 O 1.05463 -0.01595 -0.03008
 O342 O 0.94679 0.01704 -0.03048
 O343 O 1.01740 0.05453 -0.03021
 O344 O 0.98397 -0.05356 -0.03008
 O345 O 0.94042 -0.03604 -0.01691
 O346 O 1.06083 0.03715 -0.01669
 O347 O 1.03692 -0.05946 -0.01660
 O348 O 0.96437 0.06061 -0.01708
 Co349 Co 1.05208 0.00059 0.00000
 Co350 Co 0.94904 0.00058 -0.00031
 Co351 Co 1.00074 0.05208 -0.00018
 Co352 Co 1.00040 -0.05095 0.00004
 O353 O 1.00056 0.00057 -0.00011
 C354 C 1.05057 -0.04451 -0.03303
 C355 C 0.95071 0.04562 -0.03347
 C356 C 1.04595 0.05076 -0.03312
 C357 C 0.95544 -0.04980 -0.03316
 O358 O 1.05964 0.53596 0.51709
 O359 O 0.93927 0.46283 0.51724
 O360 O 0.96316 0.55944 0.51721
 O361 O 1.03580 0.43933 0.51736
 O362 O 0.94555 0.51585 0.53059
 O363 O 1.05350 0.48295 0.53056
 O364 O 0.98271 0.44537 0.53075
 O365 O 1.01619 0.55334 0.53058
 C366 C 1.04473 0.54947 0.53353
 C367 C 0.95415 0.44920 0.53367
 C368 C 0.94938 0.54443 0.53355
 C369 C 1.04961 0.45439 0.53363
 O370 O 1.05942 0.46284 0.48383
 O371 O 0.93954 0.53591 0.48378
 O372 O 1.03617 0.55947 0.48372
 O373 O 0.96276 0.43931 0.48391
 O374 O 0.94542 0.48283 0.47042
 O375 O 1.05347 0.51594 0.47030
 O376 O 1.01581 0.44526 0.47055
 O377 O 0.98317 0.55333 0.47040
 Co378 Co 1.05099 0.49942 0.50045
 Co379 Co 0.94796 0.49936 0.50051
 Co380 Co 0.99965 0.55087 0.50049
 Co381 Co 0.99929 0.44783 0.50064
 O382 O 0.99948 0.49937 0.50052
 C383 C 1.04438 0.44907 0.46754
 C384 C 0.95460 0.54957 0.46742
 C385 C 1.04976 0.54453 0.46733
 C386 C 0.94927 0.45427 0.46746
 O387 O 0.55924 0.03648 0.51621
 O388 O 0.43911 -0.03705 0.51584
 O389 O 0.46263 0.05964 0.51600
 O390 O 0.53568 -0.06021 0.51625
 O391 O 0.44500 0.01597 0.52923
 O392 O 0.55306 -0.01656 0.52961
 O393 O 0.48256 -0.05429 0.52947
 O394 O 0.51568 0.05379 0.52956
 C395 C 0.54425 0.05006 0.53257
 C396 C 0.45399 -0.05050 0.53235
 C397 C 0.44886 0.04453 0.53229
 C398 C 0.54932 -0.04515 0.53260
 O399 O 0.55936 -0.03658 0.48285
 O400 O 0.43922 0.03609 0.48244
 O401 O 0.53582 0.05994 0.48277
 O402 O 0.46281 -0.06045 0.48257
 O403 O 0.44541 -0.01698 0.46903
 O404 O 0.55335 0.01648 0.46940
 O405 O 0.51585 -0.05414 0.46938
 O406 O 0.48285 0.05382 0.46927
 Co407 Co 0.55073 -0.00007 0.49950
 Co408 Co 0.44771 -0.00046 0.49915
 Co409 Co 0.49924 0.05129 0.49941
 Co410 Co 0.49923 -0.05175 0.49942
 O411 O 0.49923 -0.00025 0.49937
 C412 C 0.54443 -0.05029 0.46647
 C413 C 0.45430 0.04997 0.46619
 C414 C 0.54944 0.04503 0.46639
 C415 C 0.44925 -0.04555 0.46612
 O416 O 0.56031 0.53702 0.01641
 O417 O 0.44023 0.46364 0.01690
 O418 O 0.46375 0.56033 0.01677
 O419 O 0.53683 0.44035 0.01649
 O420 O 0.44636 0.51669 0.03021
 O421 O 0.55440 0.48397 0.02975
 O422 O 0.48384 0.44621 0.03015
 O423 O 0.51687 0.55429 0.03003
 C424 C 0.54544 0.55046 0.03291
 C425 C 0.45530 0.45003 0.03324
 C426 C 0.45008 0.54528 0.03315
 C427 C 0.55064 0.45539 0.03276
 O428 O 0.56011 0.46405 -0.01709
 O429 O 0.44006 0.53671 -0.01661
 O430 O 0.53664 0.56059 -0.01685
 O431 O 0.46350 0.44018 -0.01655
 O432 O 0.44596 0.48365 -0.02997
 O433 O 0.55390 0.51714 -0.03043
 O434 O 0.51644 0.44636 -0.03020
 O435 O 0.48358 0.55435 -0.03006
 Co436 Co 0.55167 0.50053 -0.00032
 Co437 Co 0.44867 0.50019 0.00011
 Co438 Co 0.50021 0.55186 -0.00002
 Co439 Co 0.50016 0.44879 -0.00003
 O440 O 0.50017 0.50034 -0.00007
 C441 C 0.54499 0.45021 -0.03332
 C442 C 0.45501 0.55049 -0.03298
 C443 C 0.55011 0.54572 -0.03333
 C444 C 0.44988 0.45511 -0.03295
 N445 N 1.17229 0.13671 0.14557
 C446 C 1.14036 0.13808 0.14506
 N447 N 1.12512 0.15565 0.16185
 N448 N 1.14136 0.17143 0.17862
 C449 C 1.17342 0.17023 0.17920
 N450 N 1.18851 0.15248 0.16233
 C451 C 1.12306 0.12173 0.12655
 C452 C 1.10904 0.10810 0.11068
 C453 C 1.09300 0.09198 0.09141
 N454 N 1.07633 0.10846 0.07472
 N455 N 1.06253 0.09364 0.05625
 C456 C 1.06499 0.06184 0.05385
 N457 N 1.08158 0.04539 0.07066
 N458 N 1.09538 0.06022 0.08912
 N459 N 1.12431 0.65296 0.66263
 C460 C 1.13962 0.63541 0.64586
 N461 N 1.17157 0.63448 0.64618
 N462 N 1.18774 0.65067 0.66274
 C463 C 1.17256 0.66842 0.67956
 N464 N 1.14049 0.66915 0.67919
 C465 C 1.12236 0.61900 0.62741
 C466 C 1.10819 0.60562 0.61151
 C467 C 1.09172 0.59021 0.59214
 N468 N 1.10790 0.57351 0.57533
 N469 N 1.09283 0.56022 0.55677
 C470 C 1.06110 0.56324 0.55438
 N471 N 1.04493 0.57987 0.57131
 N472 N 1.06001 0.59316 0.58987
 N473 N 0.67121 0.13563 0.64506
 C474 C 0.63926 0.13677 0.64473
 N475 N 0.62407 0.15431 0.66158
 N476 N 0.64037 0.17027 0.67821
 C477 C 0.67245 0.16932 0.67859
 N478 N 0.68749 0.15158 0.66169
 C479 C 0.62186 0.12045 0.62625
 C480 C 0.60764 0.10706 0.61035
 C481 C 0.59117 0.09152 0.59100
 N482 N 0.55944 0.09437 0.58871
 N483 N 0.54438 0.08086 0.57022
 C484 C 0.56058 0.06409 0.55338
 N485 N 0.59232 0.06118 0.55579
 N486 N 0.60737 0.07468 0.57428
 N487 N 0.67235 0.63490 0.14585
 C488 C 0.64040 0.63602 0.14542
 N489 N 0.62510 0.65362 0.16216
 N490 N 0.64129 0.66968 0.17880
 C491 C 0.67336 0.66876 0.17927
 N492 N 0.68852 0.65096 0.16248
 C493 C 0.62314 0.61973 0.12689
 C494 C 0.60897 0.60643 0.11095
 C495 C 0.59250 0.59109 0.09154
 N496 N 0.56077 0.59397 0.08933
 N497 N 0.54568 0.58072 0.07075
 C498 C 0.56184 0.56421 0.05376
 N499 N 0.59359 0.56126 0.05608
 N500 N 0.60867 0.57451 0.07466
 N501 N 0.87599 -0.15455 0.16183
 C502 C 0.86074 -0.13687 0.14508
 N503 N 0.82881 -0.13562 0.14552
 N504 N 0.81258 -0.15162 0.16217
 C505 C 0.82768 -0.16949 0.17899
 N506 N 0.85975 -0.17056 0.17850
 C507 C 0.87803 -0.12037 0.12663
 C508 C 0.89202 -0.10667 0.11077
 C509 C 0.90802 -0.09055 0.09147
 N510 N 0.90542 -0.05882 0.08900
 N511 N 0.91916 -0.04402 0.07048
 C512 C 0.93590 -0.06048 0.05379
 N513 N 0.93858 -0.09224 0.05638
 N514 N 0.92483 -0.10703 0.07490
 N515 N 0.87389 0.34511 0.66265
 C516 C 0.85868 0.36253 0.64573
 N517 N 0.82674 0.36346 0.64596
 N518 N 0.81048 0.34738 0.66256
 C519 C 0.82548 0.32963 0.67959
 N520 N 0.85762 0.32902 0.67925
 C521 C 0.87606 0.37893 0.62726
 C522 C 0.89033 0.39235 0.61139
 C523 C 0.90690 0.40788 0.59206
 N524 N 0.89081 0.42476 0.57527
 N525 N 0.90595 0.43822 0.55679
 C526 C 0.93770 0.43523 0.55447
 N527 N 0.95379 0.41843 0.57137
 N528 N 0.93863 0.40495 0.58985
 N529 N 0.37440 -0.15338 0.66198
 C530 C 0.35908 -0.13600 0.64507
 N531 N 0.32713 -0.13506 0.64539
 N532 N 0.31097 -0.15107 0.66208
 C533 C 0.32615 -0.16865 0.67904
 N534 N 0.35822 -0.16939 0.67867
 C535 C 0.37635 -0.11974 0.62650
 C536 C 0.39051 -0.10647 0.61051
 C537 C 0.40697 -0.09116 0.59106
 N538 N 0.39079 -0.07458 0.57415
 N539 N 0.40586 -0.06133 0.55555
 C540 C 0.43760 -0.06428 0.55322
 N541 N 0.45378 -0.08079 0.57024
 N542 N 0.43870 -0.09404 0.58884
 N543 N 0.37626 0.34609 0.16277
 C544 C 0.36100 0.36378 0.14603
 N545 N 0.32907 0.36506 0.14651
 N546 N 0.31286 0.34907 0.16318
 C547 C 0.32798 0.33117 0.17999
 N548 N 0.36004 0.33009 0.17946
 C549 C 0.37829 0.38008 0.12746
 C550 C 0.39242 0.39343 0.11148
 C551 C 0.40875 0.40888 0.09201
 N552 N 0.39246 0.42570 0.07531
 N553 N 0.40738 0.43911 0.05670
 C554 C 0.43910 0.43610 0.05416
 N555 N 0.45539 0.41935 0.07098
 N556 N 0.44045 0.40594 0.08959
 N557 N 0.86506 0.17243 -0.14585
 C558 C 0.86390 0.14046 -0.14548
 N559 N 0.84623 0.12514 -0.16225
 N560 N 0.83014 0.14133 -0.17884
 C561 C 0.83110 0.17341 -0.17925
 N562 N 0.84897 0.18859 -0.16243
 C563 C 0.88034 0.12318 -0.12704
 C564 C 0.89380 0.10901 -0.11118
 C565 C 0.90937 0.09256 -0.09187
 N566 N 0.90641 0.06080 -0.08960
 N567 N 0.91991 0.04574 -0.07112
 C568 C 0.93677 0.06196 -0.05429
 N569 N 0.93980 0.09373 -0.05668
 N570 N 0.92631 0.10878 -0.07515
 N571 N 0.86403 0.67133 0.35522
 C572 C 0.86249 0.63939 0.35565
 N573 N 0.84472 0.62419 0.33888
 N574 N 0.82890 0.64050 0.32222
 C575 C 0.83025 0.67257 0.32173
 N576 N 0.84821 0.68762 0.33857
 C577 C 0.87883 0.62202 0.37406
 C578 C 0.89242 0.60794 0.38988
 C579 C 0.90847 0.59184 0.40910
 N580 N 0.89192 0.57507 0.42576
 N581 N 0.90669 0.56124 0.44422
 C582 C 0.93848 0.56378 0.44664
 N583 N 0.95501 0.58046 0.42985
 N584 N 0.94024 0.59429 0.41140
 N585 N 0.36296 0.17240 0.35463
 C586 C 0.36180 0.14045 0.35480
 N587 N 0.34428 0.12532 0.33786
 N588 N 0.32833 0.14168 0.32130
 C589 C 0.32919 0.17383 0.32102
 N590 N 0.34701 0.18874 0.33807
 C591 C 0.37828 0.12301 0.37313
 C592 C 0.39196 0.10886 0.38888
 C593 C 0.40808 0.09264 0.40804
 N594 N 0.39159 0.07559 0.42457
 N595 N 0.40639 0.06163 0.44296
 C596 C 0.43817 0.06432 0.44545
 N597 N 0.45464 0.08129 0.42880
 N598 N 0.43983 0.09524 0.41041
 N599 N 0.36342 0.67222 -0.14476
 C600 C 0.36213 0.64027 -0.14439
 N601 N 0.34448 0.62500 -0.16119
 N602 N 0.32855 0.64124 -0.17783
 C603 C 0.32966 0.67332 -0.17826
 N604 N 0.34749 0.68845 -0.16139
 C605 C 0.37860 0.62296 -0.12602
 C606 C 0.39231 0.60890 -0.11024
 C607 C 0.40849 0.59281 -0.09109
 N608 N 0.39207 0.57592 -0.07442
 N609 N 0.40696 0.56207 -0.05603
 C610 C 0.43875 0.56471 -0.05369
 N611 N 0.45516 0.58151 -0.07047
 N612 N 0.44026 0.59536 -0.08886
 N613 N 1.13444 -0.17158 -0.14553
 C614 C 1.13564 -0.13961 -0.14533
 N615 N 1.15323 -0.12439 -0.16221
 N616 N 1.16921 -0.14067 -0.17877
 C617 C 1.16821 -0.17276 -0.17902
 N618 N 1.15042 -0.18784 -0.16208
 C619 C 1.11944 -0.12224 -0.12688
 C620 C 1.10623 -0.10801 -0.11099
 C621 C 1.09098 -0.09151 -0.09161
 N622 N 1.09423 -0.05980 -0.08936
 N623 N 1.08105 -0.04470 -0.07080
 C624 C 1.06425 -0.06087 -0.05387
 N625 N 1.06094 -0.09260 -0.05624
 N626 N 1.07411 -0.10767 -0.07480
 N627 N 1.13595 0.32760 0.35564
 C628 C 1.13731 0.35955 0.35611
 N629 N 1.15516 0.37492 0.33946
 N630 N 1.17123 0.35878 0.32286
 C631 C 1.17006 0.32670 0.32234
 N632 N 1.15202 0.31148 0.33905
 C633 C 1.12071 0.37675 0.37447
 C634 C 1.10695 0.39072 0.39024
 C635 C 1.09077 0.40676 0.40941
 N636 N 1.10720 0.42370 0.42601
 N637 N 1.09235 0.43753 0.44440
 C638 C 1.06057 0.43482 0.44682
 N639 N 1.04414 0.41796 0.43010
 N640 N 1.05901 0.40413 0.41172
 N641 N 0.65527 -0.12449 0.33838
 C642 C 0.63748 -0.13973 0.35514
 N643 N 0.63606 -0.17168 0.35477
 N644 N 0.65201 -0.18792 0.33820
 C645 C 0.66999 -0.17283 0.32138
 N646 N 0.67123 -0.14075 0.32180
 C647 C 0.62097 -0.12242 0.37346
 C648 C 0.60724 -0.10839 0.38921
 C649 C 0.59102 -0.09236 0.40836
 N650 N 0.55925 -0.09494 0.41056
 N651 N 0.54433 -0.08118 0.42895
 C652 C 0.56070 -0.06443 0.44575
 N653 N 0.59250 -0.06176 0.44343
 N654 N 0.60742 -0.07553 0.42504
 N655 N 0.65492 0.37550 -0.16174
 C656 C 0.63731 0.36020 -0.14489
 N657 N 0.63604 0.32824 -0.14525
 N658 N 0.65194 0.31206 -0.16189
 C659 C 0.66972 0.32722 -0.17880
 N660 N 0.67082 0.35930 -0.17839
 C661 C 0.62086 0.37748 -0.12649
 C662 C 0.60720 0.39153 -0.11069
 C663 C 0.59111 0.40766 -0.09150
 N664 N 0.55936 0.40504 -0.08909
 N665 N 0.54459 0.41896 -0.07069
 C666 C 0.56109 0.43590 -0.05407
 N667 N 0.59286 0.43860 -0.05660
 N668 N 0.60762 0.42468 -0.07500
 N669 N 1.13826 0.17188 -0.14528
 C670 C 1.13926 0.13993 -0.14495
 N671 N 1.15662 0.12467 -0.16185
 N672 N 1.17258 0.14091 -0.17854
 C673 C 1.17183 0.17303 -0.17895
 N674 N 1.15422 0.18810 -0.16196
 C675 C 1.12273 0.12264 -0.12652
 C676 C 1.10896 0.10865 -0.11069
 C677 C 1.09269 0.09269 -0.09145
 N678 N 1.10903 0.07599 -0.07469
 N679 N 1.09407 0.06228 -0.05622
 C680 C 1.06228 0.06487 -0.05389
 N681 N 1.04597 0.08148 -0.07077
 N682 N 1.06093 0.09519 -0.08923
 N683 N 1.13576 0.67173 0.35498
 C684 C 1.13684 0.63977 0.35530
 N685 N 1.15437 0.62458 0.33845
 N686 N 1.17039 0.64088 0.32182
 C687 C 1.16950 0.67296 0.32145
 N688 N 1.15178 0.68802 0.33836
 C689 C 1.12044 0.62237 0.37377
 C690 C 1.10698 0.60813 0.38965
 C691 C 1.09138 0.59162 0.40898
 N692 N 1.09417 0.55986 0.41122
 N693 N 1.08060 0.54475 0.42969
 C694 C 1.06383 0.56092 0.44654
 N695 N 1.06097 0.59269 0.44418
 N696 N 1.07454 0.60778 0.42571
 N697 N 0.63482 0.17197 0.35376
 C698 C 0.63572 0.14001 0.35408
 N699 N 0.65325 0.12470 0.33730
 N700 N 0.66945 0.14090 0.32073
 C701 C 0.66875 0.17298 0.32035
 N702 N 0.65101 0.18815 0.33719
 C703 C 0.61928 0.12272 0.37255
 C704 C 0.60587 0.10853 0.38844
 C705 C 0.59041 0.09205 0.40781
 N706 N 0.59341 0.06034 0.41013
 N707 N 0.58004 0.04525 0.42869
 C708 C 0.56330 0.06140 0.44555
 N709 N 0.56023 0.09314 0.44311
 N710 N 0.57358 0.10821 0.42456
 N711 N 0.65374 0.62564 -0.16255
 C712 C 0.63633 0.64092 -0.14568
 N713 N 0.63542 0.67288 -0.14600
 N714 N 0.65151 0.68908 -0.16262
 C715 C 0.66919 0.67398 -0.17956
 N716 N 0.66983 0.64186 -0.17918
 C717 C 0.61994 0.62361 -0.12718
 C718 C 0.60656 0.60941 -0.11126
 C719 C 0.59110 0.59289 -0.09188
 N720 N 0.57443 0.60904 -0.07503
 N721 N 0.56106 0.59393 -0.05650
 C722 C 0.56395 0.56216 -0.05418
 N723 N 0.58054 0.54601 -0.07114
 N724 N 0.59392 0.56114 -0.08967
 N725 N 0.84491 -0.12425 -0.16165
 C726 C 0.86255 -0.13952 -0.14488
 N727 N 0.86376 -0.17147 -0.14530
 N728 N 0.84775 -0.18768 -0.16194
 C729 C 0.82992 -0.17255 -0.17877
 N730 N 0.82890 -0.14048 -0.17830
 C731 C 0.87911 -0.12223 -0.12648
 C732 C 0.89285 -0.10822 -0.11066
 C733 C 0.90904 -0.09215 -0.09143
 N734 N 0.94077 -0.09473 -0.08904
 N735 N 0.95564 -0.08089 -0.07061
 C736 C 0.93924 -0.06407 -0.05393
 N737 N 0.90748 -0.06142 -0.05643
 N738 N 0.89263 -0.07525 -0.07487
 N739 N 0.84669 0.37491 0.33773
 C740 C 0.86407 0.35960 0.35463
 N741 N 0.86508 0.32764 0.35430
 N742 N 0.84914 0.31147 0.33761
 C743 C 0.83155 0.32664 0.32065
 N744 N 0.83074 0.35872 0.32103
 C745 C 0.88026 0.37687 0.37321
 C746 C 0.89348 0.39102 0.38921
 C747 C 0.90874 0.40744 0.40868
 N748 N 0.92538 0.39121 0.42553
 N749 N 0.93858 0.40623 0.44416
 C750 C 0.93553 0.43796 0.44656
 N751 N 0.91897 0.45418 0.42960
 N752 N 0.90576 0.43915 0.41098
 N753 N 0.34533 -0.12563 0.33716
 C754 C 0.36276 -0.14087 0.35405
 N755 N 0.36371 -0.17282 0.35380
 N756 N 0.34763 -0.18905 0.33722
 C757 C 0.32987 -0.17403 0.32022
 N758 N 0.32925 -0.14188 0.32057
 C759 C 0.37915 -0.12352 0.37251
 C760 C 0.39256 -0.10927 0.38839
 C761 C 0.40806 -0.09273 0.40771
 N762 N 0.42488 -0.10886 0.42452
 N763 N 0.43831 -0.09373 0.44300
 C764 C 0.43534 -0.06197 0.44531
 N765 N 0.41860 -0.04585 0.42839
 N766 N 0.40516 -0.06099 0.40990
 N767 N 0.34676 0.37527 -0.16229
 C768 C 0.36450 0.36009 -0.14554
 N769 N 0.36589 0.32815 -0.14596
 N770 N 0.34994 0.31186 -0.16259
 C771 C 0.33199 0.32690 -0.17939
 N772 N 0.33081 0.35896 -0.17893
 C773 C 0.38068 0.37746 -0.12701
 C774 C 0.39391 0.39168 -0.11106
 C775 C 0.40919 0.40815 -0.09162
 N776 N 0.42598 0.39198 -0.07482
 N777 N 0.43923 0.40704 -0.05624
 C778 C 0.43607 0.43876 -0.05381
 N779 N 0.41936 0.45492 -0.07072
 N780 N 0.40610 0.43985 -0.08931
 N781 N 1.12502 -0.15377 0.16215
 C782 C 1.14026 -0.13607 0.14534
 N783 N 1.17221 -0.13477 0.14568
 N784 N 1.18844 -0.15074 0.16229
 C785 C 1.17334 -0.16863 0.17917
 N786 N 1.14126 -0.16974 0.17877
 C787 C 1.12291 -0.11975 0.12686
 C788 C 1.10872 -0.10638 0.11097
 C789 C 1.09229 -0.09087 0.09162
 N790 N 1.10852 -0.07397 0.07486
 N791 N 1.09351 -0.06051 0.05636
 C792 C 1.06174 -0.06352 0.05400
 N793 N 1.04550 -0.08034 0.07087
 N794 N 1.06054 -0.09381 0.08937
 N795 N 1.12450 0.34413 0.66200
 C796 C 1.13962 0.36189 0.64515
 N797 N 1.17156 0.36331 0.64542
 N798 N 1.18792 0.34741 0.66199
 C799 C 1.17295 0.32947 0.67890
 N800 N 1.14088 0.32822 0.67858
 C801 C 1.12218 0.37832 0.62683
 C802 C 1.10806 0.39199 0.61106
 C803 C 1.09193 0.40812 0.59188
 N804 N 1.07497 0.39164 0.57533
 N805 N 1.06112 0.40645 0.55690
 C806 C 1.06383 0.43824 0.55440
 N807 N 1.08071 0.45470 0.57108
 N808 N 1.09455 0.43988 0.58951
 N809 N 0.62386 -0.15528 0.66115
 C810 C 0.63910 -0.13754 0.64436
 N811 N 0.67104 -0.13606 0.64480
 N812 N 0.68727 -0.15190 0.66148
 C813 C 0.67217 -0.16983 0.67834
 N814 N 0.64011 -0.17113 0.67784
 C815 C 0.62179 -0.12115 0.62592
 C816 C 0.60774 -0.10751 0.61010
 C817 C 0.59165 -0.09141 0.59088
 N818 N 0.59408 -0.05963 0.58858
 N819 N 0.58024 -0.04481 0.57015
 C820 C 0.56354 -0.06131 0.55338
 N821 N 0.56102 -0.09313 0.55579
 N822 N 0.57487 -0.10793 0.57423
 N823 N 0.62540 0.34520 0.16106
 C824 C 0.64068 0.36283 0.14423
 N825 N 0.67263 0.36408 0.14456
 N826 N 0.68884 0.34812 0.16119
 C827 C 0.67370 0.33030 0.17809
 N828 N 0.64162 0.32924 0.17770
 C829 C 0.62339 0.37931 0.12585
 C830 C 0.60933 0.39299 0.11006
 C831 C 0.59320 0.40911 0.09088
 N832 N 0.59572 0.44088 0.08856
 N833 N 0.58181 0.45570 0.07016
 C834 C 0.56497 0.43922 0.05347
 N835 N 0.56237 0.40742 0.05591
 N836 N 0.57629 0.39261 0.07431
 N837 N 0.87562 0.15354 0.16180
 C838 C 0.86034 0.13600 0.14495
 N839 N 0.82838 0.13487 0.14519
 N840 N 0.81218 0.15086 0.16177
 C841 C 0.82731 0.16862 0.17868
 N842 N 0.85939 0.16954 0.17838
 C843 C 0.87766 0.11976 0.12648
 C844 C 0.89187 0.10652 0.11059
 C845 C 0.90836 0.09123 0.09123
 N846 N 0.89220 0.07452 0.07435
 N847 N 0.90730 0.06131 0.05582
 C848 C 0.93906 0.06442 0.05354
 N849 N 0.95522 0.08106 0.07053
 N850 N 0.94010 0.09428 0.08906
 N851 N 0.87480 0.65506 0.66163
 C852 C 0.85955 0.63730 0.64489
 N853 N 0.82760 0.63590 0.64530
 N854 N 0.81138 0.65184 0.66190
 C855 C 0.82649 0.66979 0.67871
 N856 N 0.85856 0.67100 0.67824
 C857 C 0.87685 0.62079 0.62653
 C858 C 0.89089 0.60707 0.61077
 C859 C 0.90699 0.59089 0.59162
 N860 N 0.90442 0.55911 0.58937
 N861 N 0.91828 0.54424 0.57101
 C862 C 0.93513 0.56066 0.55426
 N863 N 0.93778 0.59246 0.55662
 N864 N 0.92392 0.60733 0.57499
 N865 N 0.37543 0.15447 0.66098
 C866 C 0.36002 0.13664 0.64436
 N867 N 0.32809 0.13515 0.64499
 N868 N 0.31202 0.15105 0.66169
 C869 C 0.32728 0.16907 0.67837
 N870 N 0.35934 0.17038 0.67769
 C871 C 0.37714 0.12024 0.62588
 C872 C 0.39103 0.10661 0.61000
 C873 C 0.40693 0.09057 0.59071
 N874 N 0.40425 0.05882 0.58831
 N875 N 0.41795 0.04408 0.56982
 C876 C 0.43472 0.06061 0.55309
 N877 N 0.43748 0.09238 0.55560
 N878 N 0.42378 0.10712 0.57410
 N879 N 0.37558 0.65558 0.16145
 C880 C 0.36026 0.63797 0.14464
 N881 N 0.32831 0.63668 0.14506
 N882 N 0.31215 0.65256 0.16173
 C883 C 0.32732 0.67035 0.17860
 N884 N 0.35940 0.67147 0.17812
 C885 C 0.37751 0.62150 0.12623
 C886 C 0.39153 0.60781 0.11043
 C887 C 0.40762 0.59166 0.09125
 N888 N 0.40518 0.55987 0.08903
 N889 N 0.41906 0.54502 0.07066
 C890 C 0.43580 0.56148 0.05387
 N891 N 0.43833 0.59330 0.05620
 N892 N 0.42445 0.60814 0.07458
   
