data_POSCAR
  _audit_creation_date              2014-09-24
  _audit_creation_method            'ToBaCCo'
  _symmetry_space_group_name_H-M    'P1'
  _symmetry_Int_Tables_number       1
  _symmetry_cell_setting            triclinic
  loop_
  _symmetry_equiv_pos_as_xyz
 x,y,z
_cell_length_a 18.8851
_cell_length_b 19.1180
_cell_length_c 19.0681
_cell_angle_alpha 89.837600
_cell_angle_beta 90.148800
_cell_angle_gamma 89.846100
loop_
  _atom_site_label
  _atom_site_type_symbol
  _atom_site_fract_x
  _atom_site_fract_y
  _atom_site_fract_z
C1 C 0.45986 1.04378 -0.56483
 C2 C 0.53271 1.02287 -0.56847
 C3 C 0.56829 1.01058 -0.50365
 C4 C 0.53575 1.01538 -0.43708
 C5 C 0.46287 1.03262 -0.43564
 C6 C 0.42775 1.04846 -0.49830
 H7 H 0.37161 1.06053 -0.49490
 H8 H 0.62386 0.99668 -0.50443
 C9 C -0.56389 1.45645 0.00307
 C10 C -0.56542 1.53072 0.00245
 C11 C -0.50136 1.56785 0.00368
 C12 C -0.43443 1.53506 0.00279
 C13 C -0.43291 1.46085 0.00428
 C14 C -0.49696 1.42373 0.00576
 H15 H -0.49388 1.36708 0.00708
 H16 H -0.50437 1.62451 0.00341
 C17 C -0.00087 0.45542 0.43574
 C18 C -0.00298 0.52993 0.43451
 C19 C -0.00556 0.56655 0.49839
 C20 C -0.00603 0.53315 0.56420
 C21 C -0.00411 0.45917 0.56583
 C22 C -0.00330 0.42227 0.50214
 H23 H -0.00011 0.36570 0.50521
 H24 H -0.00941 0.62314 0.49653
 O25 O -0.18195 1.00202 -0.09476
 O26 O 0.18288 0.99561 -0.09599
 O27 O -0.00523 1.09458 -0.17650
 O28 O 0.00160 0.90493 -0.18075
 O29 O -0.00246 0.81681 -0.09789
 O30 O 0.00066 1.17884 -0.09010
 O31 O 0.09515 0.99524 -0.18026
 O32 O -0.09454 1.00291 -0.17887
 Zr33 Zr 0.00024 0.99833 -0.12211
 O34 O 0.06309 0.93178 -0.06485
 O35 O -0.06181 1.06177 -0.06075
 C36 C -0.16013 1.00472 -0.15946
 C37 C 0.16089 0.99440 -0.16031
 C38 C -0.00551 1.15896 -0.15484
 C39 C 0.00083 0.83955 -0.16206
 H40 H 0.09576 1.09009 -0.09200
 O41 O 0.06567 1.05984 -0.06237
 H42 H -0.09596 0.90605 -0.09361
 O43 O -0.06482 0.93478 -0.06355
 O44 O 0.18619 0.98811 0.08996
 O45 O -0.18106 0.99759 0.09592
 O46 O 0.10052 1.17423 0.00631
 O47 O 0.09241 0.81288 -0.00648
 O48 O -0.09871 0.81722 0.00158
 O49 O -0.09062 1.17838 0.00226
 O50 O 0.00462 1.08546 0.18303
 O51 O 0.00435 0.89740 0.17918
 O52 O 0.00669 1.17380 0.10034
 O53 O -0.00248 0.81314 0.09286
 O54 O 0.18431 1.08624 0.00589
 O55 O -0.17799 1.09427 -0.00367
 O56 O -0.18244 0.90520 0.00516
 O57 O 0.17965 0.89721 -0.01132
 O58 O 0.10273 0.99409 0.17808
 O59 O -0.09333 0.98858 0.18021
 Zr60 Zr 0.12522 0.99321 -0.00163
 Zr61 Zr -0.12335 0.99823 0.00100
 Zr62 Zr 0.00383 1.11931 0.00356
 Zr63 Zr -0.00179 0.87194 -0.00165
 Zr64 Zr 0.00341 0.99282 0.12373
 O65 O -0.06343 0.93227 0.06354
 O66 O 0.06788 1.05653 0.06484
 C67 C 0.16771 0.99083 0.15506
 C68 C -0.15939 0.99151 0.16033
 C69 C 0.16517 1.15139 0.00866
 C70 C 0.15761 0.83297 -0.01216
 C71 C -0.16329 0.84001 0.00578
 C72 C -0.15590 1.15845 -0.00345
 C73 C 0.00534 1.15084 0.16455
 C74 C 0.00208 0.83306 0.15780
 H75 H -0.09064 1.08817 0.09563
 O76 O -0.06064 1.05850 0.06538
 H77 H 0.09550 0.89863 0.08942
 O78 O 0.06468 0.92970 0.06116
 C79 C 0.34763 0.99554 0.28712
 C80 C 0.29566 1.04830 0.29061
 N81 N 0.30491 1.10276 0.33481
 C82 C 0.36220 1.10568 0.37774
 C83 C 0.41279 1.05095 0.37790
 N84 N 0.40471 0.99766 0.33105
 N85 N 0.33829 0.94142 0.24212
 C86 C 0.27956 0.93773 0.20071
 C87 C 0.22682 0.98967 0.20537
 N88 N 0.23658 1.04418 0.24996
 H89 H 0.36688 1.14907 0.41385
 H90 H 0.27404 0.89478 0.16421
 C91 C -0.31334 0.98300 0.32133
 C92 C -0.32894 1.01684 0.25820
 N93 N -0.39230 1.05029 0.25124
 C94 C -0.44050 1.05189 0.30471
 C95 C -0.42491 1.01818 0.36927
 N96 N -0.36116 0.98437 0.37398
 N97 N -0.24930 0.95205 0.33066
 C98 C -0.19938 0.95388 0.27956
 C99 C -0.21412 0.98792 0.21572
 N100 N -0.27924 1.01827 0.20632
 H101 H -0.48752 1.08308 0.29736
 H102 H -0.14872 0.92878 0.28871
 C103 C -0.30461 1.01873 -0.32880
 C104 C -0.32845 0.99678 -0.26288
 N105 N -0.39723 0.97743 -0.25566
 C106 C -0.44342 0.98088 -0.31080
 C107 C -0.42039 1.00648 -0.37672
 N108 N -0.35060 1.02313 -0.38297
 N109 N -0.23572 1.03503 -0.33822
 C110 C -0.18908 1.03069 -0.28441
 C111 C -0.21229 1.01010 -0.21725
 N112 N -0.28195 0.99328 -0.20804
 H113 H -0.49594 0.96033 -0.30328
 H114 H -0.13420 1.04309 -0.29444
 C115 C 0.31309 0.98774 -0.32084
 C116 C 0.32187 1.03349 -0.26408
 N117 N 0.37801 1.07795 -0.26333
 C118 C 0.42569 1.07858 -0.31691
 C119 C 0.41749 1.03154 -0.37290
 N120 N 0.36090 0.98781 -0.37339
 N121 N 0.25581 0.94536 -0.32375
 C122 C 0.20631 0.94679 -0.27244
 C123 C 0.21473 0.99200 -0.21531
 N124 N 0.27278 1.03418 -0.21203
 H125 H 0.46919 1.11531 -0.31612
 H126 H 0.16127 0.91239 -0.27575
 C127 C 0.32926 1.29924 0.02535
 C128 C 0.26516 1.31753 -0.00680
 N129 N 0.25780 1.38219 -0.03562
 C130 C 0.31147 1.42969 -0.03313
 C131 C 0.37589 1.41218 0.00074
 N132 N 0.38212 1.34653 0.02830
 N133 N 0.33861 1.23393 0.05165
 C134 C 0.28647 1.18552 0.04693
 C135 C 0.22178 1.20343 0.01492
 N136 N 0.21245 1.26943 -0.01096
 H137 H 0.30461 1.47847 -0.06095
 H138 H 0.29532 1.13374 0.06843
 C139 C 0.31499 0.67909 -0.03563
 C140 C 0.26097 0.67015 0.01392
 N141 N 0.26264 0.61369 0.05742
 C142 C 0.31628 0.56602 0.05385
 C143 C 0.36997 0.57461 0.00356
 N144 N 0.36755 0.63125 -0.03972
 N145 N 0.31618 0.73718 -0.07652
 C146 C 0.26578 0.78737 -0.06987
 C147 C 0.21133 0.77860 -0.02073
 N148 N 0.20974 0.71979 0.01981
 H149 H 0.31787 0.52287 0.09068
 H150 H 0.26794 0.83351 -0.10288
 C151 C -0.32756 0.69235 0.02307
 C152 C -0.26334 0.67365 -0.00817
 N153 N -0.25587 0.60858 -0.03564
 C154 C -0.30958 0.56113 -0.03269
 C155 C -0.37416 0.57918 0.00016
 N156 N -0.38047 0.64517 0.02639
 N157 N -0.33697 0.75790 0.04822
 C158 C -0.28478 0.80618 0.04322
 C159 C -0.21996 0.78796 0.01201
 N160 N -0.21057 0.72168 -0.01272
 H161 H -0.30262 0.51192 -0.05940
 H162 H -0.29374 0.85813 0.06390
 C163 C -0.31319 1.31218 -0.02985
 C164 C -0.25944 1.32154 0.02016
 N165 N -0.26130 1.37852 0.06267
 C166 C -0.31488 1.42621 0.05768
 C167 C -0.36831 1.41704 0.00698
 N168 N -0.36566 1.35998 -0.03531
 N169 N -0.31422 1.25378 -0.06990
 C170 C -0.26393 1.20366 -0.06199
 C171 C -0.20975 1.21275 -0.01234
 N172 N -0.20823 1.27193 0.02735
 H173 H -0.31664 1.46982 0.09370
 H174 H -0.26588 1.15735 -0.09452
 C175 C -0.01299 1.29709 0.32932
 C176 C 0.01736 1.31730 0.26559
 N177 N 0.04226 1.38357 0.25854
 C178 C 0.03733 1.43072 0.31199
 C179 C 0.00468 1.41127 0.37589
 N180 N -0.01859 1.34404 0.38185
 N181 N -0.03554 1.23053 0.33846
 C182 C -0.02915 1.18277 0.28645
 C183 C 0.00058 1.20247 0.22175
 N184 N 0.02303 1.26978 0.21270
 H185 H 0.06220 1.48099 0.30521
 H186 H -0.04823 1.13014 0.29532
 C187 C -0.03545 1.31084 -0.31313
 C188 C 0.01423 1.32242 -0.25958
 N189 N 0.05519 1.38081 -0.26195
 C190 C 0.04905 1.42767 -0.31575
 C191 C -0.00095 1.41605 -0.36936
 N192 N -0.04176 1.35758 -0.36618
 N193 N -0.07452 1.25154 -0.31310
 C194 C -0.06573 1.20258 -0.26224
 C195 C -0.01588 1.21328 -0.20864
 N196 N 0.02264 1.27361 -0.20797
 H197 H 0.08403 1.47237 -0.31768
 H198 H -0.09779 1.15590 -0.26326
 C199 C 0.01636 0.69155 -0.32561
 C200 C -0.01783 0.67371 -0.26298
 N201 N -0.04847 0.60969 -0.25706
 C202 C -0.04583 0.56264 -0.31071
 C203 C -0.00878 0.57939 -0.37271
 N204 N 0.02070 0.64413 -0.37790
 N205 N 0.04236 0.75689 -0.33450
 C206 C 0.03643 0.80539 -0.28311
 C207 C 0.00484 0.78744 -0.21888
 N208 N -0.02190 0.72163 -0.21033
 H209 H -0.07390 0.51377 -0.30535
 H210 H 0.05648 0.85741 -0.29238
 C211 C 0.02789 0.68067 0.31631
 C212 C -0.02090 0.66949 0.26188
 N213 N -0.06189 0.61107 0.26319
 C214 C -0.05638 0.56364 0.31658
 C215 C -0.00655 0.57440 0.37056
 N216 N 0.03395 0.63312 0.36864
 N217 N 0.06654 0.74022 0.31772
 C218 C 0.05852 0.78967 0.26721
 C219 C 0.01020 0.77891 0.21215
 N220 N -0.02822 0.71854 0.21032
 H221 H -0.09123 0.51882 0.31761
 H222 H 0.09017 0.83677 0.26963
   
