data_POSCAR
  _audit_creation_date              2014-09-24
  _audit_creation_method            'ToBaCCo'
  _symmetry_space_group_name_H-M    'P1'
  _symmetry_Int_Tables_number       1
  _symmetry_cell_setting            triclinic
  loop_
  _symmetry_equiv_pos_as_xyz
 x,y,z
_cell_length_a 42.7299
_cell_length_b 32.9750
_cell_length_c 24.5350
_cell_angle_alpha 89.872300
_cell_angle_beta 90.002800
_cell_angle_gamma 90.062400
loop_
  _atom_site_label
  _atom_site_type_symbol
  _atom_site_fract_x
  _atom_site_fract_y
  _atom_site_fract_z
O1 O 0.27033 0.30169 0.30972
 O2 O 0.21284 0.22278 0.27215
 O3 O 0.26960 0.22283 0.31268
 O4 O 0.21250 0.30112 0.27528
 O5 O 0.23047 0.30152 0.19084
 O6 O 0.28837 0.22324 0.22882
 O7 O 0.23156 0.22267 0.18822
 O8 O 0.28830 0.30157 0.22528
 Cu9 Cu 0.23954 0.26203 0.30091
 Cu10 Cu 0.26145 0.26219 0.19983
 C11 C 0.28933 0.31468 0.27379
 C12 C 0.21217 0.20980 0.22340
 C13 C 0.28913 0.21020 0.27765
 C14 C 0.21140 0.31427 0.22671
 O15 O 0.76926 0.19672 0.19097
 O16 O 0.71201 0.27579 0.22852
 O17 O 0.76870 0.27556 0.18788
 O18 O 0.71131 0.19745 0.22545
 O19 O 0.72948 0.19682 0.30972
 O20 O 0.78731 0.27536 0.27188
 O21 O 0.73061 0.27567 0.31254
 O22 O 0.78735 0.19701 0.27534
 Cu23 Cu 0.73854 0.23641 0.19976
 Cu24 Cu 0.76047 0.23623 0.30082
 C25 C 0.78835 0.18388 0.22684
 C26 C 0.71135 0.28870 0.27730
 C27 C 0.78806 0.28834 0.22306
 C28 C 0.71019 0.18423 0.27401
 O29 O 0.73063 0.80381 0.69090
 O30 O 0.78814 0.72494 0.72838
 O31 O 0.73139 0.72498 0.68787
 O32 O 0.78852 0.80328 0.72555
 O33 O 0.77033 0.80347 0.80981
 O34 O 0.71278 0.72477 0.77187
 O35 O 0.76953 0.72460 0.81239
 O36 O 0.71251 0.80310 0.77525
 Cu37 Cu 0.76145 0.76425 0.69972
 Cu38 Cu 0.73951 0.76392 0.80078
 C39 C 0.71150 0.81643 0.72676
 C40 C 0.78885 0.71184 0.77715
 C41 C 0.71205 0.71198 0.72304
 C42 C 0.78957 0.81633 0.77413
 O43 O 0.21185 0.77558 0.72830
 O44 O 0.26937 0.69680 0.69095
 O45 O 0.21147 0.69725 0.72558
 O46 O 0.26859 0.77564 0.68776
 O47 O 0.28722 0.77565 0.77176
 O48 O 0.22966 0.69686 0.80984
 O49 O 0.28748 0.69731 0.77530
 O50 O 0.23047 0.77572 0.81231
 Cu51 Cu 0.23854 0.73634 0.69970
 Cu52 Cu 0.26049 0.73644 0.80075
 C53 C 0.21114 0.78856 0.77705
 C54 C 0.28850 0.68410 0.72684
 C55 C 0.21042 0.68409 0.77418
 C56 C 0.28794 0.78855 0.72290
 C57 C 1.00310 0.05929 0.12156
 C58 C 1.03148 0.05332 0.09393
 C59 C 1.03158 0.03067 0.04536
 C60 C 1.00397 0.01214 0.02570
 C61 C 0.97604 0.01795 0.05542
 C62 C 0.97515 0.04286 0.10158
 C63 C 1.00390 -0.01234 -0.02601
 C64 C 0.97591 -0.01809 -0.05563
 C65 C 0.97489 -0.04300 -0.10177
 C66 C 1.00275 -0.05952 -0.12186
 C67 C 1.03118 -0.05366 -0.09429
 C68 C 1.03142 -0.03098 -0.04574
 H69 H 1.00251 0.07843 0.15735
 H70 H 1.05321 0.02809 0.02286
 H71 H 0.95455 0.00338 0.04308
 H72 H 0.95447 -0.00349 -0.04321
 H73 H 1.00204 -0.07871 -0.15760
 H74 H 1.05308 -0.02847 -0.02329
 C75 C 0.50342 0.56023 0.62156
 C76 C 0.53181 0.55442 0.59389
 C77 C 0.53197 0.53172 0.54537
 C78 C 0.50442 0.51300 0.52578
 C79 C 0.47647 0.51868 0.55552
 C80 C 0.47552 0.54362 0.60164
 C81 C 0.50443 0.48847 0.47413
 C82 C 0.47647 0.48262 0.44445
 C83 C 0.47554 0.45768 0.39832
 C84 C 0.50346 0.44126 0.37835
 C85 C 0.53184 0.44720 0.40598
 C86 C 0.53200 0.46990 0.45450
 H87 H 0.50278 0.57941 0.65732
 H88 H 0.55360 0.52925 0.52284
 H89 H 0.45503 0.50399 0.54319
 H90 H 0.45499 0.49716 0.45683
 H91 H 0.50282 0.42206 0.34260
 H92 H 0.55364 0.47249 0.47700
 C93 C -0.00312 0.43981 0.12153
 C94 C -0.03149 0.44586 0.09388
 C95 C -0.03158 0.46872 0.04534
 C96 C -0.00398 0.48735 0.02574
 C97 C 0.02395 0.48142 0.05548
 C98 C 0.02483 0.45632 0.10160
 C99 C -0.00390 0.51205 -0.02592
 C100 C 0.02409 0.51794 -0.05552
 C101 C 0.02511 0.54303 -0.10163
 C102 C -0.00276 0.55961 -0.12171
 C103 C -0.03118 0.55364 -0.09415
 C104 C -0.03142 0.53076 -0.04564
 H105 H -0.00253 0.42050 0.15728
 H106 H -0.05322 0.47137 0.02283
 H107 H 0.04545 0.49603 0.04317
 H108 H 0.04553 0.50330 -0.04310
 H109 H -0.00204 0.57894 -0.15743
 H110 H -0.05308 0.52816 -0.02320
 C111 C 0.49657 0.94048 0.62108
 C112 C 0.46819 0.94633 0.59338
 C113 C 0.46804 0.96912 0.54478
 C114 C 0.49559 0.98788 0.52517
 C115 C 0.52353 0.98215 0.55494
 C116 C 0.52448 0.95712 0.60113
 C117 C 0.49559 1.01251 0.47346
 C118 C 0.52355 1.01845 0.44380
 C119 C 0.52451 1.04352 0.39766
 C120 C 0.49659 1.05998 0.37757
 C121 C 0.46820 1.05394 0.40520
 C122 C 0.46803 1.03112 0.45377
 H123 H 0.49721 0.92123 0.65689
 H124 H 0.44641 0.97163 0.52224
 H125 H 0.54498 0.99687 0.54260
 H126 H 0.54502 1.00388 0.45623
 H127 H 0.49723 1.07929 0.34182
 H128 H 0.44639 1.02847 0.47625
 C129 C 1.13982 0.13341 0.17252
 N130 N 1.16366 0.14293 0.13822
 N131 N 1.18719 0.16634 0.15497
 C132 C 1.18784 0.18092 0.20668
 N133 N 1.16423 0.17094 0.24121
 N134 N 1.14064 0.14763 0.22441
 C135 C 1.11260 0.11041 0.15295
 N136 N 1.08705 0.10586 0.18519
 N137 N 1.06155 0.08728 0.16656
 C138 C 1.06052 0.07243 0.11496
 N139 N 1.08628 0.07657 0.08293
 N140 N 1.11179 0.09532 0.10150
 C141 C 0.63984 0.63538 0.67212
 N142 N 0.66359 0.64512 0.63775
 N143 N 0.68706 0.66864 0.65448
 C144 C 0.68773 0.68312 0.70625
 N145 N 0.66420 0.67292 0.74084
 N146 N 0.64068 0.64951 0.72406
 C147 C 0.61269 0.61219 0.65262
 N148 N 0.58722 0.60739 0.68497
 N149 N 0.56179 0.58860 0.66642
 C150 C 0.56077 0.57376 0.61482
 N151 N 0.58647 0.57814 0.58268
 N152 N 0.61190 0.59711 0.60117
 C153 C -0.13964 0.36499 0.17217
 N154 N -0.16341 0.35542 0.13781
 N155 N -0.18690 0.33188 0.15454
 C156 C -0.18756 0.31719 0.20629
 N157 N -0.16401 0.32721 0.24087
 N158 N -0.14047 0.35064 0.22409
 C159 C -0.11248 0.38819 0.15267
 N160 N -0.08700 0.39283 0.18501
 N161 N -0.06154 0.41161 0.16645
 C162 C -0.06049 0.42659 0.11483
 N163 N -0.08620 0.42238 0.08270
 N164 N -0.11167 0.40342 0.10120
 C165 C 0.36015 0.86525 0.67181
 N166 N 0.33640 0.85559 0.63746
 N167 N 0.31292 0.83204 0.65425
 C168 C 0.31226 0.81745 0.70605
 N169 N 0.33580 0.82757 0.74061
 N170 N 0.35932 0.85101 0.72377
 C171 C 0.38730 0.88848 0.65225
 N172 N 0.41277 0.89320 0.68458
 N173 N 0.43821 0.91203 0.66599
 C174 C 0.43923 0.92696 0.61435
 N175 N 0.41353 0.92265 0.58222
 N176 N 0.38809 0.90365 0.60075
 C177 C -0.13905 0.63495 -0.17230
 N178 N -0.13983 0.64946 -0.22414
 N179 N -0.16332 0.67296 -0.24082
 C180 C -0.18686 0.68289 -0.20622
 N181 N -0.18625 0.66805 -0.15454
 N182 N -0.16282 0.64443 -0.13792
 C183 C -0.11195 0.61166 -0.15287
 N184 N -0.11124 0.59624 -0.10151
 N185 N -0.08584 0.57718 -0.08304
 C186 C -0.06011 0.57305 -0.11511
 N187 N -0.06105 0.58823 -0.16663
 N188 N -0.08644 0.60711 -0.18516
 C189 C 0.36009 1.13490 0.32744
 N190 N 0.35860 1.14802 0.27499
 N191 N 0.33510 1.17152 0.25835
 C192 C 0.31227 1.18295 0.29363
 N193 N 0.31357 1.16934 0.34591
 N194 N 0.33700 1.14571 0.36248
 C195 C 0.38725 1.11165 0.34675
 N196 N 0.38832 1.09706 0.39853
 N197 N 0.41377 1.07808 0.41690
 C198 C 0.43921 1.07323 0.38433
 N199 N 0.43793 1.08759 0.33242
 N200 N 0.41246 1.10638 0.31397
 C201 C 1.13905 -0.13470 -0.17246
 N202 N 1.13982 -0.14907 -0.22428
 N203 N 1.16330 -0.17252 -0.24095
 C204 C 1.18686 -0.18253 -0.20635
 N205 N 1.18626 -0.16782 -0.15469
 N206 N 1.16283 -0.14426 -0.13808
 C207 C 1.11195 -0.11147 -0.15303
 N208 N 1.11124 -0.09621 -0.10167
 N209 N 1.08584 -0.07722 -0.08320
 C210 C 1.06010 -0.07300 -0.11526
 N211 N 1.06104 -0.08802 -0.16677
 N212 N 1.08643 -0.10684 -0.18530
 C213 C 0.63962 0.36597 0.32789
 N214 N 0.66329 0.35609 0.36232
 N215 N 0.68661 0.33235 0.34569
 C216 C 0.68720 0.31778 0.29396
 N217 N 0.66375 0.32812 0.25931
 N218 N 0.64038 0.35174 0.27600
 C219 C 0.61259 0.38934 0.34731
 N220 N 0.58717 0.39427 0.31490
 N221 N 0.56180 0.41314 0.33342
 C222 C 0.56079 0.42792 0.38505
 N223 N 0.58645 0.42343 0.41725
 N224 N 0.61182 0.40438 0.39879
 C225 C 0.86171 -0.10857 -0.18116
 N226 N 0.83891 -0.11840 -0.14486
 N227 N 0.81497 -0.14188 -0.15964
 C228 C 0.81289 -0.15625 -0.21137
 N229 N 0.83534 -0.14560 -0.24793
 N230 N 0.85937 -0.12238 -0.23305
 C231 C 0.88993 -0.08695 -0.16325
 N232 N 0.91596 -0.08658 -0.19496
 N233 N 0.94272 -0.07115 -0.17634
 C234 C 0.94442 -0.05516 -0.12544
 N235 N 0.91812 -0.05472 -0.09428
 N236 N 0.89143 -0.07043 -0.11273
 C237 C 0.36264 0.39154 0.31857
 N238 N 0.33913 0.38331 0.35422
 N239 N 0.31519 0.35978 0.33959
 C240 C 0.31384 0.34381 0.28869
 N241 N 0.33706 0.35266 0.25279
 N242 N 0.36106 0.37597 0.26750
 C243 C 0.39078 0.41332 0.33649
 N244 N 0.41701 0.41309 0.30528
 N245 N 0.44369 0.42869 0.32397
 C246 C 0.44513 0.44542 0.37446
 N247 N 0.41864 0.44648 0.40509
 N248 N 0.39201 0.43063 0.38656
 C249 C 0.13828 0.60888 -0.18101
 N250 N 0.14063 0.62281 -0.23293
 N251 N 0.16466 0.64607 -0.24783
 C252 C 0.18710 0.65663 -0.21128
 N253 N 0.18501 0.64214 -0.15953
 N254 N 0.16107 0.61862 -0.14472
 C255 C 0.11006 0.58720 -0.16309
 N256 N 0.10856 0.57053 -0.11256
 N257 N 0.08187 0.55476 -0.09411
 C258 C 0.05558 0.55528 -0.12528
 N259 N 0.05728 0.57141 -0.17620
 N260 N 0.08403 0.58692 -0.19482
 C261 C 0.63775 1.10941 0.31853
 N262 N 0.64015 1.12345 0.26668
 N263 N 0.66427 1.14658 0.25186
 C264 C 0.68676 1.15691 0.28845
 N265 N 0.68461 1.14232 0.34014
 N266 N 0.66058 1.11893 0.35486
 C267 C 0.60948 1.08781 0.33636
 N268 N 0.60798 1.07094 0.38677
 N269 N 0.58128 1.05516 0.40515
 C270 C 0.55497 1.05587 0.37403
 N271 N 0.55665 1.07222 0.32324
 N272 N 0.58342 1.08773 0.30468
 C273 C 0.13778 0.39047 0.18161
 N274 N 0.16135 0.38257 0.14604
 N275 N 0.18539 0.35924 0.16076
 C276 C 0.18675 0.34315 0.21169
 N277 N 0.16346 0.35165 0.24749
 N278 N 0.13937 0.37476 0.23269
 C279 C 0.10958 0.41208 0.16360
 N280 N 0.08332 0.41153 0.19470
 N281 N 0.05663 0.42706 0.17596
 C282 C 0.05522 0.44404 0.12551
 N283 N 0.08175 0.44539 0.09498
 N284 N 0.10839 0.42962 0.11357
 C285 C 0.63769 0.89229 0.68158
 N286 N 0.66135 0.88460 0.64609
 N287 N 0.68546 0.86142 0.66086
 C288 C 0.68683 0.84529 0.71177
 N289 N 0.66346 0.85361 0.74750
 N290 N 0.63929 0.87657 0.73265
 C291 C 0.60940 0.91367 0.66346
 N292 N 0.58310 0.91288 0.69447
 N293 N 0.55635 0.92816 0.67562
 C294 C 0.55491 0.94510 0.62516
 N295 N 0.58146 0.94668 0.59471
 N296 N 0.60817 0.93117 0.61341
 C297 C 0.86204 0.10795 0.18172
 N298 N 0.86042 0.12347 0.23281
 N299 N 0.83629 0.14644 0.24764
 C300 C 0.81296 0.15498 0.21185
 N301 N 0.81435 0.13906 0.16093
 N302 N 0.83843 0.11587 0.14618
 C303 C 0.89030 0.08655 0.16367
 N304 N 0.89153 0.06919 0.11363
 N305 N 0.91821 0.05362 0.09501
 C306 C 0.94474 0.05500 0.12551
 N307 N 0.94331 0.07181 0.17595
 N308 N 0.91659 0.08714 0.19473
 C309 C 0.36230 0.60832 0.68184
 N310 N 0.36069 0.62392 0.73288
 N311 N 0.33652 0.64685 0.74768
 C312 C 0.31316 0.65527 0.71190
 N313 N 0.31455 0.63926 0.66103
 N314 N 0.33866 0.61611 0.64631
 C315 C 0.39059 0.58698 0.66379
 N316 N 0.39183 0.56959 0.61378
 N317 N 0.41854 0.55411 0.59514
 C318 C 0.44509 0.55561 0.62561
 N319 N 0.44363 0.57244 0.67603
 N320 N 0.41688 0.58769 0.69483
   
