data_POSCAR
  _audit_creation_date              2014-09-24
  _audit_creation_method            'ToBaCCo'
  _symmetry_space_group_name_H-M    'P1'
  _symmetry_Int_Tables_number       1
  _symmetry_cell_setting            triclinic
  loop_
  _symmetry_equiv_pos_as_xyz
 x,y,z
_cell_length_a 37.9284
_cell_length_b 37.9197
_cell_length_c 38.0219
_cell_angle_alpha 90.105100
_cell_angle_beta 90.003500
_cell_angle_gamma 89.879200
loop_
  _atom_site_label
  _atom_site_type_symbol
  _atom_site_fract_x
  _atom_site_fract_y
  _atom_site_fract_z
C1 C 0.32206 0.36389 1.36754
 N2 N 0.33812 0.33463 1.38043
 C3 C 0.36737 0.32160 1.36443
 N4 N 0.38044 0.33771 1.33539
 C5 C 0.36439 0.36698 1.32249
 N6 N 0.33514 0.38000 1.33850
 C7 C 1.17681 0.63664 0.86848
 N8 N 1.16085 0.66596 0.88147
 C9 C 1.13162 0.67907 0.86553
 N10 N 1.11848 0.66297 0.83646
 C11 C 1.13443 0.63364 0.82346
 N12 N 1.16366 0.62055 0.83941
 C13 C 0.67963 -0.13495 0.13005
 N14 N 0.66652 -0.11900 0.15926
 C15 C 0.63729 -0.13205 0.17513
 N16 N 0.62130 -0.16117 0.16192
 C17 C 0.63437 -0.17713 0.13273
 N18 N 0.66361 -0.16408 0.11685
 C19 C -0.17630 1.13410 -0.36751
 N20 N -0.16328 1.11822 -0.33829
 C21 C -0.13416 1.13137 -0.32227
 N22 N -0.11818 1.16054 -0.33533
 C23 C -0.13119 1.17642 -0.36455
 N24 N -0.16032 1.16326 -0.38057
 C25 C 0.67564 0.63499 0.63113
 N26 N 0.65948 0.66417 0.61819
 C27 C 0.63027 0.67720 0.63426
 N28 N 0.61735 0.66117 0.66341
 C29 C 0.63351 0.63198 0.67635
 N30 N 0.66272 0.61897 0.66028
 C31 C 0.82096 0.36598 0.13160
 N32 N 0.83718 0.33680 0.11862
 C33 C 0.86634 0.32377 0.13475
 N34 N 0.87914 0.33981 0.16400
 C35 C 0.86294 0.36900 0.17699
 N36 N 0.83378 0.38202 0.16086
 C37 C 0.32307 0.13502 0.86747
 N38 N 0.33591 0.11885 0.83827
 C39 C 0.36501 0.13176 0.82206
 N40 N 0.38115 0.16098 0.83491
 C41 C 0.36832 0.17716 0.86410
 N42 N 0.33922 0.16424 0.88031
 C43 C 0.17769 0.86400 0.36967
 N44 N 0.16472 0.88020 0.34060
 C45 C 0.13545 0.86742 0.32455
 N46 N 0.11926 0.83829 0.33744
 C47 C 0.13222 0.82208 0.36650
 N48 N 0.16150 0.83487 0.38255
 Zn49 Zn 0.00803 1.04476 -0.01939
 Zn50 Zn -0.02611 0.97382 -0.02632
 Zn51 Zn 0.04468 0.98078 0.00808
 Zn52 Zn -0.01952 1.00830 0.04439
 O53 O 0.00174 1.00187 0.00165
 O54 O -0.01415 1.04782 -0.06072
 O55 O -0.00424 0.93392 -0.03974
 O56 O 0.08061 1.00672 -0.00810
 O57 O -0.03955 0.99548 -0.06614
 O58 O 0.05337 1.05423 -0.02849
 O59 O 0.04800 0.93933 -0.01413
 O60 O 0.00642 0.99213 0.08032
 O61 O -0.06600 0.96032 -0.00474
 O62 O 0.05407 0.97167 0.05334
 O63 O -0.06083 0.98595 0.04746
 O64 O -0.02891 1.05366 0.05381
 O65 O -0.00842 1.08076 0.00646
 C66 C -0.03304 1.02614 -0.07767
 C67 C 0.02645 0.92236 -0.03314
 C68 C 0.08124 1.03660 -0.02297
 C69 C 0.03635 0.97723 0.08106
 C70 C -0.07766 0.96690 0.02584
 C71 C -0.02344 1.08148 0.03623
 Zn72 Zn 0.47919 0.00582 0.45569
 Zn73 Zn 0.47236 -0.02830 0.52645
 Zn74 Zn 0.54322 -0.02166 0.49218
 Zn75 Zn 0.50664 0.04253 0.51951
 O76 O 0.50031 -0.00044 0.49849
 O77 O 0.43785 -0.01648 0.45254
 O78 O 0.49410 -0.06821 0.53991
 O79 O 0.55279 -0.03082 0.44695
 O80 O 0.43248 -0.04178 0.50479
 O81 O 0.50524 -0.01043 0.41982
 O82 O 0.54637 -0.06305 0.51434
 O83 O 0.55197 0.05194 0.52871
 O84 O 0.45889 -0.00643 0.56624
 O85 O 0.57914 0.00425 0.50849
 O86 O 0.48438 0.04584 0.56079
 O87 O 0.49037 0.07845 0.49357
 O88 O 0.46989 0.05116 0.44623
 C89 C 0.42091 -0.03536 0.47416
 C90 C 0.52476 -0.07990 0.53332
 C91 C 0.53520 -0.02527 0.41916
 C92 C 0.57980 0.03420 0.52330
 C93 C 0.46543 0.02428 0.57774
 C94 C 0.47542 0.07905 0.46377
 Zn95 Zn 1.00640 0.45542 0.47962
 Zn96 Zn 1.04300 0.51932 0.50725
 Zn97 Zn 0.97213 0.52643 0.47298
 Zn98 Zn 0.97896 0.49200 0.54360
 O99 O 1.00008 0.49833 0.50082
 O100 O 1.05173 0.44587 0.47035
 O101 O 1.04619 0.56069 0.48513
 O102 O 0.95863 0.50477 0.43313
 O103 O 1.07894 0.49326 0.49097
 O104 O 0.98404 0.45232 0.43836
 O105 O 0.99389 0.56630 0.45967
 O106 O 0.93752 0.51426 0.54675
 O107 O 1.05244 0.52854 0.55249
 O108 O 0.93223 0.53996 0.49467
 O109 O 1.00484 0.50834 0.57951
 O110 O 0.96991 0.44666 0.55302
 O111 O 0.99025 0.41946 0.50551
 C112 C 1.07959 0.46341 0.47595
 C113 C 1.02459 0.57775 0.46625
 C114 C 0.96509 0.47405 0.42151
 C115 C 0.92059 0.53333 0.52522
 C116 C 1.03474 0.52317 0.58023
 C117 C 0.97546 0.41880 0.53538
 Zn118 Zn 0.49258 0.54425 0.97906
 Zn119 Zn 0.45612 0.48032 1.00650
 Zn120 Zn 0.52702 0.47330 0.97222
 Zn121 Zn 0.52012 0.50782 1.04292
 O122 O 0.49900 0.50138 1.00013
 O123 O 0.44721 0.55385 0.97006
 O124 O 0.45298 0.43891 0.98423
 O125 O 0.54040 0.49492 0.93237
 O126 O 0.42011 0.50635 0.99038
 O127 O 0.51468 0.54722 0.93770
 O128 O 0.50531 0.43339 0.95881
 O129 O 0.56148 0.48545 1.04608
 O130 O 0.44671 0.47117 1.05173
 O131 O 0.56696 0.45982 0.99390
 O132 O 0.49418 0.49170 1.07882
 O133 O 0.52943 0.55317 1.05228
 O134 O 0.50903 0.58024 1.00483
 C135 C 0.41939 0.53627 0.97560
 C136 C 0.47463 0.42188 0.96532
 C137 C 0.53369 0.52555 0.92078
 C138 C 0.57849 0.46641 1.02453
 C139 C 0.46433 0.47676 1.07949
 C140 C 0.52401 0.58096 1.03461
 C141 C 1.20257 0.40586 0.46013
 C142 C 1.20539 0.37768 0.43067
 C143 C 1.23288 0.40070 0.41197
 C144 C 1.23061 0.42866 0.44117
 C145 C 1.17359 0.42458 0.43894
 C146 C 1.20109 0.44758 0.42023
 C147 C 1.17590 0.39662 0.40973
 C148 C 1.20387 0.41942 0.39082
 C149 C 1.26563 0.38741 0.39636
 C150 C 1.29230 0.37642 0.38301
 C151 C 1.14031 0.43809 0.45319
 C152 C 1.11269 0.44947 0.46407
 H153 H 1.20164 0.40044 0.48880
 H154 H 1.20754 0.34878 0.43479
 H155 H 1.25348 0.44170 0.45391
 H156 H 1.19896 0.47648 0.41610
 H157 H 1.15305 0.38358 0.39697
 H158 H 1.20476 0.42486 0.36216
 C159 C 0.29745 0.59603 0.96013
 C160 C 0.29462 0.62267 0.92937
 C161 C 0.26598 0.59951 0.91256
 C162 C 0.26826 0.57309 0.94307
 C163 C 0.32530 0.57535 0.93917
 C164 C 0.29665 0.55220 0.92237
 C165 C 0.32298 0.60176 0.90866
 C166 C 0.29386 0.57882 0.89165
 C167 C 0.23323 0.61294 0.89712
 C168 C 0.20656 0.62404 0.88388
 C169 C 0.35860 0.56171 0.95322
 C170 C 0.38624 0.55025 0.96393
 H171 H 0.29930 0.60296 0.98844
 H172 H 0.29341 0.65180 0.93207
 H173 H 0.24538 0.56145 0.95704
 H174 H 0.29785 0.52307 0.91965
 H175 H 0.34583 0.61341 0.89467
 H176 H 0.29205 0.57187 0.86334
 C177 C -0.17449 0.90392 0.09363
 C178 C -0.20587 0.92686 0.10617
 C179 C -0.23117 0.90223 0.08639
 C180 C -0.20025 0.87907 0.07405
 C181 C -0.17182 0.92669 0.06035
 C182 C -0.19708 0.90205 0.04052
 C183 C -0.20274 0.94984 0.07270
 C184 C -0.22855 0.92500 0.05311
 C185 C -0.26394 0.88872 0.10160
 C186 C -0.29061 0.87762 0.11473
 C187 C -0.13849 0.94059 0.04677
 C188 C -0.11083 0.95238 0.03663
 H189 H -0.15190 0.89538 0.11014
 H190 H -0.20982 0.93693 0.13333
 H191 H -0.19960 0.84981 0.07478
 H192 H -0.19308 0.89201 0.01337
 H193 H -0.20340 0.97910 0.07199
 H194 H -0.25116 0.93352 0.03663
 C195 C 0.69211 0.05705 0.59272
 C196 C 0.72781 0.05892 0.57304
 C197 C 0.73301 0.09651 0.58722
 C198 C 0.69781 0.09482 0.60712
 C199 C 0.67377 0.07274 0.56027
 C200 C 0.67898 0.11033 0.57446
 C201 C 0.70895 0.07441 0.54033
 C202 C 0.71470 0.11223 0.55477
 C203 C 0.76572 0.10977 0.60281
 C204 C 0.79235 0.12078 0.61614
 C205 C 0.64051 0.05932 0.54603
 C206 C 0.61290 0.04802 0.53517
 H207 H 0.68247 0.03421 0.60817
 H208 H 0.74825 0.03793 0.57263
 H209 H 0.69357 0.10334 0.63475
 H210 H 0.65854 0.13132 0.57488
 H211 H 0.71314 0.06587 0.51271
 H212 H 0.72437 0.13508 0.53935
 C213 C 0.40396 0.18962 0.43802
 C214 C 0.42237 0.22601 0.43954
 C215 C 0.41177 0.23237 0.40107
 C216 C 0.39316 0.19646 0.39937
 C217 C 0.43859 0.17306 0.42498
 C218 C 0.42799 0.17942 0.38651
 C219 C 0.45725 0.20894 0.42670
 C220 C 0.44641 0.21585 0.38799
 C221 C 0.39622 0.26514 0.38779
 C222 C 0.38288 0.29182 0.37685
 C223 C 0.45277 0.13977 0.43850
 C224 C 0.46359 0.11215 0.44987
 H225 H 0.38666 0.17848 0.45874
 H226 H 0.41987 0.24553 0.46120
 H227 H 0.36663 0.19168 0.38801
 H228 H 0.43048 0.15990 0.36485
 H229 H 0.48377 0.21369 0.43808
 H230 H 0.46368 0.22702 0.36727
 C231 C 0.91667 0.29915 0.55253
 C232 C 0.93853 0.26796 0.56733
 C233 C 0.91278 0.26549 0.59841
 C234 C 0.89072 0.29617 0.58381
 C235 C 0.93922 0.32477 0.57429
 C236 C 0.91347 0.32227 0.60536
 C237 C 0.96134 0.29413 0.58888
 C238 C 0.93533 0.29110 0.62019
 C239 C 0.89741 0.23276 0.61183
 C240 C 0.88420 0.20613 0.62289
 C241 C 0.95318 0.35805 0.56068
 C242 C 0.96382 0.38568 0.54927
 H243 H 0.90915 0.30281 0.52456
 H244 H 0.94865 0.24526 0.55184
 H245 H 0.86151 0.29666 0.58185
 H246 H 0.90333 0.34496 0.62086
 H247 H 0.99054 0.29367 0.59082
 H248 H 0.94283 0.28742 0.64817
 C249 C 0.08672 0.80392 -0.05261
 C250 C 0.06473 0.77157 -0.06429
 C251 C 0.08769 0.76851 -0.09744
 C252 C 0.10988 0.80036 -0.08595
 C253 C 0.06144 0.82801 -0.07312
 C254 C 0.08440 0.82492 -0.10627
 C255 C 0.03919 0.79619 -0.08460
 C256 C 0.06241 0.79258 -0.11799
 C257 C 0.10301 0.73566 -0.11090
 C258 C 0.11621 0.70891 -0.12195
 C259 C 0.04772 0.86141 -0.05929
 C260 C 0.03743 0.88913 -0.04756
 H261 H 0.09657 0.80893 -0.02557
 H262 H 0.05682 0.74926 -0.04717
 H263 H 0.13910 0.80173 -0.08664
 H264 H 0.09233 0.84722 -0.12340
 H265 H 0.00997 0.79487 -0.08389
 H266 H 0.05258 0.78754 -0.14503
 C267 C 0.55817 0.71073 1.05424
 C268 C 0.54983 0.72797 1.09031
 C269 C 0.58948 0.73398 1.09600
 C270 C 0.59804 0.71728 1.06016
 C271 C 0.56186 0.67485 1.07261
 C272 C 0.60150 0.68092 1.07832
 C273 C 0.55328 0.69154 1.10845
 C274 C 0.59316 0.69810 1.11435
 C275 C 0.60538 0.76663 1.10911
 C276 C 0.61887 0.79321 1.12008
 C277 C 0.54725 0.64164 1.05941
 C278 C 0.53612 0.61406 1.04828
 H279 H 0.54360 0.71555 1.02938
 H280 H 0.52878 0.74771 1.09538
 H281 H 0.61662 0.72821 1.04045
 H282 H 0.62259 0.66121 1.07326
 H283 H 0.53471 0.68059 1.12815
 H284 H 0.60773 0.69325 1.13920
 C285 C 0.44082 0.44793 1.20979
 C286 C 0.40271 0.45223 1.22394
 C287 C 0.40193 0.41258 1.23218
 C288 C 0.43981 0.40806 1.21856
 C289 C 0.42575 0.43971 1.17318
 C290 C 0.42495 0.40008 1.18146
 C291 C 0.38787 0.44425 1.18678
 C292 C 0.38689 0.40438 1.19555
 C293 C 0.38867 0.39687 1.26475
 C294 C 0.37767 0.38345 1.29126
 C295 C 0.43919 0.45403 1.14004
 C296 C 0.45050 0.46492 1.11252
 H297 H 0.46313 0.46602 1.21527
 H298 H 0.39341 0.47349 1.24180
 H299 H 0.46102 0.39300 1.23197
 H300 H 0.43424 0.37878 1.16364
 H301 H 0.36666 0.45929 1.17335
 H302 H 0.36458 0.38629 1.19004
 C303 C 0.60735 -0.08516 0.32238
 C304 C 0.58666 -0.10975 0.29726
 C305 C 0.59919 -0.08748 0.26596
 C306 C 0.62010 -0.06309 0.29059
 C307 C 0.57468 -0.06131 0.32525
 C308 C 0.58719 -0.03899 0.29398
 C309 C 0.55379 -0.08570 0.30060
 C310 C 0.56651 -0.06363 0.26880
 C311 C 0.61278 -0.10270 0.23321
 C312 C 0.62395 -0.11581 0.20655
 C313 C 0.56086 -0.04748 0.35851
 C314 C 0.54928 -0.03690 0.38609
 H315 H 0.62399 -0.09386 0.34477
 H316 H 0.58658 -0.13900 0.29826
 H317 H 0.64752 -0.05397 0.28610
 H318 H 0.58726 -0.00974 0.29302
 H319 H 0.52637 -0.09484 0.30507
 H320 H 0.54987 -0.05495 0.24640
 C321 C -0.06779 1.04327 -0.20806
 C322 C -0.10714 1.05073 -0.21636
 C323 C -0.09669 1.08684 -0.23132
 C324 C -0.05759 1.07962 -0.22356
 C325 C -0.07269 1.06073 -0.17189
 C326 C -0.06228 1.09684 -0.18690
 C327 C -0.11179 1.06795 -0.17964
 C328 C -0.10156 1.10427 -0.19513
 C329 C -0.10999 1.10208 -0.26412
 C330 C -0.12096 1.11519 -0.29082
 C331 C -0.05902 1.04712 -0.13853
 C332 C -0.04740 1.03695 -0.11085
 H333 H -0.05376 1.01802 -0.21299
 H334 H -0.12573 1.03194 -0.22887
 H335 H -0.03545 1.08460 -0.24198
 H336 H -0.04369 1.11567 -0.17443
 H337 H -0.13393 1.06299 -0.16122
 H338 H -0.11558 1.12952 -0.19015
 C339 C 1.05941 0.55094 0.71072
 C340 C 1.09802 0.54845 0.72393
 C341 C 1.09687 0.58793 0.73303
 C342 C 1.05850 0.59065 0.72035
 C343 C 1.07317 0.56060 0.67398
 C344 C 1.07204 0.60007 0.68312
 C345 C 1.11154 0.55787 0.68664
 C346 C 1.11059 0.59757 0.69627
 C347 C 1.11010 0.60372 0.76564
 C348 C 1.12110 0.61718 0.79218
 C349 C 1.05979 0.54615 0.64081
 C350 C 1.04853 0.53515 0.61327
 H351 H 1.03823 0.53158 0.71628
 H352 H 1.10884 0.52740 0.74110
 H353 H 1.03684 0.60431 0.73456
 H354 H 1.06123 0.62115 0.66599
 H355 H 1.13319 0.54422 0.67242
 H356 H 1.13177 0.61693 0.69068
 C357 C 0.82180 0.58739 0.59759
 C358 C 0.80069 0.61909 0.58287
 C359 C 0.76668 0.59741 0.58620
 C360 C 0.78732 0.56592 0.60113
 C361 C 0.82619 0.57324 0.55995
 C362 C 0.79218 0.55155 0.56328
 C363 C 0.80558 0.60473 0.54498
 C364 C 0.77100 0.58327 0.54855
 C365 C 0.73383 0.61079 0.60153
 C366 C 0.70711 0.62179 0.61476
 C367 C 0.85961 0.55947 0.54628
 C368 C 0.88735 0.54777 0.53606
 H369 H 0.84304 0.58896 0.61762
 H370 H 0.80383 0.64701 0.59111
 H371 H 0.77948 0.55010 0.62437
 H372 H 0.78904 0.52363 0.55505
 H373 H 0.81347 0.62053 0.52174
 H374 H 0.74973 0.58172 0.52856
 C375 C 0.70745 0.42319 1.03945
 C376 C 0.72722 0.43972 1.07111
 C377 C 0.73195 0.40272 1.08683
 C378 C 0.71273 0.38594 1.05542
 C379 C 0.67268 0.42666 1.05990
 C380 C 0.67742 0.38966 1.07563
 C381 C 0.69194 0.44339 1.09131
 C382 C 0.69715 0.40621 1.10723
 C383 C 0.76466 0.38945 1.10252
 C384 C 0.79127 0.37848 1.11598
 C385 C 0.63937 0.44031 1.04589
 C386 C 0.61169 0.45197 1.03548
 H387 H 0.71130 0.43031 1.01140
 H388 H 0.74805 0.46017 1.06944
 H389 H 0.72166 0.36216 1.04084
 H390 H 0.65659 0.36921 1.07731
 H391 H 0.68304 0.46717 1.10592
 H392 H 0.69326 0.39911 1.13528
 C393 C 0.21209 1.06512 -0.04693
 C394 C 0.22401 1.05949 -0.08552
 C395 C 0.23423 1.09862 -0.08750
 C396 C 0.22284 1.10449 -0.04914
 C397 C 0.17511 1.07502 -0.06019
 C398 C 0.18532 1.11415 -0.06217
 C399 C 0.18654 1.06919 -0.09854
 C400 C 0.19724 1.10849 -0.10073
 C401 C 0.26687 1.11175 -0.10331
 C402 C 0.29344 1.12262 -0.11684
 C403 C 0.14190 1.06167 -0.04579
 C404 C 0.11432 1.05041 -0.03485
 H405 H 0.21781 1.04715 -0.02462
 H406 H 0.24027 1.03716 -0.09530
 H407 H 0.23816 1.11915 -0.02901
 H408 H 0.16905 1.13648 -0.05239
 H409 H 0.17126 1.05453 -0.11870
 H410 H 0.19148 1.12646 -0.12304
 C411 C 0.31938 -0.11433 0.43149
 C412 C 0.28271 -0.11065 0.44916
 C413 C 0.26710 -0.09948 0.41358
 C414 C 0.30324 -0.10337 0.39572
 C415 C 0.32661 -0.07531 0.43963
 C416 C 0.31094 -0.06417 0.40406
 C417 C 0.29049 -0.07139 0.45753
 C418 C 0.27434 -0.06046 0.42172
 C419 C 0.23425 -0.11280 0.39833
 C420 C 0.20751 -0.12370 0.38512
 C421 C 0.36001 -0.06153 0.45320
 C422 C 0.38771 -0.04981 0.46335
 H423 H 0.33826 -0.13633 0.43567
 H424 H 0.27071 -0.12992 0.46753
 H425 H 0.30813 -0.11665 0.37013
 H426 H 0.32291 -0.04492 0.38565
 H427 H 0.28564 -0.05809 0.48312
 H428 H 0.25546 -0.03845 0.41752
 C429 C 0.53766 -0.20704 0.58188
 C430 C 0.56548 -0.23016 0.56275
 C431 C 0.58596 -0.23359 0.59745
 C432 C 0.55839 -0.21102 0.61681
 C433 C 0.55961 -0.17418 0.57323
 C434 C 0.58009 -0.17763 0.60792
 C435 C 0.58718 -0.19677 0.55390
 C436 C 0.60785 -0.20069 0.58878
 C437 C 0.60137 -0.26638 0.61083
 C438 C 0.61470 -0.29305 0.62182
 C439 C 0.54589 -0.14081 0.55945
 C440 C 0.53564 -0.11311 0.54774
 H441 H 0.50864 -0.20926 0.57889
 H442 H 0.55966 -0.25213 0.54433
 H443 H 0.54673 -0.21726 0.64284
 H444 H 0.58594 -0.15567 0.62635
 H445 H 0.59887 -0.19056 0.52788
 H446 H 0.63688 -0.19842 0.59174
 C447 C 1.03842 0.70110 0.40880
 C448 C 1.05770 0.72902 0.43158
 C449 C 1.08666 0.73134 0.40343
 C450 C 1.06763 0.70398 0.38044
 C451 C 1.05987 0.67199 0.42704
 C452 C 1.08883 0.67436 0.39890
 C453 C 1.07890 0.69937 0.45001
 C454 C 1.10806 0.70220 0.42167
 C455 C 1.10227 0.76409 0.39035
 C456 C 1.11570 0.79072 0.37954
 C457 C 1.04592 0.63865 0.44050
 C458 C 1.03554 0.61096 0.45200
 H459 H 1.00962 0.70025 0.40366
 H460 H 1.04508 0.75187 0.44488
 H461 H 1.06319 0.70624 0.35167
 H462 H 1.10148 0.65152 0.38558
 H463 H 1.08337 0.69712 0.47877
 H464 H 1.13685 0.70299 0.42684
 C465 C -0.04368 1.19933 0.10226
 C466 C -0.05282 1.23190 0.07937
 C467 C -0.08856 1.23472 0.09820
 C468 C -0.07967 1.20270 0.12129
 C469 C -0.06110 1.17549 0.07458
 C470 C -0.09683 1.17835 0.09341
 C471 C -0.06998 1.20751 0.05149
 C472 C -0.10594 1.21084 0.07053
 C473 C -0.10443 1.26743 0.11136
 C474 C -0.11798 1.29406 0.12228
 C475 C -0.04658 1.14222 0.06124
 C476 C -0.03551 1.11461 0.05000
 H477 H -0.01792 1.19422 0.11515
 H478 H -0.03490 1.25431 0.07374
 H479 H -0.08385 1.20108 0.15014
 H480 H -0.11478 1.15597 0.09906
 H481 H -0.06582 1.20912 0.02264
 H482 H -0.13170 1.21592 0.05761
 C483 C 0.46163 0.29428 0.91771
 C484 C 0.43319 0.27183 0.93648
 C485 C 0.41345 0.26812 0.90139
 C486 C 0.44164 0.29002 0.88237
 C487 C 0.43979 0.32757 0.92548
 C488 C 0.42005 0.32384 0.89039
 C489 C 0.41160 0.30563 0.94446
 C490 C 0.39167 0.30143 0.90918
 C491 C 0.39806 0.23530 0.88808
 C492 C 0.38477 0.20860 0.87716
 C493 C 0.45352 0.36095 0.93922
 C494 C 0.46376 0.38866 0.95090
 H495 H 0.49056 0.29173 0.92136
 H496 H 0.43841 0.25008 0.95529
 H497 H 0.45382 0.28322 0.85669
 H498 H 0.41481 0.34558 0.87158
 H499 H 0.39940 0.31240 0.97014
 H500 H 0.36274 0.30403 0.90555
 C501 C 0.55094 0.58325 0.80136
 C502 C 0.58240 0.60896 0.79804
 C503 C 0.59652 0.58690 0.76716
 C504 C 0.56525 0.56138 0.76998
 C505 C 0.57292 0.56040 0.82653
 C506 C 0.58703 0.53828 0.79569
 C507 C 0.60419 0.58592 0.82368
 C508 C 0.61853 0.56406 0.79231
 C509 C 0.60961 0.60235 0.73439
 C510 C 0.62044 0.61563 0.70774
 C511 C 0.55945 0.54661 0.85988
 C512 C 0.54795 0.53636 0.88758
 H513 H 0.52299 0.59098 0.80543
 H514 H 0.58062 0.63818 0.79867
 H515 H 0.54937 0.55148 0.74752
 H516 H 0.58879 0.50906 0.79511
 H517 H 0.62008 0.59585 0.84612
 H518 H 0.64648 0.55635 0.78822
 C519 C 0.39050 0.07905 0.67579
 C520 C 0.38307 0.05770 0.70969
 C521 C 0.40204 0.08628 0.73121
 C522 C 0.40925 0.10783 0.69781
 C523 C 0.42586 0.05960 0.67187
 C524 C 0.44479 0.08818 0.69342
 C525 C 0.41867 0.03800 0.70524
 C526 C 0.43741 0.06683 0.72731
 C527 C 0.38887 0.10185 0.76398
 C528 C 0.37803 0.11524 0.79064
 C529 C 0.43946 0.04568 0.63854
 C530 C 0.45106 0.03529 0.61089
 H531 H 0.37135 0.08391 0.65424
 H532 H 0.35754 0.04535 0.71677
 H533 H 0.40525 0.13670 0.69509
 H534 H 0.47032 0.10056 0.68637
 H535 H 0.42269 0.00912 0.70791
 H536 H 0.45655 0.06200 0.74886
 C537 C 0.05872 0.94759 0.21130
 C538 C 0.06087 0.90766 0.21964
 C539 C 0.09832 0.91311 0.23404
 C540 C 0.09639 0.95281 0.22623
 C541 C 0.07474 0.94022 0.17490
 C542 C 0.11219 0.94568 0.18927
 C543 C 0.07668 0.90054 0.18277
 C544 C 0.11431 0.90576 0.19763
 C545 C 0.11144 0.89740 0.26669
 C546 C 0.12232 0.88395 0.29326
 C547 C 0.06140 0.95452 0.14169
 C548 C 0.05015 0.96540 0.11412
 H549 H 0.03572 0.96497 0.21654
 H550 H 0.03992 0.89186 0.23248
 H551 H 0.10465 0.97412 0.24449
 H552 H 0.13313 0.96148 0.17642
 H553 H 0.06844 0.87919 0.16453
 H554 H 0.13731 0.88838 0.19236
 C555 C 0.93798 0.40531 0.31017
 C556 C 0.89924 0.39444 0.30349
 C557 C 0.90044 0.41367 0.26798
 C558 C 0.93900 0.42434 0.27419
 C559 C 0.92485 0.43961 0.32738
 C560 C 0.92608 0.45888 0.29189
 C561 C 0.88629 0.42894 0.32118
 C562 C 0.88728 0.44797 0.28515
 C563 C 0.88699 0.39848 0.23517
 C564 C 0.87600 0.38533 0.20846
 C565 C 0.93876 0.45314 0.36072
 C566 C 0.95056 0.46326 0.38837
 H567 H 0.95898 0.38791 0.32081
 H568 H 0.88808 0.36778 0.30792
 H569 H 0.96053 0.42228 0.25451
 H570 H 0.93727 0.48554 0.28751
 H571 H 0.86477 0.43099 0.34086
 H572 H 0.86627 0.46534 0.27447
   
