data_POSCAR
  _audit_creation_date              2014-09-24
  _audit_creation_method            'ToBaCCo'
  _symmetry_space_group_name_H-M    'P1'
  _symmetry_Int_Tables_number       1
  _symmetry_cell_setting            triclinic
  loop_
  _symmetry_equiv_pos_as_xyz
 x,y,z
_cell_length_a 23.6744
_cell_length_b 23.6403
_cell_length_c 23.7155
_cell_angle_alpha 90.156900
_cell_angle_beta 90.048800
_cell_angle_gamma 89.866200
loop_
  _atom_site_label
  _atom_site_type_symbol
  _atom_site_fract_x
  _atom_site_fract_y
  _atom_site_fract_z
N1 N 0.20540 0.20682 0.20501
 N2 N -0.20315 0.79658 0.20587
 N3 N -0.20776 0.20488 -0.20568
 N4 N 0.20403 0.79513 -0.20453
 N5 N 0.19735 1.19554 0.80511
 N6 N 0.79559 0.79560 0.79197
 N7 N 0.20533 0.79403 1.20478
 N8 N 0.79606 1.20417 1.20372
 O9 O 0.42170 1.10000 1.10176
 O10 O 0.35870 1.04756 1.04991
 C11 C 0.37087 1.08547 1.08758
 O12 O 0.57754 1.09866 0.89905
 O13 O 0.64103 1.04734 0.95167
 C14 C 0.62848 1.08447 0.91342
 O15 O 0.41950 1.10146 0.90310
 O16 O 0.35757 1.04766 0.95459
 C17 C 0.36898 1.08623 0.91766
 O18 O 0.57956 1.09647 1.10316
 O19 O 0.64203 1.04569 1.04876
 C20 C 0.63026 1.08238 1.08777
 Zr21 Zr 0.50020 1.06928 1.07253
 O22 O 0.50526 1.15869 1.07304
 O23 O 0.49557 1.06810 1.16170
 Zr24 Zr 0.49894 1.07055 0.93014
 O25 O 0.50397 1.15997 0.93155
 O26 O 0.49275 1.07097 0.84105
 O27 O 0.44895 1.08115 1.00184
 O28 O 0.54855 1.08036 1.00110
 O29 O 0.58007 0.90120 1.10265
 O30 O 0.64244 0.95107 1.04775
 C31 C 0.63074 0.91533 1.08745
 O32 O 0.42013 0.89591 0.90313
 O33 O 0.35749 0.95022 0.95389
 C34 C 0.36938 0.91084 0.91765
 O35 O 0.57831 0.90168 0.89564
 O36 O 0.64147 0.95111 0.95031
 C37 C 0.62922 0.91533 0.91055
 O38 O 0.42149 0.89430 1.09710
 O39 O 0.35849 0.94958 1.04812
 C40 C 0.37065 0.90996 1.08370
 Zr41 Zr 0.50058 0.92654 1.07076
 O42 O 0.50781 0.83726 1.06870
 O43 O 0.49451 0.92424 1.15976
 Zr44 Zr 0.49957 0.92789 0.92863
 O45 O 0.50651 0.83859 0.92730
 O46 O 0.49223 0.92862 0.83965
 Zr47 Zr 0.41543 0.99862 1.00112
 Zr48 Zr 0.58415 0.99866 0.99990
 O49 O 0.54933 0.91682 0.99928
 O50 O 0.44959 0.91607 0.99990
 O51 O 0.55093 0.99790 1.08242
 O52 O 0.45006 0.99915 0.91936
 O53 O 0.45137 0.99774 1.08235
 O54 O 0.54976 0.99942 0.91785
 H55 H 0.57361 1.11388 1.00139
 H56 H 0.42449 0.99908 0.88626
 H57 H 0.57502 0.88367 0.99888
 H58 H 0.42638 0.99719 1.11584
 H59 H 0.52530 1.04942 0.82601
 H60 H 0.52291 0.95270 0.82488
 H61 H 0.47560 0.82334 0.95075
 H62 H 0.47530 0.82248 1.04702
 H63 H 0.52365 0.95003 1.17494
 H64 H 0.52839 1.04632 1.17576
 H65 H 0.47317 1.17324 1.05058
 H66 H 0.47152 1.17423 0.95371
 O67 O 0.09977 0.41973 -0.10169
 O68 O 0.04632 0.35742 -0.05014
 C69 C 0.08490 0.36903 -0.08708
 O70 O 0.09913 0.57766 0.10016
 O71 O 0.04782 0.64133 0.04782
 C72 C 0.08503 0.62871 0.08603
 O73 O 0.10193 0.41984 0.09557
 O74 O 0.04705 0.35742 0.04545
 C75 C 0.08644 0.36914 0.08165
 O76 O 0.09519 0.57868 -0.10555
 O77 O 0.04667 0.64175 -0.04967
 C78 C 0.08181 0.62961 -0.08982
 Zr79 Zr 0.06950 0.49934 -0.07352
 O80 O 0.15877 0.50492 -0.07287
 O81 O 0.07002 0.49343 -0.16259
 Zr82 Zr 0.07100 0.49905 0.06862
 O83 O 0.16029 0.50402 0.06683
 O84 O 0.07235 0.49303 0.15767
 O85 O 0.08107 0.44836 -0.00280
 O86 O 0.08095 0.54837 -0.00228
 O87 O -0.09902 0.58050 -0.10312
 O88 O -0.04762 0.64275 -0.04913
 C89 C -0.08434 0.63120 -0.08809
 O90 O -0.10260 0.42083 0.09732
 O91 O -0.05037 0.35778 0.04491
 C92 C -0.08827 0.36990 0.08245
 O93 O -0.09823 0.57936 0.10205
 O94 O -0.04743 0.64201 0.04837
 C95 C -0.08407 0.63015 0.08718
 O96 O -0.10632 0.42225 -0.09836
 O97 O -0.05096 0.35866 -0.05028
 C98 C -0.09109 0.37121 -0.08533
 Zr99 Zr -0.07299 0.50083 -0.07210
 O100 O -0.16211 0.50834 -0.07194
 O101 O -0.07335 0.49449 -0.16118
 Zr102 Zr -0.07167 0.50010 0.07011
 O103 O -0.16091 0.50644 0.07011
 O104 O -0.07127 0.49421 0.15916
 Zr105 Zr -0.00159 0.41526 -0.00216
 Zr106 Zr -0.00051 0.58423 -0.00102
 O107 O -0.08240 0.54974 -0.00060
 O108 O -0.08380 0.44991 -0.00121
 O109 O -0.00152 0.55065 -0.08355
 O110 O -0.00051 0.45047 0.07948
 O111 O -0.00224 0.45092 -0.08346
 O112 O 0.00008 0.55009 0.08099
 H113 H 0.11428 0.57363 -0.00261
 H114 H -0.00037 0.42521 0.11275
 H115 H -0.11553 0.57544 -0.00037
 H116 H -0.00285 0.42569 -0.11690
 H117 H 0.04938 0.52460 0.17279
 H118 H -0.04716 0.52510 0.17371
 H119 H -0.17584 0.47371 0.04877
 H120 H -0.17707 0.47808 -0.04747
 H121 H -0.05115 0.52654 -0.17606
 H122 H 0.04496 0.52356 -0.17715
 H123 H 0.17345 0.47150 -0.05251
 H124 H 0.17435 0.47154 0.04447
 O125 O 1.10572 -0.09497 0.57945
 O126 O 1.05011 -0.04563 0.64189
 C127 C 1.08995 -0.08138 0.63009
 O128 O 1.09858 0.10684 0.42212
 O129 O 1.04995 0.05126 0.35901
 C130 C 1.08524 0.09133 0.37130
 O131 O 1.10309 0.10191 0.58026
 O132 O 1.05019 0.04955 0.64236
 C133 C 1.08847 0.08691 0.63077
 O134 O 1.10059 -0.10081 0.42163
 O135 O 1.05066 -0.04645 0.35861
 C136 C 1.08679 -0.08599 0.37083
 Zr137 Zr 1.07427 -0.06825 0.50038
 O138 O 1.16348 -0.06585 0.49427
 O139 O 1.07707 -0.15750 0.50649
 Zr140 Zr 1.07273 0.07427 0.50089
 O141 O 1.16199 0.07351 0.49507
 O142 O 1.07318 0.16359 0.50723
 O143 O 1.08438 0.00307 0.55123
 O144 O 1.08408 0.00306 0.45151
 O145 O 0.90418 -0.10055 0.42087
 O146 O 0.95496 -0.04660 0.35853
 C147 C 0.91826 -0.08544 0.37030
 O148 O 0.89718 0.09918 0.57880
 O149 O 0.95259 0.05014 0.64150
 C150 C 0.91269 0.08574 0.62951
 O151 O 0.90257 0.10354 0.42077
 O152 O 0.95510 0.05078 0.35835
 C153 C 0.91741 0.08887 0.37012
 O154 O 0.90067 -0.09735 0.57849
 O155 O 0.95307 -0.04548 0.64165
 C156 C 0.91502 -0.08293 0.62930
 Zr157 Zr 0.93162 -0.06959 0.49983
 O158 O 0.84236 -0.07019 0.49411
 O159 O 0.93310 -0.15900 0.50504
 Zr160 Zr 0.93023 0.07323 0.50002
 O161 O 0.84106 0.07445 0.49365
 O162 O 0.93129 0.16261 0.50630
 Zr163 Zr 1.00177 0.00231 0.58448
 Zr164 Zr 1.00252 0.00227 0.41609
 O165 O 0.92074 0.00172 0.45099
 O166 O 0.91950 0.00173 0.55030
 O167 O 1.00320 -0.08022 0.44968
 O168 O 1.00111 0.08412 0.54955
 O169 O 1.00289 -0.07940 0.54898
 O170 O 1.00155 0.08487 0.45002
 H171 H 1.11728 0.00323 0.42609
 H172 H 1.00062 0.11745 0.57498
 H173 H 0.88731 0.00156 0.42583
 H174 H 1.00321 -0.11289 0.57402
 H175 H 1.04746 0.17830 0.47781
 H176 H 0.95084 0.17736 0.47257
 H177 H 0.82626 0.04826 0.52249
 H178 H 0.82746 -0.04806 0.52631
 H179 H 0.95448 -0.17341 0.47216
 H180 H 1.05074 -0.17276 0.47790
 H181 H 1.17782 -0.04436 0.52712
 H182 H 1.17673 0.05293 0.52824
 C183 C 1.08835 0.14261 0.26883
 C184 C 1.11916 0.19992 0.27750
 C185 C 1.17057 0.17559 0.24585
 C186 C 1.14042 0.11896 0.23626
 C187 C 1.19636 0.15456 0.30139
 C188 C 1.14462 0.17804 0.33332
 C189 C 1.11430 0.12122 0.32430
 C190 C 1.16579 0.09733 0.29267
 H191 H 1.04353 0.13741 0.25606
 H192 H 1.09903 0.24199 0.27283
 H193 H 1.13901 0.09509 0.19593
 H194 H 1.24084 0.16042 0.31498
 H195 H 1.14626 0.20229 0.37344
 H196 H 1.18501 0.05512 0.29977
 C197 C 0.83327 -0.09373 0.29560
 C198 C 0.85665 -0.11139 0.23693
 C199 C 0.83190 -0.17072 0.24566
 C200 C 0.80784 -0.15354 0.30334
 C201 C 0.88692 -0.19163 0.27332
 C202 C 0.91230 -0.13170 0.26537
 C203 C 0.88837 -0.11449 0.32311
 C204 C 0.86315 -0.17383 0.33127
 H205 H 0.81164 -0.05317 0.30540
 H206 H 0.85396 -0.08602 0.19772
 H207 H 0.76459 -0.16313 0.31857
 H208 H 0.91076 -0.23140 0.26671
 H209 H 0.95474 -0.12114 0.24910
 H210 H 0.86583 -0.19955 0.37029
 C211 C 0.90686 0.12972 0.73534
 C212 C 0.88398 0.19093 0.72868
 C213 C 0.82777 0.17180 0.75503
 C214 C 0.85017 0.11117 0.76254
 C215 C 0.80396 0.15702 0.69655
 C216 C 0.86039 0.17562 0.66990
 C217 C 0.88299 0.11498 0.67682
 C218 C 0.82691 0.09600 0.70309
 H219 H 0.94887 0.11732 0.75167
 H220 H 0.91005 0.22881 0.73709
 H221 H 0.84641 0.08495 0.80110
 H222 H 0.76123 0.16865 0.68108
 H223 H 0.86456 0.20205 0.63151
 H224 H 0.80375 0.05682 0.69179
 C225 C 1.17577 -0.14141 0.66851
 C226 C 1.19735 -0.11673 0.72484
 C227 C 1.17299 -0.16858 0.75550
 C228 C 1.15208 -0.19350 0.69941
 C229 C 1.11638 -0.13823 0.76515
 C230 C 1.14010 -0.08574 0.73351
 C231 C 1.11904 -0.11088 0.67745
 C232 C 1.09493 -0.16268 0.70816
 H233 H 1.20025 -0.14271 0.62862
 H234 H 1.23887 -0.09584 0.72966
 H235 H 1.15782 -0.23795 0.68531
 H236 H 1.09244 -0.13721 0.80535
 H237 H 1.13484 -0.04106 0.74704
 H238 H 1.05254 -0.18122 0.70064
 C239 C 0.33396 1.14713 1.17319
 C240 C 0.29968 1.19720 1.14946
 C241 C 0.24562 1.17091 1.17361
 C242 C 0.27967 1.12114 1.19810
 C243 C 0.23471 1.13837 1.11856
 C244 C 0.28961 1.16423 1.09382
 C245 C 0.32371 1.11452 1.11786
 C246 C 0.26977 1.08798 1.14235
 H247 H 0.37494 1.15081 1.19569
 H248 H 0.31190 1.24237 1.15311
 H249 H 0.27727 1.10165 1.24043
 H250 H 0.19341 1.13507 1.09663
 H251 H 0.29442 1.18191 1.05087
 H252 H 0.25809 1.04265 1.13931
 C253 C 0.29061 0.90479 0.83729
 C254 C 0.29979 0.84755 0.80669
 C255 C 0.24396 0.82630 0.83172
 C256 C 0.23394 0.88299 0.86192
 C257 C 0.27525 0.80220 0.88333
 C258 C 0.33132 0.82418 0.85854
 C259 C 0.32198 0.88104 0.88885
 C260 C 0.26624 0.85957 0.91418
 H261 H 0.29754 0.94725 0.81867
 H262 H 0.31370 0.84174 0.76235
 H263 H 0.19343 0.90668 0.86303
 H264 H 0.27077 0.76057 0.90410
 H265 H 0.37155 0.80000 0.85713
 H266 H 0.25318 0.86476 0.95885
 C267 C 0.71149 0.83628 1.09442
 C268 C 0.76693 0.86233 1.11794
 C269 C 0.75642 0.83139 1.17378
 C270 C 0.70187 0.80492 1.15087
 C271 C 0.72318 0.88211 1.19761
 C272 C 0.73267 0.91372 1.14107
 C273 C 0.67818 0.88702 1.11782
 C274 C 0.66837 0.85593 1.17391
 H275 H 0.70596 0.81754 1.05184
 H276 H 0.80796 0.86456 1.09547
 H277 H 0.68918 0.76003 1.15574
 H278 H 0.72662 0.90190 1.23987
 H279 H 0.74472 0.95884 1.13666
 H280 H 0.62766 0.85332 1.19697
 C281 C 0.66659 1.13875 0.82430
 C282 C 0.69431 1.19454 0.84372
 C283 C 0.75221 1.17034 0.82701
 C284 C 0.72475 1.11493 0.80685
 C285 C 0.76122 1.14643 0.88649
 C286 C 0.70241 1.16997 0.90372
 C287 C 0.67516 1.11440 0.88384
 C288 C 0.73306 1.09039 0.86696
 H289 H 0.62739 1.13551 0.79876
 H290 H 0.67861 1.23756 0.83340
 H291 H 0.73163 1.09108 0.76721
 H292 H 0.80047 1.14941 0.91191
 H293 H 0.69264 1.19222 0.94385
 H294 H 0.74976 1.04824 0.87821
 C295 C 0.09562 0.29552 0.16694
 C296 C 0.11300 0.23611 0.14465
 C297 C 0.17249 0.24547 0.16885
 C298 C 0.15556 0.30391 0.19174
 C299 C 0.19281 0.27190 0.11321
 C300 C 0.13274 0.26341 0.08841
 C301 C 0.11576 0.32187 0.11129
 C302 C 0.17530 0.33058 0.13587
 H303 H 0.05533 0.30583 0.18862
 H304 H 0.08762 0.19688 0.14825
 H305 H 0.16554 0.32026 0.23451
 H306 H 0.23186 0.26459 0.08863
 H307 H 0.12290 0.24622 0.04617
 H308 H 0.20105 0.36958 0.13217
 C309 C -0.17534 0.33474 -0.14912
 C310 C -0.15033 0.29898 -0.19754
 C311 C -0.17620 0.24586 -0.17099
 C312 C -0.20196 0.28136 -0.12294
 C313 C -0.12243 0.23470 -0.13651
 C314 C -0.09593 0.28871 -0.16254
 C315 C -0.12136 0.32423 -0.11445
 C316 C -0.14752 0.27117 -0.08780
 H317 H -0.19710 0.37607 -0.15425
 H318 H -0.15223 0.31038 -0.24288
 H319 H -0.24540 0.27980 -0.10570
 H320 H -0.10123 0.19304 -0.13191
 H321 H -0.05200 0.29241 -0.17843
 H322 H -0.14598 0.26023 -0.04235
 C323 C 0.16217 0.70845 -0.09542
 C324 C 0.19310 0.69923 -0.15223
 C325 C 0.16788 0.75510 -0.17364
 C326 C 0.13737 0.76517 -0.11737
 C327 C 0.11641 0.72371 -0.19804
 C328 C 0.14137 0.66759 -0.17591
 C329 C 0.11074 0.67696 -0.11947
 C330 C 0.08524 0.73276 -0.14109
 H331 H 0.18073 0.70151 -0.05298
 H332 H 0.23757 0.68530 -0.15765
 H333 H 0.13604 0.80578 -0.09380
 H334 H 0.09587 0.72824 -0.23975
 H335 H 0.14299 0.62727 -0.19999
 H336 H 0.04044 0.74590 -0.13630
 C337 C -0.17220 0.66897 0.14344
 C338 C -0.15117 0.70003 0.19672
 C339 C -0.17068 0.75632 0.17093
 C340 C -0.19239 0.72553 0.11793
 C341 C -0.11249 0.76562 0.14391
 C342 C -0.09248 0.70838 0.16919
 C343 C -0.11386 0.67765 0.11625
 C344 C -0.13358 0.73391 0.09036
 H345 H -0.19676 0.62901 0.14329
 H346 H -0.15901 0.68651 0.24081
 H347 H -0.23266 0.73064 0.09472
 H348 H -0.08842 0.80585 0.14410
 H349 H -0.05141 0.70045 0.19026
 H350 H -0.12584 0.74769 0.04650
 C351 C 1.14925 0.17211 0.67240
 C352 C 1.12027 0.19418 0.72656
 C353 C 1.16882 0.16863 0.76162
 C354 C 1.19836 0.14760 0.70777
 C355 C 1.13708 0.11251 0.76813
 C356 C 1.08811 0.13746 0.73229
 C357 C 1.11738 0.11583 0.67860
 C358 C 1.16605 0.09074 0.71342
 H359 H 1.15408 0.19642 0.63272
 H360 H 1.09988 0.23628 0.72915
 H361 H 1.24372 0.15294 0.69730
 H362 H 1.13234 0.08844 0.80796
 H363 H 1.04264 0.13329 0.74193
 H364 H 1.18458 0.04801 0.70714
 C365 C 0.85721 -0.17067 0.66538
 C366 C 0.88259 -0.19325 0.72088
 C367 C 0.83017 -0.17115 0.75244
 C368 C 0.80448 -0.14937 0.69711
 C369 C 0.85866 -0.11391 0.76375
 C370 C 0.91174 -0.13536 0.73126
 C371 C 0.88584 -0.11320 0.67604
 C372 C 0.83337 -0.09150 0.70756
 H373 H 0.85661 -0.19405 0.62471
 H374 H 0.90378 -0.23488 0.72469
 H375 H 0.76045 -0.15625 0.68258
 H376 H 0.85911 -0.09096 0.80463
 H377 H 0.95624 -0.12927 0.74472
 H378 H 0.81331 -0.04949 0.70152
 C379 C 1.15515 -0.16741 0.33547
 C380 C 1.12764 -0.19968 0.28596
 C381 C 1.17131 -0.17350 0.24578
 C382 C 1.19931 -0.14194 0.29516
 C383 C 1.13232 -0.12303 0.23361
 C384 C 1.08804 -0.14864 0.27468
 C385 C 1.11588 -0.11674 0.32390
 C386 C 1.15972 -0.09080 0.28387
 H387 H 1.16478 -0.18578 0.37744
 H388 H 1.11229 -0.24369 0.28935
 H389 H 1.24537 -0.13986 0.30372
 H390 H 1.12342 -0.10501 0.19135
 H391 H 1.04218 -0.15238 0.26696
 H392 H 1.17269 -0.04577 0.28358
 C393 C 0.86479 0.08942 0.26839
 C394 C 0.80719 0.11949 0.27770
 C395 C 0.82935 0.17048 0.24417
 C396 C 0.88632 0.14103 0.23390
 C397 C 0.85151 0.19816 0.29851
 C398 C 0.83005 0.14688 0.33224
 C399 C 0.88721 0.11726 0.32267
 C400 C 0.90910 0.16825 0.28916
 H401 H 0.87052 0.04428 0.25663
 H402 H 0.76591 0.09775 0.27489
 H403 H 0.90890 0.13888 0.19296
 H404 H 0.84515 0.24302 0.31097
 H405 H 0.80687 0.14943 0.37286
 H406 H 0.95120 0.18813 0.29458
 C407 C 0.09627 0.29358 -0.17129
 C408 C 0.15841 0.29627 -0.19195
 C409 C 0.16897 0.23788 -0.16561
 C410 C 0.10736 0.23422 -0.14556
 C411 C 0.18735 0.26539 -0.10949
 C412 C 0.17601 0.32421 -0.13553
 C413 C 0.11441 0.32092 -0.11533
 C414 C 0.12518 0.26252 -0.08920
 H415 H 0.05853 0.30594 -0.19622
 H416 H 0.17263 0.30973 -0.23443
 H417 H 0.07930 0.19686 -0.14944
 H418 H 0.22374 0.25703 -0.08146
 H419 H 0.20400 0.36160 -0.13130
 H420 H 0.11023 0.24862 -0.04734
 C421 C -0.16873 0.28992 0.09115
 C422 C -0.14205 0.23386 0.11280
 C423 C -0.17005 0.24423 0.17033
 C424 C -0.19720 0.29935 0.14926
 C425 C -0.11807 0.27684 0.19185
 C426 C -0.08947 0.26742 0.13371
 C427 C -0.11679 0.32250 0.11245
 C428 C -0.14497 0.33216 0.17013
 H429 H -0.18943 0.29609 0.04961
 H430 H -0.14105 0.19295 0.08974
 H431 H -0.24167 0.31245 0.15642
 H432 H -0.09531 0.27344 0.23249
 H433 H -0.04474 0.25487 0.12702
 H434 H -0.14626 0.37276 0.19373
 C435 C -0.17294 0.67025 -0.14243
 C436 C -0.19109 0.72805 -0.11806
 C437 C -0.17102 0.75637 -0.17286
 C438 C -0.15341 0.69880 -0.19746
 C439 C -0.11159 0.76557 -0.14834
 C440 C -0.13111 0.73638 -0.09297
 C441 C -0.11346 0.67878 -0.11759
 C442 C -0.09354 0.70700 -0.17236
 H443 H -0.19826 0.63085 -0.14011
 H444 H -0.23016 0.73446 -0.09327
 H445 H -0.16315 0.68366 -0.24073
 H446 H -0.08664 0.80517 -0.15064
 H447 H -0.12118 0.75197 -0.05007
 H448 H -0.05315 0.69770 -0.19432
 C449 C 0.13970 0.72929 0.08916
 C450 C 0.11684 0.76424 0.14002
 C451 C 0.17251 0.75292 0.17131
 C452 C 0.19601 0.71880 0.12113
 C453 C 0.14867 0.69880 0.19783
 C454 C 0.09229 0.70932 0.16616
 C455 C 0.11530 0.67540 0.11576
 C456 C 0.17123 0.66458 0.14718
 H457 H 0.13578 0.74123 0.04408
 H458 H 0.09471 0.80553 0.13703
 H459 H 0.23882 0.72110 0.10243
 H460 H 0.15404 0.68455 0.24203
 H461 H 0.04961 0.70486 0.18477
 H462 H 0.19363 0.62337 0.15012
 C463 C 0.28851 1.16590 0.91022
 C464 C 0.29434 1.19380 0.85138
 C465 C 0.23890 1.16534 0.83341
 C466 C 0.23207 1.13793 0.89169
 C467 C 0.27140 1.11325 0.81104
 C468 C 0.32720 1.14148 0.82977
 C469 C 0.32093 1.11414 0.88816
 C470 C 0.26553 1.08558 0.86996
 H471 H 0.29667 1.18733 0.95103
 H472 H 0.30583 1.23854 0.84327
 H473 H 0.19250 1.13661 0.91673
 H474 H 0.26726 1.08840 0.77166
 H475 H 0.36660 1.14283 0.80447
 H476 H 0.25434 1.04072 0.87791
 C477 C 0.26254 0.90321 1.12053
 C478 C 0.23996 0.84291 1.10742
 C479 C 0.24416 0.82880 1.17064
 C480 C 0.26586 0.88872 1.18426
 C481 C 0.30493 0.80714 1.16308
 C482 C 0.30160 0.82166 1.09959
 C483 C 0.32328 0.88130 1.11318
 C484 C 0.32695 0.86717 1.17626
 H485 H 0.24553 0.94295 1.10233
 H486 H 0.20396 0.83407 1.07879
 H487 H 0.25304 0.91933 1.21723
 H488 H 0.32192 0.76726 1.18104
 H489 H 0.31695 0.79448 1.06454
 H490 H 0.36313 0.87718 1.20436
 C491 C 0.73264 1.13385 1.08930
 C492 C 0.72323 1.19216 1.11806
 C493 C 0.75587 1.17060 1.16993
 C494 C 0.76623 1.11291 1.14178
 C495 C 0.70089 1.14943 1.19686
 C496 C 0.66805 1.17030 1.14472
 C497 C 0.67771 1.11243 1.11639
 C498 C 0.71030 1.09113 1.16826
 H499 H 0.74504 1.12716 1.04463
 H500 H 0.72657 1.23310 1.09576
 H501 H 0.80707 1.08981 1.14079
 H502 H 0.68776 1.15676 1.24121
 H503 H 0.62748 1.19392 1.14605
 H504 H 0.70427 1.04942 1.18874
 C505 C 0.71138 0.83695 0.90430
 C506 C 0.70119 0.80313 0.84910
 C507 C 0.75455 0.83003 0.82401
 C508 C 0.76561 0.86327 0.87856
 C509 C 0.71938 0.87895 0.79946
 C510 C 0.66581 0.85249 0.82533
 C511 C 0.67629 0.88604 0.88008
 C512 C 0.72956 0.91281 0.85461
 H513 H 0.70748 0.81976 0.94758
 H514 H 0.68945 0.75779 0.84599
 H515 H 0.80710 0.86738 0.89998
 H516 H 0.72064 0.89819 0.75698
 H517 H 0.62464 0.84797 0.80334
 H518 H 0.74116 0.95794 0.85635
   
