data_POSCAR
  _audit_creation_date              2014-09-24
  _audit_creation_method            'ToBaCCo'
  _symmetry_space_group_name_H-M    'P1'
  _symmetry_Int_Tables_number       1
  _symmetry_cell_setting            triclinic
  loop_
  _symmetry_equiv_pos_as_xyz
 x,y,z
_cell_length_a 43.6082
_cell_length_b 43.6077
_cell_length_c 41.7769
_cell_angle_alpha 90.039800
_cell_angle_beta 89.901300
_cell_angle_gamma 89.982800
loop_
  _atom_site_label
  _atom_site_type_symbol
  _atom_site_fract_x
  _atom_site_fract_y
  _atom_site_fract_z
C1 C 0.29684 0.29175 0.23751
 H2 H 0.29826 0.29221 0.26336
 C3 C 0.31654 0.30995 0.21923
 H4 H 0.33313 0.32460 0.23098
 C5 C 0.27367 0.27194 0.19051
 H6 H 0.25725 0.25681 0.17937
 C7 C 0.29295 0.28977 0.17133
 H8 H 0.29109 0.28855 0.14551
 N9 N 0.27566 0.27356 0.22299
 C10 C 0.20328 0.26132 0.29412
 H11 H 0.20191 0.23656 0.29484
 C12 C 0.18362 0.27897 0.31309
 H13 H 0.16709 0.26781 0.32858
 C14 C 0.22623 0.30622 0.27283
 H15 H 0.24252 0.31679 0.25678
 C16 C 0.20699 0.32471 0.29137
 H17 H 0.20876 0.34944 0.28979
 Zn18 Zn 0.24994 0.24959 0.24963
 N19 N 0.22433 0.27512 0.27482
 C20 C 0.27399 0.22726 0.30853
 N21 N 0.27573 0.22553 0.27603
 C22 C 0.29676 0.20721 0.26134
 C23 C 0.31656 0.18902 0.27946
 C24 C 0.29338 0.20946 0.32754
 C25 C 0.20295 0.23808 0.20564
 C26 C 0.18305 0.22055 0.18693
 C27 C 0.20637 0.17468 0.20836
 C28 C 0.22585 0.19306 0.22667
 N29 N 0.22407 0.22418 0.22470
 H30 H 0.25771 0.24250 0.31979
 H31 H 0.29798 0.20666 0.23547
 H32 H 0.33304 0.17430 0.26757
 H33 H 0.29173 0.21080 0.35338
 H34 H 0.20169 0.26285 0.20495
 H35 H 0.16645 0.23179 0.17165
 H36 H 0.20802 0.14994 0.20993
 H37 H 0.24220 0.18240 0.24252
 C38 C 0.18559 0.31095 0.31177
 C39 C 0.31446 0.30905 0.18585
 C40 C 0.18487 0.18856 0.18823
 C41 C 0.31475 0.19008 0.31286
 C42 C 0.79753 0.79274 0.23705
 H43 H 0.79898 0.79326 0.26290
 C44 C 0.81712 0.81102 0.21871
 H45 H 0.83364 0.82574 0.23049
 C46 C 0.77437 0.77274 0.19014
 H47 H 0.75801 0.75752 0.17907
 C48 C 0.79353 0.79063 0.17088
 H49 H 0.79156 0.78929 0.14506
 N50 N 0.77641 0.77443 0.22261
 C51 C 0.70410 0.76206 0.29381
 H52 H 0.70280 0.73729 0.29453
 C53 C 0.68439 0.77965 0.31277
 H54 H 0.66790 0.76845 0.32827
 C55 C 0.72693 0.80701 0.27250
 H56 H 0.74318 0.81763 0.25645
 C57 C 0.70764 0.82545 0.29105
 H58 H 0.70934 0.85019 0.28947
 Zn59 Zn 0.75079 0.75042 0.24933
 N60 N 0.72511 0.77590 0.27450
 C61 C 0.77485 0.72817 0.30825
 N62 N 0.77665 0.72646 0.27575
 C63 C 0.79770 0.70815 0.26109
 C64 C 0.81744 0.68991 0.27924
 C65 C 0.79417 0.71032 0.32729
 C66 C 0.70379 0.73869 0.20540
 C67 C 0.68393 0.72104 0.18674
 C68 C 0.70742 0.67530 0.20826
 C69 C 0.72685 0.69379 0.22651
 N70 N 0.72497 0.72489 0.22447
 H71 H 0.75854 0.74339 0.31950
 H72 H 0.79897 0.70761 0.23523
 H73 H 0.83392 0.67517 0.26737
 H74 H 0.79245 0.71162 0.35313
 H75 H 0.70245 0.76345 0.20465
 H76 H 0.66729 0.73220 0.17144
 H77 H 0.70915 0.65057 0.20989
 H78 H 0.74324 0.68321 0.24238
 C79 C 0.68628 0.81163 0.31145
 C80 C 0.81499 0.81005 0.18531
 C81 C 0.68586 0.68906 0.18812
 C82 C 0.81553 0.69092 0.31264
 C83 C 0.79787 0.29111 0.73865
 H84 H 0.79933 0.29162 0.76449
 C85 C 0.81746 0.30936 0.72029
 H86 H 0.83403 0.32407 0.73198
 C87 C 0.77464 0.27118 0.69173
 H88 H 0.75824 0.25600 0.68065
 C89 C 0.79382 0.28905 0.67249
 H90 H 0.79190 0.28780 0.64667
 N91 N 0.77669 0.27285 0.72420
 C92 C 0.70433 0.26073 0.79539
 H93 H 0.70297 0.23597 0.79617
 C94 C 0.68461 0.27841 0.81426
 H95 H 0.66807 0.26729 0.82975
 C96 C 0.72727 0.30558 0.77398
 H97 H 0.74356 0.31612 0.75792
 C98 C 0.70798 0.32411 0.79243
 H99 H 0.70972 0.34884 0.79076
 Zn100 Zn 0.75100 0.24891 0.75091
 N101 N 0.72539 0.27448 0.77607
 C102 C 0.77501 0.22657 0.80982
 N103 N 0.77678 0.22485 0.77733
 C104 C 0.79779 0.20651 0.76264
 C105 C 0.81753 0.18825 0.78074
 C106 C 0.79432 0.20870 0.82886
 C107 C 0.70397 0.23739 0.70698
 C108 C 0.68409 0.21986 0.68824
 C109 C 0.70745 0.17399 0.70962
 C110 C 0.72690 0.19237 0.72796
 N111 N 0.72511 0.22349 0.72601
 H112 H 0.75873 0.24182 0.82107
 H113 H 0.79903 0.20599 0.73677
 H114 H 0.83395 0.17353 0.76871
 H115 H 0.79252 0.21011 0.85471
 H116 H 0.70270 0.26216 0.70630
 H117 H 0.66750 0.23111 0.67296
 H118 H 0.70912 0.14925 0.71116
 H119 H 0.74327 0.18171 0.74380
 C120 C 0.68656 0.31039 0.81282
 C121 C 0.81530 0.30841 0.68692
 C122 C 0.68594 0.18787 0.68950
 C123 C 0.81569 0.18924 0.81419
 C124 C 0.29668 0.79230 0.73798
 H125 H 0.29810 0.79282 0.76383
 C126 C 0.31635 0.81049 0.71965
 H127 H 0.33292 0.82518 0.73137
 C128 C 0.27354 0.77235 0.69103
 H129 H 0.25715 0.75716 0.67993
 C130 C 0.29279 0.79016 0.67181
 H131 H 0.29094 0.78887 0.64599
 N132 N 0.27553 0.77404 0.72350
 C133 C 0.20320 0.76172 0.79470
 H134 H 0.20190 0.73695 0.79546
 C135 C 0.18346 0.77934 0.81360
 H136 H 0.16696 0.76817 0.82909
 C137 C 0.22604 0.80664 0.77333
 H138 H 0.24229 0.81723 0.75726
 C139 C 0.20672 0.82511 0.79181
 H140 H 0.20841 0.84984 0.79017
 Zn141 Zn 0.24987 0.75004 0.75019
 N142 N 0.22422 0.77553 0.77538
 C143 C 0.27398 0.72767 0.80906
 N144 N 0.27573 0.72603 0.77656
 C145 C 0.29679 0.70779 0.76182
 C146 C 0.31661 0.68958 0.77989
 C147 C 0.29338 0.70984 0.82803
 C148 C 0.20289 0.73840 0.70622
 C149 C 0.18306 0.72079 0.68749
 C150 C 0.20650 0.67501 0.70896
 C151 C 0.22591 0.69345 0.72728
 N152 N 0.22405 0.72456 0.72529
 H153 H 0.25766 0.74284 0.82037
 H154 H 0.29802 0.70730 0.73596
 H155 H 0.33311 0.67490 0.76796
 H156 H 0.29172 0.71110 0.85388
 H157 H 0.20156 0.76316 0.70550
 H158 H 0.16645 0.73198 0.67218
 H159 H 0.20823 0.65027 0.71053
 H160 H 0.24229 0.68285 0.74315
 C161 C 0.18534 0.81132 0.81221
 C162 C 0.31428 0.80950 0.68627
 C163 C 0.18498 0.68881 0.68880
 C164 C 0.31478 0.69053 0.81330
 C165 C 0.04091 0.04744 0.01185
 H166 H 0.04140 0.04889 -0.01400
 C167 C 0.05916 0.06706 0.03014
 H168 H 0.07386 0.08363 0.01839
 C169 C 0.02101 0.02424 0.05884
 H170 H 0.00584 0.00783 0.06996
 C171 C 0.03888 0.04343 0.07802
 H172 H 0.03764 0.04152 0.10384
 N173 N 0.02266 0.02627 0.02636
 C174 C 0.01049 -0.04608 -0.04475
 H175 H -0.01427 -0.04743 -0.04550
 C176 C 0.02816 -0.06578 -0.06364
 H177 H 0.01702 -0.08231 -0.07911
 C178 C 0.05535 -0.02317 -0.02341
 H179 H 0.06591 -0.00689 -0.00737
 C180 C 0.07387 -0.04244 -0.04189
 H181 H 0.09860 -0.04071 -0.04026
 Zn182 Zn -0.00130 0.00058 -0.00029
 N183 N 0.02425 -0.02504 -0.02546
 C184 C -0.02361 0.02463 -0.05920
 N185 N -0.02533 0.02639 -0.02670
 C186 C -0.04366 0.04742 -0.01202
 C187 C -0.06187 0.06719 -0.03015
 C188 C -0.04145 0.04399 -0.07822
 C189 C -0.01286 -0.04643 0.04372
 C190 C -0.03042 -0.06632 0.06247
 C191 C -0.07626 -0.04294 0.04107
 C192 C -0.05785 -0.02348 0.02272
 N193 N -0.02674 -0.02529 0.02466
 H194 H -0.00838 0.00835 -0.07046
 H195 H -0.04420 0.04866 0.01384
 H196 H -0.07661 0.08366 -0.01826
 H197 H -0.04012 0.04232 -0.10406
 H198 H 0.01191 -0.04772 0.04439
 H199 H -0.01919 -0.08293 0.07776
 H200 H -0.10100 -0.04126 0.03952
 H201 H -0.06850 -0.00711 0.00687
 C202 C 0.06014 -0.06385 -0.06226
 C203 C 0.05823 0.06492 0.06352
 C204 C -0.06241 -0.06446 0.06120
 C205 C -0.06084 0.06535 -0.06355
 C206 C 0.04189 0.54700 0.51224
 H207 H 0.04240 0.54843 0.48640
 C208 C 0.06008 0.56667 0.53054
 H209 H 0.07476 0.58326 0.51879
 C210 C 0.02197 0.52382 0.55923
 H211 H 0.00680 0.50741 0.57036
 C212 C 0.03978 0.54307 0.57842
 H213 H 0.03850 0.54119 0.60424
 N214 N 0.02365 0.52582 0.52675
 C215 C 0.01141 0.45348 0.45567
 H216 H -0.01335 0.45212 0.45498
 C217 C 0.02904 0.43379 0.43672
 H218 H 0.01787 0.41727 0.42126
 C219 C 0.05632 0.47640 0.47689
 H220 H 0.06691 0.49268 0.49291
 C221 C 0.07480 0.45714 0.45835
 H222 H 0.09953 0.45888 0.45991
 Zn223 Zn -0.00031 0.50013 0.50012
 N224 N 0.02522 0.47452 0.47493
 C225 C -0.02258 0.52421 0.44122
 N226 N -0.02435 0.52594 0.47372
 C227 C -0.04268 0.54696 0.48840
 C228 C -0.06085 0.56677 0.47026
 C229 C -0.04036 0.54360 0.42219
 C230 C -0.01181 0.45311 0.54412
 C231 C -0.02933 0.43321 0.56289
 C232 C -0.07521 0.45657 0.54155
 C233 C -0.05684 0.47605 0.52319
 N234 N -0.02572 0.47425 0.52509
 H235 H -0.00733 0.50793 0.42997
 H236 H -0.04326 0.54818 0.51426
 H237 H -0.07558 0.58325 0.48213
 H238 H -0.03899 0.54197 0.39635
 H239 H 0.01296 0.45184 0.54476
 H240 H -0.01808 0.41660 0.57815
 H241 H -0.09995 0.45824 0.54004
 H242 H -0.06751 0.49242 0.50735
 C243 C 0.06102 0.43574 0.43800
 C244 C 0.05910 0.56457 0.56392
 C245 C -0.06132 0.43506 0.56166
 C246 C -0.05975 0.56497 0.43686
 C247 C 0.54244 0.04708 0.51244
 H248 H 0.54299 0.04858 0.48659
 C249 C 0.56066 0.06664 0.53082
 H250 H 0.57541 0.08321 0.51915
 C251 C 0.52239 0.02382 0.55932
 H252 H 0.50716 0.00743 0.57038
 C253 C 0.54023 0.04296 0.57859
 H254 H 0.53892 0.04101 0.60441
 N255 N 0.52412 0.02591 0.52685
 C256 C 0.51189 -0.04626 0.45557
 H257 H 0.48712 -0.04759 0.45483
 C258 C 0.52953 -0.06592 0.43659
 H259 H 0.51837 -0.08238 0.42107
 C260 C 0.55679 -0.02344 0.47693
 H261 H 0.56737 -0.00722 0.49301
 C262 C 0.57527 -0.04267 0.45836
 H263 H 0.60001 -0.04095 0.45996
 Zn264 Zn 0.50016 0.00033 0.50011
 N265 N 0.52569 -0.02528 0.47491
 C266 C 0.47794 0.02448 0.44121
 N267 N 0.47620 0.02622 0.47371
 C268 C 0.45788 0.04725 0.48840
 C269 C 0.43965 0.06701 0.47028
 C270 C 0.46009 0.04384 0.42220
 C271 C 0.48840 -0.04674 0.54401
 C272 C 0.47075 -0.06659 0.56271
 C273 C 0.42502 -0.04308 0.54122
 C274 C 0.44351 -0.02366 0.52293
 N275 N 0.47462 -0.02554 0.52495
 H276 H 0.49317 0.00820 0.42994
 H277 H 0.45733 0.04847 0.51426
 H278 H 0.42490 0.08346 0.48217
 H279 H 0.46140 0.04216 0.39635
 H280 H 0.51317 -0.04809 0.54475
 H281 H 0.48190 -0.08324 0.57802
 H282 H 0.40029 -0.04133 0.53962
 H283 H 0.43295 -0.00725 0.50707
 C284 C 0.56151 -0.06400 0.43793
 C285 C 0.55964 0.06444 0.56419
 C286 C 0.43877 -0.06464 0.56137
 C287 C 0.44067 0.06517 0.43688
 C288 C 0.54244 0.54708 0.01206
 H289 H 0.54294 0.54850 -0.01379
 C290 C 0.56065 0.56675 0.03033
 H291 H 0.57534 0.58332 0.01857
 C292 C 0.52252 0.52394 0.05907
 H293 H 0.50735 0.50755 0.07021
 C294 C 0.54036 0.54318 0.07824
 H295 H 0.53909 0.54132 0.10406
 N296 N 0.52419 0.52593 0.02659
 C297 C 0.51193 0.45357 -0.04449
 H298 H 0.48716 0.45226 -0.04524
 C299 C 0.52957 0.43382 -0.06335
 H300 H 0.51842 0.41730 -0.07881
 C301 C 0.55683 0.47643 -0.02315
 H302 H 0.56740 0.49270 -0.00712
 C303 C 0.57531 0.45710 -0.04160
 H304 H 0.60005 0.45879 -0.03996
 Zn305 Zn 0.50021 0.50026 -0.00004
 N306 N 0.52572 0.47460 -0.02521
 C307 C 0.47785 0.52432 -0.05894
 N308 N 0.47620 0.52610 -0.02645
 C309 C 0.45793 0.54715 -0.01172
 C310 C 0.43969 0.56693 -0.02982
 C311 C 0.45998 0.54368 -0.07793
 C312 C 0.48853 0.45328 0.04399
 C313 C 0.47091 0.43341 0.06270
 C314 C 0.42514 0.45682 0.04116
 C315 C 0.44361 0.47626 0.02287
 N316 N 0.47471 0.47443 0.02489
 H317 H 0.49303 0.50800 -0.07023
 H318 H 0.45744 0.54840 0.01414
 H319 H 0.42500 0.58342 -0.01790
 H320 H 0.46124 0.54200 -0.10378
 H321 H 0.51330 0.45197 0.04473
 H322 H 0.48208 0.41679 0.07802
 H323 H 0.40041 0.45851 0.03954
 H324 H 0.43302 0.49263 0.00697
 C325 C 0.56155 0.43570 -0.06196
 C326 C 0.55969 0.56467 0.06372
 C327 C 0.43892 0.43529 0.06133
 C328 C 0.44064 0.56507 -0.06322
 C329 C 0.16540 -0.17001 -0.16840
 C330 C 0.14887 -0.15420 -0.15216
 C331 C 0.12970 -0.13548 -0.13314
 C332 C 0.11350 -0.11933 -0.11691
 C333 C 0.09472 -0.10022 -0.09790
 C334 C 0.07886 -0.08373 -0.08165
 C335 C 0.16577 0.32963 0.33126
 C336 C 0.14933 0.34545 0.34760
 C337 C 0.13027 0.36417 0.36673
 C338 C 0.11416 0.38032 0.38307
 C339 C 0.09548 0.39941 0.40220
 C340 C 0.07969 0.41588 0.41852
 C341 C 0.66642 -0.16974 0.33096
 C342 C 0.64995 -0.15397 0.34732
 C343 C 0.63085 -0.13532 0.36649
 C344 C 0.61471 -0.11924 0.38286
 C345 C 0.59600 -0.10021 0.40203
 C346 C 0.58019 -0.08380 0.41840
 C347 C 0.66665 0.32913 -0.16782
 C348 C 0.65014 0.34500 -0.15162
 C349 C 0.63100 0.36379 -0.13266
 C350 C 0.61483 0.38001 -0.11647
 C351 C 0.59608 0.39920 -0.09750
 C352 C 0.58025 0.41575 -0.08131
 C353 C -0.16631 0.17202 -0.16840
 C354 C -0.14983 0.15603 -0.15236
 C355 C -0.13070 0.13716 -0.13357
 C356 C -0.11449 0.12091 -0.11753
 C357 C -0.09567 0.10173 -0.09874
 C358 C -0.07972 0.08522 -0.08270
 C359 C -0.16470 0.67196 0.33181
 C360 C -0.14829 0.65593 0.34789
 C361 C -0.12926 0.63700 0.36672
 C362 C -0.11314 0.62071 0.38279
 C363 C -0.09441 0.60146 0.40162
 C364 C -0.07855 0.58490 0.41769
 C365 C 0.33467 0.17126 0.33201
 C366 C 0.35123 0.15537 0.34806
 C367 C 0.37047 0.13662 0.36685
 C368 C 0.38677 0.12047 0.38290
 C369 C 0.40570 0.10140 0.40169
 C370 C 0.42172 0.08497 0.41773
 C371 C 0.33469 0.67164 -0.16762
 C372 C 0.35125 0.65567 -0.15165
 C373 C 0.37048 0.63682 -0.13296
 C374 C 0.38677 0.62058 -0.11700
 C375 C 0.40569 0.60142 -0.09830
 C376 C 0.42170 0.58492 -0.08232
 C377 C -0.16645 -0.17196 0.16697
 C378 C -0.15017 -0.15589 0.15075
 C379 C -0.13127 -0.13691 0.13177
 C380 C -0.11528 -0.12054 0.11558
 C381 C -0.09671 -0.10120 0.09664
 C382 C -0.08100 -0.08454 0.08047
 C383 C -0.16511 0.32742 0.66754
 C384 C -0.14886 0.34350 0.65131
 C385 C -0.13001 0.36252 0.63232
 C386 C -0.11406 0.37891 0.61611
 C387 C -0.09555 0.39828 0.59714
 C388 C -0.07988 0.41496 0.58095
 C389 C 0.33402 -0.17162 0.66693
 C390 C 0.35041 -0.15565 0.65074
 C391 C 0.36945 -0.13677 0.63180
 C392 C 0.38557 -0.12050 0.61564
 C393 C 0.40426 -0.10125 0.59674
 C394 C 0.42008 -0.08466 0.58061
 C395 C 0.33421 0.32797 0.16656
 C396 C 0.35061 0.34399 0.15042
 C397 C 0.36965 0.36293 0.13155
 C398 C 0.38576 0.37926 0.11546
 C399 C 0.40445 0.39857 0.09662
 C400 C 0.42026 0.41522 0.08053
 C401 C 0.16476 0.16998 0.16901
 C402 C 0.14807 0.15428 0.15290
 C403 C 0.12870 0.13573 0.13402
 C404 C 0.11231 0.11974 0.11789
 C405 C 0.09330 0.10084 0.09899
 C406 C 0.07722 0.08455 0.08283
 C407 C 0.16498 0.67017 0.66955
 C408 C 0.14838 0.65439 0.65341
 C409 C 0.12914 0.63574 0.63449
 C410 C 0.11286 0.61967 0.61834
 C411 C 0.09397 0.60067 0.59940
 C412 C 0.07799 0.58429 0.58323
 C413 C 0.66589 0.16931 0.67022
 C414 C 0.64925 0.15362 0.65404
 C415 C 0.62993 0.13509 0.63507
 C416 C 0.61359 0.11913 0.61885
 C417 C 0.59464 0.10027 0.59984
 C418 C 0.57860 0.08402 0.58359
 C419 C 0.66581 0.67038 0.16895
 C420 C 0.64918 0.65457 0.15289
 C421 C 0.62988 0.63589 0.13407
 C422 C 0.61356 0.61979 0.11798
 C423 C 0.59462 0.60076 0.09913
 C424 C 0.57861 0.58438 0.08300
   
