data_POSCAR
  _audit_creation_date              2014-09-24
  _audit_creation_method            'ToBaCCo'
  _symmetry_space_group_name_H-M    'P1'
  _symmetry_Int_Tables_number       1
  _symmetry_cell_setting            triclinic
  loop_
  _symmetry_equiv_pos_as_xyz
 x,y,z
_cell_length_a 20.9793
_cell_length_b 21.2144
_cell_length_c 53.0455
_cell_angle_alpha 91.141800
_cell_angle_beta 90.911300
_cell_angle_gamma 117.895200
loop_
  _atom_site_label
  _atom_site_type_symbol
  _atom_site_fract_x
  _atom_site_fract_y
  _atom_site_fract_z
C1 C -0.02095 0.04819 0.51608
 C2 C -0.08845 -0.00685 0.50086
 C3 C -0.07423 -0.04884 0.48423
 C4 C 0.00593 -0.03126 0.48430
 C5 C 0.00945 0.00281 0.52832
 C6 C 0.02271 -0.03938 0.51197
 C7 C 0.03239 0.08962 0.49598
 C8 C 0.04673 0.04901 0.47941
 H9 H -0.14274 -0.01594 0.50410
 H10 H 0.01955 -0.06335 0.47074
 H11 H 0.00805 -0.00475 0.54851
 H12 H 0.05521 0.14698 0.49448
 C13 C 0.94286 -0.10061 0.18676
 C14 C 0.99939 -0.11145 0.17139
 C15 C 1.04661 -0.05122 0.15926
 C16 C 1.03201 0.01312 0.16360
 C17 C 0.98490 -0.03945 0.20326
 C18 C 1.03587 0.02250 0.19102
 C19 C 0.90674 -0.07497 0.16723
 C20 C 0.95244 -0.01581 0.15517
 H21 H 1.00271 -0.16075 0.17042
 H22 H 1.06801 0.06155 0.15336
 H23 H 0.98241 -0.04273 0.22363
 H24 H 0.85025 -0.10548 0.16158
 C25 C 0.06501 1.04819 0.85339
 C26 C 0.07575 1.11662 0.84008
 C27 C 0.02190 1.10523 0.82272
 C28 C -0.03706 1.02678 0.82027
 C29 C -0.01018 1.01900 0.86431
 C30 C -0.06338 1.00849 0.84727
 C31 C 0.05729 0.99654 0.83178
 C32 C 0.00462 0.98509 0.81449
 H33 H 0.11931 1.16926 0.84451
 H34 H -0.08088 1.01563 0.80613
 H35 H -0.01843 1.01798 0.88446
 H36 H 0.09266 0.97246 0.82994
 O37 O 0.42139 -0.03360 -0.01890
 O38 O 0.55957 -0.03975 0.02366
 O39 O 0.42929 -0.05342 0.02903
 O40 O 0.53894 -0.04327 -0.02455
 O41 O 0.59624 0.07422 -0.02112
 O42 O 0.48036 0.06389 0.03283
 O43 O 0.61126 0.07749 0.02832
 O44 O 0.47818 0.08394 -0.01540
 Cu45 Cu 0.48186 -0.05389 0.00210
 Cu46 Cu 0.54717 0.08639 0.00668
 C47 C 0.42699 0.02682 -0.02462
 C48 C 0.60961 0.01852 0.03309
 C49 C 0.43370 0.00239 0.03972
 C50 C 0.58623 0.01616 -0.03218
 O51 O 0.04256 0.47293 0.64475
 O52 O 0.04578 0.61523 0.68675
 O53 O 0.05349 0.49675 0.69328
 O54 O 0.05471 0.59906 0.63876
 O55 O -0.06420 0.54768 0.63759
 O56 O -0.06543 0.44028 0.69230
 O57 O -0.07316 0.55969 0.68645
 O58 O -0.07640 0.42083 0.64343
 Cu59 Cu 0.06073 0.55109 0.66611
 Cu60 Cu -0.08157 0.48698 0.66496
 C61 C -0.01784 0.42274 0.63673
 C62 C -0.01359 0.61202 0.69356
 C63 C -0.00525 0.44999 0.70189
 C64 C -0.00370 0.59186 0.62884
 O65 O 0.58881 0.50401 0.36245
 O66 O 0.47850 0.37723 0.31129
 O67 O 0.60011 0.49590 0.31363
 O68 O 0.47345 0.37800 0.35992
 O69 O 0.40657 0.43213 0.35499
 O70 O 0.53688 0.55442 0.31092
 O71 O 0.41741 0.43761 0.30656
 O72 O 0.52164 0.55833 0.35939
 Cu73 Cu 0.54195 0.43333 0.33729
 Cu74 Cu 0.46445 0.50160 0.33283
 C75 C 0.57429 0.55347 0.36951
 C76 C 0.42910 0.38608 0.30024
 C77 C 0.59015 0.54541 0.30437
 C78 C 0.41682 0.38301 0.36460
 C79 C -0.02525 0.20320 0.56936
 C80 C -0.08987 0.15649 0.55643
 C81 C -0.09039 0.10463 0.53932
 C82 C -0.02660 0.09951 0.53528
 C83 C 0.03717 0.14660 0.54884
 C84 C 0.03833 0.19845 0.56570
 C85 C -0.02370 0.25892 0.58680
 C86 C 0.04143 0.30633 0.59927
 C87 C 0.04301 0.35989 0.61552
 C88 C -0.02003 0.36601 0.61952
 C89 C -0.08513 0.31760 0.60700
 C90 C -0.08714 0.26413 0.59049
 C91 C 0.10229 0.24628 0.57868
 C92 C 0.10384 0.29944 0.59517
 C93 C -0.15237 0.16330 0.56069
 C94 C -0.15107 0.21607 0.57747
 H95 H 0.15169 0.24292 0.57594
 H96 H 0.15435 0.33557 0.60471
 H97 H -0.20266 0.12772 0.55092
 H98 H -0.20043 0.21954 0.58016
 H99 H -0.13989 0.06984 0.52909
 H100 H 0.08667 0.14354 0.54580
 H101 H 0.09323 0.39655 0.62514
 H102 H -0.13397 0.32196 0.60988
 C103 C 0.78746 0.73888 0.23401
 C104 C 0.84353 0.72749 0.22452
 C105 C 0.89332 0.77754 0.20827
 C106 C 0.88704 0.83869 0.20178
 C107 C 0.83016 0.84850 0.21177
 C108 C 0.78024 0.79895 0.22757
 C109 C 0.73641 0.68815 0.25164
 C110 C 0.68121 0.70065 0.26126
 C111 C 0.63350 0.65323 0.27825
 C112 C 0.64078 0.59379 0.28597
 C113 C 0.69644 0.58177 0.27614
 C114 C 0.74448 0.62895 0.25887
 C115 C 0.72411 0.80942 0.23745
 C116 C 0.67519 0.76088 0.25396
 C117 C 0.84938 0.66709 0.23196
 C118 C 0.80076 0.61872 0.24884
 H119 H 0.71821 0.85577 0.23249
 H120 H 0.63278 0.77098 0.26128
 H121 H 0.89226 0.65743 0.22485
 H122 H 0.80759 0.57319 0.25421
 H123 H 0.93761 0.76977 0.20157
 H124 H 0.82586 0.89626 0.20768
 H125 H 0.59116 0.66326 0.28571
 H126 H 0.70242 0.53606 0.28191
 C127 C 0.21959 0.04401 -0.09260
 C128 C 0.23487 0.10949 -0.10332
 C129 C 0.18489 0.11270 -0.12058
 C130 C 0.11991 0.05075 -0.12697
 C131 C 0.10559 -0.01394 -0.11551
 C132 C 0.15507 -0.01779 -0.09855
 C133 C 0.27253 0.03972 -0.07506
 C134 C 0.25760 -0.02622 -0.06480
 C135 C 0.30849 -0.03031 -0.04842
 C136 C 0.37362 0.03108 -0.04208
 C137 C 0.38750 0.09693 -0.05242
 C138 C 0.33725 0.10144 -0.06904
 C139 C 0.14159 -0.08264 -0.08774
 C140 C 0.19210 -0.08682 -0.07118
 C141 C 0.30029 0.17018 -0.09677
 C142 C 0.35051 0.16626 -0.07987
 H143 H 0.09179 -0.13068 -0.09227
 H144 H 0.17987 -0.13791 -0.06335
 H145 H 0.31291 0.22109 -0.10483
 H146 H 0.40033 0.21431 -0.07537
 H147 H 0.19765 0.16292 -0.12907
 H148 H 0.05598 -0.06201 -0.12033
 H149 H 0.29717 -0.08106 -0.04047
 H150 H 0.43764 0.14450 -0.04773
 C151 C 0.01385 0.78591 0.55178
 C152 C -0.04991 0.78179 0.54133
 C153 C -0.04564 0.83662 0.52605
 C154 C 0.02153 0.89556 0.52156
 C155 C 0.08516 0.89781 0.53130
 C156 C 0.08164 0.84292 0.54651
 C157 C 0.00918 0.73235 0.56998
 C158 C 0.07267 0.73860 0.58142
 C159 C 0.06781 0.69052 0.59992
 C160 C 0.00000 0.63724 0.60746
 C161 C -0.06316 0.63058 0.59534
 C162 C -0.05885 0.67821 0.57660
 C163 C 0.14409 0.84590 0.55774
 C164 C 0.13970 0.79444 0.57483
 C165 C -0.11684 0.72530 0.54761
 C166 C -0.12124 0.67439 0.56496
 H167 H 0.19666 0.88932 0.55377
 H168 H 0.18909 0.79956 0.58349
 H169 H -0.16635 0.72155 0.53958
 H170 H -0.17400 0.63271 0.56976
 H171 H -0.09481 0.83630 0.51928
 H172 H 0.13660 0.94419 0.52832
 H173 H 0.11692 0.69631 0.60906
 H174 H -0.11552 0.58976 0.60092
 C175 C 0.21588 0.17719 0.23281
 C176 C 0.18473 0.10553 0.23941
 C177 C 0.12514 0.05512 0.22545
 C178 C 0.09704 0.07486 0.20438
 C179 C 0.13170 0.14663 0.19709
 C180 C 0.18983 0.19847 0.21180
 C181 C 0.27547 0.23109 0.24871
 C182 C 0.30313 0.30362 0.24343
 C183 C 0.35565 0.35493 0.25993
 C184 C 0.38158 0.33349 0.28102
 C185 C 0.35594 0.26061 0.28527
 C186 C 0.30165 0.20917 0.26952
 C187 C 0.22109 0.27140 0.20647
 C188 C 0.27617 0.32313 0.22218
 C189 C 0.21303 0.08548 0.26011
 C190 C 0.27098 0.13643 0.27481
 H191 H 0.20162 0.28880 0.19038
 H192 H 0.29741 0.37890 0.21777
 H193 H 0.18966 0.03001 0.26517
 H194 H 0.29069 0.11894 0.29081
 H195 H 0.10235 -0.00020 0.23065
 H196 H 0.11090 0.16288 0.18105
 H197 H 0.37553 0.41125 0.25668
 H198 H 0.37507 0.24417 0.30173
 C199 C 0.76647 0.01004 -0.11190
 C200 C 0.82016 0.07434 -0.12102
 C201 C 0.87160 0.07253 -0.13715
 C202 C 0.87044 0.00727 -0.14351
 C203 C 0.81460 -0.05690 -0.13522
 C204 C 0.76226 -0.05586 -0.11934
 C205 C 0.71713 0.01208 -0.09277
 C206 C 0.66587 -0.05202 -0.08279
 C207 C 0.62211 -0.04977 -0.06356
 C208 C 0.63005 0.01600 -0.05381
 C209 C 0.68084 0.07991 -0.06436
 C210 C 0.72465 0.07819 -0.08389
 C211 C 0.70861 -0.11898 -0.10947
 C212 C 0.66097 -0.11711 -0.09159
 C213 C 0.82423 0.13932 -0.11248
 C214 C 0.77734 0.14122 -0.09421
 H215 H 0.70459 -0.17010 -0.11514
 H216 H 0.62130 -0.16693 -0.08405
 H217 H 0.86539 0.18928 -0.11943
 H218 H 0.78350 0.19255 -0.08769
 H219 H 0.91611 0.12209 -0.14295
 H220 H 0.81504 -0.10681 -0.13967
 H221 H 0.58327 -0.09946 -0.05567
 H222 H 0.68719 0.13071 -0.05710
 C223 C 0.21877 -0.03149 0.11209
 C224 C 0.22643 0.02745 0.12677
 C225 C 0.17109 0.01958 0.14291
 C226 C 0.10747 -0.04613 0.14398
 C227 C 0.10140 -0.10514 0.12949
 C228 C 0.15697 -0.09809 0.11352
 C229 C 0.27583 -0.02291 0.09446
 C230 C 0.26775 -0.08178 0.07965
 C231 C 0.32095 -0.07308 0.06244
 C232 C 0.38152 -0.00578 0.05954
 C233 C 0.38916 0.05273 0.07473
 C234 C 0.33649 0.04429 0.09234
 C235 C 0.15133 -0.15589 0.09854
 C236 C 0.20590 -0.14793 0.08195
 C237 C 0.28864 0.09346 0.12462
 C238 C 0.34255 0.10181 0.10763
 H239 H 0.10409 -0.20757 0.09948
 H240 H 0.19915 -0.19376 0.07058
 H241 H 0.29518 0.13936 0.13590
 H242 H 0.38909 0.15386 0.10631
 H243 H 0.17760 0.06494 0.15449
 H244 H 0.05266 -0.15576 0.12998
 H245 H 0.31401 -0.11853 0.05079
 H246 H 0.43546 0.10462 0.07269
 C247 C 0.76776 0.77576 0.43897
 C248 C 0.75684 0.83521 0.44408
 C249 C 0.80773 0.89213 0.45932
 C250 C 0.86945 0.88995 0.46919
 C251 C 0.87855 0.82917 0.46411
 C252 C 0.82814 0.77216 0.44902
 C253 C 0.71585 0.71681 0.42234
 C254 C 0.72779 0.65818 0.41684
 C255 C 0.67995 0.60365 0.40020
 C256 C 0.62066 0.60759 0.38895
 C257 C 0.60865 0.66612 0.39518
 C258 C 0.65629 0.72103 0.41177
 C259 C 0.83754 0.71201 0.44350
 C260 C 0.78825 0.65602 0.42767
 C261 C 0.69589 0.83692 0.43346
 C262 C 0.64650 0.78085 0.41759
 H263 H 0.88386 0.70856 0.45126
 H264 H 0.79801 0.61104 0.42364
 H265 H 0.68664 0.88232 0.43724
 H266 H 0.60068 0.78473 0.40958
 H267 H 0.80035 0.93873 0.46290
 H268 H 0.92477 0.82574 0.47191
 H269 H 0.68988 0.55906 0.39558
 H270 H 0.56337 0.66998 0.38664
 C271 C 0.01046 0.26273 0.77609
 C272 C 0.07832 0.27027 0.78355
 C273 C 0.08213 0.21999 0.79948
 C274 C 0.01862 0.16228 0.80783
 C275 C -0.04887 0.15697 0.80073
 C276 C -0.05329 0.20664 0.78472
 C277 C 0.00600 0.31331 0.75833
 C278 C -0.06190 0.30437 0.75019
 C279 C -0.06580 0.35057 0.73230
 C280 C -0.00228 0.40522 0.72256
 C281 C 0.06532 0.41439 0.73157
 C282 C 0.06976 0.36837 0.74927
 C283 C -0.12025 0.20040 0.77668
 C284 C -0.12448 0.24832 0.75967
 C285 C 0.14094 0.32694 0.77438
 C286 C 0.13673 0.37522 0.75757
 H287 H -0.16986 0.15741 0.78329
 H288 H -0.17721 0.24086 0.75365
 H289 H 0.19363 0.33352 0.78001
 H290 H 0.18634 0.41764 0.75071
 H291 H 0.13430 0.22435 0.80457
 H292 H -0.09817 0.11390 0.80745
 H293 H -0.11804 0.34293 0.72554
 H294 H 0.11471 0.45612 0.72429
 C295 C 0.83364 0.01720 0.09678
 C296 C 0.84872 -0.04052 0.09478
 C297 C 0.89616 -0.04564 0.11246
 C298 C 0.92623 0.00488 0.13252
 C299 C 0.91413 0.06463 0.13354
 C300 C 0.86740 0.07096 0.11564
 C301 C 0.77792 0.01880 0.07987
 C302 C 0.76100 0.07524 0.08235
 C303 C 0.70621 0.07517 0.06680
 C304 C 0.66724 0.01821 0.04939
 C305 C 0.68493 -0.03794 0.04717
 C306 C 0.74061 -0.03765 0.06225
 C307 C 0.85010 0.12739 0.11715
 C308 C 0.79816 0.12973 0.10068
 C309 C 0.81233 -0.09453 0.07627
 C310 C 0.75901 -0.09323 0.06031
 H311 H 0.87581 0.16931 0.13152
 H312 H 0.78572 0.17369 0.10272
 H313 H 0.82364 -0.13929 0.07458
 H314 H 0.73106 -0.13675 0.04666
 H315 H 0.90479 -0.09224 0.11201
 H316 H 0.93623 0.10268 0.14929
 H317 H 0.69282 0.11857 0.06863
 H318 H 0.65580 -0.08143 0.03359
 C319 C 0.19576 0.17343 0.42480
 C320 C 0.21032 0.12556 0.43866
 C321 C 0.15819 0.07924 0.45512
 C322 C 0.09302 0.08206 0.45785
 C323 C 0.07792 0.12760 0.44281
 C324 C 0.12930 0.17391 0.42645
 C325 C 0.25232 0.22638 0.40918
 C326 C 0.23847 0.27596 0.39621
 C327 C 0.29294 0.32759 0.38202
 C328 C 0.36098 0.32989 0.38059
 C329 C 0.37383 0.27931 0.39358
 C330 C 0.31969 0.22763 0.40804
 C331 C 0.11683 0.22315 0.41269
 C332 C 0.17053 0.27335 0.39782
 C333 C 0.27800 0.12761 0.43668
 C334 C 0.33165 0.17761 0.42158
 H335 H 0.06564 0.22384 0.41383
 H336 H 0.15911 0.31108 0.38778
 H337 H 0.29005 0.09106 0.44722
 H338 H 0.38331 0.17780 0.42081
 H339 H 0.17012 0.04484 0.46698
 H340 H 0.02769 0.12983 0.44504
 H341 H 0.28207 0.36563 0.37193
 H342 H 0.42586 0.28034 0.39254
 C343 C -0.01148 0.83781 0.75629
 C344 C -0.07441 0.82700 0.76871
 C345 C -0.07105 0.87898 0.78635
 C346 C -0.00503 0.94019 0.79171
 C347 C 0.05628 0.95198 0.77801
 C348 C 0.05365 0.90064 0.76050
 C349 C -0.01276 0.78078 0.73958
 C350 C 0.05110 0.79045 0.72820
 C351 C 0.05049 0.73496 0.71324
 C352 C -0.01342 0.67017 0.70952
 C353 C -0.07733 0.66179 0.72077
 C354 C -0.07714 0.71681 0.73599
 C355 C 0.11586 0.90928 0.74817
 C356 C 0.11462 0.85505 0.73230
 C357 C -0.13823 0.76283 0.76418
 C358 C -0.13962 0.70878 0.74804
 H359 H 0.16636 0.95769 0.75129
 H360 H 0.16409 0.86331 0.72350
 H361 H -0.18718 0.75372 0.77356
 H362 H -0.18974 0.65974 0.74535
 H363 H -0.11798 0.86960 0.79713
 H364 H 0.10715 0.99928 0.78218
 H365 H 0.09975 0.74227 0.70449
 H366 H -0.12687 0.61219 0.71801
   
