data_POSCAR
  _audit_creation_date              2014-09-24
  _audit_creation_method            'ToBaCCo'
  _symmetry_space_group_name_H-M    'P1'
  _symmetry_Int_Tables_number       1
  _symmetry_cell_setting            triclinic
  loop_
  _symmetry_equiv_pos_as_xyz
 x,y,z
_cell_length_a 21.5721
_cell_length_b 21.6865
_cell_length_c 21.6205
_cell_angle_alpha 92.269000
_cell_angle_beta 90.350700
_cell_angle_gamma 92.297100
loop_
  _atom_site_label
  _atom_site_type_symbol
  _atom_site_fract_x
  _atom_site_fract_y
  _atom_site_fract_z
C1 C -0.00032 0.51493 0.24788
 C2 C 0.00329 0.49342 0.75085
 C3 C 0.25238 -0.01501 0.49806
 C4 C 0.74589 0.00863 0.49498
 C5 C 0.50415 0.25569 0.99311
 C6 C 0.48976 0.75352 1.00993
 B7 B 1.00168 1.06723 0.03682
 B8 B 1.00585 1.06417 -0.04137
 B9 B 1.06379 1.03666 0.00176
 B10 B 1.03174 1.00196 0.06328
 B11 B 0.95436 1.00794 0.05834
 B12 B 0.93757 1.04612 -0.00598
 B13 B 0.99077 0.93819 -0.04237
 B14 B 0.98703 0.94055 0.03601
 B15 B 0.92890 0.96807 -0.00613
 B16 B 0.96012 1.00348 -0.06796
 B17 B 1.03847 0.99706 -0.06394
 B18 B 1.05500 0.95875 0.00083
 B19 B 0.56401 0.49498 0.46233
 B20 B 0.56611 0.50261 0.54055
 B21 B 0.54157 0.56139 0.49811
 B22 B 0.50019 0.52970 0.43646
 B23 B 0.49887 0.45176 0.44199
 B24 B 0.54009 0.43521 0.50532
 B25 B 0.43940 0.49916 0.54296
 B26 B 0.43661 0.49100 0.46492
 B27 B 0.46206 0.43315 0.50767
 B28 B 0.50331 0.46473 0.56821
 B29 B 0.50361 0.54219 0.56398
 B30 B 0.46274 0.55916 0.49952
 C31 C 0.99663 1.46107 0.19982
 C32 C 1.02529 1.40539 0.21013
 C33 C 1.01091 1.34658 0.17547
 N34 N 1.05026 1.29960 0.17986
 N35 N 1.03661 1.24436 0.15295
 C36 C 0.98243 1.23354 0.12139
 N37 N 0.94281 1.28043 0.11718
 N38 N 0.95678 1.33599 0.14363
 C39 C 0.96666 1.17232 0.09179
 C40 C 1.01225 1.13028 0.07695
 H41 H 1.05883 1.40346 0.24719
 H42 H 0.91921 1.16276 0.07732
 H43 H 0.96364 1.46227 0.16193
 H44 H 1.05959 1.14200 0.09120
 C45 C 0.98323 0.57629 0.22168
 C46 C 1.00038 0.59644 0.16345
 C47 C 1.00049 0.66281 0.15042
 N48 N 0.99024 0.68152 0.09220
 N49 N 0.99167 0.74153 0.08052
 C50 C 1.00435 0.78502 0.12642
 N51 N 1.01557 0.76625 0.18437
 N52 N 1.01316 0.70635 0.19623
 C53 C 1.00929 0.85123 0.11327
 C54 C 0.97450 0.87531 0.06623
 H55 H 1.01561 0.56394 0.12799
 H56 H 1.04083 0.88072 0.14091
 H57 H 0.96674 0.61094 0.25457
 H58 H 0.94006 0.84468 0.04309
 C59 C 1.00482 1.43891 -0.20771
 C60 C 1.01881 1.37943 -0.22853
 C61 C 1.01451 1.32764 -0.18669
 N62 N 1.03153 1.27054 -0.20609
 N63 N 1.02701 1.22351 -0.16828
 C64 C 1.00525 1.23200 -0.10981
 N65 N 0.98826 1.28900 -0.09054
 N66 N 0.99292 1.33593 -0.12821
 C67 C 0.99793 1.18084 -0.06786
 C68 C 1.01687 1.12184 -0.08324
 H69 H 1.03294 1.37092 -0.27598
 H70 H 0.97526 1.19029 -0.02461
 H71 H 0.98835 1.44542 -0.16070
 H72 H 1.04055 1.11416 -0.12662
 C73 C 1.00481 0.55209 -0.20869
 C74 C 0.99230 0.60986 -0.23074
 C75 C 0.99712 0.66539 -0.18959
 N76 N 0.97653 0.71986 -0.20859
 N77 N 0.98020 0.77006 -0.17094
 C78 C 1.00472 0.76747 -0.11308
 N79 N 1.02565 0.71317 -0.09433
 N80 N 1.02176 0.66304 -0.13182
 C81 C 1.00994 0.82208 -0.07107
 C82 C 0.98303 0.87714 -0.08450
 H83 H 0.97745 0.61398 -0.27829
 H84 H 1.03516 0.81788 -0.02835
 H85 H 1.02116 0.54966 -0.16135
 H86 H 0.95570 0.87930 -0.12642
 C87 C 1.22382 0.97135 0.43425
 C88 C 1.18136 1.00908 0.40707
 C89 C 1.16355 1.00087 0.34104
 N90 N 1.11908 1.03574 0.31734
 N91 N 1.10332 1.02955 0.25766
 C92 C 1.13167 0.98856 0.21909
 N93 N 1.17644 0.95390 0.24270
 N94 N 1.19205 0.95993 0.30251
 C95 C 1.11342 0.98075 0.15310
 C96 C 1.06077 1.00819 0.13119
 H97 H 1.16236 1.04671 0.43434
 H98 H 1.13986 0.95111 0.12286
 H99 H 1.24259 0.93454 0.40553
 H100 H 1.03589 1.03741 0.16339
 C101 C 1.20369 0.98777 -0.45110
 C102 C 1.22118 1.00096 -0.38932
 C103 C 1.17989 0.99238 -0.33587
 N104 N 1.20055 1.01086 -0.27842
 N105 N 1.16539 1.00194 -0.22887
 C106 C 1.10825 0.97360 -0.23465
 N107 N 1.08757 0.95483 -0.29215
 N108 N 1.12271 0.96401 -0.34187
 C109 C 1.06846 0.96471 -0.17996
 C110 C 1.08272 0.99440 -0.12282
 H111 H 1.26877 1.01623 -0.37940
 H112 H 1.02525 0.93832 -0.18639
 H113 H 1.15643 0.97182 -0.46166
 H114 H 1.12579 1.02128 -0.11892
 C115 C 0.78454 0.99885 0.43727
 C116 C 0.79030 1.04016 0.38949
 C117 C 0.82355 1.02462 0.33254
 N118 N 0.82298 1.06347 0.28500
 N119 N 0.85169 1.04932 0.23235
 C120 C 0.88191 0.99578 0.22543
 N121 N 0.88272 0.95704 0.27306
 N122 N 0.85387 0.97113 0.32567
 C123 C 0.91446 0.98010 0.16817
 C124 C 0.91366 1.01800 0.11794
 H125 H 0.76861 1.08427 0.39231
 H126 H 0.94142 0.93936 0.16708
 H127 H 0.80878 0.95606 0.43300
 H128 H 0.88756 1.05950 0.12107
 C129 C 0.79020 1.01270 -0.44999
 C130 C 0.77049 1.00531 -0.38935
 C131 C 0.81356 1.01253 -0.33640
 N132 N 0.79338 0.99926 -0.27903
 N133 N 0.83199 1.00465 -0.23070
 C134 C 0.89219 1.02381 -0.23779
 N135 N 0.91230 1.03761 -0.29511
 N136 N 0.87369 1.03202 -0.34356
 C137 C 0.93555 1.02776 -0.18484
 C138 C 0.91808 1.00479 -0.12812
 H139 H 0.72215 0.99357 -0.38059
 H140 H 0.98179 1.04691 -0.19166
 H141 H 0.83834 1.02635 -0.45785
 H142 H 0.87021 0.98993 -0.12266
 C143 C 1.44451 1.22021 -0.02531
 C144 C 1.41340 1.18014 0.01386
 C145 C 1.34900 1.15839 0.00113
 N146 N 1.31825 1.12349 0.04256
 N147 N 1.25885 1.10644 0.03321
 C148 C 1.22786 1.12395 -0.01772
 N149 N 1.25868 1.15859 -0.05932
 N150 N 1.31811 1.17562 -0.04998
 C151 C 1.16234 1.10512 -0.02851
 C152 C 1.13084 1.06747 0.01237
 H153 H 1.43479 1.16892 0.05724
 H154 H 1.14001 1.11928 -0.07015
 H155 H 1.42241 1.22981 -0.06890
 H156 H 1.15480 1.05470 0.05373
 C157 C 0.55767 1.21215 -0.00370
 C158 C 0.61973 1.23323 -0.00586
 C159 C 0.67180 1.19175 -0.00174
 N160 N 0.72991 1.21220 -0.01665
 N161 N 0.77769 1.17537 -0.01289
 C162 C 0.76911 1.11680 0.00632
 N163 N 0.71108 1.09650 0.02162
 N164 N 0.66324 1.13316 0.01741
 C165 C 0.82138 1.07595 0.01260
 C166 C 0.87958 1.08872 -0.01281
 H167 H 0.63054 1.28170 -0.01253
 H168 H 0.81300 1.03490 0.03829
 H169 H 0.54728 1.16372 0.00380
 H170 H 0.88528 1.12869 -0.04074
 C171 C 1.43519 0.79536 0.00421
 C172 C 1.37394 0.77457 0.01368
 C173 C 1.32104 0.81448 0.00537
 N174 N 1.26325 0.79518 0.02255
 N175 N 1.21501 0.83080 0.01505
 C176 C 1.22276 0.88693 -0.01025
 N177 N 1.28046 0.90604 -0.02773
 N178 N 1.32870 0.87057 -0.01996
 C179 C 1.17024 0.92705 -0.01911
 C180 C 1.11188 0.91474 0.00601
 H181 H 1.36475 0.72776 0.02787
 H182 H 1.17899 0.96824 -0.04456
 H183 H 1.44376 0.84260 -0.00914
 H184 H 1.10546 0.87450 0.03350
 C185 C 0.54936 0.79090 -0.00159
 C186 C 0.60687 0.77625 0.02263
 C187 C 0.66513 0.80721 0.00355
 N188 N 0.71469 0.81028 0.04252
 N189 N 0.76773 0.83844 0.02626
 C190 C 0.77362 0.86362 -0.03004
 N191 N 0.72447 0.85944 -0.06968
 N192 N 0.67103 0.83198 -0.05304
 C193 C 0.83145 0.89717 -0.04635
 C194 C 0.86351 0.93261 -0.00066
 H195 H 0.60946 0.74210 0.05764
 H196 H 0.84725 0.89472 -0.09363
 H197 H 0.54860 0.82540 -0.03654
 H198 H 0.84417 0.93318 0.04546
 C199 C 0.95216 0.50279 0.29833
 C200 C 0.89114 0.48294 0.28312
 C201 C 0.83817 0.48929 0.32513
 N202 N 0.78118 0.46733 0.30597
 N203 N 0.73150 0.47588 0.34103
 C204 C 0.73678 0.50725 0.39651
 N205 N 0.79384 0.52910 0.41588
 N206 N 0.84367 0.52037 0.38082
 C207 C 0.68197 0.51762 0.43533
 C208 C 0.62364 0.49117 0.41981
 H209 H 0.88040 0.46611 0.23633
 H210 H 0.68847 0.54559 0.47744
 H211 H 0.96178 0.52163 0.34472
 H212 H 0.61804 0.46465 0.37655
 C213 C 0.06560 0.52483 0.27306
 C214 C 0.08886 0.49672 0.32498
 C215 C 0.15517 0.50262 0.34223
 N216 N 0.17794 0.46728 0.38683
 N217 N 0.23796 0.47149 0.40213
 C218 C 0.27754 0.51123 0.37338
 N219 N 0.25471 0.54682 0.32905
 N220 N 0.19474 0.54244 0.31360
 C221 C 0.34360 0.51793 0.39113
 C222 C 0.37005 0.47978 0.43338
 H223 H 0.05874 0.46670 0.35138
 H224 H 0.37075 0.55522 0.37218
 H225 H 0.09803 0.55116 0.24528
 H226 H 0.34163 0.44190 0.45031
 C227 C 0.94491 0.48552 0.71178
 C228 C 0.88658 0.50174 0.73274
 C229 C 0.83146 0.49229 0.69295
 N230 N 0.77887 0.52181 0.70714
 N231 N 0.72922 0.51485 0.67026
 C232 C 0.73037 0.47789 0.61809
 N233 N 0.78263 0.44771 0.60438
 N234 N 0.83239 0.45502 0.64100
 C235 C 0.67613 0.46972 0.57714
 C236 C 0.62799 0.51033 0.58026
 H237 H 0.88169 0.52420 0.77797
 H238 H 0.67611 0.43287 0.54230
 H239 H 0.94817 0.46177 0.66689
 H240 H 0.63347 0.55102 0.61056
 C241 C 0.05877 0.49692 0.70854
 C242 C 0.11944 0.49437 0.73032
 C243 C 0.17266 0.50373 0.68936
 N244 N 0.23023 0.49048 0.70886
 N245 N 0.27876 0.49802 0.67184
 C246 C 0.27156 0.51947 0.61413
 N247 N 0.21411 0.53359 0.59491
 N248 N 0.16549 0.52568 0.63183
 C249 C 0.32478 0.52658 0.57271
 C250 C 0.37942 0.49723 0.58455
 H251 H 0.12792 0.48463 0.77832
 H252 H 0.31931 0.55238 0.53156
 H253 H 0.05130 0.50753 0.66053
 H254 H 0.37914 0.46575 0.62184
 C255 C 0.48917 0.73174 0.07638
 C256 C 0.48729 0.67046 0.09456
 C257 C 0.48515 0.65487 0.16056
 N258 N 0.49834 0.59719 0.17746
 N259 N 0.49634 0.58242 0.23675
 C260 C 0.48056 0.62462 0.28150
 N261 N 0.46672 0.68213 0.26455
 N262 N 0.46926 0.69706 0.20531
 C263 C 0.47688 0.60834 0.34721
 C264 C 0.50420 0.55588 0.36847
 H265 H 0.48851 0.63276 0.06047
 H266 H 0.45160 0.63793 0.37850
 H267 H 0.49022 0.76789 0.11253
 H268 H 0.53099 0.52919 0.33569
 C269 C 0.48708 0.70228 0.95934
 C270 C 0.46650 0.71351 0.89929
 C271 C 0.48164 0.67575 0.84370
 N272 N 0.45886 0.69117 0.78801
 N273 N 0.47419 0.66031 0.73627
 C274 C 0.51341 0.61299 0.73804
 N275 N 0.53629 0.59744 0.79378
 N276 N 0.52081 0.62831 0.84570
 C277 C 0.52998 0.57806 0.68093
 C278 C 0.49964 0.58616 0.62470
 H279 H 0.44182 0.75498 0.89128
 H280 H 0.56264 0.54200 0.68509
 H281 H 0.51453 0.66223 0.96534
 H282 H 0.46352 0.61910 0.62484
 C283 C 0.49303 0.29002 0.05416
 C284 C 0.51786 0.27507 0.11106
 C285 C 0.50257 0.30995 0.16808
 N286 N 0.52862 0.29574 0.22261
 N287 N 0.51617 0.32809 0.27432
 C288 C 0.47706 0.37566 0.27341
 N289 N 0.45061 0.38954 0.21898
 N290 N 0.46311 0.35722 0.16726
 C291 C 0.46601 0.41398 0.32931
 C292 C 0.49867 0.40564 0.38369
 H293 H 0.54872 0.23719 0.11433
 H294 H 0.43538 0.45193 0.32588
 H295 H 0.46051 0.32686 0.05336
 H296 H 0.52881 0.36728 0.38528
 C297 C 0.51610 0.30357 0.94502
 C298 C 0.52877 0.28654 0.88387
 C299 C 0.51920 0.32847 0.83364
 N300 N 0.53371 0.31046 0.77508
 N301 N 0.52175 0.34622 0.72831
 C302 C 0.49440 0.40106 0.73825
 N303 N 0.47947 0.41901 0.79683
 N304 N 0.49169 0.38327 0.84375
 C305 C 0.48123 0.44002 0.68624
 C306 C 0.51125 0.42964 0.63041
 H307 H 0.54019 0.23936 0.87196
 H308 H 0.45079 0.47793 0.69331
 H309 H 0.50494 0.35110 0.95585
 H310 H 0.54798 0.39743 0.63075
 C311 C 0.70114 0.95293 0.49758
 C312 C 0.72160 0.89398 0.50859
 C313 C 0.68212 0.83764 0.49838
 N314 N 0.70285 0.78273 0.51591
 N315 N 0.66861 0.73085 0.50558
 C316 C 0.61259 0.73183 0.47671
 N317 N 0.59201 0.78671 0.45871
 N318 N 0.62613 0.83871 0.46937
 C319 C 0.57373 0.67500 0.46655
 C320 C 0.58519 0.62203 0.49825
 H321 H 0.76920 0.88873 0.52305
 H322 H 0.53285 0.67703 0.43811
 H323 H 0.65352 0.95744 0.48265
 H324 H 0.62537 0.62294 0.52842
 C325 C 0.70850 0.06651 0.49074
 C326 C 0.71764 0.12004 0.52826
 C327 C 0.69033 0.17830 0.51257
 N328 N 0.68013 0.22161 0.55784
 N329 N 0.65674 0.27530 0.54414
 C330 C 0.64385 0.28812 0.48454
 N331 N 0.65517 0.24532 0.43902
 N332 N 0.67778 0.19118 0.45285
 C333 C 0.61630 0.34668 0.47020
 C334 C 0.57360 0.37170 0.51097
 H335 H 0.74623 0.12041 0.56951
 H336 H 0.62833 0.36825 0.42755
 H337 H 0.67579 0.06760 0.45251
 H338 H 0.55825 0.34269 0.54780
 C339 C 0.29470 0.93311 0.51237
 C340 C 0.27341 0.87148 0.51021
 C341 C 0.31562 0.82066 0.51593
 N342 N 0.29558 0.76217 0.49977
 N343 N 0.33404 0.71582 0.50201
 C344 C 0.39391 0.72630 0.52061
 N345 N 0.41378 0.78468 0.53753
 N346 N 0.37539 0.83112 0.53494
 C347 C 0.43667 0.67558 0.52312
 C348 C 0.42175 0.61781 0.49553
 H349 H 0.22512 0.86022 0.49912
 H350 H 0.48053 0.68450 0.54680
 H351 H 0.34306 0.94395 0.52373
 H352 H 0.37901 0.61215 0.46945
 C353 C 0.29231 0.04407 0.49422
 C354 C 0.27435 0.10275 0.51405
 C355 C 0.31544 0.15795 0.50699
 N356 N 0.29892 0.21367 0.53089
 N357 N 0.33599 0.26375 0.52499
 C358 C 0.39090 0.25997 0.49484
 N359 N 0.40727 0.20433 0.47077
 N360 N 0.37033 0.15427 0.47682
 C361 C 0.43234 0.31472 0.48751
 C362 C 0.42028 0.37192 0.51540
 H363 H 0.22957 0.10853 0.53533
 H364 H 0.47332 0.30915 0.45976
 H365 H 0.33639 0.04039 0.47078
 H366 H 0.37933 0.37581 0.54368
   
