data_POSCAR
  _audit_creation_date              2014-09-24
  _audit_creation_method            'ToBaCCo'
  _symmetry_space_group_name_H-M    'P1'
  _symmetry_Int_Tables_number       1
  _symmetry_cell_setting            triclinic
  loop_
  _symmetry_equiv_pos_as_xyz
 x,y,z
_cell_length_a 26.3656
_cell_length_b 26.2036
_cell_length_c 44.0400
_cell_angle_alpha 87.030700
_cell_angle_beta 88.039600
_cell_angle_gamma 89.846300
loop_
  _atom_site_label
  _atom_site_type_symbol
  _atom_site_fract_x
  _atom_site_fract_y
  _atom_site_fract_z
O1 O -0.04621 0.54976 0.97352
 O2 O -0.04123 0.44552 1.03279
 O3 O -0.04153 0.54505 1.03249
 O4 O -0.04647 0.45014 0.97385
 O5 O 0.03712 0.45047 0.96958
 O6 O 0.04204 0.54535 1.02819
 O7 O 0.04225 0.44552 1.02841
 O8 O 0.03737 0.54956 0.96921
 Cu9 Cu -0.05223 0.49762 1.00361
 Cu10 Cu 0.04806 0.49776 0.99850
 C11 C -0.00522 0.56753 0.96122
 C12 C 0.00138 0.42724 1.04063
 C13 C 0.00108 0.56172 1.04026
 C14 C -0.00549 0.43395 0.96172
 O15 O 0.45043 0.04894 0.52587
 O16 O 0.55170 0.04062 0.46647
 O17 O 0.45306 0.04064 0.46749
 O18 O 0.54975 0.05023 0.52503
 O19 O 0.54832 -0.03352 0.53345
 O20 O 0.45503 -0.04343 0.47347
 O21 O 0.55426 -0.04292 0.47502
 O22 O 0.45000 -0.03512 0.53218
 Cu23 Cu 0.50126 0.05352 0.49554
 Cu24 Cu 0.50194 -0.04718 0.50417
 C25 C 0.43244 0.00819 0.53892
 C26 C 0.57093 -0.00259 0.46084
 C27 C 0.43748 -0.00292 0.46056
 C28 C 0.56544 0.01010 0.53919
 C29 C 0.10597 0.01694 0.27269
 H30 H 0.09840 0.04866 0.25683
 C31 C 0.14858 0.01839 0.29056
 H32 H 0.17373 0.05101 0.28779
 C33 C 0.08282 -0.06401 0.29526
 H34 H 0.05677 -0.09594 0.29708
 C35 C 0.12470 -0.06388 0.31384
 H36 H 0.13000 -0.09558 0.33017
 N37 N 0.07370 -0.02356 0.27554
 C38 C -0.02512 -0.08117 0.20701
 H39 H -0.05374 -0.05170 0.20596
 C40 C -0.02707 -0.12126 0.18741
 H41 H -0.05748 -0.12217 0.17155
 C42 C 0.05094 -0.11392 0.22747
 H43 H 0.08191 -0.11058 0.24261
 C44 C 0.05039 -0.15478 0.20833
 H45 H 0.08040 -0.18301 0.20961
 Zn46 Zn 0.01411 -0.02189 0.25222
 N47 N 0.01318 -0.07839 0.22678
 C48 C 0.04355 0.04017 0.20085
 N49 N 0.01428 0.03872 0.22691
 C50 C -0.01449 0.07950 0.23470
 C51 C -0.01554 0.12357 0.21550
 C52 C 0.04392 0.08363 0.18111
 C53 C -0.04147 -0.03131 0.30907
 C54 C -0.08479 -0.03144 0.32821
 C55 C -0.13517 -0.01148 0.28441
 C56 C -0.09105 -0.01304 0.26598
 N57 N -0.04520 -0.02276 0.27845
 H58 H 0.06627 0.00728 0.19531
 H59 H -0.03658 0.07797 0.25585
 H60 H -0.03867 0.15569 0.22201
 H61 H 0.06674 0.08383 0.16018
 H62 H -0.00504 -0.03759 0.31894
 H63 H -0.08127 -0.03833 0.35251
 H64 H -0.17128 -0.00300 0.27426
 H65 H -0.09332 -0.00487 0.24179
 C66 C 0.01095 -0.15889 0.18796
 C67 C 0.15800 -0.02196 0.31191
 C68 C -0.13216 -0.02112 0.31585
 C69 C 0.01372 0.12587 0.18824
 C70 C -0.05178 0.11071 0.77306
 H71 H -0.08168 0.10733 0.75715
 C72 C -0.05230 0.15186 0.79205
 H73 H -0.08268 0.17965 0.79046
 C74 C 0.02498 0.08019 0.79368
 H75 H 0.05574 0.05307 0.79387
 C76 C 0.02593 0.12060 0.81303
 H77 H 0.05675 0.12291 0.82853
 N78 N -0.01372 0.07551 0.77435
 C79 C 0.05596 -0.02086 0.70697
 H80 H 0.02998 -0.05285 0.70869
 C81 C 0.09907 -0.02230 0.68777
 H82 H 0.10564 -0.05544 0.67448
 C83 C 0.07767 0.06183 0.72163
 H84 H 0.06888 0.09472 0.73468
 C85 C 0.12142 0.06191 0.70280
 H86 H 0.14645 0.09467 0.70201
 Zn87 Zn -0.01354 0.01929 0.74849
 N88 N 0.04607 0.02078 0.72336
 C89 C -0.06374 0.03171 0.69290
 N90 N -0.07110 0.02362 0.72351
 C91 C -0.11872 0.01905 0.73634
 C92 C -0.16105 0.02007 0.71808
 C93 C -0.10503 0.03399 0.67388
 C94 C 0.02787 -0.05487 0.78896
 C95 C 0.02948 -0.09925 0.80782
 C96 C -0.05302 -0.12210 0.79077
 C97 C -0.05311 -0.07710 0.77230
 N98 N -0.01364 -0.04369 0.77233
 H99 H -0.02582 0.03637 0.68311
 H100 H -0.12375 0.01394 0.76079
 H101 H -0.19866 0.01546 0.72851
 H102 H -0.09850 0.03971 0.64953
 H103 H 0.06016 -0.02962 0.78746
 H104 H 0.06230 -0.10631 0.82155
 H105 H -0.08487 -0.14802 0.79043
 H106 H -0.08476 -0.06936 0.75792
 C107 C 0.13259 0.01943 0.68551
 C108 C -0.01310 0.15711 0.81244
 C109 C -0.01163 -0.13331 0.80921
 C110 C -0.15429 0.02741 0.68644
 C111 C 0.00588 -0.32199 0.10506
 C112 C 0.05121 -0.33816 0.09090
 C113 C 0.04955 -0.37679 0.07006
 C114 C 0.00292 -0.39897 0.06319
 C115 C -0.04214 -0.38244 0.07783
 C116 C -0.04086 -0.34398 0.09878
 C117 C 0.00731 -0.28086 0.12666
 C118 C -0.03807 -0.26445 0.14066
 C119 C -0.03659 -0.22494 0.16090
 C120 C 0.00982 -0.20161 0.16706
 C121 C 0.05501 -0.21880 0.15286
 C122 C 0.05396 -0.25843 0.13266
 C123 C -0.08544 -0.32676 0.11339
 C124 C -0.08406 -0.28771 0.13400
 C125 C 0.09722 -0.31503 0.09764
 C126 C 0.09857 -0.27580 0.11815
 H127 H -0.12174 -0.34346 0.10876
 H128 H -0.11934 -0.27543 0.14468
 H129 H 0.13247 -0.32716 0.08687
 H130 H 0.13482 -0.25882 0.12259
 H131 H 0.08446 -0.38908 0.05892
 H132 H -0.07824 -0.39920 0.07279
 H133 H -0.07148 -0.21257 0.17200
 H134 H 0.09084 -0.20071 0.15706
 C135 C 0.00696 0.30225 0.10475
 C136 C 0.05227 0.32194 0.09127
 C137 C 0.05031 0.36407 0.07036
 C138 C 0.00331 0.38631 0.06254
 C139 C -0.04178 0.36600 0.07658
 C140 C -0.04012 0.32411 0.09769
 C141 C 0.00881 0.25754 0.12647
 C142 C -0.03654 0.23784 0.13995
 C143 C -0.03462 0.19508 0.16039
 C144 C 0.01217 0.17179 0.16715
 C145 C 0.05729 0.19211 0.15342
 C146 C 0.05583 0.23511 0.13313
 C147 C -0.08467 0.30337 0.11170
 C148 C -0.08291 0.26102 0.13251
 C149 C 0.09866 0.29877 0.09874
 C150 C 0.10040 0.25603 0.11927
 H151 H -0.12126 0.31992 0.10647
 H152 H -0.11816 0.24615 0.14274
 H153 H 0.13392 0.31360 0.08849
 H154 H 0.13694 0.23916 0.12427
 H155 H 0.08544 0.37891 0.05989
 H156 H -0.07830 0.38246 0.07103
 H157 H -0.06955 0.17930 0.17057
 H158 H 0.09347 0.17469 0.15876
 C159 C 0.30772 0.01459 0.60358
 C160 C 0.33400 -0.03159 0.60039
 C161 C 0.37515 -0.03325 0.57946
 C162 C 0.39022 0.01090 0.56183
 C163 C 0.36384 0.05711 0.56566
 C164 C 0.32235 0.05908 0.58640
 C165 C 0.26363 0.01620 0.62505
 C166 C 0.23675 0.06212 0.62787
 C167 C 0.19420 0.06315 0.64786
 C168 C 0.17857 0.01868 0.66503
 C169 C 0.20653 -0.02687 0.66214
 C170 C 0.24888 -0.02839 0.64209
 C171 C 0.29478 0.10446 0.59004
 C172 C 0.25265 0.10593 0.61038
 C173 C 0.31832 -0.07532 0.61800
 C174 C 0.27653 -0.07372 0.63854
 H175 H 0.30564 0.13905 0.57691
 H176 H 0.23226 0.14162 0.61236
 H177 H 0.33836 -0.11116 0.61578
 H178 H 0.26554 -0.10836 0.65159
 H179 H 0.39525 -0.06897 0.57680
 H180 H 0.37496 0.09126 0.55215
 H181 H 0.17267 0.09823 0.64955
 H182 H 0.19543 -0.06110 0.67557
 C183 C -0.31898 0.02051 0.60447
 C184 C -0.35139 -0.02207 0.60614
 C185 C -0.38938 -0.02525 0.58478
 C186 C -0.39550 0.01416 0.56221
 C187 C -0.36326 0.05704 0.56125
 C188 C -0.32455 0.06014 0.58213
 C189 C -0.27791 0.02325 0.62623
 C190 C -0.24435 0.06493 0.62384
 C191 C -0.20426 0.06644 0.64389
 C192 C -0.19814 0.02702 0.66642
 C193 C -0.23277 -0.01389 0.66897
 C194 C -0.27245 -0.01628 0.64867
 C195 C -0.29082 0.10168 0.58082
 C196 C -0.25125 0.10392 0.60124
 C197 C -0.34486 -0.06076 0.62899
 C198 C -0.30620 -0.05780 0.64998
 H199 H -0.29471 0.13247 0.56366
 H200 H -0.22572 0.13635 0.59924
 H201 H -0.36973 -0.09371 0.63059
 H202 H -0.30235 -0.08856 0.66716
 H203 H -0.41423 -0.05823 0.58576
 H204 H -0.36748 0.08735 0.54381
 H205 H -0.17777 0.09811 0.64202
 H206 H -0.22778 -0.04453 0.68612
 C207 C -0.00927 -0.30832 0.89409
 C208 C 0.03656 -0.33432 0.89905
 C209 C 0.03756 -0.37516 0.92089
 C210 C -0.00692 -0.39022 0.93762
 C211 C -0.05274 -0.36407 0.93204
 C212 C -0.05405 -0.32290 0.91040
 C213 C -0.01025 -0.26456 0.87166
 C214 C -0.05586 -0.23793 0.86710
 C215 C -0.05627 -0.19554 0.84631
 C216 C -0.01150 -0.17976 0.83009
 C217 C 0.03370 -0.20758 0.83463
 C218 C 0.03460 -0.24979 0.85551
 C219 C -0.09909 -0.29564 0.90498
 C220 C -0.09996 -0.25381 0.88374
 C221 C 0.08058 -0.31867 0.88226
 C222 C 0.07960 -0.27718 0.86081
 H223 H -0.13390 -0.30649 0.91742
 H224 H -0.13540 -0.23360 0.88042
 H225 H 0.11616 -0.33851 0.88584
 H226 H 0.11445 -0.26619 0.84846
 H227 H 0.07298 -0.39510 0.92489
 H228 H -0.08715 -0.37520 0.94482
 H229 H -0.09111 -0.17409 0.84335
 H230 H 0.06818 -0.19637 0.82195
 C231 C -0.00981 0.31946 0.89581
 C232 C -0.05510 0.33426 0.91059
 C233 C -0.05365 0.37228 0.93184
 C234 C -0.00724 0.39514 0.93849
 C235 C 0.03775 0.37998 0.92324
 C236 C 0.03667 0.34219 0.90188
 C237 C -0.01096 0.27893 0.87382
 C238 C 0.03443 0.26384 0.85926
 C239 C 0.03331 0.22466 0.83881
 C240 C -0.01270 0.20023 0.83305
 C241 C -0.05798 0.21629 0.84763
 C242 C -0.05730 0.25562 0.86807
 C243 C 0.08123 0.32638 0.88665
 C244 C 0.08012 0.28790 0.86567
 C245 C -0.10083 0.31037 0.90404
 C246 C -0.10190 0.27168 0.88316
 H247 H 0.11732 0.34370 0.89109
 H248 H 0.11538 0.27663 0.85454
 H249 H -0.13605 0.32145 0.91528
 H250 H -0.13792 0.25403 0.87892
 H251 H -0.08850 0.38353 0.94346
 H252 H 0.07366 0.39733 0.92809
 H253 H 0.06823 0.21322 0.82736
 H254 H -0.09348 0.19739 0.84365
 C255 C -0.30644 -0.01161 0.39731
 C256 C -0.33227 0.03493 0.39996
 C257 C -0.37306 0.03782 0.42111
 C258 C -0.38888 -0.00577 0.43917
 C259 C -0.36298 -0.05249 0.43558
 C260 C -0.32136 -0.05538 0.41505
 C261 C -0.26251 -0.01443 0.37581
 C262 C -0.23546 -0.06050 0.37403
 C263 C -0.19277 -0.06252 0.35424
 C264 C -0.17796 -0.01922 0.33592
 C265 C -0.20599 0.02637 0.33746
 C266 C -0.24800 0.02919 0.35773
 C267 C -0.29390 -0.10104 0.41223
 C268 C -0.25148 -0.10347 0.39220
 C269 C -0.31659 0.07777 0.38151
 C270 C -0.27536 0.07486 0.36062
 H271 H -0.30497 -0.13507 0.42585
 H272 H -0.23104 -0.13927 0.39096
 H273 H -0.33632 0.11387 0.38325
 H274 H -0.26449 0.10880 0.34686
 H275 H -0.39254 0.07401 0.42332
 H276 H -0.37424 -0.08642 0.44927
 H277 H -0.17113 -0.09763 0.35293
 H278 H -0.19419 0.05980 0.32348
 C279 C 0.32109 -0.01124 0.39544
 C280 C 0.34697 -0.05600 0.40469
 C281 C 0.38532 -0.05324 0.42591
 C282 C 0.39798 -0.00604 0.43763
 C283 C 0.37189 0.03849 0.42777
 C284 C 0.33326 0.03607 0.40685
 C285 C 0.28009 -0.01399 0.37362
 C286 C 0.25365 0.03064 0.36486
 C287 C 0.21408 0.02773 0.34460
 C288 C 0.20103 -0.01931 0.33279
 C289 C 0.22841 -0.06367 0.34162
 C290 C 0.26779 -0.06125 0.36218
 C291 C 0.30623 0.07997 0.39734
 C292 C 0.26699 0.07728 0.37677
 C293 C 0.33372 -0.10259 0.39265
 C294 C 0.29491 -0.10515 0.37170
 H295 H 0.31527 0.11669 0.40602
 H296 H 0.24688 0.11200 0.37016
 H297 H 0.35344 -0.13741 0.39953
 H298 H 0.28582 -0.14187 0.36304
 H299 H 0.40521 -0.08771 0.43328
 H300 H 0.38107 0.07498 0.43673
 H301 H 0.19278 0.06198 0.33855
 H302 H 0.21926 -0.09997 0.33246
   
