data_POSCAR
  _audit_creation_date              2014-09-24
  _audit_creation_method            'ToBaCCo'
  _symmetry_space_group_name_H-M    'P1'
  _symmetry_Int_Tables_number       1
  _symmetry_cell_setting            triclinic
  loop_
  _symmetry_equiv_pos_as_xyz
 x,y,z
_cell_length_a 20.9737
_cell_length_b 21.0852
_cell_length_c 53.3968
_cell_angle_alpha 89.733300
_cell_angle_beta 90.543100
_cell_angle_gamma 119.988000
loop_
  _atom_site_label
  _atom_site_type_symbol
  _atom_site_fract_x
  _atom_site_fract_y
  _atom_site_fract_z
Si1 Si 0.00321 0.00357 0.50083
 Si2 Si 1.00145 -0.00206 0.16666
 Si3 Si -0.00370 0.99914 0.83239
 O4 O 0.59020 0.06077 -0.02559
 O5 O 0.46617 0.06000 0.02329
 O6 O 0.59277 0.06456 0.02309
 O7 O 0.46801 0.06517 -0.02545
 O8 O 0.40662 -0.05592 -0.02579
 O9 O 0.53246 -0.05654 0.02296
 O10 O 0.40593 -0.06109 0.02291
 O11 O 0.52868 -0.06033 -0.02569
 Cu12 Cu 0.53537 0.07482 -0.00115
 Cu13 Cu 0.46228 -0.07063 -0.00142
 C14 C 0.58032 -0.00001 -0.03377
 C15 C 0.41492 -0.00104 0.03128
 C16 C 0.58410 0.00418 0.03115
 C17 C 0.41619 0.00506 -0.03377
 O18 O -0.05768 0.53377 0.64252
 O19 O -0.05924 0.40808 0.69122
 O20 O -0.06405 0.52957 0.69104
 O21 O -0.06103 0.40826 0.64264
 O22 O 0.06071 0.46858 0.64358
 O23 O 0.05768 0.59131 0.69209
 O24 O 0.06250 0.46981 0.69217
 O25 O 0.06406 0.59411 0.64357
 Cu26 Cu -0.07275 0.46378 0.66676
 Cu27 Cu 0.07350 0.53711 0.66796
 C28 C 0.00374 0.58556 0.63499
 C29 C 0.00169 0.41758 0.69973
 C30 C -0.00399 0.58130 0.69957
 C31 C 0.00001 0.41727 0.63509
 O32 O 0.59422 0.53423 0.35862
 O33 O 0.46932 0.40882 0.30980
 O34 O 0.59620 0.53007 0.30996
 O35 O 0.47203 0.40851 0.35846
 O36 O 0.41070 0.46864 0.35780
 O37 O 0.53618 0.59148 0.30906
 O38 O 0.40936 0.47029 0.30913
 O39 O 0.53292 0.59438 0.35772
 Cu40 Cu 0.53907 0.46433 0.33428
 Cu41 Cu 0.46623 0.53735 0.33334
 C42 C 0.58451 0.58569 0.36633
 C43 C 0.41790 0.41839 0.30136
 C44 C 0.58760 0.58142 0.30138
 C45 C 0.42025 0.41753 0.36624
 C46 C -0.00709 0.26741 0.58519
 C47 C 0.00181 0.28215 0.55917
 C48 C -0.00301 0.22787 0.54233
 C49 C -0.01686 0.15917 0.55163
 C50 C -0.02588 0.14434 0.57764
 C51 C -0.02098 0.19863 0.59448
 C52 C -0.02973 0.18270 0.62043
 C53 C -0.04284 0.11513 0.62947
 C54 C -0.04753 0.06209 0.61300
 C55 C -0.03920 0.07621 0.58736
 C56 C 0.00683 0.24408 0.51642
 C57 C 0.02089 0.31194 0.50739
 C58 C 0.02543 0.36497 0.52385
 C59 C 0.01601 0.35053 0.54946
 C60 C -0.01700 0.10564 0.53466
 C61 C -0.01308 0.06285 0.52082
 C62 C -0.00260 0.32256 0.60242
 C63 C -0.00023 0.36697 0.61709
 H64 H -0.02641 0.22221 0.63401
 H65 H -0.04941 0.10389 0.64937
 H66 H -0.05774 0.00969 0.62011
 H67 H -0.04340 0.03316 0.57529
 H68 H 0.00376 0.20459 0.50288
 H69 H 0.02839 0.32346 0.48752
 H70 H 0.03639 0.41762 0.51674
 H71 H 0.02018 0.39355 0.56153
 C72 C 0.73639 0.71846 0.24987
 C73 C 0.71445 0.74578 0.22926
 C74 C 0.76818 0.79617 0.21244
 C75 C 0.84347 0.81846 0.21618
 C76 C 0.86521 0.78984 0.23644
 C77 C 0.81153 0.73971 0.25335
 C78 C 0.83470 0.71225 0.27358
 C79 C 0.90874 0.73369 0.27699
 C80 C 0.96119 0.78274 0.26046
 C81 C 0.93999 0.81070 0.24038
 C82 C 0.74505 0.82375 0.19222
 C83 C 0.67095 0.80158 0.18856
 C84 C 0.61837 0.75191 0.20492
 C85 C 0.63957 0.72427 0.22510
 C86 C 0.89848 0.87352 0.19989
 C87 C 0.94203 0.92139 0.18647
 C88 C 0.68207 0.66973 0.26777
 C89 C 0.63803 0.62951 0.28294
 H90 H 0.79597 0.67393 0.28694
 H91 H 0.92550 0.71212 0.29256
 H92 H 1.01862 0.79921 0.26319
 H93 H 0.98274 0.84862 0.22798
 H94 H 0.78391 0.86274 0.17909
 H95 H 0.65427 0.82313 0.17297
 H96 H 0.56085 0.73483 0.20201
 H97 H 0.59667 0.68587 0.23736
 C98 C 0.27638 0.01465 -0.08559
 C99 C 0.25875 0.07107 -0.08334
 C100 C 0.20779 0.07422 -0.10032
 C101 C 0.17493 0.02108 -0.11946
 C102 C 0.19383 -0.03434 -0.12209
 C103 C 0.24471 -0.03756 -0.10509
 C104 C 0.26236 -0.09371 -0.10797
 C105 C 0.23065 -0.14524 -0.12711
 C106 C 0.18090 -0.14213 -0.14374
 C107 C 0.16243 -0.08750 -0.14134
 C108 C 0.19043 0.13060 -0.09757
 C109 C 0.22267 0.18259 -0.07859
 C110 C 0.27261 0.17964 -0.06201
 C111 C 0.29063 0.12464 -0.06426
 C112 C 0.11878 0.02060 -0.13565
 C113 C 0.06985 0.01567 -0.14896
 C114 C 0.32602 0.00973 -0.06756
 C115 C 0.36708 0.00660 -0.05229
 H116 H 0.30084 -0.09832 -0.09552
 H117 H 0.24482 -0.18779 -0.12906
 H118 H 0.15656 -0.18219 -0.15860
 H119 H 0.12356 -0.08735 -0.15477
 H120 H 0.15199 0.13519 -0.11006
 H121 H 0.20882 0.22539 -0.07675
 H122 H 0.29753 0.22017 -0.04731
 H123 H 0.32980 0.12468 -0.05092
 C124 C 0.01441 0.73801 0.58503
 C125 C 0.00637 0.72427 0.55893
 C126 C 0.01157 0.77913 0.54214
 C127 C 0.02487 0.84739 0.55156
 C128 C 0.03318 0.86127 0.57764
 C129 C 0.02796 0.80642 0.59444
 C130 C 0.03597 0.82140 0.62047
 C131 C 0.04864 0.88857 0.62962
 C132 C 0.05361 0.94214 0.61318
 C133 C 0.04603 0.92897 0.58748
 C134 C 0.00257 0.76392 0.51614
 C135 C -0.01105 0.69644 0.50699
 C136 C -0.01602 0.64283 0.52341
 C137 C -0.00741 0.65630 0.54910
 C138 C 0.02482 0.90129 0.53462
 C139 C 0.02052 0.94428 0.52080
 C140 C 0.00897 0.68206 0.60225
 C141 C 0.00557 0.63690 0.61693
 H142 H 0.03242 0.78145 0.63401
 H143 H 0.05466 0.89910 0.64957
 H144 H 0.06345 0.99422 0.62038
 H145 H 0.05042 0.97241 0.57545
 H146 H 0.00596 0.80388 0.50263
 H147 H -0.01794 0.68567 0.48706
 H148 H -0.02669 0.59048 0.51621
 H149 H -0.01186 0.61285 0.56114
 C150 C 0.26638 0.27708 0.25076
 C151 C 0.19526 0.22632 0.25962
 C152 C 0.14061 0.17646 0.24270
 C153 C 0.15739 0.17759 0.21703
 C154 C 0.22816 0.22894 0.20810
 C155 C 0.28284 0.27886 0.22501
 C156 C 0.35332 0.32936 0.21569
 C157 C 0.36936 0.33050 0.19036
 C158 C 0.31591 0.28169 0.17382
 C159 C 0.24605 0.23131 0.18248
 C160 C 0.07012 0.12583 0.25202
 C161 C 0.05405 0.12450 0.27735
 C162 C 0.10745 0.17328 0.29390
 C163 C 0.17731 0.22373 0.28524
 C164 C 0.10363 0.12270 0.20020
 C165 C 0.06070 0.07480 0.18652
 C166 C 0.32226 0.32736 0.26818
 C167 C 0.36711 0.36889 0.28308
 H168 H 0.39669 0.36837 0.22784
 H169 H 0.42358 0.36945 0.18354
 H170 H 0.32868 0.28274 0.15417
 H171 H 0.20631 0.19448 0.16890
 H172 H 0.02670 0.08688 0.23987
 H173 H -0.00013 0.08541 0.28416
 H174 H 0.09471 0.17203 0.31356
 H175 H 0.21697 0.26049 0.29886
 C176 C 0.71822 -0.01094 -0.08500
 C177 C 0.74546 0.03720 -0.10573
 C178 C 0.79496 0.03247 -0.12260
 C179 C 0.81698 -0.02031 -0.11859
 C180 C 0.78862 -0.06939 -0.09816
 C181 C 0.73906 -0.06474 -0.08131
 C182 C 0.71176 -0.11420 -0.06093
 C183 C 0.73284 -0.16668 -0.05731
 C184 C 0.78135 -0.17113 -0.07379
 C185 C 0.80913 -0.12316 -0.09401
 C186 C 0.82181 0.08148 -0.14313
 C187 C 0.80027 0.13354 -0.14690
 C188 C 0.75193 0.13817 -0.13039
 C189 C 0.72467 0.09071 -0.11001
 C190 C 0.87191 -0.02100 -0.13470
 C191 C 0.91979 -0.01726 -0.14795
 C192 C 0.66948 -0.00483 -0.06727
 C193 C 0.62898 -0.00127 -0.05218
 H194 H 0.67386 -0.11295 -0.04760
 H195 H 0.71139 -0.20410 -0.04163
 H196 H 0.79753 -0.21201 -0.07091
 H197 H 0.84659 -0.12881 -0.10637
 H198 H 0.85941 0.07995 -0.15653
 H199 H 0.82109 0.17038 -0.16275
 H200 H 0.73536 0.17871 -0.13340
 H201 H 0.68713 0.09637 -0.09769
 C202 C 0.26741 -0.01324 0.08335
 C203 C 0.28962 0.03359 0.10446
 C204 C 0.23608 0.02884 0.12166
 C205 C 0.16064 -0.02261 0.11760
 C206 C 0.13863 -0.07066 0.09684
 C207 C 0.19217 -0.06602 0.07966
 C208 C 0.16873 -0.11443 0.05896
 C209 C 0.09458 -0.16587 0.05533
 C210 C 0.04227 -0.17029 0.07212
 C211 C 0.06372 -0.12335 0.09267
 C212 C 0.25956 0.07651 0.14259
 C213 C 0.33379 0.12727 0.14642
 C214 C 0.38610 0.13199 0.12957
 C215 C 0.36458 0.08584 0.10879
 C216 C 0.10569 -0.02270 0.13392
 C217 C 0.06184 -0.01858 0.14721
 C218 C 0.32158 -0.00682 0.06524
 C219 C 0.36522 -0.00288 0.04990
 H220 H 0.20733 -0.11316 0.04538
 H221 H 0.07764 -0.20248 0.03940
 H222 H -0.01525 -0.21033 0.06922
 H223 H 0.02107 -0.12896 0.10526
 H224 H 0.22099 0.07487 0.15626
 H225 H 0.35084 0.16306 0.16257
 H226 H 0.44368 0.17157 0.13262
 H227 H 0.40729 0.09149 0.09623
 C228 C 0.72253 0.73523 0.41794
 C229 C 0.75159 0.71489 0.43850
 C230 C 0.80132 0.76922 0.45548
 C231 C 0.82176 0.84357 0.45177
 C232 C 0.79147 0.86369 0.43156
 C233 C 0.74168 0.80937 0.41459
 C234 C 0.71246 0.83092 0.39441
 C235 C 0.73190 0.90401 0.39111
 C236 C 0.78065 0.95709 0.40771
 C237 C 0.81029 0.93748 0.42774
 C238 C 0.83002 0.74764 0.47583
 C239 C 0.81007 0.67450 0.47929
 C240 C 0.76152 0.62141 0.46266
 C241 C 0.73245 0.64106 0.44246
 C242 C 0.87718 0.89939 0.46793
 C243 C 0.92561 0.94358 0.48120
 C244 C 0.67374 0.68031 0.40004
 C245 C 0.63322 0.63607 0.38483
 H246 H 0.67432 0.79166 0.38099
 H247 H 0.70902 0.91952 0.37558
 H248 H 0.79557 1.01378 0.40507
 H249 H 0.84787 0.98066 0.44020
 H250 H 0.86788 0.78686 0.48931
 H251 H 0.83235 0.65892 0.49499
 H252 H 0.74623 0.56467 0.46542
 H253 H 0.69483 0.59781 0.43003
 C254 C 0.00938 0.27363 0.74951
 C255 C -0.00019 0.27820 0.77552
 C256 C 0.00417 0.22785 0.79225
 C257 C 0.01818 0.17334 0.78286
 C258 C 0.02797 0.16886 0.75686
 C259 C 0.02357 0.21917 0.74013
 C260 C 0.03305 0.21329 0.71418
 C261 C 0.04638 0.15922 0.70504
 C262 C 0.05060 0.10998 0.72142
 C263 C 0.04155 0.11447 0.74704
 C264 C -0.00634 0.23296 0.81816
 C265 C -0.02067 0.28636 0.82727
 C266 C -0.02484 0.33567 0.81092
 C267 C -0.01470 0.33194 0.78532
 C268 C 0.01740 0.11881 0.79969
 C269 C 0.01252 0.07123 0.81345
 C270 C 0.00494 0.32493 0.73236
 C271 C 0.00241 0.36733 0.71773
 H272 H 0.03013 0.25021 0.70068
 H273 H 0.05350 0.15553 0.68515
 H274 H 0.06102 0.06811 0.71423
 H275 H 0.04540 0.07498 0.75904
 H276 H -0.00360 0.19586 0.83162
 H277 H -0.02874 0.28938 0.84713
 H278 H -0.03606 0.37701 0.81809
 H279 H -0.01857 0.37142 0.77333
 C280 C 0.73240 0.01029 0.08277
 C281 C 0.79683 0.07797 0.08795
 C282 C 0.85106 0.08053 0.10476
 C283 C 0.84069 0.01541 0.11618
 C284 C 0.77597 -0.05219 0.11115
 C285 C 0.72145 -0.05465 0.09454
 C286 C 0.65699 -0.12272 0.08998
 C287 C 0.64676 -0.18661 0.10145
 C288 C 0.70035 -0.18435 0.11752
 C289 C 0.76440 -0.11815 0.12230
 C290 C 0.91501 0.14867 0.10963
 C291 C 0.92522 0.21259 0.09819
 C292 C 0.87230 0.21014 0.08172
 C293 C 0.80872 0.14376 0.07660
 C294 C 0.89666 0.01700 0.13280
 C295 C 0.94097 0.01383 0.14649
 C296 C 0.67846 0.00716 0.06481
 C297 C 0.63459 0.00504 0.04961
 H298 H 0.61381 -0.12729 0.07756
 H299 H 0.59708 -0.23818 0.09779
 H300 H 0.69231 -0.23415 0.12633
 H301 H 0.80471 -0.11938 0.13476
 H302 H 0.95768 0.15325 0.12231
 H303 H 0.97449 0.26429 0.10211
 H304 H 0.88052 0.25994 0.07287
 H305 H 0.76910 0.14466 0.06369
 C306 C 0.28083 0.26939 0.41744
 C307 C 0.25380 0.29062 0.43806
 C308 C 0.20421 0.23679 0.45504
 C309 C 0.18194 0.16205 0.45128
 C310 C 0.20983 0.14094 0.43091
 C311 C 0.25942 0.19475 0.41392
 C312 C 0.28616 0.17220 0.39357
 C313 C 0.26452 0.09866 0.39011
 C314 C 0.21603 0.04609 0.40673
 C315 C 0.18881 0.06667 0.42693
 C316 C 0.17750 0.25928 0.47544
 C317 C 0.19922 0.33281 0.47895
 C318 C 0.24771 0.38541 0.46234
 C319 C 0.27487 0.36489 0.44210
 C320 C 0.12725 0.10691 0.46761
 C321 C 0.07956 0.06318 0.48103
 C322 C 0.33007 0.32394 0.39969
 C323 C 0.37104 0.36779 0.38461
 H324 H 0.32399 0.21103 0.38013
 H325 H 0.28550 0.08239 0.37444
 H326 H 0.19940 -0.01097 0.40397
 H327 H 0.15131 0.02384 0.43940
 H328 H 0.13979 0.22046 0.48891
 H329 H 0.17838 0.34904 0.49467
 H330 H 0.26441 0.44246 0.46515
 H331 H 0.31248 0.40779 0.42968
 C332 C -0.01629 0.72208 0.74906
 C333 C -0.02780 0.77828 0.73937
 C334 C -0.03296 0.82798 0.75598
 C335 C -0.02662 0.82115 0.78214
 C336 C -0.01580 0.76459 0.79184
 C337 C -0.01070 0.71483 0.77524
 C338 C 0.00048 0.65894 0.78536
 C339 C 0.00663 0.65251 0.81114
 C340 C 0.00177 0.70126 0.82737
 C341 C -0.00927 0.75679 0.81793
 C342 C -0.04381 0.88413 0.74587
 C343 C -0.04958 0.89088 0.72009
 C344 C -0.04464 0.84222 0.70385
 C345 C -0.03386 0.78649 0.71327
 C346 C -0.02603 0.87531 0.79891
 C347 C -0.02133 0.92269 0.81259
 C348 C -0.01034 0.67184 0.73203
 C349 C -0.00643 0.63039 0.71749
 H350 H 0.00469 0.61977 0.77348
 H351 H 0.01524 0.60949 0.81856
 H352 H 0.00672 0.69613 0.84738
 H353 H -0.01272 0.79335 0.83131
 H354 H -0.04814 0.92324 0.75775
 H355 H -0.05802 0.93403 0.71269
 H356 H -0.04926 0.84764 0.68384
 H357 H -0.03029 0.75008 0.69986
   
