data_POSCAR
  _audit_creation_date              2014-09-24
  _audit_creation_method            'ToBaCCo'
  _symmetry_space_group_name_H-M    'P1'
  _symmetry_Int_Tables_number       1
  _symmetry_cell_setting            triclinic
  loop_
  _symmetry_equiv_pos_as_xyz
 x,y,z
_cell_length_a 58.8465
_cell_length_b 30.1502
_cell_length_c 26.3009
_cell_angle_alpha 89.913700
_cell_angle_beta 89.915400
_cell_angle_gamma 89.890800
loop_
  _atom_site_label
  _atom_site_type_symbol
  _atom_site_fract_x
  _atom_site_fract_y
  _atom_site_fract_z
C1 C 0.69690 0.30588 0.49761
 C2 C 0.70735 0.29870 0.54503
 C3 C 0.72795 0.27457 0.54621
 C4 C 0.73768 0.25673 0.50145
 C5 C 0.72610 0.26319 0.45509
 C6 C 0.70611 0.28817 0.45310
 C7 C 0.75995 0.23222 0.50284
 C8 C 0.77383 0.22956 0.45893
 C9 C 0.79506 0.20792 0.45978
 C10 C 0.80252 0.18966 0.50604
 C11 C 0.78904 0.19112 0.54990
 C12 C 0.76776 0.21199 0.54807
 H13 H 0.68083 0.32330 0.49499
 H14 H 0.73692 0.27185 0.58188
 H15 H 0.73214 0.24830 0.42022
 H16 H 0.76886 0.24659 0.42454
 H17 H 0.81867 0.17250 0.50797
 H18 H 0.75732 0.21145 0.58192
 C19 C 0.19775 0.81005 0.50692
 C20 C 0.20907 0.80120 0.55296
 C21 C 0.22917 0.77549 0.55147
 C22 C 0.23763 0.75807 0.50521
 C23 C 0.22509 0.76614 0.46040
 C24 C 0.20556 0.79245 0.46108
 C25 C 0.25947 0.73212 0.50307
 C26 C 0.27171 0.72901 0.45700
 C27 C 0.29167 0.70423 0.45387
 C28 C 0.30031 0.68357 0.49715
 C29 C 0.28904 0.68635 0.54440
 C30 C 0.26839 0.71040 0.54655
 H31 H 0.18198 0.82865 0.50655
 H32 H 0.23871 0.77112 0.58619
 H33 H 0.22992 0.75126 0.42461
 H34 H 0.26631 0.74655 0.42325
 H35 H 0.31656 0.66697 0.49362
 H36 H 0.25879 0.71041 0.58155
 C37 C 0.30496 0.29583 -0.49886
 C38 C 0.29653 0.27680 -0.54334
 C39 C 0.27532 0.25590 -0.54255
 C40 C 0.26174 0.25568 -0.49809
 C41 C 0.27053 0.27602 -0.45381
 C42 C 0.29214 0.29572 -0.45395
 C43 C 0.23819 0.23645 -0.49893
 C44 C 0.22713 0.22269 -0.45368
 C45 C 0.20409 0.20946 -0.45398
 C46 C 0.19304 0.20603 -0.50124
 C47 C 0.20390 0.21750 -0.54654
 C48 C 0.22611 0.23363 -0.54517
 H49 H 0.32154 0.31142 -0.49949
 H50 H 0.26975 0.23972 -0.57696
 H51 H 0.26048 0.27832 -0.41950
 H52 H 0.23604 0.22437 -0.41792
 H53 H 0.17601 0.19258 -0.50349
 H54 H 0.23341 0.24516 -0.58050
 C55 C -0.19416 0.79792 -0.49830
 C56 C -0.20246 0.78016 -0.54402
 C57 C -0.22424 0.76077 -0.54383
 C58 C -0.23784 0.76001 -0.49939
 C59 C -0.22914 0.77984 -0.45480
 C60 C -0.20737 0.79849 -0.45405
 C61 C -0.26115 0.73958 -0.49982
 C62 C -0.27166 0.72552 -0.45412
 C63 C -0.29420 0.71052 -0.45386
 C64 C -0.30588 0.70626 -0.49982
 C65 C -0.29559 0.71784 -0.54589
 C66 C -0.27351 0.73525 -0.54569
 H67 H -0.17762 0.81355 -0.49728
 H68 H -0.22997 0.74439 -0.57794
 H69 H -0.23934 0.78233 -0.42072
 H70 H -0.26280 0.72710 -0.41821
 H71 H -0.32310 0.69355 -0.49965
 H72 H -0.26657 0.74666 -0.58144
 O73 O -0.03063 0.92107 0.09466
 O74 O -0.05644 0.96015 0.04685
 C75 C -0.05129 0.93148 0.08196
 O76 O 0.03140 1.08125 0.09118
 O77 O 0.05708 1.03963 0.04616
 C78 C 0.05202 1.07018 0.07897
 O79 O -0.03171 1.07516 0.09579
 O80 O -0.05678 1.03452 0.04833
 C81 C -0.05215 1.06345 0.08340
 O82 O 0.03297 0.91917 0.09079
 O83 O 0.05788 0.96277 0.04597
 C84 C 0.05338 0.93177 0.07879
 Zr85 Zr 0.00102 0.94315 0.06644
 O86 O 0.00338 0.94234 0.14677
 O87 O -0.00076 0.87303 0.06561
 Zr88 Zr -0.00002 1.05517 0.06662
 O89 O 0.00242 1.05593 0.14689
 O90 O -0.00328 1.12512 0.06531
 O91 O -0.01977 0.99844 0.07688
 O92 O 0.02019 0.99982 0.07618
 O93 O 0.03368 0.92098 -0.08699
 O94 O 0.05799 0.96370 -0.03995
 C95 C 0.05394 0.93378 -0.07402
 O96 O -0.03179 1.07265 -0.09287
 O97 O -0.05667 1.03418 -0.04226
 C98 C -0.05215 1.06058 -0.07988
 O99 O 0.03172 1.08089 -0.08589
 O100 O 0.05728 1.03965 -0.04005
 C101 C 0.05233 1.06989 -0.07339
 O102 O -0.03010 0.92577 -0.09441
 O103 O -0.05589 0.96116 -0.04298
 C104 C -0.05075 0.93599 -0.08127
 Zr105 Zr 0.00134 0.94319 -0.06098
 O106 O 0.00405 0.93692 -0.14082
 O107 O -0.00106 0.87325 -0.05519
 Zr108 Zr 0.00005 1.05559 -0.06103
 O109 O 0.00287 1.05944 -0.14114
 O110 O -0.00373 1.12541 -0.05737
 Zr111 Zr -0.03350 0.99811 0.00293
 Zr112 Zr 0.03458 1.00061 0.00291
 O113 O 0.02031 1.00020 -0.07052
 O114 O -0.01934 0.99869 -0.07100
 O115 O 0.02176 0.93530 0.00281
 O116 O -0.02008 1.06274 0.00271
 O117 O -0.01879 0.93440 0.00247
 O118 O 0.02036 1.06488 0.00281
 H119 H 0.03031 1.00007 0.10625
 H120 H -0.03082 1.08810 0.00236
 H121 H 0.03030 1.00069 -0.10085
 H122 H -0.02910 0.90845 0.00179
 H123 H 0.00950 1.13700 0.04500
 H124 H 0.01041 1.13773 -0.04287
 H125 H -0.00749 1.03698 -0.15557
 H126 H -0.00310 0.96360 -0.15571
 H127 H 0.01397 0.86194 -0.04438
 H128 H 0.01192 0.86210 0.04430
 H129 H -0.00939 0.96020 0.16021
 H130 H -0.00937 1.03570 0.16030
 O131 O 0.46988 0.42016 0.09383
 O132 O 0.44394 0.45902 0.04637
 C133 C 0.44920 0.43063 0.08168
 O134 O 0.53104 0.58053 0.09042
 O135 O 0.55690 0.53959 0.04486
 C136 C 0.55172 0.56973 0.07817
 O137 O 0.46779 0.57401 0.09446
 O138 O 0.44296 0.53321 0.04647
 C139 C 0.44742 0.56189 0.08187
 O140 O 0.53316 0.41887 0.08860
 O141 O 0.55788 0.46279 0.04384
 C142 C 0.55352 0.43159 0.07644
 Zr143 Zr 0.50113 0.44242 0.06422
 O144 O 0.50364 0.44023 0.14444
 O145 O 0.49943 0.37231 0.06139
 Zr146 Zr 0.49968 0.55453 0.06531
 O147 O 0.50208 0.55495 0.14562
 O148 O 0.49628 0.62445 0.06436
 O149 O 0.48016 0.49749 0.07504
 O150 O 0.52007 0.49928 0.07440
 O151 O 0.53370 0.42153 -0.08928
 O152 O 0.55803 0.46444 -0.04238
 C153 C 0.55395 0.43459 -0.07659
 O154 O 0.46794 0.57265 -0.09373
 O155 O 0.44304 0.53317 -0.04421
 C156 C 0.44756 0.56009 -0.08139
 O157 O 0.53139 0.58112 -0.08733
 O158 O 0.55702 0.54006 -0.04156
 C159 C 0.55202 0.57017 -0.07498
 O160 O 0.46992 0.42583 -0.09672
 O161 O 0.44402 0.46036 -0.04479
 C162 C 0.44924 0.43559 -0.08336
 Zr163 Zr 0.50134 0.44313 -0.06305
 O164 O 0.50397 0.43686 -0.14286
 O165 O 0.49910 0.37318 -0.05744
 Zr166 Zr 0.49981 0.55560 -0.06211
 O167 O 0.50249 0.56027 -0.14220
 O168 O 0.49596 0.62537 -0.05752
 Zr169 Zr 0.46632 0.49739 0.00112
 Zr170 Zr 0.53445 0.50062 0.00115
 O171 O 0.52013 0.50041 -0.07222
 O172 O 0.48057 0.49857 -0.07269
 O173 O 0.52186 0.43510 0.00056
 O174 O 0.47960 0.56217 0.00151
 O175 O 0.48119 0.43385 0.00034
 O176 O 0.52012 0.56471 0.00169
 H177 H 0.53012 0.49944 0.10459
 H178 H 0.46878 0.58739 0.00126
 H179 H 0.53008 0.50123 -0.10264
 H180 H 0.47090 0.40788 -0.00030
 H181 H 0.50921 0.63658 0.04474
 H182 H 0.51017 0.63766 -0.04329
 H183 H 0.49237 0.53751 -0.15688
 H184 H 0.49755 0.46431 -0.15758
 H185 H 0.51422 0.36193 -0.04717
 H186 H 0.51276 0.36163 0.04194
 H187 H 0.49190 0.46041 0.15823
 H188 H 0.48995 0.53550 0.15900
 C189 C 0.33666 0.30275 0.32364
 C190 C 0.34598 0.27967 0.36526
 C191 C 0.33264 0.26946 0.40759
 C192 C 0.30963 0.28139 0.40893
 C193 C 0.29992 0.30229 0.36641
 C194 C 0.31336 0.31320 0.32423
 C195 C 0.35165 0.31785 0.28170
 N196 N 0.34472 0.34922 0.24783
 N197 N 0.35900 0.36501 0.21274
 C198 C 0.38077 0.34998 0.21009
 N199 N 0.38749 0.31820 0.24349
 N200 N 0.37329 0.30256 0.27851
 C201 C 0.39743 0.36906 0.17371
 C202 C 0.41988 0.35319 0.17357
 C203 C 0.43631 0.37262 0.14272
 C204 C 0.43085 0.40850 0.11083
 C205 C 0.40823 0.42360 0.10937
 C206 C 0.39166 0.40413 0.14069
 H207 H 0.36383 0.27099 0.36613
 H208 H 0.34044 0.25328 0.43998
 H209 H 0.28220 0.31210 0.36691
 H210 H 0.30564 0.33075 0.29271
 H211 H 0.42500 0.32616 0.19816
 H212 H 0.45348 0.35973 0.14455
 H213 H 0.40347 0.45107 0.08505
 H214 H 0.37450 0.41708 0.13976
 C215 C -0.16254 0.80215 0.32379
 C216 C -0.15227 0.79119 0.37023
 C217 C -0.16540 0.78248 0.41314
 C218 C -0.18934 0.78359 0.41091
 C219 C -0.19962 0.79148 0.36321
 C220 C -0.18634 0.80157 0.32038
 C221 C -0.14809 0.81593 0.28049
 N222 N -0.15581 0.84454 0.24437
 N223 N -0.14182 0.86022 0.20861
 C224 C -0.11960 0.84770 0.20751
 N225 N -0.11213 0.81848 0.24307
 N226 N -0.12601 0.80307 0.27882
 C227 C -0.10321 0.86714 0.17082
 C228 C -0.08094 0.85042 0.16889
 C229 C -0.06448 0.87081 0.13897
 C230 C -0.06974 0.90852 0.10984
 C231 C -0.09224 0.92435 0.10977
 C232 C -0.10885 0.90386 0.14014
 H233 H -0.13395 0.79089 0.37404
 H234 H -0.15662 0.77443 0.44811
 H235 H -0.21792 0.79313 0.35951
 H236 H -0.19468 0.80959 0.28485
 H237 H -0.07597 0.82197 0.19147
 H238 H -0.04743 0.85725 0.13940
 H239 H -0.09683 0.95327 0.08755
 H240 H -0.12587 0.91753 0.14073
 C241 C 0.66497 0.69194 0.32001
 C242 C 0.68775 0.67788 0.32279
 C243 C 0.70102 0.68811 0.36538
 C244 C 0.69163 0.71202 0.40613
 C245 C 0.66917 0.72735 0.40255
 C246 C 0.65604 0.71767 0.35990
 C247 C 0.65004 0.67810 0.27752
 N248 N 0.62900 0.69607 0.27256
 N249 N 0.61477 0.68171 0.23698
 C250 C 0.62089 0.64862 0.20477
 N251 N 0.64207 0.63095 0.20918
 N252 N 0.65636 0.64543 0.24481
 C253 C 0.60413 0.63064 0.16807
 C254 C 0.60932 0.59402 0.13700
 C255 C 0.59259 0.57508 0.10598
 C256 C 0.57033 0.59227 0.10575
 C257 C 0.56551 0.62991 0.13521
 C258 C 0.58215 0.64883 0.16589
 H259 H 0.69517 0.65821 0.29259
 H260 H 0.71829 0.67575 0.36748
 H261 H 0.66161 0.74610 0.43337
 H262 H 0.63860 0.72916 0.35909
 H263 H 0.62611 0.57925 0.13764
 H264 H 0.59689 0.54610 0.08366
 H265 H 0.54863 0.64429 0.13547
 H266 H 0.57752 0.67721 0.18888
 C267 C 0.16575 1.19390 0.31722
 C268 C 0.15686 1.22072 0.35621
 C269 C 0.16962 1.22964 0.39962
 C270 C 0.19166 1.21248 0.40476
 C271 C 0.20108 1.18755 0.36488
 C272 C 0.18817 1.17805 0.32157
 C273 C 0.15103 1.18046 0.27429
 N274 N 0.15700 1.14655 0.24295
 N275 N 0.14268 1.13205 0.20740
 C276 C 0.12184 1.15094 0.20174
 N277 N 0.11612 1.18534 0.23246
 N278 N 0.13037 1.19974 0.26794
 C279 C 0.10491 1.13262 0.16578
 C280 C 0.08297 1.15104 0.16362
 C281 C 0.06611 1.13151 0.13409
 C282 C 0.07072 1.09314 0.10568
 C283 C 0.09291 1.07573 0.10585
 C284 C 0.10984 1.09520 0.13579
 H285 H 0.13969 1.23353 0.35420
 H286 H 0.16209 1.24914 0.42984
 H287 H 0.21803 1.17381 0.36827
 H288 H 0.19553 1.15746 0.29212
 H289 H 0.07855 1.17995 0.18592
 H290 H 0.04926 1.14605 0.13445
 H291 H 0.09700 1.04621 0.08427
 H292 H 0.12658 1.08026 0.13645
 C293 C 0.67212 0.34073 -0.32242
 C294 C 0.67179 0.36675 -0.36658
 C295 C 0.68372 0.35342 -0.40985
 C296 C 0.69691 0.31425 -0.40974
 C297 C 0.69828 0.28976 -0.36400
 C298 C 0.68563 0.30238 -0.32125
 C299 C 0.65733 0.35251 -0.27916
 N300 N 0.64609 0.32055 -0.25281
 N301 N 0.63109 0.33141 -0.21685
 C302 C 0.62700 0.37463 -0.20546
 N303 N 0.63854 0.40651 -0.23123
 N304 N 0.65329 0.39568 -0.26762
 C305 C 0.60934 0.38713 -0.16818
 C306 C 0.61145 0.42645 -0.14015
 C307 C 0.59386 0.44055 -0.10833
 C308 C 0.57354 0.41627 -0.10498
 C309 C 0.57167 0.37629 -0.13202
 C310 C 0.58954 0.36158 -0.16288
 H311 H 0.66159 0.39665 -0.36832
 H312 H 0.68283 0.37447 -0.44317
 H313 H 0.70785 0.25910 -0.36198
 H314 H 0.68618 0.28189 -0.28741
 H315 H 0.62661 0.44660 -0.14335
 H316 H 0.59583 0.47141 -0.08794
 H317 H 0.55622 0.35688 -0.13005
 H318 H 0.58747 0.33124 -0.18434
 C319 C 0.17548 0.84137 -0.31205
 C320 C 0.17588 0.86930 -0.35463
 C321 C 0.18753 0.85674 -0.39852
 C322 C 0.19970 0.81641 -0.40058
 C323 C 0.20073 0.79020 -0.35609
 C324 C 0.18827 0.80207 -0.31273
 C325 C 0.16035 0.85210 -0.26904
 N326 N 0.14778 0.81992 -0.24631
 N327 N 0.13218 0.83029 -0.21145
 C328 C 0.12875 0.87319 -0.19765
 N329 N 0.14164 0.90521 -0.21972
 N330 N 0.15701 0.89492 -0.25500
 C331 C 0.11044 0.88553 -0.16191
 C332 C 0.11256 0.92370 -0.13190
 C333 C 0.09451 0.93800 -0.10157
 C334 C 0.07372 0.91510 -0.10156
 C335 C 0.07176 0.87622 -0.13065
 C336 C 0.09007 0.86128 -0.16013
 H337 H 0.16627 0.89997 -0.35488
 H338 H 0.18704 0.87900 -0.43085
 H339 H 0.20963 0.75874 -0.35581
 H340 H 0.18826 0.78015 -0.28007
 H341 H 0.12811 0.94286 -0.13239
 H342 H 0.09660 0.96800 -0.07957
 H343 H 0.05598 0.85783 -0.13133
 H344 H 0.08798 0.83183 -0.18318
 C345 C 0.32525 0.63619 -0.32815
 C346 C 0.30907 0.66999 -0.32137
 C347 C 0.29600 0.68503 -0.36261
 C348 C 0.29902 0.66676 -0.41169
 C349 C 0.31378 0.63002 -0.41645
 C350 C 0.32675 0.61530 -0.37557
 C351 C 0.34207 0.62493 -0.28830
 N352 N 0.36246 0.60767 -0.30215
 N353 N 0.37838 0.59925 -0.26768
 C354 C 0.37460 0.60743 -0.21771
 N355 N 0.35409 0.62428 -0.20346
 N356 N 0.33816 0.63318 -0.23820
 C357 C 0.39288 0.59872 -0.18051
 C358 C 0.38810 0.58524 -0.13046
 C359 C 0.40584 0.57337 -0.09746
 C360 C 0.42861 0.57588 -0.11372
 C361 C 0.43324 0.59105 -0.16317
 C362 C 0.41562 0.60194 -0.19623
 H363 H 0.30747 0.68656 -0.28503
 H364 H 0.28500 0.71331 -0.35646
 H365 H 0.31557 0.61235 -0.45200
 H366 H 0.33849 0.58808 -0.38158
 H367 H 0.37069 0.58239 -0.11749
 H368 H 0.40175 0.56174 -0.05956
 H369 H 0.45053 0.59308 -0.17712
 H370 H 0.41981 0.61256 -0.23447
 C371 C -0.17673 1.13971 -0.31898
 C372 C -0.17881 1.11400 -0.36318
 C373 C -0.19143 1.12938 -0.40438
 C374 C -0.20210 1.17103 -0.40257
 C375 C -0.20159 1.19528 -0.35697
 C376 C -0.18901 1.17965 -0.31534
 C377 C -0.15980 1.12696 -0.28006
 N378 N -0.16117 1.14177 -0.23134
 N379 N -0.14487 1.13205 -0.19783
 C380 C -0.12645 1.10776 -0.21212
 N381 N -0.12518 1.09294 -0.26068
 N382 N -0.14153 1.10220 -0.29386
 C383 C -0.10758 1.09860 -0.17667
 C384 C -0.08532 1.09585 -0.19561
 C385 C -0.06730 1.08522 -0.16349
 C386 C -0.07119 1.07611 -0.11185
 C387 C -0.09344 1.07920 -0.09260
 C388 C -0.11149 1.09104 -0.12468
 H389 H -0.16988 1.08272 -0.36677
 H390 H -0.19196 1.10963 -0.43873
 H391 H -0.20965 1.22754 -0.35468
 H392 H -0.18771 1.20013 -0.28168
 H393 H -0.08184 1.10180 -0.23550
 H394 H -0.05039 1.08262 -0.17954
 H395 H -0.09688 1.07220 -0.05292
 H396 H -0.12854 1.09285 -0.10927
 C397 C 0.66748 0.68265 -0.31831
 C398 C 0.68861 0.66174 -0.32630
 C399 C 0.70164 0.67169 -0.36956
 C400 C 0.69355 0.70216 -0.40570
 C401 C 0.67284 0.72387 -0.39695
 C402 C 0.66003 0.71446 -0.35372
 C403 C 0.65247 0.67017 -0.27524
 N404 N 0.63254 0.69198 -0.26803
 N405 N 0.61800 0.67916 -0.23221
 C406 C 0.62272 0.64393 -0.20185
 N407 N 0.64286 0.62245 -0.20832
 N408 N 0.65745 0.63531 -0.24432
 C409 C 0.60542 0.62772 -0.16528
 C410 C 0.61038 0.59368 -0.13042
 C411 C 0.59328 0.57631 -0.09914
 C412 C 0.57083 0.59212 -0.10275
 C413 C 0.56615 0.62731 -0.13620
 C414 C 0.58322 0.64499 -0.16687
 H415 H 0.69487 0.63716 -0.29971
 H416 H 0.71760 0.65458 -0.37570
 H417 H 0.66641 0.74786 -0.42409
 H418 H 0.64394 0.73140 -0.34887
 H419 H 0.62735 0.57990 -0.12792
 H420 H 0.59750 0.54961 -0.07331
 H421 H 0.54910 0.64053 -0.13977
 H422 H 0.57876 0.67130 -0.19311
 C423 C 0.16583 1.18250 -0.31984
 C424 C 0.18930 1.17386 -0.32078
 C425 C 0.20224 1.18369 -0.36430
 C426 C 0.19180 1.20102 -0.40847
 C427 C 0.16827 1.21010 -0.40639
 C428 C 0.15562 1.20127 -0.36290
 C429 C 0.15144 1.17126 -0.27542
 N430 N 0.13063 1.19023 -0.27057
 N431 N 0.11650 1.17779 -0.23379
 C432 C 0.12248 1.14570 -0.20016
 N433 N 0.14352 1.12719 -0.20426
 N434 N 0.15775 1.13978 -0.24113
 C435 C 0.10553 1.12925 -0.16283
 C436 C 0.11056 1.09411 -0.12944
 C437 C 0.09354 1.07592 -0.09849
 C438 C 0.07114 1.09223 -0.10075
 C439 C 0.06646 1.12868 -0.13237
 C440 C 0.08342 1.14700 -0.16283
 H441 H 0.19763 1.15942 -0.28800
 H442 H 0.22015 1.17550 -0.36388
 H443 H 0.15948 1.22557 -0.43791
 H444 H 0.13760 1.20862 -0.36350
 H445 H 0.12745 1.07986 -0.12821
 H446 H 0.09776 1.04819 -0.07410
 H447 H 0.04949 1.14248 -0.13468
 H448 H 0.07889 1.17428 -0.18766
 C449 C 0.32703 0.35045 -0.32548
 C450 C 0.32557 0.37415 -0.37137
 C451 C 0.31299 0.35762 -0.41193
 C452 C 0.30170 0.31680 -0.40779
 C453 C 0.30173 0.29456 -0.36077
 C454 C 0.31428 0.31133 -0.31982
 C455 C 0.34360 0.36447 -0.28643
 N456 N 0.34203 0.35054 -0.23734
 N457 N 0.35804 0.36129 -0.20361
 C458 C 0.37634 0.38579 -0.21795
 N459 N 0.37777 0.39980 -0.26686
 N460 N 0.36172 0.38949 -0.30030
 C461 C 0.39489 0.39604 -0.18211
 C462 C 0.41713 0.40092 -0.20065
 C463 C 0.43483 0.41209 -0.16798
 C464 C 0.43064 0.41959 -0.11614
 C465 C 0.40841 0.41448 -0.09732
 C466 C 0.39071 0.40216 -0.12998
 H467 H 0.33483 0.40484 -0.37660
 H468 H 0.31279 0.37595 -0.44738
 H469 H 0.29315 0.26301 -0.35663
 H470 H 0.31506 0.29240 -0.28484
 H471 H 0.42085 0.39616 -0.24061
 H472 H 0.45171 0.41633 -0.18373
 H473 H 0.40473 0.42025 -0.05751
 H474 H 0.37368 0.39872 -0.11483
 C475 C -0.17277 0.85235 -0.32470
 C476 C -0.17412 0.87634 -0.37040
 C477 C -0.18665 0.86011 -0.41122
 C478 C -0.19798 0.81929 -0.40753
 C479 C -0.19807 0.79677 -0.36071
 C480 C -0.18558 0.81325 -0.31948
 C481 C -0.15624 0.86605 -0.28540
 N482 N -0.15800 0.85218 -0.23632
 N483 N -0.14206 0.86269 -0.20236
 C484 C -0.12361 0.88689 -0.21643
 N485 N -0.12197 0.90085 -0.26534
 N486 N -0.13796 0.89078 -0.29901
 C487 C -0.10510 0.89683 -0.18034
 C488 C -0.08276 0.90087 -0.19854
 C489 C -0.06509 0.91190 -0.16573
 C490 C -0.06939 0.92008 -0.11407
 C491 C -0.09172 0.91574 -0.09556
 C492 C -0.10940 0.90355 -0.12836
 H493 H -0.16481 0.90700 -0.37530
 H494 H -0.18675 0.87865 -0.44653
 H495 H -0.20669 0.76523 -0.35693
 H496 H -0.18488 0.79411 -0.28464
 H497 H -0.07894 0.89559 -0.23837
 H498 H -0.04813 0.91546 -0.18124
 H499 H -0.09549 0.92199 -0.05589
 H500 H -0.12651 0.90073 -0.11346
 C501 C 0.33076 0.68118 0.31903
 C502 C 0.30868 0.66374 0.32355
 C503 C 0.29538 0.67328 0.36634
 C504 C 0.30405 0.69991 0.40540
 C505 C 0.32567 0.71863 0.40023
 C506 C 0.33883 0.70970 0.35726
 C507 C 0.34600 0.66757 0.27690
 N508 N 0.36647 0.68753 0.27079
 N509 N 0.38116 0.67311 0.23607
 C510 C 0.37611 0.63799 0.20590
 N511 N 0.35546 0.61838 0.21133
 N512 N 0.34071 0.63290 0.24612
 C513 C 0.39350 0.62004 0.17054
 C514 C 0.38910 0.58298 0.13959
 C515 C 0.40638 0.56454 0.10945
 C516 C 0.42839 0.58260 0.11013
 C517 C 0.43250 0.62036 0.13993
 C518 C 0.41531 0.63888 0.16954
 H519 H 0.30193 0.64181 0.29474
 H520 H 0.27873 0.65833 0.37008
 H521 H 0.33259 0.73918 0.43018
 H522 H 0.35571 0.72380 0.35507
 H523 H 0.37246 0.56774 0.13933
 H524 H 0.40268 0.53554 0.08672
 H525 H 0.44917 0.63549 0.14096
 H526 H 0.41937 0.66751 0.19259
 C527 C -0.16417 1.18548 0.32876
 C528 C -0.18791 1.18789 0.32436
 C529 C -0.20139 1.19773 0.36694
 C530 C -0.19144 1.20360 0.41534
 C531 C -0.16753 1.20256 0.41871
 C532 C -0.15416 1.19408 0.37607
 C533 C -0.14957 1.17257 0.28538
 N534 N -0.12736 1.18443 0.28504
 N535 N -0.11343 1.16999 0.24885
 C536 C -0.12099 1.14277 0.21148
 N537 N -0.14332 1.13119 0.21133
 N538 N -0.15736 1.14593 0.24754
 C539 C -0.10458 1.12457 0.17399
 C540 C -0.10999 1.08847 0.14232
 C541 C -0.09324 1.06898 0.11134
 C542 C -0.07087 1.08530 0.11173
 C543 C -0.06592 1.12256 0.14175
 C544 C -0.08248 1.14185 0.17231
 H545 H -0.19605 1.18169 0.28817
 H546 H -0.21967 1.19773 0.36230
 H547 H -0.15891 1.20905 0.45425
 H548 H -0.13588 1.19294 0.38065
 H549 H -0.12691 1.07444 0.14269
 H550 H -0.09762 1.04048 0.08841
 H551 H -0.04900 1.13658 0.14251
 H552 H -0.07770 1.16989 0.19562
 C553 C 0.66847 0.31438 0.31705
 C554 C 0.66107 0.28198 0.35191
 C555 C 0.67372 0.27262 0.39548
 C556 C 0.69415 0.29489 0.40461
 C557 C 0.70214 0.32589 0.36913
 C558 C 0.68934 0.33574 0.32573
 C559 C 0.65371 0.32750 0.27393
 N560 N 0.65856 0.36370 0.24502
 N561 N 0.64421 0.37741 0.20905
 C562 C 0.62444 0.35545 0.20049
 N563 N 0.61984 0.31885 0.22880
 N564 N 0.63414 0.30520 0.26470
 C565 C 0.60735 0.37267 0.16406
 C566 C 0.58605 0.35197 0.16023
 C567 C 0.56892 0.37040 0.13035
 C568 C 0.57265 0.40987 0.10319
 C569 C 0.59427 0.42959 0.10497
 C570 C 0.61144 0.41124 0.13530
 H571 H 0.64513 0.26482 0.34647
 H572 H 0.66736 0.24863 0.42267
 H573 H 0.71786 0.34353 0.37596
 H574 H 0.69553 0.36078 0.29965
 H575 H 0.58228 0.32211 0.18156
 H576 H 0.55253 0.35413 0.12944
 H577 H 0.59765 0.46003 0.08446
 H578 H 0.62769 0.42794 0.13722
 C579 C 0.16621 0.81969 0.32741
 C580 C 0.18866 0.83527 0.33127
 C581 C 0.20179 0.82528 0.37417
 C582 C 0.19253 0.80024 0.41408
 C583 C 0.17032 0.78415 0.41005
 C584 C 0.15734 0.79342 0.36696
 C585 C 0.15162 0.83205 0.28374
 N586 N 0.13131 0.81172 0.27687
 N587 N 0.11736 0.82450 0.23989
 C588 C 0.12305 0.85825 0.20812
 N589 N 0.14352 0.87829 0.21449
 N590 N 0.15755 0.86539 0.25150
 C591 C 0.10646 0.87448 0.16995
 C592 C 0.11087 0.91234 0.14018
 C593 C 0.09399 0.93002 0.10847
 C594 C 0.07239 0.91028 0.10623
 C595 C 0.06844 0.87128 0.13410
 C596 C 0.08524 0.85359 0.16544
 H597 H 0.19598 0.85553 0.30146
 H598 H 0.21892 0.83811 0.37692
 H599 H 0.16297 0.76465 0.44052
 H600 H 0.14014 0.78088 0.36531
 H601 H 0.12707 0.92917 0.14262
 H602 H 0.09757 0.96009 0.08740
 H603 H 0.05208 0.85494 0.13282
 H604 H 0.08126 0.82418 0.18736
   
