data_POSCAR
  _audit_creation_date              2014-09-24
  _audit_creation_method            'ToBaCCo'
  _symmetry_space_group_name_H-M    'P1'
  _symmetry_Int_Tables_number       1
  _symmetry_cell_setting            triclinic
  loop_
  _symmetry_equiv_pos_as_xyz
 x,y,z
_cell_length_a 38.1855
_cell_length_b 38.4168
_cell_length_c 38.4319
_cell_angle_alpha 89.930100
_cell_angle_beta 89.949000
_cell_angle_gamma 89.955500
loop_
  _atom_site_label
  _atom_site_type_symbol
  _atom_site_fract_x
  _atom_site_fract_y
  _atom_site_fract_z
C1 C 0.16763 0.17112 0.21138
 C2 C 0.15198 0.19985 0.19460
 C3 C 0.16610 0.21382 0.16397
 C4 C 0.19623 0.19884 0.14952
 C5 C 0.21280 0.17006 0.16530
 C6 C 0.19832 0.15685 0.19651
 H7 H 0.12961 0.21278 0.20608
 H8 H 0.20702 0.21045 0.12621
 H9 H 0.20905 0.13323 0.20744
 C10 C -0.16403 0.83338 0.21679
 C11 C -0.15044 0.80252 0.20206
 C12 C -0.16598 0.78716 0.17273
 C13 C -0.19600 0.80238 0.15823
 C14 C -0.21023 0.83291 0.17235
 C15 C -0.19418 0.84815 0.20144
 H16 H -0.12681 0.79087 0.21233
 H17 H -0.20755 0.79116 0.13508
 H18 H -0.20650 0.87075 0.21294
 C19 C -0.16828 0.16540 -0.21481
 C20 C -0.19738 0.14966 -0.19843
 C21 C -0.21313 0.16454 -0.16895
 C22 C -0.19957 0.19559 -0.15538
 C23 C -0.17053 0.21171 -0.17084
 C24 C -0.15535 0.19676 -0.20060
 H25 H -0.20921 0.12658 -0.20943
 H26 H -0.21084 0.20655 -0.13194
 H27 H -0.13246 0.20914 -0.21163
 C28 C 0.16813 0.83298 -0.21264
 C29 C 0.15248 0.80267 -0.19875
 C30 C 0.16572 0.78656 -0.16868
 C31 C 0.19537 0.80053 -0.15239
 C32 C 0.21164 0.83045 -0.16563
 C33 C 0.19790 0.84648 -0.19552
 H34 H 0.12905 0.79198 -0.21036
 H35 H 0.20568 0.78823 -0.12918
 H36 H 0.21125 0.86912 -0.20570
 C37 C 0.17002 1.16889 0.78798
 C38 C 0.15425 1.19833 0.80350
 C39 C 0.16799 1.21336 0.83384
 C40 C 0.19792 1.19880 0.84911
 C41 C 0.21417 1.16956 0.83443
 C42 C 0.20038 1.15505 0.80382
 H43 H 0.13208 1.21091 0.79128
 H44 H 0.20843 1.21008 0.87271
 H45 H 0.21224 1.13146 0.79393
 C46 C 0.83414 0.83598 0.78438
 C47 C 0.80444 0.85058 0.80054
 C48 C 0.78869 0.83468 0.82942
 C49 C 0.80283 0.80368 0.84262
 C50 C 0.83294 0.78845 0.82772
 C51 C 0.84796 0.80483 0.79832
 H52 H 0.79212 0.87355 0.78974
 H53 H 0.79144 0.79290 0.86605
 H54 H 0.87081 0.79339 0.78637
 C55 C 0.16566 0.82993 1.21306
 C56 C 0.15005 0.79997 1.19846
 C57 C 0.16367 0.78438 1.16830
 C58 C 0.19365 0.79850 1.15266
 C59 C 0.20991 0.82802 1.16663
 C60 C 0.19581 0.84354 1.19661
 H61 H 0.12639 0.78920 1.20957
 H62 H 0.20423 0.78660 1.12936
 H63 H 0.20915 0.86590 1.20736
 C64 C 0.83293 1.16808 1.21566
 C65 C 0.80333 1.15233 1.20023
 C66 C 0.78751 1.16656 1.17045
 C67 C 0.80139 1.19696 1.15570
 C68 C 0.83077 1.21315 1.17031
 C69 C 0.84610 1.19885 1.20030
 H70 H 0.79183 1.12923 1.21157
 H71 H 0.78952 1.20783 1.13251
 H72 H 0.86932 1.21122 1.21058
 O73 O 0.54934 0.93734 0.93869
 O74 O 0.58753 0.96848 0.97250
 C75 C 0.58079 0.94630 0.94800
 O76 O 0.45100 1.06134 0.94265
 O77 O 0.41260 1.02786 0.97401
 C78 C 0.41950 1.05220 0.95163
 O79 O 0.54949 1.05791 0.93963
 O80 O 0.58766 1.02590 0.97277
 C81 C 0.58093 1.04861 0.94870
 O82 O 0.45075 0.93394 0.94222
 O83 O 0.41247 0.96740 0.97381
 C84 C 0.41928 0.94315 0.95134
 Zr85 Zr 0.50001 0.95345 0.95858
 O86 O 0.49654 0.95238 0.90363
 O87 O 0.50176 0.89854 0.96154
 Zr88 Zr 0.50013 1.04152 0.95902
 O89 O 0.49629 1.04167 0.90406
 O90 O 0.50412 1.09648 0.95929
 O91 O 0.53124 0.99747 0.95202
 O92 O 0.46969 0.99758 0.95239
 O93 O 0.45056 0.93276 1.06217
 O94 O 0.41239 0.96699 1.03123
 C95 C 0.41910 0.94224 1.05322
 O96 O 0.54929 1.05719 1.06670
 O97 O 0.58748 1.02636 1.03252
 C98 C 0.58075 1.04848 1.05708
 O99 O 0.45073 1.06044 1.06363
 O100 O 0.41248 1.02755 1.03156
 C101 C 0.41928 1.05155 1.05426
 O102 O 0.54921 0.93607 1.06594
 O103 O 0.58744 0.96821 1.03298
 C104 C 0.58068 0.94544 1.05696
 Zr105 Zr 0.49991 0.95284 1.04654
 O106 O 0.49582 0.95288 1.10148
 O107 O 0.50311 0.89786 1.04633
 Zr108 Zr 0.49999 1.04088 1.04713
 O109 O 0.49600 1.04006 1.10208
 O110 O 0.50389 1.09584 1.04763
 Zr111 Zr 0.55194 0.99709 1.00285
 Zr112 Zr 0.44808 0.99735 1.00273
 O113 O 0.46949 0.99685 1.05315
 O114 O 0.53118 0.99676 1.05369
 O115 O 0.46877 0.94653 1.00246
 O116 O 0.53038 1.04752 1.00311
 O117 O 0.53046 0.94673 1.00251
 O118 O 0.46892 1.04814 1.00308
 H119 H 0.45382 0.99767 0.93200
 H120 H 0.54624 1.06792 1.00315
 H121 H 0.45343 0.99667 1.07342
 H122 H 0.54642 0.92637 1.00239
 H123 H 0.48465 1.10553 0.97367
 H124 H 0.48458 1.10508 1.03319
 H125 H 0.51587 1.02618 1.11104
 H126 H 0.51578 0.96644 1.11066
 H127 H 0.48751 0.88952 1.02757
 H128 H 0.50170 0.89010 0.93719
 H129 H 0.51451 0.96852 0.89453
 H130 H 0.51615 1.02790 0.89489
 O131 O 0.05835 0.45094 -0.06306
 O132 O 0.02445 0.41302 -0.03162
 C133 C 0.04894 0.41969 -0.05403
 O134 O 0.05519 0.54873 0.06085
 O135 O 0.02337 0.58694 0.02762
 C136 C 0.04600 0.58005 0.05182
 O137 O 0.05848 0.45070 0.05738
 O138 O 0.02466 0.41288 0.02587
 C139 C 0.04911 0.41948 0.04828
 O140 O 0.05543 0.54894 -0.06617
 O141 O 0.02416 0.58694 -0.03227
 C142 C 0.04662 0.58021 -0.05668
 Zr143 Zr 0.03862 0.49997 -0.04677
 O144 O 0.09393 0.50369 -0.04706
 O145 O 0.03814 0.49619 -0.10172
 Zr146 Zr 0.03876 0.49981 0.04123
 O147 O 0.09406 0.50367 0.04102
 O148 O 0.03886 0.49571 0.09617
 O149 O 0.04546 0.46887 -0.00281
 O150 O 0.04513 0.53006 -0.00274
 O151 O -0.06651 0.54933 -0.06602
 O152 O -0.03423 0.58718 -0.03292
 C153 C -0.05699 0.58054 -0.05703
 O154 O -0.06936 0.45105 0.05821
 O155 O -0.03549 0.41309 0.02681
 C156 C -0.05983 0.41978 0.04937
 O157 O -0.06598 0.54905 0.06132
 O158 O -0.03436 0.58703 0.02765
 C159 C -0.05675 0.58031 0.05213
 O160 O -0.06991 0.45126 -0.06296
 O161 O -0.03626 0.41322 -0.03139
 C162 C -0.06058 0.41996 -0.05391
 Zr163 Zr -0.05008 0.50022 -0.04655
 O164 O -0.10537 0.50425 -0.04619
 O165 O -0.05016 0.49647 -0.10150
 Zr166 Zr -0.04984 0.50004 0.04151
 O167 O -0.10514 0.50410 0.04119
 O168 O -0.05002 0.49610 0.09645
 Zr169 Zr -0.00576 0.44840 -0.00271
 Zr170 Zr -0.00555 0.55162 -0.00265
 O171 O -0.05631 0.53038 -0.00248
 O172 O -0.05690 0.46910 -0.00251
 O173 O -0.00567 0.53111 -0.05349
 O174 O -0.00556 0.46975 0.04770
 O175 O -0.00580 0.46992 -0.05307
 O176 O -0.00547 0.53089 0.04818
 H177 H 0.06569 0.54577 -0.00266
 H178 H -0.00542 0.45398 0.06812
 H179 H -0.07669 0.54635 -0.00240
 H180 H -0.00584 0.45411 -0.07341
 H181 H 0.02467 0.51519 0.10538
 H182 H -0.03513 0.51507 0.10554
 H183 H -0.11432 0.48415 0.02775
 H184 H -0.11449 0.48479 -0.03196
 H185 H -0.03565 0.51576 -0.11059
 H186 H 0.02440 0.51608 -0.11073
 H187 H 0.10309 0.48447 -0.03254
 H188 H 0.10321 0.48416 0.02690
 O189 O 0.94567 0.06743 0.45111
 O190 O 0.97640 0.03300 0.41315
 C191 C 0.95425 0.05768 0.41987
 O192 O 1.07042 0.06195 0.54925
 O193 O 1.03542 0.03150 0.58702
 C194 C 1.06038 0.05338 0.58046
 O195 O 1.06736 0.06543 0.45108
 O196 O 1.03462 0.03293 0.41310
 C197 C 1.05771 0.05670 0.41983
 O198 O 0.94241 0.06411 0.54907
 O199 O 0.97517 0.03154 0.58706
 C200 C 0.95125 0.05455 0.58031
 Zr201 Zr 0.96197 0.04761 0.50008
 O202 O 0.96332 0.10256 0.50401
 O203 O 0.90669 0.04883 0.49626
 Zr204 Zr 1.05063 0.04596 0.50013
 O205 O 1.05178 0.10090 0.50406
 O206 O 1.10592 0.04460 0.49627
 O207 O 1.00644 0.05369 0.46913
 O208 O 1.00631 0.05307 0.53026
 O209 O 0.94080 -0.05722 0.54881
 O210 O 0.97500 -0.02645 0.58689
 C211 C 0.95029 -0.04854 0.58007
 O212 O 1.06513 -0.06195 0.45101
 O213 O 1.03477 -0.02707 0.41312
 C214 C 1.05660 -0.05204 0.41978
 O215 O 1.06821 -0.05899 0.54908
 O216 O 1.03541 -0.02642 0.58706
 C217 C 1.05925 -0.04950 0.58032
 O218 O 0.94421 -0.06008 0.45096
 O219 O 0.97626 -0.02678 0.41300
 C220 C 0.95343 -0.05083 0.41972
 Zr221 Zr 0.96044 -0.04051 0.49993
 O222 O 0.95884 -0.09546 0.50370
 O223 O 0.90516 -0.03873 0.49598
 Zr224 Zr 1.04906 -0.04207 0.50003
 O225 O 1.04837 -0.09704 0.50387
 O226 O 1.10437 -0.04263 0.49616
 Zr227 Zr 1.00555 0.00289 0.44846
 Zr228 Zr 1.00536 0.00262 0.55163
 O229 O 1.00462 -0.04772 0.53011
 O230 O 1.00470 -0.04803 0.46898
 O231 O 0.95425 0.00356 0.53100
 O232 O 1.05625 0.00194 0.46987
 O233 O 0.95482 0.00370 0.46987
 O234 O 1.05660 0.00176 0.53113
 H235 H 1.00652 0.07343 0.54607
 H236 H 1.07675 0.00171 0.45405
 H237 H 1.00437 -0.06820 0.54580
 H238 H 0.93433 0.00394 0.45408
 H239 H 1.11476 0.03060 0.51602
 H240 H 1.11368 -0.02911 0.51598
 H241 H 1.03384 -0.10592 0.48453
 H242 H 0.97419 -0.10486 0.48522
 H243 H 0.89625 -0.02574 0.51636
 H244 H 0.89729 0.03399 0.51512
 H245 H 0.97720 0.11142 0.48414
 H246 H 1.03718 0.11031 0.48500
 C247 C 1.12162 0.12548 0.30170
 C248 C 1.15787 0.12353 0.29621
 C249 C 1.17306 0.13857 0.26669
 C250 C 1.15244 0.15643 0.24187
 C251 C 1.11601 0.15876 0.24814
 C252 C 1.10090 0.14337 0.27746
 C253 C 1.10524 0.10824 0.33217
 C254 C 1.07465 0.08842 0.32800
 C255 C 1.05930 0.07174 0.35647
 C256 C 1.07403 0.07474 0.38986
 C257 C 1.10450 0.09481 0.39410
 C258 C 1.12007 0.11122 0.36548
 H259 H 1.20123 0.13696 0.26416
 H260 H 1.09851 0.17098 0.22968
 H261 H 1.03578 0.05658 0.35228
 H262 H 1.11652 0.09757 0.41945
 H263 H 1.07285 0.14538 0.28113
 H264 H 1.06287 0.08538 0.30256
 H265 H 1.17447 0.10985 0.31454
 H266 H 1.14351 0.12657 0.36944
 C267 C 0.88593 -0.11836 0.30328
 C268 C 0.88804 -0.15448 0.29860
 C269 C 0.87175 -0.17039 0.27023
 C270 C 0.85239 -0.15062 0.24585
 C271 C 0.85019 -0.11427 0.25114
 C272 C 0.86689 -0.09844 0.27929
 C273 C 0.90362 -0.10141 0.33307
 C274 C 0.92320 -0.07089 0.32806
 C275 C 0.93967 -0.05469 0.35614
 C276 C 0.93659 -0.06849 0.38991
 C277 C 0.91702 -0.09908 0.39489
 C278 C 0.90086 -0.11548 0.36671
 H279 H 0.87341 -0.19843 0.26844
 H280 H 0.83690 -0.09745 0.23283
 H281 H 0.95453 -0.03117 0.35139
 H282 H 0.91422 -0.11042 0.42055
 H283 H 0.86478 -0.07049 0.28238
 H284 H 0.92602 -0.05971 0.30232
 H285 H 0.90261 -0.17045 0.31679
 H286 H 0.88570 -0.13885 0.37129
 C287 C 0.88092 0.11867 0.69730
 C288 C 0.86338 0.09814 0.72193
 C289 C 0.84685 0.11346 0.75051
 C290 C 0.84778 0.14989 0.75563
 C291 C 0.86555 0.17027 0.73055
 C292 C 0.88163 0.15486 0.70174
 C293 C 0.89878 0.10227 0.66726
 C294 C 0.89462 0.11580 0.63356
 C295 C 0.91143 0.10020 0.60525
 C296 C 0.93311 0.07099 0.61016
 C297 C 0.93743 0.05768 0.64399
 C298 C 0.92027 0.07301 0.67219
 H299 H 0.83478 0.09625 0.76929
 H300 H 0.86614 0.19836 0.73221
 H301 H 0.90761 0.11117 0.57956
 H302 H 0.95403 0.03533 0.64875
 H303 H 0.89502 0.17129 0.68307
 H304 H 0.87799 0.13821 0.62906
 H305 H 0.86241 0.07011 0.71904
 H306 H 0.92421 0.06231 0.69797
 C307 C 1.12494 -0.11685 0.69815
 C308 C 1.14345 -0.09768 0.72309
 C309 C 1.15798 -0.11413 0.75213
 C310 C 1.15408 -0.15037 0.75738
 C311 C 1.13545 -0.16938 0.73194
 C312 C 1.12130 -0.15287 0.70273
 C313 C 1.10890 -0.09922 0.66776
 C314 C 1.11190 -0.11354 0.63427
 C315 C 1.09624 -0.09715 0.60574
 C316 C 1.07692 -0.06630 0.61021
 C317 C 1.07410 -0.05193 0.64373
 C318 C 1.09005 -0.06813 0.67215
 H319 H 1.17082 -0.09780 0.77112
 H320 H 1.13264 -0.19734 0.73364
 H321 H 1.09886 -0.10890 0.58027
 H322 H 1.05952 -0.02812 0.64805
 H323 H 1.10708 -0.16829 0.68387
 H324 H 1.12656 -0.13732 0.63013
 H325 H 1.14669 -0.06983 0.72014
 H326 H 1.08708 -0.05669 0.69773
 C327 C 0.30149 1.12145 1.11847
 C328 C 0.27679 1.13905 1.09801
 C329 C 0.24795 1.15535 1.11335
 C330 C 0.24266 1.15422 1.14976
 C331 C 0.26783 1.13645 1.17009
 C332 C 0.29687 1.12052 1.15465
 C333 C 0.33176 1.10374 1.10199
 C334 C 0.36556 1.10713 1.11598
 C335 C 0.39405 1.09044 1.10035
 C336 C 0.38926 1.06969 1.07062
 C337 C 0.35539 1.06624 1.05673
 C338 C 0.32699 1.08322 1.07215
 H339 H 0.22911 1.16737 1.09612
 H340 H 0.26603 1.13569 1.19817
 H341 H 0.41979 1.09358 1.11173
 H342 H 0.35077 1.05050 1.03383
 H343 H 0.31556 1.10706 1.17105
 H344 H 0.36999 1.12305 1.13879
 H345 H 0.27979 1.14025 1.07001
 H346 H 0.30116 1.07989 1.06103
 C347 C 0.30134 0.87528 0.88537
 C348 C 0.30074 0.87149 0.84901
 C349 C 0.27176 0.85671 0.83249
 C350 C 0.24280 0.84530 0.85198
 C351 C 0.24357 0.84867 0.88837
 C352 C 0.27250 0.86357 0.90488
 C353 C 0.33165 0.89199 0.90278
 C354 C 0.32633 0.91602 0.92981
 C355 C 0.35476 0.93246 0.94565
 C356 C 0.38922 0.92518 0.93490
 C357 C 0.39454 0.90086 0.90809
 C358 C 0.36607 0.88451 0.89217
 H359 H 0.27204 0.85410 0.80444
 H360 H 0.22152 0.84035 0.90402
 H361 H 0.34965 0.95104 0.96621
 H362 H 0.42071 0.89457 0.89922
 H363 H 0.27236 0.86583 0.93297
 H364 H 0.30010 0.92262 0.93828
 H365 H 0.32242 0.88055 0.83325
 H366 H 0.37099 0.86581 0.87168
 C367 C 0.69942 0.88085 1.12512
 C368 C 0.72769 0.90122 1.13661
 C369 C 0.75686 0.88565 1.15206
 C370 C 0.75847 0.84936 1.15635
 C371 C 0.73014 0.82897 1.14503
 C372 C 0.70088 0.84457 1.12965
 C373 C 0.66884 0.89743 1.10796
 C374 C 0.63456 0.88640 1.11545
 C375 C 0.60586 0.90206 1.09910
 C376 C 0.61086 0.92899 1.07480
 C377 C 0.64520 0.94001 1.06739
 C378 C 0.67381 0.92443 1.08378
 H379 H 0.77842 0.90201 1.16020
 H380 H 0.73052 0.80097 1.14828
 H381 H 0.57979 0.89297 1.10545
 H382 H 0.65008 0.96066 1.04880
 H383 H 0.67965 0.82818 1.12076
 H384 H 0.62992 0.86590 1.13426
 H385 H 0.72717 0.92926 1.13382
 H386 H 0.69991 0.93319 1.07712
 C387 C 0.69871 1.11464 0.88027
 C388 C 0.72740 1.09490 0.86861
 C389 C 0.75592 1.11108 0.85256
 C390 C 0.75643 1.14737 0.84791
 C391 C 0.72775 1.16712 0.85958
 C392 C 0.69917 1.15092 0.87552
 C393 C 0.66849 1.09746 0.89749
 C394 C 0.63405 1.10783 0.88984
 C395 C 0.60561 1.09184 0.90626
 C396 C 0.61100 1.06519 0.93080
 C397 C 0.64549 1.05476 0.93834
 C398 C 0.67389 1.07068 0.92183
 H399 H 0.77781 1.09523 0.84415
 H400 H 0.72729 1.19509 0.85608
 H401 H 0.57942 1.10048 0.89978
 H402 H 0.65063 1.03434 0.95711
 H403 H 0.67760 1.16685 0.88455
 H404 H 0.62906 1.12809 0.87087
 H405 H 0.72765 1.06687 0.87161
 H406 H 0.70014 1.06240 0.92855
 C407 C 0.11705 0.30189 0.11437
 C408 C 0.15360 0.30065 0.11842
 C409 C 0.16955 0.27210 0.13451
 C410 C 0.14925 0.24426 0.14702
 C411 C 0.11270 0.24558 0.14313
 C412 C 0.09677 0.27405 0.12693
 C413 C 0.10008 0.33205 0.09707
 C414 C 0.07253 0.32689 0.07344
 C415 C 0.05622 0.35524 0.05743
 C416 C 0.06701 0.38946 0.06476
 C417 C 0.09472 0.39460 0.08827
 C418 C 0.11111 0.36619 0.10419
 H419 H 0.19774 0.27194 0.13746
 H420 H 0.09644 0.22437 0.15229
 H421 H 0.03503 0.35027 0.03940
 H422 H 0.10368 0.42058 0.09453
 H423 H 0.06852 0.27445 0.12452
 H424 H 0.06378 0.30086 0.06707
 H425 H 0.16992 0.32159 0.10875
 H426 H 0.13204 0.37098 0.12256
 C427 C -0.12528 0.30209 -0.12219
 C428 C -0.10387 0.27503 -0.13459
 C429 C -0.11855 0.24598 -0.15075
 C430 C -0.15500 0.24328 -0.15485
 C431 C -0.17644 0.27046 -0.14275
 C432 C -0.16172 0.29964 -0.12670
 C433 C -0.10954 0.33240 -0.10415
 C434 C -0.12120 0.36643 -0.11103
 C435 C -0.10558 0.39493 -0.09455
 C436 C -0.07810 0.38995 -0.07070
 C437 C -0.06689 0.35581 -0.06348
 C438 C -0.08238 0.32743 -0.08003
 H439 H -0.10140 0.22527 -0.15943
 H440 H -0.20461 0.26914 -0.14577
 H441 H -0.11486 0.42086 -0.10071
 H442 H -0.04588 0.35092 -0.04519
 H443 H -0.17888 0.31998 -0.11718
 H444 H -0.14192 0.37105 -0.12969
 H445 H -0.07568 0.27638 -0.13184
 H446 H -0.07321 0.30148 -0.07378
 C447 C 0.11424 0.69748 -0.12362
 C448 C 0.09467 0.72618 -0.13533
 C449 C 0.11135 0.75490 -0.15027
 C450 C 0.14799 0.75562 -0.15368
 C451 C 0.16756 0.72687 -0.14213
 C452 C 0.15086 0.69805 -0.12736
 C453 C 0.09657 0.66735 -0.10699
 C454 C 0.10685 0.63312 -0.11486
 C455 C 0.09046 0.60480 -0.09880
 C456 C 0.06356 0.61010 -0.07435
 C457 C 0.05325 0.64439 -0.06659
 C458 C 0.06950 0.67266 -0.08279
 H459 H 0.09563 0.77685 -0.15862
 H460 H 0.19581 0.72664 -0.14466
 H461 H 0.09903 0.57876 -0.10542
 H462 H 0.03272 0.64949 -0.04783
 H463 H 0.16664 0.67645 -0.11827
 H464 H 0.12739 0.62825 -0.13369
 H465 H 0.06640 0.72634 -0.13307
 H466 H 0.06131 0.69875 -0.07590
 C467 C -0.11940 0.69772 0.12336
 C468 C -0.09843 0.72537 0.13505
 C469 C -0.11352 0.75419 0.15135
 C470 C -0.14994 0.75603 0.15631
 C471 C -0.17093 0.72830 0.14482
 C472 C -0.15580 0.69940 0.12860
 C473 C -0.10335 0.66754 0.10528
 C474 C -0.11460 0.63344 0.11241
 C475 C -0.09944 0.60508 0.09528
 C476 C -0.07281 0.61023 0.07051
 C477 C -0.06161 0.64438 0.06340
 C478 C -0.07668 0.67267 0.08061
 H479 H -0.09673 0.77534 0.15954
 H480 H -0.19904 0.72894 0.14849
 H481 H -0.10866 0.57915 0.10143
 H482 H -0.04118 0.64935 0.04448
 H483 H -0.17266 0.67864 0.11958
 H484 H -0.13485 0.62867 0.13157
 H485 H -0.07028 0.72466 0.13170
 H486 H -0.06777 0.69866 0.07423
 C487 C 1.12545 0.12067 0.69851
 C488 C 1.16156 0.11857 0.70471
 C489 C 1.17629 0.13439 0.73401
 C490 C 1.15533 0.15325 0.75780
 C491 C 1.11906 0.15563 0.75082
 C492 C 1.10441 0.13944 0.72178
 C493 C 1.10949 0.10287 0.66823
 C494 C 1.07868 0.08340 0.67246
 C495 C 1.06310 0.06704 0.64403
 C496 C 1.07779 0.07001 0.61058
 C497 C 1.10877 0.08933 0.60636
 C498 C 1.12459 0.10543 0.63497
 H499 H 1.20438 0.13262 0.73711
 H500 H 1.10129 0.16857 0.76852
 H501 H 1.03924 0.05239 0.64826
 H502 H 1.12079 0.09203 0.58097
 H503 H 1.07646 0.14157 0.71752
 H504 H 1.06674 0.08066 0.69789
 H505 H 1.17839 0.10424 0.68711
 H506 H 1.14825 0.12045 0.63100
 C507 C 0.88162 -0.11479 0.69687
 C508 C 0.88309 -0.15104 0.70071
 C509 C 0.86764 -0.16727 0.72942
 C510 C 0.84977 -0.14768 0.75501
 C511 C 0.84810 -0.11118 0.75053
 C512 C 0.86402 -0.09503 0.72204
 C513 C 0.89875 -0.09757 0.66686
 C514 C 0.91991 -0.06814 0.67193
 C515 C 0.93666 -0.05227 0.64376
 C516 C 0.93223 -0.06521 0.60984
 C517 C 0.91073 -0.09446 0.60476
 C518 C 0.89434 -0.11061 0.63302
 H519 H 0.86871 -0.19538 0.73054
 H520 H 0.83588 -0.09457 0.76974
 H521 H 0.95309 -0.02985 0.64860
 H522 H 0.90684 -0.10514 0.57899
 H523 H 0.86249 -0.06697 0.71963
 H524 H 0.92398 -0.05779 0.69781
 H525 H 0.89655 -0.16688 0.68160
 H526 H 0.87794 -0.13312 0.62842
 C527 C 1.12093 -0.12092 0.30206
 C528 C 1.11716 -0.15685 0.29702
 C529 C 1.13182 -0.17305 0.26788
 C530 C 1.15113 -0.15380 0.24303
 C531 C 1.15517 -0.11768 0.24879
 C532 C 1.14014 -0.10155 0.27772
 C533 C 1.10443 -0.10350 0.33233
 C534 C 1.08613 -0.07210 0.32784
 C535 C 1.07048 -0.05557 0.35620
 C536 C 1.07304 -0.06991 0.38980
 C537 C 1.09143 -0.10132 0.39430
 C538 C 1.10681 -0.11804 0.36581
 H539 H 1.12885 -0.20096 0.26577
 H540 H 1.16851 -0.10116 0.23024
 H541 H 1.05656 -0.03139 0.35180
 H542 H 1.09381 -0.11307 0.41982
 H543 H 1.14354 -0.07376 0.28106
 H544 H 1.08357 -0.06053 0.30226
 H545 H 1.10244 -0.17241 0.31543
 H546 H 1.12098 -0.14211 0.36999
 C547 C 0.88406 0.12271 0.30326
 C548 C 0.86545 0.10189 0.27975
 C549 C 0.84823 0.11677 0.25133
 C550 C 0.84946 0.15305 0.24525
 C551 C 0.86817 0.17376 0.26930
 C552 C 0.88499 0.15880 0.29794
 C553 C 0.90268 0.10669 0.33308
 C554 C 0.89997 0.12104 0.36657
 C555 C 0.91687 0.10531 0.39479
 C556 C 0.93713 0.07511 0.38998
 C557 C 0.94029 0.06117 0.35629
 C558 C 0.92311 0.07668 0.32821
 H559 H 0.83545 0.09926 0.23338
 H560 H 0.86902 0.20180 0.26695
 H561 H 0.91397 0.11676 0.42036
 H562 H 0.95570 0.03797 0.35162
 H563 H 0.89915 0.17546 0.31575
 H564 H 0.88421 0.14406 0.37104
 H565 H 0.86420 0.07395 0.28336
 H566 H 0.92597 0.06533 0.30258
 C567 C 0.11783 0.30208 -0.11897
 C568 C 0.09784 0.27417 -0.13170
 C569 C 0.11411 0.24553 -0.14719
 C570 C 0.15076 0.24410 -0.15019
 C571 C 0.17077 0.27205 -0.13757
 C572 C 0.15448 0.30078 -0.12220
 C573 C 0.10048 0.33229 -0.10216
 C574 C 0.11164 0.36643 -0.10922
 C575 C 0.09499 0.39484 -0.09360
 C576 C 0.06691 0.38970 -0.07046
 C577 C 0.05596 0.35548 -0.06325
 C578 C 0.07251 0.32714 -0.07896
 H579 H 0.09804 0.22424 -0.15640
 H580 H 0.19904 0.27179 -0.13981
 H581 H 0.10409 0.42082 -0.09974
 H582 H 0.03449 0.35051 -0.04550
 H583 H 0.17057 0.32177 -0.11237
 H584 H 0.13291 0.37119 -0.12725
 H585 H 0.06954 0.27460 -0.12991
 H586 H 0.06365 0.30112 -0.07266
 C587 C -0.12400 0.30236 0.11927
 C588 C -0.16040 0.30020 0.12430
 C589 C -0.17510 0.27137 0.14108
 C590 C -0.15369 0.24424 0.15335
 C591 C -0.11728 0.24660 0.14862
 C592 C -0.10261 0.27531 0.13174
 C593 C -0.10831 0.33250 0.10079
 C594 C -0.08128 0.32736 0.07651
 C595 C -0.06591 0.35564 0.05956
 C596 C -0.07713 0.38982 0.06655
 C597 C -0.10445 0.39494 0.09058
 C598 C -0.11992 0.36657 0.10746
 H599 H -0.20323 0.27033 0.14458
 H600 H -0.10016 0.22591 0.15743
 H601 H -0.04502 0.35067 0.04114
 H602 H -0.11372 0.42089 0.09659
 H603 H -0.07445 0.27644 0.12860
 H604 H -0.07215 0.30137 0.07044
 H605 H -0.17755 0.32051 0.11473
 H606 H -0.14050 0.37133 0.12626
 C607 C -0.12075 0.69853 -0.12618
 C608 C -0.10012 0.72265 -0.14432
 C609 C -0.11531 0.75183 -0.15991
 C610 C -0.15173 0.75808 -0.15748
 C611 C -0.17226 0.73343 -0.13927
 C612 C -0.15699 0.70402 -0.12408
 C613 C -0.10434 0.66813 -0.10886
 C614 C -0.11908 0.63478 -0.11190
 C615 C -0.10355 0.60621 -0.09539
 C616 C -0.07321 0.61053 -0.07514
 C617 C -0.05857 0.64396 -0.07208
 C618 C -0.07386 0.67239 -0.08890
 H619 H -0.09785 0.77023 -0.17227
 H620 H -0.20042 0.73601 -0.13751
 H621 H -0.11551 0.58082 -0.09820
 H622 H -0.03519 0.64820 -0.05674
 H623 H -0.17352 0.68579 -0.11019
 H624 H -0.14244 0.63077 -0.12735
 H625 H -0.07207 0.71897 -0.14638
 H626 H -0.06216 0.69788 -0.08586
 C627 C 0.11256 0.69643 0.12093
 C628 C 0.09288 0.72483 0.13313
 C629 C 0.10942 0.75320 0.14881
 C630 C 0.14603 0.75383 0.15251
 C631 C 0.16571 0.72537 0.14045
 C632 C 0.14915 0.69694 0.12490
 C633 C 0.09507 0.66657 0.10372
 C634 C 0.10570 0.63227 0.11084
 C635 C 0.08960 0.60418 0.09422
 C636 C 0.06261 0.60977 0.06997
 C637 C 0.05187 0.64411 0.06301
 C638 C 0.06788 0.67217 0.07975
 H639 H 0.09362 0.77493 0.15751
 H640 H 0.19393 0.72505 0.14319
 H641 H 0.09849 0.57810 0.10027
 H642 H 0.03117 0.64940 0.04450
 H643 H 0.16504 0.67559 0.11544
 H644 H 0.12629 0.62713 0.12951
 H645 H 0.06462 0.72503 0.13072
 H646 H 0.05939 0.69833 0.07344
 C647 C 0.30243 1.12124 0.88498
 C648 C 0.30227 1.12607 0.84872
 C649 C 0.27371 1.14186 0.83230
 C650 C 0.24479 1.15330 0.85183
 C651 C 0.24507 1.14867 0.88811
 C652 C 0.27355 1.13276 0.90450
 C653 C 0.33246 1.10392 0.90237
 C654 C 0.32677 1.07930 0.92884
 C655 C 0.35499 1.06263 0.94490
 C656 C 0.38960 1.07031 0.93497
 C657 C 0.39527 1.09515 0.90866
 C658 C 0.36702 1.11170 0.89249
 H659 H 0.27430 1.14530 0.80434
 H660 H 0.22299 1.15687 0.90379
 H661 H 0.34962 1.04358 0.96500
 H662 H 0.42156 1.10175 0.90038
 H663 H 0.27307 1.12968 0.93251
 H664 H 0.30042 1.07247 0.93672
 H665 H 0.32401 1.11715 0.83296
 H666 H 0.37221 1.13087 0.87246
 C667 C 0.30048 0.87333 1.11729
 C668 C 0.29939 0.86896 1.15359
 C669 C 0.27013 0.85403 1.16958
 C670 C 0.24138 0.84305 1.14961
 C671 C 0.24266 0.84700 1.11328
 C672 C 0.27186 0.86203 1.09730
 C673 C 0.33101 0.89032 1.10042
 C674 C 0.32599 0.91472 1.07363
 C675 C 0.35457 0.93139 1.05825
 C676 C 0.38892 0.92398 1.06921
 C677 C 0.39398 0.89929 1.09578
 C678 C 0.36532 0.88271 1.11127
 H679 H 0.27002 0.85097 1.19760
 H680 H 0.22078 0.83903 1.09726
 H681 H 0.34967 0.95024 1.03785
 H682 H 0.42006 0.89290 1.10481
 H683 H 0.27210 0.86473 1.06925
 H684 H 0.29986 0.92145 1.06500
 H685 H 0.32089 0.87769 1.16971
 H686 H 0.37002 0.86372 1.13158
 C687 C 0.69885 1.11576 1.12337
 C688 C 0.72655 1.12828 1.10276
 C689 C 0.75518 1.14489 1.11805
 C690 C 0.75683 1.14926 1.15430
 C691 C 0.72914 1.13679 1.17494
 C692 C 0.70039 1.12030 1.15962
 C693 C 0.66855 1.09799 1.10701
 C694 C 0.63419 1.10502 1.11812
 C695 C 0.60566 1.08883 1.10211
 C696 C 0.61089 1.06515 1.07471
 C697 C 0.64533 1.05783 1.06394
 C698 C 0.67379 1.07410 1.07987
 H699 H 0.77629 1.15394 1.10153
 H700 H 0.72957 1.14008 1.20292
 H701 H 0.57951 1.09507 1.11106
 H702 H 0.65039 1.03963 1.04302
 H703 H 0.67958 1.11067 1.17619
 H704 H 0.62934 1.12357 1.13877
 H705 H 0.72592 1.12551 1.07473
 H706 H 0.69999 1.06777 1.07109
 C707 C 0.69923 0.88229 0.87870
 C708 C 0.70027 0.84613 0.87325
 C709 C 0.72927 0.83064 0.85727
 C710 C 0.75776 0.85102 0.84627
 C711 C 0.75663 0.88719 0.85158
 C712 C 0.72771 0.90264 0.86762
 C713 C 0.66877 0.89875 0.89621
 C714 C 0.67389 0.92513 0.92098
 C715 C 0.64535 0.94058 0.93765
 C716 C 0.61095 0.93007 0.92991
 C717 C 0.60581 0.90377 0.90502
 C718 C 0.63442 0.88824 0.88841
 H719 H 0.72929 0.80274 0.85326
 H720 H 0.77834 0.90352 0.84370
 H721 H 0.65033 0.96072 0.95670
 H722 H 0.57968 0.89507 0.89841
 H723 H 0.72753 0.93061 0.87113
 H724 H 0.70005 0.93348 0.92787
 H725 H 0.67887 0.82973 0.88181
 H726 H 0.62965 0.86825 0.86914
   
