data_POSCAR
  _audit_creation_date              2014-09-24
  _audit_creation_method            'ToBaCCo'
  _symmetry_space_group_name_H-M    'P1'
  _symmetry_Int_Tables_number       1
  _symmetry_cell_setting            triclinic
  loop_
  _symmetry_equiv_pos_as_xyz
 x,y,z
_cell_length_a 43.0291
_cell_length_b 43.0159
_cell_length_c 20.4987
_cell_angle_alpha 89.871200
_cell_angle_beta 90.076700
_cell_angle_gamma 119.978300
loop_
  _atom_site_label
  _atom_site_type_symbol
  _atom_site_fract_x
  _atom_site_fract_y
  _atom_site_fract_z
C1 C 0.49971 0.99932 0.46817
 C2 C 0.49853 0.99916 0.53454
 C3 C 0.48174 0.96522 0.57263
 C4 C 0.51416 1.03290 0.57291
 C5 C 0.51763 1.03319 0.42996
 C6 C 0.48305 0.96559 0.42970
 C7 C 0.45436 0.95846 0.61730
 C8 C 0.43870 0.92707 0.65463
 C9 C 0.45040 0.90212 0.64805
 C10 C 0.47787 0.90878 0.60372
 C11 C 0.49355 0.94024 0.56636
 C12 C 0.50298 1.05821 0.56333
 C13 C 0.51774 1.08956 0.60083
 C14 C 0.54357 1.09570 0.64846
 C15 C 0.55456 1.07044 0.65844
 C16 C 0.53986 1.03918 0.62107
 C17 C 0.55410 1.05850 0.43919
 C18 C 0.57065 1.08968 0.40103
 C19 C 0.55093 1.09564 0.35314
 C20 C 0.51466 1.07045 0.34374
 C21 C 0.49813 1.03937 0.38175
 C22 C 0.50405 0.95948 0.38486
 C23 C 0.48869 0.92853 0.34658
 C24 C 0.45213 0.90343 0.35239
 C25 C 0.43095 0.90933 0.39694
 C26 C 0.44631 0.94034 0.43533
 H27 H 0.44507 0.97751 0.62309
 H28 H 0.41765 0.92249 0.68894
 H29 H 0.48748 0.88993 0.59840
 H30 H 0.51510 0.94531 0.53304
 H31 H 0.48270 1.05355 0.52725
 H32 H 0.50887 1.10882 0.59303
 H33 H 0.54867 1.01991 0.62944
 H34 H 0.56976 1.05390 0.47531
 H35 H 0.59881 1.10889 0.40838
 H36 H 0.49920 1.07471 0.30664
 H37 H 0.47006 1.02006 0.37364
 H38 H 0.53235 0.97874 0.37953
 H39 H 0.50527 0.92434 0.31200
 H40 H 0.40255 0.89021 0.40140
 H41 H 0.42953 0.94490 0.46876
 H42 H 0.57439 1.07484 0.69535
 C43 C -0.00017 0.50067 0.46479
 C44 C -0.00011 0.49965 0.53117
 C45 C 0.03373 0.51530 0.56936
 C46 C -0.03391 0.48297 0.56955
 C47 C -0.03404 0.48351 0.42660
 C48 C 0.03359 0.51884 0.42643
 C49 C 0.05892 0.50398 0.55985
 C50 C 0.09018 0.51847 0.59763
 C51 C 0.09637 0.54416 0.64545
 C52 C 0.07127 0.55534 0.65524
 C53 C 0.04009 0.54092 0.61760
 C54 C -0.04038 0.45592 0.61497
 C55 C -0.07150 0.44057 0.65284
 C56 C -0.09642 0.45224 0.64607
 C57 C -0.09013 0.47931 0.60104
 C58 C -0.05894 0.49472 0.56305
 C59 C -0.04063 0.50405 0.38125
 C60 C -0.07183 0.48824 0.34356
 C61 C -0.09675 0.45163 0.35045
 C62 C -0.09031 0.43090 0.39547
 C63 C -0.05903 0.44674 0.43323
 C64 C 0.05880 0.55533 0.43584
 C65 C 0.09002 0.57207 0.39796
 C66 C 0.09614 0.55253 0.35013
 C67 C 0.07101 0.51625 0.34042
 C68 C 0.03988 0.49953 0.37816
 H69 H 0.05417 0.48375 0.52372
 H70 H 0.10932 0.50945 0.58997
 H71 H 0.07571 0.57508 0.69228
 H72 H 0.02090 0.54981 0.62593
 H73 H -0.02129 0.44667 0.62097
 H74 H -0.07600 0.41980 0.68781
 H75 H -0.05411 0.51604 0.52919
 H76 H -0.02157 0.53237 0.37516
 H77 H -0.07634 0.50457 0.30869
 H78 H -0.10921 0.40248 0.40093
 H79 H -0.05411 0.43031 0.46706
 H80 H 0.05411 0.57085 0.47200
 H81 H 0.10918 0.60022 0.40556
 H82 H 0.07540 0.50093 0.30336
 H83 H 0.02068 0.47146 0.36991
 H84 H -0.10910 0.48876 0.59582
 C85 C 0.49921 0.49906 0.46952
 C86 C 0.50020 0.50004 0.53590
 C87 C 0.48342 0.51709 0.57407
 C88 C 0.51801 0.48406 0.57438
 C89 C 0.51506 0.48109 0.43134
 C90 C 0.48239 0.51611 0.43117
 C91 C 0.50432 0.54429 0.61883
 C92 C 0.48890 0.56001 0.65660
 C93 C 0.45233 0.54858 0.65036
 C94 C 0.43124 0.52136 0.60589
 C95 C 0.44669 0.50559 0.56804
 C96 C 0.55450 0.49521 0.56553
 C97 C 0.57095 0.48052 0.60385
 C98 C 0.55109 0.45476 0.65158
 C99 C 0.51476 0.44370 0.66059
 C100 C 0.49837 0.45834 0.62239
 C101 C 0.50390 0.44460 0.44068
 C102 C 0.51872 0.42811 0.40307
 C103 C 0.54460 0.44790 0.35560
 C104 C 0.55560 0.48417 0.34595
 C105 C 0.54085 0.50064 0.38342
 C106 C 0.45512 0.49540 0.38634
 C107 C 0.43947 0.51105 0.34874
 C108 C 0.45106 0.54763 0.35521
 C109 C 0.47838 0.56853 0.39960
 C110 C 0.49409 0.55288 0.43730
 H111 H 0.53261 0.55334 0.62444
 H112 H 0.50550 0.58088 0.69105
 H113 H 0.40284 0.51203 0.60095
 H114 H 0.43000 0.48419 0.53465
 H115 H 0.57026 0.51551 0.52957
 H116 H 0.59914 0.48952 0.59664
 H117 H 0.47028 0.44958 0.63019
 H118 H 0.48355 0.42890 0.47657
 H119 H 0.50983 0.39995 0.41061
 H120 H 0.57547 0.49969 0.30916
 H121 H 0.54964 0.52873 0.37523
 H122 H 0.44591 0.46708 0.38064
 H123 H 0.41853 0.49469 0.31425
 H124 H 0.48778 0.59694 0.40455
 H125 H 0.51555 0.56944 0.47071
 H126 H 0.49910 0.42392 0.69749
 O127 O 0.38632 0.66791 -0.07580
 O128 O 0.38812 0.72892 -0.05755
 C129 C 0.36608 0.73392 -0.09096
 O130 O 0.33261 0.71704 -0.08006
 O131 O 0.27191 0.65818 -0.05813
 C132 C 0.26655 0.63020 -0.08862
 O133 O 0.28323 0.61364 -0.07523
 O134 O 0.34240 0.61250 -0.05283
 C135 C 0.36965 0.63435 -0.08601
 O136 O 0.38795 0.65907 0.05407
 O137 O 0.38628 0.71832 0.07231
 C138 C 0.36960 0.73520 0.08262
 O139 O 0.34243 0.72993 0.04928
 O140 O 0.28317 0.66970 0.07121
 C141 C 0.26640 0.63647 0.08448
 O142 O 0.27175 0.61383 0.05400
 O143 O 0.33237 0.61557 0.07641
 C144 C 0.36583 0.63211 0.08752
 Cr145 Cr 0.38519 0.69257 -0.00175
 Cr146 Cr 0.30852 0.69272 -0.00435
 Cr147 Cr 0.30843 0.61587 0.00051
 O148 O 0.33402 0.66704 -0.00188
 O149 O 0.61291 0.34258 -0.05204
 O150 O 0.61427 0.28362 -0.07536
 C151 C 0.63064 0.26671 -0.08790
 O152 O 0.65823 0.27171 -0.05633
 O153 O 0.71714 0.33271 -0.07649
 C154 C 0.73415 0.36630 -0.08641
 O155 O 0.72920 0.38810 -0.05224
 O156 O 0.66860 0.38685 -0.07181
 C157 C 0.63521 0.37037 -0.08363
 O158 O 0.61444 0.33097 0.07709
 O159 O 0.61310 0.27068 0.05379
 C160 C 0.63550 0.26529 0.08529
 O161 O 0.66886 0.28219 0.07323
 O162 O 0.72940 0.34151 0.05305
 C163 C 0.73444 0.36831 0.08717
 O164 O 0.71735 0.38484 0.07744
 O165 O 0.65834 0.38683 0.05787
 C166 C 0.63085 0.36425 0.08965
 Cr167 Cr 0.61565 0.30795 0.00086
 Cr168 Cr 0.69243 0.30801 -0.00156
 Cr169 Cr 0.69239 0.38469 0.00275
 O170 O 0.66680 0.33354 0.00068
 C171 C 0.40874 0.81718 -0.23627
 C172 C 0.37179 0.79805 -0.22417
 C173 C 0.35768 0.77033 -0.17802
 C174 C 0.43644 0.87338 -0.31526
 C175 C 0.41747 0.78042 -0.15686
 C176 C 0.43147 0.80806 -0.20301
 C177 C 0.42365 0.84739 -0.28011
 C178 C 0.38044 0.76151 -0.14317
 H179 H 0.35396 0.80498 -0.24951
 H180 H 0.32908 0.75635 -0.16873
 H181 H 0.43577 0.77432 -0.13112
 H182 H 0.46012 0.82276 -0.21186
 C183 C 0.18353 0.58696 -0.23410
 C184 C 0.19291 0.61961 -0.20387
 C185 C 0.22037 0.63400 -0.15751
 C186 C 0.12791 0.55867 -0.31414
 C187 C 0.22974 0.58337 -0.17226
 C188 C 0.20218 0.56900 -0.21863
 C189 C 0.15366 0.57133 -0.27855
 C190 C 0.23887 0.61586 -0.14058
 H191 H 0.17859 0.63369 -0.21536
 H192 H 0.22672 0.65908 -0.13429
 H193 H 0.24342 0.56871 -0.16042
 H194 H 0.19505 0.54364 -0.24162
 C195 C 0.40965 0.59101 -0.23063
 C196 C 0.37812 0.56839 -0.19657
 C197 C 0.36480 0.58257 -0.15035
 C198 C 0.43728 0.56315 -0.31083
 C199 C 0.41428 0.64230 -0.17282
 C200 C 0.42756 0.62802 -0.21904
 C201 C 0.42447 0.57599 -0.27508
 C202 C 0.38291 0.61967 -0.13740
 H203 H 0.36411 0.53969 -0.20503
 H204 H 0.34055 0.56436 -0.12417
 H205 H 0.42887 0.67096 -0.16414
 H206 H 0.45208 0.64576 -0.24500
 C207 C 0.58731 0.18344 -0.23266
 C208 C 0.61970 0.19247 -0.20156
 C209 C 0.63420 0.22009 -0.15558
 C210 C 0.55849 0.12742 -0.31163
 C211 C 0.58426 0.23035 -0.17256
 C212 C 0.56979 0.20264 -0.21854
 C213 C 0.57144 0.15335 -0.27653
 C214 C 0.61644 0.23909 -0.13991
 H215 H 0.63345 0.17773 -0.21202
 H216 H 0.65902 0.22612 -0.13156
 H217 H 0.56989 0.24441 -0.16169
 H218 H 0.54464 0.19580 -0.24221
 C219 C 0.81687 0.40960 -0.23238
 C220 C 0.80855 0.43234 -0.19729
 C221 C 0.78118 0.41819 -0.15073
 C222 C 0.87228 0.43715 -0.31289
 C223 C 0.76985 0.35827 -0.17500
 C224 C 0.79728 0.37252 -0.22154
 C225 C 0.84666 0.42451 -0.27700
 C226 C 0.76175 0.38100 -0.13847
 H227 H 0.82362 0.46110 -0.20516
 H228 H 0.77563 0.43647 -0.12367
 H229 H 0.75544 0.32955 -0.16687
 H230 H 0.80359 0.35469 -0.24830
 C231 C 0.59436 0.41299 -0.22866
 C232 C 0.63115 0.43057 -0.21516
 C233 C 0.64462 0.41643 -0.16877
 C234 C 0.56694 0.44097 -0.30951
 C235 C 0.58450 0.36682 -0.14992
 C236 C 0.57114 0.38099 -0.19630
 C237 C 0.58000 0.42839 -0.27351
 C238 C 0.62137 0.38455 -0.13511
 H239 H 0.64935 0.45543 -0.23981
 H240 H 0.67313 0.43076 -0.15862
 H241 H 0.56584 0.34222 -0.12511
 H242 H 0.54259 0.36722 -0.20627
 C243 C 0.81775 0.40811 0.23209
 C244 C 0.79806 0.42553 0.22150
 C245 C 0.77044 0.41222 0.17531
 C246 C 0.87351 0.43622 0.31185
 C247 C 0.78175 0.36363 0.15094
 C248 C 0.80932 0.37698 0.19714
 C249 C 0.84774 0.42313 0.27630
 C250 C 0.76223 0.38132 0.13891
 H251 H 0.80445 0.44973 0.24816
 H252 H 0.75596 0.42649 0.16735
 H253 H 0.77613 0.33976 0.12395
 H254 H 0.82447 0.36335 0.20482
 C255 C 0.59504 0.18218 0.23094
 C256 C 0.63179 0.20131 0.21707
 C257 C 0.64514 0.22879 0.17046
 C258 C 0.56777 0.12697 0.31210
 C259 C 0.58498 0.21834 0.15215
 C260 C 0.57175 0.19094 0.19874
 C261 C 0.58077 0.15253 0.27597
 C262 C 0.62181 0.23739 0.13696
 H263 H 0.65004 0.19466 0.24158
 H264 H 0.67362 0.24291 0.16003
 H265 H 0.56627 0.22427 0.12749
 H266 H 0.54323 0.17624 0.20900
 C267 C 0.58804 0.40408 0.23558
 C268 C 0.62024 0.42748 0.20402
 C269 C 0.63457 0.41441 0.15762
 C270 C 0.55945 0.43117 0.31536
 C271 C 0.58483 0.35418 0.17505
 C272 C 0.57053 0.36737 0.22146
 C273 C 0.57231 0.41825 0.27991
 C274 C 0.61682 0.37765 0.14197
 H275 H 0.63398 0.45598 0.21447
 H276 H 0.65925 0.43323 0.13326
 H277 H 0.57048 0.32575 0.16423
 H278 H 0.54552 0.34903 0.24548
 C279 C 0.18326 0.59675 0.22964
 C280 C 0.20200 0.63337 0.21432
 C281 C 0.22959 0.64653 0.16803
 C282 C 0.12765 0.56950 0.30967
 C283 C 0.22004 0.58648 0.15306
 C284 C 0.19256 0.57344 0.19933
 C285 C 0.15339 0.58255 0.27407
 C286 C 0.23866 0.62314 0.13630
 H287 H 0.19494 0.65163 0.23737
 H288 H 0.24336 0.67488 0.15632
 H289 H 0.22634 0.56772 0.12979
 H290 H 0.17816 0.54503 0.21072
 C291 C 0.40907 0.81762 0.22896
 C292 C 0.37780 0.80911 0.19432
 C293 C 0.36467 0.78194 0.14745
 C294 C 0.43633 0.87242 0.31070
 C295 C 0.41385 0.77126 0.17037
 C296 C 0.42694 0.79849 0.21723
 C297 C 0.42367 0.84708 0.27424
 C298 C 0.38273 0.76290 0.13443
 H299 H 0.36382 0.82382 0.20287
 H300 H 0.34061 0.77617 0.12088
 H301 H 0.42839 0.75714 0.16166
 H302 H 0.45126 0.80497 0.24365
 C303 C 0.40814 0.59187 0.23422
 C304 C 0.43095 0.62360 0.20076
 C305 C 0.41706 0.63709 0.15409
 C306 C 0.43570 0.56374 0.31443
 C307 C 0.35722 0.58747 0.17508
 C308 C 0.37122 0.57400 0.22175
 C309 C 0.42295 0.57676 0.27873
 C310 C 0.38007 0.61895 0.14008
 H311 H 0.45958 0.63758 0.20990
 H312 H 0.43542 0.66142 0.12826
 H313 H 0.32865 0.57284 0.16554
 H314 H 0.35334 0.54934 0.24724
   
