data_POSCAR
  _audit_creation_date              2014-09-24
  _audit_creation_method            'ToBaCCo'
  _symmetry_space_group_name_H-M    'P1'
  _symmetry_Int_Tables_number       1
  _symmetry_cell_setting            triclinic
  loop_
  _symmetry_equiv_pos_as_xyz
 x,y,z
_cell_length_a 39.5589
_cell_length_b 39.6192
_cell_length_c 39.5695
_cell_angle_alpha 104.595200
_cell_angle_beta 75.317700
_cell_angle_gamma 75.196400
loop_
  _atom_site_label
  _atom_site_type_symbol
  _atom_site_fract_x
  _atom_site_fract_y
  _atom_site_fract_z
C1 C 0.50476 0.49826 0.00558
 C2 C 0.47845 0.52550 0.00184
 C3 C 0.44319 0.52103 -0.00164
 C4 C 0.48323 0.56142 0.00149
 C5 C 0.54115 0.50144 0.00650
 C6 C 0.49878 0.46352 0.00880
 C7 C 0.44326 0.49140 -0.02980
 C8 C 0.40983 0.48759 -0.03270
 C9 C 0.37491 0.51357 -0.00750
 C10 C 0.37575 0.54370 0.02039
 C11 C 0.40923 0.54729 0.02308
 C12 C 0.47946 0.57397 -0.02794
 C13 C 0.48296 0.60806 -0.02833
 C14 C 0.49003 0.63047 0.00089
 C15 C 0.49359 0.61793 0.03049
 C16 C 0.49008 0.58377 0.03084
 C17 C 0.55295 0.49637 0.03599
 C18 C 0.58770 0.49767 0.03663
 C19 C 0.61152 0.50381 0.00760
 C20 C 0.59960 0.50902 -0.02190
 C21 C 0.56479 0.50765 -0.02255
 C22 C 0.46861 0.46438 0.03726
 C23 C 0.46414 0.43131 0.04051
 C24 C 0.48986 0.39685 0.01546
 C25 C 0.52009 0.39619 -0.01285
 C26 C 0.52456 0.42919 -0.01603
 H27 H 0.46931 0.47095 -0.04947
 H28 H 0.41219 0.46296 -0.05389
 H29 H 0.35085 0.56607 0.03946
 H30 H 0.40862 0.57081 0.04464
 H31 H 0.47381 0.55728 -0.05066
 H32 H 0.47943 0.61722 -0.05118
 H33 H 0.49244 0.57489 0.05414
 H34 H 0.53514 0.49146 0.05861
 H35 H 0.59588 0.49405 0.05997
 H36 H 0.61756 0.51324 -0.04493
 H37 H 0.55652 0.51085 -0.04596
 H38 H 0.44876 0.49063 0.05708
 H39 H 0.44049 0.43267 0.06248
 H40 H 0.54071 0.37011 -0.03215
 H41 H 0.54820 0.42798 -0.03794
 H42 H 0.49926 0.63445 0.05328
 C43 C 0.00408 0.50182 0.50398
 C44 C -0.00014 0.47490 0.47788
 C45 C -0.00026 0.43886 0.48255
 C46 C -0.00458 0.47988 0.44308
 C47 C 0.00736 0.53657 0.49805
 C48 C 0.00541 0.49822 0.54012
 C49 C 0.02953 0.41621 0.48875
 C50 C 0.02940 0.38196 0.49216
 C51 C -0.00040 0.36961 0.48915
 C52 C -0.03006 0.39232 0.48275
 C53 C -0.02989 0.42652 0.47934
 C54 C 0.01912 0.45322 0.40874
 C55 C 0.01509 0.45709 0.37574
 C56 C -0.01291 0.48764 0.37642
 C57 C -0.03682 0.51425 0.41089
 C58 C -0.03284 0.51028 0.44394
 C59 C -0.01694 0.57092 0.52425
 C60 C -0.01365 0.60390 0.51982
 C61 C 0.01423 0.60323 0.48920
 C62 C 0.03873 0.56875 0.46305
 C63 C 0.03537 0.53569 0.46748
 C64 C -0.02364 0.49219 0.56395
 C65 C -0.02259 0.49031 0.59850
 C66 C 0.00740 0.49467 0.60992
 C67 C 0.03637 0.50075 0.58597
 C68 C 0.03530 0.50264 0.55150
 H69 H 0.05299 0.42494 0.49067
 H70 H 0.05253 0.36521 0.49732
 H71 H -0.05309 0.38333 0.47966
 H72 H -0.05296 0.44344 0.47420
 H73 H 0.04103 0.42953 0.40749
 H74 H 0.03423 0.43639 0.34963
 H75 H -0.05195 0.53074 0.47020
 H76 H -0.03850 0.57215 0.54820
 H77 H -0.03252 0.62998 0.54077
 H78 H 0.06035 0.56737 0.43909
 H79 H 0.05479 0.50943 0.44728
 H80 H -0.04727 0.48934 0.55595
 H81 H -0.04520 0.48535 0.61624
 H82 H 0.05953 0.50484 0.59423
 H83 H 0.05780 0.50767 0.53364
 H84 H -0.05898 0.53778 0.41229
 C85 C 0.51892 0.00259 0.49287
 C86 C 0.49295 -0.00296 0.51887
 C87 C 0.49695 -0.00402 0.55498
 C88 C 0.45861 -0.00765 0.51281
 C89 C 0.51287 0.00715 0.45847
 C90 C 0.55499 0.00376 0.49688
 C91 C 0.49291 -0.03373 0.56667
 C92 C 0.49440 -0.03427 0.60140
 C93 C 0.49969 -0.00480 0.62585
 C94 C 0.50414 0.02486 0.61344
 C95 C 0.50255 0.02529 0.57864
 C96 C 0.46044 -0.03579 0.48189
 C97 C 0.42784 -0.03977 0.47659
 C98 C 0.39286 -0.01580 0.50224
 C99 C 0.39122 0.01197 0.53345
 C100 C 0.42377 0.01589 0.53873
 C101 C 0.48184 0.03520 0.46013
 C102 C 0.47659 0.03910 0.42748
 C103 C 0.50241 0.01513 0.39261
 C104 C 0.53371 -0.01256 0.39114
 C105 C 0.53893 -0.01640 0.42375
 C106 C 0.56653 0.03350 0.49271
 C107 C 0.60125 0.03412 0.49417
 C108 C 0.62585 0.00471 0.49956
 C109 C 0.61359 -0.02497 0.50416
 C110 C 0.57879 -0.02548 0.50260
 H111 H 0.48873 -0.05675 0.54871
 H112 H 0.49249 -0.05863 0.60822
 H113 H 0.50689 0.04897 0.63110
 H114 H 0.50476 0.04901 0.57055
 H115 H 0.48710 -0.05463 0.46188
 H116 H 0.42998 -0.06130 0.45221
 H117 H 0.42180 0.03754 0.56294
 H118 H 0.46171 0.05405 0.48670
 H119 H 0.45213 0.06056 0.42949
 H120 H 0.55442 -0.03101 0.36474
 H121 H 0.56323 -0.03798 0.42191
 H122 H 0.54846 0.05646 0.48844
 H123 H 0.60796 0.05849 0.49214
 H124 H 0.63136 -0.04904 0.50700
 H125 H 0.57081 -0.04922 0.50492
 H126 H 0.36472 0.03042 0.55404
 O127 O 0.46095 0.01839 -0.02417
 O128 O 0.45794 0.03147 0.07232
 O129 O 0.45716 0.07320 0.03070
 O130 O 0.46091 -0.02313 0.01775
 O131 O 0.52216 -0.04180 -0.00101
 O132 O 0.51841 0.05462 0.01168
 O133 O 0.51918 0.01301 0.05330
 O134 O 0.52220 -0.00035 -0.04297
 Cu135 Cu 0.45311 0.02683 0.02602
 Cu136 Cu 0.52662 0.00450 0.00335
 C137 C 0.49212 0.00708 -0.05006
 C138 C 0.48813 0.02421 0.07926
 C139 C 0.48714 0.08039 0.02311
 C140 C 0.49211 -0.04892 0.00653
 O141 O -0.06027 0.53201 1.01166
 O142 O 0.03537 0.53071 0.99974
 O143 O -0.00590 0.53019 0.95766
 O144 O -0.01906 0.53194 1.05377
 O145 O 0.00090 0.47076 1.03393
 O146 O 0.01440 0.46900 0.93801
 O147 O 0.05558 0.46953 0.98018
 O148 O -0.04020 0.47081 0.99176
 Cu149 Cu -0.01443 0.53735 1.00771
 Cu150 Cu 0.00973 0.46390 0.98403
 C151 C -0.06659 0.50165 1.00335
 C152 C 0.06184 0.49997 0.98815
 C153 C 0.00611 0.49927 0.93143
 C154 C -0.01122 0.50158 1.06027
 O155 O 0.03100 -0.07348 0.45653
 O156 O 0.01804 0.02286 0.46020
 O157 O 0.07268 -0.03190 0.45729
 O158 O -0.02394 -0.01849 0.46034
 O159 O -0.04274 0.00014 0.52151
 O160 O 0.05364 -0.01357 0.51846
 O161 O -0.00072 0.04142 0.52137
 O162 O 0.01196 -0.05502 0.51771
 Cu163 Cu 0.02633 -0.02709 0.45246
 Cu164 Cu 0.00364 -0.00490 0.52588
 C165 C 0.02338 -0.08073 0.48649
 C166 C 0.00680 0.04860 0.49135
 C167 C 0.07964 -0.02477 0.48745
 C168 C -0.04984 -0.00719 0.49147
 C169 C -0.28024 0.50436 1.00869
 C170 C -0.29418 0.47830 1.01972
 C171 C -0.32935 0.47812 1.01933
 C172 C -0.35109 0.50406 1.00789
 C173 C -0.33680 0.53010 0.99675
 C174 C -0.30159 0.53024 0.99719
 C175 C -0.24393 0.50429 1.00897
 C176 C -0.21342 0.50397 1.00909
 C177 C -0.17687 0.50341 1.00892
 C178 C -0.14804 0.46953 0.99757
 C179 C -0.11224 0.46891 0.99634
 C180 C -0.10484 0.50224 1.00643
 C181 C -0.13414 0.53616 1.01827
 C182 C -0.16991 0.53670 1.01947
 H183 H -0.27781 0.45803 1.02850
 H184 H -0.33933 0.45737 1.02753
 H185 H -0.35303 0.55064 0.98818
 H186 H -0.29105 0.55056 0.98862
 H187 H -0.15315 0.44359 0.98935
 H188 H -0.09031 0.44234 0.98707
 H189 H -0.12938 0.56231 1.02619
 H190 H -0.19204 0.56308 1.02830
 C191 C 0.27320 0.50360 0.98487
 C192 C 0.30589 0.48462 0.95443
 C193 C 0.33975 0.48758 0.95686
 C194 C 0.34188 0.50995 0.99003
 C195 C 0.30808 0.52857 1.02059
 C196 C 0.27444 0.52539 1.01790
 C197 C 0.23816 0.50121 0.98240
 C198 C 0.20828 0.50008 0.98129
 C199 C 0.17204 0.49972 0.98113
 C200 C 0.14298 0.53325 0.99173
 C201 C 0.10725 0.53330 0.99343
 C202 C 0.10009 0.49973 0.98458
 C203 C 0.12963 0.46610 0.97340
 C204 C 0.16537 0.46613 0.97174
 H205 H 0.30517 0.46785 0.92852
 H206 H 0.36351 0.47366 0.93165
 H207 H 0.30706 0.54442 1.04760
 H208 H 0.24928 0.53987 1.04187
 H209 H 0.14782 0.55942 0.99914
 H210 H 0.08517 0.55966 1.00213
 H211 H 0.12503 0.43979 0.96643
 H212 H 0.18767 0.44002 0.96360
 C213 C 0.02455 -0.29343 0.48126
 C214 C 0.05644 -0.32397 0.47236
 C215 C 0.05320 -0.35786 0.47424
 C216 C 0.01796 -0.36153 0.48518
 C217 C -0.01385 -0.33081 0.49347
 C218 C -0.01055 -0.29703 0.49153
 C219 C 0.02751 -0.25807 0.48090
 C220 C 0.02907 -0.22799 0.48128
 C221 C 0.02979 -0.19161 0.48240
 C222 C 0.03963 -0.18373 0.44946
 C223 C 0.03830 -0.14781 0.45072
 C224 C 0.02700 -0.11926 0.48502
 C225 C 0.01782 -0.12764 0.51796
 C226 C 0.01918 -0.16357 0.51661
 H227 H 0.08374 -0.32145 0.46448
 H228 H 0.07816 -0.38088 0.46809
 H229 H -0.04131 -0.33293 0.50147
 H230 H -0.03541 -0.27359 0.49838
 H231 H 0.04779 -0.20521 0.42283
 H232 H 0.04552 -0.14228 0.42487
 H233 H 0.00900 -0.10632 0.54480
 H234 H 0.01143 -0.16936 0.54228
 C235 C -0.00060 0.26269 0.49483
 C236 C 0.03235 0.26693 0.47618
 C237 C 0.03256 0.30177 0.47471
 C238 C -0.00028 0.33287 0.49186
 C239 C -0.03319 0.32838 0.51088
 C240 C -0.03332 0.29351 0.51232
 C241 C -0.00091 0.22657 0.49533
 C242 C -0.00088 0.19610 0.49523
 C243 C -0.00031 0.15944 0.49448
 C244 C -0.00956 0.15175 0.52759
 C245 C -0.00785 0.11580 0.52668
 C246 C 0.00321 0.08707 0.49256
 C247 C 0.01199 0.09524 0.45946
 C248 C 0.01025 0.13117 0.46046
 H249 H 0.05782 0.24322 0.46242
 H250 H 0.05821 0.30421 0.45945
 H251 H -0.05880 0.35187 0.52475
 H252 H -0.05896 0.29056 0.52691
 H253 H -0.01776 0.17343 0.55409
 H254 H -0.01475 0.11044 0.55264
 H255 H 0.02063 0.07378 0.43274
 H256 H 0.01748 0.13682 0.43466
 C257 C 0.49917 -0.00389 -0.26614
 C258 C 0.51765 0.01607 -0.28359
 C259 C 0.51803 0.01573 -0.31912
 C260 C 0.49988 -0.00474 -0.33817
 C261 C 0.48150 -0.02489 -0.31993
 C262 C 0.48119 -0.02438 -0.28441
 C263 C 0.49828 -0.00306 -0.22933
 C264 C 0.49730 -0.00226 -0.19842
 C265 C 0.49601 -0.00105 -0.16143
 C266 C 0.52899 -0.01058 -0.15353
 C267 C 0.52776 -0.00848 -0.11740
 C268 C 0.49344 0.00324 -0.08864
 C269 C 0.46044 0.01236 -0.09697
 C270 C 0.46175 0.01023 -0.13313
 H271 H 0.53195 0.03184 -0.26978
 H272 H 0.53382 0.03060 -0.33184
 H273 H 0.46575 -0.03990 -0.33201
 H274 H 0.46646 -0.03968 -0.27099
 H275 H 0.55566 -0.01935 -0.17522
 H276 H 0.55367 -0.01566 -0.11195
 H277 H 0.43358 0.02151 -0.07549
 H278 H 0.43604 0.01767 -0.13895
 C279 C 0.48948 0.02577 0.29073
 C280 C 0.50125 -0.00934 0.29396
 C281 C 0.50498 -0.01276 0.32723
 C282 C 0.49701 0.01896 0.35779
 C283 C 0.48466 0.05420 0.35449
 C284 C 0.48099 0.05755 0.32111
 C285 C 0.48730 0.02885 0.25581
 C286 C 0.48639 0.03043 0.22601
 C287 C 0.48639 0.03107 0.18980
 C288 C 0.52013 0.02157 0.16138
 C289 C 0.52062 0.02005 0.12559
 C290 C 0.48730 0.02799 0.11770
 C291 C 0.45342 0.03819 0.14662
 C292 C 0.45301 0.03965 0.18244
 H293 H 0.50784 -0.03413 0.27064
 H294 H 0.51402 -0.04023 0.32909
 H295 H 0.47869 0.07910 0.37739
 H296 H 0.47200 0.08487 0.31886
 H297 H 0.54613 0.01478 0.16675
 H298 H 0.54716 0.01212 0.10400
 H299 H 0.42730 0.04442 0.14146
 H300 H 0.42674 0.04695 0.20423
 C301 C 0.49583 -0.26282 0.00004
 C302 C 0.51285 -0.29360 -0.03266
 C303 C 0.51138 -0.32841 -0.03232
 C304 C 0.49283 -0.33288 0.00078
 C305 C 0.47618 -0.30184 0.03359
 C306 C 0.47766 -0.26705 0.03318
 C307 C 0.49630 -0.22675 -0.00048
 C308 C 0.49616 -0.19632 -0.00061
 C309 C 0.49538 -0.15970 -0.00023
 C310 C 0.52851 -0.15207 -0.00955
 C311 C 0.52755 -0.11615 -0.00797
 C312 C 0.49337 -0.08738 0.00301
 C313 C 0.46025 -0.09548 0.01185
 C314 C 0.46129 -0.13139 0.01024
 H315 H 0.52706 -0.29065 -0.05845
 H316 H 0.52487 -0.35186 -0.05792
 H317 H 0.46128 -0.30426 0.05939
 H318 H 0.46427 -0.24338 0.05863
 H319 H 0.55505 -0.17379 -0.01768
 H320 H 0.55353 -0.11084 -0.01491
 H321 H 0.43349 -0.07399 0.02043
 H322 H 0.43548 -0.13699 0.01753
 C323 C 0.48182 0.29339 0.02531
 C324 C 0.49130 0.29747 -0.00961
 C325 C 0.49327 0.33131 -0.01274
 C326 C 0.48579 0.36157 0.01907
 C327 C 0.47563 0.35743 0.05414
 C328 C 0.47372 0.32349 0.05721
 C329 C 0.48146 0.25795 0.02806
 C330 C 0.48185 0.22781 0.02943
 C331 C 0.48299 0.19136 0.02995
 C332 C 0.51725 0.16323 0.01929
 C333 C 0.51861 0.12725 0.01776
 C334 C 0.48565 0.11893 0.02683
 C335 C 0.45130 0.14757 0.03816
 C336 C 0.45002 0.18353 0.03966
 H337 H 0.49753 0.27437 -0.03447
 H338 H 0.50066 0.33381 -0.04006
 H339 H 0.47012 0.38009 0.07908
 H340 H 0.46645 0.32058 0.08437
 H341 H 0.54294 0.16898 0.01163
 H342 H 0.54549 0.10586 0.00892
 H343 H 0.42543 0.14208 0.04531
 H344 H 0.42335 0.20509 0.04786
 C345 C -0.26611 0.00395 0.49884
 C346 C -0.28345 -0.01598 0.51746
 C347 C -0.31899 -0.01569 0.51791
 C348 C -0.33817 0.00472 0.49969
 C349 C -0.32003 0.02485 0.48118
 C350 C -0.28450 0.02438 0.48079
 C351 C -0.22928 0.00316 0.49786
 C352 C -0.19835 0.00237 0.49682
 C353 C -0.16133 0.00115 0.49548
 C354 C -0.15340 0.01065 0.52840
 C355 C -0.11725 0.00850 0.52712
 C356 C -0.08847 -0.00323 0.49283
 C357 C -0.09683 -0.01230 0.45988
 C358 C -0.13303 -0.01012 0.46124
 H359 H -0.26954 -0.03170 0.53180
 H360 H -0.33163 -0.03053 0.53380
 H361 H -0.33222 0.03981 0.46538
 H362 H -0.27116 0.03966 0.46596
 H363 H -0.17510 0.01941 0.55505
 H364 H -0.11177 0.01564 0.55299
 H365 H -0.07533 -0.02146 0.43304
 H366 H -0.13887 -0.01753 0.43557
 C367 C 0.29114 -0.02660 0.48903
 C368 C 0.29425 0.00853 0.50066
 C369 C 0.32746 0.01200 0.50449
 C370 C 0.35809 -0.01969 0.49676
 C371 C 0.35492 -0.05495 0.48455
 C372 C 0.32159 -0.05835 0.48078
 C373 C 0.25626 -0.02972 0.48676
 C374 C 0.22648 -0.03130 0.48579
 C375 C 0.19027 -0.03191 0.48575
 C376 C 0.18291 -0.04032 0.45241
 C377 C 0.14707 -0.03878 0.45280
 C378 C 0.11812 -0.02868 0.48662
 C379 C 0.12601 -0.02093 0.51991
 C380 C 0.16182 -0.02252 0.51943
 H381 H 0.27087 0.03329 0.50707
 H382 H 0.32923 0.03948 0.51341
 H383 H 0.37788 -0.07982 0.47877
 H384 H 0.31943 -0.08568 0.47190
 H385 H 0.20472 -0.04752 0.42618
 H386 H 0.14190 -0.04486 0.42670
 H387 H 0.10440 -0.01308 0.54641
 H388 H 0.16719 -0.01587 0.54541
 C389 C -0.02209 0.49802 1.27330
 C390 C -0.01557 0.46353 1.27833
 C391 C -0.01309 0.46026 1.31202
 C392 C -0.01704 0.49152 1.34120
 C393 C -0.02416 0.52622 1.33611
 C394 C -0.02659 0.52941 1.30231
 C395 C -0.02285 0.50070 1.23789
 C396 C -0.02263 0.50193 1.20771
 C397 C -0.02131 0.50221 1.17111
 C398 C -0.00998 0.46862 1.14205
 C399 C -0.00717 0.46845 1.10609
 C400 C -0.01565 0.50197 1.09868
 C401 C -0.02749 0.53566 1.12818
 C402 C -0.03025 0.53574 1.16416
 H403 H -0.01208 0.43906 1.25607
 H404 H -0.00814 0.43329 1.31528
 H405 H -0.02695 0.55069 1.35793
 H406 H -0.03148 0.55622 1.29864
 H407 H -0.00293 0.44250 1.14711
 H408 H 0.00201 0.44204 1.08405
 H409 H -0.03420 0.56192 1.12339
 H410 H -0.03898 0.56190 1.18646
 C411 C 0.01012 0.49425 0.71771
 C412 C 0.04251 0.47619 0.68659
 C413 C 0.04157 0.47595 0.65146
 C414 C 0.00816 0.49380 0.64701
 C415 C -0.02433 0.51157 0.67843
 C416 C -0.02332 0.51180 0.71354
 C417 C 0.01118 0.49501 0.75395
 C418 C 0.01180 0.49576 0.78441
 C419 C 0.01207 0.49669 0.82092
 C420 C 0.00022 0.53071 0.84954
 C421 C -0.00101 0.53162 0.88540
 C422 C 0.00957 0.49843 0.89306
 C423 C 0.02203 0.46437 0.86393
 C424 C 0.02324 0.46354 0.82812
 H425 H 0.06850 0.46239 0.68950
 H426 H 0.06692 0.46164 0.62774
 H427 H -0.05035 0.52597 0.67597
 H428 H -0.04854 0.52592 0.73747
 H429 H -0.00851 0.55654 0.84425
 H430 H -0.01078 0.55829 0.90719
 H431 H 0.03034 0.43832 0.86889
 H432 H 0.03244 0.43705 0.80615
   
