data_POSCAR
  _audit_creation_date              2014-09-24
  _audit_creation_method            'ToBaCCo'
  _symmetry_space_group_name_H-M    'P1'
  _symmetry_Int_Tables_number       1
  _symmetry_cell_setting            triclinic
  loop_
  _symmetry_equiv_pos_as_xyz
 x,y,z
_cell_length_a 50.0426
_cell_length_b 38.8333
_cell_length_c 35.0005
_cell_angle_alpha 90.155100
_cell_angle_beta 90.021900
_cell_angle_gamma 90.109300
loop_
  _atom_site_label
  _atom_site_type_symbol
  _atom_site_fract_x
  _atom_site_fract_y
  _atom_site_fract_z
C1 C 0.24954 0.26691 0.24929
 C2 C 0.24951 0.23179 0.24919
 C3 C 0.22795 0.21168 0.23020
 C4 C 0.27102 0.21173 0.26807
 C5 C 0.26934 0.28702 0.27185
 C6 C 0.22979 0.28699 0.22684
 C7 C 0.20097 0.21714 0.23950
 C8 C 0.18085 0.19851 0.22088
 C9 C 0.18753 0.17397 0.19303
 C10 C 0.21445 0.16795 0.18423
 C11 C 0.23454 0.18661 0.20282
 C12 C 0.26439 0.18668 0.29535
 C13 C 0.28446 0.16813 0.31387
 C14 C 0.31134 0.17421 0.30510
 C15 C 0.31808 0.19867 0.27739
 C16 C 0.29802 0.21723 0.25880
 C17 C 0.28507 0.31210 0.25372
 C18 C 0.30409 0.33078 0.27447
 C19 C 0.30742 0.32477 0.31360
 C20 C 0.29146 0.30026 0.33202
 C21 C 0.27240 0.28159 0.31130
 C22 C 0.22670 0.28153 0.18736
 C23 C 0.20772 0.30022 0.16674
 C24 C 0.19185 0.32477 0.18528
 C25 C 0.19520 0.33079 0.22444
 C26 C 0.21414 0.31210 0.24509
 H27 H 0.19551 0.23589 0.26107
 H28 H 0.16015 0.20338 0.22821
 H29 H 0.22000 0.14900 0.16285
 H30 H 0.25523 0.18189 0.19545
 H31 H 0.24369 0.18192 0.30272
 H32 H 0.27902 0.14919 0.33519
 H33 H 0.30353 0.23596 0.23732
 H34 H 0.28289 0.31682 0.22339
 H35 H 0.31629 0.34974 0.25996
 H36 H 0.29378 0.29553 0.36233
 H37 H 0.26010 0.26283 0.32595
 H38 H 0.23894 0.26275 0.17261
 H39 H 0.20538 0.29547 0.13640
 H40 H 0.18308 0.34979 0.23905
 H41 H 0.21634 0.31684 0.27544
 H42 H 0.33882 0.20346 0.27024
 C43 C 0.75004 0.23384 0.24976
 C44 C 0.75001 0.26896 0.24974
 C45 C 0.77152 0.28906 0.23080
 C46 C 0.72847 0.28901 0.26866
 C47 C 0.73011 0.21370 0.27191
 C48 C 0.77001 0.21373 0.22766
 C49 C 0.79852 0.28382 0.24019
 C50 C 0.81858 0.30227 0.22137
 C51 C 0.81184 0.32638 0.19331
 C52 C 0.78495 0.33226 0.18446
 C53 C 0.76488 0.31380 0.20321
 C54 C 0.73507 0.31398 0.29620
 C55 C 0.71498 0.33240 0.31493
 C56 C 0.68810 0.32625 0.30611
 C57 C 0.68139 0.30191 0.27811
 C58 C 0.70147 0.28349 0.25931
 C59 C 0.71454 0.18860 0.25337
 C60 C 0.69546 0.16980 0.27371
 C61 C 0.69190 0.17570 0.31285
 C62 C 0.70769 0.20025 0.33168
 C63 C 0.72681 0.21906 0.31136
 C64 C 0.77331 0.21887 0.18820
 C65 C 0.79248 0.20011 0.16792
 C66 C 0.80832 0.17581 0.18680
 C67 C 0.80476 0.17012 0.22594
 C68 C 0.78564 0.18888 0.24625
 H69 H 0.80403 0.26532 0.26190
 H70 H 0.83932 0.29764 0.22858
 H71 H 0.77950 0.35092 0.16287
 H72 H 0.74418 0.31836 0.19574
 H73 H 0.75576 0.31876 0.30363
 H74 H 0.72040 0.35124 0.33648
 H75 H 0.69599 0.26481 0.23764
 H76 H 0.71691 0.18395 0.22303
 H77 H 0.68340 0.15080 0.25888
 H78 H 0.70518 0.20490 0.36200
 H79 H 0.73898 0.23783 0.32633
 H80 H 0.76110 0.23745 0.17319
 H81 H 0.79498 0.20459 0.13759
 H82 H 0.81686 0.15132 0.24081
 H83 H 0.78327 0.18440 0.27659
 H84 H 0.66065 0.29706 0.27093
 C85 C 0.75037 0.76940 0.75055
 C86 C 0.75031 0.73428 0.75053
 C87 C 0.72889 0.71413 0.73131
 C88 C 0.77166 0.71419 0.76971
 C89 C 0.77032 0.78952 0.77280
 C90 C 0.73049 0.78945 0.72831
 C91 C 0.70184 0.71935 0.74046
 C92 C 0.68190 0.70055 0.72166
 C93 C 0.68881 0.67614 0.69386
 C94 C 0.71574 0.67038 0.68517
 C95 C 0.73568 0.68917 0.70390
 C96 C 0.76479 0.68935 0.79710
 C97 C 0.78467 0.67062 0.81579
 C98 C 0.81162 0.67632 0.80709
 C99 C 0.81861 0.70062 0.77932
 C100 C 0.79873 0.71936 0.76055
 C101 C 0.78618 0.81425 0.75431
 C102 C 0.80552 0.83272 0.77466
 C103 C 0.80907 0.82686 0.81382
 C104 C 0.79292 0.80274 0.83262
 C105 C 0.77354 0.78429 0.81226
 C106 C 0.72725 0.78407 0.68884
 C107 C 0.70795 0.80248 0.66851
 C108 C 0.69191 0.82668 0.68733
 C109 C 0.69546 0.83270 0.72646
 C110 C 0.71472 0.81429 0.74682
 H111 H 0.69621 0.73801 0.76204
 H112 H 0.66113 0.70509 0.72874
 H113 H 0.72131 0.65150 0.66379
 H114 H 0.75642 0.68463 0.69663
 H115 H 0.74404 0.68485 0.80437
 H116 H 0.77904 0.65182 0.83715
 H117 H 0.80441 0.73793 0.73899
 H118 H 0.78387 0.81878 0.72396
 H119 H 0.81781 0.85135 0.75976
 H120 H 0.79534 0.79806 0.86294
 H121 H 0.76116 0.76580 0.82718
 H122 H 0.73955 0.76550 0.67390
 H123 H 0.70545 0.79774 0.63820
 H124 H 0.68321 0.85143 0.74128
 H125 H 0.71703 0.81895 0.77717
 H126 H 0.83939 0.70511 0.77223
 C127 C 0.24945 0.73373 0.75075
 C128 C 0.24943 0.76885 0.75069
 C129 C 0.26910 0.78887 0.72792
 C130 C 0.22976 0.78892 0.77340
 C131 C 0.22792 0.71360 0.76962
 C132 C 0.27101 0.71362 0.73193
 C133 C 0.28491 0.81410 0.74584
 C134 C 0.30395 0.83247 0.72492
 C135 C 0.30723 0.82602 0.68583
 C136 C 0.29114 0.80142 0.66760
 C137 C 0.27206 0.78305 0.68849
 C138 C 0.22679 0.78337 0.81285
 C139 C 0.20773 0.80180 0.83370
 C140 C 0.19163 0.82622 0.81541
 C141 C 0.19492 0.83238 0.77627
 C142 C 0.21395 0.81393 0.75541
 C143 C 0.20093 0.71896 0.76025
 C144 C 0.18086 0.70004 0.77847
 C145 C 0.18760 0.67534 0.80594
 C146 C 0.21449 0.66949 0.81488
 C147 C 0.23454 0.68842 0.79671
 C148 C 0.26442 0.68822 0.70488
 C149 C 0.28450 0.66934 0.68673
 C150 C 0.31137 0.67545 0.69566
 C151 C 0.31808 0.70033 0.72308
 C152 C 0.29800 0.71922 0.74129
 H153 H 0.28281 0.81910 0.77615
 H154 H 0.31624 0.85150 0.73928
 H155 H 0.29341 0.79635 0.63733
 H156 H 0.25971 0.76418 0.67399
 H157 H 0.23915 0.76466 0.82739
 H158 H 0.20552 0.79687 0.86400
 H159 H 0.21605 0.81873 0.72509
 H160 H 0.19544 0.73778 0.73888
 H161 H 0.16015 0.70473 0.77112
 H162 H 0.22001 0.65042 0.83601
 H163 H 0.25524 0.68377 0.80413
 H164 H 0.24373 0.68337 0.69746
 H165 H 0.27909 0.65009 0.66562
 H166 H 0.33880 0.70516 0.73033
 H167 H 0.30347 0.73822 0.76262
 H168 H 0.18266 0.85126 0.76175
 O169 O 0.97496 -0.00561 -0.04680
 O170 O 1.02636 0.04289 0.00626
 O171 O 1.02706 -0.00532 -0.04561
 O172 O 0.97437 0.04284 0.00458
 O173 O 0.97377 0.00352 0.04992
 O174 O 1.02654 -0.04470 -0.00034
 O175 O 1.02577 0.00352 0.05155
 O176 O 0.97442 -0.04495 -0.00147
 Cu177 Cu 1.00077 0.02261 -0.02496
 Cu178 Cu 1.00009 -0.02462 0.02943
 C179 C 0.96579 -0.03351 -0.03312
 C180 C 1.03483 0.03154 0.03804
 C181 C 1.03586 -0.03323 -0.03159
 C182 C 0.96501 0.03143 0.03582
 O183 O 0.52536 0.45521 0.49770
 O184 O 0.47414 0.50273 0.55189
 O185 O 0.47331 0.45515 0.49939
 O186 O 0.52609 0.50256 0.55065
 O187 O 0.52558 0.54270 0.50619
 O188 O 0.47276 0.49525 0.45490
 O189 O 0.47365 0.54282 0.50738
 O190 O 0.52480 0.49536 0.45326
 Cu191 Cu 0.49980 0.47487 0.52934
 Cu192 Cu 0.49916 0.52303 0.47595
 C193 C 0.53384 0.46714 0.46617
 C194 C 0.46515 0.53096 0.53892
 C195 C 0.46394 0.46709 0.46840
 C196 C 0.53480 0.53083 0.53732
 O197 O -0.02545 0.45559 0.00196
 O198 O 0.02585 0.50317 -0.05199
 O199 O 0.02660 0.45554 0.00019
 O200 O -0.02609 0.50295 -0.05069
 O201 O -0.02545 0.54307 -0.00599
 O202 O 0.02727 0.49563 0.04495
 O203 O 0.02648 0.54323 -0.00721
 O204 O -0.02476 0.49572 0.04665
 Cu205 Cu 0.00014 0.47527 -0.02959
 Cu206 Cu 0.00093 0.52341 0.02411
 C207 C -0.03388 0.46751 0.03358
 C208 C 0.03492 0.53140 -0.03884
 C209 C 0.03600 0.46747 0.03125
 C210 C -0.03472 0.53121 -0.03717
 O211 O 0.52663 1.00322 0.45013
 O212 O 0.47378 0.95516 0.50043
 O213 O 0.47463 1.00309 0.44851
 O214 O 0.52589 0.95500 0.50154
 O215 O 0.52544 0.99457 0.54685
 O216 O 0.47412 1.04270 0.49378
 O217 O 0.47333 0.99478 0.54569
 O218 O 0.52610 1.04277 0.49546
 Cu219 Cu 0.50026 0.97513 0.47064
 Cu220 Cu 0.49967 1.02264 0.52501
 C221 C 0.53543 1.03123 0.46422
 C222 C 0.46447 0.96679 0.53167
 C223 C 0.46562 1.03116 0.46201
 C224 C 0.53455 0.96661 0.53318
 C225 C 1.08443 0.05730 0.11500
 C226 C 1.09453 0.08818 0.10033
 C227 C 1.08511 0.10058 0.06533
 C228 C 1.06567 0.08218 0.04503
 C229 C 1.16876 0.15691 0.17509
 C230 C 1.06500 0.03885 0.09476
 C231 C 1.11467 0.10702 0.12107
 C232 C 1.13162 0.12277 0.13831
 C233 C 1.15158 0.14119 0.15828
 C234 C 1.05540 0.05108 0.05951
 H235 H 1.09160 0.04745 0.14205
 H236 H 1.09281 0.12445 0.05371
 H237 H 1.05872 0.09231 0.01801
 H238 H 1.05751 0.01502 0.10671
 C239 C 0.58544 0.55603 0.61308
 C240 C 0.59491 0.58739 0.59884
 C241 C 0.58489 0.60016 0.56435
 C242 C 0.56542 0.58170 0.54420
 C243 C 0.66835 0.65713 0.67400
 C244 C 0.56597 0.53752 0.59299
 C245 C 0.61489 0.60648 0.61962
 C246 C 0.63166 0.62247 0.63694
 C247 C 0.65138 0.64118 0.65706
 C248 C 0.55570 0.55018 0.55833
 H249 H 0.59308 0.54590 0.63975
 H250 H 0.59210 0.62441 0.55306
 H251 H 0.55793 0.59217 0.51763
 H252 H 0.55892 0.51336 0.60467
 C253 C -0.08420 0.39906 0.06210
 C254 C -0.09353 0.41210 0.09694
 C255 C -0.08336 0.44322 0.11107
 C256 C -0.06395 0.46127 0.09047
 C257 C -0.16755 0.34483 0.17324
 C258 C -0.06479 0.41706 0.04144
 C259 C -0.11362 0.39366 0.11808
 C260 C -0.13052 0.37825 0.13568
 C261 C -0.15042 0.36023 0.15608
 C262 C -0.05445 0.44839 0.05539
 H263 H -0.09195 0.37500 0.05089
 H264 H -0.09046 0.45356 0.13799
 H265 H -0.05642 0.48529 0.10202
 H266 H -0.05790 0.40644 0.01456
 C267 C 0.41274 0.89871 0.55597
 C268 C 0.40242 0.91153 0.59033
 C269 C 0.41239 0.94235 0.60551
 C270 C 0.43259 0.96032 0.58646
 C271 C 0.32732 0.84437 0.66460
 C272 C 0.43296 0.91664 0.53684
 C273 C 0.38170 0.89303 0.61016
 C274 C 0.36444 0.87765 0.62704
 C275 C 0.34434 0.85970 0.64714
 C276 C 0.44312 0.94767 0.55189
 H277 H 0.40519 0.87486 0.54398
 H278 H 0.40455 0.95249 0.63210
 H279 H 0.43994 0.98412 0.59881
 H280 H 0.44062 0.90621 0.51030
 C281 C -0.08465 0.60050 -0.06373
 C282 C -0.09472 0.58773 -0.09829
 C283 C -0.08534 0.55637 -0.11273
 C284 C -0.06590 0.53787 -0.09277
 C285 C -0.16797 0.65736 -0.17311
 C286 C -0.06521 0.58206 -0.04371
 C287 C -0.11465 0.60680 -0.11894
 C288 C -0.13138 0.62277 -0.13618
 C289 C -0.15105 0.64144 -0.15622
 C290 C -0.05558 0.55054 -0.05804
 H291 H -0.09179 0.62475 -0.05229
 H292 H -0.09301 0.54624 -0.13945
 H293 H -0.05892 0.51372 -0.10460
 H294 H -0.05768 0.59253 -0.01709
 C295 C 0.41545 1.09995 0.43468
 C296 C 0.40601 1.08734 0.39969
 C297 C 0.41605 1.05640 0.38505
 C298 C 0.43546 1.03811 0.40529
 C299 C 0.33196 1.15555 0.32482
 C300 C 0.43486 1.08170 0.45499
 C301 C 0.38591 1.10604 0.37893
 C302 C 0.36900 1.12166 0.36167
 C303 C 0.34909 1.13994 0.34166
 C304 C 0.44508 1.05055 0.44053
 H305 H 0.40780 1.12386 0.44629
 H306 H 0.40887 1.04640 0.35799
 H307 H 0.44290 1.01423 0.39336
 H308 H 0.44183 1.09199 0.48201
 C309 C 1.08788 -0.05802 -0.10543
 C310 C 1.09776 -0.08876 -0.09024
 C311 C 1.08741 -0.10140 -0.05587
 C312 C 1.06725 -0.08337 -0.03674
 C313 C 1.17264 -0.15632 -0.16452
 C314 C 1.06773 -0.03995 -0.08637
 C315 C 1.11841 -0.10736 -0.11007
 C316 C 1.13563 -0.12284 -0.12696
 C317 C 1.15567 -0.14090 -0.14706
 C318 C 1.05717 -0.05243 -0.05179
 H319 H 1.09573 -0.04802 -0.13203
 H320 H 1.09490 -0.12519 -0.04387
 H321 H 1.05957 -0.09367 -0.01019
 H322 H 1.06043 -0.01623 -0.09873
 C323 C 0.58403 0.39876 0.43732
 C324 C 0.59342 0.41181 0.40259
 C325 C 0.58334 0.44292 0.38863
 C326 C 0.56395 0.46094 0.40929
 C327 C 0.66746 0.34466 0.32618
 C328 C 0.56463 0.41673 0.45805
 C329 C 0.61351 0.39340 0.38139
 C330 C 0.63041 0.37802 0.36376
 C331 C 0.65032 0.36004 0.34334
 C332 C 0.55438 0.44805 0.44427
 H333 H 0.59171 0.37471 0.44840
 H334 H 0.59049 0.45327 0.36178
 H335 H 0.55648 0.48496 0.39788
 H336 H 0.55769 0.40610 0.48485
 C337 C 0.91460 -0.05818 -0.10838
 C338 C 0.90421 -0.08871 -0.09321
 C339 C 0.91410 -0.10136 -0.05860
 C340 C 0.93424 -0.08351 -0.03912
 C341 C 0.82838 -0.15569 -0.16662
 C342 C 0.93474 -0.04028 -0.08896
 C343 C 0.88337 -0.10701 -0.11313
 C344 C 0.86595 -0.12234 -0.12985
 C345 C 0.84562 -0.14030 -0.14957
 C346 C 0.94476 -0.05272 -0.05405
 H347 H 0.90709 -0.04817 -0.13517
 H348 H 0.90621 -0.12497 -0.04661
 H349 H 0.94149 -0.09378 -0.01232
 H350 H 0.94239 -0.01667 -0.10122
 C351 C 0.41184 0.44290 0.39427
 C352 C 0.40206 0.41187 0.40900
 C353 C 0.41249 0.39890 0.44314
 C354 C 0.43262 0.41685 0.46251
 C355 C 0.32741 0.34356 0.33467
 C356 C 0.43197 0.46091 0.41358
 C357 C 0.38146 0.39325 0.38896
 C358 C 0.36430 0.37761 0.37204
 C359 C 0.34433 0.35927 0.35202
 C360 C 0.44261 0.44807 0.44792
 H361 H 0.40392 0.45316 0.36784
 H362 H 0.40508 0.37488 0.45478
 H363 H 0.44036 0.40626 0.48886
 H364 H 0.43920 0.48485 0.40159
 C365 C 0.08488 0.60038 -0.06680
 C366 C 0.09432 0.58765 -0.10169
 C367 C 0.08437 0.55650 -0.11608
 C368 C 0.06504 0.53813 -0.09566
 C369 C 0.16810 0.65720 -0.17584
 C370 C 0.06557 0.58208 -0.04633
 C371 C 0.11432 0.60650 -0.12255
 C372 C 0.13115 0.62242 -0.13969
 C373 C 0.15100 0.64115 -0.15938
 C374 C 0.05543 0.55073 -0.06052
 H375 H 0.09247 0.62445 -0.05538
 H376 H 0.09156 0.54640 -0.14307
 H377 H 0.05765 0.51410 -0.10738
 H378 H 0.05860 0.59249 -0.01940
 C379 C 0.58748 1.05647 0.39064
 C380 C 0.59723 1.08731 0.40607
 C381 C 0.58680 1.09982 0.44048
 C382 C 0.56669 1.08158 0.45942
 C383 C 0.67189 1.15669 0.33350
 C384 C 0.56736 1.03818 0.40952
 C385 C 0.61782 1.10623 0.38649
 C386 C 0.63499 1.12212 0.36999
 C387 C 0.65496 1.14076 0.35046
 C388 C 0.55673 1.05055 0.44414
 H389 H 0.59541 1.04658 0.36399
 H390 H 0.59419 1.12368 0.45267
 H391 H 0.55894 1.09181 0.48601
 H392 H 0.56015 1.01438 0.39700
 C393 C 0.08801 0.44318 0.10524
 C394 C 0.09767 0.41214 0.09031
 C395 C 0.08721 0.39921 0.05607
 C396 C 0.06715 0.41721 0.03681
 C397 C 0.17195 0.34360 0.16429
 C398 C 0.06795 0.46123 0.08604
 C399 C 0.11817 0.39346 0.11025
 C400 C 0.13525 0.37777 0.12709
 C401 C 0.15512 0.35936 0.14702
 C402 C 0.05728 0.44843 0.05160
 H403 H 0.09596 0.45341 0.13175
 H404 H 0.09453 0.37519 0.04427
 H405 H 0.05938 0.40664 0.01038
 H406 H 0.06081 0.48518 0.09819
 C407 C 0.58567 0.94236 0.60846
 C408 C 0.59598 0.91176 0.59331
 C409 C 0.58606 0.89894 0.55869
 C410 C 0.56598 0.91667 0.53920
 C411 C 0.67159 0.84507 0.66668
 C412 C 0.56558 0.96015 0.58902
 C413 C 0.61676 0.89356 0.61324
 C414 C 0.63413 0.87830 0.62996
 C415 C 0.65440 0.86040 0.64966
 C416 C 0.55553 0.94753 0.55412
 H417 H 0.59320 0.95251 0.63525
 H418 H 0.59390 0.87526 0.54671
 H419 H 0.55870 0.90626 0.51240
 H420 H 0.55799 0.98383 0.60128
 C421 C 0.91291 0.05685 0.10929
 C422 C 0.90319 0.08758 0.09383
 C423 C 0.91367 0.09996 0.05944
 C424 C 0.93380 0.08172 0.04055
 C425 C 0.82838 0.15685 0.16619
 C426 C 0.93304 0.03855 0.09046
 C427 C 0.88256 0.10648 0.11334
 C428 C 0.86537 0.12235 0.12979
 C429 C 0.84535 0.14096 0.14927
 C430 C 0.94372 0.05079 0.05586
 H431 H 0.90494 0.04705 0.13592
 H432 H 0.90631 0.12373 0.04724
 H433 H 0.94158 0.09184 0.01398
 H434 H 0.94023 0.01485 0.10299
 C435 C 0.41567 0.55593 0.61621
 C436 C 0.40579 0.58706 0.60201
 C437 C 0.41529 0.59983 0.56722
 C438 C 0.43460 0.58159 0.54668
 C439 C 0.33199 0.65635 0.67640
 C440 C 0.43499 0.53761 0.59571
 C441 C 0.38578 0.60584 0.62293
 C442 C 0.36894 0.62170 0.64013
 C443 C 0.34909 0.64036 0.65988
 C444 C 0.44467 0.55025 0.56069
 H445 H 0.40842 0.54579 0.64310
 H446 H 0.40776 0.62390 0.55595
 H447 H 0.44163 0.59203 0.51984
 H448 H 0.44233 0.51359 0.60729
   
