data_POSCAR
  _audit_creation_date              2014-09-24
  _audit_creation_method            'ToBaCCo'
  _symmetry_space_group_name_H-M    'P1'
  _symmetry_Int_Tables_number       1
  _symmetry_cell_setting            triclinic
  loop_
  _symmetry_equiv_pos_as_xyz
 x,y,z
_cell_length_a 33.4081
_cell_length_b 34.5904
_cell_length_c 31.8700
_cell_angle_alpha 90.562600
_cell_angle_beta 89.156600
_cell_angle_gamma 91.700300
loop_
  _atom_site_label
  _atom_site_type_symbol
  _atom_site_fract_x
  _atom_site_fract_y
  _atom_site_fract_z
C1 C 0.19200 0.19525 0.21544
 C2 C 0.22716 0.18043 0.19795
 C3 C 0.24602 0.19857 0.16350
 C4 C 0.22977 0.23181 0.14658
 C5 C 0.19464 0.24680 0.16402
 C6 C 0.17578 0.22853 0.19846
 H7 H 0.23942 0.15434 0.21064
 H8 H 0.24391 0.24557 0.11950
 H9 H 0.14824 0.23982 0.21147
 C10 C -0.20086 0.79842 0.23530
 C11 C -0.23730 0.81131 0.22031
 C12 C -0.25890 0.78923 0.19079
 C13 C -0.24419 0.75389 0.17638
 C14 C -0.20780 0.74071 0.19137
 C15 C -0.18616 0.76299 0.22088
 H16 H -0.24835 0.83907 0.23064
 H17 H -0.26036 0.73730 0.15269
 H18 H -0.15755 0.75324 0.23170
 C19 C -0.21679 0.19824 -0.26336
 C20 C -0.25025 0.18276 -0.24146
 C21 C -0.26587 0.20245 -0.20648
 C22 C -0.24831 0.23772 -0.19365
 C23 C -0.21487 0.25323 -0.21516
 C24 C -0.19908 0.23358 -0.25011
 H25 H -0.26324 0.15489 -0.25075
 H26 H -0.25965 0.25241 -0.16585
 H27 H -0.17243 0.24510 -0.26598
 C28 C 0.19011 0.80592 -0.24255
 C29 C 0.17298 0.77151 -0.22635
 C30 C 0.19355 0.75062 -0.19630
 C31 C 0.23111 0.76407 -0.18265
 C32 C 0.24816 0.79840 -0.19859
 C33 C 0.22773 0.81924 -0.22864
 H34 H 0.14353 0.76153 -0.23635
 H35 H 0.24644 0.74839 -0.15863
 H36 H 0.24053 0.84631 -0.24038
 C37 C 0.20519 1.19983 0.76429
 C38 C 0.18746 1.23080 0.78513
 C39 C 0.19956 1.24149 0.82556
 C40 C 0.22981 1.22136 0.84515
 C41 C 0.24774 1.19037 0.82416
 C42 C 0.23545 1.17968 0.78371
 H43 H 0.16319 1.24563 0.77054
 H44 H 0.23854 1.22905 0.87685
 H45 H 0.24840 1.15496 0.76800
 C46 C 0.81601 0.79972 0.75101
 C47 C 0.82870 0.76518 0.76812
 C48 C 0.80899 0.74953 0.80340
 C49 C 0.77621 0.76829 0.82143
 C50 C 0.76336 0.80283 0.80414
 C51 C 0.78321 0.81846 0.76889
 H52 H 0.85481 0.75124 0.75493
 H53 H 0.76157 0.75682 0.84946
 H54 H 0.77392 0.84577 0.75631
 C55 C 0.19990 0.79564 1.26487
 C56 C 0.18350 0.76509 1.24112
 C57 C 0.20341 0.75194 1.20508
 C58 C 0.24033 0.76908 1.19294
 C59 C 0.25710 0.79957 1.21698
 C60 C 0.23683 0.81277 1.25296
 H61 H 0.15432 0.75261 1.24960
 H62 H 0.25519 0.75969 1.16430
 H63 H 0.24900 0.83730 1.27058
 C64 C 0.80785 1.21257 1.27173
 C65 C 0.77798 1.19102 1.25076
 C66 C 0.76111 1.20536 1.21429
 C67 C 0.77399 1.24159 1.19888
 C68 C 0.80382 1.26331 1.21998
 C69 C 0.82056 1.24877 1.25646
 H70 H 0.76888 1.16249 1.26188
 H71 H 0.76179 1.25218 1.16995
 H72 H 0.84460 1.26489 1.27197
 O73 O 0.53879 0.95372 0.92905
 O74 O 0.46752 0.98230 1.09609
 O75 O 0.56738 0.94905 1.02829
 O76 O 0.44387 0.93043 0.97969
 O77 O 0.53926 0.96646 1.08606
 O78 O 0.46479 0.95708 0.92265
 O79 O 0.45658 0.93953 1.05086
 O80 O 0.58761 0.98147 0.96251
 C81 C 0.57518 0.95650 0.93684
 C82 C 0.45461 0.94931 1.08769
 C83 C 0.55950 0.94258 1.06568
 C84 C 0.44597 0.93057 0.94101
 O85 O 0.46676 1.03082 0.92842
 O86 O 0.55388 1.04154 1.06423
 O87 O 0.56299 1.04788 0.99028
 O88 O 0.42837 1.01503 1.04618
 O89 O 0.48106 1.05053 1.06258
 O90 O 0.54298 1.03100 0.92850
 O91 O 0.42072 1.00441 0.97095
 O92 O 0.60643 1.01253 1.03825
 Co93 Co 0.50386 0.99317 0.93439
 Co94 Co 0.51002 1.00807 1.07023
 Co95 Co 0.56195 0.99796 1.01008
 Co96 Co 0.44253 0.97394 1.01198
 O97 O 0.50233 0.99169 1.00335
 C98 C 0.43143 1.02846 0.94271
 C99 C 0.59131 1.03586 1.06662
 C100 C 0.56084 1.05461 0.95213
 C101 C 0.44405 1.04700 1.05780
 O102 O 0.05026 0.47557 0.05329
 O103 O 0.03287 0.53375 -0.08069
 O104 O 0.00452 0.41642 -0.03694
 O105 O 0.01068 0.59692 0.03045
 O106 O 0.03504 0.45959 -0.07834
 O107 O 0.04182 0.54652 0.05457
 O108 O 0.04753 0.55595 -0.01920
 O109 O 0.01252 0.42506 0.03804
 C110 C 0.04574 0.43973 0.04935
 C111 C 0.05499 0.55399 -0.05746
 C112 C 0.03177 0.42602 -0.06349
 C113 C 0.03580 0.58278 0.05730
 O114 O -0.03550 0.53414 0.07891
 O115 O -0.04085 0.45571 -0.08608
 O116 O -0.06498 0.45376 0.04201
 O117 O -0.02210 0.57631 -0.04520
 O118 O -0.04623 0.52763 -0.08143
 O119 O -0.02145 0.46477 0.08737
 O120 O -0.05507 0.55852 0.02176
 O121 O -0.07246 0.44041 -0.02954
 Co122 Co 0.00679 0.50462 0.06164
 Co123 Co -0.00502 0.49480 -0.07428
 Co124 Co -0.02852 0.43873 0.00339
 Co125 Co -0.00417 0.55364 0.00213
 O126 O -0.00936 0.49587 -0.00505
 C127 C -0.06070 0.55294 0.05963
 C128 C -0.07021 0.43997 -0.06822
 C129 C -0.05566 0.45272 0.07891
 C130 C -0.04583 0.56280 -0.07206
 O131 O 1.07488 0.04956 0.45926
 O132 O 0.91896 0.01556 0.53833
 O133 O 0.98248 0.05240 0.43312
 O134 O 1.03089 0.06740 0.56402
 O135 O 0.92769 0.03361 0.46354
 O136 O 1.08447 0.04509 0.53596
 O137 O 0.96245 0.05825 0.55223
 O138 O 1.04386 0.02013 0.40933
 C139 C 1.06778 0.04621 0.42118
 C140 C 0.92712 0.04816 0.55262
 C141 C 0.94701 0.05832 0.44238
 C142 C 1.06754 0.06928 0.55852
 O143 O 1.08028 -0.02885 0.53463
 O144 O 0.94689 -0.04097 0.44692
 O145 O 1.01707 -0.04640 0.43728
 O146 O 0.96686 -0.01848 0.57840
 O147 O 0.95012 -0.05188 0.52259
 O148 O 1.07669 -0.02826 0.45534
 O149 O 1.03965 -0.00731 0.58479
 O150 O 0.97127 -0.01038 0.39195
 Co151 Co 1.07223 0.00920 0.49594
 Co152 Co 0.94278 -0.00863 0.49319
 Co153 Co 0.99914 0.00341 0.43817
 Co154 Co 0.99985 0.02346 0.56418
 O155 O 1.00673 0.00854 0.50038
 C156 C 1.06760 -0.02894 0.57212
 C157 C 0.94419 -0.03437 0.40784
 C158 C 1.05340 -0.05281 0.43899
 C159 C 0.95414 -0.04955 0.56140
 C160 C 1.17293 0.17614 0.24761
 C161 C 1.15648 0.15815 0.27556
 C162 C 1.13761 0.13595 0.30765
 C163 C 1.12170 0.11623 0.33450
 C164 C 1.10311 0.09238 0.36535
 C165 C 1.08713 0.07152 0.39114
 C166 C 0.82106 -0.17844 0.26190
 C167 C 0.84000 -0.15696 0.28479
 C168 C 0.86181 -0.13097 0.31103
 C169 C 0.88033 -0.10846 0.33314
 C170 C 0.90212 -0.08208 0.35895
 C171 C 0.92103 -0.05992 0.38110
 C172 C 0.80038 0.17733 0.70492
 C173 C 0.81614 0.15805 0.67788
 C174 C 0.83570 0.13478 0.64758
 C175 C 0.85368 0.11462 0.62305
 C176 C 0.87669 0.09093 0.59609
 C177 C 0.89838 0.07103 0.57496
 C178 C 1.16863 -0.17104 0.72825
 C179 C 1.15160 -0.15053 0.70424
 C180 C 1.13257 -0.12547 0.67644
 C181 C 1.11699 -0.10354 0.65282
 C182 C 1.09935 -0.07747 0.62507
 C183 C 1.08470 -0.05521 0.60114
 C184 C 0.27882 1.18245 1.14537
 C185 C 0.30713 1.16661 1.12977
 C186 C 0.33923 1.14596 1.11224
 C187 C 0.36555 1.12640 1.09808
 C188 C 0.39486 1.10115 1.08262
 C189 C 0.41833 1.07755 1.07057
 C190 C 0.28271 0.81319 0.81803
 C191 C 0.31223 0.82693 0.83432
 C192 C 0.34517 0.84434 0.85510
 C193 C 0.37164 0.86081 0.87400
 C194 C 0.40036 0.88237 0.89710
 C195 C 0.42263 0.90305 0.91720
 C196 C 0.70588 0.80495 1.17271
 C197 C 0.67777 0.82032 1.15727
 C198 C 0.64680 0.84090 1.13878
 C199 C 0.62240 0.86075 1.12260
 C200 C 0.59672 0.88666 1.10317
 C201 C 0.57777 0.91102 1.08621
 C202 C 0.70450 1.18578 0.81760
 C203 C 0.67944 1.17062 0.84006
 C204 C 0.65152 1.15161 0.86694
 C205 C 0.62879 1.13352 0.88951
 C206 C 0.60352 1.10953 0.91449
 C207 C 0.58318 1.08613 0.93352
 C208 C 0.17679 0.27973 0.14520
 C209 C 0.16101 0.30670 0.12918
 C210 C 0.14115 0.33749 0.11045
 C211 C 0.12260 0.36292 0.09486
 C212 C 0.09863 0.39148 0.07745
 C213 C 0.07587 0.41449 0.06375
 C214 C -0.19478 0.28709 -0.19804
 C215 C -0.17827 0.31429 -0.18099
 C216 C -0.15874 0.34462 -0.15864
 C217 C -0.14122 0.36908 -0.13824
 C218 C -0.11907 0.39591 -0.11351
 C219 C -0.09813 0.41710 -0.09242
 C220 C 0.17540 0.71691 -0.17678
 C221 C 0.16079 0.68934 -0.15871
 C222 C 0.14337 0.65794 -0.13628
 C223 C 0.12722 0.63200 -0.11679
 C224 C 0.10585 0.60288 -0.09432
 C225 C 0.08460 0.57944 -0.07633
 C226 C -0.19103 0.70600 0.17390
 C227 C -0.17598 0.67789 0.15827
 C228 C -0.15674 0.64633 0.13890
 C229 C -0.13850 0.62099 0.12157
 C230 C -0.11456 0.59368 0.10044
 C231 C -0.09154 0.57311 0.08192
 C232 C 1.18878 0.18591 0.72538
 C233 C 1.17306 0.17307 0.69429
 C234 C 1.15269 0.15620 0.66002
 C235 C 1.13399 0.13983 0.63283
 C236 C 1.11106 0.11810 0.60379
 C237 C 1.09110 0.09714 0.58157
 C238 C 0.83776 -0.18321 0.71953
 C239 C 0.85766 -0.16722 0.69274
 C240 C 0.88107 -0.14693 0.66267
 C241 C 0.90048 -0.12783 0.63798
 C242 C 0.92175 -0.10312 0.61019
 C243 C 0.93798 -0.07982 0.58737
 C244 C 1.17755 -0.18851 0.29625
 C245 C 1.15660 -0.17345 0.32233
 C246 C 1.13150 -0.15389 0.35079
 C247 C 1.11050 -0.13493 0.37345
 C248 C 1.08745 -0.10969 0.39811
 C249 C 1.07010 -0.08526 0.41766
 C250 C 0.82750 0.19642 0.30399
 C251 C 0.84576 0.18072 0.33098
 C252 C 0.86784 0.16020 0.36032
 C253 C 0.88688 0.14051 0.38321
 C254 C 0.90891 0.11475 0.40713
 C255 C 0.92699 0.09030 0.42487
 C256 C 0.17822 0.27111 -0.15246
 C257 C 0.15827 0.29540 -0.13574
 C258 C 0.13304 0.32329 -0.11801
 C259 C 0.11038 0.34681 -0.10421
 C260 C 0.08306 0.37419 -0.08933
 C261 C 0.05952 0.39769 -0.07733
 C262 C -0.18031 0.29650 0.20305
 C263 C -0.16432 0.32490 0.18788
 C264 C -0.14354 0.35662 0.16927
 C265 C -0.12442 0.38210 0.15201
 C266 C -0.10086 0.40970 0.12959
 C267 C -0.08023 0.43091 0.10800
 C268 C -0.17557 0.71824 -0.17792
 C269 C -0.15965 0.69154 -0.16178
 C270 C -0.13854 0.66169 -0.14323
 C271 C -0.11880 0.63739 -0.12744
 C272 C -0.09417 0.61029 -0.10877
 C273 C -0.07231 0.58813 -0.09238
 C274 C 0.18327 0.72346 0.17911
 C275 C 0.16353 0.70057 0.15882
 C276 C 0.13797 0.67480 0.13649
 C277 C 0.11487 0.65344 0.11823
 C278 C 0.08703 0.62888 0.09733
 C279 C 0.06329 0.60796 0.07936
 C280 C 0.27674 1.16762 0.84489
 C281 C 0.30052 1.14745 0.86154
 C282 C 0.32796 1.12287 0.88020
 C283 C 0.35129 1.10134 0.89545
 C284 C 0.37874 1.07582 0.91256
 C285 C 0.40251 1.05403 0.92660
 C286 C 0.29282 0.82012 1.20262
 C287 C 0.32162 0.83870 1.19001
 C288 C 0.35393 0.86165 1.17393
 C289 C 0.38010 0.88188 1.15842
 C290 C 0.40880 0.90589 1.13750
 C291 C 0.43119 0.92615 1.11665
 C292 C 0.73303 1.18121 1.19119
 C293 C 0.71041 1.15975 1.17225
 C294 C 0.68469 1.13365 1.15033
 C295 C 0.66318 1.11096 1.13164
 C296 C 0.63822 1.08428 1.10954
 C297 C 0.61692 1.06182 1.09029
 C298 C 0.73197 0.82403 0.82435
 C299 C 0.70656 0.84288 0.84135
 C300 C 0.67771 0.86595 0.86132
 C301 C 0.65367 0.88628 0.87845
 C302 C 0.62606 0.91059 0.89863
 C303 C 0.60276 0.93156 0.91598
   
