data_POSCAR
  _audit_creation_date              2014-09-24
  _audit_creation_method            'ToBaCCo'
  _symmetry_space_group_name_H-M    'P1'
  _symmetry_Int_Tables_number       1
  _symmetry_cell_setting            triclinic
  loop_
  _symmetry_equiv_pos_as_xyz
 x,y,z
_cell_length_a 27.4775
_cell_length_b 26.9927
_cell_length_c 27.4704
_cell_angle_alpha 91.846800
_cell_angle_beta 87.422700
_cell_angle_gamma 88.277400
loop_
  _atom_site_label
  _atom_site_type_symbol
  _atom_site_fract_x
  _atom_site_fract_y
  _atom_site_fract_z
C1 C -0.05491 0.52287 0.28320
 C2 C -0.00891 0.53178 0.26156
 C3 C -0.00019 0.57804 0.24146
 C4 C -0.03745 0.61478 0.24236
 C5 C -0.08318 0.60577 0.26441
 C6 C -0.09183 0.55987 0.28498
 C7 C 0.02945 0.49218 0.25884
 C8 C 0.02004 0.44552 0.23790
 C9 C 0.05606 0.40763 0.23558
 C10 C 0.10148 0.41594 0.25499
 C11 C 0.11098 0.46232 0.27628
 C12 C 0.07523 0.50053 0.27771
 H13 H -0.06178 0.48718 0.29882
 H14 H 0.03504 0.58474 0.22389
 H15 H -0.01510 0.43895 0.22286
 H16 H 0.08253 0.53627 0.29455
 H17 H -0.11211 0.63411 0.26496
 H18 H 0.12920 0.38640 0.25374
 C19 C -0.07755 0.48505 0.72907
 C20 C -0.03181 0.47583 0.74818
 C21 C -0.02223 0.43077 0.77051
 C22 C -0.05840 0.39540 0.77410
 C23 C -0.10381 0.40452 0.75445
 C24 C -0.11322 0.44921 0.73173
 C25 C 0.00591 0.51328 0.74470
 C26 C -0.00283 0.56074 0.76631
 C27 C 0.03325 0.59621 0.76345
 C28 C 0.07765 0.58469 0.73806
 C29 C 0.08627 0.53759 0.71602
 C30 C 0.05071 0.50172 0.71975
 H31 H -0.08496 0.51961 0.71133
 H32 H 0.01302 0.42372 0.78565
 H33 H -0.03724 0.56952 0.78609
 H34 H 0.05751 0.46522 0.70271
 H35 H -0.13171 0.37695 0.75665
 H36 H 0.10562 0.61217 0.73562
 C37 C 0.26439 -0.06270 0.49585
 C38 C 0.24263 -0.01533 0.50458
 C39 C 0.21801 -0.00365 0.54954
 C40 C 0.21479 -0.03929 0.58530
 C41 C 0.23696 -0.08628 0.57670
 C42 C 0.26203 -0.09793 0.53213
 C43 C 0.24592 0.02202 0.46682
 C44 C 0.22662 0.01271 0.42114
 C45 C 0.22916 0.04857 0.38547
 C46 C 0.25196 0.09331 0.39493
 C47 C 0.27174 0.10242 0.44027
 C48 C 0.26829 0.06712 0.47636
 H49 H 0.28398 -0.07155 0.46135
 H50 H 0.20092 0.03280 0.55636
 H51 H 0.20887 -0.02196 0.41386
 H52 H 0.28360 0.07433 0.51150
 H53 H 0.23494 -0.11357 0.60484
 H54 H 0.25423 0.12105 0.36724
 C55 C 0.74159 -0.07706 0.50268
 C56 C 0.76166 -0.03077 0.49386
 C57 C 0.78295 -0.02190 0.44767
 C58 C 0.78437 -0.05890 0.41074
 C59 C 0.76386 -0.10479 0.41948
 C60 C 0.74218 -0.11383 0.46536
 C61 C 0.75911 0.00898 0.53219
 C62 C 0.77792 0.00080 0.57803
 C63 C 0.77664 0.03920 0.61375
 C64 C 0.75551 0.08560 0.60407
 C65 C 0.73618 0.09370 0.55858
 C66 C 0.73837 0.05563 0.52267
 H67 H 0.72425 -0.08375 0.53802
 H68 H 0.79854 0.01374 0.44057
 H69 H 0.79458 -0.03499 0.58532
 H70 H 0.72336 0.06205 0.48750
 H71 H 0.76419 -0.13303 0.39043
 H72 H 0.75429 0.11537 0.63164
 C73 C 0.48409 0.26568 1.06120
 C74 C 0.47693 0.24523 1.01451
 C75 C 0.43268 0.22281 1.00512
 C76 C 0.39616 0.22031 1.04226
 C77 C 0.40342 0.24129 1.08865
 C78 C 0.44724 0.26424 1.09805
 C79 C 0.51563 0.24750 0.97556
 C80 C 0.56236 0.22703 0.98230
 C81 C 0.59909 0.22898 0.94532
 C82 C 0.58943 0.25246 0.90185
 C83 C 0.54303 0.27341 0.89511
 C84 C 0.50608 0.27042 0.93166
 H85 H 0.51794 0.28355 1.06852
 H86 H 0.42713 0.20667 0.96919
 H87 H 0.56974 0.20892 1.01600
 H88 H 0.47023 0.28670 0.92638
 H89 H 0.37508 0.23992 1.11734
 H90 H 0.61785 0.25446 0.87331
 C91 C 0.51735 0.73055 1.07188
 C92 C 0.52626 0.75315 1.02715
 C93 C 0.57094 0.77583 1.01789
 C94 C 0.60616 0.77638 1.05327
 C95 C 0.59722 0.75324 1.09758
 C96 C 0.55298 0.73009 1.10679
 C97 C 0.48904 0.75285 0.99002
 C98 C 0.44201 0.77318 1.00136
 C99 C 0.40686 0.77323 0.96591
 C100 C 0.41835 0.75204 0.91946
 C101 C 0.46491 0.73129 0.90810
 C102 C 0.50039 0.73214 0.94313
 H103 H 0.48313 0.71255 1.07907
 H104 H 0.57782 0.79364 0.98352
 H105 H 0.43323 0.78961 1.03736
 H106 H 0.53642 0.71594 0.93428
 H107 H 0.62459 0.75315 1.12486
 H108 H 0.39109 0.75165 0.89205
 B109 B 0.99871 1.05447 0.03264
 B110 B 0.99905 1.05220 -0.02858
 B111 B 1.04884 1.03308 -0.00023
 B112 B 1.02990 1.00400 0.05015
 B113 B 0.96853 1.00527 0.05285
 B114 B 0.94942 1.03502 0.00402
 B115 B 1.00018 0.95142 -0.02845
 B116 B 1.00000 0.95358 0.03272
 B117 B 0.95029 0.97264 0.00412
 B118 B 0.96910 1.00166 -0.04606
 B119 B 1.03026 1.00057 -0.04883
 B120 B 1.04948 0.97070 -0.00009
 B121 B 0.55337 0.49478 0.46871
 B122 B 0.50477 0.52729 0.45025
 B123 B 0.50472 0.46491 0.44914
 B124 B 0.53300 0.44546 0.49858
 B125 B 0.55028 0.49594 0.53010
 B126 B 0.53302 0.54637 0.50026
 B127 B 0.45137 0.49910 0.52983
 B128 B 0.49982 0.46669 0.54859
 B129 B 0.49993 0.52908 0.54949
 B130 B 0.47189 0.54835 0.50005
 B131 B 0.45452 0.49811 0.46864
 B132 B 0.47181 0.44756 0.49852
 C133 C 1.00686 1.18763 0.11339
 C134 C 1.01796 1.18611 0.16314
 C135 C 1.02830 1.23060 0.18921
 C136 C 1.02650 1.27644 0.16556
 C137 C 1.01364 1.27808 0.11624
 C138 C 1.00371 1.23351 0.09010
 C139 C 0.99084 1.23603 0.04088
 C140 C 0.98789 1.28137 0.01817
 C141 C 0.99793 1.32492 0.04358
 C142 C 1.01066 1.32353 0.09205
 C143 C 1.04053 1.22800 0.23857
 C144 C 1.04211 1.18274 0.26162
 C145 C 1.03141 1.13931 0.23629
 C146 C 1.01937 1.14077 0.18762
 C147 C 1.03760 1.32203 0.19172
 C148 C 1.04639 1.36065 0.21232
 C149 C 1.00159 1.14183 0.08548
 C150 C 0.99905 1.10361 0.06217
 H151 H 0.98265 1.20314 0.01958
 H152 H 0.97785 1.28279 -0.01939
 H153 H 0.99575 1.36000 0.02566
 H154 H 1.01799 1.35846 0.11030
 H155 H 1.04899 1.26083 0.25980
 H156 H 1.05165 1.18139 0.29937
 H157 H 1.03268 1.10425 0.25431
 H158 H 1.01166 1.10597 0.16933
 C159 C 0.99323 0.82596 0.11454
 C160 C 0.99448 0.77873 0.09059
 C161 C 0.98929 0.73550 0.11826
 C162 C 0.98224 0.73987 0.16966
 C163 C 0.98055 0.78723 0.19353
 C164 C 0.98637 0.83041 0.16588
 C165 C 0.98455 0.87739 0.19045
 C166 C 0.97670 0.88164 0.24087
 C167 C 0.97076 0.83942 0.26791
 C168 C 0.97276 0.79264 0.24472
 C169 C 0.99087 0.68860 0.09351
 C170 C 0.99695 0.68461 0.04288
 C171 C 1.00155 0.72695 0.01581
 C172 C 1.00046 0.77358 0.03918
 C173 C 0.97569 0.69559 0.19753
 C174 C 0.96981 0.65800 0.21929
 C175 C 0.99733 0.86999 0.08617
 C176 C 0.99955 0.90658 0.06250
 H177 H 0.98868 0.91132 0.17095
 H178 H 0.97504 0.91790 0.25900
 H179 H 0.96456 0.84292 0.30708
 H180 H 0.96798 0.76086 0.26728
 H181 H 0.98729 0.65456 0.11292
 H182 H 0.99794 0.64847 0.02455
 H183 H 1.00593 0.72360 -0.02351
 H184 H 1.00417 0.80544 0.01655
 C185 C 0.98326 1.18186 -0.10516
 C186 C 1.01623 1.22086 -0.10185
 C187 C 1.00777 1.26497 -0.12736
 C188 C 0.96631 1.26965 -0.15587
 C189 C 0.93272 1.23097 -0.15824
 C190 C 0.94109 1.18701 -0.13249
 C191 C 0.90645 1.14925 -0.13427
 C192 C 0.86499 1.15455 -0.16122
 C193 C 0.85706 1.19736 -0.18688
 C194 C 0.89038 1.23529 -0.18551
 C195 C 1.04093 1.30384 -0.12308
 C196 C 1.08082 1.29950 -0.09374
 C197 C 1.08874 1.25653 -0.06833
 C198 C 1.05719 1.21733 -0.07256
 C199 C 0.95759 1.31478 -0.18168
 C200 C 0.95024 1.35254 -0.20269
 C201 C 0.99174 1.13693 -0.07934
 C202 C 0.99683 1.09955 -0.05744
 H203 H 0.91087 1.11537 -0.11471
 H204 H 0.83895 1.12526 -0.16220
 H205 H 0.82482 1.20131 -0.20784
 H206 H 0.88248 1.26801 -0.20585
 H207 H 1.03615 1.33812 -0.14192
 H208 H 1.10557 1.32976 -0.09051
 H209 H 1.11946 1.25356 -0.04516
 H210 H 1.06467 1.18474 -0.05188
 C211 C 1.00844 0.81823 -0.10966
 C212 C 0.97544 0.80830 -0.14651
 C213 C 0.97961 0.76262 -0.17374
 C214 C 1.01718 0.72763 -0.16424
 C215 C 1.05121 0.73850 -0.12844
 C216 C 1.04684 0.78404 -0.10111
 C217 C 1.08143 0.79441 -0.06575
 C218 C 1.11930 0.76067 -0.05763
 C219 C 1.12355 0.71601 -0.08429
 C220 C 1.08998 0.70481 -0.11928
 C221 C 0.94610 0.75329 -0.21030
 C222 C 0.90990 0.78843 -0.22010
 C223 C 0.90624 0.83341 -0.19387
 C224 C 0.93847 0.84339 -0.15733
 C225 C 1.02136 0.68062 -0.19137
 C226 C 1.02622 0.64114 -0.21302
 C227 C 1.00381 0.86416 -0.08128
 C228 C 1.00132 0.90244 -0.05783
 H229 H 1.07966 0.82864 -0.04406
 H230 H 1.14548 0.76927 -0.03055
 H231 H 1.15305 0.68988 -0.07788
 H232 H 1.09492 0.66961 -0.13913
 H233 H 0.94771 0.71895 -0.23185
 H234 H 0.88464 0.78075 -0.24831
 H235 H 0.87814 0.86062 -0.20168
 H236 H 0.93414 0.87885 -0.13782
 C237 C 1.11179 1.01480 0.17375
 C238 C 1.13215 1.06109 0.18488
 C239 C 1.15843 1.06731 0.22782
 C240 C 1.16426 1.02707 0.25909
 C241 C 1.14524 0.98030 0.24699
 C242 C 1.11897 0.97414 0.20403
 C243 C 1.10048 0.92707 0.19231
 C244 C 1.10756 0.88719 0.22244
 C245 C 1.13300 0.89327 0.26472
 C246 C 1.15173 0.93921 0.27704
 C247 C 1.17828 1.11401 0.23846
 C248 C 1.17263 1.15330 0.20727
 C249 C 1.14725 1.14707 0.16499
 C250 C 1.12710 1.10160 0.15378
 C251 C 1.18867 1.03419 0.30427
 C252 C 1.20811 1.04064 0.34223
 C253 C 1.08305 1.00932 0.13138
 C254 C 1.05933 1.00593 0.09592
 H255 H 1.08082 0.92048 0.15958
 H256 H 1.09326 0.85140 0.21291
 H257 H 1.13838 0.86220 0.28805
 H258 H 1.17147 0.94208 0.31017
 H259 H 1.19853 1.12060 0.27080
 H260 H 1.18808 1.18876 0.21594
 H261 H 1.14293 1.17765 0.14085
 H262 H 1.10764 1.09858 0.12047
 C263 C 1.09574 0.99215 -0.18879
 C264 C 1.11158 1.03518 -0.21203
 C265 C 1.13409 1.03101 -0.25962
 C266 C 1.14030 0.98385 -0.28354
 C267 C 1.12170 0.94126 -0.26136
 C268 C 1.09903 0.94551 -0.21392
 C269 C 1.07989 0.90268 -0.19274
 C270 C 1.08325 0.85687 -0.21775
 C271 C 1.10596 0.85256 -0.26395
 C272 C 1.12509 0.89412 -0.28567
 C273 C 1.14973 1.07447 -0.28225
 C274 C 1.14253 1.12087 -0.25880
 C275 C 1.12006 1.12498 -0.21240
 C276 C 1.10505 1.08270 -0.18891
 C277 C 1.16640 0.97850 -0.33051
 C278 C 1.18842 0.97165 -0.36914
 C279 C 1.07550 0.99580 -0.13932
 C280 C 1.05736 0.99825 -0.09871
 H281 H 1.06217 0.90417 -0.15679
 H282 H 1.06866 0.82442 -0.20107
 H283 H 1.10873 0.81684 -0.28310
 H284 H 1.14215 0.88890 -0.32181
 H285 H 1.16707 1.07308 -0.31845
 H286 H 1.15424 1.15383 -0.27682
 H287 H 1.11396 1.16113 -0.19463
 H288 H 1.08765 1.08776 -0.15287
 C289 C 0.89158 0.99073 0.18549
 C290 C 0.88772 1.02803 0.22288
 C291 C 0.86541 1.01763 0.26891
 C292 C 0.84686 0.97003 0.27704
 C293 C 0.85021 0.93290 0.23932
 C294 C 0.87252 0.94335 0.19333
 C295 C 0.87570 0.90561 0.15617
 C296 C 0.85745 0.85887 0.16427
 C297 C 0.83579 0.84858 0.20935
 C298 C 0.83206 0.88503 0.24657
 C299 C 0.86245 1.05538 0.30600
 C300 C 0.88094 1.10206 0.29775
 C301 C 0.90254 1.11227 0.25259
 C302 C 0.90595 1.07581 0.21542
 C303 C 0.82459 0.95927 0.32424
 C304 C 0.80620 0.95071 0.36360
 C305 C 0.91720 0.99998 0.13972
 C306 C 0.93931 1.00490 0.10156
 H307 H 0.89244 0.91170 0.12055
 H308 H 0.86034 0.83046 0.13547
 H309 H 0.82181 0.81214 0.21556
 H310 H 0.81491 0.87525 0.28102
 H311 H 0.84589 1.04926 0.34170
 H312 H 0.87839 1.13050 0.32652
 H313 H 0.91668 1.14863 0.24630
 H314 H 0.92278 1.08551 0.18080
 C315 C 0.89418 1.00728 -0.17446
 C316 C 0.84960 0.98349 -0.18033
 C317 C 0.82418 0.98960 -0.22376
 C318 C 0.84344 1.01981 -0.26077
 C319 C 0.88817 1.04360 -0.25470
 C320 C 0.91390 1.03682 -0.21163
 C321 C 0.95894 1.06029 -0.20661
 C322 C 0.97751 1.09043 -0.24275
 C323 C 0.95206 1.09756 -0.28467
 C324 C 0.90799 1.07439 -0.29085
 C325 C 0.77971 0.96529 -0.22895
 C326 C 0.76091 0.93586 -0.19221
 C327 C 0.78575 0.93002 -0.14965
 C328 C 0.82962 0.95351 -0.14357
 C329 C 0.81781 1.02618 -0.30535
 C330 C 0.79783 1.03207 -0.34304
 C331 C 0.91911 1.00299 -0.12957
 C332 C 0.94051 1.00118 -0.09253
 H333 H 0.98009 1.05598 -0.17462
 H334 H 1.01173 1.10845 -0.23815
 H335 H 0.96659 1.12108 -0.31263
 H336 H 0.88965 1.08101 -0.32418
 H337 H 0.75906 0.96879 -0.26136
 H338 H 0.72684 0.91751 -0.19678
 H339 H 0.77102 0.90715 -0.12122
 H340 H 0.84771 0.94777 -0.10990
 C341 C 1.18396 1.10057 0.00346
 C342 C 1.19944 1.13688 -0.02931
 C343 C 1.24364 1.16164 -0.02199
 C344 C 1.27228 1.14955 0.01783
 C345 C 1.25792 1.11142 0.04917
 C346 C 1.21412 1.08623 0.04136
 C347 C 1.20159 1.04684 0.07184
 C348 C 1.23068 1.03378 0.10995
 C349 C 1.27275 1.05933 0.11848
 C350 C 1.28653 1.09760 0.08842
 C351 C 1.25816 1.19814 -0.05501
 C352 C 1.23020 1.20936 -0.09452
 C353 C 1.18741 1.18461 -0.10205
 C354 C 1.17190 1.14887 -0.06982
 C355 C 1.31686 1.17562 0.02617
 C356 C 1.35401 1.19685 0.03353
 C357 C 1.13642 1.07909 -0.00038
 C358 C 1.09727 1.06027 -0.00159
 H359 H 1.16926 1.02577 0.06658
 H360 H 1.22027 1.00400 0.13329
 H361 H 1.29501 1.04925 0.14836
 H362 H 1.31986 1.11604 0.09620
 H363 H 1.29134 1.21815 -0.05082
 H364 H 1.24189 1.23729 -0.11953
 H365 H 1.16594 1.19349 -0.13281
 H366 H 1.13847 1.13041 -0.07725
 C367 C 0.81822 1.11224 -0.01568
 C368 C 0.77558 1.08468 -0.02052
 C369 C 0.73079 1.10939 -0.03011
 C370 C 0.72912 1.16139 -0.03577
 C371 C 0.77247 1.18839 -0.03408
 C372 C 0.81714 1.16375 -0.02378
 C373 C 0.86006 1.19140 -0.02251
 C374 C 0.85901 1.24182 -0.03192
 C375 C 0.81538 1.26590 -0.04205
 C376 C 0.77243 1.23973 -0.04290
 C377 C 0.68855 1.08107 -0.03436
 C378 C 0.69073 1.02973 -0.03026
 C379 C 0.73469 1.00550 -0.02171
 C380 C 0.77668 1.03250 -0.01656
 C381 C 0.68276 1.18686 -0.04312
 C382 C 0.64371 1.20709 -0.04869
 C383 C 0.86355 1.08707 -0.00463
 C384 C 0.90126 1.06506 0.00210
 H385 H 0.89492 1.17426 -0.01497
 H386 H 0.89224 1.26228 -0.03152
 H387 H 0.81480 1.30508 -0.04935
 H388 H 0.73939 1.26002 -0.05108
 H389 H 0.65358 1.09816 -0.04148
 H390 H 0.65817 1.00859 -0.03406
 H391 H 0.73624 0.96557 -0.01920
 H392 H 0.81003 1.01201 -0.01002
 C393 C 1.18190 0.88930 -0.00703
 C394 C 1.20875 0.88337 0.03531
 C395 C 1.25489 0.85784 0.03189
 C396 C 1.27372 0.83824 -0.01379
 C397 C 1.24628 0.84322 -0.05590
 C398 C 1.20042 0.86918 -0.05260
 C399 C 1.17420 0.87462 -0.09543
 C400 C 1.19264 0.85457 -0.14012
 C401 C 1.23717 0.82870 -0.14326
 C402 C 1.26387 0.82302 -0.10179
 C403 C 1.28129 0.85271 0.07456
 C404 C 1.26258 0.87209 0.11943
 C405 C 1.21744 0.89691 0.12283
 C406 C 1.19068 0.90271 0.08136
 C407 C 1.32188 0.81434 -0.01824
 C408 C 1.36188 0.79488 -0.02442
 C409 C 1.13571 0.91683 -0.00400
 C410 C 1.09760 0.94012 -0.00205
 H411 H 1.13924 0.89427 -0.09486
 H412 H 1.17244 0.85913 -0.17257
 H413 H 1.25123 0.81309 -0.17807
 H414 H 1.29839 0.80265 -0.10619
 H415 H 1.31653 0.83360 0.07371
 H416 H 1.28323 0.86782 0.15176
 H417 H 1.20323 0.91194 0.15778
 H418 H 1.15582 0.92248 0.08580
 C419 C 0.81997 0.89712 0.01689
 C420 C 0.80976 0.85648 -0.01438
 C421 C 0.76525 0.83154 -0.00758
 C422 C 0.73153 0.84711 0.03080
 C423 C 0.74188 0.88779 0.06212
 C424 C 0.78604 0.91315 0.05485
 C425 C 0.79511 0.95442 0.08590
 C426 C 0.76207 0.96947 0.12379
 C427 C 0.71917 0.94425 0.13134
 C428 C 0.70891 0.90398 0.10086
 C429 C 0.75569 0.79113 -0.03946
 C430 C 0.78934 0.77552 -0.07670
 C431 C 0.83303 0.79965 -0.08306
 C432 C 0.84327 0.83983 -0.05249
 C433 C 0.68634 0.82122 0.03827
 C434 C 0.64874 0.79999 0.04501
 C435 C 0.86552 0.92224 0.01062
 C436 C 0.90302 0.94390 0.00676
 H437 H 0.82786 0.97538 0.08138
 H438 H 0.76985 1.00082 0.14745
 H439 H 0.69361 0.95606 0.16087
 H440 H 0.67492 0.88574 0.10803
 H441 H 0.72227 0.77109 -0.03586
 H442 H 0.78153 0.74441 -0.10063
 H443 H 0.85914 0.78700 -0.11174
 H444 H 0.87768 0.85754 -0.05894
 C445 C 0.68631 0.51032 0.39268
 C446 C 0.69421 0.55797 0.37431
 C447 C 0.74007 0.56858 0.35181
 C448 C 0.77761 0.53138 0.34765
 C449 C 0.76951 0.48361 0.36575
 C450 C 0.72360 0.47303 0.38822
 C451 C 0.71617 0.42508 0.40598
 C452 C 0.75325 0.38864 0.40200
 C453 C 0.79829 0.39901 0.38023
 C454 C 0.80651 0.44585 0.36216
 C455 C 0.74735 0.61665 0.33423
 C456 C 0.71030 0.65316 0.33871
 C457 C 0.66535 0.64272 0.36058
 C458 C 0.65722 0.59577 0.37827
 C459 C 0.82458 0.54221 0.32492
 C460 C 0.86375 0.55079 0.30611
 C461 C 0.64050 0.50068 0.41802
 C462 C 0.60225 0.49544 0.43985
 H463 H 0.68163 0.41524 0.42292
 H464 H 0.74699 0.35216 0.41585
 H465 H 0.82700 0.37058 0.37723
 H466 H 0.84212 0.45211 0.34546
 H467 H 0.78171 0.62655 0.31696
 H468 H 0.71652 0.68975 0.32517
 H469 H 0.63667 0.67117 0.36406
 H470 H 0.62170 0.58956 0.39517
 C471 C 0.32557 0.49392 0.39452
 C472 C 0.31926 0.51863 0.35056
 C473 C 0.27555 0.51303 0.32548
 C474 C 0.23875 0.48236 0.34440
 C475 C 0.24510 0.45796 0.38871
 C476 C 0.28841 0.46432 0.41418
 C477 C 0.29366 0.44033 0.45887
 C478 C 0.25756 0.41004 0.47729
 C479 C 0.21544 0.40327 0.45205
 C480 C 0.20900 0.42698 0.40835
 C481 C 0.26987 0.53834 0.28168
 C482 C 0.30638 0.56828 0.26324
 C483 C 0.34921 0.57360 0.28774
 C484 C 0.35582 0.54907 0.33091
 C485 C 0.19417 0.47601 0.31879
 C486 C 0.15656 0.47005 0.29871
 C487 C 0.37085 0.49745 0.41892
 C488 C 0.40810 0.49876 0.44000
 H489 H 0.32582 0.44434 0.47984
 H490 H 0.26236 0.39159 0.51121
 H491 H 0.18751 0.37961 0.46646
 H492 H 0.17550 0.42067 0.39019
 H493 H 0.23722 0.53528 0.26132
 H494 H 0.30141 0.58744 0.22972
 H495 H 0.37745 0.59690 0.27329
 H496 H 0.38967 0.55447 0.34879
 C497 C 0.67318 0.48458 0.61283
 C498 C 0.70358 0.52510 0.62061
 C499 C 0.74636 0.51860 0.64706
 C500 C 0.75815 0.47163 0.66566
 C501 C 0.72673 0.43154 0.65928
 C502 C 0.68398 0.43809 0.63282
 C503 C 0.65272 0.39772 0.62723
 C504 C 0.66359 0.35206 0.64704
 C505 C 0.70568 0.34550 0.67259
 C506 C 0.73703 0.38464 0.67876
 C507 C 0.77653 0.55957 0.65415
 C508 C 0.76450 0.60571 0.63584
 C509 C 0.72239 0.61212 0.61024
 C510 C 0.69216 0.57237 0.60255
 C511 C 0.80320 0.46419 0.69017
 C512 C 0.84109 0.45760 0.70963
 C513 C 0.63106 0.49038 0.58383
 C514 C 0.59581 0.49397 0.55986
 H515 H 0.61955 0.40099 0.60761
 H516 H 0.63931 0.32159 0.64232
 H517 H 0.71409 0.30990 0.68776
 H518 H 0.76922 0.37781 0.69913
 H519 H 0.80953 0.55646 0.67405
 H520 H 0.78791 0.63669 0.64169
 H521 H 0.71308 0.64807 0.59628
 H522 H 0.65957 0.57922 0.58279
 C523 C 0.31120 0.50695 0.59496
 C524 C 0.28595 0.55346 0.59835
 C525 C 0.23863 0.55753 0.62130
 C526 C 0.21672 0.51489 0.64011
 C527 C 0.24068 0.46782 0.63365
 C528 C 0.28813 0.46382 0.61082
 C529 C 0.31126 0.41638 0.60400
 C530 C 0.28789 0.37400 0.61897
 C531 C 0.24166 0.37794 0.64177
 C532 C 0.21821 0.42427 0.64930
 C533 C 0.21418 0.60455 0.62477
 C534 C 0.23563 0.64615 0.60541
 C535 C 0.28170 0.64202 0.58243
 C536 C 0.30685 0.59634 0.57902
 C537 C 0.17000 0.52010 0.66672
 C538 C 0.13160 0.52682 0.68917
 C539 C 0.36069 0.50354 0.57472
 C540 C 0.40134 0.50125 0.55669
 H541 H 0.34717 0.41145 0.58632
 H542 H 0.30562 0.33790 0.61255
 H543 H 0.22373 0.34490 0.65346
 H544 H 0.18212 0.42552 0.66688
 H545 H 0.17813 0.60962 0.64204
 H546 H 0.21637 0.68178 0.60823
 H547 H 0.29817 0.67451 0.56771
 H548 H 0.34270 0.59497 0.56108
 C549 C 0.51785 0.60470 0.32113
 C550 C 0.55650 0.59028 0.28737
 C551 C 0.56358 0.61660 0.24379
 C552 C 0.53142 0.65664 0.23384
 C553 C 0.49253 0.67078 0.26752
 C554 C 0.48590 0.64489 0.31146
 C555 C 0.44727 0.66015 0.34495
 C556 C 0.41603 0.69987 0.33521
 C557 C 0.42221 0.72489 0.29205
 C558 C 0.45996 0.71067 0.25845
 C559 C 0.60294 0.60194 0.21094
 C560 C 0.63421 0.56225 0.22076
 C561 C 0.62687 0.53610 0.26308
 C562 C 0.58839 0.54965 0.29600
 C563 C 0.53842 0.68319 0.18901
 C564 C 0.54471 0.70484 0.15163
 C565 C 0.51160 0.57853 0.36605
 C566 C 0.50766 0.55629 0.40317
 H567 H 0.44093 0.64171 0.37896
 H568 H 0.38694 0.71145 0.36129
 H569 H 0.39774 0.75563 0.28464
 H570 H 0.46341 0.73140 0.22547
 H571 H 0.61000 0.62096 0.17739
 H572 H 0.66420 0.55162 0.19529
 H573 H 0.65115 0.50521 0.27052
 H574 H 0.58408 0.52801 0.32830
 C575 C 0.49259 0.61123 0.68169
 C576 C 0.44720 0.63222 0.69961
 C577 C 0.44390 0.65880 0.74519
 C578 C 0.48581 0.66354 0.77297
 C579 C 0.53132 0.64307 0.75474
 C580 C 0.53476 0.61691 0.70887
 C581 C 0.58065 0.59670 0.69141
 C582 C 0.62194 0.60227 0.71849
 C583 C 0.61853 0.62772 0.76337
 C584 C 0.57382 0.64795 0.78149
 C585 C 0.39820 0.67989 0.76218
 C586 C 0.35692 0.67448 0.73514
 C587 C 0.36004 0.64799 0.69088
 C588 C 0.40454 0.62704 0.67305
 C589 C 0.48131 0.68805 0.82091
 C590 C 0.47519 0.70797 0.86075
 C591 C 0.49565 0.58325 0.63568
 C592 C 0.49770 0.55971 0.59766
 H593 H 0.58509 0.57643 0.65677
 H594 H 0.65676 0.58658 0.70476
 H595 H 0.65072 0.63181 0.78428
 H596 H 0.57295 0.66754 0.81653
 H597 H 0.39383 0.70077 0.79646
 H598 H 0.32225 0.69078 0.74871
 H599 H 0.32773 0.64365 0.67041
 H600 H 0.40510 0.60692 0.63828
 C601 C 0.48755 0.38593 0.31802
 C602 C 0.47697 0.33494 0.31816
 C603 C 0.46678 0.30944 0.27383
 C604 C 0.46787 0.33496 0.22956
 C605 C 0.47669 0.38642 0.22979
 C606 C 0.48608 0.41206 0.27422
 C607 C 0.49328 0.46377 0.27378
 C608 C 0.49149 0.48936 0.23062
 C609 C 0.48309 0.46417 0.18705
 C610 C 0.47581 0.41329 0.18640
 C611 C 0.45526 0.25875 0.27504
 C612 C 0.45349 0.23404 0.31884
 C613 C 0.46367 0.25891 0.36211
 C614 C 0.47565 0.30869 0.36196
 C615 C 0.46001 0.30858 0.18371
 C616 C 0.45400 0.28775 0.14499
 C617 C 0.49751 0.41213 0.36323
 C618 C 0.50341 0.43470 0.40090
 H619 H 0.49986 0.48498 0.30677
 H620 H 0.49650 0.52895 0.23091
 H621 H 0.48190 0.48422 0.15360
 H622 H 0.46900 0.39545 0.15164
 H623 H 0.44701 0.23788 0.24230
 H624 H 0.44415 0.19538 0.31921
 H625 H 0.46202 0.23960 0.39600
 H626 H 0.48316 0.32647 0.39658
 C627 C 0.50299 0.39817 0.68310
 C628 C 0.54078 0.41228 0.71354
 C629 C 0.54874 0.38636 0.75684
 C630 C 0.51763 0.34774 0.77043
 C631 C 0.47782 0.33595 0.74162
 C632 C 0.47036 0.36143 0.69792
 C633 C 0.42986 0.34972 0.67019
 C634 C 0.39779 0.31354 0.68506
 C635 C 0.40547 0.28808 0.72735
 C636 C 0.44497 0.29900 0.75547
 C637 C 0.58793 0.39994 0.78570
 C638 C 0.61775 0.43869 0.77269
 C639 C 0.60904 0.46496 0.73115
 C640 C 0.57102 0.45213 0.70179
 C641 C 0.52617 0.32085 0.81442
 C642 C 0.53366 0.29893 0.85108
 C643 C 0.49924 0.42018 0.63584
 C644 C 0.49819 0.43932 0.59688
 H645 H 0.42233 0.36872 0.63712
 H646 H 0.36705 0.30485 0.66345
 H647 H 0.38059 0.25980 0.73852
 H648 H 0.44927 0.27843 0.78825
 H649 H 0.59583 0.38094 0.81866
 H650 H 0.64758 0.44858 0.79514
 H651 H 0.63219 0.49511 0.72133
 H652 H 0.56561 0.47374 0.66988
 C653 C 0.61457 0.67442 0.49458
 C654 C 0.59048 0.72150 0.49520
 C655 C 0.61807 0.76489 0.49052
 C656 C 0.66955 0.76082 0.48455
 C657 C 0.69357 0.71360 0.48338
 C658 C 0.66598 0.67026 0.48872
 C659 C 0.69069 0.62343 0.48733
 C660 C 0.74120 0.61946 0.48036
 C661 C 0.76818 0.66183 0.47495
 C662 C 0.74484 0.70848 0.47654
 C663 C 0.59317 0.81163 0.49149
 C664 C 0.54247 0.81531 0.49643
 C665 C 0.51549 0.77282 0.50047
 C666 C 0.53901 0.72634 0.50000
 C667 C 0.69736 0.80525 0.47837
 C668 C 0.71910 0.84292 0.47264
 C669 C 0.58631 0.63022 0.49831
 C670 C 0.56273 0.59350 0.50021
 H671 H 0.67125 0.58938 0.49108
 H672 H 0.75944 0.58329 0.47901
 H673 H 0.80741 0.65855 0.46947
 H674 H 0.76736 0.74039 0.47218
 H675 H 0.61251 0.84579 0.48828
 H676 H 0.52403 0.85135 0.49695
 H677 H 0.47613 0.77593 0.50393
 H678 H 0.51644 0.69434 0.50322
 C679 C 0.61405 0.31272 0.50723
 C680 C 0.66373 0.31463 0.51848
 C681 C 0.68985 0.27041 0.52936
 C682 C 0.66634 0.22444 0.52791
 C683 C 0.61714 0.22237 0.51477
 C684 C 0.59094 0.26667 0.50431
 C685 C 0.54185 0.26371 0.49113
 C686 C 0.51932 0.21820 0.48840
 C687 C 0.54477 0.17494 0.49899
 C688 C 0.59312 0.17675 0.51202
 C689 C 0.73912 0.27343 0.54178
 C690 C 0.76205 0.31881 0.54299
 C691 C 0.73668 0.36195 0.53173
 C692 C 0.68809 0.36009 0.51952
 C693 C 0.69254 0.17911 0.53954
 C694 C 0.71307 0.14063 0.54867
 C695 C 0.58600 0.35831 0.50167
 C696 C 0.56259 0.39641 0.49898
 H697 H 0.52053 0.29638 0.48253
 H698 H 0.48186 0.21643 0.47817
 H699 H 0.52698 0.13973 0.49700
 H700 H 0.61140 0.14202 0.51977
 H701 H 0.76037 0.24082 0.55067
 H702 H 0.79973 0.32048 0.55268
 H703 H 0.75461 0.39712 0.53272
 H704 H 0.66975 0.39469 0.51141
 C705 C 0.39011 0.68099 0.50811
 C706 C 0.39884 0.71573 0.54609
 C707 C 0.37130 0.76109 0.55027
 C708 C 0.33510 0.77122 0.51649
 C709 C 0.32537 0.73565 0.47943
 C710 C 0.35280 0.69015 0.47545
 C711 C 0.34167 0.65443 0.43907
 C712 C 0.30465 0.66365 0.40722
 C713 C 0.27825 0.70848 0.41065
 C714 C 0.28834 0.74422 0.44627
 C715 C 0.38066 0.79535 0.58860
 C716 C 0.41602 0.78486 0.62194
 C717 C 0.44287 0.74036 0.61789
 C718 C 0.43458 0.70608 0.58044
 C719 C 0.30772 0.81802 0.52049
 C720 C 0.28582 0.85733 0.52520
 C721 C 0.41876 0.63530 0.50360
 C722 C 0.44242 0.59719 0.50117
 H723 H 0.36130 0.61906 0.43493
 H724 H 0.29655 0.63597 0.37960
 H725 H 0.24967 0.71556 0.38567
 H726 H 0.26664 0.77841 0.44773
 H727 H 0.36067 0.83044 0.59337
 H728 H 0.42257 0.81140 0.65112
 H729 H 0.47024 0.73229 0.64391
 H730 H 0.45643 0.67200 0.57882
 C731 C 0.39464 0.31811 0.48250
 C732 C 0.36660 0.31332 0.44075
 C733 C 0.34059 0.26945 0.43242
 C734 C 0.34341 0.23050 0.46559
 C735 C 0.37256 0.23485 0.50664
 C736 C 0.39830 0.27888 0.51510
 C737 C 0.42816 0.28212 0.55567
 C738 C 0.43273 0.24270 0.58682
 C739 C 0.40713 0.19979 0.57890
 C740 C 0.37722 0.19574 0.53940
 C741 C 0.31262 0.26548 0.39051
 C742 C 0.31085 0.30364 0.35754
 C743 C 0.33682 0.34633 0.36540
 C744 C 0.36445 0.35129 0.40645
 C745 C 0.31744 0.18542 0.45682
 C746 C 0.29632 0.14770 0.44942
 C747 C 0.42078 0.36292 0.49093
 C748 C 0.44288 0.40022 0.49605
 H749 H 0.44899 0.31466 0.56315
 H750 H 0.45633 0.24545 0.61724
 H751 H 0.41063 0.16935 0.60334
 H752 H 0.35823 0.16151 0.53460
 H753 H 0.29203 0.23285 0.38267
 H754 H 0.28935 0.29996 0.32564
 H755 H 0.33554 0.37579 0.33963
 H756 H 0.38425 0.38507 0.41081
   
