data_POSCAR
  _audit_creation_date              2014-09-24
  _audit_creation_method            'ToBaCCo'
  _symmetry_space_group_name_H-M    'P1'
  _symmetry_Int_Tables_number       1
  _symmetry_cell_setting            triclinic
  loop_
  _symmetry_equiv_pos_as_xyz
 x,y,z
_cell_length_a 37.6855
_cell_length_b 21.2830
_cell_length_c 15.3225
_cell_angle_alpha 89.903600
_cell_angle_beta 89.948300
_cell_angle_gamma 90.066000
loop_
  _atom_site_label
  _atom_site_type_symbol
  _atom_site_fract_x
  _atom_site_fract_y
  _atom_site_fract_z
O1 O 0.70451 0.22853 0.41583
 O2 O 0.76598 0.17294 0.58587
 O3 O 0.70427 0.22909 0.58568
 O4 O 0.76623 0.17262 0.41703
 O5 O 0.79306 0.26511 0.41656
 O6 O 0.73113 0.32151 0.58516
 O7 O 0.79283 0.26541 0.58535
 O8 O 0.73136 0.32098 0.41536
 Cu9 Cu 0.73246 0.19153 0.50118
 Cu10 Cu 0.76472 0.30265 0.50059
 C11 C 0.70743 0.28427 0.38725
 C12 C 0.79013 0.20947 0.61329
 C13 C 0.70709 0.28500 0.61348
 C14 C 0.79042 0.20906 0.38927
 O15 O 0.20518 0.72793 0.41642
 O16 O 0.26711 0.67125 0.58505
 O17 O 0.20541 0.72752 0.58625
 O18 O 0.26665 0.67129 0.41613
 O19 O 0.29371 0.76356 0.41579
 O20 O 0.23245 0.81979 0.58587
 O21 O 0.29412 0.76355 0.58467
 O22 O 0.23226 0.82017 0.41610
 Cu23 Cu 0.23329 0.69025 0.50106
 Cu24 Cu 0.26579 0.80114 0.50063
 C25 C 0.20816 0.78375 0.38812
 C26 C 0.29141 0.70753 0.61233
 C27 C 0.20841 0.78332 0.61429
 C28 C 0.29080 0.70766 0.38810
 O29 O 0.26663 0.32863 -0.58991
 O30 O 0.20484 0.27228 -0.42039
 O31 O 0.26649 0.32850 -0.42107
 O32 O 0.20482 0.27237 -0.59027
 O33 O 0.23164 0.18003 -0.59015
 O34 O 0.29330 0.23610 -0.42101
 O35 O 0.23167 0.17993 -0.42033
 O36 O 0.29343 0.23625 -0.58980
 Cu37 Cu 0.23291 0.30970 -0.50550
 Cu38 Cu 0.26513 0.19869 -0.50540
 C39 C 0.29083 0.29229 -0.61740
 C40 C 0.20773 0.21648 -0.39201
 C41 C 0.29060 0.29203 -0.39336
 C42 C 0.20764 0.21654 -0.61829
 O43 O -0.23384 0.82771 -0.58335
 O44 O -0.29571 0.77148 -0.41415
 O45 O -0.23397 0.82772 -0.41451
 O46 O -0.29550 0.77128 -0.58403
 O47 O -0.26861 0.67898 -0.58357
 O48 O -0.20712 0.73537 -0.41411
 O49 O -0.26884 0.67917 -0.41375
 O50 O -0.20697 0.73537 -0.58290
 Cu51 Cu -0.26755 0.80879 -0.49904
 Cu52 Cu -0.23526 0.69783 -0.49853
 C53 C -0.20964 0.79134 -0.61071
 C54 C -0.29286 0.71569 -0.38577
 C55 C -0.20983 0.79137 -0.38669
 C56 C -0.29257 0.71546 -0.61206
 O57 O -0.04900 0.89273 0.16154
 O58 O -0.08812 0.94890 0.07702
 C59 C -0.08080 0.90929 0.13868
 O60 O 0.05064 1.11473 0.15311
 O61 O 0.08972 1.05512 0.07332
 C62 C 0.08242 1.09779 0.13079
 O63 O -0.04899 1.10867 0.16095
 O64 O -0.08813 1.05232 0.07678
 C65 C -0.08079 1.09196 0.13825
 O66 O 0.05051 0.88663 0.15332
 O67 O 0.08969 0.94682 0.07399
 C68 C 0.08232 0.90391 0.13140
 Zr69 Zr 0.00082 0.92103 0.11022
 O70 O 0.00417 0.91610 0.24791
 O71 O -0.00086 0.82212 0.09926
 Zr72 Zr 0.00084 1.08047 0.10999
 O73 O 0.00469 1.08323 0.24772
 O74 O -0.00314 1.17967 0.10535
 O75 O -0.03056 1.00070 0.12767
 O76 O 0.03147 1.00078 0.12608
 O77 O 0.05035 0.88621 -0.15208
 O78 O 0.08961 0.94671 -0.07387
 C79 C 0.08219 0.90357 -0.13063
 O80 O -0.04921 1.10860 -0.16033
 O81 O -0.08823 1.05238 -0.07522
 C82 C -0.08098 1.09200 -0.13697
 O83 O 0.05037 1.11451 -0.15421
 O84 O 0.08959 1.05506 -0.07447
 C85 C 0.08219 1.09758 -0.13229
 O86 O -0.04926 0.89225 -0.15933
 O87 O -0.08825 0.94888 -0.07513
 C88 C -0.08102 0.90905 -0.13644
 Zr89 Zr 0.00064 0.92100 -0.10938
 O90 O 0.00435 0.91894 -0.24720
 O91 O -0.00284 0.82175 -0.10547
 Zr92 Zr 0.00068 1.08038 -0.10994
 O93 O 0.00427 1.08310 -0.24774
 O94 O -0.00325 1.17958 -0.10572
 Zr95 Zr -0.05196 1.00067 0.00060
 Zr96 Zr 0.05369 1.00085 -0.00005
 O97 O 0.03131 1.00069 -0.12596
 O98 O -0.03079 1.00063 -0.12681
 O99 O 0.03263 0.90907 0.00035
 O100 O -0.03023 1.09176 0.00020
 O101 O -0.03037 0.90961 0.00075
 O102 O 0.03266 1.09267 -0.00022
 H103 H 0.04717 1.00073 0.17791
 H104 H -0.04658 1.12819 0.00023
 H105 H 0.04700 1.00055 -0.17786
 H106 H -0.04671 0.87309 0.00097
 H107 H 0.01821 1.19580 0.07504
 H108 H 0.01821 1.19571 -0.07607
 H109 H -0.01363 1.05348 -0.27080
 H110 H -0.01424 0.94712 -0.27040
 H111 H 0.01595 0.80661 -0.06558
 H112 H -0.00110 0.80571 0.15980
 H113 H -0.01226 0.94802 0.27152
 H114 H -0.01340 1.05410 0.27128
 O115 O 0.45040 0.39224 0.15863
 O116 O 0.41136 0.44769 0.07297
 C117 C 0.41861 0.40846 0.13517
 O118 O 0.54999 0.61285 0.15198
 O119 O 0.58924 0.55367 0.07205
 C120 C 0.58182 0.59602 0.12992
 O121 O 0.45040 0.60726 0.15790
 O122 O 0.41140 0.55097 0.07332
 C123 C 0.41865 0.59052 0.13493
 O124 O 0.54987 0.38560 0.15096
 O125 O 0.58919 0.44543 0.07152
 C126 C 0.58171 0.40269 0.12907
 Zr127 Zr 0.50024 0.41922 0.10619
 O128 O 0.50130 0.40878 0.24338
 O129 O 0.49883 0.32066 0.09035
 Zr130 Zr 0.50031 0.57878 0.10785
 O131 O 0.50350 0.58003 0.24578
 O132 O 0.49651 0.67803 0.10482
 O133 O 0.46894 0.49891 0.12438
 O134 O 0.53088 0.49898 0.12344
 O135 O 0.55027 0.38619 -0.15611
 O136 O 0.58939 0.44605 -0.07659
 C137 C 0.58206 0.40337 -0.13411
 O138 O 0.45067 0.60817 -0.16292
 O139 O 0.41151 0.55154 -0.07874
 C140 C 0.41885 0.59139 -0.14016
 O141 O 0.55029 0.61428 -0.15532
 O142 O 0.58935 0.55442 -0.07574
 C143 C 0.58206 0.59726 -0.13314
 O144 O 0.45067 0.39213 -0.16399
 O145 O 0.41153 0.44821 -0.07947
 C146 C 0.41888 0.40876 -0.14117
 Zr147 Zr 0.50047 0.42045 -0.11310
 O148 O 0.50436 0.41871 -0.25088
 O149 O 0.49690 0.32118 -0.10973
 Zr150 Zr 0.50050 0.57987 -0.11210
 O151 O 0.50439 0.58338 -0.24981
 O152 O 0.49649 0.67904 -0.10694
 Zr153 Zr 0.44769 0.49960 -0.00289
 Zr154 Zr 0.55334 0.49978 -0.00240
 O155 O 0.53115 0.50027 -0.12854
 O156 O 0.46908 0.50020 -0.13007
 O157 O 0.53233 0.40790 -0.00326
 O158 O 0.46942 0.59067 -0.00218
 O159 O 0.46916 0.40846 -0.00348
 O160 O 0.53229 0.59158 -0.00190
 H161 H 0.54657 0.49888 0.17526
 H162 H 0.45309 0.62713 -0.00210
 H163 H 0.54692 0.50047 -0.18031
 H164 H 0.45270 0.37211 -0.00356
 H165 H 0.51769 0.69424 0.07392
 H166 H 0.51791 0.69506 -0.07702
 H167 H 0.48658 0.55384 -0.27343
 H168 H 0.48610 0.44758 -0.27404
 H169 H 0.51657 0.30567 -0.07277
 H170 H 0.49792 0.30279 0.15004
 H171 H 0.50425 0.45129 0.26802
 H172 H 0.48458 0.55210 0.26838
 C173 C 0.31535 0.31460 0.32546
 C174 C 0.33801 0.33515 0.27767
 C175 C 0.36544 0.35998 0.22513
 C176 C 0.38947 0.38179 0.18281
 C177 C -0.18382 0.81483 0.32871
 C178 C -0.16119 0.83543 0.28097
 C179 C -0.13383 0.86041 0.22847
 C180 C -0.10986 0.88239 0.18620
 C181 C 0.68240 0.69237 0.32512
 C182 C 0.66059 0.67194 0.27508
 C183 C 0.63411 0.64681 0.22007
 C184 C 0.61068 0.62425 0.17666
 C185 C 0.18373 1.19467 0.32292
 C186 C 0.16172 1.17424 0.27344
 C187 C 0.13500 1.14901 0.21929
 C188 C 0.11140 1.12630 0.17667
 C189 C 0.68318 0.30691 -0.32765
 C190 C 0.66121 0.32734 -0.27797
 C191 C 0.63457 0.35249 -0.22343
 C192 C 0.61102 0.37508 -0.18042
 C193 C 0.18328 0.80645 -0.32320
 C194 C 0.16132 0.82694 -0.27365
 C195 C 0.13464 0.85221 -0.21939
 C196 C 0.11109 0.87496 -0.17666
 C197 C 0.31588 0.68522 -0.33057
 C198 C 0.33848 0.66473 -0.28273
 C199 C 0.36583 0.63997 -0.23007
 C200 C 0.38979 0.61817 -0.18770
 C201 C -0.18411 1.18614 -0.32604
 C202 C -0.16150 1.16565 -0.27836
 C203 C -0.13411 1.14077 -0.22606
 C204 C -0.11011 1.11885 -0.18406
 C205 C 0.68325 0.69388 -0.32667
 C206 C 0.66128 0.67354 -0.27683
 C207 C 0.63461 0.64842 -0.22223
 C208 C 0.61103 0.62577 -0.17927
 C209 C 0.18271 1.19353 -0.32887
 C210 C 0.16092 1.17324 -0.27849
 C211 C 0.13447 1.14825 -0.22304
 C212 C 0.11106 1.12578 -0.17929
 C213 C 0.31625 0.31536 -0.33246
 C214 C 0.33873 0.33575 -0.28436
 C215 C 0.36596 0.36044 -0.23142
 C216 C 0.38985 0.38216 -0.18886
 C217 C -0.18409 0.81490 -0.32604
 C218 C -0.16151 0.83545 -0.27827
 C219 C -0.13415 0.86032 -0.22577
 C220 C -0.11016 0.88221 -0.18362
 C221 C 0.31628 0.68426 0.32677
 C222 C 0.33863 0.66376 0.27833
 C223 C 0.36573 0.63895 0.22510
 C224 C 0.38958 0.61714 0.18245
 C225 C -0.18377 1.18560 0.32873
 C226 C -0.16116 1.16514 0.28094
 C227 C -0.13381 1.14040 0.22827
 C228 C -0.10986 1.11864 0.18587
 C229 C 0.68239 0.30702 0.32428
 C230 C 0.66054 0.32717 0.27418
 C231 C 0.63401 0.35205 0.21917
 C232 C 0.61055 0.37448 0.17579
 C233 C 0.18305 0.80694 0.32556
 C234 C 0.16119 0.82749 0.27572
 C235 C 0.13468 0.85280 0.22094
 C236 C 0.11123 0.87551 0.17777
   
