data_POSCAR
  _audit_creation_date              2014-09-24
  _audit_creation_method            'ToBaCCo'
  _symmetry_space_group_name_H-M    'P1'
  _symmetry_Int_Tables_number       1
  _symmetry_cell_setting            triclinic
  loop_
  _symmetry_equiv_pos_as_xyz
 x,y,z
_cell_length_a 48.3185
_cell_length_b 29.7082
_cell_length_c 15.8489
_cell_angle_alpha 89.957600
_cell_angle_beta 89.967900
_cell_angle_gamma 90.051800
loop_
  _atom_site_label
  _atom_site_type_symbol
  _atom_site_fract_x
  _atom_site_fract_y
  _atom_site_fract_z
C1 C 0.72612 0.27123 0.54576
 C2 C 0.72649 0.26789 0.45618
 C3 C 0.74888 0.24682 0.41603
 C4 C 0.77079 0.22730 0.46193
 C5 C 0.76875 0.22606 0.55213
 C6 C 0.74700 0.24932 0.59190
 H7 H 0.74614 0.24992 0.66020
 H8 H 0.74944 0.24724 0.34776
 C9 C 0.22998 0.77738 0.54437
 C10 C 0.22649 0.76737 0.45746
 C11 C 0.24686 0.74204 0.41593
 C12 C 0.27023 0.72601 0.45871
 C13 C 0.27327 0.73425 0.54672
 C14 C 0.25318 0.76079 0.58747
 H15 H 0.25484 0.76731 0.65457
 H16 H 0.24481 0.73531 0.34899
 C17 C 0.26558 0.28066 -0.54635
 C18 C 0.26559 0.28031 -0.45760
 C19 C 0.24384 0.25944 -0.41426
 C20 C 0.22138 0.23927 -0.45734
 C21 C 0.22215 0.23801 -0.54808
 C22 C 0.24413 0.25971 -0.59025
 H23 H 0.24552 0.25849 -0.65852
 H24 H 0.24380 0.26168 -0.34602
 C25 C -0.22780 0.76307 -0.54720
 C26 C -0.22804 0.76369 -0.45841
 C27 C -0.24965 0.74281 -0.41457
 C28 C -0.27166 0.72127 -0.45719
 C29 C -0.27031 0.71808 -0.54764
 C30 C -0.24867 0.74024 -0.59062
 H31 H -0.24718 0.73818 -0.65878
 H32 H -0.24998 0.74626 -0.34653
 N33 N 0.02510 1.08214 -0.08921
 N34 N 0.04547 1.11136 -0.09836
 N35 N -0.03264 1.04790 -0.14821
 N36 N -0.05477 1.05067 -0.19645
 N37 N -0.03334 1.07845 -0.08851
 N38 N -0.05608 1.10295 -0.09468
 N39 N 0.02539 1.05238 -0.15037
 N40 N 0.04568 1.06101 -0.20388
 C41 C 0.05802 1.09777 -0.17021
 C42 C -0.06919 1.08524 -0.16264
 N43 N -0.02947 0.91923 -0.09631
 N44 N -0.05004 0.89056 -0.10779
 N45 N 0.02789 0.95544 -0.15430
 N46 N 0.04941 0.95294 -0.20536
 N47 N 0.02870 0.92316 -0.09773
 N48 N 0.05081 0.89777 -0.10890
 N49 N -0.03040 0.95161 -0.15265
 N50 N -0.05183 0.94627 -0.20317
 Mn51 Mn -0.00241 1.00181 -0.15237
 C52 C -0.06382 0.90799 -0.17468
 C53 C 0.06352 0.91671 -0.17643
 N54 N -0.03276 1.07597 0.09250
 N55 N -0.05388 1.10317 0.10589
 N56 N 0.02665 1.04745 0.14867
 N57 N 0.04841 1.05271 0.19805
 N58 N 0.02556 1.07958 0.09184
 N59 N 0.04658 1.10752 0.10096
 N60 N -0.03148 1.04482 0.15114
 N61 N -0.05145 1.05048 0.20711
 Mn62 Mn -0.00389 1.07960 0.00169
 C63 C -0.06534 1.08674 0.17739
 C64 C 0.06062 1.09044 0.16763
 N65 N 0.02924 0.92061 0.08361
 N66 N 0.05037 0.89300 0.09352
 N67 N -0.02968 0.94794 0.14532
 N68 N -0.05107 0.94195 0.19568
 N69 N -0.02905 0.91689 0.08632
 N70 N -0.04993 0.88853 0.09580
 N71 N 0.02839 0.95031 0.14488
 N72 N 0.04865 0.94317 0.19917
 Mn73 Mn -0.00015 0.91936 -0.00605
 Mn74 Mn -0.00151 0.99760 0.14852
 Cl75 Cl -0.00198 0.99957 -0.00201
 C76 C 0.06224 0.90756 0.16575
 C77 C -0.06344 0.90469 0.16440
 N78 N 0.52695 0.41524 0.08331
 N79 N 0.54775 0.38666 0.09034
 N80 N 0.46905 0.44722 0.14609
 N81 N 0.44741 0.44278 0.19592
 N82 N 0.46863 0.41692 0.08584
 N83 N 0.44671 0.39057 0.09379
 N84 N 0.52716 0.44428 0.14574
 N85 N 0.54793 0.43600 0.19753
 C86 C 0.56054 0.40009 0.16191
 C87 C 0.43373 0.40725 0.16290
 N88 N 0.47141 0.57717 0.10212
 N89 N 0.45081 0.60545 0.11544
 N90 N 0.52892 0.54093 0.15527
 N91 N 0.55097 0.54237 0.20432
 N92 N 0.52954 0.57382 0.09997
 N93 N 0.55200 0.59855 0.10992
 N94 N 0.47044 0.54361 0.15595
 N95 N 0.44884 0.54767 0.20645
 Mn96 Mn 0.49887 0.49400 0.15179
 C97 C 0.43692 0.58654 0.18064
 C98 C 0.56514 0.57861 0.17552
 N99 N 0.46815 0.42225 -0.09605
 N100 N 0.44687 0.39525 -0.10925
 N101 N 0.52639 0.45371 -0.15327
 N102 N 0.54776 0.45023 -0.20464
 N103 N 0.52636 0.42071 -0.09812
 N104 N 0.54772 0.39385 -0.11059
 N105 N 0.46805 0.45571 -0.15021
 N106 N 0.44651 0.45267 -0.20113
 Mn107 Mn 0.49754 0.41817 -0.00633
 C108 C 0.43353 0.41471 -0.17495
 C109 C 0.56085 0.41264 -0.17752
 N110 N 0.52904 0.57920 -0.08103
 N111 N 0.55044 0.60645 -0.08988
 N112 N 0.46980 0.55231 -0.14025
 N113 N 0.44859 0.55971 -0.19049
 N114 N 0.47069 0.58234 -0.07958
 N115 N 0.45002 0.61120 -0.08722
 N116 N 0.52778 0.55052 -0.14391
 N117 N 0.54800 0.55802 -0.19822
 Mn118 Mn 0.50020 0.57871 0.01045
 Mn119 Mn 0.49797 0.50305 -0.14790
 Cl120 Cl 0.49864 0.49847 0.00199
 C121 C 0.56199 0.59282 -0.16328
 C122 C 0.43642 0.59653 -0.15684
 C123 C 0.33366 0.33895 0.31772
 C124 C 0.33061 0.29161 0.32204
 C125 C 0.30832 0.27279 0.36674
 C126 C 0.28859 0.30060 0.40498
 C127 C 0.29042 0.34727 0.39508
 C128 C 0.31284 0.36640 0.35278
 C129 C 0.35880 0.35775 0.27524
 C130 C 0.36567 0.40379 0.27831
 C131 C 0.38989 0.41954 0.24080
 C132 C 0.40758 0.39006 0.19794
 C133 C 0.40090 0.34423 0.19343
 C134 C 0.37706 0.32769 0.23391
 C135 C 0.34965 0.26354 0.28121
 C136 C 0.37203 0.28125 0.23641
 H137 H 0.34710 0.22731 0.28336
 H138 H 0.38609 0.25814 0.20544
 H139 H 0.30629 0.23654 0.37211
 H140 H 0.27451 0.36898 0.42059
 H141 H 0.39486 0.45502 0.24549
 H142 H 0.41491 0.32122 0.16194
 H143 H 0.31332 0.40259 0.34744
 H144 H 0.35306 0.42798 0.31140
 C145 C -0.16132 0.82754 0.31886
 C146 C -0.16350 0.78001 0.31940
 C147 C -0.18536 0.75907 0.36294
 C148 C -0.20546 0.78500 0.40403
 C149 C -0.20444 0.83193 0.39793
 C150 C -0.18252 0.85310 0.35663
 C151 C -0.13664 0.84856 0.27731
 C152 C -0.13073 0.89488 0.28334
 C153 C -0.10703 0.91276 0.24598
 C154 C -0.08887 0.88518 0.20053
 C155 C -0.09456 0.83906 0.19342
 C156 C -0.11790 0.82039 0.23342
 C157 C -0.14400 0.75386 0.27614
 C158 C -0.12203 0.77369 0.23250
 H159 H -0.14586 0.71751 0.27545
 H160 H -0.10760 0.75201 0.19954
 H161 H -0.18669 0.72265 0.36553
 H162 H -0.22061 0.85229 0.42572
 H163 H -0.10289 0.94843 0.25264
 H164 H -0.08023 0.81748 0.15980
 H165 H -0.18270 0.88938 0.35436
 H166 H -0.14374 0.91768 0.31836
 C167 C 0.66702 0.64610 0.32235
 C168 C 0.67752 0.68687 0.28893
 C169 C 0.69956 0.70899 0.32904
 C170 C 0.71097 0.69183 0.40417
 C171 C 0.70216 0.64923 0.43230
 C172 C 0.68043 0.62677 0.39242
 C173 C 0.64155 0.62620 0.28318
 C174 C 0.62819 0.58773 0.31580
 C175 C 0.60361 0.57205 0.27999
 C176 C 0.59174 0.59423 0.21086
 C177 C 0.60514 0.63196 0.17674
 C178 C 0.62972 0.64828 0.21268
 C179 C 0.66527 0.70633 0.21763
 C180 C 0.64201 0.68726 0.17996
 H181 H 0.67349 0.73729 0.19143
 H182 H 0.63306 0.70402 0.12569
 H183 H 0.70616 0.74155 0.30547
 H184 H 0.71157 0.63381 0.48720
 H185 H 0.59368 0.54277 0.30732
 H186 H 0.59612 0.64930 0.12318
 H187 H 0.67412 0.59488 0.41864
 H188 H 0.63603 0.56972 0.36980
 C189 C 0.15900 1.17208 0.31172
 C190 C 0.17047 1.15118 0.38390
 C191 C 0.19264 1.17148 0.42672
 C192 C 0.20271 1.21401 0.40198
 C193 C 0.19227 1.23317 0.32727
 C194 C 0.17080 1.21263 0.28289
 C195 C 0.13426 1.15082 0.27079
 C196 C 0.12101 1.16950 0.19971
 C197 C 0.09731 1.14954 0.16615
 C198 C 0.08620 1.11045 0.20228
 C199 C 0.09951 1.09097 0.27197
 C200 C 0.12335 1.11085 0.30648
 C201 C 0.15915 1.11097 0.41470
 C202 C 0.13605 1.09131 0.37698
 H203 H 0.16792 1.09494 0.47000
 H204 H 0.12779 1.06061 0.40411
 H205 H 0.20141 1.15486 0.48146
 H206 H 0.19942 1.26575 0.30560
 H207 H 0.08753 1.16504 0.11196
 H208 H 0.09114 1.06058 0.30008
 H209 H 0.16322 1.22992 0.22777
 H210 H 0.12839 1.19968 0.16935
 C211 C 0.66019 0.33989 -0.33168
 C212 C 0.67047 0.29898 -0.29843
 C213 C 0.69300 0.27740 -0.33706
 C214 C 0.70534 0.29540 -0.41023
 C215 C 0.69606 0.33745 -0.43960
 C216 C 0.67380 0.35927 -0.40140
 C217 C 0.63502 0.36035 -0.29184
 C218 C 0.62243 0.39986 -0.32266
 C219 C 0.59851 0.41679 -0.28498
 C220 C 0.58649 0.39487 -0.21572
 C221 C 0.59896 0.35579 -0.18388
 C222 C 0.62296 0.33830 -0.22157
 C223 C 0.65780 0.27921 -0.22803
 C224 C 0.63464 0.29856 -0.19019
 H225 H 0.66575 0.24800 -0.20220
 H226 H 0.62548 0.28173 -0.13626
 H227 H 0.69966 0.24499 -0.31306
 H228 H 0.70606 0.35369 -0.49268
 H229 H 0.58929 0.44706 -0.31066
 H230 H 0.58980 0.33863 -0.13029
 H231 H 0.66753 0.39106 -0.42797
 H232 H 0.63048 0.41798 -0.37627
 C233 C 0.16412 0.84694 -0.32819
 C234 C 0.17336 0.80447 -0.29902
 C235 C 0.19577 0.78313 -0.33847
 C236 C 0.20920 0.80337 -0.40707
 C237 C 0.20129 0.84668 -0.43245
 C238 C 0.17893 0.86821 -0.39385
 C239 C 0.13869 0.86683 -0.28871
 C240 C 0.12652 0.90718 -0.31723
 C241 C 0.10225 0.92340 -0.28028
 C242 C 0.08956 0.90000 -0.21386
 C243 C 0.10163 0.86010 -0.18434
 C244 C 0.12582 0.84315 -0.22170
 C245 C 0.15983 0.78302 -0.23199
 C246 C 0.13673 0.80216 -0.19361
 H247 H 0.16708 0.75070 -0.20923
 H248 H 0.12690 0.78407 -0.14227
 H249 H 0.20204 0.74976 -0.31831
 H250 H 0.21180 0.86308 -0.48447
 H251 H 0.09332 0.95431 -0.30418
 H252 H 0.09189 0.84167 -0.13324
 H253 H 0.17334 0.90106 -0.41722
 H254 H 0.13514 0.92637 -0.36871
 C255 C 0.34045 0.67897 -0.31326
 C256 C 0.32690 0.65334 -0.37605
 C257 C 0.30430 0.67135 -0.41968
 C258 C 0.29531 0.71570 -0.40542
 C259 C 0.30836 0.74062 -0.34119
 C260 C 0.33063 0.72267 -0.29603
 C261 C 0.36478 0.65842 -0.26879
 C262 C 0.37955 0.68053 -0.20410
 C263 C 0.40256 0.66019 -0.16650
 C264 C 0.41143 0.61758 -0.19286
 C265 C 0.39656 0.59497 -0.25580
 C266 C 0.37338 0.61481 -0.29345
 C267 C 0.33605 0.60992 -0.39580
 C268 C 0.35891 0.59119 -0.35581
 H269 H 0.32563 0.59035 -0.44398
 H270 H 0.36542 0.55769 -0.37419
 H271 H 0.29317 0.65000 -0.46328
 H272 H 0.30219 0.77493 -0.32796
 H273 H 0.41368 0.67815 -0.11767
 H274 H 0.40308 0.56173 -0.27584
 H275 H 0.34013 0.74384 -0.24899
 H276 H 0.37377 0.71351 -0.18191
 C277 C -0.17045 1.15389 -0.31039
 C278 C -0.18020 1.19577 -0.28011
 C279 C -0.20168 1.21821 -0.32252
 C280 C -0.21309 1.20022 -0.39699
 C281 C -0.20495 1.15680 -0.42206
 C282 C -0.18395 1.13399 -0.37970
 C283 C -0.14546 1.13352 -0.26944
 C284 C -0.13287 1.09388 -0.29941
 C285 C -0.10844 1.07807 -0.26338
 C286 C -0.09594 1.10112 -0.19634
 C287 C -0.10872 1.13979 -0.16398
 C288 C -0.13317 1.15640 -0.20058
 C289 C -0.16770 1.21591 -0.20986
 C290 C -0.14479 1.19650 -0.17063
 H291 H -0.17535 1.24772 -0.18596
 H292 H -0.13554 1.21388 -0.11755
 H293 H -0.20774 1.25148 -0.30142
 H294 H -0.21441 1.14085 -0.47634
 H295 H -0.09909 1.04791 -0.28909
 H296 H -0.09920 1.15778 -0.11203
 H297 H -0.17823 1.10135 -0.40362
 H298 H -0.14113 1.07505 -0.35179
 C299 C 0.65866 0.67295 -0.31818
 C300 C 0.65519 0.69194 -0.39921
 C301 C 0.67783 0.71117 -0.44122
 C302 C 0.70494 0.70700 -0.40921
 C303 C 0.70817 0.68795 -0.32829
 C304 C 0.68541 0.67154 -0.28323
 C305 C 0.63383 0.65330 -0.27498
 C306 C 0.63411 0.63921 -0.19000
 C307 C 0.61050 0.62025 -0.15335
 C308 C 0.58650 0.61383 -0.20125
 C309 C 0.58575 0.62845 -0.28515
 C310 C 0.60891 0.64949 -0.32140
 C311 C 0.62946 0.68973 -0.43973
 C312 C 0.60706 0.66765 -0.40276
 H313 H 0.62692 0.70367 -0.50249
 H314 H 0.58785 0.66545 -0.43782
 H315 H 0.67426 0.72834 -0.50053
 H316 H 0.72851 0.68342 -0.30095
 H317 H 0.61113 0.60973 -0.08790
 H318 H 0.56684 0.62464 -0.32127
 H319 H 0.68936 0.65608 -0.22280
 H320 H 0.65217 0.64319 -0.15069
 C321 C 0.15291 1.18594 -0.31970
 C322 C 0.14873 1.20802 -0.39762
 C323 C 0.17096 1.22923 -0.43836
 C324 C 0.19832 1.22401 -0.40900
 C325 C 0.20223 1.20223 -0.33085
 C326 C 0.17990 1.18382 -0.28661
 C327 C 0.12857 1.16391 -0.27799
 C328 C 0.12960 1.14624 -0.19546
 C329 C 0.10644 1.12523 -0.16019
 C330 C 0.08212 1.12040 -0.20717
 C331 C 0.08060 1.13846 -0.28856
 C332 C 0.10334 1.16143 -0.32322
 C333 C 0.12275 1.20681 -0.43676
 C334 C 0.10078 1.18278 -0.40163
 H335 H 0.11967 1.22311 -0.49725
 H336 H 0.08136 1.18154 -0.43571
 H337 H 0.16696 1.24836 -0.49528
 H338 H 0.22279 1.19695 -0.30560
 H339 H 0.10762 1.11206 -0.09652
 H340 H 0.06142 1.13579 -0.32375
 H341 H 0.18438 1.16620 -0.22865
 H342 H 0.14791 1.14895 -0.15686
 C343 C 0.33389 0.34234 -0.32811
 C344 C 0.33088 0.29490 -0.32806
 C345 C 0.30831 0.27484 -0.36951
 C346 C 0.28826 0.30152 -0.40903
 C347 C 0.29010 0.34843 -0.40337
 C348 C 0.31277 0.36874 -0.36424
 C349 C 0.35929 0.36230 -0.28861
 C350 C 0.36601 0.40839 -0.29491
 C351 C 0.39020 0.42521 -0.25831
 C352 C 0.40800 0.39673 -0.21343
 C353 C 0.40158 0.35081 -0.20693
 C354 C 0.37780 0.33325 -0.24590
 C355 C 0.35029 0.26791 -0.28635
 C356 C 0.37291 0.28676 -0.24455
 H357 H 0.34783 0.23165 -0.28528
 H358 H 0.38719 0.26444 -0.21248
 H359 H 0.30643 0.23848 -0.37195
 H360 H 0.27408 0.36943 -0.43029
 H361 H 0.39488 0.46073 -0.26455
 H362 H 0.41559 0.32847 -0.17375
 H363 H 0.31329 0.40503 -0.36242
 H364 H 0.35317 0.43179 -0.32916
 C365 C -0.16150 0.82926 -0.32725
 C366 C -0.16270 0.78168 -0.33119
 C367 C -0.18461 0.76044 -0.37371
 C368 C -0.20581 0.78601 -0.41000
 C369 C -0.20579 0.83280 -0.40026
 C370 C -0.18375 0.85436 -0.36023
 C371 C -0.13674 0.85075 -0.28709
 C372 C -0.13171 0.89745 -0.29058
 C373 C -0.10798 0.91578 -0.25402
 C374 C -0.08899 0.88821 -0.21182
 C375 C -0.09374 0.84171 -0.20777
 C376 C -0.11703 0.82268 -0.24711
 C377 C -0.14217 0.75572 -0.29216
 C378 C -0.12018 0.77581 -0.24927
 H379 H -0.14327 0.71930 -0.29404
 H380 H -0.10498 0.75425 -0.21937
 H381 H -0.18516 0.72406 -0.37914
 H382 H -0.22272 0.85274 -0.42474
 H383 H -0.10455 0.95176 -0.25833
 H384 H -0.07875 0.82018 -0.17678
 H385 H -0.18463 0.89054 -0.35512
 H386 H -0.14550 0.92022 -0.32286
 C387 C 0.33807 0.66458 0.32647
 C388 C 0.34018 0.70942 0.35589
 C389 C 0.31781 0.72936 0.39811
 C390 C 0.29280 0.70604 0.40773
 C391 C 0.28981 0.66331 0.37160
 C392 C 0.31233 0.64238 0.33251
 C393 C 0.36325 0.64312 0.28880
 C394 C 0.36493 0.59666 0.27135
 C395 C 0.38911 0.57820 0.23747
 C396 C 0.41175 0.60579 0.21816
 C397 C 0.41044 0.65190 0.23585
 C398 C 0.38679 0.67042 0.27379
 C399 C 0.36445 0.73417 0.34218
 C400 C 0.38694 0.71550 0.29957
 H401 H 0.36591 0.76875 0.36343
 H402 H 0.40508 0.73627 0.28915
 H403 H 0.31977 0.76303 0.42388
 H404 H 0.27038 0.64532 0.37727
 H405 H 0.38998 0.54239 0.22491
 H406 H 0.42828 0.67301 0.22296
 H407 H 0.30924 0.60903 0.30722
 H408 H 0.34804 0.57404 0.28516
 C409 C -0.15758 1.17510 0.33961
 C410 C -0.18348 1.17346 0.29845
 C411 C -0.20712 1.19121 0.33815
 C412 C -0.20519 1.21242 0.41766
 C413 C -0.17855 1.21896 0.45193
 C414 C -0.15524 1.19978 0.41477
 C415 C -0.13352 1.15158 0.30002
 C416 C -0.10851 1.14382 0.34342
 C417 C -0.08664 1.12153 0.30390
 C418 C -0.08903 1.10760 0.21997
 C419 C -0.11394 1.11425 0.17657
 C420 C -0.13654 1.13463 0.21714
 C421 C -0.18552 1.15435 0.21781
 C422 C -0.16232 1.13679 0.17680
 H423 H -0.20523 1.15375 0.18523
 H424 H -0.16481 1.12327 0.11377
 H425 H -0.22708 1.18639 0.30842
 H426 H -0.17562 1.23874 0.50856
 H427 H -0.06756 1.11606 0.33829
 H428 H -0.11592 1.10234 0.11217
 H429 H -0.13550 1.20512 0.44507
 H430 H -0.10572 1.15397 0.40826
 C431 C 0.65750 0.31891 0.31201
 C432 C 0.65306 0.28979 0.38146
 C433 C 0.67565 0.27082 0.42401
 C434 C 0.70285 0.28314 0.40299
 C435 C 0.70729 0.31183 0.33403
 C436 C 0.68495 0.32929 0.28862
 C437 C 0.63274 0.33895 0.26905
 C438 C 0.63468 0.36552 0.19543
 C439 C 0.61101 0.38470 0.15972
 C440 C 0.58511 0.37825 0.19718
 C441 C 0.58273 0.35117 0.26897
 C442 C 0.60623 0.33078 0.30421
 C443 C 0.62618 0.28133 0.41052
 C444 C 0.60332 0.30212 0.37381
 H445 H 0.62282 0.25937 0.46421
 H446 H 0.58300 0.29542 0.40005
 H447 H 0.67210 0.24818 0.47662
 H448 H 0.72809 0.32190 0.31689
 H449 H 0.61297 0.40525 0.10353
 H450 H 0.56249 0.34572 0.29685
 H451 H 0.68958 0.35203 0.23744
 H452 H 0.65418 0.37170 0.16438
 C453 C 0.15731 0.82270 0.31982
 C454 C 0.15305 0.80092 0.39816
 C455 C 0.17521 0.77960 0.43898
 C456 C 0.20232 0.78391 0.40795
 C457 C 0.20657 0.80629 0.33104
 C458 C 0.18436 0.82497 0.28689
 C459 C 0.13301 0.84424 0.27738
 C460 C 0.13409 0.86097 0.19416
 C461 C 0.11089 0.88120 0.15781
 C462 C 0.08649 0.88625 0.20433
 C463 C 0.08495 0.86922 0.28655
 C464 C 0.10773 0.84693 0.32233
 C465 C 0.12707 0.80253 0.43732
 C466 C 0.10513 0.82627 0.40143
 H467 H 0.12393 0.78659 0.49813
 H468 H 0.08567 0.82769 0.43535
 H469 H 0.17154 0.76150 0.49730
 H470 H 0.22728 0.81038 0.30600
 H471 H 0.11210 0.89351 0.09353
 H472 H 0.06570 0.87196 0.32139
 H473 H 0.18893 0.84258 0.22897
 H474 H 0.15245 0.85795 0.15579
   
