data_POSCAR
  _audit_creation_date              2014-09-24
  _audit_creation_method            'ToBaCCo'
  _symmetry_space_group_name_H-M    'P1'
  _symmetry_Int_Tables_number       1
  _symmetry_cell_setting            triclinic
  loop_
  _symmetry_equiv_pos_as_xyz
 x,y,z
_cell_length_a 56.2295
_cell_length_b 55.1248
_cell_length_c 54.8671
_cell_angle_alpha 90.014200
_cell_angle_beta 90.248800
_cell_angle_gamma 90.297700
loop_
  _atom_site_label
  _atom_site_type_symbol
  _atom_site_fract_x
  _atom_site_fract_y
  _atom_site_fract_z
N1 N 0.59615 0.66425 0.61384
 N2 N 0.58666 0.65429 0.63328
 C3 C 0.56734 0.66709 0.63975
 C4 C 0.56453 0.68610 0.62345
 C5 C 0.58320 0.68365 0.60725
 H6 H 0.55606 0.66278 0.65506
 H7 H 0.58730 0.69525 0.59195
 Cu8 Cu 0.60060 0.62563 0.64821
 Cu9 Cu 0.62468 0.65154 0.59857
 Cu10 Cu 0.65001 0.60068 0.62501
 N11 N 0.61492 0.59697 0.66277
 N12 N 0.63435 0.58747 0.65373
 C13 C 0.64062 0.56813 0.66721
 C14 C 0.62418 0.56515 0.68584
 C15 C 0.60810 0.58393 0.68230
 H16 H 0.65598 0.55708 0.66348
 H17 H 0.59265 0.58800 0.69314
 N18 N 0.66320 0.61666 0.59586
 N19 N 0.65356 0.63602 0.58583
 C20 C 0.66655 0.64261 0.56634
 C21 C 0.68530 0.62660 0.56388
 C22 C 0.68255 0.61038 0.58296
 H23 H 0.66250 0.65781 0.55464
 H24 H 0.69390 0.59521 0.58727
 H25 H 0.62000 0.61605 0.60977
 H26 H 0.63868 0.63599 0.62972
 N27 N 0.90397 0.33391 0.11567
 N28 N 0.91513 0.34573 0.13312
 C29 C 0.93511 0.33369 0.13906
 C30 C 0.93652 0.31297 0.12470
 C31 C 0.91627 0.31380 0.11011
 H32 H 0.94740 0.33940 0.15314
 H33 H 0.91103 0.30110 0.09605
 Cu34 Cu 0.90168 0.37512 0.14686
 Cu35 Cu 0.87488 0.34604 0.10058
 Cu36 Cu 0.85147 0.39909 0.12455
 N37 N 0.88820 0.40437 0.16087
 N38 N 0.86843 0.41356 0.15206
 C39 C 0.86242 0.43311 0.16531
 C40 C 0.87930 0.43642 0.18352
 C41 C 0.89542 0.41780 0.18006
 H42 H 0.84680 0.44396 0.16196
 H43 H 0.91094 0.41394 0.19105
 N44 N 0.83699 0.38167 0.09676
 N45 N 0.84574 0.36139 0.08780
 C46 C 0.83213 0.35419 0.06884
 C47 C 0.81392 0.37074 0.06564
 C48 C 0.81761 0.38789 0.08374
 H49 H 0.83556 0.33835 0.05783
 H50 H 0.80699 0.40379 0.08719
 H51 H 0.88035 0.38221 0.10883
 H52 H 0.86257 0.36406 0.13098
 N53 N 0.40233 0.16580 -0.11590
 N54 N 0.41275 0.15427 -0.13387
 C55 C 0.43258 0.16650 -0.14024
 C56 C 0.43457 0.18687 -0.12559
 C57 C 0.41502 0.18584 -0.11039
 H58 H 0.44451 0.16121 -0.15467
 H59 H 0.41059 0.19849 -0.09607
 Cu60 Cu 0.39898 0.12478 -0.14756
 Cu61 Cu 0.37356 0.15358 -0.10041
 Cu62 Cu 0.34914 0.10062 -0.12399
 N63 N 0.38484 0.09531 -0.16091
 N64 N 0.36529 0.08606 -0.15165
 C65 C 0.35903 0.06617 -0.16440
 C66 C 0.37552 0.06267 -0.18275
 C67 C 0.39168 0.08157 -0.17990
 H68 H 0.34358 0.05512 -0.16054
 H69 H 0.40704 0.08529 -0.19108
 N70 N 0.33541 0.11805 -0.09607
 N71 N 0.34459 0.13829 -0.08720
 C72 C 0.33138 0.14557 -0.06815
 C73 C 0.31297 0.12911 -0.06480
 C74 C 0.31614 0.11192 -0.08291
 H75 H 0.33515 0.16146 -0.05726
 H76 H 0.30522 0.09609 -0.08629
 H77 H 0.37873 0.11750 -0.10905
 H78 H 0.36041 0.13570 -0.13075
 N79 N 0.09528 0.83566 0.38633
 N80 N 0.08456 0.84687 0.36828
 C81 C 0.06447 0.83474 0.36250
 C82 C 0.06255 0.81456 0.37757
 C83 C 0.08258 0.81585 0.39245
 H84 H 0.05255 0.83989 0.34793
 H85 H 0.08751 0.80357 0.40694
 Cu86 Cu 0.09868 0.87545 0.35322
 Cu87 Cu 0.12466 0.84782 0.40089
 Cu88 Cu 0.15017 0.89871 0.37435
 N89 N 0.11316 0.90399 0.33848
 N90 N 0.13343 0.91280 0.34666
 C91 C 0.13975 0.93205 0.33304
 C92 C 0.12252 0.93558 0.31525
 C93 C 0.10591 0.91737 0.31933
 H94 H 0.15568 0.94270 0.33599
 H95 H 0.08991 0.91386 0.30891
 N96 N 0.16429 0.88192 0.40258
 N97 N 0.15431 0.86286 0.41301
 C98 C 0.16754 0.85629 0.43242
 C99 C 0.18686 0.87183 0.43419
 C100 C 0.18426 0.88780 0.41493
 H101 H 0.16350 0.84125 0.44437
 H102 H 0.19575 0.90297 0.41067
 H103 H 0.12055 0.88373 0.39077
 H104 H 0.13743 0.86386 0.36947
 N105 N 0.09667 0.16627 0.11565
 N106 N 0.08563 0.15437 0.13307
 C107 C 0.06566 0.16636 0.13899
 C108 C 0.06426 0.18698 0.12469
 C109 C 0.08427 0.18636 0.11013
 H110 H 0.05324 0.16080 0.15293
 H111 H 0.08918 0.19932 0.09622
 Cu112 Cu 0.09917 0.12496 0.14675
 Cu113 Cu 0.12570 0.15426 0.10061
 Cu114 Cu 0.14922 0.10111 0.12439
 N115 N 0.11273 0.09561 0.16057
 N116 N 0.13242 0.08647 0.15173
 C117 C 0.13848 0.06679 0.16480
 C118 C 0.12171 0.06334 0.18294
 C119 C 0.10560 0.08203 0.17963
 H120 H 0.15405 0.05593 0.16137
 H121 H 0.09014 0.08581 0.19059
 N122 N 0.16358 0.11868 0.09678
 N123 N 0.15480 0.13900 0.08787
 C124 C 0.16833 0.14627 0.06901
 C125 C 0.18654 0.12974 0.06582
 C126 C 0.18292 0.11252 0.08384
 H127 H 0.16486 0.16216 0.05807
 H128 H 0.19355 0.09661 0.08727
 H129 H 0.12021 0.11810 0.10868
 H130 H 0.13815 0.13615 0.13096
 N131 N 0.40547 0.83669 0.61252
 N132 N 0.41450 0.84619 0.63249
 C133 C 0.43373 0.83332 0.63923
 C134 C 0.43697 0.81473 0.62256
 C135 C 0.41864 0.81752 0.60584
 H136 H 0.44459 0.83723 0.65506
 H137 H 0.41484 0.80620 0.59020
 Cu138 Cu 0.40012 0.87435 0.64784
 Cu139 Cu 0.37683 0.84929 0.59711
 Cu140 Cu 0.34948 0.89790 0.62542
 N141 N 0.38467 0.90178 0.66337
 N142 N 0.36479 0.91076 0.65462
 C143 C 0.35806 0.92960 0.66853
 C144 C 0.37462 0.93270 0.68707
 C145 C 0.39125 0.91463 0.68318
 H146 H 0.34248 0.94048 0.66507
 H147 H 0.40696 0.91107 0.69397
 N148 N 0.33683 0.88248 0.59564
 N149 N 0.34765 0.86447 0.58444
 C150 C 0.33513 0.85847 0.56432
 C151 C 0.31539 0.87327 0.56288
 C152 C 0.31702 0.88823 0.58306
 H153 H 0.33976 0.84410 0.55183
 H154 H 0.30485 0.90252 0.58797
 H155 H 0.38007 0.88455 0.60969
 H156 H 0.36245 0.86301 0.62880
 N157 N 0.90294 0.66550 0.38547
 N158 N 0.91420 0.65383 0.36813
 C159 C 0.93413 0.66618 0.36239
 C160 C 0.93527 0.68681 0.37673
 C161 C 0.91515 0.68582 0.39112
 H162 H 0.94671 0.66086 0.34856
 H163 H 0.91004 0.69867 0.40501
 Cu164 Cu 0.90093 0.62421 0.35432
 Cu165 Cu 0.87391 0.65291 0.40029
 Cu166 Cu 0.85086 0.59943 0.37615
 N167 N 0.88763 0.59476 0.34016
 N168 N 0.86791 0.58524 0.34878
 C169 C 0.86201 0.56561 0.33544
 C170 C 0.87891 0.56260 0.31738
 C171 C 0.89493 0.58149 0.32101
 H172 H 0.84645 0.55450 0.33863
 H173 H 0.91042 0.58562 0.31016
 N174 N 0.83627 0.61661 0.40382
 N175 N 0.84487 0.63708 0.41281
 C176 C 0.83120 0.64408 0.43161
 C177 C 0.81311 0.62722 0.43470
 C178 C 0.81693 0.61008 0.41668
 H179 H 0.83451 0.66002 0.44259
 H180 H 0.80640 0.59400 0.41317
 H181 H 0.87961 0.61684 0.39215
 H182 H 0.86174 0.63466 0.36979
 N183 N 0.59653 0.33511 -0.11599
 N184 N 0.58593 0.34667 -0.13392
 C185 C 0.56598 0.33453 -0.14022
 C186 C 0.56406 0.31419 -0.12554
 C187 C 0.58380 0.31514 -0.11041
 H188 H 0.55393 0.33982 -0.15465
 H189 H 0.58839 0.30246 -0.09614
 Cu190 Cu 0.59995 0.37595 -0.14762
 Cu191 Cu 0.62569 0.34710 -0.10071
 Cu192 Cu 0.65046 0.39958 -0.12497
 N193 N 0.61399 0.40515 -0.16147
 N194 N 0.63398 0.41405 -0.15268
 C195 C 0.64035 0.43363 -0.16580
 C196 C 0.62343 0.43728 -0.18383
 C197 C 0.60692 0.41884 -0.18048
 H198 H 0.65611 0.44443 -0.16239
 H199 H 0.59124 0.41534 -0.19141
 N200 N 0.66436 0.38223 -0.09694
 N201 N 0.65503 0.36220 -0.08780
 C202 C 0.66834 0.35501 -0.06868
 C203 C 0.68696 0.37129 -0.06555
 C204 C 0.68382 0.38829 -0.08386
 H205 H 0.66447 0.33932 -0.05756
 H206 H 0.69486 0.40398 -0.08741
 H207 H 0.62107 0.38323 -0.10945
 H208 H 0.63868 0.36460 -0.13121
 C209 C -0.00943 0.25954 0.12500
 C210 C -0.03059 0.25570 0.11193
 C211 C -0.04831 0.27338 0.11162
 C212 C -0.04552 0.29517 0.12485
 C213 C -0.02427 0.29870 0.13819
 C214 C -0.00637 0.28121 0.13802
 C215 C 0.00944 0.24098 0.12500
 C216 C 0.03287 0.24730 0.11884
 C217 C 0.05066 0.22969 0.11851
 C218 C 0.04541 0.20556 0.12485
 C219 C 0.02202 0.19933 0.13130
 C220 C 0.00413 0.21684 0.13112
 H221 H -0.06430 0.26958 0.10127
 H222 H -0.02106 0.31513 0.14848
 H223 H 0.06858 0.23501 0.11364
 H224 H 0.01746 0.18084 0.13611
 H225 H 0.00982 0.28449 0.14830
 H226 H 0.03731 0.26582 0.11398
 H227 H -0.03326 0.23910 0.10169
 H228 H -0.01382 0.21162 0.13602
 C229 C 0.51005 0.74090 0.62315
 C230 C 0.52465 0.73755 0.60272
 C231 C 0.54232 0.71981 0.60284
 C232 C 0.54576 0.70494 0.62336
 C233 C 0.53111 0.70829 0.64378
 C234 C 0.51349 0.72608 0.64368
 C235 C 0.49131 0.75978 0.62302
 C236 C 0.48744 0.77424 0.64370
 C237 C 0.46987 0.79208 0.64354
 C238 C 0.45569 0.79584 0.62272
 C239 C 0.45957 0.78132 0.60205
 C240 C 0.47719 0.76353 0.60219
 H241 H 0.55312 0.71772 0.58672
 H242 H 0.53329 0.69732 0.65997
 H243 H 0.46735 0.80275 0.65986
 H244 H 0.44913 0.78372 0.58563
 H245 H 0.50235 0.72806 0.65960
 H246 H 0.49821 0.77195 0.65994
 H247 H 0.52261 0.74886 0.58673
 H248 H 0.47957 0.75250 0.58606
 C249 C 1.00848 0.76060 0.37726
 C250 C 1.00567 0.78197 0.36375
 C251 C 1.02356 0.79967 0.36365
 C252 C 1.04451 0.79666 0.37755
 C253 C 1.04698 0.77522 0.39136
 C254 C 1.02930 0.75732 0.39097
 C255 C 0.98973 0.74174 0.37705
 C256 C 0.99530 0.71765 0.37119
 C257 C 0.97753 0.69983 0.37079
 C258 C 0.95399 0.70571 0.37678
 C259 C 0.94848 0.72978 0.38287
 C260 C 0.96616 0.74770 0.38274
 H261 H 1.02058 0.81583 0.35293
 H262 H 1.06273 0.77184 0.40218
 H263 H 0.98227 0.68138 0.36618
 H264 H 0.93045 0.73482 0.38739
 H265 H 1.03176 0.74096 0.40160
 H266 H 1.01337 0.71271 0.36665
 H267 H 0.98973 0.78480 0.35299
 H268 H 0.96153 0.76618 0.38738
 C269 C 0.48975 0.24124 -0.12639
 C270 C 0.46704 0.24677 -0.11749
 C271 C 0.44915 0.22908 -0.11713
 C272 C 0.45353 0.20560 -0.12598
 C273 C 0.47619 0.20017 -0.13512
 C274 C 0.49418 0.21777 -0.13515
 C275 C 0.50882 0.25988 -0.12636
 C276 C 0.53161 0.25432 -0.11751
 C277 C 0.54952 0.27200 -0.11713
 C278 C 0.54508 0.29549 -0.12592
 C279 C 0.52233 0.30097 -0.13501
 C280 C 0.50432 0.28338 -0.13506
 H281 H 0.43182 0.23387 -0.11015
 H282 H 0.48016 0.18221 -0.14191
 H283 H 0.56691 0.26717 -0.11019
 H284 H 0.51831 0.31894 -0.14176
 H285 H 0.51151 0.21311 -0.14224
 H286 H 0.53547 0.23637 -0.11056
 H287 H 0.46323 0.26470 -0.11049
 H288 H 0.48692 0.28806 -0.14211
 C289 C 0.12167 -0.00998 0.25876
 C290 C 0.10143 -0.02431 0.26326
 C291 C 0.10167 -0.04191 0.28159
 C292 C 0.12216 -0.04558 0.29590
 C293 C 0.14236 -0.03113 0.29143
 C294 C 0.14211 -0.01356 0.27308
 C295 C 0.12151 0.00861 0.23917
 C296 C 0.14144 0.01181 0.22413
 C297 C 0.14145 0.02944 0.20585
 C298 C 0.12153 0.04434 0.20215
 C299 C 0.10154 0.04103 0.21714
 C300 C 0.10153 0.02336 0.23541
 H301 H 0.08572 -0.05254 0.28452
 H302 H 0.15851 -0.03341 0.30193
 H303 H 0.15721 0.03142 0.19481
 H304 H 0.08582 0.05201 0.21482
 H305 H 0.15789 -0.00259 0.27027
 H306 H 0.15699 0.00051 0.22636
 H307 H 0.08548 -0.02215 0.25236
 H308 H 0.08599 0.02149 0.24686
 C309 C 0.62350 0.51118 -0.25887
 C310 C 0.64203 0.51218 -0.27588
 C311 C 0.64222 0.52985 -0.29413
 C312 C 0.62391 0.54718 -0.29580
 C313 C 0.60535 0.54604 -0.27860
 C314 C 0.60514 0.52824 -0.26046
 C315 C 0.62338 0.49240 -0.23950
 C316 C 0.60234 0.47989 -0.23365
 C317 C 0.60234 0.46199 -0.21560
 C318 C 0.62334 0.45636 -0.20287
 C319 C 0.64434 0.46903 -0.20861
 C320 C 0.64437 0.48679 -0.22677
 H321 H 0.65691 0.52976 -0.30675
 H322 H 0.59082 0.55878 -0.27895
 H323 H 0.58581 0.45273 -0.21154
 H324 H 0.66088 0.46508 -0.19932
 H325 H 0.59073 0.52804 -0.24743
 H326 H 0.58594 0.48371 -0.24330
 H327 H 0.65630 0.49906 -0.27525
 H328 H 0.66080 0.49632 -0.23072
 C329 C 0.37533 1.00672 0.76223
 C330 C 0.39544 1.02158 0.76572
 C331 C 0.39554 1.03967 0.78358
 C332 C 0.37554 1.04330 0.79842
 C333 C 0.35548 1.02832 0.79498
 C334 C 0.35538 1.01028 0.77709
 C335 C 0.37512 0.98766 0.74309
 C336 C 0.35476 0.98374 0.72866
 C337 C 0.35458 0.96591 0.71055
 C338 C 0.37475 0.95151 0.70646
 C339 C 0.39508 0.95539 0.72099
 C340 C 0.39527 0.97327 0.73906
 H341 H 0.41137 1.05069 0.78573
 H342 H 0.33970 1.03058 0.80592
 H343 H 0.33854 0.96342 0.69988
 H344 H 0.41100 0.94480 0.71836
 H345 H 0.33972 0.99893 0.77505
 H346 H 0.33904 0.99472 0.73113
 H347 H 0.41101 1.01945 0.75438
 H348 H 0.41114 0.97567 0.75007
 C349 C 0.87972 0.49043 0.24046
 C350 C 0.85955 0.48709 0.22561
 C351 C 0.85947 0.46971 0.20707
 C352 C 0.87956 0.45519 0.20295
 C353 C 0.89978 0.45865 0.21775
 C354 C 0.89986 0.47608 0.23627
 C355 C 0.87965 0.50874 0.26032
 C356 C 0.89972 0.52339 0.26475
 C357 C 0.89953 0.54078 0.28331
 C358 C 0.87928 0.54389 0.29791
 C359 C 0.85927 0.52907 0.29355
 C360 C 0.85945 0.51173 0.27497
 H361 H 0.84353 0.46758 0.19618
 H362 H 0.91563 0.44797 0.21508
 H363 H 0.91534 0.55169 0.28616
 H364 H 0.84330 0.53093 0.30428
 H365 H 0.91560 0.47806 0.24756
 H366 H 0.91548 0.52167 0.25362
 H367 H 0.84386 0.49809 0.22818
 H368 H 0.84382 0.50050 0.27222
 C369 C 0.25904 0.12995 -0.00907
 C370 C 0.26224 0.10934 -0.02374
 C371 C 0.27964 0.10911 -0.04184
 C372 C 0.29430 0.12948 -0.04572
 C373 C 0.29101 0.15014 -0.03108
 C374 C 0.27357 0.15037 -0.01300
 C375 C 0.24065 0.13006 0.01028
 C376 C 0.22659 0.15067 0.01425
 C377 C 0.20911 0.15061 0.03230
 C378 C 0.20531 0.12996 0.04685
 C379 C 0.21953 0.10942 0.04295
 C380 C 0.23696 0.10947 0.02488
 H381 H 0.28163 0.09282 -0.05260
 H382 H 0.30181 0.16623 -0.03356
 H383 H 0.19867 0.16683 0.03482
 H384 H 0.21714 0.09312 0.05364
 H385 H 0.27170 0.16644 -0.00183
 H386 H 0.22885 0.16674 0.00314
 H387 H 0.25112 0.09343 -0.02138
 H388 H 0.24772 0.09341 0.02249
 C389 C 0.73974 0.62695 0.50868
 C390 C 0.73659 0.60669 0.52388
 C391 C 0.71900 0.60659 0.54180
 C392 C 0.70408 0.62674 0.54492
 C393 C 0.70725 0.64701 0.52969
 C394 C 0.72488 0.64711 0.51181
 C395 C 0.75844 0.62706 0.48965
 C396 C 0.77225 0.64795 0.48546
 C397 C 0.78992 0.64802 0.46763
 C398 C 0.79420 0.62721 0.45351
 C399 C 0.78031 0.60634 0.45768
 C400 C 0.76267 0.60626 0.47555
 H401 H 0.71707 0.59060 0.55305
 H402 H 0.69625 0.66292 0.53158
 H403 H 0.80012 0.66448 0.46490
 H404 H 0.78311 0.58991 0.44732
 H405 H 0.72669 0.66290 0.50021
 H406 H 0.76959 0.66418 0.49620
 H407 H 0.74794 0.59098 0.52210
 H408 H 0.75214 0.58997 0.47815
 C409 C 0.75964 0.37050 0.00980
 C410 C 0.76346 0.39112 0.02437
 C411 C 0.78094 0.39115 0.04254
 C412 C 0.79508 0.37056 0.04657
 C413 C 0.79117 0.34988 0.03204
 C414 C 0.77365 0.34985 0.01389
 C415 C 0.74117 0.37058 -0.00964
 C416 C 0.72655 0.35019 -0.01352
 C417 C 0.70903 0.35038 -0.03167
 C418 C 0.70574 0.37097 -0.04642
 C419 C 0.72049 0.39131 -0.04259
 C420 C 0.73796 0.39112 -0.02442
 H421 H 0.78342 0.40746 0.05322
 H422 H 0.80155 0.33363 0.03466
 H423 H 0.69817 0.33431 -0.03411
 H424 H 0.71849 0.40755 -0.05345
 H425 H 0.77129 0.33375 0.00280
 H426 H 0.72843 0.33417 -0.00226
 H427 H 0.75275 0.40721 0.02187
 H428 H 0.74915 0.40701 -0.02208
 C429 C 0.24184 0.87228 0.48893
 C430 C 0.24624 0.88176 0.46562
 C431 C 0.22834 0.88173 0.44787
 C432 C 0.20582 0.87184 0.45297
 C433 C 0.20152 0.86212 0.47622
 C434 C 0.21931 0.86253 0.49409
 C435 C 0.26070 0.87260 0.50784
 C436 C 0.25580 0.88101 0.53143
 C437 C 0.27363 0.88144 0.54926
 C438 C 0.29659 0.87308 0.54393
 C439 C 0.30143 0.86451 0.52036
 C440 C 0.28370 0.86447 0.50242
 H441 H 0.23221 0.88919 0.43007
 H442 H 0.18430 0.85455 0.48075
 H443 H 0.26932 0.88798 0.56731
 H444 H 0.31900 0.85813 0.51567
 H445 H 0.21555 0.85498 0.51189
 H446 H 0.23823 0.88752 0.53599
 H447 H 0.26345 0.88951 0.46126
 H448 H 0.28786 0.85778 0.48438
   
