data_POSCAR
  _audit_creation_date              2014-09-24
  _audit_creation_method            'ToBaCCo'
  _symmetry_space_group_name_H-M    'P1'
  _symmetry_Int_Tables_number       1
  _symmetry_cell_setting            triclinic
  loop_
  _symmetry_equiv_pos_as_xyz
 x,y,z
_cell_length_a 49.3344
_cell_length_b 48.7842
_cell_length_c 48.5593
_cell_angle_alpha 92.258300
_cell_angle_beta 92.022500
_cell_angle_gamma 92.078000
loop_
  _atom_site_label
  _atom_site_type_symbol
  _atom_site_fract_x
  _atom_site_fract_y
  _atom_site_fract_z
N1 N 0.16989 1.22586 0.15060
 N2 N 0.15158 1.22569 0.16966
 C3 C 0.13549 1.24715 0.16639
 C4 C 0.14430 1.26151 0.14417
 C5 C 0.16611 1.24740 0.13458
 H6 H 0.11886 1.25222 0.17936
 H7 H 0.17847 1.25259 0.11743
 Cu8 Cu 0.15135 1.19778 0.19721
 Cu9 Cu 0.19799 1.19884 0.14857
 Cu10 Cu 0.19727 1.14875 0.19741
 N11 N 0.15112 1.16986 0.22475
 N12 N 0.16899 1.15048 0.22438
 C13 C 0.16499 1.13419 0.24571
 C14 C 0.14357 1.14398 0.26033
 C15 C 0.13516 1.16659 0.24645
 H16 H 0.17708 1.11683 0.25055
 H17 H 0.11893 1.17982 0.25200
 N18 N 0.22426 1.15057 0.16849
 N19 N 0.22466 1.16972 0.15001
 C20 C 0.24615 1.16618 0.13402
 C21 C 0.25986 1.14380 0.14294
 C22 C 0.24545 1.13434 0.16472
 H23 H 0.25175 1.17914 0.11743
 H24 H 0.25044 1.11724 0.17720
 H25 H 0.17623 1.16783 0.16652
 H26 H 0.19916 1.19019 0.18990
 N27 N 0.83498 0.78156 0.13791
 N28 N 0.85027 0.77898 0.16032
 C29 C 0.86661 0.75779 0.15639
 C30 C 0.86130 0.74651 0.13016
 C31 C 0.84117 0.76211 0.11889
 H32 H 0.88089 0.75059 0.17163
 H33 H 0.83121 0.75896 0.09875
 Cu34 Cu 0.84649 0.80261 0.19297
 Cu35 Cu 0.80666 0.80849 0.13612
 Cu36 Cu 0.79906 0.84982 0.19518
 N37 N 0.84269 0.82623 0.22566
 N38 N 0.82389 0.84462 0.22650
 C39 C 0.82588 0.85857 0.25103
 C40 C 0.84720 0.84839 0.26631
 C41 C 0.85736 0.82783 0.24964
 H42 H 0.81324 0.87528 0.25705
 H43 H 0.87448 0.81542 0.25448
 N44 N 0.77600 0.85209 0.16147
 N45 N 0.77912 0.83684 0.13878
 C46 C 0.75992 0.84299 0.11977
 C47 C 0.74401 0.86289 0.13117
 C48 C 0.75477 0.86820 0.15752
 H49 H 0.75718 0.83323 0.09942
 H50 H 0.74729 0.88248 0.17280
 H51 H 0.82452 0.83629 0.16490
 H52 H 0.79989 0.81030 0.17774
 N53 N 0.82348 1.22581 -0.15609
 N54 N 0.84202 1.22529 -0.17488
 C55 C 0.85640 1.24934 -0.17337
 C56 C 0.84631 1.26572 -0.15254
 C57 C 0.82541 1.25018 -0.14201
 H58 H 0.87336 1.25442 -0.18598
 H59 H 0.81301 1.25596 -0.12494
 Cu60 Cu 0.84602 1.19281 -0.19868
 Cu61 Cu 0.79906 1.19439 -0.15063
 Cu62 Cu 0.80688 1.13570 -0.19219
 N63 N 0.84989 1.16029 -0.22236
 N64 N 0.83498 1.13777 -0.21947
 C65 C 0.84133 1.11878 -0.23891
 C66 C 0.86112 1.13025 -0.25490
 C67 C 0.86613 1.15651 -0.24377
 H68 H 0.83170 1.09853 -0.24174
 H69 H 0.88017 1.17185 -0.25111
 N70 N 0.77952 1.13809 -0.16348
 N71 N 0.77635 1.16062 -0.14811
 C72 C 0.75513 1.15659 -0.13191
 C73 C 0.74442 1.13035 -0.13728
 C74 C 0.76036 1.11908 -0.15732
 H75 H 0.74755 1.17178 -0.11762
 H76 H 0.75759 1.09888 -0.16723
 H77 H 0.82475 1.16457 -0.16453
 H78 H 0.79967 1.17703 -0.19036
 N79 N 0.16157 0.77826 -0.14787
 N80 N 0.13965 0.78155 -0.16342
 C81 C 0.12054 0.76242 -0.15743
 C82 C 0.13126 0.74637 -0.13716
 C83 C 0.15723 0.75703 -0.13156
 H84 H 0.10069 0.75975 -0.16756
 H85 H 0.17208 0.74947 -0.11711
 Cu86 Cu 0.13929 0.80912 -0.19145
 Cu87 Cu 0.19466 0.80072 -0.15046
 Cu88 Cu 0.19486 0.84972 -0.19993
 N89 N 0.13982 0.83695 -0.21921
 N90 N 0.16184 0.85230 -0.22256
 C91 C 0.15757 0.86861 -0.24384
 C92 C 0.13153 0.86319 -0.25450
 C93 C 0.12070 0.84305 -0.23834
 H94 H 0.17248 0.88304 -0.25132
 H95 H 0.10074 0.83317 -0.24083
 N96 N 0.22633 0.84409 -0.17502
 N97 N 0.22623 0.82541 -0.15610
 C98 C 0.25022 0.82707 -0.14188
 C99 C 0.26611 0.84777 -0.15238
 C100 C 0.25040 0.85814 -0.17335
 H101 H 0.25560 0.81459 -0.12475
 H102 H 0.25595 0.87507 -0.18600
 H103 H 0.17626 0.83450 -0.16602
 H104 H 0.18869 0.80875 -0.19171
 C105 C 0.48045 1.02216 0.02211
 C106 C 0.49986 1.00431 0.03828
 C107 C 0.51529 0.98816 0.02201
 C108 C 0.50967 0.99122 -0.00909
 C109 C 0.49891 1.03833 0.00320
 C110 C 0.51444 1.02216 -0.01299
 C111 C 0.46384 1.00205 0.00282
 C112 C 0.47896 0.98598 -0.01345
 H113 H 0.50226 1.00569 0.06056
 H114 H 0.52179 0.97783 -0.02255
 H115 H 0.50105 1.06052 0.00421
 H116 H 0.44184 1.00075 0.00201
 C117 C 0.02189 0.48080 1.02272
 C118 C 0.03790 0.50026 1.00465
 C119 C 0.02196 0.51580 0.98841
 C120 C -0.00868 0.51017 0.99155
 C121 C 0.00332 0.49964 1.03891
 C122 C -0.01258 0.51521 1.02263
 C123 C 0.00292 0.46388 1.00261
 C124 C -0.01302 0.47908 0.98641
 H125 H 0.05982 0.50270 1.00600
 H126 H -0.02185 0.52235 0.97807
 H127 H 0.00421 0.50187 1.06120
 H128 H 0.00218 0.44162 1.00133
 C129 C 1.02153 0.02226 0.48055
 C130 C 1.00223 0.03847 0.49861
 C131 C 0.98637 0.02238 0.51444
 C132 C 0.99095 -0.00853 0.51032
 C133 C 1.03751 0.00522 0.50093
 C134 C 1.02158 -0.01088 0.51663
 C135 C 1.00329 0.00140 0.46376
 C136 C 0.98730 -0.01457 0.47915
 H137 H 1.00275 0.06068 0.50041
 H138 H 0.97780 -0.02188 0.52269
 H139 H 1.05941 0.00692 0.50358
 H140 H 1.00290 -0.00041 0.44142
 C141 C 0.11333 0.33182 1.11390
 N142 N 0.13481 0.32006 1.10208
 N143 N 0.14485 0.29727 1.11190
 C144 C 0.13376 0.28534 1.13389
 N145 N 0.11228 0.29714 1.14571
 N146 N 0.10223 0.31993 1.13588
 C147 C 0.10186 0.35657 1.10262
 N148 N 0.07988 0.36791 1.11391
 N149 N 0.06882 0.38970 1.10298
 C150 C 0.07937 0.40098 1.08039
 N151 N 0.10149 0.38979 1.06926
 N152 N 0.11255 0.36800 1.08019
 C153 C 0.06601 0.42368 1.06709
 N154 N 0.07555 0.43362 1.04343
 N155 N 0.06223 0.45262 1.03007
 C156 C 0.03900 0.46264 1.04000
 N157 N 0.02950 0.45270 1.06371
 N158 N 0.04282 0.43369 1.07707
 C159 C -0.10457 0.67596 1.09673
 N160 N -0.12156 0.69073 1.08102
 N161 N -0.13245 0.71330 1.09154
 C162 C -0.12659 0.72195 1.11808
 N163 N -0.10953 0.70721 1.13369
 N164 N -0.09876 0.68464 1.12323
 C165 C -0.09251 0.65100 1.08550
 N166 N -0.07741 0.63538 1.10222
 N167 N -0.06608 0.61290 1.09223
 C168 C -0.06937 0.60521 1.06512
 N169 N -0.08451 0.62080 1.04836
 N170 N -0.09594 0.64326 1.05839
 C171 C -0.05596 0.58094 1.05412
 N172 N -0.05669 0.57459 1.02663
 N173 N -0.04337 0.55330 1.01668
 C174 C -0.02893 0.53750 1.03384
 N175 N -0.02847 0.54372 1.06136
 N176 N -0.04171 0.56503 1.07131
 C177 C -0.12138 0.34175 0.87820
 N178 N -0.14365 0.33013 0.88936
 N179 N -0.15428 0.30615 0.87925
 C180 C -0.14299 0.29291 0.85763
 N181 N -0.12091 0.30467 0.84628
 N182 N -0.11027 0.32863 0.85640
 C183 C -0.10824 0.36698 0.89074
 N184 N -0.08444 0.37688 0.88119
 N185 N -0.07117 0.39826 0.89402
 C186 C -0.08126 0.41061 0.91680
 N187 N -0.10531 0.40101 0.92607
 N188 N -0.11856 0.37958 0.91328
 C189 C -0.06493 0.43189 0.93279
 N190 N -0.07438 0.44363 0.95622
 N191 N -0.05827 0.46028 0.97254
 C192 C -0.03220 0.46587 0.96592
 N193 N -0.02286 0.45439 0.94238
 N194 N -0.03898 0.43786 0.92601
 C195 C 0.09692 0.67626 0.89670
 N196 N 0.12308 0.68443 0.90286
 N197 N 0.13382 0.70687 0.89218
 C198 C 0.11885 0.72198 0.87487
 N199 N 0.09265 0.71386 0.86865
 N200 N 0.08184 0.69142 0.87945
 C201 C 0.08541 0.65143 0.90867
 N202 N 0.05866 0.64412 0.90498
 N203 N 0.04842 0.62177 0.91640
 C204 C 0.06462 0.60587 0.93178
 N205 N 0.09136 0.61313 0.93532
 N206 N 0.10155 0.63549 0.92401
 C207 C 0.05347 0.58168 0.94519
 N208 N 0.07021 0.56548 0.95953
 N209 N 0.06022 0.54418 0.97275
 C210 C 0.03310 0.53825 0.97218
 N211 N 0.01637 0.55434 0.95764
 N212 N 0.02636 0.57564 0.94434
 C213 C 1.11324 0.11335 0.33109
 N214 N 1.10275 0.13599 0.32006
 N215 N 1.11254 0.14592 0.29708
 C216 C 1.13319 0.13359 0.28430
 N217 N 1.14369 0.11097 0.29539
 N218 N 1.13386 0.10100 0.31831
 C219 C 1.10202 0.10188 0.35598
 N220 N 1.11110 0.07798 0.36554
 N221 N 1.10018 0.06688 0.38740
 C222 C 1.07987 0.07934 0.40059
 N223 N 1.07097 0.10341 0.39121
 N224 N 1.08185 0.11448 0.36930
 C225 C 1.06652 0.06592 0.42332
 N226 N 1.04599 0.07802 0.43651
 N227 N 1.03245 0.06477 0.45554
 C228 C 1.03900 0.03895 0.46213
 N229 N 1.05965 0.02698 0.44902
 N230 N 1.07323 0.04025 0.43009
 C231 C 1.09714 -0.10236 0.67743
 N232 N 1.12298 -0.09540 0.68616
 N233 N 1.13395 -0.10647 0.70833
 C234 C 1.11955 -0.12502 0.72263
 N235 N 1.09364 -0.13200 0.71393
 N236 N 1.08260 -0.12082 0.69175
 C237 C 1.08544 -0.09003 0.65282
 N238 N 1.05889 -0.09457 0.64500
 N239 N 1.04852 -0.08297 0.62275
 C240 C 1.06438 -0.06655 0.60748
 N241 N 1.09091 -0.06214 0.61527
 N242 N 1.10123 -0.07363 0.63753
 C243 C 1.05317 -0.05318 0.58324
 N244 N 1.06978 -0.03829 0.56735
 N245 N 1.05976 -0.02530 0.54588
 C246 C 1.03273 -0.02664 0.53947
 N247 N 1.01610 -0.04168 0.55528
 N248 N 1.02614 -0.05476 0.57675
 C249 C 0.87897 -0.12239 0.34160
 N250 N 0.85656 -0.11129 0.33023
 N251 N 0.84594 -0.12105 0.30602
 C252 C 0.85737 -0.14223 0.29227
 N253 N 0.87956 -0.15354 0.30385
 N254 N 0.89019 -0.14377 0.32801
 C255 C 0.89221 -0.11024 0.36702
 N256 N 0.91651 -0.11925 0.37610
 N257 N 0.92991 -0.10670 0.39759
 C258 C 0.91945 -0.08476 0.41095
 N259 N 0.89488 -0.07604 0.40222
 N260 N 0.88151 -0.08854 0.38062
 C261 C 0.93595 -0.06891 0.43222
 N262 N 0.92572 -0.04714 0.44615
 N263 N 0.94179 -0.03073 0.46277
 C264 C 0.96862 -0.03554 0.46602
 N265 N 0.97875 -0.05744 0.45235
 N266 N 0.96267 -0.07395 0.43594
 C267 C 0.89485 0.09712 0.67576
 N268 N 0.90157 0.12318 0.68498
 N269 N 0.89079 0.13373 0.70760
 C270 C 0.87277 0.11869 0.72184
 N271 N 0.86607 0.09256 0.71268
 N272 N 0.87698 0.08194 0.69007
 C273 C 0.90678 0.08583 0.65066
 N274 N 0.90263 0.05899 0.64260
 N275 N 0.91390 0.04890 0.61998
 C276 C 0.92955 0.06533 0.60453
 N277 N 0.93355 0.09218 0.61254
 N278 N 0.92240 0.10223 0.63519
 C279 C 0.94281 0.05424 0.58011
 N280 N 0.95725 0.07120 0.56412
 N281 N 0.97047 0.06114 0.54276
 C282 C 0.96981 0.03373 0.53658
 N283 N 0.95516 0.01680 0.55245
 N284 N 0.94184 0.02686 0.57378
 C285 C 0.33173 1.11314 0.11303
 N286 N 0.31896 1.10085 0.13384
 N287 N 0.29608 1.11063 0.14335
 C288 C 0.28506 1.13301 0.13233
 N289 N 0.29782 1.14532 0.11152
 N290 N 0.32073 1.13555 0.10203
 C291 C 0.35656 1.10184 0.10210
 N292 N 0.36948 1.11407 0.08134
 N293 N 0.39132 1.10308 0.07066
 C294 C 0.40104 1.07949 0.08037
 N295 N 0.38825 1.06742 0.10130
 N296 N 0.36645 1.07842 0.11201
 C297 C 0.42369 1.06611 0.06718
 N298 N 0.43097 1.04083 0.07469
 N299 N 0.44982 1.02750 0.06116
 C300 C 0.46235 1.03905 0.03977
 N301 N 0.45521 1.06446 0.03240
 N302 N 0.43628 1.07777 0.04589
 C303 C 0.67439 1.09664 -0.10374
 N304 N 0.68946 1.08107 -0.12074
 N305 N 0.71187 1.09168 -0.13142
 C306 C 0.72005 1.11818 -0.12534
 N307 N 0.70503 1.13365 -0.10827
 N308 N 0.68261 1.12310 -0.09770
 C309 C 0.64960 1.08531 -0.09192
 N310 N 0.63375 1.10186 -0.07680
 N311 N 0.61140 1.09180 -0.06570
 C312 C 0.60406 1.06478 -0.06924
 N313 N 0.61988 1.04818 -0.08439
 N314 N 0.64223 1.05828 -0.09560
 C315 C 0.57989 1.05373 -0.05606
 N316 N 0.57378 1.02634 -0.05700
 N317 N 0.55256 1.01636 -0.04383
 C318 C 0.53660 1.03338 -0.02934
 N319 N 0.54257 1.06080 -0.02870
 N320 N 0.56381 1.07077 -0.04180
 C321 C 0.34185 0.87838 -0.12129
 N322 N 0.32972 0.88957 -0.14350
 N323 N 0.30582 0.87950 -0.15373
 C324 C 0.29315 0.85792 -0.14208
 N325 N 0.30540 0.84655 -0.12006
 N326 N 0.32930 0.85662 -0.10983
 C327 C 0.36705 0.89087 -0.10858
 N328 N 0.37785 0.88104 -0.08501
 N329 N 0.39926 0.89382 -0.07204
 C330 C 0.41071 0.91686 -0.08220
 N331 N 0.40018 0.92643 -0.10603
 N332 N 0.37876 0.91366 -0.11899
 C333 C 0.43202 0.93281 -0.06607
 N334 N 0.44198 0.95704 -0.07511
 N335 N 0.45859 0.97327 -0.05891
 C336 C 0.46598 0.96576 -0.03319
 N337 N 0.45631 0.94142 -0.02426
 N338 N 0.43975 0.92516 -0.04047
 C339 C 0.67453 0.89700 0.09709
 N340 N 0.68267 0.90292 0.12370
 N341 N 0.70490 0.89215 0.13439
 C342 C 0.71980 0.87499 0.11890
 N343 N 0.71169 0.86902 0.09225
 N344 N 0.68947 0.87990 0.08150
 C345 C 0.64994 0.90903 0.08560
 N346 N 0.64262 0.90535 0.05844
 N347 N 0.62043 0.91671 0.04821
 C348 C 0.60474 0.93202 0.06481
 N349 N 0.61203 0.93556 0.09196
 N350 N 0.63422 0.92430 0.10215
 C351 C 0.58071 0.94530 0.05366
 N352 N 0.56480 0.95973 0.07075
 N353 N 0.54364 0.97284 0.06073
 C354 C 0.53758 0.97205 0.03322
 N355 N 0.55338 0.95742 0.01613
 N356 N 0.57453 0.94424 0.02616
   
