data_POSCAR
  _audit_creation_date              2014-09-24
  _audit_creation_method            'ToBaCCo'
  _symmetry_space_group_name_H-M    'P1'
  _symmetry_Int_Tables_number       1
  _symmetry_cell_setting            triclinic
  loop_
  _symmetry_equiv_pos_as_xyz
 x,y,z
_cell_length_a 32.5489
_cell_length_b 34.4729
_cell_length_c 34.5413
_cell_angle_alpha 90.098700
_cell_angle_beta 87.283600
_cell_angle_gamma 90.066200
loop_
  _atom_site_label
  _atom_site_type_symbol
  _atom_site_fract_x
  _atom_site_fract_y
  _atom_site_fract_z
C1 C 0.15295 0.16583 0.20725
 C2 C 0.19109 0.15237 0.19112
 C3 C 0.20871 0.16791 0.15613
 C4 C 0.18621 0.19679 0.13713
 C5 C 0.14890 0.21111 0.15318
 C6 C 0.13317 0.19601 0.18824
 H7 H 0.20720 0.12985 0.20610
 H8 H 0.19672 0.20854 0.10953
 H9 H 0.10692 0.21028 0.20208
 C10 C -0.15752 0.83920 0.23018
 C11 C -0.19262 0.85224 0.21164
 C12 C -0.21144 0.83006 0.18331
 C13 C -0.19268 0.79537 0.17063
 C14 C -0.15623 0.78218 0.18690
 C15 C -0.13900 0.80443 0.21648
 H16 H -0.20551 0.88036 0.21805
 H17 H -0.20697 0.77831 0.14859
 H18 H -0.11089 0.79480 0.22881
 C19 C -0.17697 0.18690 -0.23582
 C20 C -0.15923 0.22048 -0.22044
 C21 C -0.17517 0.23814 -0.18670
 C22 C -0.20761 0.22010 -0.16573
 C23 C -0.22406 0.18416 -0.17754
 C24 C -0.20887 0.16824 -0.21345
 H25 H -0.13121 0.23218 -0.23366
 H26 H -0.22050 0.23539 -0.14074
 H27 H -0.22181 0.14149 -0.22402
 C28 C 0.14564 0.84850 -0.20426
 C29 C 0.17862 0.86748 -0.18753
 C30 C 0.19633 0.85325 -0.15364
 C31 C 0.17954 0.81879 -0.13686
 C32 C 0.14579 0.80003 -0.15293
 C33 C 0.13005 0.81463 -0.18698
 H34 H 0.19110 0.89252 -0.20253
 H35 H 0.19197 0.80684 -0.11090
 H36 H 0.10658 0.79825 -0.20092
 C37 C 0.16495 1.15959 0.79323
 C38 C 0.19654 1.14061 0.81211
 C39 C 0.21205 1.15532 0.84630
 C40 C 0.19773 1.19120 0.86022
 C41 C 0.16888 1.21283 0.84014
 C42 C 0.15173 1.19627 0.80709
 H43 H 0.21010 1.11475 0.79937
 H44 H 0.20917 1.20213 0.88704
 H45 H 0.12856 1.21201 0.79203
 C46 C 0.81413 0.80824 0.74987
 C47 C 0.83853 0.77884 0.76593
 C48 C 0.82601 0.75973 0.80088
 C49 C 0.78881 0.77161 0.81988
 C50 C 0.76424 0.80043 0.80464
 C51 C 0.77671 0.81798 0.76953
 H52 H 0.86730 0.77144 0.75101
 H53 H 0.77936 0.75930 0.84763
 H54 H 0.75793 0.84122 0.75934
 C55 C 0.15201 0.82936 1.21914
 C56 C 0.18818 0.84280 1.19934
 C57 C 0.20268 0.82595 1.16423
 C58 C 0.17944 0.79653 1.14779
 C59 C 0.14484 0.78085 1.16762
 C60 C 0.13163 0.79708 1.20339
 H61 H 0.20567 0.86624 1.21146
 H62 H 0.18850 0.78506 1.11956
 H63 H 0.10685 0.78296 1.21946
 C64 C 0.84046 1.16190 1.22224
 C65 C 0.86094 1.19653 1.20981
 C66 C 0.84862 1.21774 1.17709
 C67 C 0.81531 1.20313 1.15683
 C68 C 0.79364 1.17002 1.16901
 C69 C 0.80639 1.14964 1.20138
 H70 H 0.88643 1.20666 1.22591
 H71 H 0.80618 1.21735 1.13073
 H72 H 0.78827 1.12481 1.21031
 N73 N 0.45183 0.92732 0.97189
 N74 N 0.42039 0.90324 0.97024
 N75 N 0.53376 0.95391 0.93238
 N76 N 0.56132 0.95098 0.90351
 N77 N 0.53750 0.92551 0.95724
 N78 N 0.56763 0.90194 0.94552
 N79 N 0.44822 0.95608 0.94741
 N80 N 0.41415 0.95222 0.92835
 C81 C 0.39702 0.91916 0.94304
 C82 C 0.58191 0.91848 0.91193
 N83 N 0.54515 1.06155 0.96329
 N84 N 0.57699 1.08394 0.95357
 N85 N 0.45299 1.03974 0.95090
 N86 N 0.41936 1.04703 0.93250
 N87 N 0.45924 1.06651 0.97704
 N88 N 0.42994 1.09304 0.97696
 N89 N 0.53857 1.03651 0.93554
 N90 N 0.56577 1.04114 0.90629
 Mn91 Mn 0.49311 0.99659 0.94122
 C92 C 0.58957 1.07080 0.91790
 C93 C 0.40529 1.08027 0.94905
 N94 N 0.54894 0.92141 1.04006
 N95 N 0.57875 0.89537 1.04092
 N96 N 0.46606 0.95023 1.08060
 N97 N 0.43466 0.94859 1.10607
 N98 N 0.46278 0.92365 1.05365
 N99 N 0.42893 0.90315 1.06011
 N100 N 0.55176 0.94646 1.06851
 N101 N 0.58327 0.93805 1.08960
 Mn102 Mn 0.50051 0.92393 1.00568
 C103 C 0.60002 0.90634 1.07198
 C104 C 0.41200 0.91889 1.09303
 N105 N 0.46926 1.06228 1.05903
 N106 N 0.43717 1.08491 1.06641
 N107 N 0.55595 1.02921 1.07171
 N108 N 0.58911 1.03093 1.09198
 N109 N 0.55534 1.05774 1.04662
 N110 N 0.58801 1.08025 1.04978
 N111 N 0.46974 1.03370 1.08413
 N112 N 0.43794 1.03634 1.10932
 Mn113 Mn 0.50754 1.06256 1.01152
 Mn114 Mn 0.51077 0.98993 1.07667
 Cl115 Cl 0.50305 0.99325 1.00874
 C116 C 0.41814 1.06870 1.09806
 C117 C 0.60887 1.06276 1.07805
 N118 N -0.07474 0.46158 0.04141
 N119 N -0.09985 0.43163 0.04595
 N120 N -0.04295 0.54206 0.06890
 N121 N -0.04597 0.57261 0.09229
 N122 N -0.07172 0.54330 0.04355
 N123 N -0.09468 0.57445 0.04862
 N124 N -0.04569 0.45994 0.06643
 N125 N -0.05018 0.42889 0.08862
 C126 C -0.08423 0.41157 0.07563
 C127 C -0.07861 0.59247 0.07917
 N128 N 0.07417 0.53752 0.03366
 N129 N 0.09951 0.56718 0.03644
 N130 N 0.04263 0.45642 0.05939
 N131 N 0.04767 0.42560 0.08140
 N132 N 0.07027 0.45672 0.03042
 N133 N 0.09524 0.42688 0.03225
 N134 N 0.04590 0.53818 0.06211
 N135 N 0.05103 0.56842 0.08479
 Mn136 Mn 0.00004 0.49919 0.06481
 C137 C 0.08474 0.58599 0.06857
 C138 C 0.08077 0.40770 0.06404
 N139 N -0.07377 0.54650 -0.03930
 N140 N -0.09996 0.57532 -0.04308
 N141 N -0.04980 0.46563 -0.07121
 N142 N -0.05642 0.43637 -0.09490
 N143 N -0.07671 0.46506 -0.04166
 N144 N -0.10202 0.43544 -0.04414
 N145 N -0.04563 0.54691 -0.06781
 N146 N -0.05191 0.57579 -0.09181
 Mn147 Mn -0.07467 0.50406 0.00106
 C148 C -0.08571 0.59342 -0.07586
 C149 C -0.08914 0.41793 -0.07751
 N150 N 0.06787 0.45928 -0.05288
 N151 N 0.08969 0.42746 -0.05964
 N152 N 0.04301 0.54424 -0.07350
 N153 N 0.04782 0.57688 -0.09339
 N154 N 0.07261 0.54048 -0.04926
 N155 N 0.09861 0.56972 -0.05239
 N156 N 0.03849 0.46203 -0.07749
 N157 N 0.03915 0.43201 -0.10126
 Mn158 Mn 0.07165 0.49839 -0.00955
 Mn159 Mn -0.00342 0.50483 -0.07304
 Cl160 Cl -0.00165 0.50163 -0.00417
 C161 C 0.07142 0.41083 -0.09001
 C162 C 0.08301 0.59211 -0.08009
 N163 N 0.97163 0.07168 0.45834
 N164 N 0.96793 0.09641 0.42976
 N165 N 0.93629 0.04084 0.53774
 N166 N 0.90772 0.04225 0.56616
 N167 N 0.96148 0.07058 0.53949
 N168 N 0.95024 0.09334 0.56890
 N169 N 0.94569 0.04270 0.45569
 N170 N 0.92354 0.04719 0.42467
 C171 C 0.93799 0.08102 0.40882
 C172 C 0.91674 0.07523 0.58527
 N173 N 0.97713 -0.06554 0.53887
 N174 N 0.97241 -0.09097 0.56697
 N175 N 0.95466 -0.04115 0.45587
 N176 N 0.93306 -0.04875 0.42541
 N177 N 0.98569 -0.06530 0.45768
 N178 N 0.98603 -0.09000 0.42834
 N179 N 0.94502 -0.04269 0.53752
 N180 N 0.91713 -0.05244 0.56508
 Mn181 Mn 0.94476 -0.00010 0.49663
 C182 C 0.93506 -0.08263 0.58322
 C183 C 0.95303 -0.07920 0.40844
 N184 N 1.04979 0.07935 0.54438
 N185 N 1.04947 0.10435 0.57340
 N186 N 1.09036 0.05542 0.46514
 N187 N 1.11672 0.05969 0.43534
 N188 N 1.05916 0.07928 0.46281
 N189 N 1.06331 0.10013 0.43077
 N190 N 1.08065 0.05501 0.54639
 N191 N 1.10166 0.06232 0.57740
 Mn192 Mn 1.01045 0.07567 0.50133
 C193 C 1.08193 0.09331 0.59378
 C194 C 1.09968 0.08785 0.41434
 N195 N 1.07269 -0.05691 0.46353
 N196 N 1.07931 -0.07854 0.43264
 N197 N 1.08998 -0.02785 0.54541
 N198 N 1.11232 -0.02989 0.57616
 N199 N 1.06391 -0.05684 0.54463
 N200 N 1.06747 -0.07931 0.57523
 N201 N 1.09861 -0.02774 0.46380
 N202 N 1.12385 -0.02892 0.43247
 Mn203 Mn 1.02492 -0.06145 0.50124
 Mn204 Mn 1.09043 0.01380 0.50520
 Cl205 Cl 1.01754 0.00704 0.50111
 C206 C 1.11133 -0.06122 0.41366
 C207 C 1.09799 -0.06215 0.59441
 C208 C 1.14642 0.12060 0.30323
 C209 C 1.10561 0.12873 0.31550
 N210 N 1.08041 0.14630 0.29099
 C211 C 1.09435 0.15738 0.25509
 C212 C 1.13612 0.15134 0.24296
 N213 N 1.16068 0.13205 0.26745
 N214 N 1.17130 0.10204 0.32760
 C215 C 1.15714 0.09135 0.36370
 C216 C 1.11640 0.10006 0.37616
 N217 N 1.09158 0.11847 0.35159
 H218 H 1.07232 0.16989 0.23635
 H219 H 1.17752 0.07638 0.38252
 C220 C 0.91017 -0.13455 0.30863
 C221 C 0.88908 -0.10323 0.32603
 N222 N 0.85352 -0.09098 0.31154
 C223 C 0.83774 -0.10847 0.28033
 C224 C 0.85854 -0.14031 0.26209
 N225 N 0.89448 -0.15228 0.27734
 N226 N 0.94564 -0.14706 0.32373
 C227 C 0.96069 -0.12969 0.35562
 C228 C 0.93920 -0.09844 0.37327
 N229 N 0.90394 -0.08600 0.35777
 H230 H 0.80859 -0.09777 0.27151
 H231 H 0.98890 -0.14029 0.36716
 C232 C 0.85176 0.11917 0.68492
 C233 C 0.87626 0.14321 0.66051
 N234 N 0.87958 0.18131 0.66880
 C235 C 0.86096 0.19649 0.70123
 C236 C 0.83854 0.17226 0.72788
 N237 N 0.83351 0.13412 0.71807
 N238 N 0.84775 0.08107 0.67552
 C239 C 0.86751 0.06606 0.64313
 C240 C 0.89310 0.09008 0.61949
 N241 N 0.89652 0.12816 0.62881
 H242 H 0.86335 0.22746 0.70534
 H243 H 0.86405 0.03558 0.63642
 C244 C 1.14041 -0.10080 0.70102
 C245 C 1.10141 -0.11164 0.68910
 N246 N 1.07671 -0.13391 0.71265
 C247 C 1.08946 -0.14646 0.74736
 C248 C 1.12926 -0.13689 0.75897
 N249 N 1.15344 -0.11383 0.73534
 N250 N 1.16465 -0.07745 0.67809
 C251 C 1.15163 -0.06449 0.64363
 C252 C 1.11289 -0.07590 0.63129
 N253 N 1.08864 -0.09925 0.65442
 H254 H 1.06832 -0.16330 0.76560
 H255 H 1.17150 -0.04581 0.62589
 C256 C 0.30326 1.10959 1.14408
 C257 C 0.32404 1.12820 1.11295
 N258 N 0.30700 1.15967 1.09678
 C259 C 0.26984 1.17343 1.10994
 C260 C 0.24789 1.15476 1.14115
 N261 N 0.26599 1.12326 1.15742
 N262 N 0.32062 1.07802 1.16028
 C263 C 0.35781 1.06426 1.14655
 C264 C 0.37860 1.08294 1.11517
 N265 N 0.36100 1.11455 1.09925
 H266 H 0.25897 1.19928 1.09632
 H267 H 0.37081 1.03893 1.15980
 C268 C 0.28730 0.86925 0.90386
 C269 C 0.30070 0.90585 0.89092
 N270 N 0.27849 0.92536 0.86518
 C271 C 0.24398 0.90975 0.85091
 C272 C 0.23074 0.87204 0.86241
 N273 N 0.25290 0.85330 0.88942
 N274 N 0.30941 0.84995 0.93008
 C275 C 0.34445 0.86553 0.94365
 C276 C 0.35835 0.90199 0.93014
 N277 N 0.33582 0.92131 0.90415
 H278 H 0.22717 0.92759 0.83158
 H279 H 0.36152 0.84938 0.96438
 C280 C 0.70497 0.85196 1.11550
 C281 C 0.67852 0.87485 1.13925
 N282 N 0.68672 0.88039 1.17689
 C283 C 0.72081 0.86495 1.19185
 C284 C 0.74898 0.84365 1.16789
 N285 N 0.73980 0.83705 1.13020
 N286 N 0.69572 0.84584 1.07795
 C287 C 0.66154 0.86195 1.06312
 C288 C 0.63589 0.88596 1.08668
 N289 N 0.64512 0.89154 1.12426
 H290 H 0.72585 0.86957 1.22224
 H291 H 0.65506 0.85691 1.03308
 C292 C 0.68964 1.11931 0.85118
 C293 C 0.68062 1.13112 0.88950
 N294 N 0.70415 1.15856 0.90557
 C295 C 0.73575 1.17562 0.88497
 C296 C 0.74444 1.16532 0.84560
 N297 N 0.72120 1.13652 0.83020
 N298 N 0.66621 1.09126 0.83544
 C299 C 0.63411 1.07478 0.85627
 C300 C 0.62470 1.08709 0.89457
 N301 N 0.64850 1.11496 0.91020
 H302 H 0.75424 1.19604 0.90020
 H303 H 0.61592 1.05260 0.84293
 C304 C 0.13442 0.30415 0.10161
 C305 C 0.09236 0.31140 0.10928
 N306 N 0.06880 0.28447 0.12835
 C307 C 0.08559 0.25105 0.14107
 C308 C 0.12827 0.24454 0.13533
 N309 N 0.15139 0.27123 0.11507
 N310 N 0.15782 0.33052 0.08154
 C311 C 0.14107 0.36399 0.06895
 C312 C 0.09924 0.37181 0.07753
 N313 N 0.07576 0.34520 0.09743
 H314 H 0.06573 0.23006 0.15581
 H315 H 0.16037 0.38456 0.05293
 C316 C -0.14383 0.31645 -0.11981
 C317 C -0.12121 0.34135 -0.14490
 N318 N -0.11786 0.33316 -0.18329
 C319 C -0.13552 0.30084 -0.19774
 C320 C -0.15706 0.27487 -0.17251
 N321 N -0.16091 0.28384 -0.13408
 N322 N -0.14835 0.32529 -0.08156
 C323 C -0.13118 0.35794 -0.06726
 C324 C -0.10793 0.38256 -0.09225
 N325 N -0.10347 0.37362 -0.13057
 H326 H -0.13298 0.29598 -0.22868
 H327 H -0.13524 0.36435 -0.03663
 C328 C 0.13509 0.70081 -0.11093
 C329 C 0.09287 0.69372 -0.11451
 N330 N 0.06848 0.72236 -0.12719
 C331 C 0.08447 0.75745 -0.13749
 C332 C 0.12714 0.76419 -0.13593
 N333 N 0.15135 0.73569 -0.12199
 N334 N 0.15924 0.67233 -0.09733
 C335 C 0.14316 0.63711 -0.08732
 C336 C 0.10112 0.62966 -0.09180
 N337 N 0.07692 0.65832 -0.10520
 H338 H 0.06409 0.77965 -0.14757
 H339 H 0.16309 0.61499 -0.07634
 C340 C -0.12824 0.69849 0.12218
 C341 C -0.10153 0.67691 0.14449
 N342 N -0.09319 0.68972 0.18047
 C343 C -0.11009 0.72314 0.19506
 C344 C -0.13663 0.74528 0.17257
 N345 N -0.14494 0.73189 0.13661
 N346 N -0.13747 0.68553 0.08658
 C347 C -0.12142 0.65182 0.07226
 C348 C -0.09464 0.62989 0.09441
 N349 N -0.08516 0.64313 0.13015
 H350 H -0.10338 0.73157 0.22422
 H351 H -0.12958 0.64225 0.04376
 C352 C 1.11750 0.14673 0.69734
 C353 C 1.12154 0.10654 0.69166
 N354 N 1.13646 0.08430 0.71999
 C355 C 1.14874 0.10042 0.75338
 C356 C 1.14739 0.14110 0.75851
 N357 N 1.13088 0.16319 0.73037
 N358 N 1.10077 0.16860 0.66944
 C359 C 1.08828 0.15210 0.63608
 C360 C 1.09378 0.11206 0.62987
 N361 N 1.11019 0.09026 0.65801
 H362 H 1.15946 0.08135 0.77555
 H363 H 1.07510 0.17014 0.61427
 C364 C 0.88548 -0.15054 0.67580
 C365 C 0.86001 -0.12564 0.65561
 N366 N 0.81926 -0.12456 0.66540
 C367 C 0.80288 -0.14645 0.69501
 C368 C 0.82856 -0.17074 0.71656
 N369 N 0.86928 -0.17230 0.70543
 N370 N 0.92620 -0.15215 0.66593
 C371 C 0.94262 -0.13006 0.63664
 C372 C 0.91727 -0.10498 0.61621
 N373 N 0.87635 -0.10334 0.62624
 H374 H 0.77001 -0.14514 0.70049
 H375 H 0.97527 -0.13214 0.62939
 C376 C 1.15030 -0.10748 0.30502
 C377 C 1.11321 -0.11832 0.32393
 N378 N 1.08875 -0.14492 0.30775
 C379 C 1.09989 -0.16207 0.27354
 C380 C 1.13807 -0.15267 0.25441
 N381 N 1.16187 -0.12490 0.27090
 N382 N 1.17429 -0.08011 0.32139
 C383 C 1.16276 -0.06347 0.35615
 C384 C 1.12588 -0.07527 0.37539
 N385 N 1.10213 -0.10225 0.35846
 H386 H 1.07823 -0.18206 0.26185
 H387 H 1.18237 -0.04201 0.36884
 C388 C 0.89774 0.13772 0.30842
 C389 C 0.88021 0.10225 0.32023
 N390 N 0.85033 0.08648 0.29918
 C391 C 0.83679 0.10455 0.26717
 C392 C 0.85372 0.14091 0.25515
 N393 N 0.88421 0.15595 0.27656
 N394 N 0.92791 0.15355 0.32908
 C395 C 0.94126 0.13560 0.36114
 C396 C 0.92361 0.10007 0.37346
 N397 N 0.89338 0.08414 0.35247
 H398 H 0.81359 0.08968 0.25163
 H399 H 0.96539 0.14914 0.37693
 C400 C 0.10712 0.30244 -0.13845
 C401 C 0.13408 0.32413 -0.11635
 N402 N 0.17218 0.31028 -0.11053
 C403 C 0.18441 0.27532 -0.12505
 C404 C 0.15699 0.25240 -0.14588
 N405 N 0.11902 0.26707 -0.15252
 N406 N 0.06932 0.31698 -0.14506
 C407 C 0.05725 0.35207 -0.13037
 C408 C 0.08393 0.37341 -0.10748
 N409 N 0.12182 0.35880 -0.10114
 H410 H 0.21545 0.26587 -0.12046
 H411 H 0.02688 0.36287 -0.13593
 C412 C -0.13335 0.30575 0.11908
 C413 C -0.09925 0.32249 0.13568
 N414 N -0.08221 0.30433 0.16591
 C415 C -0.09777 0.27023 0.18041
 C416 C -0.13242 0.25302 0.16384
 N417 N -0.14874 0.27195 0.13341
 N418 N -0.15078 0.32352 0.08893
 C419 C -0.13559 0.35755 0.07454
 C420 C -0.10132 0.37470 0.09101
 N421 N -0.08386 0.35660 0.12133
 H422 H -0.08271 0.25725 0.20431
 H423 H -0.15013 0.37100 0.05042
 C424 C -0.14520 0.68658 -0.12868
 C425 C -0.10951 0.67052 -0.14605
 N426 N -0.09480 0.68444 -0.18076
 C427 C -0.11428 0.71368 -0.19907
 C428 C -0.15077 0.72991 -0.18192
 N429 N -0.16464 0.71540 -0.14692
 N430 N -0.16034 0.67285 -0.09409
 C431 C -0.14139 0.64330 -0.07608
 C432 C -0.10580 0.62664 -0.09360
 N433 N -0.09057 0.64083 -0.12824
 H434 H -0.10128 0.72308 -0.22676
 H435 H -0.15424 0.63273 -0.04861
 C436 C 0.13285 0.69028 0.11091
 C437 C 0.09346 0.67764 0.12318
 N438 N 0.07046 0.69947 0.14872
 C439 C 0.08534 0.73320 0.16307
 C440 C 0.12548 0.74549 0.15173
 N441 N 0.14786 0.72351 0.12558
 N442 N 0.15564 0.66903 0.08472
 C443 C 0.14077 0.63542 0.07028
 C444 C 0.10160 0.62229 0.08307
 N445 N 0.07880 0.64383 0.10922
 H446 H 0.06570 0.75006 0.18275
 H447 H 0.15953 0.61895 0.04943
 C448 C 0.30211 1.13675 0.90633
 C449 C 0.30871 1.09700 0.90017
 N450 N 0.28248 1.07643 0.87878
 C451 C 0.25036 1.09397 0.86231
 C452 C 0.24464 1.13435 0.86657
 N453 N 0.27052 1.15453 0.88921
 N454 N 0.32811 1.15707 0.92843
 C455 C 0.36086 1.13945 0.94411
 C456 C 0.36833 1.09995 0.93658
 N457 N 0.34177 1.07970 0.91500
 H458 H 0.22970 1.07633 0.84613
 H459 H 0.38151 1.15633 0.96112
 C460 C 0.29663 0.88474 1.14148
 C461 C 0.31820 0.86135 1.11420
 N462 N 0.30210 0.82694 1.10362
 C463 C 0.26514 0.81479 1.11887
 C464 C 0.24268 0.83847 1.14575
 N465 N 0.25949 0.87287 1.15643
 N466 N 0.31342 0.91868 1.15294
 C467 C 0.35089 0.93029 1.13821
 C468 C 0.37226 0.90702 1.11054
 N469 N 0.35528 0.87310 1.09917
 H470 H 0.25443 0.78646 1.11060
 H471 H 0.36358 0.95756 1.14764
 C472 C 0.71541 1.10365 1.12978
 C473 C 0.69078 1.12914 1.10931
 N474 N 0.69990 1.16753 1.10866
 C475 C 0.73260 1.18163 1.12739
 C476 C 0.75772 1.15610 1.14772
 N477 N 0.74811 1.11763 1.14831
 N478 N 0.70573 1.06543 1.13154
 C479 C 0.67220 1.05154 1.11411
 C480 C 0.64722 1.07697 1.09382
 N481 N 0.65728 1.11528 1.09169
 H482 H 0.73809 1.21255 1.12704
 H483 H 0.66489 1.02096 1.11641
 C484 C 0.68502 0.87011 0.84132
 C485 C 0.66315 0.84841 0.87039
 N486 N 0.67376 0.81087 0.87618
 C487 C 0.70523 0.79396 0.85512
 C488 C 0.72780 0.81580 0.82702
 N489 N 0.71658 0.85314 0.82097
 N490 N 0.67535 0.90753 0.83335
 C491 C 0.64447 0.92696 0.85236
 C492 C 0.62017 0.90359 0.88510
 N493 N 0.63173 0.86447 0.89208
 H494 H 0.71208 0.76379 0.86029
 H495 H 0.62915 0.91814 0.87033
   
