data_POSCAR
  _audit_creation_date              2014-09-24
  _audit_creation_method            'ToBaCCo'
  _symmetry_space_group_name_H-M    'P1'
  _symmetry_Int_Tables_number       1
  _symmetry_cell_setting            triclinic
  loop_
  _symmetry_equiv_pos_as_xyz
 x,y,z
_cell_length_a 55.7765
_cell_length_b 55.4478
_cell_length_c 44.3066
_cell_angle_alpha 90.802800
_cell_angle_beta 90.069700
_cell_angle_gamma 90.029200
loop_
  _atom_site_label
  _atom_site_type_symbol
  _atom_site_fract_x
  _atom_site_fract_y
  _atom_site_fract_z
C1 C 0.28803 0.28385 0.23879
 H2 H 0.28933 0.28387 0.26315
 C3 C 0.30284 0.29891 0.22205
 H4 H 0.31568 0.31035 0.23373
 C5 C 0.26997 0.26849 0.19407
 H6 H 0.25726 0.25649 0.18322
 C7 C 0.28445 0.28325 0.17643
 H8 H 0.28238 0.28275 0.15213
 N9 N 0.27170 0.26937 0.22469
 C10 C 0.21528 0.25929 0.29149
 H11 H 0.21454 0.23982 0.29242
 C12 C 0.19951 0.27322 0.30894
 H13 H 0.18658 0.26431 0.32319
 C14 C 0.23251 0.29449 0.27093
 H15 H 0.24513 0.30276 0.25579
 C16 C 0.21707 0.30908 0.28789
 H17 H 0.21840 0.32849 0.28607
 Zn18 Zn 0.25195 0.25019 0.24947
 N19 N 0.23154 0.27008 0.27322
 C20 C 0.27075 0.23237 0.30480
 N21 N 0.27244 0.23169 0.27418
 C22 C 0.28923 0.21788 0.25997
 C23 C 0.30456 0.20326 0.27658
 C24 C 0.28576 0.21802 0.32232
 C25 C 0.21546 0.23983 0.20755
 C26 C 0.20017 0.22538 0.19003
 C27 C 0.21908 0.19012 0.21086
 C28 C 0.23402 0.20523 0.22792
 N29 N 0.23215 0.22960 0.22575
 H30 H 0.25766 0.24385 0.31574
 H31 H 0.29047 0.21803 0.23561
 H32 H 0.31774 0.19233 0.26481
 H33 H 0.28370 0.21829 0.34662
 H34 H 0.21403 0.25926 0.20671
 H35 H 0.18689 0.23384 0.17582
 H36 H 0.22112 0.17077 0.21257
 H37 H 0.24697 0.19739 0.24300
 C38 C 0.20029 0.29849 0.30725
 C39 C 0.30100 0.29892 0.19044
 C40 C 0.20189 0.20015 0.19156
 C41 C 0.30277 0.20299 0.30819
 C42 C 0.78949 0.78363 0.23840
 H43 H 0.79045 0.78457 0.26278
 C44 C 0.80450 0.79808 0.22112
 H45 H 0.81623 0.81045 0.23307
 C46 C 0.77171 0.76698 0.19436
 H47 H 0.75924 0.75447 0.18397
 C48 C 0.78633 0.78112 0.17613
 H49 H 0.78490 0.77854 0.15197
 N50 N 0.77321 0.76880 0.22490
 C51 C 0.71638 0.76059 0.29158
 H52 H 0.71556 0.74115 0.29312
 C53 C 0.70062 0.77492 0.30849
 H54 H 0.68760 0.76636 0.32294
 C55 C 0.73389 0.79528 0.27005
 H56 H 0.74663 0.80318 0.25476
 C57 C 0.71845 0.81027 0.28648
 H58 H 0.71989 0.82962 0.28408
 Zn59 Zn 0.75320 0.75038 0.25028
 N60 N 0.73279 0.77093 0.27311
 C61 C 0.77164 0.73417 0.30650
 N62 N 0.77338 0.73236 0.27593
 C63 C 0.78999 0.71779 0.26259
 C64 C 0.80510 0.70359 0.28010
 C65 C 0.78639 0.72027 0.32489
 C66 C 0.71688 0.73952 0.20846
 C67 C 0.70151 0.72494 0.19124
 C68 C 0.71985 0.68988 0.21334
 C69 C 0.73488 0.70513 0.23008
 N70 N 0.73334 0.72946 0.22713
 H71 H 0.75880 0.74633 0.31673
 H72 H 0.79120 0.71694 0.23823
 H73 H 0.81770 0.69159 0.26898
 H74 H 0.78472 0.72192 0.34917
 H75 H 0.71570 0.75895 0.20701
 H76 H 0.68843 0.73329 0.17666
 H77 H 0.72163 0.67055 0.21566
 H78 H 0.74765 0.69744 0.24553
 C79 C 0.70155 0.80013 0.30607
 C80 C 0.80305 0.79733 0.18926
 C81 C 0.70291 0.69974 0.19354
 C82 C 0.80326 0.70455 0.31171
 C83 C 0.78802 0.28268 0.74210
 H84 H 0.78939 0.28265 0.76646
 C85 C 0.80307 0.29746 0.72532
 H86 H 0.81616 0.30863 0.73696
 C87 C 0.76951 0.26774 0.69745
 H88 H 0.75652 0.25603 0.68665
 C89 C 0.78423 0.28224 0.67977
 H90 H 0.78205 0.28183 0.65548
 N91 N 0.77135 0.26856 0.72807
 C92 C 0.71480 0.25975 0.79497
 H93 H 0.71364 0.24030 0.79589
 C94 C 0.69934 0.27401 0.81243
 H95 H 0.68622 0.26538 0.82668
 C96 C 0.73280 0.29458 0.77444
 H97 H 0.74560 0.30257 0.75930
 C98 C 0.71768 0.30949 0.79143
 H99 H 0.71943 0.32887 0.78962
 Zn100 Zn 0.75123 0.24983 0.75295
 N101 N 0.73129 0.27018 0.77671
 C102 C 0.76981 0.23184 0.80824
 N103 N 0.77133 0.23093 0.77769
 C104 C 0.78773 0.21667 0.76364
 C105 C 0.80281 0.20181 0.78028
 C106 C 0.78454 0.21732 0.82590
 C107 C 0.71442 0.24021 0.71119
 C108 C 0.69870 0.22607 0.69388
 C109 C 0.71681 0.19045 0.71487
 C110 C 0.73219 0.20525 0.73170
 N111 N 0.73093 0.22965 0.72936
 H112 H 0.75693 0.24361 0.81910
 H113 H 0.78904 0.21681 0.73927
 H114 H 0.81600 0.19166 0.76763
 H115 H 0.78136 0.21797 0.84991
 H116 H 0.71346 0.25967 0.71023
 H117 H 0.68559 0.23479 0.67969
 H118 H 0.71837 0.17107 0.71671
 H119 H 0.74500 0.19716 0.74676
 C120 C 0.70067 0.29925 0.81077
 C121 C 0.80111 0.29757 0.69371
 C122 C 0.69979 0.20082 0.69561
 C123 C 0.80142 0.20143 0.81225
 C124 C 0.28846 0.78257 0.73638
 H125 H 0.28964 0.78259 0.76076
 C126 C 0.30368 0.79727 0.71973
 H127 H 0.31671 0.80842 0.73150
 C128 C 0.27026 0.76757 0.69156
 H129 H 0.25733 0.75585 0.68065
 C130 C 0.28517 0.78198 0.67400
 H131 H 0.28319 0.78151 0.64969
 N132 N 0.27187 0.76845 0.72219
 C133 C 0.21499 0.75995 0.78873
 H134 H 0.21382 0.74051 0.78976
 C135 C 0.19957 0.77430 0.80613
 H136 H 0.18646 0.76574 0.82045
 C137 C 0.23306 0.79467 0.76801
 H138 H 0.24589 0.80259 0.75286
 C139 C 0.21798 0.80967 0.78495
 H140 H 0.21979 0.82904 0.78306
 Zn141 Zn 0.25160 0.74983 0.74700
 N142 N 0.23152 0.77029 0.77043
 C143 C 0.26989 0.73227 0.80270
 N144 N 0.27161 0.73114 0.77209
 C145 C 0.28813 0.71679 0.75823
 C146 C 0.30318 0.70213 0.77520
 C147 C 0.28461 0.71791 0.82057
 C148 C 0.21511 0.73981 0.70486
 C149 C 0.19952 0.72548 0.68760
 C150 C 0.21748 0.69010 0.70938
 C151 C 0.23274 0.70509 0.72614
 N152 N 0.23148 0.72945 0.72340
 H153 H 0.25703 0.74417 0.81336
 H154 H 0.28942 0.71658 0.73386
 H155 H 0.31618 0.69080 0.76370
 H156 H 0.28256 0.71860 0.84487
 H157 H 0.21414 0.75925 0.70358
 H158 H 0.18650 0.73405 0.67313
 H159 H 0.21903 0.67074 0.71158
 H160 H 0.24543 0.69716 0.74150
 C161 C 0.20098 0.79953 0.80439
 C162 C 0.30198 0.79729 0.68811
 C163 C 0.20058 0.70025 0.68977
 C164 C 0.30138 0.70239 0.80682
 C165 C -0.02657 -0.01948 0.01233
 C166 C -0.01404 -0.00046 -0.00095
 C167 C -0.02676 0.01854 -0.01398
 C168 C -0.05195 0.01856 -0.01419
 C169 C -0.06429 -0.00048 -0.00045
 C170 C -0.05175 -0.01951 0.01305
 C171 C 0.01241 -0.00044 -0.00118
 C172 C 0.02495 -0.01955 -0.01489
 C173 C 0.05014 -0.01955 -0.01554
 C174 C 0.06264 -0.00039 -0.00159
 C175 C 0.05029 0.01874 0.01256
 C176 C 0.02510 0.01869 0.01231
 H177 H -0.01664 -0.03418 0.02225
 H178 H -0.01697 0.03325 -0.02409
 H179 H 0.01504 -0.03434 -0.02516
 H180 H 0.01530 0.03346 0.02276
 H181 H -0.08370 -0.00049 -0.00025
 H182 H 0.08206 -0.00038 -0.00175
 C183 C -0.02860 0.48027 0.51450
 C184 C -0.01573 0.49887 0.50078
 C185 C -0.02810 0.51792 0.48731
 C186 C -0.05328 0.51836 0.48704
 C187 C -0.06594 0.49977 0.50125
 C188 C -0.05377 0.48074 0.51523
 C189 C 0.01071 0.49837 0.50050
 C190 C 0.02286 0.47887 0.48707
 C191 C 0.04803 0.47828 0.48654
 C192 C 0.06091 0.49724 0.50033
 C193 C 0.04898 0.51673 0.51429
 C194 C 0.02380 0.51729 0.51387
 H195 H -0.01892 0.46586 0.52540
 H196 H -0.01804 0.53198 0.47622
 H197 H 0.01264 0.46423 0.47693
 H198 H 0.01428 0.53205 0.52478
 H199 H -0.08536 0.50011 0.50143
 H200 H 0.08032 0.49715 0.49954
 C201 C 0.47341 -0.01864 0.51248
 C202 C 0.48604 0.00027 0.49910
 C203 C 0.47347 0.01912 0.48551
 C204 C 0.44829 0.01905 0.48478
 C205 C 0.43584 0.00016 0.49868
 C206 C 0.44822 -0.01867 0.51279
 C207 C 0.51247 0.00033 0.49931
 C208 C 0.52518 -0.01838 0.48499
 C209 C 0.55036 -0.01826 0.48462
 C210 C 0.56268 0.00051 0.49963
 C211 C 0.55016 0.01919 0.51448
 C212 C 0.52499 0.01914 0.51380
 H213 H 0.48326 -0.03290 0.52346
 H214 H 0.48337 0.03342 0.47470
 H215 H 0.51538 -0.03260 0.47333
 H216 H 0.51504 0.03329 0.52532
 H217 H 0.41642 0.00012 0.49851
 H218 H 0.58209 0.00058 0.49975
 C219 C 0.47164 0.48263 0.01411
 C220 C 0.48480 0.50124 0.00088
 C221 C 0.47272 0.52046 -0.01263
 C222 C 0.44755 0.52107 -0.01337
 C223 C 0.43458 0.50242 0.00028
 C224 C 0.44646 0.48322 0.01429
 C225 C 0.51124 0.50069 0.00135
 C226 C 0.52358 0.48120 -0.01180
 C227 C 0.54876 0.48065 -0.01182
 C228 C 0.56146 0.49964 0.00220
 C229 C 0.54930 0.51915 0.01579
 C230 C 0.52413 0.51964 0.01493
 H231 H 0.48110 0.46811 0.02510
 H232 H 0.48299 0.53486 -0.02269
 H233 H 0.51351 0.46655 -0.02216
 H234 H 0.51450 0.53471 0.02495
 H235 H 0.41518 0.50252 -0.00066
 H236 H 0.58087 0.49925 0.00251
 C237 C 0.16023 -0.14866 -0.17244
 C238 C 0.15527 -0.15421 -0.14238
 C239 C 0.16488 -0.17512 -0.12982
 C240 C 0.17956 -0.19033 -0.14719
 C241 C 0.18485 -0.18475 -0.17735
 C242 C 0.17490 -0.16381 -0.18983
 C243 C 0.14071 -0.13815 -0.12439
 C244 C 0.12869 -0.12432 -0.10962
 C245 C 0.11481 -0.10772 -0.09270
 C246 C 0.10310 -0.09320 -0.07858
 C247 C 0.08931 -0.07547 -0.06213
 C248 C 0.06827 -0.06620 -0.07469
 C249 C 0.05536 -0.04825 -0.05935
 C250 C 0.06336 -0.03929 -0.03122
 C251 C 0.08439 -0.04893 -0.01861
 C252 C 0.09727 -0.06690 -0.03400
 H253 H 0.15284 -0.13255 -0.18242
 H254 H 0.16122 -0.17955 -0.10654
 H255 H 0.18716 -0.20617 -0.13685
 H256 H 0.17835 -0.15921 -0.21309
 H257 H 0.06201 -0.07261 -0.09653
 H258 H 0.03942 -0.04097 -0.06982
 H259 H 0.09083 -0.04263 0.00317
 H260 H 0.11353 -0.07396 -0.02406
 C261 C 0.15817 0.34922 0.33020
 C262 C 0.15329 0.34357 0.36025
 C263 C 0.16338 0.32291 0.37286
 C264 C 0.17847 0.30806 0.35557
 C265 C 0.18371 0.31377 0.32543
 C266 C 0.17326 0.33444 0.31289
 C267 C 0.13839 0.35935 0.37820
 C268 C 0.12614 0.37300 0.39292
 C269 C 0.11207 0.38946 0.40979
 C270 C 0.10028 0.40393 0.42389
 C271 C 0.08650 0.42167 0.44034
 C272 C 0.09451 0.43023 0.46846
 C273 C 0.08181 0.44836 0.48374
 C274 C 0.06090 0.45821 0.47106
 C275 C 0.05279 0.44921 0.44299
 C276 C 0.06554 0.43109 0.42774
 H277 H 0.15043 0.36515 0.32019
 H278 H 0.15979 0.31841 0.39614
 H279 H 0.18644 0.29242 0.36595
 H280 H 0.17664 0.33912 0.28964
 H281 H 0.11072 0.42306 0.47842
 H282 H 0.08832 0.45469 0.50548
 H283 H 0.03695 0.45663 0.43246
 H284 H 0.05925 0.42469 0.40591
 C285 C 0.66469 -0.17412 0.37093
 C286 C 0.65474 -0.15362 0.35774
 C287 C 0.65970 -0.14851 0.32755
 C288 C 0.67472 -0.16366 0.31066
 C289 C 0.68502 -0.18418 0.32378
 C290 C 0.67971 -0.18934 0.35406
 C291 C 0.63999 -0.13743 0.37529
 C292 C 0.62792 -0.12343 0.38974
 C293 C 0.61414 -0.10654 0.40635
 C294 C 0.60271 -0.09169 0.42027
 C295 C 0.58948 -0.07343 0.43655
 C296 C 0.59670 -0.04931 0.43503
 C297 C 0.58399 -0.03141 0.45068
 C298 C 0.56384 -0.03739 0.46812
 C299 C 0.55666 -0.06169 0.46948
 C300 C 0.56943 -0.07960 0.45380
 H301 H 0.66105 -0.17819 0.39432
 H302 H 0.65207 -0.13271 0.31710
 H303 H 0.67818 -0.15940 0.28730
 H304 H 0.68757 -0.20483 0.36488
 H305 H 0.61213 -0.04432 0.42166
 H306 H 0.58974 -0.01284 0.44879
 H307 H 0.54136 -0.06687 0.48295
 H308 H 0.56370 -0.09822 0.45516
 C309 C 0.65950 0.35079 -0.16635
 C310 C 0.65441 0.34519 -0.13635
 C311 C 0.66409 0.32434 -0.12371
 C312 C 0.67897 0.30924 -0.14095
 C313 C 0.68439 0.31487 -0.17107
 C314 C 0.67437 0.33575 -0.18361
 C315 C 0.63964 0.36115 -0.11849
 C316 C 0.62745 0.37494 -0.10388
 C317 C 0.61339 0.39153 -0.08719
 C318 C 0.60157 0.40609 -0.07329
 C319 C 0.58769 0.42393 -0.05715
 C320 C 0.56698 0.43346 -0.07024
 C321 C 0.55410 0.45163 -0.05528
 C322 C 0.56182 0.46055 -0.02701
 C323 C 0.58247 0.45060 -0.01383
 C324 C 0.59532 0.43242 -0.02884
 H325 H 0.65206 0.36685 -0.17639
 H326 H 0.66033 0.31988 -0.10046
 H327 H 0.68661 0.29344 -0.13056
 H328 H 0.67790 0.34039 -0.20685
 H329 H 0.56098 0.42711 -0.09222
 H330 H 0.53845 0.45914 -0.06617
 H331 H 0.58868 0.45688 0.00807
 H332 H 0.61133 0.42516 -0.01850
 C333 C -0.16671 0.17453 -0.12249
 C334 C -0.15597 0.15448 -0.13614
 C335 C -0.15912 0.15022 -0.16697
 C336 C -0.17307 0.16582 -0.18417
 C337 C -0.18445 0.18633 -0.17096
 C338 C -0.18072 0.19024 -0.13950
 C339 C -0.14194 0.13800 -0.11856
 C340 C -0.13027 0.12389 -0.10423
 C341 C -0.11669 0.10700 -0.08791
 C342 C -0.10514 0.09230 -0.07437
 C343 C -0.09140 0.07441 -0.05870
 C344 C -0.07058 0.06492 -0.07185
 C345 C -0.05762 0.04696 -0.05722
 C346 C -0.06534 0.03820 -0.02920
 C347 C -0.08618 0.04800 -0.01602
 C348 C -0.09911 0.06599 -0.03070
 H349 H -0.16417 0.17814 -0.09859
 H350 H -0.15106 0.13455 -0.17775
 H351 H -0.17570 0.16057 -0.20749
 H352 H -0.18755 0.20592 -0.12766
 H353 H -0.06452 0.07122 -0.09359
 H354 H -0.04185 0.03955 -0.06813
 H355 H -0.09240 0.04184 0.00569
 H356 H -0.11520 0.07322 -0.02031
 C357 C -0.17727 0.66187 0.37332
 C358 C -0.15336 0.65752 0.36545
 C359 C -0.14340 0.66901 0.34049
 C360 C -0.15738 0.68458 0.32324
 C361 C -0.18154 0.68884 0.33073
 C362 C -0.19128 0.67744 0.35611
 C363 C -0.13933 0.64062 0.38239
 C364 C -0.12785 0.62609 0.39631
 C365 C -0.11473 0.60865 0.41231
 C366 C -0.10380 0.59339 0.42570
 C367 C -0.09111 0.57472 0.44133
 C368 C -0.07090 0.58029 0.45885
 C369 C -0.05858 0.56200 0.47380
 C370 C -0.06637 0.53790 0.47144
 C371 C -0.08672 0.53252 0.45379
 C372 C -0.09898 0.55081 0.43886
 H373 H -0.18520 0.65296 0.39250
 H374 H -0.12490 0.66577 0.33421
 H375 H -0.14928 0.69332 0.30407
 H376 H -0.20989 0.68007 0.36223
 H377 H -0.06467 0.59875 0.46095
 H378 H -0.04312 0.56673 0.48747
 H379 H -0.09295 0.51411 0.45114
 H380 H -0.11455 0.54628 0.42527
 C381 C 0.33718 0.14766 0.33291
 C382 C 0.34674 0.15550 0.36056
 C383 C 0.34215 0.17898 0.37105
 C384 C 0.32796 0.19452 0.35399
 C385 C 0.31820 0.18676 0.32620
 C386 C 0.32302 0.16315 0.31584
 C387 C 0.36092 0.13923 0.37823
 C388 C 0.37255 0.12513 0.39265
 C389 C 0.38586 0.10811 0.40909
 C390 C 0.39694 0.09313 0.42276
 C391 C 0.40981 0.07472 0.43862
 C392 C 0.42971 0.08068 0.45652
 C393 C 0.44224 0.06261 0.47163
 C394 C 0.43498 0.03836 0.46903
 C395 C 0.41495 0.03259 0.45099
 C396 C 0.40247 0.05065 0.43591
 H397 H 0.34053 0.12949 0.32465
 H398 H 0.34948 0.18524 0.39242
 H399 H 0.32479 0.21267 0.36241
 H400 H 0.31548 0.15650 0.29479
 H401 H 0.43553 0.09926 0.45880
 H402 H 0.45744 0.06763 0.48560
 H403 H 0.40914 0.01406 0.44815
 H404 H 0.38716 0.04582 0.42201
 C405 C 0.33523 0.64714 -0.16701
 C406 C 0.34498 0.65540 -0.13966
 C407 C 0.34065 0.67909 -0.12982
 C408 C 0.32655 0.69445 -0.14723
 C409 C 0.31662 0.68629 -0.17475
 C410 C 0.32115 0.66245 -0.18445
 C411 C 0.35923 0.63940 -0.12170
 C412 C 0.37101 0.62563 -0.10697
 C413 C 0.38461 0.60911 -0.09012
 C414 C 0.39607 0.59465 -0.07605
 C415 C 0.40954 0.57698 -0.05967
 C416 C 0.40134 0.56897 -0.03170
 C417 C 0.41386 0.55103 -0.01641
 C418 C 0.43477 0.54084 -0.02894
 C419 C 0.44303 0.54924 -0.05689
 C420 C 0.43048 0.56717 -0.07214
 H421 H 0.33839 0.62880 -0.17479
 H422 H 0.34816 0.68568 -0.10870
 H423 H 0.32362 0.71278 -0.13932
 H424 H 0.31348 0.65550 -0.20528
 H425 H 0.38516 0.57645 -0.02183
 H426 H 0.40722 0.54515 0.00524
 H427 H 0.45888 0.54154 -0.06731
 H428 H 0.43692 0.57315 -0.09385
 C429 C -0.14657 -0.16250 0.16472
 C430 C -0.15418 -0.15608 0.13591
 C431 C -0.17561 -0.16546 0.12439
 C432 C -0.18954 -0.18100 0.14170
 C433 C -0.18239 -0.18749 0.17118
 C434 C -0.16043 -0.17799 0.18218
 C435 C -0.14030 -0.13940 0.11848
 C436 C -0.12878 -0.12515 0.10419
 C437 C -0.11540 -0.10815 0.08782
 C438 C -0.10404 -0.09337 0.07417
 C439 C -0.09055 -0.07542 0.05829
 C440 C -0.09866 -0.06700 0.03045
 C441 C -0.08594 -0.04899 0.01554
 C442 C -0.06493 -0.03916 0.02832
 C443 C -0.05681 -0.04792 0.05618
 C444 C -0.06956 -0.06591 0.07105
 H445 H -0.12987 -0.15548 0.17378
 H446 H -0.18179 -0.16043 0.10215
 H447 H -0.20647 -0.18682 0.13219
 H448 H -0.15329 -0.18296 0.20391
 H449 H -0.11488 -0.07425 0.02036
 H450 H -0.09247 -0.04283 -0.00605
 H451 H -0.04089 -0.04049 0.06679
 H452 H -0.06318 -0.07221 0.09266
 C453 C -0.16008 0.32177 0.63051
 C454 C -0.15570 0.34535 0.64080
 C455 C -0.16523 0.35321 0.66842
 C456 C -0.17914 0.33764 0.68567
 C457 C -0.18374 0.31392 0.67552
 C458 C -0.17402 0.30614 0.64774
 C459 C -0.14170 0.36167 0.62299
 C460 C -0.13018 0.37574 0.60842
 C461 C -0.11693 0.39268 0.59178
 C462 C -0.10584 0.40754 0.57793
 C463 C -0.09286 0.42574 0.56182
 C464 C -0.09989 0.44990 0.56436
 C465 C -0.08725 0.46774 0.54911
 C466 C -0.06735 0.46166 0.53107
 C467 C -0.06042 0.43730 0.52859
 C468 C -0.07312 0.41946 0.54388
 H469 H -0.15275 0.31548 0.60918
 H470 H -0.16204 0.37146 0.67654
 H471 H -0.18666 0.34430 0.70670
 H472 H -0.17701 0.28791 0.63948
 H473 H -0.11508 0.45497 0.57829
 H474 H -0.09280 0.48635 0.55185
 H475 H -0.04534 0.43204 0.51462
 H476 H -0.06754 0.40080 0.54172
 C477 C 0.34151 -0.17878 0.62543
 C478 C 0.34590 -0.15521 0.63574
 C479 C 0.33610 -0.14725 0.66317
 C480 C 0.32193 -0.16273 0.68022
 C481 C 0.31734 -0.18645 0.67006
 C482 C 0.32730 -0.19432 0.64246
 C483 C 0.36017 -0.13897 0.61816
 C484 C 0.37188 -0.12489 0.60384
 C485 C 0.38530 -0.10787 0.58754
 C486 C 0.39648 -0.09288 0.57402
 C487 C 0.40946 -0.07445 0.55834
 C488 C 0.40205 -0.05041 0.56090
 C489 C 0.41462 -0.03232 0.54603
 C490 C 0.43482 -0.03802 0.52834
 C491 C 0.44216 -0.06225 0.52589
 C492 C 0.42953 -0.08035 0.54080
 H493 H 0.34903 -0.18513 0.60423
 H494 H 0.33929 -0.12901 0.67130
 H495 H 0.31422 -0.15600 0.70111
 H496 H 0.32432 -0.21254 0.63420
 H497 H 0.38661 -0.04562 0.57453
 H498 H 0.40875 -0.01380 0.54875
 H499 H 0.45750 -0.06723 0.51220
 H500 H 0.43541 -0.09891 0.53864
 C501 C 0.33385 0.35504 0.16517
 C502 C 0.34369 0.34724 0.13770
 C503 C 0.33975 0.32357 0.12748
 C504 C 0.32595 0.30777 0.14464
 C505 C 0.31593 0.31548 0.17228
 C506 C 0.32008 0.33930 0.18236
 C507 C 0.35762 0.36370 0.12000
 C508 C 0.36911 0.37787 0.10555
 C509 C 0.38237 0.39489 0.08907
 C510 C 0.39351 0.40980 0.07538
 C511 C 0.40661 0.42804 0.05951
 C512 C 0.42662 0.42183 0.04202
 C513 C 0.43953 0.43971 0.02712
 C514 C 0.43257 0.46406 0.02954
 C515 C 0.41236 0.47007 0.04707
 C516 C 0.39950 0.45218 0.06194
 H517 H 0.33671 0.37336 0.17324
 H518 H 0.34732 0.31733 0.10626
 H519 H 0.32331 0.28947 0.13644
 H520 H 0.31232 0.34589 0.20329
 H521 H 0.43226 0.40318 0.03996
 H522 H 0.45484 0.43449 0.01352
 H523 H 0.40675 0.48868 0.04973
 H524 H 0.38410 0.45720 0.07552
 C525 C 0.16563 0.17470 0.12582
 C526 C 0.15629 0.15365 0.13831
 C527 C 0.16151 0.14800 0.16828
 C528 C 0.17616 0.16322 0.18566
 C529 C 0.18583 0.18433 0.17327
 C530 C 0.18029 0.18998 0.14319
 C531 C 0.14169 0.13755 0.12035
 C532 C 0.12962 0.12369 0.10564
 C533 C 0.11565 0.10704 0.08884
 C534 C 0.10385 0.09249 0.07484
 C535 C 0.08991 0.07472 0.05859
 C536 C 0.06903 0.06539 0.07146
 C537 C 0.05598 0.04742 0.05631
 C538 C 0.06367 0.03849 0.02806
 C539 C 0.08454 0.04819 0.01514
 C540 C 0.09757 0.06618 0.03034
 H541 H 0.16177 0.17921 0.10260
 H542 H 0.15432 0.13178 0.17820
 H543 H 0.17979 0.15855 0.20887
 H544 H 0.18767 0.20595 0.13291
 H545 H 0.06301 0.07179 0.09339
 H546 H 0.04018 0.04010 0.06702
 H547 H 0.09075 0.04191 -0.00674
 H548 H 0.11370 0.07328 0.02016
 C549 C 0.15903 0.64871 0.66781
 C550 C 0.15410 0.65386 0.63761
 C551 C 0.16393 0.67447 0.62457
 C552 C 0.17883 0.68976 0.64160
 C553 C 0.18414 0.68454 0.67188
 C554 C 0.17393 0.66392 0.68484
 C555 C 0.13946 0.63757 0.61995
 C556 C 0.12746 0.62345 0.60556
 C557 C 0.11372 0.60635 0.58916
 C558 C 0.10227 0.59129 0.57555
 C559 C 0.08895 0.57277 0.55978
 C560 C 0.06894 0.57868 0.54228
 C561 C 0.05594 0.56050 0.52734
 C562 C 0.06283 0.53618 0.52974
 C563 C 0.08301 0.53049 0.54735
 C564 C 0.09595 0.54866 0.56224
 H565 H 0.15148 0.63282 0.67815
 H566 H 0.16030 0.67858 0.60118
 H567 H 0.18662 0.70535 0.63090
 H568 H 0.17737 0.65961 0.70821
 H569 H 0.06338 0.59730 0.54019
 H570 H 0.04065 0.56548 0.51370
 H571 H 0.08855 0.51192 0.55002
 H572 H 0.11134 0.54387 0.57584
 C573 C 0.65819 0.14948 0.67298
 C574 C 0.65313 0.15500 0.64292
 C575 C 0.66287 0.17579 0.63022
 C576 C 0.67782 0.19089 0.64743
 C577 C 0.68327 0.18531 0.67756
 C578 C 0.67314 0.16452 0.69020
 C579 C 0.63851 0.13888 0.62501
 C580 C 0.62657 0.12489 0.61031
 C581 C 0.61297 0.10797 0.59346
 C582 C 0.60169 0.09305 0.57938
 C583 C 0.58867 0.07469 0.56295
 C584 C 0.56869 0.08070 0.54545
 C585 C 0.55611 0.06269 0.52964
 C586 C 0.56343 0.03844 0.53112
 C587 C 0.58352 0.03262 0.54881
 C588 C 0.59604 0.05063 0.56458
 H589 H 0.65072 0.13345 0.68305
 H590 H 0.65915 0.18017 0.60692
 H591 H 0.68555 0.20661 0.63697
 H592 H 0.67669 0.15993 0.71345
 H593 H 0.56285 0.09928 0.54400
 H594 H 0.54086 0.06774 0.51598
 H595 H 0.58937 0.01409 0.55079
 H596 H 0.61142 0.04576 0.57815
 C597 C 0.66193 0.64779 0.17128
 C598 C 0.65693 0.65302 0.14112
 C599 C 0.66668 0.67370 0.12816
 C600 C 0.68149 0.68902 0.14524
 C601 C 0.68678 0.68380 0.17552
 C602 C 0.67674 0.66305 0.18838
 C603 C 0.64211 0.63692 0.12345
 C604 C 0.62984 0.62312 0.10892
 C605 C 0.61565 0.60661 0.09223
 C606 C 0.60367 0.59219 0.07827
 C607 C 0.58954 0.57461 0.06197
 C608 C 0.59737 0.56567 0.03398
 C609 C 0.58414 0.54787 0.01873
 C610 C 0.56289 0.53875 0.03132
 C611 C 0.55502 0.54808 0.05929
 C612 C 0.56828 0.56587 0.07451
 H613 H 0.65443 0.63185 0.18156
 H614 H 0.66299 0.67788 0.10479
 H615 H 0.68917 0.70469 0.13460
 H616 H 0.68018 0.65872 0.21174
 H617 H 0.61379 0.57233 0.02406
 H618 H 0.59050 0.54127 -0.00294
 H619 H 0.53891 0.54121 0.06975
 H620 H 0.56211 0.57258 0.09623
   
