data_POSCAR
  _audit_creation_date              2014-09-24
  _audit_creation_method            'ToBaCCo'
  _symmetry_space_group_name_H-M    'P1'
  _symmetry_Int_Tables_number       1
  _symmetry_cell_setting            triclinic
  loop_
  _symmetry_equiv_pos_as_xyz
 x,y,z
_cell_length_a 22.6293
_cell_length_b 22.3252
_cell_length_c 41.1036
_cell_angle_alpha 89.989100
_cell_angle_beta 89.998300
_cell_angle_gamma 119.582800
loop_
  _atom_site_label
  _atom_site_type_symbol
  _atom_site_fract_x
  _atom_site_fract_y
  _atom_site_fract_z
Zn1 Zn 0.95496 0.04516 1.01461
 Zn2 Zn 1.08778 0.04649 1.01380
 Zn3 Zn 0.95740 -0.08816 1.01469
 Zn4 Zn 0.99800 -0.00016 0.95554
 O5 O 0.99952 0.00082 0.99976
 O6 O 1.00766 0.11831 1.03962
 O7 O 1.10856 -0.00647 1.03882
 O8 O 0.88519 -0.10765 1.03978
 O9 O 1.10640 0.12041 1.03797
 O10 O 0.88256 -0.00980 1.03890
 O11 O 1.01245 -0.10609 1.03895
 O12 O 0.95689 -0.08482 0.93906
 O13 O 1.14823 0.07733 0.98102
 O14 O 0.92676 -0.15138 0.98262
 O15 O 1.08087 0.04220 0.93799
 O16 O 0.95386 0.04027 0.93883
 O17 O 0.92329 0.07626 0.98245
 C18 C 1.06983 0.14542 1.04763
 C19 C 1.07385 -0.06893 1.04774
 C20 C 0.85809 -0.07188 1.04810
 C21 C 0.92903 -0.14413 0.95193
 C22 C 1.13990 0.07262 0.95039
 C23 C 0.92478 0.07044 0.95177
 Zn24 Zn 0.04291 0.95318 0.51523
 Zn25 Zn -0.08836 0.95505 0.51329
 Zn26 Zn 0.04395 1.08798 0.51476
 Zn27 Zn 0.00299 1.00015 0.45560
 O28 O 0.00035 0.99908 0.49982
 O29 O -0.01171 0.88031 0.53981
 O30 O -0.10838 1.00971 0.53747
 O31 O 0.11613 1.10639 0.53957
 O32 O -0.10911 0.88099 0.53799
 O33 O 0.11452 1.00651 0.54033
 O34 O -0.01008 1.10697 0.53927
 O35 O 0.04489 1.08485 0.43913
 O36 O -0.14786 0.92437 0.48015
 O37 O 0.07516 1.15124 0.48273
 O38 O -0.07943 0.95802 0.43750
 O39 O 0.04736 0.95953 0.43949
 O40 O 0.07530 0.92190 0.48342
 C41 C -0.07375 0.85466 0.54779
 C42 C -0.07229 1.07149 0.54715
 C43 C 0.14103 1.06920 0.54882
 C44 C 0.07307 1.14412 0.45204
 C45 C -0.13878 0.92828 0.44957
 C46 C 0.07545 0.92866 0.45274
 O47 O 0.24065 0.57302 0.28881
 O48 O 0.23831 0.68699 0.28000
 C49 C 0.28153 0.74131 0.29454
 O50 O 0.34386 0.77411 0.28680
 O51 O 0.45765 0.77409 0.27604
 C52 C 0.46907 0.73180 0.29175
 O53 O 0.43730 0.66750 0.28635
 O54 O 0.32460 0.55126 0.27811
 C55 C 0.27282 0.54112 0.29442
 O56 O 0.23399 0.55172 0.22375
 O57 O 0.23573 0.66832 0.21511
 C58 C 0.26863 0.73176 0.20793
 O59 O 0.32320 0.77425 0.22222
 O60 O 0.43435 0.76952 0.21174
 C61 C 0.46484 0.73614 0.20555
 O62 O 0.45410 0.68266 0.22125
 O63 O 0.33830 0.56937 0.21342
 C64 C 0.27495 0.53929 0.20783
 Cr65 Cr 0.24114 0.62195 0.25183
 Cr66 Cr 0.38768 0.76892 0.24926
 Cr67 Cr 0.38664 0.61982 0.24980
 O68 O 0.33841 0.67024 0.25019
 O69 O 0.76048 0.42657 0.78823
 O70 O 0.76233 0.31243 0.77817
 C71 C 0.71943 0.25906 0.79357
 O72 O 0.65648 0.22700 0.78691
 O73 O 0.54215 0.22636 0.77612
 C74 C 0.53264 0.26859 0.79301
 O75 O 0.56562 0.33309 0.78831
 O76 O 0.67712 0.44952 0.77809
 C77 C 0.72909 0.45919 0.79410
 O78 O 0.76374 0.44865 0.72330
 O79 O 0.76147 0.33228 0.71324
 C80 C 0.72998 0.26831 0.70713
 O81 O 0.67718 0.22595 0.72265
 O82 O 0.56629 0.23181 0.71170
 C83 C 0.53364 0.26361 0.70684
 O84 O 0.54324 0.31544 0.72370
 O85 O 0.65847 0.42912 0.71372
 C86 C 0.72169 0.45997 0.70764
 Cr87 Cr 0.75828 0.37813 0.75071
 Cr88 Cr 0.61243 0.23163 0.74938
 Cr89 Cr 0.61297 0.37980 0.75092
 O90 O 0.66140 0.32994 0.75030
 C91 C 0.15903 0.32085 0.11178
 C92 C 0.08807 0.27748 0.11052
 C93 C 0.05900 0.22151 0.08915
 C94 C 0.10022 0.20678 0.06894
 C95 C 0.17096 0.25018 0.06992
 C96 C 0.19998 0.30688 0.09084
 C97 C 0.19020 0.37912 0.13538
 C98 C 0.25321 0.39776 0.15003
 C99 C 0.28151 0.45093 0.17290
 C100 C 0.24696 0.48595 0.18216
 C101 C 0.18435 0.46794 0.16744
 C102 C 0.15660 0.41560 0.14412
 H103 H 0.00433 0.18860 0.08909
 H104 H 0.20396 0.24046 0.05436
 H105 H 0.32956 0.46327 0.18407
 H106 H 0.15689 0.49455 0.17388
 H107 H 0.25459 0.33984 0.09050
 H108 H 0.28007 0.37015 0.14450
 H109 H 0.05484 0.28559 0.12663
 H110 H 0.10882 0.40393 0.13290
 C111 C 0.68246 0.84085 0.11064
 C112 C 0.69651 0.89692 0.09020
 C113 C 0.75348 0.92516 0.06990
 C114 C 0.79708 0.89721 0.06908
 C115 C 0.78241 0.84025 0.08883
 C116 C 0.72615 0.81278 0.10959
 C117 C 0.62379 0.81304 0.13358
 C118 C 0.58833 0.74255 0.14161
 C119 C 0.53602 0.71736 0.16461
 C120 C 0.51703 0.76177 0.17968
 C121 C 0.55076 0.83169 0.17097
 C122 C 0.60390 0.85715 0.14843
 H123 H 0.76314 0.96864 0.05465
 H124 H 0.81545 0.81797 0.08886
 H125 H 0.51044 0.66306 0.17065
 H126 H 0.53766 0.86726 0.18244
 H127 H 0.71797 0.77056 0.12538
 H128 H 0.60098 0.70667 0.13018
 H129 H 0.66337 0.91902 0.08973
 H130 H 0.63063 0.91187 0.14343
 C131 C 0.16131 0.84327 0.11200
 C132 C 0.10508 0.80077 0.09234
 C133 C 0.07694 0.82930 0.07138
 C134 C 0.10506 0.90105 0.06913
 C135 C 0.16213 0.94371 0.08812
 C136 C 0.18957 0.91519 0.10951
 C137 C 0.18938 0.81287 0.13552
 C138 C 0.25930 0.84657 0.14266
 C139 C 0.28504 0.81988 0.16595
 C140 C 0.24173 0.75820 0.18225
 C141 C 0.17224 0.72336 0.17455
 C142 C 0.14625 0.75066 0.15167
 H143 H 0.03330 0.79514 0.05679
 H144 H 0.18452 0.99920 0.08709
 H145 H 0.33900 0.84748 0.17114
 H146 H 0.13756 0.67599 0.18692
 H147 H 0.23196 0.94966 0.12465
 H148 H 0.29438 0.89363 0.13024
 H149 H 0.08279 0.74532 0.09300
 H150 H 0.09202 0.72379 0.14734
 C151 C 0.83523 0.67901 0.61186
 C152 C 0.90629 0.72120 0.61021
 C153 C 0.93574 0.77733 0.58897
 C154 C 0.89490 0.79351 0.56925
 C155 C 0.82397 0.75159 0.57076
 C156 C 0.79450 0.69465 0.59160
 C157 C 0.80399 0.62009 0.63513
 C158 C 0.74179 0.60200 0.65052
 C159 C 0.71402 0.54865 0.67337
 C160 C 0.74838 0.51296 0.68180
 C161 C 0.80993 0.53015 0.66619
 C162 C 0.83706 0.58258 0.64291
 H163 H 0.99055 0.80911 0.58855
 H164 H 0.79124 0.76251 0.55564
 H165 H 0.66673 0.53682 0.68522
 H166 H 0.83711 0.50291 0.67194
 H167 H 0.73974 0.66272 0.59166
 H168 H 0.71531 0.63028 0.64567
 H169 H 0.93941 0.71196 0.62586
 H170 H 0.88407 0.59365 0.63104
 C171 C 0.31593 0.15621 0.61189
 C172 C 0.27985 0.08499 0.60574
 C173 C 0.22361 0.05689 0.58498
 C174 C 0.20181 0.09928 0.57006
 C175 C 0.23825 0.17055 0.57591
 C176 C 0.29480 0.19871 0.59646
 C177 C 0.37389 0.18569 0.63512
 C178 C 0.38318 0.23896 0.65638
 C179 C 0.43586 0.26506 0.67912
 C180 C 0.48035 0.23823 0.68138
 C181 C 0.47174 0.18558 0.65986
 C182 C 0.41922 0.15975 0.63693
 H183 H 0.19649 0.00173 0.58108
 H184 H 0.22313 0.20469 0.56456
 H185 H 0.44072 0.30535 0.69542
 H186 H 0.50536 0.16404 0.66084
 H187 H 0.32212 0.25391 0.60020
 H188 H 0.34861 0.25938 0.65607
 H189 H 0.29402 0.05061 0.61759
 H190 H 0.41418 0.11948 0.62057
 C191 C 0.83954 0.15977 0.61077
 C192 C 0.79815 0.09721 0.59457
 C193 C 0.82661 0.06881 0.57372
 C194 C 0.89709 0.10259 0.56833
 C195 C 0.93835 0.16586 0.58394
 C196 C 0.90996 0.19397 0.60499
 C197 C 0.80979 0.18797 0.63446
 C198 C 0.83546 0.25941 0.63737
 C199 C 0.80926 0.28568 0.66070
 C200 C 0.75646 0.24106 0.68152
 C201 C 0.73004 0.16964 0.67821
 C202 C 0.75653 0.14348 0.65509
 H203 H 0.79336 0.02028 0.56186
 H204 H 0.99289 0.19309 0.58042
 H205 H 0.83045 0.34093 0.66247
 H206 H 0.68965 0.13376 0.69395
 H207 H 0.94351 0.24164 0.61740
 H208 H 0.87574 0.29511 0.62154
 H209 H 0.74360 0.07009 0.59798
 H210 H 0.73631 0.08831 0.65398
 C211 C 0.31282 0.15839 0.88632
 C212 C 0.24758 0.11254 0.87453
 C213 C 0.19160 0.08521 0.89534
 C214 C 0.19966 0.10257 0.92853
 C215 C 0.26500 0.14848 0.94039
 C216 C 0.32103 0.17655 0.91939
 C217 C 0.37175 0.18666 0.86392
 C218 C 0.41897 0.25747 0.86343
 C219 C 0.47193 0.28428 0.84069
 C220 C 0.47904 0.24058 0.81830
 C221 C 0.43280 0.16948 0.81956
 C222 C 0.37962 0.14292 0.84200
 H223 H 0.14200 0.04999 0.88543
 H224 H 0.27274 0.16297 0.96583
 H225 H 0.50685 0.33924 0.84041
 H226 H 0.43678 0.13431 0.80274
 H227 H 0.37092 0.21159 0.92907
 H228 H 0.41374 0.29227 0.88000
 H229 H 0.23977 0.09834 0.84905
 H230 H 0.34432 0.08803 0.84215
 C231 C 0.83983 0.67954 0.88858
 C232 C 0.85191 0.67171 0.92142
 C233 C 0.88048 0.72881 0.94227
 C234 C 0.89841 0.79474 0.93043
 C235 C 0.88695 0.80232 0.89747
 C236 C 0.85772 0.74537 0.87685
 C237 C 0.80847 0.61973 0.86627
 C238 C 0.75577 0.61122 0.84543
 C239 C 0.72905 0.55807 0.82263
 C240 C 0.75486 0.51247 0.81991
 C241 C 0.80659 0.51996 0.84133
 C242 C 0.83288 0.57292 0.86445
 H243 H 0.88891 0.72146 0.96753
 H244 H 0.90011 0.85235 0.88757
 H245 H 0.68912 0.55374 0.80662
 H246 H 0.82732 0.48546 0.83995
 H247 H 0.84966 0.75290 0.85155
 H248 H 0.73557 0.64620 0.84661
 H249 H 0.83829 0.62134 0.93102
 H250 H 0.87374 0.57868 0.88019
 C251 C 0.82867 0.15085 0.88904
 C252 C 0.83825 0.09631 0.87880
 C253 C 0.86986 0.07067 0.89920
 C254 C 0.89136 0.09818 0.93050
 C255 C 0.88074 0.15203 0.94100
 C256 C 0.85035 0.17874 0.92025
 C257 C 0.79786 0.17946 0.86662
 C258 C 0.83174 0.25012 0.85945
 C259 C 0.80574 0.27621 0.83598
 C260 C 0.74471 0.23226 0.81976
 C261 C 0.70958 0.16196 0.82787
 C262 C 0.73632 0.13569 0.85085
 H263 H 0.87705 0.02889 0.89054
 H264 H 0.89696 0.17420 0.96499
 H265 H 0.83364 0.33068 0.83032
 H266 H 0.66256 0.12692 0.81569
 H267 H 0.84333 0.22083 0.92859
 H268 H 0.87948 0.28467 0.87120
 H269 H 0.82242 0.07445 0.85472
 H270 H 0.70932 0.08103 0.85613
 C271 C 0.68954 0.84178 0.38475
 C272 C 0.75495 0.88775 0.37316
 C273 C 0.81057 0.91532 0.39421
 C274 C 0.80193 0.89813 0.42742
 C275 C 0.73642 0.85211 0.43906
 C276 C 0.68078 0.82377 0.41785
 C277 C 0.63091 0.81343 0.36218
 C278 C 0.58382 0.74259 0.36161
 C279 C 0.53073 0.71582 0.33894
 C280 C 0.52329 0.75962 0.31674
 C281 C 0.56956 0.83072 0.31799
 C282 C 0.62293 0.85722 0.34033
 H283 H 0.86033 0.95062 0.38447
 H284 H 0.72823 0.83774 0.46451
 H285 H 0.49580 0.66086 0.33865
 H286 H 0.56537 0.86594 0.30127
 H287 H 0.63075 0.78868 0.42737
 H288 H 0.58915 0.70775 0.37813
 H289 H 0.76314 0.90189 0.34768
 H290 H 0.65815 0.91213 0.34052
 C291 C 0.16411 0.32091 0.38898
 C292 C 0.14596 0.25507 0.37717
 C293 C 0.11616 0.19795 0.39769
 C294 C 0.10441 0.20538 0.43063
 C295 C 0.12277 0.27134 0.44256
 C296 C 0.15189 0.32859 0.42182
 C297 C 0.19533 0.38082 0.36672
 C298 C 0.24770 0.38939 0.34561
 C299 C 0.27400 0.44258 0.32280
 C300 C 0.24807 0.48812 0.32035
 C301 C 0.19678 0.48062 0.34207
 C302 C 0.17093 0.42766 0.36518
 H303 H 0.10271 0.14790 0.38774
 H304 H 0.11417 0.27858 0.46782
 H305 H 0.31359 0.44693 0.30653
 H306 H 0.17595 0.51505 0.34091
 H307 H 0.16570 0.37895 0.43148
 H308 H 0.26788 0.35437 0.34657
 H309 H 0.15408 0.24765 0.35186
 H310 H 0.13032 0.42187 0.38111
 C311 C 0.17387 0.84950 0.39077
 C312 C 0.15156 0.82134 0.42190
 C313 C 0.12041 0.84762 0.44242
 C314 C 0.10970 0.90133 0.43177
 C315 C 0.13199 0.92921 0.40058
 C316 C 0.16427 0.90396 0.38042
 C317 C 0.20486 0.82093 0.36842
 C318 C 0.26579 0.86483 0.35219
 C319 C 0.29213 0.83859 0.32898
 C320 C 0.25722 0.76816 0.32114
 C321 C 0.19701 0.72407 0.33793
 C322 C 0.17141 0.75015 0.36158
 H323 H 0.10365 0.82520 0.46633
 H324 H 0.12479 0.97092 0.39181
 H325 H 0.33854 0.87375 0.31638
 H326 H 0.16930 0.66948 0.33252
 H327 H 0.18048 0.92599 0.35639
 H328 H 0.29252 0.91960 0.35721
 H329 H 0.15855 0.77929 0.43033
 H330 H 0.12413 0.71546 0.37367
   
