data_POSCAR
  _audit_creation_date              2014-09-24
  _audit_creation_method            'ToBaCCo'
  _symmetry_space_group_name_H-M    'P1'
  _symmetry_Int_Tables_number       1
  _symmetry_cell_setting            triclinic
  loop_
  _symmetry_equiv_pos_as_xyz
 x,y,z
_cell_length_a 25.3469
_cell_length_b 25.3467
_cell_length_c 23.6066
_cell_angle_alpha 54.413000
_cell_angle_beta 54.358000
_cell_angle_gamma 101.743300
loop_
  _atom_site_label
  _atom_site_type_symbol
  _atom_site_fract_x
  _atom_site_fract_y
  _atom_site_fract_z
O1 O 0.46461 0.39857 0.14806
 O2 O 0.35729 0.42463 0.09145
 O3 O 0.42413 0.35880 0.09058
 O4 O 0.39758 0.46456 0.14902
 O5 O 0.57353 0.64016 -0.08892
 O6 O 0.59981 0.53446 -0.14750
 O7 O 0.53276 0.60051 -0.14625
 O8 O 0.64023 0.57426 -0.08998
 Cu9 Cu 0.39321 0.39393 0.14373
 Cu10 Cu 0.60427 0.60505 -0.14212
 C11 C 0.57100 0.48169 0.03822
 C12 C 0.42638 0.51741 -0.03663
 C13 C 0.51668 0.42824 -0.03783
 C14 C 0.48087 0.57075 0.03943
 O15 O -0.10367 0.48069 0.62417
 O16 O -0.07766 0.34952 0.60966
 O17 O -0.05762 0.39913 0.67291
 O18 O -0.12390 0.43119 0.56153
 O19 O 0.05795 0.60185 0.32761
 O20 O 0.12413 0.56998 0.43902
 O21 O 0.10415 0.52048 0.37618
 O22 O 0.07787 0.65165 0.39061
 Cu23 Cu -0.10882 0.39860 0.64003
 Cu24 Cu 0.10913 0.60246 0.36047
 C25 C -0.01845 0.58740 0.51184
 C26 C 0.01871 0.41387 0.48845
 C27 C 0.04517 0.48092 0.57404
 C28 C -0.04488 0.52023 0.42647
 O29 O 0.57013 0.12370 0.43966
 O30 O 0.60112 0.05824 0.32736
 O31 O 0.52071 0.10508 0.37616
 O32 O 0.65143 0.07772 0.39000
 O33 O 0.48032 -0.10398 0.62363
 O34 O 0.34962 -0.07677 0.60952
 O35 O 0.43042 -0.12357 0.56118
 O36 O 0.39911 -0.05789 0.67328
 Cu37 Cu 0.60242 0.10936 0.36029
 Cu38 Cu 0.39826 -0.10869 0.63991
 C39 C 0.48121 0.04463 0.57487
 C40 C 0.51939 -0.04445 0.42603
 C41 C 0.41404 0.01971 0.48855
 C42 C 0.58707 -0.01868 0.51094
 O43 O 0.37471 -0.07027 0.06171
 O44 O 0.44133 -0.10088 0.17257
 O45 O 0.39445 -0.02046 0.12432
 O46 O 0.42154 -0.15102 0.10993
 O47 O 0.60334 0.01999 -0.12377
 O48 O 0.57623 0.15057 -0.10938
 O49 O 0.62313 0.06990 -0.06141
 O50 O 0.55651 0.10049 -0.17227
 Cu51 Cu 0.38983 -0.10224 0.14015
 Cu52 Cu 0.60797 0.10187 -0.13978
 C53 C 0.45371 0.01858 -0.07336
 C54 C 0.54415 -0.01905 0.07365
 C55 C 0.47985 0.08617 0.01180
 C56 C 0.51797 -0.08668 -0.01112
 O57 O 0.01980 0.60354 0.87716
 O58 O 0.15124 0.57765 0.89125
 O59 O 0.10162 0.55778 0.82799
 O60 O 0.06960 0.62402 0.93941
 O61 O -0.10120 0.44233 1.17331
 O62 O -0.06913 0.37601 1.06187
 O63 O -0.01982 0.39600 1.12486
 O64 O -0.15119 0.42183 1.11069
 Cu65 Cu 0.10209 0.60885 0.86102
 Cu66 Cu -0.10185 0.39093 1.14064
 C67 C -0.08692 0.51807 0.98961
 C68 C 0.08689 0.48139 1.01242
 C69 C 0.01995 0.45505 0.92676
 C70 C -0.01952 0.54510 1.07445
 O71 O 0.10243 0.03447 0.35097
 O72 O 0.07629 0.14201 0.40732
 O73 O 0.14218 0.07523 0.40835
 O74 O 0.03642 0.10160 0.34989
 O75 O -0.13936 -0.07408 0.58792
 O76 O -0.03362 -0.10047 0.64634
 O77 O -0.09964 -0.03347 0.64530
 O78 O -0.07358 -0.14095 0.58893
 Cu79 Cu 0.10708 0.10600 0.35514
 Cu80 Cu -0.10427 -0.10493 0.64109
 C81 C 0.01914 -0.07185 0.46081
 C82 C -0.01646 0.07284 0.53549
 C83 C 0.07264 -0.01730 0.53677
 C84 C -0.06988 0.01850 0.45957
 C85 C -0.22453 0.55312 0.95040
 C86 C -0.29607 0.44952 1.08694
 N87 N -0.41012 0.35921 1.20623
 C88 C -0.45586 0.36752 1.19496
 C89 C -0.38416 0.47071 1.05770
 N90 N -0.26997 0.56115 0.93884
 N91 N -0.11059 0.64350 0.83096
 C92 C -0.06454 0.63500 0.84139
 C93 C -0.13555 0.53092 0.97748
 N94 N -0.25011 0.44053 1.09739
 H95 H -0.54699 0.29378 1.29167
 H96 H 0.02682 0.70856 0.74375
 C97 C 0.22415 0.44608 1.05219
 C98 C 0.29587 0.54915 0.91520
 N99 N 0.41001 0.63886 0.79555
 C100 C 0.45578 0.63062 0.80678
 C101 C 0.38390 0.52796 0.94479
 N102 N 0.26952 0.43808 1.06387
 N103 N 0.11011 0.35615 1.17194
 C104 C 0.06415 0.36468 1.16135
 C105 C 0.13538 0.46838 1.02477
 N106 N 0.25003 0.55825 0.90457
 H107 H 0.54712 0.70419 0.70928
 H108 H -0.02729 0.29150 1.25923
 C109 C 0.05120 -0.20555 0.41329
 C110 C -0.05296 -0.27652 0.54896
 N111 N -0.14401 -0.39022 0.66808
 C112 C -0.13572 -0.43673 0.65839
 C113 C -0.03080 -0.36637 0.52316
 N114 N 0.06013 -0.25190 0.40352
 N115 N 0.14209 -0.09164 0.29417
 C116 C 0.13382 -0.04558 0.30489
 C117 C 0.03009 -0.11682 0.44150
 N118 N -0.06093 -0.23082 0.56009
 H119 H -0.21021 -0.52800 0.75619
 H120 H 0.20801 0.04539 0.20837
 C121 C -0.04938 0.20529 0.58486
 C122 C 0.05444 0.27692 0.44824
 N123 N 0.14479 0.39076 0.32900
 C124 C 0.13605 0.43660 0.33972
 C125 C 0.03178 0.36547 0.47595
 N126 N -0.05859 0.25104 0.59563
 N127 N -0.13968 0.09136 0.70394
 C128 C -0.13113 0.04582 0.69241
 C129 C -0.02766 0.11758 0.55510
 N130 N 0.06274 0.23168 0.43641
 H131 H 0.20958 0.52788 0.24223
 H132 H -0.20488 -0.04523 0.78897
 C133 C 0.39403 -0.00105 -0.19640
 C134 C 0.49773 0.10388 -0.30301
 N135 N 0.58434 0.19279 -0.44732
 C136 C 0.57463 0.17899 -0.48979
 C137 C 0.47797 0.06918 -0.38404
 N138 N 0.38745 -0.01718 -0.23890
 N139 N 0.30533 -0.08809 -0.05198
 C140 C 0.31843 -0.07726 -0.00973
 C141 C 0.42726 0.02138 -0.11592
 N142 N 0.51338 0.11179 -0.26087
 H143 H 0.64585 0.25128 -0.60582
 H144 H 0.24675 -0.14867 0.10618
 C145 C 0.60518 -0.00046 0.19616
 C146 C 0.50071 -0.10492 0.30308
 N147 N 0.41396 -0.19354 0.44737
 C148 C 0.42455 -0.17988 0.48939
 C149 C 0.52261 -0.07071 0.38317
 N150 N 0.61277 0.01555 0.23821
 N151 N 0.69370 0.08642 0.05185
 C152 C 0.67989 0.07592 0.00986
 C153 C 0.57068 -0.02220 0.11620
 N154 N 0.48455 -0.11246 0.26112
 H155 H 0.35333 -0.25155 0.60525
 H156 H 0.75146 0.14722 -0.10598
 C157 C 0.55297 -0.22488 -0.04876
 C158 C 0.44927 -0.29610 0.08752
 N159 N 0.35863 -0.41010 0.20703
 C160 C 0.36674 -0.45608 0.19615
 C161 C 0.47004 -0.38462 0.05909
 N162 N 0.56077 -0.27055 -0.05989
 N163 N 0.64360 -0.11098 -0.16850
 C164 C 0.63521 -0.06463 -0.15861
 C165 C 0.53101 -0.13536 -0.02281
 N166 N 0.44042 -0.24985 0.09740
 H167 H 0.29276 -0.54714 0.29289
 H168 H 0.70888 0.02670 -0.25644
 C169 C 0.44502 0.22391 0.05039
 C170 C 0.54838 0.29532 -0.08630
 N171 N 0.63872 0.40938 -0.20596
 C172 C 0.63061 0.45525 -0.19489
 C173 C 0.52757 0.38364 -0.05751
 N174 N 0.43719 0.26949 0.06167
 N175 N 0.35474 0.10994 0.17032
 C176 C 0.36313 0.06373 0.16018
 C177 C 0.46690 0.13468 0.02386
 N178 N 0.55720 0.24922 -0.09647
 H179 H 0.70435 0.54637 -0.29178
 H180 H 0.28976 -0.02766 0.25818
 C181 C -0.20328 0.05033 0.41206
 C182 C -0.27438 -0.05364 0.54790
 N183 N -0.38828 -0.14450 0.66744
 C184 C -0.43475 -0.13611 0.65777
 C185 C -0.36414 -0.03170 0.52240
 N186 N -0.24965 0.05914 0.40240
 N187 N -0.08929 0.14123 0.29277
 C188 C -0.04320 0.13310 0.30344
 C189 C -0.11455 0.02946 0.44005
 N190 N -0.22861 -0.06148 0.55883
 H191 H -0.52609 -0.20997 0.75544
 H192 H 0.04782 0.20730 0.20693
 C193 C 0.20510 -0.04896 0.58600
 C194 C 0.27658 0.05473 0.44958
 N195 N 0.39047 0.14533 0.33017
 C196 C 0.43655 0.13693 0.34053
 C197 C 0.36557 0.03278 0.47650
 N198 N 0.25109 -0.05780 0.59636
 N199 N 0.09112 -0.13959 0.70517
 C200 C 0.04540 -0.13148 0.69385
 C201 C 0.11710 -0.02816 0.55668
 N202 N 0.23117 0.06255 0.43799
 H203 H 0.52790 0.21057 0.24292
 H204 H -0.04566 -0.20545 0.79036
 C205 C -0.00123 0.60627 1.19692
 C206 C -0.10574 0.50184 1.30384
 N207 N -0.19436 0.41505 1.44815
 C208 C -0.18062 0.42555 1.49017
 C209 C -0.07140 0.52361 1.38387
 N210 N 0.01482 0.61381 1.23895
 N211 N 0.08576 0.69471 1.05260
 C212 C 0.07533 0.68089 1.01060
 C213 C -0.02287 0.57173 1.11695
 N214 N -0.11323 0.48568 1.26186
 H215 H -0.25220 0.35421 1.60604
 H216 H 0.14680 0.75237 0.89472
 C217 C 0.00173 0.39472 0.80354
 C218 C 0.10613 0.49918 0.69674
 N219 N 0.19461 0.58627 0.55237
 C220 C 0.18089 0.57599 0.51021
 C221 C 0.07177 0.47771 0.61653
 N222 N -0.01433 0.38730 0.76145
 N223 N -0.08513 0.30605 0.94788
 C224 C -0.07473 0.31963 0.99008
 C225 C 0.02335 0.42871 0.88394
 N226 N 0.11359 0.51502 0.73896
 H227 H 0.25240 0.64756 0.39430
 H228 H -0.14613 0.24799 1.10597
   
