data_POSCAR
  _audit_creation_date              2014-09-24
  _audit_creation_method            'ToBaCCo'
  _symmetry_space_group_name_H-M    'P1'
  _symmetry_Int_Tables_number       1
  _symmetry_cell_setting            triclinic
  loop_
  _symmetry_equiv_pos_as_xyz
 x,y,z
_cell_length_a 63.6516
_cell_length_b 63.6801
_cell_length_c 19.6951
_cell_angle_alpha 89.911000
_cell_angle_beta 90.096100
_cell_angle_gamma 120.027600
loop_
  _atom_site_label
  _atom_site_type_symbol
  _atom_site_fract_x
  _atom_site_fract_y
  _atom_site_fract_z
C1 C 0.24390 0.48832 0.52955
 C2 C 0.24362 0.48832 0.46029
 C3 C 0.22291 0.48687 0.42150
 C4 C 0.26392 0.48954 0.41999
 C5 C 0.26314 0.48681 0.56835
 C6 C 0.22486 0.48959 0.56988
 C7 C 0.19910 0.46788 0.43286
 C8 C 0.17966 0.46714 0.39764
 C9 C 0.18384 0.48524 0.35011
 C10 C 0.20762 0.50389 0.33740
 C11 C 0.22705 0.50463 0.37271
 C12 C 0.25918 0.47167 0.37109
 C13 C 0.27822 0.47204 0.33483
 C14 C 0.30217 0.49040 0.34664
 C15 C 0.30697 0.50863 0.39407
 C16 C 0.28793 0.50829 0.43032
 C17 C 0.27680 0.50456 0.61708
 C18 C 0.29543 0.50372 0.65243
 C19 C 0.30044 0.48503 0.63983
 C20 C 0.28651 0.46697 0.59242
 C21 C 0.26786 0.46777 0.55710
 C22 C 0.21968 0.50839 0.55949
 C23 C 0.20107 0.50882 0.59596
 C24 C 0.18765 0.49065 0.64365
 C25 C 0.19315 0.47224 0.65546
 C26 C 0.21172 0.47177 0.61899
 H27 H 0.19559 0.45376 0.46935
 H28 H 0.16140 0.45251 0.40789
 H29 H 0.21121 0.51801 0.30070
 H30 H 0.24529 0.51932 0.36296
 H31 H 0.24079 0.45714 0.36214
 H32 H 0.27430 0.45787 0.29820
 H33 H 0.29192 0.52249 0.46690
 H34 H 0.27333 0.51928 0.62676
 H35 H 0.30606 0.51776 0.68912
 H36 H 0.29016 0.45237 0.58251
 H37 H 0.25721 0.45365 0.52066
 H38 H 0.22990 0.52255 0.52275
 H39 H 0.19703 0.52320 0.58659
 H40 H 0.18290 0.45811 0.69230
 H41 H 0.21553 0.45721 0.62799
 H42 H 0.32542 0.52297 0.40344
 C43 C 0.51167 -0.24464 0.53601
 C44 C 0.51169 -0.24475 0.46674
 C45 C 0.51318 -0.26390 0.42767
 C46 C 0.51047 -0.22560 0.42667
 C47 C 0.51314 -0.22401 0.57504
 C48 C 0.51041 -0.26504 0.57606
 C49 C 0.53220 -0.26869 0.43887
 C50 C 0.53300 -0.28723 0.40317
 C51 C 0.51496 -0.30098 0.35545
 C52 C 0.49629 -0.29591 0.34294
 C53 C 0.49545 -0.27739 0.37866
 C54 C 0.52834 -0.21236 0.37780
 C55 C 0.52790 -0.19370 0.34156
 C56 C 0.50949 -0.18822 0.35337
 C57 C 0.49127 -0.20174 0.40082
 C58 C 0.49167 -0.22044 0.43705
 C59 C 0.49533 -0.22822 0.62366
 C60 C 0.49608 -0.20884 0.65899
 C61 C 0.51474 -0.18509 0.64650
 C62 C 0.53288 -0.18083 0.59928
 C63 C 0.53217 -0.20019 0.56397
 C64 C 0.49164 -0.28901 0.56536
 C65 C 0.49126 -0.30814 0.60131
 C66 C 0.50949 -0.30349 0.64886
 C67 C 0.52787 -0.27957 0.66103
 C68 C 0.52826 -0.26044 0.62504
 H69 H 0.54630 -0.25818 0.47552
 H70 H 0.54759 -0.29093 0.41302
 H71 H 0.48227 -0.30640 0.30602
 H72 H 0.48074 -0.27386 0.36902
 H73 H 0.54289 -0.21616 0.36881
 H74 H 0.54207 -0.18337 0.30491
 H75 H 0.47747 -0.23074 0.47360
 H76 H 0.48061 -0.24646 0.63319
 H77 H 0.48198 -0.21235 0.69553
 H78 H 0.54746 -0.16254 0.58945
 H79 H 0.54633 -0.19662 0.52761
 H80 H 0.47746 -0.29288 0.52870
 H81 H 0.47687 -0.32654 0.59153
 H82 H 0.54207 -0.27569 0.69772
 H83 H 0.54280 -0.24209 0.63426
 H84 H 0.47689 -0.19771 0.41017
 C85 C 1.24421 0.75629 0.53672
 C86 C 1.24448 0.75652 0.46745
 C87 C 1.26375 0.77721 0.42866
 C88 C 1.22540 0.73620 0.42710
 C89 C 1.22347 0.73706 0.57544
 C90 C 1.26454 0.77537 0.57708
 C91 C 1.26855 0.80101 0.43979
 C92 C 1.28719 0.82041 0.40436
 C93 C 1.30104 0.81619 0.35692
 C94 C 1.29595 0.79244 0.34449
 C95 C 1.27733 0.77304 0.37997
 C96 C 1.21228 0.74091 0.37790
 C97 C 1.19369 0.72186 0.34136
 C98 C 1.18815 0.69794 0.35321
 C99 C 1.20155 0.69318 0.40100
 C100 C 1.22018 0.71222 0.43753
 C101 C 1.22757 0.72341 0.62427
 C102 C 1.20811 0.70474 0.65942
 C103 C 1.18437 0.69966 0.64651
 C104 C 1.18022 0.71359 0.59900
 C105 C 1.19968 0.73228 0.56391
 C106 C 1.28853 0.78056 0.56688
 C107 C 1.30760 0.79925 0.60319
 C108 C 1.30287 0.81274 0.65060
 C109 C 1.27892 0.80720 0.66226
 C110 C 1.25986 0.78854 0.62590
 H111 H 1.25796 0.80455 0.47619
 H112 H 1.29084 0.83868 0.41429
 H113 H 1.30647 0.78889 0.30782
 H114 H 1.27379 0.75481 0.37039
 H115 H 1.21612 0.75928 0.36886
 H116 H 1.18346 0.72575 0.30444
 H117 H 1.23038 0.70826 0.47435
 H118 H 1.24580 0.72693 0.63415
 H119 H 1.21161 0.69415 0.69614
 H120 H 1.16196 0.70995 0.58871
 H121 H 1.19620 0.74291 0.52738
 H122 H 1.29247 0.77031 0.53035
 H123 H 1.32603 0.80327 0.59381
 H124 H 1.27497 0.81745 0.69884
 H125 H 1.24148 0.78471 0.63474
 H126 H 1.19747 0.67475 0.41040
 C127 C 0.75608 0.51196 0.53672
 C128 C 0.75622 0.51194 0.46745
 C129 C 0.77688 0.51343 0.42849
 C130 C 0.73583 0.51067 0.42728
 C131 C 0.73689 0.51344 0.57564
 C132 C 0.77523 0.51075 0.57688
 C133 C 0.80069 0.53247 0.43958
 C134 C 0.82007 0.53326 0.40408
 C135 C 0.81581 0.51518 0.35665
 C136 C 0.79206 0.49649 0.34422
 C137 C 0.77268 0.49568 0.37974
 C138 C 0.74046 0.52848 0.37815
 C139 C 0.72135 0.52800 0.34178
 C140 C 0.69744 0.50960 0.35372
 C141 C 0.69274 0.49145 0.40144
 C142 C 0.71185 0.49189 0.43780
 C143 C 0.72331 0.49567 0.62443
 C144 C 0.70466 0.49642 0.65974
 C145 C 0.69955 0.51507 0.64703
 C146 C 0.71344 0.53317 0.59958
 C147 C 0.73210 0.53244 0.56433
 C148 C 0.78044 0.49200 0.56648
 C149 C 0.79919 0.49164 0.60262
 C150 C 0.81274 0.50988 0.65007
 C151 C 0.80718 0.52825 0.66194
 C152 C 0.78846 0.52862 0.62575
 H153 H 0.80426 0.54660 0.47603
 H154 H 0.83836 0.54786 0.41387
 H155 H 0.78856 0.48245 0.30752
 H156 H 0.75443 0.48095 0.37019
 H157 H 0.75882 0.54303 0.36904
 H158 H 0.72519 0.54212 0.30492
 H159 H 0.70794 0.47773 0.47456
 H160 H 0.72684 0.48097 0.63413
 H161 H 0.69411 0.48232 0.69641
 H162 H 0.70978 0.54777 0.58945
 H163 H 0.74269 0.54657 0.52783
 H164 H 0.77015 0.47780 0.52991
 H165 H 0.80321 0.47726 0.59307
 H166 H 0.81748 0.54245 0.69855
 H167 H 0.78463 0.54315 0.63475
 H168 H 0.67432 0.47707 0.41091
 C169 C 0.48784 0.24366 0.53772
 C170 C 0.48776 0.24374 0.46845
 C171 C 0.48630 0.26290 0.42920
 C172 C 0.48891 0.22455 0.42855
 C173 C 0.48631 0.22300 0.57694
 C174 C 0.48920 0.26411 0.57757
 C175 C 0.46732 0.26774 0.44027
 C176 C 0.46654 0.28630 0.40442
 C177 C 0.48456 0.30001 0.35667
 C178 C 0.50319 0.29489 0.34428
 C179 C 0.50400 0.27635 0.38015
 C180 C 0.47104 0.21137 0.37959
 C181 C 0.47143 0.19271 0.34337
 C182 C 0.48982 0.18718 0.35531
 C183 C 0.50803 0.20063 0.40291
 C184 C 0.50767 0.21932 0.43911
 C185 C 0.50412 0.22716 0.62562
 C186 C 0.50334 0.20776 0.66112
 C187 C 0.48461 0.18401 0.64873
 C188 C 0.46645 0.17981 0.60141
 C189 C 0.46722 0.19921 0.56596
 C190 C 0.50802 0.28804 0.56670
 C191 C 0.50850 0.30723 0.60247
 C192 C 0.49034 0.30266 0.65001
 C193 C 0.47192 0.27877 0.66236
 C194 C 0.47142 0.25959 0.62655
 H195 H 0.45324 0.25726 0.47695
 H196 H 0.45199 0.29004 0.41417
 H197 H 0.51719 0.30535 0.30734
 H198 H 0.51868 0.27278 0.37062
 H199 H 0.45651 0.21521 0.37045
 H200 H 0.45727 0.18245 0.30661
 H201 H 0.52188 0.22957 0.47573
 H202 H 0.51889 0.24538 0.63507
 H203 H 0.51748 0.21129 0.69770
 H204 H 0.45178 0.16155 0.59152
 H205 H 0.45306 0.19569 0.52956
 H206 H 0.52215 0.29185 0.53004
 H207 H 0.52292 0.32561 0.59255
 H208 H 0.45777 0.27495 0.69905
 H209 H 0.45685 0.24126 0.63591
 H210 H 0.52239 0.19656 0.41237
 C211 C 0.75632 0.24465 0.53640
 C212 C 0.75618 0.24441 0.46714
 C213 C 0.73699 0.22371 0.42823
 C214 C 0.77534 0.26471 0.42692
 C215 C 0.77700 0.26387 0.57535
 C216 C 0.73591 0.22558 0.57654
 C217 C 0.73217 0.19991 0.43973
 C218 C 0.71355 0.18050 0.40431
 C219 C 0.69974 0.18471 0.35656
 C220 C 0.70484 0.20843 0.34370
 C221 C 0.72344 0.22785 0.37914
 C222 C 0.78852 0.25999 0.37817
 C223 C 0.80718 0.27902 0.34177
 C224 C 0.81273 0.30295 0.35330
 C225 C 0.79927 0.30774 0.40065
 C226 C 0.78057 0.28871 0.43703
 C227 C 0.77283 0.27754 0.62376
 C228 C 0.79224 0.29621 0.65908
 C229 C 0.81600 0.30126 0.64678
 C230 C 0.82021 0.28730 0.59970
 C231 C 0.80080 0.26861 0.56444
 C232 C 0.71194 0.22038 0.56572
 C233 C 0.69280 0.20168 0.60181
 C234 C 0.69746 0.18820 0.64958
 C235 C 0.72136 0.19374 0.66188
 C236 C 0.74050 0.21240 0.62577
 H237 H 0.74273 0.19639 0.47645
 H238 H 0.70983 0.16222 0.41442
 H239 H 0.69430 0.21189 0.30675
 H240 H 0.72699 0.24608 0.36928
 H241 H 0.78468 0.24162 0.36938
 H242 H 0.81746 0.27511 0.30520
 H243 H 0.77032 0.29268 0.47349
 H244 H 0.75459 0.27404 0.63316
 H245 H 0.78870 0.30682 0.69547
 H246 H 0.83848 0.29092 0.58988
 H247 H 0.80432 0.25796 0.52824
 H248 H 0.70806 0.23063 0.52886
 H249 H 0.67438 0.19761 0.59206
 H250 H 0.72517 0.18344 0.69878
 H251 H 0.75886 0.21621 0.63510
 H252 H 0.80334 0.32617 0.40979
 N253 N 1.02605 0.53577 0.11905
 N254 N 1.04429 0.54766 0.16160
 N255 N 0.97494 0.52489 0.07249
 N256 N 0.95712 0.52946 0.08285
 N257 N 0.97500 0.51029 0.11957
 N258 N 0.95723 0.50451 0.16332
 N259 N 1.02600 0.55041 0.07204
 N260 N 1.04422 0.57268 0.08129
 C261 C 1.05540 0.57058 0.13720
 C262 C 0.94627 0.51654 0.13945
 N263 N 0.97460 0.51026 -0.12100
 N264 N 0.95631 0.50392 -0.16339
 N265 N 1.02571 0.55044 -0.07428
 N266 N 1.04355 0.57285 -0.08439
 N267 N 1.02566 0.53588 -0.12152
 N268 N 1.04347 0.54797 -0.16514
 N269 N 0.97464 0.52485 -0.07383
 N270 N 0.95636 0.52884 -0.08281
 Mn271 Mn 1.00032 0.53789 -0.00090
 C272 C 0.94517 0.51563 -0.13874
 C273 C 1.05443 0.57091 -0.14102
 N274 N 0.97496 0.46503 0.11925
 N275 N 0.95680 0.45313 0.16196
 N276 N 1.02594 0.47594 0.07171
 N277 N 1.04377 0.47135 0.08167
 N278 N 1.02601 0.49051 0.11893
 N279 N 1.04389 0.49626 0.16240
 N280 N 0.97487 0.45042 0.07208
 N281 N 0.95664 0.42816 0.08139
 Mn282 Mn 1.00051 0.50040 0.11997
 C283 C 0.94560 0.43024 0.13752
 C284 C 1.05478 0.48423 0.13818
 N285 N 1.02572 0.49067 -0.12164
 N286 N 1.04387 0.49701 -0.16442
 N287 N 0.97476 0.45047 -0.07423
 N288 N 0.95691 0.42806 -0.08426
 N289 N 0.97468 0.46506 -0.12132
 N290 N 0.95677 0.45299 -0.16475
 N291 N 1.02582 0.47606 -0.07462
 N292 N 1.04405 0.47205 -0.08408
 Mn293 Mn 1.00016 0.50047 -0.12215
 Mn294 Mn 1.00035 0.46298 -0.00127
 Cl295 Cl 1.00034 0.50044 -0.00109
 C296 C 1.05508 0.48527 -0.14015
 C297 C 0.94589 0.43003 -0.14066
 N298 N 0.53522 0.50942 0.11833
 N299 N 0.54705 0.50309 0.16122
 N300 N 0.52445 0.54960 0.07080
 N301 N 0.52909 0.57201 0.08102
 N302 N 0.50978 0.53498 0.11778
 N303 N 0.50401 0.54703 0.16131
 N304 N 0.54993 0.52405 0.07141
 N305 N 0.57219 0.52809 0.08105
 C306 C 0.57000 0.51485 0.13712
 C307 C 0.51613 0.57001 0.13741
 N308 N 0.51005 0.53508 -0.12280
 N309 N 0.50371 0.54696 -0.16541
 N310 N 0.55015 0.52421 -0.07491
 N311 N 0.57258 0.52881 -0.08465
 N312 N 0.53563 0.50964 -0.12223
 N313 N 0.54777 0.50391 -0.16554
 N314 N 0.52458 0.54967 -0.07552
 N315 N 0.52854 0.57192 -0.08464
 Mn316 Mn 0.53752 0.53713 -0.00206
 C317 C 0.51537 0.56984 -0.14078
 C318 C 0.57070 0.51594 -0.14112
 N319 N 0.46447 0.48976 0.11713
 N320 N 0.45253 0.49610 0.15935
 N321 N 0.47538 0.44962 0.07061
 N322 N 0.47075 0.42721 0.08091
 N323 N 0.48991 0.46419 0.11792
 N324 N 0.49558 0.45211 0.16177
 N325 N 0.44991 0.47518 0.06987
 N326 N 0.42763 0.47119 0.07862
 Mn327 Mn 0.49984 0.49958 0.11856
 C328 C 0.42966 0.48439 0.13451
 C329 C 0.48356 0.42916 0.13770
 N330 N 0.49038 0.46434 -0.12265
 N331 N 0.49678 0.45248 -0.16497
 N332 N 0.45013 0.47516 -0.07644
 N333 N 0.42774 0.47060 -0.08693
 N334 N 0.46480 0.48978 -0.12344
 N335 N 0.45280 0.49558 -0.16726
 N336 N 0.47570 0.44970 -0.07571
 N337 N 0.47169 0.42744 -0.08478
 Mn338 Mn 0.50022 0.49971 -0.12356
 Mn339 Mn 0.46253 0.46217 -0.00292
 Cl340 Cl 0.50003 0.49965 -0.00250
 C341 C 0.48500 0.42956 -0.14052
 C342 C 0.42980 0.48353 -0.14351
 N343 N 0.44969 -0.02576 0.07419
 N344 N 0.42727 -0.04356 0.08450
 N345 N 0.48989 0.02526 0.12121
 N346 N 0.49621 0.04342 0.16389
 N347 N 0.47524 0.02528 0.07418
 N348 N 0.47118 0.04348 0.08354
 N349 N 0.46432 -0.02576 0.12129
 N350 N 0.45228 -0.04356 0.16500
 C351 C 0.42928 -0.05448 0.14106
 C352 C 0.48442 0.05456 0.13956
 N353 N 0.54971 0.02527 0.07393
 N354 N 0.57213 0.04310 0.08404
 N355 N 0.50957 -0.02578 0.12100
 N356 N 0.50327 -0.04400 0.16354
 N357 N 0.52415 -0.02577 0.07385
 N358 N 0.52818 -0.04400 0.08300
 N359 N 0.53514 0.02525 0.12114
 N360 N 0.54724 0.04306 0.16472
 Mn361 Mn 0.49973 -0.00026 0.12193
 C362 C 0.57019 0.05401 0.14061
 C363 C 0.51500 -0.05515 0.13901
 N364 N 0.47506 0.02525 -0.07214
 N365 N 0.47051 0.04310 -0.08211
 N366 N 0.46420 -0.02573 -0.11930
 N367 N 0.45229 -0.04395 -0.16184
 N368 N 0.44959 -0.02579 -0.07215
 N369 N 0.42733 -0.04406 -0.08128
 N370 N 0.48964 0.02530 -0.11936
 N371 N 0.49541 0.04318 -0.16282
 Mn372 Mn 0.46215 -0.00026 0.00101
 C373 C 0.48339 0.05408 -0.13862
 C374 C 0.42940 -0.05515 -0.13729
 N375 N 0.52415 -0.02562 -0.07246
 N376 N 0.52871 -0.04344 -0.08258
 N377 N 0.53496 0.02541 -0.11943
 N378 N 0.54681 0.04366 -0.16195
 N379 N 0.54962 0.02542 -0.07238
 N380 N 0.57188 0.04370 -0.08156
 N381 N 0.50952 -0.02563 -0.11957
 N382 N 0.50371 -0.04346 -0.16312
 Mn383 Mn 0.53715 -0.00017 0.00074
 Mn384 Mn 0.49958 -0.00016 -0.12020
 Cl385 Cl 0.49965 -0.00021 0.00087
 C386 C 0.51576 -0.05438 -0.13907
 C387 C 0.56974 0.05483 -0.13749
 C388 C 1.16561 0.48494 0.31853
 C389 C 1.14878 0.48479 0.28985
 C390 C 1.12905 0.48471 0.25683
 C391 C 1.11215 0.48468 0.22906
 C392 C 1.09228 0.48463 0.19700
 C393 C 1.07522 0.48451 0.16998
 C394 C 0.51537 0.67947 0.32014
 C395 C 0.51557 0.66293 0.29105
 C396 C 0.51568 0.64342 0.25752
 C397 C 0.51573 0.62667 0.22933
 C398 C 0.51579 0.60696 0.19682
 C399 C 0.51589 0.59010 0.16948
 C400 C 0.31963 -0.16486 0.32370
 C401 C 0.33622 -0.14809 0.29472
 C402 C 0.35579 -0.12843 0.26129
 C403 C 0.37258 -0.11160 0.23314
 C404 C 0.39231 -0.09181 0.20063
 C405 C 0.40919 -0.07483 0.17325
 C406 C 0.83581 0.51558 0.32158
 C407 C 0.85258 0.51577 0.29269
 C408 C 0.87225 0.51590 0.25939
 C409 C 0.88910 0.51597 0.23135
 C410 C 0.90891 0.51607 0.19895
 C411 C 0.92591 0.51622 0.17162
 C412 C 0.48417 0.31958 0.32122
 C413 C 0.48399 0.33613 0.29201
 C414 C 0.48391 0.35567 0.25836
 C415 C 0.48388 0.37244 0.23006
 C416 C 0.48384 0.39216 0.19742
 C417 C 0.48376 0.40904 0.16995
 C418 C 0.68008 0.16466 0.32162
 C419 C 0.66345 0.14786 0.29286
 C420 C 0.64384 0.12815 0.25973
 C421 C 0.62700 0.11128 0.23186
 C422 C 0.60723 0.09144 0.19967
 C423 C 0.59031 0.07441 0.17254
 C424 C 0.48429 0.16503 -0.31831
 C425 C 0.48413 0.14821 -0.28969
 C426 C 0.48404 0.12846 -0.25679
 C427 C 0.48398 0.11154 -0.22916
 C428 C 0.48389 0.09163 -0.19725
 C429 C 0.48373 0.07455 -0.17034
 C430 C 0.68088 0.51535 -0.32015
 C431 C 0.66420 0.51548 -0.29163
 C432 C 0.64453 0.51552 -0.25883
 C433 C 0.62765 0.51553 -0.23127
 C434 C 0.60782 0.51557 -0.19947
 C435 C 0.59087 0.51567 -0.17267
 C436 C 0.83498 0.31995 -0.32038
 C437 C 0.85180 0.33664 -0.29182
 C438 C 0.87154 0.35631 -0.25895
 C439 C 0.88845 0.37318 -0.23132
 C440 C 0.90835 0.39299 -0.19939
 C441 C 0.92542 0.40991 -0.17244
 C442 C 0.51503 -0.16508 -0.31880
 C443 C 0.51514 -0.14829 -0.29029
 C444 C 0.51518 -0.12859 -0.25746
 C445 C 0.51521 -0.11170 -0.22985
 C446 C 0.51527 -0.09184 -0.19791
 C447 C 0.51542 -0.07480 -0.17093
 C448 C 0.32011 0.48462 -0.32528
 C449 C 0.33673 0.48441 -0.29653
 C450 C 0.35633 0.48427 -0.26335
 C451 C 0.37314 0.48419 -0.23540
 C452 C 0.39288 0.48406 -0.20305
 C453 C 0.40974 0.48388 -0.17573
 C454 C 1.16535 0.68097 -0.32077
 C455 C 1.14850 0.66429 -0.29229
 C456 C 1.12874 0.64462 -0.25947
 C457 C 1.11182 0.62775 -0.23184
 C458 C 1.09193 0.60794 -0.19989
 C459 C 1.07486 0.59103 -0.17288
 C460 C 0.83163 0.51011 -0.31661
 C461 C 0.84857 0.51057 -0.28770
 C462 C 0.86866 0.51139 -0.25461
 C463 C 0.88599 0.51225 -0.22700
 C464 C 0.90647 0.51340 -0.19543
 C465 C 0.92408 0.51442 -0.16917
 C466 C 0.49023 0.32141 -0.31705
 C467 C 0.48985 0.33795 -0.28848
 C468 C 0.48913 0.35729 -0.25575
 C469 C 0.48833 0.37380 -0.22840
 C470 C 0.48724 0.39316 -0.19708
 C471 C 0.48623 0.40973 -0.17093
 C472 C 0.67770 0.16829 -0.31529
 C473 C 0.66120 0.15136 -0.28651
 C474 C 0.64191 0.13129 -0.25351
 C475 C 0.62544 0.11397 -0.22595
 C476 C 0.60612 0.09350 -0.19439
 C477 C 0.58956 0.07590 -0.16808
 C478 C 1.16786 0.49051 -0.32072
 C479 C 1.15104 0.49010 -0.29148
 C480 C 1.13109 0.48935 -0.25792
 C481 C 1.11388 0.48853 -0.22989
 C482 C 1.09353 0.48744 -0.19782
 C483 C 1.07604 0.48645 -0.17111
 C484 C 0.50971 0.67781 -0.31804
 C485 C 0.51017 0.66131 -0.28934
 C486 C 0.51100 0.64202 -0.25646
 C487 C 0.51188 0.62555 -0.22900
 C488 C 0.51305 0.60622 -0.19755
 C489 C 0.51411 0.58966 -0.17130
 C490 C 0.32151 -0.16842 -0.31593
 C491 C 0.33797 -0.15152 -0.28690
 C492 C 0.35722 -0.13148 -0.25367
 C493 C 0.37367 -0.11420 -0.22595
 C494 C 0.39298 -0.09376 -0.19426
 C495 C 0.40955 -0.07619 -0.16787
 C496 C 0.50966 -0.16834 0.31798
 C497 C 0.51010 -0.15145 0.28894
 C498 C 0.51089 -0.13142 0.25565
 C499 C 0.51172 -0.11414 0.22785
 C500 C 0.51283 -0.09373 0.19607
 C501 C 0.51383 -0.07617 0.16963
 C502 C 0.32182 0.49013 0.31141
 C503 C 0.33825 0.48962 0.28258
 C504 C 0.35748 0.48875 0.24960
 C505 C 0.37392 0.48785 0.22213
 C506 C 0.39322 0.48667 0.19076
 C507 C 0.40979 0.48562 0.16469
 C508 C 1.16833 0.67829 0.31750
 C509 C 1.15149 0.66187 0.28820
 C510 C 1.13153 0.64267 0.25462
 C511 C 1.11429 0.62626 0.22659
 C512 C 1.09392 0.60697 0.19458
 C513 C 1.07640 0.59043 0.16797
 C514 C 0.48964 0.16735 0.31982
 C515 C 0.48920 0.15050 0.29065
 C516 C 0.48843 0.13055 0.25715
 C517 C 0.48761 0.11334 0.22915
 C518 C 0.48652 0.09300 0.19710
 C519 C 0.48555 0.07551 0.17044
 C520 C 0.67772 0.50972 0.31813
 C521 C 0.66127 0.51011 0.28889
 C522 C 0.64203 0.51084 0.25531
 C523 C 0.62561 0.51164 0.22723
 C524 C 0.60633 0.51272 0.19506
 C525 C 0.58980 0.51369 0.16824
 C526 C 0.83259 0.32259 0.31770
 C527 C 0.84946 0.33899 0.28848
 C528 C 0.86946 0.35818 0.25496
 C529 C 0.88671 0.37459 0.22697
 C530 C 0.90709 0.39385 0.19496
 C531 C 0.92462 0.41039 0.16834
   
