data_POSCAR
  _audit_creation_date              2014-09-24
  _audit_creation_method            'ToBaCCo'
  _symmetry_space_group_name_H-M    'P1'
  _symmetry_Int_Tables_number       1
  _symmetry_cell_setting            triclinic
  loop_
  _symmetry_equiv_pos_as_xyz
 x,y,z
_cell_length_a 38.1090
_cell_length_b 37.4699
_cell_length_c 37.0259
_cell_angle_alpha 89.731400
_cell_angle_beta 90.407200
_cell_angle_gamma 89.806600
loop_
  _atom_site_label
  _atom_site_type_symbol
  _atom_site_fract_x
  _atom_site_fract_y
  _atom_site_fract_z
C1 C 0.14818 0.16649 0.19090
 C2 C 0.14976 0.19433 0.16560
 C3 C 0.17621 0.19507 0.13993
 C4 C 0.20131 0.16728 0.13922
 C5 C 0.19836 0.13919 0.16330
 C6 C 0.17192 0.13886 0.18917
 C7 C 0.12620 0.15934 0.21941
 N8 N 0.13593 0.12762 0.23474
 C9 C 0.16379 0.11491 0.21588
 C10 C 0.22434 0.11513 0.15606
 N11 N 0.24403 0.12767 0.12832
 C12 C 0.23021 0.15988 0.11795
 C13 C 0.16933 0.22403 0.11764
 N14 N 0.13928 0.24000 0.12898
 C15 C 0.12735 0.22220 0.15833
 H16 H 0.10432 0.17578 0.22771
 H17 H 0.17843 0.09081 0.22203
 H18 H 0.22917 0.09078 0.17115
 H19 H 0.23962 0.17623 0.09590
 H20 H 0.18378 0.23162 0.09376
 H21 H 0.10321 0.22822 0.17233
 C22 C -0.13568 0.83501 0.19134
 C23 C -0.13895 0.80998 0.16365
 C24 C -0.16917 0.80883 0.14271
 C25 C -0.19619 0.83374 0.14872
 C26 C -0.19274 0.85865 0.17597
 C27 C -0.16268 0.85859 0.19816
 C28 C -0.10937 0.84151 0.21591
 N29 N -0.12002 0.86783 0.23857
 C30 C -0.15276 0.87841 0.22779
 C31 C -0.22126 0.88118 0.17363
 N32 N -0.24226 0.87074 0.14563
 C33 C -0.22717 0.84119 0.13076
 C34 C -0.16491 0.78131 0.11840
 N35 N -0.13287 0.76632 0.12430
 C36 C -0.11680 0.78369 0.15174
 H37 H -0.08499 0.82672 0.21815
 H38 H -0.16807 0.89944 0.24005
 H39 H -0.22592 0.90370 0.19115
 H40 H -0.23643 0.82746 0.10691
 H41 H -0.18350 0.77289 0.09794
 H42 H -0.09100 0.77727 0.16244
 C43 C -0.14849 0.16428 -0.19744
 C44 C -0.14482 0.19111 -0.17142
 C45 C -0.17000 0.19507 -0.14503
 C46 C -0.19872 0.17190 -0.14391
 C47 C -0.20246 0.14572 -0.16972
 C48 C -0.17704 0.14181 -0.19665
 C49 C -0.12827 0.15439 -0.22626
 N50 N -0.14365 0.12619 -0.24342
 C51 C -0.17366 0.11850 -0.22500
 C52 C -0.23259 0.12726 -0.16183
 N53 N -0.24704 0.14113 -0.13131
 C54 C -0.22623 0.16862 -0.12040
 C55 C -0.16038 0.22365 -0.12409
 N56 N -0.12983 0.23691 -0.13701
 C57 C -0.11993 0.21710 -0.16582
 H58 H -0.10375 0.16693 -0.23324
 H59 H -0.19244 0.09798 -0.23162
 H60 H -0.24207 0.10427 -0.17648
 H61 H -0.23077 0.18566 -0.09739
 H62 H -0.17450 0.23411 -0.10116
 H63 H -0.09678 0.22181 -0.18192
 C64 C 0.15069 0.82557 -0.19430
 C65 C 0.14724 0.80211 -0.16516
 C66 C 0.17009 0.80416 -0.13623
 C67 C 0.19735 0.82903 -0.13667
 C68 C 0.20197 0.85122 -0.16626
 C69 C 0.17790 0.84984 -0.19536
 C70 C 0.12934 0.83196 -0.22340
 N71 N 0.14229 0.85993 -0.24264
 C72 C 0.17267 0.87049 -0.22606
 C73 C 0.23111 0.87185 -0.15888
 N74 N 0.24363 0.86312 -0.12531
 C75 C 0.22275 0.83702 -0.11170
 C76 C 0.15995 0.77886 -0.11139
 N77 N 0.13187 0.76130 -0.12513
 C78 C 0.12375 0.77533 -0.15792
 H79 H 0.10567 0.81726 -0.22958
 H80 H 0.18831 0.89328 -0.23384
 H81 H 0.24160 0.89245 -0.17628
 H82 H 0.22638 0.82361 -0.08599
 H83 H 0.17245 0.77304 -0.08567
 H84 H 0.10244 0.76651 -0.17516
 C85 C 0.17312 1.14220 0.81360
 C86 C 0.19463 1.13960 0.84419
 C87 C 0.18981 1.16259 0.87265
 C88 C 0.16401 1.18904 0.87046
 C89 C 0.14370 1.19302 0.83954
 C90 C 0.14801 1.16883 0.81076
 C91 C 0.17027 1.12098 0.78383
 N92 N 0.14371 1.13340 0.76243
 C93 C 0.13046 1.16335 0.77841
 C94 C 0.12206 1.22214 0.84526
 N95 N 0.12835 1.23500 0.87916
 C96 C 0.15399 1.21458 0.89450
 C97 C 0.21477 1.15456 0.89843
 N98 N 0.23494 1.12757 0.88579
 C99 C 0.22271 1.11801 0.85275
 H100 H 0.18655 1.09790 0.77855
 H101 H 0.10807 1.17857 0.76879
 H102 H 0.10258 1.23246 0.82649
 H103 H 0.16581 1.21880 0.92081
 H104 H 0.21913 1.16843 0.92364
 H105 H 0.23411 1.09759 0.83583
 C106 C 0.81915 0.84910 0.79060
 C107 C 0.78970 0.84593 0.81287
 C108 C 0.78745 0.81770 0.83677
 C109 C 0.81472 0.79284 0.83935
 C110 C 0.84338 0.79509 0.81682
 C111 C 0.84551 0.82357 0.79186
 C112 C 0.82878 0.87461 0.76591
 N113 N 0.86022 0.86532 0.75131
 C114 C 0.87048 0.83387 0.76704
 C115 C 0.86593 0.76767 0.82682
 N116 N 0.85196 0.74988 0.85563
 C117 C 0.82044 0.76522 0.86297
 C118 C 0.75650 0.82117 0.85519
 N119 N 0.73985 0.85098 0.84312
 C120 C 0.76006 0.86659 0.81744
 H121 H 0.81316 0.89771 0.75851
 H122 H 0.89491 0.82001 0.76206
 H123 H 0.89156 0.76272 0.81544
 H124 H 0.80251 0.75696 0.88392
 H125 H 0.74706 0.80371 0.87635
 H126 H 0.75358 0.89103 0.80314
 C127 C 0.17439 0.85145 1.19693
 C128 C 0.20108 0.85328 1.17094
 C129 C 0.20308 0.82762 1.14416
 C130 C 0.17801 0.80029 1.14253
 C131 C 0.15186 0.79855 1.16819
 C132 C 0.15006 0.82433 1.19545
 C133 C 0.16575 0.87256 1.22598
 N134 N 0.13648 0.85911 1.24226
 C135 C 0.12696 0.82947 1.22327
 C136 C 0.13077 0.77003 1.15955
 N137 N 0.14320 0.75471 1.12902
 C138 C 0.17209 0.77304 1.11839
 C139 C 0.23136 0.83603 1.12278
 N140 N 0.24623 0.86630 1.13567
 C141 C 0.22786 0.87721 1.16494
 H142 H 0.17961 0.89649 1.23369
 H143 H 0.10528 0.81195 1.22926
 H144 H 0.10738 0.76178 1.17372
 H145 H 0.18745 0.76717 1.09464
 H146 H 0.24008 0.82168 1.09915
 H147 H 0.23359 0.90083 1.18062
 C148 C 0.81002 1.15702 1.21216
 C149 C 0.78179 1.16261 1.18844
 C150 C 0.78449 1.18719 1.16060
 C151 C 0.81538 1.20718 1.15679
 C152 C 0.84324 1.20169 1.18046
 C153 C 0.84043 1.17643 1.20842
 C154 C 0.81497 1.13357 1.24030
 N155 N 0.84778 1.13820 1.25441
 C156 C 0.86338 1.16472 1.23485
 C157 C 0.86979 1.22432 1.17014
 N158 N 0.85855 1.24370 1.14118
 C159 C 0.82534 1.23337 1.13278
 C160 C 0.75420 1.18460 1.14017
 N161 N 0.73331 1.15951 1.15547
 C162 C 0.74988 1.14601 1.18501
 H163 H 0.79539 1.11509 1.24993
 H164 H 0.88996 1.17417 1.23826
 H165 H 0.89513 1.22711 1.18322
 H166 H 0.80960 1.24422 1.11086
 H167 H 0.74831 1.19885 1.11534
 H168 H 0.74020 1.12430 1.20152
 O169 O 0.45358 1.06566 1.05888
 O170 O 0.41508 1.02804 1.03018
 C171 C 0.42205 1.05494 1.05084
 O172 O 0.54945 1.06010 0.93144
 O173 O 0.58901 1.02948 0.96703
 C174 C 0.58115 1.05154 0.94119
 O175 O 0.45091 1.06312 0.93717
 O176 O 0.41401 1.02877 0.97139
 C177 C 0.41991 1.05350 0.94776
 O178 O 0.55283 1.06155 1.06343
 O179 O 0.59048 1.02898 1.02846
 C180 C 0.58416 1.05281 1.05278
 Zr181 Zr 0.50296 1.04270 1.04554
 O182 O 0.50543 1.09859 1.05218
 O183 O 0.49961 1.03734 1.10238
 Zr184 Zr 0.50096 1.04398 0.95383
 O185 O 0.50419 1.10036 0.95554
 O186 O 0.49554 1.04630 0.89694
 O187 O 0.47095 1.05003 1.00010
 O188 O 0.53212 1.05035 0.99915
 O189 O 0.55388 0.93428 1.06259
 O190 O 0.59122 0.96910 1.02918
 C191 C 0.58500 0.94448 1.05301
 O192 O 0.45275 0.93512 0.93454
 O193 O 0.41484 0.96687 0.97015
 C194 C 0.42146 0.94389 0.94507
 O195 O 0.55169 0.93889 0.93111
 O196 O 0.59001 0.97150 0.96577
 C197 C 0.58308 0.94951 0.93987
 O198 O 0.45515 0.93040 1.06061
 O199 O 0.41587 0.96597 1.02990
 C200 C 0.42333 0.94016 1.05209
 Zr201 Zr 0.50398 0.95260 1.04460
 O202 O 0.50811 0.89633 1.04674
 O203 O 0.50133 0.95454 1.10166
 Zr204 Zr 0.50227 0.95357 0.95313
 O205 O 0.50667 0.89723 0.95522
 O206 O 0.49777 0.95167 0.89618
 Zr207 Zr 0.45061 0.99772 0.99997
 Zr208 Zr 0.55451 0.99894 0.99846
 O209 O 0.53372 0.94697 0.99827
 O210 O 0.47198 0.94577 0.99915
 O211 O 0.53511 0.99789 1.05165
 O212 O 0.47118 0.99861 0.94735
 O213 O 0.47286 0.99734 1.05212
 O214 O 0.53250 0.99925 0.94601
 H215 H 0.54761 1.07152 0.99856
 H216 H 0.45511 0.99902 0.92620
 H217 H 0.55006 0.92637 0.99738
 H218 H 0.45665 0.99711 1.07293
 H219 H 0.51279 1.02945 0.88672
 H220 H 0.51425 0.96946 0.88627
 H221 H 0.48442 0.88780 0.96496
 H222 H 0.49354 0.88695 1.02676
 H223 H 0.52304 0.96611 1.11048
 H224 H 0.52300 1.02978 1.11140
 H225 H 0.50165 1.10915 1.02796
 H226 H 0.48331 1.10918 0.96856
 O227 O -0.07059 0.45027 0.06003
 O228 O -0.03549 0.41028 0.03023
 C229 C -0.06106 0.41796 0.05185
 O230 O -0.06275 0.54933 -0.07041
 O231 O -0.03336 0.58854 -0.03377
 C232 C -0.05408 0.58131 -0.06058
 O233 O -0.06949 0.44962 -0.06309
 O234 O -0.03527 0.41040 -0.03057
 C235 C -0.05995 0.41758 -0.05370
 O236 O -0.06691 0.55053 0.06292
 O237 O -0.03395 0.58908 0.02902
 C238 C -0.05766 0.58249 0.05307
 Zr239 Zr -0.04887 0.50007 0.04471
 O240 O -0.10412 0.50411 0.04789
 O241 O -0.04566 0.49624 0.10173
 Zr242 Zr -0.04914 0.49963 -0.04652
 O243 O -0.10442 0.50559 -0.04488
 O244 O -0.05200 0.49434 -0.10332
 O245 O -0.05608 0.46810 -0.00066
 O246 O -0.05526 0.53100 -0.00144
 O247 O 0.05588 0.54937 0.06569
 O248 O 0.02543 0.58889 0.02961
 C249 C 0.04747 0.58150 0.05548
 O250 O 0.05698 0.44797 -0.06471
 O251 O 0.02443 0.40953 -0.03007
 C252 C 0.04755 0.41616 -0.05463
 O253 O 0.05613 0.54842 -0.06747
 O254 O 0.02542 0.58788 -0.03258
 C255 C 0.04756 0.58057 -0.05785
 O256 O 0.06197 0.44970 0.06030
 O257 O 0.02666 0.41034 0.03003
 C258 C 0.05273 0.41757 0.05148
 Zr259 Zr 0.03946 0.49931 0.04523
 O260 O 0.09471 0.50365 0.04826
 O261 O 0.03741 0.49430 0.10218
 Zr262 Zr 0.03961 0.49860 -0.04613
 O263 O 0.09509 0.50125 -0.04371
 O264 O 0.04132 0.49490 -0.10313
 Zr265 Zr -0.00497 0.44618 -0.00009
 Zr266 Zr -0.00434 0.55265 -0.00129
 O267 O 0.04624 0.52990 -0.00073
 O268 O 0.04631 0.46715 -0.00017
 O269 O -0.00456 0.53177 0.05169
 O270 O -0.00509 0.46824 -0.05257
 O271 O -0.00481 0.46833 0.05198
 O272 O -0.00448 0.53078 -0.05374
 H273 H -0.07570 0.54740 -0.00236
 H274 H -0.00565 0.45243 -0.07394
 H275 H 0.06695 0.54582 -0.00064
 H276 H -0.00466 0.45169 0.07286
 H277 H -0.03286 0.50887 -0.11354
 H278 H 0.02577 0.51374 -0.11312
 H279 H 0.10376 0.47836 -0.03355
 H280 H 0.10425 0.49031 0.02754
 H281 H 0.02483 0.51544 0.11149
 H282 H -0.03638 0.51915 0.11084
 H283 H -0.11386 0.49036 0.02746
 H284 H -0.11419 0.48380 -0.03366
 O285 O 0.94243 0.06373 0.45145
 O286 O 0.97490 0.03120 0.41106
 C287 C 0.95158 0.05509 0.41890
 O288 O 1.06521 0.07414 0.54985
 O289 O 1.03815 0.03667 0.59008
 C290 C 1.05836 0.06330 0.58236
 O291 O 1.05964 0.07547 0.44853
 O292 O 1.03185 0.03663 0.41017
 C293 C 1.05125 0.06416 0.41653
 O294 O 0.94063 0.05919 0.55301
 O295 O 0.97798 0.02957 0.59185
 C296 C 0.95204 0.05098 0.58509
 Zr297 Zr 0.95936 0.04256 0.50192
 O298 O 0.94730 0.09754 0.50482
 O299 O 0.90485 0.03192 0.49876
 Zr300 Zr 1.04768 0.05310 0.49983
 O301 O 1.04272 0.10930 0.50287
 O302 O 1.10284 0.05749 0.49501
 O303 O 1.00189 0.05474 0.46898
 O304 O 1.00365 0.05437 0.53198
 O305 O 0.95451 -0.06660 0.55344
 O306 O 0.98425 -0.02962 0.59238
 C307 C 0.96321 -0.05594 0.58563
 O308 O 1.07653 -0.05348 0.44884
 O309 O 1.03849 -0.02469 0.40999
 C310 C 1.06490 -0.04563 0.41669
 O311 O 1.08230 -0.04937 0.55030
 O312 O 1.04474 -0.02308 0.59057
 C313 C 1.07204 -0.04218 0.58287
 O314 O 0.95136 -0.06677 0.45194
 O315 O 0.98015 -0.03074 0.41155
 C316 C 0.95862 -0.05629 0.41933
 Zr317 Zr 0.96982 -0.04679 0.50213
 O318 O 0.97795 -0.10268 0.50472
 O319 O 0.91476 -0.05393 0.50108
 Zr320 Zr 1.05798 -0.03668 0.50002
 O321 O 1.06217 -0.09292 0.50427
 O322 O 1.11308 -0.03283 0.49503
 Zr323 Zr 1.00728 0.00296 0.44739
 Zr324 Zr 1.01028 0.00313 0.55475
 O325 O 1.01561 -0.04818 0.53251
 O326 O 1.01375 -0.04883 0.46879
 O327 O 0.95873 -0.00285 0.53460
 O328 O 1.05833 0.00896 0.46849
 O329 O 0.95736 -0.00260 0.47067
 O330 O 1.06055 0.00908 0.53202
 H331 H 1.00167 0.07558 0.54773
 H332 H 1.07833 0.01147 0.45172
 H333 H 1.01869 -0.06885 0.54903
 H334 H 0.93653 -0.00404 0.45458
 H335 H 1.11353 0.04803 0.51754
 H336 H 1.12060 -0.01227 0.50977
 H337 H 1.05106 -0.10321 0.48247
 H338 H 0.98980 -0.10990 0.48220
 H339 H 0.90477 -0.03875 0.52025
 H340 H 0.89732 0.02320 0.52274
 H341 H 0.96944 0.11040 0.50035
 H342 H 1.02572 0.11690 0.48400
 C343 C 1.12512 0.07454 0.27001
 C344 C 1.12139 0.11164 0.26436
 C345 C 1.10336 0.13191 0.29045
 C346 C 1.09064 0.11567 0.32199
 C347 C 1.09429 0.07840 0.32672
 C348 C 1.11127 0.05809 0.30051
 C349 C 1.08117 0.06200 0.35777
 C350 C 1.06558 0.08246 0.38490
 C351 C 1.06284 0.11956 0.38079
 C352 C 1.07489 0.13607 0.34925
 H353 H 1.10084 0.16055 0.28737
 H354 H 1.11420 0.02946 0.30379
 H355 H 1.08354 0.03331 0.36117
 H356 H 1.07207 0.16471 0.34625
 H357 H 1.13785 0.05778 0.25031
 H358 H 1.05059 0.13555 0.40152
 C359 C 0.93559 -0.12103 0.26794
 C360 C 0.89858 -0.11971 0.26759
 C361 C 0.88122 -0.10627 0.29819
 C362 C 0.90035 -0.09544 0.32875
 C363 C 0.93743 -0.09560 0.32799
 C364 C 0.95476 -0.10833 0.29744
 C365 C 0.95652 -0.08305 0.35784
 C366 C 0.93909 -0.07233 0.38920
 C367 C 0.90233 -0.07384 0.39045
 C368 C 0.88305 -0.08477 0.36024
 H369 H 0.85282 -0.10601 0.29909
 H370 H 0.98317 -0.10880 0.29647
 H371 H 0.98483 -0.08164 0.35674
 H372 H 0.85465 -0.08482 0.36149
 H373 H 0.94993 -0.13057 0.24477
 H374 H 0.88850 -0.06515 0.41433
 C375 C 0.85297 0.07719 0.71372
 C376 C 0.86875 0.10894 0.72646
 C377 C 0.89779 0.12240 0.70717
 C378 C 0.91065 0.10488 0.67664
 C379 C 0.89447 0.07324 0.66446
 C380 C 0.86567 0.05966 0.68320
 C381 C 0.90758 0.05569 0.63390
 C382 C 0.93672 0.06953 0.61580
 C383 C 0.95266 0.10089 0.62799
 C384 C 0.93965 0.11858 0.65812
 H385 H 0.91052 0.14684 0.71515
 H386 H 0.85303 0.03532 0.67438
 H387 H 0.89545 0.03130 0.62441
 H388 H 0.95244 0.14279 0.66710
 H389 H 0.83107 0.06508 0.72737
 H390 H 0.97538 0.11154 0.61424
 C391 C 1.08911 -0.12764 0.72377
 C392 C 1.12575 -0.12404 0.72853
 C393 C 1.14452 -0.10354 0.70305
 C394 C 1.12715 -0.08814 0.67308
 C395 C 1.09037 -0.09171 0.66948
 C396 C 1.07167 -0.11131 0.69499
 C397 C 1.07278 -0.07597 0.64019
 C398 C 1.09149 -0.05790 0.61340
 C399 C 1.12810 -0.05512 0.61628
 C400 C 1.14581 -0.06970 0.64625
 H401 H 1.17271 -0.10085 0.70555
 H402 H 1.04345 -0.11421 0.69259
 H403 H 1.04450 -0.07850 0.63769
 H404 H 1.17403 -0.06686 0.64828
 H405 H 1.07326 -0.14192 0.74309
 H406 H 1.14283 -0.04114 0.59572
 C407 C 0.27585 1.07301 1.11784
 C408 C 0.27264 1.11044 1.11437
 C409 C 0.30016 1.12943 1.09772
 C410 C 0.33082 1.11151 1.08668
 C411 C 0.33315 1.07400 1.09036
 C412 C 0.30544 1.05506 1.10560
 C413 C 0.36328 1.05592 1.07898
 C414 C 0.39182 1.07479 1.06505
 C415 C 0.39001 1.11213 1.06233
 C416 C 0.35954 1.13036 1.07270
 H417 H 0.29875 1.15821 1.09528
 H418 H 0.30684 1.02632 1.10857
 H419 H 0.36474 1.02711 1.08129
 H420 H 0.35846 1.15914 1.06984
 H421 H 0.25499 1.05714 1.12925
 H422 H 0.41172 1.12702 1.05115
 C423 C 0.27466 0.87667 0.93000
 C424 C 0.27226 0.87724 0.89192
 C425 C 0.30048 0.89155 0.87218
 C426 C 0.33085 0.90360 0.89003
 C427 C 0.33231 0.90350 0.92821
 C428 C 0.30400 0.89023 0.94788
 C429 C 0.36215 0.91649 0.94610
 C430 C 0.39120 0.92814 0.92632
 C431 C 0.39021 0.92695 0.88845
 C432 C 0.36006 0.91523 0.87040
 H433 H 0.29977 0.89151 0.84293
 H434 H 0.30470 0.88996 0.97716
 H435 H 0.36298 0.91725 0.97538
 H436 H 0.35960 0.91522 0.84113
 H437 H 0.25330 0.86680 0.94628
 H438 H 0.41234 0.93624 0.87285
 C439 C 0.72239 0.92455 1.14107
 C440 C 0.72828 0.88818 1.13306
 C441 C 0.70341 0.87054 1.11106
 C442 C 0.67378 0.88866 1.09739
 C443 C 0.66919 0.92539 1.10458
 C444 C 0.69355 0.94297 1.12660
 C445 C 0.64025 0.94383 1.08971
 C446 C 0.61520 0.92555 1.06900
 C447 C 0.61927 0.88886 1.06298
 C448 C 0.64855 0.87061 1.07668
 H449 H 0.70636 0.84240 1.10530
 H450 H 0.69037 0.97108 1.13257
 H451 H 0.63690 0.97215 1.09461
 H452 H 0.65143 0.84239 1.07110
 H453 H 0.74084 0.93957 1.15720
 H454 H 0.60010 0.87449 1.04698
 C455 C 0.71765 1.13683 0.92263
 C456 C 0.72356 1.12892 0.88589
 C457 C 0.69863 1.10779 0.86749
 C458 C 0.66886 1.09485 0.88525
 C459 C 0.66414 1.10213 0.92231
 C460 C 0.68855 1.12324 0.94066
 C461 C 0.63510 1.08808 0.94041
 C462 C 0.61030 1.06770 0.92166
 C463 C 0.61433 1.06151 0.88464
 C464 C 0.64364 1.07473 0.86656
 H465 H 0.70161 1.10214 0.83904
 H466 H 0.68524 1.12912 0.96908
 H467 H 0.63158 1.09317 0.96895
 H468 H 0.64668 1.06908 0.83808
 H469 H 0.73619 1.15229 0.93821
 H470 H 0.59531 1.04562 0.87001
 C471 C 0.08569 0.26233 0.09940
 C472 C 0.12038 0.26808 0.11090
 C473 C 0.13529 0.30201 0.10701
 C474 C 0.11521 0.33040 0.09280
 C475 C 0.08026 0.32436 0.08118
 C476 C 0.06591 0.29010 0.08423
 C477 C 0.06004 0.35279 0.06739
 C478 C 0.07392 0.38749 0.06598
 C479 C 0.10859 0.39321 0.07783
 C480 C 0.12913 0.36491 0.09082
 H481 H 0.16190 0.30648 0.11642
 H482 H 0.03916 0.28498 0.07563
 H483 H 0.03332 0.34803 0.05844
 H484 H 0.15579 0.37008 0.09966
 H485 H 0.07393 0.23623 0.10247
 H486 H 0.12005 0.41959 0.07664
 C487 C -0.07529 0.26617 -0.11727
 C488 C -0.11170 0.26738 -0.12302
 C489 C -0.13043 0.29853 -0.11464
 C490 C -0.11302 0.32827 -0.10046
 C491 C -0.07649 0.32647 -0.09362
 C492 C -0.05782 0.29537 -0.10230
 C493 C -0.05932 0.35578 -0.07821
 C494 C -0.07800 0.38721 -0.07056
 C495 C -0.11400 0.38918 -0.07850
 C496 C -0.13149 0.35979 -0.09299
 H497 H -0.15848 0.29962 -0.11962
 H498 H -0.02978 0.29364 -0.09750
 H499 H -0.03138 0.35432 -0.07254
 H500 H -0.15943 0.36167 -0.09831
 H501 H -0.06059 0.24226 -0.12364
 H502 H -0.12877 0.41321 -0.07268
 C503 C 0.09989 0.73544 -0.07424
 C504 C 0.11462 0.73177 -0.10856
 C505 C 0.11267 0.69899 -0.12658
 C506 C 0.09651 0.66967 -0.11007
 C507 C 0.08108 0.67374 -0.07573
 C508 C 0.08273 0.70674 -0.05810
 C509 C 0.06458 0.64466 -0.05938
 C510 C 0.06432 0.61107 -0.07613
 C511 C 0.08015 0.60709 -0.11003
 C512 C 0.09581 0.63630 -0.12706
 H513 H 0.12443 0.69631 -0.15300
 H514 H 0.07102 0.71025 -0.03177
 H515 H 0.05237 0.64813 -0.03330
 H516 H 0.10763 0.63272 -0.15333
 H517 H 0.10131 0.76074 -0.06029
 H518 H 0.08008 0.58152 -0.12353
 C519 C -0.08812 0.74180 0.08427
 C520 C -0.11794 0.73671 0.10556
 C521 C -0.13061 0.70212 0.11161
 C522 C -0.11292 0.67254 0.09719
 C523 C -0.08282 0.67788 0.07572
 C524 C -0.07088 0.71264 0.06905
 C525 C -0.06482 0.64839 0.06171
 C526 C -0.07616 0.61342 0.06908
 C527 C -0.10596 0.60842 0.09072
 C528 C -0.12425 0.63771 0.10451
 H529 H -0.15329 0.69835 0.12868
 H530 H -0.04779 0.71721 0.05278
 H531 H -0.04184 0.65278 0.04518
 H532 H -0.14716 0.63310 0.12104
 H533 H -0.07798 0.76843 0.07995
 H534 H -0.11543 0.58184 0.09671
 C535 C 1.13738 0.08002 0.72665
 C536 C 1.13127 0.11686 0.73198
 C537 C 1.11189 0.13579 0.70542
 C538 C 1.09956 0.11842 0.67421
 C539 C 1.10519 0.08134 0.67018
 C540 C 1.12412 0.06248 0.69647
 C541 C 1.09176 0.06360 0.63991
 C542 C 1.07390 0.08264 0.61283
 C543 C 1.06942 0.11965 0.61609
 C544 C 1.08180 0.13740 0.64682
 H545 H 1.10744 0.16419 0.70825
 H546 H 1.12868 0.03405 0.69373
 H547 H 1.09536 0.03499 0.63723
 H548 H 1.07741 0.16588 0.64920
 H549 H 1.15113 0.06398 0.74656
 H550 H 1.05539 0.13458 0.59541
 C551 C 0.87120 -0.07890 0.72016
 C552 C 0.87783 -0.11571 0.72534
 C553 C 0.90228 -0.13253 0.70244
 C554 C 0.91827 -0.11349 0.67417
 C555 C 0.91138 -0.07662 0.66973
 C556 C 0.88814 -0.05956 0.69312
 C557 C 0.92719 -0.05762 0.64142
 C558 C 0.94844 -0.07540 0.61649
 C559 C 0.95477 -0.11209 0.62060
 C560 C 0.94026 -0.13092 0.64956
 H561 H 0.90745 -0.16085 0.70510
 H562 H 0.88259 -0.03130 0.69014
 H563 H 0.92205 -0.02933 0.63799
 H564 H 0.94567 -0.15921 0.65229
 H565 H 0.85357 -0.06449 0.73764
 H566 H 0.97117 -0.12607 0.60149
 C567 C 1.08605 -0.13981 0.28212
 C568 C 1.11963 -0.12733 0.27205
 C569 C 1.13528 -0.10062 0.29374
 C570 C 1.11817 -0.08723 0.32440
 C571 C 1.08463 -0.10014 0.33366
 C572 C 1.06886 -0.12634 0.31234
 C573 C 1.06743 -0.08667 0.36416
 C574 C 1.08348 -0.06064 0.38564
 C575 C 1.11695 -0.04817 0.37668
 C576 C 1.13415 -0.06124 0.34618
 H577 H 1.16117 -0.09065 0.28772
 H578 H 1.04308 -0.13647 0.31901
 H579 H 1.04185 -0.09671 0.37152
 H580 H 1.15989 -0.05098 0.33960
 H581 H 1.07220 -0.15954 0.26644
 H582 H 1.12950 -0.02790 0.39301
 C583 C 0.84700 0.08731 0.29518
 C584 C 0.86230 0.11943 0.28280
 C585 C 0.89285 0.13169 0.30062
 C586 C 0.90729 0.11280 0.32999
 C587 C 0.89152 0.08076 0.34180
 C588 C 0.86152 0.06822 0.32413
 C589 C 0.90601 0.06184 0.37114
 C590 C 0.93582 0.07492 0.38887
 C591 C 0.95139 0.10672 0.37722
 C592 C 0.93724 0.12558 0.34792
 H593 H 0.90505 0.15649 0.29266
 H594 H 0.84924 0.04357 0.33268
 H595 H 0.89425 0.03707 0.38020
 H596 H 0.94970 0.15010 0.33929
 H597 H 0.82424 0.07598 0.28210
 H598 H 0.97463 0.11678 0.39072
 C599 C 0.11104 0.26552 -0.06664
 C600 C 0.11285 0.26370 -0.10466
 C601 C 0.09997 0.29274 -0.12525
 C602 C 0.08749 0.32364 -0.10806
 C603 C 0.08557 0.32460 -0.06994
 C604 C 0.09698 0.29528 -0.04957
 C605 C 0.07263 0.35505 -0.05271
 C606 C 0.06296 0.38525 -0.07294
 C607 C 0.06596 0.38474 -0.11068
 C608 C 0.07768 0.35395 -0.12820
 H609 H 0.10173 0.29235 -0.15443
 H610 H 0.09561 0.29558 -0.02033
 H611 H 0.07048 0.35549 -0.02351
 H612 H 0.07924 0.35391 -0.15740
 H613 H 0.11966 0.24342 -0.04986
 H614 H 0.05820 0.40778 -0.12665
 C615 C -0.08625 0.26725 0.11628
 C616 C -0.12211 0.27163 0.12362
 C617 C -0.13874 0.30396 0.11452
 C618 C -0.11967 0.33192 0.09881
 C619 C -0.08367 0.32715 0.09101
 C620 C -0.06725 0.29463 0.09973
 C621 C -0.06468 0.35513 0.07510
 C622 C -0.08097 0.38818 0.06796
 C623 C -0.11659 0.39276 0.07636
 C624 C -0.13587 0.36478 0.09130
 H625 H -0.16628 0.30762 0.12066
 H626 H -0.03966 0.29051 0.09411
 H627 H -0.03710 0.35149 0.06905
 H628 H -0.16337 0.36895 0.09725
 H629 H -0.07309 0.24244 0.12308
 H630 H -0.12971 0.41793 0.07091
 C631 C -0.14247 0.71660 -0.08859
 C632 C -0.13298 0.72254 -0.12495
 C633 C -0.10820 0.69937 -0.14069
 C634 C -0.09456 0.67015 -0.12105
 C635 C -0.10414 0.66512 -0.08453
 C636 C -0.12780 0.68868 -0.06853
 C637 C -0.09030 0.63628 -0.06472
 C638 C -0.06830 0.61146 -0.08142
 C639 C -0.05943 0.61594 -0.11785
 C640 C -0.07207 0.64538 -0.13743
 H641 H -0.10094 0.70281 -0.16871
 H642 H -0.13534 0.68527 -0.04056
 H643 H -0.09721 0.63264 -0.03657
 H644 H -0.06458 0.64857 -0.16543
 H645 H -0.16044 0.73428 -0.07493
 H646 H -0.04222 0.59697 -0.13090
 C647 C 0.12476 0.72559 0.07239
 C648 C 0.12722 0.72533 0.11025
 C649 C 0.11327 0.69641 0.12966
 C650 C 0.09706 0.66802 0.11146
 C651 C 0.09391 0.66898 0.07338
 C652 C 0.10799 0.69782 0.05410
 C653 C 0.07702 0.64094 0.05524
 C654 C 0.06428 0.61143 0.07456
 C655 C 0.06830 0.61028 0.11227
 C656 C 0.08415 0.63854 0.13064
 H657 H 0.11550 0.69587 0.15885
 H658 H 0.10612 0.69885 0.02492
 H659 H 0.07462 0.64160 0.02610
 H660 H 0.08655 0.63722 0.15979
 H661 H 0.13515 0.74776 0.05702
 H662 H 0.05868 0.58766 0.12756
 C663 C 0.26647 1.10542 0.93952
 C664 C 0.26623 1.11425 0.90268
 C665 C 0.29705 1.11084 0.88250
 C666 C 0.32796 1.09842 0.89889
 C667 C 0.32776 1.08846 0.93578
 C668 C 0.29697 1.09224 0.95594
 C669 C 0.35825 1.07457 0.95176
 C670 C 0.38909 1.07102 0.93153
 C671 C 0.38951 1.08230 0.89536
 C672 C 0.35904 1.09568 0.87904
 H673 H 0.29694 1.11840 0.85420
 H674 H 0.29649 1.08499 0.98430
 H675 H 0.35797 1.06631 0.97988
 H676 H 0.35966 1.10348 0.85083
 H677 H 0.24282 1.10820 0.95532
 H678 H 0.41307 1.07962 0.87939
 C679 C 0.27228 0.92038 1.10952
 C680 C 0.27553 0.88451 1.11999
 C681 C 0.30748 0.86653 1.11471
 C682 C 0.33622 0.88447 1.09949
 C683 C 0.33243 0.92040 1.08825
 C684 C 0.30033 0.93807 1.09329
 C685 C 0.36085 0.93815 1.07239
 C686 C 0.39352 0.92098 1.06868
 C687 C 0.39724 0.88551 1.08061
 C688 C 0.36873 0.86728 1.09551
 H689 H 0.31000 0.83888 1.12307
 H690 H 0.29696 0.96558 1.08482
 H691 H 0.35765 0.96553 1.06340
 H692 H 0.37218 0.83980 1.10411
 H693 H 0.24771 0.93442 1.11334
 H694 H 0.42206 0.87166 1.07785
 C695 C 0.67089 1.14413 1.16045
 C696 C 0.70184 1.14505 1.14021
 C697 C 0.70287 1.12855 1.10640
 C698 C 0.67347 1.11025 1.09321
 C699 C 0.64212 1.10963 1.11348
 C700 C 0.64101 1.12703 1.14694
 C701 C 0.61274 1.09107 1.10024
 C702 C 0.61476 1.07222 1.06756
 C703 C 0.64638 1.07257 1.04813
 C704 C 0.67526 1.09173 1.06057
 H705 H 0.72712 1.12865 1.09125
 H706 H 0.61736 1.12669 1.16300
 H707 H 0.58864 1.09077 1.11561
 H708 H 0.69914 1.09173 1.04483
 H709 H 0.67008 1.15647 1.18682
 H710 H 0.64873 1.05831 1.02289
 C711 C 0.67949 0.84073 0.86387
 C712 C 0.70723 0.86428 0.85680
 C713 C 0.70359 0.90051 0.86529
 C714 C 0.67305 0.91293 0.88203
 C715 C 0.64519 0.88906 0.88917
 C716 C 0.64852 0.85309 0.87952
 C717 C 0.61501 0.90135 0.90686
 C718 C 0.61310 0.93679 0.91871
 C719 C 0.64085 0.96029 0.91139
 C720 C 0.67039 0.94859 0.89282
 H721 H 0.72521 0.91858 0.86037
 H722 H 0.62755 0.83437 0.88486
 H723 H 0.59375 0.88310 0.91273
 H724 H 0.69147 0.96722 0.88762
 H725 H 0.68196 0.81271 0.85735
 H726 H 0.63965 0.98783 0.92008
   
