data_POSCAR
  _audit_creation_date              2014-09-24
  _audit_creation_method            'ToBaCCo'
  _symmetry_space_group_name_H-M    'P1'
  _symmetry_Int_Tables_number       1
  _symmetry_cell_setting            triclinic
  loop_
  _symmetry_equiv_pos_as_xyz
 x,y,z
_cell_length_a 40.6744
_cell_length_b 39.5902
_cell_length_c 23.8105
_cell_angle_alpha 89.927100
_cell_angle_beta 90.069100
_cell_angle_gamma 119.167300
loop_
  _atom_site_label
  _atom_site_type_symbol
  _atom_site_fract_x
  _atom_site_fract_y
  _atom_site_fract_z
C1 C 0.44379 0.89665 0.49503
 C2 C 0.45885 0.91601 0.54553
 C3 C 0.48165 0.95636 0.54588
 C4 C 0.48807 0.97820 0.49603
 C5 C 0.47145 0.95794 0.44582
 C6 C 0.45049 0.91753 0.44516
 C7 C 0.51191 1.02158 0.49619
 C8 C 0.52868 1.04207 0.44617
 C9 C 0.54967 1.08254 0.44583
 C10 C 0.55621 1.10314 0.49594
 C11 C 0.54098 1.08349 0.54616
 C12 C 0.51819 1.04319 0.54617
 H13 H 0.42692 0.86534 0.49443
 H14 H 0.49438 0.97021 0.58521
 H15 H 0.47438 0.97306 0.40675
 H16 H 0.52582 1.02703 0.40707
 H17 H 0.57309 1.13445 0.49595
 H18 H 0.50541 1.02926 0.58541
 C19 C 0.10084 0.55057 0.49957
 C20 C 0.08130 0.53550 0.54971
 C21 C 0.04185 0.51483 0.54965
 C22 C 0.02125 0.51069 0.49982
 C23 C 0.04168 0.52711 0.44991
 C24 C 0.08109 0.54597 0.44963
 C25 C -0.02108 0.48946 0.49991
 C26 C -0.04166 0.47296 0.45011
 C27 C -0.08112 0.45405 0.45004
 C28 C -0.10067 0.44951 0.50016
 C29 C -0.08093 0.46469 0.55009
 C30 C -0.04152 0.48537 0.54981
 H31 H 0.13140 0.56589 0.49930
 H32 H 0.02763 0.50197 0.58866
 H33 H 0.02742 0.52569 0.41091
 H34 H -0.02742 0.47438 0.41112
 H35 H -0.13123 0.43417 0.50043
 H36 H -0.02727 0.49823 0.58878
 C37 C 0.44372 0.54762 0.50464
 C38 C 0.45023 0.53353 0.55480
 C39 C 0.47112 0.51397 0.55453
 C40 C 0.48781 0.51020 0.50453
 C41 C 0.48156 0.52556 0.45449
 C42 C 0.45888 0.54316 0.45444
 C43 C 0.51153 0.49056 0.50476
 C44 C 0.51785 0.47510 0.45496
 C45 C 0.54049 0.45745 0.45539
 C46 C 0.55555 0.45308 0.50583
 C47 C 0.54899 0.46731 0.55568
 C48 C 0.52814 0.48686 0.55499
 H49 H 0.42693 0.56213 0.50458
 H50 H 0.47397 0.50177 0.59368
 H51 H 0.49428 0.52435 0.41526
 H52 H 0.50521 0.47624 0.41557
 H53 H 0.57230 0.43856 0.50631
 H54 H 0.52529 0.49907 0.59403
 O55 O 0.38381 0.65245 -0.04604
 O56 O 0.38267 0.71611 -0.06868
 C57 C 0.36473 0.73339 -0.08258
 O58 O 0.33571 0.72934 -0.05688
 O59 O 0.27409 0.66367 -0.07030
 C60 C 0.25718 0.62741 -0.07733
 O61 O 0.26172 0.60415 -0.04568
 O62 O 0.32515 0.60399 -0.05917
 C63 C 0.35983 0.62205 -0.07126
 O64 O 0.38270 0.66707 0.06488
 O65 O 0.38385 0.73187 0.04224
 C66 C 0.35989 0.73828 0.06745
 O67 O 0.32521 0.72161 0.05533
 O68 O 0.26176 0.65795 0.04179
 C69 C 0.25724 0.63018 0.07345
 O70 O 0.27412 0.61082 0.06643
 O71 O 0.33572 0.60682 0.05306
 C72 C 0.36475 0.63184 0.07878
 Cr73 Cr 0.38116 0.69083 -0.00190
 Cr74 Cr 0.30023 0.69205 -0.00733
 Cr75 Cr 0.30022 0.60858 0.00348
 O76 O 0.32727 0.66385 -0.00192
 O77 O 0.61631 0.34735 -0.04253
 O78 O 0.61745 0.28370 -0.06497
 C79 C 0.63538 0.26642 -0.07877
 O80 O 0.66441 0.27047 -0.05302
 O81 O 0.72603 0.33614 -0.06656
 C82 C 0.74291 0.37240 -0.07370
 O83 O 0.73840 0.39566 -0.04216
 O84 O 0.67495 0.39581 -0.05575
 C85 C 0.64025 0.37778 -0.06778
 O86 O 0.61752 0.33275 0.06841
 O87 O 0.61636 0.26795 0.04600
 C88 C 0.64034 0.26157 0.07130
 O89 O 0.67501 0.27823 0.05920
 O90 O 0.73845 0.34189 0.04554
 C91 C 0.74300 0.36968 0.07709
 O92 O 0.72611 0.38903 0.06995
 O93 O 0.66448 0.39301 0.05644
 C94 C 0.63546 0.36800 0.08218
 Cr95 Cr 0.61901 0.30899 0.00172
 Cr96 Cr 0.69994 0.30778 -0.00353
 Cr97 Cr 0.69995 0.39124 0.00694
 O98 O 0.67290 0.33597 0.00171
 C99 C 0.45045 0.89548 -0.40563
 C100 C 0.44181 0.87663 -0.36300
 C101 C 0.43024 0.85334 -0.31289
 C102 C 0.43478 0.82054 -0.30883
 C103 C 0.42178 0.79676 -0.26139
 C104 C 0.40412 0.80563 -0.21781
 C105 C 0.39988 0.83861 -0.22163
 C106 C 0.41289 0.86241 -0.26909
 C107 C 0.38999 0.78056 -0.16968
 C108 C 0.37827 0.75919 -0.12972
 H109 H 0.44797 0.81314 -0.34257
 H110 H 0.42518 0.77131 -0.25889
 H111 H 0.38624 0.84572 -0.18820
 H112 H 0.40905 0.88759 -0.27193
 C113 C 0.10080 0.54216 -0.40124
 C114 C 0.11862 0.54937 -0.35821
 C115 C 0.14060 0.55952 -0.30746
 C116 C 0.17423 0.55788 -0.30560
 C117 C 0.19690 0.57023 -0.25759
 C118 C 0.18608 0.58431 -0.21126
 C119 C 0.15219 0.58544 -0.21280
 C120 C 0.12950 0.57307 -0.26082
 C121 C 0.21046 0.59894 -0.16314
 C122 C 0.23147 0.61173 -0.12355
 H123 H 0.18320 0.54769 -0.34155
 H124 H 0.22312 0.56936 -0.25692
 H125 H 0.14362 0.59640 -0.17730
 H126 H 0.10367 0.57469 -0.26194
 C127 C 0.43748 0.54023 -0.39584
 C128 C 0.42699 0.54741 -0.35239
 C129 C 0.41522 0.55741 -0.30101
 C130 C 0.44183 0.57831 -0.25939
 C131 C 0.43089 0.59023 -0.21096
 C132 C 0.39331 0.58127 -0.20399
 C133 C 0.36661 0.55989 -0.24524
 C134 C 0.37755 0.54799 -0.29366
 C135 C 0.38231 0.59533 -0.15582
 C136 C 0.37251 0.60744 -0.11653
 H137 H 0.47108 0.58592 -0.26480
 H138 H 0.45179 0.60689 -0.17945
 H139 H 0.33751 0.55295 -0.24037
 H140 H 0.35679 0.53202 -0.32570
 C141 C 0.54971 0.10493 -0.40208
 C142 C 0.55832 0.12363 -0.35937
 C143 C 0.56986 0.14676 -0.30914
 C144 C 0.56426 0.17885 -0.30425
 C145 C 0.57723 0.20253 -0.25674
 C146 C 0.59592 0.19426 -0.21394
 C147 C 0.60122 0.16196 -0.21856
 C148 C 0.58824 0.13827 -0.26609
 C149 C 0.61007 0.21928 -0.16580
 C150 C 0.62181 0.24062 -0.12587
 H151 H 0.55027 0.18580 -0.33741
 H152 H 0.57300 0.22745 -0.25362
 H153 H 0.61566 0.15531 -0.18574
 H154 H 0.59290 0.11364 -0.26958
 C155 C 0.89867 0.45772 -0.39798
 C156 C 0.88096 0.45047 -0.35490
 C157 C 0.85910 0.44030 -0.30406
 C158 C 0.82571 0.44237 -0.30188
 C159 C 0.80313 0.43001 -0.25381
 C160 C 0.81382 0.41548 -0.20775
 C161 C 0.84748 0.41391 -0.20962
 C162 C 0.87007 0.42629 -0.25769
 C163 C 0.78951 0.40085 -0.15959
 C164 C 0.76856 0.38806 -0.11996
 H165 H 0.81684 0.45292 -0.33762
 H166 H 0.77709 0.43121 -0.25289
 H167 H 0.85594 0.40260 -0.17432
 H168 H 0.89572 0.42434 -0.25907
 C169 C 0.56239 0.46031 -0.39199
 C170 C 0.57279 0.45305 -0.34846
 C171 C 0.58452 0.44293 -0.29705
 C172 C 0.55771 0.42076 -0.25639
 C173 C 0.56868 0.40873 -0.20802
 C174 C 0.60650 0.41883 -0.20015
 C175 C 0.63339 0.44148 -0.24042
 C176 C 0.62243 0.45350 -0.28878
 C177 C 0.61760 0.40465 -0.15214
 C178 C 0.62749 0.39245 -0.11296
 H179 H 0.52828 0.41224 -0.26253
 H180 H 0.54763 0.39109 -0.17728
 H181 H 0.66270 0.44931 -0.23486
 H182 H 0.64335 0.47045 -0.32009
 C183 C 0.89940 0.44115 0.40101
 C184 C 0.88159 0.43048 0.35798
 C185 C 0.85960 0.41855 0.30723
 C186 C 0.87079 0.44310 0.26037
 C187 C 0.84809 0.43272 0.21237
 C188 C 0.81410 0.39776 0.21106
 C189 C 0.80318 0.37296 0.25761
 C190 C 0.82588 0.38334 0.30561
 C191 C 0.78971 0.38797 0.16293
 C192 C 0.76870 0.37973 0.12333
 H193 H 0.89670 0.47051 0.26131
 H194 H 0.85673 0.45218 0.17669
 H195 H 0.77689 0.34592 0.25712
 H196 H 0.81684 0.36426 0.34173
 C197 C 0.56248 0.10203 0.39645
 C198 C 0.57302 0.11973 0.35296
 C199 C 0.58485 0.14154 0.30154
 C200 C 0.62248 0.17005 0.29439
 C201 C 0.63345 0.19288 0.24589
 C202 C 0.60684 0.18733 0.20435
 C203 C 0.56931 0.15846 0.21113
 C204 C 0.55834 0.13561 0.25964
 C205 C 0.61786 0.21238 0.15608
 C206 C 0.62767 0.23429 0.11669
 H207 H 0.64316 0.17502 0.32665
 H208 H 0.66252 0.21524 0.24117
 H209 H 0.54847 0.15404 0.17939
 H210 H 0.52912 0.11378 0.26489
 C211 C 0.54926 0.44452 0.40390
 C212 C 0.55794 0.43421 0.36150
 C213 C 0.56959 0.42232 0.31172
 C214 C 0.58288 0.44695 0.26503
 C215 C 0.59601 0.43618 0.21777
 C216 C 0.59595 0.40075 0.21707
 C217 C 0.58236 0.37599 0.26358
 C218 C 0.56924 0.38676 0.31081
 C219 C 0.61014 0.38987 0.16905
 C220 C 0.62190 0.38026 0.12920
 H221 H 0.58348 0.47461 0.26542
 H222 H 0.60646 0.45555 0.18204
 H223 H 0.58220 0.34854 0.26350
 H224 H 0.55923 0.36759 0.34679
 C225 C 0.10149 0.55948 0.39769
 C226 C 0.11919 0.56999 0.35459
 C227 C 0.14104 0.58173 0.30374
 C228 C 0.17436 0.61730 0.30141
 C229 C 0.19695 0.62755 0.25336
 C230 C 0.18633 0.60226 0.20745
 C231 C 0.15273 0.56694 0.20946
 C232 C 0.13013 0.55669 0.25752
 C233 C 0.21064 0.61197 0.15931
 C234 C 0.23159 0.62016 0.11969
 H235 H 0.18318 0.63677 0.33704
 H236 H 0.22294 0.65487 0.25233
 H237 H 0.14432 0.54711 0.17429
 H238 H 0.10454 0.52901 0.25901
 C239 C 0.43712 0.89722 0.39279
 C240 C 0.42677 0.87969 0.34918
 C241 C 0.41512 0.85808 0.29762
 C242 C 0.44193 0.86336 0.25664
 C243 C 0.43107 0.84062 0.20807
 C244 C 0.39334 0.81252 0.20030
 C245 C 0.36645 0.80764 0.24089
 C246 C 0.37731 0.83036 0.28946
 C247 C 0.38238 0.78750 0.15207
 C248 C 0.37258 0.76558 0.11274
 H249 H 0.47128 0.88457 0.26269
 H250 H 0.45212 0.84452 0.17707
 H251 H 0.33723 0.78588 0.23541
 H252 H 0.35639 0.82590 0.32100
 C253 C 0.45018 0.55593 0.40264
 C254 C 0.44160 0.56606 0.35989
 C255 C 0.43009 0.57771 0.30964
 C256 C 0.41291 0.55126 0.26575
 C257 C 0.39996 0.56198 0.21814
 C258 C 0.40410 0.59917 0.21427
 C259 C 0.42159 0.62572 0.25793
 C260 C 0.43453 0.61501 0.30551
 C261 C 0.39000 0.61003 0.16601
 C262 C 0.37829 0.61962 0.12598
 H263 H 0.40915 0.52227 0.26864
 H264 H 0.38646 0.54121 0.18465
 H265 H 0.42491 0.65455 0.25539
 H266 H 0.44758 0.63562 0.33932
   
