data_POSCAR
  _audit_creation_date              2014-09-24
  _audit_creation_method            'ToBaCCo'
  _symmetry_space_group_name_H-M    'P1'
  _symmetry_Int_Tables_number       1
  _symmetry_cell_setting            triclinic
  loop_
  _symmetry_equiv_pos_as_xyz
 x,y,z
_cell_length_a 29.5513
_cell_length_b 29.6583
_cell_length_c 28.6248
_cell_angle_alpha 52.648800
_cell_angle_beta 121.022000
_cell_angle_gamma 74.108100
loop_
  _atom_site_label
  _atom_site_type_symbol
  _atom_site_fract_x
  _atom_site_fract_y
  _atom_site_fract_z
O1 O 0.64285 0.40646 0.09691
 O2 O 0.51425 0.43362 0.09815
 O3 O 0.59242 0.34603 0.11314
 O4 O 0.57343 0.48493 0.09487
 O5 O 0.42075 0.64956 -0.11922
 O6 O 0.43937 0.50997 -0.10114
 O7 O 0.36156 0.59820 -0.11619
 O8 O 0.49014 0.57047 -0.11723
 Cu9 Cu 0.59579 0.40207 0.12157
 Cu10 Cu 0.41254 0.59877 -0.13528
 C11 C 0.58821 0.48422 -0.01029
 C12 C 0.41603 0.51977 -0.00916
 C13 C 0.51783 0.40497 0.00884
 C14 C 0.49513 0.58962 -0.01383
 O15 O -0.07739 0.64328 0.40054
 O16 O -0.07916 0.50410 0.43137
 O17 O -0.03951 0.50698 0.53449
 O18 O -0.10578 0.63116 0.30744
 O19 O 0.06165 0.48528 0.47307
 O20 O 0.12790 0.36074 0.70007
 O21 O 0.08818 0.35786 0.59669
 O22 O 0.09027 0.49726 0.56685
 Cu23 Cu -0.09182 0.58565 0.40234
 Cu24 Cu 0.10868 0.41087 0.60025
 C25 C 0.00696 0.59260 0.48102
 C26 C 0.00359 0.40841 0.51755
 C27 C 0.05475 0.41548 0.65431
 C28 C -0.03245 0.57658 0.35324
 O29 O 0.46337 0.07239 0.50649
 O30 O 0.36540 0.13121 0.29931
 O31 O 0.34144 0.10783 0.38461
 O32 O 0.48904 0.09113 0.42459
 O33 O 0.62350 -0.09012 0.59924
 O34 O 0.47605 -0.07320 0.55911
 O35 O 0.50009 -0.05006 0.47407
 O36 O 0.59789 -0.10862 0.68100
 Cu37 Cu 0.40120 0.11858 0.38684
 Cu38 Cu 0.56215 -0.09811 0.59526
 C39 C 0.54616 -0.02708 0.62772
 C40 C 0.41924 0.04928 0.35342
 C41 C 0.38430 0.01996 0.46610
 C42 C 0.58026 -0.00213 0.51666
 C43 C 0.53781 -0.03216 -0.00198
 C44 C 0.50788 -0.05913 0.01370
 C45 C 0.47591 -0.03840 0.02998
 C46 C 0.47515 0.00746 0.03261
 C47 C 0.50862 0.03051 0.02135
 C48 C 0.53877 0.01159 0.00301
 H49 H 0.56252 0.03163 -0.00819
 H50 H 0.45152 -0.05772 0.04033
 C51 C -0.04567 0.56115 0.97661
 C52 C -0.05692 0.51855 0.97490
 C53 C -0.02572 0.48388 0.96672
 C54 C 0.01781 0.48938 0.96222
 C55 C 0.02881 0.53214 0.96340
 C56 C -0.00345 0.56815 0.97006
 H57 H 0.00679 0.59916 0.97345
 H58 H -0.03445 0.45134 0.96510
 C59 C 0.03853 0.00587 0.50837
 C60 C -0.00134 0.04056 0.51126
 C61 C -0.04062 0.02538 0.51688
 C62 C -0.04213 -0.02227 0.51815
 C63 C -0.00109 -0.05806 0.51683
 C64 C 0.03893 -0.04377 0.51232
 H65 H 0.06981 -0.07061 0.51036
 H66 H -0.07081 0.05141 0.51981
 C67 C -0.18305 0.49417 0.98580
 C68 C -0.19537 0.45456 0.97857
 C69 C -0.24095 0.44836 0.97991
 C70 C -0.27272 0.48050 0.99008
 C71 C -0.26010 0.51970 0.99771
 C72 C -0.21709 0.52851 0.99301
 C73 C -0.20949 0.57235 0.99516
 C74 C -0.23872 0.60163 1.00786
 C75 C -0.27885 0.59114 1.01515
 C76 C -0.29039 0.55149 1.00914
 C77 C -0.25414 0.41043 0.97033
 C78 C -0.22322 0.37941 0.95967
 C79 C -0.17828 0.38495 0.95893
 C80 C -0.16422 0.42194 0.96839
 C81 C -0.32085 0.47669 0.98970
 C82 C -0.36213 0.47800 0.98943
 C83 C -0.13641 0.50083 0.98475
 C84 C -0.09958 0.50867 0.98157
 H85 H -0.18082 0.58446 0.98715
 H86 H -0.22875 0.63128 1.01347
 H87 H -0.30157 0.61419 1.02493
 H88 H -0.32286 0.54576 1.01409
 H89 H -0.28883 0.40490 0.97039
 H90 H -0.23446 0.35120 0.95159
 H91 H -0.15466 0.36098 0.95032
 H92 H -0.12956 0.42555 0.96658
 C93 C 0.17366 0.53178 0.97540
 C94 C 0.25203 0.44818 1.03610
 C95 C 0.30414 0.44570 1.04305
 C96 C 0.27706 0.52742 0.98823
 C97 C 0.20097 0.60900 0.93092
 C98 C 0.14965 0.61071 0.92531
 C99 C 0.07586 0.69127 0.87059
 C100 C 0.05392 0.76740 0.82362
 C101 C 0.10308 0.76663 0.82758
 C102 C 0.17540 0.68892 0.87982
 C103 C 0.38318 0.36033 1.10585
 C104 C 0.41019 0.27956 1.16062
 C105 C 0.35917 0.28213 1.15361
 C106 C 0.28069 0.36552 1.09165
 C107 C 0.32672 0.52777 0.98944
 C108 C 0.36873 0.52524 0.99051
 C109 C 0.12015 0.53442 0.96805
 C110 C 0.07734 0.53480 0.96419
 H111 H 0.03482 0.69593 0.86413
 H112 H -0.00248 0.82821 0.78250
 H113 H 0.08465 0.82698 0.78929
 H114 H 0.21171 0.69146 0.88090
 H115 H 0.42569 0.35425 1.11456
 H116 H 0.47118 0.21453 1.20904
 H117 H 0.38073 0.21892 1.19687
 H118 H 0.24222 0.36494 1.08684
 C119 C 0.00480 -0.19175 0.50674
 C120 C 0.07559 -0.25256 0.54488
 C121 C 0.07631 -0.29496 0.53589
 C122 C 0.00539 -0.27522 0.48725
 C123 C -0.06512 -0.21472 0.44954
 C124 C -0.06477 -0.17373 0.46022
 C125 C -0.13349 -0.11681 0.42590
 C126 C -0.19772 -0.10454 0.38722
 C127 C -0.19910 -0.14351 0.37555
 C128 C -0.13451 -0.19698 0.40486
 C129 C 0.14896 -0.35703 0.57674
 C130 C 0.21815 -0.37566 0.62365
 C131 C 0.21669 -0.33324 0.63103
 C132 C 0.14672 -0.27272 0.59276
 C133 C 0.00847 -0.32242 0.48305
 C134 C 0.00898 -0.36208 0.48101
 C135 C 0.00236 -0.14640 0.51353
 C136 C -0.00029 -0.10680 0.51636
 H137 H -0.13730 -0.08260 0.43038
 H138 H -0.24591 -0.06517 0.36730
 H139 H -0.25004 -0.13278 0.34428
 H140 H -0.13804 -0.22623 0.39476
 H141 H 0.15282 -0.39145 0.57248
 H142 H 0.27287 -0.42284 0.65387
 H143 H 0.26999 -0.34715 0.66638
 H144 H 0.14892 -0.24194 0.60098
 C145 C -0.00232 0.17512 0.51896
 C146 C -0.08416 0.25784 0.45600
 C147 C -0.08326 0.30382 0.45917
 C148 C -0.00145 0.26819 0.52356
 C149 C 0.08161 0.18333 0.58951
 C150 C 0.08228 0.13503 0.58975
 C151 C 0.16857 0.04684 0.66157
 C152 C 0.24910 0.01141 0.72549
 C153 C 0.24619 0.06218 0.72000
 C154 C 0.16476 0.14549 0.65539
 C155 C -0.16444 0.38418 0.39837
 C156 C -0.24298 0.41638 0.33879
 C157 C -0.24444 0.37234 0.33472
 C158 C -0.16663 0.29472 0.39139
 C159 C -0.00201 0.31844 0.52200
 C160 C 0.00026 0.35897 0.52123
 C161 C -0.00373 0.13006 0.51261
 C162 C -0.00246 0.09015 0.51057
 H163 H 0.17427 0.00518 0.66790
 H164 H 0.31146 -0.05234 0.77430
 H165 H 0.30629 0.03831 0.76426
 H166 H 0.16690 0.18115 0.65571
 H167 H -0.16708 0.42140 0.39821
 H168 H -0.30245 0.47514 0.29659
 H169 H -0.30579 0.39786 0.28827
 H170 H -0.17055 0.26232 0.38637
 C171 C 0.60793 -0.06870 -0.07909
 C172 C 0.56674 0.01705 -0.17857
 C173 C 0.57011 0.01626 -0.22586
 C174 C 0.61392 -0.06974 -0.17389
 C175 C 0.66338 -0.16043 -0.06661
 C176 C 0.66070 -0.16022 -0.01869
 C177 C 0.70744 -0.25006 0.08563
 C178 C 0.75586 -0.33788 0.14139
 C179 C 0.75817 -0.33778 0.09411
 C180 C 0.71237 -0.25003 -0.00885
 C181 C 0.52698 0.10362 -0.32683
 C182 C 0.48160 0.18964 -0.37980
 C183 C 0.47787 0.19074 -0.33396
 C184 C 0.51977 0.10563 -0.23451
 C185 C 0.59639 -0.05790 -0.24063
 C186 C 0.57588 -0.04524 -0.30025
 C187 C 0.58670 -0.05723 -0.04837
 C188 C 0.56557 -0.04638 -0.02610
 H189 H 0.70579 -0.25256 0.12388
 H190 H 0.79104 -0.40581 0.22093
 H191 H 0.79618 -0.40635 0.13803
 H192 H 0.71684 -0.25301 -0.04213
 H193 H 0.52883 0.10569 -0.36482
 H194 H 0.44917 0.25576 -0.45683
 H195 H 0.44247 0.25781 -0.37554
 H196 H 0.51571 0.10947 -0.20132
 C197 C 0.38706 0.07182 0.08218
 C198 C 0.35998 0.14698 0.04482
 C199 C 0.35877 0.14836 0.09293
 C200 C 0.37548 0.08183 0.16858
 C201 C 0.39273 0.01462 0.19545
 C202 C 0.40010 0.00830 0.15377
 C203 C 0.42187 -0.06312 0.18656
 C204 C 0.43489 -0.12572 0.25740
 C205 C 0.42658 -0.11864 0.29697
 C206 C 0.40590 -0.04952 0.26677
 C207 C 0.34244 0.21547 0.06557
 C208 C 0.32380 0.28257 -0.01132
 C209 C 0.31740 0.28733 -0.06618
 C210 C 0.33604 0.21975 -0.03790
 C211 C 0.38248 0.07630 0.22645
 C212 C 0.39466 0.06705 0.28048
 C213 C 0.41371 0.05036 0.06058
 C214 C 0.44039 0.03054 0.04703
 H215 H 0.42837 -0.07071 0.15711
 H216 H 0.45130 -0.17981 0.28147
 H217 H 0.43653 -0.16722 0.35172
 H218 H 0.40012 -0.04672 0.29959
 H219 H 0.34258 0.21784 0.10182
 H220 H 0.31171 0.33322 -0.03104
 H221 H 0.30043 0.34159 -0.12837
 H222 H 0.33272 0.22408 -0.08013
 C223 C 0.50849 -0.19394 0.00784
 C224 C 0.50683 -0.24835 0.05906
 C225 C 0.50019 -0.28901 0.04998
 C226 C 0.50038 -0.27983 -0.00455
 C227 C 0.50243 -0.22586 -0.05534
 C228 C 0.50186 -0.17849 -0.05422
 C229 C 0.49020 -0.11253 -0.12040
 C230 C 0.48523 -0.09905 -0.17960
 C231 C 0.49321 -0.15193 -0.17274
 C232 C 0.50069 -0.21388 -0.11251
 C233 C 0.49276 -0.33755 0.09527
 C234 C 0.49376 -0.34745 0.15012
 C235 C 0.50188 -0.30926 0.16087
 C236 C 0.50831 -0.26015 0.11597
 C237 C 0.49504 -0.32263 -0.01219
 C238 C 0.49269 -0.36036 -0.01590
 C239 C 0.51028 -0.14785 0.01180
 C240 C 0.50942 -0.10774 0.01303
 H241 H 0.48425 -0.07029 -0.12766
 H242 H 0.47540 -0.04750 -0.23084
 H243 H 0.49088 -0.14250 -0.21723
 H244 H 0.50341 -0.25063 -0.11311
 H245 H 0.48659 -0.36877 0.08934
 H246 H 0.48828 -0.38506 0.18457
 H247 H 0.50258 -0.31710 0.20352
 H248 H 0.51353 -0.23078 0.12539
 C249 C 0.51884 0.16025 0.02980
 C250 C 0.50005 0.23081 -0.04584
 C251 C 0.50185 0.27926 -0.04793
 C252 C 0.52189 0.25722 0.02508
 C253 C 0.54141 0.18599 0.10151
 C254 C 0.54073 0.13652 0.10467
 C255 C 0.56300 0.06329 0.18416
 C256 C 0.58369 0.04102 0.25687
 C257 C 0.58266 0.09088 0.25207
 C258 C 0.56216 0.16232 0.17584
 C259 C 0.48333 0.34920 -0.12379
 C260 C 0.46344 0.37071 -0.19566
 C261 C 0.46154 0.32338 -0.19376
 C262 C 0.47953 0.25422 -0.11995
 C263 C 0.52186 0.30844 0.02073
 C264 C 0.52067 0.35226 0.01546
 C265 C 0.51533 0.11265 0.02971
 C266 C 0.51201 0.07476 0.02686
 H267 H 0.56445 0.02277 0.19071
 H268 H 0.60006 -0.01473 0.31667
 H269 H 0.59795 0.07396 0.30785
 H270 H 0.56277 0.19864 0.17585
 H271 H 0.48393 0.38808 -0.12854
 H272 H 0.44948 0.42436 -0.25305
 H273 H 0.44626 0.34011 -0.24954
 H274 H 0.47737 0.21927 -0.12154
 C275 C -0.17769 -0.02712 0.52105
 C276 C -0.23140 0.04125 0.48993
 C277 C -0.28164 0.04789 0.48860
 C278 C -0.27357 -0.01816 0.52481
 C279 C -0.21819 -0.08835 0.55865
 C280 C -0.17105 -0.09191 0.55543
 C281 C -0.11807 -0.16079 0.58700
 C282 C -0.11453 -0.22173 0.61688
 C283 C -0.15982 -0.21909 0.62099
 C284 C -0.21039 -0.15407 0.59347
 C285 C -0.33880 0.12073 0.45131
 C286 C -0.34409 0.18334 0.41923
 C287 C -0.29167 0.17366 0.42534
 C288 C -0.23564 0.10329 0.46064
 C289 C -0.32399 -0.01229 0.52469
 C290 C -0.36701 -0.00733 0.52258
 C291 C -0.12804 -0.03139 0.51988
 C292 C -0.08775 -0.03047 0.51918
 H293 H -0.07951 -0.16764 0.58813
 H294 H -0.07730 -0.27041 0.63574
 H295 H -0.15608 -0.26734 0.64518
 H296 H -0.24453 -0.15461 0.59785
 H297 H -0.37979 0.12995 0.44673
 H298 H -0.38810 0.23864 0.39094
 H299 H -0.29436 0.22086 0.40272
 H300 H -0.19491 0.09713 0.46592
 C301 C 0.15325 0.03184 0.47625
 C302 C 0.16539 0.00686 0.45043
 C303 C 0.20955 0.00619 0.44303
 C304 C 0.23940 0.03264 0.45883
 C305 C 0.22520 0.06004 0.48163
 C306 C 0.18327 0.05825 0.49201
 C307 C 0.17273 0.08283 0.51849
 C308 C 0.20266 0.10857 0.53407
 C309 C 0.24078 0.11348 0.52032
 C310 C 0.25262 0.08903 0.49505
 C311 C 0.22322 -0.02161 0.42037
 C312 C 0.19355 -0.04747 0.40462
 C313 C 0.14932 -0.04566 0.41034
 C314 C 0.13506 -0.01869 0.43271
 C315 C 0.28796 0.02850 0.45620
 C316 C 0.33065 0.02483 0.45815
 C317 C 0.11187 0.02770 0.48884
 C318 C 0.07796 0.02044 0.49855
 H319 H 0.14071 0.08310 0.52643
 H320 H 0.19371 0.12808 0.55332
 H321 H 0.26191 0.13569 0.53012
 H322 H 0.28371 0.09292 0.48657
 H323 H 0.25695 -0.02367 0.41464
 H324 H 0.20480 -0.06886 0.38768
 H325 H 0.12616 -0.06556 0.39773
 H326 H 0.10038 -0.01850 0.43634
 C327 C -0.08426 0.61710 1.06196
 C328 C -0.12796 0.70662 1.00305
 C329 C -0.12311 0.70981 1.05296
 C330 C -0.07593 0.62431 1.16011
 C331 C -0.03876 0.53908 1.21303
 C332 C -0.04177 0.53480 1.16489
 C333 C -0.00433 0.44900 1.21925
 C334 C 0.02640 0.37591 1.30998
 C335 C 0.02971 0.37950 1.35758
 C336 C -0.00017 0.45834 1.31220
 C337 C -0.16718 0.79985 0.99277
 C338 C -0.21613 0.88544 0.88493
 C339 C -0.22126 0.88261 0.83582
 C340 C -0.17734 0.79407 0.89425
 C341 C -0.06754 0.62333 1.21550
 C342 C -0.05478 0.60957 1.27264
 C343 C -0.07903 0.60607 1.02118
 C344 C -0.06763 0.58892 0.99654
 H345 H -0.00317 0.44069 1.18779
 H346 H 0.04505 0.31837 1.34056
 H347 H 0.05438 0.32186 1.42882
 H348 H 0.00354 0.45771 1.35223
 H349 H -0.16571 0.80585 1.02710
 H350 H -0.25079 0.95464 0.83878
 H351 H -0.25966 0.94951 0.75181
 H352 H -0.18365 0.79558 0.85240
 C353 C 0.09248 0.39560 0.92364
 C354 C 0.08841 0.44614 0.85894
 C355 C 0.09140 0.43425 0.81909
 C356 C 0.10014 0.37029 0.84617
 C357 C 0.11401 0.31127 0.92143
 C358 C 0.11022 0.32393 0.96051
 C359 C 0.12442 0.26411 1.03600
 C360 C 0.14307 0.19272 1.07309
 C361 C 0.14678 0.18040 1.03477
 C362 C 0.13184 0.23940 0.95905
 C363 C 0.08685 0.48606 0.75396
 C364 C 0.08675 0.54105 0.73719
 C365 C 0.08394 0.55258 0.77629
 C366 C 0.08164 0.50859 0.83310
 C367 C 0.09076 0.37035 0.79128
 C368 C 0.07733 0.38328 0.73446
 C369 C 0.07131 0.42375 0.94385
 C370 C 0.04885 0.45216 0.95435
 H371 H 0.12276 0.27070 1.06854
 H372 H 0.15488 0.14658 1.13204
 H373 H 0.16169 0.12453 1.06427
 H374 H 0.13620 0.22675 0.93222
 H375 H 0.08895 0.47974 0.72146
 H376 H 0.09103 0.57283 0.69606
 H377 H 0.08333 0.59601 0.76226
 H378 H 0.07702 0.52174 0.85934
   
