data_POSCAR
  _audit_creation_date              2014-09-24
  _audit_creation_method            'ToBaCCo'
  _symmetry_space_group_name_H-M    'P1'
  _symmetry_Int_Tables_number       1
  _symmetry_cell_setting            triclinic
  loop_
  _symmetry_equiv_pos_as_xyz
 x,y,z
_cell_length_a 28.3882
_cell_length_b 28.4095
_cell_length_c 19.0542
_cell_angle_alpha 90.005000
_cell_angle_beta 90.270300
_cell_angle_gamma 92.711400
loop_
  _atom_site_label
  _atom_site_type_symbol
  _atom_site_fract_x
  _atom_site_fract_y
  _atom_site_fract_z
C1 C -0.00081 0.27644 -0.03367
 C2 C -0.00012 0.27795 0.03824
 C3 C -0.04391 0.27961 0.08193
 C4 C 0.04480 0.27280 0.07699
 C5 C 0.04358 0.27453 -0.07557
 C6 C -0.04576 0.27214 -0.07407
 C7 C -0.08143 0.30799 0.06390
 C8 C -0.12419 0.30404 0.10036
 C9 C -0.12954 0.27394 0.15907
 C10 C -0.09016 0.24912 0.18095
 C11 C -0.04848 0.25125 0.14222
 C12 C 0.06134 0.30801 0.12383
 C13 C 0.10397 0.30340 0.15961
 C14 C 0.13011 0.26342 0.14910
 C15 C 0.11325 0.22779 0.10351
 C16 C 0.07065 0.23227 0.06797
 C17 C 0.04714 0.23962 -0.12721
 C18 C 0.08893 0.23542 -0.16456
 C19 C 0.12849 0.26565 -0.15066
 C20 C 0.12488 0.30120 -0.09996
 C21 C 0.08254 0.30614 -0.06367
 C22 C -0.08016 0.23650 -0.05846
 C23 C -0.12294 0.23393 -0.09498
 C24 C -0.13112 0.26571 -0.14939
 C25 C -0.09613 0.29990 -0.16747
 C26 C -0.05374 0.30327 -0.12973
 H27 H -0.07834 0.33213 0.02006
 H28 H -0.15290 0.32490 0.08252
 H29 H -0.09207 0.22590 0.22607
 H30 H -0.02018 0.22940 0.15853
 H31 H 0.04150 0.33918 0.13191
 H32 H 0.11661 0.33092 0.19532
 H33 H 0.05786 0.20433 0.03313
 H34 H 0.01779 0.21483 -0.13767
 H35 H 0.09062 0.20765 -0.20329
 H36 H 0.15462 0.32538 -0.08889
 H37 H 0.08041 0.33420 -0.02554
 H38 H -0.07413 0.21115 -0.01732
 H39 H -0.14944 0.20678 -0.08146
 H40 H -0.10191 0.32424 -0.21007
 H41 H -0.02732 0.33045 -0.14337
 H42 H 0.13302 0.19652 0.09569
 C43 C 0.50233 0.77138 0.46323
 C44 C 0.50030 0.77036 0.53491
 C45 C 0.45472 0.76673 0.57299
 C46 C 0.54386 0.77129 0.57908
 C47 C 0.54780 0.76821 0.42596
 C48 C 0.45939 0.77314 0.41811
 C49 C 0.44708 0.79725 0.62940
 C50 C 0.40465 0.79407 0.66614
 C51 C 0.36909 0.76093 0.64607
 C52 C 0.37657 0.73008 0.59035
 C53 C 0.41954 0.73226 0.55497
 C54 C 0.58054 0.80543 0.56845
 C55 C 0.62266 0.80350 0.60627
 C56 C 0.62831 0.76838 0.65714
 C57 C 0.59061 0.73599 0.67084
 C58 C 0.54883 0.73729 0.63186
 C59 C 0.57682 0.73030 0.43826
 C60 C 0.61964 0.72781 0.40312
 C61 C 0.63346 0.76278 0.35469
 C62 C 0.60431 0.80017 0.34129
 C63 C 0.56161 0.80285 0.37673
 C64 C 0.45262 0.74069 0.36289
 C65 C 0.41101 0.73922 0.32339
 C66 C 0.37513 0.76992 0.33872
 C67 C 0.38275 0.80387 0.39177
 C68 C 0.42484 0.80598 0.43034
 H69 H 0.47394 0.82364 0.64477
 H70 H 0.39930 0.81776 0.70965
 H71 H 0.34954 0.70374 0.57532
 H72 H 0.42525 0.70723 0.51337
 H73 H 0.57699 0.83292 0.52968
 H74 H 0.65100 0.82929 0.59535
 H75 H 0.52084 0.71089 0.64152
 H76 H 0.56622 0.70272 0.47495
 H77 H 0.64173 0.69843 0.41302
 H78 H 0.61457 0.82706 0.30328
 H79 H 0.53944 0.83205 0.36618
 H80 H 0.47889 0.71529 0.35193
 H81 H 0.40608 0.71265 0.28292
 H82 H 0.35585 0.82831 0.40418
 H83 H 0.42983 0.83227 0.47119
 H84 H 0.59410 0.70856 0.70972
 C85 C 1.00199 0.73386 -0.03484
 C86 C 0.99895 0.72942 0.03668
 C87 C 1.04051 0.72469 0.08350
 C88 C 0.95310 0.73306 0.07293
 C89 C 0.95804 0.73515 -0.07788
 C90 C 1.04773 0.73713 -0.07422
 C91 C 1.07407 0.69083 0.07130
 C92 C 1.11644 0.69232 0.10937
 C93 C 1.12494 0.72644 0.16202
 C94 C 1.08946 0.75737 0.17826
 C95 C 1.04779 0.75664 0.13920
 C96 C 0.93559 0.69590 0.11532
 C97 C 0.89284 0.69946 0.15048
 C98 C 0.86760 0.74044 0.14425
 C99 C 0.88514 0.77782 0.10256
 C100 C 0.92773 0.77418 0.06706
 C101 C 0.95159 0.77253 -0.12467
 C102 C 0.90998 0.77440 -0.16396
 C103 C 0.87396 0.73919 -0.15638
 C104 C 0.88096 0.70121 -0.11091
 C105 C 0.92289 0.69885 -0.07285
 C106 C 1.08870 0.76051 -0.04686
 C107 C 1.13158 0.75911 -0.08216
 C108 C 1.13318 0.74018 -0.15009
 C109 C 1.09146 0.72142 -0.18098
 C110 C 1.04980 0.71804 -0.14237
 H111 H 1.06863 0.66514 0.02972
 H112 H 1.14302 0.66766 0.09645
 H113 H 1.09496 0.78392 0.21865
 H114 H 1.02221 0.78273 0.15023
 H115 H 0.95495 0.66414 0.12080
 H116 H 0.87969 0.67054 0.18310
 H117 H 0.94118 0.80350 0.03550
 H118 H 0.97848 0.80064 -0.12980
 H119 H 0.90533 0.80414 -0.19845
 H120 H 0.85390 0.67338 -0.10462
 H121 H 0.92767 0.66904 -0.03855
 H122 H 1.08806 0.77967 0.00207
 H123 H 1.16287 0.77572 -0.05829
 H124 H 1.09162 0.70693 -0.23360
 H125 H 1.01904 0.70052 -0.16625
 H126 H 0.86603 0.80980 0.09794
 C127 C 0.49904 0.22039 0.46265
 C128 C 0.49681 0.21920 0.53443
 C129 C 0.54001 0.21898 0.57906
 C130 C 0.45114 0.22297 0.57197
 C131 C 0.45536 0.22093 0.41923
 C132 C 0.54472 0.22535 0.42396
 C133 C 0.57598 0.18770 0.56637
 C134 C 0.61884 0.19254 0.60286
 C135 C 0.62577 0.22766 0.65431
 C136 C 0.58865 0.25683 0.67001
 C137 C 0.54634 0.25267 0.63259
 C138 C 0.43619 0.18825 0.62056
 C139 C 0.39351 0.19187 0.65634
 C140 C 0.36545 0.23038 0.64423
 C141 C 0.38053 0.26539 0.59648
 C142 C 0.42317 0.26187 0.56088
 C143 C 0.45068 0.25668 0.36926
 C144 C 0.40852 0.26045 0.33234
 C145 C 0.37000 0.22882 0.34519
 C146 C 0.37507 0.19209 0.39354
 C147 C 0.41771 0.18770 0.42943
 C148 C 0.57925 0.26044 0.44225
 C149 C 0.62201 0.26426 0.40621
 C150 C 0.63012 0.23474 0.34905
 C151 C 0.59512 0.20106 0.32847
 C152 C 0.55285 0.19617 0.36600
 H153 H 0.57149 0.16070 0.52646
 H154 H 0.64665 0.16912 0.59050
 H155 H 0.59290 0.28411 0.70955
 H156 H 0.51916 0.27709 0.64366
 H157 H 0.45750 0.15831 0.63045
 H158 H 0.38256 0.16492 0.69385
 H159 H 0.43453 0.28958 0.52487
 H160 H 0.47922 0.28262 0.36035
 H161 H 0.40561 0.28906 0.29524
 H162 H 0.34611 0.16684 0.40359
 H163 H 0.42094 0.15916 0.46653
 H164 H 0.57325 0.28474 0.48468
 H165 H 0.64854 0.29075 0.42229
 H166 H 0.60081 0.17819 0.28413
 H167 H 0.52648 0.16946 0.35001
 H168 H 0.35953 0.29567 0.58741
 C169 C 0.73334 0.00010 -0.03231
 C170 C 0.72995 0.00125 0.03967
 C171 C 0.72667 -0.04204 0.08427
 C172 C 0.73331 0.04670 0.07869
 C173 C 0.73311 0.04464 -0.07458
 C174 C 0.73822 -0.04475 -0.07294
 C175 C 0.69559 -0.08058 0.06820
 C176 C 0.69904 -0.12339 0.10393
 C177 C 0.73156 -0.12758 0.15950
 C178 C 0.75903 -0.08732 0.18000
 C179 C 0.75711 -0.04541 0.14221
 C180 C 0.69849 0.05717 0.12771
 C181 C 0.70136 0.09980 0.16447
 C182 C 0.73904 0.13235 0.15248
 C183 C 0.77426 0.12179 0.10456
 C184 C 0.77176 0.07897 0.06851
 C185 C 0.76606 0.05244 -0.12867
 C186 C 0.76649 0.09376 -0.16845
 C187 C 0.73546 0.12949 -0.15282
 C188 C 0.70220 0.12153 -0.09901
 C189 C 0.70000 0.07895 -0.06213
 C190 C 0.76543 -0.08152 -0.04800
 C191 C 0.76528 -0.12456 -0.08336
 C192 C 0.74386 -0.12940 -0.14961
 C193 C 0.72152 -0.09100 -0.17888
 C194 C 0.71677 -0.05002 -0.13954
 H195 H 0.67061 -0.07838 0.02533
 H196 H 0.67641 -0.15322 0.08766
 H197 H 0.78407 -0.08873 0.22294
 H198 H 0.78098 -0.01610 0.15664
 H199 H 0.66890 0.03249 0.13691
 H200 H 0.67414 0.10756 0.20183
 H201 H 0.79963 0.07105 0.03234
 H202 H 0.79181 0.02656 -0.13988
 H203 H 0.79268 0.09852 -0.20932
 H204 H 0.67715 0.14779 -0.08624
 H205 H 0.67289 0.07321 -0.02289
 H206 H 0.78597 -0.07764 -0.00026
 H207 H 0.78440 -0.15311 -0.06092
 H208 H 0.70502 -0.09379 -0.23022
 H209 H 0.69631 -0.02231 -0.16146
 H210 H 0.80383 0.14655 0.09554
 C211 C 0.23275 0.49754 0.46479
 C212 C 0.23001 0.49669 0.53640
 C213 C 0.23279 0.45190 0.57515
 C214 C 0.22782 0.54000 0.58020
 C215 C 0.23678 0.54256 0.42476
 C216 C 0.23372 0.45301 0.42313
 C217 C 0.19296 0.43255 0.60985
 C218 C 0.19531 0.38971 0.64531
 C219 C 0.23798 0.36696 0.64846
 C220 C 0.27813 0.38690 0.61539
 C221 C 0.27541 0.42894 0.57811
 C222 C 0.19563 0.57477 0.56532
 C223 C 0.19725 0.61701 0.60316
 C224 C 0.23001 0.62461 0.65808
 C225 C 0.26004 0.58861 0.67589
 C226 C 0.25909 0.54685 0.63715
 C227 C 0.27026 0.57856 0.44339
 C228 C 0.27201 0.62141 0.40730
 C229 C 0.24175 0.62809 0.35027
 C230 C 0.20990 0.59158 0.32929
 C231 C 0.20719 0.54920 0.36661
 C232 C 0.26960 0.44722 0.37380
 C233 C 0.27191 0.40510 0.33616
 C234 C 0.23870 0.36769 0.34777
 C235 C 0.20219 0.37383 0.39593
 C236 C 0.19922 0.41638 0.43222
 H237 H 0.15997 0.45018 0.60816
 H238 H 0.16417 0.37463 0.67104
 H239 H 0.31128 0.36958 0.61767
 H240 H 0.30648 0.44384 0.55198
 H241 H 0.17023 0.56980 0.52308
 H242 H 0.17332 0.64402 0.58880
 H243 H 0.28405 0.52051 0.65024
 H244 H 0.29465 0.57371 0.48635
 H245 H 0.29738 0.64912 0.42320
 H246 H 0.18666 0.59623 0.28481
 H247 H 0.18160 0.52173 0.35066
 H248 H 0.29635 0.47507 0.36529
 H249 H 0.30037 0.40136 0.29922
 H250 H 0.17564 0.34587 0.40497
 H251 H 0.17010 0.42058 0.46776
 H252 H 0.28571 0.59354 0.71780
 C253 C 0.26947 0.99991 -0.04141
 C254 C 0.26684 0.99886 0.03046
 C255 C 0.26507 1.04309 0.07277
 C256 C 0.26322 0.95381 0.07065
 C257 C 0.27257 0.95651 -0.08548
 C258 C 0.26587 1.04494 -0.07993
 C259 C 0.30020 1.07930 0.06674
 C260 C 0.29638 1.12186 0.10245
 C261 C 0.25961 1.12766 0.15045
 C262 C 0.22678 1.08965 0.16148
 C263 C 0.22890 1.04827 0.12186
 C264 C 0.29284 0.94757 0.12893
 C265 C 0.29033 0.90539 0.16681
 C266 C 0.25864 0.86861 0.14634
 C267 C 0.22838 0.87485 0.08912
 C268 C 0.22992 0.91753 0.05246
 C269 C 0.24399 0.95026 -0.14567
 C270 C 0.24363 0.90849 -0.18416
 C271 C 0.27101 0.87114 -0.16263
 C272 C 0.30171 0.87830 -0.10481
 C273 C 0.30332 0.92093 -0.06789
 C274 C 0.22168 1.05979 -0.10150
 C275 C 0.21843 1.10071 -0.14146
 C276 C 0.25888 1.12985 -0.15421
 C277 C 0.30293 1.11575 -0.13029
 C278 C 0.30661 1.07218 -0.09729
 H279 H 0.33094 1.07465 0.03489
 H280 H 0.32339 1.14955 0.09448
 H281 H 0.19817 1.09258 0.19842
 H282 H 0.20205 1.02035 0.12917
 H283 H 0.31829 0.97524 0.14461
 H284 H 0.31361 0.90112 0.21134
 H285 H 0.20557 0.92202 0.00933
 H286 H 0.22039 0.97685 -0.16221
 H287 H 0.21989 0.90473 -0.22871
 H288 H 0.32426 0.85082 -0.08748
 H289 H 0.32745 0.92542 -0.02398
 H290 H 0.18987 1.03900 -0.08888
 H291 H 0.18399 1.11093 -0.15892
 H292 H 0.33477 1.13713 -0.14064
 H293 H 0.34114 1.06033 -0.08341
 H294 H 0.20317 0.84693 0.07350
 C295 C 0.77220 0.50295 0.46670
 C296 C 0.76985 0.50343 0.53837
 C297 C 0.76551 0.54811 0.57802
 C298 C 0.76911 0.45894 0.58045
 C299 C 0.76943 0.45805 0.42731
 C300 C 0.77310 0.54669 0.42339
 C301 C 0.79620 0.55881 0.63442
 C302 C 0.79329 0.60121 0.67098
 C303 C 0.76009 0.63362 0.65090
 C304 C 0.72872 0.62276 0.59571
 C305 C 0.73073 0.57983 0.56043
 C306 C 0.80221 0.42442 0.56921
 C307 C 0.79879 0.38157 0.60547
 C308 C 0.76331 0.37306 0.65568
 C309 C 0.73177 0.40850 0.66960
 C310 C 0.73446 0.45085 0.63206
 C311 C 0.72864 0.42829 0.43072
 C312 C 0.72594 0.38621 0.39296
 C313 C 0.76407 0.37335 0.35196
 C314 C 0.80473 0.40308 0.34798
 C315 C 0.80719 0.44561 0.38496
 C316 C 0.74043 0.55046 0.36828
 C317 C 0.73826 0.59216 0.32993
 C318 C 0.76850 0.63121 0.34614
 C319 C 0.80237 0.62699 0.39961
 C320 C 0.80512 0.58486 0.43721
 H321 H 0.82279 0.53458 0.64950
 H322 H 0.81737 0.60909 0.71413
 H323 H 0.70233 0.64722 0.58064
 H324 H 0.70558 0.57162 0.51879
 H325 H 0.83035 0.43035 0.53165
 H326 H 0.82401 0.35514 0.59447
 H327 H 0.70875 0.47695 0.64225
 H328 H 0.69897 0.43784 0.46238
 H329 H 0.69424 0.36360 0.39587
 H330 H 0.83427 0.39348 0.31608
 H331 H 0.83869 0.46852 0.38146
 H332 H 0.71549 0.52154 0.35623
 H333 H 0.71179 0.59431 0.28908
 H334 H 0.82650 0.65638 0.41273
 H335 H 0.83140 0.58245 0.47825
 H336 H 0.70409 0.40290 0.70804
 O337 O 0.23203 0.17193 0.24250
 O338 O 0.22535 0.28456 0.33766
 O339 O 0.17364 0.23821 0.24628
 O340 O 0.28652 0.21765 0.33437
 O341 O 0.32472 0.25813 0.25177
 O342 O 0.21293 0.27232 0.15855
 O343 O 0.26287 0.32166 0.25118
 O344 O 0.27634 0.20787 0.16223
 Cu345 Cu 0.22581 0.22440 0.29926
 Cu346 Cu 0.27279 0.26873 0.19702
 C347 C 0.25590 0.17050 0.18634
 C348 C 0.24239 0.32242 0.31028
 C349 C 0.17442 0.25803 0.18669
 C350 C 0.32481 0.23492 0.30861
 O351 O 0.67566 0.73855 0.25650
 O352 O 0.78530 0.72851 0.15743
 O353 O 0.74010 0.67743 0.25206
 O354 O 0.72009 0.79105 0.16577
 O355 O 0.76211 0.82749 0.24873
 O356 O 0.78044 0.71442 0.33647
 O357 O 0.82553 0.76506 0.24270
 O358 O 0.71561 0.77605 0.34124
 Cu359 Cu 0.72654 0.73011 0.19909
 Cu360 Cu 0.77490 0.77455 0.30080
 C361 C 0.67712 0.75900 0.31561
 C362 C 0.82393 0.74489 0.18332
 C363 C 0.76308 0.67655 0.30947
 C364 C 0.73783 0.82891 0.19259
 O365 O 0.71256 0.22753 0.34127
 O366 O 0.82595 0.24427 0.24922
 O367 O 0.77896 0.29289 0.33972
 O368 O 0.75991 0.17834 0.25178
 O369 O 0.72884 0.21409 0.16073
 O370 O 0.73886 0.32686 0.25542
 O371 O 0.79151 0.28452 0.16633
 O372 O 0.67611 0.25782 0.25024
 Cu373 Cu 0.77297 0.23221 0.30426
 Cu374 Cu 0.73020 0.27413 0.19913
 C375 C 0.67505 0.23978 0.31125
 C376 C 0.82856 0.26779 0.19239
 C377 C 0.76091 0.32894 0.31345
 C378 C 0.74235 0.17708 0.19046
 O379 O 0.26124 0.67392 0.25046
 O380 O 0.27093 0.78712 0.15641
 O381 O 0.32502 0.74234 0.24512
 O382 O 0.20784 0.71824 0.16512
 O383 O 0.17566 0.75448 0.25411
 O384 O 0.29252 0.77873 0.33369
 O385 O 0.23955 0.82292 0.24672
 O386 O 0.23002 0.70968 0.34098
 Cu387 Cu 0.26979 0.72709 0.19520
 Cu388 Cu 0.23100 0.76992 0.30280
 C389 C 0.24426 0.67275 0.31190
 C390 C 0.25647 0.82404 0.18520
 C391 C 0.32872 0.76390 0.30356
 C392 C 0.17170 0.73273 0.19592
 O393 O 0.77307 0.29042 0.66253
 O394 O 0.76158 0.17620 0.75414
 O395 O 0.70893 0.22012 0.66347
 O396 O 0.82378 0.24446 0.75039
 O397 O 0.78669 0.27388 0.84106
 O398 O 0.67336 0.25732 0.74836
 O399 O 0.71975 0.20846 0.83697
 O400 O 0.73863 0.32428 0.75165
 Cu401 Cu 0.77009 0.22949 0.69828
 Cu402 Cu 0.72617 0.26966 0.80327
 C403 C 0.75832 0.32704 0.69194
 C404 C 0.73874 0.17269 0.81133
 C405 C 0.67162 0.23507 0.69060
 C406 C 0.82433 0.26173 0.81175
 O407 O 0.32511 0.74228 0.74742
 O408 O 0.21404 0.73626 0.84443
 O409 O 0.25547 0.67512 0.75257
 O410 O 0.28389 0.79147 0.83221
 O411 O 0.24089 0.82201 0.74868
 O412 O 0.22152 0.70713 0.66096
 O413 O 0.17469 0.75014 0.74720
 O414 O 0.28695 0.76855 0.65496
 Cu415 Cu 0.27235 0.73050 0.80195
 Cu416 Cu 0.22769 0.76746 0.69556
 C417 C 0.32488 0.75728 0.68478
 C418 C 0.17529 0.74193 0.81262
 C419 C 0.23548 0.67111 0.69271
 C420 C 0.26560 0.82693 0.80451
 O421 O 0.26657 0.32115 0.74086
 O422 O 0.28074 0.20810 0.82864
 O423 O 0.32419 0.25840 0.74169
 O424 O 0.21251 0.27356 0.83685
 O425 O 0.17099 0.23908 0.75140
 O426 O 0.28276 0.21898 0.66050
 O427 O 0.22622 0.17495 0.75951
 O428 O 0.21837 0.28602 0.66352
 Cu429 Cu 0.27290 0.26913 0.79763
 Cu430 Cu 0.22265 0.22556 0.69862
 C431 C 0.24091 0.32256 0.68632
 C432 C 0.25525 0.17229 0.81006
 C433 C 0.32199 0.23586 0.68425
 C434 C 0.17290 0.25948 0.81063
 O435 O 0.71138 0.77928 0.66136
 O436 O 0.82520 0.76719 0.75166
 O437 O 0.77029 0.71652 0.65854
 O438 O 0.75505 0.82894 0.74873
 O439 O 0.73818 0.78958 0.84585
 O440 O 0.74133 0.67784 0.75064
 O441 O 0.79153 0.72378 0.83526
 O442 O 0.67678 0.74427 0.75219
 Cu443 Cu 0.77115 0.77652 0.69771
 Cu444 Cu 0.73104 0.73076 0.80351
 C445 C 0.67432 0.76397 0.69232
 C446 C 0.82812 0.74332 0.80793
 C447 C 0.75727 0.67820 0.68860
 C448 C 0.74560 0.82837 0.81375
   
