data_POSCAR
  _audit_creation_date              2014-09-24
  _audit_creation_method            'ToBaCCo'
  _symmetry_space_group_name_H-M    'P1'
  _symmetry_Int_Tables_number       1
  _symmetry_cell_setting            triclinic
  loop_
  _symmetry_equiv_pos_as_xyz
 x,y,z
_cell_length_a 25.1115
_cell_length_b 24.7820
_cell_length_c 24.4052
_cell_angle_alpha 91.065700
_cell_angle_beta 89.642900
_cell_angle_gamma 89.783500
loop_
  _atom_site_label
  _atom_site_type_symbol
  _atom_site_fract_x
  _atom_site_fract_y
  _atom_site_fract_z
C1 C 0.20047 0.18523 0.25355
 C2 C 0.17626 0.23130 0.23216
 C3 C 0.19187 0.25180 0.18133
 C4 C 0.23856 0.23141 0.15596
 C5 C 0.26563 0.18679 0.17760
 C6 C 0.24390 0.16257 0.22456
 H7 H 0.14117 0.24805 0.25205
 H8 H 0.25198 0.24821 0.11792
 H9 H 0.25911 0.12362 0.23638
 C10 C -0.20961 0.80528 0.27639
 C11 C -0.18900 0.75422 0.26042
 C12 C -0.20945 0.72541 0.21510
 C13 C -0.25372 0.74724 0.18753
 C14 C -0.27915 0.79477 0.20662
 C15 C -0.25747 0.82223 0.25225
 H16 H -0.15425 0.73820 0.28038
 H17 H -0.26568 0.72967 0.14888
 H18 H -0.27556 0.85999 0.26567
 C19 C -0.20503 0.19310 -0.26731
 C20 C -0.24908 0.17172 -0.23903
 C21 C -0.26481 0.19224 -0.18702
 C22 C -0.23875 0.23774 -0.16560
 C23 C -0.19231 0.25715 -0.19026
 C24 C -0.17704 0.23590 -0.24176
 H25 H -0.26901 0.13642 -0.25558
 H26 H -0.25385 0.25738 -0.12896
 H27 H -0.14103 0.25108 -0.26019
 C28 C 0.18656 0.81785 -0.26147
 C29 C 0.15712 0.77688 -0.23631
 C30 C 0.17852 0.74655 -0.19346
 C31 C 0.22893 0.76032 -0.17302
 C32 C 0.25890 0.80164 -0.19649
 C33 C 0.23717 0.83004 -0.24029
 H34 H 0.11613 0.77050 -0.24813
 H35 H 0.24258 0.74182 -0.13605
 H36 H 0.25837 0.86520 -0.25410
 C37 C 0.19134 1.19893 0.75135
 C38 C 0.17403 1.24624 0.77862
 C39 C 0.19718 1.26426 0.82812
 C40 C 0.23847 1.23361 0.85103
 C41 C 0.25743 1.18633 0.82433
 C42 C 0.23271 1.16925 0.77537
 H43 H 0.13974 1.26788 0.76421
 H44 H 0.25355 1.24450 0.89099
 H45 H 0.24381 1.13074 0.75687
 C46 C 0.81618 0.80910 0.71563
 C47 C 0.83500 0.76197 0.74083
 C48 C 0.80916 0.74104 0.78752
 C49 C 0.75983 0.76369 0.80348
 C50 C 0.74115 0.81169 0.78095
 C51 C 0.77045 0.83453 0.73821
 H52 H 0.87213 0.74391 0.72722
 H53 H 0.73736 0.74650 0.83658
 H54 H 0.75995 0.87449 0.72482
 C55 C 0.20071 0.80143 1.26437
 C56 C 0.17488 0.76158 1.23263
 C57 C 0.19732 0.74004 1.18404
 C58 C 0.24607 0.76116 1.16550
 C59 C 0.27316 0.80177 1.19590
 C60 C 0.24980 0.82128 1.24498
 H61 H 0.13503 0.74911 1.24339
 H62 H 0.26053 0.74892 1.12560
 H63 H 0.26808 0.85537 1.26581
 C64 C 0.81398 1.20249 1.27177
 C65 C 0.83096 1.25169 1.24932
 C66 C 0.80560 1.27404 1.20322
 C67 C 0.76329 1.24524 1.17881
 C68 C 0.74522 1.19616 1.20023
 C69 C 0.77132 1.17544 1.24603
 H70 H 0.86696 1.27038 1.26426
 H71 H 0.74777 1.25850 1.14017
 H72 H 0.76126 1.13515 1.25891
 O73 O 0.54789 0.93734 0.89325
 O74 O 0.45214 0.97051 1.11377
 O75 O 0.58911 0.92773 1.03321
 O76 O 0.43397 0.90275 0.95746
 O77 O 0.55009 0.95525 1.10618
 O78 O 0.44783 0.94742 0.88615
 O79 O 0.44662 0.91362 1.05062
 O80 O 0.61311 0.96744 0.94455
 C81 C 0.59633 0.93762 0.90582
 C82 C 0.43696 0.92481 1.09862
 C83 C 0.58063 0.92209 1.08276
 C84 C 0.42827 0.90716 0.90787
 O85 O 0.45376 1.04925 0.90107
 O86 O 0.56414 1.05858 1.07583
 O87 O 0.58320 1.06420 0.97793
 O88 O 0.40008 1.01570 1.04774
 O89 O 0.46494 1.06831 1.07201
 O90 O 0.55529 1.04200 0.89746
 O91 O 0.39324 1.00679 0.94994
 O92 O 0.63702 1.01721 1.04458
 Co93 Co 0.50161 0.99362 0.90424
 Co94 Co 0.50752 1.01050 1.08291
 Co95 Co 0.58022 0.99548 1.00623
 Co96 Co 0.42441 0.96163 1.00151
 O97 O 0.50118 0.98843 0.99471
 C98 C 0.40653 1.04452 0.91766
 C99 C 0.61483 1.05182 1.07960
 C100 C 0.58310 1.07154 0.92757
 C101 C 0.41609 1.06037 1.06681
 O102 O 0.05684 0.44618 0.07903
 O103 O 0.04913 0.55262 -0.09996
 O104 O 0.06603 0.42966 -0.01824
 O105 O 0.01727 0.61359 0.05177
 O106 O 0.04242 0.45035 -0.09908
 O107 O 0.06640 0.54592 0.07575
 O108 O 0.01140 0.61717 -0.04859
 O109 O 0.01709 0.37318 0.04558
 C110 C 0.05004 0.39497 0.08123
 C111 C 0.04583 0.60127 -0.08421
 C112 C 0.07443 0.42722 -0.06839
 C113 C 0.06010 0.59572 0.07154
 O114 O -0.03117 0.55958 0.11670
 O115 O -0.06240 0.45992 -0.09945
 O116 O -0.07091 0.42172 0.03414
 O117 O -0.09229 0.58350 -0.04036
 O118 O -0.05034 0.55949 -0.11218
 O119 O -0.04613 0.46009 0.10830
 O120 O -0.08527 0.57269 0.05334
 O121 O -0.02790 0.39532 -0.05252
 Co122 Co 0.00886 0.50342 0.08574
 Co123 Co -0.00579 0.50523 -0.09275
 Co124 Co -0.00321 0.43083 0.00845
 Co125 Co -0.03507 0.59015 0.00416
 O126 O -0.01107 0.51010 -0.00223
 C127 C -0.07553 0.57668 0.10229
 C128 C -0.06089 0.41122 -0.08724
 C129 C -0.07728 0.42838 0.08422
 C130 C -0.08721 0.58547 -0.09038
 O131 O 1.10464 0.06600 0.45353
 O132 O 0.88735 0.03037 0.54905
 O133 O 0.96161 0.03850 0.39102
 O134 O 1.04143 0.09580 0.57161
 O135 O 0.92260 0.07008 0.46231
 O136 O 1.11342 0.05468 0.55637
 O137 O 0.95012 0.08349 0.56406
 O138 O 1.05823 0.02582 0.38806
 C139 C 1.09153 0.06147 0.40403
 C140 C 0.90274 0.07206 0.57275
 C141 C 0.93151 0.07322 0.41239
 C142 C 1.08984 0.09327 0.57831
 O143 O 1.10478 -0.04699 0.54436
 O144 O 0.87502 -0.02149 0.45205
 O145 O 1.04179 -0.07775 0.42468
 O146 O 0.95856 -0.02042 0.60085
 O147 O 0.92950 -0.06119 0.52747
 O148 O 1.11352 -0.03661 0.44192
 O149 O 1.05490 -0.00860 0.60890
 O150 O 0.94812 -0.06305 0.42813
 Co151 Co 1.09921 0.00955 0.49891
 Co152 Co 0.93001 0.00394 0.49298
 Co153 Co 1.00315 -0.01650 0.41543
 Co154 Co 1.00190 0.03551 0.57995
 O155 O 1.01111 0.01014 0.49905
 C156 C 1.08893 -0.04407 0.59325
 C157 C 0.89871 -0.05641 0.41975
 C158 C 1.09074 -0.07618 0.42120
 C159 C 0.93509 -0.06011 0.57853
 C160 C 1.17306 0.15449 0.29463
 C161 C 1.20832 0.11692 0.32892
 C162 C 1.18048 0.08576 0.36414
 C163 C 1.12003 0.09556 0.36336
 C164 C 1.11349 0.15647 0.37406
 C165 C 1.14159 0.18742 0.33859
 C166 C 1.13146 0.11708 0.26773
 C167 C 1.10381 0.08642 0.30346
 H168 H 1.25154 0.11696 0.32844
 H169 H 1.20001 0.05844 0.39196
 H170 H 1.09056 0.17372 0.40798
 H171 H 1.14343 0.23097 0.34362
 H172 H 1.12418 0.11510 0.22390
 H173 H 1.07307 0.05857 0.29004
 C174 C 0.81909 -0.15869 0.31343
 C175 C 0.79937 -0.16129 0.37318
 C176 C 0.82542 -0.12749 0.40865
 C177 C 0.86902 -0.09377 0.38149
 C178 C 0.90545 -0.13537 0.35218
 C179 C 0.87984 -0.16856 0.31640
 C180 C 0.81557 -0.09804 0.29912
 C181 C 0.84115 -0.06442 0.33496
 H182 H 0.76759 -0.18768 0.38652
 H183 H 0.81590 -0.12506 0.45208
 H184 H 0.94842 -0.13690 0.35651
 H185 H 0.90235 -0.19564 0.28953
 H186 H 0.79714 -0.08274 0.26238
 H187 H 0.84337 -0.02113 0.32924
 C188 C 0.81952 0.16282 0.68782
 C189 C 0.85628 0.19547 0.64990
 C190 C 0.88271 0.16503 0.61170
 C191 C 0.86965 0.10460 0.61316
 C192 C 0.88023 0.08743 0.67206
 C193 C 0.85486 0.11793 0.71072
 C194 C 0.78221 0.13308 0.64693
 C195 C 0.80863 0.10242 0.60789
 H196 H 0.85774 0.23921 0.64917
 H197 H 0.90736 0.18305 0.58029
 H198 H 0.90151 0.05098 0.68264
 H199 H 0.85667 0.10829 0.75392
 H200 H 0.73918 0.13727 0.64718
 H201 H 0.78814 0.08017 0.57569
 C202 C 1.16151 -0.14720 0.69952
 C203 C 1.12712 -0.10351 0.72851
 C204 C 1.10224 -0.06926 0.69400
 C205 C 1.11405 -0.08135 0.63326
 C206 C 1.17504 -0.08096 0.62841
 C207 C 1.19982 -0.11586 0.66201
 C208 C 1.12347 -0.17529 0.65854
 C209 C 1.09849 -0.14072 0.62421
 H210 H 1.12237 -0.10012 0.77271
 H211 H 1.07623 -0.03704 0.70882
 H212 H 1.19686 -0.05766 0.59851
 H213 H 1.24231 -0.12324 0.65830
 H214 H 1.11791 -0.21865 0.65535
 H215 H 1.07109 -0.15449 0.59272
 C216 C 0.30667 1.15801 1.14708
 C217 C 0.28229 1.11065 1.11456
 C218 C 0.31825 1.07950 1.08701
 C219 C 0.37632 1.09781 1.09418
 C220 C 0.37645 1.15698 1.07640
 C221 C 0.34013 1.18879 1.10419
 C222 C 0.34933 1.13245 1.18381
 C223 C 0.38488 1.10061 1.15634
 H224 H 0.23977 1.10306 1.11216
 H225 H 0.30591 1.04587 1.06100
 H226 H 0.40394 1.17288 1.04632
 H227 H 0.33812 1.23198 1.09812
 H228 H 0.35265 1.14028 1.22758
 H229 H 0.41749 1.08080 1.17701
 C230 C 0.30746 0.82528 0.83157
 C231 C 0.29158 0.87833 0.86066
 C232 C 0.33236 0.90443 0.88494
 C233 C 0.38609 0.87530 0.87911
 C234 C 0.37638 0.81840 0.90106
 C235 C 0.33540 0.79192 0.87602
 C236 C 0.35319 0.84045 0.79223
 C237 C 0.39427 0.86685 0.81715
 H238 H 0.25128 0.89445 0.86163
 H239 H 0.32655 0.94291 0.90588
 H240 H 0.40142 0.79943 0.93133
 H241 H 0.32715 0.75001 0.88453
 H242 H 0.35378 0.83006 0.74882
 H243 H 0.42973 0.87920 0.79509
 C244 C 0.67961 0.82454 1.17243
 C245 C 0.70614 0.87273 1.14487
 C246 C 0.67258 0.90367 1.11573
 C247 C 0.61463 0.88425 1.11563
 C248 C 0.61765 0.82530 1.09524
 C249 C 0.65141 0.79383 1.12499
 C250 C 0.63316 0.84923 1.20617
 C251 C 0.59944 0.88053 1.17668
 H252 H 0.74829 0.88185 1.14808
 H253 H 0.68651 0.93909 1.09468
 H254 H 0.59360 0.80915 1.06202
 H255 H 0.65458 0.75075 1.11717
 H256 H 0.62645 0.84142 1.24928
 H257 H 0.56424 0.89926 1.19486
 C258 C 0.69412 1.16210 0.84689
 C259 C 0.69180 1.17477 0.90947
 C260 C 0.65433 1.14608 0.93710
 C261 C 0.62291 1.10712 0.90027
 C262 C 0.59962 1.14223 0.85501
 C263 C 0.63684 1.17074 0.82704
 C264 C 0.70295 1.10067 0.84418
 C265 C 0.66574 1.07219 0.87147
 H266 H 0.71955 1.20030 0.93162
 H267 H 0.64983 1.14878 0.98123
 H268 H 0.55740 1.14478 0.84606
 H269 H 0.62641 1.19762 0.79414
 H270 H 0.73689 1.08106 0.82437
 H271 H 0.66797 1.02859 0.87405
 C272 C 0.15461 0.29106 0.15313
 C273 C 0.09507 0.27703 0.16110
 C274 C 0.06086 0.31283 0.13885
 C275 C 0.08860 0.35869 0.10895
 C276 C 0.12540 0.38496 0.15166
 C277 C 0.15985 0.34950 0.17483
 C278 C 0.16040 0.29481 0.09037
 C279 C 0.12597 0.33018 0.06761
 H280 H 0.08077 0.24071 0.18047
 H281 H 0.01799 0.30769 0.14068
 H282 H 0.12444 0.42754 0.16289
 H283 H 0.18845 0.36189 0.20572
 H284 H 0.18498 0.26847 0.06478
 H285 H 0.12232 0.33375 0.02367
 C286 C -0.15722 0.29854 -0.16115
 C287 C -0.16621 0.35595 -0.18201
 C288 C -0.13468 0.39394 -0.15786
 C289 C -0.09661 0.37111 -0.11487
 C290 C -0.13257 0.34162 -0.07432
 C291 C -0.16394 0.30342 -0.09819
 C292 C -0.09695 0.28799 -0.16874
 C293 C -0.06550 0.32623 -0.14519
 H294 H -0.19519 0.36587 -0.21311
 H295 H -0.13684 0.43623 -0.16851
 H296 H -0.13144 0.34813 -0.03021
 H297 H -0.18777 0.27674 -0.07339
 H298 H -0.08012 0.25250 -0.18913
 H299 H -0.02237 0.32399 -0.14700
 C300 C 0.14380 0.70627 -0.16384
 C301 C 0.10835 0.73407 -0.11996
 C302 C 0.07579 0.69992 -0.09260
 C303 C 0.08150 0.64079 -0.11162
 C304 C 0.07217 0.64129 -0.17376
 C305 C 0.10497 0.67498 -0.20113
 C306 C 0.17355 0.66138 -0.13318
 C307 C 0.14088 0.62756 -0.10550
 H308 H 0.10909 0.77715 -0.11104
 H309 H 0.04886 0.71387 -0.06033
 H310 H 0.04320 0.61601 -0.19472
 H311 H 0.10454 0.67727 -0.24549
 H312 H 0.21622 0.65461 -0.13524
 H313 H 0.15585 0.59333 -0.08303
 C314 C -0.17484 0.68143 0.18793
 C315 C -0.12936 0.70772 0.15587
 C316 C -0.09610 0.67232 0.13008
 C317 C -0.11112 0.61295 0.13706
 C318 C -0.11284 0.60552 0.19942
 C319 C -0.14637 0.64134 0.22621
 C320 C -0.20299 0.64426 0.14613
 C321 C -0.16985 0.60900 0.11957
 H322 H -0.12205 0.75090 0.15613
 H323 H -0.05984 0.68556 0.11017
 H324 H -0.09083 0.57442 0.22043
 H325 H -0.15312 0.64018 0.27012
 H326 H -0.24581 0.64196 0.14111
 H327 H -0.18479 0.57823 0.09143
 C328 C 1.16392 0.17581 0.70439
 C329 C 1.12034 0.20958 0.67556
 C330 C 1.09571 0.18287 0.63336
 C331 C 1.11691 0.12546 0.62293
 C332 C 1.17722 0.13252 0.61461
 C333 C 1.20171 0.15887 0.65694
 C334 C 1.13538 0.12360 0.72035
 C335 C 1.11152 0.09737 0.67814
 H336 H 1.11189 0.25189 0.68340
 H337 H 1.06625 0.20204 0.60775
 H338 H 1.19863 0.11919 0.57799
 H339 H 1.24396 0.16799 0.65612
 H340 H 1.13457 0.10802 0.76167
 H341 H 1.09138 0.05930 0.68375
 C342 C 0.84857 -0.16107 0.67744
 C343 C 0.81598 -0.13125 0.63388
 C344 C 0.84535 -0.09851 0.60165
 C345 C 0.90519 -0.09895 0.61420
 C346 C 0.90879 -0.08459 0.67569
 C347 C 0.87946 -0.11673 0.70826
 C348 C 0.89162 -0.19155 0.64290
 C349 C 0.92133 -0.15877 0.60999
 H350 H 0.77362 -0.13695 0.62739
 H351 H 0.82771 -0.07603 0.56854
 H352 H 0.93332 -0.05255 0.69278
 H353 H 0.87913 -0.11165 0.75258
 H354 H 0.89666 -0.23503 0.64162
 H355 H 0.95198 -0.17422 0.58228
 C356 C 1.17248 -0.16994 0.30792
 C357 C 1.12704 -0.20056 0.33734
 C358 C 1.09969 -0.17002 0.37524
 C359 C 1.12057 -0.11218 0.38141
 C360 C 1.18019 -0.11900 0.39400
 C361 C 1.20729 -0.14937 0.35583
 C362 C 1.14581 -0.11911 0.28549
 C363 C 1.11908 -0.08911 0.32361
 H364 H 1.11963 -0.24349 0.33273
 H365 H 1.06859 -0.18661 0.40095
 H366 H 1.19901 -0.10322 0.43084
 H367 H 1.24901 -0.15972 0.36076
 H368 H 1.14840 -0.10717 0.24294
 H369 H 1.09943 -0.05155 0.31349
 C370 C 0.84555 0.17309 0.31116
 C371 C 0.81192 0.14133 0.35274
 C372 C 0.84083 0.10905 0.38591
 C373 C 0.90125 0.11177 0.37629
 C374 C 0.90864 0.09857 0.31478
 C375 C 0.87990 0.13026 0.28130
 C376 C 0.88540 0.20439 0.34813
 C377 C 0.91454 0.17211 0.38200
 H378 H 0.76902 0.14530 0.35716
 H379 H 0.82234 0.08534 0.41773
 H380 H 0.93484 0.06720 0.29839
 H381 H 0.88196 0.12559 0.23698
 H382 H 0.88865 0.24799 0.35021
 H383 H 0.94291 0.18823 0.41135
 C384 C 0.16958 0.31059 -0.14104
 C385 C 0.15674 0.35856 -0.17805
 C386 C 0.12659 0.39771 -0.15344
 C387 C 0.11221 0.38630 -0.09343
 C388 C 0.08591 0.33059 -0.09481
 C389 C 0.11557 0.29144 -0.11938
 C390 C 0.19655 0.33743 -0.09057
 C391 C 0.16634 0.37733 -0.06577
 H392 H 0.17193 0.36241 -0.21954
 H393 H 0.11617 0.43467 -0.17411
 H394 H 0.04739 0.32202 -0.07683
 H395 H 0.10211 0.24989 -0.12222
 H396 H 0.23654 0.32840 -0.07693
 H397 H 0.18032 0.40119 -0.03105
 C398 C -0.16682 0.31929 0.17202
 C399 C -0.13950 0.36266 0.20802
 C400 C -0.11110 0.39953 0.17921
 C401 C -0.11256 0.39054 0.11653
 C402 C -0.09424 0.33174 0.10768
 C403 C -0.12215 0.29513 0.13634
 C404 C -0.20070 0.35278 0.13188
 C405 C -0.17214 0.38978 0.10274
 H406 H -0.14401 0.36568 0.25222
 H407 H -0.09135 0.43334 0.19927
 H408 H -0.06282 0.31900 0.07992
 H409 H -0.11373 0.25216 0.13299
 H410 H -0.24364 0.34986 0.12851
 H411 H -0.19057 0.41717 0.07426
 C412 C -0.16511 0.70043 -0.17955
 C413 C -0.10451 0.70858 -0.17362
 C414 C -0.07984 0.66976 -0.14456
 C415 C -0.11742 0.62621 -0.12278
 C416 C -0.15986 0.65787 -0.08999
 C417 C -0.18422 0.69698 -0.11902
 C418 C -0.17122 0.64272 -0.20316
 C419 C -0.14636 0.60398 -0.17349
 H420 H -0.08295 0.74339 -0.18833
 H421 H -0.03762 0.67148 -0.13563
 H422 H -0.16745 0.65295 -0.04653
 H423 H -0.20999 0.72597 -0.09810
 H424 H -0.19347 0.63312 -0.24005
 H425 H -0.14739 0.56146 -0.18495
 C426 C 0.16387 0.69985 0.15057
 C427 C 0.18963 0.66908 0.10132
 C428 C 0.15550 0.63486 0.07431
 C429 C 0.09894 0.63416 0.09882
 C430 C 0.10707 0.62095 0.15943
 C431 C 0.14115 0.65457 0.18611
 C432 C 0.11475 0.72758 0.12621
 C433 C 0.08104 0.69362 0.09936
 H434 H 0.23118 0.67179 0.08952
 H435 H 0.16790 0.60987 0.03949
 H436 H 0.08841 0.58721 0.17962
 H437 H 0.15170 0.64886 0.22869
 H438 H 0.10753 0.77077 0.12916
 H439 H 0.04530 0.70824 0.07962
 C440 C 0.29851 1.14953 0.85074
 C441 C 0.33855 1.17667 0.89017
 C442 C 0.37344 1.14149 0.91323
 C443 C 0.36568 1.08241 0.89476
 C444 C 0.30714 1.07016 0.90793
 C445 C 0.27217 1.10511 0.88481
 C446 C 0.33444 1.11896 0.80906
 C447 C 0.36864 1.08353 0.83193
 H448 H 0.34120 1.21985 0.89764
 H449 H 0.40468 1.15470 0.94088
 H450 H 0.29415 1.03741 0.93365
 H451 H 0.22943 1.10191 0.89079
 H452 H 0.33494 1.12618 0.76533
 H453 H 0.39685 1.05991 0.80746
 C454 C 0.32025 0.83276 1.17173
 C455 C 0.34997 0.80469 1.12378
 C456 C 0.38888 0.83511 1.10130
 C457 C 0.39597 0.89130 1.12857
 C458 C 0.34054 0.91747 1.12740
 C459 C 0.30131 0.88696 1.14918
 C460 C 0.36550 0.84834 1.21196
 C461 C 0.40511 0.87907 1.18927
 H462 H 0.34538 0.76266 1.11175
 H463 H 0.41528 0.81867 1.06972
 H464 H 0.33294 0.95779 1.11271
 H465 H 0.26038 0.90111 1.15197
 H466 H 0.36679 0.83545 1.25419
 H467 H 0.43969 0.89256 1.21209
 C468 C 0.70759 1.15916 1.16802
 C469 C 0.73942 1.11851 1.13244
 C470 C 0.70905 1.08308 1.10347
 C471 C 0.64879 1.09099 1.11210
 C472 C 0.64052 1.08820 1.17430
 C473 C 0.67075 1.12401 1.20354
 C474 C 0.66891 1.18618 1.12795
 C475 C 0.63842 1.15054 1.09874
 H476 H 0.78263 1.11766 1.13036
 H477 H 0.72677 1.05214 1.07705
 H478 H 0.61244 1.06128 1.19371
 H479 H 0.66743 1.12801 1.24779
 H480 H 0.66311 1.22943 1.12513
 H481 H 0.60765 1.16372 1.07091
 C482 C 0.69979 0.84503 0.81259
 C483 C 0.67015 0.88882 0.78042
 C484 C 0.63648 0.91970 0.81186
 C485 C 0.63457 0.90376 0.87239
 C486 C 0.62076 0.84343 0.87107
 C487 C 0.65449 0.81273 0.83946
 C488 C 0.72645 0.87575 0.86035
 C489 C 0.69263 0.90628 0.89153
 H490 H 0.67264 0.89340 0.73637
 H491 H 0.61183 0.95121 0.79476
 H492 H 0.58633 0.82659 0.89164
 H493 H 0.64789 0.76993 0.83238
 H494 H 0.76879 0.87359 0.86890
 H495 H 0.70628 0.92993 0.92654
   
