data_POSCAR
  _audit_creation_date              2014-09-24
  _audit_creation_method            'ToBaCCo'
  _symmetry_space_group_name_H-M    'P1'
  _symmetry_Int_Tables_number       1
  _symmetry_cell_setting            triclinic
  loop_
  _symmetry_equiv_pos_as_xyz
 x,y,z
_cell_length_a 50.7378
_cell_length_b 50.9687
_cell_length_c 51.0707
_cell_angle_alpha 89.971900
_cell_angle_beta 89.927100
_cell_angle_gamma 89.893700
loop_
  _atom_site_label
  _atom_site_type_symbol
  _atom_site_fract_x
  _atom_site_fract_y
  _atom_site_fract_z
C1 C 0.27735 0.47436 0.99338
 C2 C 0.26177 0.49703 0.99557
 C3 C 0.27329 0.52193 0.99602
 C4 C 0.30287 0.52589 0.99441
 C5 C 0.31759 0.50009 0.99148
 C6 C 0.30486 0.47590 0.99094
 C7 C 0.23282 0.49515 0.99810
 C8 C 0.22150 0.49458 1.02324
 C9 C 0.19403 0.49603 1.02653
 C10 C 0.17823 0.49890 1.00410
 C11 C 0.18902 0.49929 0.97894
 C12 C 0.21649 0.49721 0.97586
 H13 H 0.26789 0.45531 0.99271
 H14 H 0.26085 0.53916 0.99783
 H15 H 0.23425 0.49351 1.04024
 H16 H 0.22529 0.49867 0.95657
 H17 H 0.33877 0.50051 0.98899
 H18 H 0.15728 0.50226 1.00576
 C19 C 0.72585 0.47499 -0.00029
 C20 C 0.73686 0.50001 -0.00279
 C21 C 0.72077 0.52221 -0.00628
 C22 C 0.69326 0.51987 -0.00808
 C23 C 0.68141 0.49528 -0.00625
 C24 C 0.69674 0.47046 -0.00188
 C25 C 0.76567 0.50271 -0.00013
 C26 C 0.78221 0.50336 -0.02234
 C27 C 0.80993 0.50303 -0.01925
 C28 C 0.82032 0.50253 0.00623
 C29 C 0.80401 0.50207 0.02840
 C30 C 0.77668 0.50186 0.02501
 H31 H 0.73867 0.45818 0.00273
 H32 H 0.72981 0.54138 -0.00789
 H33 H 0.77327 0.50324 -0.04155
 H34 H 0.76387 0.50061 0.04197
 H35 H 0.66020 0.49390 -0.00752
 H36 H 0.84146 0.50131 0.00868
 C37 C 0.02304 0.22626 0.50157
 C38 C -0.00232 0.23689 0.50032
 C39 C -0.02444 0.22070 0.49738
 C40 C -0.02171 0.19343 0.49494
 C41 C 0.00308 0.18183 0.49567
 C42 C 0.02789 0.19735 0.49918
 C43 C -0.00510 0.26559 0.50067
 C44 C -0.00537 0.27957 0.47710
 C45 C -0.00541 0.30716 0.47697
 C46 C -0.00573 0.32054 0.50121
 C47 C -0.00537 0.30656 0.52503
 C48 C -0.00496 0.27908 0.52446
 H49 H 0.03988 0.23910 0.50377
 H50 H -0.04384 0.22952 0.49597
 H51 H -0.00486 0.26878 0.45879
 H52 H -0.00436 0.26805 0.54260
 H53 H 0.00464 0.16079 0.49309
 H54 H -0.00735 0.34159 0.50169
 C55 C 1.02545 0.78061 0.49715
 C56 C 1.00170 0.76689 0.49962
 C57 C 0.97800 0.78065 0.50221
 C58 C 0.97768 0.80813 0.50231
 C59 C 1.00173 0.82181 0.50085
 C60 C 1.02586 0.80818 0.49833
 C61 C 1.00160 0.73804 0.49974
 C62 C 0.99884 0.72433 0.52337
 C63 C 0.99976 0.69675 0.52389
 C64 C 1.00229 0.68314 0.49993
 C65 C 1.00393 0.69677 0.47602
 C66 C 1.00412 0.72426 0.47622
 H67 H 1.04371 0.76964 0.49525
 H68 H 0.95969 0.76985 0.50377
 H69 H 0.99679 0.73530 0.54146
 H70 H 1.00580 0.73504 0.45798
 H71 H 1.00155 0.84293 0.50122
 H72 H 1.00274 0.66203 0.49966
 C73 C 0.50085 0.02337 0.22276
 C74 C 0.50149 -0.00025 0.23666
 C75 C 0.50248 -0.02410 0.22318
 C76 C 0.50288 -0.02458 0.19574
 C77 C 0.50257 -0.00067 0.18189
 C78 C 0.50139 0.02345 0.19531
 C79 C 0.50169 -0.00001 0.26540
 C80 C 0.47793 0.00006 0.27925
 C81 C 0.47780 -0.00058 0.30670
 C82 C 0.50201 -0.00128 0.32018
 C83 C 0.52606 -0.00108 0.30636
 C84 C 0.52563 -0.00059 0.27891
 H85 H 0.50034 0.04175 0.23342
 H86 H 0.50315 -0.04231 0.23417
 H87 H 0.45949 0.00017 0.26854
 H88 H 0.54395 -0.00090 0.26797
 H89 H 0.50442 -0.00090 0.16088
 H90 H 0.50221 -0.00327 0.34120
 C91 C 0.49571 0.02282 0.77568
 C92 C 0.49665 -0.00099 0.76215
 C93 C 0.49737 -0.02464 0.77602
 C94 C 0.49718 -0.02488 0.80354
 C95 C 0.49593 -0.00068 0.81696
 C96 C 0.49544 0.02324 0.80313
 C97 C 0.49953 -0.00126 0.73353
 C98 C 0.52498 -0.00147 0.72283
 C99 C 0.52856 -0.00287 0.69575
 C100 C 0.50646 -0.00463 0.67947
 C101 C 0.48091 -0.00422 0.68970
 C102 C 0.47739 -0.00255 0.71702
 H103 H 0.49557 0.04106 0.76476
 H104 H 0.49851 -0.04291 0.76517
 H105 H 0.54197 -0.00076 0.73566
 H106 H 0.45786 -0.00307 0.72556
 H107 H 0.49435 -0.00022 0.83796
 H108 H 0.50901 -0.00708 0.65857
 C109 C 0.29030 0.02259 0.47475
 H110 H 0.28638 0.03719 0.48963
 C111 C 0.31161 0.02583 0.45786
 H112 H 0.32369 0.04324 0.45957
 C113 C 0.28043 -0.01872 0.45598
 H114 H 0.26900 -0.03658 0.45614
 C115 C 0.30165 -0.01623 0.43853
 H116 H 0.30582 -0.03223 0.42526
 N117 N 0.27533 0.00054 0.47376
 C118 C 0.21062 0.02400 0.52458
 H119 H 0.21303 0.00892 0.53926
 C120 C 0.19034 0.04211 0.52710
 H121 H 0.17720 0.04079 0.54380
 C122 C 0.22446 0.04342 0.48470
 H123 H 0.23748 0.04334 0.46792
 C124 C 0.20414 0.06201 0.48637
 H125 H 0.20190 0.07610 0.47071
 Zn126 Zn 0.25186 -0.00275 0.50249
 N127 N 0.22727 0.02497 0.50376
 C128 C 0.27181 0.01782 0.55062
 N129 N 0.27377 -0.00162 0.53248
 C130 C 0.29356 -0.01955 0.53352
 C131 C 0.31266 -0.01819 0.55310
 C132 C 0.29030 0.01977 0.57074
 C133 C 0.21794 -0.04099 0.48031
 C134 C 0.19717 -0.05902 0.48171
 C135 C 0.20331 -0.06111 0.52854
 C136 C 0.22433 -0.04364 0.52613
 N137 N 0.23106 -0.03368 0.50235
 H138 H 0.25639 0.03235 0.54919
 H139 H 0.29492 -0.03453 0.51856
 H140 H 0.32795 -0.03291 0.55287
 H141 H 0.28843 0.03559 0.58480
 H142 H 0.22253 -0.03170 0.46182
 H143 H 0.18675 -0.06356 0.46385
 H144 H 0.19763 -0.06778 0.54789
 H145 H 0.23401 -0.03653 0.54358
 C146 C 0.18675 0.06135 0.50789
 C147 C 0.31783 0.00620 0.43968
 C148 C 0.18914 -0.06893 0.50627
 C149 C 0.31143 0.00196 0.57205
 C150 C 0.71819 0.02486 0.53465
 H151 H 0.72493 0.04229 0.52470
 C152 C 0.69809 0.02706 0.55298
 H153 H 0.68984 0.04624 0.55715
 C154 C 0.71934 -0.02129 0.53987
 H155 H 0.72665 -0.04020 0.53360
 C156 C 0.69905 -0.01998 0.55849
 H157 H 0.69135 -0.03801 0.56662
 N158 N 0.72867 0.00105 0.52856
 C159 C 0.78806 0.03879 0.48028
 H160 H 0.78425 0.02965 0.46156
 C161 C 0.80680 0.05878 0.48219
 H162 H 0.81675 0.06515 0.46458
 C163 C 0.77966 0.04120 0.52584
 H164 H 0.76974 0.03373 0.54301
 C165 C 0.79795 0.06137 0.52860
 H166 H 0.80148 0.06963 0.54782
 Zn167 Zn 0.75178 0.00143 0.49924
 N168 N 0.77478 0.03057 0.50190
 C169 C 0.71627 0.02803 0.46716
 N170 N 0.72911 0.00478 0.46982
 C171 C 0.72240 -0.01636 0.45501
 C172 C 0.70153 -0.01471 0.43712
 C173 C 0.69519 0.03049 0.44981
 C174 C 0.78165 -0.04271 0.51751
 C175 C 0.80242 -0.06075 0.51562
 C176 C 0.80796 -0.04838 0.47031
 C177 C 0.78704 -0.03082 0.47304
 N178 N 0.77432 -0.02823 0.49633
 H179 H 0.72167 0.04446 0.47935
 H180 H 0.73236 -0.03491 0.45794
 H181 H 0.69638 -0.03219 0.42636
 H182 H 0.68479 0.04905 0.44878
 H183 H 0.77245 -0.03927 0.53629
 H184 H 0.80807 -0.07123 0.53312
 H185 H 0.81809 -0.04955 0.45164
 H186 H 0.78167 -0.01834 0.45677
 C187 C 0.81201 0.07025 0.50672
 C188 C 0.68812 0.00457 0.56503
 C189 C 0.81628 -0.06347 0.49178
 C190 C 0.68709 0.00889 0.43478
 C191 C 0.47370 0.20823 1.02680
 H192 H 0.45852 0.21191 1.01241
 C193 C 0.47109 0.18717 1.04393
 H194 H 0.45362 0.17503 1.04288
 C195 C 0.51577 0.21836 1.04405
 H196 H 0.53383 0.22940 1.04291
 C197 C 0.51395 0.19733 1.06169
 H198 H 0.53056 0.19308 1.07424
 N199 N 0.49563 0.22351 1.02719
 C200 C 0.46146 0.28528 0.97807
 H201 H 0.47374 0.28417 0.96079
 C202 C 0.44158 0.30434 0.97965
 H203 H 0.43862 0.31711 0.96303
 C204 C 0.45123 0.27016 1.02070
 H205 H 0.45559 0.25755 1.03713
 C206 C 0.43117 0.28879 1.02306
 H207 H 0.41996 0.28980 1.04110
 Zn208 Zn 0.49671 0.24705 0.99835
 N209 N 0.46604 0.26875 0.99850
 C210 C 0.48015 0.21997 0.95097
 N211 N 0.49911 0.22393 0.96935
 C212 C 0.52077 0.20828 0.97057
 C213 C 0.52373 0.18717 0.95354
 C214 C 0.48238 0.19897 0.93328
 C215 C 0.53833 0.27972 1.01923
 C216 C 0.55754 0.29935 1.01697
 C217 C 0.54985 0.30023 0.97033
 C218 C 0.53142 0.28023 0.97342
 N219 N 0.52601 0.27029 0.99753
 H220 H 0.46285 0.23239 0.95065
 H221 H 0.53529 0.21155 0.98570
 H222 H 0.54088 0.17461 0.95560
 H223 H 0.46668 0.19612 0.91932
 H224 H 0.53259 0.27291 1.03842
 H225 H 0.56653 0.30666 1.03469
 H226 H 0.55326 0.30816 0.95093
 H227 H 0.52068 0.27321 0.95656
 C228 C 0.42634 0.30655 1.00265
 C229 C 0.49135 0.18132 1.06155
 C230 C 0.56335 0.31011 0.99215
 C231 C 0.50429 0.18181 0.93479
 C232 C 0.48492 0.77843 -0.04921
 H233 H 0.46669 0.76770 -0.04800
 C234 C 0.48663 0.79982 -0.06647
 H235 H 0.46988 0.80445 -0.07871
 C236 C 0.52724 0.78788 -0.03240
 H237 H 0.54242 0.78428 -0.01813
 C238 C 0.52967 0.80940 -0.04901
 H239 H 0.54711 0.82156 -0.04773
 N240 N 0.50520 0.77276 -0.03264
 C241 C 0.46896 0.71605 0.02149
 H242 H 0.48071 0.72248 0.03793
 C243 C 0.45115 0.69551 0.02483
 H244 H 0.44895 0.68668 0.04400
 C245 C 0.45972 0.71784 -0.02390
 H246 H 0.46450 0.72504 -0.04318
 C247 C 0.44127 0.69750 -0.02133
 H248 H 0.43161 0.69014 -0.03870
 Zn249 Zn 0.50331 0.74914 -0.00353
 N250 N 0.47306 0.72679 -0.00255
 C251 C 0.48122 0.78950 0.02345
 N252 N 0.50128 0.77201 0.02566
 C253 C 0.51917 0.77299 0.04539
 C254 C 0.51860 0.79328 0.06377
 C255 C 0.47866 0.81060 0.04044
 C256 C 0.52903 0.70081 -0.00811
 C257 C 0.54937 0.68240 -0.00789
 C258 C 0.57958 0.71693 0.00367
 C259 C 0.55852 0.73476 0.00319
 N260 N 0.53367 0.72648 -0.00253
 H261 H 0.46746 0.78760 0.00740
 H262 H 0.53451 0.75831 0.04655
 H263 H 0.53357 0.79395 0.07884
 H264 H 0.46279 0.82450 0.03741
 H265 H 0.50941 0.69435 -0.01297
 H266 H 0.54414 0.66250 -0.01271
 H267 H 0.59909 0.72401 0.00851
 H268 H 0.56216 0.75507 0.00787
 C269 C 0.43717 0.68580 0.00331
 C270 C 0.50924 0.81579 -0.06622
 C271 C 0.57530 0.69020 -0.00177
 C272 C 0.49789 0.81520 0.06216
 C273 C 1.02625 0.47774 0.21256
 H274 H 1.01025 0.46412 0.21580
 C275 C 1.04301 0.47410 0.19121
 H276 H 1.03987 0.45753 0.17832
 C277 C 1.04871 0.51651 0.22442
 H278 H 1.05092 0.53342 0.23649
 C279 C 1.06609 0.51353 0.20334
 H280 H 1.08094 0.52838 0.20026
 N281 N 1.02889 0.49895 0.22850
 C282 C 0.97977 0.45743 0.28315
 H283 H 0.96071 0.46041 0.27438
 C284 C 0.98208 0.43987 0.30417
 H285 H 0.96482 0.42908 0.31033
 C286 C 1.02422 0.47042 0.28827
 H287 H 1.04021 0.48331 0.28277
 C288 C 1.02725 0.45352 0.30954
 H289 H 1.04584 0.45316 0.31993
 Zn290 Zn 0.99959 0.50137 0.25221
 N291 N 1.00081 0.47212 0.27544
 C292 C 0.95390 0.48255 0.22295
 N293 N 0.97000 0.50291 0.22934
 C294 C 0.96895 0.52588 0.21587
 C295 C 0.95138 0.52914 0.19518
 C296 C 0.93561 0.48510 0.20257
 C297 C 1.01598 0.54976 0.27963
 C298 C 1.01338 0.56738 0.30045
 C299 C 0.97267 0.54616 0.31230
 C300 C 0.97601 0.52912 0.29119
 N301 N 0.99767 0.53071 0.27556
 H302 H 0.95605 0.46381 0.23244
 H303 H 0.98268 0.54139 0.22054
 H304 H 0.95153 0.54748 0.18442
 H305 H 0.92359 0.46828 0.19788
 H306 H 1.03317 0.55118 0.26768
 H307 H 1.02877 0.58174 0.30297
 H308 H 0.95559 0.54378 0.32484
 H309 H 0.96172 0.51377 0.28785
 C310 C 1.00608 0.43802 0.31787
 C311 C 1.06302 0.49227 0.18611
 C312 C 0.99172 0.56535 0.31765
 C313 C 0.93441 0.50864 0.18804
 C314 C -0.03577 0.48187 0.79073
 H315 H -0.02226 0.46542 0.79025
 C316 C -0.05571 0.48277 0.80976
 H317 H -0.05771 0.46650 0.82321
 C318 C -0.04878 0.52332 0.77430
 H319 H -0.04544 0.53976 0.76145
 C320 C -0.06918 0.52481 0.79266
 H321 H -0.08176 0.54201 0.79303
 N322 N -0.03266 0.50194 0.77339
 C323 C 0.02020 0.47414 0.71094
 H324 H 0.03516 0.48885 0.71414
 C325 C 0.02273 0.45701 0.68994
 H326 H 0.03983 0.45860 0.67730
 C327 C -0.02063 0.45519 0.72299
 H328 H -0.03781 0.45516 0.73554
 C329 C -0.01893 0.43754 0.70187
 H330 H -0.03493 0.42396 0.69862
 Zn331 Zn -0.00215 0.50148 0.75117
 N332 N -0.00117 0.47311 0.72698
 C333 C 0.04527 0.47962 0.77238
 N334 N 0.02748 0.49956 0.77408
 C335 C 0.02902 0.51756 0.79365
 C336 C 0.04884 0.51584 0.81262
 C337 C 0.06560 0.47734 0.79068
 C338 C -0.02204 0.53777 0.71461
 C339 C -0.02101 0.55627 0.69452
 C340 C 0.02736 0.56027 0.70388
 C341 C 0.02356 0.54247 0.72430
 N342 N -0.00040 0.53164 0.72907
 H343 H 0.04352 0.46507 0.75715
 H344 H 0.01439 0.53299 0.79486
 H345 H 0.04908 0.53064 0.82771
 H346 H 0.07945 0.46124 0.78880
 H347 H -0.04031 0.52746 0.71812
 H348 H -0.03873 0.56047 0.68349
 H349 H 0.04698 0.56766 0.70008
 H350 H 0.04045 0.53596 0.73547
 C351 C 0.00300 0.43859 0.68486
 C352 C -0.07269 0.50461 0.81095
 C353 C 0.00498 0.56892 0.68642
 C354 C 0.06753 0.49526 0.81150
 C355 C 0.05794 0.18375 0.49951
 C356 C 0.06062 0.15731 0.50491
 C357 C 0.08579 0.14332 0.50246
 C358 C 0.08675 0.11687 0.50972
 C359 C 0.11005 0.10265 0.50713
 C360 C 0.13294 0.11475 0.49732
 C361 C 0.13182 0.14111 0.48953
 C362 C 0.10844 0.15537 0.49215
 C363 C 0.15786 0.10004 0.49445
 C364 C 0.16380 0.07898 0.51082
 H365 H 0.04343 0.14617 0.51073
 H366 H 0.06933 0.10709 0.51723
 H367 H 0.10983 0.08208 0.51240
 H368 H 0.14909 0.15072 0.48160
 H369 H 0.10802 0.17566 0.48590
 H370 H 0.17189 0.10666 0.47996
 H371 H 0.04284 0.19059 0.49936
 H372 H 0.15074 0.07505 0.52714
 C373 C 0.67551 0.54233 -0.01302
 C374 C 0.67821 0.56704 -0.00156
 C375 C 0.65700 0.58725 -0.00276
 C376 C 0.66303 0.61358 0.00261
 C377 C 0.64336 0.63299 0.00195
 C378 C 0.61708 0.62629 -0.00395
 C379 C 0.61112 0.59991 -0.00897
 C380 C 0.63062 0.58063 -0.00817
 C381 C 0.59491 0.64541 -0.00482
 C382 C 0.59689 0.67259 -0.00083
 H383 H 0.69607 0.57150 0.00914
 H384 H 0.68307 0.61913 0.00731
 H385 H 0.64897 0.65295 0.00620
 H386 H 0.59108 0.59406 -0.01333
 H387 H 0.62452 0.56058 -0.01123
 H388 H 0.57590 0.63686 -0.00866
 H389 H 0.65793 0.53795 -0.02412
 H390 H 0.61605 0.68075 0.00347
 C391 C 0.95190 -0.17833 0.50452
 C392 C 0.94779 -0.15210 0.49762
 C393 C 0.92206 -0.13852 0.50012
 C394 C 0.91864 -0.11435 0.48738
 C395 C 0.89485 -0.10064 0.48942
 C396 C 0.87395 -0.11085 0.50438
 C397 C 0.87753 -0.13472 0.51757
 C398 C 0.90127 -0.14849 0.51544
 C399 C 0.84879 -0.09650 0.50776
 C400 C 0.83882 -0.07939 0.48874
 H401 H 0.96373 -0.14109 0.48889
 H402 H 0.93453 -0.10599 0.47592
 H403 H 0.89318 -0.08180 0.47977
 H404 H 0.86190 -0.14278 0.52958
 H405 H 0.90321 -0.16658 0.52628
 H406 H 0.83753 -0.10078 0.52520
 H407 H 0.93526 -0.19014 0.51045
 H408 H 0.84919 -0.07841 0.47019
 C409 C 0.32130 0.45280 0.98496
 C410 C 0.32313 0.43099 1.00138
 C411 C 0.34333 0.40990 0.99811
 C412 C 0.34505 0.39008 1.01715
 C413 C 0.36385 0.36998 1.01507
 C414 C 0.38154 0.36928 0.99376
 C415 C 0.37989 0.38917 0.97485
 C416 C 0.36109 0.40912 0.97685
 C417 C 0.40201 0.34861 0.99012
 C418 C 0.40555 0.32687 1.00650
 H419 H 0.31025 0.43016 1.01831
 H420 H 0.33182 0.39022 1.03382
 H421 H 0.36428 0.35531 1.03032
 H422 H 0.39324 0.38926 0.95826
 H423 H 0.36087 0.42364 0.96150
 H424 H 0.41503 0.35105 0.97356
 H425 H 0.33521 0.45546 0.96922
 H426 H 0.39323 0.32478 1.02362
 C427 C 0.95595 0.17606 0.48918
 C428 C 0.93254 0.17637 0.50338
 C429 C 0.91190 0.15597 0.50029
 C430 C 0.89205 0.15409 0.51931
 C431 C 0.87236 0.13501 0.51735
 C432 C 0.87222 0.11721 0.49622
 C433 C 0.89201 0.11923 0.47716
 C434 C 0.91151 0.13837 0.47901
 C435 C 0.85208 0.09639 0.49289
 C436 C 0.83152 0.09151 0.51041
 H437 H 0.93024 0.19082 0.51879
 H438 H 0.89186 0.16739 0.53586
 H439 H 0.85754 0.13452 0.53250
 H440 H 0.89235 0.10594 0.46060
 H441 H 0.92590 0.13920 0.46346
 H442 H 0.85419 0.08381 0.47597
 H443 H 0.96008 0.16004 0.47595
 H444 H 0.83008 0.10269 0.52831
 C445 C 0.31651 0.55403 -0.00490
 C446 C 0.34347 0.55660 -0.00095
 C447 C 0.35719 0.58206 -0.00233
 C448 C 0.38255 0.58409 0.00830
 C449 C 0.39663 0.60757 0.00655
 C450 C 0.38568 0.62948 -0.00628
 C451 C 0.36034 0.62732 -0.01713
 C452 C 0.34610 0.60391 -0.01503
 C453 C 0.40065 0.65421 -0.00990
 C454 C 0.42063 0.66210 0.00714
 H455 H 0.35497 0.53945 0.00401
 H456 H 0.39158 0.56733 0.01788
 H457 H 0.41634 0.60813 0.01460
 H458 H 0.35158 0.64377 -0.02735
 H459 H 0.32674 0.60271 -0.02381
 H460 H 0.39492 0.66701 -0.02581
 H461 H 0.30971 0.53961 -0.00526
 H462 H 0.42393 0.65077 0.02478
 C463 C 0.05027 -0.17890 0.49653
 C464 C 0.05439 -0.15264 0.50345
 C465 C 0.08021 -0.13954 0.50051
 C466 C 0.08692 -0.11932 0.51788
 C467 C 0.11061 -0.10564 0.51492
 C468 C 0.12791 -0.11173 0.49424
 C469 C 0.12106 -0.13182 0.47675
 C470 C 0.09756 -0.14579 0.47995
 C471 C 0.15235 -0.09655 0.48951
 C472 C 0.16682 -0.08502 0.50977
 H473 H 0.03914 -0.14173 0.51352
 H474 H 0.07368 -0.11400 0.53368
 H475 H 0.11487 -0.08977 0.52833
 H476 H 0.13386 -0.13658 0.46044
 H477 H 0.09268 -0.16085 0.46583
 H478 H 0.15970 -0.09604 0.46966
 H479 H 0.06727 -0.19041 0.49074
 H480 H 0.16064 -0.08915 0.52968
 C481 C 0.68270 0.44082 1.00116
 C482 C 0.65734 0.43664 0.99198
 C483 C 0.64295 0.41182 0.99557
 C484 C 0.61854 0.40879 0.98311
 C485 C 0.60400 0.38577 0.98631
 C486 C 0.61352 0.36542 1.00237
 C487 C 0.63782 0.36860 1.01504
 C488 C 0.65253 0.39154 1.01160
 C489 C 0.59783 0.34143 1.00716
 C490 C 0.58089 0.33112 0.98821
 H491 H 0.64755 0.45233 0.98156
 H492 H 0.61058 0.42439 0.97100
 H493 H 0.58508 0.38427 0.97668
 H494 H 0.64552 0.35322 1.02752
 H495 H 0.67116 0.39355 1.02171
 H496 H 0.60086 0.33128 1.02549
 H497 H 0.68966 0.45577 0.99962
 H498 H 0.58162 0.33978 0.96882
 C499 C 0.50205 0.04914 1.18171
 C500 C 0.49820 0.05238 1.15481
 C501 C 0.49956 0.07806 1.14128
 C502 C 0.49061 0.07960 1.11536
 C503 C 0.49188 0.10319 1.10153
 C504 C 0.50211 0.12591 1.11341
 C505 C 0.51134 0.12433 1.13922
 C506 C 0.51013 0.10071 1.15305
 C507 C 0.50448 0.15110 1.09910
 C508 C 0.48869 0.15727 1.07761
 H509 H 0.49299 0.03563 1.14296
 H510 H 0.48277 0.06238 1.10569
 H511 H 0.48536 0.10324 1.08138
 H512 H 0.51957 0.14145 1.14873
 H513 H 0.51794 0.10039 1.17270
 H514 H 0.51828 0.16545 1.10647
 H515 H 0.50495 0.06624 1.19382
 H516 H 0.47291 0.14400 1.07242
 C517 C -0.00221 0.68384 0.54821
 C518 C 0.00350 0.65723 0.55214
 C519 C 0.00041 0.64407 0.57774
 C520 C 0.01692 0.62280 0.58375
 C521 C 0.01387 0.60905 0.60724
 C522 C -0.00619 0.61600 0.62493
 C523 C -0.02287 0.63713 0.61885
 C524 C -0.01944 0.65128 0.59559
 C525 C -0.01094 0.60050 0.64893
 C526 C 0.00952 0.58816 0.66222
 H527 H 0.01259 0.64580 0.53677
 H528 H 0.03219 0.61680 0.57014
 H529 H 0.02667 0.59249 0.61116
 H530 H -0.03860 0.64263 0.63211
 H531 H -0.03280 0.66731 0.59132
 H532 H -0.03084 0.59942 0.65658
 H533 H -0.00726 0.69547 0.56525
 H534 H 0.00606 0.57830 0.67434
 C535 C 0.49787 0.95064 -0.18367
 C536 C 0.50029 0.94709 -0.15657
 C537 C 0.49989 0.92101 -0.14372
 C538 C 0.50926 0.91898 -0.11797
 C539 C 0.50844 0.89506 -0.10463
 C540 C 0.49819 0.87250 -0.11684
 C541 C 0.48870 0.87457 -0.14254
 C542 C 0.48949 0.89851 -0.15588
 C543 C 0.49594 0.84699 -0.10299
 C544 C 0.51173 0.84035 -0.08162
 H545 H 0.50392 0.96369 -0.14396
 H546 H 0.51702 0.93608 -0.10802
 H547 H 0.51521 0.89462 -0.08458
 H548 H 0.48047 0.85759 -0.15229
 H549 H 0.48132 0.89926 -0.17540
 H550 H 0.48216 0.83275 -0.11061
 H551 H 0.49727 0.93334 -0.19589
 H552 H 0.52744 0.85356 -0.07610
 C553 C 0.99453 0.32013 0.45260
 C554 C 0.99834 0.34713 0.44911
 C555 C 0.99753 0.36019 0.42316
 C556 C 1.00964 0.38477 0.42040
 C557 C 1.00856 0.39835 0.39664
 C558 C 0.99522 0.38764 0.37499
 C559 C 0.98302 0.36310 0.37778
 C560 C 0.98414 0.34946 0.40155
 C561 C 0.99241 0.40201 0.34981
 C562 C 1.00941 0.42211 0.34202
 H563 H 1.00391 0.35927 0.46553
 H564 H 1.01980 0.39362 0.43682
 H565 H 1.01757 0.41753 0.39569
 H566 H 0.97235 0.35456 0.36154
 H567 H 0.97387 0.33093 0.40296
 H568 H 0.97694 0.39582 0.33666
 H569 H 0.99249 0.30809 0.43528
 H570 H 1.02658 0.42620 0.35388
 C571 C 0.50513 0.94972 0.18239
 C572 C 0.49921 0.94578 0.15597
 C573 C 0.50206 0.92017 0.14256
 C574 C 0.48937 0.91662 0.11843
 C575 C 0.49184 0.89300 0.10477
 C576 C 0.50735 0.87245 0.11490
 C577 C 0.52021 0.87604 0.13890
 C578 C 0.51762 0.89962 0.15266
 C579 C 0.51097 0.84747 0.10060
 C580 C 0.49503 0.84089 0.07957
 H581 H 0.49094 0.96174 0.14466
 H582 H 0.47753 0.93224 0.11010
 H583 H 0.48189 0.89103 0.08614
 H584 H 0.53235 0.86054 0.14700
 H585 H 0.52829 0.90167 0.17084
 H586 H 0.52626 0.83401 0.10694
 H587 H 0.51069 0.93311 0.19435
 H588 H 0.49852 0.82707 0.07208
 C589 C -0.00644 0.31969 0.55093
 C590 C -0.00092 0.34624 0.55490
 C591 C -0.00308 0.35960 0.58064
 C592 C 0.00732 0.38496 0.58304
 C593 C 0.00519 0.39878 0.60657
 C594 C -0.00732 0.38742 0.62844
 C595 C -0.01795 0.36216 0.62599
 C596 C -0.01591 0.34836 0.60240
 C597 C -0.01050 0.40169 0.65362
 C598 C 0.00594 0.42237 0.66088
 H599 H 0.00617 0.35788 0.53865
 H600 H 0.01694 0.39426 0.56651
 H601 H 0.01288 0.41853 0.60717
 H602 H -0.02795 0.35307 0.64239
 H603 H -0.02489 0.32920 0.60142
 H604 H -0.02554 0.39493 0.66701
 H605 H -0.01094 0.30741 0.56758
 H606 H 0.02249 0.42701 0.64834
 C607 C 0.49374 0.04897 0.81658
 C608 C 0.50067 0.05282 0.84281
 C609 C 0.49826 0.07828 0.85669
 C610 C 0.51043 0.08101 0.88120
 C611 C 0.50817 0.10437 0.89539
 C612 C 0.49365 0.12565 0.88527
 C613 C 0.48125 0.12281 0.86091
 C614 C 0.48348 0.09945 0.84674
 C615 C 0.48998 0.15057 0.89989
 C616 C 0.50745 0.15914 0.91926
 H617 H 0.50920 0.03671 0.85371
 H618 H 0.52156 0.06486 0.88953
 H619 H 0.51730 0.10529 0.91449
 H620 H 0.46968 0.13874 0.85284
 H621 H 0.47310 0.09811 0.82834
 H622 H 0.47341 0.16264 0.89429
 H623 H 0.48785 0.06558 0.80481
 H624 H 0.52491 0.14737 0.92268
 C625 C 1.00612 0.68304 0.45055
 C626 C 0.99794 0.65716 0.44654
 C627 C 1.00001 0.64321 0.42114
 C628 C 0.98708 0.61904 0.41840
 C629 C 0.98871 0.60488 0.39501
 C630 C 1.00330 0.61472 0.37371
 C631 C 1.01657 0.63866 0.37660
 C632 C 1.01499 0.65279 0.39998
 C633 C 1.00627 0.60020 0.34871
 C634 C 0.98863 0.58084 0.34032
 H635 H 0.98847 0.64672 0.46241
 H636 H 0.97581 0.61098 0.43454
 H637 H 0.97903 0.58603 0.39407
 H638 H 1.02832 0.64644 0.36068
 H639 H 1.02595 0.67088 0.40128
 H640 H 1.02269 0.60583 0.33651
 H641 H 1.01309 0.69449 0.43416
 H642 H 0.97134 0.57725 0.35224
 C643 C 1.18311 0.49605 0.05194
 C644 C 1.15603 0.49312 0.05677
 C645 C 1.14301 0.49576 0.08254
 C646 C 1.11634 0.48876 0.08428
 C647 C 1.10262 0.49122 0.10779
 C648 C 1.11534 0.50069 0.13033
 C649 C 1.14184 0.50838 0.12847
 C650 C 1.15564 0.50592 0.10483
 C651 C 1.10128 0.50359 0.15562
 C652 C 1.07879 0.48903 0.16187
 H653 H 1.14319 0.48727 0.04099
 H654 H 1.10592 0.48154 0.06722
 H655 H 1.08192 0.48620 0.10793
 H656 H 1.15190 0.51629 0.14541
 H657 H 1.17592 0.51234 0.10414
 H658 H 1.10966 0.51675 0.16994
 H659 H 1.19639 0.49773 0.06840
 H660 H 1.07228 0.47405 0.14837
 C661 C 0.55537 -0.00397 0.68464
 C662 C 0.56044 0.00465 0.65921
 C663 C 0.58548 0.00074 0.64509
 C664 C 0.58849 0.01336 0.62091
 C665 C 0.61115 0.00959 0.60600
 C666 C 0.63143 -0.00691 0.61506
 C667 C 0.62830 -0.01992 0.63904
 C668 C 0.60553 -0.01614 0.65404
 C669 C 0.65558 -0.01129 0.59947
 C670 C 0.66509 0.00782 0.58241
 H671 H 0.54503 0.01502 0.64878
 H672 H 0.57305 0.02597 0.61333
 H673 H 0.61234 0.01920 0.58716
 H674 H 0.64353 -0.03300 0.64620
 H675 H 0.60365 -0.02683 0.67222
 H676 H 0.66659 -0.02922 0.60254
 H677 H 0.57110 -0.01139 0.69683
 H678 H 0.65544 0.02680 0.58212
 C679 C -0.17172 0.50214 0.96001
 C680 C -0.17729 0.50171 0.93322
 C681 C -0.15598 0.49966 0.91323
 C682 C -0.16062 0.50902 0.88783
 C683 C -0.14104 0.50743 0.86851
 C684 C -0.11625 0.49628 0.87420
 C685 C -0.11177 0.48655 0.89952
 C686 C -0.13131 0.48814 0.91879
 C687 C -0.09491 0.49353 0.85434
 C688 C -0.09432 0.50707 0.83049
 H689 H -0.19731 0.50407 0.92639
 H690 H -0.17950 0.51769 0.88296
 H691 H -0.14574 0.51456 0.84915
 H692 H -0.09305 0.47753 0.90440
 H693 H -0.12703 0.47981 0.93779
 H694 H -0.07830 0.48123 0.85948
 H695 H -0.15112 0.50190 0.96546
 H696 H -0.10945 0.52147 0.82645
 C697 C 0.45201 -0.00210 0.32027
 C698 C 0.44850 0.00262 0.34699
 C699 C 0.42277 0.00039 0.36061
 C700 C 0.42055 0.01062 0.38601
 C701 C 0.39691 0.00870 0.39991
 C702 C 0.37480 -0.00353 0.38863
 C703 C 0.37712 -0.01410 0.36338
 C704 C 0.40078 -0.01221 0.34947
 C705 C 0.34949 -0.00655 0.40290
 C706 C 0.34223 0.00941 0.42395
 H707 H 0.46502 0.00932 0.35853
 H708 H 0.43729 0.02004 0.39521
 H709 H 0.39638 0.01632 0.41965
 H710 H 0.36053 -0.02394 0.35439
 H711 H 0.40166 -0.02109 0.33029
 H712 H 0.33587 -0.02116 0.39576
 H713 H 0.43506 -0.00632 0.30823
 H714 H 0.35493 0.02559 0.42919
 C715 C 0.17045 0.50448 0.95719
 C716 C 0.17319 0.49528 0.93161
 C717 C 0.15208 0.49846 0.91151
 C718 C 0.15360 0.48384 0.88827
 C719 C 0.13406 0.48604 0.86897
 C720 C 0.11233 0.50296 0.87259
 C721 C 0.11094 0.51766 0.89576
 C722 C 0.13049 0.51564 0.91486
 C723 C 0.09094 0.50665 0.85296
 C724 C 0.08783 0.49167 0.83013
 H725 H 0.19046 0.48378 0.92668
 H726 H 0.17002 0.47061 0.88506
 H727 H 0.13640 0.47461 0.85133
 H728 H 0.09462 0.53101 0.89908
 H729 H 0.12842 0.52798 0.93190
 H730 H 0.07660 0.52158 0.85761
 H731 H 0.15220 0.51379 0.96281
 H732 H 0.10147 0.47572 0.82671
 C733 C 0.55188 -0.00304 0.31974
 C734 C 0.55576 0.00364 0.34599
 C735 C 0.58139 0.00096 0.35965
 C736 C 0.58501 0.01442 0.38332
 C737 C 0.60859 0.01207 0.39727
 C738 C 0.62912 -0.00395 0.38780
 C739 C 0.62532 -0.01781 0.36438
 C740 C 0.60178 -0.01535 0.35035
 C741 C 0.65412 -0.00754 0.40241
 C742 C 0.66439 0.01170 0.41910
 H743 H 0.53969 0.01236 0.35689
 H744 H 0.56942 0.02670 0.39113
 H745 H 0.61034 0.02231 0.41573
 H746 H 0.64063 -0.03063 0.35691
 H747 H 0.59958 -0.02672 0.33263
 H748 H 0.66500 -0.02538 0.39867
 H749 H 0.56857 -0.00896 0.30797
 H750 H 0.65408 0.03032 0.41999
 C751 C 0.81531 0.49999 0.05507
 C752 C 0.84066 0.50899 0.06079
 C753 C 0.85455 0.50533 0.08602
 C754 C 0.87885 0.51799 0.08925
 C755 C 0.89344 0.51481 0.11216
 C756 C 0.88399 0.49883 0.13256
 C757 C 0.85986 0.48580 0.12923
 C758 C 0.84519 0.48901 0.10623
 C759 C 0.89931 0.49443 0.15690
 C760 C 0.91798 0.51240 0.16613
 H761 H 0.85116 0.51989 0.04590
 H762 H 0.88678 0.53020 0.07375
 H763 H 0.91239 0.52440 0.11340
 H764 H 0.85238 0.47306 0.14450
 H765 H 0.82691 0.47834 0.10435
 H766 H 0.89471 0.47705 0.16808
 H767 H 0.80314 0.49160 0.07030
 H768 H 0.91984 0.53084 0.15575
 C769 C 0.45921 -0.00702 0.67065
 C770 C 0.43289 -0.00075 0.67525
 C771 C 0.41263 -0.00306 0.65443
 C772 C 0.38899 0.01101 0.65689
 C773 C 0.36949 0.00936 0.63759
 C774 C 0.37336 -0.00647 0.61527
 C775 C 0.39693 -0.02067 0.61298
 C776 C 0.41624 -0.01918 0.63229
 C777 C 0.35351 -0.00959 0.59420
 C778 C 0.33032 0.00520 0.59201
 H779 H 0.42725 0.00769 0.69387
 H780 H 0.38565 0.02337 0.67383
 H781 H 0.35153 0.02032 0.64058
 H782 H 0.40038 -0.03323 0.59619
 H783 H 0.43366 -0.03113 0.62976
 H784 H 0.35833 -0.02386 0.57936
 H785 H 0.46500 -0.01260 0.65105
 H786 H 0.32686 0.02070 0.60604
   
