data_POSCAR
  _audit_creation_date              2014-09-24
  _audit_creation_method            'ToBaCCo'
  _symmetry_space_group_name_H-M    'P1'
  _symmetry_Int_Tables_number       1
  _symmetry_cell_setting            triclinic
  loop_
  _symmetry_equiv_pos_as_xyz
 x,y,z
_cell_length_a 14.3200
_cell_length_b 14.3601
_cell_length_c 36.8597
_cell_angle_alpha 89.839600
_cell_angle_beta 93.735700
_cell_angle_gamma 118.952400
loop_
  _atom_site_label
  _atom_site_type_symbol
  _atom_site_fract_x
  _atom_site_fract_y
  _atom_site_fract_z
C1 C 0.00121 0.09321 0.52628
 C2 C -0.09459 0.01189 0.50121
 C3 C -0.06800 -0.04648 0.47873
 C4 C 0.05105 -0.01666 0.48320
 C5 C 0.04495 0.02747 0.54603
 C6 C 0.06838 -0.03243 0.52387
 C7 C 0.08496 0.16043 0.50054
 C8 C 0.11172 0.10483 0.47785
 H9 H -0.17549 -0.00151 0.50237
 H10 H 0.07452 -0.06207 0.46498
 H11 H 0.03695 0.01309 0.57488
 H12 H 0.11743 0.24599 0.49944
 C13 C 0.93167 -0.14043 0.18915
 C14 C 1.01189 -0.14995 0.16539
 C15 C 1.07843 -0.05611 0.14933
 C16 C 1.05707 0.03658 0.15847
 C17 C 0.99642 -0.05308 0.21451
 C18 C 1.06806 0.04329 0.19826
 C19 C 0.87307 -0.09946 0.16337
 C20 C 0.93691 -0.00830 0.14693
 H21 H 1.01662 -0.22244 0.16226
 H22 H 1.10898 0.11240 0.14532
 H23 H 0.99863 -0.06370 0.24365
 H24 H 0.78862 -0.14633 0.15493
 C25 C 0.05102 1.02835 0.86271
 C26 C 0.06664 1.12755 0.84172
 C27 C -0.01696 1.10732 0.81668
 C28 C -0.10674 0.99044 0.81501
 C29 C -0.05621 0.98764 0.87898
 C30 C -0.13851 0.97015 0.85459
 C31 C 0.03277 0.94659 0.83336
 C32 C -0.04805 0.92645 0.80814
 H33 H 0.13611 1.20544 0.84635
 H34 H -0.17489 0.97195 0.79481
 H35 H -0.06226 0.99128 0.90808
 H36 H 0.08568 0.91287 0.83125
 O37 O 0.61460 0.09069 -0.03581
 O38 O 0.46055 0.08637 0.04262
 O39 O 0.66050 0.11912 0.03590
 O40 O 0.45378 0.12246 -0.02676
 O41 O 0.36378 -0.05335 -0.02787
 O42 O 0.58097 -0.05604 0.03061
 O43 O 0.38552 -0.08911 0.04071
 O44 O 0.52257 -0.08520 -0.03861
 Cu45 Cu 0.55646 0.12151 0.00483
 Cu46 Cu 0.45618 -0.08600 0.00139
 C47 C 0.59164 0.00127 -0.05098
 C48 C 0.39403 -0.00444 0.05426
 C49 C 0.65857 0.03216 0.04313
 C50 C 0.37322 0.03582 -0.03778
 O51 O -0.11382 0.38918 0.69939
 O52 O -0.08752 0.56664 0.62212
 O53 O -0.12306 0.37263 0.62803
 O54 O -0.13729 0.56356 0.68985
 O55 O 0.03874 0.64924 0.69893
 O56 O 0.05214 0.45024 0.64008
 O57 O 0.08811 0.64294 0.63266
 O58 O 0.06171 0.47885 0.71017
 Cu59 Cu -0.13219 0.46521 0.65953
 Cu60 Cu 0.07605 0.56306 0.67188
 C61 C -0.02827 0.40375 0.71749
 C62 C 0.00684 0.63474 0.61422
 C63 C -0.03371 0.37829 0.62351
 C64 C -0.05222 0.64067 0.70410
 O65 O 0.58398 0.59145 0.29555
 O66 O 0.39998 0.43130 0.36343
 O67 O 0.56986 0.62636 0.36421
 O68 O 0.39729 0.43468 0.29256
 O69 O 0.47916 0.33905 0.30287
 O70 O 0.66099 0.53983 0.37348
 O71 O 0.48960 0.34307 0.37228
 O72 O 0.67156 0.50086 0.30354
 Cu73 Cu 0.47985 0.52957 0.32904
 Cu74 Cu 0.58579 0.42417 0.33951
 C75 C 0.65731 0.57110 0.28723
 C76 C 0.41138 0.35714 0.37855
 C77 C 0.64565 0.61810 0.38069
 C78 C 0.40679 0.35351 0.28590
 N79 N -0.10880 0.16202 0.55508
 C80 C -0.01390 0.16354 0.55259
 N81 N 0.07277 0.23457 0.57381
 N82 N 0.06582 0.30222 0.59649
 C83 C -0.02837 0.30144 0.59893
 N84 N -0.11586 0.22985 0.57799
 N85 N 0.75209 0.74334 0.20996
 C86 C 0.85477 0.76325 0.20898
 N87 N 0.89062 0.71295 0.23279
 N88 N 0.82635 0.64698 0.25681
 C89 C 0.72497 0.63092 0.25830
 N90 N 0.68857 0.67869 0.23401
 N91 N 0.22920 0.12810 -0.10192
 C92 C 0.13583 0.03662 -0.10935
 N93 N 0.12076 -0.05338 -0.09250
 N94 N 0.19616 -0.05300 -0.06948
 C95 C 0.28968 0.03772 -0.06224
 N96 N 0.30475 0.12862 -0.07857
 N97 N 0.14083 0.87159 0.55966
 C98 C 0.05828 0.86853 0.53858
 N99 N -0.04118 0.78385 0.54071
 N100 N -0.05780 0.70578 0.56344
 C101 C 0.02467 0.71017 0.58506
 N102 N 0.12449 0.79325 0.58213
 N103 N 0.22408 0.21778 0.20533
 C104 C 0.15503 0.12321 0.21928
 N105 N 0.17406 0.10450 0.25443
 N106 N 0.25776 0.17648 0.27491
 C107 C 0.32589 0.27080 0.26115
 N108 N 0.30700 0.29119 0.22618
 N109 N 0.69135 -0.11089 -0.11796
 C110 C 0.77192 -0.02265 -0.13129
 N111 N 0.78786 0.07449 -0.12006
 N112 N 0.72683 0.08319 -0.09593
 C113 C 0.64818 -0.00530 -0.08188
 N114 N 0.62994 -0.10233 -0.09405
 N115 N 0.23289 0.05621 0.11423
 C116 C 0.16504 -0.04177 0.12632
 N117 N 0.17743 -0.12567 0.11623
 N118 N 0.25318 -0.11230 0.09434
 C119 C 0.32025 -0.01456 0.08194
 N120 N 0.30890 0.06968 0.09239
 N121 N 0.75804 0.85414 0.44291
 C122 C 0.85471 0.86424 0.45425
 N123 N 0.88079 0.79108 0.44210
 N124 N 0.81348 0.71129 0.41935
 C125 C 0.71746 0.70191 0.40766
 N126 N 0.69102 0.77482 0.41988
 N127 N -0.11378 0.16469 0.77235
 C128 C -0.02228 0.18806 0.79294
 N129 N 0.06471 0.28504 0.79004
 N130 N 0.06088 0.35475 0.76689
 C131 C -0.03018 0.33092 0.74599
 N132 N -0.11780 0.23465 0.74930
 N133 N 0.83014 -0.06159 0.08948
 C134 C 0.89032 0.01816 0.11442
 N135 N 0.87907 0.10681 0.11418
 N136 N 0.80889 0.11408 0.09022
 C137 C 0.74583 0.03192 0.06633
 N138 N 0.75956 -0.05490 0.06590
 N139 N 0.18330 0.24877 0.43525
 C140 C 0.18376 0.16126 0.44912
 N141 N 0.25894 0.13649 0.43913
 N142 N 0.33168 0.19840 0.41644
 C143 C 0.33165 0.28697 0.40312
 N144 N 0.25516 0.30994 0.41256
 N145 N 0.03415 0.88113 0.76076
 C146 C -0.05757 0.86404 0.77516
 N147 N -0.15030 0.77523 0.76424
 N148 N -0.15011 0.70543 0.74035
 C149 C -0.05705 0.72140 0.72709
 N150 N 0.03447 0.81160 0.73718
   
