data_POSCAR
  _audit_creation_date              2014-09-24
  _audit_creation_method            'ToBaCCo'
  _symmetry_space_group_name_H-M    'P1'
  _symmetry_Int_Tables_number       1
  _symmetry_cell_setting            triclinic
  loop_
  _symmetry_equiv_pos_as_xyz
 x,y,z
_cell_length_a 38.1209
_cell_length_b 52.8752
_cell_length_c 33.0692
_cell_angle_alpha 90.065600
_cell_angle_beta 90.018600
_cell_angle_gamma 90.049300
loop_
  _atom_site_label
  _atom_site_type_symbol
  _atom_site_fract_x
  _atom_site_fract_y
  _atom_site_fract_z
O1 O 0.24359 0.27371 0.19685
 O2 O 0.29504 0.22525 0.25040
 O3 O 0.24393 0.22448 0.19796
 O4 O 0.29465 0.27452 0.24882
 O5 O 0.25648 0.27471 0.29892
 O6 O 0.20552 0.22488 0.24773
 O7 O 0.25643 0.22544 0.30006
 O8 O 0.20522 0.27406 0.24675
 Cu9 Cu 0.27316 0.24942 0.21853
 Cu10 Cu 0.22709 0.24982 0.27838
 C11 C 0.21561 0.28222 0.21267
 C12 C 0.28450 0.21700 0.28437
 C13 C 0.21594 0.21610 0.21401
 C14 C 0.28423 0.28322 0.28256
 O15 O 0.79552 0.27392 0.25069
 O16 O 0.74365 0.22451 0.30156
 O17 O 0.79562 0.22451 0.25050
 O18 O 0.74392 0.27370 0.30198
 O19 O 0.70588 0.27346 0.25172
 O20 O 0.75832 0.22489 0.19950
 O21 O 0.70648 0.22417 0.25053
 O22 O 0.75766 0.27410 0.20024
 Cu23 Cu 0.77348 0.24914 0.28122
 Cu24 Cu 0.72831 0.24918 0.22043
 C25 C 0.78535 0.28257 0.21682
 C26 C 0.71621 0.21575 0.28474
 C27 C 0.78583 0.21626 0.21620
 C28 C 0.71600 0.28197 0.28574
 O29 O 0.79824 0.72575 0.74595
 O30 O 0.74673 0.77518 0.69485
 O31 O 0.79837 0.77518 0.74614
 O32 O 0.74645 0.72595 0.69467
 O33 O 0.70888 0.72589 0.74537
 O34 O 0.76077 0.77510 0.79672
 O35 O 0.70892 0.77510 0.74531
 O36 O 0.76065 0.72590 0.79664
 Cu37 Cu 0.77626 0.75050 0.71537
 Cu38 Cu 0.73104 0.75051 0.77608
 C39 C 0.78822 0.71731 0.78001
 C40 C 0.71898 0.78359 0.71130
 C41 C 0.78845 0.78368 0.78025
 C42 C 0.71877 0.71747 0.71123
 O43 O 0.24622 0.72515 0.80468
 O44 O 0.29761 0.77475 0.75372
 O45 O 0.24587 0.77437 0.80504
 O46 O 0.29782 0.72534 0.75332
 O47 O 0.25997 0.72533 0.70286
 O48 O 0.20833 0.77452 0.75436
 O49 O 0.26002 0.77455 0.70300
 O50 O 0.20825 0.72533 0.75434
 Cu51 Cu 0.27570 0.74991 0.78422
 Cu52 Cu 0.23038 0.74992 0.72358
 C53 C 0.21839 0.71678 0.78828
 C54 C 0.28759 0.78317 0.71965
 C55 C 0.21816 0.78291 0.78859
 C56 C 0.28770 0.71686 0.71929
 C57 C 1.01998 0.01921 0.01892
 C58 C 0.98284 0.01916 0.01865
 C59 C 0.96497 -0.00045 -0.00127
 C60 C 0.98316 -0.02016 -0.02049
 C61 C 1.02030 -0.02037 -0.01936
 C62 C 1.03817 -0.00061 0.00011
 H63 H 1.06662 -0.00067 0.00063
 H64 H 0.93653 -0.00038 -0.00180
 C65 C 0.51953 0.51956 0.51851
 C66 C 0.48240 0.51963 0.51905
 C67 C 0.46408 0.50009 0.49952
 C68 C 0.48182 0.48033 0.47990
 C69 C 0.51897 0.47994 0.48025
 C70 C 0.53728 0.49964 0.49938
 H71 H 0.56573 0.49948 0.49937
 H72 H 0.43564 0.50026 0.49961
 C73 C -0.01891 0.47985 0.01825
 C74 C 0.01824 0.47952 0.01772
 C75 C 0.03642 0.49923 -0.00142
 C76 C 0.01857 0.51909 -0.02054
 C77 C -0.01858 0.51903 -0.02109
 C78 C -0.03678 0.49951 -0.00144
 H79 H -0.06523 0.49962 -0.00144
 H80 H 0.06486 0.49913 -0.00140
 C81 C 0.48191 0.98100 0.52060
 C82 C 0.51906 0.98106 0.52016
 C83 C 0.53686 1.00093 0.50095
 C84 C 0.51865 1.02055 0.48162
 C85 C 0.48149 1.02047 0.48201
 C86 C 0.46368 1.00059 0.50123
 H87 H 0.43524 1.00075 0.50212
 H88 H 0.56530 1.00072 0.50001
 C89 C 1.15737 0.15863 0.15524
 C90 C 1.14629 0.16844 0.19259
 C91 C 1.16553 0.18743 0.21195
 C92 C 1.19648 0.19707 0.19446
 C93 C 1.20747 0.18719 0.15695
 C94 C 1.18812 0.16825 0.13760
 C95 C 1.13705 0.13832 0.13487
 C96 C 1.13158 0.13889 0.09284
 C97 C 1.11258 0.11968 0.07369
 C98 C 1.09875 0.09944 0.09613
 C99 C 1.10417 0.09891 0.13816
 C100 C 1.12306 0.11814 0.15732
 C101 C 1.07887 0.07889 0.07582
 C102 C 1.08413 0.05353 0.08699
 C103 C 1.06522 0.03417 0.06818
 C104 C 1.04053 0.03981 0.03806
 C105 C 1.03552 0.06507 0.02644
 C106 C 1.05447 0.08445 0.04520
 H107 H 1.12245 0.16163 0.20667
 H108 H 1.15604 0.19451 0.24068
 H109 H 1.23112 0.19401 0.14243
 H110 H 1.19755 0.16084 0.10907
 H111 H 1.14174 0.15432 0.07480
 H112 H 1.10910 0.12049 0.04122
 H113 H 1.09351 0.08370 0.15632
 H114 H 1.12711 0.11706 0.18968
 H115 H 1.10311 0.04863 0.11005
 H116 H 1.06952 0.01478 0.07747
 H117 H 1.01682 0.06978 0.00297
 H118 H 1.04965 0.10382 0.03619
 C119 C 0.65856 0.65925 0.65199
 C120 C 0.64815 0.66874 0.68983
 C121 C 0.66759 0.68771 0.70895
 C122 C 0.69794 0.69759 0.69070
 C123 C 0.70828 0.68817 0.65277
 C124 C 0.68879 0.66922 0.63361
 C125 C 0.63813 0.63885 0.63194
 C126 C 0.63190 0.63950 0.59006
 C127 C 0.61279 0.62023 0.57123
 C128 C 0.59960 0.59984 0.59385
 C129 C 0.60580 0.59922 0.63573
 C130 C 0.62482 0.61851 0.65456
 C131 C 0.57948 0.57926 0.57390
 C132 C 0.58499 0.55389 0.58490
 C133 C 0.56575 0.53453 0.56656
 C134 C 0.54050 0.54015 0.53706
 C135 C 0.53529 0.56541 0.52555
 C136 C 0.55453 0.58480 0.54386
 H137 H 0.62472 0.66168 0.70449
 H138 H 0.65884 0.69461 0.73810
 H139 H 0.73156 0.69534 0.63792
 H140 H 0.69771 0.66208 0.60470
 H141 H 0.64152 0.65505 0.57189
 H142 H 0.60870 0.62111 0.53886
 H143 H 0.59564 0.58391 0.65404
 H144 H 0.62949 0.61735 0.68681
 H145 H 0.60439 0.54900 0.60750
 H146 H 0.57023 0.51514 0.57576
 H147 H 0.51616 0.57011 0.50254
 H148 H 0.54950 0.60417 0.53498
 C149 C -0.15591 0.34182 0.15836
 C150 C -0.18386 0.32979 0.13830
 C151 C -0.20285 0.31054 0.15724
 C152 C -0.19422 0.30276 0.19662
 C153 C -0.16613 0.31462 0.21660
 C154 C -0.14725 0.33397 0.19774
 C155 C -0.13600 0.36251 0.13833
 C156 C -0.09949 0.36466 0.14340
 C157 C -0.08082 0.38408 0.12446
 C158 C -0.09821 0.40171 0.09984
 C159 C -0.13467 0.39961 0.09476
 C160 C -0.15337 0.38030 0.11389
 C161 C -0.07833 0.42209 0.07926
 C162 C -0.08532 0.42809 0.03865
 C163 C -0.06618 0.44698 0.01901
 C164 C -0.03973 0.46025 0.03959
 C165 C -0.03321 0.45466 0.08041
 C166 C -0.05214 0.43562 0.09998
 H167 H -0.19085 0.33505 0.10771
 H168 H -0.22422 0.30169 0.14092
 H169 H -0.15893 0.30915 0.24704
 H170 H -0.12622 0.34307 0.21428
 H171 H -0.08520 0.35105 0.16147
 H172 H -0.05265 0.38504 0.12845
 H173 H -0.14881 0.41316 0.07642
 H174 H -0.18155 0.37949 0.10994
 H175 H -0.10514 0.41782 0.02185
 H176 H -0.07160 0.45096 -0.01250
 H177 H -0.01338 0.46499 0.09710
 H178 H -0.04657 0.43166 0.13145
 C179 C 0.34651 0.84206 0.66070
 C180 C 0.31870 0.82993 0.64059
 C181 C 0.29961 0.81081 0.65971
 C182 C 0.30806 0.80327 0.69928
 C183 C 0.33604 0.81528 0.71929
 C184 C 0.35497 0.83454 0.70025
 C185 C 0.36648 0.86256 0.64051
 C186 C 0.37531 0.88473 0.66165
 C187 C 0.39373 0.90418 0.64247
 C188 C 0.40391 0.90183 0.60177
 C189 C 0.39524 0.87955 0.58075
 C190 C 0.37665 0.86017 0.59987
 C191 C 0.42348 0.92251 0.58128
 C192 C 0.41644 0.92859 0.54067
 C193 C 0.43523 0.94771 0.52117
 C194 C 0.46145 0.96116 0.54183
 C195 C 0.46803 0.95554 0.58261
 C196 C 0.44941 0.93630 0.60207
 H197 H 0.31137 0.83553 0.61025
 H198 H 0.27820 0.80195 0.64347
 H199 H 0.34321 0.80991 0.74978
 H200 H 0.37651 0.84338 0.71630
 H201 H 0.36739 0.88722 0.69285
 H202 H 0.39948 0.92124 0.65935
 H203 H 0.40325 0.87692 0.54962
 H204 H 0.37063 0.84314 0.58301
 H205 H 0.39621 0.91867 0.52399
 H206 H 0.42960 0.95183 0.48976
 H207 H 0.48780 0.96593 0.59931
 H208 H 0.45573 0.93197 0.63322
 C209 C -0.15309 0.65834 -0.16109
 C210 C -0.18078 0.67052 -0.14094
 C211 C -0.19978 0.68969 -0.16003
 C212 C -0.19134 0.69721 -0.19961
 C213 C -0.16346 0.68516 -0.21965
 C214 C -0.14462 0.66586 -0.20064
 C215 C -0.13326 0.63777 -0.14095
 C216 C -0.12467 0.61557 -0.16211
 C217 C -0.10642 0.59604 -0.14295
 C218 C -0.09618 0.59833 -0.10225
 C219 C -0.10459 0.62065 -0.08122
 C220 C -0.12302 0.64010 -0.10031
 C221 C -0.07679 0.57758 -0.08179
 C222 C -0.08380 0.57155 -0.04116
 C223 C -0.06512 0.55238 -0.02166
 C224 C -0.03906 0.53884 -0.04234
 C225 C -0.03252 0.54441 -0.08315
 C226 C -0.05102 0.56369 -0.10261
 H227 H -0.18811 0.66494 -0.11060
 H228 H -0.22112 0.69858 -0.14377
 H229 H -0.15631 0.69051 -0.25015
 H230 H -0.12317 0.65697 -0.21672
 H231 H -0.13266 0.61312 -0.19330
 H232 H -0.10087 0.57896 -0.15985
 H233 H -0.09652 0.62325 -0.05010
 H234 H -0.12885 0.65715 -0.08344
 H235 H -0.10390 0.58154 -0.02446
 H236 H -0.07069 0.54832 0.00979
 H237 H -0.01285 0.53396 -0.09986
 H238 H -0.04472 0.56798 -0.13377
 C239 C 0.34355 1.15943 0.34631
 C240 C 0.31084 1.16735 0.36119
 C241 C 0.29180 1.18616 0.34124
 C242 C 0.30496 1.19735 0.30581
 C243 C 0.33773 1.18945 0.29096
 C244 C 0.35687 1.17075 0.31108
 C245 C 0.36355 1.13925 0.36725
 C246 C 0.39995 1.14149 0.37292
 C247 C 0.41876 1.12239 0.39247
 C248 C 0.40158 1.10058 0.40650
 C249 C 0.36518 1.09835 0.40084
 C250 C 0.34634 1.11752 0.38155
 C251 C 0.42161 1.08008 0.42655
 C252 C 0.41500 1.05463 0.41687
 C253 C 0.43428 1.03532 0.43517
 C254 C 0.46053 1.04107 0.46350
 C255 C 0.46667 1.06646 0.47387
 C256 C 0.44759 1.08580 0.45533
 H257 H 0.30012 1.15916 0.38853
 H258 H 0.26667 1.19183 0.35350
 H259 H 0.34860 1.19769 0.26374
 H260 H 0.38184 1.16484 0.29869
 H261 H 0.41384 1.15813 0.36252
 H262 H 0.44684 1.12451 0.39610
 H263 H 0.35121 1.08184 0.41164
 H264 H 0.31836 1.11517 0.37728
 H265 H 0.39538 1.04969 0.39453
 H266 H 0.42915 1.01587 0.42670
 H267 H 0.48635 1.07130 0.49621
 H268 H 0.45286 1.10522 0.46382
 C269 C 1.15886 -0.16005 -0.15279
 C270 C 1.14834 -0.16958 -0.19056
 C271 C 1.16778 -0.18846 -0.20982
 C272 C 1.19837 -0.19829 -0.19181
 C273 C 1.20874 -0.18876 -0.15382
 C274 C 1.18919 -0.16991 -0.13457
 C275 C 1.13845 -0.13972 -0.13268
 C276 C 1.13221 -0.14042 -0.09081
 C277 C 1.11312 -0.12118 -0.07193
 C278 C 1.09999 -0.10076 -0.09450
 C279 C 1.10619 -0.10009 -0.13638
 C280 C 1.12516 -0.11936 -0.15526
 C281 C 1.08000 -0.08017 -0.07452
 C282 C 1.08576 -0.05481 -0.08538
 C283 C 1.06661 -0.03542 -0.06708
 C284 C 1.04118 -0.04101 -0.03779
 C285 C 1.03570 -0.06628 -0.02640
 C286 C 1.05489 -0.08569 -0.04465
 H287 H 1.12481 -0.16259 -0.20509
 H288 H 1.15875 -0.19528 -0.23892
 H289 H 1.23210 -0.19574 -0.13889
 H290 H 1.19817 -0.16273 -0.10569
 H291 H 1.14183 -0.15599 -0.07269
 H292 H 1.10902 -0.12210 -0.03957
 H293 H 1.09607 -0.08475 -0.15464
 H294 H 1.12983 -0.11816 -0.18750
 H295 H 1.10529 -0.04994 -0.10784
 H296 H 1.07129 -0.01603 -0.07617
 H297 H 1.01641 -0.07095 -0.00355
 H298 H 1.04968 -0.10506 -0.03589
 C299 C 0.65629 0.33995 0.34595
 C300 C 0.68887 0.33215 0.36139
 C301 C 0.70810 0.31321 0.34200
 C302 C 0.69528 0.30174 0.30658
 C303 C 0.66263 0.30949 0.29119
 C304 C 0.64329 0.32834 0.31076
 C305 C 0.63616 0.36031 0.36630
 C306 C 0.59971 0.35814 0.37166
 C307 C 0.58082 0.37738 0.39081
 C308 C 0.59795 0.39928 0.40468
 C309 C 0.63438 0.40146 0.39927
 C310 C 0.65330 0.38215 0.38040
 C311 C 0.57789 0.41989 0.42444
 C312 C 0.58466 0.44529 0.41463
 C313 C 0.56560 0.46473 0.43293
 C314 C 0.53942 0.45917 0.46141
 C315 C 0.53300 0.43384 0.47176
 C316 C 0.55187 0.41436 0.45322
 H317 H 0.69934 0.34056 0.38873
 H318 H 0.73312 0.30766 0.35468
 H319 H 0.65203 0.30103 0.26397
 H320 H 0.61843 0.33415 0.29796
 H321 H 0.58587 0.34143 0.36139
 H322 H 0.55272 0.37530 0.39427
 H323 H 0.64831 0.41802 0.40997
 H324 H 0.68131 0.38445 0.37634
 H325 H 0.60430 0.45009 0.39227
 H326 H 0.57092 0.48414 0.42444
 H327 H 0.51336 0.42915 0.49419
 H328 H 0.54647 0.39499 0.46179
 C329 C 0.84689 -0.15867 -0.16137
 C330 C 0.85686 -0.16747 -0.19974
 C331 C 0.83781 -0.18665 -0.21889
 C332 C 0.80802 -0.19731 -0.20027
 C333 C 0.79812 -0.18837 -0.16176
 C334 C 0.81744 -0.16938 -0.14251
 C335 C 0.86705 -0.13830 -0.14108
 C336 C 0.87582 -0.14026 -0.09996
 C337 C 0.89464 -0.12100 -0.08075
 C338 C 0.90482 -0.09920 -0.10212
 C339 C 0.89596 -0.09728 -0.14331
 C340 C 0.87743 -0.11667 -0.16260
 C341 C 0.92454 -0.07859 -0.08150
 C342 C 0.95112 -0.06524 -0.10190
 C343 C 0.96978 -0.04602 -0.08237
 C344 C 0.96270 -0.04002 -0.04182
 C345 C 0.93591 -0.05305 -0.02153
 C346 C 0.91699 -0.07210 -0.04115
 H347 H 0.87967 -0.15968 -0.21477
 H348 H 0.84639 -0.19296 -0.24845
 H349 H 0.77541 -0.19600 -0.14632
 H350 H 0.80901 -0.16277 -0.11307
 H351 H 0.86854 -0.15689 -0.08281
 H352 H 0.90160 -0.12336 -0.04924
 H353 H 0.90283 -0.08060 -0.16053
 H354 H 0.87061 -0.11454 -0.19421
 H355 H 0.95789 -0.06988 -0.13282
 H356 H 0.98994 -0.03593 -0.09886
 H357 H 0.92987 -0.04865 0.00970
 H358 H 0.89626 -0.08161 -0.02476
 C359 C 0.34299 0.34237 0.34126
 C360 C 0.35151 0.33467 0.30181
 C361 C 0.33258 0.31536 0.28285
 C362 C 0.30452 0.30348 0.30284
 C363 C 0.29595 0.31123 0.34229
 C364 C 0.31507 0.33040 0.36135
 C365 C 0.36314 0.36283 0.36138
 C366 C 0.37347 0.36045 0.40196
 C367 C 0.39254 0.37968 0.42090
 C368 C 0.40151 0.40183 0.39976
 C369 C 0.39106 0.40421 0.35915
 C370 C 0.37218 0.38489 0.34015
 C371 C 0.42169 0.42233 0.42000
 C372 C 0.44770 0.43582 0.39888
 C373 C 0.46688 0.45489 0.41809
 C374 C 0.46081 0.46064 0.45895
 C375 C 0.43456 0.44747 0.47995
 C376 C 0.41520 0.42852 0.46070
 H377 H 0.37313 0.34338 0.28578
 H378 H 0.33984 0.30984 0.25245
 H379 H 0.27448 0.30245 0.35850
 H380 H 0.30772 0.33614 0.39163
 H381 H 0.36729 0.34349 0.41888
 H382 H 0.40073 0.37703 0.45196
 H383 H 0.39700 0.42118 0.34219
 H384 H 0.36414 0.38737 0.30899
 H385 H 0.45362 0.43138 0.36766
 H386 H 0.48668 0.46506 0.40115
 H387 H 0.42934 0.45168 0.51144
 H388 H 0.39494 0.41884 0.47763
 C389 C 0.15846 0.65864 -0.15226
 C390 C 0.19106 0.66634 -0.13668
 C391 C 0.21042 0.68531 -0.15585
 C392 C 0.19769 0.69688 -0.19117
 C393 C 0.16506 0.68918 -0.20673
 C394 C 0.14561 0.67032 -0.18740
 C395 C 0.13807 0.63834 -0.13210
 C396 C 0.10163 0.64069 -0.12691
 C397 C 0.08244 0.62149 -0.10809
 C398 C 0.09925 0.59947 -0.09437
 C399 C 0.13569 0.59713 -0.09956
 C400 C 0.15491 0.61640 -0.11811
 C401 C 0.07883 0.57890 -0.07500
 C402 C 0.08527 0.55350 -0.08510
 C403 C 0.06577 0.53413 -0.06726
 C404 C 0.03948 0.53976 -0.03896
 C405 C 0.03340 0.56510 -0.02830
 C406 C 0.05271 0.58451 -0.04637
 H407 H 0.20143 0.65785 -0.10939
 H408 H 0.23544 0.69083 -0.14306
 H409 H 0.15452 0.69772 -0.23389
 H410 H 0.12073 0.66457 -0.20032
 H411 H 0.08802 0.65749 -0.13708
 H412 H 0.05434 0.62369 -0.10479
 H413 H 0.14937 0.58047 -0.08896
 H414 H 0.18291 0.61399 -0.12204
 H415 H 0.10499 0.54866 -0.10736
 H416 H 0.07084 0.51472 -0.07596
 H417 H 0.01368 0.56984 -0.00598
 H418 H 0.04755 0.60388 -0.03759
 C419 C 0.65751 1.15792 0.34230
 C420 C 0.68683 1.16875 0.36147
 C421 C 0.70622 1.18777 0.34250
 C422 C 0.69663 1.19667 0.30392
 C423 C 0.66707 1.18593 0.28492
 C424 C 0.64789 1.16675 0.30379
 C425 C 0.63713 1.13745 0.36236
 C426 C 0.60041 1.13625 0.35844
 C427 C 0.58132 1.11699 0.37726
 C428 C 0.59848 1.09866 0.40072
 C429 C 0.63511 1.09983 0.40473
 C430 C 0.65424 1.11893 0.38562
 C431 C 0.57821 1.07846 0.42118
 C432 C 0.55162 1.06535 0.40047
 C433 C 0.53256 1.04631 0.41985
 C434 C 0.53926 1.04038 0.46052
 C435 C 0.56601 1.05334 0.48111
 C436 C 0.58535 1.07217 0.46162
 H437 H 0.69462 1.16272 0.39143
 H438 H 0.72864 1.19558 0.35833
 H439 H 0.65883 1.19211 0.25518
 H440 H 0.62580 1.15857 0.28787
 H441 H 0.58631 1.15043 0.34136
 H442 H 0.55304 1.11670 0.37412
 H443 H 0.64902 1.08572 0.42221
 H444 H 0.68252 1.11897 0.38865
 H445 H 0.54594 1.06960 0.36912
 H446 H 0.51255 1.03619 0.40310
 H447 H 0.57161 1.04909 0.51249
 H448 H 0.60552 1.08213 0.47835
 C449 C 0.15618 0.33972 0.15113
 C450 C 0.14309 0.32842 0.18647
 C451 C 0.16236 0.30973 0.20643
 C452 C 0.19503 0.30183 0.19132
 C453 C 0.20796 0.31299 0.15575
 C454 C 0.18879 0.33179 0.13595
 C455 C 0.13608 0.35994 0.13045
 C456 C 0.15320 0.38170 0.11614
 C457 C 0.13424 0.40098 0.09730
 C458 C 0.09777 0.39883 0.09213
 C459 C 0.08067 0.37697 0.10611
 C460 C 0.09961 0.35777 0.12521
 C461 C 0.07762 0.41945 0.07262
 C462 C 0.05137 0.41394 0.04407
 C463 C 0.03233 0.43342 0.02585
 C464 C 0.03882 0.45875 0.03630
 C465 C 0.06523 0.46429 0.06454
 C466 C 0.08445 0.44484 0.08252
 H467 H 0.11821 0.33435 0.19910
 H468 H 0.15166 0.30151 0.23376
 H469 H 0.23302 0.30731 0.14329
 H470 H 0.19933 0.33998 0.10852
 H471 H 0.18123 0.38400 0.12009
 H472 H 0.14814 0.41751 0.08650
 H473 H 0.05254 0.37492 0.10283
 H474 H 0.08578 0.34111 0.13564
 H475 H 0.04590 0.39457 0.03545
 H476 H 0.01252 0.42875 0.00359
 H477 H 0.07061 0.48369 0.07310
 H478 H 0.10427 0.44963 0.10473
 C479 C 0.65906 0.84166 0.65180
 C480 C 0.69160 0.83393 0.63616
 C481 C 0.71094 0.81498 0.65534
 C482 C 0.69827 0.80346 0.69074
 C483 C 0.66571 0.81120 0.70637
 C484 C 0.64626 0.83004 0.68702
 C485 C 0.63868 0.86194 0.63162
 C486 C 0.60222 0.85960 0.62652
 C487 C 0.58304 0.87877 0.60768
 C488 C 0.59988 0.90077 0.59383
 C489 C 0.63633 0.90310 0.59892
 C490 C 0.65555 0.88385 0.61750
 C491 C 0.57946 0.92131 0.57445
 C492 C 0.58599 0.94672 0.58445
 C493 C 0.56646 0.96608 0.56664
 C494 C 0.54004 0.96041 0.53848
 C495 C 0.53390 0.93506 0.52788
 C496 C 0.55324 0.91567 0.54592
 H497 H 0.70192 0.84237 0.60881
 H498 H 0.73591 0.80944 0.64251
 H499 H 0.65522 0.80270 0.73359
 H500 H 0.62144 0.83581 0.69998
 H501 H 0.58859 0.84282 0.63680
 H502 H 0.55493 0.87657 0.60446
 H503 H 0.65003 0.91975 0.58823
 H504 H 0.68356 0.88627 0.62134
 H505 H 0.60580 0.95160 0.60662
 H506 H 0.57159 0.98550 0.57527
 H507 H 0.51410 0.93029 0.50564
 H508 H 0.54802 0.89629 0.53720
 C509 C 0.84520 0.15765 0.15690
 C510 C 0.85338 0.16510 0.19664
 C511 C 0.83432 0.18426 0.21575
 C512 C 0.80649 0.19632 0.19566
 C513 C 0.79834 0.18894 0.15592
 C514 C 0.81753 0.16988 0.13673
 C515 C 0.86527 0.13711 0.13668
 C516 C 0.84815 0.11953 0.11153
 C517 C 0.86699 0.10024 0.09250
 C518 C 0.90335 0.09797 0.09838
 C519 C 0.92049 0.11545 0.12359
 C520 C 0.90169 0.13484 0.14244
 C521 C 0.92334 0.07749 0.07818
 C522 C 0.94896 0.06381 0.09950
 C523 C 0.96794 0.04463 0.08039
 C524 C 0.96206 0.03902 0.03942
 C525 C 0.93620 0.05245 0.01821
 C526 C 0.91700 0.07149 0.03741
 H527 H 0.87417 0.15583 0.21328
 H528 H 0.84114 0.18941 0.24647
 H529 H 0.77719 0.19796 0.13952
 H530 H 0.81090 0.16491 0.10589
 H531 H 0.82005 0.12043 0.10702
 H532 H 0.85303 0.08682 0.07367
 H533 H 0.94858 0.11436 0.12820
 H534 H 0.91580 0.14830 0.16104
 H535 H 0.95400 0.06776 0.13112
 H536 H 0.98727 0.03416 0.09756
 H537 H 0.93127 0.04844 -0.01341
 H538 H 0.89763 0.08187 0.02016
 C539 C 0.34658 0.65809 0.65977
 C540 C 0.35520 0.66572 0.69930
 C541 C 0.33629 0.68493 0.71850
 C542 C 0.30820 0.69686 0.69870
 C543 C 0.29964 0.68931 0.65916
 C544 C 0.31866 0.67021 0.63988
 C545 C 0.36645 0.63750 0.63942
 C546 C 0.34905 0.61983 0.61469
 C547 C 0.36771 0.60056 0.59536
 C548 C 0.40415 0.59840 0.60053
 C549 C 0.42157 0.61593 0.62540
 C550 C 0.40296 0.63531 0.64455
 C551 C 0.42394 0.57800 0.57987
 C552 C 0.44994 0.56436 0.60061
 C553 C 0.46863 0.54519 0.58107
 C554 C 0.46206 0.53956 0.54025
 C555 C 0.43586 0.55300 0.51961
 C556 C 0.41696 0.57202 0.53923
 H557 H 0.37621 0.65654 0.71571
 H558 H 0.34344 0.69022 0.74906
 H559 H 0.27828 0.69823 0.64297
 H560 H 0.31171 0.66511 0.60919
 H561 H 0.32089 0.62067 0.61069
 H562 H 0.35353 0.58710 0.57683
 H563 H 0.44973 0.61491 0.62947
 H564 H 0.41726 0.64882 0.66284
 H565 H 0.45549 0.56830 0.63212
 H566 H 0.48824 0.53472 0.59782
 H567 H 0.43041 0.54899 0.48810
 H568 H 0.39730 0.58238 0.52241
   
