data_POSCAR
  _audit_creation_date              2014-09-24
  _audit_creation_method            'ToBaCCo'
  _symmetry_space_group_name_H-M    'P1'
  _symmetry_Int_Tables_number       1
  _symmetry_cell_setting            triclinic
  loop_
  _symmetry_equiv_pos_as_xyz
 x,y,z
_cell_length_a 38.2283
_cell_length_b 38.2352
_cell_length_c 38.2290
_cell_angle_alpha 94.433200
_cell_angle_beta 96.788100
_cell_angle_gamma 93.611400
loop_
  _atom_site_label
  _atom_site_type_symbol
  _atom_site_fract_x
  _atom_site_fract_y
  _atom_site_fract_z
C1 C 0.71374 0.69502 0.96838
 H2 H 0.73619 0.69061 0.95427
 C3 C 0.68640 0.71388 0.95353
 H4 H 0.68831 0.72358 0.92793
 C5 C 0.68281 0.68443 1.01706
 H6 H 0.68082 0.67197 1.04120
 C7 C 0.65525 0.70379 1.00359
 H8 H 0.63304 0.70679 1.01839
 N9 N 0.71109 0.67993 0.99911
 C10 C 0.81263 0.64519 1.04296
 H11 H 0.80502 0.61729 1.04070
 C12 C 0.84753 0.65719 1.05453
 H13 H 0.86674 0.63848 1.06163
 C14 C 0.79694 0.70337 1.03511
 H15 H 0.77718 0.72103 1.02671
 C16 C 0.83162 0.71664 1.04729
 H17 H 0.83852 0.74465 1.04841
 Zn18 Zn 0.74418 0.64663 1.01163
 N19 N 0.78843 0.66810 1.03256
 C20 C 0.78340 0.62721 0.95694
 N21 N 0.75153 0.62107 0.96872
 C22 C 0.72493 0.60086 0.94844
 C23 C 0.73041 0.58502 0.91540
 C24 C 0.78984 0.61228 0.92422
 C25 C 0.72750 0.63426 1.07799
 C26 C 0.71484 0.61668 1.10504
 C27 C 0.70281 0.56443 1.06477
 C28 C 0.71593 0.58325 1.03843
 N29 N 0.72719 0.61777 1.04527
 H30 H 0.80384 0.64451 0.97236
 H31 H 0.69935 0.59746 0.95764
 H32 H 0.70916 0.56880 0.89959
 H33 H 0.81570 0.61711 0.91589
 H34 H 0.73690 0.66170 1.08288
 H35 H 0.71385 0.63251 1.12946
 H36 H 0.69509 0.53689 1.05790
 H37 H 0.71700 0.57016 1.01255
 C38 C 0.85747 0.69322 1.05627
 C39 C 0.65611 0.71782 0.97071
 C40 C 0.70142 0.58097 1.09913
 C41 C 0.76325 0.59091 0.90292
 C42 C 0.72816 0.34557 0.52190
 H43 H 0.75479 0.35022 0.53531
 C44 C 0.70365 0.32378 0.53572
 H45 H 0.71214 0.31093 0.55919
 C46 C 0.68495 0.35767 0.47555
 H47 H 0.67757 0.37177 0.45269
 C48 C 0.65929 0.33670 0.48900
 H49 H 0.63233 0.33517 0.47629
 N50 N 0.71851 0.36204 0.49239
 C51 C 0.81584 0.39335 0.45118
 H52 H 0.81108 0.42036 0.44679
 C53 C 0.84538 0.37859 0.43973
 H54 H 0.86350 0.39427 0.42648
 C55 C 0.79735 0.33947 0.47255
 H56 H 0.77811 0.32387 0.48428
 C57 C 0.82699 0.32391 0.46224
 H58 H 0.83047 0.29656 0.46632
 Zn59 Zn 0.75196 0.39547 0.47919
 N60 N 0.79249 0.37371 0.46715
 C61 C 0.79813 0.43687 0.53259
 N62 N 0.76387 0.42846 0.51894
 C63 C 0.73684 0.43869 0.53658
 C64 C 0.74377 0.45606 0.57043
 C65 C 0.80625 0.45486 0.56608
 C66 C 0.72625 0.39638 0.40825
 C67 C 0.71222 0.41030 0.37741
 C68 C 0.71186 0.46656 0.41081
 C69 C 0.72606 0.45155 0.44107
 N70 N 0.73254 0.41694 0.43927
 H71 H 0.81922 0.42795 0.51848
 H72 H 0.70985 0.43121 0.52533
 H73 H 0.72203 0.46217 0.58507
 H74 H 0.83361 0.45969 0.57744
 H75 H 0.73215 0.36905 0.40756
 H76 H 0.70752 0.39347 0.35297
 H77 H 0.70595 0.49391 0.41292
 H78 H 0.73160 0.46742 0.46601
 C79 C 0.85109 0.34351 0.44532
 C80 C 0.66833 0.31995 0.51995
 C81 C 0.70453 0.44578 0.37845
 C82 C 0.77885 0.46344 0.58587
 C83 C 0.23018 -0.15139 0.01270
 H84 H 0.25746 -0.14751 0.02446
 C85 C 0.20652 -0.17323 0.02756
 H86 H 0.21627 -0.18685 0.05011
 C87 C 0.18471 -0.13742 -0.03052
 H88 H 0.17628 -0.12270 -0.05266
 C89 C 0.15985 -0.15845 -0.01592
 H90 H 0.13237 -0.15937 -0.02693
 N91 N 0.21898 -0.13381 -0.01562
 C92 C 0.31628 -0.10154 -0.05722
 H93 H 0.31290 -0.07383 -0.05904
 C94 C 0.34573 -0.11620 -0.06896
 H95 H 0.36517 -0.09970 -0.07974
 C96 C 0.29472 -0.15705 -0.04176
 H97 H 0.27443 -0.17317 -0.03204
 C98 C 0.32421 -0.17263 -0.05245
 H99 H 0.32655 -0.20054 -0.05065
 Zn100 Zn 0.25192 -0.09998 -0.02915
 N101 N 0.29150 -0.12198 -0.04387
 C102 C 0.30072 -0.05969 0.02369
 N103 N 0.26607 -0.06890 0.01212
 C104 C 0.24042 -0.06128 0.03277
 C105 C 0.24930 -0.04563 0.06716
 C106 C 0.31072 -0.04345 0.05776
 C107 C 0.23785 -0.08382 -0.10028
 C108 C 0.22246 -0.06638 -0.12838
 C109 C 0.19223 -0.03261 -0.08694
 C110 C 0.20843 -0.05057 -0.05975
 N111 N 0.23069 -0.07570 -0.06675
 H112 H 0.32087 -0.06657 0.00742
 H113 H 0.21312 -0.06957 0.02344
 H114 H 0.22869 -0.04149 0.08388
 H115 H 0.33852 -0.03802 0.06722
 H116 H 0.25505 -0.10447 -0.10551
 H117 H 0.22806 -0.07525 -0.15451
 H118 H 0.17626 -0.01175 -0.07914
 H119 H 0.20335 -0.04417 -0.03288
 C120 C 0.34994 -0.15208 -0.06637
 C121 C 0.17052 -0.17611 0.01409
 C122 C 0.19852 -0.04035 -0.12252
 C123 C 0.28491 -0.03743 0.08034
 C124 C 0.19832 0.16001 0.44815
 H125 H 0.21081 0.14374 0.42966
 C126 C 0.17117 0.17998 0.43530
 H127 H 0.16314 0.17846 0.40707
 C128 C 0.19215 0.17991 0.50718
 H129 H 0.20016 0.17920 0.53521
 C130 C 0.16461 0.20032 0.49539
 H131 H 0.15188 0.21571 0.51453
 N132 N 0.20817 0.16005 0.48353
 C133 C 0.31176 0.13096 0.52730
 H134 H 0.30695 0.10279 0.52159
 C135 C 0.34573 0.14537 0.53958
 H136 H 0.36693 0.12809 0.54386
 C137 C 0.28987 0.18764 0.52763
 H138 H 0.26811 0.20392 0.52204
 C139 C 0.32357 0.20323 0.54042
 H140 H 0.32759 0.23159 0.54481
 Zn141 Zn 0.24199 0.12840 0.49894
 N142 N 0.28476 0.15208 0.52118
 C143 C 0.27912 0.11952 0.44169
 N144 N 0.25432 0.10253 0.45826
 C145 C 0.23913 0.07039 0.44501
 C146 C 0.24918 0.05406 0.41402
 C147 C 0.29044 0.10395 0.41129
 C148 C 0.23876 0.10091 0.56523
 C149 C 0.22264 0.08451 0.59122
 C150 C 0.17345 0.06450 0.54726
 C151 C 0.19047 0.08146 0.52208
 N152 N 0.22238 0.09962 0.53148
 H153 H 0.29038 0.14536 0.45227
 H154 H 0.21907 0.05750 0.45819
 H155 H 0.23630 0.02875 0.40368
 H156 H 0.31130 0.11768 0.39981
 H157 H 0.26362 0.11616 0.57266
 H158 H 0.23549 0.08760 0.61818
 H159 H 0.14777 0.05079 0.53929
 H160 H 0.17748 0.08141 0.49536
 C161 C 0.35207 0.18194 0.54588
 C162 C 0.15362 0.20028 0.45893
 C163 C 0.18912 0.06664 0.58268
 C164 C 0.27555 0.07069 0.39686
 C165 C 0.20109 0.47660 0.20929
 H166 H 0.21389 0.48443 0.23574
 C167 C 0.22097 0.46425 0.18294
 H168 H 0.24923 0.46297 0.18901
 C169 C 0.14855 0.46769 0.16897
 H170 H 0.12019 0.46868 0.16392
 C171 C 0.16736 0.45605 0.14187
 H172 H 0.15340 0.44801 0.11588
 N173 N 0.16556 0.47827 0.20170
 C174 C 0.15134 0.48773 0.30819
 H175 H 0.13265 0.46500 0.30363
 C176 C 0.16495 0.49957 0.34281
 H177 H 0.15684 0.48581 0.36458
 C178 C 0.18317 0.53469 0.28601
 H179 H 0.18931 0.54871 0.26373
 C180 C 0.19752 0.54742 0.32038
 H181 H 0.21499 0.57118 0.32463
 Zn182 Zn 0.13533 0.49261 0.23512
 N183 N 0.16013 0.50560 0.28064
 C184 C 0.12030 0.42166 0.23814
 N185 N 0.10441 0.45254 0.23878
 C186 C 0.07113 0.45428 0.24771
 C187 C 0.05346 0.42457 0.25850
 C188 C 0.10354 0.39139 0.24839
 C189 C 0.12442 0.54828 0.19224
 C190 C 0.11233 0.58006 0.18222
 C191 C 0.07479 0.58007 0.22870
 C192 C 0.08810 0.54829 0.23830
 N193 N 0.11233 0.53286 0.21986
 H194 H 0.14702 0.42095 0.23166
 H195 H 0.05901 0.47900 0.24849
 H196 H 0.02793 0.42707 0.26765
 H197 H 0.11723 0.36745 0.24861
 H198 H 0.14475 0.53691 0.17874
 H199 H 0.12288 0.59214 0.16059
 H200 H 0.05603 0.59242 0.24387
 H201 H 0.08009 0.53676 0.26130
 C202 C 0.18782 0.52997 0.34908
 C203 C 0.20398 0.45428 0.14869
 C204 C 0.08753 0.59652 0.20069
 C205 C 0.07022 0.39287 0.26007
 C206 C -0.15432 0.01374 0.23652
 H207 H -0.15401 0.02498 0.26342
 C208 C -0.17575 0.02678 0.20926
 H209 H -0.19291 0.04680 0.21652
 C210 C -0.13272 -0.02704 0.19609
 H211 H -0.11509 -0.04735 0.19107
 C212 C -0.15332 -0.01437 0.16778
 H213 H -0.15021 -0.02528 0.14151
 N214 N -0.13314 -0.01241 0.22954
 C215 C -0.10636 -0.05124 0.33282
 H216 H -0.07780 -0.04899 0.33544
 C217 C -0.12374 -0.06516 0.35934
 H218 H -0.10834 -0.07363 0.38237
 C219 C -0.16110 -0.04458 0.29874
 H220 H -0.17568 -0.03739 0.27478
 C221 C -0.17950 -0.05837 0.32450
 H222 H -0.20810 -0.06069 0.32040
 Zn223 Zn -0.10072 -0.02353 0.26747
 N224 N -0.12519 -0.04084 0.30347
 C225 C -0.06773 0.03170 0.31788
 N226 N -0.07320 0.01902 0.28326
 C227 C -0.06319 0.03871 0.25746
 C228 C -0.04858 0.07315 0.26583
 C229 C -0.05236 0.06576 0.32750
 C230 C -0.08808 -0.09206 0.24491
 C231 C -0.06949 -0.11901 0.23095
 C232 C -0.01934 -0.07704 0.23157
 C233 C -0.03870 -0.05100 0.24601
 N234 N -0.07266 -0.05879 0.25162
 H235 H -0.07652 0.01609 0.33795
 H236 H -0.06830 0.02823 0.23010
 H237 H -0.04227 0.08909 0.24489
 H238 H -0.04929 0.07605 0.35498
 H239 H -0.11516 -0.09742 0.24966
 H240 H -0.08246 -0.14512 0.22461
 H241 H 0.00733 -0.07033 0.22616
 H242 H -0.02697 -0.02442 0.25176
 C243 C -0.16082 -0.06887 0.35528
 C244 C -0.17465 0.01392 0.17375
 C245 C -0.03497 -0.11138 0.22342
 C246 C -0.04357 0.08713 0.30116
 C247 C 0.35802 0.53198 0.73469
 H248 H 0.36097 0.54551 0.76091
 C249 C 0.33611 0.54445 0.70741
 H250 H 0.32163 0.56721 0.71315
 C251 C 0.37376 0.48597 0.69571
 H252 H 0.38913 0.46364 0.69120
 C253 C 0.35250 0.49789 0.66745
 H254 H 0.35192 0.48462 0.64130
 N255 N 0.37629 0.50327 0.72845
 C256 C 0.40260 0.46694 0.83282
 H257 H 0.43097 0.46613 0.83427
 C258 C 0.38512 0.45622 0.86066
 H259 H 0.40017 0.44705 0.88354
 C260 C 0.34824 0.47806 0.80040
 H261 H 0.33377 0.48580 0.77663
 C262 C 0.32973 0.46736 0.82744
 H263 H 0.30122 0.46758 0.82443
 Zn264 Zn 0.40857 0.49119 0.76603
 N265 N 0.38406 0.47800 0.80364
 C266 C 0.44678 0.54491 0.81422
 N267 N 0.43949 0.53191 0.77979
 C268 C 0.44931 0.55066 0.75325
 C269 C 0.46521 0.58473 0.76070
 C270 C 0.46339 0.57855 0.82289
 C271 C 0.41497 0.42036 0.74672
 C272 C 0.42998 0.39127 0.73184
 C273 C 0.48146 0.42922 0.72541
 C274 C 0.46567 0.45748 0.74083
 N275 N 0.43269 0.45268 0.75035
 H276 H 0.43814 0.53015 0.83493
 H277 H 0.44272 0.53997 0.72606
 H278 H 0.47104 0.60014 0.73922
 H279 H 0.46746 0.58925 0.85026
 H280 H 0.38867 0.41743 0.75439
 H281 H 0.41506 0.36595 0.72787
 H282 H 0.50727 0.43355 0.71683
 H283 H 0.47918 0.48342 0.74399
 C284 C 0.34819 0.45622 0.85800
 C285 C 0.33366 0.52782 0.67303
 C286 C 0.46324 0.39579 0.72019
 C287 C 0.47163 0.59924 0.79585
 C288 C 0.69972 0.96694 0.70797
 H289 H 0.70617 0.95974 0.73465
 C290 C 0.71530 0.95055 0.68030
 H291 H 0.73469 0.93175 0.68631
 C292 C 0.66555 0.99912 0.66774
 H293 H 0.64507 1.01692 0.66262
 C294 C 0.67997 0.98301 0.63935
 H295 H 0.67022 0.98899 0.61291
 N296 N 0.67533 0.99075 0.70125
 C297 C 0.65476 1.04400 0.80068
 H298 H 0.62690 1.04501 0.79198
 C299 C 0.66816 1.05689 0.83485
 H300 H 0.64957 1.06702 0.85159
 C301 C 0.71057 1.02561 0.78930
 H302 H 0.72681 1.01309 0.77146
 C303 C 0.72521 1.03786 0.82383
 H304 H 0.75306 1.03544 0.83136
 Zn305 Zn 0.64860 1.00742 0.73695
 N306 N 0.67567 1.02829 0.77883
 C307 C 0.63312 0.95627 0.78170
 N308 N 0.62217 0.96794 0.74977
 C309 C 0.59589 0.94988 0.72710
 C310 C 0.57883 0.91927 0.73689
 C311 C 0.61716 0.92587 0.79230
 C312 C 0.64008 1.07221 0.71319
 C313 C 0.62392 1.10224 0.70368
 C314 C 0.56726 1.07261 0.70874
 C315 C 0.58468 1.04283 0.71823
 N316 N 0.62051 1.04331 0.72028
 H317 H 0.65478 0.97008 0.79899
 H318 H 0.58837 0.95910 0.70142
 H319 H 0.55773 0.90522 0.71883
 H320 H 0.62594 0.91760 0.81816
 H321 H 0.66853 1.07196 0.71538
 H322 H 0.64024 1.12464 0.69769
 H323 H 0.53881 1.07215 0.70768
 H324 H 0.56969 1.01982 0.72474
 C325 C 0.70384 1.05355 0.84760
 C326 C 0.70499 0.95801 0.64523
 C327 C 0.58707 1.10302 0.70178
 C328 C 0.58966 0.90693 0.76989
 C329 C 0.01031 0.22483 -0.16171
 H330 H 0.02524 0.25010 -0.15875
 C331 C 0.01921 0.19806 -0.18518
 H332 H 0.04127 0.20305 -0.19987
 C333 C -0.03474 0.18720 -0.14395
 H334 H -0.05546 0.18300 -0.12745
 C335 C -0.02681 0.15964 -0.16727
 H336 H -0.04182 0.13449 -0.16872
 N337 N -0.01591 0.21889 -0.14131
 C338 C -0.05742 0.31766 -0.10918
 H339 H -0.05903 0.31390 -0.08166
 C340 C -0.07255 0.34616 -0.12396
 H341 H -0.08512 0.36465 -0.10748
 C342 C -0.04018 0.29753 -0.16435
 H343 H -0.02823 0.27821 -0.18025
 C344 C -0.05466 0.32597 -0.18015
 H345 H -0.05367 0.32827 -0.20808
 Zn346 Zn -0.02373 0.25517 -0.10701
 N347 N -0.04156 0.29404 -0.12935
 C348 C 0.02285 0.30114 -0.05858
 N349 N 0.01970 0.26971 -0.07834
 C350 C 0.04784 0.24974 -0.07978
 C351 C 0.08125 0.26248 -0.06325
 C352 C 0.05575 0.31486 -0.04162
 C353 C -0.09226 0.23906 -0.09089
 C354 C -0.11802 0.22705 -0.07079
 C355 C -0.07145 0.21391 -0.02638
 C356 C -0.04670 0.22686 -0.04710
 N357 N -0.05745 0.23868 -0.07884
 H358 H 0.00018 0.31636 -0.05707
 H359 H 0.04472 0.22438 -0.09478
 H360 H 0.10364 0.24707 -0.06653
 H361 H 0.05794 0.34053 -0.02712
 H362 H -0.10006 0.24839 -0.11646
 H363 H -0.14520 0.22656 -0.08255
 H364 H -0.06132 0.20598 -0.00083
 H365 H -0.01880 0.22732 -0.03789
 C366 C -0.07129 0.35052 -0.15987
 C367 C 0.00090 0.16473 -0.18789
 C368 C -0.10816 0.21322 -0.03803
 C369 C 0.08573 0.29601 -0.04490
 C370 C 0.48606 0.19133 0.18450
 H371 H 0.49799 0.21608 0.19747
 C372 C 0.47341 0.16519 0.20457
 H373 H 0.47594 0.16975 0.23310
 C374 C 0.46743 0.15517 0.13151
 H375 H 0.46463 0.15176 0.10293
 C376 C 0.45512 0.12830 0.15045
 H377 H 0.44287 0.10414 0.13631
 N378 N 0.48293 0.18575 0.14862
 C379 C 0.54953 0.27410 0.14563
 H380 H 0.56762 0.25686 0.13485
 C381 C 0.56159 0.30840 0.15859
 H382 H 0.58879 0.31711 0.15695
 C383 C 0.49188 0.28407 0.15903
 H384 H 0.46452 0.27464 0.15833
 C385 C 0.50292 0.31851 0.17260
 H386 H 0.48395 0.33499 0.18311
 Zn387 Zn 0.49680 0.22022 0.11883
 N388 N 0.51495 0.26296 0.14505
 C389 C 0.45613 0.24661 0.05997
 N390 N 0.45507 0.23030 0.09024
 C391 C 0.42417 0.22508 0.10421
 C392 C 0.39306 0.23730 0.08836
 C393 C 0.42553 0.25916 0.04315
 C394 C 0.54457 0.17105 0.09868
 C395 C 0.57334 0.15906 0.08328
 C396 C 0.57718 0.21253 0.05394
 C397 C 0.54795 0.22343 0.06969
 N398 N 0.53238 0.20284 0.09192
 H399 H 0.48081 0.25122 0.04950
 H400 H 0.42385 0.21301 0.12880
 H401 H 0.36902 0.23368 0.10047
 H402 H 0.42726 0.27342 0.01995
 H403 H 0.53321 0.15546 0.11737
 H404 H 0.58324 0.13428 0.09028
 H405 H 0.58978 0.22966 0.03713
 H406 H 0.53916 0.24929 0.06577
 C407 C 0.53801 0.33148 0.17159
 C408 C 0.45799 0.13313 0.18740
 C409 C 0.59042 0.18004 0.06096
 C410 C 0.39364 0.25528 0.05785
 C411 C 0.96835 0.70774 0.70458
 H412 H 0.96798 0.73501 0.71414
 C413 C 0.95355 0.68159 0.72325
 H414 H 0.94309 0.68898 0.74766
 C415 C 0.97899 0.66491 0.65970
 H416 H 0.98707 0.65861 0.63393
 C417 C 0.96490 0.63806 0.67759
 H418 H 0.96288 0.61130 0.66558
 N419 N 0.98118 0.69896 0.67355
 C420 C 1.01541 0.80129 0.63954
 H421 H 1.00771 0.79353 0.61176
 C422 C 1.02733 0.83602 0.65034
 H423 H 1.02863 0.85486 0.63070
 C424 C 1.02235 0.78607 0.69876
 H425 H 1.02125 0.76637 0.71744
 C426 C 1.03403 0.82091 0.71085
 H427 H 1.04142 0.82786 0.73886
 Zn428 Zn 0.99434 0.73243 0.64207
 N429 N 1.01278 0.77716 0.66360
 C430 C 0.92814 0.75486 0.63491
 N431 N 0.95138 0.74031 0.61482
 C432 C 0.94302 0.73321 0.57930
 C433 C 0.91098 0.74300 0.56252
 C434 C 0.89557 0.76402 0.61949
 C435 C 1.05232 0.69401 0.63397
 C436 C 1.07941 0.67906 0.61814
 C437 C 1.06223 0.70841 0.56581
 C438 C 1.03512 0.72281 0.58275
 N439 N 1.02982 0.71430 0.61581
 H440 H 0.93519 0.75990 0.66314
 H441 H 0.96115 0.72048 0.56379
 H442 H 0.90582 0.73882 0.53402
 H443 H 0.87771 0.77527 0.63645
 H444 H 1.04924 0.68938 0.66101
 H445 H 1.09669 0.66276 0.63319
 H446 H 1.06564 0.71472 0.53924
 H447 H 1.01867 0.74094 0.56952
 C448 C 1.03657 0.84630 0.68638
 C449 C 0.95163 0.64622 0.70964
 C450 C 1.08429 0.68557 0.58337
 C451 C 0.88689 0.75923 0.58264
 C452 C 0.50299 0.70331 0.33096
 H453 H 0.51694 0.72892 0.33384
 C454 C 0.51408 0.67686 0.30859
 H455 H 0.53632 0.68279 0.29440
 C456 C 0.45973 0.66359 0.34866
 H457 H 0.43930 0.65813 0.36511
 C458 C 0.47007 0.63625 0.32659
 H459 H 0.45692 0.61022 0.32580
 N460 N 0.47639 0.69638 0.35066
 C461 C 0.42108 0.78486 0.36305
 H462 H 0.40278 0.77185 0.37798
 C463 C 0.41072 0.81405 0.34606
 H464 H 0.38465 0.82243 0.34899
 C465 C 0.47805 0.79191 0.34534
 H466 H 0.50465 0.78390 0.34602
 C467 C 0.46897 0.82171 0.32827
 H468 H 0.48863 0.83478 0.31469
 Zn469 Zn 0.46630 0.73260 0.38433
 N470 N 0.45388 0.77352 0.36154
 C471 C 0.51368 0.77800 0.43212
 N472 N 0.50781 0.74474 0.41619
 C473 C 0.53347 0.72164 0.41826
 C474 C 0.56737 0.73250 0.43469
 C475 C 0.54724 0.78991 0.44903
 C476 C 0.39674 0.70670 0.38851
 C477 C 0.36708 0.69765 0.40478
 C478 C 0.40338 0.70658 0.46132
 C479 C 0.43222 0.71638 0.44397
 N480 N 0.42832 0.71658 0.40820
 H481 H 0.49291 0.79594 0.42977
 H482 H 0.52817 0.69530 0.40550
 H483 H 0.58795 0.71429 0.43460
 H484 H 0.55210 0.81711 0.45960
 H485 H 0.39435 0.70707 0.36006
 H486 H 0.34205 0.69144 0.38842
 H487 H 0.40741 0.70588 0.48974
 H488 H 0.45765 0.72401 0.45906
 C489 C 0.43448 0.83296 0.32769
 C490 C 0.49793 0.64265 0.30653
 C491 C 0.37000 0.69748 0.44176
 C492 C 0.57489 0.76740 0.44917
 C493 C 0.38578 -0.04171 0.26924
 C494 C 0.36013 -0.04753 0.23501
 C495 C 0.34381 -0.01849 0.22569
 C496 C 0.35430 0.01418 0.25173
 C497 C 0.41130 -0.01083 0.26272
 C498 C 0.39486 0.01839 0.25344
 C499 C 0.36410 -0.02641 0.29693
 C500 C 0.34699 0.00231 0.28805
 H501 H 0.35786 -0.07167 0.21780
 H502 H 0.34069 0.03763 0.24372
 H503 H 0.43929 -0.01261 0.26202
 H504 H 0.36356 -0.03719 0.32225
 C505 C 0.07290 1.05543 0.74257
 C506 C 0.09144 1.06284 0.71021
 C507 C 0.11433 1.03861 0.70168
 C508 C 0.11686 1.00878 0.72669
 C509 C 0.05561 1.01779 0.73376
 C510 C 0.07855 0.99342 0.72533
 C511 C 0.10325 1.05207 0.77170
 C512 C 0.12524 1.02656 0.76458
 H513 H 0.08662 1.08460 0.69442
 H514 H 0.13562 0.98906 0.71995
 H515 H 0.02758 1.01132 0.73349
 H516 H 0.10461 1.06623 0.79755
 C517 C 0.57842 0.53796 0.24066
 C518 C 0.60061 0.55008 0.21227
 C519 C 0.62343 0.52658 0.20220
 C520 C 0.62256 0.49279 0.22148
 C521 C 0.56077 0.50193 0.22534
 C522 C 0.58364 0.47805 0.21528
 C523 C 0.60618 0.52962 0.27069
 C524 C 0.62876 0.50574 0.26097
 H525 H 0.60074 0.57581 0.20246
 H526 H 0.64203 0.47447 0.21332
 H527 H 0.53270 0.49557 0.22469
 H528 H 0.60623 0.53965 0.29800
 C529 C 0.86483 0.47170 0.78308
 C530 C 0.84301 0.46303 0.74696
 C531 C 0.82760 0.49092 0.73336
 C532 C 0.83487 0.52532 0.75740
 C533 C 0.89095 0.50266 0.77798
 C534 C 0.87554 0.53056 0.76394
 C535 C 0.83953 0.48844 0.80645
 C536 C 0.82342 0.51604 0.79313
 H537 H 0.84216 0.43756 0.73221
 H538 H 0.82145 0.54756 0.74615
 H539 H 0.91913 0.50271 0.78543
 H540 H 0.83703 0.48132 0.83296
 C541 C 0.27830 0.39382 -0.03259
 C542 C 0.24038 0.37729 -0.04196
 C543 C 0.22864 0.35804 -0.01661
 C544 C 0.25592 0.35713 0.01623
 C545 C 0.27715 0.41537 0.00280
 C546 C 0.26511 0.39639 0.02834
 C547 C 0.30046 0.36331 -0.02349
 C548 C 0.28918 0.34400 0.00186
 H549 H 0.22324 0.38246 -0.06530
 H550 H 0.24623 0.34144 0.03685
 H551 H 0.28159 0.44375 0.00601
 H552 H 0.32459 0.35880 -0.03492
 C553 C 0.76701 0.08860 1.05717
 C554 C 0.73377 0.10722 1.06299
 C555 C 0.72446 0.12992 1.03858
 C556 C 0.74938 0.13207 1.00995
 C557 C 0.75901 0.07093 1.01900
 C558 C 0.74956 0.09383 0.99440
 C559 C 0.79525 0.11819 1.05481
 C560 C 0.78707 0.14035 1.02932
 H561 H 0.71720 0.10060 1.08301
 H562 H 0.74127 0.15054 0.99011
 H563 H 0.75842 0.04299 1.01195
 H564 H 0.82073 0.11931 1.07066
 C565 C 0.25771 0.59001 0.55441
 C566 C 0.22400 0.60510 0.56455
 C567 C 0.20652 0.62281 0.53928
 C568 C 0.22480 0.62421 0.50558
 C569 C 0.24620 0.56755 0.51915
 C570 C 0.22886 0.58546 0.49364
 C571 C 0.27975 0.62135 0.54365
 C572 C 0.26299 0.63909 0.51794
 H573 H 0.21462 0.60164 0.58982
 H574 H 0.21097 0.63919 0.48504
 H575 H 0.25283 0.54076 0.51383
 H576 H 0.30805 0.62517 0.55124
 C577 C 0.76561 0.86920 0.46333
 C578 C 0.72926 0.84932 0.45269
 C579 C 0.71602 0.83358 0.47954
 C580 C 0.74002 0.83944 0.51499
 C581 C 0.75978 0.89505 0.49461
 C582 C 0.74639 0.87979 0.52184
 C583 C 0.78873 0.84215 0.47971
 C584 C 0.77569 0.82675 0.50665
 H585 H 0.71380 0.84956 0.42717
 H586 H 0.72908 0.82581 0.53629
 H587 H 0.76608 0.92304 0.49480
 H588 H 0.81467 0.83751 0.47230
 C589 C -0.03046 0.28178 0.38793
 C590 C -0.04137 0.24669 0.36613
 C591 C -0.01529 0.23311 0.34925
 C592 C 0.01955 0.25625 0.35490
 C593 C 0.00276 0.27455 0.41266
 C594 C 0.02889 0.26095 0.39544
 C595 C -0.01621 0.30586 0.36195
 C596 C 0.00927 0.29258 0.34416
 H597 H -0.06655 0.23223 0.36684
 H598 H 0.04021 0.24511 0.34020
 H599 H 0.00590 0.28007 0.44103
 H600 H -0.02497 0.33195 0.35864
 C601 C 1.06392 0.76294 0.09366
 C602 C 1.07666 0.73476 0.11731
 C603 C 1.05394 0.72487 0.14018
 C604 C 1.01983 0.74452 0.13732
 C605 C 1.02747 0.74757 0.07524
 C606 C 1.00442 0.73828 0.09821
 C607 C 1.05528 0.79307 0.11927
 C608 C 1.03190 0.78399 0.14182
 H609 H 1.10067 0.72188 0.11412
 H610 H 1.00105 0.73625 0.15564
 H611 H 1.01919 0.74664 0.04717
 H612 H 1.06612 0.81977 0.11831
 C613 C 0.55546 0.26173 0.59307
 C614 C 0.56650 0.23470 0.61882
 C615 C 0.54191 0.22594 0.64008
 C616 C 0.50798 0.24534 0.63407
 C617 C 0.52000 0.24568 0.57288
 C618 C 0.49515 0.23739 0.59444
 C619 C 0.54510 0.29284 0.61630
 C620 C 0.52019 0.28475 0.63757
 H621 H 0.59083 0.22164 0.61842
 H622 H 0.48806 0.23786 0.65156
 H623 H 0.51392 0.24289 0.54446
 H624 H 0.55644 0.31935 0.61523
 C625 C 0.47426 0.79163 0.88278
 C626 C 0.46608 0.75699 0.85953
 C627 C 0.49436 0.74474 0.84524
 C628 C 0.52845 0.76871 0.85467
 C629 C 0.50551 0.78456 0.91006
 C630 C 0.53373 0.77258 0.89531
 C631 C 0.49068 0.81702 0.85917
 C632 C 0.51828 0.80497 0.84366
 H633 H 0.44091 0.74180 0.85744
 H634 H 0.55128 0.75856 0.84263
 H635 H 0.50579 0.78851 0.93840
 H636 H 0.48194 0.84314 0.85615
 C637 C 0.44826 -0.10923 0.30559
 C638 C 0.42387 -0.13733 0.31019
 C639 C 0.38800 -0.13450 0.29786
 C640 C 0.37674 -0.10423 0.28352
 C641 C 0.40073 -0.07558 0.28057
 C642 C 0.43682 -0.07865 0.29133
 H643 H 0.47602 -0.10950 0.31510
 H644 H 0.36821 -0.15581 0.29874
 H645 H 0.34876 -0.10282 0.27547
 H646 H 0.45632 -0.05721 0.29036
 C647 C 0.92972 0.40081 0.80182
 C648 C 0.91201 0.38023 0.82400
 C649 C 0.87815 0.38832 0.83106
 C650 C 0.86275 0.41719 0.81727
 C651 C 0.88134 0.43950 0.79706
 C652 C 0.91445 0.43000 0.78828
 H653 H 0.95566 0.39472 0.79551
 H654 H 0.86344 0.37207 0.84707
 H655 H 0.83619 0.42189 0.82255
 H656 H 0.92869 0.44508 0.77100
 C657 C 0.01439 1.10151 0.80283
 C658 C 0.01294 1.13500 0.79025
 C659 C 0.02651 1.14070 0.75842
 C660 C 0.04386 1.11462 0.74120
 C661 C 0.04784 1.08189 0.75529
 C662 C 0.03139 1.07529 0.78545
 H663 H 0.00441 1.09616 0.82737
 H664 H 0.02495 1.16594 0.74749
 H665 H 0.05525 1.12133 0.71794
 H666 H 0.03383 1.05043 0.79701
 C667 C 0.51714 0.58116 0.30031
 C668 C 0.51258 0.61359 0.28611
 C669 C 0.52520 0.61916 0.25382
 C670 C 0.54461 0.59419 0.23763
 C671 C 0.55231 0.56313 0.25367
 C672 C 0.53643 0.55612 0.28407
 H673 H 0.50757 0.57588 0.32507
 H674 H 0.52090 0.64337 0.24152
 H675 H 0.55385 0.60005 0.21302
 H676 H 0.54063 0.53192 0.29641
 C677 C 0.58427 0.37869 0.19879
 C678 C 0.54967 0.36905 0.18270
 C679 C 0.52665 0.39577 0.17630
 C680 C 0.53774 0.43107 0.18633
 C681 C 0.57224 0.44067 0.20287
 C682 C 0.59550 0.41398 0.20833
 H683 H 0.60270 0.35893 0.20451
 H684 H 0.50014 0.38953 0.16300
 H685 H 0.51929 0.45081 0.18063
 H686 H 0.62230 0.41990 0.22074
 C687 C 0.07315 0.90149 0.67995
 C688 C 0.04850 0.88350 0.69786
 C689 C 0.03400 0.90183 0.72533
 C690 C 0.04346 0.93769 0.73416
 C691 C 0.06795 0.95565 0.71600
 C692 C 0.08291 0.93713 0.68905
 H693 H 0.08483 0.88793 0.65876
 H694 H 0.01474 0.88862 0.73934
 H695 H 0.03187 0.95131 0.75535
 H696 H 0.10165 0.95037 0.67447
 C697 C 0.90089 0.62240 0.73899
 C698 C 0.93380 0.61793 0.72703
 C699 C 0.94821 0.58517 0.72907
 C700 C 0.92973 0.55720 0.74186
 C701 C 0.89628 0.56124 0.75297
 C702 C 0.88226 0.59431 0.75161
 H703 H 0.88891 0.64723 0.73729
 H704 H 0.97358 0.58099 0.72010
 H705 H 0.94123 0.53206 0.74174
 H706 H 0.85671 0.59859 0.75983
 C707 C 0.42041 0.11098 0.23176
 C708 C 0.44447 0.10459 0.20734
 C709 C 0.45362 0.07006 0.19991
 C710 C 0.43841 0.04229 0.21589
 C711 C 0.41343 0.04840 0.23941
 C712 C 0.40472 0.08301 0.24740
 H713 H 0.41275 0.13738 0.23765
 H714 H 0.47211 0.06451 0.18117
 H715 H 0.44515 0.01582 0.20871
 H716 H 0.38554 0.08835 0.26543
 C717 C 0.34060 0.45211 -0.07821
 C718 C 0.32878 0.44273 -0.11405
 C719 C 0.29909 0.41896 -0.12322
 C720 C 0.28192 0.40420 -0.09711
 C721 C 0.29339 0.41363 -0.06103
 C722 C 0.32320 0.43760 -0.05199
 H723 H 0.36360 0.47029 -0.07050
 H724 H 0.29004 0.41056 -0.15069
 H725 H 0.26068 0.38425 -0.10551
 H726 H 0.33384 0.44426 -0.02461
 C727 C 0.79040 0.89189 0.37271
 C728 C 0.81997 0.91579 0.38259
 C729 C 0.83124 0.92455 0.41864
 C730 C 0.81317 0.90985 0.44425
 C731 C 0.78307 0.88637 0.43454
 C732 C 0.77233 0.87714 0.39830
 H733 H 0.78173 0.88386 0.34510
 H734 H 0.85395 0.94290 0.42706
 H735 H 0.82302 0.91657 0.47184
 H736 H 0.75075 0.85780 0.38923
 C737 C 0.79871 0.06559 1.14999
 C738 C 0.80761 0.03038 1.14522
 C739 C 0.80004 0.01317 1.11077
 C740 C 0.78588 0.03090 1.08225
 C741 C 0.77846 0.06634 1.08725
 C742 C 0.78443 0.08302 1.12166
 H743 H 0.80478 0.08115 1.17502
 H744 H 0.80461 -0.01422 1.10541
 H745 H 0.78166 0.01666 1.05646
 H746 H 0.77936 0.11044 1.12642
 C747 C 0.29477 0.52117 0.61453
 C748 C 0.31327 0.54291 0.64297
 C749 C 0.31272 0.57953 0.64234
 C750 C 0.29437 0.59406 0.61401
 C751 C 0.27690 0.57255 0.58483
 C752 C 0.27667 0.53579 0.58583
 H753 H 0.29392 0.49283 0.61463
 H754 H 0.32700 0.59717 0.66348
 H755 H 0.29423 0.62242 0.61470
 H756 H 0.26218 0.51808 0.56498
 C757 C 0.23059 0.53561 0.40416
 C758 C 0.19906 0.54468 0.38566
 C759 C 0.17713 0.56655 0.40278
 C760 C 0.18671 0.57948 0.43803
 C761 C 0.21822 0.57043 0.45679
 C762 C 0.24011 0.54836 0.43953
 H763 H 0.24767 0.51860 0.39125
 H764 H 0.15248 0.57341 0.38886
 H765 H 0.16927 0.59620 0.45076
 H766 H 0.26489 0.54153 0.45315
 C767 C 0.74523 0.04868 0.90173
 C768 C 0.71681 0.06447 0.88344
 C769 C 0.70044 0.09061 0.90256
 C770 C 0.71098 0.09958 0.93838
 C771 C 0.73853 0.08320 0.95648
 C772 C 0.75570 0.05775 0.93786
 H773 H 0.75848 0.02806 0.88888
 H774 H 0.67985 0.10515 0.88992
 H775 H 0.69708 0.11922 0.95200
 H776 H 0.77734 0.04498 0.95120
 C777 C 0.72578 0.90311 0.61559
 C778 C 0.71836 0.93864 0.61467
 C779 C 0.72187 0.95496 0.58343
 C780 C 0.73099 0.93603 0.55355
 C781 C 0.73782 0.90031 0.55418
 C782 C 0.73566 0.88431 0.58586
 H783 H 0.72305 0.88939 0.63894
 H784 H 0.71717 0.98244 0.58179
 H785 H 0.73178 0.94949 0.52979
 H786 H 0.74146 0.85721 0.58797
 C787 C 0.21976 0.45776 0.08770
 C788 C 0.22366 0.44192 0.11968
 C789 C 0.24348 0.41235 0.12235
 C790 C 0.25787 0.39795 0.09288
 C791 C 0.25330 0.41338 0.06062
 C792 C 0.23459 0.44379 0.05854
 H793 H 0.20439 0.48048 0.08505
 H794 H 0.24644 0.39953 0.14671
 H795 H 0.27206 0.37449 0.09515
 H796 H 0.22997 0.45588 0.03388
 C797 C -0.09365 0.31184 0.45395
 C798 C -0.11913 0.32685 0.43146
 C799 C -0.11647 0.32558 0.39524
 C800 C -0.08839 0.31007 0.38168
 C801 C -0.06144 0.29670 0.40418
 C802 C -0.06492 0.29698 0.44050
 H803 H -0.09576 0.31209 0.48198
 H804 H -0.13638 0.33632 0.37738
 H805 H -0.08742 0.30901 0.35342
 H806 H -0.04599 0.28558 0.45867
 C807 C 0.40345 0.81378 0.94317
 C808 C 0.38062 0.83194 0.92080
 C809 C 0.38726 0.83505 0.88593
 C810 C 0.41679 0.82100 0.87379
 C811 C 0.44132 0.80486 0.89668
 C812 C 0.43357 0.80036 0.93127
 H813 H 0.39829 0.81059 0.97004
 H814 H 0.36939 0.84819 0.86801
 H815 H 0.42073 0.82329 0.84646
 H816 H 0.45034 0.78634 0.94922
 C817 C 1.14937 0.80658 0.07033
 C818 C 1.14413 0.80534 0.03324
 C819 C 1.11291 0.78782 0.01523
 C820 C 1.08706 0.77302 0.03394
 C821 C 1.09195 0.77535 0.07120
 C822 C 1.12396 0.79147 0.08887
 H823 H 1.17259 0.82038 0.08537
 H824 H 1.10829 0.78574 -0.01337
 H825 H 1.06344 0.76025 0.01890
 H826 H 1.12875 0.79354 0.11749
 C827 C 0.64339 0.30395 0.57472
 C828 C 0.64067 0.30161 0.53765
 C829 C 0.61050 0.28355 0.51812
 C830 C 0.58308 0.26947 0.53527
 C831 C 0.58536 0.27305 0.57243
 C832 C 0.61642 0.28953 0.59175
 H833 H 0.66573 0.31817 0.59083
 H834 H 0.60786 0.28061 0.48952
 H835 H 0.56027 0.25637 0.51910
 H836 H 0.61920 0.29251 0.62038
 C837 C 0.39545 0.22353 0.58569
 C838 C 0.38851 0.19744 0.55736
 C839 C 0.41682 0.18535 0.54058
 C840 C 0.45144 0.19874 0.55219
 C841 C 0.45846 0.22417 0.58107
 C842 C 0.43016 0.23659 0.59760
 H843 H 0.37411 0.23319 0.59912
 H844 H 0.41211 0.16549 0.51844
 H845 H 0.47281 0.18864 0.53910
 H846 H 0.43484 0.25657 0.61963
 C847 C 0.90480 0.73194 0.09412
 C848 C 0.89496 0.70578 0.06629
 C849 C 0.92129 0.69075 0.04857
 C850 C 0.95690 0.70168 0.05853
 C851 C 0.96680 0.72725 0.08688
 C852 C 0.94049 0.74231 0.10459
 H853 H 0.88493 0.74376 0.10818
 H854 H 0.91422 0.67060 0.02693
 H855 H 0.97677 0.68968 0.04459
 H856 H 0.94753 0.76237 0.12631
 C857 C 0.62868 0.76040 0.92994
 C858 C 0.62473 0.73405 0.95329
 C859 C 0.59025 0.72190 0.95837
 C860 C 0.56076 0.73536 0.94040
 C861 C 0.56497 0.76074 0.91639
 C862 C 0.59909 0.77328 0.91140
 H863 H 0.65462 0.77105 0.92580
 H864 H 0.58585 0.70108 0.97531
 H865 H 0.53459 0.72500 0.94424
 H866 H 0.60286 0.79319 0.89333
 C867 C 0.12328 0.23572 0.41339
 C868 C 0.12299 0.21959 0.44517
 C869 C 0.09221 0.21965 0.46198
 C870 C 0.06199 0.23419 0.44654
 C871 C 0.06189 0.24896 0.41392
 C872 C 0.09309 0.25002 0.39790
 H873 H 0.14675 0.23674 0.40007
 H874 H 0.09092 0.20702 0.48624
 H875 H 0.03826 0.23238 0.45938
 H876 H 0.09424 0.26149 0.37311
 C877 C 0.53928 0.13366 0.66749
 C878 C 0.57018 0.13545 0.69176
 C879 C 0.58723 0.16869 0.70358
 C880 C 0.57595 0.19890 0.68880
 C881 C 0.54690 0.19664 0.66254
 C882 C 0.52767 0.16414 0.65302
 H883 H 0.52559 0.10850 0.65781
 H884 H 0.61052 0.17113 0.72294
 H885 H 0.59115 0.22378 0.69633
 H886 H 0.50547 0.16191 0.63235
 C887 C 1.04196 0.63778 0.18037
 C888 C 1.07725 0.63170 0.19150
 C889 C 1.10376 0.65848 0.19024
 C890 C 1.09561 0.68983 0.17592
 C891 C 1.06078 0.69500 0.16206
 C892 C 1.03376 0.66927 0.16564
 H893 H 1.02113 0.61739 0.18106
 H894 H 1.13109 0.65452 0.19912
 H895 H 1.11689 0.70948 0.17426
 H896 H 1.00672 0.67245 0.15503
 C897 C 0.98530 0.82757 0.21454
 C898 C 0.98337 0.86187 0.20401
 C899 C 0.99762 0.87040 0.17341
 C900 C 1.01325 0.84517 0.15345
 C901 C 1.01579 0.81081 0.16396
 C902 C 1.00164 0.80230 0.19483
 H903 H 0.97436 0.82044 0.23810
 H904 H 0.99566 0.89641 0.16428
 H905 H 1.02238 0.85265 0.12919
 H906 H 1.00329 0.77628 0.20390
 C907 C 0.48912 0.37307 0.66713
 C908 C 0.47742 0.36679 0.69957
 C909 C 0.47841 0.33281 0.71119
 C910 C 0.49203 0.30584 0.69102
 C911 C 0.50445 0.31243 0.65882
 C912 C 0.50212 0.34622 0.64686
 H913 H 0.48765 0.39875 0.65712
 H914 H 0.46928 0.32737 0.73610
 H915 H 0.49349 0.28016 0.70097
 H916 H 0.51003 0.35203 0.62156
 C917 C 0.50977 0.64874 0.83061
 C918 C 0.48191 0.63712 0.80414
 C919 C 0.46085 0.66187 0.78847
 C920 C 0.46609 0.69740 0.80066
 C921 C 0.49299 0.70879 0.82808
 C922 C 0.51558 0.68448 0.84219
 H923 H 0.52616 0.63001 0.84312
 H924 H 0.43895 0.65341 0.76833
 H925 H 0.44831 0.71582 0.78966
 H926 H 0.53622 0.69279 0.86368
 C927 C -0.00408 0.13597 0.33546
 C928 C -0.03313 0.12490 0.31017
 C929 C -0.05422 0.15010 0.29541
 C930 C -0.04748 0.18568 0.30708
 C931 C -0.01901 0.19666 0.33299
 C932 C 0.00324 0.17174 0.34645
 H933 H 0.01238 0.11687 0.34722
 H934 H -0.07694 0.14203 0.27611
 H935 H -0.06506 0.20456 0.29666
 H936 H 0.02506 0.17974 0.36682
 C937 C 0.07660 0.34375 0.29991
 C938 C 0.05480 0.36289 0.27720
 C939 C 0.01810 0.35508 0.27356
 C940 C 0.00347 0.33040 0.29379
 C941 C 0.02521 0.31289 0.31796
 C942 C 0.06191 0.31887 0.31997
 H943 H 0.10495 0.34944 0.30384
 H944 H 0.00061 0.36881 0.25586
 H945 H -0.02500 0.32593 0.29158
 H946 H 0.07914 0.30621 0.33876
 C947 C 0.53429 0.87262 0.77923
 C948 C 0.57127 0.87597 0.78253
 C949 C 0.59049 0.85207 0.80186
 C950 C 0.57314 0.82718 0.81996
 C951 C 0.53636 0.82607 0.81931
 C952 C 0.51700 0.84789 0.79743
 H953 H 0.51880 0.89058 0.76447
 H954 H 0.61907 0.85368 0.80423
 H955 H 0.58869 0.81036 0.83602
 H956 H 0.48846 0.84687 0.79553
 C957 C 0.66358 0.53305 0.11719
 C958 C 0.68664 0.56410 0.12506
 C959 C 0.69232 0.57795 0.16102
 C960 C 0.67328 0.56421 0.18639
 C961 C 0.64862 0.53552 0.17733
 C962 C 0.64481 0.51916 0.14299
 H963 H 0.65720 0.52062 0.09069
 H964 H 0.71164 0.59943 0.17045
 H965 H 0.67704 0.57676 0.21311
 H966 H 0.62560 0.49699 0.13553
 C967 C 0.13289 1.05858 0.60992
 C968 C 0.16921 1.05408 0.61123
 C969 C 0.18656 1.04067 0.64145
 C970 C 0.16840 1.03382 0.67034
 C971 C 0.13266 1.04049 0.66963
 C972 C 0.11489 1.05178 0.63863
 H973 H 0.11859 1.06910 0.58740
 H974 H 0.21440 1.03634 0.64316
 H975 H 0.18270 1.02496 0.69381
 H976 H 0.08710 1.05640 0.63695
 C977 C 0.15023 0.99282 0.85415
 C978 C 0.18171 0.97615 0.85020
 C979 C 0.19431 0.97681 0.81666
 C980 C 0.17653 0.99355 0.78907
 C981 C 0.14562 1.01014 0.79386
 C982 C 0.13260 1.00911 0.82664
 H983 H 0.13715 0.99168 0.87761
 H984 H 0.21878 0.96592 0.81155
 H985 H 0.18725 0.99386 0.76410
 H986 H 0.10777 1.01982 0.83094
 C987 C 0.69645 0.49519 0.33894
 C988 C 0.68753 0.46048 0.34634
 C989 C 0.66089 0.44024 0.32362
 C990 C 0.64300 0.45461 0.29479
 C991 C 0.65153 0.48933 0.28785
 C992 C 0.67843 0.50955 0.31002
 H993 H 0.71703 0.51136 0.35575
 H994 H 0.65270 0.41378 0.32904
 H995 H 0.62106 0.43926 0.27925
 H996 H 0.68486 0.53667 0.30539
 C997 C 0.81252 0.50270 0.63594
 C998 C 0.78699 0.47500 0.62394
 C999 C 0.77203 0.45538 0.64874
 C1000 C 0.78400 0.46183 0.68473
 C1001 C 0.81051 0.48854 0.69657
 C1002 C 0.82388 0.50974 0.67213
 H1003 H 0.82447 0.51805 0.61723
 H1004 H 0.75264 0.43360 0.64008
 H1005 H 0.77357 0.44510 0.70324
 H1006 H 0.84468 0.53021 0.68081
 C1007 C 0.32182 -0.00064 0.13039
 C1008 C 0.29551 -0.02772 0.11857
 C1009 C 0.28206 -0.04847 0.14340
 C1010 C 0.29633 -0.04389 0.17891
 C1011 C 0.32376 -0.01800 0.19038
 C1012 C 0.33559 0.00444 0.16618
 H1013 H 0.33259 0.01566 0.11173
 H1014 H 0.26209 -0.06977 0.13495
 H1015 H 0.28713 -0.06163 0.19719
 H1016 H 0.35708 0.02427 0.17449
 C1017 C 0.29063 0.01620 0.36236
 C1018 C 0.28924 0.05290 0.36558
 C1019 C 0.30349 0.07246 0.34007
 C1020 C 0.32099 0.05603 0.31382
 C1021 C 0.32423 0.01962 0.31218
 C1022 C 0.30742 -0.00019 0.33579
 H1023 H 0.28021 0.00004 0.38128
 H1024 H 0.30196 0.10066 0.34085
 H1025 H 0.33321 0.07208 0.29589
 H1026 H 0.30807 -0.02851 0.33453
 C1027 C 0.79205 0.59149 0.84729
 C1028 C 0.77123 0.57340 0.86909
 C1029 C 0.76243 0.53729 0.86094
 C1030 C 0.77707 0.51904 0.83382
 C1031 C 0.80068 0.53659 0.81433
 C1032 C 0.80663 0.57320 0.82009
 H1033 H 0.79876 0.61948 0.85264
 H1034 H 0.74650 0.52265 0.87724
 H1035 H 0.77182 0.49076 0.82958
 H1036 H 0.82479 0.58729 0.80565
 C1037 C 0.11800 0.63309 0.57139
 C1038 C 0.11261 0.66845 0.56643
 C1039 C 0.13609 0.68748 0.54793
 C1040 C 0.16583 0.67204 0.53696
 C1041 C 0.17242 0.63752 0.54450
 C1042 C 0.14753 0.61786 0.56063
 H1043 H 0.09990 0.61750 0.58474
 H1044 H 0.13253 0.71477 0.54371
 H1045 H 0.18468 0.68767 0.52452
 H1046 H 0.15157 0.59091 0.56602
 C1047 C 0.65348 0.19258 1.04987
 C1048 C 0.62345 0.16884 1.04788
 C1049 C 0.62643 0.13324 1.03733
 C1050 C 0.65917 0.12113 1.03183
 C1051 C 0.68953 0.14438 1.03648
 C1052 C 0.68637 0.18038 1.04418
 H1053 H 0.65207 0.22013 1.05816
 H1054 H 0.60368 0.11445 1.03489
 H1055 H 0.66118 0.09323 1.02571
 H1056 H 0.70963 0.19861 1.04804
 C1057 C 0.87614 0.17322 1.00472
 C1058 C 0.86712 0.19854 0.98077
 C1059 C 0.83126 0.20670 0.97614
 C1060 C 0.80577 0.18942 0.99343
 C1061 C 0.81482 0.16280 1.01538
 C1062 C 0.85056 0.15546 1.02111
 H1063 H 0.90241 0.16419 1.00883
 H1064 H 0.82253 0.22730 0.96007
 H1065 H 0.77891 0.19695 0.98922
 H1066 H 0.85915 0.13452 1.03671
 C1067 C 0.33594 0.70018 0.49447
 C1068 C 0.33884 0.68675 0.45965
 C1069 C 0.31252 0.66157 0.44272
 C1070 C 0.28540 0.64871 0.46076
 C1071 C 0.28446 0.66005 0.49636
 C1072 C 0.30931 0.68660 0.51277
 H1073 H 0.35489 0.72038 0.50808
 H1074 H 0.31383 0.65013 0.41617
 H1075 H 0.26687 0.62788 0.44765
 H1076 H 0.30905 0.69563 0.54029
 C1077 C 0.62171 0.80429 0.49050
 C1078 C 0.61200 0.78145 0.45977
 C1079 C 0.63753 0.77412 0.43718
 C1080 C 0.67160 0.79030 0.44433
 C1081 C 0.68106 0.81386 0.47444
 C1082 C 0.65618 0.82009 0.49800
 H1083 H 0.60249 0.81034 0.50832
 H1084 H 0.63071 0.75702 0.41308
 H1085 H 0.69047 0.78496 0.42592
 H1086 H 0.66294 0.83831 0.52131
 C1087 C 0.12957 0.34796 -0.03929
 C1088 C 0.12171 0.31279 -0.03298
 C1089 C 0.14907 0.29344 -0.01822
 C1090 C 0.18380 0.30862 -0.01125
 C1091 C 0.19169 0.34314 -0.01947
 C1092 C 0.16413 0.36293 -0.03263
 H1093 H 0.10927 0.36351 -0.05098
 H1094 H 0.14372 0.26637 -0.01279
 H1095 H 0.20467 0.29295 -0.00097
 H1096 H 0.16945 0.38985 -0.03857
 C1097 C 0.34248 0.29185 0.06603
 C1098 C 0.36223 0.27281 0.04330
 C1099 C 0.35375 0.27339 0.00664
 C1100 C 0.32788 0.29457 -0.00692
 C1101 C 0.31012 0.31578 0.01589
 C1102 C 0.31658 0.31310 0.05241
 H1103 H 0.34858 0.29211 0.09444
 H1104 H 0.36799 0.25842 -0.01151
 H1105 H 0.32287 0.29557 -0.03529
 H1106 H 0.30348 0.32924 0.07056
 C1107 C 0.84117 0.80394 0.58039
 C1108 C 0.85419 0.77324 0.56539
 C1109 C 0.83708 0.75773 0.53271
 C1110 C 0.80954 0.77392 0.51445
 C1111 C 0.79791 0.80525 0.52899
 C1112 C 0.81308 0.81954 0.56251
 H1113 H 0.85387 0.81732 0.60501
 H1114 H 0.84562 0.73371 0.52063
 H1115 H 0.79826 0.76280 0.48832
 H1116 H 0.80503 0.84425 0.57366
   
