data_POSCAR
  _audit_creation_date              2014-09-24
  _audit_creation_method            'ToBaCCo'
  _symmetry_space_group_name_H-M    'P1'
  _symmetry_Int_Tables_number       1
  _symmetry_cell_setting            triclinic
  loop_
  _symmetry_equiv_pos_as_xyz
 x,y,z
_cell_length_a 14.7385
_cell_length_b 33.8955
_cell_length_c 11.1688
_cell_angle_alpha 90.214600
_cell_angle_beta 111.433700
_cell_angle_gamma 89.791300
loop_
  _atom_site_label
  _atom_site_type_symbol
  _atom_site_fract_x
  _atom_site_fract_y
  _atom_site_fract_z
N1 N 0.18899 0.04130 0.19395
 N2 N 0.24238 0.07337 0.21680
 N3 N 0.12921 -0.04018 0.25883
 N4 N 0.13901 -0.07304 0.32534
 N5 N 0.19013 -0.03994 0.19738
 N6 N 0.24343 -0.07217 0.22176
 N7 N 0.12822 0.04234 0.25550
 N8 N 0.13815 0.07562 0.32061
 C9 C 0.21135 0.09399 0.29770
 C10 C 0.21230 -0.09201 0.30355
 N11 N -0.15434 -0.04173 0.07658
 N12 N -0.20357 -0.07511 0.06323
 N13 N -0.08084 0.04351 0.18282
 N14 N -0.07753 0.07781 0.24206
 N15 N -0.15598 0.04243 0.07380
 N16 N -0.20766 0.07797 0.05701
 N17 N -0.07994 -0.04132 0.18655
 N18 N -0.07683 -0.07456 0.25023
 Mn19 Mn 0.02408 0.00110 0.22253
 C20 C -0.15525 -0.09509 0.17292
 C21 C -0.15617 0.09840 0.16464
 N22 N 0.16948 -0.04243 -0.06963
 N23 N 0.22326 -0.07732 -0.05513
 N24 N 0.09317 0.04073 -0.18326
 N25 N 0.09177 0.07323 -0.24941
 N26 N 0.16735 0.04132 -0.07315
 N27 N 0.21814 0.07417 -0.06173
 N28 N 0.09460 -0.04341 -0.17884
 N29 N 0.09349 -0.07690 -0.24093
 Mn30 Mn 0.17982 0.00005 0.06231
 C31 C 0.17318 -0.09708 -0.16484
 C32 C 0.17099 0.09349 -0.17312
 N33 N -0.17641 0.03997 -0.19324
 N34 N -0.22715 0.07287 -0.21456
 N35 N -0.11422 -0.04312 -0.25025
 N36 N -0.11802 -0.07797 -0.30530
 N37 N -0.17669 -0.04134 -0.19131
 N38 N -0.22771 -0.07650 -0.20862
 N39 N -0.11561 0.03998 -0.25491
 N40 N -0.12279 0.07339 -0.31817
 Mn41 Mn -0.16655 -0.00016 -0.05855
 Mn42 Mn -0.01074 -0.00149 -0.21848
 Cl43 Cl 0.00672 -0.00013 0.00197
 C44 C -0.19446 0.09292 -0.29442
 C45 C -0.18932 -0.09749 -0.28115
 N46 N 0.67347 0.54044 0.69096
 N47 N 0.72425 0.57322 0.71156
 N48 N 0.61219 0.45822 0.75064
 N49 N 0.61947 0.42451 0.81238
 N50 N 0.67327 0.45884 0.68948
 N51 N 0.72433 0.42603 0.70956
 N52 N 0.61236 0.54113 0.75212
 N53 N 0.61937 0.57486 0.81438
 C54 C 0.69124 0.59389 0.79042
 C55 C 0.69147 0.40541 0.78810
 N56 N 0.32924 0.45802 0.56869
 N57 N 0.27801 0.42520 0.55509
 N58 N 0.40372 0.54189 0.68045
 N59 N 0.40492 0.57470 0.74566
 N60 N 0.32939 0.54206 0.57051
 N61 N 0.27829 0.57500 0.55826
 N62 N 0.40353 0.45788 0.67870
 N63 N 0.40454 0.42496 0.74260
 Mn64 Mn 0.50811 0.49978 0.71704
 C65 C 0.32502 0.40515 0.66511
 C66 C 0.32545 0.59477 0.66903
 N67 N 0.65221 0.45765 0.42270
 N68 N 0.70192 0.42424 0.43716
 N69 N 0.57813 0.54235 0.31438
 N70 N 0.57583 0.57594 0.25283
 N71 N 0.65253 0.54201 0.42428
 N72 N 0.70254 0.57526 0.43985
 N73 N 0.57779 0.45763 0.31277
 N74 N 0.57518 0.42407 0.25015
 Mn75 Mn 0.66384 0.49973 0.55696
 C76 C 0.65391 0.40377 0.32816
 C77 C 0.65472 0.59594 0.33150
 N78 N 0.30806 0.54104 0.30338
 N79 N 0.25629 0.57366 0.28243
 N80 N 0.36864 0.45911 0.24010
 N81 N 0.35932 0.42598 0.17438
 N82 N 0.30770 0.45973 0.30148
 N83 N 0.25485 0.42749 0.27783
 N84 N 0.36905 0.54165 0.24206
 N85 N 0.36083 0.57514 0.17914
 Mn86 Mn 0.31761 0.50021 0.43587
 Mn87 Mn 0.47341 0.50018 0.27571
 Cl88 Cl 0.49067 0.49997 0.49632
 C89 C 0.28843 0.59413 0.20288
 C90 C 0.28632 0.40724 0.19660
 C91 C 0.25891 0.29020 0.21775
 C92 C 0.31260 0.27584 0.34280
 C93 C 0.30378 0.23581 0.37180
 C94 C 0.24227 0.21076 0.27538
 C95 C 0.18888 0.22508 0.15020
 C96 C 0.19757 0.26513 0.12126
 C97 C 0.14611 0.27899 -0.00491
 C98 C 0.08821 0.25363 -0.10051
 C99 C 0.07813 0.21440 -0.07190
 C100 C 0.12755 0.20013 0.05192
 C101 C 0.35522 0.22195 0.49798
 C102 C 0.41356 0.24726 0.59339
 C103 C 0.42388 0.28646 0.56467
 C104 C 0.37425 0.30075 0.44093
 C105 C 0.23532 0.16985 0.30219
 C106 C 0.22648 0.13514 0.31093
 C107 C 0.26475 0.33123 0.19140
 C108 C 0.27243 0.36603 0.18307
 H109 H 0.15159 0.30931 -0.03144
 H110 H 0.05095 0.26455 -0.19688
 H111 H 0.03236 0.19485 -0.14613
 H112 H 0.11784 0.16933 0.06904
 H113 H 0.34957 0.19165 0.52457
 H114 H 0.45101 0.23632 0.68970
 H115 H 0.46993 0.30596 0.63880
 H116 H 0.38417 0.33153 0.42372
 C117 C 0.72591 0.71082 0.27467
 C118 C 0.68708 0.74324 0.32109
 C119 C 0.71188 0.78279 0.30117
 C120 C 0.77633 0.79015 0.23575
 C121 C 0.81518 0.75773 0.18938
 C122 C 0.79071 0.71818 0.20978
 C123 C 0.83147 0.68660 0.16300
 C124 C 0.89278 0.69367 0.09581
 C125 C 0.91437 0.73211 0.07326
 C126 C 0.87709 0.76387 0.12006
 C127 C 0.67159 0.81435 0.34868
 C128 C 0.61008 0.80727 0.41558
 C129 C 0.58763 0.76883 0.43686
 C130 C 0.62471 0.73708 0.38972
 C131 C 0.80156 0.83092 0.21504
 C132 C 0.82159 0.86468 0.19703
 C133 C 0.69969 0.67006 0.29374
 C134 C 0.67886 0.63626 0.30995
 H135 H 0.81578 0.65617 0.17680
 H136 H 0.92262 0.66922 0.05938
 H137 H 0.95983 0.73732 0.01860
 H138 H 0.89662 0.79320 0.10021
 H139 H 0.68785 0.84478 0.33576
 H140 H 0.58056 0.83171 0.45253
 H141 H 0.54178 0.76360 0.49097
 H142 H 0.60475 0.70774 0.40886
 C143 C 0.73671 0.28881 0.77450
 C144 C 0.69122 0.25886 0.81947
 C145 C 0.70384 0.21894 0.79122
 C146 C 0.76199 0.20959 0.71833
 C147 C 0.80787 0.23953 0.67391
 C148 C 0.79510 0.27946 0.70197
 C149 C 0.84075 0.30925 0.65537
 C150 C 0.89610 0.29969 0.58155
 C151 C 0.90768 0.26051 0.55342
 C152 C 0.86532 0.23056 0.59998
 C153 C 0.65854 0.18914 0.83835
 C154 C 0.60399 0.19869 0.91322
 C155 C 0.59283 0.23786 0.94184
 C156 C 0.63457 0.26781 0.89445
 C157 C 0.77814 0.16887 0.69613
 C158 C 0.79079 0.13418 0.69056
 C159 C 0.72019 0.32952 0.79630
 C160 C 0.70700 0.36416 0.80209
 H161 H 0.83374 0.34018 0.67452
 H162 H 0.92958 0.32278 0.54522
 H163 H 0.94860 0.25331 0.49394
 H164 H 0.87638 0.20050 0.57520
 H165 H 0.66545 0.15821 0.81914
 H166 H 0.57104 0.17559 0.95030
 H167 H 0.55292 0.24505 1.00259
 H168 H 0.62391 0.29787 0.91973
 C169 C 0.26404 0.70999 0.73404
 C170 C 0.20116 0.73290 0.63082
 C171 C 0.18633 0.77377 0.64886
 C172 C 0.23338 0.79170 0.77064
 C173 C 0.29695 0.76889 0.87358
 C174 C 0.31156 0.72799 0.85562
 C175 C 0.37290 0.70578 0.96142
 C176 C 0.41809 0.72326 1.08163
 C177 C 0.40478 0.76323 1.09865
 C178 C 0.34548 0.78594 0.99608
 C179 C 0.12554 0.79606 0.54284
 C180 C 0.08146 0.77870 0.42220
 C181 C 0.09537 0.73879 0.40496
 C182 C 0.15375 0.71598 0.50785
 C183 C 0.21265 0.83292 0.79194
 C184 C 0.19405 0.86669 0.81161
 C185 C 0.28378 0.66863 0.71316
 C186 C 0.30187 0.63474 0.69406
 H187 H 0.38558 0.67461 0.95288
 H188 H 0.46383 0.70569 1.16180
 H189 H 0.43980 0.77671 1.19200
 H190 H 0.33705 0.81684 1.01447
 H191 H 0.11276 0.82721 0.55147
 H192 H 0.03644 0.79635 0.34177
 H193 H 0.06169 0.72542 0.31125
 H194 H 0.16270 0.68514 0.48922
 C195 C 0.26326 0.28999 0.72701
 C196 C 0.31100 0.27194 0.84821
 C197 C 0.29694 0.23102 0.86523
 C198 C 0.23378 0.20822 0.76174
 C199 C 0.18631 0.22624 0.64044
 C200 C 0.20039 0.26716 0.62342
 C201 C 0.15218 0.28421 0.50114
 C202 C 0.09415 0.26144 0.39760
 C203 C 0.08123 0.22145 0.41371
 C204 C 0.12577 0.20401 0.53397
 C205 C 0.34539 0.21395 0.98743
 C206 C 0.40363 0.23669 1.09094
 C207 C 0.41649 0.27669 1.07484
 C208 C 0.37175 0.29414 0.95464
 C209 C 0.21334 0.16699 0.78214
 C210 C 0.19466 0.13325 0.80107
 C211 C 0.28288 0.33135 0.70695
 C212 C 0.30110 0.36521 0.68877
 H213 H 0.16031 0.31513 0.48383
 H214 H 0.06011 0.27489 0.30424
 H215 H 0.03661 0.20384 0.33265
 H216 H 0.11371 0.17284 0.54221
 H217 H 0.33738 0.18301 1.00467
 H218 H 0.43804 0.22322 1.18425
 H219 H 0.46139 0.29426 1.15582
 H220 H 0.38387 0.32531 0.94638
 C221 C 0.73833 0.71033 0.78097
 C222 C 0.69365 0.74057 0.82702
 C223 C 0.70856 0.78044 0.80187
 C224 C 0.76789 0.78947 0.73060
 C225 C 0.81210 0.75923 0.68394
 C226 C 0.79735 0.71936 0.70931
 C227 C 0.84156 0.68927 0.66076
 C228 C 0.89735 0.69851 0.58759
 C229 C 0.91059 0.73763 0.56176
 C230 C 0.86975 0.76785 0.61036
 C231 C 0.66418 0.81052 0.85026
 C232 C 0.60793 0.80127 0.92284
 C233 C 0.59437 0.76214 0.94825
 C234 C 0.63548 0.73194 0.89995
 C235 C 0.78600 0.83012 0.71131
 C236 C 0.79888 0.86482 0.70749
 C237 C 0.72067 0.66971 0.80114
 C238 C 0.70693 0.63511 0.80567
 H239 H 0.83297 0.65836 0.67774
 H240 H 0.92976 0.67521 0.54980
 H241 H 0.95174 0.74458 0.50264
 H242 H 0.88227 0.79787 0.58763
 H243 H 0.67293 0.84143 0.83361
 H244 H 0.57541 0.82457 0.96049
 H245 H 0.55288 0.75517 1.00699
 H246 H 0.62281 0.70192 0.92250
 C247 C 0.26097 0.71134 0.22759
 C248 C 0.19913 0.73621 0.13102
 C249 C 0.18949 0.77630 0.15986
 C250 C 0.24262 0.79090 0.28492
 C251 C 0.30428 0.76601 0.38160
 C252 C 0.31393 0.72591 0.35275
 C253 C 0.37563 0.70116 0.45114
 C254 C 0.42445 0.71565 0.57505
 C255 C 0.41341 0.75491 0.60357
 C256 C 0.35509 0.78008 0.50786
 C257 C 0.12731 0.80099 0.06164
 C258 C 0.07799 0.78645 -0.06202
 C259 C 0.08910 0.74719 -0.09059
 C260 C 0.14790 0.72209 0.00492
 C261 C 0.23581 0.83199 0.31100
 C262 C 0.22722 0.86683 0.31857
 C263 C 0.26755 0.67026 0.20115
 C264 C 0.27521 0.63544 0.19174
 H265 H 0.38621 0.67037 0.43390
 H266 H 0.47064 0.69627 0.64932
 H267 H 0.45035 0.76603 0.69991
 H268 H 0.34889 0.81043 0.53436
 H269 H 0.11660 0.83177 0.07878
 H270 H 0.03142 0.80578 -0.13615
 H271 H 0.05181 0.73604 -0.18680
 H272 H 0.15403 0.69174 -0.02165
 C273 C 0.72535 0.28888 0.26707
 C274 C 0.79052 0.28165 0.20239
 C275 C 0.81528 0.24213 0.18053
 C276 C 0.77666 0.20961 0.22566
 C277 C 0.71142 0.21685 0.29027
 C278 C 0.68631 0.25636 0.31160
 C279 C 0.62333 0.26237 0.37966
 C280 C 0.58575 0.23051 0.42455
 C281 C 0.60825 0.19213 0.40147
 C282 C 0.67053 0.18519 0.33537
 C283 C 0.87711 0.23613 0.11086
 C284 C 0.91413 0.26799 0.06521
 C285 C 0.89249 0.30638 0.08949
 C286 C 0.83125 0.31331 0.15707
 C287 C 0.80288 0.16886 0.20462
 C288 C 0.82324 0.13503 0.18648
 C289 C 0.69891 0.32963 0.28771
 C290 C 0.67799 0.36343 0.30513
 H291 H 0.60319 0.29166 0.39996
 H292 H 0.53926 0.23562 0.47803
 H293 H 0.57823 0.16760 0.43647
 H294 H 0.68677 0.15479 0.32099
 H295 H 0.89660 0.20684 0.08964
 H296 H 0.95943 0.26289 0.01012
 H297 H 0.92222 0.33090 0.05405
 H298 H 0.81552 0.34372 0.17222
   
