data_POSCAR
  _audit_creation_date              2014-09-24
  _audit_creation_method            'ToBaCCo'
  _symmetry_space_group_name_H-M    'P1'
  _symmetry_Int_Tables_number       1
  _symmetry_cell_setting            triclinic
  loop_
  _symmetry_equiv_pos_as_xyz
 x,y,z
_cell_length_a 26.6784
_cell_length_b 26.9748
_cell_length_c 27.7531
_cell_angle_alpha 90.076400
_cell_angle_beta 90.178000
_cell_angle_gamma 89.584900
loop_
  _atom_site_label
  _atom_site_type_symbol
  _atom_site_fract_x
  _atom_site_fract_y
  _atom_site_fract_z
C1 C 0.28554 0.24447 0.21074
 N2 N 0.28449 0.20799 0.24442
 C3 C 0.25133 0.21021 0.28144
 N4 N 0.21902 0.24925 0.28458
 C5 C 0.21966 0.28591 0.25110
 N6 N 0.25297 0.28320 0.21432
 C7 C 0.70051 -0.25504 0.22499
 N8 N 0.70283 -0.21921 0.25951
 C9 C 0.73830 -0.22146 0.29470
 N10 N 0.77155 -0.25974 0.29525
 C11 C 0.77004 -0.29568 0.26099
 N12 N 0.73427 -0.29308 0.22610
 C13 C 0.72203 0.24413 0.78923
 N14 N 0.71838 0.21211 0.75153
 C15 C 0.75271 0.21308 0.71540
 N16 N 0.79054 0.24652 0.71723
 C17 C 0.79465 0.27870 0.75471
 N18 N 0.76021 0.27708 0.79059
 C19 C 0.27742 -0.23433 0.79463
 N20 N 0.24031 -0.26859 0.79336
 C21 C 0.20716 -0.26996 0.75622
 N22 N 0.21146 -0.23679 0.71982
 C23 C 0.24834 -0.20232 0.72039
 N24 N 0.28121 -0.20117 0.75791
 C25 C 0.70536 -0.24394 0.79830
 N26 N 0.73980 -0.28140 0.79826
 C27 C 0.77367 -0.28588 0.76201
 N28 N 0.77266 -0.25245 0.72549
 C29 C 0.73874 -0.21473 0.72496
 N30 N 0.70512 -0.21068 0.76146
 C31 C 0.29252 0.25188 0.78289
 N32 N 0.25812 0.28919 0.78356
 C33 C 0.22409 0.29419 0.74738
 N34 N 0.22489 0.26152 0.71006
 C35 C 0.25923 0.22409 0.70889
 N36 N 0.29302 0.21950 0.74537
 C37 C 0.27372 -0.24449 0.21996
 N38 N 0.23639 -0.27844 0.21937
 C39 C 0.20248 -0.28083 0.25570
 N40 N 0.20625 -0.24861 0.29321
 C41 C 0.24331 -0.21429 0.29432
 N42 N 0.27690 -0.21241 0.25765
 C43 C 0.71638 0.23859 0.21940
 N44 N 0.71440 0.20379 0.25461
 C45 C 0.74805 0.20404 0.29142
 N46 N 0.78417 0.23929 0.29260
 C47 C 0.78679 0.27428 0.25750
 N48 N 0.75275 0.27350 0.22093
 O49 O 0.29416 0.04851 0.44976
 O50 O 0.29746 -0.04088 0.55037
 O51 O 0.29545 -0.04708 0.45685
 O52 O 0.29884 0.05550 0.54395
 O53 O 0.21619 0.05692 0.54636
 O54 O 0.21275 -0.04628 0.45908
 O55 O 0.21475 -0.04019 0.55185
 O56 O 0.21152 0.05004 0.45306
 Cu57 Cu 0.30479 0.00415 0.50016
 Cu58 Cu 0.20552 0.00539 0.50301
 C59 C 0.25215 0.06421 0.43403
 C60 C 0.25641 -0.05653 0.56756
 C61 C 0.25362 -0.06434 0.44312
 C62 C 0.25825 0.07385 0.55999
 O63 O 0.70239 0.04636 0.55160
 O64 O 0.70088 -0.05418 0.46167
 O65 O 0.69888 -0.05038 0.55591
 O66 O 0.70244 0.04117 0.45777
 O67 O 0.78522 0.03922 0.45962
 O68 O 0.78159 -0.05386 0.55627
 O69 O 0.78363 -0.05668 0.46297
 O70 O 0.78511 0.04358 0.55271
 Cu71 Cu 0.69280 -0.00403 0.50699
 Cu72 Cu 0.79220 -0.00721 0.50839
 C73 C 0.74409 0.06266 0.56686
 C74 C 0.74211 -0.07208 0.44649
 C75 C 0.73961 -0.06843 0.57220
 C76 C 0.74443 0.05550 0.44172
 O77 O 0.45384 0.28030 0.04746
 O78 O 0.55454 0.28220 -0.04241
 O79 O 0.45702 0.28170 -0.04559
 O80 O 0.55208 0.27904 0.05077
 O81 O 0.55194 0.19725 0.04906
 O82 O 0.45763 0.19986 -0.04791
 O83 O 0.55452 0.20037 -0.04492
 O84 O 0.45430 0.19845 0.04601
 Cu85 Cu 0.50436 0.28903 0.00294
 Cu86 Cu 0.50466 0.19073 0.00055
 C87 C 0.43652 0.23917 0.06171
 C88 C 0.57149 0.24168 -0.05927
 C89 C 0.44126 0.24123 -0.06331
 C90 C 0.56854 0.23765 0.06612
 O91 O 0.53683 0.71548 0.05541
 O92 O 0.44097 0.72214 -0.03936
 O93 O 0.53910 0.72086 -0.03793
 O94 O 0.43929 0.71914 0.05333
 O95 O 0.44144 0.80089 0.05770
 O96 O 0.53978 0.80268 -0.03516
 O97 O 0.44244 0.80397 -0.03660
 O98 O 0.53833 0.79718 0.05957
 Cu99 Cu 0.48909 0.71123 0.00738
 Cu100 Cu 0.49082 0.80943 0.01164
 C101 C 0.55350 0.75499 0.07419
 C102 C 0.42503 0.76396 -0.05388
 C103 C 0.55617 0.76208 -0.05236
 C104 C 0.42347 0.75972 0.07115
 O105 O 0.04814 0.45234 0.29820
 O106 O -0.05765 0.54005 0.30020
 O107 O -0.04858 0.44332 0.29862
 O108 O 0.03914 0.54874 0.29713
 O109 O 0.03716 0.54815 0.21758
 O110 O -0.05049 0.44439 0.21906
 O111 O -0.06045 0.53974 0.22065
 O112 O 0.04686 0.45277 0.21863
 Cu113 Cu -0.00464 0.49616 0.30656
 Cu114 Cu -0.00696 0.49632 0.21100
 C115 C 0.06576 0.43776 0.25816
 C116 C -0.07725 0.55470 0.26096
 C117 C -0.06448 0.42602 0.25882
 C118 C 0.05343 0.56599 0.25688
 O119 O 0.04023 0.55722 0.71531
 O120 O -0.04646 0.45144 0.71662
 O121 O -0.05641 0.54840 0.71840
 O122 O 0.04977 0.46114 0.71349
 O123 O 0.05323 0.46026 0.79300
 O124 O -0.05415 0.54694 0.79793
 O125 O -0.04398 0.45103 0.79617
 O126 O 0.04332 0.55583 0.79481
 Cu127 Cu -0.00374 0.50471 0.70797
 Cu128 Cu -0.00021 0.50343 0.80348
 C129 C 0.05687 0.57429 0.75488
 C130 C -0.05965 0.43298 0.75667
 C131 C -0.07322 0.56281 0.75885
 C132 C 0.06975 0.44591 0.75237
 C133 C 0.34877 0.19854 0.16038
 C134 C 0.32052 0.24149 0.16961
 C135 C 0.32585 0.28155 0.13739
 C136 C 0.36274 0.28036 0.10128
 C137 C 0.39460 0.23880 0.09608
 C138 C 0.38457 0.19705 0.12418
 C139 C 0.41946 0.16592 0.15366
 C140 C 0.38039 0.16772 0.19339
 H141 H 0.30341 0.31489 0.14151
 H142 H 0.36751 0.31266 0.07866
 H143 H 0.45471 0.18551 0.16310
 H144 H 0.42469 0.12827 0.13807
 H145 H 0.39295 0.18855 0.22580
 H146 H 0.36330 0.13106 0.20081
 C147 C 0.63064 0.78733 0.18450
 C148 C 0.66256 0.74607 0.18981
 C149 C 0.65384 0.70503 0.15917
 C150 C 0.61748 0.70746 0.12238
 C151 C 0.58975 0.75135 0.11430
 C152 C 0.59556 0.79001 0.14744
 C153 C 0.60480 0.84373 0.13904
 C154 C 0.64323 0.84099 0.17947
 H155 H 0.67566 0.67122 0.16279
 H156 H 0.61275 0.67570 0.09893
 H157 H 0.57157 0.86697 0.14814
 H158 H 0.62163 0.85115 0.10318
 H159 H 0.63205 0.86295 0.21159
 H160 H 0.68235 0.84689 0.16712
 C161 C 0.65513 0.20288 -0.16179
 C162 C 0.68470 0.24392 -0.17169
 C163 C 0.67689 0.28587 -0.14167
 C164 C 0.64012 0.28547 -0.10478
 C165 C 0.61095 0.24272 -0.09617
 C166 C 0.62093 0.20209 -0.12558
 C167 C 0.60451 0.15073 -0.13656
 C168 C 0.64330 0.15145 -0.17752
 H169 H 0.69840 0.31927 -0.14714
 H170 H 0.63467 0.31850 -0.08314
 H171 H 0.56507 0.14950 -0.14952
 H172 H 0.61411 0.12439 -0.10712
 H173 H 0.62574 0.15056 -0.21378
 H174 H 0.67529 0.12544 -0.17194
 C175 C 0.34800 0.80270 -0.16161
 C176 C 0.31157 0.76614 -0.16685
 C177 C 0.31186 0.72873 -0.13080
 C178 C 0.34864 0.72811 -0.09378
 C179 C 0.38537 0.76557 -0.09073
 C180 C 0.38224 0.80289 -0.12512
 C181 C 0.40965 0.84627 -0.14460
 C182 C 0.37072 0.84641 -0.18576
 H183 H 0.28480 0.69902 -0.13170
 H184 H 0.34840 0.69824 -0.06775
 H185 H 0.44811 0.83624 -0.15667
 H186 H 0.40695 0.87913 -0.12053
 H187 H 0.38699 0.83679 -0.22142
 H188 H 0.34535 0.87928 -0.18543
 C189 C 0.15705 0.33771 0.29652
 C190 C 0.18464 0.32850 0.25455
 C191 C 0.17789 0.36171 0.21571
 C192 C 0.14010 0.39846 0.21716
 C193 C 0.10892 0.40336 0.25782
 C194 C 0.12053 0.37453 0.29826
 C195 C 0.08709 0.34400 0.32920
 C196 C 0.12704 0.30357 0.32718
 H197 H 0.19968 0.35758 0.18308
 H198 H 0.13404 0.42161 0.18580
 H199 H 0.05159 0.33374 0.31070
 H200 H 0.08242 0.36024 0.36575
 H201 H 0.11469 0.26987 0.30744
 H202 H 0.14525 0.29646 0.36260
 C203 C 0.15673 0.66316 0.79519
 C204 C 0.16718 0.69248 0.75527
 C205 C 0.13763 0.68330 0.71363
 C206 C 0.10112 0.64512 0.71318
 C207 C 0.09266 0.61565 0.75460
 C208 C 0.12123 0.62731 0.79501
 C209 C 0.13372 0.61035 0.84467
 C210 C 0.17387 0.65112 0.84498
 H211 H 0.14333 0.70469 0.68114
 H212 H 0.07999 0.63854 0.68046
 H213 H 0.14970 0.57218 0.84510
 H214 H 0.10257 0.61728 0.87036
 H215 H 0.21282 0.63625 0.84572
 H216 H 0.16595 0.68171 0.87079
 C217 C -0.16254 0.65842 0.30134
 C218 C -0.19597 0.66434 0.26258
 C219 C -0.19434 0.62777 0.22594
 C220 C -0.15637 0.59109 0.22569
 C221 C -0.12006 0.58935 0.26264
 C222 C -0.12613 0.62154 0.30167
 C223 C -0.08874 0.65410 0.32595
 C224 C -0.12858 0.69467 0.32552
 H225 H -0.22048 0.62891 0.19602
 H226 H -0.15446 0.56522 0.19585
 H227 H -0.05597 0.66237 0.30269
 H228 H -0.07923 0.64088 0.36280
 H229 H -0.11896 0.72649 0.30193
 H230 H -0.14190 0.70488 0.36215
 C231 C -0.15861 0.34325 0.79717
 C232 C -0.16583 0.31279 0.75672
 C233 C -0.13123 0.31781 0.71846
 C234 C -0.09568 0.35627 0.71869
 C235 C -0.09305 0.38977 0.75762
 C236 C -0.12277 0.38019 0.79785
 C237 C -0.15546 0.41445 0.82626
 C238 C -0.19489 0.37405 0.82545
 H239 H -0.13328 0.29405 0.68704
 H240 H -0.07151 0.36079 0.68775
 H241 H -0.16660 0.44815 0.80568
 H242 H -0.14007 0.42160 0.86285
 H243 H -0.22891 0.38430 0.80434
 H244 H -0.20227 0.35807 0.86162
 C245 C 0.29034 0.13787 0.32425
 C246 C 0.24937 0.16974 0.31707
 C247 C 0.20599 0.16138 0.34475
 C248 C 0.20621 0.12573 0.38179
 C249 C 0.25014 0.09843 0.39261
 C250 C 0.29089 0.10349 0.36141
 C251 C 0.34504 0.11195 0.37194
 C252 C 0.34453 0.14949 0.33111
 H253 H 0.17248 0.18350 0.33897
 H254 H 0.17287 0.12154 0.40351
 H255 H 0.36839 0.07864 0.36405
 H256 H 0.35137 0.12895 0.40796
 H257 H 0.36754 0.13760 0.29981
 H258 H 0.35073 0.18824 0.34337
 C259 C 0.70443 0.15365 0.66322
 C260 C 0.74892 0.17871 0.67397
 C261 C 0.79009 0.17056 0.64299
 C262 C 0.78824 0.13371 0.60703
 C263 C 0.74488 0.10481 0.60068
 C264 C 0.70235 0.11800 0.62718
 C265 C 0.66749 0.08624 0.65523
 C266 C 0.66977 0.12519 0.69477
 H267 H 0.82476 0.19050 0.64825
 H268 H 0.82136 0.12656 0.58558
 H269 H 0.68471 0.05018 0.66576
 H270 H 0.62998 0.08365 0.63789
 H271 H 0.68831 0.11157 0.72821
 H272 H 0.63350 0.14495 0.70001
 C273 C 0.21360 -0.16151 0.64683
 C274 C 0.25307 -0.16757 0.67962
 C275 C 0.29740 -0.14070 0.67104
 C276 C 0.29942 -0.10536 0.63359
 C277 C 0.25680 -0.09551 0.60479
 C278 C 0.21523 -0.12617 0.61078
 C279 C 0.16089 -0.11380 0.61600
 C280 C 0.15907 -0.15270 0.65554
 H281 H 0.32990 -0.14586 0.69401
 H282 H 0.33335 -0.08416 0.62880
 H283 H 0.13892 -0.12413 0.58344
 H284 H 0.15437 -0.07543 0.62942
 H285 H 0.13611 -0.18545 0.64571
 H286 H 0.15145 -0.13692 0.69185
 C287 C 0.69904 -0.15405 0.34467
 C288 C 0.74030 -0.18346 0.33287
 C289 C 0.78422 -0.17552 0.36068
 C290 C 0.78518 -0.13924 0.39782
 C291 C 0.74194 -0.11062 0.40883
 C292 C 0.69964 -0.12017 0.38097
 C293 C 0.64633 -0.10540 0.37353
 C294 C 0.64548 -0.14406 0.33262
 H295 H 0.81791 -0.19691 0.35361
 H296 H 0.81957 -0.13395 0.41794
 H297 H 0.64248 -0.06653 0.36070
 H298 H 0.62240 -0.11538 0.40471
 H299 H 0.64084 -0.12734 0.29635
 H300 H 0.62120 -0.17641 0.34025
 C301 C 0.66502 0.72282 -0.12973
 C302 C 0.66999 0.75973 -0.16455
 C303 C 0.63617 0.80050 -0.16023
 C304 C 0.59975 0.80222 -0.12292
 C305 C 0.59520 0.76271 -0.08968
 C306 C 0.62921 0.72386 -0.09503
 C307 C 0.64333 0.67432 -0.07555
 C308 C 0.68377 0.67285 -0.11504
 H309 H 0.63756 0.83105 -0.18547
 H310 H 0.57443 0.83372 -0.12096
 H311 H 0.61325 0.64654 -0.08090
 H312 H 0.65884 0.67667 -0.03840
 H313 H 0.67685 0.64428 -0.14314
 H314 H 0.72269 0.67404 -0.10069
 C315 C 0.33904 0.28644 -0.14634
 C316 C 0.32982 0.24748 -0.17801
 C317 C 0.35890 0.20391 -0.17061
 C318 C 0.39498 0.20122 -0.13285
 C319 C 0.40354 0.24237 -0.10213
 C320 C 0.37422 0.28423 -0.11093
 C321 C 0.36434 0.33589 -0.09440
 C322 C 0.32457 0.33853 -0.13472
 H323 H 0.35376 0.17193 -0.19367
 H324 H 0.41648 0.16735 -0.12825
 H325 H 0.39688 0.36056 -0.10055
 H326 H 0.34823 0.33714 -0.05752
 H327 H 0.33427 0.36462 -0.16416
 H328 H 0.28553 0.34151 -0.12109
 C329 C 0.34538 0.79334 0.17931
 C330 C 0.30882 0.75673 0.18247
 C331 C 0.31003 0.72025 0.14540
 C332 C 0.34737 0.72097 0.10903
 C333 C 0.38375 0.75887 0.10776
 C334 C 0.38015 0.79477 0.14360
 C335 C 0.40596 0.83878 0.16404
 C336 C 0.36641 0.83749 0.20438
 H337 H 0.28306 0.69045 0.14485
 H338 H 0.34762 0.69201 0.08197
 H339 H 0.40265 0.87175 0.14023
 H340 H 0.44452 0.82979 0.17676
 H341 H 0.34013 0.86965 0.20382
 H342 H 0.38234 0.82805 0.24030
 C343 C 0.67286 0.27861 0.14945
 C344 C 0.68132 0.23681 0.17823
 C345 C 0.65654 0.19266 0.16539
 C346 C 0.62078 0.19237 0.12791
 C347 C 0.60837 0.23643 0.10312
 C348 C 0.63694 0.27854 0.11319
 C349 C 0.62074 0.33039 0.12415
 C350 C 0.66014 0.33056 0.16381
 H351 H 0.66369 0.15871 0.18510
 H352 H 0.60128 0.15824 0.11997
 H353 H 0.58171 0.33260 0.13799
 H354 H 0.62934 0.35624 0.09419
 H355 H 0.64405 0.33301 0.20066
 H356 H 0.69128 0.35656 0.15651
 C357 C -0.15875 0.66768 0.72302
 C358 C -0.19094 0.67542 0.76188
 C359 C -0.18487 0.64190 0.80104
 C360 C -0.14677 0.60467 0.80042
 C361 C -0.11465 0.59909 0.76017
 C362 C -0.12344 0.63121 0.72194
 C363 C -0.10249 0.64751 0.67498
 C364 C -0.14272 0.68873 0.67591
 H365 H -0.20841 0.64499 0.83262
 H366 H -0.14241 0.58059 0.83136
 H367 H -0.10831 0.61963 0.64602
 H368 H -0.06362 0.66167 0.67861
 H369 H -0.17192 0.68467 0.64756
 H370 H -0.12682 0.72650 0.67979
 C371 C -0.16701 0.34046 0.21790
 C372 C -0.17422 0.30897 0.25740
 C373 C -0.13921 0.31242 0.29575
 C374 C -0.10266 0.35001 0.29629
 C375 C -0.09953 0.38414 0.25803
 C376 C -0.13032 0.37648 0.21796
 C377 C -0.16271 0.41241 0.19111
 C378 C -0.20309 0.37298 0.19116
 H379 H -0.14135 0.28779 0.32645
 H380 H -0.07789 0.35317 0.32711
 H381 H -0.14789 0.42035 0.15456
 H382 H -0.17257 0.44570 0.21290
 H383 H -0.21159 0.35835 0.15460
 H384 H -0.23636 0.38333 0.21313
 C385 C 0.15899 0.34739 0.70698
 C386 C 0.18814 0.33617 0.74762
 C387 C 0.18292 0.36744 0.78821
 C388 C 0.14532 0.40439 0.78953
 C389 C 0.11273 0.41138 0.74999
 C390 C 0.12255 0.38431 0.70801
 C391 C 0.08768 0.35518 0.67699
 C392 C 0.12749 0.31460 0.67603
 H393 H 0.20603 0.36181 0.81990
 H394 H 0.14059 0.42609 0.82207
 H395 H 0.08154 0.37291 0.64131
 H396 H 0.05294 0.34426 0.69621
 H397 H 0.14411 0.30882 0.63976
 H398 H 0.11589 0.28022 0.69491
 C399 C 0.13256 0.67519 0.29333
 C400 C 0.16474 0.68328 0.25457
 C401 C 0.15745 0.65182 0.21405
 C402 C 0.12035 0.61442 0.21427
 C403 C 0.09004 0.60649 0.25529
 C404 C 0.09787 0.63844 0.29390
 C405 C 0.08227 0.64889 0.34432
 C406 C 0.12167 0.69037 0.34392
 H407 H 0.18036 0.65566 0.18214
 H408 H 0.11641 0.59098 0.18280
 H409 H 0.09185 0.61790 0.36912
 H410 H 0.04300 0.66278 0.34644
 H411 H 0.15389 0.68320 0.36849
 H412 H 0.10506 0.72817 0.34604
 C413 C 0.69607 -0.14891 0.67520
 C414 C 0.73757 -0.17978 0.68395
 C415 C 0.77759 -0.17776 0.65085
 C416 C 0.77806 -0.14192 0.61403
 C417 C 0.73811 -0.10785 0.60888
 C418 C 0.69613 -0.11417 0.63828
 C419 C 0.66823 -0.07697 0.66789
 C420 C 0.66817 -0.11497 0.70830
 H421 H 0.80970 -0.20222 0.65464
 H422 H 0.81027 -0.14006 0.59047
 H423 H 0.63023 -0.06911 0.65311
 H424 H 0.69098 -0.04365 0.67624
 H425 H 0.63013 -0.12900 0.71676
 H426 H 0.69085 -0.10365 0.74010
 C427 C 0.20662 -0.16966 0.36522
 C428 C 0.24780 -0.18023 0.33573
 C429 C 0.29370 -0.15734 0.34719
 C430 C 0.29623 -0.12105 0.38365
 C431 C 0.25271 -0.10622 0.40881
 C432 C 0.20890 -0.13323 0.40052
 C433 C 0.15673 -0.11577 0.39037
 C434 C 0.15417 -0.15568 0.35174
 H435 H 0.32720 -0.16602 0.32683
 H436 H 0.33160 -0.10274 0.39014
 H437 H 0.15538 -0.07748 0.37557
 H438 H 0.13116 -0.12265 0.42115
 H439 H 0.15124 -0.14059 0.31456
 H440 H 0.12706 -0.18539 0.36040
 C441 C 0.78982 0.15417 0.35639
 C442 C 0.74763 0.16410 0.32775
 C443 C 0.70596 0.13261 0.33292
 C444 C 0.70499 0.09655 0.36957
 C445 C 0.74604 0.09062 0.40121
 C446 C 0.78921 0.11803 0.39188
 C447 C 0.82043 0.14837 0.42532
 C448 C 0.82103 0.18805 0.38647
 H449 H 0.67321 0.13722 0.31017
 H450 H 0.67165 0.07436 0.37395
 H451 H 0.85784 0.13125 0.43189
 H452 H 0.79978 0.15981 0.45832
 H453 H 0.85882 0.19381 0.37077
 H454 H 0.80067 0.22253 0.39690
 C455 C 0.21889 0.18254 0.63807
 C456 C 0.26096 0.18984 0.66742
 C457 C 0.30517 0.16356 0.65563
 C458 C 0.30495 0.12722 0.61912
 C459 C 0.26027 0.11566 0.59432
 C460 C 0.21839 0.14597 0.60283
 C461 C 0.16523 0.13288 0.61304
 C462 C 0.16568 0.17306 0.65153
 H463 H 0.33940 0.16967 0.67577
 H464 H 0.33901 0.10630 0.61239
 H465 H 0.16132 0.09488 0.62800
 H466 H 0.14000 0.14173 0.58224
 H467 H 0.16188 0.15842 0.68877
 H468 H 0.14077 0.20498 0.64270
   
