data_POSCAR
  _audit_creation_date              2014-09-24
  _audit_creation_method            'ToBaCCo'
  _symmetry_space_group_name_H-M    'P1'
  _symmetry_Int_Tables_number       1
  _symmetry_cell_setting            triclinic
  loop_
  _symmetry_equiv_pos_as_xyz
 x,y,z
_cell_length_a 36.4604
_cell_length_b 36.6114
_cell_length_c 36.5178
_cell_angle_alpha 89.983100
_cell_angle_beta 90.026300
_cell_angle_gamma 90.040000
loop_
  _atom_site_label
  _atom_site_type_symbol
  _atom_site_fract_x
  _atom_site_fract_y
  _atom_site_fract_z
C1 C 0.26215 1.09375 -0.00303
 C2 C 0.26343 1.07524 0.03057
 C3 C 0.26289 1.03689 0.02965
 C4 C 0.25560 1.01757 -0.00328
 C5 C 0.25027 1.03798 -0.03588
 C6 C 0.25364 1.07625 -0.03615
 C7 C 0.25218 0.97651 -0.00330
 C8 C 0.25546 0.95621 -0.03616
 C9 C 0.25232 0.91796 -0.03631
 C10 C 0.24802 0.89960 -0.00283
 C11 C 0.24651 0.91877 0.03035
 C12 C 0.24658 0.95697 0.02969
 H13 H 0.26924 1.12243 -0.00350
 H14 H 0.26680 1.02241 0.05490
 H15 H 0.24152 1.02455 -0.06067
 H16 H 0.26155 0.96959 -0.06179
 H17 H 0.24588 0.87010 -0.00242
 H18 H 0.24317 0.97080 0.05549
 C19 C 0.76145 0.59396 0.49848
 C20 C 0.76401 0.57499 0.53156
 C21 C 0.76412 0.53684 0.53112
 C22 C 0.75728 0.51720 0.49835
 C23 C 0.75194 0.53744 0.46569
 C24 C 0.75475 0.57570 0.46540
 C25 C 0.75432 0.47613 0.49858
 C26 C 0.75727 0.45557 0.46586
 C27 C 0.75441 0.41730 0.46611
 C28 C 0.75052 0.39922 0.49980
 C29 C 0.74921 0.41870 0.53281
 C30 C 0.74927 0.45688 0.53178
 H31 H 0.76376 0.62345 0.49892
 H32 H 0.76847 0.52325 0.55692
 H33 H 0.74428 0.52405 0.44051
 H34 H 0.76287 0.46873 0.44001
 H35 H 0.74846 0.36972 0.50047
 H36 H 0.74623 0.47097 0.55746
 C37 C 0.74419 0.99644 1.09500
 C38 C 0.74803 0.96322 1.07612
 C39 C 0.75293 0.96459 1.03782
 C40 C 0.74943 0.99791 1.01822
 C41 C 0.74237 1.03014 1.03855
 C42 C 0.74086 1.03008 1.07696
 C43 C 0.75162 0.99923 0.97682
 C44 C 0.75543 1.03304 0.95829
 C45 C 0.75363 1.03528 0.92008
 C46 C 0.75243 1.00298 0.89958
 C47 C 0.74991 0.96873 0.91665
 C48 C 0.74849 0.96721 0.95515
 H49 H 0.74635 0.99618 1.12453
 H50 H 0.75788 0.93944 1.02345
 H51 H 0.73594 1.05537 1.02488
 H52 H 0.75881 1.05828 0.97302
 H53 H 0.75353 1.00473 0.87000
 H54 H 0.74378 0.94090 0.96753
 C55 C 0.25149 0.50348 0.59394
 C56 C 0.24643 0.46926 0.57749
 C57 C 0.24371 0.46726 0.53909
 C58 C 0.24775 0.49878 0.51678
 C59 C 0.25322 0.53263 0.53467
 C60 C 0.25388 0.53520 0.57280
 C61 C 0.24629 0.49664 0.47541
 C62 C 0.24332 0.52867 0.45375
 C63 C 0.24389 0.52732 0.41538
 C64 C 0.24451 0.49312 0.39817
 C65 C 0.24616 0.46070 0.41860
 C66 C 0.24830 0.46271 0.45691
 H67 H 0.25334 0.50566 0.62346
 H68 H 0.23763 0.44094 0.52736
 H69 H 0.25777 0.55763 0.51984
 H70 H 0.24117 0.55525 0.46603
 H71 H 0.24384 0.49166 0.36856
 H72 H 0.25115 0.43739 0.47166
 C73 C 1.09451 0.24975 0.00043
 C74 C 1.07810 0.25167 0.03534
 C75 C 1.03949 0.25524 0.03685
 C76 C 1.01761 0.25267 0.00485
 C77 C 1.03550 0.24752 -0.02906
 C78 C 1.07360 0.24736 -0.03151
 C79 C 0.97636 0.25393 0.00658
 C80 C 0.95561 0.26164 -0.02527
 C81 C 0.91722 0.25789 -0.02584
 C82 C 0.89931 0.25214 0.00782
 C83 C 0.91881 0.24588 0.04025
 C84 C 0.95724 0.24572 0.03925
 H85 H 1.12400 0.25121 -0.00252
 H86 H 1.02639 0.25855 0.06300
 H87 H 1.02042 0.24264 -0.05402
 H88 H 0.96948 0.26870 -0.05024
 H89 H 0.86970 0.25349 0.00922
 H90 H 0.97164 0.23815 0.06393
 C91 C 0.59286 0.75672 0.49478
 C92 C 0.57550 0.75791 0.52903
 C93 C 0.53698 0.75948 0.53027
 C94 C 0.51561 0.75662 0.49791
 C95 C 0.53440 0.75276 0.46423
 C96 C 0.57258 0.75365 0.46250
 C97 C 0.47424 0.75597 0.49906
 C98 C 0.45344 0.75994 0.46657
 C99 C 0.41532 0.75553 0.46641
 C100 C 0.39701 0.75113 0.49986
 C101 C 0.41650 0.74851 0.53291
 C102 C 0.45496 0.74993 0.53213
 H103 H 0.62251 0.75762 0.49307
 H104 H 0.52422 0.76195 0.55672
 H105 H 0.52019 0.74757 0.43889
 H106 H 0.46642 0.76540 0.44069
 H107 H 0.36733 0.74987 0.50009
 H108 H 0.46921 0.74512 0.55753
 C109 C -0.00375 0.75485 -0.09875
 C110 C 0.02870 0.74768 -0.07979
 C111 C 0.02752 0.74305 -0.04194
 C112 C -0.00495 0.74974 -0.02196
 C113 C -0.03739 0.75787 -0.04178
 C114 C -0.03731 0.75996 -0.08044
 C115 C -0.00386 0.74995 0.01926
 C116 C -0.03602 0.74613 0.04069
 C117 C -0.03472 0.74805 0.07939
 C118 C 0.00017 0.74938 0.09606
 C119 C 0.03230 0.75364 0.07559
 C120 C 0.02986 0.75532 0.03757
 H121 H -0.00256 0.75491 -0.12835
 H122 H 0.05261 0.73530 -0.02836
 H123 H -0.06227 0.76472 -0.02739
 H124 H -0.06209 0.74317 0.02722
 H125 H 0.00283 0.74627 0.12540
 H126 H 0.05465 0.76177 0.02277
 C127 C 0.49885 0.23300 0.40991
 C128 C 0.53176 0.23028 0.42923
 C129 C 0.53106 0.23062 0.46742
 C130 C 0.49840 0.23876 0.48674
 C131 C 0.46581 0.24405 0.46617
 C132 C 0.46574 0.24055 0.42784
 C133 C 0.49913 0.24369 0.52769
 C134 C 0.46660 0.24324 0.54879
 C135 C 0.46742 0.24911 0.58686
 C136 C 0.50163 0.25248 0.60434
 C137 C 0.53436 0.25296 0.58417
 C138 C 0.53267 0.24992 0.54608
 H139 H 0.49953 0.23045 0.38036
 H140 H 0.55670 0.22598 0.48135
 H141 H 0.44064 0.25241 0.47921
 H142 H 0.44035 0.23908 0.53589
 H143 H 0.50285 0.25454 0.63390
 H144 H 0.55797 0.25359 0.53127
 C145 C 1.10123 -0.00358 0.24584
 C146 C 1.08392 0.03072 0.24903
 C147 C 1.04512 0.03130 0.25009
 C148 C 1.02401 -0.00109 0.24638
 C149 C 1.04295 -0.03439 0.24162
 C150 C 1.08113 -0.03607 0.24349
 C151 C 0.98263 -0.00078 0.24901
 C152 C 0.96296 -0.03349 0.25625
 C153 C 0.92443 -0.03427 0.25803
 C154 C 0.90562 -0.00104 0.25436
 C155 C 0.92411 0.03215 0.25001
 C156 C 0.96233 0.03201 0.24566
 H157 H 1.13074 -0.00561 0.24377
 H158 H 1.03173 0.05683 0.25600
 H159 H 1.02849 -0.05972 0.23744
 H160 H 0.97733 -0.05833 0.26277
 H161 H 0.87596 -0.00063 0.25371
 H162 H 0.97571 0.05775 0.24039
 C163 C 0.60016 0.50489 0.74734
 C164 C 0.58149 0.53821 0.75110
 C165 C 0.54309 0.53784 0.75400
 C166 C 0.52310 0.50479 0.75172
 C167 C 0.54285 0.47186 0.74739
 C168 C 0.58126 0.47150 0.74693
 C169 C 0.48202 0.50442 0.75499
 C170 C 0.46331 0.47239 0.76597
 C171 C 0.42497 0.47119 0.76755
 C172 C 0.40510 0.50320 0.76093
 C173 C 0.42267 0.53573 0.75066
 C174 C 0.46101 0.53587 0.74688
 H175 H 0.62975 0.50487 0.74478
 H176 H 0.52923 0.56339 0.75921
 H177 H 0.52872 0.44606 0.74522
 H178 H 0.47807 0.44806 0.77381
 H179 H 0.37555 0.50254 0.76329
 H180 H 0.47403 0.56038 0.73675
 C181 C 1.00250 1.10256 0.75856
 C182 C 0.96868 1.08391 0.75977
 C183 C 0.96942 1.04554 0.75761
 C184 C 1.00238 1.02591 0.75161
 C185 C 1.03553 1.04592 0.75022
 C186 C 1.03594 1.08391 0.75511
 C187 C 1.00173 0.98485 0.74734
 C188 C 1.03392 0.96322 0.75069
 C189 C 1.03312 0.92493 0.74537
 C190 C 0.99856 0.90832 0.74066
 C191 C 0.96642 0.92885 0.73738
 C192 C 0.96844 0.96682 0.73918
 H193 H 1.00320 1.13209 0.75868
 H194 H 0.94417 1.03110 0.76263
 H195 H 1.06143 1.03248 0.74587
 H196 H 1.05983 0.97610 0.75611
 H197 H 0.99606 0.87887 0.74093
 H198 H 0.94359 0.98178 0.73355
 C199 C 0.50238 0.59814 0.24438
 C200 C 0.46929 0.57920 0.23976
 C201 C 0.46999 0.54105 0.23850
 C202 C 0.50254 0.52113 0.24516
 C203 C 0.53553 0.54110 0.24963
 C204 C 0.53584 0.57944 0.24767
 C205 C 0.50150 0.47999 0.24710
 C206 C 0.53380 0.45851 0.24511
 C207 C 0.53228 0.42017 0.24769
 C208 C 0.49781 0.40315 0.24952
 C209 C 0.46562 0.42362 0.25216
 C210 C 0.46769 0.46164 0.25198
 H211 H 0.50217 0.62770 0.24554
 H212 H 0.44470 0.52742 0.23155
 H213 H 0.56132 0.52743 0.25395
 H214 H 0.56035 0.47107 0.24228
 H215 H 0.49582 0.37363 0.24912
 H216 H 0.44248 0.47628 0.25681
 O217 O 0.26158 0.15300 0.19264
 O218 O 0.30569 0.14687 0.24481
 O219 O 0.16447 0.19054 0.24586
 O220 O 0.14842 0.23697 0.28270
 O221 O 0.20789 0.24657 0.15074
 O222 O 0.25682 0.29005 0.14222
 O223 O 0.25483 0.29726 0.34136
 O224 O 0.21377 0.24607 0.35001
 O225 O 0.35131 0.25059 0.29688
 O226 O 0.36197 0.20877 0.25021
 O227 O 0.30352 0.34341 0.24997
 O228 O 0.25069 0.35129 0.20534
 O229 O 0.25084 0.34051 0.29680
 O230 O 0.21260 0.35151 0.24512
 O231 O 0.34865 0.30068 0.25340
 O232 O 0.35984 0.25555 0.20425
 O233 O 0.30749 0.24925 0.34122
 O234 O 0.25888 0.20652 0.35290
 O235 O 0.26171 0.19901 0.15084
 O236 O 0.29853 0.25146 0.14105
 O237 O 0.16242 0.24357 0.19326
 O238 O 0.15075 0.28370 0.24521
 O239 O 0.21130 0.14942 0.24529
 O240 O 0.25957 0.14121 0.28531
 Zr241 Zr 0.25890 0.18130 0.24348
 O242 O 0.29058 0.21390 0.27893
 Zr243 Zr 0.19106 0.24209 0.24375
 O244 O 0.22066 0.27738 0.27889
 Zr245 Zr 0.25670 0.24704 0.18088
 O246 O 0.28909 0.28187 0.21296
 Zr247 Zr 0.25732 0.24744 0.31180
 O248 O 0.22491 0.21155 0.27928
 Zr249 Zr 0.32185 0.25051 0.24796
 O250 O 0.29319 0.21533 0.21212
 Zr251 Zr 0.25478 0.31192 0.24763
 O252 O 0.22174 0.27976 0.21253
 O253 O 0.22375 0.21064 0.20971
 O254 O 0.29001 0.28327 0.28216
 C255 C 0.26239 0.16508 0.15948
 C256 C 0.17708 0.15762 0.24694
 C257 C 0.17395 0.24545 0.15998
 C258 C 0.25138 0.33056 0.33040
 C259 C 0.34118 0.25034 0.33052
 C260 C 0.33733 0.33381 0.25317
 H261 H 0.30666 0.19787 0.29365
 H262 H 0.30430 0.29762 0.19702
 H263 H 0.20889 0.19452 0.19378
 H264 H 0.20318 0.29135 0.29411
 H265 H 0.19676 0.22658 0.34186
 H266 H 0.15527 0.25192 0.30420
 H267 H 0.38431 0.26071 0.21495
 H268 H 0.31955 0.23706 0.15029
 H269 H 0.27700 0.18788 0.34544
 H270 H 0.24385 0.15046 0.30535
 H271 H 0.27300 0.34953 0.19002
 H272 H 0.23787 0.30768 0.15022
 H273 H 0.29859 0.12225 0.23592
 H274 H 0.35693 0.19215 0.22942
 H275 H 0.15764 0.30198 0.22645
 H276 H 0.19251 0.34309 0.26124
 O277 O 0.74978 0.84732 0.20274
 O278 O 0.70784 0.85784 0.25255
 O279 O 0.84486 0.80580 0.26007
 O280 O 0.85631 0.75817 0.29737
 O281 O 0.80585 0.75326 0.16070
 O282 O 0.75774 0.71007 0.15124
 O283 O 0.74652 0.70432 0.34872
 O284 O 0.78821 0.75338 0.35953
 O285 O 0.65333 0.75212 0.30100
 O286 O 0.64644 0.79606 0.24737
 O287 O 0.69845 0.65962 0.25455
 O288 O 0.75262 0.64796 0.21435
 O289 O 0.74796 0.65946 0.30579
 O290 O 0.79040 0.64793 0.25451
 O291 O 0.65544 0.70432 0.24957
 O292 O 0.64536 0.75124 0.21011
 O293 O 0.69634 0.74927 0.34605
 O294 O 0.73859 0.79346 0.35966
 O295 O 0.75414 0.80420 0.15815
 O296 O 0.71309 0.75272 0.14766
 O297 O 0.84697 0.75494 0.20757
 O298 O 0.85446 0.71284 0.25855
 O299 O 0.79967 0.84844 0.25710
 O300 O 0.74535 0.86105 0.29186
 Zr301 Zr 0.75072 0.81895 0.25252
 O302 O 0.71574 0.78790 0.28578
 Zr303 Zr 0.81585 0.75594 0.25588
 O304 O 0.78319 0.72125 0.28860
 Zr305 Zr 0.75484 0.75467 0.18814
 O306 O 0.71899 0.72105 0.21867
 Zr307 Zr 0.74660 0.75302 0.31909
 O308 O 0.78207 0.78814 0.28985
 Zr309 Zr 0.68492 0.75299 0.25236
 O310 O 0.71742 0.78681 0.21833
 Zr311 Zr 0.74904 0.68845 0.25556
 O312 O 0.78539 0.71998 0.22262
 O313 O 0.78681 0.78925 0.22016
 O314 O 0.71339 0.71865 0.28799
 C315 C 0.75076 0.83745 0.16902
 C316 C 0.83337 0.83904 0.26055
 C317 C 0.83882 0.75355 0.17335
 C318 C 0.74677 0.67063 0.33920
 C319 C 0.66304 0.74965 0.33479
 C320 C 0.66508 0.67073 0.25112
 H321 H 0.70025 0.80428 0.30075
 H322 H 0.70420 0.70627 0.20147
 H323 H 0.80299 0.80523 0.20540
 H324 H 0.79917 0.70650 0.30470
 H325 H 0.80467 0.77412 0.35377
 H326 H 0.84692 0.74419 0.31856
 H327 H 0.65784 0.76007 0.18776
 H328 H 0.72406 0.75861 0.12349
 H329 H 0.75425 0.81439 0.35286
 H330 H 0.76378 0.85652 0.31121
 H331 H 0.73334 0.65303 0.19599
 H332 H 0.77550 0.69236 0.16150
 H333 H 0.68985 0.84981 0.23390
 H334 H 0.64777 0.81111 0.26983
 H335 H 0.84728 0.69478 0.23969
 H336 H 0.80849 0.65412 0.27372
 O337 O 0.74669 0.15893 0.80240
 O338 O 0.71826 0.14326 0.75141
 O339 O 0.84767 0.20617 0.75906
 O340 O 0.86109 0.25455 0.72071
 O341 O 0.79631 0.25374 0.85132
 O342 O 0.74860 0.29256 0.86059
 O343 O 0.75425 0.30038 0.65744
 O344 O 0.78921 0.25106 0.64503
 O345 O 0.65638 0.25816 0.70363
 O346 O 0.64506 0.21545 0.74747
 O347 O 0.70339 0.34929 0.75135
 O348 O 0.75281 0.36334 0.78783
 O349 O 0.75073 0.34629 0.69916
 O350 O 0.79640 0.35574 0.75399
 O351 O 0.65764 0.30710 0.75018
 O352 O 0.65006 0.25706 0.79759
 O353 O 0.70015 0.25475 0.65935
 O354 O 0.75477 0.20757 0.65281
 O355 O 0.74835 0.20144 0.84781
 O356 O 0.70159 0.25290 0.85213
 O357 O 0.84323 0.25670 0.81030
 O358 O 0.85381 0.29858 0.75637
 O359 O 0.80541 0.16054 0.75672
 O360 O 0.75370 0.15315 0.70856
 Zr361 Zr 0.75399 0.18858 0.75435
 O362 O 0.71828 0.21956 0.72115
 Zr363 Zr 0.81693 0.25398 0.75816
 O364 O 0.78665 0.28545 0.72049
 Zr365 Zr 0.74947 0.25214 0.81915
 O366 O 0.71848 0.28805 0.78654
 Zr367 Zr 0.75100 0.25302 0.68845
 O368 O 0.78725 0.22102 0.72074
 Zr369 Zr 0.68600 0.25623 0.75194
 O370 O 0.71610 0.21970 0.78552
 Zr371 Zr 0.75160 0.31904 0.75073
 O372 O 0.78300 0.28845 0.78875
 O373 O 0.78552 0.21920 0.79022
 O374 O 0.71713 0.28881 0.71698
 C375 C 0.74623 0.16822 0.83619
 C376 C 0.83880 0.17234 0.75872
 C377 C 0.83042 0.25560 0.84327
 C378 C 0.75303 0.33417 0.66606
 C379 C 0.66649 0.25747 0.67012
 C380 C 0.66948 0.34033 0.75105
 H381 H 0.70262 0.20308 0.70642
 H382 H 0.70340 0.30367 0.80271
 H383 H 0.80038 0.20375 0.80677
 H384 H 0.80380 0.29960 0.70503
 H385 H 0.81286 0.25951 0.65523
 H386 H 0.85310 0.23988 0.69938
 H387 H 0.62541 0.26427 0.78870
 H388 H 0.70780 0.24303 0.87666
 H389 H 0.73018 0.19625 0.65104
 H390 H 0.77754 0.15624 0.69595
 H391 H 0.74026 0.35505 0.81035
 H392 H 0.76306 0.31345 0.85123
 H393 H 0.69315 0.15340 0.75185
 H394 H 0.65079 0.19687 0.76631
 H395 H 0.84777 0.31463 0.77733
 H396 H 0.80923 0.35555 0.73012
 O397 O 0.24442 0.83838 0.80175
 O398 O 0.28336 0.85089 0.74814
 O399 O 0.14849 0.79569 0.74401
 O400 O 0.13336 0.74821 0.71049
 O401 O 0.19169 0.74310 0.84224
 O402 O 0.24236 0.70065 0.85048
 O403 O 0.24395 0.69724 0.65076
 O404 O 0.19994 0.74616 0.64324
 O405 O 0.33787 0.74374 0.69570
 O406 O 0.34740 0.78644 0.74189
 O407 O 0.29193 0.65081 0.74418
 O408 O 0.23986 0.63850 0.78435
 O409 O 0.24690 0.65303 0.69447
 O410 O 0.20044 0.64094 0.74495
 O411 O 0.33717 0.69354 0.74308
 O412 O 0.34572 0.74084 0.79013
 O413 O 0.29262 0.74416 0.65267
 O414 O 0.24405 0.78814 0.64185
 O415 O 0.24665 0.79231 0.84347
 O416 O 0.28278 0.74020 0.85327
 O417 O 0.14828 0.74607 0.79748
 O418 O 0.13999 0.70224 0.74640
 O419 O 0.19150 0.84028 0.75022
 O420 O 0.24224 0.85185 0.70991
 Zr421 Zr 0.24159 0.81083 0.75065
 O422 O 0.27548 0.77990 0.71541
 Zr423 Zr 0.17735 0.74655 0.74824
 O424 O 0.20805 0.71327 0.71281
 Zr425 Zr 0.24165 0.74444 0.81270
 O426 O 0.27567 0.71132 0.78016
 Zr427 Zr 0.24333 0.74599 0.68172
 O428 O 0.20924 0.77997 0.71388
 Zr429 Zr 0.30840 0.74370 0.74562
 O430 O 0.27751 0.77758 0.78155
 Zr431 Zr 0.24293 0.68042 0.74455
 O432 O 0.20873 0.71042 0.78011
 O433 O 0.20761 0.77953 0.78356
 O434 O 0.27727 0.71096 0.71102
 C435 C 0.24743 0.82623 0.83476
 C436 C 0.15814 0.82935 0.74609
 C437 C 0.15821 0.74453 0.83112
 C438 C 0.24711 0.66379 0.66105
 C439 C 0.32643 0.74313 0.66229
 C440 C 0.32580 0.66024 0.74294
 H441 H 0.29113 0.79663 0.70100
 H442 H 0.29099 0.69587 0.79628
 H443 H 0.19237 0.79527 0.79950
 H444 H 0.19166 0.69875 0.69688
 H445 H 0.18245 0.76528 0.65117
 H446 H 0.14194 0.73653 0.68764
 H447 H 0.37063 0.73691 0.77996
 H448 H 0.30417 0.75404 0.84401
 H449 H 0.26248 0.80649 0.64931
 H450 H 0.22600 0.84319 0.68999
 H451 H 0.25836 0.64393 0.80341
 H452 H 0.22349 0.68300 0.84227
 H453 H 0.30108 0.84521 0.76784
 H454 H 0.34408 0.80191 0.76384
 H455 H 0.14686 0.68525 0.76635
 H456 H 0.18567 0.64414 0.72245
 O457 O 0.24840 0.35452 0.71012
 O458 O 0.20672 0.36292 0.76051
 O459 O 0.34408 0.31109 0.76552
 O460 O 0.35593 0.26254 0.80128
 O461 O 0.30456 0.26060 0.66517
 O462 O 0.25579 0.21869 0.65429
 O463 O 0.24764 0.20663 0.85139
 O464 O 0.28911 0.25613 0.86348
 O465 O 0.15337 0.25630 0.80685
 O466 O 0.14525 0.30057 0.75422
 O467 O 0.19847 0.16454 0.75631
 O468 O 0.25244 0.15466 0.71538
 O469 O 0.24733 0.16291 0.80729
 O470 O 0.29051 0.15346 0.75562
 O471 O 0.15503 0.20909 0.75824
 O472 O 0.14527 0.25524 0.71526
 O473 O 0.19702 0.25072 0.85099
 O474 O 0.23880 0.29505 0.86587
 O475 O 0.25242 0.31236 0.66459
 O476 O 0.21139 0.26111 0.65274
 O477 O 0.34625 0.26227 0.71162
 O478 O 0.35411 0.21845 0.76074
 O479 O 0.29894 0.35394 0.76473
 O480 O 0.24461 0.36537 0.79961
 Zr481 Zr 0.24994 0.32445 0.75904
 O482 O 0.21551 0.29216 0.79183
 Zr483 Zr 0.31526 0.26141 0.75993
 O484 O 0.28319 0.22552 0.79184
 Zr485 Zr 0.25352 0.26189 0.69287
 O486 O 0.21804 0.22714 0.72274
 Zr487 Zr 0.24693 0.25637 0.82364
 O488 O 0.28179 0.29258 0.79510
 Zr489 Zr 0.18439 0.25797 0.75788
 O490 O 0.21634 0.29298 0.72446
 Zr491 Zr 0.24885 0.19361 0.75807
 O492 O 0.28465 0.22635 0.72584
 O493 O 0.28577 0.29571 0.72547
 O494 O 0.21371 0.22285 0.79186
 C495 C 0.24913 0.34540 0.67617
 C496 C 0.33266 0.34427 0.76749
 C497 C 0.33768 0.26095 0.67754
 C498 C 0.24683 0.17318 0.84101
 C499 C 0.16355 0.25170 0.84028
 C500 C 0.16493 0.17552 0.75763
 H501 H 0.20012 0.30797 0.80751
 H502 H 0.20290 0.21273 0.70550
 H503 H 0.30179 0.31215 0.71104
 H504 H 0.29936 0.21032 0.80731
 H505 H 0.30512 0.27734 0.85821
 H506 H 0.34694 0.24752 0.82191
 H507 H 0.15649 0.26756 0.69391
 H508 H 0.22198 0.26819 0.62871
 H509 H 0.25361 0.31668 0.85940
 H510 H 0.26279 0.36002 0.81899
 H511 H 0.23267 0.15994 0.69760
 H512 H 0.27343 0.20045 0.66379
 H513 H 0.18868 0.35531 0.74173
 H514 H 0.14757 0.31587 0.77642
 H515 H 0.34656 0.20077 0.74165
 H516 H 0.30818 0.15867 0.77550
 O517 O 0.75835 0.65750 0.69267
 O518 O 0.80040 0.65197 0.74751
 O519 O 0.66112 0.69991 0.74311
 O520 O 0.64708 0.74795 0.77886
 O521 O 0.70507 0.74976 0.64566
 O522 O 0.75472 0.79051 0.63379
 O523 O 0.75392 0.80965 0.83300
 O524 O 0.71225 0.75959 0.84411
 O525 O 0.84930 0.76341 0.79034
 O526 O 0.86000 0.71601 0.75081
 O527 O 0.80362 0.84985 0.73751
 O528 O 0.74990 0.85692 0.69440
 O529 O 0.75178 0.85090 0.78653
 O530 O 0.71230 0.85957 0.73431
 O531 O 0.84808 0.80626 0.73750
 O532 O 0.85686 0.75488 0.69672
 O533 O 0.80574 0.76274 0.83497
 O534 O 0.76238 0.72048 0.84877
 O535 O 0.75662 0.70044 0.64769
 O536 O 0.79631 0.75157 0.63562
 O537 O 0.66004 0.75087 0.68871
 O538 O 0.64930 0.79258 0.73905
 O539 O 0.70734 0.65835 0.74631
 O540 O 0.75966 0.64773 0.78250
 Zr541 Zr 0.75587 0.68861 0.74172
 O542 O 0.78818 0.72281 0.77498
 Zr543 Zr 0.68910 0.75048 0.73901
 O544 O 0.71946 0.78742 0.77175
 Zr545 Zr 0.75412 0.75027 0.67534
 O546 O 0.78701 0.78653 0.70518
 Zr547 Zr 0.75583 0.75873 0.80586
 O548 O 0.72255 0.72113 0.77620
 Zr549 Zr 0.81992 0.75686 0.74160
 O550 O 0.79062 0.71983 0.70807
 Zr551 Zr 0.75396 0.81956 0.73848
 O552 O 0.72028 0.78568 0.70546
 O553 O 0.72077 0.71631 0.70652
 O554 O 0.78907 0.79230 0.77403
 C555 C 0.75817 0.66727 0.65879
 C556 C 0.67327 0.66705 0.74667
 C557 C 0.67125 0.75064 0.65528
 C558 C 0.75195 0.84252 0.82066
 C559 C 0.83924 0.76477 0.82403
 C560 C 0.83738 0.83953 0.73610
 H561 H 0.80378 0.70768 0.79117
 H562 H 0.80201 0.80080 0.68773
 H563 H 0.70540 0.69970 0.69159
 H564 H 0.70238 0.80251 0.78633
 H565 H 0.69665 0.73809 0.83877
 H566 H 0.65499 0.76315 0.79981
 H567 H 0.88196 0.75966 0.70608
 H568 H 0.81572 0.73475 0.64425
 H569 H 0.74780 0.69879 0.84196
 H570 H 0.74226 0.65435 0.80216
 H571 H 0.77122 0.85295 0.67813
 H572 H 0.73721 0.80969 0.64142
 H573 H 0.81519 0.65348 0.72485
 H574 H 0.85722 0.69781 0.73101
 H575 H 0.65691 0.81051 0.72023
 H576 H 0.69290 0.85315 0.75211
 O577 O 0.25088 0.64891 0.28986
 O578 O 0.21686 0.63616 0.24112
 O579 O 0.34644 0.70021 0.24337
 O580 O 0.35996 0.75146 0.21232
 O581 O 0.29569 0.74147 0.34243
 O582 O 0.24837 0.78022 0.35367
 O583 O 0.25074 0.79737 0.15108
 O584 O 0.28619 0.74835 0.13608
 O585 O 0.15403 0.75102 0.19622
 O586 O 0.14367 0.70679 0.23878
 O587 O 0.20027 0.84116 0.24750
 O588 O 0.24944 0.85433 0.28410
 O589 O 0.24753 0.84136 0.19485
 O590 O 0.29321 0.84875 0.25001
 O591 O 0.15513 0.79841 0.24427
 O592 O 0.14868 0.74706 0.29026
 O593 O 0.19732 0.75131 0.15137
 O594 O 0.25186 0.70503 0.14190
 O595 O 0.24669 0.68966 0.33665
 O596 O 0.20106 0.74123 0.34409
 O597 O 0.34175 0.74808 0.30080
 O598 O 0.35086 0.79295 0.24858
 O599 O 0.30455 0.65426 0.24033
 O600 O 0.25061 0.64727 0.19610
 Zr601 Zr 0.25293 0.68126 0.24293
 O602 O 0.21651 0.71318 0.21144
 Zr603 Zr 0.31512 0.74739 0.24872
 O604 O 0.28398 0.78006 0.21286
 Zr605 Zr 0.24855 0.74162 0.31050
 O606 O 0.21669 0.77857 0.27984
 Zr607 Zr 0.24834 0.74859 0.17988
 O608 O 0.28523 0.71573 0.21032
 Zr609 Zr 0.18415 0.74792 0.24422
 O610 O 0.21507 0.71034 0.27594
 Zr611 Zr 0.24888 0.81168 0.24510
 O612 O 0.28110 0.77981 0.28132
 O613 O 0.28489 0.71058 0.27959
 O614 O 0.21437 0.78255 0.21043
 C615 C 0.24833 0.65683 0.32393
 C616 C 0.33774 0.66652 0.23991
 C617 C 0.32953 0.74521 0.33391
 C618 C 0.24964 0.83075 0.16122
 C619 C 0.16377 0.75262 0.16261
 C620 C 0.16652 0.83170 0.24659
 H621 H 0.20085 0.69718 0.19619
 H622 H 0.20156 0.79330 0.29680
 H623 H 0.30068 0.69448 0.29462
 H624 H 0.30078 0.79514 0.19790
 H625 H 0.30938 0.75847 0.14580
 H626 H 0.35130 0.74154 0.18864
 H627 H 0.12381 0.75400 0.28178
 H628 H 0.20751 0.73045 0.36817
 H629 H 0.22744 0.69333 0.14026
 H630 H 0.27309 0.65203 0.18167
 H631 H 0.23812 0.84447 0.30664
 H632 H 0.26281 0.80145 0.34508
 H633 H 0.19184 0.64651 0.24059
 H634 H 0.14913 0.68817 0.25766
 H635 H 0.34539 0.80738 0.27084
 H636 H 0.30594 0.84985 0.22611
 O637 O 0.74511 0.33471 0.30557
 O638 O 0.78425 0.34491 0.25012
 O639 O 0.64832 0.29007 0.25441
 O640 O 0.63460 0.24352 0.21775
 O641 O 0.69445 0.23867 0.34992
 O642 O 0.74656 0.19849 0.35817
 O643 O 0.73998 0.18846 0.15910
 O644 O 0.69797 0.24018 0.15115
 O645 O 0.83760 0.23929 0.20055
 O646 O 0.84666 0.28272 0.24536
 O647 O 0.79387 0.14645 0.25271
 O648 O 0.74248 0.13495 0.29489
 O649 O 0.74205 0.14567 0.20414
 O650 O 0.70321 0.13415 0.25721
 O651 O 0.83829 0.18981 0.24752
 O652 O 0.84707 0.23715 0.29416
 O653 O 0.79178 0.23542 0.15840
 O654 O 0.74656 0.27680 0.14495
 O655 O 0.74827 0.28983 0.34853
 O656 O 0.78586 0.23905 0.35881
 O657 O 0.65008 0.24015 0.30608
 O658 O 0.63975 0.19775 0.25557
 O659 O 0.69153 0.33488 0.25392
 O660 O 0.74161 0.34709 0.21463
 Zr661 Zr 0.74177 0.30582 0.25516
 O662 O 0.77476 0.27398 0.21986
 Zr663 Zr 0.67801 0.24130 0.25614
 O664 O 0.70815 0.20688 0.22141
 Zr665 Zr 0.74366 0.24110 0.31917
 O666 O 0.77729 0.20750 0.28682
 Zr667 Zr 0.74264 0.23838 0.18810
 O668 O 0.70910 0.27365 0.21987
 Zr669 Zr 0.80871 0.23919 0.25048
 O670 O 0.77847 0.27370 0.28629
 Zr671 Zr 0.74405 0.17507 0.25315
 O672 O 0.71022 0.20604 0.28825
 O673 O 0.70880 0.27527 0.28991
 O674 O 0.77753 0.20441 0.21757
 C675 C 0.74871 0.32349 0.33887
 C676 C 0.65803 0.32374 0.25364
 C677 C 0.66071 0.23874 0.33952
 C678 C 0.73986 0.15517 0.17040
 C679 C 0.82583 0.23666 0.16745
 C680 C 0.82752 0.15651 0.25018
 H681 H 0.78967 0.29033 0.20423
 H682 H 0.79324 0.19280 0.30303
 H683 H 0.69364 0.29095 0.30599
 H684 H 0.69100 0.19193 0.20673
 H685 H 0.68274 0.26150 0.15807
 H686 H 0.64282 0.23042 0.19556
 H687 H 0.87185 0.23405 0.28340
 H688 H 0.80678 0.25288 0.34851
 H689 H 0.75122 0.30082 0.15629
 H690 H 0.72377 0.33942 0.19567
 H691 H 0.76246 0.14037 0.31239
 H692 H 0.72810 0.18003 0.35087
 H693 H 0.80100 0.34140 0.27114
 H694 H 0.84416 0.29791 0.26762
 H695 H 0.64741 0.18031 0.27483
 H696 H 0.68390 0.13986 0.23906
 C697 C 0.27656 0.08201 0.09768
 C698 C 0.26317 0.09564 0.06384
 C699 C 0.24756 0.13091 0.06388
 C700 C 0.24739 0.15232 0.09500
 C701 C 0.26193 0.13953 0.12808
 C702 C 0.27589 0.10382 0.12951
 H703 H 0.28901 0.05531 0.09965
 H704 H 0.23407 0.14220 0.04003
 H705 H 0.23548 0.17929 0.09300
 H706 H 0.28719 0.09322 0.15480
 C707 C 0.78498 0.58876 0.59643
 C708 C 0.76164 0.59562 0.56645
 C709 C 0.73495 0.62301 0.56951
 C710 C 0.73302 0.64461 0.60065
 C711 C 0.75750 0.63944 0.62972
 C712 C 0.78294 0.61068 0.62803
 H713 H 0.80555 0.56750 0.59485
 H714 H 0.71578 0.62813 0.54742
 H715 H 0.71278 0.66609 0.60177
 H716 H 0.80218 0.60635 0.65020
 C717 C 0.76522 0.89782 0.08525
 C718 C 0.74653 0.92990 0.09620
 C719 C 0.72599 0.92841 0.12896
 C720 C 0.72673 0.89787 0.15139
 C721 C 0.74743 0.86717 0.14187
 C722 C 0.76574 0.86676 0.10802
 H723 H 0.78141 0.89718 0.06046
 H724 H 0.70872 0.95087 0.13754
 H725 H 0.71121 0.89849 0.17668
 H726 H 0.78176 0.84319 0.10001
 C727 C 0.26131 0.40302 0.59035
 C728 C 0.24419 0.43588 0.60084
 C729 C 0.22665 0.43741 0.63508
 C730 C 0.22792 0.40777 0.65901
 C731 C 0.24614 0.37544 0.64917
 C732 C 0.26206 0.37297 0.61422
 H733 H 0.27527 0.40096 0.56428
 H734 H 0.21225 0.46179 0.64368
 H735 H 0.21472 0.41025 0.68547
 H736 H 0.27625 0.34834 0.60592
 C737 C 0.72483 0.07486 0.87248
 C738 C 0.75003 0.07124 0.90134
 C739 C 0.77084 0.10198 0.91184
 C740 C 0.76782 0.13500 0.89244
 C741 C 0.74405 0.13757 0.86228
 C742 C 0.72204 0.10748 0.85313
 H743 H 0.70755 0.05216 0.86444
 H744 H 0.79045 0.10008 0.93403
 H745 H 0.78549 0.15768 0.89959
 H746 H 0.70343 0.10884 0.83002
 C747 C 0.26718 0.56269 0.36140
 C748 C 0.24542 0.56155 0.39312
 C749 C 0.22599 0.59332 0.40327
 C750 C 0.22782 0.62507 0.38172
 C751 C 0.24857 0.62538 0.34937
 C752 C 0.26848 0.59399 0.33972
 H753 H 0.28346 0.53935 0.35327
 H754 H 0.20871 0.59343 0.42735
 H755 H 0.21205 0.64886 0.38961
 H756 H 0.28517 0.59361 0.31518
 C757 C 0.27231 0.86291 0.92808
 C758 C 0.25422 0.89676 0.92885
 C759 C 0.23653 0.90898 0.89676
 C760 C 0.23551 0.88694 0.86527
 C761 C 0.25185 0.85221 0.86554
 C762 C 0.27090 0.84087 0.89700
 H763 H 0.28715 0.85308 0.95180
 H764 H 0.22225 0.93490 0.89647
 H765 H 0.22060 0.89631 0.84140
 H766 H 0.28437 0.81451 0.89780
 C767 C 0.77491 0.36226 0.43090
 C768 C 0.75620 0.39576 0.43150
 C769 C 0.73777 0.40723 0.39954
 C770 C 0.73656 0.38468 0.36840
 C771 C 0.75349 0.35023 0.36893
 C772 C 0.77337 0.33975 0.40019
 H773 H 0.79030 0.35305 0.45453
 H774 H 0.72303 0.43289 0.39914
 H775 H 0.72103 0.39339 0.34467
 H776 H 0.78730 0.31364 0.40116
 C777 C 0.08913 0.26317 0.10190
 C778 C 0.10027 0.24914 0.06747
 C779 C 0.13472 0.23153 0.06582
 C780 C 0.15774 0.23005 0.09605
 C781 C 0.14720 0.24519 0.12958
 C782 C 0.11233 0.26107 0.13260
 H783 H 0.06343 0.27745 0.10522
 H784 H 0.14409 0.21765 0.04143
 H785 H 0.18406 0.21680 0.09312
 H786 H 0.10360 0.27308 0.15825
 C787 C 0.62990 0.73332 0.56258
 C788 C 0.59806 0.75495 0.56303
 C789 C 0.58870 0.77313 0.59578
 C790 C 0.61148 0.77059 0.62676
 C791 C 0.64423 0.75047 0.62515
 C792 C 0.65290 0.73174 0.59285
 H793 H 0.63742 0.71766 0.53860
 H794 H 0.56447 0.79012 0.59719
 H795 H 0.60436 0.78554 0.65133
 H796 H 0.67788 0.71606 0.59079
 C797 C 0.09187 0.72206 0.90733
 C798 C 0.06405 0.74778 0.90014
 C799 C 0.06982 0.77431 0.87299
 C800 C 0.10144 0.77383 0.85189
 C801 C 0.12840 0.74725 0.85782
 C802 C 0.12407 0.72191 0.88629
 H803 H 0.08817 0.70136 0.92818
 H804 H 0.04950 0.79521 0.86761
 H805 H 0.10455 0.79386 0.83023
 H806 H 0.14460 0.70106 0.89099
 C807 C 0.57016 0.26010 0.38202
 C808 C 0.56688 0.23307 0.40903
 C809 C 0.59707 0.21024 0.41639
 C810 C 0.62919 0.21314 0.39526
 C811 C 0.63118 0.23895 0.36687
 C812 C 0.60184 0.26292 0.36123
 H813 H 0.54788 0.27893 0.37663
 H814 H 0.59532 0.18948 0.43744
 H815 H 0.65156 0.19424 0.39986
 H816 H 0.60316 0.28337 0.33996
 C817 C 0.89854 0.73635 0.08953
 C818 C 0.93299 0.74981 0.10144
 C819 C 0.93442 0.76635 0.13642
 C820 C 0.90377 0.76777 0.15898
 C821 C 0.87011 0.75333 0.14753
 C822 C 0.86751 0.73818 0.11232
 H823 H 0.89540 0.72286 0.06341
 H824 H 0.95892 0.77965 0.14647
 H825 H 0.90648 0.78066 0.18556
 H826 H 0.84181 0.72675 0.10282
 C827 C 0.40087 0.23309 0.59998
 C828 C 0.43281 0.25319 0.60844
 C829 C 0.43156 0.27785 0.63796
 C830 C 0.40014 0.28103 0.65947
 C831 C 0.36872 0.26033 0.65161
 C832 C 0.36899 0.23690 0.62121
 H833 H 0.40075 0.21361 0.57770
 H834 H 0.45499 0.29475 0.64466
 H835 H 0.40049 0.29955 0.68261
 H836 H 0.34518 0.22035 0.61491
 C837 C 0.90951 0.27500 0.90834
 C838 C 0.89704 0.25754 0.94075
 C839 C 0.86397 0.23761 0.93867
 C840 C 0.84367 0.23635 0.90660
 C841 C 0.85541 0.25475 0.87505
 C842 C 0.88887 0.27354 0.87584
 H843 H 0.93421 0.29132 0.90806
 H844 H 0.85392 0.22152 0.96140
 H845 H 0.81839 0.22078 0.90658
 H846 H 0.89834 0.28819 0.85186
 C847 C 0.36706 0.72622 0.42776
 C848 C 0.39490 0.75251 0.43119
 C849 C 0.40357 0.77437 0.40056
 C850 C 0.38390 0.77071 0.36770
 C851 C 0.35510 0.74541 0.36518
 C852 C 0.34733 0.72288 0.39531
 H853 H 0.36043 0.70812 0.45027
 H854 H 0.42481 0.79497 0.40229
 H855 H 0.38998 0.78873 0.34496
 H856 H 0.32534 0.70299 0.39396
 C857 C 0.14174 0.06222 0.26454
 C858 C 0.10532 0.06335 0.25136
 C859 C 0.09173 0.09767 0.23958
 C860 C 0.11444 0.12876 0.23896
 C861 C 0.15123 0.12641 0.25011
 C862 C 0.16420 0.09298 0.26365
 H863 H 0.15325 0.03775 0.27648
 H864 H 0.06426 0.10043 0.22874
 H865 H 0.10361 0.15423 0.22848
 H866 H 0.19205 0.09043 0.27366
 C867 C 0.63630 0.57409 0.77164
 C868 C 0.60262 0.57306 0.75299
 C869 C 0.59047 0.60490 0.73498
 C870 C 0.61251 0.63640 0.73416
 C871 C 0.64713 0.63639 0.75106
 C872 C 0.65833 0.60518 0.77045
 H873 H 0.64602 0.55056 0.78675
 H874 H 0.56466 0.60498 0.72031
 H875 H 0.60326 0.66008 0.71897
 H876 H 0.68459 0.60457 0.78432
 C877 C 0.93407 0.13815 0.77944
 C878 C 0.93497 0.10346 0.76278
 C879 C 0.90160 0.08974 0.74816
 C880 C 0.86955 0.11116 0.74791
 C881 C 0.87003 0.14660 0.76244
 C882 C 0.90234 0.15919 0.77923
 H883 H 0.95776 0.14930 0.79336
 H884 H 0.90051 0.06348 0.73463
 H885 H 0.84500 0.10069 0.73490
 H886 H 0.90335 0.18591 0.79194
 C887 C 0.43242 0.63249 0.21730
 C888 C 0.43392 0.59929 0.23643
 C889 C 0.40178 0.58629 0.25359
 C890 C 0.36942 0.60698 0.25305
 C891 C 0.36887 0.64114 0.23570
 C892 C 0.40039 0.65322 0.21714
 H893 H 0.45624 0.64283 0.20294
 H894 H 0.40207 0.56087 0.26876
 H895 H 0.34555 0.59725 0.26779
 H896 H 0.40053 0.67931 0.20313
 C897 C 0.06568 0.86984 0.72470
 C898 C 0.06562 0.90316 0.74425
 C899 C 0.09868 0.91348 0.76191
 C900 C 0.12950 0.89033 0.76161
 C901 C 0.12806 0.85643 0.74370
 C902 C 0.09607 0.84694 0.72471
 H903 H 0.04249 0.86132 0.70830
 H904 H 0.10057 0.93833 0.77776
 H905 H 0.15386 0.89826 0.77662
 H906 H 0.09441 0.82146 0.70972
 C907 C 0.56573 0.36565 0.27197
 C908 C 0.56618 0.39741 0.25031
 C909 C 0.59880 0.40637 0.23152
 C910 C 0.62961 0.38336 0.23358
 C911 C 0.62793 0.35072 0.25375
 C912 C 0.59578 0.34239 0.27301
 H913 H 0.54190 0.35839 0.28809
 H914 H 0.60024 0.43047 0.21444
 H915 H 0.65410 0.39026 0.21829
 H916 H 0.59374 0.31754 0.28882
 C917 C 0.86970 0.93311 0.27975
 C918 C 0.90461 0.93264 0.26311
 C919 C 0.91794 0.89869 0.25015
 C920 C 0.89566 0.86738 0.25084
 C921 C 0.85983 0.86932 0.26470
 C922 C 0.84771 0.90211 0.28030
 H923 H 0.85897 0.95746 0.29265
 H924 H 0.94441 0.89660 0.23694
 H925 H 0.90566 0.84229 0.23871
 H926 H 0.82063 0.90409 0.29234
 C927 C 0.37215 0.43566 0.79338
 C928 C 0.40507 0.43619 0.77342
 C929 C 0.41633 0.40410 0.75536
 C930 C 0.39382 0.37306 0.75516
 C931 C 0.35954 0.37390 0.77259
 C932 C 0.34947 0.40503 0.79262
 H933 H 0.36316 0.45952 0.80841
 H934 H 0.44144 0.40368 0.73954
 H935 H 0.40213 0.34933 0.73954
 H936 H 0.32343 0.40604 0.80686
 C937 C 0.08281 0.26759 0.90323
 C938 C 0.09224 0.24446 0.93258
 C939 C 0.12186 0.22041 0.92861
 C940 C 0.14336 0.22139 0.89720
 C941 C 0.13586 0.24644 0.86910
 C942 C 0.10456 0.26856 0.87154
 H943 H 0.05996 0.28632 0.90570
 H944 H 0.12916 0.20174 0.95045
 H945 H 0.16678 0.20340 0.89536
 H946 H 0.09829 0.28804 0.85012
 C947 C 0.62013 0.72381 0.42411
 C948 C 0.59176 0.74939 0.42711
 C949 C 0.58334 0.77179 0.39692
 C950 C 0.60497 0.77042 0.36517
 C951 C 0.63499 0.74653 0.36350
 C952 C 0.64136 0.72233 0.39256
 H953 H 0.62651 0.70564 0.44665
 H954 H 0.56134 0.79158 0.39866
 H955 H 0.59968 0.78938 0.34303
 H956 H 0.66371 0.70306 0.39125
 C957 C 0.89551 0.75429 0.91095
 C958 C 0.93029 0.76650 0.89893
 C959 C 0.93241 0.78322 0.86413
 C960 C 0.90230 0.78401 0.84079
 C961 C 0.86878 0.76868 0.85149
 C962 C 0.86511 0.75523 0.88733
 H963 H 0.89215 0.74129 0.93735
 H964 H 0.95749 0.79577 0.85447
 H965 H 0.90559 0.79595 0.81383
 H966 H 0.83936 0.74357 0.89639
 C967 C 0.43503 0.26398 0.37138
 C968 C 0.43202 0.24682 0.40565
 C969 C 0.39736 0.23395 0.41687
 C970 C 0.36695 0.23651 0.39331
 C971 C 0.37102 0.25132 0.35801
 C972 C 0.40530 0.26537 0.34767
 H973 H 0.46080 0.27553 0.36225
 H974 H 0.39410 0.22061 0.44313
 H975 H 0.34084 0.22536 0.40197
 H976 H 0.40958 0.27671 0.32068
 C977 C 0.09987 0.73888 0.08169
 C978 C 0.06827 0.75709 0.09447
 C979 C 0.07051 0.77725 0.12700
 C980 C 0.10242 0.77691 0.14775
 C981 C 0.13332 0.75708 0.13635
 C982 C 0.13235 0.73901 0.10248
 H983 H 0.09892 0.72313 0.05661
 H984 H 0.04711 0.79242 0.13708
 H985 H 0.10248 0.79112 0.17366
 H986 H 0.15577 0.72338 0.09321
 C987 C 0.57383 0.28137 0.63238
 C988 C 0.57038 0.25717 0.60287
 C989 C 0.60116 0.23627 0.59234
 C990 C 0.63397 0.23801 0.61246
 C991 C 0.63626 0.26054 0.64341
 C992 C 0.60628 0.28290 0.65240
 H993 H 0.55111 0.29855 0.64058
 H994 H 0.59929 0.21734 0.56964
 H995 H 0.65657 0.22025 0.60523
 H996 H 0.60750 0.30064 0.67601
 C997 C 0.90892 0.25584 0.10793
 C998 C 0.89827 0.23921 0.07483
 C999 C 0.86585 0.21843 0.07413
 C1000 C 0.84319 0.21663 0.10476
 C1001 C 0.85263 0.23502 0.13715
 C1002 C 0.88632 0.25360 0.13895
 H1003 H 0.93373 0.27205 0.10930
 H1004 H 0.85741 0.20438 0.04942
 H1005 H 0.81774 0.20145 0.10285
 H1006 H 0.89424 0.26793 0.16366
 C1007 C 0.36500 0.72152 0.56936
 C1008 C 0.39643 0.74365 0.56807
 C1009 C 0.40720 0.76247 0.60001
 C1010 C 0.38570 0.76078 0.63185
 C1011 C 0.35301 0.74057 0.63198
 C1012 C 0.34345 0.72021 0.60081
 H1013 H 0.35654 0.70578 0.54571
 H1014 H 0.43126 0.77981 0.59987
 H1015 H 0.39351 0.77679 0.65555
 H1016 H 0.31863 0.70390 0.60047
 C1017 C 0.25598 0.08492 0.89617
 C1018 C 0.24805 0.09773 0.93186
 C1019 C 0.23546 0.13397 0.93544
 C1020 C 0.23456 0.15746 0.90577
 C1021 C 0.24501 0.14569 0.87079
 C1022 C 0.25460 0.10879 0.86591
 H1023 H 0.26557 0.05731 0.89174
 H1024 H 0.22608 0.14469 0.96142
 H1025 H 0.22621 0.18539 0.91066
 H1026 H 0.26248 0.09883 0.83913
 C1027 C 0.76267 0.58562 0.39711
 C1028 C 0.74914 0.59736 0.43130
 C1029 C 0.73189 0.63157 0.43342
 C1030 C 0.73094 0.65467 0.40330
 C1031 C 0.74555 0.64377 0.36948
 C1032 C 0.76054 0.60855 0.36629
 H1033 H 0.77616 0.55942 0.39451
 H1034 H 0.71985 0.64110 0.45877
 H1035 H 0.71947 0.68163 0.40689
 H1036 H 0.77213 0.59948 0.34055
 C1037 C 0.72035 0.06170 0.13261
 C1038 C 0.73660 0.06278 0.09756
 C1039 C 0.75000 0.09684 0.08492
 C1040 C 0.74992 0.12765 0.10786
 C1041 C 0.73633 0.12507 0.14371
 C1042 C 0.72051 0.09215 0.15528
 H1043 H 0.70714 0.03729 0.14289
 H1044 H 0.76294 0.09938 0.05839
 H1045 H 0.76207 0.15288 0.09822
 H1046 H 0.70854 0.08970 0.18232
 C1047 C 0.28111 0.57675 0.61949
 C1048 C 0.25605 0.57124 0.59096
 C1049 C 0.23102 0.59918 0.58209
 C1050 C 0.22932 0.63101 0.60338
 C1051 C 0.25270 0.63503 0.63358
 C1052 C 0.27955 0.60847 0.64039
 H1053 H 0.30112 0.55598 0.62632
 H1054 H 0.21145 0.59543 0.56009
 H1055 H 0.20845 0.65126 0.59769
 H1056 H 0.29860 0.61187 0.66277
 C1057 C 0.76578 0.90243 0.90465
 C1058 C 0.74798 0.93487 0.89384
 C1059 C 0.72958 0.93533 0.85997
 C1060 C 0.73060 0.90512 0.83673
 C1061 C 0.74930 0.87320 0.84696
 C1062 C 0.76619 0.87178 0.88153
 H1063 H 0.78042 0.90112 0.93041
 H1064 H 0.71454 0.95925 0.85114
 H1065 H 0.71673 0.90678 0.81054
 H1066 H 0.78085 0.84751 0.89007
 C1067 C 0.26860 0.39589 0.40909
 C1068 C 0.24506 0.42488 0.39938
 C1069 C 0.22097 0.42016 0.36978
 C1070 C 0.22200 0.38844 0.34885
 C1071 C 0.24679 0.36032 0.35718
 C1072 C 0.26936 0.36369 0.38814
 H1073 H 0.28751 0.39876 0.43177
 H1074 H 0.20181 0.44146 0.36223
 H1075 H 0.20402 0.38628 0.32531
 H1076 H 0.28889 0.34243 0.39485
 C1077 C 0.27293 0.86944 0.06910
 C1078 C 0.24825 0.89860 0.06569
 C1079 C 0.22654 0.90825 0.09616
 C1080 C 0.22829 0.88775 0.12872
 C1081 C 0.25177 0.85746 0.13104
 C1082 C 0.27459 0.84915 0.10122
 H1083 H 0.29085 0.86204 0.04665
 H1084 H 0.20738 0.93076 0.09438
 H1085 H 0.21013 0.89437 0.15122
 H1086 H 0.29316 0.82609 0.10243
 C1087 C 0.77494 0.36933 0.57209
 C1088 C 0.75090 0.39899 0.56841
 C1089 C 0.72992 0.40982 0.59899
 C1090 C 0.73194 0.39025 0.63205
 C1091 C 0.75486 0.35959 0.63478
 C1092 C 0.77679 0.34987 0.60473
 H1093 H 0.79233 0.36099 0.54955
 H1094 H 0.71117 0.43265 0.59701
 H1095 H 0.71444 0.39793 0.65473
 H1096 H 0.79493 0.32647 0.60623
 C1097 C 0.07405 0.13388 0.78229
 C1098 C 0.07109 0.10471 0.75744
 C1099 C 0.10141 0.09657 0.73488
 C1100 C 0.13320 0.11828 0.73610
 C1101 C 0.13486 0.14863 0.75952
 C1102 C 0.10531 0.15571 0.78304
 H1103 H 0.05184 0.14026 0.80089
 H1104 H 0.10006 0.07437 0.71536
 H1105 H 0.15564 0.11250 0.71756
 H1106 H 0.10617 0.17873 0.80169
 C1107 C 0.60085 0.59116 0.26994
 C1108 C 0.57090 0.60040 0.24729
 C1109 C 0.57428 0.63058 0.22378
 C1110 C 0.60565 0.65220 0.22430
 C1111 C 0.63489 0.64403 0.24791
 C1112 C 0.63275 0.61279 0.27013
 H1113 H 0.59913 0.56807 0.28838
 H1114 H 0.55237 0.63781 0.20511
 H1115 H 0.60682 0.67588 0.20654
 H1116 H 0.65489 0.60614 0.28874
 C1117 C 0.12923 0.92396 0.27074
 C1118 C 0.10038 0.92819 0.24565
 C1119 C 0.09036 0.89825 0.22355
 C1120 C 0.11019 0.86542 0.22533
 C1121 C 0.14030 0.86224 0.24904
 C1122 C 0.14900 0.89153 0.27227
 H1123 H 0.13690 0.94602 0.28896
 H1124 H 0.06817 0.90064 0.20399
 H1125 H 0.10322 0.84343 0.20693
 H1126 H 0.17197 0.88968 0.29103
 C1127 C 0.59048 0.40476 0.73006
 C1128 C 0.60195 0.43643 0.74889
 C1129 C 0.63348 0.43442 0.77088
 C1130 C 0.65408 0.40252 0.77251
 C1131 C 0.64362 0.37137 0.75264
 C1132 C 0.61106 0.37237 0.73215
 H1133 H 0.56625 0.40528 0.71294
 H1134 H 0.64243 0.45768 0.78688
 H1135 H 0.67876 0.40239 0.78905
 H1136 H 0.60238 0.34878 0.71664
 C1137 C 0.90886 0.09598 0.22770
 C1138 C 0.90252 0.06655 0.25171
 C1139 C 0.87358 0.06906 0.27703
 C1140 C 0.84993 0.09876 0.27667
 C1141 C 0.85514 0.12732 0.25173
 C1142 C 0.88538 0.12640 0.22791
 H1143 H 0.93095 0.09486 0.20793
 H1144 H 0.86867 0.04748 0.29674
 H1145 H 0.82720 0.09927 0.29578
 H1146 H 0.88983 0.14833 0.20850
 C1147 C 0.41255 0.60397 0.75537
 C1148 C 0.40033 0.56919 0.74413
 C1149 C 0.36492 0.56594 0.72935
 C1150 C 0.34124 0.59564 0.72887
 C1151 C 0.35276 0.63009 0.74127
 C1152 C 0.38905 0.63430 0.75355
 H1153 H 0.43962 0.60746 0.76705
 H1154 H 0.35488 0.54005 0.71912
 H1155 H 0.31344 0.59125 0.71952
 H1156 H 0.39865 0.66052 0.76337
 C1157 C 0.89966 0.92034 0.75328
 C1158 C 0.93066 0.91000 0.73269
 C1159 C 0.92828 0.87942 0.70971
 C1160 C 0.89681 0.85794 0.70948
 C1161 C 0.86679 0.86673 0.73186
 C1162 C 0.86778 0.89884 0.75277
 H1163 H 0.90080 0.94381 0.77128
 H1164 H 0.95134 0.87132 0.69288
 H1165 H 0.89642 0.83352 0.69271
 H1166 H 0.84496 0.90598 0.77034
 C1167 C 0.40011 0.41339 0.23300
 C1168 C 0.42989 0.40483 0.25602
 C1169 C 0.42624 0.37643 0.28147
 C1170 C 0.39454 0.35530 0.28216
 C1171 C 0.36598 0.36181 0.25729
 C1172 C 0.36824 0.39188 0.23358
 H1173 H 0.40234 0.43535 0.21325
 H1174 H 0.44843 0.36988 0.30009
 H1175 H 0.39276 0.33291 0.30132
 H1176 H 0.34651 0.39728 0.21409
   
