data_POSCAR
  _audit_creation_date              2014-09-24
  _audit_creation_method            'ToBaCCo'
  _symmetry_space_group_name_H-M    'P1'
  _symmetry_Int_Tables_number       1
  _symmetry_cell_setting            triclinic
  loop_
  _symmetry_equiv_pos_as_xyz
 x,y,z
_cell_length_a 42.2664
_cell_length_b 41.7694
_cell_length_c 17.2839
_cell_angle_alpha 89.265000
_cell_angle_beta 90.451200
_cell_angle_gamma 119.991600
loop_
  _atom_site_label
  _atom_site_type_symbol
  _atom_site_fract_x
  _atom_site_fract_y
  _atom_site_fract_z
C1 C 0.18006 0.41992 0.49256
 C2 C 0.19629 0.42071 0.42106
 C3 C 0.23461 0.43730 0.41716
 C4 C 0.25651 0.45382 0.48314
 C5 C 0.23945 0.45832 0.54886
 C6 C 0.20125 0.44030 0.55589
 C7 C 0.29629 0.46445 0.48686
 C8 C 0.31319 0.46844 0.55996
 C9 C 0.34974 0.47847 0.56595
 C10 C 0.36958 0.48182 0.50010
 C11 C 0.35460 0.47859 0.42603
 C12 C 0.31777 0.47018 0.41959
 H13 H 0.15066 0.40747 0.49613
 H14 H 0.24666 0.43548 0.36366
 H15 H 0.25593 0.47452 0.59647
 H16 H 0.29868 0.46393 0.61370
 H17 H 0.39796 0.48938 0.50767
 H18 H 0.30643 0.46926 0.36304
 C19 C 0.57728 -0.24933 0.47913
 C20 C 0.55931 -0.24463 0.41465
 C21 C 0.53824 -0.22751 0.42592
 C22 C 0.53543 -0.21474 0.49919
 C23 C 0.55142 -0.22248 0.56324
 C24 C 0.57174 -0.24050 0.55451
 C25 C 0.51660 -0.19265 0.50818
 C26 C 0.50079 -0.19184 0.57957
 C27 C 0.48587 -0.16881 0.58868
 C28 C 0.48534 -0.14757 0.52645
 C29 C 0.50041 -0.14801 0.45511
 C30 C 0.51607 -0.17041 0.44613
 H31 H 0.59186 -0.26418 0.47130
 H32 H 0.52468 -0.22317 0.37719
 H33 H 0.54930 -0.21344 0.62032
 H34 H 0.50027 -0.20848 0.62849
 H35 H 0.47330 -0.13019 0.53423
 H36 H 0.52908 -0.16900 0.39158
 C37 C 1.23525 0.83056 0.51459
 C38 C 1.22142 0.81426 0.44203
 C39 C 1.19201 0.77752 0.44117
 C40 C 1.17960 0.75585 0.50941
 C41 C 1.19597 0.77254 0.58025
 C42 C 1.22319 0.80993 0.58364
 C43 C 1.15094 0.71555 0.50595
 C44 C 1.13022 0.69640 0.57227
 C45 C 1.10554 0.65798 0.57104
 C46 C 1.09847 0.64013 0.49942
 C47 C 1.11933 0.65772 0.43385
 C48 C 1.14579 0.69524 0.43744
 H49 H 1.25749 0.85886 0.51761
 H50 H 1.17818 0.76583 0.38743
 H51 H 1.18795 0.75659 0.63327
 H52 H 1.13305 0.71134 0.62458
 H53 H 1.07831 0.61106 0.49520
 H54 H 1.16326 0.70782 0.38781
 C55 C 0.88217 0.50707 0.50541
 C56 C 0.87905 0.52243 0.43544
 C57 C 0.85428 0.53567 0.43084
 C58 C 0.83114 0.53124 0.49395
 C59 C 0.83407 0.51394 0.56249
 C60 C 0.86001 0.50266 0.56812
 C61 C 0.80388 0.54419 0.48830
 C62 C 0.79183 0.55365 0.55550
 C63 C 0.76532 0.56465 0.55223
 C64 C 0.75372 0.56990 0.47878
 C65 C 0.76475 0.56002 0.41104
 C66 C 0.78915 0.54651 0.41637
 H67 H 0.90128 0.49703 0.51136
 H68 H 0.85331 0.54964 0.37869
 H69 H 0.81613 0.50856 0.61120
 H70 H 0.80408 0.55370 0.61056
 H71 H 0.73367 0.57878 0.47407
 H72 H 0.79639 0.53778 0.36402
 C73 C 0.47064 0.36260 0.48877
 C74 C 0.47490 0.34705 0.42160
 C75 C 0.46781 0.31057 0.42409
 C76 C 0.45552 0.28921 0.49312
 C77 C 0.45484 0.30718 0.56198
 C78 C 0.46470 0.34487 0.56106
 C79 C 0.44466 0.24887 0.49280
 C80 C 0.44475 0.23004 0.56132
 C81 C 0.43322 0.19187 0.56158
 C82 C 0.42335 0.17322 0.49032
 C83 C 0.42570 0.19187 0.42071
 C84 C 0.43442 0.22889 0.42302
 H85 H 0.47546 0.39057 0.48491
 H86 H 0.47318 0.29958 0.37280
 H87 H 0.44607 0.29199 0.61573
 H88 H 0.45314 0.24500 0.61464
 H89 H 0.41628 0.14448 0.48790
 H90 H 0.43298 0.24175 0.36952
 C91 C 0.63466 0.13524 0.51653
 C92 C 0.65036 0.15213 0.44573
 C93 C 0.68681 0.18097 0.44373
 C94 C 0.70857 0.19143 0.51150
 C95 C 0.69183 0.17365 0.58213
 C96 C 0.65475 0.14672 0.58540
 C97 C 0.74866 0.21964 0.50885
 C98 C 0.76721 0.23864 0.57619
 C99 C 0.80554 0.26089 0.57823
 C100 C 0.82523 0.26664 0.50904
 C101 C 0.80682 0.25208 0.43891
 C102 C 0.76901 0.22725 0.44003
 H103 H 0.60613 0.11386 0.51817
 H104 H 0.69796 0.19440 0.38881
 H105 H 0.70741 0.17957 0.63507
 H106 H 0.75196 0.23471 0.62854
 H107 H 0.85455 0.28513 0.50838
 H108 H 0.75596 0.21394 0.38654
 O109 O 0.96680 0.42816 -0.14685
 O110 O 1.04661 0.46353 0.15980
 O111 O 0.96509 0.45675 0.08338
 O112 O 1.05505 0.50573 -0.07267
 O113 O 0.98007 0.42920 0.16825
 O114 O 1.03240 0.46348 -0.16067
 O115 O 1.07024 0.50742 0.07179
 O116 O 0.96348 0.45824 -0.05264
 C117 C 0.95948 0.45162 -0.12217
 C118 C 1.06438 0.49729 0.14116
 C119 C 0.97137 0.45300 0.15157
 C120 C 1.04337 0.49619 -0.13977
 O121 O 1.03737 0.40445 -0.11012
 O122 O 0.97865 0.36985 0.10535
 O123 O 0.93072 0.38248 -0.05607
 O124 O 1.08852 0.45634 0.05006
 O125 O 1.04875 0.40573 0.11148
 O126 O 0.97265 0.37099 -0.08550
 O127 O 1.08054 0.45971 -0.09330
 O128 O 0.93578 0.38251 0.08486
 Co129 Co 1.00284 0.41815 -0.11517
 Co130 Co 1.01263 0.41812 0.12329
 Co131 Co 0.95371 0.42083 0.01363
 Co132 Co 1.06728 0.47761 -0.01041
 O133 O 1.00941 0.43378 0.00335
 C134 C 1.06966 0.42822 -0.12014
 C135 C 0.94591 0.36083 0.11118
 C136 C 0.93984 0.36115 -0.08620
 C137 C 1.08099 0.42827 0.09213
 O138 O 0.56563 0.54288 -0.17545
 O139 O 0.55217 0.57681 0.15522
 O140 O 0.56368 0.50196 0.05870
 O141 O 0.50166 0.54404 -0.05949
 O142 O 0.58722 0.54583 0.14412
 O143 O 0.53226 0.57577 -0.15566
 O144 O 0.51087 0.54468 0.07405
 O145 O 0.55902 0.50037 -0.09082
 C146 C 0.55356 0.50942 -0.15672
 C147 C 0.52023 0.55176 0.14201
 C148 C 0.56812 0.51208 0.12746
 C149 C 0.50360 0.54939 -0.12959
 O150 O 0.59450 0.63536 -0.10716
 O151 O 0.64271 0.60656 0.07993
 O152 O 0.62733 0.55394 -0.09939
 O153 O 0.54913 0.62032 0.07301
 O154 O 0.60556 0.63644 0.07832
 O155 O 0.62809 0.60311 -0.14660
 O156 O 0.54128 0.62054 -0.06491
 O157 O 0.63324 0.55306 0.04699
 Co158 Co 0.57962 0.58815 -0.13346
 Co159 Co 0.59495 0.59002 0.10350
 Co160 Co 0.59377 0.53179 -0.01989
 Co161 Co 0.52991 0.58184 0.00414
 O162 O 0.57511 0.57298 -0.01185
 C163 C 0.57052 0.64373 -0.09774
 C164 C 0.65339 0.58382 0.07811
 C165 C 0.64097 0.58198 -0.14383
 C166 C 0.58126 0.64417 0.08965
 O167 O 0.47426 0.03350 -0.14049
 O168 O 0.42673 -0.05078 0.15320
 O169 O 0.49289 0.06245 0.09457
 O170 O 0.41124 -0.07921 -0.08101
 O171 O 0.47842 0.00917 0.13953
 O172 O 0.45691 -0.02975 -0.12095
 O173 O 0.43223 -0.07318 0.04879
 O174 O 0.50518 0.05378 -0.03805
 C175 C 0.50426 0.04659 -0.10756
 C176 C 0.43895 -0.06809 0.11848
 C177 C 0.50087 0.04248 0.13536
 C178 C 0.44172 -0.06355 -0.11299
 O179 O 0.38616 -0.04684 -0.13953
 O180 O 0.43453 0.03833 0.15163
 O181 O 0.44997 0.06685 -0.08511
 O182 O 0.36942 -0.07483 0.09688
 O183 O 0.38216 -0.02192 0.13716
 O184 O 0.40472 0.01703 -0.12758
 O185 O 0.35734 -0.06526 -0.03377
 O186 O 0.43157 0.06344 0.04635
 Co187 Co 0.43045 -0.00670 -0.11854
 Co188 Co 0.43037 -0.00631 0.13180
 Co189 Co 0.46603 0.05486 0.00454
 Co190 Co 0.39631 -0.06638 0.00763
 O191 O 0.43060 -0.00605 0.00645
 C192 C 0.35653 -0.06191 -0.10462
 C193 C 0.42508 0.05833 0.11637
 C194 C 0.42187 0.05123 -0.12653
 C195 C 0.36090 -0.05557 0.13685
 C196 C 1.16225 0.42600 0.23009
 C197 C 1.12540 0.39861 0.23718
 N198 N 1.11431 0.37548 0.29924
 C199 C 1.13789 0.37974 0.35715
 C200 C 1.17441 0.40898 0.35388
 N201 N 1.18599 0.43043 0.28831
 N202 N 1.17258 0.45056 0.17005
 C203 C 1.14750 0.44993 0.11893
 C204 C 1.11024 0.42391 0.12912
 N205 N 1.10052 0.39833 0.18700
 H206 H 1.12779 0.36123 0.40669
 H207 H 1.15628 0.47095 0.07405
 C208 C 0.59102 0.71824 0.26200
 C209 C 0.56189 0.70487 0.20946
 N210 N 0.53399 0.71140 0.22187
 C211 C 0.53334 0.72991 0.28552
 C212 C 0.56127 0.74112 0.34195
 N213 N 0.58965 0.73522 0.32723
 N214 N 0.61914 0.71202 0.24943
 C215 C 0.61869 0.69163 0.18826
 C216 C 0.58797 0.67538 0.13923
 N217 N 0.56057 0.68308 0.15041
 H218 H 0.50969 0.73293 0.29398
 H219 H 0.64081 0.68589 0.18166
 C220 C 0.28431 -0.10964 0.31540
 C221 C 0.28145 -0.12789 0.24608
 N222 N 0.25644 -0.16434 0.24028
 C223 C 0.23471 -0.18368 0.30113
 C224 C 0.23884 -0.16602 0.37307
 N225 N 0.26349 -0.12907 0.37686
 N226 N 0.30952 -0.07331 0.32194
 C227 C 0.33265 -0.05453 0.26275
 C228 C 0.33119 -0.07310 0.19425
 N229 N 0.30528 -0.10947 0.18754
 H230 H 0.21648 -0.21293 0.29372
 H231 H 0.35355 -0.02612 0.27139
 C232 C 0.94142 0.50206 0.32535
 C233 C 0.92911 0.50029 0.24933
 N234 N 0.90370 0.51032 0.23349
 C235 C 0.88898 0.52079 0.29090
 C236 C 0.89989 0.52075 0.36814
 N237 N 0.92665 0.51225 0.38219
 N238 N 0.96515 0.49002 0.34254
 C239 C 0.97648 0.47529 0.28707
 C240 C 0.96332 0.47240 0.21123
 N241 N 0.94042 0.48563 0.19391
 H242 H 0.86747 0.52666 0.27638
 H243 H 0.99479 0.46513 0.30240
 C244 C 0.52658 0.43377 0.30915
 C245 C 0.51938 0.42202 0.23230
 N246 N 0.49844 0.38526 0.21742
 C247 C 0.48414 0.35984 0.27622
 C248 C 0.49096 0.37186 0.35343
 N249 N 0.51239 0.40863 0.36694
 N250 N 0.54693 0.47020 0.32530
 C251 C 0.56055 0.49579 0.26770
 C252 C 0.55349 0.48445 0.19021
 N253 N 0.53303 0.44764 0.17419
 H254 H 0.46698 0.33090 0.26273
 H255 H 0.57667 0.52471 0.28252
 C256 C 0.58453 0.08679 0.30345
 C257 C 0.58004 0.11044 0.25183
 N258 N 0.60059 0.14763 0.26132
 C259 C 0.62491 0.16214 0.32090
 C260 C 0.62813 0.13834 0.37461
 N261 N 0.60796 0.10119 0.36381
 N262 N 0.56426 0.04971 0.29450
 C263 C 0.53890 0.03499 0.23741
 C264 C 0.53278 0.05835 0.18777
 N265 N 0.55396 0.09574 0.19566
 H266 H 0.64037 0.19181 0.32816
 H267 H 0.52269 0.00526 0.23293
 C268 C 0.41110 0.11374 -0.30754
 C269 C 0.43184 0.13127 -0.24183
 N270 N 0.45152 0.16872 -0.24033
 C271 C 0.45178 0.18956 -0.30183
 C272 C 0.43210 0.17212 -0.36993
 N273 N 0.41212 0.13438 -0.36971
 N274 N 0.39132 0.07629 -0.30940
 C275 C 0.39206 0.05548 -0.24905
 C276 C 0.41431 0.07285 -0.18440
 N277 N 0.43348 0.11053 -0.18231
 H278 H 0.46894 0.21916 -0.29798
 H279 H 0.37706 0.02570 -0.25359
 C280 C 0.71289 0.59044 -0.32103
 C281 C 0.70960 0.56990 -0.25370
 N282 N 0.72720 0.55026 -0.24945
 C283 C 0.74739 0.54966 -0.30984
 C284 C 0.74904 0.56853 -0.37980
 N285 N 0.73170 0.58865 -0.38247
 N286 N 0.69604 0.61074 -0.32520
 C287 C 0.67515 0.61065 -0.26588
 C288 C 0.66969 0.58817 -0.20007
 N289 N 0.68746 0.56851 -0.19534
 H290 H 0.75962 0.53239 -0.30436
 H291 H 0.66134 0.62646 -0.27214
 C292 C 0.87666 0.29728 -0.27275
 C293 C 0.86100 0.30883 -0.21623
 N294 N 0.82695 0.30351 -0.22760
 C295 C 0.80780 0.28726 -0.29299
 C296 C 0.82395 0.27695 -0.35190
 N297 N 0.85825 0.28248 -0.33960
 N298 N 0.91033 0.30169 -0.26050
 C299 C 0.92965 0.31841 -0.19559
 C300 C 0.91531 0.33284 -0.14166
 N301 N 0.88090 0.32708 -0.15302
 H302 H 0.78115 0.28455 -0.30021
 H303 H 0.95699 0.32271 -0.18907
 C304 C 0.48496 -0.11692 -0.24347
 C305 C 0.44757 -0.13529 -0.22547
 N306 N 0.42464 -0.16783 -0.26050
 C307 C 0.43721 -0.18207 -0.31484
 C308 C 0.47422 -0.16256 -0.33602
 N309 N 0.49722 -0.13068 -0.29884
 N310 N 0.50775 -0.08366 -0.21148
 C311 C 0.49469 -0.06716 -0.16446
 C312 C 0.45700 -0.08429 -0.15006
 N313 N 0.43435 -0.11849 -0.17947
 H314 H 0.41810 -0.20685 -0.34528
 H315 H 0.51338 -0.04027 -0.14089
 C316 C 0.41221 0.49107 -0.27329
 C317 C 0.42584 0.52868 -0.25763
 N318 N 0.41005 0.54675 -0.29112
 C319 C 0.38199 0.52925 -0.34179
 C320 C 0.37009 0.49247 -0.36184
 N321 N 0.38534 0.47408 -0.32670
 N322 N 0.42743 0.47280 -0.23791
 C323 C 0.45622 0.49072 -0.18888
 C324 C 0.47144 0.52885 -0.17791
 N325 N 0.45553 0.54685 -0.21153
 H326 H 0.37096 0.54470 -0.37072
 H327 H 0.46775 0.47563 -0.16055
 C328 C 1.05673 0.57434 -0.31160
 C329 C 1.07264 0.58620 -0.23870
 N330 N 1.09560 0.62287 -0.22700
 C331 C 1.10462 0.64805 -0.28584
 C332 C 1.09090 0.63580 -0.36126
 N333 N 1.06632 0.59915 -0.37012
 N334 N 1.03466 0.53781 -0.32508
 C335 C 1.02862 0.51227 -0.26932
 C336 C 1.04592 0.52374 -0.19704
 N337 N 1.06702 0.56065 -0.18281
 H338 H 1.12431 0.67655 -0.27403
 H339 H 1.01131 0.48325 -0.28217
 C340 C 0.90679 0.49456 -0.26049
 C341 C 0.89664 0.45705 -0.26397
 N342 N 0.86994 0.43443 -0.31352
 C343 C 0.85379 0.44792 -0.36189
 C344 C 0.86546 0.48586 -0.36195
 N345 N 0.89153 0.50824 -0.31059
 N346 N 0.93355 0.51718 -0.21091
 C347 C 0.95085 0.50400 -0.16504
 C348 C 0.94178 0.46687 -0.17097
 N349 N 0.91462 0.44417 -0.21988
 H350 H 0.83414 0.42983 -0.40418
 H351 H 0.97205 0.52245 -0.12571
 C352 C 0.49610 0.42823 -0.32538
 C353 C 0.50340 0.41789 -0.25321
 N354 N 0.49360 0.38189 -0.24020
 C355 C 0.47804 0.35608 -0.29712
 C356 C 0.47275 0.36699 -0.37176
 N357 N 0.48124 0.40286 -0.38163
 N358 N 0.50649 0.46403 -0.34056
 C359 C 0.52461 0.49042 -0.28687
 C360 C 0.53295 0.48065 -0.21455
 N361 N 0.52169 0.44432 -0.19898
 H362 H 0.47224 0.32826 -0.28474
 H363 H 0.53259 0.51879 -0.30094
 C364 C 0.58641 0.08122 -0.27458
 C365 C 0.59173 0.10393 -0.21078
 N366 N 0.62016 0.13924 -0.21164
 C367 C 0.64274 0.15311 -0.27414
 C368 C 0.63602 0.13095 -0.33989
 N369 N 0.60824 0.09531 -0.33742
 N370 N 0.55753 0.04644 -0.27582
 C371 C 0.53284 0.03362 -0.21756
 C372 C 0.53665 0.05675 -0.15542
 N373 N 0.56649 0.09139 -0.15278
 H374 H 0.66427 0.18175 -0.27423
 H375 H 0.50903 0.00644 -0.22257
 C376 C 1.13024 0.41625 -0.29837
 C377 C 1.14705 0.44609 -0.24757
 N378 N 1.18206 0.47295 -0.26062
 C379 C 1.20105 0.47157 -0.32249
 C380 C 1.18387 0.44228 -0.37593
 N381 N 1.14870 0.41539 -0.36138
 N382 N 1.09537 0.38909 -0.28517
 C383 C 1.07615 0.39091 -0.22439
 C384 C 1.09218 0.42184 -0.17562
 N385 N 1.12754 0.44859 -0.18818
 H386 H 1.22838 0.49440 -0.33137
 H387 H 1.04803 0.36929 -0.21668
 C388 C 0.56772 0.72066 -0.25270
 C389 C 0.59474 0.71074 -0.25799
 N390 N 0.61632 0.72064 -0.32152
 C391 C 0.61114 0.73865 -0.38194
 C392 C 0.58263 0.74700 -0.37945
 N393 N 0.56251 0.73875 -0.31303
 N394 N 0.54481 0.70886 -0.19082
 C395 C 0.54691 0.68645 -0.13541
 C396 C 0.57297 0.67512 -0.14257
 N397 N 0.59672 0.68836 -0.20309
 H398 H 0.62916 0.74610 -0.43121
 H399 H 0.52730 0.67610 -0.08862
 C400 C 0.27539 -0.11761 -0.26984
 C401 C 0.28214 -0.13752 -0.21244
 N402 N 0.26754 -0.17457 -0.21985
 C403 C 0.24701 -0.19260 -0.28267
 C404 C 0.24121 -0.17257 -0.34199
 N405 N 0.25540 -0.13547 -0.33313
 N406 N 0.29126 -0.08034 -0.26434
 C407 C 0.31462 -0.06190 -0.20544
 C408 C 0.32283 -0.08150 -0.14987
 N409 N 0.30599 -0.11902 -0.15431
 H410 H 0.23707 -0.22188 -0.28770
 H411 H 0.32832 -0.03204 -0.20440
 C412 C 0.47955 -0.12063 0.26455
 C413 C 0.48408 -0.08589 0.28226
 N414 N 0.49799 -0.07045 0.35171
 C415 C 0.50627 -0.08883 0.40596
 C416 C 0.49933 -0.12481 0.39106
 N417 N 0.48692 -0.13958 0.31966
 N418 N 0.46524 -0.13591 0.19469
 C419 C 0.45427 -0.11845 0.14291
 C420 C 0.45671 -0.08480 0.16315
 N421 N 0.47210 -0.06926 0.23196
 H422 H 0.51669 -0.07610 0.46154
 H423 H 0.44191 -0.13166 0.08873
 C424 C 0.44175 0.51316 0.31921
 C425 C 0.43074 0.50693 0.24185
 N426 N 0.39452 0.49072 0.22441
 C427 C 0.36883 0.48073 0.28112
 C428 C 0.37996 0.48750 0.35917
 N429 N 0.41635 0.50346 0.37496
 N430 N 0.47772 0.52968 0.33772
 C431 C 0.50355 0.54097 0.28175
 C432 C 0.49287 0.53561 0.20374
 N433 N 0.45654 0.51836 0.18558
 H434 H 0.34035 0.46766 0.26499
 H435 H 0.53211 0.55471 0.29798
 C436 C 1.09774 0.57437 0.32191
 C437 C 1.09963 0.58625 0.24505
 N438 N 1.11012 0.62231 0.23021
 C439 C 1.11820 0.64677 0.28900
 C440 C 1.11512 0.63442 0.36619
 N441 N 1.10540 0.59852 0.37986
 N442 N 1.08681 0.53853 0.33796
 C443 C 1.07705 0.51359 0.28044
 C444 C 1.07794 0.52490 0.20310
 N445 N 1.08962 0.56123 0.18706
 H446 H 1.12558 0.67504 0.27565
 H447 H 1.06810 0.48506 0.29527
 C448 C 0.40174 0.11712 0.27836
 C449 C 0.42656 0.13620 0.21830
 N450 N 0.44763 0.17355 0.22165
 C451 C 0.44581 0.19256 0.28327
 C452 C 0.42253 0.17327 0.34587
 N453 N 0.40067 0.13593 0.34083
 N454 N 0.38133 0.07975 0.27644
 C455 C 0.38568 0.06045 0.21891
 C456 C 0.41217 0.07914 0.16150
 N457 N 0.43163 0.11681 0.16172
 H458 H 0.46413 0.22212 0.28543
 H459 H 0.37003 0.03065 0.22015
 C460 C 0.72749 0.59229 0.25155
 C461 C 0.71092 0.56111 0.20394
 N462 N 0.71456 0.53135 0.22167
 C463 C 0.73341 0.53104 0.28566
 C464 C 0.74850 0.56151 0.33567
 N465 N 0.74536 0.59158 0.31672
 N466 N 0.72371 0.62197 0.23421
 C467 C 0.70300 0.62144 0.17306
 C468 C 0.68420 0.58929 0.12823
 N469 N 0.68926 0.56008 0.14426
 H470 H 0.73509 0.50658 0.29931
 H471 H 0.69940 0.64504 0.16274
 C472 C 0.88047 0.28917 0.28957
 C473 C 0.86515 0.30135 0.23211
 N474 N 0.83040 0.29442 0.24028
 C475 C 0.81045 0.27654 0.30406
 C476 C 0.82625 0.26597 0.36397
 N477 N 0.86100 0.27240 0.35479
 N478 N 0.91529 0.29620 0.28108
 C479 C 0.93591 0.31596 0.21923
 C480 C 0.92152 0.33057 0.16443
 N481 N 0.88614 0.32227 0.17197
 H482 H 0.78317 0.27240 0.30973
 H483 H 0.96402 0.32231 0.21588
   
