data_POSCAR
  _audit_creation_date              2014-09-24
  _audit_creation_method            'ToBaCCo'
  _symmetry_space_group_name_H-M    'P1'
  _symmetry_Int_Tables_number       1
  _symmetry_cell_setting            triclinic
  loop_
  _symmetry_equiv_pos_as_xyz
 x,y,z
_cell_length_a 24.3470
_cell_length_b 22.3888
_cell_length_c 21.7415
_cell_angle_alpha 91.361600
_cell_angle_beta 87.394000
_cell_angle_gamma 90.574100
loop_
  _atom_site_label
  _atom_site_type_symbol
  _atom_site_fract_x
  _atom_site_fract_y
  _atom_site_fract_z
C1 C 0.32197 0.37771 1.42359
 C2 C 0.35990 0.33393 1.43881
 C3 C 0.41452 0.33498 1.41422
 C4 C 0.43013 0.37947 1.37196
 C5 C 0.39239 0.42219 1.35479
 C6 C 0.33927 0.42240 1.38241
 H7 H 0.34687 0.29974 1.47079
 H8 H 0.47134 0.38010 1.35092
 H9 H 0.31048 0.45529 1.36823
 C10 C 1.17635 0.58265 0.90663
 C11 C 1.13886 0.56472 0.86237
 C12 C 1.09197 0.59821 0.85267
 C13 C 1.08167 0.65028 0.88837
 C14 C 1.11904 0.66981 0.93241
 C15 C 1.16589 0.63535 0.94161
 H16 H 1.14616 0.52447 0.83466
 H17 H 1.04550 0.67618 0.88037
 H18 H 1.19453 0.65043 0.97539
 C19 C 0.67871 -0.10676 0.05090
 C20 C 0.63964 -0.15007 0.03326
 C21 C 0.58688 -0.15229 0.06302
 C22 C 0.57351 -0.10999 0.11004
 C23 C 0.61236 -0.06802 0.12924
 C24 C 0.66397 -0.06560 0.09864
 H25 H 0.65064 -0.18234 -0.00298
 H26 H 0.53361 -0.11143 0.13416
 H27 H 0.69305 -0.03243 0.11416
 C28 C -0.17264 1.07211 -0.39515
 C29 C -0.15959 1.12557 -0.42489
 C30 C -0.11424 1.16088 -0.40780
 C31 C -0.08192 1.14173 -0.35995
 C32 C -0.09312 1.08662 -0.33266
 C33 C -0.13819 1.05223 -0.35026
 H34 H -0.18532 1.14020 -0.46084
 H35 H -0.04641 1.16739 -0.34620
 H36 H -0.14681 1.01019 -0.32787
 C37 C 0.67961 0.58338 0.57079
 C38 C 0.65015 0.56226 0.62304
 C39 C 0.59894 0.58599 0.64124
 C40 C 0.57728 0.63218 0.60772
 C41 C 0.60647 0.65438 0.55580
 C42 C 0.65776 0.62972 0.53725
 H43 H 0.66612 0.52552 0.64827
 H44 H 0.53715 0.64994 0.62126
 H45 H 0.67987 0.64553 0.49633
 C46 C 0.81092 0.42843 0.10458
 C47 C 0.81579 0.36639 0.09764
 C48 C 0.86291 0.33696 0.11653
 C49 C 0.90320 0.37036 0.14744
 C50 C 0.89637 0.43215 0.15886
 C51 C 0.85153 0.46099 0.13461
 H52 H 0.78430 0.34166 0.07389
 H53 H 0.93836 0.34815 0.16500
 H54 H 0.84651 0.50871 0.14192
 C55 C 0.30570 0.11189 0.90176
 C56 C 0.33505 0.08720 0.85004
 C57 C 0.39225 0.09273 0.84416
 C58 C 0.42003 0.12814 0.88662
 C59 C 0.39125 0.15622 0.93619
 C60 C 0.33455 0.14525 0.94596
 H61 H 0.31391 0.06053 0.81602
 H62 H 0.46399 0.13540 0.88004
 H63 H 0.31244 0.16727 0.98435
 C64 C 0.19235 0.91631 0.39373
 C65 C 0.15194 0.93911 0.35673
 C66 C 0.10166 0.90907 0.35023
 C67 C 0.09081 0.85636 0.38246
 C68 C 0.13060 0.83257 0.41943
 C69 C 0.18137 0.86254 0.42432
 H70 H 0.15961 0.98021 0.33230
 H71 H 0.05183 0.83343 0.37767
 H72 H 0.21187 0.84424 0.45305
 Zn73 Zn -0.00111 1.07764 -0.02337
 Zn74 Zn -0.01921 0.95077 -0.04074
 Zn75 Zn 0.06106 0.99260 0.04873
 Zn76 Zn -0.05586 1.01055 0.07563
 O77 O -0.00371 1.00789 0.01568
 O78 O -0.03259 1.07061 -0.09682
 O79 O 0.02092 0.88521 -0.03418
 O80 O 0.11634 1.03727 0.01467
 O81 O -0.00613 0.97774 -0.11667
 O82 O 0.06870 1.09770 -0.04223
 O83 O 0.08051 0.91566 0.03424
 O84 O -0.03190 0.98063 0.14503
 O85 O -0.09028 0.92704 -0.03475
 O86 O 0.05692 1.00195 0.13144
 O87 O -0.11540 0.96951 0.05512
 O88 O -0.07957 1.08502 0.09180
 O89 O -0.03496 1.13786 0.01996
 C90 C -0.02214 1.02781 -0.13497
 C91 C 0.06108 0.87510 -0.00080
 C92 C 0.11416 1.07705 -0.02609
 C93 C 0.01611 0.98463 0.16553
 C94 C -0.12644 0.93783 0.00796
 C95 C -0.06873 1.13447 0.06624
 Zn96 Zn 0.48901 -0.05615 0.43302
 Zn97 Zn 0.53673 -0.04277 0.55494
 Zn98 Zn 0.56427 0.04774 0.46024
 Zn99 Zn 0.45180 0.04281 0.52025
 O100 O 0.51035 -0.00197 0.49179
 O101 O 0.50765 -0.13185 0.44894
 O102 O 0.60667 -0.02618 0.56622
 O103 O 0.57979 0.03175 0.38080
 O104 O 0.53608 -0.12186 0.54379
 O105 O 0.52149 -0.04160 0.35919
 O106 O 0.62822 0.04344 0.49862
 O107 O 0.45915 0.12003 0.50101
 O108 O 0.50320 -0.02464 0.62698
 O109 O 0.54410 0.12430 0.46068
 O110 O 0.44072 0.04102 0.60281
 O111 O 0.38951 0.01953 0.48622
 O112 O 0.41593 -0.05496 0.42280
 C113 C 0.52709 -0.15401 0.49650
 C114 C 0.64114 0.00965 0.54170
 C115 C 0.55903 -0.00475 0.34271
 C116 C 0.49870 0.14912 0.47571
 C117 C 0.46544 0.01194 0.64261
 C118 C 0.37889 -0.02069 0.44631
 Zn119 Zn 1.01897 0.43220 0.44942
 Zn120 Zn 1.07052 0.51811 0.53596
 Zn121 Zn 0.97419 0.55548 0.46571
 Zn122 Zn 0.96505 0.46597 0.56287
 O123 O 1.00816 0.49451 0.50202
 O124 O 1.08819 0.40455 0.45055
 O125 O 1.08877 0.59130 0.51339
 O126 O 0.96941 0.54009 0.38414
 O127 O 1.12677 0.47025 0.51399
 O128 O 1.00440 0.44917 0.37192
 O129 O 1.01380 0.62484 0.47117
 O130 O 0.89608 0.47923 0.54642
 O131 O 1.06466 0.52418 0.61864
 O132 O 0.90265 0.56426 0.49584
 O133 O 0.97680 0.50161 0.63598
 O134 O 0.96999 0.38600 0.56963
 O135 O 0.97337 0.37211 0.46883
 C136 C 1.12955 0.42416 0.47880
 C137 C 1.06253 0.63288 0.48940
 C138 C 0.98266 0.49494 0.35009
 C139 C 0.87386 0.52418 0.52366
 C140 C 1.02228 0.52127 0.65483
 C141 C 0.96156 0.35331 0.52237
 Zn142 Zn 0.46212 0.45913 0.93595
 Zn143 Zn 0.54966 0.54661 0.96575
 Zn144 Zn 0.44126 0.55063 1.03562
 Zn145 Zn 0.51859 0.44951 1.05396
 O146 O 0.49295 0.50150 0.99806
 O147 O 0.49196 0.47537 0.86142
 O148 O 0.54313 0.62443 0.98545
 O149 O 0.37542 0.54639 1.00111
 O150 O 0.55602 0.54247 0.88301
 O151 O 0.39176 0.47644 0.92936
 O152 O 0.46175 0.62726 1.03491
 O153 O 0.48926 0.46324 1.13034
 O154 O 0.61408 0.52562 0.99386
 O155 O 0.42939 0.53473 1.11535
 O156 O 0.59267 0.45305 1.05865
 O157 O 0.49964 0.37316 1.03720
 O158 O 0.46211 0.38023 0.94681
 C159 C 0.52909 0.51229 0.84421
 C160 C 0.50510 0.65319 1.01441
 C161 C 0.35960 0.51327 0.95702
 C162 C 0.45159 0.49843 1.15045
 C163 C 0.62801 0.48711 1.03196
 C164 C 0.47563 0.34947 0.99196
 N165 N 1.19211 0.34130 0.49033
 N166 N 1.24445 0.32825 0.47740
 C167 C 1.26722 0.37520 0.44725
 C168 C 1.22682 0.41779 0.44272
 N169 N 1.18101 0.39471 0.46968
 H170 H 1.22992 0.46152 0.42264
 N171 N 0.28443 0.48039 0.89515
 N172 N 0.23523 0.49806 0.88029
 C173 C 0.22392 0.54871 0.91324
 C174 C 0.26820 0.56113 0.94965
 N175 N 0.30486 0.51756 0.93657
 H176 H 0.27463 0.59911 0.98027
 N177 N -0.19685 0.87196 -0.03545
 N178 N -0.24968 0.85881 -0.02450
 C179 C -0.26776 0.89409 0.02347
 C180 C -0.22396 0.92908 0.04138
 N181 N -0.18091 0.91394 0.00393
 H182 H -0.22237 0.96168 0.07877
 N183 N 0.71421 -0.02999 0.60002
 N184 N 0.76396 -0.01518 0.61741
 C185 C 0.77726 0.03738 0.59126
 C186 C 0.73378 0.05425 0.55678
 N187 N 0.69546 0.01107 0.56379
 H188 H 0.72900 0.09499 0.53183
 N189 N 0.52828 0.24223 0.42894
 N190 N 0.50633 0.29214 0.41020
 C191 C 0.45277 0.29155 0.42943
 C192 C 0.44298 0.23949 0.46158
 N193 N 0.49096 0.21006 0.45986
 H194 H 0.40425 0.22218 0.48032
 N195 N 0.89918 0.27678 0.48755
 N196 N 0.87685 0.22578 0.50572
 C197 C 0.89864 0.21296 0.55982
 C198 C 0.93510 0.25857 0.57455
 N199 N 0.93401 0.29712 0.52816
 H200 H 0.95938 0.26389 0.61483
 N201 N 0.12720 0.80125 0.02918
 N202 N 0.14344 0.74662 0.01272
 C203 C 0.11135 0.72729 -0.03293
 C204 C 0.07470 0.77223 -0.04380
 N205 N 0.08606 0.81739 -0.00429
 H206 H 0.04422 0.77321 -0.07846
 N207 N 0.47541 0.74803 1.05958
 N208 N 0.49662 0.80080 1.07420
 C209 C 0.54878 0.80207 1.05016
 C210 C 0.55849 0.74810 1.01931
 N211 N 0.51193 0.71568 1.02701
 H212 H 0.59683 0.73167 0.99853
 N213 N 0.39499 0.53265 1.23910
 N214 N 0.37838 0.51392 1.29426
 C215 C 0.40610 0.46336 1.30405
 C216 C 0.44047 0.45181 1.25286
 N217 N 0.43208 0.49588 1.21345
 H218 H 0.46524 0.41256 1.24291
 N219 N 0.61659 0.03335 0.25787
 N220 N 0.63131 0.01841 0.20022
 C221 C 0.60177 -0.03075 0.18530
 C222 C 0.56847 -0.04554 0.23583
 N223 N 0.57919 -0.00471 0.28000
 H224 H 0.54227 -0.08454 0.24160
 N225 N -0.01450 0.99416 -0.24168
 N226 N -0.03164 1.00930 -0.29598
 C227 C -0.05709 1.06225 -0.28760
 C228 C -0.05581 1.07887 -0.22620
 N229 N -0.02887 1.03510 -0.19925
 H230 H -0.07648 1.11605 -0.20268
 N231 N 0.98324 0.56181 0.75245
 N232 N 1.00030 0.58438 0.80537
 C233 C 1.05554 0.57937 0.80317
 C234 C 1.07176 0.55326 0.74724
 N235 N 1.02559 0.54288 0.71710
 H236 H 1.11317 0.54387 0.72962
 N237 N 0.78502 0.47773 0.53797
 N238 N 0.73309 0.49146 0.55074
 C239 C 0.72967 0.55136 0.54911
 C240 C 0.78175 0.57431 0.53439
 N241 N 0.81504 0.52647 0.52819
 H242 H 0.79478 0.62066 0.53378
 N243 N 0.71990 0.52904 1.03669
 N244 N 0.76882 0.51557 1.05630
 C245 C 0.76456 0.46014 1.07905
 C246 C 0.71107 0.44000 1.07302
 N247 N 0.68470 0.48446 1.04641
 H248 H 0.69310 0.39771 1.08688
 N249 N 0.16629 1.08693 -0.12152
 N250 N 0.21769 1.09325 -0.14264
 C251 C 0.24843 1.10459 -0.09355
 C252 C 0.21375 1.10471 -0.04100
 N253 N 0.16294 1.09340 -0.06086
 H254 H 0.22463 1.10878 0.00665
 N255 N 0.30109 0.02001 0.39664
 N256 N 0.25101 0.00414 0.38103
 C257 C 0.24215 -0.05226 0.40020
 C258 C 0.28930 -0.07071 0.42769
 N259 N 0.32462 -0.02429 0.42437
 H260 H 0.29749 -0.11310 0.44819
 N261 N 0.55793 -0.24608 0.44466
 N262 N 0.58175 -0.29679 0.45847
 C263 C 0.58227 -0.29793 0.52044
 C264 C 0.55784 -0.24658 0.54417
 N265 N 0.54318 -0.21540 0.49548
 H266 H 0.55389 -0.23185 0.59195
 N267 N 1.13581 0.70269 0.51102
 N268 N 1.15534 0.75517 0.49346
 C269 C 1.12055 0.77631 0.45283
 C270 C 1.07834 0.73472 0.44641
 N271 N 1.08973 0.68956 0.48347
 H272 H 1.04445 0.73563 0.41595
 N273 N -0.15516 1.18512 0.08026
 N274 N -0.17493 1.23921 0.09172
 C275 C -0.13197 1.27525 0.10455
 C276 C -0.08457 1.24097 0.10005
 N277 N -0.10120 1.18517 0.08474
 H278 H -0.04233 1.25546 0.10429
 N279 N 0.44886 0.25814 1.04492
 N280 N 0.42407 0.20642 1.03249
 C281 C 0.41927 0.20361 0.97098
 C282 C 0.44164 0.25484 0.94616
 N283 N 0.45980 0.28773 0.99363
 H284 H 0.44169 0.26839 0.89867
 N285 N 0.50018 0.51169 0.73886
 N286 N 0.51628 0.53287 0.68453
 C287 C 0.56595 0.55856 0.69153
 C288 C 0.58009 0.55229 0.75181
 N289 N 0.53785 0.52280 0.77978
 H290 H 0.61665 0.56874 0.77343
 N291 N 0.48721 0.00782 0.74984
 N292 N 0.47002 0.03004 0.80419
 C293 C 0.42360 0.06018 0.79505
 C294 C 0.41264 0.05582 0.73334
 N295 N 0.45346 0.02280 0.70682
 H296 H 0.37974 0.07644 0.70983
 N297 N -0.01454 0.94195 0.26306
 N298 N 0.00679 0.92026 0.31279
 C299 C 0.06133 0.93147 0.30794
 C300 C 0.07275 0.96084 0.25363
 N301 N 0.02438 0.96640 0.22703
 H302 H 0.11261 0.97302 0.23335
 N303 N 0.95670 0.54224 0.25629
 N304 N 0.93402 0.52682 0.20393
 C305 C 0.93185 0.46650 0.20085
 C306 C 0.95457 0.44551 0.25323
 N307 N 0.96922 0.49409 0.28663
 H308 H 0.95407 0.40001 0.26908
   
