data_POSCAR
  _audit_creation_date              2014-09-24
  _audit_creation_method            'ToBaCCo'
  _symmetry_space_group_name_H-M    'P1'
  _symmetry_Int_Tables_number       1
  _symmetry_cell_setting            triclinic
  loop_
  _symmetry_equiv_pos_as_xyz
 x,y,z
_cell_length_a 48.6217
_cell_length_b 10.1655
_cell_length_c 22.1432
_cell_angle_alpha 90.663100
_cell_angle_beta 89.767100
_cell_angle_gamma 95.887100
loop_
  _atom_site_label
  _atom_site_type_symbol
  _atom_site_fract_x
  _atom_site_fract_y
  _atom_site_fract_z
C1 C 0.67767 0.28717 0.51126
 C2 C 0.68944 0.24394 0.56428
 C3 C 0.71743 0.21945 0.56227
 C4 C 0.73313 0.23438 0.50822
 C5 C 0.71952 0.26706 0.45476
 C6 C 0.69138 0.28699 0.45563
 C7 C 0.76314 0.20934 0.50791
 C8 C 0.77673 0.17428 0.45403
 C9 C 0.80516 0.15708 0.45384
 C10 C 0.81853 0.15578 0.50997
 C11 C 0.80638 0.19718 0.56325
 C12 C 0.77881 0.22546 0.56181
 H13 H 0.65712 0.31922 0.51258
 H14 H 0.72649 0.18048 0.60184
 H15 H 0.73031 0.27468 0.41211
 H16 H 0.76565 0.16636 0.41192
 H17 H 0.83919 0.12522 0.51234
 H18 H 0.77002 0.26365 0.60251
 C19 C 0.18723 0.91388 0.49133
 C20 C 0.20207 0.92424 0.54608
 C21 C 0.22979 0.89478 0.54502
 C22 C 0.24193 0.84710 0.49216
 C23 C 0.22592 0.83230 0.43895
 C24 C 0.19862 0.86531 0.43825
 C25 C 0.27067 0.80558 0.49343
 C26 C 0.28705 0.81037 0.44072
 C27 C 0.31308 0.76208 0.44002
 C28 C 0.32311 0.71183 0.49360
 C29 C 0.30821 0.71366 0.54840
 C30 C 0.28166 0.75807 0.54703
 H31 H 0.16582 0.93385 0.49027
 H32 H 0.24213 0.91184 0.58538
 H33 H 0.23405 0.78906 0.39861
 H34 H 0.27979 0.85390 0.40018
 H35 H 0.34341 0.67743 0.49277
 H36 H 0.26898 0.74891 0.58726
 C37 C 0.31784 0.19199 -0.48170
 C38 C 0.30567 0.22296 -0.53636
 C39 C 0.27823 0.25507 -0.53575
 C40 C 0.26238 0.24857 -0.48205
 C41 C 0.27471 0.20768 -0.42895
 C42 C 0.30257 0.18446 -0.42804
 C43 C 0.23328 0.28533 -0.48080
 C44 C 0.22151 0.32814 -0.42665
 C45 C 0.19393 0.35803 -0.42409
 C46 C 0.17843 0.34950 -0.47765
 C47 C 0.18989 0.31375 -0.53294
 C48 C 0.21715 0.27934 -0.53357
 H49 H 0.33960 0.17789 -0.48036
 H50 H 0.26951 0.28513 -0.57740
 H51 H 0.26291 0.19401 -0.38760
 H52 H 0.23409 0.34359 -0.38659
 H53 H 0.15662 0.36155 -0.47543
 H54 H 0.22578 0.24771 -0.57542
 C55 C -0.17199 0.65260 -0.52619
 C56 C -0.18692 0.63610 -0.58034
 C57 C -0.21568 0.63997 -0.57794
 C58 C -0.22940 0.66479 -0.52330
 C59 C -0.21374 0.67769 -0.46959
 C60 C -0.18510 0.66823 -0.47036
 C61 C -0.25992 0.67653 -0.52323
 C62 C -0.27621 0.65448 -0.47055
 C63 C -0.30472 0.66726 -0.47127
 C64 C -0.31734 0.68950 -0.52644
 C65 C -0.30169 0.71597 -0.57885
 C66 C -0.27301 0.71300 -0.57642
 H67 H -0.14965 0.66050 -0.52774
 H68 H -0.22747 0.61800 -0.61870
 H69 H -0.22362 0.69511 -0.42703
 H70 H -0.26693 0.62950 -0.42861
 H71 H -0.33964 0.68704 -0.52840
 H72 H -0.26103 0.74174 -0.61621
 O73 O 0.04384 0.88047 -0.12992
 O74 O 0.07311 0.98058 -0.05827
 C75 C 0.06829 0.92471 -0.11063
 O76 O -0.03647 1.25600 -0.10088
 O77 O -0.06742 1.10407 -0.05463
 C78 C -0.06139 1.20061 -0.09182
 O79 O 0.04075 1.29616 -0.09890
 O80 O 0.07112 1.18862 -0.04350
 C81 C 0.06562 1.27263 -0.08417
 O82 O -0.03281 0.79499 -0.12574
 O83 O -0.06558 0.88458 -0.06782
 C84 C -0.05827 0.81308 -0.11293
 Zr85 Zr 0.00471 0.87925 -0.08721
 O86 O 0.00404 0.87400 -0.18269
 O87 O 0.00923 0.67509 -0.08851
 Zr88 Zr 0.00194 1.20977 -0.06697
 O89 O 0.00166 1.25670 -0.15968
 O90 O 0.00280 1.41229 -0.04464
 O91 O 0.02750 1.06375 -0.08692
 O92 O -0.02011 1.03206 -0.09071
 O93 O -0.03686 0.74000 0.08660
 O94 O -0.06746 0.85562 0.03594
 C95 C -0.06180 0.76445 0.07299
 O96 O 0.03675 1.23715 0.12591
 O97 O 0.06920 1.15918 0.06333
 C98 C 0.06211 1.22109 0.11148
 O99 O -0.03998 1.19878 0.11554
 O100 O -0.06925 1.07318 0.05189
 C101 C -0.06447 1.14851 0.09934
 O102 O 0.03961 0.80713 0.10356
 O103 O 0.07103 0.94874 0.05278
 C104 C 0.06466 0.86030 0.09382
 Zr105 Zr 0.00202 0.83787 0.06112
 O106 O -0.00150 0.77885 0.15223
 O107 O 0.00730 0.64072 0.03788
 Zr108 Zr -0.00058 1.16867 0.08169
 O109 O -0.00428 1.15749 0.17671
 O110 O 0.00062 1.37695 0.08748
 Zr111 Zr 0.04344 1.04997 0.00097
 Zr112 Zr -0.03960 0.99768 -0.00637
 O113 O -0.02303 0.98479 0.08099
 O114 O 0.02454 1.01539 0.08591
 O115 O -0.02176 0.81764 -0.01681
 O116 O 0.02518 1.22800 0.01087
 O117 O 0.02848 0.85049 -0.01240
 O118 O -0.02485 1.19871 0.00675
 H119 H -0.03094 1.03352 -0.12843
 H120 H 0.03761 1.31077 0.01651
 H121 H -0.03507 0.96674 0.11675
 H122 H 0.04264 0.78717 -0.01591
 H123 H -0.01664 1.43185 -0.04079
 H124 H -0.01792 1.40047 0.07629
 H125 H 0.00564 1.08223 0.18936
 H126 H -0.00236 0.86047 0.17653
 H127 H -0.01111 0.60103 0.02475
 H128 H 0.01124 0.65049 -0.13158
 H129 H 0.00403 0.96638 -0.19600
 H130 H 0.01076 1.18714 -0.18121
 O131 O 0.53028 0.22389 -0.10551
 O132 O 0.56429 0.35164 -0.05417
 C133 C 0.55609 0.26367 -0.09484
 O134 O 0.46279 0.66587 -0.12530
 O135 O 0.43091 0.56763 -0.05859
 C136 C 0.43753 0.63136 -0.10779
 O137 O 0.53944 0.65394 -0.13262
 O138 O 0.56868 0.56154 -0.06832
 C139 C 0.56373 0.62279 -0.11746
 O140 O 0.45328 0.20901 -0.09233
 O141 O 0.42655 0.34900 -0.04262
 C142 C 0.42963 0.25171 -0.07953
 Zr143 Zr 0.49383 0.28473 -0.06613
 O144 O 0.48976 0.22531 -0.15775
 O145 O 0.49133 0.08508 -0.04108
 Zr146 Zr 0.50066 0.61711 -0.08845
 O147 O 0.49764 0.60789 -0.18368
 O148 O 0.50667 0.82515 -0.09164
 O149 O 0.52101 0.44679 -0.09086
 O150 O 0.47364 0.44672 -0.08711
 O151 O 0.45732 0.27734 0.12030
 O152 O 0.42832 0.38328 0.06047
 C153 C 0.43305 0.30971 0.10596
 O154 O 0.54327 0.72867 0.09457
 O155 O 0.57061 0.60105 0.03942
 C156 C 0.56713 0.69005 0.08035
 O157 O 0.46712 0.74049 0.09427
 O158 O 0.43297 0.60388 0.04786
 C159 C 0.44132 0.69811 0.08561
 O160 O 0.53450 0.29933 0.12199
 O161 O 0.56659 0.39228 0.05494
 C162 C 0.55986 0.33161 0.10493
 Zr163 Zr 0.49664 0.33513 0.08225
 O164 O 0.49539 0.34991 0.17755
 O165 O 0.49549 0.12727 0.08926
 Zr166 Zr 0.50347 0.66816 0.06010
 O167 O 0.50475 0.73121 0.15137
 O168 O 0.51012 0.86852 0.03514
 Zr169 Zr 0.53987 0.47607 -0.00544
 Zr170 Zr 0.45736 0.47679 -0.00015
 O171 O 0.47687 0.50514 0.08447
 O172 O 0.52417 0.50588 0.08199
 O173 O 0.46958 0.28509 0.01124
 O174 O 0.52721 0.66594 -0.01728
 O175 O 0.51943 0.28609 0.00801
 O176 O 0.47734 0.66841 -0.01426
 H177 H 0.46180 0.43266 -0.12334
 H178 H 0.54190 0.73989 -0.02303
 H179 H 0.46613 0.51513 0.12205
 H180 H 0.53110 0.21220 0.01211
 H181 H 0.50682 0.84743 -0.13507
 H182 H 0.49165 0.89517 0.02589
 H183 H 0.50299 0.65015 0.17587
 H184 H 0.50659 0.43318 0.18890
 H185 H 0.47690 0.08890 0.07614
 H186 H 0.48408 0.03421 -0.07695
 H187 H 0.49472 0.30538 -0.18192
 H188 H 0.50381 0.52220 -0.19647
 C189 C 0.35482 0.22053 0.30065
 C190 C 0.33452 0.31000 0.30678
 C191 C 0.31845 0.31106 0.35971
 C192 C 0.32189 0.22162 0.40647
 C193 C 0.34143 0.13034 0.39891
 C194 C 0.35799 0.13154 0.34757
 C195 C 0.37289 0.22817 0.24564
 C196 C 0.39427 0.14634 0.23673
 C197 C 0.41264 0.16711 0.18861
 C198 C 0.41005 0.26912 0.14767
 C199 C 0.38746 0.34432 0.15314
 C200 C 0.36908 0.32551 0.20217
 C201 C 0.33084 0.39958 0.26066
 C202 C 0.34772 0.40706 0.20944
 H203 H 0.31491 0.46626 0.26464
 H204 H 0.34432 0.47947 0.17555
 H205 H 0.30390 0.38431 0.36496
 H206 H 0.34420 0.05777 0.43316
 H207 H 0.42967 0.10654 0.18496
 H208 H 0.38526 0.42356 0.12173
 H209 H 0.37343 0.06337 0.34615
 H210 H 0.39788 0.06903 0.26752
 C211 C -0.14073 0.61493 0.25713
 C212 C -0.16556 0.67618 0.25762
 C213 C -0.18190 0.67470 0.31026
 C214 C -0.17292 0.62025 0.36422
 C215 C -0.14840 0.55776 0.36256
 C216 C -0.13262 0.55526 0.31015
 C217 C -0.12270 0.62749 0.20219
 C218 C -0.09797 0.56721 0.19711
 C219 C -0.07930 0.60109 0.15065
 C220 C -0.08484 0.69589 0.10807
 C221 C -0.11104 0.74320 0.10823
 C222 C -0.12992 0.71014 0.15518
 C223 C -0.17286 0.74667 0.20707
 C224 C -0.15519 0.76517 0.15734
 H225 H -0.19184 0.79409 0.20723
 H226 H -0.16102 0.82659 0.12081
 H227 H -0.20022 0.72716 0.31034
 H228 H -0.14118 0.50982 0.40205
 H229 H -0.05962 0.55993 0.15079
 H230 H -0.11589 0.81446 0.07485
 H231 H -0.11348 0.51144 0.31305
 H232 H -0.09198 0.49881 0.23010
 C233 C 0.65253 0.76986 0.25881
 C234 C 0.64485 0.82602 0.31437
 C235 C 0.66118 0.81717 0.36573
 C236 C 0.68434 0.74562 0.36409
 C237 C 0.69264 0.69446 0.30856
 C238 C 0.67706 0.70703 0.25643
 C239 C 0.63303 0.77076 0.20657
 C240 C 0.63812 0.71356 0.14986
 C241 C 0.61737 0.69775 0.10613
 C242 C 0.59122 0.73967 0.11772
 C243 C 0.58710 0.80979 0.17135
 C244 C 0.60750 0.82339 0.21606
 C245 C 0.62000 0.88327 0.31960
 C246 C 0.60161 0.88100 0.27163
 H247 H 0.61403 0.92421 0.36249
 H248 H 0.58194 0.91997 0.27891
 H249 H 0.65507 0.86125 0.40791
 H250 H 0.71050 0.63926 0.30581
 H251 H 0.62134 0.64552 0.06461
 H252 H 0.56713 0.84434 0.18072
 H253 H 0.68395 0.66198 0.21550
 H254 H 0.65743 0.67483 0.13939
 C255 C 0.14076 1.30296 0.30421
 C256 C 0.13403 1.38033 0.35437
 C257 C 0.15108 1.38971 0.40535
 C258 C 0.17309 1.31048 0.41055
 C259 C 0.17838 1.22658 0.36181
 C260 C 0.16294 1.22538 0.30892
 C261 C 0.12260 1.29856 0.24999
 C262 C 0.12959 1.23955 0.19510
 C263 C 0.11055 1.22373 0.14815
 C264 C 0.08411 1.26614 0.15494
 C265 C 0.07804 1.33694 0.20730
 C266 C 0.09722 1.35458 0.25453
 C267 C 0.10953 1.44180 0.35467
 C268 C 0.09101 1.42517 0.30662
 H269 H 0.10395 1.49819 0.39388
 H270 H 0.07164 1.46884 0.31016
 H271 H 0.14663 1.45748 0.44129
 H272 H 0.19414 1.15931 0.36427
 H273 H 0.11614 1.17219 0.10757
 H274 H 0.05800 1.37378 0.21240
 H275 H 0.16793 1.15920 0.27311
 H276 H 0.14946 1.20323 0.18808
 C277 C 0.63731 0.19742 -0.28022
 C278 C 0.62649 0.17530 -0.33897
 C279 C 0.64405 0.18551 -0.38917
 C280 C 0.67272 0.22128 -0.38326
 C281 C 0.68365 0.23498 -0.32440
 C282 C 0.66621 0.22389 -0.27366
 C283 C 0.61727 0.19559 -0.22825
 C284 C 0.62535 0.22804 -0.16836
 C285 C 0.60547 0.24027 -0.12321
 C286 C 0.57715 0.21822 -0.13649
 C287 C 0.56908 0.17525 -0.19472
 C288 C 0.58870 0.16769 -0.24073
 C289 C 0.59806 0.14538 -0.34790
 C290 C 0.57959 0.14080 -0.29980
 H291 H 0.58986 0.12683 -0.39300
 H292 H 0.55773 0.11928 -0.30928
 H293 H 0.63505 0.16330 -0.43327
 H294 H 0.70549 0.26249 -0.31709
 H295 H 0.61226 0.27312 -0.07850
 H296 H 0.54728 0.15866 -0.20582
 H297 H 0.67567 0.23967 -0.22985
 H298 H 0.64678 0.25046 -0.15613
 C299 C 0.15404 0.95834 -0.29440
 C300 C 0.14823 1.02765 -0.34713
 C301 C 0.16537 1.02436 -0.39808
 C302 C 0.18836 0.95048 -0.39881
 C303 C 0.19539 0.89156 -0.34430
 C304 C 0.17842 0.89460 -0.29312
 C305 C 0.13329 0.95158 -0.24360
 C306 C 0.13635 0.88172 -0.18953
 C307 C 0.11547 0.87303 -0.14530
 C308 C 0.09098 0.93092 -0.15496
 C309 C 0.08812 1.00345 -0.20748
 C310 C 0.10902 1.01540 -0.25131
 C311 C 0.12467 1.09575 -0.34988
 C312 C 0.10546 1.08950 -0.30305
 H313 H 0.12057 1.15147 -0.38972
 H314 H 0.08718 1.14108 -0.30806
 H315 H 0.16033 1.07835 -0.43774
 H316 H 0.21270 0.83286 -0.34201
 H317 H 0.11818 0.81908 -0.10423
 H318 H 0.06948 1.05190 -0.21394
 H319 H 0.18416 0.84189 -0.25386
 H320 H 0.15455 0.83272 -0.18079
 C321 C 0.35307 0.64950 -0.29149
 C322 C 0.35695 0.57463 -0.34457
 C323 C 0.34067 0.58883 -0.39582
 C324 C 0.32051 0.67906 -0.39642
 C325 C 0.31482 0.74250 -0.34137
 C326 C 0.33097 0.72882 -0.28991
 C327 C 0.37347 0.64470 -0.24068
 C328 C 0.37265 0.72015 -0.18667
 C329 C 0.39334 0.71720 -0.14262
 C330 C 0.41549 0.64172 -0.15240
 C331 C 0.41603 0.56397 -0.20489
 C332 C 0.39528 0.56390 -0.24857
 C333 C 0.37789 0.49003 -0.34740
 C334 C 0.39665 0.48485 -0.30045
 H335 H 0.38042 0.43014 -0.38748
 H336 H 0.41300 0.42067 -0.30564
 H337 H 0.34415 0.53008 -0.43574
 H338 H 0.29949 0.81238 -0.33881
 H339 H 0.39229 0.77527 -0.10153
 H340 H 0.43274 0.50215 -0.21155
 H341 H 0.32659 0.78567 -0.25021
 H342 H 0.35642 0.78275 -0.17798
 C343 C -0.13974 1.25262 -0.28175
 C344 C -0.16749 1.19849 -0.27371
 C345 C -0.18564 1.18479 -0.32363
 C346 C -0.17606 1.22078 -0.38183
 C347 C -0.14850 1.27460 -0.38880
 C348 C -0.13059 1.28898 -0.34001
 C349 C -0.12061 1.26059 -0.22880
 C350 C -0.09331 1.32069 -0.23214
 C351 C -0.07509 1.31184 -0.18458
 C352 C -0.08322 1.23969 -0.13269
 C353 C -0.11119 1.18949 -0.12651
 C354 C -0.13005 1.20194 -0.17397
 C355 C -0.17638 1.15318 -0.21654
 C356 C -0.15796 1.15288 -0.16803
 H357 H -0.19760 1.11199 -0.20987
 H358 H -0.16556 1.11114 -0.12559
 H359 H -0.20673 1.14095 -0.31768
 H360 H -0.14046 1.30469 -0.43274
 H361 H -0.05392 1.35433 -0.19067
 H362 H -0.11799 1.13595 -0.08618
 H363 H -0.10946 1.32574 -0.34946
 H364 H -0.08526 1.37172 -0.27177
 C365 C 0.64525 0.66301 -0.30921
 C366 C 0.64031 0.74568 -0.35806
 C367 C 0.65740 0.74928 -0.40910
 C368 C 0.67856 0.66545 -0.41472
 C369 C 0.68328 0.58220 -0.36654
 C370 C 0.66702 0.58177 -0.31419
 C371 C 0.62624 0.66198 -0.25563
 C372 C 0.63021 0.59021 -0.20292
 C373 C 0.61072 0.58480 -0.15626
 C374 C 0.58668 0.64961 -0.16117
 C375 C 0.58349 0.72828 -0.21173
 C376 C 0.60305 0.73535 -0.25859
 C377 C 0.61777 0.82097 -0.35684
 C378 C 0.59918 0.81336 -0.30881
 H379 H 0.61388 0.88322 -0.39465
 H380 H 0.58134 0.86866 -0.31118
 H381 H 0.65390 0.81715 -0.44503
 H382 H 0.69923 0.51559 -0.36956
 H383 H 0.61401 0.52532 -0.11723
 H384 H 0.56534 0.78145 -0.21550
 H385 H 0.67142 0.51528 -0.27876
 H386 H 0.64799 0.53624 -0.19723
 C387 C 0.14869 1.40891 -0.26313
 C388 C 0.17159 1.33339 -0.26299
 C389 C 0.18807 1.32637 -0.31486
 C390 C 0.18120 1.38766 -0.36869
 C391 C 0.15956 1.46977 -0.36696
 C392 C 0.14377 1.48149 -0.31495
 C393 C 0.12926 1.39837 -0.21034
 C394 C 0.10476 1.46161 -0.20817
 C395 C 0.08480 1.42887 -0.16391
 C396 C 0.08905 1.33464 -0.12010
 C397 C 0.11472 1.28285 -0.11791
 C398 C 0.13452 1.31166 -0.16323
 C399 C 0.17674 1.25746 -0.21272
 C400 C 0.15854 1.24652 -0.16391
 H401 H 0.19435 1.20019 -0.21240
 H402 H 0.16267 1.18089 -0.12753
 H403 H 0.20433 1.26098 -0.31472
 H404 H 0.15460 1.52522 -0.40624
 H405 H 0.06537 1.47211 -0.16604
 H406 H 0.11841 1.21039 -0.08410
 H407 H 0.12718 1.54391 -0.31724
 H408 H 0.09994 1.53140 -0.24184
 C409 C 0.34821 0.14795 -0.26443
 C410 C 0.32842 0.24048 -0.26834
 C411 C 0.31261 0.24656 -0.32073
 C412 C 0.31651 0.16350 -0.37026
 C413 C 0.33555 0.06956 -0.36595
 C414 C 0.35115 0.06123 -0.31364
 C415 C 0.36651 0.15341 -0.20999
 C416 C 0.38786 0.07090 -0.20306
 C417 C 0.40714 0.09432 -0.15660
 C418 C 0.40534 0.19936 -0.11560
 C419 C 0.38240 0.27241 -0.11833
 C420 C 0.36342 0.25230 -0.16569
 C421 C 0.32545 0.33100 -0.22129
 C422 C 0.34262 0.33698 -0.17106
 H423 H 0.31031 0.40182 -0.22441
 H424 H 0.34026 0.41252 -0.13702
 H425 H 0.29835 0.32145 -0.32429
 H426 H 0.33871 0.00385 -0.40364
 H427 H 0.42443 0.03513 -0.15512
 H428 H 0.38066 0.35383 -0.08694
 H429 H 0.36586 -0.01124 -0.31341
 H430 H 0.39090 -0.00783 -0.23463
 C431 C -0.13394 0.68834 -0.31018
 C432 C -0.15853 0.75157 -0.31024
 C433 C -0.17529 0.74587 -0.36217
 C434 C -0.16835 0.67351 -0.41371
 C435 C -0.14468 0.60517 -0.41146
 C436 C -0.12752 0.61443 -0.36132
 C437 C -0.11551 0.70448 -0.25606
 C438 C -0.08959 0.65461 -0.25427
 C439 C -0.07212 0.68064 -0.20507
 C440 C -0.07967 0.75947 -0.15659
 C441 C -0.10614 0.80380 -0.15627
 C442 C -0.12395 0.77798 -0.20592
 C443 C -0.16613 0.82009 -0.25852
 C444 C -0.14944 0.83082 -0.20711
 H445 H -0.18527 0.86610 -0.25779
 H446 H -0.15630 0.88372 -0.16810
 H447 H -0.19330 0.80018 -0.36249
 H448 H -0.13914 0.54362 -0.44883
 H449 H -0.05193 0.64446 -0.20672
 H450 H -0.11223 0.86566 -0.11935
 H451 H -0.10938 0.56211 -0.36376
 H452 H -0.08177 0.59996 -0.29138
 C453 C 0.36389 0.77315 0.27824
 C454 C 0.37587 0.79900 0.33588
 C455 C 0.35917 0.79682 0.38771
 C456 C 0.33038 0.76752 0.38398
 C457 C 0.31844 0.74341 0.32670
 C458 C 0.33490 0.74682 0.27450
 C459 C 0.38280 0.77228 0.22427
 C460 C 0.37348 0.73876 0.16521
 C461 C 0.39237 0.72288 0.11829
 C462 C 0.42093 0.74569 0.12854
 C463 C 0.43017 0.79089 0.18584
 C464 C 0.41158 0.80013 0.23380
 C465 C 0.40448 0.82866 0.34173
 C466 C 0.42193 0.82993 0.29179
 H467 H 0.41359 0.85048 0.38578
 H468 H 0.44397 0.85148 0.29895
 H469 H 0.36873 0.82075 0.43113
 H470 H 0.29633 0.71954 0.32220
 H471 H 0.38467 0.68754 0.07459
 H472 H 0.45215 0.80777 0.19486
 H473 H 0.32458 0.72709 0.23184
 H474 H 0.35179 0.71824 0.15502
 C475 C -0.14534 1.15768 0.29320
 C476 C -0.13429 1.20618 0.34904
 C477 C -0.15084 1.20387 0.40064
 C478 C -0.17893 1.15311 0.39969
 C479 C -0.19015 1.10716 0.34365
 C480 C -0.17355 1.10833 0.29132
 C481 C -0.12627 1.16267 0.23916
 C482 C -0.13400 1.11029 0.18156
 C483 C -0.11452 1.11085 0.13427
 C484 C -0.08717 1.16732 0.14293
 C485 C -0.08004 1.22606 0.19913
 C486 C -0.09875 1.22013 0.24716
 C487 C -0.10670 1.25939 0.35363
 C488 C -0.08942 1.26753 0.30370
 H489 H -0.09836 1.29708 0.39650
 H490 H -0.06826 1.31062 0.30965
 H491 H -0.14173 1.24953 0.44129
 H492 H -0.21150 1.06599 0.34011
 H493 H -0.12064 1.06384 0.09161
 H494 H -0.05912 1.27039 0.20722
 H495 H -0.18310 1.07058 0.24984
 H496 H -0.15467 1.06479 0.17298
 C497 C 0.64061 0.29895 0.29542
 C498 C 0.63014 0.23973 0.34939
 C499 C 0.64728 0.23325 0.39937
 C500 C 0.67468 0.29250 0.39932
 C501 C 0.68520 0.35274 0.34607
 C502 C 0.66844 0.35510 0.29449
 C503 C 0.62123 0.30010 0.24257
 C504 C 0.62910 0.35428 0.18592
 C505 C 0.60962 0.35781 0.13947
 C506 C 0.58192 0.30705 0.14835
 C507 C 0.57443 0.24707 0.20351
 C508 C 0.59350 0.24508 0.25044
 C509 C 0.60245 0.18825 0.35402
 C510 C 0.58450 0.19142 0.30574
 H511 H 0.59445 0.14483 0.39585
 H512 H 0.56320 0.15047 0.31179
 H513 H 0.63897 0.18103 0.43890
 H514 H 0.70621 0.39946 0.34442
 H515 H 0.61607 0.40415 0.09727
 H516 H 0.55322 0.20633 0.21123
 H517 H 0.67746 0.40267 0.25474
 H518 H 0.64997 0.39678 0.17717
 C519 C 0.14369 0.81020 0.28499
 C520 C 0.17115 0.86848 0.27682
 C521 C 0.18962 0.88079 0.32612
 C522 C 0.18073 0.83926 0.38403
 C523 C 0.15370 0.77876 0.39120
 C524 C 0.13540 0.76562 0.34282
 C525 C 0.12409 0.80566 0.23265
 C526 C 0.09676 0.74554 0.23613
 C527 C 0.07834 0.75533 0.18886
 C528 C 0.08636 0.82679 0.13667
 C529 C 0.11422 0.87859 0.13070
 C530 C 0.13314 0.86774 0.17821
 C531 C 0.17945 0.91993 0.22032
 C532 C 0.16075 0.92165 0.17247
 H533 H 0.20043 0.96474 0.21376
 H534 H 0.16794 0.96783 0.13064
 H535 H 0.21040 0.92879 0.32018
 H536 H 0.14642 0.74351 0.43501
 H537 H 0.05721 0.71219 0.19492
 H538 H 0.12094 0.93168 0.09022
 H539 H 0.11459 0.72416 0.35232
 H540 H 0.08886 0.69370 0.27565
   
