data_POSCAR
  _audit_creation_date              2014-09-24
  _audit_creation_method            'ToBaCCo'
  _symmetry_space_group_name_H-M    'P1'
  _symmetry_Int_Tables_number       1
  _symmetry_cell_setting            triclinic
  loop_
  _symmetry_equiv_pos_as_xyz
 x,y,z
_cell_length_a 25.5057
_cell_length_b 25.5848
_cell_length_c 25.5062
_cell_angle_alpha 106.448200
_cell_angle_beta 74.128300
_cell_angle_gamma 77.066700
loop_
  _atom_site_label
  _atom_site_type_symbol
  _atom_site_fract_x
  _atom_site_fract_y
  _atom_site_fract_z
C1 C 0.52880 0.47874 0.00111
 C2 C 0.49025 0.51952 -0.00657
 C3 C 0.43579 0.51229 -0.01276
 C4 C 0.49913 0.57478 -0.00737
 C5 C 0.58523 0.48403 0.00300
 C6 C 0.51746 0.42569 0.00685
 C7 C 0.43603 0.46541 -0.05767
 C8 C 0.38426 0.46064 -0.06395
 C9 C 0.33084 0.50367 -0.02616
 C10 C 0.33155 0.54949 0.02003
 C11 C 0.38317 0.55412 0.02600
 C12 C 0.49410 0.59279 -0.05333
 C13 C 0.49782 0.64656 -0.05260
 C14 C 0.50746 0.68349 -0.00622
 C15 C 0.51125 0.66557 0.04048
 C16 C 0.50747 0.61170 0.03969
 C17 C 0.60188 0.47733 0.04937
 C18 C 0.65635 0.47794 0.04991
 C19 C 0.69616 0.48392 0.00320
 C20 C 0.67817 0.49311 -0.04199
 C21 C 0.62375 0.49222 -0.04260
 C22 C 0.46708 0.42848 0.04900
 C23 C 0.45801 0.37802 0.05454
 C24 C 0.49945 0.32364 0.01816
 C25 C 0.55075 0.32163 -0.02237
 C26 C 0.55939 0.37185 -0.02830
 H27 H 0.47637 0.43251 -0.08794
 H28 H 0.38687 0.42261 -0.09798
 H29 H 0.29174 0.58218 0.05182
 H30 H 0.38205 0.59033 0.06138
 H31 H 0.48632 0.56547 -0.08944
 H32 H 0.49185 0.65978 -0.08788
 H33 H 0.50922 0.59956 0.07670
 H34 H 0.57251 0.47160 0.08534
 H35 H 0.66652 0.47426 0.08739
 H36 H 0.70653 0.50040 -0.07738
 H37 H 0.61203 0.49709 -0.07909
 H38 H 0.43512 0.46978 0.07819
 H39 H 0.41917 0.38241 0.08828
 H40 H 0.58443 0.28082 -0.04970
 H41 H 0.59909 0.36868 -0.06037
 H42 H 0.51503 0.69360 0.07885
 C43 C -0.00020 0.52066 0.51405
 C44 C -0.00732 0.47892 0.47234
 C45 C -0.01160 0.42410 0.47902
 C46 C -0.00951 0.48471 0.41665
 C47 C -0.00002 0.57714 0.50912
 C48 C 0.00707 0.51246 0.56728
 C49 C 0.02881 0.37179 0.43744
 C50 C 0.02486 0.31964 0.44185
 C51 C -0.02079 0.31825 0.48684
 C52 C -0.06067 0.37114 0.52933
 C53 C -0.05625 0.42352 0.52519
 C54 C 0.03488 0.49614 0.38003
 C55 C 0.03357 0.49849 0.32638
 C56 C -0.01114 0.48766 0.30720
 C57 C -0.05642 0.47790 0.34509
 C58 C -0.05522 0.47592 0.39889
 C59 C -0.04636 0.61203 0.50195
 C60 C -0.04629 0.66565 0.49877
 C61 C 0.00057 0.68539 0.50206
 C62 C 0.04571 0.65104 0.51170
 C63 C 0.04559 0.59746 0.51481
 C64 C -0.02768 0.55452 0.62254
 C65 C -0.02113 0.54800 0.67303
 C66 C 0.01958 0.49867 0.66971
 C67 C 0.05613 0.45771 0.61387
 C68 C 0.04995 0.46468 0.56324
 H69 H 0.06390 0.37143 0.40181
 H70 H 0.05769 0.28008 0.40975
 H71 H -0.09483 0.37265 0.56633
 H72 H -0.08776 0.46364 0.55783
 H73 H 0.07093 0.50248 0.39259
 H74 H 0.06826 0.50779 0.29918
 H75 H -0.09018 0.46758 0.42689
 H76 H -0.08307 0.59811 0.49978
 H77 H -0.08380 0.69177 0.49523
 H78 H 0.08114 0.66581 0.51723
 H79 H 0.08117 0.57175 0.52172
 H80 H -0.06017 0.59242 0.62662
 H81 H -0.04840 0.58154 0.71504
 H82 H 0.09030 0.42079 0.60854
 H83 H 0.07900 0.43299 0.52083
 H84 H -0.09327 0.47221 0.33420
 C85 C 0.51418 0.00385 0.49257
 C86 C 0.47239 -0.00441 0.53281
 C87 C 0.47756 -0.00681 0.58894
 C88 C 0.41819 -0.00952 0.52397
 C89 C 0.50774 0.01005 0.43826
 C90 C 0.56948 0.00622 0.49985
 C91 C 0.47015 -0.05344 0.60504
 C92 C 0.47171 -0.05509 0.65893
 C93 C 0.47907 -0.00905 0.69920
 C94 C 0.48905 0.03646 0.68128
 C95 C 0.48722 0.03808 0.62747
 C96 C 0.41897 -0.04925 0.47260
 C97 C 0.36739 -0.05206 0.46463
 C98 C 0.31380 -0.01539 0.50820
 C99 C 0.31360 0.02156 0.56105
 C100 C 0.36501 0.02492 0.56856
 C101 C 0.46286 0.05484 0.44042
 C102 C 0.45884 0.06094 0.38864
 C103 C 0.50021 0.02271 0.33358
 C104 C 0.54427 -0.02275 0.33210
 C105 C 0.54843 -0.02852 0.38371
 C106 C 0.58782 0.05316 0.49616
 C107 C 0.64091 0.05496 0.50014
 C108 C 0.67687 0.01021 0.50902
 C109 C 0.65887 -0.03800 0.51028
 C110 C 0.60564 -0.03962 0.50633
 H111 H 0.46345 -0.08895 0.57553
 H112 H 0.46788 -0.09311 0.66794
 H113 H 0.49777 0.07141 0.70925
 H114 H 0.49281 0.07471 0.61615
 H115 H 0.45955 -0.07815 0.43865
 H116 H 0.37014 -0.08363 0.42469
 H117 H 0.36326 0.05499 0.60914
 H118 H 0.43107 0.08513 0.48223
 H119 H 0.42281 0.09517 0.39243
 H120 H 0.57583 -0.05400 0.29065
 H121 H 0.58324 -0.06354 0.38110
 H122 H 0.56115 0.08830 0.48957
 H123 H 0.65416 0.09113 0.49505
 H124 H 0.68627 -0.07559 0.51247
 H125 H 0.59326 -0.07735 0.50684
 H126 H 0.27331 0.04865 0.59653
 O127 O 0.44338 0.01276 -0.04091
 O128 O 0.44698 0.03323 0.10686
 O129 O 0.44303 0.09792 0.04343
 O130 O 0.44762 -0.05175 0.02270
 O131 O 0.54279 -0.08055 -0.01325
 O132 O 0.53818 0.06820 0.00508
 O133 O 0.54208 0.00554 0.07019
 O134 O 0.53855 -0.01717 -0.07789
 Cu135 Cu 0.43570 0.02594 0.03667
 Cu136 Cu 0.54992 -0.00894 -0.00758
 C137 C 0.49025 -0.00456 -0.08441
 C138 C 0.49526 0.02202 0.11356
 C139 C 0.48998 0.10823 0.02636
 C140 C 0.49602 -0.09141 0.00257
 O141 O -0.07445 0.53955 1.01311
 O142 O 0.07283 0.54292 0.99247
 O143 O 0.00824 0.53896 0.92840
 O144 O -0.00977 0.54078 1.07696
 O145 O 0.02132 0.44557 1.04201
 O146 O 0.04369 0.44385 0.89307
 O147 O 0.10602 0.44785 0.95974
 O148 O -0.04133 0.44436 0.97647
 Cu149 Cu -0.00390 0.55013 1.00629
 Cu150 Cu 0.03591 0.43583 0.96430
 C151 C -0.08289 0.49144 0.99691
 C152 C 0.11446 0.49623 0.97366
 C153 C 0.02805 0.49105 0.88559
 C154 C 0.00295 0.49333 1.08474
 O155 O 0.01930 -0.08922 0.45253
 O156 O 0.00433 0.05537 0.44781
 O157 O 0.08654 -0.02575 0.44912
 O158 O -0.06137 -0.00952 0.45164
 O159 O -0.09468 0.02828 0.54836
 O160 O 0.05294 0.01223 0.54580
 O161 O -0.02868 0.09330 0.54445
 O162 O -0.01401 -0.05186 0.54928
 Cu163 Cu 0.01582 -0.02078 0.44054
 Cu164 Cu -0.02422 0.02445 0.55669
 C165 C 0.00360 -0.09503 0.50168
 C166 C -0.01463 0.09903 0.49512
 C167 C 0.09492 -0.00936 0.49713
 C168 C -0.10302 0.01062 0.50049
 C169 C -0.24394 0.48438 1.00246
 C170 C -0.24155 0.54604 1.02301
 C171 C -0.18866 0.54897 1.02174
 C172 C -0.14219 0.48973 0.99982
 C173 C -0.16697 0.45941 1.03972
 C174 C -0.21988 0.45617 1.04095
 C175 C -0.19619 0.45355 0.94119
 C176 C -0.14335 0.45680 0.93982
 H177 H -0.27861 0.58434 1.03760
 H178 H -0.18093 0.58987 1.03523
 H179 H -0.14381 0.43991 1.06303
 H180 H -0.24018 0.43221 1.06415
 H181 H -0.20282 0.42961 0.90239
 H182 H -0.10546 0.43638 0.89987
 C183 C 0.27568 0.50047 0.97003
 C184 C 0.24457 0.48400 1.01668
 C185 C 0.18875 0.48285 1.01728
 C186 C 0.17386 0.49819 0.97114
 C187 C 0.18070 0.55475 0.97821
 C188 C 0.23678 0.55587 0.97705
 C189 C 0.27653 0.45996 0.91546
 C190 C 0.22025 0.45868 0.91642
 H191 H 0.26187 0.47292 1.04806
 H192 H 0.16059 0.47140 1.04935
 H193 H 0.14878 0.59149 0.97922
 H194 H 0.24988 0.59337 0.97649
 H195 H 0.31315 0.43995 0.87452
 H196 H 0.21301 0.43551 0.87766
 C197 C 0.00115 -0.25558 0.50056
 C198 C 0.06080 -0.25444 0.46641
 C199 C 0.06187 -0.20105 0.46790
 C200 C 0.00321 -0.15343 0.50259
 C201 C -0.03812 -0.17463 0.47472
 C202 C -0.03897 -0.22800 0.47312
 C203 C -0.01653 -0.21064 0.56241
 C204 C -0.01553 -0.15737 0.56359
 H205 H 0.09868 -0.29254 0.44182
 H206 H 0.10065 -0.19363 0.44540
 H207 H -0.06280 -0.15068 0.45547
 H208 H -0.06309 -0.24937 0.45059
 H209 H -0.02891 -0.22004 0.60208
 H210 H -0.02688 -0.12160 0.60428
 C211 C -0.02279 0.26012 0.49012
 C212 C 0.02301 0.23470 0.51269
 C213 C 0.02516 0.18164 0.51420
 C214 C -0.01847 0.15792 0.49284
 C215 C -0.07729 0.20451 0.53082
 C216 C -0.07979 0.25796 0.52943
 C217 C -0.00983 0.21386 0.43006
 C218 C -0.00711 0.16059 0.43137
 H219 H 0.05093 0.25710 0.52718
 H220 H 0.05474 0.15900 0.53008
 H221 H -0.11451 0.19574 0.55469
 H222 H -0.11985 0.29373 0.55134
 H223 H -0.00522 0.22265 0.39012
 H224 H 0.00025 0.12439 0.39245
 C225 C 0.48052 -0.00922 -0.24438
 C226 C 0.54262 -0.02702 -0.24531
 C227 C 0.54649 -0.02611 -0.19292
 C228 C 0.48778 -0.00737 -0.14349
 C229 C 0.45425 0.05127 -0.14197
 C230 C 0.44988 0.05031 -0.19416
 C231 C 0.45281 -0.04935 -0.21951
 C232 C 0.45717 -0.04854 -0.16721
 H233 H 0.58059 -0.03964 -0.28422
 H234 H 0.58773 -0.03791 -0.18751
 H235 H 0.43411 0.08999 -0.10264
 H236 H 0.42513 0.08823 -0.19858
 H237 H 0.42776 -0.07297 -0.23809
 H238 H 0.43784 -0.07271 -0.14343
 C239 C 0.49749 0.02643 0.27564
 C240 C 0.55631 0.02004 0.23234
 C241 C 0.55604 0.01877 0.17871
 C242 C 0.49674 0.02480 0.17290
 C243 C 0.47894 -0.02345 0.18957
 C244 C 0.47934 -0.02261 0.24295
 C245 C 0.45629 0.08195 0.27742
 C246 C 0.45597 0.08084 0.22369
 H247 H 0.59466 0.01827 0.24345
 H248 H 0.59419 0.01569 0.14446
 H249 H 0.46689 -0.05562 0.16168
 H250 H 0.46741 -0.05397 0.26063
 H251 H 0.43204 0.12043 0.31623
 H252 H 0.43086 0.11748 0.21768
 C253 C 0.50629 -0.25610 -0.00402
 C254 C 0.53620 -0.25258 -0.06375
 C255 C 0.53183 -0.19792 -0.06176
 C256 C 0.49875 -0.15151 -0.00024
 C257 C 0.44008 -0.16066 0.01993
 C258 C 0.44414 -0.21514 0.01791
 C259 C 0.53435 -0.22512 0.03610
 C260 C 0.52992 -0.17049 0.03830
 H261 H 0.56031 -0.28991 -0.10390
 H262 H 0.55136 -0.18874 -0.10017
 H263 H 0.39878 -0.12741 0.03446
 H264 H 0.40632 -0.22806 0.03085
 H265 H 0.55902 -0.24502 0.05794
 H266 H 0.54921 -0.14407 0.06322
 C267 C 0.49266 0.26730 0.02287
 C268 C 0.53330 0.24135 0.05049
 C269 C 0.53149 0.18932 0.05282
 C270 C 0.48936 0.16726 0.02708
 C271 C 0.43099 0.21584 0.06091
 C272 C 0.43253 0.26817 0.05866
 C273 C 0.50840 0.22016 -0.03737
 C274 C 0.50714 0.16805 -0.03514
 H275 H 0.56067 0.26270 0.06762
 H276 H 0.55725 0.16629 0.07188
 H277 H 0.39147 0.20952 0.08326
 H278 H 0.39359 0.30517 0.07810
 H279 H 0.51828 0.22751 -0.07833
 H280 H 0.51639 0.13106 -0.07415
 C281 C -0.26650 0.01082 0.50877
 C282 C -0.26290 0.07093 0.53886
 C283 C -0.20857 0.07099 0.53498
 C284 C -0.16257 0.01113 0.50249
 C285 C -0.18453 -0.02652 0.53477
 C286 C -0.23884 -0.02633 0.53872
 C287 C -0.22262 -0.01128 0.44587
 C288 C -0.16856 -0.01115 0.44251
 H289 H -0.30002 0.10977 0.56339
 H290 H -0.19951 0.10977 0.55501
 H291 H -0.16043 -0.04919 0.55537
 H292 H -0.26090 -0.04741 0.56456
 H293 H -0.23328 -0.02590 0.40699
 H294 H -0.13349 -0.02553 0.40080
 C295 C 0.25634 -0.01572 0.50136
 C296 C 0.22518 -0.04529 0.53853
 C297 C 0.17225 -0.04409 0.53625
 C298 C 0.15462 -0.01313 0.49720
 C299 C 0.16042 0.04666 0.52048
 C300 C 0.21341 0.04544 0.52214
 C301 C 0.25706 -0.04535 0.43913
 C302 C 0.20391 -0.04411 0.43712
 H303 H 0.24365 -0.06613 0.56398
 H304 H 0.14559 -0.06384 0.55972
 H305 H 0.12604 0.08670 0.53359
 H306 H 0.22410 0.08464 0.53589
 H307 H 0.29481 -0.06290 0.39933
 H308 H 0.19760 -0.06181 0.39619
 C309 C -0.00948 0.48825 1.24723
 C310 C 0.05006 0.45339 1.19870
 C311 C 0.05389 0.45619 1.14544
 C312 C -0.00230 0.49278 1.14464
 C313 C -0.04783 0.46686 1.16870
 C314 C -0.05159 0.46411 1.22210
 C315 C -0.02177 0.54950 1.24612
 C316 C -0.01809 0.55198 1.19271
 H317 H 0.08589 0.42751 1.20531
 H318 H 0.09297 0.43306 1.10700
 H319 H -0.07339 0.44999 1.14475
 H320 H -0.07948 0.44317 1.24172
 H321 H -0.03275 0.58783 1.28441
 H322 H -0.02579 0.59246 1.18563
 C323 C 0.02410 0.49302 0.72625
 C324 C 0.05192 0.53502 0.75477
 C325 C 0.05437 0.53369 0.80701
 C326 C 0.02853 0.49065 0.82655
 C327 C -0.03283 0.50681 0.82576
 C328 C -0.03519 0.50755 0.77346
 C329 C 0.05875 0.43348 0.72287
 C330 C 0.06117 0.43244 0.77530
 H331 H 0.06898 0.56298 0.73500
 H332 H 0.07348 0.56042 0.83182
 H333 H -0.07119 0.51540 0.86284
 H334 H -0.07562 0.51620 0.76596
 H335 H 0.07705 0.39440 0.68415
 H336 H 0.08273 0.39324 0.77994
   
