data_POSCAR
  _audit_creation_date              2014-09-24
  _audit_creation_method            'ToBaCCo'
  _symmetry_space_group_name_H-M    'P1'
  _symmetry_Int_Tables_number       1
  _symmetry_cell_setting            triclinic
  loop_
  _symmetry_equiv_pos_as_xyz
 x,y,z
_cell_length_a 50.4036
_cell_length_b 50.3469
_cell_length_c 14.8125
_cell_angle_alpha 90.072000
_cell_angle_beta 89.778100
_cell_angle_gamma 119.901100
loop_
  _atom_site_label
  _atom_site_type_symbol
  _atom_site_fract_x
  _atom_site_fract_y
  _atom_site_fract_z
C1 C 0.24727 0.49382 0.54009
 C2 C 0.24663 0.49461 0.44805
 C3 C 0.22011 0.49250 0.39787
 C4 C 0.27252 0.49738 0.39298
 C5 C 0.27239 0.49269 0.58943
 C6 C 0.22288 0.49410 0.59570
 C7 C 0.19024 0.46867 0.41428
 C8 C 0.16548 0.46707 0.36727
 C9 C 0.16976 0.48909 0.30046
 C10 C 0.20031 0.51264 0.28387
 C11 C 0.22490 0.51422 0.33159
 C12 C 0.26797 0.47349 0.33481
 C13 C 0.29265 0.47478 0.28776
 C14 C 0.32209 0.50033 0.29645
 C15 C 0.32640 0.52480 0.35188
 C16 C 0.30179 0.52325 0.40033
 C17 C 0.28803 0.51380 0.65857
 C18 C 0.31249 0.51380 0.70284
 C19 C 0.32199 0.49277 0.67849
 C20 C 0.30543 0.47089 0.61147
 C21 C 0.28070 0.47061 0.56835
 C22 C 0.21599 0.51780 0.58694
 C23 C 0.19190 0.51696 0.63629
 C24 C 0.17460 0.49257 0.69553
 C25 C 0.18182 0.46920 0.70549
 C26 C 0.20598 0.47011 0.65652
 H27 H 0.18600 0.45127 0.46415
 H28 H 0.14313 0.44887 0.38696
 H29 H 0.20585 0.52956 0.23162
 H30 H 0.24785 0.53259 0.31668
 H31 H 0.24549 0.45344 0.32816
 H32 H 0.28876 0.45581 0.24456
 H33 H 0.30560 0.54197 0.44454
 H34 H 0.28164 0.53067 0.67725
 H35 H 0.32390 0.53037 0.75598
 H36 H 0.31195 0.45430 0.59076
 H37 H 0.26831 0.45339 0.51748
 H38 H 0.22897 0.53663 0.54084
 H39 H 0.18632 0.53489 0.62642
 H40 H 0.16860 0.45019 0.75082
 H41 H 0.21102 0.45168 0.66422
 H42 H 0.34894 0.54468 0.35975
 C43 C 0.51235 -0.24438 0.54311
 C44 C 0.51309 -0.24278 0.45088
 C45 C 0.51572 -0.26550 0.39271
 C46 C 0.50980 -0.21871 0.40357
 C47 C 0.51365 -0.21912 0.59935
 C48 C 0.51017 -0.27128 0.59201
 C49 C 0.53772 -0.27417 0.40995
 C50 C 0.53779 -0.29778 0.36061
 C51 C 0.51649 -0.31264 0.29081
 C52 C 0.49615 -0.30211 0.26911
 C53 C 0.49563 -0.27899 0.31990
 C54 C 0.53383 -0.19697 0.35002
 C55 C 0.53138 -0.17330 0.30918
 C56 C 0.50450 -0.17179 0.31924
 C57 C 0.48003 -0.19417 0.36991
 C58 C 0.48275 -0.21740 0.41251
 C59 C 0.49273 -0.22583 0.67026
 C60 C 0.49356 -0.20232 0.72266
 C61 C 0.51510 -0.17139 0.70472
 C62 C 0.53635 -0.16484 0.63435
 C63 C 0.53600 -0.18843 0.58365
 C64 C 0.48873 -0.30137 0.56688
 C65 C 0.48878 -0.32633 0.60784
 C66 C 0.50950 -0.32194 0.67790
 C67 C 0.52932 -0.29165 0.70736
 C68 C 0.52985 -0.26673 0.66432
 H69 H 0.55415 -0.26339 0.46381
 H70 H 0.55392 -0.30504 0.37949
 H71 H 0.48021 -0.31196 0.21382
 H72 H 0.47886 -0.27226 0.30388
 H73 H 0.55474 -0.19786 0.34218
 H74 H 0.55037 -0.15616 0.26988
 H75 H 0.46391 -0.23427 0.45288
 H76 H 0.47556 -0.24933 0.68475
 H77 H 0.47729 -0.20849 0.77749
 H78 H 0.55312 -0.14151 0.61707
 H79 H 0.55313 -0.18265 0.53153
 H80 H 0.47231 -0.30556 0.51405
 H81 H 0.47194 -0.34903 0.58556
 H82 H 0.54579 -0.28686 0.76045
 H83 H 0.54632 -0.24375 0.68588
 H84 H 0.45916 -0.19321 0.37806
 C85 C 1.24262 0.75411 0.54363
 C86 C 1.24259 0.75349 0.45184
 C87 C 1.26773 0.77759 0.39750
 C88 C 1.21750 0.72812 0.40156
 C89 C 1.21772 0.72878 0.59545
 C90 C 1.26743 0.77955 0.59604
 C91 C 1.26299 0.79881 0.34995
 C92 C 1.28711 0.82296 0.30355
 C93 C 1.31663 0.82607 0.30076
 C94 C 1.32039 0.80326 0.34514
 C95 C 1.29645 0.77976 0.39418
 C96 C 1.18875 0.72593 0.39629
 C97 C 1.16493 0.70164 0.35003
 C98 C 1.16950 0.67919 0.30767
 C99 C 1.19852 0.68166 0.31277
 C100 C 1.22235 0.70601 0.35915
 C101 C 1.21960 0.70282 0.61847
 C102 C 1.19635 0.67926 0.66920
 C103 C 1.17013 0.68071 0.69557
 C104 C 1.16820 0.70667 0.66927
 C105 C 1.19198 0.73062 0.62128
 C106 C 1.28184 0.77318 0.66653
 C107 C 1.30623 0.79686 0.71304
 C108 C 1.31762 0.82792 0.68906
 C109 C 1.30185 0.83391 0.62035
 C110 C 1.27679 0.81019 0.57645
 H111 H 1.24069 0.79710 0.35069
 H112 H 1.28183 0.83829 0.26694
 H113 H 1.34189 0.80366 0.34605
 H114 H 1.30034 0.76327 0.43000
 H115 H 1.18482 0.74309 0.42783
 H116 H 1.14301 0.70067 0.34634
 H117 H 1.24448 0.70744 0.36296
 H118 H 1.23920 0.70092 0.59753
 H119 H 1.19861 0.65947 0.68441
 H120 H 1.14889 0.70923 0.68886
 H121 H 1.19026 0.75059 0.60386
 H122 H 1.27464 0.74976 0.68504
 H123 H 1.31569 0.79006 0.76747
 H124 H 1.30911 0.85685 0.59734
 H125 H 1.26506 0.81590 0.52574
 H126 H 1.20275 0.66459 0.28209
 C127 C 0.75184 0.50290 0.54323
 C128 C 0.75323 0.50579 0.45132
 C129 C 0.77787 0.50487 0.39902
 C130 C 0.72988 0.50891 0.39872
 C131 C 0.72461 0.49843 0.59615
 C132 C 0.77801 0.50465 0.59470
 C133 C 0.79846 0.53039 0.34814
 C134 C 0.82269 0.53024 0.30260
 C135 C 0.82610 0.50421 0.30518
 C136 C 0.80499 0.47838 0.35437
 C137 C 0.78114 0.47878 0.40146
 C138 C 0.72104 0.53029 0.42366
 C139 C 0.69609 0.52999 0.38212
 C140 C 0.68001 0.50891 0.31282
 C141 C 0.69058 0.48923 0.28320
 C142 C 0.71519 0.48917 0.32596
 C143 C 0.69471 0.47780 0.56747
 C144 C 0.66952 0.47632 0.61173
 C145 C 0.67335 0.49385 0.68996
 C146 C 0.70334 0.51277 0.72243
 C147 C 0.72860 0.51533 0.67533
 C148 C 0.77309 0.48204 0.65802
 C149 C 0.79764 0.48326 0.70508
 C150 C 0.82808 0.50705 0.68962
 C151 C 0.83252 0.52996 0.62639
 C152 C 0.80784 0.52900 0.58112
 H153 H 0.79618 0.55066 0.34563
 H154 H 0.83861 0.55032 0.26454
 H155 H 0.80729 0.45813 0.35762
 H156 H 0.76528 0.45885 0.44019
 H157 H 0.73257 0.54625 0.47821
 H158 H 0.68874 0.54555 0.40674
 H159 H 0.72198 0.47284 0.30450
 H160 H 0.69082 0.46333 0.50920
 H161 H 0.64692 0.46065 0.58591
 H162 H 0.70767 0.52711 0.78123
 H163 H 0.75138 0.53120 0.69956
 H164 H 0.75016 0.46329 0.67082
 H165 H 0.79234 0.46568 0.75501
 H166 H 0.85496 0.54850 0.60882
 H167 H 0.81213 0.54723 0.53433
 H168 H 0.67959 0.47346 0.22795
 C169 C 0.49170 0.24570 0.54448
 C170 C 0.49206 0.24690 0.45276
 C171 C 0.49268 0.27296 0.40507
 C172 C 0.49402 0.22338 0.39745
 C173 C 0.49146 0.21988 0.59327
 C174 C 0.49131 0.27010 0.59920
 C175 C 0.46588 0.27456 0.39465
 C176 C 0.46719 0.30067 0.35723
 C177 C 0.49533 0.32548 0.32879
 C178 C 0.52195 0.32320 0.33666
 C179 C 0.52062 0.29718 0.37460
 C180 C 0.47030 0.20491 0.33816
 C181 C 0.47020 0.18020 0.29447
 C182 C 0.49390 0.17361 0.30935
 C183 C 0.51845 0.19329 0.36521
 C184 C 0.51860 0.21802 0.40825
 C185 C 0.51673 0.22477 0.64463
 C186 C 0.51793 0.20013 0.68325
 C187 C 0.49375 0.16971 0.67204
 C188 C 0.46790 0.16526 0.62245
 C189 C 0.46686 0.19002 0.58363
 C190 C 0.51830 0.29371 0.63570
 C191 C 0.51782 0.31675 0.68698
 C192 C 0.49048 0.31779 0.70002
 C193 C 0.46343 0.29369 0.66133
 C194 C 0.46386 0.27000 0.61337
 H195 H 0.44407 0.25581 0.41701
 H196 H 0.44619 0.30140 0.35042
 H197 H 0.54399 0.34190 0.31565
 H198 H 0.54149 0.29623 0.38234
 H199 H 0.45131 0.20893 0.32829
 H200 H 0.45136 0.16607 0.25005
 H201 H 0.53738 0.23239 0.45266
 H202 H 0.53628 0.24750 0.65173
 H203 H 0.53871 0.20516 0.71813
 H204 H 0.44800 0.14285 0.61414
 H205 H 0.44699 0.18585 0.54470
 H206 H 0.53988 0.29442 0.62460
 H207 H 0.53919 0.33339 0.71674
 H208 H 0.44155 0.29251 0.66605
 H209 H 0.44272 0.25175 0.58573
 H210 H 0.53705 0.18895 0.37841
 C211 C 0.75353 0.24484 0.54491
 C212 C 0.75253 0.24449 0.45312
 C213 C 0.72692 0.21920 0.40348
 C214 C 0.77641 0.26988 0.39889
 C215 C 0.77948 0.26970 0.59496
 C216 C 0.72789 0.22103 0.59857
 C217 C 0.72074 0.18892 0.41289
 C218 C 0.69545 0.16499 0.37015
 C219 C 0.67596 0.17094 0.31689
 C220 C 0.68264 0.20142 0.30622
 C221 C 0.70798 0.22534 0.34885
 C222 C 0.79617 0.26474 0.34419
 C223 C 0.82028 0.28910 0.29833
 C224 C 0.82452 0.31881 0.30498
 C225 C 0.80408 0.32369 0.35752
 C226 C 0.78029 0.29942 0.40457
 C227 C 0.77409 0.28750 0.65688
 C228 C 0.79852 0.31286 0.69779
 C229 C 0.82916 0.32123 0.67760
 C230 C 0.83416 0.30209 0.61838
 C231 C 0.80964 0.27661 0.57822
 C232 C 0.69914 0.21906 0.59790
 C233 C 0.67448 0.19538 0.64403
 C234 C 0.67817 0.17314 0.69042
 C235 C 0.70710 0.17541 0.69192
 C236 C 0.73188 0.19940 0.64704
 H237 H 0.73543 0.18384 0.45375
 H238 H 0.69141 0.14191 0.37788
 H239 H 0.66792 0.20676 0.26645
 H240 H 0.71238 0.24859 0.34111
 H241 H 0.79339 0.24202 0.33909
 H242 H 0.83552 0.28475 0.25727
 H243 H 0.76513 0.30368 0.44639
 H244 H 0.75093 0.28249 0.67090
 H245 H 0.79311 0.32672 0.74157
 H246 H 0.85689 0.30615 0.60356
 H247 H 0.81421 0.26250 0.53270
 H248 H 0.69578 0.23566 0.56070
 H249 H 0.65236 0.19400 0.64167
 H250 H 0.71055 0.15874 0.72826
 H251 H 0.75397 0.20067 0.64800
 H252 H 0.80697 0.34642 0.36390
 O253 O 0.95745 0.52613 -0.16214
 O254 O 0.92345 0.48333 -0.08308
 C255 C 0.92983 0.50513 -0.14041
 O256 O 1.04357 0.47251 -0.16267
 O257 O 1.07670 0.51382 -0.07709
 C258 C 1.07093 0.49254 -0.13600
 O259 O 0.95764 0.43284 -0.17812
 O260 O 0.92364 0.43883 -0.08916
 C261 C 0.93003 0.42560 -0.15403
 O262 O 1.04327 0.57106 -0.14977
 O263 O 1.07649 0.55999 -0.07603
 C264 C 1.07068 0.57710 -0.12831
 Zr265 Zr 1.00023 0.53300 -0.11541
 O266 O 1.00457 0.53396 -0.25784
 O267 O 0.99735 0.57346 -0.12068
 Zr268 Zr 1.00024 0.46621 -0.12365
 O269 O 1.00496 0.47102 -0.26570
 O270 O 0.99649 0.42250 -0.13231
 O271 O 0.97284 0.48620 -0.13815
 O272 O 1.02716 0.51319 -0.13481
 O273 O 1.04176 0.56644 0.15687
 O274 O 1.07589 0.55881 0.07372
 C275 C 1.06940 0.57382 0.13257
 O276 O 0.95556 0.42797 0.15190
 O277 O 0.92278 0.43686 0.06750
 C278 C 0.92829 0.42176 0.12808
 O279 O 1.04130 0.46808 0.14599
 O280 O 1.07519 0.51197 0.07142
 C281 C 1.06889 0.48927 0.12512
 O282 O 0.95557 0.52163 0.16072
 O283 O 0.92255 0.48123 0.07219
 C284 C 0.92822 0.50135 0.13477
 Zr285 Zr 0.99894 0.53002 0.11363
 O286 O 1.00140 0.52784 0.25595
 O287 O 0.99597 0.57034 0.12566
 Zr288 Zr 0.99875 0.46297 0.10462
 O289 O 1.00140 0.46357 0.24730
 O290 O 0.99511 0.41924 0.10047
 Zr291 Zr 0.95394 0.47550 -0.00696
 Zr292 Zr 1.04505 0.52084 -0.00324
 O293 O 1.02549 0.50961 0.12666
 O294 O 0.97130 0.48266 0.12561
 O295 O 1.02662 0.55034 0.00085
 O296 O 0.97292 0.44655 -0.01127
 O297 O 0.97329 0.52343 -0.00129
 O298 O 1.02667 0.47296 -0.00893
 H299 H 1.04170 0.52089 -0.18628
 H300 H 0.95914 0.42406 -0.01388
 H301 H 1.03929 0.51601 0.17956
 H302 H 0.95992 0.53265 0.00016
 H303 H 1.01199 0.42258 -0.09140
 H304 H 1.01174 0.42085 0.06112
 H305 H 0.98378 0.46497 0.27110
 H306 H 0.98192 0.51026 0.27725
 H307 H 1.01094 0.58550 0.08281
 H308 H 1.00917 0.58628 -0.06897
 H309 H 0.98483 0.51792 -0.28269
 H310 H 0.98755 0.47289 -0.28856
 O311 O 0.56977 0.52745 0.15679
 O312 O 0.56035 0.48383 0.08107
 C313 C 0.57534 0.50541 0.13938
 O314 O 0.43256 0.47952 0.15389
 O315 O 0.44218 0.52058 0.06436
 C316 C 0.42651 0.50037 0.12573
 O317 O 0.47660 0.43728 0.17602
 O318 O 0.51619 0.44142 0.08892
 C319 C 0.49668 0.42927 0.15436
 O320 O 0.53158 0.57469 0.13721
 O321 O 0.48876 0.56529 0.05790
 C322 C 0.51084 0.58138 0.11369
 Zr323 Zr 0.53639 0.53660 0.10245
 O324 O 0.53648 0.54233 0.24408
 O325 O 0.58055 0.57577 0.09292
 Zr326 Zr 0.46821 0.47087 0.11656
 O327 O 0.46800 0.47667 0.25811
 O328 O 0.42745 0.42800 0.12664
 O329 O 0.51538 0.48991 0.13107
 O330 O 0.48983 0.51808 0.12254
 O331 O 0.52845 0.56687 -0.17639
 O332 O 0.48798 0.56234 -0.09207
 C333 C 0.50895 0.57546 -0.15345
 O334 O 0.47244 0.42796 -0.14981
 O335 O 0.51464 0.43722 -0.06720
 C336 C 0.49307 0.42128 -0.12437
 O337 O 0.43033 0.47204 -0.15699
 O338 O 0.44145 0.51709 -0.08707
 C339 C 0.42514 0.49443 -0.14088
 O340 O 0.56655 0.51856 -0.17367
 O341 O 0.55973 0.48074 -0.07398
 C342 C 0.57328 0.49858 -0.14202
 Zr343 Zr 0.53432 0.53080 -0.12504
 O344 O 0.53175 0.52937 -0.26771
 O345 O 0.57855 0.56995 -0.13170
 Zr346 Zr 0.46621 0.46511 -0.11114
 O347 O 0.46450 0.46401 -0.25400
 O348 O 0.42502 0.42248 -0.10467
 Zr349 Zr 0.52285 0.47703 0.00218
 Zr350 Zr 0.47971 0.52484 -0.01028
 O351 O 0.48753 0.51156 -0.13804
 O352 O 0.51303 0.48309 -0.13195
 O353 O 0.52768 0.55317 -0.01598
 O354 O 0.47490 0.44932 0.00754
 O355 O 0.55292 0.52452 -0.00850
 O356 O 0.44900 0.47730 -0.00012
 H357 H 0.48359 0.52653 0.17354
 H358 H 0.46563 0.42681 0.01327
 H359 H 0.48064 0.51764 -0.19282
 H360 H 0.57528 0.53238 -0.00951
 H361 H 0.41222 0.42869 0.08628
 H362 H 0.41044 0.42535 -0.06683
 H363 H 0.48208 0.46217 -0.27612
 H364 H 0.52684 0.50857 -0.28662
 H365 H 0.57764 0.58679 -0.10004
 H366 H 0.57892 0.59092 0.05437
 H367 H 0.53293 0.52304 0.27235
 H368 H 0.48709 0.47840 0.28207
 O369 O 0.46930 0.04128 0.15344
 O370 O 0.51224 0.07531 0.07446
 C371 C 0.49082 0.06888 0.13364
 O372 O 0.52191 -0.04351 0.16623
 O373 O 0.48179 -0.07750 0.07872
 C374 C 0.50194 -0.07112 0.14164
 O375 O 0.56202 0.04236 0.17156
 O376 O 0.55616 0.07569 0.07950
 C377 C 0.56953 0.06978 0.14465
 O378 O 0.42403 -0.04509 0.14156
 O379 O 0.43564 -0.07820 0.06803
 C380 C 0.41842 -0.07250 0.12039
 Zr381 Zr 0.46148 -0.00166 0.10469
 O382 O 0.45676 -0.00552 0.24687
 O383 O 0.42137 0.00173 0.09556
 Zr384 Zr 0.52885 -0.00082 0.11955
 O385 O 0.52379 -0.00398 0.26179
 O386 O 0.57243 0.00282 0.12987
 O387 O 0.50821 0.02605 0.12980
 O388 O 0.48182 -0.02786 0.12864
 O389 O 0.43068 -0.04476 -0.16667
 O390 O 0.43834 -0.07825 -0.08086
 C391 C 0.42363 -0.07223 -0.14181
 O392 O 0.56840 0.04277 -0.15538
 O393 O 0.55843 0.07588 -0.07531
 C394 C 0.57412 0.07016 -0.13369
 O395 O 0.52940 -0.04352 -0.14329
 O396 O 0.48492 -0.07760 -0.07095
 C397 C 0.50835 -0.07119 -0.12203
 O398 O 0.47561 0.04086 -0.17842
 O399 O 0.51401 0.07478 -0.08611
 C400 C 0.49547 0.06846 -0.15360
 Zr401 Zr 0.46614 -0.00161 -0.12266
 O402 O 0.46699 -0.00544 -0.26482
 O403 O 0.42598 0.00174 -0.13086
 Zr404 Zr 0.53348 -0.00072 -0.10878
 O405 O 0.53286 -0.00464 -0.25125
 O406 O 0.57735 0.00343 -0.10587
 Zr407 Zr 0.51985 0.04436 -0.00173
 Zr408 Zr 0.47539 -0.04669 -0.00173
 O409 O 0.48713 -0.02789 -0.13226
 O410 O 0.51353 0.02616 -0.13331
 O411 O 0.44533 -0.02900 -0.01011
 O412 O 0.54903 0.02574 0.00632
 O413 O 0.47209 0.02510 -0.01002
 O414 O 0.52319 -0.02789 0.00673
 H415 H 0.47380 -0.04183 0.18129
 H416 H 0.57147 0.03962 0.00924
 H417 H 0.48130 -0.04208 -0.18430
 H418 H 0.46353 0.03903 -0.01323
 H419 H 0.57174 -0.01434 0.09532
 H420 H 0.57702 -0.01012 -0.05712
 H421 H 0.53443 0.01423 -0.27690
 H422 H 0.48726 0.01083 -0.28609
 H423 H 0.40970 -0.01565 -0.09667
 H424 H 0.40675 -0.01523 0.05671
 H425 H 0.47574 0.01131 0.27309
 H426 H 0.52251 0.01401 0.28280
 C427 C 1.14931 0.51241 0.19887
 C428 C 1.14576 0.48768 0.25281
 C429 C 1.11595 0.46124 0.25211
 C430 C 1.09113 0.46132 0.20885
 C431 C 1.09498 0.48762 0.16407
 C432 C 1.12475 0.51225 0.15593
 C433 C 1.13633 0.54536 0.17341
 C434 C 1.16307 0.54581 0.22126
 H435 H 1.11107 0.44002 0.28403
 H436 H 1.06874 0.44097 0.21266
 H437 H 1.12116 0.54939 0.21925
 H438 H 1.14303 0.55905 0.11010
 H439 H 1.16342 0.55000 0.29510
 H440 H 1.18516 0.56034 0.18577
 C441 C 0.53927 0.65468 0.24592
 C442 C 0.51450 0.66001 0.24507
 C443 C 0.48690 0.63687 0.20663
 C444 C 0.48564 0.61143 0.16275
 C445 C 0.51176 0.60811 0.15756
 C446 C 0.53786 0.62937 0.20410
 C447 C 0.57026 0.64716 0.17251
 C448 C 0.57179 0.67499 0.21782
 H449 H 0.46618 0.63824 0.20972
 H450 H 0.46431 0.59453 0.13246
 H451 H 0.57235 0.64908 0.09777
 H452 H 0.58497 0.63937 0.20554
 H453 H 0.57453 0.69305 0.16934
 H454 H 0.58761 0.68331 0.27640
 C455 C 0.36577 -0.15132 0.21541
 C456 C 0.34103 -0.14926 0.25257
 C457 C 0.34090 -0.12157 0.23380
 C458 C 0.36552 -0.09684 0.18874
 C459 C 0.39081 -0.09905 0.15839
 C460 C 0.38918 -0.12740 0.16731
 C461 C 0.41281 -0.13465 0.19855
 C462 C 0.38773 -0.16030 0.25355
 H463 H 0.32310 -0.11760 0.25962
 H464 H 0.36521 -0.07561 0.18067
 H465 H 0.43086 -0.11612 0.24030
 H466 H 0.42117 -0.14310 0.14222
 H467 H 0.39130 -0.15610 0.32742
 H468 H 0.38271 -0.18339 0.23072
 C469 C 0.88124 0.52913 0.26051
 C470 C 0.85153 0.50408 0.25589
 C471 C 0.84670 0.47905 0.20161
 C472 C 0.87157 0.47826 0.16085
 C473 C 0.90186 0.50220 0.17513
 C474 C 0.90581 0.52812 0.22175
 C475 C 0.92638 0.54500 0.29882
 C476 C 0.89946 0.54620 0.34112
 H477 H 0.82383 0.45981 0.19257
 H478 H 0.86712 0.45840 0.12115
 H479 H 0.94535 0.56789 0.27820
 H480 H 0.93351 0.53070 0.33753
 H481 H 0.90289 0.56976 0.34461
 H482 H 0.89099 0.53266 0.40452
 C483 C 0.51883 0.37098 0.22543
 C484 C 0.49726 0.35383 0.29196
 C485 C 0.47818 0.36507 0.32345
 C486 C 0.47849 0.39037 0.28125
 C487 C 0.49788 0.40492 0.20670
 C488 C 0.51906 0.39569 0.18384
 C489 C 0.52693 0.38789 0.09399
 C490 C 0.52669 0.36077 0.13974
 H491 H 0.46237 0.35382 0.37868
 H492 H 0.46267 0.39758 0.30449
 H493 H 0.55004 0.40555 0.07031
 H494 H 0.50832 0.38107 0.04364
 H495 H 0.54969 0.36286 0.14245
 H496 H 0.50795 0.33823 0.11599
 C497 C 0.63139 0.11693 0.31241
 C498 C 0.64896 0.14557 0.27199
 C499 C 0.63932 0.14890 0.18490
 C500 C 0.61326 0.12438 0.14338
 C501 C 0.59594 0.09585 0.18788
 C502 C 0.60635 0.09352 0.27267
 C503 C 0.59891 0.07272 0.35158
 C504 C 0.62719 0.09920 0.39708
 H505 H 0.65207 0.17019 0.14808
 H506 H 0.60691 0.12775 0.07638
 H507 H 0.60154 0.05254 0.33599
 H508 H 0.57693 0.06746 0.38422
 H509 H 0.64591 0.09401 0.40840
 H510 H 0.62145 0.10916 0.45590
 C511 C 0.51765 0.14903 -0.22560
 C512 C 0.49594 0.14467 -0.29209
 C513 C 0.47731 0.11409 -0.32282
 C514 C 0.47795 0.08937 -0.28039
 C515 C 0.49717 0.09427 -0.20591
 C516 C 0.51819 0.12462 -0.18400
 C517 C 0.52630 0.14008 -0.09448
 C518 C 0.52550 0.16677 -0.13911
 H519 H 0.46190 0.10871 -0.37911
 H520 H 0.46243 0.06636 -0.30386
 H521 H 0.54967 0.14572 -0.07338
 H522 H 0.50798 0.12810 -0.04304
 H523 H 0.54839 0.18780 -0.14152
 H524 H 0.50663 0.17024 -0.11392
 C525 C 0.62091 0.48532 -0.31383
 C526 C 0.64771 0.49241 -0.26600
 C527 C 0.64753 0.49782 -0.17209
 C528 C 0.62280 0.49894 -0.13138
 C529 C 0.59834 0.49610 -0.18390
 C530 C 0.59722 0.48775 -0.27416
 C531 C 0.59119 0.50047 -0.35721
 C532 C 0.61711 0.49789 -0.40134
 H533 H 0.66632 0.50116 -0.12946
 H534 H 0.62351 0.50349 -0.05964
 H535 H 0.59637 0.52453 -0.34849
 H536 H 0.56839 0.48457 -0.38649
 H537 H 0.63730 0.52044 -0.41867
 H538 H 0.60918 0.48060 -0.45637
 C539 C 0.84986 0.36293 -0.21013
 C540 C 0.85389 0.34840 -0.28595
 C541 C 0.88356 0.36317 -0.32560
 C542 C 0.90821 0.38885 -0.28466
 C543 C 0.90409 0.40067 -0.20296
 C544 C 0.87425 0.38811 -0.16979
 C545 C 0.86230 0.37748 -0.07678
 C546 C 0.83557 0.34985 -0.12031
 H547 H 0.88819 0.35523 -0.38831
 H548 H 0.93064 0.39883 -0.31574
 H549 H 0.85556 0.39290 -0.04258
 H550 H 0.87727 0.37164 -0.03649
 H551 H 0.81349 0.34942 -0.11035
 H552 H 0.83493 0.32791 -0.10515
 C553 C 0.48872 -0.15091 -0.19559
 C554 C 0.51512 -0.14634 -0.24099
 C555 C 0.54142 -0.11696 -0.23256
 C556 C 0.53958 -0.09257 -0.19177
 C557 C 0.51157 -0.09700 -0.15689
 C558 C 0.48708 -0.12706 -0.15430
 C559 C 0.45439 -0.13974 -0.17958
 C560 C 0.45621 -0.16572 -0.22597
 H561 H 0.56324 -0.11230 -0.25993
 H562 H 0.55983 -0.07007 -0.19049
 H563 H 0.45084 -0.12468 -0.22693
 H564 H 0.43932 -0.14751 -0.11913
 H565 H 0.45411 -0.16559 -0.30066
 H566 H 0.44159 -0.18828 -0.19302
 C567 C 0.35285 0.46805 -0.27629
 C568 C 0.34947 0.49406 -0.27962
 C569 C 0.37399 0.52169 -0.24586
 C570 C 0.39877 0.52198 -0.20116
 C571 C 0.39993 0.49476 -0.19021
 C572 C 0.37745 0.46844 -0.23328
 C573 C 0.35807 0.43685 -0.19676
 C574 C 0.33110 0.43640 -0.24375
 H575 H 0.37394 0.54306 -0.25220
 H576 H 0.41667 0.54341 -0.17382
 H577 H 0.35632 0.43641 -0.12184
 H578 H 0.36437 0.42040 -0.22616
 H579 H 0.31364 0.43570 -0.19617
 H580 H 0.32184 0.41960 -0.30002
 C581 C 1.11640 0.65200 -0.25470
 C582 C 1.14646 0.65708 -0.25262
 C583 C 1.15174 0.63772 -0.19494
 C584 C 1.12734 0.61265 -0.15053
 C585 C 1.09684 0.60547 -0.16479
 C586 C 1.09231 0.62672 -0.21320
 C587 C 1.07074 0.62199 -0.28824
 C588 C 1.09700 0.64966 -0.33389
 H589 H 1.17462 0.64168 -0.18364
 H590 H 1.13235 0.59823 -0.10816
 H591 H 1.05190 0.62600 -0.26639
 H592 H 1.06337 0.60022 -0.32542
 H593 H 1.09316 0.66953 -0.33839
 H594 H 1.10480 0.64398 -0.39767
 C595 C 0.84954 0.48230 -0.21425
 C596 C 0.85304 0.50788 -0.26297
 C597 C 0.88261 0.53445 -0.25984
 C598 C 0.90755 0.53376 -0.21958
 C599 C 0.90383 0.50675 -0.17991
 C600 C 0.87412 0.48190 -0.17356
 C601 C 0.86260 0.44918 -0.19675
 C602 C 0.83582 0.44943 -0.24213
 H603 H 0.88715 0.55605 -0.28823
 H604 H 0.92983 0.55430 -0.22101
 H605 H 0.85586 0.43447 -0.13559
 H606 H 0.87786 0.44606 -0.24473
 H607 H 0.81371 0.43428 -0.20752
 H608 H 0.83554 0.44659 -0.31666
 C609 C 0.51770 0.36689 -0.21547
 C610 C 0.49038 0.34194 -0.24906
 C611 C 0.46297 0.34221 -0.22686
 C612 C 0.46368 0.36766 -0.18481
 C613 C 0.49159 0.39337 -0.16080
 C614 C 0.51809 0.39153 -0.17158
 C615 C 0.54765 0.41443 -0.21295
 C616 C 0.54752 0.38793 -0.26172
 H617 H 0.44058 0.32351 -0.24293
 H618 H 0.44237 0.36748 -0.17317
 H619 H 0.56616 0.42544 -0.16200
 H620 H 0.54505 0.43040 -0.25897
 H621 H 0.56647 0.38427 -0.23913
 H622 H 0.54516 0.38867 -0.33616
 C623 C 0.64534 0.11736 -0.27261
 C624 C 0.65188 0.14754 -0.26333
 C625 C 0.63160 0.15215 -0.20769
 C626 C 0.60630 0.12706 -0.16466
 C627 C 0.60033 0.09661 -0.17722
 C628 C 0.62084 0.09330 -0.23273
 C629 C 0.62716 0.07020 -0.27525
 C630 C 0.65484 0.09748 -0.32095
 H631 H 0.63538 0.17505 -0.19681
 H632 H 0.59142 0.13157 -0.12238
 H633 H 0.60897 0.05517 -0.32348
 H634 H 0.63360 0.05811 -0.22475
 H635 H 0.65248 0.09821 -0.39536
 H636 H 0.67725 0.10100 -0.29717
 C637 C 1.15203 0.51094 -0.18563
 C638 C 1.14825 0.49064 -0.25540
 C639 C 1.11826 0.46728 -0.27523
 C640 C 1.09287 0.46726 -0.23480
 C641 C 1.09709 0.49047 -0.17312
 C642 C 1.12709 0.51076 -0.14542
 C643 C 1.14380 0.54475 -0.13496
 C644 C 1.17130 0.54494 -0.17844
 H645 H 1.11442 0.45013 -0.32560
 H646 H 1.07010 0.44991 -0.25495
 H647 H 1.14748 0.55185 -0.06292
 H648 H 1.13391 0.55581 -0.17743
 H649 H 1.19072 0.55192 -0.13109
 H650 H 1.17749 0.55674 -0.24488
 C651 C 0.52347 0.65521 -0.19727
 C652 C 0.51111 0.65311 -0.28376
 C653 C 0.50179 0.62537 -0.33159
 C654 C 0.50214 0.60033 -0.29035
 C655 C 0.51108 0.60207 -0.19990
 C656 C 0.52309 0.63026 -0.15625
 C657 C 0.51570 0.63780 -0.06570
 C658 C 0.51607 0.66516 -0.11001
 H659 H 0.49430 0.62274 -0.40098
 H660 H 0.49414 0.57921 -0.32778
 H661 H 0.53465 0.64439 -0.01693
 H662 H 0.49265 0.62031 -0.04099
 H663 H 0.53518 0.68744 -0.08612
 H664 H 0.49326 0.66360 -0.11075
 C665 C 0.35403 -0.11676 -0.28922
 C666 C 0.34440 -0.14775 -0.27036
 C667 C 0.36392 -0.15297 -0.21294
 C668 C 0.38955 -0.12861 -0.17128
 C669 C 0.39746 -0.09806 -0.18738
 C670 C 0.37982 -0.09279 -0.24946
 C671 C 0.36518 -0.07357 -0.23838
 C672 C 0.33687 -0.09961 -0.28105
 H673 H 0.35990 -0.17562 -0.19794
 H674 H 0.40256 -0.13385 -0.12407
 H675 H 0.37634 -0.05262 -0.28105
 H676 H 0.36186 -0.06961 -0.16637
 H677 H 0.33169 -0.09316 -0.34770
 H678 H 0.31707 -0.11083 -0.23391
 C679 C 0.48218 -0.15150 0.20791
 C680 C 0.50220 -0.14640 0.27921
 C681 C 0.51986 -0.11639 0.31231
 C682 C 0.51937 -0.09181 0.26891
 C683 C 0.50151 -0.09681 0.19078
 C684 C 0.48219 -0.12717 0.16395
 C685 C 0.47899 -0.14152 0.07349
 C686 C 0.47857 -0.16832 0.12170
 H687 H 0.53473 -0.11188 0.36981
 H688 H 0.53376 -0.06887 0.29473
 H689 H 0.49965 -0.12834 0.03059
 H690 H 0.45690 -0.14764 0.04066
 H691 H 0.49872 -0.17094 0.10561
 H692 H 0.45607 -0.18977 0.11784
 C693 C 0.35328 0.47610 0.25385
 C694 C 0.34836 0.50091 0.25004
 C695 C 0.37029 0.52671 0.20060
 C696 C 0.39565 0.52662 0.15835
 C697 C 0.40006 0.50100 0.16629
 C698 C 0.37785 0.47629 0.21534
 C699 C 0.36947 0.44544 0.25109
 C700 C 0.34171 0.44533 0.29539
 H701 H 0.36779 0.54677 0.19422
 H702 H 0.41190 0.54670 0.12101
 H703 H 0.38644 0.44639 0.30060
 H704 H 0.36321 0.42820 0.19643
 H705 H 0.34282 0.44642 0.37034
 H706 H 0.31940 0.42787 0.26672
 C707 C 1.11362 0.64220 0.28470
 C708 C 1.14407 0.65365 0.25773
 C709 C 1.14928 0.64059 0.17993
 C710 C 1.12500 0.61483 0.13802
 C711 C 1.09494 0.60161 0.17272
 C712 C 1.08973 0.61696 0.24327
 C713 C 1.07306 0.60489 0.33050
 C714 C 1.09930 0.63256 0.37597
 H715 H 1.17212 0.64975 0.15246
 H716 H 1.12996 0.60487 0.08007
 H717 H 1.07129 0.58277 0.35047
 H718 H 1.05117 0.60521 0.33246
 H719 H 1.11282 0.62655 0.42231
 H720 H 1.09246 0.64874 0.40425
 C721 C 0.51942 0.14487 0.25157
 C722 C 0.49263 0.14575 0.27035
 C723 C 0.46458 0.11838 0.25597
 C724 C 0.46392 0.09293 0.21354
 C725 C 0.49123 0.09438 0.18375
 C726 C 0.51878 0.12000 0.20962
 C727 C 0.54776 0.13976 0.15940
 C728 C 0.54825 0.16717 0.20455
 H729 H 0.44311 0.11675 0.27544
 H730 H 0.44201 0.07276 0.20023
 H731 H 0.54452 0.13905 0.08538
 H732 H 0.56660 0.13609 0.18235
 H733 H 0.54477 0.18215 0.15662
 H734 H 0.56765 0.17935 0.25214
 C735 C 0.64705 0.53195 0.27663
 C736 C 0.65175 0.50677 0.27461
 C737 C 0.62785 0.47908 0.23894
 C738 C 0.60249 0.47825 0.19645
 C739 C 0.60017 0.50494 0.19005
 C740 C 0.62191 0.53102 0.23585
 C741 C 0.64016 0.56335 0.20377
 C742 C 0.66777 0.56438 0.24832
 H743 H 0.62894 0.45818 0.24150
 H744 H 0.58523 0.45698 0.16650
 H745 H 0.63291 0.57854 0.23692
 H746 H 0.64195 0.56514 0.12891
 H747 H 0.67643 0.58024 0.30691
 H748 H 0.68560 0.56671 0.19939
 C749 C 0.87993 0.34936 0.26083
 C750 C 0.85030 0.34469 0.25786
 C751 C 0.84648 0.36660 0.20831
 C752 C 0.87178 0.39165 0.16520
 C753 C 0.90169 0.39577 0.17166
 C754 C 0.90425 0.37369 0.22112
 C755 C 0.92663 0.36504 0.25542
 C756 C 0.89910 0.33757 0.30103
 H757 H 0.82404 0.36433 0.20240
 H758 H 0.86789 0.40787 0.12791
 H759 H 0.94301 0.38208 0.30413
 H760 H 0.93711 0.35841 0.20004
 H761 H 0.89958 0.33889 0.37598
 H762 H 0.89387 0.31507 0.27235
   
