data_POSCAR
  _audit_creation_date              2014-09-24
  _audit_creation_method            'ToBaCCo'
  _symmetry_space_group_name_H-M    'P1'
  _symmetry_Int_Tables_number       1
  _symmetry_cell_setting            triclinic
  loop_
  _symmetry_equiv_pos_as_xyz
 x,y,z
_cell_length_a 41.7792
_cell_length_b 41.7666
_cell_length_c 41.8606
_cell_angle_alpha 90.033100
_cell_angle_beta 90.042000
_cell_angle_gamma 89.846700
loop_
  _atom_site_label
  _atom_site_type_symbol
  _atom_site_fract_x
  _atom_site_fract_y
  _atom_site_fract_z
C1 C 0.33882 0.33714 1.37954
 C2 C 0.31135 0.34941 1.39448
 C3 C 0.29605 0.37667 1.38223
 C4 C 0.30820 0.39195 1.35501
 C5 C 0.33564 0.37999 1.33978
 C6 C 0.35105 0.35244 1.35205
 C7 C 0.35409 0.30964 1.39139
 C8 C 0.38129 0.29734 1.37605
 C9 C 0.39351 0.31254 1.34884
 C10 C 0.37853 0.34006 1.33668
 C11 C 0.39033 0.35525 1.30924
 C12 C 0.37497 0.38249 1.29708
 C13 C 0.34777 0.39486 1.31231
 H14 H 0.30177 0.33763 1.41550
 H15 H 0.29618 0.41299 1.34558
 H16 H 0.34469 0.29771 1.41239
 H17 H 0.41452 0.30284 1.33701
 H18 H 0.41131 0.34580 1.29721
 H19 H 0.33599 0.41591 1.30263
 C20 C 1.16095 0.66362 0.87954
 C21 C 1.18843 0.65131 0.89448
 C22 C 1.20365 0.62400 0.88221
 C23 C 1.19141 0.60873 0.85500
 C24 C 1.16397 0.62073 0.83978
 C25 C 1.14864 0.64831 0.85206
 C26 C 1.14576 0.69115 0.89141
 C27 C 1.11854 0.70350 0.87610
 C28 C 1.10624 0.68829 0.84888
 C29 C 1.12115 0.66073 0.83671
 C30 C 1.10927 0.64554 0.80927
 C31 C 1.12455 0.61826 0.79709
 C32 C 1.15175 0.60585 0.81231
 H33 H 1.19807 0.66308 0.91549
 H34 H 1.20336 0.58765 0.84555
 H35 H 1.15522 0.70309 0.91242
 H36 H 1.08522 0.69802 0.83708
 H37 H 1.08828 0.65502 0.79725
 H38 H 1.16347 0.58477 0.80263
 C39 C 0.66034 -0.16502 0.11969
 C40 C 0.68784 -0.15293 0.10479
 C41 C 0.70314 -0.12578 0.11709
 C42 C 0.69102 -0.11043 0.14429
 C43 C 0.66356 -0.12219 0.15950
 C44 C 0.64811 -0.14962 0.14718
 C45 C 0.64503 -0.19241 0.10780
 C46 C 0.61779 -0.20452 0.12311
 C47 C 0.60557 -0.18922 0.15033
 C48 C 0.62060 -0.16181 0.16252
 C49 C 0.60880 -0.14653 0.18997
 C50 C 0.62421 -0.11940 0.20217
 C51 C 0.65144 -0.10722 0.18697
 H52 H 0.69748 -0.16470 0.08377
 H53 H 0.70311 -0.08949 0.15369
 H54 H 0.65443 -0.20442 0.08680
 H55 H 0.58454 -0.19877 0.16213
 H56 H 0.58779 -0.15583 0.20198
 H57 H 0.66325 -0.08627 0.19668
 C58 C -0.16018 1.16348 -0.37937
 C59 C -0.18768 1.15135 -0.39430
 C60 C -0.20294 1.12416 -0.38202
 C61 C -0.19073 1.10882 -0.35481
 C62 C -0.16326 1.12065 -0.33960
 C63 C -0.14789 1.14811 -0.35189
 C64 C -0.14494 1.19090 -0.39121
 C65 C -0.11773 1.20304 -0.37590
 C66 C -0.10544 1.18781 -0.34870
 C67 C -0.12038 1.16036 -0.33653
 C68 C -0.10852 1.14513 -0.30909
 C69 C -0.12386 1.11796 -0.29691
 C70 C -0.15108 1.10572 -0.31214
 H71 H -0.19731 1.16317 -0.41530
 H72 H -0.20271 1.08784 -0.34537
 H73 H -0.15432 1.20294 -0.41219
 H74 H -0.08443 1.19747 -0.33696
 H75 H -0.08753 1.15448 -0.29706
 H76 H -0.16283 1.08474 -0.30245
 C77 C 0.65985 0.66520 0.62121
 C78 C 0.68733 0.65274 0.60644
 C79 C 0.70238 0.62542 0.61881
 C80 C 0.69001 0.61025 0.64595
 C81 C 0.66256 0.62237 0.66102
 C82 C 0.64738 0.64999 0.64864
 C83 C 0.64481 0.69276 0.60924
 C84 C 0.61758 0.70523 0.62440
 C85 C 0.60512 0.69014 0.65157
 C86 C 0.61988 0.66254 0.66384
 C87 C 0.60784 0.64745 0.69123
 C88 C 0.62299 0.62013 0.70350
 C89 C 0.65020 0.60759 0.68843
 H90 H 0.69717 0.66437 0.58548
 H91 H 0.70190 0.58916 0.65540
 H92 H 0.65440 0.70461 0.58827
 H93 H 0.58410 0.69997 0.66326
 H94 H 0.58685 0.65702 0.70315
 H95 H 0.66181 0.58649 0.69819
 C96 C 0.83812 0.33538 0.12106
 C97 C 0.81057 0.34785 0.10639
 C98 C 0.79559 0.37521 0.11884
 C99 C 0.80813 0.39037 0.14598
 C100 C 0.83565 0.37821 0.16093
 C101 C 0.85074 0.35058 0.14846
 C102 C 0.85310 0.30781 0.10900
 C103 C 0.88041 0.29533 0.12404
 C104 C 0.89301 0.31042 0.15118
 C105 C 0.87832 0.33802 0.16354
 C106 C 0.89052 0.35311 0.19089
 C107 C 0.87546 0.38044 0.20326
 C108 C 0.84818 0.39299 0.18831
 H109 H 0.80069 0.33617 0.08543
 H110 H 0.79636 0.41148 0.15556
 H111 H 0.84340 0.29596 0.08805
 H112 H 0.91410 0.30059 0.16277
 H113 H 0.91158 0.34352 0.20271
 H114 H 0.83664 0.41410 0.19813
 C115 C 0.33829 0.16244 0.87905
 C116 C 0.31080 0.15010 0.89376
 C117 C 0.29570 0.12293 0.88121
 C118 C 0.30806 0.10782 0.85394
 C119 C 0.33552 0.11986 0.83895
 C120 C 0.35074 0.14730 0.85152
 C121 C 0.35338 0.18985 0.89118
 C122 C 0.38059 0.20220 0.87609
 C123 C 0.39304 0.18719 0.84885
 C124 C 0.37825 0.15976 0.83640
 C125 C 0.39027 0.14476 0.80891
 C126 C 0.37510 0.11762 0.79644
 C127 C 0.34787 0.10516 0.81142
 H128 H 0.30106 0.16175 0.91481
 H129 H 0.29619 0.08685 0.84428
 H130 H 0.34388 0.20172 0.91220
 H131 H 0.41405 0.19701 0.83728
 H132 H 0.41128 0.15428 0.79706
 H133 H 0.33624 0.08420 0.80151
 C134 C 0.16126 0.83599 0.38027
 C135 C 0.18873 0.84838 0.39505
 C136 C 0.20379 0.87555 0.38255
 C137 C 0.19146 0.89063 0.35529
 C138 C 0.16403 0.87857 0.34022
 C139 C 0.14883 0.85111 0.35272
 C140 C 0.14620 0.80857 0.39235
 C141 C 0.11900 0.79616 0.37717
 C142 C 0.10658 0.81118 0.34989
 C143 C 0.12135 0.83862 0.33751
 C144 C 0.10935 0.85361 0.31000
 C145 C 0.12452 0.88077 0.29761
 C146 C 0.15171 0.89326 0.31268
 H147 H 0.19854 0.83682 0.41610
 H148 H 0.20337 0.91159 0.34574
 H149 H 0.15576 0.79678 0.41340
 H150 H 0.08557 0.80140 0.33818
 H151 H 0.08837 0.84408 0.29808
 H152 H 0.16334 0.91423 0.30283
 Zn153 Zn 0.03934 0.98031 0.00635
 Zn154 Zn 0.00626 1.03850 -0.01893
 Zn155 Zn -0.02478 0.97418 -0.02516
 Zn156 Zn -0.01906 1.00551 0.03901
 O157 O 0.00042 0.99960 0.00029
 O158 O 0.07204 1.00380 -0.00824
 O159 O -0.01374 1.04131 -0.05659
 O160 O -0.00500 0.93789 -0.03713
 O161 O 0.04749 1.04699 -0.02697
 O162 O 0.04235 0.94259 -0.01368
 O163 O -0.03679 0.99380 -0.06142
 O164 O -0.05665 0.98532 0.04168
 O165 O -0.00859 1.07125 0.00448
 O166 O -0.06110 0.96208 -0.00574
 O167 O -0.02744 1.04674 0.04745
 O168 O 0.00440 0.99091 0.07178
 O169 O 0.04774 0.97223 0.04753
 C170 C 0.07273 1.03093 -0.02175
 C171 C -0.03084 1.02160 -0.07199
 C172 C 0.02278 0.92724 -0.03098
 C173 C -0.07185 0.96807 0.02195
 C174 C -0.02225 1.07198 0.03149
 C175 C 0.03161 0.97744 0.07264
 Zn176 Zn 0.48183 0.00744 0.46029
 Zn177 Zn 0.47593 -0.02387 0.52439
 Zn178 Zn 0.54011 -0.01794 0.49307
 Zn179 Zn 0.50717 0.04034 0.51837
 O180 O 0.50124 0.00147 0.49905
 O181 O 0.44415 -0.01259 0.45750
 O182 O 0.49559 -0.06019 0.53640
 O183 O 0.54848 -0.02616 0.45190
 O184 O 0.43962 -0.03587 0.50486
 O185 O 0.50524 -0.00730 0.42756
 O186 O 0.54302 -0.05563 0.51315
 O187 O 0.54843 0.04873 0.52646
 O188 O 0.46392 -0.00424 0.56062
 O189 O 0.57287 0.00550 0.50765
 O190 O 0.48713 0.04321 0.55601
 O191 O 0.49244 0.07314 0.49496
 O192 O 0.47364 0.04871 0.45187
 C193 C 0.42890 -0.02982 0.47716
 C194 C 0.52337 -0.07090 0.53038
 C195 C 0.53237 -0.02091 0.42677
 C196 C 0.57364 0.03264 0.52118
 C197 C 0.46993 0.02352 0.57128
 C198 C 0.47886 0.07392 0.46789
 Zn199 Zn 0.96110 0.48119 0.49378
 Zn200 Zn 1.02533 0.47513 0.52515
 Zn201 Zn 1.01922 0.50658 0.46109
 Zn202 Zn 0.99379 0.53938 0.51920
 O203 O 0.99989 0.50054 0.49983
 O204 O 0.95837 0.44348 0.51378
 O205 O 1.06171 0.46317 0.50562
 O206 O 0.99586 0.49191 0.42831
 O207 O 1.00583 0.43878 0.53705
 O208 O 0.95274 0.47304 0.45259
 O209 O 1.05698 0.48654 0.45830
 O210 O 1.00842 0.57220 0.49591
 O211 O 1.03726 0.49469 0.56147
 O212 O 1.02726 0.54784 0.45277
 O213 O 1.01380 0.54214 0.55688
 O214 O 0.95251 0.54782 0.52723
 O215 O 0.92823 0.50464 0.50836
 C216 C 0.97809 0.42813 0.53097
 C217 C 1.07236 0.46928 0.47793
 C218 C 0.96880 0.47831 0.42747
 C219 C 1.02197 0.57302 0.46885
 C220 C 1.03109 0.52244 0.57216
 C221 C 0.92736 0.53178 0.52191
 Zn222 Zn 0.48039 0.49354 0.96122
 Zn223 Zn 0.53856 0.51888 0.99400
 Zn224 Zn 0.47431 0.52514 1.02523
 Zn225 Zn 0.50576 0.46082 1.01942
 O226 O 0.49973 0.49962 1.00000
 O227 O 0.50376 0.50816 0.92848
 O228 O 0.54134 0.55663 1.01395
 O229 O 0.43795 0.53711 1.00562
 O230 O 0.54694 0.52696 0.95282
 O231 O 0.44263 0.51358 0.95836
 O232 O 0.49387 0.56150 1.03712
 O233 O 0.48567 0.45816 1.05703
 O234 O 0.57139 0.49542 1.00868
 O235 O 0.46233 0.50568 1.06154
 O236 O 0.54702 0.45236 1.02761
 O237 O 0.49117 0.42797 0.99609
 O238 O 0.47239 0.45226 0.95289
 C239 C 0.53085 0.52171 0.92769
 C240 C 0.52163 0.57207 1.03108
 C241 C 0.42728 0.53092 0.97794
 C242 C 0.46841 0.47793 1.07226
 C243 C 0.57220 0.46834 1.02231
 C244 C 0.47767 0.42710 0.96899
 C245 C 1.26895 0.38802 0.39641
 C246 C 1.24480 0.39801 0.40865
 C247 C 1.21573 0.40995 0.42277
 C248 C 1.21185 0.44284 0.42814
 C249 C 1.18312 0.45458 0.44071
 C250 C 1.15815 0.43348 0.44799
 C251 C 1.16215 0.40055 0.44294
 C252 C 1.19089 0.38880 0.43037
 C253 C 1.12805 0.44577 0.45943
 C254 C 1.10269 0.45633 0.46830
 H255 H 1.23087 0.45941 0.42227
 H256 H 1.18023 0.48011 0.44439
 H257 H 1.14295 0.38403 0.44836
 H258 H 1.19361 0.36333 0.42623
 C259 C 0.23074 0.61258 0.89638
 C260 C 0.25488 0.60250 0.90861
 C261 C 0.28392 0.59042 0.92270
 C262 C 0.30804 0.61163 0.93225
 C263 C 0.33677 0.59981 0.94481
 C264 C 0.34149 0.56672 0.94788
 C265 C 0.31724 0.54553 0.93864
 C266 C 0.28852 0.55735 0.92608
 C267 C 0.37159 0.55444 0.95935
 C268 C 0.39696 0.54387 0.96825
 H269 H 0.30477 0.63724 0.92966
 H270 H 0.35541 0.61640 0.95175
 H271 H 0.32068 0.51990 0.94079
 H272 H 0.27006 0.54073 0.91869
 C273 C -0.26822 0.88606 0.10215
 C274 C -0.24405 0.89603 0.09004
 C275 C -0.21498 0.90802 0.07612
 C276 C -0.18951 0.88711 0.06967
 C277 C -0.16078 0.89897 0.05734
 C278 C -0.15742 0.93180 0.05139
 C279 C -0.18301 0.95267 0.05752
 C280 C -0.21173 0.94080 0.06985
 C281 C -0.12738 0.94427 0.04017
 C282 C -0.10208 0.95498 0.03146
 H283 H -0.19173 0.86173 0.07452
 H284 H -0.14110 0.88265 0.05281
 H285 H -0.18063 0.97811 0.05313
 H286 H -0.23124 0.95720 0.07483
 C287 C 0.76994 0.11291 0.60383
 C288 C 0.74577 0.10297 0.59164
 C289 C 0.71670 0.09107 0.57758
 C290 C 0.71243 0.05808 0.57339
 C291 C 0.68371 0.04642 0.56079
 C292 C 0.65916 0.06771 0.55232
 C293 C 0.66355 0.10073 0.55623
 C294 C 0.69227 0.11239 0.56883
 C295 C 0.62914 0.05559 0.54063
 C296 C 0.60386 0.04524 0.53141
 H297 H 0.73113 0.04138 0.58015
 H298 H 0.68053 0.02084 0.55797
 H299 H 0.64468 0.11739 0.54987
 H300 H 0.69530 0.13794 0.57205
 C301 C 0.39551 0.27021 0.38733
 C302 C 0.40777 0.24603 0.39731
 C303 C 0.42192 0.21696 0.40925
 C304 C 0.43039 0.19236 0.38807
 C305 C 0.44309 0.16365 0.39978
 C306 C 0.44739 0.15943 0.43271
 C307 C 0.43920 0.18414 0.45386
 C308 C 0.42649 0.21284 0.44215
 C309 C 0.45921 0.12943 0.44489
 C310 C 0.46852 0.10415 0.45528
 H311 H 0.42687 0.19526 0.36259
 H312 H 0.44924 0.14466 0.38323
 H313 H 0.44232 0.18109 0.47937
 H314 H 0.41995 0.23167 0.45874
 C315 C 0.89724 0.23165 0.61221
 C316 C 0.90941 0.25581 0.60227
 C317 C 0.92343 0.28488 0.59036
 C318 C 0.92965 0.28829 0.55766
 C319 C 0.94210 0.31701 0.54591
 C320 C 0.94839 0.34245 0.56682
 C321 C 0.94249 0.33892 0.59957
 C322 C 0.93004 0.31019 0.61132
 C323 C 0.95972 0.37251 0.55448
 C324 C 0.96852 0.39784 0.54391
 H325 H 0.92455 0.26890 0.54124
 H326 H 0.94645 0.31953 0.52053
 H327 H 0.94714 0.35848 0.61593
 H328 H 0.92523 0.30784 0.63664
 C329 C 0.10438 0.73065 -0.11259
 C330 C 0.09218 0.75485 -0.10258
 C331 C 0.07813 0.78395 -0.09055
 C332 C 0.07340 0.78791 -0.05765
 C333 C 0.06088 0.81665 -0.04584
 C334 C 0.05301 0.84156 -0.06687
 C335 C 0.05743 0.83748 -0.09980
 C336 C 0.06996 0.80873 -0.11162
 C337 C 0.04152 0.87163 -0.05453
 C338 C 0.03257 0.89697 -0.04393
 H339 H 0.07972 0.76894 -0.04115
 H340 H 0.05767 0.81960 -0.02032
 H341 H 0.05155 0.85662 -0.11626
 H342 H 0.07360 0.80594 -0.13709
 C343 C 0.60353 0.76844 1.11183
 C344 C 0.59122 0.74432 1.10190
 C345 C 0.57701 0.71530 1.09004
 C346 C 0.56928 0.69051 1.11119
 C347 C 0.55664 0.66181 1.09952
 C348 C 0.55166 0.65780 1.06666
 C349 C 0.55908 0.68272 1.04555
 C350 C 0.57172 0.71142 1.05721
 C351 C 0.54017 0.62773 1.05445
 C352 C 0.53128 0.60238 1.04395
 H353 H 0.57336 0.69324 1.13661
 H354 H 0.55112 0.64265 1.11604
 H355 H 0.55545 0.67982 1.02008
 H356 H 0.57769 0.73040 1.04064
 C357 C 0.38684 0.39741 1.26847
 C358 C 0.39678 0.40954 1.24432
 C359 C 0.40871 0.42350 1.21527
 C360 C 0.44142 0.43005 1.21202
 C361 C 0.45322 0.44245 1.18333
 C362 C 0.43235 0.44836 1.15777
 C363 C 0.39959 0.44213 1.16113
 C364 C 0.38779 0.42973 1.18982
 C365 C 0.44476 0.45964 1.12776
 C366 C 0.45540 0.46840 1.10248
 H367 H 0.45782 0.42523 1.23151
 H368 H 0.47861 0.44705 1.18095
 H369 H 0.38327 0.44649 1.14148
 H370 H 0.36247 0.42468 1.19205
 C371 C 0.61236 -0.10439 0.23078
 C372 C 0.60245 -0.09215 0.25493
 C373 C 0.59062 -0.07800 0.28398
 C374 C 0.61192 -0.06977 0.30849
 C375 C 0.60031 -0.05704 0.33716
 C376 C 0.56735 -0.05248 0.34142
 C377 C 0.54608 -0.06044 0.31679
 C378 C 0.55768 -0.07317 0.28813
 C379 C 0.55527 -0.04063 0.37137
 C380 C 0.54494 -0.03129 0.39660
 H381 H 0.63743 -0.07348 0.30556
 H382 H 0.61697 -0.05107 0.35609
 H383 H 0.52054 -0.05712 0.31987
 H384 H 0.54099 -0.07953 0.26936
 C385 C -0.11196 1.10299 -0.26830
 C386 C -0.10202 1.09079 -0.24415
 C387 C -0.09012 1.07672 -0.21509
 C388 C -0.11123 1.06960 -0.19011
 C389 C -0.09951 1.05705 -0.16140
 C390 C -0.06663 1.05157 -0.15758
 C391 C -0.04556 1.05838 -0.18269
 C392 C -0.05728 1.07092 -0.21139
 C393 C -0.05435 1.04014 -0.12754
 C394 C -0.04379 1.03126 -0.10224
 H395 H -0.13666 1.07407 -0.19269
 H396 H -0.11600 1.05200 -0.14210
 H397 H -0.02008 1.05436 -0.17994
 H398 H -0.04074 1.07642 -0.23052
 C399 C 1.11260 0.60333 0.76849
 C400 C 1.10260 0.59119 0.74434
 C401 C 1.09062 0.57719 0.71529
 C402 C 1.05773 0.57188 0.71153
 C403 C 1.04594 0.55942 0.68283
 C404 C 1.06697 0.55222 0.65777
 C405 C 1.09990 0.55723 0.66164
 C406 C 1.11170 0.56968 0.69034
 C407 C 1.05463 0.54087 0.62773
 C408 C 1.04404 0.53205 0.60242
 H409 H 1.04121 0.57768 0.73063
 H410 H 1.02042 0.55577 0.68006
 H411 H 1.11637 0.55187 0.64237
 H412 H 1.13716 0.57378 0.69296
 C413 C 0.73100 0.61323 0.60401
 C414 C 0.75517 0.60305 0.59195
 C415 C 0.78424 0.59091 0.57802
 C416 C 0.80840 0.61210 0.56856
 C417 C 0.83711 0.60024 0.55604
 C418 C 0.84178 0.56715 0.55292
 C419 C 0.81751 0.54598 0.56211
 C420 C 0.78880 0.55784 0.57462
 C421 C 0.87180 0.55488 0.54128
 C422 C 0.89710 0.54443 0.53210
 H423 H 0.80515 0.63771 0.57116
 H424 H 0.85576 0.61682 0.54912
 H425 H 0.82091 0.52035 0.55990
 H426 H 0.77032 0.54125 0.58194
 C427 C 0.76845 0.38679 1.10490
 C428 C 0.74427 0.39701 1.09286
 C429 C 0.71520 0.40920 1.07892
 C430 C 0.69148 0.38801 1.06838
 C431 C 0.66278 0.39989 1.05580
 C432 C 0.65771 0.43299 1.05369
 C433 C 0.68155 0.45417 1.06397
 C434 C 0.71024 0.44230 1.07655
 C435 C 0.62771 0.44525 1.04192
 C436 C 0.60243 0.45569 1.03263
 H437 H 0.69504 0.36237 1.07017
 H438 H 0.64447 0.38330 1.04802
 H439 H 0.67783 0.47982 1.06254
 H440 H 0.72839 0.45890 1.08470
 C441 C 0.26861 1.11149 -0.10480
 C442 C 0.24447 1.10142 -0.09269
 C443 C 0.21546 1.08943 -0.07865
 C444 C 0.19156 1.11077 -0.06859
 C445 C 0.16292 1.09908 -0.05590
 C446 C 0.15808 1.06600 -0.05320
 C447 C 0.18209 1.04468 -0.06300
 C448 C 0.21073 1.05637 -0.07569
 C449 C 0.12813 1.05390 -0.04137
 C450 C 0.10290 1.04355 -0.03205
 H451 H 0.19495 1.13638 -0.07084
 H452 H 0.14446 1.11577 -0.04850
 H453 H 0.17856 1.01907 -0.06113
 H454 H 0.22902 1.03967 -0.08347
 C455 C 0.23242 -0.11233 0.39733
 C456 C 0.25659 -0.10217 0.40932
 C457 C 0.28567 -0.08999 0.42312
 C458 C 0.28936 -0.05702 0.42799
 C459 C 0.31809 -0.04505 0.44023
 C460 C 0.34326 -0.06600 0.44767
 C461 C 0.33946 -0.09901 0.44310
 C462 C 0.31072 -0.11098 0.43085
 C463 C 0.37332 -0.05351 0.45886
 C464 C 0.39863 -0.04283 0.46759
 H465 H 0.27018 -0.04057 0.42200
 H466 H 0.32082 -0.01947 0.44356
 H467 H 0.35881 -0.11541 0.44865
 H468 H 0.30816 -0.13651 0.42710
 C469 C 0.60359 -0.26758 0.61299
 C470 C 0.59156 -0.24335 0.60286
 C471 C 0.57773 -0.21421 0.59069
 C472 C 0.57046 -0.18897 0.61155
 C473 C 0.55817 -0.16020 0.59956
 C474 C 0.55310 -0.15656 0.56667
 C475 C 0.56008 -0.18192 0.54585
 C476 C 0.57236 -0.21068 0.55784
 C477 C 0.54184 -0.12649 0.55414
 C478 C 0.53304 -0.10116 0.54342
 H479 H 0.57460 -0.19142 0.63698
 H480 H 0.55297 -0.14071 0.61585
 H481 H 0.55636 -0.17932 0.52037
 H482 H 0.57799 -0.23001 0.54149
 C483 C 1.10497 0.76910 0.38862
 C484 C 1.09284 0.74497 0.39868
 C485 C 1.07877 0.71594 0.41064
 C486 C 1.06888 0.69202 0.38936
 C487 C 1.05620 0.66336 0.40101
 C488 C 1.05335 0.65851 0.43401
 C489 C 1.06298 0.68255 0.45528
 C490 C 1.07566 0.71121 0.44362
 C491 C 1.04155 0.62852 0.44607
 C492 C 1.03226 0.60325 0.45635
 H493 H 1.07126 0.69541 0.36381
 H494 H 1.04894 0.64489 0.38436
 H495 H 1.06098 0.67900 0.48084
 H496 H 1.08330 0.72951 0.46029
 C497 C -0.10561 1.26817 0.11254
 C498 C -0.09352 1.24397 0.10240
 C499 C -0.07951 1.21489 0.09028
 C500 C -0.07754 1.20975 0.05726
 C501 C -0.06485 1.18107 0.04547
 C502 C -0.05406 1.15741 0.06665
 C503 C -0.05579 1.16265 0.09967
 C504 C -0.06848 1.19135 0.11146
 C505 C -0.04215 1.12742 0.05448
 C506 C -0.03273 1.10217 0.04410
 H507 H -0.08607 1.22776 0.04067
 H508 H -0.06373 1.17722 0.01990
 H509 H -0.04761 1.14448 0.11625
 H510 H -0.06996 1.19505 0.13703
 C511 C 0.39540 0.23079 0.88826
 C512 C 0.40748 0.25494 0.89838
 C513 C 0.42144 0.28399 0.91044
 C514 C 0.42417 0.28886 0.94344
 C515 C 0.43672 0.31756 0.95518
 C516 C 0.44659 0.34151 0.93397
 C517 C 0.44413 0.33653 0.90096
 C518 C 0.43158 0.30782 0.88922
 C519 C 0.45827 0.37154 0.94611
 C520 C 0.46746 0.39684 0.95644
 H521 H 0.41633 0.27062 0.96006
 H522 H 0.43842 0.32120 0.98076
 H523 H 0.45159 0.35494 0.88435
 H524 H 0.42950 0.30434 0.86365
 C525 C 0.61092 0.60527 0.73205
 C526 C 0.60091 0.59310 0.75615
 C527 C 0.58903 0.57896 0.78513
 C528 C 0.61036 0.57011 0.80945
 C529 C 0.59874 0.55733 0.83804
 C530 C 0.56575 0.55333 0.84243
 C531 C 0.54444 0.56191 0.81801
 C532 C 0.55606 0.57470 0.78941
 C533 C 0.55368 0.54143 0.87233
 C534 C 0.54338 0.53206 0.89753
 H535 H 0.63589 0.57338 0.80641
 H536 H 0.61541 0.55088 0.85681
 H537 H 0.51888 0.55902 0.82119
 H538 H 0.53936 0.58152 0.77080
 C539 C 0.38719 0.10292 0.76777
 C540 C 0.39735 0.09102 0.74356
 C541 C 0.40955 0.07734 0.71444
 C542 C 0.44245 0.07179 0.71095
 C543 C 0.45446 0.05965 0.68220
 C544 C 0.43362 0.05300 0.65682
 C545 C 0.40068 0.05824 0.66042
 C546 C 0.38867 0.07038 0.68917
 C547 C 0.44617 0.04186 0.62679
 C548 C 0.45689 0.03314 0.60150
 H549 H 0.45882 0.07718 0.73030
 H550 H 0.47998 0.05580 0.67964
 H551 H 0.38437 0.05329 0.64091
 H552 H 0.36320 0.07467 0.69159
 C553 C 0.11246 0.89550 0.26893
 C554 C 0.10240 0.90749 0.24473
 C555 C 0.09038 0.92137 0.21563
 C556 C 0.05737 0.92538 0.21124
 C557 C 0.04562 0.93787 0.18253
 C558 C 0.06683 0.94639 0.15808
 C559 C 0.09987 0.94264 0.16257
 C560 C 0.11162 0.93016 0.19129
 C561 C 0.05464 0.95803 0.12809
 C562 C 0.04424 0.96722 0.10283
 H563 H 0.04073 0.91859 0.22987
 H564 H 0.02002 0.94057 0.17927
 H565 H 0.11648 0.94906 0.14378
 H566 H 0.13719 0.92708 0.19440
 C567 C 0.88774 0.39528 0.23176
 C568 C 0.89799 0.40739 0.25582
 C569 C 0.91022 0.42140 0.28476
 C570 C 0.88921 0.43532 0.30688
 C571 C 0.90102 0.44797 0.33549
 C572 C 0.93388 0.44676 0.34209
 C573 C 0.95492 0.43309 0.31985
 C574 C 0.94312 0.42044 0.29125
 C575 C 0.94596 0.45862 0.37205
 C576 C 0.95626 0.46796 0.39729
 H577 H 0.86373 0.43612 0.30214
 H578 H 0.88453 0.45840 0.35257
 H579 H 0.98036 0.43193 0.32475
 H580 H 0.95956 0.40966 0.27435
   
