data_POSCAR
  _audit_creation_date              2014-09-24
  _audit_creation_method            'ToBaCCo'
  _symmetry_space_group_name_H-M    'P1'
  _symmetry_Int_Tables_number       1
  _symmetry_cell_setting            triclinic
  loop_
  _symmetry_equiv_pos_as_xyz
 x,y,z
_cell_length_a 36.1728
_cell_length_b 37.1261
_cell_length_c 12.1750
_cell_angle_alpha 90.892500
_cell_angle_beta 90.563100
_cell_angle_gamma 119.573800
loop_
  _atom_site_label
  _atom_site_type_symbol
  _atom_site_fract_x
  _atom_site_fract_y
  _atom_site_fract_z
C1 C 0.18968 0.44360 0.45611
 C2 C 0.20282 0.44620 0.56849
 C3 C 0.24203 0.44833 0.59267
 C4 C 0.26932 0.44878 0.51068
 C5 C 0.25706 0.44842 0.39890
 C6 C 0.21817 0.44660 0.37412
 H7 H 0.20898 0.44475 0.28832
 H8 H 0.25111 0.44906 0.67806
 C9 C 0.51581 -0.27196 0.47605
 C10 C 0.51950 -0.26024 0.58924
 C11 C 0.52251 -0.22199 0.61828
 C12 C 0.51792 -0.19710 0.53950
 C13 C 0.51651 -0.20793 0.42592
 C14 C 0.51770 -0.24408 0.39693
 H15 H 0.51588 -0.25255 0.31059
 H16 H 0.52448 -0.21346 0.70458
 C17 C 1.26051 0.78363 0.40864
 C18 C 1.27230 0.79615 0.52026
 C19 C 1.25316 0.76728 0.60364
 C20 C 1.22125 0.72629 0.58056
 C21 C 1.20965 0.71372 0.46902
 C22 C 1.22845 0.74272 0.38573
 H23 H 1.21950 0.73242 0.30090
 H24 H 1.26154 0.77773 0.68852
 C25 C 0.80800 0.54474 0.45259
 C26 C 0.82474 0.55828 0.56044
 C27 C 0.80037 0.56570 0.63715
 C28 C 0.76028 0.56084 0.61009
 C29 C 0.74471 0.54942 0.50025
 C30 C 0.76781 0.53972 0.42507
 H31 H 0.75656 0.53262 0.34031
 H32 H 0.81321 0.57558 0.71998
 C33 C 0.46732 0.27154 0.44767
 C34 C 0.49012 0.27979 0.54968
 C35 C 0.49251 0.24647 0.59862
 C36 C 0.47033 0.20610 0.55216
 C37 C 0.45420 0.20052 0.44411
 C38 C 0.45227 0.23297 0.39429
 H39 H 0.43806 0.22786 0.31256
 H40 H 0.50619 0.25058 0.68061
 C41 C 0.72149 0.19613 0.47263
 C42 C 0.73356 0.21005 0.58287
 C43 C 0.77121 0.24771 0.60380
 C44 C 0.79776 0.27166 0.51833
 C45 C 0.78338 0.25882 0.40751
 C46 C 0.74567 0.22143 0.38734
 H47 H 0.73612 0.21090 0.30292
 H48 H 0.78086 0.25686 0.68871
 N49 N 0.95950 0.41377 -0.15164
 N50 N 0.92932 0.37767 -0.19070
 N51 N 1.05481 0.47686 -0.17851
 N52 N 1.08888 0.48516 -0.23560
 N53 N 1.04720 0.44805 -0.10662
 N54 N 1.07608 0.43628 -0.11162
 N55 N 0.96774 0.44323 -0.22179
 N56 N 0.94425 0.42781 -0.31210
 C57 C 0.91996 0.38722 -0.28984
 C58 C 1.10183 0.45987 -0.19170
 N59 N 1.06402 0.58104 -0.07775
 N60 N 1.09675 0.61909 -0.08056
 N61 N 0.97684 0.52543 -0.20355
 N62 N 0.95435 0.52641 -0.28899
 N63 N 0.97685 0.54937 -0.12274
 N64 N 0.95481 0.56746 -0.15086
 N65 N 1.06441 0.55869 -0.16210
 N66 N 1.09697 0.58099 -0.22543
 Mn67 Mn 1.01584 0.50099 -0.19272
 C68 C 1.11709 0.61819 -0.17236
 C69 C 0.94044 0.55238 -0.25348
 N70 N 1.03018 0.43618 0.12499
 N71 N 1.05621 0.42235 0.15420
 N72 N 0.93864 0.42444 0.15668
 N73 N 0.90343 0.40179 0.21155
 N74 N 0.94240 0.40231 0.07689
 N75 N 0.90981 0.36434 0.07409
 N76 N 1.02554 0.45707 0.20650
 N77 N 1.04778 0.45780 0.29381
 Mn78 Mn 0.99497 0.42478 -0.01419
 C79 C 1.06705 0.43657 0.25936
 C80 C 0.88550 0.36464 0.15716
 N81 N 0.95961 0.53758 0.10790
 N82 N 0.93442 0.55351 0.12085
 N83 N 1.03675 0.53863 0.22328
 N84 N 1.06479 0.55066 0.30512
 N85 N 1.04648 0.56898 0.15497
 N86 N 1.08105 0.60284 0.18945
 N87 N 0.94996 0.50740 0.17675
 N88 N 0.91833 0.50243 0.23986
 Mn89 Mn 1.01194 0.55964 0.01593
 Mn90 Mn 0.98740 0.48179 0.19175
 Cl91 Cl 1.00250 0.49183 0.00005
 C92 C 0.90874 0.53101 0.20235
 C93 C 1.09186 0.59069 0.28286
 N94 N 0.47355 0.41997 0.08734
 N95 N 0.46118 0.38077 0.10615
 N96 N 0.43760 0.47551 0.16780
 N97 N 0.41012 0.48121 0.22577
 N98 N 0.41911 0.45336 0.07840
 N99 N 0.37865 0.44299 0.07300
 N100 N 0.49390 0.44313 0.17403
 N101 N 0.49671 0.42051 0.25261
 C102 C 0.47718 0.38197 0.20787
 C103 C 0.37367 0.46075 0.16498
 N104 N 0.53416 0.58722 0.15351
 N105 N 0.53579 0.62198 0.18846
 N106 N 0.56438 0.52451 0.21727
 N107 N 0.58538 0.51793 0.29694
 N108 N 0.59067 0.55557 0.15730
 N109 N 0.63007 0.57135 0.19507
 N110 N 0.50769 0.55604 0.21268
 N111 N 0.49033 0.56821 0.28848
 Mn112 Mn 0.50089 0.49967 0.19378
 C113 C 0.50768 0.60910 0.27174
 C114 C 0.62638 0.54688 0.28000
 N115 N 0.43128 0.46480 -0.15303
 N116 N 0.39211 0.44809 -0.19339
 N117 N 0.51324 0.46160 -0.20914
 N118 N 0.52932 0.44668 -0.28260
 N119 N 0.48637 0.43181 -0.14642
 N120 N 0.48334 0.39602 -0.17501
 N121 N 0.45800 0.49447 -0.21621
 N122 N 0.43775 0.49813 -0.30246
 Mn123 Mn 0.45240 0.44223 -0.03348
 C124 C 0.39666 0.46988 -0.28481
 C125 C 0.51003 0.40574 -0.26001
 N126 N 0.60264 0.56717 -0.07566
 N127 N 0.64379 0.57985 -0.07524
 N128 N 0.52917 0.57755 -0.17121
 N129 N 0.51966 0.59927 -0.23963
 N130 N 0.54650 0.59913 -0.07994
 N131 N 0.54848 0.63553 -0.08244
 N132 N 0.58389 0.54438 -0.16428
 N133 N 0.61160 0.54110 -0.22696
 Mn134 Mn 0.56883 0.57775 0.03872
 Mn135 Mn 0.52124 0.51966 -0.19151
 Cl136 Cl 0.51092 0.50982 0.00158
 C137 C 0.64858 0.56328 -0.17015
 C138 C 0.53197 0.63520 -0.18244
 N139 N 0.39785 -0.05181 0.08302
 N140 N 0.35881 -0.08375 0.08487
 N141 N 0.46125 0.03347 0.20154
 N142 N 0.46511 0.06009 0.28145
 N143 N 0.43659 0.03378 0.12207
 N144 N 0.42306 0.05993 0.14423
 N145 N 0.42102 -0.05332 0.16474
 N146 N 0.39859 -0.08617 0.22450
 C147 C 0.36013 -0.10490 0.17311
 C148 C 0.44099 0.07628 0.24272
 N149 N 0.57166 0.03793 0.14000
 N150 N 0.61030 0.06413 0.17785
 N151 N 0.50171 -0.05101 0.17426
 N152 N 0.49243 -0.08314 0.23635
 N153 N 0.52834 -0.04801 0.09728
 N154 N 0.53769 -0.07809 0.10432
 N155 N 0.54298 0.03450 0.21125
 N156 N 0.56128 0.05737 0.30034
 Mn157 Mn 0.48186 -0.00881 0.18954
 C158 C 0.60296 0.07617 0.27678
 C159 C 0.51508 -0.09950 0.19131
 N160 N 0.44704 0.04912 -0.10586
 N161 N 0.43387 0.07622 -0.11817
 N162 N 0.43681 -0.02815 -0.22381
 N163 N 0.41987 -0.05172 -0.31286
 N164 N 0.40765 -0.03641 -0.14999
 N165 N 0.36999 -0.06547 -0.18643
 N166 N 0.47864 0.05731 -0.17159
 N167 N 0.48803 0.09028 -0.22962
 Mn168 Mn 0.42183 -0.00173 -0.01289
 C169 C 0.46065 0.10240 -0.19303
 C170 C 0.37847 -0.07489 -0.28714
 N171 N 0.53693 -0.03406 -0.13920
 N172 N 0.53885 -0.06790 -0.16722
 N173 N 0.55913 0.05896 -0.16650
 N174 N 0.58371 0.09220 -0.22350
 N175 N 0.58153 0.05280 -0.09125
 N176 N 0.62183 0.08205 -0.09335
 N177 N 0.51621 -0.02612 -0.21562
 N178 N 0.50337 -0.05373 -0.29618
 Mn179 Mn 0.55500 0.00185 0.00156
 Mn180 Mn 0.49793 0.01593 -0.19498
 Cl181 Cl 0.48927 0.00178 -0.00377
 C182 C 0.51783 -0.07925 -0.26625
 C183 C 0.62253 0.10653 -0.17539
 N184 N 1.08040 0.41048 0.42727
 N185 N 1.11297 0.41286 0.48395
 C186 C 1.14794 0.43345 0.42260
 C187 C 1.13490 0.44186 0.32304
 N188 N 1.09284 0.42740 0.33028
 H189 H 1.15440 0.45971 0.25588
 N190 N 0.47681 0.62184 0.43234
 N191 N 0.47903 0.65307 0.49132
 C192 C 0.50571 0.68810 0.43951
 C193 C 0.51864 0.67706 0.34392
 N194 N 0.50051 0.63557 0.34419
 H195 H 0.54065 0.69715 0.28357
 N196 N 0.28867 -0.16483 0.15695
 N197 N 0.26140 -0.19530 0.21881
 C198 C 0.27999 -0.19016 0.31919
 C199 C 0.32037 -0.15605 0.31487
 N200 N 0.32417 -0.14103 0.21350
 H201 H 0.34522 -0.14368 0.37760
 N202 N 0.86555 0.56412 0.20444
 N203 N 0.83887 0.56852 0.26928
 C204 C 0.83475 0.54644 0.35985
 C205 C 0.85941 0.52775 0.34787
 N206 N 0.87805 0.53973 0.24993
 H207 H 0.86353 0.50765 0.40389
 N208 N 0.42316 0.31580 0.27140
 N209 N 0.41888 0.28714 0.34101
 C210 C 0.45734 0.30019 0.38932
 C211 C 0.48570 0.33788 0.34580
 N212 N 0.46298 0.34615 0.27251
 H213 H 0.51970 0.35602 0.36033
 N214 N 0.64532 0.08817 0.44309
 N215 N 0.67680 0.11948 0.49831
 C216 C 0.68663 0.15412 0.44239
 C217 C 0.66092 0.14284 0.34927
 N218 N 0.63568 0.10174 0.35358
 H219 H 0.66021 0.16246 0.28540
 N220 N 0.41496 0.11135 -0.31837
 N221 N 0.41785 0.13751 -0.39431
 C222 C 0.45655 0.17153 -0.38160
 C223 C 0.47715 0.16567 -0.29354
 N224 N 0.45005 0.12765 -0.25714
 H225 H 0.50957 0.18541 -0.26455
 N226 N 0.72455 0.58796 -0.15144
 N227 N 0.75521 0.58762 -0.20930
 C228 C 0.73771 0.56802 -0.30647
 C229 C 0.69487 0.55563 -0.30466
 N230 N 0.68824 0.56892 -0.20772
 H231 H 0.67026 0.53739 -0.36512
 N232 N 0.90310 0.35483 -0.47085
 N233 N 0.87103 0.32353 -0.52402
 C234 C 0.83837 0.30555 -0.45416
 C235 C 0.85256 0.32624 -0.35338
 N236 N 0.89243 0.35693 -0.36867
 H237 H 0.83540 0.32109 -0.27768
 N238 N 0.48270 -0.12567 -0.41917
 N239 N 0.48243 -0.15649 -0.47524
 C240 C 0.50972 -0.16568 -0.42359
 C241 C 0.52559 -0.14016 -0.32979
 N242 N 0.50850 -0.11511 -0.33228
 H243 H 0.54900 -0.13824 -0.27040
 N244 N 0.36275 0.44167 -0.46227
 N245 N 0.32844 0.43501 -0.51893
 C246 C 0.30688 0.44849 -0.45635
 C247 C 0.32878 0.46231 -0.35637
 N248 N 0.36351 0.45826 -0.36498
 H249 H 0.32176 0.47615 -0.28650
 N250 N 1.18807 0.67857 -0.15672
 N251 N 1.21669 0.70686 -0.22113
 C252 C 1.19969 0.69940 -0.32407
 C253 C 1.15898 0.66572 -0.31925
 N254 N 1.15339 0.65352 -0.21458
 H255 H 1.13476 0.65226 -0.38334
 N256 N 0.92231 0.60423 -0.30351
 N257 N 0.89172 0.60718 -0.35540
 C258 C 0.86685 0.57065 -0.40841
 C259 C 0.88320 0.54462 -0.38469
 N260 N 0.91786 0.56701 -0.31960
 H261 H 0.86803 0.51146 -0.39909
 N262 N 0.54400 0.36386 -0.26421
 N263 N 0.53794 0.32888 -0.31091
 C264 C 0.50793 0.31807 -0.39100
 C265 C 0.49584 0.34833 -0.39095
 N266 N 0.51948 0.37643 -0.31175
 H267 H 0.46929 0.34774 -0.43419
 N268 N 0.69883 0.15359 -0.16828
 N269 N 0.72911 0.18109 -0.23065
 C270 C 0.70989 0.18519 -0.32138
 C271 C 0.66639 0.15993 -0.31071
 N272 N 0.66102 0.14035 -0.21513
 H273 H 0.64135 0.15464 -0.36911
 N274 N 1.15339 0.43634 -0.17851
 N275 N 1.18047 0.43192 -0.24183
 C276 C 1.17941 0.44742 -0.34084
 C277 C 1.15211 0.46350 -0.33369
 N278 N 1.13607 0.45513 -0.23233
 H279 H 1.14406 0.47913 -0.39595
 N280 N 0.51199 0.68829 -0.15777
 N281 N 0.50806 0.71605 -0.21621
 C282 C 0.52015 0.71365 -0.31950
 C283 C 0.53258 0.68377 -0.32118
 N284 N 0.52604 0.66827 -0.21992
 H285 H 0.54580 0.67453 -0.38810
 N286 N 0.32515 -0.09425 -0.43223
 N287 N 0.29611 -0.12812 -0.48492
 C288 C 0.29967 -0.16007 -0.44528
 C289 C 0.33131 -0.14488 -0.36530
 N290 N 0.34661 -0.10381 -0.36106
 H291 H 0.34205 -0.16187 -0.31508
 N292 N 0.49407 -0.17227 0.17472
 N293 N 0.49314 -0.20182 0.23612
 C294 C 0.51258 -0.18405 0.33324
 C295 C 0.52647 -0.14204 0.32763
 N296 N 0.51373 -0.13632 0.22860
 H297 H 0.54369 -0.11794 0.38928
 N298 N 0.29675 0.42458 0.15784
 N299 N 0.26486 0.42004 0.21950
 C300 C 0.28198 0.44766 0.30395
 C301 C 0.32536 0.47060 0.28925
 N302 N 0.33328 0.45427 0.19943
 H303 H 0.34911 0.49456 0.34291
 N304 N 1.14573 0.60429 0.42384
 N305 N 1.17768 0.63645 0.47556
 C306 C 1.17929 0.67071 0.43420
 C307 C 1.14821 0.65867 0.35358
 N308 N 1.12783 0.61718 0.35059
 H309 H 1.14035 0.67808 0.30427
 N310 N 0.40217 0.11294 0.26190
 N311 N 0.40460 0.14595 0.31155
 C312 C 0.43834 0.16097 0.38103
 C313 C 0.45665 0.13573 0.37268
 N314 N 0.43293 0.10616 0.29698
 H315 H 0.48565 0.14011 0.41170
 N316 N 0.68252 0.59364 0.40570
 N317 N 0.71395 0.59526 0.46606
 C318 C 0.71184 0.55807 0.45455
 C319 C 0.67794 0.53347 0.38422
 N320 N 0.66040 0.55683 0.35680
 H321 H 0.66805 0.50249 0.35316
 N322 N 0.84064 0.29025 0.15771
 N323 N 0.81417 0.26126 0.22394
 C324 C 0.80719 0.28082 0.30874
 C325 C 0.82885 0.32295 0.28920
 N326 N 0.85034 0.32747 0.19618
 H327 H 0.83163 0.34794 0.34204
   
