data_POSCAR
  _audit_creation_date              2014-09-24
  _audit_creation_method            'ToBaCCo'
  _symmetry_space_group_name_H-M    'P1'
  _symmetry_Int_Tables_number       1
  _symmetry_cell_setting            triclinic
  loop_
  _symmetry_equiv_pos_as_xyz
 x,y,z
_cell_length_a 30.3821
_cell_length_b 30.2075
_cell_length_c 30.3920
_cell_angle_alpha 90.084300
_cell_angle_beta 90.145700
_cell_angle_gamma 89.918600
loop_
  _atom_site_label
  _atom_site_type_symbol
  _atom_site_fract_x
  _atom_site_fract_y
  _atom_site_fract_z
C1 C 0.52130 0.99997 -0.50120
 C2 C 0.47663 1.00010 -0.50115
 C3 C 0.45035 1.00236 -0.54232
 C4 C 0.45068 0.99795 -0.45992
 C5 C 0.54756 1.00210 -0.46002
 C6 C 0.54728 0.99772 -0.54242
 C7 C 0.42142 1.03797 -0.54827
 C8 C 0.39243 1.03886 -0.58390
 C9 C 0.39108 1.00364 -0.61453
 C10 C 0.42139 0.96843 -0.60895
 C11 C 0.45059 0.96782 -0.57316
 C12 C 0.45131 1.03249 -0.42898
 C13 C 0.42255 1.03182 -0.39298
 C14 C 0.39267 0.99664 -0.38744
 C15 C 0.39320 0.96163 -0.41798
 C16 C 0.42169 0.96244 -0.45387
 C17 C 0.54720 0.96754 -0.42923
 C18 C 0.57625 0.96817 -0.39331
 C19 C 0.60617 1.00335 -0.38773
 C20 C 0.60537 1.03841 -0.41812
 C21 C 0.57657 1.03762 -0.45392
 C22 C 0.57616 0.96204 -0.54857
 C23 C 0.60490 0.96123 -0.58427
 C24 C 0.60580 0.99642 -0.61449
 C25 C 0.57596 1.03174 -0.60890
 C26 C 0.54695 1.03239 -0.57309
 H27 H 0.42069 1.06486 -0.52465
 H28 H 0.37035 1.06692 -0.58654
 H29 H 0.42205 0.94067 -0.63154
 H30 H 0.47236 0.93974 -0.56874
 H31 H 0.47302 1.06051 -0.43348
 H32 H 0.42307 1.05931 -0.37008
 H33 H 0.42057 0.93563 -0.47757
 H34 H 0.52546 0.93950 -0.43377
 H35 H 0.57595 0.94065 -0.37053
 H36 H 0.62777 1.06608 -0.41495
 H37 H 0.57749 1.06446 -0.47751
 H38 H 0.57705 0.93512 -0.52506
 H39 H 0.62722 0.93345 -0.58745
 H40 H 0.57572 1.05935 -0.63156
 H41 H 0.52532 1.06055 -0.56850
 H42 H 0.37081 0.93397 -0.41485
 C43 C -0.50042 1.52314 0.00007
 C44 C -0.50051 1.47833 0.00001
 C45 C -0.54174 1.45239 -0.00112
 C46 C -0.45936 1.45212 0.00107
 C47 C -0.45917 1.54906 -0.00112
 C48 C -0.54154 1.54938 0.00130
 C49 C -0.57169 1.45363 0.03391
 C50 C -0.60788 1.42502 0.03425
 C51 C -0.61452 1.39475 -0.00041
 C52 C -0.58501 1.39473 -0.03597
 C53 C -0.54890 1.42309 -0.03615
 C54 C -0.45232 1.42277 0.03602
 C55 C -0.41621 1.39431 0.03586
 C56 C -0.38658 1.39428 0.00040
 C57 C -0.39313 1.42455 -0.03420
 C58 C -0.42933 1.45325 -0.03387
 C59 C -0.45227 1.57832 -0.03611
 C60 C -0.41604 1.60653 -0.03606
 C61 C -0.38616 1.60640 -0.00066
 C62 C -0.39258 1.57620 0.03398
 C63 C -0.42889 1.54775 0.03376
 C64 C -0.57181 1.54825 -0.03356
 C65 C -0.60790 1.57708 -0.03386
 C66 C -0.61419 1.60770 0.00070
 C67 C -0.58425 1.60740 0.03620
 C68 C -0.54827 1.57878 0.03627
 H69 H -0.56626 1.47568 0.06151
 H70 H -0.63001 1.42592 0.06210
 H71 H -0.58907 1.37199 -0.06324
 H72 H -0.52593 1.42162 -0.06333
 H73 H -0.47536 1.42138 0.06314
 H74 H -0.41222 1.37157 0.06308
 H75 H -0.43467 1.47534 -0.06142
 H76 H -0.47549 1.57985 -0.06318
 H77 H -0.41216 1.62922 -0.06331
 H78 H -0.37016 1.57523 0.06171
 H79 H -0.43412 1.52573 0.06134
 H80 H -0.56672 1.52606 -0.06112
 H81 H -0.63017 1.57599 -0.06172
 H82 H -0.58777 1.63004 0.06364
 H83 H -0.52506 1.58011 0.06337
 H84 H -0.37091 1.42541 -0.06197
 C85 C 0.00041 0.47679 0.50084
 C86 C 0.00035 0.52168 0.50078
 C87 C -0.00096 0.54798 0.54195
 C88 C 0.00161 0.54772 0.45953
 C89 C -0.00084 0.45051 0.45964
 C90 C 0.00168 0.45072 0.54209
 C91 C -0.03580 0.57764 0.54845
 C92 C -0.03571 0.60646 0.58430
 C93 C -0.00034 0.60676 0.61441
 C94 C 0.03409 0.57590 0.60836
 C95 C 0.03378 0.54686 0.57239
 C96 C -0.03314 0.54643 0.42906
 C97 C -0.03339 0.57515 0.39292
 C98 C 0.00110 0.60563 0.38680
 C99 C 0.03636 0.60576 0.41685
 C100 C 0.03645 0.57729 0.45290
 C101 C 0.03385 0.45171 0.42933
 C102 C 0.03414 0.42282 0.39324
 C103 C -0.00026 0.39205 0.38694
 C104 C -0.03556 0.39223 0.41695
 C105 C -0.03563 0.42090 0.45292
 C106 C 0.03653 0.42111 0.54887
 C107 C 0.03642 0.39249 0.58480
 C108 C 0.00102 0.39236 0.61469
 C109 C -0.03342 0.42317 0.60836
 C110 C -0.03308 0.45201 0.57232
 H111 H -0.06280 0.57903 0.52514
 H112 H -0.06305 0.62926 0.58760
 H113 H 0.06187 0.57478 0.63073
 H114 H 0.06127 0.52453 0.56751
 H115 H -0.06063 0.52423 0.43404
 H116 H -0.06102 0.57414 0.37039
 H117 H 0.06341 0.57887 0.47624
 H118 H 0.06130 0.47400 0.43437
 H119 H 0.06186 0.42402 0.37095
 H120 H -0.06287 0.36948 0.41347
 H121 H -0.06260 0.41945 0.47613
 H122 H 0.06355 0.41960 0.52572
 H123 H 0.06376 0.36972 0.58832
 H124 H -0.06121 0.42441 0.63056
 H125 H -0.06057 0.47430 0.56722
 H126 H 0.06350 0.62864 0.41323
 O127 O -0.11315 1.00097 -0.05956
 O128 O 0.11361 0.99902 -0.05913
 O129 O -0.00186 1.06016 -0.11323
 O130 O 0.00225 0.93979 -0.11338
 O131 O 0.00212 0.88623 -0.05929
 O132 O -0.00166 1.11375 -0.05901
 O133 O 0.06012 0.99900 -0.11327
 O134 O -0.05974 1.00096 -0.11350
 Zr135 Zr 0.00021 0.99998 -0.07774
 O136 O 0.04023 0.96000 -0.03994
 O137 O -0.03976 1.03999 -0.04000
 C138 C -0.10041 1.00142 -0.10028
 C139 C 0.10080 0.99854 -0.09990
 C140 C -0.00272 1.10099 -0.09976
 C141 C 0.00314 0.89897 -0.10001
 H142 H 0.05861 1.05902 -0.05823
 O143 O 0.03993 1.03990 -0.03967
 H144 H -0.05816 0.94096 -0.05861
 O145 O -0.03946 0.96009 -0.03993
 O146 O 0.11368 1.00103 0.05971
 O147 O -0.11309 0.99900 0.05924
 O148 O 0.05922 1.11372 0.00214
 O149 O 0.05959 0.88630 -0.00174
 O150 O -0.05871 0.88628 0.00162
 O151 O -0.05907 1.11370 -0.00169
 O152 O 0.00220 1.06019 0.11354
 O153 O -0.00156 0.93984 0.11338
 O154 O 0.00184 1.11376 0.05947
 O155 O -0.00125 0.88625 0.05916
 O156 O 0.11334 1.06008 0.00241
 O157 O -0.11301 1.06002 -0.00213
 O158 O -0.11281 0.93994 0.00183
 O159 O 0.11353 0.93998 -0.00182
 O160 O 0.06026 1.00101 0.11366
 O161 O -0.05963 0.99902 0.11342
 Zr162 Zr 0.07773 1.00002 0.00023
 Zr163 Zr -0.07720 0.99999 -0.00008
 Zr164 Zr 0.00014 1.07749 0.00018
 Zr165 Zr 0.00038 0.92251 -0.00002
 Zr166 Zr 0.00030 1.00001 0.07790
 O167 O -0.03959 0.96000 0.03999
 O168 O 0.04015 1.04001 0.04026
 C169 C 0.10093 1.00149 0.10044
 C170 C -0.10031 0.99854 0.10002
 C171 C 0.09993 1.10089 0.00331
 C172 C 0.10025 0.89915 -0.00276
 C173 C -0.09941 0.89912 0.00268
 C174 C -0.09973 1.10085 -0.00291
 C175 C 0.00295 1.10101 0.10019
 C176 C -0.00233 0.89901 0.09990
 H177 H -0.05828 1.05902 0.05854
 O178 O -0.03954 1.03990 0.03993
 H179 H 0.05887 0.94100 0.05862
 O180 O 0.04011 0.96012 0.03998
 N181 N 0.32714 0.96815 0.29241
 C182 C 0.29769 1.00173 0.28881
 N183 N 0.30028 1.03620 0.31720
 N184 N 0.33111 1.03695 0.34841
 C185 C 0.36072 1.00330 0.35263
 N186 N 0.35803 0.96892 0.32367
 C187 C 0.26371 1.00075 0.25582
 C188 C 0.23485 1.00054 0.22844
 C189 C 0.20047 1.00075 0.19584
 N190 N 0.15753 1.00088 0.20801
 N191 N 0.12570 1.00130 0.17771
 C192 C 0.13576 1.00168 0.13418
 N193 N 0.17881 1.00160 0.12215
 N194 N 0.21060 1.00118 0.15244
 N195 N -0.32612 1.03269 0.29117
 C196 C -0.29750 0.99843 0.28694
 N197 N -0.30117 0.96329 0.31430
 N198 N -0.33225 0.96252 0.34511
 C199 C -0.36095 0.99679 0.34974
 N200 N -0.35725 1.03190 0.32203
 C201 C -0.26330 0.99938 0.25434
 C202 C -0.23433 0.99957 0.22723
 C203 C -0.19990 0.99933 0.19486
 N204 N -0.21000 0.99887 0.15140
 N205 N -0.17819 0.99844 0.12130
 C206 C -0.13515 0.99837 0.13358
 N207 N -0.12512 0.99878 0.17717
 N208 N -0.15697 0.99921 0.20729
 N209 N -0.30087 1.03640 -0.31604
 C210 C -0.29738 1.00143 -0.28842
 N211 N -0.32606 0.96729 -0.29266
 N212 N -0.35710 0.96805 -0.32378
 C213 C -0.36063 1.00300 -0.35174
 N214 N -0.33186 1.03715 -0.34710
 C215 C -0.26327 1.00050 -0.25555
 C216 C -0.23436 1.00034 -0.22823
 C217 C -0.19996 1.00059 -0.19565
 N218 N -0.21008 1.00104 -0.15225
 N219 N -0.17829 1.00149 -0.12198
 C220 C -0.13525 1.00158 -0.13401
 N221 N -0.12520 1.00119 -0.17755
 N222 N -0.15703 1.00074 -0.20785
 N223 N 0.32568 1.03263 -0.29203
 C224 C 0.29705 0.99849 -0.28781
 N225 N 0.30032 0.96352 -0.31555
 N226 N 0.33106 0.96280 -0.34671
 C227 C 0.35978 0.99696 -0.35133
 N228 N 0.35647 1.03189 -0.32324
 C229 C 0.26316 0.99942 -0.25488
 C230 C 0.23439 0.99959 -0.22755
 C231 C 0.20011 0.99934 -0.19503
 N232 N 0.21035 0.99892 -0.15161
 N233 N 0.17865 0.99849 -0.12140
 C234 C 0.13557 0.99837 -0.13353
 N235 N 0.12539 0.99873 -0.17709
 N236 N 0.15714 0.99917 -0.20732
 N237 N 0.29176 1.32756 0.03884
 C238 C 0.28636 1.29858 0.00516
 N239 N 0.31262 1.30177 -0.03061
 N240 N 0.34360 1.33279 -0.03255
 C241 C 0.34944 1.36184 0.00115
 N242 N 0.32280 1.35864 0.03688
 C243 C 0.25378 1.26445 0.00731
 C244 C 0.22670 1.23542 0.00814
 C245 C 0.19446 1.20089 0.00811
 N246 N 0.15103 1.21104 0.00754
 N247 N 0.12098 1.17904 0.00620
 C248 C 0.13334 1.13582 0.00528
 N249 N 0.17691 1.12573 0.00593
 N250 N 0.20699 1.15778 0.00727
 N251 N 0.31540 0.69995 0.03048
 C252 C 0.28778 0.70197 -0.00447
 N253 N 0.29209 0.67200 -0.03741
 N254 N 0.32339 0.64109 -0.03555
 C255 C 0.35152 0.63902 -0.00068
 N256 N 0.34664 0.66910 0.03231
 C257 C 0.25490 0.73591 -0.00655
 C258 C 0.22762 0.76484 -0.00735
 C259 C 0.19521 0.79930 -0.00732
 N260 N 0.20754 0.84243 -0.00645
 N261 N 0.17732 0.87442 -0.00517
 C262 C 0.13380 0.86426 -0.00462
 N263 N 0.12163 0.82102 -0.00557
 N264 N 0.15182 0.78907 -0.00685
 N265 N -0.31304 0.69887 -0.03116
 C266 C -0.28637 0.70194 0.00445
 N267 N -0.29159 0.67305 0.03813
 N268 N -0.32284 0.64217 0.03631
 C269 C -0.34990 0.63910 0.00073
 N270 N -0.34424 0.66805 -0.03295
 C271 C -0.25359 0.73590 0.00650
 C272 C -0.22639 0.76482 0.00727
 C273 C -0.19408 0.79928 0.00721
 N274 N -0.20653 0.84241 0.00641
 N275 N -0.17640 0.87440 0.00514
 C276 C -0.13285 0.86424 0.00450
 N277 N -0.12056 0.82100 0.00537
 N278 N -0.15066 0.78905 0.00665
 N279 N -0.29237 1.32721 -0.03853
 C280 C -0.28705 1.29822 -0.00492
 N281 N -0.31354 1.30134 0.03069
 N282 N -0.34467 1.33231 0.03255
 C283 C -0.35043 1.36137 -0.00108
 N284 N -0.32356 1.35824 -0.03666
 C285 C -0.25428 1.26417 -0.00699
 C286 C -0.22706 1.23519 -0.00776
 C287 C -0.19467 1.20071 -0.00767
 N288 N -0.20701 1.15759 -0.00694
 N289 N -0.17680 1.12559 -0.00560
 C290 C -0.13327 1.13574 -0.00484
 N291 N -0.12109 1.17897 -0.00566
 N292 N -0.15128 1.21093 -0.00700
 N293 N -0.03016 1.29993 0.31620
 C294 C 0.00453 1.29811 0.28840
 N295 N 0.03737 1.32815 0.29276
 N296 N 0.03566 1.35891 0.32423
 C297 C 0.00104 1.36078 0.35252
 N298 N -0.03185 1.33063 0.34762
 C299 C 0.00647 1.26429 0.25526
 C300 C 0.00719 1.23544 0.22782
 C301 C 0.00715 1.20097 0.19529
 N302 N 0.00654 1.15781 0.20754
 N303 N 0.00537 1.12583 0.17729
 C304 C 0.00468 1.13599 0.13377
 N305 N 0.00536 1.17926 0.12166
 N306 N 0.00653 1.21120 0.15190
 N307 N -0.03692 1.32838 -0.29156
 C308 C -0.00406 1.29828 -0.28721
 N309 N 0.03075 1.30010 -0.31485
 N310 N 0.03254 1.33085 -0.34611
 C311 C -0.00037 1.36106 -0.35102
 N312 N -0.03511 1.35919 -0.32288
 C313 C -0.00609 1.26440 -0.25424
 C314 C -0.00689 1.23551 -0.22692
 C315 C -0.00691 1.20101 -0.19453
 N316 N -0.00620 1.15786 -0.20693
 N317 N -0.00506 1.12585 -0.17679
 C318 C -0.00449 1.13598 -0.13323
 N319 N -0.00528 1.17924 -0.12098
 N320 N -0.00642 1.21121 -0.15110
 N321 N -0.03013 0.69938 -0.31552
 C322 C 0.00464 0.70133 -0.28766
 N323 N 0.03750 0.67120 -0.29174
 N324 N 0.03572 0.64024 -0.32302
 C325 C 0.00102 0.63824 -0.35137
 N326 N -0.03189 0.66848 -0.34673
 C327 C 0.00662 0.73533 -0.25470
 C328 C 0.00738 0.76430 -0.22738
 C329 C 0.00736 0.79885 -0.19493
 N330 N 0.00690 0.78870 -0.15153
 N331 N 0.00574 0.82070 -0.12136
 C332 C 0.00491 0.86395 -0.13354
 N333 N 0.00544 0.87403 -0.17708
 N334 N 0.00660 0.84199 -0.20727
 N335 N 0.03152 0.69867 0.31418
 C336 C -0.00383 0.70151 0.28712
 N337 N -0.03734 0.67232 0.29198
 N338 N -0.03560 0.64139 0.32321
 C339 C -0.00028 0.63854 0.35064
 N340 N 0.03324 0.66780 0.34536
 C341 C -0.00577 0.73551 0.25425
 C342 C -0.00650 0.76445 0.22699
 C343 C -0.00646 0.79897 0.19461
 N344 N -0.00581 0.84212 0.20704
 N345 N -0.00466 0.87413 0.17692
 C346 C -0.00403 0.86402 0.13336
 N347 N -0.00475 0.82076 0.12108
 N348 N -0.00590 0.78879 0.15119
   
