data_POSCAR
  _audit_creation_date              2014-09-24
  _audit_creation_method            'ToBaCCo'
  _symmetry_space_group_name_H-M    'P1'
  _symmetry_Int_Tables_number       1
  _symmetry_cell_setting            triclinic
  loop_
  _symmetry_equiv_pos_as_xyz
 x,y,z
_cell_length_a 41.3939
_cell_length_b 37.5943
_cell_length_c 21.8566
_cell_angle_alpha 90.047900
_cell_angle_beta 89.788000
_cell_angle_gamma 90.115800
loop_
  _atom_site_label
  _atom_site_type_symbol
  _atom_site_fract_x
  _atom_site_fract_y
  _atom_site_fract_z
C1 C 0.71000 0.31534 0.55599
 C2 C 0.69766 0.32675 0.49956
 C3 C 0.70548 0.30997 0.44449
 C4 C 0.72676 0.28064 0.44476
 C5 C 0.74082 0.26938 0.50068
 C6 C 0.73277 0.28702 0.55632
 C7 C 0.74979 0.27794 0.60957
 C8 C 0.77254 0.25078 0.60939
 C9 C 0.77898 0.23086 0.55619
 C10 C 0.76371 0.24109 0.50062
 C11 C 0.73491 0.26282 0.39042
 C12 C 0.75617 0.23436 0.39068
 C13 C 0.77189 0.22384 0.44460
 C14 C 0.79455 0.19558 0.44458
 C15 C 0.80848 0.18541 0.50011
 C16 C 0.80207 0.20290 0.55552
 H17 H 0.74663 0.29270 0.65166
 H18 H 0.78556 0.24634 0.65140
 H19 H 0.72497 0.27062 0.34681
 H20 H 0.76007 0.22073 0.34774
 H21 H 0.67996 0.34799 0.49836
 H22 H 0.82590 0.16385 0.49990
 C23 C 0.20306 0.80674 0.55825
 C24 C 0.18888 0.81699 0.50309
 C25 C 0.19847 0.80244 0.44710
 C26 C 0.22246 0.77570 0.44599
 C27 C 0.23748 0.76519 0.50152
 C28 C 0.22810 0.78118 0.55770
 C29 C 0.24492 0.77242 0.61123
 C30 C 0.27004 0.74787 0.61012
 C31 C 0.27874 0.73005 0.55580
 C32 C 0.26266 0.73950 0.50057
 C33 C 0.23245 0.75994 0.39083
 C34 C 0.25643 0.73414 0.39002
 C35 C 0.27226 0.72408 0.44401
 C36 C 0.29759 0.69908 0.44292
 C37 C 0.31339 0.69043 0.49708
 C38 C 0.30464 0.70517 0.55380
 H39 H 0.23946 0.78529 0.65434
 H40 H 0.28304 0.74384 0.65229
 H41 H 0.22194 0.76743 0.34752
 H42 H 0.26273 0.72253 0.34629
 H43 H 0.16993 0.83690 0.50365
 H44 H 0.33259 0.67083 0.49490
 C45 C 0.29316 0.30228 -0.55600
 C46 C 0.30312 0.31672 -0.50023
 C47 C 0.29296 0.30266 -0.44421
 C48 C 0.27154 0.27326 -0.44350
 C49 C 0.26074 0.25838 -0.49963
 C50 C 0.27176 0.27284 -0.55607
 C51 C 0.26118 0.25743 -0.61092
 C52 C 0.24111 0.22778 -0.61067
 C53 C 0.22900 0.21346 -0.55564
 C54 C 0.23920 0.22873 -0.49930
 C55 C 0.26075 0.25829 -0.38831
 C56 C 0.24064 0.22867 -0.38791
 C57 C 0.22875 0.21389 -0.44263
 C58 C 0.20858 0.18322 -0.44243
 C59 C 0.20022 0.16775 -0.49869
 C60 C 0.20882 0.18280 -0.55521
 H61 H 0.26866 0.26778 -0.65489
 H62 H 0.23587 0.21582 -0.65449
 H63 H 0.26806 0.26900 -0.34457
 H64 H 0.23521 0.21708 -0.34385
 H65 H 0.32012 0.33874 -0.50043
 H66 H 0.18354 0.14544 -0.49850
 C67 C -0.29219 0.68588 -0.44410
 C68 C -0.30029 0.67057 -0.50059
 C69 C -0.29262 0.68659 -0.55680
 C70 C -0.27359 0.71817 -0.55662
 C71 C -0.26330 0.73309 -0.50006
 C72 C -0.27284 0.71716 -0.44375
 C73 C -0.26103 0.73164 -0.38879
 C74 C -0.24222 0.76221 -0.38846
 C75 C -0.23246 0.77845 -0.44326
 C76 C -0.24282 0.76370 -0.49978
 C77 C -0.26294 0.73409 -0.61133
 C78 C -0.24421 0.76476 -0.61093
 C79 C -0.23272 0.77940 -0.55594
 C80 C -0.21264 0.81023 -0.55523
 C81 C -0.20391 0.82486 -0.49850
 C82 C -0.21270 0.80917 -0.44299
 H83 H -0.26568 0.71921 -0.34508
 H84 H -0.23524 0.77279 -0.34443
 H85 H -0.26854 0.72287 -0.65554
 H86 H -0.23897 0.77679 -0.65472
 H87 H -0.31626 0.64764 -0.50073
 H88 H -0.18762 0.84750 -0.49719
 N89 N 0.02886 0.96107 -0.10731
 N90 N 0.05199 0.95611 -0.14794
 N91 N -0.03907 0.93696 -0.06466
 N92 N -0.06154 0.91316 -0.07790
 N93 N -0.03922 0.96291 -0.10486
 N94 N -0.06206 0.95780 -0.14583
 N95 N 0.02868 0.93535 -0.06673
 N96 N 0.05151 0.91185 -0.07928
 C97 C 0.06604 0.92545 -0.12986
 C98 C -0.07599 0.92687 -0.12817
 N99 N -0.03732 0.96106 0.10949
 N100 N -0.06013 0.95617 0.15075
 N101 N 0.02958 0.93400 0.06581
 N102 N 0.05119 0.90912 0.07794
 N103 N 0.03067 0.95930 0.10718
 N104 N 0.05332 0.95278 0.14774
 N105 N -0.03817 0.93588 0.06787
 N106 N -0.06142 0.91278 0.08036
 Mn107 Mn -0.00475 0.93507 0.00053
 C108 C -0.07514 0.92616 0.13192
 C109 C 0.06613 0.92162 0.12878
 N110 N -0.03709 1.03952 -0.10340
 N111 N -0.05725 1.04853 -0.14723
 N112 N 0.03162 1.06241 -0.06385
 N113 N 0.05497 1.08541 -0.07644
 N114 N 0.03072 1.03719 -0.10542
 N115 N 0.05356 1.04194 -0.14667
 N116 N -0.03633 1.06416 -0.06075
 N117 N -0.05621 1.09044 -0.07443
 Mn118 Mn -0.00423 1.00014 -0.10573
 C119 C -0.06966 1.07979 -0.12776
 C120 C 0.06866 1.07191 -0.12799
 N121 N 0.03247 1.03535 0.10913
 N122 N 0.05571 1.03970 0.14941
 N123 N -0.03517 1.06297 0.07123
 N124 N -0.05788 1.08658 0.08401
 N125 N -0.03548 1.03716 0.11160
 N126 N -0.05846 1.04221 0.15246
 N127 N 0.03271 1.06122 0.06885
 N128 N 0.05596 1.08429 0.08137
 Mn129 Mn -0.00241 0.99822 0.10982
 Mn130 Mn -0.00176 1.06316 0.00389
 Cl131 Cl -0.00330 0.99916 0.00209
 C132 C 0.07035 1.07013 0.13142
 C133 C -0.07240 1.07298 0.13464
 N134 N 0.53324 0.53552 0.10691
 N135 N 0.55613 0.54050 0.14774
 N136 N 0.46557 0.56187 0.06802
 N137 N 0.44316 0.58572 0.08095
 N138 N 0.46518 0.53606 0.10840
 N139 N 0.44233 0.54141 0.14954
 N140 N 0.53335 0.56125 0.06636
 N141 N 0.55607 0.58487 0.07931
 C142 C 0.57036 0.57118 0.12984
 C143 C 0.42863 0.57233 0.13162
 N144 N 0.46390 0.53837 -0.10618
 N145 N 0.44367 0.54720 -0.15007
 N146 N 0.53247 0.56236 -0.06641
 N147 N 0.55576 0.58551 -0.07850
 N148 N 0.53175 0.53732 -0.10826
 N149 N 0.55470 0.54228 -0.14920
 N150 N 0.46453 0.56309 -0.06366
 N151 N 0.44451 0.58921 -0.07745
 Mn152 Mn 0.49905 0.56258 0.00109
 C153 C 0.43107 0.57839 -0.13066
 C154 C 0.56963 0.57225 -0.13005
 N155 N 0.46467 0.45967 0.10623
 N156 N 0.44209 0.45377 0.14765
 N157 N 0.53245 0.43435 0.06302
 N158 N 0.55481 0.41025 0.07482
 N159 N 0.53276 0.45951 0.10472
 N160 N 0.55567 0.45372 0.14511
 N161 N 0.46474 0.43439 0.06473
 N162 N 0.44244 0.41024 0.07748
 Mn163 Mn 0.49891 0.49768 0.10709
 C164 C 0.42823 0.42305 0.12896
 C165 C 0.56938 0.42312 0.12574
 N166 N 0.53116 0.46139 -0.11040
 N167 N 0.55438 0.45733 -0.15106
 N168 N 0.46394 0.43560 -0.06767
 N169 N 0.44187 0.41134 -0.08075
 N170 N 0.46315 0.46164 -0.10767
 N171 N 0.44031 0.45606 -0.14845
 N172 N 0.53182 0.43571 -0.06977
 N173 N 0.55543 0.41310 -0.08241
 Mn174 Mn 0.49739 0.49964 -0.10859
 Mn175 Mn 0.49829 0.43453 -0.00247
 Cl176 Cl 0.49838 0.49861 -0.00072
 C177 C 0.56946 0.42727 -0.13314
 C178 C 0.42703 0.42479 -0.13081
 C179 C 0.34140 0.35183 0.29308
 C180 C 0.34367 0.31478 0.30014
 C181 C 0.32663 0.29821 0.34798
 C182 C 0.30699 0.31842 0.38762
 C183 C 0.30414 0.35534 0.37842
 C184 C 0.32162 0.37227 0.33178
 C185 C 0.36147 0.36982 0.24649
 C186 C 0.36099 0.40710 0.24268
 C187 C 0.38209 0.42426 0.20201
 C188 C 0.40322 0.40441 0.16484
 C189 C 0.40239 0.36701 0.16699
 C190 C 0.38193 0.34954 0.20875
 C191 C 0.32081 0.40940 0.32481
 C192 C 0.34031 0.42655 0.28122
 C193 C 0.36390 0.29531 0.26072
 C194 C 0.38254 0.31237 0.21553
 H195 H 0.30562 0.42542 0.35439
 H196 H 0.33962 0.45532 0.27843
 H197 H 0.36575 0.26670 0.26547
 H198 H 0.39820 0.29641 0.18676
 H199 H 0.32954 0.26994 0.35590
 H200 H 0.28941 0.37099 0.40945
 H201 H 0.38267 0.45309 0.20029
 H202 H 0.41893 0.35169 0.13888
 C203 C -0.16411 0.85894 0.29665
 C204 C -0.16547 0.82167 0.29948
 C205 C -0.18283 0.80535 0.34717
 C206 C -0.19907 0.82606 0.39168
 C207 C -0.19794 0.86353 0.38667
 C208 C -0.18042 0.88002 0.33974
 C209 C -0.14375 0.87624 0.24977
 C210 C -0.14085 0.91345 0.24961
 C211 C -0.11944 0.92962 0.20847
 C212 C -0.10102 0.90892 0.16767
 C213 C -0.10525 0.87177 0.16624
 C214 C -0.12630 0.85519 0.20805
 C215 C -0.17794 0.91724 0.33650
 C216 C -0.15840 0.93369 0.29227
 C217 C -0.14831 0.80149 0.25603
 C218 C -0.12918 0.81797 0.21094
 H219 H -0.19056 0.93377 0.36941
 H220 H -0.15646 0.96245 0.29231
 H221 H -0.14923 0.77270 0.25755
 H222 H -0.11589 0.80140 0.17906
 H223 H -0.18194 0.77666 0.35174
 H224 H -0.21036 0.87992 0.42014
 H225 H -0.11632 0.95827 0.20949
 H226 H -0.09087 0.85574 0.13520
 C227 C 0.65871 0.63876 0.29471
 C228 C 0.65898 0.67598 0.29963
 C229 C 0.67637 0.69209 0.34735
 C230 C 0.69376 0.67122 0.38979
 C231 C 0.69371 0.63384 0.38260
 C232 C 0.67614 0.61754 0.33569
 C233 C 0.63839 0.62154 0.24785
 C234 C 0.63661 0.58426 0.24567
 C235 C 0.61531 0.56804 0.20458
 C236 C 0.59594 0.58875 0.16572
 C237 C 0.59902 0.62605 0.16632
 C238 C 0.61991 0.64266 0.20817
 C239 C 0.67473 0.58032 0.33043
 C240 C 0.65521 0.56395 0.28628
 C241 C 0.64076 0.69626 0.25821
 C242 C 0.62169 0.67989 0.21310
 H243 H 0.68820 0.56369 0.36171
 H244 H 0.65416 0.53516 0.28475
 H245 H 0.64082 0.72502 0.26134
 H246 H 0.60760 0.69652 0.18283
 H247 H 0.67465 0.72063 0.35363
 H248 H 0.70699 0.61732 0.41444
 H249 H 0.61309 0.53929 0.20406
 H250 H 0.58391 0.64208 0.13683
 C251 C 0.15995 1.13558 0.29610
 C252 C 0.16149 1.17282 0.29996
 C253 C 0.17902 1.18863 0.34776
 C254 C 0.19514 1.16745 0.39149
 C255 C 0.19383 1.13004 0.38543
 C256 C 0.17623 1.11404 0.33828
 C257 C 0.13946 1.11879 0.24909
 C258 C 0.13647 1.08159 0.24784
 C259 C 0.11495 1.06587 0.20664
 C260 C 0.09643 1.08700 0.16695
 C261 C 0.10076 1.12415 0.16658
 C262 C 0.12198 1.14028 0.20839
 C263 C 0.17364 1.07687 0.33395
 C264 C 0.15402 1.06090 0.28953
 C265 C 0.14434 1.19344 0.25743
 C266 C 0.12502 1.17745 0.21231
 H267 H 0.18624 1.05999 0.36613
 H268 H 0.15201 1.03216 0.28872
 H269 H 0.14538 1.22221 0.25974
 H270 H 0.11172 1.19437 0.18121
 H271 H 0.17837 1.21730 0.35304
 H272 H 0.20620 1.11329 0.41823
 H273 H 0.11179 1.03723 0.20684
 H274 H 0.08634 1.14052 0.13641
 C275 C 0.66229 0.36413 -0.29544
 C276 C 0.67543 0.38523 -0.34227
 C277 C 0.69307 0.36901 -0.38926
 C278 C 0.69764 0.33179 -0.39043
 C279 C 0.68548 0.31121 -0.34128
 C280 C 0.66750 0.32725 -0.29402
 C281 C 0.64106 0.38072 -0.24917
 C282 C 0.62624 0.35942 -0.20426
 C283 C 0.60399 0.37499 -0.16339
 C284 C 0.59628 0.41134 -0.16849
 C285 C 0.61241 0.43245 -0.21219
 C286 C 0.63461 0.41729 -0.25284
 C287 C 0.65320 0.30698 -0.24708
 C288 C 0.63294 0.32278 -0.20299
 C289 C 0.66946 0.42198 -0.34284
 C290 C 0.64939 0.43776 -0.29882
 H291 H 0.65705 0.27850 -0.24528
 H292 H 0.62181 0.30601 -0.16854
 H293 H 0.67967 0.43854 -0.37860
 H294 H 0.64469 0.46605 -0.30183
 H295 H 0.70268 0.38534 -0.42600
 H296 H 0.68776 0.28249 -0.34221
 H297 H 0.59158 0.35860 -0.12995
 H298 H 0.60680 0.46052 -0.21607
 C299 C 0.15627 0.85721 -0.29082
 C300 C 0.17278 0.87798 -0.33428
 C301 C 0.19017 0.86107 -0.38098
 C302 C 0.19056 0.82373 -0.38519
 C303 C 0.17484 0.80320 -0.34016
 C304 C 0.15758 0.81987 -0.29273
 C305 C 0.13562 0.87485 -0.24485
 C306 C 0.11790 0.85411 -0.20302
 C307 C 0.09645 0.87096 -0.16234
 C308 C 0.09209 0.90805 -0.16495
 C309 C 0.11080 0.92848 -0.20578
 C310 C 0.13260 0.91204 -0.24585
 C311 C 0.14034 0.80005 -0.24892
 C312 C 0.12093 0.81689 -0.20469
 C313 C 0.17024 0.91520 -0.33205
 C314 C 0.15042 0.93196 -0.28864
 H315 H 0.14126 0.77126 -0.24969
 H316 H 0.10748 0.80057 -0.17263
 H317 H 0.18296 0.93147 -0.36524
 H318 H 0.14841 0.96069 -0.28953
 H319 H 0.20204 0.87684 -0.41602
 H320 H 0.17471 0.77445 -0.34400
 H321 H 0.08192 0.85513 -0.13121
 H322 H 0.10766 0.95709 -0.20767
 C323 C 0.35847 0.66118 -0.30142
 C324 C 0.32483 0.66425 -0.29478
 C325 C 0.30684 0.68062 -0.34144
 C326 C 0.32240 0.69385 -0.39446
 C327 C 0.35639 0.69134 -0.39880
 C328 C 0.37442 0.67492 -0.35296
 C329 C 0.37724 0.64178 -0.25496
 C330 C 0.41064 0.63728 -0.26354
 C331 C 0.42808 0.61709 -0.22136
 C332 C 0.41243 0.60174 -0.17082
 C333 C 0.37917 0.60710 -0.16154
 C334 C 0.36128 0.62693 -0.20414
 C335 C 0.40800 0.67085 -0.35889
 C336 C 0.42582 0.65225 -0.31497
 C337 C 0.30978 0.64961 -0.24275
 C338 C 0.32770 0.63138 -0.19812
 H339 H 0.42053 0.68148 -0.39850
 H340 H 0.45159 0.64908 -0.32183
 H341 H 0.28386 0.65180 -0.23691
 H342 H 0.31507 0.62012 -0.15918
 H343 H 0.28071 0.68092 -0.33822
 H344 H 0.36882 0.70168 -0.43882
 H345 H 0.45374 0.61275 -0.22822
 H346 H 0.36722 0.59491 -0.12262
 C347 C -0.14271 1.16102 -0.29983
 C348 C -0.17595 1.16638 -0.29054
 C349 C -0.19438 1.18198 -0.33740
 C350 C -0.17961 1.19219 -0.39311
 C351 C -0.14594 1.18750 -0.40013
 C352 C -0.12753 1.17176 -0.35422
 C353 C -0.12364 1.14231 -0.25299
 C354 C -0.09080 1.13535 -0.26421
 C355 C -0.07327 1.11560 -0.22165
 C356 C -0.08817 1.10320 -0.16802
 C357 C -0.12075 1.11118 -0.15602
 C358 C -0.13883 1.13048 -0.19909
 C359 C -0.09441 1.16541 -0.36278
 C360 C -0.07635 1.14738 -0.31857
 C361 C -0.19020 1.15475 -0.23554
 C362 C -0.17195 1.13725 -0.19051
 H363 H -0.08250 1.17373 -0.40463
 H364 H -0.05101 1.14230 -0.32746
 H365 H -0.21579 1.15875 -0.22760
 H366 H -0.18400 1.12832 -0.14920
 H367 H -0.22034 1.18413 -0.33192
 H368 H -0.13412 1.19557 -0.44230
 H369 H -0.04813 1.10928 -0.23058
 H370 H -0.13217 1.10122 -0.11473
 C371 C 0.65913 0.63833 -0.29494
 C372 C 0.67572 0.61689 -0.33714
 C373 C 0.69327 0.63299 -0.38447
 C374 C 0.69416 0.67040 -0.39072
 C375 C 0.67768 0.69146 -0.34700
 C376 C 0.66026 0.67556 -0.29899
 C377 C 0.63872 0.62141 -0.24772
 C378 C 0.62094 0.64278 -0.20697
 C379 C 0.59977 0.62651 -0.16500
 C380 C 0.59576 0.58933 -0.16534
 C381 C 0.61456 0.56832 -0.20506
 C382 C 0.63607 0.58418 -0.24635
 C383 C 0.64283 0.69608 -0.25643
 C384 C 0.62361 0.67998 -0.21107
 C385 C 0.67350 0.57970 -0.33263
 C386 C 0.65392 0.56361 -0.28806
 H387 H 0.64357 0.72486 -0.25890
 H388 H 0.61008 0.69680 -0.17995
 H389 H 0.68633 0.56290 -0.36482
 H390 H 0.65218 0.53485 -0.28713
 H391 H 0.70591 0.61632 -0.41722
 H392 H 0.67668 0.72010 -0.35242
 H393 H 0.58509 0.64275 -0.13482
 H394 H 0.61161 0.53964 -0.20523
 C395 C 0.15902 1.13673 -0.29319
 C396 C 0.17548 1.11500 -0.33512
 C397 C 0.19335 1.13078 -0.38233
 C398 C 0.19472 1.16816 -0.38883
 C399 C 0.17843 1.18955 -0.34530
 C400 C 0.16065 1.17395 -0.29738
 C401 C 0.13827 1.12015 -0.24609
 C402 C 0.12066 1.14181 -0.20556
 C403 C 0.09924 1.12587 -0.16357
 C404 C 0.09486 1.08872 -0.16367
 C405 C 0.11347 1.06743 -0.20329
 C406 C 0.13520 1.08297 -0.24457
 C407 C 0.14332 1.19476 -0.25505
 C408 C 0.12377 1.17897 -0.20981
 C409 C 0.17279 1.07785 -0.33050
 C410 C 0.15290 1.06209 -0.28606
 H411 H 0.14442 1.22352 -0.25760
 H412 H 0.11038 1.19603 -0.17887
 H413 H 0.18551 1.06082 -0.36250
 H414 H 0.15083 1.03336 -0.28504
 H415 H 0.20585 1.11386 -0.41491
 H416 H 0.17783 1.21819 -0.35087
 H417 H 0.08473 1.14235 -0.13349
 H418 H 0.11025 1.03879 -0.20330
 C419 C 0.34081 0.35290 -0.29419
 C420 C 0.32106 0.37315 -0.33291
 C421 C 0.30372 0.35602 -0.37929
 C422 C 0.30667 0.31908 -0.38817
 C423 C 0.32625 0.29905 -0.34852
 C424 C 0.34317 0.31583 -0.30097
 C425 C 0.36074 0.37109 -0.24790
 C426 C 0.38119 0.35099 -0.21020
 C427 C 0.40151 0.36864 -0.16873
 C428 C 0.40223 0.40605 -0.16676
 C429 C 0.38111 0.42574 -0.20387
 C430 C 0.36016 0.40839 -0.24432
 C431 C 0.36336 0.29654 -0.26157
 C432 C 0.38189 0.31380 -0.21668
 C433 C 0.32013 0.41029 -0.32617
 C434 C 0.33949 0.42764 -0.28282
 H435 H 0.36527 0.26792 -0.26611
 H436 H 0.39754 0.29798 -0.18791
 H437 H 0.30496 0.42617 -0.35576
 H438 H 0.33871 0.45641 -0.28018
 H439 H 0.28902 0.37152 -0.41037
 H440 H 0.32920 0.27075 -0.35621
 H441 H 0.41801 0.35344 -0.14063
 H442 H 0.38158 0.45456 -0.20226
 C443 C -0.16343 0.85727 -0.29228
 C444 C -0.16078 0.82039 -0.30131
 C445 C -0.17809 0.80434 -0.34907
 C446 C -0.19850 0.82480 -0.38657
 C447 C -0.20171 0.86152 -0.37537
 C448 C -0.18387 0.87799 -0.32890
 C449 C -0.14309 0.87480 -0.24584
 C450 C -0.14391 0.91201 -0.24018
 C451 C -0.12260 0.92881 -0.19965
 C452 C -0.10102 0.90864 -0.16432
 C453 C -0.10149 0.87128 -0.16834
 C454 C -0.12208 0.85422 -0.21008
 C455 C -0.18500 0.91499 -0.32007
 C456 C -0.16520 0.93174 -0.27671
 C457 C -0.13995 0.80060 -0.26390
 C458 C -0.12111 0.81719 -0.21874
 H459 H -0.20069 0.93124 -0.34804
 H460 H -0.16618 0.96044 -0.27247
 H461 H -0.13782 0.77211 -0.27018
 H462 H -0.10501 0.80100 -0.19151
 H463 H -0.17483 0.77627 -0.35860
 H464 H -0.21700 0.87742 -0.40477
 H465 H -0.12229 0.95760 -0.19649
 H466 H -0.08460 0.85573 -0.14169
 C467 C 0.34175 0.64529 0.29286
 C468 C 0.34161 0.68267 0.29349
 C469 C 0.32525 0.70052 0.34073
 C470 C 0.30908 0.68111 0.38658
 C471 C 0.30829 0.64374 0.38373
 C472 C 0.32491 0.62564 0.33738
 C473 C 0.36156 0.62637 0.24712
 C474 C 0.36357 0.58910 0.24948
 C475 C 0.38463 0.57144 0.20950
 C476 C 0.40347 0.59076 0.16734
 C477 C 0.40009 0.62794 0.16348
 C478 C 0.37950 0.64599 0.20409
 C479 C 0.32638 0.58832 0.33652
 C480 C 0.34549 0.57034 0.29339
 C481 C 0.35910 0.70135 0.24859
 C482 C 0.37761 0.68331 0.20444
 H483 H 0.31340 0.57293 0.37057
 H484 H 0.34670 0.54157 0.29534
 H485 H 0.35905 0.73017 0.24837
 H486 H 0.39127 0.69874 0.17142
 H487 H 0.32637 0.72929 0.34369
 H488 H 0.29618 0.62886 0.41962
 H489 H 0.38706 0.54277 0.21233
 H490 H 0.41473 0.64292 0.13130
 C491 C -0.16111 1.14274 0.29678
 C492 C -0.16430 1.17989 0.29457
 C493 C -0.18110 1.19744 0.34171
 C494 C -0.19435 1.17803 0.39119
 C495 C -0.19173 1.14058 0.39104
 C496 C -0.17514 1.12288 0.34429
 C497 C -0.14098 1.12447 0.25068
 C498 C -0.13635 1.08758 0.25525
 C499 C -0.11508 1.07076 0.21472
 C500 C -0.09820 1.09053 0.17023
 C501 C -0.10415 1.12723 0.16426
 C502 C -0.12532 1.14446 0.20503
 C503 C -0.17104 1.08582 0.34577
 C504 C -0.15196 1.06844 0.30194
 C505 C -0.14918 1.19887 0.24698
 C506 C -0.13007 1.18145 0.20293
 H507 H -0.18194 1.07023 0.38209
 H508 H -0.14870 1.03993 0.30562
 H509 H -0.15150 1.22753 0.24459
 H510 H -0.11824 1.19721 0.16788
 H511 H -0.18171 1.22627 0.34220
 H512 H -0.20190 1.12529 0.42855
 H513 H -0.11078 1.04244 0.21925
 H514 H -0.09112 1.14258 0.13019
 C515 C 0.65583 0.35510 0.29194
 C516 C 0.67715 0.37618 0.32629
 C517 C 0.69468 0.36055 0.37382
 C518 C 0.69039 0.32437 0.38819
 C519 C 0.66900 0.30350 0.35325
 C520 C 0.65191 0.31869 0.30445
 C521 C 0.63598 0.37187 0.24413
 C522 C 0.61403 0.35103 0.21066
 C523 C 0.59374 0.36758 0.16791
 C524 C 0.59458 0.40475 0.16079
 C525 C 0.61720 0.42510 0.19357
 C526 C 0.63814 0.40878 0.23504
 C527 C 0.63020 0.29855 0.26920
 C528 C 0.61174 0.31440 0.22282
 C529 C 0.67961 0.41276 0.31403
 C530 C 0.66026 0.42884 0.26941
 H531 H 0.62709 0.27041 0.27815
 H532 H 0.59491 0.29802 0.19741
 H533 H 0.69600 0.42926 0.34025
 H534 H 0.66222 0.45731 0.26252
 H535 H 0.71078 0.37673 0.40132
 H536 H 0.66508 0.27585 0.36521
 H537 H 0.57596 0.35200 0.14330
 H538 H 0.61778 0.45377 0.18807
 C539 C 0.15046 0.85038 0.29530
 C540 C 0.14696 0.81359 0.30474
 C541 C 0.16360 0.79740 0.35324
 C542 C 0.18385 0.81782 0.39122
 C543 C 0.18774 0.85441 0.37994
 C544 C 0.17086 0.87092 0.33250
 C545 C 0.13118 0.86806 0.24760
 C546 C 0.13310 0.90517 0.24122
 C547 C 0.11275 0.92224 0.19960
 C548 C 0.09080 0.90250 0.16419
 C549 C 0.09018 0.86516 0.16874
 C550 C 0.11001 0.84779 0.21140
 C551 C 0.17307 0.90779 0.32304
 C552 C 0.15438 0.92467 0.27832
 C553 C 0.12609 0.79407 0.26673
 C554 C 0.10806 0.81084 0.22067
 H555 H 0.18878 0.92385 0.35145
 H556 H 0.15614 0.95330 0.27354
 H557 H 0.12328 0.76566 0.27329
 H558 H 0.09185 0.79488 0.19311
 H559 H 0.16016 0.76934 0.36263
 H560 H 0.20307 0.87015 0.40968
 H561 H 0.11325 0.95101 0.19606
 H562 H 0.07297 0.84998 0.14203
   
