data_POSCAR
  _audit_creation_date              2014-09-24
  _audit_creation_method            'ToBaCCo'
  _symmetry_space_group_name_H-M    'P1'
  _symmetry_Int_Tables_number       1
  _symmetry_cell_setting            triclinic
  loop_
  _symmetry_equiv_pos_as_xyz
 x,y,z
_cell_length_a 43.5333
_cell_length_b 43.5764
_cell_length_c 43.4489
_cell_angle_alpha 90.000000
_cell_angle_beta 90.000000
_cell_angle_gamma 89.915500
loop_
  _atom_site_label
  _atom_site_type_symbol
  _atom_site_fract_x
  _atom_site_fract_y
  _atom_site_fract_z
C1 C 0.15970 0.18122 0.20516
 C2 C 0.15969 0.20397 0.18232
 C3 C 0.18218 0.20395 0.15983
 C4 C 0.20500 0.18120 0.15986
 C5 C 0.20501 0.15875 0.18239
 C6 C 0.18220 0.15876 0.20520
 C7 C 0.14081 0.17571 0.22995
 N8 N 0.15131 0.15046 0.24505
 C9 C 0.17664 0.13994 0.23003
 C10 C 0.22983 0.13992 0.17685
 N11 N 0.24486 0.15042 0.15151
 C12 C 0.22979 0.17567 0.14099
 C13 C 0.17663 0.22870 0.14093
 N14 N 0.15133 0.24368 0.15144
 C15 C 0.14081 0.22872 0.17674
 H16 H 0.12094 0.18919 0.23653
 H17 H 0.19012 0.12012 0.23670
 H18 H 0.23648 0.12010 0.19035
 H19 H 0.23638 0.18914 0.12111
 H20 H 0.19005 0.23538 0.12106
 H21 H 0.12094 0.23542 0.19016
 C22 C -0.15971 0.81879 0.20516
 C23 C -0.15970 0.79604 0.18232
 C24 C -0.18219 0.79605 0.15983
 C25 C -0.20501 0.81881 0.15986
 C26 C -0.20503 0.84126 0.18239
 C27 C -0.18221 0.84125 0.20520
 C28 C -0.14082 0.82429 0.22995
 N29 N -0.15132 0.84955 0.24505
 C30 C -0.17665 0.86007 0.23003
 C31 C -0.22984 0.86009 0.17685
 N32 N -0.24487 0.84959 0.15151
 C33 C -0.22980 0.82433 0.14099
 C34 C -0.17664 0.77131 0.14093
 N35 N -0.15135 0.75633 0.15144
 C36 C -0.14082 0.77129 0.17674
 H37 H -0.12095 0.81082 0.23653
 H38 H -0.19013 0.87989 0.23670
 H39 H -0.23649 0.87991 0.19035
 H40 H -0.23639 0.81087 0.12111
 H41 H -0.19006 0.76462 0.12106
 H42 H -0.12095 0.76459 0.19016
 C43 C -0.16038 0.18160 -0.20496
 C44 C -0.16042 0.20439 -0.18218
 C45 C -0.18292 0.20446 -0.15968
 C46 C -0.20569 0.18171 -0.15967
 C47 C -0.20564 0.15921 -0.18215
 C48 C -0.18282 0.15916 -0.20496
 C49 C -0.14147 0.17603 -0.22973
 N50 N -0.15190 0.15074 -0.24478
 C51 C -0.17721 0.14027 -0.22974
 C52 C -0.23039 0.14039 -0.17658
 N53 N -0.24546 0.15092 -0.15127
 C54 C -0.23047 0.17620 -0.14078
 C55 C -0.17737 0.22925 -0.14084
 N56 N -0.15210 0.24416 -0.15141
 C57 C -0.14158 0.22912 -0.17668
 H58 H -0.12163 0.18947 -0.23634
 H59 H -0.19064 0.12044 -0.23636
 H60 H -0.23696 0.12054 -0.19005
 H61 H -0.23711 0.18969 -0.12092
 H62 H -0.19079 0.23601 -0.12098
 H63 H -0.12172 0.23574 -0.19012
 C64 C 0.16037 0.81841 -0.20496
 C65 C 0.16041 0.79562 -0.18218
 C66 C 0.18290 0.79555 -0.15968
 C67 C 0.20567 0.81830 -0.15967
 C68 C 0.20563 0.84080 -0.18215
 C69 C 0.18281 0.84085 -0.20496
 C70 C 0.14146 0.82398 -0.22973
 N71 N 0.15189 0.84927 -0.24478
 C72 C 0.17720 0.85973 -0.22974
 C73 C 0.23038 0.85962 -0.17658
 N74 N 0.24545 0.84909 -0.15127
 C75 C 0.23046 0.82380 -0.14078
 C76 C 0.17736 0.77075 -0.14084
 N77 N 0.15209 0.75585 -0.15141
 C78 C 0.14157 0.77089 -0.17668
 H79 H 0.12162 0.81053 -0.23634
 H80 H 0.19063 0.87957 -0.23636
 H81 H 0.23695 0.87947 -0.19005
 H82 H 0.23710 0.81032 -0.12092
 H83 H 0.19078 0.76400 -0.12098
 H84 H 0.12171 0.76427 -0.19012
 C85 C 0.18033 1.15911 0.79580
 C86 C 0.20310 1.15911 0.81861
 C87 C 0.20313 1.18160 0.84108
 C88 C 0.18037 1.20441 0.84103
 C89 C 0.15789 1.20441 0.81852
 C90 C 0.15787 1.18160 0.79574
 C91 C 0.17486 1.14026 0.77100
 N92 N 0.14961 1.15079 0.75588
 C93 C 0.13907 1.17608 0.77089
 C94 C 0.13911 1.22926 0.82397
 N95 N 0.14967 1.24432 0.84925
 C96 C 0.17491 1.22924 0.85983
 C97 C 0.22795 1.17609 0.85992
 N98 N 0.24292 1.15083 0.84938
 C99 C 0.22789 1.14028 0.82413
 H100 H 0.18836 1.12043 0.76442
 H101 H 0.11926 1.18958 0.76418
 H102 H 0.11930 1.23592 0.81044
 H103 H 0.18843 1.23588 0.87966
 H104 H 0.23470 1.18954 0.87974
 H105 H 0.23459 1.12044 0.81069
 C106 C 0.81966 0.84090 0.79580
 C107 C 0.79689 0.84090 0.81861
 C108 C 0.79686 0.81840 0.84108
 C109 C 0.81962 0.79560 0.84103
 C110 C 0.84210 0.79560 0.81852
 C111 C 0.84212 0.81841 0.79574
 C112 C 0.82513 0.85974 0.77100
 N113 N 0.85038 0.84922 0.75588
 C114 C 0.86092 0.82392 0.77089
 C115 C 0.86088 0.77075 0.82397
 N116 N 0.85032 0.75568 0.84925
 C117 C 0.82507 0.77077 0.85983
 C118 C 0.77204 0.82391 0.85992
 N119 N 0.75707 0.84918 0.84938
 C120 C 0.77210 0.85973 0.82413
 H121 H 0.81163 0.87958 0.76442
 H122 H 0.88073 0.81043 0.76418
 H123 H 0.88069 0.76409 0.81044
 H124 H 0.81156 0.76413 0.87966
 H125 H 0.76529 0.81047 0.87974
 H126 H 0.76540 0.87956 0.81069
 C127 C 0.18064 0.84149 1.20435
 C128 C 0.20340 0.84150 1.18152
 C129 C 0.20343 0.81905 1.15901
 C130 C 0.18070 0.79630 1.15902
 C131 C 0.15823 0.79629 1.18154
 C132 C 0.15820 0.81905 1.20437
 C133 C 0.17517 0.86029 1.22920
 N134 N 0.14994 0.84977 1.24431
 C135 C 0.13941 0.82454 1.22925
 C136 C 0.13949 0.77148 1.17604
 N137 N 0.15008 0.75651 1.15075
 C138 C 0.17527 0.77151 1.14018
 C139 C 0.22824 0.82452 1.14018
 N140 N 0.24321 0.84972 1.15075
 C141 C 0.22819 0.86027 1.17603
 H142 H 0.18865 0.88008 1.23583
 H143 H 0.11962 0.81106 1.23593
 H144 H 0.11969 0.76474 1.18950
 H145 H 0.18873 0.76481 1.12033
 H146 H 0.23499 0.81109 1.12033
 H147 H 0.23490 0.88006 1.18950
 C148 C 0.81935 1.15851 1.20435
 C149 C 0.79658 1.15851 1.18152
 C150 C 0.79655 1.18096 1.15901
 C151 C 0.81929 1.20371 1.15902
 C152 C 0.84176 1.20372 1.18154
 C153 C 0.84179 1.18096 1.20437
 C154 C 0.82482 1.13972 1.22920
 N155 N 0.85005 1.15024 1.24431
 C156 C 0.86058 1.17547 1.22925
 C157 C 0.86050 1.22852 1.17604
 N158 N 0.84991 1.24350 1.15075
 C159 C 0.82472 1.22849 1.14018
 C160 C 0.77175 1.17549 1.14018
 N161 N 0.75678 1.15029 1.15075
 C162 C 0.77180 1.13974 1.17603
 H163 H 0.81134 1.11993 1.23583
 H164 H 0.88037 1.18895 1.23593
 H165 H 0.88030 1.23527 1.18950
 H166 H 0.81126 1.23520 1.12033
 H167 H 0.76500 1.18892 1.12033
 H168 H 0.76509 1.11994 1.18950
 N169 N 0.53224 1.05438 0.96688
 N170 N 0.55563 1.07327 0.96309
 N171 N 0.46762 1.03305 0.94552
 N172 N 0.44413 1.03677 0.92666
 N173 N 0.46759 1.05435 0.96690
 N174 N 0.44409 1.07316 0.96319
 N175 N 0.53228 1.03307 0.94551
 N176 N 0.55570 1.03686 0.92658
 C177 C 0.56999 1.06204 0.93785
 C178 C 0.42974 1.06190 0.93799
 N179 N 0.46775 0.94563 0.96688
 N180 N 0.44436 0.92674 0.96309
 N181 N 0.53237 0.96696 0.94552
 N182 N 0.55586 0.96324 0.92666
 N183 N 0.53240 0.94566 0.96690
 N184 N 0.55590 0.92685 0.96319
 N185 N 0.46771 0.96694 0.94551
 N186 N 0.44429 0.96314 0.92658
 Mn187 Mn 0.49999 1.00000 0.94514
 C188 C 0.42999 0.93797 0.93785
 C189 C 0.57025 0.93811 0.93799
 N190 N 0.46754 1.05435 1.03319
 N191 N 0.44407 1.07320 1.03699
 N192 N 0.53224 1.03306 1.05454
 N193 N 0.55572 1.03676 1.07339
 N194 N 0.53220 1.05437 1.03317
 N195 N 0.55565 1.07317 1.03688
 N196 N 0.46759 1.03303 1.05455
 N197 N 0.44416 1.03678 1.07349
 Mn198 Mn 0.49989 1.05473 1.00003
 C199 C 0.42976 1.06193 1.06223
 C200 C 0.57004 1.06188 1.06207
 N201 N 0.53245 0.94566 1.03319
 N202 N 0.55592 0.92681 1.03699
 N203 N 0.46775 0.96695 1.05454
 N204 N 0.44427 0.96325 1.07339
 N205 N 0.46779 0.94564 1.03317
 N206 N 0.44434 0.92684 1.03688
 N207 N 0.53240 0.96698 1.05455
 N208 N 0.55583 0.96323 1.07349
 Mn209 Mn 0.50010 0.94527 1.00003
 Mn210 Mn 0.49999 1.00000 1.05492
 Cl211 Cl 0.49999 1.00000 1.00003
 C212 C 0.57023 0.93808 1.06223
 C213 C 0.42995 0.93812 1.06207
 N214 N 0.03302 0.46759 0.05412
 N215 N 0.03677 0.44418 0.07305
 N216 N 0.05445 0.53212 0.03276
 N217 N 0.07328 0.55554 0.03649
 N218 N 0.03311 0.53217 0.05412
 N219 N 0.03682 0.55562 0.07298
 N220 N 0.05435 0.46752 0.03275
 N221 N 0.07320 0.44407 0.03654
 C222 C 0.06193 0.42977 0.06177
 C223 C 0.06198 0.56992 0.06168
 N224 N 0.03315 0.53222 -0.05491
 N225 N 0.03697 0.55564 -0.07380
 N226 N 0.05435 0.46754 -0.03354
 N227 N 0.07314 0.44403 -0.03727
 N228 N 0.03302 0.46761 -0.05491
 N229 N 0.03669 0.44415 -0.07378
 N230 N 0.05447 0.53213 -0.03353
 N231 N 0.07339 0.55548 -0.03727
 Mn232 Mn 0.05478 0.49983 -0.00039
 C233 C 0.06218 0.56988 -0.06249
 C234 C 0.06182 0.42972 -0.06248
 N235 N -0.03303 0.53242 0.05412
 N236 N -0.03678 0.55583 0.07305
 N237 N -0.05446 0.46789 0.03276
 N238 N -0.07330 0.44446 0.03649
 N239 N -0.03312 0.46784 0.05412
 N240 N -0.03683 0.44439 0.07298
 N241 N -0.05436 0.53249 0.03275
 N242 N -0.07321 0.55594 0.03654
 Mn243 Mn -0.00001 0.50000 0.05449
 C244 C -0.06194 0.57024 0.06177
 C245 C -0.06199 0.43009 0.06168
 N246 N -0.03316 0.46779 -0.05491
 N247 N -0.03698 0.44437 -0.07380
 N248 N -0.05436 0.53246 -0.03354
 N249 N -0.07315 0.55598 -0.03727
 N250 N -0.03303 0.53239 -0.05491
 N251 N -0.03670 0.55585 -0.07378
 N252 N -0.05448 0.46788 -0.03353
 N253 N -0.07340 0.44453 -0.03727
 Mn254 Mn -0.00001 0.50000 -0.05529
 Mn255 Mn -0.05479 0.50018 -0.00039
 Cl256 Cl -0.00001 0.50000 -0.00040
 C257 C -0.06219 0.43013 -0.06249
 C258 C -0.06184 0.57029 -0.06248
 N259 N 0.94564 -0.03306 0.46785
 N260 N 0.92673 -0.03683 0.44440
 N261 N 0.96704 -0.05438 0.53261
 N262 N 0.96336 -0.07323 0.55609
 N263 N 0.94566 -0.03309 0.53263
 N264 N 0.92684 -0.03686 0.55615
 N265 N 0.96701 -0.05437 0.46783
 N266 N 0.96323 -0.07323 0.44435
 C267 C 0.93801 -0.06199 0.43001
 C268 C 0.93819 -0.06200 0.57050
 N269 N 1.05447 -0.03301 0.53265
 N270 N 1.07340 -0.03677 0.55609
 N271 N 1.03317 -0.05433 0.46788
 N272 N 1.03691 -0.07315 0.44436
 N273 N 1.05447 -0.03302 0.46787
 N274 N 1.07330 -0.03674 0.44434
 N275 N 1.03320 -0.05434 0.53265
 N276 N 1.03705 -0.07322 0.55611
 Mn277 Mn 1.00010 -0.05473 0.50024
 C278 C 1.06223 -0.06195 0.57046
 C279 C 1.06204 -0.06188 0.42996
 N280 N 0.94552 0.03301 0.53265
 N281 N 0.92659 0.03678 0.55609
 N282 N 0.96682 0.05434 0.46788
 N283 N 0.96308 0.07315 0.44436
 N284 N 0.94552 0.03303 0.46787
 N285 N 0.92669 0.03675 0.44434
 N286 N 0.96679 0.05435 0.53265
 N287 N 0.96294 0.07322 0.55611
 Mn288 Mn 0.94521 -0.00003 0.50025
 C289 C 0.93776 0.06196 0.57046
 C290 C 0.93795 0.06189 0.42996
 N291 N 1.05435 0.03307 0.46785
 N292 N 1.07326 0.03684 0.44440
 N293 N 1.03295 0.05439 0.53261
 N294 N 1.03663 0.07324 0.55609
 N295 N 1.05433 0.03309 0.53263
 N296 N 1.07315 0.03686 0.55615
 N297 N 1.03298 0.05438 0.46783
 N298 N 1.03676 0.07324 0.44435
 Mn299 Mn 1.05478 0.00004 0.50025
 Mn300 Mn 0.99989 0.05473 0.50024
 Cl301 Cl 0.99999 0.00000 0.50025
 C302 C 1.06198 0.06199 0.43001
 C303 C 1.06180 0.06201 0.57050
 C304 C 1.11365 0.11317 0.32241
 N305 N 1.13900 0.10048 0.30937
 N306 N 1.15129 0.11264 0.28408
 C307 C 1.13871 0.13797 0.27083
 N308 N 1.11331 0.15061 0.28393
 N309 N 1.10103 0.13845 0.30922
 C310 C 1.10016 0.09982 0.35036
 N311 N 1.07484 0.11256 0.36345
 N312 N 1.06266 0.10051 0.38885
 C313 C 1.07537 0.07528 0.40207
 N314 N 1.10065 0.06252 0.38899
 N315 N 1.11284 0.07458 0.36360
 C316 C 0.88634 -0.11316 0.32241
 N317 N 0.86099 -0.10047 0.30937
 N318 N 0.84870 -0.11263 0.28408
 C319 C 0.86128 -0.13796 0.27083
 N320 N 0.88668 -0.15061 0.28393
 N321 N 0.89896 -0.13844 0.30922
 C322 C 0.89983 -0.09982 0.35036
 N323 N 0.92514 -0.11256 0.36345
 N324 N 0.93733 -0.10050 0.38885
 C325 C 0.92462 -0.07528 0.40207
 N326 N 0.89933 -0.06252 0.38899
 N327 N 0.88715 -0.07457 0.36360
 C328 C 0.88589 0.11328 0.67796
 N329 N 0.86057 0.10062 0.69102
 N330 N 0.84823 0.11283 0.71628
 C331 C 0.86074 0.13819 0.72948
 N332 N 0.88611 0.15080 0.71636
 N333 N 0.89844 0.13859 0.69110
 C334 C 0.89943 0.09989 0.65004
 N335 N 0.92470 0.11262 0.63694
 N336 N 0.93693 0.10052 0.61157
 C337 C 0.92432 0.07527 0.59838
 N338 N 0.89907 0.06252 0.61147
 N339 N 0.88684 0.07461 0.63684
 C340 C 1.11410 -0.11327 0.67796
 N341 N 1.10155 -0.13858 0.69110
 N342 N 1.11388 -0.15080 0.71636
 C343 C 1.13925 -0.13819 0.72948
 N344 N 1.15176 -0.11283 0.71628
 N345 N 1.13942 -0.10061 0.69102
 C346 C 1.10056 -0.09988 0.65004
 N347 N 1.11315 -0.07461 0.63684
 N348 N 1.10092 -0.06251 0.61147
 C349 C 1.07567 -0.07527 0.59838
 N350 N 1.06305 -0.10052 0.61157
 N351 N 1.07529 -0.11261 0.63694
 C352 C 0.32220 1.11310 1.11390
 N353 N 0.30915 1.10042 1.13926
 N354 N 0.28386 1.11259 1.15154
 C355 C 0.27063 1.13792 1.13893
 N356 N 0.28374 1.15055 1.11352
 N357 N 0.30903 1.13838 1.10125
 C358 C 0.35014 1.09975 1.10042
 N359 N 0.36323 1.11249 1.07509
 N360 N 0.38861 1.10043 1.06291
 C361 C 0.40183 1.07521 1.07563
 N362 N 0.38876 1.06245 1.10093
 N363 N 0.36337 1.07450 1.11311
 C364 C 0.32265 0.88653 0.88630
 N365 N 0.30951 0.89919 0.86096
 N366 N 0.28428 0.88698 0.84870
 C367 C 0.27118 0.86161 0.86130
 N368 N 0.28437 0.84900 0.88669
 N369 N 0.30961 0.86122 0.89894
 C370 C 0.35054 0.89995 0.89975
 N371 N 0.36371 0.88725 0.92507
 N372 N 0.38905 0.89938 0.93722
 C373 C 0.40212 0.92462 0.92448
 N374 N 0.38896 0.93734 0.89919
 N375 N 0.36363 0.92522 0.88704
 C376 C 0.67779 0.88691 1.11390
 N377 N 0.69096 0.86163 1.10125
 N378 N 0.71624 0.84946 1.11352
 C379 C 0.72935 0.86209 1.13893
 N380 N 0.71612 0.88742 1.15154
 N381 N 0.69084 0.89959 1.13926
 C382 C 0.64985 0.90026 1.10042
 N383 N 0.63662 0.92550 1.11311
 N384 N 0.61123 0.93756 1.10093
 C385 C 0.59816 0.92480 1.07563
 N386 N 0.61138 0.89958 1.06291
 N387 N 0.63676 0.88752 1.07509
 C388 C 0.67734 1.11348 0.88630
 N389 N 0.69038 1.13879 0.89894
 N390 N 0.71562 1.15101 0.88669
 C391 C 0.72881 1.13839 0.86130
 N392 N 0.71571 1.11303 0.84870
 N393 N 0.69048 1.10082 0.86096
 C394 C 0.64945 1.10006 0.89975
 N395 N 0.63636 1.07479 0.88704
 N396 N 0.61103 1.06267 0.89919
 C397 C 0.59787 1.07538 0.92448
 N398 N 0.61094 1.10063 0.93722
 N399 N 0.63627 1.11275 0.92507
 C400 C 0.11324 0.32229 0.11325
 N401 N 0.13855 0.30917 0.10058
 N402 N 0.15076 0.28391 0.11281
 C403 C 0.13811 0.27082 0.13819
 N404 N 0.11277 0.28396 0.15084
 N405 N 0.10056 0.30922 0.13860
 C406 C 0.09984 0.35021 0.09982
 N407 N 0.07458 0.36340 0.11256
 N408 N 0.06249 0.38877 0.10042
 C409 C 0.07523 0.40186 0.07513
 N410 N 0.10047 0.38869 0.06237
 N411 N 0.11256 0.36332 0.07451
 C412 C -0.11386 0.32276 -0.11355
 N413 N -0.10125 0.30954 -0.13887
 N414 N -0.11351 0.28429 -0.15100
 C415 C -0.13885 0.27130 -0.13826
 N416 N -0.15145 0.28454 -0.11291
 N417 N -0.13918 0.30979 -0.10079
 C418 C -0.10039 0.35066 -0.10024
 N419 N -0.11303 0.36393 -0.07494
 N420 N -0.10084 0.38927 -0.06292
 C421 C -0.07559 0.40226 -0.07576
 N422 N -0.06292 0.38901 -0.10102
 N423 N -0.07511 0.36367 -0.11305
 C424 C 0.11385 0.67725 -0.11355
 N425 N 0.10124 0.69047 -0.13887
 N426 N 0.11350 0.71572 -0.15100
 C427 C 0.13884 0.72870 -0.13826
 N428 N 0.15144 0.71547 -0.11291
 N429 N 0.13917 0.69022 -0.10079
 C430 C 0.10037 0.64935 -0.10024
 N431 N 0.11302 0.63608 -0.07494
 N432 N 0.10083 0.61074 -0.06292
 C433 C 0.07558 0.59775 -0.07576
 N434 N 0.06291 0.61100 -0.10102
 N435 N 0.07510 0.63634 -0.11305
 C436 C -0.11325 0.67771 0.11325
 N437 N -0.10058 0.69079 0.13860
 N438 N -0.11278 0.71605 0.15084
 C439 C -0.13812 0.72919 0.13819
 N440 N -0.15077 0.71610 0.11281
 N441 N -0.13856 0.69084 0.10058
 C442 C -0.09985 0.64980 0.09982
 N443 N -0.11257 0.63668 0.07451
 N444 N -0.10048 0.61132 0.06237
 C445 C -0.07524 0.59814 0.07513
 N446 N -0.06250 0.61124 0.10042
 N447 N -0.07459 0.63661 0.11256
 C448 C 1.11255 0.11335 0.67836
 N449 N 1.13781 0.10070 0.69160
 N450 N 1.14989 0.11291 0.71695
 C451 C 1.13719 0.13826 0.73006
 N452 N 1.11188 0.15086 0.71676
 N453 N 1.09980 0.13864 0.69140
 C454 C 1.09932 0.09995 0.65034
 N455 N 1.07408 0.11263 0.63706
 N456 N 1.06212 0.10052 0.61159
 C457 C 1.07499 0.07532 0.59849
 N458 N 1.10020 0.06261 0.61176
 N459 N 1.11216 0.07472 0.63723
 C460 C 0.88744 -0.11334 0.67836
 N461 N 0.90019 -0.13863 0.69140
 N462 N 0.88811 -0.15085 0.71676
 C463 C 0.86280 -0.13825 0.73006
 N464 N 0.85010 -0.11291 0.71695
 N465 N 0.86218 -0.10069 0.69160
 C466 C 0.90067 -0.09995 0.65034
 N467 N 0.88783 -0.07471 0.63723
 N468 N 0.89979 -0.06261 0.61176
 C469 C 0.92500 -0.07531 0.59849
 N470 N 0.93786 -0.10051 0.61159
 N471 N 0.92591 -0.11262 0.63706
 C472 C 1.11287 -0.11297 0.32196
 N473 N 1.10015 -0.13820 0.30885
 N474 N 1.11223 -0.15036 0.28345
 C475 C 1.13752 -0.13775 0.27018
 N476 N 1.15018 -0.11246 0.28335
 N477 N 1.13809 -0.10031 0.30875
 C478 C 1.09962 -0.09964 0.35002
 N479 N 1.11239 -0.07444 0.36318
 N480 N 1.10042 -0.06239 0.38869
 C481 C 1.07525 -0.07513 0.40194
 N482 N 1.06245 -0.10030 0.38879
 N483 N 1.07443 -0.11235 0.36329
 C484 C 0.88712 0.11297 0.32196
 N485 N 0.89984 0.13821 0.30885
 N486 N 0.88776 0.15037 0.28345
 C487 C 0.86247 0.13776 0.27018
 N488 N 0.84980 0.11247 0.28335
 N489 N 0.86190 0.10032 0.30875
 C490 C 0.90037 0.09965 0.35002
 N491 N 0.88759 0.07445 0.36318
 N492 N 0.89957 0.06240 0.38869
 C493 C 0.92474 0.07513 0.40194
 N494 N 0.93754 0.10031 0.38879
 N495 N 0.92556 0.11235 0.36329
 C496 C 0.11260 0.32187 -0.11356
 N497 N 0.09986 0.30876 -0.13884
 N498 N 0.11194 0.28340 -0.15098
 C499 C 0.13725 0.27016 -0.13830
 N500 N 0.14994 0.28333 -0.11296
 N501 N 0.13785 0.30869 -0.10083
 C502 C 0.09936 0.34989 -0.10024
 N503 N 0.11215 0.36303 -0.07498
 N504 N 0.10018 0.38850 -0.06294
 C505 C 0.07501 0.40174 -0.07574
 N506 N 0.06219 0.38861 -0.10098
 N507 N 0.07415 0.36314 -0.11302
 C508 C -0.11260 0.32236 0.11282
 N509 N -0.13783 0.30918 0.10011
 N510 N -0.14984 0.28383 0.11227
 C511 C -0.13707 0.27072 0.13759
 N512 N -0.11181 0.28391 0.15028
 N513 N -0.09980 0.30926 0.13811
 C514 C -0.09942 0.35036 0.09948
 N515 N -0.07423 0.36357 0.11223
 N516 N -0.06230 0.38901 0.10017
 C517 C -0.07516 0.40215 0.07495
 N518 N -0.10034 0.38896 0.06217
 N519 N -0.11227 0.36352 0.07423
 C520 C -0.11261 0.67814 -0.11356
 N521 N -0.09987 0.69125 -0.13884
 N522 N -0.11196 0.71661 -0.15098
 C523 C -0.13726 0.72985 -0.13830
 N524 N -0.14995 0.71668 -0.11296
 N525 N -0.13786 0.69132 -0.10083
 C526 C -0.09937 0.65012 -0.10024
 N527 N -0.11216 0.63697 -0.07498
 N528 N -0.10020 0.61151 -0.06294
 C529 C -0.07502 0.59827 -0.07574
 N530 N -0.06220 0.61139 -0.10098
 N531 N -0.07416 0.63686 -0.11302
 C532 C 0.11259 0.67764 0.11282
 N533 N 0.09979 0.69075 0.13811
 N534 N 0.11180 0.71610 0.15028
 C535 C 0.13706 0.72929 0.13759
 N536 N 0.14983 0.71617 0.11227
 N537 N 0.13781 0.69082 0.10011
 C538 C 0.09941 0.64965 0.09948
 N539 N 0.11225 0.63649 0.07423
 N540 N 0.10033 0.61104 0.06217
 C541 C 0.07515 0.59786 0.07495
 N542 N 0.06229 0.61100 0.10017
 N543 N 0.07421 0.63644 0.11223
 C544 C 0.32185 1.11294 0.88714
 N545 N 0.30865 1.10025 0.86186
 N546 N 0.28328 1.11239 0.84976
 C547 C 0.27016 1.13768 0.86250
 N548 N 0.28336 1.15035 0.88780
 N549 N 0.30873 1.13820 0.89989
 C550 C 0.34987 1.09962 0.90039
 N551 N 0.36310 1.11235 0.92564
 N552 N 0.38858 1.10031 0.93762
 C553 C 0.40174 1.07513 0.92478
 N554 N 0.38853 1.06238 0.89955
 N555 N 0.36305 1.07442 0.88757
 C556 C 0.32211 0.88738 1.11297
 N557 N 0.30899 0.86216 1.10021
 N558 N 0.28362 0.85010 1.11232
 C559 C 0.27044 0.86280 1.13763
 N560 N 0.28357 0.88804 1.15037
 N561 N 0.30894 0.90010 1.13826
 C562 C 0.35013 0.90060 1.09970
 N563 N 0.36330 0.92578 1.11251
 N564 N 0.38877 0.93774 1.10051
 C565 C 0.40198 0.92494 1.07529
 N566 N 0.38883 0.89979 1.06246
 N567 N 0.36336 0.88783 1.07446
 C568 C 0.67787 1.11263 1.11297
 N569 N 0.69100 1.13784 1.10021
 N570 N 0.71637 1.14991 1.11232
 C571 C 0.72955 1.13721 1.13763
 N572 N 0.71642 1.11197 1.15037
 N573 N 0.69105 1.09990 1.13826
 C574 C 0.64986 1.09940 1.09970
 N575 N 0.63669 1.07423 1.11251
 N576 N 0.61122 1.06227 1.10051
 C577 C 0.59801 1.07507 1.07529
 N578 N 0.61116 1.10022 1.06246
 N579 N 0.63663 1.11218 1.07446
 C580 C 0.67814 0.88707 0.88714
 N581 N 0.69133 0.89976 0.86186
 N582 N 0.71671 0.88762 0.84976
 C583 C 0.72983 0.86233 0.86250
 N584 N 0.71663 0.84966 0.88780
 N585 N 0.69126 0.86181 0.89989
 C586 C 0.65011 0.90039 0.90039
 N587 N 0.63689 0.88766 0.92564
 N588 N 0.61141 0.89970 0.93762
 C589 C 0.59825 0.92487 0.92478
 N590 N 0.61146 0.93762 0.89955
 N591 N 0.63694 0.92559 0.88757
   
