data_POSCAR
  _audit_creation_date              2014-09-24
  _audit_creation_method            'ToBaCCo'
  _symmetry_space_group_name_H-M    'P1'
  _symmetry_Int_Tables_number       1
  _symmetry_cell_setting            triclinic
  loop_
  _symmetry_equiv_pos_as_xyz
 x,y,z
_cell_length_a 31.1846
_cell_length_b 31.0589
_cell_length_c 13.4081
_cell_angle_alpha 90.143000
_cell_angle_beta 88.923700
_cell_angle_gamma 122.061500
loop_
  _atom_site_label
  _atom_site_type_symbol
  _atom_site_fract_x
  _atom_site_fract_y
  _atom_site_fract_z
O1 O 0.43336 0.93837 0.61062
 O2 O 0.46607 1.03773 0.41983
 O3 O 0.43098 0.93917 0.40464
 O4 O 0.47993 1.03542 0.60097
 O5 O 0.55634 1.04992 0.57076
 O6 O 0.50710 0.95446 0.36956
 O7 O 0.54081 1.04795 0.39409
 O8 O 0.50712 0.94693 0.57875
 Cu9 Cu 0.44443 0.98417 0.50935
 Cu10 Cu 0.53429 0.99775 0.47927
 C11 C 0.46558 0.92655 0.62872
 C12 C 0.50962 1.06170 0.37788
 C13 C 0.46043 0.93198 0.34987
 C14 C 0.52744 1.06197 0.61335
 O15 O 0.04737 0.55522 0.39293
 O16 O -0.03955 0.49941 0.60638
 O17 O 0.05761 0.54210 0.58075
 O18 O -0.05194 0.49971 0.41726
 O19 O -0.05642 0.42701 0.39655
 O20 O 0.05361 0.47028 0.55277
 O21 O -0.04509 0.42682 0.58294
 O22 O 0.04333 0.48296 0.36718
 Cu23 Cu 0.00410 0.53139 0.50094
 Cu24 Cu -0.00137 0.44471 0.47215
 C25 C 0.06225 0.52976 0.34683
 C26 C -0.05920 0.45300 0.62978
 C27 C 0.07458 0.51322 0.59425
 C28 C -0.07504 0.45427 0.38509
 O29 O 0.52585 0.56448 0.61571
 O30 O 0.56475 0.52697 0.38887
 O31 O 0.51226 0.57124 0.43043
 O32 O 0.57179 0.51786 0.57893
 O33 O 0.50136 0.44251 0.57231
 O34 O 0.44048 0.49690 0.43422
 O35 O 0.49167 0.45393 0.38768
 O36 O 0.45452 0.48957 0.62050
 Cu37 Cu 0.55103 0.55269 0.50130
 Cu38 Cu 0.46473 0.46339 0.50372
 C39 C 0.48342 0.53344 0.65694
 C40 C 0.53594 0.48342 0.35157
 C41 C 0.46525 0.54382 0.41229
 C42 C 0.54716 0.47042 0.59771
 O43 O 0.41820 0.64651 -0.01975
 O44 O 0.42853 0.72824 -0.09627
 C45 C 0.41084 0.74811 -0.15026
 O46 O 0.36484 0.73629 -0.14303
 O47 O 0.28737 0.64582 -0.17969
 C48 C 0.25655 0.59852 -0.17418
 O49 O 0.25623 0.57314 -0.10010
 O50 O 0.34500 0.58114 -0.07841
 C51 C 0.39295 0.60586 -0.07087
 O52 O 0.38837 0.66826 0.15573
 O53 O 0.39792 0.75011 0.07735
 C54 C 0.36274 0.75977 0.08090
 O55 O 0.32155 0.73379 0.03563
 O56 O 0.24313 0.64344 0.00098
 C57 C 0.23111 0.61145 0.07259
 O58 O 0.25533 0.59021 0.09253
 O59 O 0.33803 0.58755 0.11670
 C60 C 0.37013 0.62181 0.17310
 Cr61 Cr 0.40570 0.69679 0.02831
 Cr62 Cr 0.30526 0.68852 -0.06993
 Cr63 Cr 0.29996 0.58559 0.00698
 O64 O 0.33733 0.65764 -0.01123
 O65 O 0.59964 0.33719 -0.13389
 O66 O 0.58356 0.24748 -0.08270
 C67 C 0.61306 0.23685 -0.12694
 O68 O 0.65950 0.25846 -0.10578
 O69 O 0.74916 0.33695 -0.06402
 C70 C 0.76399 0.37554 -0.11906
 O71 O 0.74458 0.40245 -0.11350
 O72 O 0.66756 0.41387 -0.10449
 C73 C 0.62852 0.38425 -0.15424
 O74 O 0.59127 0.35633 0.05689
 O75 O 0.57992 0.26900 0.10961
 C76 C 0.59558 0.23989 0.13073
 O77 O 0.63476 0.24450 0.08895
 O78 O 0.72313 0.32678 0.12808
 C79 C 0.75091 0.37426 0.14308
 O80 O 0.74983 0.40684 0.08751
 O81 O 0.67057 0.41566 0.09458
 C82 C 0.62318 0.39686 0.10070
 Cr83 Cr 0.59143 0.30378 -0.01219
 Cr84 Cr 0.69043 0.29323 0.01143
 Cr85 Cr 0.70661 0.40688 -0.00865
 O86 O 0.66282 0.33484 -0.00215
 C87 C 0.43330 0.79435 -0.31017
 C88 C 0.44065 0.83818 -0.35673
 C89 C 0.45247 0.88278 -0.30581
 C90 C 0.46096 0.88544 -0.20212
 C91 C 0.47455 0.83891 -0.15950
 C92 C 0.44686 0.79318 -0.21195
 C93 C 0.48870 0.83393 -0.03147
 N94 N 0.48541 0.87289 0.04935
 N95 N 0.46714 0.92336 0.00615
 C96 C 0.45643 0.92844 -0.11570
 H97 H 0.41413 0.75916 -0.35149
 H98 H 0.43306 0.83578 -0.43583
 H99 H 0.49041 0.85395 0.03685
 H100 H 0.44709 0.95556 -0.14034
 C101 C 0.20059 0.60495 -0.29279
 C102 C 0.15498 0.58424 -0.34158
 C103 C 0.12113 0.53154 -0.34659
 C104 C 0.13491 0.49899 -0.30198
 C105 C 0.18311 0.52041 -0.25725
 C106 C 0.21485 0.57395 -0.24713
 C107 C 0.19783 0.48725 -0.22403
 N108 N 0.16486 0.43633 -0.22665
 N109 N 0.11823 0.41632 -0.26037
 C110 C 0.10202 0.44572 -0.29732
 H111 H 0.22381 0.64592 -0.28704
 H112 H 0.14596 0.61015 -0.37480
 H113 H 0.23552 0.50108 -0.19803
 H114 H 0.06320 0.42675 -0.31985
 C115 C 0.45920 0.62006 -0.19175
 C116 C 0.48127 0.60234 -0.25728
 C117 C 0.46588 0.55086 -0.25778
 C118 C 0.43074 0.51766 -0.18371
 C119 C 0.40769 0.53569 -0.11776
 C120 C 0.42080 0.58680 -0.12522
 C121 C 0.37293 0.50212 -0.04504
 N122 N 0.36235 0.45386 -0.03880
 N123 N 0.38444 0.43707 -0.09978
 C124 C 0.41838 0.46729 -0.17157
 H125 H 0.47004 0.65942 -0.19730
 H126 H 0.50847 0.62870 -0.31221
 H127 H 0.35492 0.51405 0.00830
 H128 H 0.43631 0.45193 -0.21610
 C129 C 0.61139 0.16376 -0.20510
 C130 C 0.59044 0.12119 -0.26592
 C131 C 0.54924 0.10866 -0.32597
 C132 C 0.53044 0.14157 -0.32857
 C133 C 0.55050 0.18399 -0.26375
 C134 C 0.59143 0.19500 -0.20076
 C135 C 0.52957 0.21461 -0.26700
 N136 N 0.49244 0.20417 -0.33151
 N137 N 0.47513 0.16575 -0.39473
 C138 C 0.49320 0.13464 -0.39641
 H139 H 0.64252 0.17129 -0.15816
 H140 H 0.60599 0.09721 -0.26449
 H141 H 0.54256 0.24753 -0.22143
 H142 H 0.47883 0.10585 -0.45272
 C143 C 0.84230 0.44425 -0.19882
 C144 C 0.88685 0.46313 -0.25387
 C145 C 0.90063 0.43082 -0.29825
 C146 C 0.86879 0.37733 -0.27873
 C147 C 0.82099 0.35802 -0.22928
 C148 C 0.80848 0.39206 -0.18646
 C149 C 0.78678 0.30499 -0.22637
 N150 N 0.80133 0.27346 -0.26010
 N151 N 0.84769 0.29127 -0.29697
 C152 C 0.88189 0.34178 -0.30679
 H153 H 0.83432 0.47110 -0.16523
 H154 H 0.91025 0.50402 -0.26308
 H155 H 0.74826 0.28802 -0.19963
 H156 H 0.91915 0.35273 -0.33305
 C157 C 0.62555 0.45707 -0.21799
 C158 C 0.60549 0.47808 -0.27839
 C159 C 0.57083 0.44911 -0.35244
 C160 C 0.56215 0.40016 -0.37487
 C161 C 0.58567 0.38037 -0.31704
 C162 C 0.61404 0.40733 -0.23296
 C163 C 0.58230 0.33551 -0.34843
 N164 N 0.55515 0.31072 -0.42965
 N165 N 0.53164 0.32812 -0.48223
 C166 C 0.53438 0.37190 -0.45812
 H167 H 0.64841 0.47930 -0.15596
 H168 H 0.61415 0.51601 -0.26147
 H169 H 0.60282 0.32112 -0.31185
 H170 H 0.51639 0.38477 -0.50687
 C171 C 0.82818 0.44574 0.21837
 C172 C 0.87085 0.46547 0.27668
 C173 C 0.87817 0.43373 0.33827
 C174 C 0.83740 0.38227 0.35293
 C175 C 0.79239 0.36281 0.29713
 C176 C 0.78966 0.39390 0.22280
 C177 C 0.75106 0.31372 0.32125
 N178 N 0.75519 0.28558 0.39297
 N179 N 0.79736 0.30337 0.44412
 C180 C 0.83818 0.35065 0.42757
 H181 H 0.82673 0.47133 0.16580
 H182 H 0.90022 0.50523 0.26720
 H183 H 0.71452 0.29800 0.28842
 H184 H 0.86970 0.36331 0.47628
 C185 C 0.59883 0.18526 0.25739
 C186 C 0.57838 0.14052 0.31134
 C187 C 0.52586 0.10558 0.31839
 C188 C 0.49330 0.11762 0.26831
 C189 C 0.51477 0.16404 0.21212
 C190 C 0.56838 0.19750 0.20468
 C191 C 0.48161 0.17394 0.16182
 N192 N 0.43107 0.14000 0.16583
 N193 N 0.41116 0.09626 0.21530
 C194 C 0.44030 0.08367 0.26548
 H195 H 0.63970 0.20998 0.25403
 H196 H 0.60473 0.13389 0.34950
 H197 H 0.49464 0.20800 0.11919
 H198 H 0.42115 0.04647 0.29911
 C199 C 0.56009 0.39142 0.22085
 C200 C 0.53687 0.41171 0.27563
 C201 C 0.55583 0.46400 0.27375
 C202 C 0.59665 0.49568 0.20705
 C203 C 0.62023 0.47475 0.15016
 C204 C 0.60269 0.42234 0.16027
 C205 C 0.65918 0.50674 0.08202
 N206 N 0.67379 0.55616 0.07249
 N207 N 0.65166 0.57568 0.12540
 C208 C 0.61348 0.54717 0.19170
 H209 H 0.54486 0.35098 0.22686
 H210 H 0.50478 0.38616 0.32302
 H211 H 0.67751 0.49295 0.03453
 H212 H 0.59566 0.56478 0.22864
 C213 C 0.14065 0.55347 0.11309
 C214 C 0.10004 0.53282 0.18106
 C215 C 0.10451 0.55576 0.27359
 C216 C 0.15089 0.60107 0.29753
 C217 C 0.19200 0.62186 0.22807
 C218 C 0.18677 0.59741 0.13619
 C219 C 0.23802 0.66569 0.25435
 N220 N 0.24255 0.68707 0.34479
 N221 N 0.20430 0.66734 0.41083
 C222 C 0.15891 0.62512 0.39071
 H223 H 0.13679 0.53385 0.04370
 H224 H 0.06521 0.49802 0.16226
 H225 H 0.27047 0.68295 0.20401
 H226 H 0.13017 0.61083 0.44862
 C227 C 0.36457 0.80565 0.23456
 C228 C 0.39202 0.84786 0.29667
 C229 C 0.43721 0.89376 0.26895
 C230 C 0.45500 0.90077 0.16844
 C231 C 0.40764 0.85259 0.08594
 C232 C 0.37309 0.80672 0.13197
 C233 C 0.42477 0.84995 -0.04416
 N234 N 0.51426 0.91258 -0.07618
 N235 N 0.54561 0.94873 0.01288
 C236 C 0.52197 0.94687 0.12872
 H237 H 0.33666 0.76991 0.26951
 H238 H 0.37960 0.84227 0.37424
 H239 H 0.39544 0.82264 -0.09322
 H240 H 0.54750 0.97295 0.18372
 C241 C 0.44497 0.62728 0.24212
 C242 C 0.46780 0.60728 0.29734
 C243 C 0.43940 0.56686 0.36438
 C244 C 0.38730 0.54929 0.38172
 C245 C 0.36380 0.56862 0.32242
 C246 C 0.39284 0.60708 0.25077
 C247 C 0.31204 0.54961 0.33831
 N248 N 0.28587 0.51461 0.41120
 N249 N 0.30807 0.49764 0.46926
 C250 C 0.35775 0.51392 0.45760
 H251 H 0.46775 0.65658 0.18712
 H252 H 0.50768 0.62214 0.28409
 H253 H 0.29247 0.56309 0.29502
 H254 H 0.37358 0.50002 0.50991
   
