data_POSCAR
  _audit_creation_date              2014-09-24
  _audit_creation_method            'ToBaCCo'
  _symmetry_space_group_name_H-M    'P1'
  _symmetry_Int_Tables_number       1
  _symmetry_cell_setting            triclinic
  loop_
  _symmetry_equiv_pos_as_xyz
 x,y,z
_cell_length_a 13.8368
_cell_length_b 13.8368
_cell_length_c 13.8368
_cell_angle_alpha 88.707800
_cell_angle_beta 91.292200
_cell_angle_gamma 91.292200
loop_
  _atom_site_label
  _atom_site_type_symbol
  _atom_site_fract_x
  _atom_site_fract_y
  _atom_site_fract_z
Si1 Si -0.00554 0.49413 0.24937
 Si2 Si 0.00365 0.50397 0.75166
 Si3 Si 0.24819 -0.00360 0.50377
 Si4 Si 0.75048 0.00560 0.49393
 Si5 Si 0.50592 0.24957 1.00539
 Si6 Si 0.49608 0.75186 0.99620
 B7 B 1.00250 1.09847 0.05766
 B8 B 1.06393 1.00055 0.09823
 B9 B 0.94219 0.99755 0.09827
 B10 B 0.90158 1.05786 -0.00265
 B11 B 0.99950 1.09844 -0.06408
 B12 B 1.10025 1.06224 -0.00251
 B13 B 0.99959 0.89955 -0.05905
 B14 B 0.93781 0.99769 -0.10040
 B15 B 1.05890 1.00046 -0.10065
 B16 B 1.10050 0.94115 0.00026
 B17 B 1.00236 0.89981 0.06204
 B18 B 0.90162 0.93612 0.00035
 B19 B 0.59851 0.50238 0.44105
 B20 B 0.59925 0.50023 0.56280
 B21 B 0.56198 0.60035 0.50062
 B22 B 0.49982 0.56301 0.40060
 B23 B 0.49768 0.44125 0.40134
 B24 B 0.55880 0.40154 0.50217
 B25 B 0.40051 0.49860 0.55965
 B26 B 0.39970 0.50082 0.43787
 B27 B 0.43705 0.40080 0.50003
 B28 B 0.49923 0.43807 0.60015
 B29 B 0.50145 0.55985 0.59934
 B30 B 0.44020 0.59955 0.49840
 N31 N 0.94235 1.30237 0.22283
 C32 C 0.99243 1.37888 0.18443
 N33 N 1.05177 1.36401 0.10999
 N34 N 1.05667 1.27634 0.07258
 C35 C 1.00412 1.20013 0.10911
 N36 N 0.94737 1.21496 0.18549
 N37 N 1.07506 0.64663 0.14006
 C38 C 0.99388 0.61102 0.18221
 N39 N 0.91778 0.67012 0.19104
 N40 N 0.92156 0.76081 0.15691
 C41 C 1.00269 0.79690 0.11497
 N42 N 1.07885 0.73752 0.10608
 N43 N 1.08511 1.33522 -0.17731
 C44 C 1.00320 1.38708 -0.18251
 N45 N 0.91877 1.34418 -0.15538
 N46 N 0.91683 1.25294 -0.12261
 C47 C 0.99871 1.20053 -0.11790
 N48 N 1.08316 1.24431 -0.14401
 N49 N 1.08593 0.66454 -0.15822
 C50 C 1.00289 0.61295 -0.17291
 N51 N 0.91803 0.65380 -0.15156
 N52 N 0.91660 0.74326 -0.11814
 C53 C 0.99960 0.79624 -0.10681
 N54 N 1.08438 0.75361 -0.12448
 N55 N 1.17716 0.91494 0.33502
 C56 C 1.18236 0.99685 0.38688
 N57 N 1.15523 1.08129 0.34397
 N58 N 1.12246 1.08322 0.25273
 C59 C 1.11775 1.00135 0.20033
 N60 N 1.14386 0.91689 0.24411
 N61 N 1.15141 1.08202 -0.34640
 C62 C 1.17276 0.99717 -0.38726
 N63 N 1.15807 0.91412 -0.33567
 N64 N 1.12433 0.91568 -0.24659
 C65 C 1.10666 1.00045 -0.20397
 N66 N 1.11799 1.08346 -0.25694
 N67 N 0.77702 1.05770 0.30217
 C68 C 0.81542 1.00763 0.37867
 N69 N 0.88986 0.94829 0.36380
 N70 N 0.92727 0.94338 0.27614
 C71 C 0.89074 0.99593 0.19992
 N72 N 0.81437 1.05269 0.21476
 N73 N 0.80881 1.08227 -0.33008
 C74 C 0.81764 1.00617 -0.38918
 N75 N 0.85979 0.92499 -0.35358
 N76 N 0.89377 0.92120 -0.26269
 C77 C 0.88488 0.99736 -0.20330
 N78 N 0.84294 1.07849 -0.23939
 N79 N 1.35343 1.14026 -0.07521
 C80 C 1.38903 1.18241 0.00597
 N81 N 1.32993 1.19124 0.08207
 N82 N 1.23924 1.15711 0.07829
 C83 C 1.20315 1.11517 -0.00284
 N84 N 1.26254 1.10628 -0.07900
 N85 N 0.63605 1.11019 -0.05192
 C86 C 0.62118 1.18463 0.00742
 N87 N 0.69768 1.22303 0.05750
 N88 N 0.78509 1.18569 0.05248
 C89 C 0.79993 1.10931 -0.00427
 N90 N 0.72371 1.07278 -0.05682
 N91 N 1.34626 0.84864 0.08182
 C92 C 1.38711 0.82730 -0.00304
 N93 N 1.33552 0.84198 -0.08608
 N94 N 1.24644 0.87572 -0.08453
 C95 C 1.20382 0.89339 0.00025
 N96 N 1.25679 0.88206 0.08326
 N97 N 0.66483 0.82289 -0.08526
 C98 C 0.61297 0.81769 -0.00335
 N99 N 0.65588 0.84482 0.08108
 N100 N 0.74712 0.87759 0.08302
 C101 C 0.79952 0.88230 0.00114
 N102 N 0.75574 0.85619 -0.08331
 N103 N 0.80261 0.44173 0.27614
 C104 C 0.87897 0.49236 0.31414
 N105 N 0.86384 0.55231 0.38803
 N106 N 0.77613 0.55729 0.42533
 C107 C 0.70006 0.50421 0.38923
 N108 N 0.71514 0.44682 0.31338
 N109 N 0.14741 0.57447 0.35794
 C110 C 0.11124 0.49305 0.31673
 N111 N 0.16979 0.41633 0.30890
 N112 N 0.26044 0.41975 0.34326
 C113 C 0.29704 0.50113 0.38436
 N114 N 0.23823 0.57791 0.39207
 N115 N 0.83617 0.58683 0.67535
 C116 C 0.88886 0.50528 0.68011
 N117 N 0.84605 0.42083 0.65282
 N118 N 0.75473 0.41862 0.62020
 C119 C 0.70161 0.50006 0.61639
 N120 N 0.74482 0.58457 0.64305
 N121 N 0.19426 0.56183 0.72046
 C122 C 0.11959 0.50632 0.68646
 N123 N 0.13669 0.44270 0.61609
 N124 N 0.22450 0.43843 0.57866
 C125 C 0.29885 0.49600 0.61136
 N126 N 0.28179 0.55728 0.68344
 N127 N 0.41323 0.67556 0.16368
 C128 C 0.49477 0.68031 0.11099
 N129 N 0.57922 0.65302 0.15380
 N130 N 0.58144 0.62040 0.24512
 C131 C 0.49999 0.61659 0.29824
 N132 N 0.41548 0.64326 0.25503
 N133 N 0.43822 0.72066 0.80559
 C134 C 0.49373 0.68666 0.88026
 N135 N 0.55735 0.61630 0.86316
 N136 N 0.56162 0.57886 0.77535
 C137 C 0.50405 0.61156 0.70100
 N138 N 0.44277 0.68364 0.71806
 N139 N 0.44774 0.38823 0.13601
 C140 C 0.50769 0.31434 0.12088
 N141 N 0.55832 0.27634 0.19725
 N142 N 0.55323 0.31358 0.28471
 C143 C 0.49584 0.38943 0.29979
 N144 N 0.44276 0.42553 0.22372
 N145 N 0.58372 0.30910 0.83006
 C146 C 0.50700 0.31693 0.88861
 N147 N 0.42559 0.35814 0.85244
 N148 N 0.42214 0.39227 0.76162
 C149 C 0.49892 0.38457 0.70281
 N150 N 0.58030 0.34347 0.73942
 N151 N 0.64192 0.85264 0.57426
 C152 C 0.68312 0.88882 0.49285
 N153 N 0.69095 0.83027 0.41613
 N154 N 0.65659 0.73962 0.41955
 C155 C 0.61549 0.70302 0.50093
 N156 N 0.60778 0.76183 0.57771
 N157 N 0.72371 0.19745 0.44153
 C158 C 0.68571 0.12109 0.49216
 N159 N 0.61182 0.13621 0.55211
 N160 N 0.57452 0.22392 0.55709
 C161 C 0.61062 0.29999 0.50401
 N162 N 0.68647 0.28491 0.44662
 N163 N 0.27939 0.80579 0.56163
 C164 C 0.31339 0.88046 0.50612
 N165 N 0.38376 0.86336 0.44250
 N166 N 0.42119 0.77555 0.43823
 C167 C 0.38849 0.70121 0.49580
 N168 N 0.31641 0.71826 0.55708
 N169 N 0.34703 0.15400 0.42063
 C170 C 0.31974 0.11119 0.50508
 N171 N 0.32449 0.16388 0.58662
 N172 N 0.35680 0.25523 0.58437
 C173 C 0.38346 0.29844 0.49986
 N174 N 0.37966 0.24532 0.41841
   
