data_POSCAR
  _audit_creation_date              2014-09-24
  _audit_creation_method            'ToBaCCo'
  _symmetry_space_group_name_H-M    'P1'
  _symmetry_Int_Tables_number       1
  _symmetry_cell_setting            triclinic
  loop_
  _symmetry_equiv_pos_as_xyz
 x,y,z
_cell_length_a 54.8575
_cell_length_b 54.6517
_cell_length_c 55.6666
_cell_angle_alpha 89.797700
_cell_angle_beta 89.926900
_cell_angle_gamma 89.948500
loop_
  _atom_site_label
  _atom_site_type_symbol
  _atom_site_fract_x
  _atom_site_fract_y
  _atom_site_fract_z
N1 N 0.31527 0.37832 1.35994
 N2 N 0.31961 0.36399 1.37842
 C3 C 0.30129 0.36610 1.39437
 C4 C 0.28431 0.38269 1.38541
 C5 C 0.29399 0.39002 1.36342
 H6 H 0.30040 0.35596 1.41104
 H7 H 0.28629 0.40291 1.35077
 Cu8 Cu 0.34846 0.34345 1.37971
 Cu9 Cu 0.33757 0.38078 1.33278
 Cu10 Cu 0.38501 0.33898 1.33132
 N11 N 0.37182 0.31697 1.37640
 N12 N 0.38637 0.31547 1.35772
 C13 C 0.40048 0.29544 1.36000
 C14 C 0.39434 0.28347 1.38126
 C15 C 0.37599 0.29786 1.39113
 H16 H 0.41376 0.28982 1.34677
 H17 H 0.36621 0.29483 1.40773
 N18 N 0.38027 0.36430 1.30641
 N19 N 0.36220 0.38024 1.30698
 C20 C 0.36377 0.39495 1.28758
 C21 C 0.38376 0.38790 1.27404
 C22 C 0.39376 0.36839 1.28657
 H23 H 0.35109 0.40949 1.28343
 H24 H 0.40977 0.35800 1.28170
 H25 H 0.34805 0.34459 1.33613
 H26 H 0.36898 0.36807 1.34915
 N27 N 1.19099 0.62817 0.86067
 N28 N 1.18891 0.64489 0.87744
 C29 C 1.20786 0.64280 0.89271
 C30 C 1.22263 0.62375 0.88506
 C31 C 1.21126 0.61491 0.86466
 H32 H 1.21093 0.65458 0.90796
 H33 H 1.21722 0.59992 0.85349
 Cu34 Cu 1.16205 0.66821 0.87730
 Cu35 Cu 1.16760 0.62499 0.83468
 Cu36 Cu 1.12011 0.66674 0.83307
 N37 N 1.13588 0.69223 0.87528
 N38 N 1.11938 0.69139 0.85823
 C39 C 1.10378 0.71021 0.86095
 C40 C 1.11091 0.72386 0.88076
 C41 C 1.13143 0.71171 0.88935
 H42 H 1.08873 0.71386 0.84897
 H43 H 1.14252 0.71666 0.90457
 N44 N 1.12403 0.64047 0.80919
 N45 N 1.14216 0.62463 0.80980
 C46 C 1.14014 0.60936 0.79099
 C47 C 1.11975 0.61587 0.77779
 C48 C 1.10999 0.63570 0.78993
 H49 H 1.15283 0.59481 0.78698
 H50 H 1.09386 0.64593 0.78511
 H51 H 1.15742 0.66152 0.83426
 H52 H 1.13826 0.64021 0.85258
 N53 N 0.68477 -0.11982 0.13781
 N54 N 0.68369 -0.13730 0.12170
 C55 C 0.70272 -0.13506 0.10656
 C56 C 0.71656 -0.11513 0.11356
 C57 C 0.70454 -0.10592 0.13350
 H58 H 0.70655 -0.14736 0.09187
 H59 H 0.70977 -0.09031 0.14418
 Cu60 Cu 0.65793 -0.16169 0.12275
 Cu61 Cu 0.66081 -0.11669 0.16353
 Cu62 Cu 0.61435 -0.15979 0.16502
 N63 N 0.63195 -0.18585 0.12376
 N64 N 0.61478 -0.18485 0.14018
 C65 C 0.59940 -0.20377 0.13715
 C66 C 0.60741 -0.21765 0.11779
 C67 C 0.62817 -0.20552 0.10978
 H68 H 0.58393 -0.20734 0.14866
 H69 H 0.63988 -0.21063 0.09502
 N70 N 0.61715 -0.13307 0.18857
 N71 N 0.63481 -0.11670 0.18805
 C72 C 0.63206 -0.10141 0.20679
 C73 C 0.61173 -0.10851 0.21983
 C74 C 0.60275 -0.12864 0.20767
 H75 H 0.64429 -0.08654 0.21095
 H76 H 0.58693 -0.13939 0.21243
 H77 H 0.65153 -0.15335 0.16529
 H78 H 0.63260 -0.13336 0.14546
 N79 N -0.19326 1.11929 -0.36096
 N80 N -0.19133 1.13624 -0.37765
 C81 C -0.20975 1.13367 -0.39342
 C82 C -0.22404 1.11404 -0.38625
 C83 C -0.21293 1.10539 -0.36553
 H84 H -0.21273 1.14544 -0.40878
 H85 H -0.21864 1.09010 -0.35455
 Cu86 Cu -0.16519 1.16029 -0.37696
 Cu87 Cu -0.17044 1.11671 -0.33428
 Cu88 Cu -0.12425 1.15981 -0.33203
 N89 N -0.13958 1.18484 -0.37485
 N90 N -0.12348 1.18432 -0.35743
 C91 C -0.10799 1.20319 -0.36011
 C92 C -0.11471 1.21655 -0.38034
 C93 C -0.13494 1.20419 -0.38919
 H94 H -0.09320 1.20698 -0.34790
 H95 H -0.14562 1.20886 -0.40484
 N96 N -0.12803 1.13364 -0.30792
 N97 N -0.14557 1.11717 -0.30873
 C98 C -0.14356 1.10226 -0.28950
 C99 C -0.12387 1.10977 -0.27583
 C100 C -0.11446 1.12969 -0.28815
 H101 H -0.15589 1.08740 -0.28541
 H102 H -0.09891 1.14059 -0.28306
 H103 H -0.16141 1.15341 -0.33381
 H104 H -0.14129 1.13271 -0.35167
 N105 N 0.69319 0.62181 0.63630
 N106 N 0.69165 0.63847 0.61931
 C107 C 0.71081 0.63603 0.60433
 C108 C 0.72518 0.61681 0.61240
 C109 C 0.71333 0.60824 0.63275
 H110 H 0.71432 0.64771 0.58901
 H111 H 0.71893 0.59328 0.64423
 Cu112 Cu 0.66521 0.66226 0.61882
 Cu113 Cu 0.66945 0.61930 0.66219
 Cu114 Cu 0.62290 0.66212 0.66272
 N115 N 0.63937 0.68667 0.62001
 N116 N 0.62277 0.68632 0.63704
 C117 C 0.60734 0.70518 0.63378
 C118 C 0.61467 0.71821 0.61366
 C119 C 0.63512 0.70591 0.60540
 H120 H 0.59226 0.70944 0.64556
 H121 H 0.64607 0.71061 0.58991
 N122 N 0.62609 0.63621 0.68718
 N123 N 0.64370 0.61977 0.68690
 C124 C 0.64113 0.60489 0.70609
 C125 C 0.62100 0.61240 0.71916
 C126 C 0.61192 0.63230 0.70658
 H127 H 0.65337 0.59006 0.71055
 H128 H 0.59615 0.64316 0.71122
 H129 H 0.64068 0.63493 0.64380
 H130 H 0.66013 0.65597 0.66192
 N131 N 0.81161 0.38172 0.14228
 N132 N 0.81306 0.36478 0.12566
 C133 C 0.79443 0.36761 0.11018
 C134 C 0.78049 0.38741 0.11743
 C135 C 0.79201 0.39590 0.13793
 H136 H 0.79106 0.35584 0.09499
 H137 H 0.78661 0.41123 0.14893
 Cu138 Cu 0.83876 0.34027 0.12604
 Cu139 Cu 0.83491 0.38375 0.16858
 Cu140 Cu 0.88041 0.33969 0.17034
 N141 N 0.86393 0.31526 0.12781
 N142 N 0.88035 0.31526 0.14497
 C143 C 0.89530 0.29595 0.14204
 C144 C 0.88777 0.28301 0.12202
 C145 C 0.86779 0.29586 0.11347
 H146 H 0.91016 0.29133 0.15396
 H147 H 0.85687 0.29140 0.09795
 N148 N 0.87743 0.36587 0.19440
 N149 N 0.86019 0.38270 0.19373
 C150 C 0.86277 0.39758 0.21281
 C151 C 0.88254 0.38968 0.22623
 C152 C 0.89137 0.36955 0.21393
 H153 H 0.85078 0.41269 0.21696
 H154 H 0.90680 0.35833 0.21888
 H155 H 0.86357 0.36720 0.15087
 H156 H 0.84334 0.34685 0.16909
 N157 N 0.30654 0.12630 0.85767
 N158 N 0.30737 0.14407 0.87348
 C159 C 0.28864 0.14152 0.88896
 C160 C 0.27527 0.12106 0.88248
 C161 C 0.28726 0.11189 0.86251
 H162 H 0.28481 0.15386 0.90361
 H163 H 0.28240 0.09592 0.85219
 Cu164 Cu 0.33262 0.16902 0.87199
 Cu165 Cu 0.33010 0.12344 0.83164
 Cu166 Cu 0.37559 0.16736 0.82889
 N167 N 0.35871 0.19310 0.87063
 N168 N 0.37542 0.19233 0.85374
 C169 C 0.39110 0.21097 0.85683
 C170 C 0.38388 0.22425 0.87678
 C171 C 0.36321 0.21229 0.88507
 H172 H 0.40646 0.21468 0.84520
 H173 H 0.35231 0.21711 0.90052
 N174 N 0.37271 0.14060 0.80544
 N175 N 0.35557 0.12372 0.80663
 C176 C 0.35840 0.10815 0.78813
 C177 C 0.37822 0.11563 0.77455
 C178 C 0.38682 0.13627 0.78611
 H179 H 0.34657 0.09281 0.78449
 H180 H 0.40227 0.14731 0.78086
 H181 H 0.35824 0.14091 0.84929
 H182 H 0.33859 0.16020 0.82945
 N183 N 0.18386 0.87670 0.36299
 N184 N 0.18024 0.86193 0.38131
 C185 C 0.19851 0.86474 0.39721
 C186 C 0.21452 0.88221 0.38832
 C187 C 0.20451 0.88939 0.36656
 H188 H 0.20028 0.85439 0.41370
 H189 H 0.21172 0.90279 0.35414
 Cu190 Cu 0.15250 0.83981 0.38231
 Cu191 Cu 0.16199 0.87802 0.33556
 Cu192 Cu 0.11810 0.83293 0.33259
 N193 N 0.13058 0.81217 0.37843
 N194 N 0.11775 0.80920 0.35873
 C195 C 0.10498 0.78826 0.36046
 C196 C 0.10995 0.77757 0.38250
 C197 C 0.12625 0.79331 0.39347
 H198 H 0.09278 0.78144 0.34680
 H199 H 0.13477 0.79091 0.41082
 N200 N 0.12140 0.85881 0.30808
 N201 N 0.13808 0.87611 0.30932
 C202 C 0.13562 0.89117 0.29030
 C203 C 0.11642 0.88300 0.27631
 C204 C 0.10786 0.86240 0.28822
 H205 H 0.14709 0.90685 0.28686
 H206 H 0.09271 0.85099 0.28300
 H207 H 0.13112 0.86287 0.35122
 H208 H 0.15431 0.84108 0.33879
 Zn209 Zn 0.00156 1.03203 -0.01233
 Zn210 Zn -0.02162 0.98256 -0.01707
 Zn211 Zn 0.02767 0.98782 0.00545
 Zn212 Zn -0.01615 1.00588 0.03122
 O213 O -0.00218 1.00204 0.00176
 O214 O -0.01469 1.03445 -0.04001
 O215 O -0.00622 0.95524 -0.02704
 O216 O 0.05206 1.00628 -0.00591
 O217 O -0.03190 0.99806 -0.04378
 O218 O 0.03267 1.03903 -0.01935
 O219 O 0.02993 0.95942 -0.00999
 O220 O 0.00228 0.99441 0.05525
 O221 O -0.04878 0.97252 -0.00167
 O222 O 0.03494 0.98105 0.03611
 O223 O -0.04446 0.99020 0.03374
 O224 O -0.02260 1.03712 0.03825
 O225 O -0.00931 1.05667 0.00600
 C226 C -0.02800 1.01960 -0.05157
 C227 C 0.01521 0.94740 -0.02296
 C228 C 0.05227 1.02713 -0.01602
 C229 C 0.02312 0.98432 0.05544
 C230 C -0.05651 0.97687 0.01943
 C231 C -0.01915 1.05684 0.02665
 Zn232 Zn 0.49160 -0.03106 0.48535
 Zn233 Zn 0.50969 -0.00564 0.52890
 Zn234 Zn 0.51546 0.01798 0.48059
 Zn235 Zn 0.46603 0.01335 0.50320
 O236 O 0.49573 -0.00129 0.49947
 O237 O 0.50305 -0.05593 0.50310
 O238 O 0.53818 0.00974 0.53136
 O239 O 0.52482 0.00290 0.45341
 O240 O 0.51626 -0.03700 0.53556
 O241 O 0.50684 -0.03312 0.45711
 O242 O 0.54302 0.02710 0.49572
 O243 O 0.46423 0.04212 0.48795
 O244 O 0.49125 0.00556 0.55309
 O245 O 0.50066 0.04579 0.47122
 O246 O 0.45896 0.01981 0.53390
 O247 O 0.44128 -0.00483 0.49211
 O248 O 0.46036 -0.03794 0.47929
 C249 C 0.51309 -0.05647 0.52362
 C250 C 0.55061 0.02265 0.51686
 C251 C 0.52007 -0.01828 0.44533
 C252 C 0.47940 0.05407 0.47530
 C253 C 0.47056 0.01599 0.55326
 C254 C 0.44085 -0.02590 0.48258
 Zn255 Zn 1.00900 0.46480 0.48932
 Zn256 Zn 1.03555 0.50856 0.50713
 Zn257 Zn 0.98617 0.51440 0.48478
 Zn258 Zn 0.99144 0.49060 0.53294
 O259 O 1.00552 0.49464 0.50350
 O260 O 1.04004 0.45742 0.48254
 O261 O 1.03822 0.53686 0.49120
 O262 O 0.97589 0.49939 0.45791
 O263 O 1.05983 0.48971 0.49616
 O264 O 0.99302 0.46291 0.46152
 O265 O 1.00166 0.54167 0.47509
 O266 O 0.96328 0.50667 0.53560
 O267 O 1.04263 0.51539 0.53782
 O268 O 0.95914 0.52452 0.50015
 O269 O 1.01000 0.50171 0.55692
 O270 O 0.98454 0.45934 0.53979
 O271 O 0.99761 0.44015 0.50737
 C272 C 1.05979 0.46893 0.48604
 C273 C 1.02328 0.54913 0.47860
 C274 C 0.97982 0.47796 0.44998
 C275 C 0.95138 0.52023 0.52126
 C276 C 1.03076 0.51194 0.55714
 C277 C 0.98764 0.43978 0.52795
 Zn278 Zn 0.48778 0.49780 0.96740
 Zn279 Zn 0.53128 0.51635 0.99330
 Zn280 Zn 0.48189 0.52062 1.01597
 Zn281 Zn 0.50592 0.47165 1.01077
 O282 O 0.50167 0.50165 0.99690
 O283 O 0.50645 0.50901 0.94336
 O284 O 0.53293 0.54482 1.00868
 O285 O 0.45479 0.53064 1.00057
 O286 O 0.53871 0.52297 0.96263
 O287 O 0.45951 0.51371 0.96483
 O288 O 0.49682 0.54805 1.02611
 O289 O 0.48983 0.46882 1.03846
 O290 O 0.55590 0.49836 1.00488
 O291 O 0.47176 0.50476 1.04261
 O292 O 0.53712 0.46505 1.01775
 O293 O 0.49517 0.44703 0.99246
 O294 O 0.48128 0.46654 0.96045
 C295 C 0.52720 0.51925 0.94323
 C296 C 0.51801 0.55640 1.02186
 C297 C 0.44732 0.52680 0.97931
 C298 C 0.47620 0.48325 1.05021
 C299 C 0.55647 0.47742 1.01480
 C300 C 0.48499 0.44683 0.97200
 C301 C 1.21770 0.40536 0.41740
 C302 C 1.23349 0.38947 0.42968
 C303 C 1.25538 0.38193 0.41916
 C304 C 1.26220 0.39025 0.39609
 C305 C 1.24626 0.40634 0.38395
 C306 C 1.22432 0.41370 0.39444
 C307 C 1.19441 0.41332 0.42847
 C308 C 1.17296 0.41429 0.41474
 C309 C 1.15112 0.42229 0.42497
 C310 C 1.15029 0.42966 0.44911
 C311 C 1.17169 0.42854 0.46291
 C312 C 1.19352 0.42034 0.45272
 C313 C 1.12727 0.43900 0.45962
 C314 C 1.12724 0.46028 0.47370
 C315 C 1.10538 0.46982 0.48259
 C316 C 1.08309 0.45818 0.47770
 C317 C 1.08321 0.43658 0.46406
 C318 C 1.10506 0.42715 0.45505
 H319 H 1.22874 0.38259 0.44734
 H320 H 1.26686 0.36964 0.42936
 H321 H 1.25043 0.41333 0.36624
 H322 H 1.21262 0.42621 0.38466
 H323 H 1.17306 0.40875 0.39608
 H324 H 1.13495 0.42319 0.41386
 H325 H 1.17151 0.43394 0.48161
 H326 H 1.20981 0.41994 0.46368
 H327 H 1.14408 0.46992 0.47731
 H328 H 1.10592 0.48650 0.49302
 H329 H 1.06638 0.42713 0.46001
 H330 H 1.10459 0.41056 0.44447
 C331 C 0.29019 0.59853 0.91606
 C332 C 0.27443 0.61365 0.92930
 C333 C 0.25251 0.62189 0.91928
 C334 C 0.24582 0.61506 0.89585
 C335 C 0.26157 0.59982 0.88273
 C336 C 0.28347 0.59168 0.89270
 C337 C 0.31356 0.58979 0.92644
 C338 C 0.33470 0.58902 0.91220
 C339 C 0.35643 0.57959 0.92141
 C340 C 0.35756 0.57066 0.94509
 C341 C 0.33660 0.57203 0.95958
 C342 C 0.31482 0.58151 0.95035
 C343 C 0.38036 0.55930 0.95424
 C344 C 0.38854 0.56364 0.97777
 C345 C 0.41021 0.55302 0.98606
 C346 C 0.42410 0.53780 0.97099
 C347 C 0.41573 0.53331 0.94756
 C348 C 0.39415 0.54390 0.93931
 H349 H 0.27920 0.61936 0.94730
 H350 H 0.24078 0.63347 0.92998
 H351 H 0.25719 0.59428 0.86461
 H352 H 0.29506 0.57978 0.88216
 H353 H 0.33444 0.59575 0.89388
 H354 H 0.37240 0.57929 0.90995
 H355 H 0.33684 0.56508 0.97782
 H356 H 0.29877 0.58167 0.96169
 H357 H 0.37839 0.57557 0.98963
 H358 H 0.41617 0.55687 1.00419
 H359 H 0.42587 0.52158 0.93549
 H360 H 0.38811 0.53981 0.92125
 C361 C -0.21584 0.90996 0.08252
 C362 C -0.23117 0.89419 0.06963
 C363 C -0.25316 0.88612 0.07964
 C364 C -0.26036 0.89377 0.10269
 C365 C -0.24512 0.90981 0.11540
 C366 C -0.22312 0.91777 0.10545
 C367 C -0.19221 0.91816 0.07229
 C368 C -0.17136 0.91913 0.08687
 C369 C -0.14928 0.92772 0.07768
 C370 C -0.14751 0.93567 0.05369
 C371 C -0.16822 0.93415 0.03891
 C372 C -0.19034 0.92545 0.04811
 C373 C -0.12433 0.94621 0.04452
 C374 C -0.11582 0.94096 0.02126
 C375 C -0.09382 0.95090 0.01296
 C376 C -0.07994 0.96633 0.02777
 C377 C -0.08863 0.97170 0.05093
 C378 C -0.11052 0.96181 0.05917
 H379 H -0.22596 0.88776 0.05198
 H380 H -0.26451 0.87395 0.06922
 H381 H -0.24994 0.91603 0.13321
 H382 H -0.21183 0.93020 0.11568
 H383 H -0.17211 0.91314 0.10542
 H384 H -0.13354 0.92815 0.08938
 H385 H -0.16750 0.94035 0.02042
 H386 H -0.20617 0.92508 0.03651
 H387 H -0.12597 0.92886 0.00961
 H388 H -0.08763 0.94641 -0.00497
 H389 H -0.07851 0.98363 0.06278
 H390 H -0.11679 0.96662 0.07699
 C391 C 0.71068 0.08657 0.58010
 C392 C 0.72563 0.10350 0.56805
 C393 C 0.74681 0.11240 0.57892
 C394 C 0.75351 0.10460 0.60211
 C395 C 0.73848 0.08771 0.61414
 C396 C 0.71735 0.07883 0.60328
 C397 C 0.68813 0.07704 0.56873
 C398 C 0.68161 0.05233 0.57149
 C399 C 0.65979 0.04355 0.56198
 C400 C 0.64395 0.05924 0.54943
 C401 C 0.65075 0.08380 0.54603
 C402 C 0.67261 0.09262 0.55561
 C403 C 0.62003 0.05013 0.54082
 C404 C 0.61101 0.05670 0.51806
 C405 C 0.58845 0.04784 0.51015
 C406 C 0.57443 0.03238 0.52495
 C407 C 0.58345 0.02603 0.54777
 C408 C 0.60595 0.03477 0.55558
 H409 H 0.72113 0.10960 0.55007
 H410 H 0.75799 0.12521 0.56898
 H411 H 0.74279 0.08148 0.63210
 H412 H 0.70599 0.06615 0.61323
 H413 H 0.69342 0.03975 0.58105
 H414 H 0.65527 0.02442 0.56447
 H415 H 0.63880 0.09637 0.53665
 H416 H 0.67701 0.11181 0.55337
 H417 H 0.62155 0.06840 0.50625
 H418 H 0.58203 0.05306 0.49248
 H419 H 0.57313 0.01422 0.55967
 H420 H 0.61221 0.02972 0.57336
 C421 C 0.42339 0.21690 0.40891
 C422 C 0.43333 0.22773 0.38817
 C423 C 0.42379 0.24960 0.37903
 C424 C 0.40412 0.26144 0.39049
 C425 C 0.39436 0.25056 0.41139
 C426 C 0.40376 0.22859 0.42034
 C427 C 0.43324 0.19342 0.41853
 C428 C 0.43414 0.18915 0.44345
 C429 C 0.44235 0.16675 0.45252
 C430 C 0.45010 0.14817 0.43692
 C431 C 0.44982 0.15256 0.41205
 C432 C 0.44136 0.17489 0.40294
 C433 C 0.45779 0.12407 0.44662
 C434 C 0.47886 0.11237 0.43800
 C435 C 0.48604 0.08969 0.44738
 C436 C 0.47207 0.07813 0.46532
 C437 C 0.45090 0.08980 0.47376
 C438 C 0.44392 0.11256 0.46460
 H439 H 0.44871 0.21945 0.37909
 H440 H 0.43217 0.25717 0.36308
 H441 H 0.37915 0.25862 0.42086
 H442 H 0.39528 0.22056 0.43607
 H443 H 0.42859 0.20316 0.45603
 H444 H 0.44274 0.16398 0.47179
 H445 H 0.45548 0.13845 0.39962
 H446 H 0.44060 0.17737 0.38366
 H447 H 0.48995 0.12094 0.42423
 H448 H 0.50242 0.08113 0.44048
 H449 H 0.43976 0.08142 0.48759
 H450 H 0.42745 0.12105 0.47137
 C451 C 0.91821 0.28133 0.59233
 C452 C 0.92817 0.26912 0.61225
 C453 C 0.91740 0.24780 0.62122
 C454 C 0.89632 0.23797 0.61045
 C455 C 0.88652 0.25023 0.59031
 C456 C 0.89728 0.27161 0.58145
 C457 C 0.92947 0.30424 0.58307
 C458 C 0.93074 0.30890 0.55824
 C459 C 0.94098 0.33062 0.54958
 C460 C 0.95028 0.34817 0.56553
 C461 C 0.94921 0.34342 0.59034
 C462 C 0.93889 0.32175 0.59900
 C463 C 0.96064 0.37153 0.55633
 C464 C 0.95617 0.39365 0.56840
 C465 C 0.96531 0.41572 0.55942
 C466 C 0.97903 0.41622 0.53809
 C467 C 0.98375 0.39409 0.52616
 C468 C 0.97470 0.37200 0.53520
 H469 H 0.94452 0.27589 0.62082
 H470 H 0.92589 0.23915 0.63655
 H471 H 0.87035 0.24366 0.58136
 H472 H 0.88891 0.28078 0.56628
 H473 H 0.92393 0.29568 0.54547
 H474 H 0.94125 0.33382 0.53038
 H475 H 0.95646 0.35641 0.60310
 H476 H 0.93796 0.31888 0.61824
 H477 H 0.94511 0.39400 0.58452
 H478 H 0.96122 0.43245 0.56899
 H479 H 0.99436 0.39383 0.50974
 H480 H 0.97882 0.35525 0.52569
 C481 C 0.07952 0.78962 -0.09284
 C482 C 0.06853 0.77699 -0.11185
 C483 C 0.07878 0.75529 -0.12054
 C484 C 0.10022 0.74552 -0.11027
 C485 C 0.11085 0.75815 -0.09088
 C486 C 0.10069 0.77991 -0.08240
 C487 C 0.06921 0.81301 -0.08397
 C488 C 0.08469 0.83278 -0.07895
 C489 C 0.07532 0.85456 -0.06973
 C490 C 0.05023 0.85706 -0.06508
 C491 C 0.03465 0.83744 -0.07058
 C492 C 0.04404 0.81566 -0.08000
 C493 C 0.04065 0.87988 -0.05401
 C494 C 0.01811 0.88989 -0.06106
 C495 C 0.00959 0.91167 -0.05083
 C496 C 0.02349 0.92392 -0.03341
 C497 C 0.04583 0.91369 -0.02617
 C498 C 0.05423 0.89194 -0.03625
 H499 H 0.05224 0.78415 -0.12032
 H500 H 0.06972 0.74635 -0.13533
 H501 H 0.12721 0.75160 -0.08220
 H502 H 0.10937 0.78910 -0.06747
 H503 H 0.10410 0.83143 -0.08228
 H504 H 0.08777 0.86950 -0.06628
 H505 H 0.01528 0.83867 -0.06700
 H506 H 0.03172 0.80063 -0.08356
 H507 H 0.00729 0.88116 -0.07483
 H508 H -0.00767 0.91911 -0.05682
 H509 H 0.05689 0.92249 -0.01262
 H510 H 0.07137 0.88446 -0.02996
 C511 C 0.57777 0.71591 1.09130
 C512 C 0.59909 0.72579 1.08129
 C513 C 0.60866 0.74777 1.08979
 C514 C 0.59726 0.76049 1.10874
 C515 C 0.57563 0.75060 1.11850
 C516 C 0.56599 0.72865 1.10982
 C517 C 0.56815 0.69223 1.08249
 C518 C 0.54312 0.68904 1.07814
 C519 C 0.53439 0.66695 1.06886
 C520 C 0.55052 0.64759 1.06386
 C521 C 0.57544 0.65064 1.06891
 C522 C 0.58414 0.67270 1.07802
 C523 C 0.54166 0.62447 1.05292
 C524 C 0.55573 0.61263 1.03533
 C525 C 0.54793 0.59066 1.02527
 C526 C 0.52575 0.58000 1.03239
 C527 C 0.51141 0.59200 1.04968
 C528 C 0.51931 0.61400 1.05988
 H529 H 0.60834 0.71653 1.06672
 H530 H 0.62519 0.75441 1.08147
 H531 H 0.56600 0.75960 1.13293
 H532 H 0.54956 0.72138 1.11792
 H533 H 0.53041 0.70386 1.08128
 H534 H 0.51514 0.66528 1.06497
 H535 H 0.58827 0.63591 1.06583
 H536 H 0.60345 0.67448 1.08168
 H537 H 0.57276 0.62045 1.02916
 H538 H 0.55933 0.58204 1.01184
 H539 H 0.49426 0.58422 1.05558
 H540 H 0.50815 0.62256 1.07354
 C541 C 0.40827 0.41867 1.20679
 C542 C 0.39221 0.43178 1.22163
 C543 C 0.38425 0.42183 1.24345
 C544 C 0.39230 0.39860 1.25099
 C545 C 0.40852 0.38559 1.23620
 C546 C 0.41637 0.39549 1.21436
 C547 C 0.41659 0.42899 1.18348
 C548 C 0.41833 0.41396 1.16313
 C549 C 0.42706 0.42330 1.14139
 C550 C 0.43434 0.44789 1.13947
 C551 C 0.43208 0.46310 1.15967
 C552 C 0.42328 0.45374 1.18145
 C553 C 0.44497 0.45727 1.11666
 C554 C 0.43928 0.48080 1.10801
 C555 C 0.44940 0.48937 1.08645
 C556 C 0.46543 0.47458 1.07315
 C557 C 0.47119 0.45113 1.08193
 C558 C 0.46112 0.44262 1.10340
 H559 H 0.38552 0.44961 1.21619
 H560 H 0.37192 0.43246 1.25444
 H561 H 0.41500 0.36762 1.24130
 H562 H 0.42900 0.38507 1.20346
 H563 H 0.41285 0.39495 1.16400
 H564 H 0.42808 0.41124 1.12603
 H565 H 0.43777 0.48204 1.15884
 H566 H 0.42234 0.46571 1.19688
 H567 H 0.42673 0.49245 1.11773
 H568 H 0.44457 0.50751 1.08016
 H569 H 0.48358 0.43929 1.07224
 H570 H 0.46626 0.42460 1.10979
 C571 C 0.58406 -0.07706 0.28543
 C572 C 0.60112 -0.06427 0.27133
 C573 C 0.61006 -0.07440 0.25002
 C574 C 0.60214 -0.09756 0.24232
 C575 C 0.58507 -0.11030 0.25645
 C576 C 0.57618 -0.10019 0.27773
 C577 C 0.57458 -0.06653 0.30818
 C578 C 0.54995 -0.06945 0.31451
 C579 C 0.54121 -0.06071 0.33643
 C580 C 0.55687 -0.04878 0.35254
 C581 C 0.58136 -0.04525 0.34598
 C582 C 0.59014 -0.05406 0.32403
 C583 C 0.54775 -0.04081 0.37638
 C584 C 0.55447 -0.01806 0.38604
 C585 C 0.54557 -0.01067 0.40846
 C586 C 0.52989 -0.02597 0.42172
 C587 C 0.52341 -0.04880 0.41210
 C588 C 0.53220 -0.05610 0.38971
 H589 H 0.60732 -0.04628 0.27663
 H590 H 0.62299 -0.06393 0.23952
 H591 H 0.57878 -0.12828 0.25135
 H592 H 0.56341 -0.11073 0.28839
 H593 H 0.53738 -0.07850 0.30248
 H594 H 0.52213 -0.06328 0.34078
 H595 H 0.59390 -0.03634 0.35813
 H596 H 0.60927 -0.05174 0.31979
 H597 H 0.56630 -0.00583 0.37608
 H598 H 0.55090 0.00703 0.41536
 H599 H 0.51143 -0.06108 0.42183
 H600 H 0.52703 -0.07391 0.38294
 C601 C -0.09896 1.08026 -0.20821
 C602 C -0.09156 1.10360 -0.21593
 C603 C -0.09955 1.11306 -0.23787
 C604 C -0.11522 1.09946 -0.25265
 C605 C -0.12261 1.07607 -0.24496
 C606 C -0.11449 1.06654 -0.22301
 C607 C -0.09037 1.07042 -0.18480
 C608 C -0.08267 1.04598 -0.18260
 C609 C -0.07338 1.03720 -0.16081
 C610 C -0.07164 1.05269 -0.14076
 C611 C -0.07997 1.07693 -0.14284
 C612 C -0.08919 1.08570 -0.16459
 C613 C -0.06052 1.04394 -0.11796
 C614 C -0.04491 1.05932 -0.10491
 C615 C -0.03439 1.05135 -0.08346
 C616 C -0.03915 1.02775 -0.07449
 C617 C -0.05465 1.01227 -0.08758
 C618 C -0.06521 1.02028 -0.10911
 H619 H -0.07933 1.11449 -0.20508
 H620 H -0.09359 1.13119 -0.24305
 H621 H -0.13453 1.06501 -0.25593
 H622 H -0.12062 1.04855 -0.21746
 H623 H -0.08314 1.03385 -0.19793
 H624 H -0.06688 1.01851 -0.15985
 H625 H -0.07938 1.08917 -0.12760
 H626 H -0.09544 1.10447 -0.16560
 H627 H -0.04056 1.07748 -0.11145
 H628 H -0.02245 1.06373 -0.07392
 H629 H -0.05873 0.99400 -0.08115
 H630 H -0.07733 1.00808 -0.11865
 C631 C 1.09369 0.58266 0.71249
 C632 C 1.11154 0.57099 0.72651
 C633 C 1.11993 0.58171 0.74770
 C634 C 1.11068 0.60439 0.75537
 C635 C 1.09279 0.61604 0.74133
 C636 C 1.08440 0.60530 0.72015
 C637 C 1.08480 0.57130 0.68995
 C638 C 1.05992 0.57206 0.68400
 C639 C 1.05156 0.56157 0.66270
 C640 C 1.06787 0.55008 0.64684
 C641 C 1.09274 0.54924 0.65282
 C642 C 1.10111 0.55970 0.67415
 C643 C 1.05896 0.53932 0.62402
 C644 C 1.07223 0.54232 0.60260
 C645 C 1.06333 0.53303 0.58095
 C646 C 1.04096 0.52052 0.58025
 C647 C 1.02793 0.51712 0.60177
 C648 C 1.03683 0.52641 0.62340
 H649 H 1.11880 0.55336 0.72127
 H650 H 1.13350 0.57202 0.75811
 H651 H 1.08540 0.63361 0.74645
 H652 H 1.07090 0.61493 0.70954
 H653 H 1.04687 0.58063 0.69592
 H654 H 1.03233 0.56278 0.65848
 H655 H 1.10572 0.54033 0.64107
 H656 H 1.12041 0.55902 0.67812
 H657 H 1.08921 0.55241 0.60245
 H658 H 1.07378 0.53603 0.56469
 H659 H 1.01068 0.50750 0.60189
 H660 H 1.02637 0.52347 0.63966
 C661 C 0.79317 0.59110 0.58275
 C662 C 0.77788 0.60648 0.56922
 C663 C 0.75580 0.61483 0.57879
 C664 C 0.74848 0.60786 0.60206
 C665 C 0.76375 0.59233 0.61547
 C666 C 0.78582 0.58408 0.60595
 C667 C 0.81673 0.58229 0.57283
 C668 C 0.83753 0.58123 0.58748
 C669 C 0.85946 0.57195 0.57861
 C670 C 0.86112 0.56345 0.55486
 C671 C 0.84048 0.56503 0.54000
 C672 C 0.81850 0.57437 0.54889
 C673 C 0.88415 0.55237 0.54596
 C674 C 0.89267 0.55713 0.52257
 C675 C 0.91447 0.54667 0.51444
 C676 C 0.92814 0.53121 0.52952
 C677 C 0.91949 0.52637 0.55283
 C678 C 0.89777 0.53680 0.56093
 H679 H 0.78315 0.61234 0.55135
 H680 H 0.74447 0.62663 0.56786
 H681 H 0.75887 0.58666 0.63348
 H682 H 0.79705 0.57197 0.61669
 H683 H 0.83687 0.58767 0.60585
 H684 H 0.87517 0.57145 0.59036
 H685 H 0.84111 0.55839 0.52171
 H686 H 0.80272 0.57475 0.53723
 H687 H 0.88268 0.56922 0.51069
 H688 H 0.92065 0.55080 0.49639
 H689 H 0.92949 0.51446 0.56490
 H690 H 0.89149 0.53241 0.57889
 C691 C 0.71460 0.41463 1.08452
 C692 C 0.72181 0.42292 1.10729
 C693 C 0.74321 0.41420 1.11791
 C694 C 0.75793 0.39698 1.10602
 C695 C 0.75075 0.38883 1.08315
 C696 C 0.72934 0.39754 1.07255
 C697 C 0.69171 0.42368 1.07336
 C698 C 0.67618 0.40756 1.06106
 C699 C 0.65448 0.41601 1.05084
 C700 C 0.64785 0.44078 1.05262
 C701 C 0.66344 0.45692 1.06478
 C702 C 0.68511 0.44846 1.07505
 C703 C 0.62461 0.44973 1.04212
 C704 C 0.62360 0.47242 1.03021
 C705 C 0.60157 0.48122 1.02100
 C706 C 0.58003 0.46753 1.02351
 C707 C 0.58110 0.44467 1.03513
 C708 C 0.60315 0.43587 1.04431
 H709 H 0.71067 0.43583 1.11711
 H710 H 0.74796 0.42077 1.13560
 H711 H 0.76168 0.37583 1.07325
 H712 H 0.72447 0.39109 1.05482
 H713 H 0.68064 0.38831 1.05965
 H714 H 0.64295 0.40318 1.04140
 H715 H 0.65871 0.47606 1.06669
 H716 H 0.69681 0.46137 1.08418
 H717 H 0.63989 0.48337 1.02794
 H718 H 0.60141 0.49887 1.01210
 H719 H 0.56483 0.43370 1.03744
 H720 H 0.60328 0.41845 1.05364
 C721 C 0.20977 1.09327 -0.08424
 C722 C 0.21748 1.08445 -0.10668
 C723 C 0.23872 1.09341 -0.11741
 C724 C 0.25280 1.11142 -0.10598
 C725 C 0.24508 1.12021 -0.08350
 C726 C 0.22381 1.11124 -0.07277
 C727 C 0.18710 1.08379 -0.07295
 C728 C 0.17084 1.09972 -0.06129
 C729 C 0.14923 1.09084 -0.05117
 C730 C 0.14345 1.06583 -0.05242
 C731 C 0.15983 1.04988 -0.06388
 C732 C 0.18139 1.05876 -0.07403
 C733 C 0.12024 1.05641 -0.04221
 C734 C 0.11961 1.03388 -0.02998
 C735 C 0.09762 1.02455 -0.02118
 C736 C 0.07573 1.03755 -0.02442
 C737 C 0.07642 1.06027 -0.03632
 C738 C 0.09842 1.06959 -0.04511
 H739 H 0.20684 1.07089 -0.11615
 H740 H 0.24384 1.08635 -0.13483
 H741 H 0.25552 1.13386 -0.07399
 H742 H 0.21852 1.11816 -0.05531
 H743 H 0.17461 1.11914 -0.06035
 H744 H 0.13709 1.10355 -0.04226
 H745 H 0.15578 1.03056 -0.06538
 H746 H 0.19368 1.04598 -0.08265
 H747 H 0.13617 1.02346 -0.02715
 H748 H 0.09776 1.00705 -0.01201
 H749 H 0.05989 1.07072 -0.03916
 H750 H 0.09826 1.08686 -0.05470
 C751 C 0.28188 -0.09268 0.41951
 C752 C 0.26484 -0.10554 0.43355
 C753 C 0.24298 -0.11375 0.42347
 C754 C 0.23764 -0.10913 0.39917
 C755 C 0.25469 -0.09615 0.38522
 C756 C 0.27653 -0.08806 0.39526
 C757 C 0.30521 -0.08406 0.42998
 C758 C 0.32701 -0.08610 0.41687
 C759 C 0.34889 -0.07732 0.42627
 C760 C 0.34949 -0.06625 0.44901
 C761 C 0.32773 -0.06441 0.46225
 C762 C 0.30582 -0.07330 0.45287
 C763 C 0.37271 -0.05634 0.45858
 C764 C 0.37326 -0.03357 0.47023
 C765 C 0.39533 -0.02377 0.47826
 C766 C 0.41731 -0.03657 0.47487
 C767 C 0.41666 -0.05954 0.46359
 C768 C 0.39462 -0.06929 0.45553
 H769 H 0.26856 -0.10954 0.45226
 H770 H 0.23024 -0.12357 0.43480
 H771 H 0.25137 -0.09237 0.36643
 H772 H 0.28917 -0.07794 0.38405
 H773 H 0.32716 -0.09456 0.39930
 H774 H 0.36529 -0.07879 0.41553
 H775 H 0.32767 -0.05617 0.47991
 H776 H 0.28928 -0.07132 0.46331
 H777 H 0.35671 -0.02305 0.47261
 H778 H 0.39520 -0.00603 0.48686
 H779 H 0.43322 -0.06994 0.46079
 H780 H 0.39473 -0.08703 0.44693
 C781 C 0.58261 -0.21556 0.58574
 C782 C 0.60647 -0.22228 0.57931
 C783 C 0.61678 -0.24390 0.58814
 C784 C 0.60353 -0.25920 0.60374
 C785 C 0.57960 -0.25253 0.61003
 C786 C 0.56924 -0.23099 0.60107
 C787 C 0.57184 -0.19238 0.57675
 C788 C 0.54758 -0.19161 0.56867
 C789 C 0.53743 -0.16970 0.56034
 C790 C 0.55126 -0.14808 0.56009
 C791 C 0.57550 -0.14885 0.56821
 C792 C 0.58570 -0.17077 0.57637
 C793 C 0.54058 -0.12479 0.55127
 C794 C 0.54482 -0.10282 0.56359
 C795 C 0.53546 -0.08073 0.55489
 C796 C 0.52176 -0.08010 0.53357
 C797 C 0.51721 -0.10214 0.52143
 C798 C 0.52646 -0.12427 0.53023
 H799 H 0.61711 -0.21086 0.56732
 H800 H 0.63528 -0.24837 0.58301
 H801 H 0.56878 -0.26396 0.62183
 H802 H 0.55089 -0.22618 0.60649
 H803 H 0.53653 -0.20802 0.56858
 H804 H 0.51865 -0.16959 0.55435
 H805 H 0.58667 -0.13252 0.56798
 H806 H 0.60436 -0.17077 0.58270
 H807 H 0.55537 -0.10273 0.58002
 H808 H 0.53928 -0.06409 0.56469
 H809 H 0.50674 -0.10229 0.50495
 H810 H 0.52307 -0.14090 0.52027
 C811 C 1.08186 0.70960 0.41009
 C812 C 1.08352 0.71362 0.38522
 C813 C 1.09241 0.73580 0.37627
 C814 C 1.10021 0.75424 0.39202
 C815 C 1.09867 0.75015 0.41691
 C816 C 1.08938 0.72811 0.42586
 C817 C 1.07260 0.68603 0.41955
 C818 C 1.05474 0.68555 0.43765
 C819 C 1.04612 0.66325 0.44663
 C820 C 1.05554 0.64106 0.43796
 C821 C 1.07343 0.64155 0.41989
 C822 C 1.08174 0.66383 0.41063
 C823 C 1.04713 0.61745 0.44807
 C824 C 1.06416 0.59975 0.45539
 C825 C 1.05636 0.57762 0.46537
 C826 C 1.03137 0.57256 0.46787
 C827 C 1.01432 0.59016 0.46027
 C828 C 1.02214 0.61250 0.45066
 H829 H 1.07772 0.69965 0.37272
 H830 H 1.09354 0.73835 0.35701
 H831 H 1.10439 0.76408 0.42947
 H832 H 1.08842 0.72536 0.44512
 H833 H 1.04732 0.70245 0.44469
 H834 H 1.03243 0.66331 0.46066
 H835 H 1.08086 0.62467 0.41284
 H836 H 1.09562 0.66376 0.39678
 H837 H 1.08352 0.60323 0.45374
 H838 H 1.06993 0.56438 0.47100
 H839 H 0.99495 0.58679 0.46205
 H840 H 1.00869 0.62584 0.44501
 C841 C -0.08220 1.21597 0.09418
 C842 C -0.06834 1.23085 0.10949
 C843 C -0.07806 1.25262 0.11855
 C844 C -0.10177 1.26006 0.11231
 C845 C -0.11551 1.24525 0.09681
 C846 C -0.10586 1.22343 0.08791
 C847 C -0.07216 1.19263 0.08489
 C848 C -0.08671 1.17150 0.08438
 C849 C -0.07743 1.14954 0.07543
 C850 C -0.05343 1.14825 0.06667
 C851 C -0.03885 1.16937 0.06719
 C852 C -0.04809 1.19132 0.07632
 C853 C -0.04382 1.12497 0.05684
 C854 C -0.03033 1.12476 0.03537
 C855 C -0.02211 1.10268 0.02565
 C856 C -0.02709 1.08035 0.03729
 C857 C -0.04022 1.08065 0.05899
 C858 C -0.04855 1.10270 0.06861
 H859 H -0.05011 1.22546 0.11477
 H860 H -0.06691 1.26366 0.13031
 H861 H -0.13388 1.25028 0.09176
 H862 H -0.11687 1.21245 0.07594
 H863 H -0.10524 1.17191 0.09108
 H864 H -0.08916 1.13362 0.07503
 H865 H -0.02023 1.16885 0.06072
 H866 H -0.03653 1.20737 0.07634
 H867 H -0.02662 1.14164 0.02581
 H868 H -0.01204 1.10309 0.00891
 H869 H -0.04433 1.06379 0.06845
 H870 H -0.05865 1.10234 0.08534
 C871 C 0.41742 0.28921 0.90558
 C872 C 0.39439 0.28156 0.91370
 C873 C 0.38357 0.26048 0.90445
 C874 C 0.39552 0.24650 0.88683
 C875 C 0.41863 0.25411 0.87881
 C876 C 0.42944 0.27522 0.88806
 C877 C 0.42873 0.31182 0.91519
 C878 C 0.44098 0.32816 0.89982
 C879 C 0.45111 0.34974 0.90878
 C880 C 0.44926 0.35542 0.93332
 C881 C 0.43722 0.33895 0.94873
 C882 C 0.42706 0.31741 0.93976
 C883 C 0.45937 0.37867 0.94278
 C884 C 0.47134 0.37921 0.96507
 C885 C 0.48002 0.40126 0.97438
 C886 C 0.47689 0.42328 0.96162
 C887 C 0.46525 0.42266 0.93914
 C888 C 0.45661 0.40061 0.92982
 H889 H 0.38451 0.29215 0.92693
 H890 H 0.36568 0.25541 0.91094
 H891 H 0.42856 0.24374 0.86548
 H892 H 0.44736 0.28044 0.88169
 H893 H 0.44237 0.32449 0.88077
 H894 H 0.46048 0.36195 0.89651
 H895 H 0.43526 0.34294 0.96767
 H896 H 0.41796 0.30507 0.95210
 H897 H 0.47405 0.36255 0.97531
 H898 H 0.48897 0.40107 0.99171
 H899 H 0.46249 0.43929 0.92885
 H900 H 0.44721 0.40084 0.91273
 C901 C 0.59436 0.58252 0.78596
 C902 C 0.60983 0.56867 0.77116
 C903 C 0.61848 0.57834 0.74947
 C904 C 0.61169 0.60199 0.74204
 C905 C 0.59604 0.61573 0.75679
 C906 C 0.58754 0.60613 0.77852
 C907 C 0.58539 0.57246 0.80913
 C908 C 0.58483 0.58719 0.82976
 C909 C 0.57608 0.57791 0.85153
 C910 C 0.56756 0.55372 0.85312
 C911 C 0.56819 0.53894 0.83252
 C912 C 0.57711 0.54819 0.81077
 C913 C 0.55770 0.54413 0.87613
 C914 C 0.53619 0.53019 0.87649
 C915 C 0.52640 0.52192 0.89824
 C916 C 0.53800 0.52730 0.92011
 C917 C 0.55973 0.54090 0.91969
 C918 C 0.56943 0.54928 0.89795
 H919 H 0.61553 0.55048 0.77652
 H920 H 0.63035 0.56717 0.73849
 H921 H 0.59056 0.63406 0.75176
 H922 H 0.57542 0.61712 0.78944
 H923 H 0.59133 0.60589 0.82910
 H924 H 0.57559 0.58979 0.86705
 H925 H 0.56192 0.52017 0.83327
 H926 H 0.57715 0.53647 0.79511
 H927 H 0.52662 0.52615 0.85997
 H928 H 0.50964 0.51149 0.89793
 H929 H 0.56915 0.54532 0.93621
 H930 H 0.58619 0.55973 0.89819
 C931 C 0.40517 0.08347 0.70910
 C932 C 0.39004 0.06999 0.72462
 C933 C 0.38132 0.08039 0.74588
 C934 C 0.38770 0.10444 0.75217
 C935 C 0.40306 0.11781 0.73674
 C936 C 0.41164 0.10746 0.71543
 C937 C 0.41405 0.07269 0.68628
 C938 C 0.41410 0.08665 0.66504
 C939 C 0.42261 0.07665 0.64356
 C940 C 0.43136 0.05249 0.64284
 C941 C 0.43127 0.03849 0.66407
 C942 C 0.42261 0.04846 0.68555
 C943 C 0.44084 0.04214 0.62006
 C944 C 0.46243 0.02829 0.61982
 C945 C 0.47193 0.01950 0.59818
 C946 C 0.45997 0.02427 0.57634
 C947 C 0.43810 0.03771 0.57667
 C948 C 0.42868 0.04658 0.59828
 H949 H 0.38462 0.05152 0.72011
 H950 H 0.36970 0.06949 0.75741
 H951 H 0.40824 0.13641 0.74089
 H952 H 0.42350 0.11819 0.70395
 H953 H 0.40737 0.10529 0.66501
 H954 H 0.42269 0.08796 0.62755
 H955 H 0.43773 0.01976 0.66400
 H956 H 0.42295 0.03733 0.70169
 H957 H 0.47231 0.02477 0.63630
 H958 H 0.48881 0.00921 0.59855
 H959 H 0.42839 0.04167 0.56018
 H960 H 0.41183 0.05692 0.59796
 C961 C 0.08913 0.91498 0.21065
 C962 C 0.10629 0.92750 0.22470
 C963 C 0.11512 0.91715 0.24597
 C964 C 0.10704 0.89400 0.25369
 C965 C 0.08988 0.88149 0.23957
 C966 C 0.08103 0.89186 0.21832
 C967 C 0.07970 0.92601 0.18809
 C968 C 0.05488 0.92418 0.18217
 C969 C 0.04600 0.93445 0.16090
 C970 C 0.06176 0.94677 0.14502
 C971 C 0.08658 0.94864 0.15095
 C972 C 0.09545 0.93842 0.17226
 C973 C 0.05234 0.95730 0.12223
 C974 C 0.06565 0.95490 0.10078
 C975 C 0.05635 0.96401 0.07916
 C976 C 0.03355 0.97576 0.07852
 C977 C 0.02044 0.97854 0.10006
 C978 C 0.02973 0.96939 0.12166
 H979 H 0.11263 0.94549 0.21943
 H980 H 0.12811 0.92750 0.25639
 H981 H 0.08337 0.86355 0.24472
 H982 H 0.06808 0.88161 0.20769
 H983 H 0.04225 0.91496 0.19412
 H984 H 0.02684 0.93245 0.15670
 H985 H 0.09912 0.95819 0.13917
 H986 H 0.11471 0.93993 0.17622
 H987 H 0.08300 0.94544 0.10060
 H988 H 0.06689 0.96152 0.06289
 H989 H 0.00286 0.98756 0.10022
 H990 H 0.01922 0.97184 0.13796
 C991 C 0.90872 0.41879 0.29332
 C992 C 0.91581 0.39539 0.28562
 C993 C 0.90743 0.38606 0.26383
 C994 C 0.89170 0.39987 0.24919
 C995 C 0.88469 0.42336 0.25683
 C996 C 0.89317 0.43274 0.27863
 C997 C 0.91756 0.42843 0.31664
 C998 C 0.92536 0.45282 0.31877
 C999 C 0.93475 0.46143 0.34052
 C1000 C 0.93647 0.44584 0.36059
 C1001 C 0.92807 0.42164 0.35858
 C1002 C 0.91876 0.41304 0.33687
 C1003 C 0.94762 0.45441 0.38337
 C1004 C 0.96316 0.43886 0.39644
 C1005 C 0.97360 0.44660 0.41795
 C1006 C 0.96884 0.47013 0.42694
 C1007 C 0.95346 0.48581 0.41380
 C1008 C 0.94297 0.47803 0.39222
 H1009 H 0.92804 0.38432 0.29639
 H1010 H 0.91313 0.36787 0.25868
 H1011 H 0.87274 0.43460 0.24596
 H1012 H 0.88728 0.45078 0.28417
 H1013 H 0.92486 0.46504 0.30343
 H1014 H 0.94130 0.48009 0.34143
 H1015 H 0.92865 0.40932 0.37385
 H1016 H 0.91241 0.39431 0.33593
 H1017 H 0.96748 0.42073 0.38991
 H1018 H 0.98546 0.43408 0.42752
 H1019 H 0.94940 0.50404 0.42025
 H1020 H 0.93092 0.49036 0.38265
   
