data_POSCAR
  _audit_creation_date              2014-09-24
  _audit_creation_method            'ToBaCCo'
  _symmetry_space_group_name_H-M    'P1'
  _symmetry_Int_Tables_number       1
  _symmetry_cell_setting            triclinic
  loop_
  _symmetry_equiv_pos_as_xyz
 x,y,z
_cell_length_a 28.7793
_cell_length_b 28.7488
_cell_length_c 22.1251
_cell_angle_alpha 89.875400
_cell_angle_beta 89.816800
_cell_angle_gamma 91.719400
loop_
  _atom_site_label
  _atom_site_type_symbol
  _atom_site_fract_x
  _atom_site_fract_y
  _atom_site_fract_z
C1 C -0.12384 0.29926 0.00556
 C2 C -0.09917 0.29779 0.06037
 C3 C -0.05073 0.29297 0.05829
 C4 C -0.02684 0.28598 0.00318
 C5 C -0.05369 0.28329 -0.05019
 C6 C -0.10151 0.29172 -0.05006
 C7 C 0.02543 0.28118 0.00126
 C8 C 0.05032 0.28410 -0.05411
 C9 C 0.09859 0.27944 -0.05632
 C10 C 0.12329 0.27445 -0.00243
 C11 C 0.10004 0.27208 0.05319
 C12 C 0.05139 0.27363 0.05456
 H13 H -0.16121 0.30050 0.00651
 H14 H -0.03234 0.29485 0.10063
 H15 H -0.03806 0.27438 -0.09282
 H16 H 0.03315 0.29016 -0.09651
 H17 H 0.16039 0.26927 -0.00400
 H18 H 0.03468 0.26855 0.09785
 C19 C 0.37494 0.78326 0.50005
 C20 C 0.39969 0.78827 0.55418
 C21 C 0.44828 0.79189 0.55257
 C22 C 0.47324 0.78743 0.49782
 C23 C 0.44713 0.78016 0.44422
 C24 C 0.39835 0.77974 0.44477
 C25 C 0.52581 0.78905 0.49704
 C26 C 0.55083 0.79463 0.44224
 C27 C 0.59945 0.79420 0.44084
 C28 C 0.62412 0.79125 0.49516
 C29 C 0.60061 0.78657 0.55041
 C30 C 0.55186 0.78381 0.55080
 H31 H 0.33749 0.77846 0.50133
 H32 H 0.46581 0.79775 0.59501
 H33 H 0.46388 0.77384 0.40147
 H34 H 0.53332 0.79893 0.39966
 H35 H 0.66159 0.78893 0.49411
 H36 H 0.53508 0.77665 0.59362
 C37 C 1.12387 0.69981 -0.00049
 C38 C 1.09939 0.70072 0.05468
 C39 C 1.05098 0.70555 0.05339
 C40 C 1.02687 0.71315 -0.00122
 C41 C 1.05346 0.71613 -0.05503
 C42 C 1.10133 0.70782 -0.05571
 C43 C 0.97464 0.71834 -0.00202
 C44 C 0.94927 0.71628 -0.05685
 C45 C 0.90099 0.72117 -0.05779
 C46 C 0.87682 0.72554 -0.00320
 C47 C 0.90060 0.72717 0.05182
 C48 C 0.94920 0.72546 0.05197
 H49 H 1.16125 0.69862 -0.00005
 H50 H 1.03280 0.70318 0.09602
 H51 H 1.03760 0.72529 -0.09734
 H52 H 0.96607 0.71073 -0.09974
 H53 H 0.83972 0.73084 -0.00367
 H54 H 0.96627 0.73014 0.09491
 C55 C 0.62482 0.21761 0.50454
 C56 C 0.59975 0.22207 0.55850
 C57 C 0.55114 0.22152 0.55698
 C58 C 0.52660 0.21306 0.50268
 C59 C 0.55297 0.20784 0.44900
 C60 C 0.60172 0.21158 0.44936
 C61 C 0.47412 0.21127 0.50191
 C62 C 0.44945 0.21757 0.44751
 C63 C 0.40082 0.21500 0.44617
 C64 C 0.37589 0.20946 0.50035
 C65 C 0.39914 0.20542 0.55555
 C66 C 0.44788 0.20479 0.55577
 H67 H 0.66227 0.22238 0.50517
 H68 H 0.53316 0.22855 0.59871
 H69 H 0.53634 0.20129 0.40608
 H70 H 0.46735 0.22531 0.40557
 H71 H 0.33842 0.21185 0.49984
 H72 H 0.46459 0.19964 0.59876
 C73 C 0.71122 -0.11765 -0.00331
 C74 C 0.70832 -0.09455 0.05253
 C75 C 0.70851 -0.04568 0.05282
 C76 C 0.71439 -0.01935 -0.00095
 C77 C 0.72021 -0.04392 -0.05562
 C78 C 0.71710 -0.09263 -0.05735
 C79 C 0.71468 0.03318 0.00020
 C80 C 0.70757 0.05938 -0.05307
 C81 C 0.70733 0.10829 -0.05228
 C82 C 0.71163 0.13128 0.00362
 C83 C 0.71912 0.10634 0.05701
 C84 C 0.72226 0.05790 0.05462
 H85 H 0.71355 -0.15506 -0.00490
 H86 H 0.70348 -0.02876 0.09576
 H87 H 0.72793 -0.02587 -0.09745
 H88 H 0.70162 0.04231 -0.09588
 H89 H 0.71380 0.16883 0.00553
 H90 H 0.73126 0.04019 0.09583
 C91 C 0.21195 0.36637 0.49802
 C92 C 0.20739 0.38975 0.55314
 C93 C 0.20503 0.43838 0.55337
 C94 C 0.21019 0.46462 0.49949
 C95 C 0.21728 0.43993 0.44502
 C96 C 0.21639 0.39118 0.44369
 C97 C 0.20953 0.51713 0.50019
 C98 C 0.20342 0.54251 0.44615
 C99 C 0.20555 0.59117 0.44543
 C100 C 0.21038 0.61549 0.49997
 C101 C 0.21518 0.59158 0.55474
 C102 C 0.21638 0.54277 0.55426
 H103 H 0.21573 0.32902 0.49773
 H104 H 0.19963 0.45504 0.59638
 H105 H 0.22445 0.45787 0.40298
 H106 H 0.19750 0.52519 0.40353
 H107 H 0.21404 0.65307 0.49932
 H108 H 0.22363 0.52559 0.59645
 C109 C 0.28891 1.11761 -0.00114
 C110 C 0.29243 1.09334 0.05356
 C111 C 0.29281 1.04467 0.05288
 C112 C 0.28598 1.01930 -0.00124
 C113 C 0.27904 1.04486 -0.05505
 C114 C 0.28268 1.09374 -0.05612
 C115 C 0.28580 0.96674 -0.00140
 C116 C 0.29171 0.94151 -0.05563
 C117 C 0.29190 0.89262 -0.05613
 C118 C 0.28873 0.86859 -0.00068
 C119 C 0.28249 0.89252 0.05367
 C120 C 0.27949 0.94103 0.05271
 H121 H 0.28638 1.15502 0.00019
 H122 H 0.29812 1.02734 0.09550
 H123 H 0.27082 1.02726 -0.09689
 H124 H 0.29686 0.95930 -0.09825
 H125 H 0.28638 0.83102 0.00028
 H126 H 0.27145 0.95800 0.09477
 C127 C 0.78863 0.63365 0.49842
 C128 C 0.79338 0.60995 0.55333
 C129 C 0.79574 0.56142 0.55336
 C130 C 0.79002 0.53536 0.49963
 C131 C 0.78327 0.56030 0.44514
 C132 C 0.78422 0.60917 0.44398
 C133 C 0.78972 0.48280 0.50103
 C134 C 0.79490 0.45666 0.44747
 C135 C 0.79284 0.40790 0.44831
 C136 C 0.78859 0.38443 0.50375
 C137 C 0.78412 0.40917 0.55780
 C138 C 0.78295 0.45786 0.55585
 H139 H 0.78475 0.67098 0.49849
 H140 H 0.80155 0.54475 0.59629
 H141 H 0.77632 0.54248 0.40311
 H142 H 0.80009 0.47346 0.40421
 H143 H 0.78505 0.34684 0.50450
 H144 H 0.77578 0.47548 0.59770
 O145 O 0.31893 0.24903 0.29104
 O146 O 0.23764 0.29017 0.17571
 O147 O 0.25533 0.31040 0.28931
 O148 O 0.30420 0.23170 0.17624
 O149 O 0.25335 0.17645 0.20346
 O150 O 0.20428 0.25534 0.31660
 O151 O 0.18643 0.23529 0.20303
 O152 O 0.26758 0.19408 0.31785
 Cu153 Cu 0.28411 0.27585 0.23027
 Cu154 Cu 0.22270 0.20980 0.26273
 C155 C 0.30649 0.21515 0.32504
 C156 C 0.19852 0.26920 0.16905
 C157 C 0.22237 0.29583 0.32337
 C158 C 0.28673 0.19098 0.16993
 O159 O 0.68303 0.75646 0.29049
 O160 O 0.76396 0.71006 0.17760
 O161 O 0.74401 0.69150 0.29139
 O162 O 0.69799 0.76825 0.17455
 O163 O 0.74917 0.82362 0.19979
 O164 O 0.79634 0.74581 0.31624
 O165 O 0.81587 0.76480 0.20246
 O166 O 0.73578 0.81033 0.31564
 Cu167 Cu 0.71705 0.72606 0.23127
 Cu168 Cu 0.77955 0.79151 0.26095
 C169 C 0.69612 0.79086 0.32304
 C170 C 0.80331 0.73049 0.16978
 C171 C 0.77746 0.70571 0.32442
 C172 C 0.71616 0.80846 0.16635
 O173 O 0.82008 0.25672 0.21088
 O174 O 0.74116 0.20480 0.32654
 O175 O 0.75852 0.18888 0.21160
 O176 O 0.80523 0.26985 0.32644
 O177 O 0.75234 0.32050 0.30145
 O178 O 0.70491 0.23904 0.18753
 O179 O 0.68775 0.25491 0.30168
 O180 O 0.76596 0.30617 0.18615
 Cu181 Cu 0.78656 0.22497 0.27129
 Cu182 Cu 0.72236 0.28521 0.24205
 C183 C 0.80582 0.28963 0.17786
 C184 C 0.70124 0.22159 0.33438
 C185 C 0.72444 0.20056 0.17914
 C186 C 0.78643 0.30873 0.33395
 O187 O 0.26106 0.78908 0.31987
 O188 O 0.18100 0.74011 0.20436
 O189 O 0.19396 0.72746 0.32037
 O190 O 0.24268 0.80792 0.20613
 O191 O 0.29515 0.75684 0.18101
 O192 O 0.24558 0.67557 0.29495
 O193 O 0.23400 0.68957 0.17906
 O194 O 0.31304 0.73759 0.29450
 Cu195 Cu 0.21452 0.77133 0.26509
 Cu196 Cu 0.27716 0.70977 0.23504
 C197 C 0.30036 0.77089 0.32762
 C198 C 0.19460 0.70705 0.17108
 C199 C 0.21189 0.68820 0.32790
 C200 C 0.27646 0.79590 0.17326
 O201 O 0.74703 0.19356 0.80162
 O202 O 0.79631 0.27472 0.68717
 O203 O 0.81374 0.25628 0.80135
 O204 O 0.73273 0.20983 0.68705
 O205 O 0.68147 0.26188 0.71324
 O206 O 0.76281 0.30854 0.82783
 O207 O 0.74537 0.32699 0.71354
 O208 O 0.69680 0.24644 0.82843
 Cu209 Cu 0.77766 0.22844 0.74175
 Cu210 Cu 0.71652 0.29127 0.77327
 C211 C 0.71421 0.20680 0.83552
 C212 C 0.77828 0.31412 0.67968
 C213 C 0.80159 0.28940 0.83523
 C214 C 0.69381 0.22852 0.67974
 O215 O 0.31690 0.74567 0.70530
 O216 O 0.23725 0.69486 0.82022
 O217 O 0.25598 0.67691 0.70607
 O218 O 0.30296 0.75703 0.82116
 O219 O 0.25129 0.80904 0.79627
 O220 O 0.20345 0.72793 0.68115
 O221 O 0.18486 0.74600 0.79513
 O222 O 0.26387 0.79621 0.68034
 Cu223 Cu 0.28347 0.71339 0.76533
 Cu224 Cu 0.22056 0.77481 0.73579
 C225 C 0.30350 0.77918 0.67261
 C226 C 0.19794 0.71289 0.82840
 C227 C 0.22233 0.68896 0.67321
 C228 C 0.28464 0.79605 0.82936
 O229 O 0.24841 0.30566 0.70087
 O230 O 0.29463 0.22897 0.81810
 O231 O 0.31326 0.24406 0.70315
 O232 O 0.23412 0.29244 0.81606
 O233 O 0.18070 0.23874 0.79261
 O234 O 0.26000 0.19056 0.67869
 O235 O 0.24219 0.17454 0.79390
 O236 O 0.19568 0.25145 0.67694
 Cu237 Cu 0.27812 0.27310 0.76150
 Cu238 Cu 0.21440 0.20832 0.73319
 C239 C 0.21437 0.29145 0.66863
 C240 C 0.27538 0.18925 0.82711
 C241 C 0.29992 0.20974 0.67086
 C242 C 0.19438 0.27327 0.82452
 O243 O 0.73743 0.80546 0.67586
 O244 O 0.81756 0.76137 0.79156
 O245 O 0.80440 0.74784 0.67598
 O246 O 0.75598 0.82581 0.78953
 O247 O 0.70354 0.77165 0.81529
 O248 O 0.75278 0.69295 0.70211
 O249 O 0.76458 0.70776 0.81755
 O250 O 0.68541 0.75100 0.70196
 Cu251 Cu 0.78396 0.79068 0.73084
 Cu252 Cu 0.72130 0.72548 0.76167
 C253 C 0.69816 0.78484 0.66830
 C254 C 0.80416 0.72735 0.82489
 C255 C 0.78650 0.70744 0.66902
 C256 C 0.72226 0.81184 0.82262
 C257 C 0.28845 0.11793 0.11210
 C258 C 0.30332 0.16209 0.11991
 H259 H 0.26920 0.10026 0.14801
 H260 H 0.32503 0.17905 0.08584
 C261 C 0.78873 0.63463 0.61148
 C262 C 0.80307 0.67888 0.61888
 H263 H 0.76983 0.61678 0.64757
 H264 H 0.82446 0.69598 0.58458
 C265 C 0.71025 0.88132 0.10802
 C266 C 0.70123 0.83549 0.11384
 H267 H 0.72099 0.90066 0.14791
 H268 H 0.68441 0.81595 0.07789
 C269 C 0.21205 0.36456 0.61108
 C270 C 0.19817 0.32004 0.61820
 H271 H 0.23048 0.38233 0.64738
 H272 H 0.17705 0.30294 0.58390
 C273 C 0.87794 0.29537 0.11695
 C274 C 0.83340 0.30639 0.12566
 H275 H 0.89683 0.28163 0.15507
 H276 H 0.81486 0.32569 0.09189
 C277 C 0.37571 0.78280 0.61306
 C278 C 0.33227 0.79650 0.62196
 H279 H 0.39317 0.76384 0.64833
 H280 H 0.31576 0.81792 0.58840
 C281 C 0.12242 0.70257 0.11096
 C282 C 0.16687 0.69119 0.11894
 H283 H 0.10370 0.71600 0.14949
 H284 H 0.18519 0.67210 0.08470
 C285 C 0.62410 0.23195 0.61593
 C286 C 0.66461 0.21275 0.62909
 H287 H 0.60881 0.25617 0.64717
 H288 H 0.67856 0.18674 0.59923
 C289 C 0.70805 0.13291 0.89245
 C290 C 0.69898 0.17829 0.88757
 H291 H 0.71824 0.11453 0.85197
 H292 H 0.68263 0.19652 0.92429
 C293 C 0.21000 0.61573 0.38683
 C294 C 0.19546 0.65897 0.37862
 H295 H 0.22892 0.59882 0.35101
 H296 H 0.17408 0.67498 0.41269
 C297 C 0.29018 0.86902 0.88804
 C298 C 0.29971 0.82390 0.88173
 H299 H 0.27918 0.88801 0.84841
 H300 H 0.31689 0.80533 0.91745
 C301 C 0.78816 0.38220 0.39067
 C302 C 0.80254 0.33869 0.38389
 H303 H 0.76936 0.39853 0.35436
 H304 H 0.82396 0.32323 0.41825
 C305 C 0.12220 0.27404 0.88468
 C306 C 0.16594 0.28944 0.87520
 H307 H 0.10411 0.25421 0.84990
 H308 H 0.18294 0.31169 0.90842
 C309 C 0.62363 0.78993 0.38214
 C310 C 0.66698 0.80654 0.37320
 H311 H 0.60645 0.76953 0.34714
 H312 H 0.68319 0.82929 0.40649
 C313 C 0.87677 0.72706 0.88387
 C314 C 0.83283 0.71197 0.87562
 H315 H 0.89470 0.74655 0.84839
 H316 H 0.81601 0.68992 0.90947
 C317 C 0.37631 0.22295 0.38864
 C318 C 0.33562 0.20147 0.37606
 H319 H 0.39169 0.24767 0.35677
 H320 H 0.32155 0.17500 0.40651
 C321 C 0.72560 0.88279 0.88504
 C322 C 0.70622 0.84088 0.87277
 H323 H 0.74981 0.89894 0.85316
 H324 H 0.68017 0.82574 0.90296
 C325 C 0.22536 0.36668 0.38617
 C326 C 0.20659 0.32450 0.37407
 H327 H 0.24897 0.38332 0.35395
 H328 H 0.18117 0.30889 0.40480
 C329 C 0.27625 0.11754 0.88887
 C330 C 0.28990 0.16210 0.87975
 H331 H 0.26003 0.09871 0.85170
 H332 H 0.31133 0.18043 0.91258
 C333 C 0.77519 0.63421 0.38671
 C334 C 0.79313 0.67697 0.37522
 H335 H 0.75220 0.61746 0.35413
 H336 H 0.81818 0.69270 0.40603
 C337 C 0.12601 0.71250 0.88926
 C338 C 0.16926 0.69744 0.88025
 H339 H 0.10916 0.72985 0.85205
 H340 H 0.18566 0.67529 0.91295
 C341 C 0.62752 0.21633 0.39139
 C342 C 0.67193 0.20433 0.38490
 H343 H 0.61033 0.23359 0.35443
 H344 H 0.68850 0.18436 0.41991
 C345 C 0.87362 0.28776 0.89521
 C346 C 0.83065 0.30362 0.88695
 H347 H 0.89012 0.27055 0.85757
 H348 H 0.81476 0.32574 0.92014
 C349 C 0.37221 0.77020 0.38826
 C350 C 0.32998 0.78711 0.37800
 H351 H 0.38780 0.74777 0.35504
 H352 H 0.31542 0.81166 0.40939
 C353 C 0.27352 0.86682 0.11085
 C354 C 0.29262 0.82588 0.12298
 H355 H 0.24935 0.88143 0.14277
 H356 H 0.31865 0.81231 0.09283
 C357 C 0.77528 0.38438 0.61570
 C358 C 0.79403 0.34336 0.62840
 H359 H 0.75176 0.39979 0.64777
 H360 H 0.81935 0.32905 0.59782
 C361 C 0.72875 0.13102 0.11452
 C362 C 0.70865 0.17103 0.12859
 H363 H 0.75392 0.11648 0.14502
 H364 H 0.68173 0.18434 0.09973
 C365 C 0.22445 0.61744 0.61161
 C366 C 0.20645 0.65911 0.62282
 H367 H 0.24765 0.60226 0.64416
 H368 H 0.18122 0.67318 0.59206
 C369 C 0.87516 0.73512 0.10888
 C370 C 0.83295 0.71580 0.11947
 H371 H 0.89111 0.75822 0.14200
 H372 H 0.81825 0.69067 0.08790
 C373 C 0.37352 0.20906 0.61357
 C374 C 0.32930 0.19398 0.62065
 H375 H 0.39065 0.22797 0.64997
 H376 H 0.31286 0.17250 0.58618
 C377 C 0.12615 0.26387 0.10956
 C378 C 0.16854 0.28308 0.11883
 H379 H 0.11044 0.24102 0.14340
 H380 H 0.18295 0.30807 0.08661
 C381 C 0.62661 0.77910 0.60720
 C382 C 0.66866 0.79889 0.61751
 H383 H 0.61105 0.75580 0.64065
 H384 H 0.68320 0.82421 0.58583
   
