data_POSCAR
  _audit_creation_date              2014-09-24
  _audit_creation_method            'ToBaCCo'
  _symmetry_space_group_name_H-M    'P1'
  _symmetry_Int_Tables_number       1
  _symmetry_cell_setting            triclinic
  loop_
  _symmetry_equiv_pos_as_xyz
 x,y,z
_cell_length_a 42.0795
_cell_length_b 42.0793
_cell_length_c 42.0686
_cell_angle_alpha 90.004000
_cell_angle_beta 89.999800
_cell_angle_gamma 89.988400
loop_
  _atom_site_label
  _atom_site_type_symbol
  _atom_site_fract_x
  _atom_site_fract_y
  _atom_site_fract_z
N1 N 0.25002 0.25000 0.25002
 N2 N 0.75000 -0.25001 0.25001
 N3 N 0.75007 0.25005 0.75003
 N4 N 0.24996 -0.25003 0.75001
 N5 N 0.75002 -0.24997 0.75002
 N6 N 0.25001 0.25001 0.75001
 N7 N 0.24996 -0.25007 0.25000
 N8 N 0.75005 0.25004 0.25002
 O9 O 0.22371 0.03093 0.46906
 O10 O 0.22371 -0.03096 0.53095
 O11 O 0.22371 0.03092 0.53096
 O12 O 0.22369 -0.03096 0.46905
 O13 O 0.27620 -0.03098 0.46904
 O14 O 0.27621 0.03091 0.53096
 O15 O 0.27621 -0.03098 0.53095
 O16 O 0.27621 0.03091 0.46905
 Cu17 Cu 0.21843 -0.00002 0.50001
 Cu18 Cu 0.28148 -0.00004 0.50000
 C19 C 0.24996 0.04145 0.45853
 C20 C 0.24996 -0.04150 0.54148
 C21 C 0.24996 0.04144 0.54149
 C22 C 0.24994 -0.04149 0.45851
 O23 O 0.77630 0.03097 0.53097
 O24 O 0.77629 -0.03093 0.46906
 O25 O 0.77630 0.03097 0.46906
 O26 O 0.77630 -0.03092 0.53097
 O27 O 0.72379 -0.03090 0.53097
 O28 O 0.72379 0.03098 0.46907
 O29 O 0.72379 -0.03091 0.46906
 O30 O 0.72380 0.03099 0.53097
 Cu31 Cu 0.78157 0.00002 0.50001
 Cu32 Cu 0.71852 0.00004 0.50002
 C33 C 0.75005 0.04151 0.54149
 C34 C 0.75004 -0.04144 0.45853
 C35 C 0.75005 0.04150 0.45854
 C36 C 0.75004 -0.04143 0.54150
 O37 O 0.46910 0.22377 0.03096
 O38 O 0.53099 0.22380 -0.03094
 O39 O 0.53098 0.22378 0.03096
 O40 O 0.46910 0.22379 -0.03095
 O41 O 0.46908 0.27629 -0.03093
 O42 O 0.53097 0.27629 0.03097
 O43 O 0.53097 0.27630 -0.03093
 O44 O 0.46908 0.27628 0.03097
 Cu45 Cu 0.50004 0.21851 0.00000
 Cu46 Cu 0.50002 0.28157 0.00002
 C47 C 0.45856 0.25002 0.04149
 C48 C 0.54151 0.25005 -0.04146
 C49 C 0.54150 0.25004 0.04150
 C50 C 0.45856 0.25004 -0.04147
 O51 O 0.53092 0.77621 0.03096
 O52 O 0.46903 0.77621 -0.03094
 O53 O 0.46904 0.77620 0.03097
 O54 O 0.53092 0.77621 -0.03095
 O55 O 0.53093 0.72370 -0.03095
 O56 O 0.46905 0.72369 0.03096
 O57 O 0.46904 0.72370 -0.03094
 O58 O 0.53094 0.72370 0.03095
 Cu59 Cu 0.49998 0.78148 0.00001
 Cu60 Cu 0.49999 0.71843 0.00000
 C61 C 0.54146 0.74996 0.04149
 C62 C 0.45851 0.74995 -0.04147
 C63 C 0.45852 0.74994 0.04149
 C64 C 0.54145 0.74996 -0.04148
 O65 O 0.03095 0.46904 0.22370
 O66 O -0.03095 0.53093 0.22370
 O67 O 0.03094 0.53093 0.22370
 O68 O -0.03094 0.46904 0.22370
 O69 O -0.03094 0.46904 0.27622
 O70 O 0.03095 0.53093 0.27622
 O71 O -0.03094 0.53094 0.27622
 O72 O 0.03095 0.46904 0.27622
 Cu73 Cu 0.00000 0.49999 0.21842
 Cu74 Cu 0.00000 0.49999 0.28150
 C75 C 0.04148 0.45851 0.24996
 C76 C -0.04147 0.54146 0.24996
 C77 C 0.04147 0.54145 0.24996
 C78 C -0.04146 0.45852 0.24996
 O79 O 0.03096 0.53096 0.77622
 O80 O -0.03093 0.46908 0.77624
 O81 O 0.03096 0.46907 0.77623
 O82 O -0.03093 0.53097 0.77623
 O83 O -0.03093 0.53096 0.72371
 O84 O 0.03096 0.46906 0.72371
 O85 O -0.03093 0.46907 0.72372
 O86 O 0.03095 0.53095 0.72371
 Cu87 Cu 0.00002 0.50002 0.78151
 Cu88 Cu 0.00001 0.50001 0.71844
 C89 C 0.04148 0.54148 0.74996
 C90 C -0.04145 0.45855 0.74998
 C91 C 0.04149 0.45854 0.74997
 C92 C -0.04146 0.54149 0.74997
 N93 N 0.30541 0.27743 0.18877
 C94 C 0.31990 0.24997 0.18021
 N95 N 0.31132 0.22251 0.19470
 N96 N 0.28892 0.22252 0.21708
 C97 C 0.27429 0.24999 0.22578
 N98 N 0.28301 0.27745 0.21115
 C99 C 0.34402 0.24995 0.15610
 C100 C 0.36428 0.24996 0.13584
 C101 C 0.38839 0.24998 0.11172
 N102 N 0.39993 0.22220 0.10017
 N103 N 0.42232 0.22221 0.07776
 C104 C 0.43390 0.25001 0.06617
 N105 N 0.42229 0.27779 0.07779
 N106 N 0.39990 0.27778 0.10020
 N107 N 0.67435 0.76308 0.20904
 C108 C 0.68013 0.74996 0.18019
 N109 N 0.70898 0.73686 0.17439
 N110 N 0.73138 0.73687 0.19677
 C111 C 0.72574 0.74998 0.22577
 N112 N 0.69675 0.76309 0.23143
 C113 C 0.65600 0.74994 0.15609
 C114 C 0.63574 0.74993 0.13583
 C115 C 0.61163 0.74994 0.11171
 N116 N 0.60010 0.77773 0.10018
 N117 N 0.57771 0.77774 0.07778
 C118 C 0.56612 0.74995 0.06616
 N119 N 0.57772 0.72216 0.07776
 N120 N 0.60011 0.72216 0.10016
 N121 N 0.69474 0.27751 -0.18866
 C122 C 0.68025 0.25005 -0.18010
 N123 N 0.68881 0.22260 -0.19461
 N124 N 0.71120 0.22259 -0.21701
 C125 C 0.72583 0.25005 -0.22570
 N126 N 0.71713 0.27751 -0.21106
 C127 C 0.65613 0.25005 -0.15599
 C128 C 0.63587 0.25006 -0.13573
 C129 C 0.61174 0.25006 -0.11163
 N130 N 0.60020 0.22227 -0.10012
 N131 N 0.57779 0.22227 -0.07773
 C132 C 0.56618 0.25006 -0.06612
 N133 N 0.57779 0.27785 -0.07772
 N134 N 0.60020 0.27785 -0.10010
 N135 N 0.31124 0.77740 -0.19463
 C136 C 0.31979 0.74993 -0.18013
 N137 N 0.30528 0.72248 -0.18869
 N138 N 0.28290 0.72250 -0.21109
 C139 C 0.27421 0.74996 -0.22573
 N140 N 0.28885 0.77741 -0.21702
 C141 C 0.34390 0.74992 -0.15601
 C142 C 0.36416 0.74992 -0.13575
 C143 C 0.38829 0.74993 -0.11165
 N144 N 0.39983 0.72215 -0.10011
 N145 N 0.42224 0.72215 -0.07773
 C146 C 0.43384 0.74995 -0.06613
 N147 N 0.42222 0.77774 -0.07773
 N148 N 0.39981 0.77772 -0.10012
 N149 N 0.18869 0.30532 0.27742
 C150 C 0.18016 0.31983 0.24995
 N151 N 0.19470 0.31128 0.22251
 N152 N 0.21710 0.28889 0.22253
 C153 C 0.22577 0.27425 0.25000
 N154 N 0.21108 0.28293 0.27745
 C155 C 0.15604 0.34393 0.24993
 C156 C 0.13578 0.36419 0.24992
 C157 C 0.11167 0.38831 0.24993
 N158 N 0.10013 0.39984 0.22214
 N159 N 0.07774 0.42224 0.22214
 C160 C 0.06614 0.43384 0.24995
 N161 N 0.07775 0.42223 0.27775
 N162 N 0.10014 0.39984 0.27773
 N163 N 0.18873 0.69462 0.72249
 C164 C 0.18015 0.68013 0.74995
 N165 N 0.19462 0.68869 0.77742
 N166 N 0.21700 0.71109 0.77745
 C167 C 0.22572 0.72572 0.74999
 N168 N 0.21111 0.71701 0.72251
 C169 C 0.15604 0.65602 0.74992
 C170 C 0.13579 0.63576 0.74992
 C171 C 0.11167 0.61166 0.74993
 N172 N 0.10015 0.60014 0.77773
 N173 N 0.07775 0.57775 0.77775
 C174 C 0.06614 0.56614 0.74995
 N175 N 0.07774 0.57773 0.72215
 N176 N 0.10014 0.60012 0.72214
 N177 N -0.17436 0.70900 0.26310
 C178 C -0.18015 0.68015 0.24998
 N179 N -0.20900 0.67437 0.23688
 N180 N -0.23140 0.69675 0.23690
 C181 C -0.22575 0.72574 0.25001
 N182 N -0.19676 0.73139 0.26311
 C183 C -0.15603 0.65605 0.24995
 C184 C -0.13577 0.63579 0.24994
 C185 C -0.11166 0.61167 0.24995
 N186 N -0.10013 0.60013 0.22216
 N187 N -0.07774 0.57773 0.22216
 C188 C -0.06614 0.56613 0.24996
 N189 N -0.07774 0.57774 0.27776
 N190 N -0.10013 0.60014 0.27775
 N191 N -0.18869 0.30540 0.72252
 C192 C -0.18012 0.31990 0.74998
 N193 N -0.19459 0.31134 0.77746
 N194 N -0.21697 0.28895 0.77748
 C195 C -0.22569 0.27431 0.75002
 N196 N -0.21107 0.28301 0.72254
 C197 C -0.15602 0.34402 0.74996
 C198 C -0.13576 0.36427 0.74996
 C199 C -0.11165 0.38838 0.74997
 N200 N -0.10012 0.39991 0.77777
 N201 N -0.07772 0.42229 0.77778
 C202 C -0.06612 0.43389 0.74998
 N203 N -0.07772 0.42229 0.72218
 N204 N -0.10011 0.39990 0.72218
 N205 N 0.22250 0.19464 0.31126
 C206 C 0.24996 0.18014 0.31985
 N207 N 0.27743 0.18871 0.30539
 N208 N 0.27745 0.21111 0.28300
 C209 C 0.25000 0.22574 0.27427
 N210 N 0.22252 0.21703 0.28887
 C211 C 0.24993 0.15602 0.34396
 C212 C 0.24992 0.13576 0.36421
 C213 C 0.24994 0.11164 0.38833
 N214 N 0.27773 0.10011 0.39985
 N215 N 0.27774 0.07771 0.42225
 C216 C 0.24995 0.06611 0.43386
 N217 N 0.22216 0.07772 0.42226
 N218 N 0.22215 0.10012 0.39987
 N219 N 0.72259 0.18879 0.69468
 C220 C 0.75004 0.18022 0.68017
 N221 N 0.77751 0.19471 0.68872
 N222 N 0.77752 0.21710 0.71112
 C223 C 0.75006 0.22581 0.72577
 N224 N 0.72260 0.21118 0.71708
 C225 C 0.75003 0.15611 0.65605
 C226 C 0.75004 0.13584 0.63579
 C227 C 0.75004 0.11172 0.61169
 N228 N 0.77783 0.10018 0.60015
 N229 N 0.77784 0.07778 0.57776
 C230 C 0.75005 0.06618 0.56616
 N231 N 0.72226 0.07778 0.57776
 N232 N 0.72226 0.10018 0.60016
 N233 N 0.22250 -0.19468 0.68872
 C234 C 0.24996 -0.18018 0.68017
 N235 N 0.27741 -0.18873 0.69468
 N236 N 0.27742 -0.21112 0.71707
 C237 C 0.24996 -0.22577 0.72576
 N238 N 0.22250 -0.21707 0.71111
 C239 C 0.24995 -0.15606 0.65606
 C240 C 0.24994 -0.13581 0.63579
 C241 C 0.24995 -0.11170 0.61168
 N242 N 0.22216 -0.10016 0.60014
 N243 N 0.22216 -0.07776 0.57775
 C244 C 0.24996 -0.06617 0.56614
 N245 N 0.27775 -0.07778 0.57775
 N246 N 0.27774 -0.10017 0.60015
 N247 N 0.73688 -0.17437 0.29099
 C248 C 0.75001 -0.18014 0.31984
 N249 N 0.76313 -0.20898 0.32563
 N250 N 0.76313 -0.23138 0.30325
 C251 C 0.75001 -0.22575 0.27426
 N252 N 0.73688 -0.19676 0.26860
 C253 C 0.74999 -0.15603 0.34396
 C254 C 0.74998 -0.13576 0.36422
 C255 C 0.75000 -0.11165 0.38833
 N256 N 0.77780 -0.10013 0.39986
 N257 N 0.77781 -0.07773 0.42225
 C258 C 0.75003 -0.06611 0.43387
 N259 N 0.72223 -0.07770 0.42227
 N260 N 0.72222 -0.10010 0.39987
 N261 N 0.68871 0.77743 -0.19463
 C262 C 0.68016 0.74996 -0.18015
 N263 N 0.69467 0.72251 -0.18873
 N264 N 0.71707 0.72253 -0.21112
 C265 C 0.72576 0.75001 -0.22573
 N266 N 0.71111 0.77746 -0.21701
 C267 C 0.65604 0.74993 -0.15605
 C268 C 0.63577 0.74993 -0.13579
 C269 C 0.61165 0.74994 -0.11168
 N270 N 0.60012 0.72215 -0.10014
 N271 N 0.57773 0.72216 -0.07775
 C272 C 0.56612 0.74995 -0.06615
 N273 N 0.57772 0.77774 -0.07776
 N274 N 0.60012 0.77773 -0.10015
 N275 N 0.29103 0.26315 -0.17436
 C276 C 0.31987 0.25002 -0.18015
 N277 N 0.32564 0.23688 -0.20900
 N278 N 0.30325 0.23688 -0.23139
 C279 C 0.27427 0.25001 -0.22574
 N280 N 0.26863 0.26314 -0.19675
 C281 C 0.34398 0.25001 -0.15604
 C282 C 0.36424 0.25002 -0.13578
 C283 C 0.38836 0.25003 -0.11167
 N284 N 0.39991 0.22224 -0.10014
 N285 N 0.42231 0.22224 -0.07775
 C286 C 0.43390 0.25004 -0.06614
 N287 N 0.42228 0.27783 -0.07773
 N288 N 0.39988 0.27782 -0.10013
 N289 N 0.32562 0.76302 0.20905
 C290 C 0.31985 0.74990 0.18020
 N291 N 0.29100 0.73680 0.17439
 N292 N 0.26860 0.73681 0.19677
 C293 C 0.27423 0.74992 0.22577
 N294 N 0.30321 0.76302 0.23143
 C295 C 0.34397 0.74989 0.15610
 C296 C 0.36424 0.74989 0.13584
 C297 C 0.38835 0.74991 0.11172
 N298 N 0.39989 0.72212 0.10017
 N299 N 0.42228 0.72213 0.07777
 C300 C 0.43386 0.74993 0.06617
 N301 N 0.42225 0.77772 0.07779
 N302 N 0.39986 0.77770 0.10019
 N303 N 0.68877 0.22257 0.19468
 C304 C 0.68018 0.25003 0.18019
 N305 N 0.69466 0.27749 0.18876
 N306 N 0.71706 0.27749 0.21114
 C307 C 0.72579 0.25003 0.22577
 N308 N 0.71117 0.22257 0.21706
 C309 C 0.65606 0.25002 0.15608
 C310 C 0.63580 0.25001 0.13582
 C311 C 0.61169 0.25002 0.11170
 N312 N 0.60016 0.27781 0.10018
 N313 N 0.57776 0.27782 0.07778
 C314 C 0.56616 0.25003 0.06617
 N315 N 0.57777 0.22223 0.07776
 N316 N 0.60016 0.22223 0.10016
 N317 N -0.18871 0.69469 0.72250
 C318 C -0.18015 0.68018 0.74995
 N319 N -0.19464 0.68872 0.77743
 N320 N -0.21703 0.71112 0.77745
 C321 C -0.22573 0.72577 0.75000
 N322 N -0.21110 0.71709 0.72252
 C323 C -0.15604 0.65606 0.74993
 C324 C -0.13578 0.63579 0.74993
 C325 C -0.11167 0.61168 0.74994
 N326 N -0.10013 0.60014 0.72215
 N327 N -0.07773 0.57775 0.72215
 C328 C -0.06613 0.56615 0.74996
 N329 N -0.07774 0.57777 0.77775
 N330 N -0.10014 0.60016 0.77774
 N331 N -0.19465 0.31131 0.22251
 C332 C -0.18010 0.31984 0.24996
 N333 N -0.18862 0.30533 0.27743
 N334 N -0.21101 0.28295 0.27745
 C335 C -0.22570 0.27427 0.25000
 N336 N -0.21704 0.28893 0.22253
 C337 C -0.15599 0.34395 0.24993
 C338 C -0.13573 0.36420 0.24993
 C339 C -0.11163 0.38832 0.24994
 N340 N -0.10011 0.39985 0.27774
 N341 N -0.07772 0.42225 0.27775
 C342 C -0.06612 0.43386 0.24995
 N343 N -0.07772 0.42225 0.22215
 N344 N -0.10010 0.39986 0.22215
 N345 N 0.17439 0.29101 0.73689
 C346 C 0.18018 0.31986 0.74999
 N347 N 0.20902 0.32565 0.76310
 N348 N 0.23141 0.30325 0.76311
 C349 C 0.22576 0.27426 0.75001
 N350 N 0.19678 0.26861 0.73690
 C351 C 0.15607 0.34398 0.74996
 C352 C 0.13581 0.36424 0.74995
 C353 C 0.11169 0.38835 0.74996
 N354 N 0.10015 0.39988 0.72217
 N355 N 0.07775 0.42227 0.72217
 C356 C 0.06616 0.43388 0.74997
 N357 N 0.07777 0.42228 0.77777
 N358 N 0.10017 0.39988 0.77776
 N359 N 0.17434 0.70895 0.26309
 C360 C 0.18013 0.68011 0.24997
 N361 N 0.20898 0.67432 0.23686
 N362 N 0.23137 0.69670 0.23688
 C363 C 0.22572 0.72569 0.25000
 N364 N 0.19673 0.73134 0.26310
 C365 C 0.15602 0.65600 0.24994
 C366 C 0.13576 0.63575 0.24993
 C367 C 0.11165 0.61164 0.24994
 N368 N 0.10012 0.60012 0.27774
 N369 N 0.07773 0.57772 0.27775
 C370 C 0.06613 0.56611 0.24995
 N371 N 0.07773 0.57771 0.22215
 N372 N 0.10012 0.60010 0.22215
 N373 N 0.77746 -0.19460 0.68875
 C374 C 0.75000 -0.18010 0.68020
 N375 N 0.72255 -0.18867 0.69470
 N376 N 0.72255 -0.21107 0.71708
 C377 C 0.75001 -0.22571 0.72578
 N378 N 0.77747 -0.21700 0.71114
 C379 C 0.74999 -0.15598 0.65609
 C380 C 0.75000 -0.13572 0.63584
 C381 C 0.75002 -0.11161 0.61171
 N382 N 0.72223 -0.10007 0.60018
 N383 N 0.72224 -0.07768 0.57777
 C384 C 0.75004 -0.06609 0.56617
 N385 N 0.77783 -0.07771 0.57778
 N386 N 0.77781 -0.10010 0.60018
 N387 N 0.23680 -0.20903 0.32562
 C388 C 0.24991 -0.18019 0.31982
 N389 N 0.26303 -0.17442 0.29097
 N390 N 0.26305 -0.19682 0.26859
 C391 C 0.24994 -0.22580 0.27425
 N392 N 0.23682 -0.23143 0.30324
 C393 C 0.24989 -0.15606 0.34393
 C394 C 0.24989 -0.13579 0.36418
 C395 C 0.24990 -0.11168 0.38830
 N396 N 0.27770 -0.10016 0.39982
 N397 N 0.27772 -0.07777 0.42222
 C398 C 0.24993 -0.06615 0.43384
 N399 N 0.22213 -0.07774 0.42224
 N400 N 0.22212 -0.10014 0.39984
 N401 N 0.72257 0.18880 0.30539
 C402 C 0.75003 0.18021 0.31988
 N403 N 0.77750 0.19468 0.31130
 N404 N 0.77750 0.21707 0.28890
 C405 C 0.75004 0.22580 0.27428
 N406 N 0.72258 0.21119 0.28300
 C407 C 0.75002 0.15610 0.34400
 C408 C 0.75001 0.13583 0.36424
 C409 C 0.75003 0.11171 0.38835
 N410 N 0.77782 0.10017 0.39987
 N411 N 0.77783 0.07777 0.42226
 C412 C 0.75004 0.06617 0.43387
 N413 N 0.72225 0.07778 0.42227
 N414 N 0.72224 0.10018 0.39989
 N415 N 0.23688 0.20899 0.67438
 C416 C 0.24998 0.18014 0.68018
 N417 N 0.26310 0.17436 0.70903
 N418 N 0.26311 0.19676 0.73142
 C419 C 0.25001 0.22575 0.72576
 N420 N 0.23689 0.23139 0.69677
 C421 C 0.24996 0.15601 0.65608
 C422 C 0.24995 0.13575 0.63582
 C423 C 0.24996 0.11163 0.61170
 N424 N 0.27775 0.10010 0.60017
 N425 N 0.27775 0.07770 0.57777
 C426 C 0.24996 0.06610 0.56616
 N427 N 0.22217 0.07771 0.57777
 N428 N 0.22217 0.10011 0.60016
   
