data_POSCAR
  _audit_creation_date              2014-09-24
  _audit_creation_method            'ToBaCCo'
  _symmetry_space_group_name_H-M    'P1'
  _symmetry_Int_Tables_number       1
  _symmetry_cell_setting            triclinic
  loop_
  _symmetry_equiv_pos_as_xyz
 x,y,z
_cell_length_a 47.8910
_cell_length_b 48.0147
_cell_length_c 47.7499
_cell_angle_alpha 90.052100
_cell_angle_beta 89.990500
_cell_angle_gamma 90.037900
loop_
  _atom_site_label
  _atom_site_type_symbol
  _atom_site_fract_x
  _atom_site_fract_y
  _atom_site_fract_z
N1 N 0.14671 0.16635 0.22376
 N2 N 0.16669 0.14768 0.22446
 C3 C 0.16210 0.13031 0.24617
 C4 C 0.13783 0.13859 0.25992
 C5 C 0.12876 0.16161 0.24484
 H6 H 0.17555 0.11307 0.25152
 H7 H 0.11063 0.17433 0.24885
 Cu8 Cu 0.19676 0.14838 0.19691
 Cu9 Cu 0.14553 0.19599 0.19614
 Cu10 Cu 0.19801 0.19743 0.14625
 N11 N 0.22555 0.14886 0.16808
 N12 N 0.22600 0.16798 0.14842
 C13 C 0.24798 0.16335 0.13144
 C14 C 0.26226 0.13994 0.14088
 C15 C 0.24719 0.13140 0.16426
 H16 H 0.25301 0.17620 0.11358
 H17 H 0.25149 0.11380 0.17762
 N18 N 0.16768 0.22531 0.14772
 N19 N 0.14769 0.22446 0.16669
 C20 C 0.13026 0.24601 0.16260
 C21 C 0.13960 0.26142 0.13996
 C22 C 0.16344 0.24756 0.13101
 H23 H 0.11207 0.25012 0.17528
 H24 H 0.17688 0.25338 0.11381
 H25 H 0.16691 0.17451 0.16502
 H26 H 0.18813 0.19770 0.18817
 N27 N -0.14555 0.83841 0.21855
 N28 N -0.16845 0.85262 0.22350
 C29 C -0.16516 0.86739 0.24726
 C30 C -0.13867 0.86217 0.25782
 C31 C -0.12685 0.84369 0.23888
 H32 H -0.18093 0.88080 0.25620
 H33 H -0.10613 0.83481 0.23958
 Cu34 Cu -0.19995 0.85101 0.19788
 Cu35 Cu -0.14156 0.81466 0.18576
 Cu36 Cu -0.20333 0.79909 0.15103
 N37 N -0.22753 0.85100 0.16799
 N38 N -0.22911 0.83054 0.14980
 C39 C -0.25068 0.83523 0.13235
 C40 C -0.26337 0.86023 0.13988
 C41 C -0.24785 0.86954 0.16268
 H42 H -0.25657 0.82125 0.11561
 H43 H -0.25103 0.88824 0.17485
 N44 N -0.16910 0.77670 0.14697
 N45 N -0.14546 0.78318 0.15956
 C46 C -0.12609 0.76397 0.15307
 C47 C -0.13801 0.74436 0.13542
 C48 C -0.16535 0.75324 0.13195
 H49 H -0.10498 0.76410 0.16106
 H50 H -0.18155 0.74311 0.11990
 H51 H -0.17442 0.82805 0.16009
 H52 H -0.18249 0.80389 0.18959
 N53 N -0.14765 0.16861 -0.22372
 N54 N -0.16737 0.14960 -0.22439
 C55 C -0.16298 0.13267 -0.24648
 C56 C -0.13919 0.14152 -0.26050
 C57 C -0.13009 0.16445 -0.24530
 H58 H -0.17622 0.11528 -0.25196
 H59 H -0.11202 0.17726 -0.24950
 Cu60 Cu -0.19690 0.14892 -0.19634
 Cu61 Cu -0.14620 0.19750 -0.19507
 Cu62 Cu -0.19778 0.19604 -0.14419
 N63 N -0.22532 0.14804 -0.16716
 N64 N -0.22551 0.16650 -0.14686
 C65 C -0.24719 0.16130 -0.12972
 C66 C -0.26161 0.13820 -0.13972
 C67 C -0.24691 0.13042 -0.16362
 H68 H -0.25196 0.17362 -0.11141
 H69 H -0.25147 0.11327 -0.17753
 N70 N -0.16795 0.22433 -0.14501
 N71 N -0.14831 0.22493 -0.16436
 C72 C -0.13131 0.24675 -0.15934
 C73 C -0.14066 0.26065 -0.13564
 C74 C -0.16397 0.24571 -0.12719
 H75 H -0.11354 0.25216 -0.17216
 H76 H -0.17722 0.25008 -0.10943
 H77 H -0.16635 0.17453 -0.16460
 H78 H -0.18844 0.19808 -0.18643
 N79 N 0.14552 0.83334 -0.22299
 N80 N 0.16463 0.85297 -0.22291
 C81 C 0.16003 0.87022 -0.24468
 C82 C 0.13672 0.86091 -0.25923
 C83 C 0.12814 0.83740 -0.24471
 H84 H 0.17275 0.88815 -0.24954
 H85 H 0.11061 0.82406 -0.24949
 Cu86 Cu 0.19364 0.85382 -0.19436
 Cu87 Cu 0.14445 0.80385 -0.19506
 Cu88 Cu 0.19584 0.80505 -0.14395
 N89 N 0.22242 0.85419 -0.16557
 N90 N 0.22314 0.83510 -0.14591
 C91 C 0.24499 0.84004 -0.12891
 C92 C 0.25898 0.86363 -0.13834
 C93 C 0.24384 0.87196 -0.16175
 H94 H 0.25021 0.82719 -0.11111
 H95 H 0.24801 0.88956 -0.17517
 N96 N 0.16639 0.77636 -0.14554
 N97 N 0.14687 0.77586 -0.16502
 C98 C 0.13010 0.75377 -0.16055
 C99 C 0.13945 0.73958 -0.13709
 C100 C 0.16253 0.75462 -0.12818
 H101 H 0.11247 0.74837 -0.17358
 H102 H 0.17563 0.75015 -0.11035
 H103 H 0.16385 0.82622 -0.16362
 H104 H 0.18669 0.80416 -0.18623
 N105 N 0.16468 1.14756 0.77673
 N106 N 0.14459 1.16613 0.77814
 C107 C 0.12693 1.16217 0.75660
 C108 C 0.13636 1.13989 0.74073
 C109 C 0.16044 1.13115 0.75425
 H110 H 0.10855 1.17464 0.75283
 H111 H 0.17410 1.11431 0.74813
 Cu112 Cu 0.14336 1.19408 0.80762
 Cu113 Cu 0.19491 1.14616 0.80398
 Cu114 Cu 0.19463 1.19680 0.85558
 N115 N 0.14436 1.22296 0.83625
 N116 N 0.16457 1.22384 0.85479
 C117 C 0.16053 1.24563 0.87197
 C118 C 0.13639 1.25934 0.86391
 C119 C 0.12670 1.24429 0.84104
 H120 H 0.17438 1.25110 0.88896
 H121 H 0.10819 1.24847 0.82883
 N122 N 0.22334 1.16774 0.85313
 N123 N 0.22359 1.14836 0.83356
 C124 C 0.24578 1.13161 0.83781
 C125 C 0.26019 1.14091 0.86124
 C126 C 0.24522 1.16388 0.87030
 H127 H 0.25096 1.11394 0.82479
 H128 H 0.24977 1.17687 0.88819
 H129 H 0.17319 1.16443 0.83633
 H130 H 0.19361 1.18810 0.81294
 N131 N 0.83389 0.85324 0.77705
 N132 N 0.85339 0.83402 0.77728
 C133 C 0.87086 0.83851 0.75556
 C134 C 0.86175 0.86185 0.74098
 C135 C 0.83819 0.87050 0.75539
 H136 H 0.88879 0.82573 0.75076
 H137 H 0.82488 0.88796 0.75050
 Cu138 Cu 0.85345 0.80515 0.80604
 Cu139 Cu 0.80404 0.85483 0.80448
 Cu140 Cu 0.80328 0.80402 0.85568
 N141 N 0.85275 0.77667 0.83514
 N142 N 0.83305 0.77648 0.85430
 C143 C 0.83719 0.75490 0.87169
 C144 C 0.86082 0.74057 0.86315
 C145 C 0.87014 0.75508 0.83978
 H146 H 0.82376 0.75004 0.88919
 H147 H 0.88820 0.75034 0.82710
 N148 N 0.77501 0.83375 0.85348
 N149 N 0.77546 0.85311 0.83394
 C150 C 0.75370 0.87037 0.83777
 C151 C 0.73861 0.86156 0.86088
 C152 C 0.75284 0.83821 0.87030
 H153 H 0.74925 0.88809 0.82462
 H154 H 0.74745 0.82530 0.88801
 H155 H 0.82569 0.83519 0.83641
 H156 H 0.80360 0.81261 0.81345
 N157 N 0.17180 0.84749 1.22898
 N158 N 0.14976 0.83143 1.22620
 C159 C 0.13100 0.83804 1.24613
 C160 C 0.14194 0.85942 1.26236
 C161 C 0.16796 0.86475 1.25081
 H162 H 0.11095 0.82799 1.24858
 H163 H 0.18325 0.87978 1.25782
 Cu164 Cu 0.14866 0.80266 1.19753
 Cu165 Cu 0.20410 0.84427 1.20448
 Cu166 Cu 0.18923 0.81219 1.14110
 N167 N 0.14730 0.77723 1.16590
 N168 N 0.16323 0.78107 1.14383
 C169 C 0.15811 0.76082 1.12503
 C170 C 0.13795 0.74314 1.13595
 C171 C 0.13158 0.75433 1.16197
 H172 H 0.16841 0.75923 1.10495
 H173 H 0.11692 0.74625 1.17713
 N174 N 0.22182 0.83665 1.14677
 N175 N 0.22783 0.84811 1.17115
 C176 C 0.25138 0.86314 1.16863
 C177 C 0.26085 0.86103 1.14130
 C178 C 0.24157 0.84394 1.12806
 H179 H 0.26082 0.87478 1.18555
 H180 H 0.24174 0.83740 1.10640
 H181 H 0.17595 0.83831 1.17365
 H182 H 0.19722 0.80693 1.18232
 N183 N 0.83969 1.14130 1.21600
 N184 N 0.85764 1.16190 1.21763
 C185 C 0.87267 1.15918 1.24132
 C186 C 0.86365 1.13545 1.25528
 C187 C 0.84269 1.12467 1.23841
 H188 H 0.88893 1.17342 1.24778
 H189 H 0.83063 1.10595 1.24184
 Cu190 Cu 0.86028 1.18956 1.18802
 Cu191 Cu 0.81437 1.13710 1.18457
 Cu192 Cu 0.80547 1.19642 1.14412
 N193 N 0.85608 1.22186 1.16401
 N194 N 0.83450 1.22473 1.14728
 C195 C 0.83714 1.24871 1.13294
 C196 C 0.86173 1.26165 1.14113
 C197 C 0.87314 1.24391 1.16096
 H198 H 0.82232 1.25598 1.11753
 H199 H 0.89262 1.24654 1.17206
 N200 N 0.77894 1.16494 1.14385
 N201 N 0.78291 1.14216 1.15874
 C202 C 0.76172 1.12439 1.15409
 C203 C 0.74341 1.13640 1.13522
 C204 C 0.75508 1.16214 1.12912
 H205 H 0.75983 1.10418 1.16385
 H206 H 0.74669 1.17779 1.11523
 H207 H 0.83084 1.16418 1.15431
 H208 H 0.81071 1.17973 1.18388
 N209 N 0.52966 1.03010 1.04951
 N210 N 0.55126 1.03293 1.06640
 N211 N 0.47094 1.05032 1.03089
 N212 N 0.44950 1.06727 1.03449
 N213 N 0.47096 1.03078 1.05010
 N214 N 0.44964 1.03390 1.06728
 N215 N 0.52982 1.04956 1.03022
 N216 N 0.55159 1.06615 1.03346
 C217 C 0.56476 1.05553 1.05618
 C218 C 0.43643 1.05678 1.05737
 N219 N 0.46988 1.03128 0.95111
 N220 N 0.44820 1.03486 0.93443
 N221 N 0.52925 1.04976 0.96990
 N222 N 0.55112 1.06617 0.96647
 N223 N 0.52861 1.03047 0.95041
 N224 N 0.54997 1.03324 0.93320
 N225 N 0.47046 1.05057 0.97060
 N226 N 0.44921 1.06778 0.96773
 Mn227 Mn 0.50013 1.05042 1.00040
 C228 C 0.43551 1.05776 0.94504
 C229 C 0.56384 1.05563 0.94342
 N230 N 0.47022 0.97088 1.04978
 N231 N 0.44889 0.96800 1.06700
 N232 N 0.52859 0.95085 1.02978
 N233 N 0.55019 0.93398 1.03279
 N234 N 0.52888 0.97026 1.04915
 N235 N 0.55059 0.96717 1.06581
 N236 N 0.46969 0.95156 1.03032
 N237 N 0.44788 0.93505 1.03373
 Mn238 Mn 0.49993 1.00050 1.04995
 C239 C 0.43513 0.94555 1.05677
 C240 C 0.56370 0.94443 1.05544
 N241 N 0.52776 0.97059 0.95011
 N242 N 0.54914 0.96750 0.93299
 N243 N 0.46900 0.95182 0.97000
 N244 N 0.44716 0.93530 0.96677
 N245 N 0.46910 0.97137 0.95080
 N246 N 0.44743 0.96869 0.93399
 N247 N 0.52787 0.95113 0.96941
 N248 N 0.54938 0.93429 0.96594
 Mn249 Mn 0.49882 1.00092 0.95027
 Mn250 Mn 0.49879 0.95094 0.99987
 Cl251 Cl 0.49942 1.00070 1.00012
 C252 C 0.56242 0.94473 0.94305
 C253 C 0.43391 0.94608 0.94414
 N254 N 0.02997 0.47208 0.05157
 N255 N 0.03312 0.45090 0.06887
 N256 N 0.04983 0.52998 0.03089
 N257 N 0.06686 0.55146 0.03316
 N258 N 0.03069 0.53071 0.05055
 N259 N 0.03419 0.55273 0.06674
 N260 N 0.04898 0.47136 0.03179
 N261 N 0.06559 0.44967 0.03509
 C262 C 0.05547 0.43711 0.05837
 C263 C 0.05691 0.56545 0.05567
 N264 N 0.02944 0.52936 -0.04843
 N265 N 0.03280 0.55091 -0.06532
 N266 N 0.04812 0.47061 -0.02841
 N267 N 0.06461 0.44884 -0.03121
 N268 N 0.02870 0.47059 -0.04781
 N269 N 0.03149 0.44869 -0.06437
 N270 N 0.04902 0.52904 -0.02920
 N271 N 0.06620 0.55024 -0.03246
 Mn272 Mn 0.04930 0.50021 0.00125
 C273 C 0.05592 0.56370 -0.05510
 C274 C 0.05407 0.43535 -0.05374
 N275 N -0.02940 0.53139 0.05135
 N276 N -0.03193 0.55336 0.06778
 N277 N -0.04964 0.47248 0.03319
 N278 N -0.06664 0.45117 0.03707
 N279 N -0.03006 0.47282 0.05241
 N280 N -0.03320 0.45179 0.06988
 N281 N -0.04915 0.53115 0.03230
 N282 N -0.06567 0.55296 0.03527
 Mn283 Mn 0.00030 0.50178 0.05182
 C284 C -0.05470 0.56661 0.05755
 C285 C -0.05614 0.43847 0.06010
 N286 N -0.03144 0.47124 -0.04701
 N287 N -0.03503 0.44944 -0.06351
 N288 N -0.04993 0.53017 -0.02792
 N289 N -0.06659 0.55182 -0.03080
 N290 N -0.03084 0.52997 -0.04766
 N291 N -0.03405 0.55153 -0.06454
 N292 N -0.05044 0.47162 -0.02718
 N293 N -0.06747 0.45015 -0.02969
 Mn294 Mn -0.00104 0.50031 -0.04814
 Mn295 Mn -0.05014 0.50133 0.00259
 Cl296 Cl -0.00041 0.50090 0.00187
 C297 C -0.05765 0.43650 -0.05248
 C298 C -0.05652 0.56495 -0.05375
 N299 N 0.94997 -0.03012 0.46997
 N300 N 0.93326 -0.03364 0.44824
 N301 N 0.96924 -0.04891 0.52907
 N302 N 0.96613 -0.06555 0.55086
 N303 N 0.94982 -0.02963 0.52894
 N304 N 0.93300 -0.03261 0.55059
 N305 N 0.96963 -0.04916 0.47012
 N306 N 0.96684 -0.06612 0.44856
 C307 C 0.94403 -0.05625 0.43510
 C308 C 0.94336 -0.05514 0.56407
 N309 N 1.04848 -0.02895 0.52974
 N310 N 1.06506 -0.03211 0.55165
 N311 N 1.02981 -0.04866 0.47046
 N312 N 1.03327 -0.06536 0.44874
 N313 N 1.04910 -0.02923 0.47077
 N314 N 1.06615 -0.03211 0.44928
 N315 N 1.02923 -0.04842 0.52936
 N316 N 1.03213 -0.06529 0.55091
 Mn317 Mn 0.99948 -0.04913 0.49972
 C318 C 1.05457 -0.05495 0.56464
 C319 C 1.05609 -0.05477 0.43574
 N320 N 0.94938 0.03043 0.52868
 N321 N 0.93262 0.03387 0.55042
 N322 N 0.96885 0.04916 0.46933
 N323 N 0.96549 0.06576 0.44755
 N324 N 0.94949 0.02980 0.46968
 N325 N 0.93245 0.03269 0.44819
 N326 N 0.96863 0.04989 0.52824
 N327 N 0.96554 0.06705 0.54958
 Mn328 Mn 0.94930 0.00011 0.49935
 C329 C 0.94297 0.05690 0.56324
 C330 C 0.94263 0.05524 0.43457
 N331 N 1.04869 0.03064 0.47017
 N332 N 1.06558 0.03378 0.44850
 N333 N 1.02859 0.05034 0.52864
 N334 N 1.03135 0.06750 0.55004
 N335 N 1.04806 0.03112 0.52921
 N336 N 1.06458 0.03467 0.55105
 N337 N 1.02897 0.04960 0.46979
 N338 N 1.03189 0.06614 0.44797
 Mn339 Mn 1.04896 0.00089 0.50002
 Mn340 Mn 0.99876 0.05007 0.49896
 Cl341 Cl 0.99912 0.00048 0.49951
 C342 C 1.05484 0.05611 0.43487
 C343 C 1.05392 0.05752 0.56383
 C344 C 1.10005 0.10425 0.33293
 C345 C 1.12475 0.09239 0.32192
 C346 C 1.13711 0.10363 0.29768
 C347 C 1.12529 0.12682 0.28399
 C348 C 1.10056 0.13820 0.29508
 C349 C 1.08817 0.12718 0.31904
 C350 C 1.08770 0.09198 0.35903
 C351 C 1.06331 0.10254 0.37167
 C352 C 1.05282 0.09071 0.39615
 C353 C 1.06625 0.06804 0.40874
 C354 C 1.09043 0.05712 0.39626
 C355 C 1.10125 0.06895 0.37158
 C356 C 1.13704 0.06946 0.33525
 C357 C 1.12555 0.05799 0.35950
 H358 H 1.15594 0.06027 0.32684
 H359 H 1.13593 0.04032 0.36903
 H360 H 1.15606 0.09422 0.28977
 H361 H 1.09039 0.15586 0.28550
 H362 H 1.03407 0.09947 0.40528
 H363 H 1.10092 0.03953 0.40582
 H364 H 1.06932 0.13708 0.32628
 H365 H 1.05198 0.11996 0.36315
 C366 C 0.89903 -0.10466 0.33305
 C367 C 0.87445 -0.09255 0.32201
 C368 C 0.86227 -0.10342 0.29754
 C369 C 0.87422 -0.12630 0.28365
 C370 C 0.89864 -0.13817 0.29464
 C371 C 0.91088 -0.12757 0.31895
 C372 C 0.91129 -0.09254 0.35931
 C373 C 0.93558 -0.10320 0.37205
 C374 C 0.94606 -0.09131 0.39657
 C375 C 0.93270 -0.06850 0.40906
 C376 C 0.90858 -0.05760 0.39652
 C377 C 0.89779 -0.06944 0.37185
 C378 C 0.86216 -0.06967 0.33542
 C379 C 0.87358 -0.05836 0.35977
 H380 H 0.84336 -0.06035 0.32696
 H381 H 0.86325 -0.04067 0.36933
 H382 H 0.84358 -0.09379 0.28927
 H383 H 0.90831 -0.15595 0.28467
 H384 H 0.96476 -0.10007 0.40578
 H385 H 0.89812 -0.03993 0.40601
 H386 H 0.92956 -0.13771 0.32629
 H387 H 0.94683 -0.12069 0.36353
 C388 C 0.89818 0.10688 0.66462
 C389 C 0.87471 0.09390 0.67701
 C390 C 0.86269 0.10517 0.70140
 C391 C 0.87362 0.12942 0.71380
 C392 C 0.89692 0.14215 0.70136
 C393 C 0.90903 0.13112 0.67721
 C394 C 0.91033 0.09429 0.63854
 C395 C 0.93372 0.10562 0.62472
 C396 C 0.94413 0.09332 0.60041
 C397 C 0.93159 0.06942 0.58914
 C398 C 0.90840 0.05779 0.60278
 C399 C 0.89772 0.07002 0.62733
 C400 C 0.86331 0.06980 0.66497
 C401 C 0.87454 0.05815 0.64067
 H402 H 0.84534 0.05982 0.67444
 H403 H 0.86489 0.03955 0.63218
 H404 H 0.84478 0.09490 0.71059
 H405 H 0.90597 0.16086 0.71012
 H406 H 0.96213 0.10266 0.59038
 H407 H 0.89863 0.03924 0.59428
 H408 H 0.92681 0.14202 0.66876
 H409 H 0.94433 0.12395 0.63224
 C410 C 1.09911 -0.10426 0.66624
 C411 C 1.12293 -0.09158 0.67829
 C412 C 1.13504 -0.10290 0.70258
 C413 C 1.12382 -0.12687 0.71523
 C414 C 1.10012 -0.13924 0.70317
 C415 C 1.08794 -0.12818 0.67911
 C416 C 1.08694 -0.09175 0.64019
 C417 C 1.06332 -0.10290 0.62663
 C418 C 1.05297 -0.09077 0.60226
 C419 C 1.06580 -0.06719 0.59068
 C420 C 1.08919 -0.05569 0.60409
 C421 C 1.09983 -0.06778 0.62869
 C422 C 1.13458 -0.06776 0.66600
 C423 C 1.12329 -0.05613 0.64175
 H424 H 1.15279 -0.05799 0.67523
 H425 H 1.13315 -0.03774 0.63304
 H426 H 1.15328 -0.09294 0.71147
 H427 H 1.09076 -0.15766 0.71218
 H428 H 1.03482 -0.10000 0.59240
 H429 H 1.09918 -0.03739 0.59534
 H430 H 1.06984 -0.13880 0.67098
 H431 H 1.05250 -0.12101 0.63437
 C432 C 0.33557 1.10251 1.10705
 C433 C 0.32391 1.12640 1.09433
 C434 C 0.29967 1.13867 1.10551
 C435 C 0.28655 1.12757 1.12948
 C436 C 0.29837 1.10374 1.14188
 C437 C 0.32239 1.09144 1.13092
 C438 C 0.36152 1.09011 1.09459
 C439 C 0.37470 1.06634 1.10575
 C440 C 0.39890 1.05569 1.09353
 C441 C 0.41069 1.06837 1.06989
 C442 C 0.39772 1.09196 1.05845
 C443 C 0.37330 1.10289 1.07060
 C444 C 0.33652 1.13797 1.07053
 C445 C 0.36066 1.12648 1.05894
 H446 H 0.32762 1.15627 1.06071
 H447 H 0.36960 1.13627 1.04056
 H448 H 0.29125 1.15695 1.09533
 H449 H 0.28930 1.09425 1.16026
 H450 H 0.40844 1.03741 1.10272
 H451 H 0.40663 1.10186 1.04011
 H452 H 0.33024 1.07328 1.14157
 H453 H 0.36676 1.05561 1.12389
 C454 C 0.33221 0.90128 0.89540
 C455 C 0.32053 0.87741 0.90818
 C456 C 0.29629 0.86513 0.89705
 C457 C 0.28318 0.87617 0.87306
 C458 C 0.29494 0.90003 0.86064
 C459 C 0.31898 0.91236 0.87157
 C460 C 0.35828 0.91358 0.90774
 C461 C 0.37156 0.93725 0.89646
 C462 C 0.39598 0.94769 0.90845
 C463 C 0.40784 0.93489 0.93198
 C464 C 0.39471 0.91146 0.94358
 C465 C 0.37010 0.90074 0.93165
 C466 C 0.33314 0.86584 0.93196
 C467 C 0.35737 0.87724 0.94344
 H468 H 0.32419 0.84758 0.94184
 H469 H 0.36633 0.86744 0.96179
 H470 H 0.28789 0.84687 0.90728
 H471 H 0.28582 0.90948 0.84227
 H472 H 0.40564 0.96586 0.89916
 H473 H 0.40368 0.90148 0.96184
 H474 H 0.32683 0.93052 0.86091
 H475 H 0.36358 0.94803 0.87837
 C476 C 0.66486 0.89883 1.10433
 C477 C 0.67522 0.87365 1.09301
 C478 C 0.69907 0.86103 1.10466
 C479 C 0.71303 0.87310 1.12768
 C480 C 0.70268 0.89837 1.13844
 C481 C 0.67909 0.91099 1.12702
 C482 C 0.63905 0.91134 1.09176
 C483 C 0.62687 0.93605 1.10196
 C484 C 0.60257 0.94662 1.08996
 C485 C 0.58972 0.93297 1.06743
 C486 C 0.60177 0.90850 1.05683
 C487 C 0.62623 0.89756 1.06889
 C488 C 0.66167 0.86114 1.07022
 C489 C 0.63776 0.87286 1.05838
 H490 H 0.66961 0.84189 1.06142
 H491 H 0.62802 0.86230 1.04084
 H492 H 0.70646 0.84171 1.09566
 H493 H 0.71255 0.90873 1.15592
 H494 H 0.59379 0.96562 1.09847
 H495 H 0.59199 0.89783 1.03937
 H496 H 0.67239 0.93026 1.13644
 H497 H 0.63559 0.94753 1.11928
 C498 C 0.66519 1.10050 0.89403
 C499 C 0.67737 1.12387 0.90731
 C500 C 0.70159 1.13615 0.89616
 C501 C 0.71420 1.12563 0.87165
 C502 C 0.70194 1.10227 0.85872
 C503 C 0.67791 1.08993 0.86966
 C504 C 0.63918 1.08818 0.90646
 C505 C 0.62543 1.06494 0.89479
 C506 C 0.60111 1.05446 0.90694
 C507 C 0.58979 1.06681 0.93100
 C508 C 0.60338 1.08981 0.94297
 C509 C 0.62790 1.10054 0.93091
 C510 C 0.66527 1.13498 0.93160
 C511 C 0.64109 1.12358 0.94314
 H512 H 0.67460 1.15286 0.94184
 H513 H 0.63253 1.13302 0.96190
 H514 H 0.71035 1.15403 0.90680
 H515 H 0.71067 1.09324 0.83993
 H516 H 0.59108 1.03660 0.89736
 H517 H 0.59484 1.09943 0.96165
 H518 H 0.66965 1.07217 0.85860
 H519 H 0.63301 1.05453 0.87629
 C520 C 0.10181 0.33635 0.10695
 C521 C 0.12434 0.32360 0.09267
 C522 C 0.13660 0.29921 0.10343
 C523 C 0.12682 0.28723 0.12843
 C524 C 0.10458 0.30015 0.14253
 C525 C 0.09225 0.32426 0.13202
 C526 C 0.08922 0.36228 0.09482
 C527 C 0.06649 0.37626 0.10727
 C528 C 0.05563 0.40043 0.09531
 C529 C 0.06709 0.41137 0.07067
 C530 C 0.08958 0.39755 0.05792
 C531 C 0.10065 0.37313 0.06976
 C532 C 0.13454 0.33529 0.06781
 C533 C 0.12301 0.35955 0.05665
 H534 H 0.15180 0.32559 0.05684
 H535 H 0.13174 0.36778 0.03741
 H536 H 0.15369 0.28961 0.09216
 H537 H 0.09656 0.29187 0.16196
 H538 H 0.03819 0.41062 0.10548
 H539 H 0.09848 0.40577 0.03875
 H540 H 0.07535 0.33308 0.14400
 H541 H 0.05672 0.36894 0.12622
 C542 C -0.10656 0.33502 -0.09730
 C543 C -0.09361 0.32315 -0.12112
 C544 C -0.10468 0.29892 -0.13341
 C545 C -0.12871 0.28612 -0.12241
 C546 C -0.14137 0.29796 -0.09870
 C547 C -0.13052 0.32199 -0.08631
 C548 C -0.09425 0.36105 -0.08497
 C549 C -0.10560 0.37449 -0.06130
 C550 C -0.09359 0.39886 -0.05083
 C551 C -0.06998 0.41052 -0.06363
 C552 C -0.05833 0.39723 -0.08705
 C553 C -0.07025 0.37267 -0.09777
 C554 C -0.06974 0.33558 -0.13264
 C555 C -0.05833 0.35979 -0.12123
 H556 H -0.05976 0.32650 -0.15085
 H557 H -0.03991 0.36861 -0.13100
 H558 H -0.09447 0.29021 -0.15163
 H559 H -0.15985 0.28883 -0.08952
 H560 H -0.10291 0.40865 -0.03265
 H561 H -0.03999 0.40602 -0.09702
 H562 H -0.14134 0.32999 -0.06822
 H563 H -0.12375 0.36663 -0.05054
 C564 C 0.10545 0.66467 -0.10001
 C565 C 0.09186 0.67743 -0.12296
 C566 C 0.10293 0.70182 -0.13488
 C567 C 0.12759 0.71385 -0.12440
 C568 C 0.14097 0.70102 -0.10166
 C569 C 0.13013 0.67686 -0.08964
 C570 C 0.09303 0.63865 -0.08789
 C571 C 0.10487 0.62459 -0.06490
 C572 C 0.09267 0.60038 -0.05445
 C573 C 0.06837 0.58943 -0.06658
 C574 C 0.05623 0.60329 -0.08938
 C575 C 0.06833 0.62779 -0.10006
 C576 C 0.06735 0.66574 -0.13392
 C577 C 0.05588 0.64145 -0.12275
 H578 H 0.05689 0.67549 -0.15149
 H579 H 0.03694 0.63323 -0.13205
 H580 H 0.09216 0.71132 -0.15235
 H581 H 0.16004 0.70946 -0.09301
 H582 H 0.10241 0.59016 -0.03676
 H583 H 0.03735 0.59505 -0.09880
 H584 H 0.14154 0.66810 -0.07231
 H585 H 0.12352 0.63187 -0.05460
 C586 C -0.09947 0.66957 0.10309
 C587 C -0.12475 0.67951 0.09144
 C588 C -0.13715 0.70392 0.10194
 C589 C -0.12471 0.71883 0.12398
 C590 C -0.09950 0.70903 0.13524
 C591 C -0.08704 0.68481 0.12501
 C592 C -0.08715 0.64318 0.09162
 C593 C -0.06237 0.63129 0.10213
 C594 C -0.05195 0.60650 0.09098
 C595 C -0.06585 0.59294 0.06904
 C596 C -0.09042 0.60466 0.05824
 C597 C -0.10119 0.62952 0.06941
 C598 C -0.13753 0.66503 0.06941
 C599 C -0.12598 0.64063 0.05860
 H600 H -0.15684 0.67266 0.06042
 H601 H -0.13672 0.63020 0.04158
 H602 H -0.15643 0.71132 0.09275
 H603 H -0.08939 0.71982 0.15235
 H604 H -0.03289 0.59794 0.09962
 H605 H -0.10130 0.59432 0.04125
 H606 H -0.06776 0.67840 0.13468
 H607 H -0.05073 0.64065 0.11901
 C608 C 1.09892 0.10652 0.66545
 C609 C 1.12160 0.09264 0.67831
 C610 C 1.13365 0.10353 0.70283
 C611 C 1.12357 0.12828 0.71486
 C612 C 1.10113 0.14197 0.70192
 C613 C 1.08897 0.13132 0.67763
 C614 C 1.08664 0.09426 0.63930
 C615 C 1.06382 0.10630 0.62515
 C616 C 1.05328 0.09423 0.60076
 C617 C 1.06519 0.06991 0.58979
 C618 C 1.08776 0.05758 0.60378
 C619 C 1.09849 0.06949 0.62841
 C620 C 1.13219 0.06805 0.66660
 C621 C 1.12094 0.05677 0.64216
 H622 H 1.14956 0.05740 0.67643
 H623 H 1.12997 0.03776 0.63390
 H624 H 1.15086 0.09253 0.71248
 H625 H 1.09289 0.16119 0.71034
 H626 H 1.03576 0.10408 0.59041
 H627 H 1.09698 0.03865 0.59552
 H628 H 1.07190 0.14295 0.66875
 H629 H 1.05374 0.12499 0.63248
 C630 C 0.89584 -0.10018 0.66631
 C631 C 0.90801 -0.12470 0.67732
 C632 C 0.89699 -0.13698 0.70170
 C633 C 0.87391 -0.12514 0.71546
 C634 C 0.86224 -0.10062 0.70453
 C635 C 0.87295 -0.08834 0.68041
 C636 C 0.90782 -0.08793 0.64005
 C637 C 0.89680 -0.06389 0.62725
 C638 C 0.90847 -0.05341 0.60269
 C639 C 0.93144 -0.06652 0.59019
 C640 C 0.94273 -0.09039 0.60277
 C641 C 0.93106 -0.10122 0.62750
 C642 C 0.93103 -0.13682 0.66391
 C643 C 0.94235 -0.12529 0.63959
 H644 H 0.94045 -0.15554 0.67233
 H645 H 0.96015 -0.13548 0.63003
 H646 H 0.90640 -0.15584 0.70976
 H647 H 0.84465 -0.09061 0.71450
 H648 H 0.89940 -0.03492 0.59343
 H649 H 0.96052 -0.10066 0.59324
 H650 H 0.86290 -0.06958 0.67325
 H651 H 0.87912 -0.05285 0.63570
 C652 C 1.10576 -0.10068 0.33489
 C653 C 1.09388 -0.12543 0.32402
 C654 C 1.10554 -0.13820 0.30025
 C655 C 1.12909 -0.12674 0.28700
 C656 C 1.14055 -0.10201 0.29767
 C657 C 1.12911 -0.08914 0.32121
 C658 C 1.09309 -0.08801 0.36063
 C659 C 1.10366 -0.06366 0.37328
 C660 C 1.09147 -0.05296 0.39753
 C661 C 1.06844 -0.06617 0.40982
 C662 C 1.05750 -0.09025 0.39729
 C663 C 1.06968 -0.10128 0.37291
 C664 C 1.07057 -0.13741 0.33704
 C665 C 1.05871 -0.12558 0.36092
 H666 H 1.06140 -0.15632 0.32871
 H667 H 1.04076 -0.13572 0.37027
 H668 H 1.09645 -0.15734 0.29242
 H669 H 1.15842 -0.09234 0.28780
 H670 H 1.10023 -0.03426 0.40672
 H671 H 1.03964 -0.10056 0.40663
 H672 H 1.13898 -0.07024 0.32831
 H673 H 1.12138 -0.05257 0.36495
 C674 C 0.89475 0.10007 0.33241
 C675 C 0.90919 0.12225 0.31932
 C676 C 0.89893 0.13382 0.29432
 C677 C 0.87427 0.12369 0.28201
 C678 C 0.85986 0.10196 0.29533
 C679 C 0.86987 0.09031 0.32011
 C680 C 0.90658 0.08800 0.35883
 C681 C 0.89415 0.06545 0.37303
 C682 C 0.90597 0.05494 0.39753
 C683 C 0.93042 0.06661 0.40859
 C684 C 0.94309 0.08899 0.39461
 C685 C 0.93145 0.09966 0.36983
 C686 C 0.93379 0.13274 0.33121
 C687 C 0.94462 0.12176 0.35597
 H688 H 0.94486 0.14975 0.32125
 H689 H 0.96369 0.13065 0.36433
 H690 H 0.91040 0.15054 0.28439
 H691 H 0.84060 0.09385 0.28677
 H692 H 0.89585 0.03759 0.40787
 H693 H 0.96212 0.09803 0.40293
 H694 H 0.85773 0.07373 0.32924
 H695 H 0.87538 0.05550 0.36559
 C696 C 0.10162 0.33331 -0.09806
 C697 C 0.08989 0.32244 -0.12299
 C698 C 0.10114 0.29828 -0.13525
 C699 C 0.12403 0.28459 -0.12302
 C700 C 0.13525 0.29532 -0.09809
 C701 C 0.12429 0.31924 -0.08579
 C702 C 0.08945 0.35940 -0.08590
 C703 C 0.10007 0.37207 -0.06150
 C704 C 0.08838 0.39659 -0.05122
 C705 C 0.06578 0.40916 -0.06487
 C706 C 0.05480 0.39666 -0.08905
 C707 C 0.06652 0.37198 -0.09970
 C708 C 0.06711 0.33580 -0.13556
 C709 C 0.05563 0.35998 -0.12413
 H710 H 0.05803 0.32747 -0.15460
 H711 H 0.03805 0.36954 -0.13469
 H712 H 0.09212 0.29039 -0.15447
 H713 H 0.15262 0.28528 -0.08777
 H714 H 0.09719 0.40576 -0.03246
 H715 H 0.03729 0.40624 -0.09972
 H716 H 0.13399 0.32628 -0.06669
 H717 H 0.11748 0.36359 -0.05005
 C718 C -0.10207 0.33785 0.10945
 C719 C -0.12503 0.32538 0.09561
 C720 C -0.13688 0.30074 0.10614
 C721 C -0.12621 0.28810 0.13041
 C722 C -0.10365 0.30074 0.14422
 C723 C -0.09174 0.32522 0.13397
 C724 C -0.08976 0.36394 0.09732
 C725 C -0.06659 0.37766 0.10922
 C726 C -0.05583 0.40180 0.09707
 C727 C -0.06785 0.41296 0.07280
 C728 C -0.09089 0.39950 0.06071
 C729 C -0.10185 0.37512 0.07271
 C730 C -0.13599 0.33750 0.07130
 C731 C -0.12470 0.36185 0.06014
 H732 H -0.15360 0.32799 0.06070
 H733 H -0.13394 0.37036 0.04128
 H734 H -0.15420 0.29129 0.09508
 H735 H -0.09510 0.29184 0.16316
 H736 H -0.03797 0.41176 0.10676
 H737 H -0.10025 0.40792 0.04185
 H738 H -0.07449 0.33383 0.14560
 H739 H -0.05637 0.37012 0.12784
 C740 C -0.10466 0.66647 -0.09874
 C741 C -0.09262 0.67751 -0.12342
 C742 C -0.10379 0.70168 -0.13572
 C743 C -0.12695 0.71522 -0.12378
 C744 C -0.13857 0.70425 -0.09914
 C745 C -0.12767 0.68031 -0.08681
 C746 C -0.09244 0.64045 -0.08646
 C747 C -0.10320 0.62772 -0.06216
 C748 C -0.09138 0.60335 -0.05172
 C749 C -0.06851 0.59094 -0.06511
 C750 C -0.05742 0.60348 -0.08922
 C751 C -0.06924 0.62805 -0.09999
 C752 C -0.06957 0.66431 -0.13572
 C753 C -0.05811 0.64016 -0.12424
 H754 H -0.06025 0.67276 -0.15458
 H755 H -0.04032 0.63075 -0.13460
 H756 H -0.09444 0.70974 -0.15469
 H757 H -0.15624 0.71405 -0.08910
 H758 H -0.10027 0.59415 -0.03302
 H759 H -0.03969 0.59406 -0.09968
 H760 H -0.13769 0.67308 -0.06796
 H761 H -0.12079 0.63611 -0.05089
 C762 C 0.10470 0.66810 0.09866
 C763 C 0.09169 0.68011 0.12238
 C764 C 0.10248 0.70461 0.13428
 C765 C 0.12626 0.71755 0.12297
 C766 C 0.13897 0.70568 0.09933
 C767 C 0.12841 0.68134 0.08732
 C768 C 0.09272 0.64172 0.08681
 C769 C 0.10421 0.62805 0.06335
 C770 C 0.09248 0.60337 0.05333
 C771 C 0.06904 0.59167 0.06637
 C772 C 0.05728 0.60517 0.08959
 C773 C 0.06892 0.63000 0.09989
 C774 C 0.06805 0.66755 0.13420
 C775 C 0.05691 0.64305 0.12320
 H776 H 0.05804 0.67676 0.15234
 H777 H 0.03865 0.63413 0.13317
 H778 H 0.09218 0.71358 0.15234
 H779 H 0.15741 0.71493 0.09015
 H780 H 0.10186 0.59339 0.03528
 H781 H 0.03906 0.59632 0.09974
 H782 H 0.13925 0.67324 0.06930
 H783 H 0.12224 0.63595 0.05244
 C784 C 0.33478 1.10702 0.89919
 C785 C 0.32279 1.09397 0.87547
 C786 C 0.29852 1.10502 0.86318
 C787 C 0.28587 1.12910 0.87412
 C788 C 0.29798 1.14193 0.89761
 C789 C 0.32199 1.13113 0.90996
 C790 C 0.36067 1.09466 0.91170
 C791 C 0.37405 1.10603 0.93539
 C792 C 0.39823 1.09393 0.94611
 C793 C 0.40976 1.07019 0.93357
 C794 C 0.39655 1.05851 0.91010
 C795 C 0.37216 1.07053 0.89912
 C796 C 0.33511 1.07001 0.86413
 C797 C 0.35927 1.05858 0.87567
 H798 H 0.32596 1.05997 0.84597
 H799 H 0.36801 1.04007 0.86605
 H800 H 0.28961 1.09473 0.84509
 H801 H 0.28906 1.16052 0.90670
 H802 H 0.40797 1.10326 0.96432
 H803 H 0.40526 1.04007 0.90033
 H804 H 0.33014 1.14209 0.92789
 H805 H 0.36627 1.12426 0.94602
 C806 C 0.33447 0.89981 1.10655
 C807 C 0.32135 0.87748 1.09232
 C808 C 0.29724 0.86507 1.10357
 C809 C 0.28600 0.87439 1.12908
 C810 C 0.29908 0.89655 1.14306
 C811 C 0.32291 0.90910 1.13202
 C812 C 0.36027 0.91237 1.09399
 C813 C 0.37464 0.93485 1.10638
 C814 C 0.39879 0.94556 1.09411
 C815 C 0.40931 0.93418 1.06924
 C816 C 0.39506 0.91199 1.05650
 C817 C 0.37065 0.90109 1.06862
 C818 C 0.33249 0.86752 1.06709
 C819 C 0.35664 0.87901 1.05555
 H820 H 0.32246 0.85043 1.05617
 H821 H 0.36449 0.87044 1.03607
 H822 H 0.28756 0.84782 1.09262
 H823 H 0.29082 0.90449 1.16258
 H824 H 0.40933 0.96278 1.10428
 H825 H 0.40296 0.90319 1.03714
 H826 H 0.33193 0.92597 1.14387
 H827 H 0.36769 0.94451 1.12553
 C828 C 0.66700 1.10027 1.10366
 C829 C 0.67910 1.12356 1.09012
 C830 C 0.70390 1.13537 1.10053
 C831 C 0.71702 1.12428 1.12434
 C832 C 0.70483 1.10130 1.13775
 C833 C 0.68023 1.08946 1.12764
 C834 C 0.64062 1.08817 1.09185
 C835 C 0.62713 1.06489 1.10368
 C836 C 0.60259 1.05443 1.09198
 C837 C 0.59080 1.06684 1.06823
 C838 C 0.60408 1.08996 1.05615
 C839 C 0.62884 1.10066 1.06774
 C840 C 0.66643 1.13488 1.06626
 C841 C 0.64184 1.12370 1.05533
 H842 H 0.67567 1.15270 1.05586
 H843 H 0.63288 1.13325 1.03684
 H844 H 0.71309 1.15300 1.08981
 H845 H 0.71410 1.09243 1.15636
 H846 H 0.59280 1.03650 1.10165
 H847 H 0.59516 1.09964 1.03770
 H848 H 0.67197 1.07190 1.13900
 H849 H 0.63510 1.05437 1.12193
 C850 C 0.66364 0.89916 0.89435
 C851 C 0.67594 0.87605 0.90796
 C852 C 0.70036 0.86391 0.89707
 C853 C 0.71285 0.87437 0.87259
 C854 C 0.70044 0.89726 0.85921
 C855 C 0.67628 0.90948 0.86986
 C856 C 0.63759 0.91152 0.90655
 C857 C 0.62396 0.93468 0.89467
 C858 C 0.59967 0.94532 0.90666
 C859 C 0.58824 0.93320 0.93075
 C860 C 0.60168 0.91025 0.94293
 C861 C 0.62623 0.89938 0.93106
 C862 C 0.66376 0.86514 0.93229
 C863 C 0.63943 0.87652 0.94355
 H864 H 0.67315 0.84745 0.94275
 H865 H 0.63080 0.86726 0.96236
 H866 H 0.70952 0.84629 0.90779
 H867 H 0.70921 0.90594 0.84028
 H868 H 0.58976 0.96313 0.89693
 H869 H 0.59306 0.90085 0.96168
 H870 H 0.66788 0.92692 0.85845
 H871 H 0.63164 0.94496 0.87615
   
