data_POSCAR
  _audit_creation_date              2014-09-24
  _audit_creation_method            'ToBaCCo'
  _symmetry_space_group_name_H-M    'P1'
  _symmetry_Int_Tables_number       1
  _symmetry_cell_setting            triclinic
  loop_
  _symmetry_equiv_pos_as_xyz
 x,y,z
_cell_length_a 32.3692
_cell_length_b 31.0547
_cell_length_c 31.1552
_cell_angle_alpha 90.154000
_cell_angle_beta 89.814900
_cell_angle_gamma 91.908100
loop_
  _atom_site_label
  _atom_site_type_symbol
  _atom_site_fract_x
  _atom_site_fract_y
  _atom_site_fract_z
Si1 Si 0.74856 0.63099 0.96427
 Si2 Si 0.75715 0.35918 0.46481
 Si3 Si 0.26413 -0.13575 0.01533
 Si4 Si 0.23964 0.12711 0.50932
 Si5 Si 0.12680 0.51280 0.24553
 Si6 Si -0.12979 -0.00853 0.25008
 Si7 Si 0.35955 0.49577 0.74563
 Si8 Si 0.60761 1.02324 0.74602
 Si9 Si -0.00545 0.25532 -0.09906
 Si10 Si 0.49731 0.25135 0.14007
 Si11 Si 1.00082 0.75508 0.64328
 Si12 Si 0.50798 0.74455 0.40563
 C13 C 0.44771 -0.04488 0.32258
 H14 H 0.45244 -0.01216 0.33396
 C15 C 0.47385 -0.07690 0.33634
 H16 H 0.49881 -0.06882 0.35830
 C17 C 0.40897 -0.09566 0.28082
 H18 H 0.38340 -0.10294 0.25952
 C19 C 0.43338 -0.12897 0.29512
 H20 H 0.42676 -0.16171 0.28451
 N21 N 0.41702 -0.05439 0.29400
 C22 C 0.39830 0.07215 0.23688
 H23 H 0.36486 0.07182 0.23653
 C24 C 0.42083 0.10819 0.22182
 H25 H 0.40452 0.13559 0.20992
 C26 C 0.46011 0.03663 0.25234
 H27 H 0.47552 0.00827 0.26278
 C28 C 0.48385 0.07222 0.23818
 H29 H 0.51720 0.07076 0.23844
 Zn30 Zn 0.38442 -0.00905 0.27372
 N31 N 0.41809 0.03764 0.25262
 C32 C 0.35328 0.05029 0.33507
 N33 N 0.35082 0.00918 0.31988
 C34 C 0.32373 -0.02050 0.33702
 C35 C 0.29629 -0.00880 0.36935
 C36 C 0.32667 0.06328 0.36770
 C37 C 0.36885 -0.04695 0.19318
 C38 C 0.34500 -0.06233 0.15877
 C39 C 0.28395 -0.03857 0.19546
 C40 C 0.30890 -0.02399 0.22929
 N41 N 0.35049 -0.02885 0.22783
 H42 H 0.37569 0.07317 0.32186
 H43 H 0.32289 -0.05317 0.32481
 H44 H 0.27482 -0.03297 0.38213
 H45 H 0.32875 0.09626 0.37909
 H46 H 0.40207 -0.04979 0.19253
 H47 H 0.36011 -0.07694 0.13157
 H48 H 0.25093 -0.03471 0.19770
 H49 H 0.29493 -0.00844 0.25648
 C50 C 0.46415 0.10878 0.22310
 C51 C 0.46678 -0.11937 0.32229
 C52 C 0.30198 -0.05814 0.15962
 C53 C 0.29724 0.03377 0.38475
 C54 C 0.08500 1.03788 0.84450
 H55 H 0.08716 1.00503 0.85553
 C56 C 0.06477 1.06786 0.86966
 H57 H 0.05098 1.05742 0.89971
 C58 C 0.10095 1.09094 0.79197
 H59 H 0.11588 1.10003 0.76215
 C60 C 0.08058 1.12200 0.81604
 H61 H 0.07978 1.15476 0.80431
 N62 N 0.10271 1.04975 0.80654
 C63 C 0.11259 0.92970 0.73429
 H64 H 0.14537 0.93076 0.72729
 C65 C 0.08762 0.89529 0.71945
 H66 H 0.10143 0.86988 0.70099
 C67 C 0.05491 0.96159 0.76703
 H68 H 0.04217 0.98770 0.78520
 C69 C 0.02887 0.92756 0.75319
 H70 H -0.00371 0.92813 0.76089
 Zn71 Zn 0.13252 1.00632 0.77824
 N72 N 0.09607 0.96171 0.75802
 C73 C 0.16554 0.94221 0.83238
 N74 N 0.16881 0.98409 0.81973
 C75 C 0.19666 1.01214 0.83818
 C76 C 0.22344 0.99817 0.86989
 C77 C 0.19128 0.92705 0.86453
 C78 C 0.14347 1.04675 0.69731
 C79 C 0.16570 1.06179 0.66145
 C80 C 0.22832 1.03810 0.69451
 C81 C 0.20499 1.02369 0.72964
 N82 N 0.16338 1.02851 0.73071
 H83 H 0.14253 0.92066 0.81814
 H84 H 0.19795 1.04550 0.82820
 H85 H 0.24510 1.02118 0.88430
 H86 H 0.18807 0.89372 0.87453
 H87 H 0.11023 1.04936 0.69842
 H88 H 0.14932 1.07618 0.63515
 H89 H 0.26132 1.03389 0.69490
 H90 H 0.22027 1.00792 0.75568
 C91 C 0.04527 0.89361 0.72936
 C92 C 0.06274 1.11071 0.85575
 C93 C 0.20872 1.05734 0.65964
 C94 C 0.22083 0.95511 0.88350
 C95 C 0.58884 0.54114 0.30830
 H96 H 0.59167 0.50758 0.31670
 C97 C 0.56389 0.56735 0.33298
 H98 H 0.54783 0.55381 0.36061
 C99 C 0.60639 0.59935 0.26199
 H100 H 0.62315 0.61176 0.23439
 C101 C 0.58252 0.62709 0.28654
 H102 H 0.58066 0.66059 0.27741
 N103 N 0.60805 0.55688 0.27249
 C104 C 0.61336 0.43756 0.19819
 H105 H 0.64558 0.43781 0.18881
 C106 C 0.58741 0.40209 0.18808
 H107 H 0.59992 0.37510 0.17086
 C108 C 0.55809 0.47221 0.23238
 H109 H 0.54627 0.49992 0.24865
 C110 C 0.53117 0.43742 0.22314
 H111 H 0.49917 0.43900 0.23292
 Zn112 Zn 0.63657 0.51623 0.23866
 N113 N 0.59877 0.47103 0.22139
 C114 C 0.67610 0.45183 0.28621
 N115 N 0.67829 0.49408 0.27477
 C116 C 0.70563 0.52215 0.29409
 C117 C 0.73080 0.50837 0.32761
 C118 C 0.70085 0.43668 0.31910
 C119 C 0.62901 0.56114 0.16291
 C120 C 0.64072 0.58288 0.12553
 C121 C 0.71123 0.56298 0.13771
 C122 C 0.69828 0.54249 0.17583
 N123 N 0.65778 0.54257 0.18788
 H124 H 0.65353 0.43008 0.27170
 H125 H 0.70628 0.55578 0.28505
 H126 H 0.75113 0.53164 0.34353
 H127 H 0.69729 0.40322 0.32852
 H128 H 0.59691 0.55990 0.17275
 H129 H 0.61752 0.59867 0.10680
 H130 H 0.74358 0.56357 0.12868
 H131 H 0.72050 0.52681 0.19581
 C132 C 0.54599 0.40125 0.20165
 C133 C 0.55992 0.61069 0.32166
 C134 C 0.68227 0.58427 0.11273
 C135 C 0.72771 0.46525 0.34128
 C136 C 0.92541 0.43241 0.79021
 H137 H 0.92292 0.46086 0.81003
 C138 C 0.94325 0.39568 0.80682
 H139 H 0.95483 0.39635 0.83940
 C140 C 0.91178 0.39648 0.72433
 H141 H 0.89884 0.39669 0.69240
 C142 C 0.92963 0.35914 0.73955
 H143 H 0.93004 0.33106 0.71897
 N144 N 0.90941 0.43190 0.74992
 C145 C 0.89706 0.56001 0.69405
 H146 H 0.86467 0.55867 0.68551
 C147 C 0.92112 0.59720 0.68550
 H148 H 0.90702 0.62417 0.66997
 C149 C 0.95419 0.52698 0.72604
 H150 H 0.96684 0.49974 0.74232
 C151 C 0.97933 0.56367 0.71832
 H152 H 1.01128 0.56373 0.72833
 Zn153 Zn 0.87811 0.47904 0.73165
 N154 N 0.91364 0.52610 0.71464
 C155 C 0.84398 0.53907 0.78966
 N156 N 0.84552 0.49649 0.77963
 C157 C 0.82838 0.46599 0.80622
 C158 C 0.80932 0.47789 0.84473
 C159 C 0.82503 0.55234 0.82752
 C160 C 0.85489 0.46907 0.64350
 C161 C 0.83495 0.44759 0.60933
 C162 C 0.79340 0.40750 0.66090
 C163 C 0.81378 0.42986 0.69391
 N164 N 0.84457 0.45929 0.68489
 H165 H 0.85825 0.56301 0.76893
 H166 H 0.83089 0.43223 0.79842
 H167 H 0.79645 0.45299 0.86549
 H168 H 0.82462 0.58644 0.83483
 H169 H 0.88020 0.49167 0.63687
 H170 H 0.84469 0.45433 0.57668
 H171 H 0.76979 0.38340 0.66910
 H172 H 0.80639 0.42210 0.72686
 C173 C 0.96261 0.59977 0.69849
 C174 C 0.94492 0.35817 0.78165
 C175 C 0.80482 0.41526 0.61799
 C176 C 0.80788 0.52166 0.85600
 C177 C 0.31126 0.41619 -0.04033
 H178 H 0.32998 0.42207 -0.01218
 C179 C 0.32673 0.42796 -0.08076
 H180 H 0.35743 0.44263 -0.08371
 C181 C 0.24881 0.38954 -0.07160
 H182 H 0.21811 0.37554 -0.06831
 C183 C 0.26346 0.39958 -0.11244
 H184 H 0.24424 0.39246 -0.14014
 N185 N 0.27336 0.39608 -0.03664
 C186 C 0.24206 0.40317 0.09840
 H187 H 0.24443 0.36940 0.10614
 C188 C 0.22868 0.43182 0.12942
 H189 H 0.22133 0.41996 0.16130
 C190 C 0.24583 0.45876 0.04629
 H191 H 0.25097 0.46845 0.01334
 C192 C 0.23260 0.48871 0.07650
 H193 H 0.22792 0.52150 0.06646
 Zn194 Zn 0.25486 0.37296 0.01665
 N195 N 0.24903 0.41675 0.05755
 C196 C 0.32940 0.35443 0.05360
 N197 N 0.29435 0.33507 0.03782
 C198 C 0.28876 0.29146 0.03816
 C199 C 0.32012 0.26550 0.05302
 C200 C 0.36118 0.32986 0.06923
 C201 C 0.16913 0.36752 0.02407
 C202 C 0.12935 0.35790 0.00952
 C203 C 0.15636 0.30094 -0.03420
 C204 C 0.19600 0.31194 -0.01905
 N205 N 0.20181 0.34595 0.00827
 H206 H 0.33257 0.38917 0.05436
 H207 H 0.26022 0.27663 0.02684
 H208 H 0.31532 0.23086 0.05273
 H209 H 0.38901 0.34599 0.08124
 H210 H 0.17391 0.39462 0.04538
 H211 H 0.10413 0.37703 0.02082
 H212 H 0.15239 0.27584 -0.05817
 H213 H 0.22236 0.29612 -0.03245
 C214 C 0.22248 0.47481 0.11826
 C215 C 0.30311 0.41806 -0.11723
 C216 C 0.12300 0.32567 -0.02147
 C217 C 0.35706 0.28484 0.06838
 C218 C 0.79225 0.09924 1.07177
 H219 H 0.81303 0.12354 1.05826
 C220 C 0.80394 0.07744 1.10867
 H221 H 0.83373 0.08517 1.12298
 C222 C 0.72819 0.06015 1.07014
 H223 H 0.69849 0.05387 1.05513
 C224 C 0.73851 0.03779 1.10723
 H225 H 0.71671 0.01391 1.11992
 N226 N 0.75446 0.09114 1.05390
 C227 C 0.70175 0.11564 0.92712
 H228 H 0.70028 0.15024 0.92831
 C229 C 0.68626 0.09355 0.89135
 H230 H 0.67276 0.11155 0.86549
 C231 C 0.72177 0.05036 0.95884
 H232 H 0.73590 0.03369 0.98509
 C233 C 0.70697 0.02694 0.92335
 H234 H 0.70942 -0.00771 0.92311
 Zn235 Zn 0.73714 0.12686 1.00824
 N236 N 0.71855 0.09392 0.96027
 C237 C 0.80585 0.15234 0.95718
 N238 N 0.78203 0.16305 0.99134
 C239 C 0.79121 0.19838 1.01571
 C240 C 0.82618 0.22417 1.00666
 C241 C 0.84127 0.17722 0.94702
 C242 C 0.68444 0.19713 1.00412
 C243 C 0.65162 0.22267 1.01612
 C244 C 0.63940 0.17626 1.07720
 C245 C 0.67244 0.15173 1.06410
 N246 N 0.69370 0.16184 1.02756
 H247 H 0.79800 0.12382 0.93854
 H248 H 0.77182 0.20591 1.04287
 H249 H 0.83285 0.25177 1.02696
 H250 H 0.86046 0.16770 0.92032
 H251 H 0.70270 0.20570 0.97615
 H252 H 0.64464 0.25013 0.99651
 H253 H 0.62254 0.16716 1.10604
 H254 H 0.68060 0.12447 1.08317
 C255 C 0.68869 0.04866 0.88912
 C256 C 0.77652 0.04708 1.12750
 C257 C 0.62828 0.21193 1.05286
 C258 C 0.85220 0.21325 0.97235
 C259 C 0.29468 0.60717 0.56690
 H260 H 0.31607 0.63275 0.55723
 C261 C 0.30563 0.57939 0.59968
 H262 H 0.33535 0.58420 0.61513
 C263 C 0.23020 0.56972 0.55856
 H264 H 0.20080 0.56635 0.54224
 C265 C 0.23989 0.54113 0.59116
 H266 H 0.21753 0.51596 0.59968
 N267 N 0.25713 0.60245 0.54777
 C268 C 0.18734 0.61457 0.43662
 H269 H 0.16837 0.64076 0.44656
 C270 C 0.17501 0.58862 0.40198
 H271 H 0.14663 0.59533 0.38532
 C272 C 0.24716 0.57371 0.44618
 H273 H 0.27532 0.56822 0.46367
 C274 C 0.23586 0.54679 0.41202
 H275 H 0.25592 0.52103 0.40323
 Zn276 Zn 0.24119 0.64089 0.50467
 N277 N 0.22318 0.60703 0.45752
 C278 C 0.30767 0.66884 0.45169
 N279 N 0.28712 0.67655 0.48891
 C280 C 0.30068 0.70766 0.51678
 C281 C 0.33746 0.73107 0.50865
 C282 C 0.34469 0.69117 0.44250
 C283 C 0.18525 0.70867 0.50150
 C284 C 0.15302 0.73384 0.51608
 C285 C 0.14901 0.69055 0.58036
 C286 C 0.18146 0.66659 0.56480
 N287 N 0.19835 0.67537 0.52562
 H288 H 0.29621 0.64438 0.42970
 H289 H 0.28369 0.71309 0.54615
 H290 H 0.34848 0.75450 0.53205
 H291 H 0.36131 0.68362 0.41334
 H292 H 0.19958 0.71534 0.47070
 H293 H 0.14246 0.75957 0.49596
 H294 H 0.13557 0.68257 0.61134
 H295 H 0.19282 0.64078 0.58409
 C296 C 0.19943 0.55427 0.38930
 C297 C 0.27787 0.54623 0.61260
 C298 C 0.13424 0.72449 0.55586
 C299 C 0.36039 0.72215 0.47149
 C300 C 0.81340 0.93991 0.48091
 H301 H 0.82454 0.94261 0.51354
 C302 C 0.83287 0.96380 0.44844
 H303 H 0.85922 0.98448 0.45660
 C304 C 0.76627 0.90810 0.43112
 H305 H 0.74083 0.88574 0.42443
 C306 C 0.78514 0.93116 0.39748
 H307 H 0.77372 0.92661 0.36509
 N308 N 0.78041 0.91324 0.47195
 C309 C 0.72117 0.90493 0.59745
 H310 H 0.72117 0.87059 0.60319
 C311 C 0.70273 0.93217 0.62710
 H312 H 0.68888 0.91859 0.65594
 C313 C 0.73774 0.96408 0.55195
 H314 H 0.75002 0.97630 0.52196
 C315 C 0.71985 0.99244 0.58074
 H316 H 0.71925 1.02616 0.57238
 Zn317 Zn 0.75789 0.88249 0.51927
 N318 N 0.73820 0.92123 0.56075
 C319 C 0.81700 0.85434 0.58075
 N320 N 0.80080 0.84918 0.54075
 C321 C 0.81622 0.82044 0.51247
 C322 C 0.84856 0.79455 0.52422
 C323 C 0.84990 0.82935 0.59372
 C324 C 0.67998 0.86364 0.48321
 C325 C 0.64529 0.83799 0.47247
 C326 C 0.67772 0.77706 0.50469
 C327 C 0.71199 0.80372 0.51428
 N328 N 0.71267 0.84607 0.50316
 H329 H 0.80483 0.87810 0.60235
 H330 H 0.80322 0.81772 0.48059
 H331 H 0.86041 0.77222 0.50088
 H332 H 0.86272 0.83379 0.62555
 H333 H 0.68087 0.89767 0.47577
 H334 H 0.61959 0.85241 0.45636
 H335 H 0.67803 0.74343 0.51359
 H336 H 0.73766 0.79063 0.53138
 C337 C 0.70173 0.97653 0.61879
 C338 C 0.81872 0.95965 0.40603
 C339 C 0.64381 0.79420 0.48351
 C340 C 0.86579 0.79877 0.56536
 C341 C -0.05267 0.29537 0.37544
 H342 H -0.03233 0.32085 0.36329
 C343 C -0.09158 0.30529 0.39164
 H344 H -0.10092 0.33845 0.39183
 C345 C -0.06572 0.22113 0.38919
 H346 H -0.05551 0.18834 0.38771
 C347 C -0.10506 0.22953 0.40502
 H348 H -0.12460 0.20295 0.41630
 N349 N -0.04076 0.25376 0.37398
 C350 C 0.08858 0.21524 0.37557
 H351 H 0.09754 0.21972 0.34236
 C352 C 0.11763 0.20165 0.40534
 H353 H 0.14874 0.19538 0.39468
 C354 C 0.03747 0.21878 0.42987
 H355 H 0.00620 0.22538 0.43941
 C356 C 0.06557 0.20560 0.46073
 H357 H 0.05510 0.20189 0.49354
 Zn358 Zn 0.00956 0.23952 0.34652
 N359 N 0.04914 0.22289 0.38807
 C360 C 0.06187 0.31289 0.33055
 N361 N 0.02960 0.28811 0.31555
 C362 C 0.00919 0.29885 0.27927
 C363 C 0.02103 0.33583 0.25642
 C364 C 0.07465 0.35031 0.30877
 C365 C 0.02459 0.16168 0.30025
 C366 C 0.01280 0.12542 0.27598
 C367 C -0.05444 0.15531 0.26650
 C368 C -0.04115 0.19132 0.29022
 N369 N -0.00263 0.19338 0.30765
 H370 H 0.07710 0.30425 0.35996
 H371 H -0.01678 0.27900 0.26839
 H372 H 0.00378 0.34382 0.22805
 H373 H 0.10011 0.36993 0.32142
 H374 H 0.05494 0.16349 0.31436
 H375 H 0.03430 0.09971 0.27227
 H376 H -0.08590 0.15328 0.25474
 H377 H -0.06232 0.21686 0.29631
 C378 C 0.10626 0.19659 0.44858
 C379 C -0.11868 0.27203 0.40570
 C380 C -0.02760 0.12144 0.25985
 C381 C 0.05406 0.36229 0.27127
 C382 C 1.04774 0.76147 0.03481
 H383 H 1.02296 0.74617 0.01661
 C384 C 1.08499 0.77249 0.01432
 H385 H 1.08782 0.76650 -0.01976
 C386 C 1.07440 0.78634 0.10147
 H387 H 1.07031 0.79055 0.13569
 C388 C 1.11210 0.79826 0.08216
 H389 H 1.13680 0.81215 0.10166
 N390 N 1.04312 0.76845 0.07765
 C391 C 0.93660 0.68753 0.06743
 H392 H 0.94737 0.66426 0.09020
 C393 C 0.90261 0.67701 0.04129
 H394 H 0.88786 0.64528 0.04365
 C395 C 0.94088 0.75804 0.03853
 H396 H 0.95520 0.79003 0.03873
 C397 C 0.90737 0.74886 0.01174
 H398 H 0.89659 0.77422 -0.00864
 Zn399 Zn 0.99457 0.74768 0.10585
 N400 N 0.95466 0.72768 0.06578
 C401 C 0.93178 0.77670 0.15516
 N402 N 0.96835 0.79057 0.13776
 C403 C 0.98280 0.83188 0.14298
 C404 C 0.96038 0.86072 0.16778
 C405 C 0.90861 0.80417 0.18008
 C406 C 1.02923 0.66907 0.12680
 C407 C 1.04407 0.63743 0.15391
 C408 C 1.01873 0.67722 0.21477
 C409 C 1.00472 0.70824 0.18656
 N410 N 1.01000 0.70358 0.14346
 H411 H 0.92080 0.74383 0.14986
 H412 H 1.01154 0.84248 0.12805
 H413 H 0.97222 0.89348 0.17201
 H414 H 0.87963 0.79194 0.19325
 H415 H 1.03367 0.66659 0.09246
 H416 H 1.05972 0.61034 0.14015
 H417 H 1.01481 0.68209 0.24891
 H418 H 0.99066 0.73657 0.19938
 C419 C 0.88729 0.70807 0.01333
 C420 C 1.11794 0.79076 0.03814
 C421 C 1.03894 0.64139 0.19851
 C422 C 0.92296 0.84674 0.18703
 C423 C 0.53526 0.31139 0.53020
 H424 H 0.50474 0.32367 0.52540
 C425 C 0.56751 0.32397 0.50261
 H426 H 0.56158 0.34554 0.47625
 C427 C 0.58059 0.26981 0.57143
 H428 H 0.58571 0.24927 0.59869
 C429 C 0.61400 0.28278 0.54550
 H430 H 0.64458 0.27157 0.55254
 N431 N 0.54202 0.28383 0.56312
 C432 C 0.41926 0.22851 0.59470
 H433 H 0.42168 0.22912 0.62933
 C434 C 0.38292 0.21274 0.57536
 H435 H 0.35750 0.20105 0.59531
 C436 C 0.44942 0.24324 0.52673
 H437 H 0.47554 0.25428 0.50771
 C438 C 0.41341 0.22836 0.50608
 H439 H 0.41246 0.22828 0.47137
 Zn440 Zn 0.49750 0.26877 0.60048
 N441 N 0.45127 0.24430 0.57036
 C442 C 0.44260 0.33315 0.62594
 N443 N 0.48220 0.32014 0.62828
 C444 C 0.51183 0.34430 0.64900
 C445 C 0.50181 0.38283 0.66931
 C446 C 0.43118 0.37105 0.64611
 C447 C 0.52567 0.18869 0.62589
 C448 C 0.53824 0.15682 0.65406
 C449 C 0.52590 0.20504 0.71335
 C450 C 0.51370 0.23609 0.68398
 N451 N 0.51421 0.22758 0.64113
 H452 H 0.41967 0.31426 0.60843
 H453 H 0.54324 0.33348 0.64986
 H454 H 0.52563 0.40119 0.68627
 H455 H 0.39933 0.38052 0.64432
 H456 H 0.52531 0.18260 0.59169
 H457 H 0.54768 0.12624 0.64116
 H458 H 0.52559 0.21283 0.74718
 H459 H 0.50378 0.26693 0.69550
 C460 C 0.37934 0.21348 0.53054
 C461 C 0.60742 0.30961 0.51029
 C462 C 0.53861 0.16478 0.69844
 C463 C 0.46087 0.39636 0.66823
 C464 C 0.44953 0.74371 0.93782
 H465 H 0.46129 0.71155 0.93592
 C466 C 0.41925 0.75313 0.96827
 H467 H 0.40841 0.72805 0.98997
 C468 C 0.44668 0.81412 0.90912
 H469 H 0.45609 0.83736 0.88500
 C470 C 0.41609 0.82470 0.93859
 H471 H 0.40300 0.85632 0.93731
 N472 N 0.46220 0.77392 0.90867
 C473 C 0.57062 0.72860 0.84046
 H474 H 0.56009 0.73695 0.80872
 C475 C 0.60912 0.71073 0.84550
 H476 H 0.62765 0.70575 0.81715
 C477 C 0.55798 0.72497 0.91532
 H478 H 0.53785 0.73067 0.94234
 C479 C 0.59656 0.70686 0.92189
 H480 H 0.60587 0.69874 0.95415
 Zn481 Zn 0.49392 0.75725 0.86050
 N482 N 0.54569 0.73484 0.87491
 C483 C 0.48864 0.81108 0.78588
 N484 N 0.50505 0.80600 0.82562
 C485 C 0.53171 0.83602 0.84274
 C486 C 0.54267 0.87320 0.81997
 C487 C 0.49868 0.84810 0.76192
 C488 C 0.47750 0.67459 0.82415
 C489 C 0.45190 0.64086 0.80905
 C490 C 0.39488 0.68911 0.80905
 C491 C 0.42171 0.72211 0.82357
 N492 N 0.46200 0.71416 0.83154
 H493 H 0.46785 0.78650 0.77276
 H494 H 0.54446 0.83093 0.87431
 H495 H 0.56396 0.89664 0.83437
 H496 H 0.48540 0.85152 0.73037
 H497 H 0.50930 0.66845 0.83155
 H498 H 0.46449 0.60929 0.80445
 H499 H 0.36273 0.69592 0.80379
 H500 H 0.41005 0.75368 0.83028
 C501 C 0.62259 0.69927 0.88661
 C502 C 0.40139 0.79380 0.96807
 C503 C 0.40981 0.64760 0.80253
 C504 C 0.52607 0.87977 0.77906
 C505 C 0.51118 -0.20968 0.36815
 C506 C 0.54744 -0.18936 0.35476
 C507 C 0.53568 -0.15268 0.33484
 C508 C 0.49314 -0.15383 0.33724
 O509 O 0.47820 -0.18822 0.35752
 H510 H 0.57872 -0.19908 0.36052
 H511 H 0.55562 -0.12769 0.32101
 C512 C 0.98050 0.27526 0.84745
 C513 C 0.98278 0.25297 0.80935
 C514 C 0.96988 0.28092 0.77874
 C515 C 0.96082 0.31828 0.80064
 O516 O 0.96729 0.31464 0.84228
 H517 H 0.99262 0.22040 0.80436
 H518 H 0.96770 0.27463 0.74465
 C519 C 0.01625 1.20110 0.90182
 C520 C 0.01989 1.17768 0.93890
 C521 C 0.03725 1.14026 0.92671
 C522 C 0.04322 1.14369 0.88287
 O523 O 0.03058 1.18086 0.86774
 H524 H 0.01102 1.18698 0.97105
 H525 H 0.04536 1.11415 0.94762
 C526 C 0.50862 0.69162 0.37823
 C527 C 0.48029 0.65836 0.38563
 C528 C 0.49539 0.62369 0.36477
 C529 C 0.53189 0.63830 0.34609
 O530 O 0.53997 0.67960 0.35411
 H531 H 0.45283 0.65841 0.40539
 H532 H 0.48174 0.59142 0.36387
 C533 C 0.49888 0.30210 0.17074
 C534 C 0.46886 0.31387 0.19932
 C535 C 0.48185 0.35322 0.21450
 C536 C 0.51908 0.36245 0.19400
 O537 O 0.52939 0.33124 0.16745
 H538 H 0.44094 0.29581 0.20806
 H539 H 0.46629 0.37224 0.23834
 C540 C 0.00030 0.80047 0.68147
 C541 C -0.03168 0.80840 0.70919
 C542 C -0.01967 0.84491 0.73089
 C543 C 0.01900 0.85641 0.71479
 O544 O 0.03108 0.82929 0.68478
 H545 H -0.06031 0.78979 0.71302
 H546 H -0.03690 0.86063 0.75590
 C547 C 1.00319 0.70308 0.67157
 C548 C 1.03576 0.69104 0.69652
 C549 C 1.02554 0.65025 0.70991
 C550 C 0.98727 0.64044 0.69204
 O551 O 0.97378 0.67268 0.66880
 H552 H 1.06367 0.70974 0.70384
 H553 H 1.04378 0.63052 0.73062
 C554 C 0.50241 0.20500 0.17613
 C555 C 0.53768 0.19576 0.19828
 C556 C 0.52851 0.15799 0.21905
 C557 C 0.48811 0.14724 0.20805
 O558 O 0.47231 0.17590 0.18207
 H559 H 0.56668 0.21412 0.19875
 H560 H 0.54878 0.14073 0.23995
 C561 C 0.34294 0.45420 -0.21567
 C562 C 0.33644 0.41158 -0.22679
 C563 C 0.32112 0.39219 -0.19082
 C564 C 0.32014 0.42442 -0.16040
 O565 O 0.33345 0.46220 -0.17524
 H566 H 0.34099 0.39683 -0.25788
 H567 H 0.31124 0.35875 -0.18722
 C568 C 0.86077 0.99752 0.30832
 C569 C 0.88231 1.02576 0.33482
 C570 C 0.86859 1.01658 0.37519
 C571 C 0.83983 0.98304 0.37044
 O572 O 0.83490 0.97172 0.32978
 H573 H 0.90607 1.04946 0.32624
 H574 H 0.87911 1.03214 0.40445
 C575 C 0.82425 0.00510 1.21901
 C576 C 0.78516 -0.01158 1.22727
 C577 C 0.76141 0.00207 1.19429
 C578 C 0.78801 0.02594 1.16810
 O579 O 0.82619 0.02782 1.18327
 H580 H 0.77540 -0.03207 1.25371
 H581 H 0.72873 -0.00488 1.19001
 C582 C 0.32053 0.49735 0.70295
 C583 C 0.28493 0.47192 0.70132
 C584 C 0.26411 0.48570 0.66631
 C585 C 0.28859 0.51882 0.64934
 O586 O 0.32285 0.52575 0.67164
 H587 H 0.27471 0.44702 0.72349
 H588 H 0.23427 0.47349 0.65545
 C589 C 0.15815 0.50974 0.29429
 C590 C 0.18501 0.47745 0.30253
 C591 C 0.20396 0.48900 0.34002
 C592 C 0.18719 0.52775 0.35167
 O593 O 0.15925 0.54019 0.32387
 H594 H 0.19052 0.44926 0.28311
 H595 H 0.22734 0.47129 0.35644
 C596 C 0.63985 0.01439 0.79369
 C597 C 0.65957 -0.02327 0.80183
 C598 C 0.68036 -0.01620 0.83932
 C599 C 0.67196 0.02557 0.85103
 O600 O 0.64742 0.04411 0.82321
 H601 H 0.65896 -0.05232 0.78255
 H602 H 0.69986 -0.03860 0.85548
 C603 C 0.64238 1.02513 0.69918
 C604 C 0.65659 1.06257 0.67990
 C605 C 0.68128 1.04978 0.64715
 C606 C 0.68033 1.00525 0.64895
 O607 O 0.65682 0.99035 0.68080
 H608 H 0.65001 1.09533 0.68882
 H609 H 0.69798 1.07072 0.62500
 C610 C 0.16225 0.51931 0.19965
 C611 C 0.17247 0.55758 0.17942
 C612 C 0.19780 0.54676 0.14627
 C613 C 0.20115 0.50262 0.14908
 O614 O 0.17969 0.48613 0.18158
 H615 H 0.16238 0.58945 0.18754
 H616 H 0.21162 0.56844 0.12278
 C617 C -0.21183 0.31594 0.44161
 C618 C -0.22725 0.27495 0.43338
 C619 C -0.19436 0.25262 0.41919
 C620 C -0.16116 0.28175 0.41973
 O621 O -0.17180 0.32031 0.43333
 H622 H -0.25865 0.26265 0.43774
 H623 H -0.19482 0.21924 0.40916
 C624 C 0.31030 0.83099 1.01539
 C625 C 0.31714 0.79893 1.04463
 C626 C 0.35296 0.78082 1.03170
 C627 C 0.36532 0.80338 0.99544
 O628 O 0.33939 0.83393 0.98565
 H629 H 0.29786 0.78946 1.07166
 H630 H 0.36790 0.75415 1.04676
 C631 C 1.21745 0.82942 0.00821
 C632 C 1.21009 0.80427 -0.02749
 C633 C 1.17164 0.78608 -0.02139
 C634 C 1.15839 0.80159 0.01779
 O635 O 1.18637 0.82783 0.03582
 H636 H 1.23019 0.80022 -0.05492
 H637 H 1.15553 0.76402 -0.04297
 C638 C 0.70191 0.34192 0.46260
 C639 C 0.67897 0.33900 0.42548
 C640 C 0.63996 0.32714 0.43834
 C641 C 0.64228 0.32298 0.48232
 O642 O 0.67985 0.33186 0.49711
 H643 H 0.68936 0.34497 0.39295
 H644 H 0.61322 0.32146 0.41810
 C645 C 0.28330 0.16588 0.50098
 C646 C 0.29058 0.18805 0.46342
 C647 C 0.32773 0.20928 0.46914
 C648 C 0.34028 0.19844 0.50997
 O649 O 0.31317 0.17218 0.52932
 H650 H 0.27153 0.18782 0.43493
 H651 H 0.34361 0.23009 0.44622
 C652 C 0.79357 0.66903 -0.03212
 C653 C 0.79834 0.70545 -0.05691
 C654 C 0.83459 0.72464 -0.04413
 C655 C 0.84937 0.69861 -0.01209
 O656 O 0.82442 0.66465 -0.00492
 H657 H 0.77774 0.71705 -0.08122
 H658 H 0.84815 0.75426 -0.05679
 C659 C 0.71373 0.65173 0.92274
 C660 C 0.72461 0.65493 0.88017
 C661 C 0.69201 0.67293 0.86059
 C662 C 0.66331 0.67953 0.89277
 O663 O 0.67660 0.66652 0.93063
 H664 H 0.75332 0.64595 0.86527
 H665 H 0.69017 0.68063 0.82686
 C666 C 0.18961 0.15407 0.50580
 C667 C 0.16657 0.16589 0.54081
 C668 C 0.13216 0.18367 0.52437
 C669 C 0.13671 0.18151 0.48028
 O670 O 0.17181 0.16370 0.46904
 H671 H 0.17400 0.16234 0.57440
 H672 H 0.10712 0.19694 0.54264
 C673 C 0.58028 0.07448 0.74874
 C674 C 0.57117 0.09650 0.78575
 C675 C 0.55350 0.13345 0.77242
 C676 C 0.55319 0.13118 0.72806
 O677 O 0.56930 0.09521 0.71387
 H678 H 0.57706 0.08704 0.81849
 H679 H 0.54264 0.15891 0.79286
 C680 C 1.09179 0.55803 0.24783
 C681 C 1.07004 0.57018 0.28359
 C682 C 1.04698 0.60362 0.27040
 C683 C 1.05626 0.60893 0.22732
 O684 O 1.08329 0.58104 0.21371
 H685 H 1.07075 0.55613 0.31532
 H686 H 1.02560 0.62135 0.28984
 C687 C 0.87769 0.93384 0.23981
 C688 C 0.85137 0.90195 0.25551
 C689 C 0.86516 0.86467 0.23874
 C690 C 0.89880 0.87663 0.21343
 O691 O 0.90643 0.91876 0.21420
 H692 H 0.82481 0.90549 0.27622
 H693 H 0.85177 0.83283 0.24431
 C694 C 0.40801 0.47744 0.72201
 C695 C 0.44690 0.49605 0.72689
 C696 C 0.47292 0.46849 0.70684
 C697 C 0.44765 0.43528 0.69123
 O698 O 0.40842 0.44092 0.70047
 H699 H 0.45543 0.52540 0.74390
 H700 H 0.50618 0.47214 0.70430
 C701 C 0.36127 0.54963 0.77065
 C702 C 0.32647 0.56916 0.78548
 C703 C 0.33966 0.60903 0.79882
 C704 C 0.38175 0.61082 0.79117
 O705 O 0.39492 0.57462 0.77409
 H706 H 0.29512 0.55592 0.78603
 H707 H 0.32085 0.63342 0.81309
 C708 C -0.08466 0.02669 0.23593
 C709 C -0.04714 0.01290 0.22128
 C710 C -0.02055 0.04775 0.22517
 C711 C -0.04395 0.08022 0.24190
 O712 O -0.08289 0.06751 0.24781
 H713 H -0.03920 -0.01931 0.21185
 H714 H 0.01236 0.04852 0.21891
 C715 C 0.09503 0.46322 0.23791
 C716 C 0.07047 0.45545 0.20267
 C717 C 0.05184 0.41614 0.20978
 C718 C 0.06647 0.40288 0.24912
 O719 O 0.09286 0.43157 0.26609
 H720 H 0.06659 0.47613 0.17517
 H721 H 0.03023 0.39951 0.18861
 C722 C 0.57013 0.97759 0.74103
 C723 C 0.54297 0.97101 0.70762
 C724 C 0.52220 0.93308 0.71681
 C725 C 0.53839 0.91949 0.75532
 O726 O 0.56742 0.94664 0.76987
 H727 H 0.53902 0.99132 0.67986
 H728 H 0.49817 0.91758 0.69766
 C729 C 0.72108 0.62998 0.01655
 C730 C 0.69938 0.66457 0.03088
 C731 C 0.68209 0.65183 0.06874
 C732 C 0.69505 0.61052 0.07520
 O733 O 0.71892 0.59701 0.04353
 H734 H 0.69604 0.69527 0.01511
 H735 H 0.66240 0.67041 0.08936
 C736 C 0.24586 1.10005 0.56148
 C737 C 0.28194 1.08176 0.57402
 C738 C 0.27344 1.06367 0.61294
 C739 C 0.23244 1.07204 0.62123
 O740 O 0.21571 1.09404 0.58976
 H741 H 0.31086 1.08126 0.55653
 H742 H 0.29465 1.04583 0.63221
 C743 C 0.26613 0.90330 0.97098
 C744 C 0.29627 0.93517 0.96616
 C745 C 0.28399 0.95893 0.93200
 C746 C 0.24714 0.93959 0.91859
 O747 O 0.23643 0.90571 0.94223
 H748 H 0.32339 0.94092 0.98585
 H749 H 0.29990 0.98710 0.91882
 C750 C 0.76193 0.40826 0.43138
 C751 C 0.77879 0.44771 0.44337
 C752 C 0.77047 0.47484 0.41009
 C753 C 0.74887 0.44977 0.38037
 O754 O 0.74408 0.40947 0.39341
 H755 H 0.79388 0.45607 0.47332
 H756 H 0.77763 0.50907 0.40889
 C757 C 0.77044 0.36392 0.52248
 C758 C 0.76350 0.32996 0.55007
 C759 C 0.77468 0.34494 0.58943
 C760 C 0.78797 0.38719 0.58316
 O761 O 0.78564 0.39883 0.54224
 H762 H 0.75137 0.29799 0.54228
 H763 H 0.77401 0.32678 0.61902
 C764 C 0.26028 -0.10476 0.06550
 C765 C 0.22611 -0.08228 0.07709
 C766 C 0.23653 -0.06222 0.11462
 C767 C 0.27662 -0.07375 0.12294
 O768 O 0.29104 -0.09958 0.09295
 H769 H 0.19729 -0.08028 0.05981
 H770 H 0.21743 -0.04083 0.13285
 C771 C 0.24358 0.08503 0.46794
 C772 C 0.21699 0.04979 0.46426
 C773 C 0.23307 0.02544 0.43215
 C774 C 0.26847 0.04779 0.41874
 O775 O 0.27468 0.08404 0.44049
 H776 H 0.18963 0.04244 0.48325
 H777 H 0.22038 -0.00492 0.42022
 C778 C 0.76598 0.57925 0.94260
 C779 C 0.75855 0.53891 0.95966
 C780 C 0.77364 0.51091 0.92985
 C781 C 0.78905 0.53650 0.89678
 O782 O 0.78444 0.57782 0.90484
 H783 H 0.74306 0.53081 0.98951
 H784 H 0.77287 0.47615 0.93199
 C785 C 0.04547 0.76208 0.60702
 C786 C 0.05166 0.79665 0.57999
 C787 C 0.08629 0.78784 0.55697
 C788 C 0.09858 0.74841 0.57187
 O789 O 0.07377 0.73287 0.60233
 H790 H 0.03273 0.82456 0.57701
 H791 H 0.10061 0.80781 0.53234
 C792 C 0.53930 0.25320 1.10036
 C793 C 0.54385 0.28406 1.06901
 C794 C 0.57828 0.27338 1.04660
 C795 C 0.59208 0.23661 1.06615
 O796 O 0.56831 0.22448 1.09883
 H797 H 0.52429 0.31102 1.06322
 H798 H 0.59135 0.29049 1.01933
 C799 C 0.94858 0.25531 0.93627
 C800 C 0.94511 0.28126 0.97189
 C801 C 0.90799 0.27006 0.98978
 C802 C 0.89143 0.23772 0.96386
 O803 O 0.91620 0.22876 0.93131
 H804 H 0.96730 0.30491 0.98421
 H805 H 0.89549 0.28333 1.01897
 C806 C 0.46108 0.75195 0.43822
 C807 C 0.45651 0.78508 0.46707
 C808 C 0.41776 0.77900 0.48378
 C809 C 0.40153 0.74265 0.46346
 O810 O 0.42784 0.72645 0.43571
 H811 H 0.47887 0.81053 0.47497
 H812 H 0.40324 0.79888 0.50765
 C813 C 0.55228 0.74642 0.44244
 C814 C 0.56027 0.71473 0.47169
 C815 C 0.59603 0.72800 0.49137
 C816 C 0.60698 0.76706 0.47263
 O817 O 0.58026 0.77826 0.44303
 H818 H 0.54227 0.68535 0.47765
 H819 H 0.61180 0.71130 0.51660
 C820 C 0.03219 0.29466 -0.07642
 C821 C 0.02464 0.33784 -0.07285
 C822 C 0.05751 0.35515 -0.05118
 C823 C 0.08286 0.32115 -0.04341
 O824 O 0.06770 0.28431 -0.05906
 H825 H -0.00222 0.35447 -0.08378
 H826 H 0.06257 0.38866 -0.04247
 C827 C 0.44820 0.24471 0.11106
 C828 C 0.43488 0.20728 0.09101
 C829 C 0.39788 0.21651 0.07301
 C830 C 0.39174 0.25915 0.08325
 O831 O 0.42236 0.27621 0.10634
 H832 H 0.45049 0.17703 0.08945
 H833 H 0.37851 0.19506 0.05374
 C834 C 0.95464 0.75390 0.60909
 C835 C 0.94682 0.72261 0.57866
 C836 C 0.91181 0.73454 0.55852
 C837 C 0.90097 0.77253 0.57816
 O838 O 0.92696 0.78420 0.60911
 H839 H 0.96492 0.69475 0.57165
 H840 H 0.89634 0.71755 0.53249
   
