data_POSCAR
  _audit_creation_date              2014-09-24
  _audit_creation_method            'ToBaCCo'
  _symmetry_space_group_name_H-M    'P1'
  _symmetry_Int_Tables_number       1
  _symmetry_cell_setting            triclinic
  loop_
  _symmetry_equiv_pos_as_xyz
 x,y,z
_cell_length_a 19.2810
_cell_length_b 26.1563
_cell_length_c 26.7033
_cell_angle_alpha 86.328000
_cell_angle_beta 88.687200
_cell_angle_gamma 92.061100
loop_
  _atom_site_label
  _atom_site_type_symbol
  _atom_site_fract_x
  _atom_site_fract_y
  _atom_site_fract_z
C1 C 0.23534 0.28654 0.21485
 C2 C 0.27561 0.27839 0.17176
 C3 C 0.31038 0.23244 0.16859
 C4 C 0.30592 0.19515 0.20855
 C5 C 0.26684 0.20287 0.25196
 C6 C 0.23063 0.24846 0.25507
 C7 C 0.19935 0.33188 0.21828
 C8 C 0.15867 0.33965 0.26100
 C9 C 0.15384 0.30140 0.30091
 C10 C 0.18959 0.25583 0.29826
 C11 C 0.18523 0.21752 0.33796
 C12 C 0.22300 0.17278 0.33547
 C13 C 0.26344 0.16566 0.29220
 H14 H 0.27909 0.30718 0.14067
 H15 H 0.33330 0.15993 0.20554
 H16 H 0.20252 0.36121 0.18765
 H17 H 0.12216 0.30700 0.33401
 H18 H 0.15383 0.22286 0.37128
 H19 H 0.29182 0.13084 0.28973
 C20 C 0.75174 -0.24087 0.23221
 C21 C 0.71396 -0.23255 0.18784
 C22 C 0.68309 -0.18527 0.17730
 C23 C 0.68865 -0.14691 0.21151
 C24 C 0.72672 -0.15417 0.25527
 C25 C 0.75973 -0.20082 0.26522
 C26 C 0.77981 -0.28880 0.24521
 C27 C 0.81617 -0.29648 0.28998
 C28 C 0.82762 -0.25557 0.32060
 C29 C 0.79906 -0.20790 0.30900
 C30 C 0.80560 -0.16823 0.34204
 C31 C 0.77109 -0.12229 0.33274
 C32 C 0.73178 -0.11562 0.28947
 H33 H 0.70935 -0.26226 0.16149
 H34 H 0.66480 -0.11051 0.20308
 H35 H 0.77009 -0.32080 0.22214
 H36 H 0.85444 -0.26217 0.35558
 H37 H 0.83446 -0.17400 0.37616
 H38 H 0.70481 -0.08027 0.28272
 C39 C 0.72303 0.26607 0.77973
 C40 C 0.68699 0.24026 0.82054
 C41 C 0.67366 0.18742 0.82077
 C42 C 0.69518 0.16011 0.78037
 C43 C 0.73121 0.18540 0.73945
 C44 C 0.74592 0.23857 0.73901
 C45 C 0.73704 0.31877 0.77917
 C46 C 0.77400 0.34426 0.73888
 C47 C 0.79757 0.31724 0.69837
 C48 C 0.78348 0.26411 0.69805
 C49 C 0.80567 0.23589 0.65777
 C50 C 0.78887 0.18316 0.65780
 C51 C 0.75235 0.15826 0.69896
 H52 H 0.66965 0.26098 0.85215
 H53 H 0.68398 0.11912 0.78101
 H54 H 0.72001 0.34011 0.81046
 H55 H 0.82689 0.33747 0.66760
 H56 H 0.83386 0.25491 0.62585
 H57 H 0.74027 0.11743 0.69931
 C58 C 0.27249 -0.29950 0.76308
 C59 C 0.30900 -0.28986 0.80679
 C60 C 0.33453 -0.23995 0.81454
 C61 C 0.32464 -0.20001 0.77806
 C62 C 0.28874 -0.20889 0.73419
 C63 C 0.26135 -0.25859 0.72714
 C64 C 0.24791 -0.34934 0.75401
 C65 C 0.21210 -0.35800 0.70996
 C66 C 0.19904 -0.31716 0.67560
 C67 C 0.22374 -0.26756 0.68360
 C68 C 0.21342 -0.22716 0.64784
 C69 C 0.24317 -0.17846 0.65352
 C70 C 0.28064 -0.16921 0.69684
 H71 H 0.31735 -0.32089 0.83459
 H72 H 0.34540 -0.16187 0.78402
 H73 H 0.25756 -0.38130 0.78051
 H74 H 0.17134 -0.32450 0.64172
 H75 H 0.18502 -0.23397 0.61418
 H76 H 0.30315 -0.13126 0.70136
 C77 C 0.78355 -0.27457 0.77069
 C78 C 0.74753 -0.27808 0.81733
 C79 C 0.70821 -0.23718 0.83234
 C80 C 0.70391 -0.19278 0.79987
 C81 C 0.73878 -0.18871 0.75318
 C82 C 0.77984 -0.22925 0.73902
 C83 C 0.82112 -0.31593 0.75398
 C84 C 0.85568 -0.31118 0.70683
 C85 C 0.85412 -0.26553 0.67710
 C86 C 0.81568 -0.22502 0.69233
 C87 C 0.81033 -0.18122 0.66026
 C88 C 0.76801 -0.14151 0.67337
 C89 C 0.73209 -0.14531 0.71980
 H90 H 0.74933 -0.31266 0.84182
 H91 H 0.67217 -0.16167 0.81048
 H92 H 0.82179 -0.35181 0.77663
 H93 H 0.88006 -0.26278 0.64046
 H94 H 0.83729 -0.17875 0.62406
 H95 H 0.69938 -0.11451 0.72981
 C96 C 0.18676 0.22631 0.78092
 C97 C 0.22613 0.21509 0.82324
 C98 C 0.27132 0.17402 0.82457
 C99 C 0.27564 0.14307 0.78385
 C100 C 0.23748 0.15432 0.74069
 C101 C 0.19222 0.19570 0.73944
 C102 C 0.14532 0.26944 0.77814
 C103 C 0.10929 0.28190 0.73423
 C104 C 0.11249 0.25026 0.69404
 C105 C 0.15434 0.20766 0.69598
 C106 C 0.16147 0.17830 0.65430
 C107 C 0.20836 0.13881 0.65465
 C108 C 0.24603 0.12651 0.69789
 H109 H 0.22368 0.23940 0.85458
 H110 H 0.31201 0.11237 0.78471
 H111 H 0.14327 0.29420 0.80913
 H112 H 0.08493 0.26064 0.66015
 H113 H 0.13249 0.18718 0.62072
 H114 H 0.28142 0.09523 0.69816
 C115 C 0.26384 -0.29656 0.25847
 C116 C 0.28572 -0.29409 0.20767
 C117 C 0.32515 -0.25134 0.18677
 C118 C 0.34514 -0.21180 0.21699
 C119 C 0.32332 -0.21317 0.26749
 C120 C 0.28185 -0.25540 0.28817
 C121 C 0.22166 -0.33803 0.27967
 C122 C 0.19726 -0.33809 0.32973
 C123 C 0.21459 -0.29691 0.35851
 C124 C 0.25618 -0.25547 0.33805
 C125 C 0.27030 -0.21319 0.36622
 C126 C 0.31031 -0.17080 0.34549
 C127 C 0.33847 -0.17153 0.29675
 H128 H 0.26932 -0.32403 0.18378
 H129 H 0.37406 -0.17842 0.20021
 H130 H 0.20724 -0.36975 0.25733
 H131 H 0.19480 -0.29700 0.39688
 H132 H 0.24915 -0.21269 0.40415
 H133 H 0.36876 -0.13846 0.28085
 C134 C 0.73868 0.27761 0.20220
 C135 C 0.70644 0.26143 0.15923
 C136 C 0.67410 0.21230 0.15940
 C137 C 0.67614 0.17896 0.20211
 C138 C 0.70907 0.19446 0.24506
 C139 C 0.74056 0.24401 0.24542
 C140 C 0.76617 0.32762 0.20330
 C141 C 0.79472 0.34492 0.24708
 C142 C 0.79922 0.31117 0.28995
 C143 C 0.77237 0.26028 0.28926
 C144 C 0.77507 0.22544 0.33154
 C145 C 0.74348 0.17609 0.33053
 C146 C 0.70960 0.16145 0.28798
 H147 H 0.70392 0.28790 0.12645
 H148 H 0.65024 0.14146 0.20220
 H149 H 0.76320 0.35404 0.17045
 H150 H 0.82184 0.32471 0.32369
 H151 H 0.80031 0.23669 0.36518
 H152 H 0.68541 0.12335 0.28809
 O153 O 0.32942 0.04985 0.43827
 O154 O 0.33827 -0.05038 0.54052
 O155 O 0.32931 -0.05108 0.44347
 O156 O 0.33020 0.04695 0.53770
 O157 O 0.21555 0.04145 0.54142
 O158 O 0.21469 -0.05454 0.44829
 O159 O 0.22363 -0.05690 0.54505
 O160 O 0.21489 0.04688 0.44387
 Cu161 Cu 0.34334 -0.00011 0.48877
 Cu162 Cu 0.20575 -0.00615 0.49460
 C163 C 0.27142 0.06599 0.42401
 C164 C 0.28270 -0.07048 0.56045
 C165 C 0.27114 -0.07040 0.43114
 C166 C 0.27263 0.05928 0.55675
 O167 O 0.83924 0.07629 0.55141
 O168 O 0.86372 -0.01846 0.45501
 O169 O 0.85766 0.08203 0.45509
 O170 O 0.86081 -0.02209 0.55287
 O171 O 0.74691 -0.03412 0.55067
 O172 O 0.74393 0.07008 0.45116
 O173 O 0.74987 -0.02930 0.45138
 O174 O 0.72580 0.06218 0.54763
 Cu175 Cu 0.86670 0.03046 0.50395
 Cu176 Cu 0.73037 0.01581 0.49949
 C177 C 0.77754 0.08484 0.56580
 C178 C 0.81041 -0.03969 0.43660
 C179 C 0.80021 0.09414 0.43679
 C180 C 0.80518 -0.04518 0.56905
 O181 O 0.44083 0.26630 0.01744
 O182 O 0.55779 0.21050 -0.07551
 O183 O 0.43308 0.24851 -0.07804
 O184 O 0.57371 0.25448 0.00793
 O185 O 0.54194 0.17807 0.04322
 O186 O 0.40496 0.16854 -0.05126
 O187 O 0.53144 0.13342 -0.04021
 O188 O 0.41072 0.18720 0.04544
 Cu189 Cu 0.50334 0.25150 -0.03510
 Cu190 Cu 0.46840 0.15900 0.00155
 C191 C 0.40693 0.23510 0.04832
 C192 C 0.56524 0.16206 -0.07247
 C193 C 0.39581 0.20823 -0.08046
 C194 C 0.58060 0.21894 0.04143
 O195 O 0.54521 0.85107 0.03655
 O196 O 0.43291 0.80426 -0.05991
 O197 O 0.40859 0.81430 0.03598
 O198 O 0.55426 0.83015 -0.05502
 O199 O 0.58436 0.75097 -0.03430
 O200 O 0.44223 0.73786 0.06261
 O201 O 0.45472 0.72434 -0.03479
 O202 O 0.57458 0.77294 0.06159
 Cu203 Cu 0.48090 0.83277 -0.00944
 Cu204 Cu 0.51686 0.73869 0.01697
 C205 C 0.58123 0.82138 0.06378
 C206 C 0.42631 0.75647 -0.06519
 C207 C 0.39902 0.77324 0.06351
 C208 C 0.59129 0.79210 -0.06242
 O209 O 0.00674 0.43963 0.34522
 O210 O -0.11335 0.54185 0.35690
 O211 O -0.11234 0.45696 0.31481
 O212 O 0.02406 0.53356 0.37499
 O213 O 0.05995 0.56893 0.30131
 O214 O -0.07985 0.49773 0.24254
 O215 O -0.07421 0.58327 0.28666
 O216 O 0.04420 0.47455 0.27148
 Cu217 Cu -0.05049 0.49139 0.35585
 Cu218 Cu -0.00840 0.53494 0.26847
 C219 C 0.04416 0.43827 0.30599
 C220 C -0.11629 0.57902 0.32442
 C221 C -0.11898 0.46515 0.26767
 C222 C 0.06608 0.56321 0.34838
 O223 O 0.07731 0.54017 0.73822
 O224 O -0.09691 0.48408 0.76698
 O225 O 0.03107 0.44489 0.77304
 O226 O -0.04739 0.56676 0.72804
 O227 O -0.04798 0.53734 0.65225
 O228 O 0.02395 0.41703 0.69696
 O229 O -0.09859 0.45054 0.69303
 O230 O 0.07801 0.50442 0.66546
 Cu231 Cu -0.00692 0.50983 0.75978
 Cu232 Cu -0.01155 0.47499 0.66904
 C233 C 0.10749 0.53171 0.69702
 C234 C -0.12773 0.45855 0.73482
 C235 C 0.04017 0.41018 0.74245
 C236 C -0.06184 0.57175 0.68178
 N237 N 0.34996 0.22126 0.12511
 N238 N 0.36694 0.25332 0.08864
 N239 N 0.65539 0.82652 0.13380
 N240 N 0.63230 0.84470 0.09405
 N241 N 0.64148 0.16302 -0.14102
 N242 N 0.61153 0.13868 -0.10556
 N243 N 0.37127 0.77204 -0.14131
 N244 N 0.38881 0.73917 -0.10704
 N245 N 0.12134 0.38605 0.26281
 N246 N 0.08474 0.39423 0.30143
 N247 N 0.19342 0.59564 0.69888
 N248 N 0.17540 0.55311 0.68547
 N249 N -0.17370 0.65703 0.30889
 N250 N -0.16988 0.61451 0.33116
 N251 N -0.21065 0.39298 0.74114
 N252 N -0.19607 0.43848 0.74613
 N253 N 0.22071 0.13499 0.37710
 N254 N 0.27110 0.10542 0.38435
 N255 N 0.80609 0.15474 0.61544
 N256 N 0.76473 0.11835 0.60457
 N257 N 0.23702 -0.13966 0.61371
 N258 N 0.28767 -0.10888 0.60059
 N259 N 0.76960 -0.08393 0.36883
 N260 N 0.81839 -0.07604 0.39914
 N261 N 0.66879 0.75758 -0.12111
 N262 N 0.63722 0.79557 -0.10531
 N263 N 0.32045 0.16845 -0.13641
 N264 N 0.34414 0.20855 -0.11742
 N265 N 0.33294 0.75614 0.13800
 N266 N 0.33564 0.76588 0.09221
 N267 N 0.63189 0.19814 0.11889
 N268 N 0.62868 0.22779 0.07960
 N269 N -0.11784 0.64970 0.68634
 N270 N -0.09481 0.61586 0.66139
 N271 N -0.18690 0.39354 0.24725
 N272 N -0.17303 0.43995 0.24214
 N273 N 0.07488 0.32906 0.72648
 N274 N 0.07104 0.36322 0.75820
 N275 N 0.15772 0.62407 0.35028
 N276 N 0.12083 0.58980 0.37231
 N277 N 0.76076 -0.09798 0.63881
 N278 N 0.80968 -0.08532 0.60719
 N279 N 0.31847 -0.12578 0.37294
 N280 N 0.26767 -0.11233 0.39966
 N281 N 0.74608 0.13885 0.37159
 N282 N 0.79934 0.13419 0.39825
 N283 N 0.21457 0.11004 0.61130
 N284 N 0.27166 0.09174 0.59757
   
