data_POSCAR
  _audit_creation_date              2014-09-24
  _audit_creation_method            'ToBaCCo'
  _symmetry_space_group_name_H-M    'P1'
  _symmetry_Int_Tables_number       1
  _symmetry_cell_setting            triclinic
  loop_
  _symmetry_equiv_pos_as_xyz
 x,y,z
_cell_length_a 17.3511
_cell_length_b 17.2847
_cell_length_c 17.3388
_cell_angle_alpha 80.839200
_cell_angle_beta 99.077500
_cell_angle_gamma 67.279800
loop_
  _atom_site_label
  _atom_site_type_symbol
  _atom_site_fract_x
  _atom_site_fract_y
  _atom_site_fract_z
C1 C 0.59372 0.46992 0.01545
 C2 C 0.53528 0.55730 0.00704
 C3 C 0.44621 0.57942 -0.01274
 C4 C 0.41307 0.51711 -0.01518
 C5 C 0.47166 0.42970 -0.00487
 C6 C 0.56050 0.40768 0.01228
 H7 H 0.60433 0.34155 0.01650
 H8 H 0.40149 0.64532 -0.01785
 C9 C -0.00935 0.43115 0.52139
 C10 C 0.00791 0.47690 0.57769
 C11 C 0.01481 0.55452 0.55066
 C12 C 0.00768 0.58798 0.46872
 C13 C -0.00771 0.54037 0.41262
 C14 C -0.01570 0.46348 0.43996
 H15 H -0.03073 0.43036 0.39587
 H16 H 0.02928 0.58693 0.59557
 C17 C 0.47640 -0.00828 0.42720
 C18 C 0.41918 0.00214 0.47845
 C19 C 0.44716 0.00400 0.55825
 C20 C 0.53002 -0.00143 0.58864
 C21 C 0.58398 -0.00136 0.53406
 C22 C 0.55733 -0.00963 0.45583
 H23 H 0.59890 -0.01463 0.41497
 H24 H 0.40374 0.00756 0.59737
 O25 O 0.46198 0.00638 -0.11998
 O26 O 0.41138 -0.00052 0.07874
 O27 O 0.40747 0.12124 -0.03698
 O28 O 0.46510 -0.11129 -0.00658
 O29 O 0.59862 -0.14115 0.05454
 O30 O 0.54240 0.09208 0.01815
 O31 O 0.54458 -0.02396 0.13420
 O32 O 0.59748 -0.02719 -0.06248
 Cu33 Cu 0.42259 0.00761 -0.02675
 Cu34 Cu 0.58426 -0.02737 0.04158
 C35 C 0.53916 -0.01213 -0.12451
 C36 C 0.46957 -0.01384 0.14027
 C37 C 0.46535 0.14630 -0.01490
 C38 C 0.54135 -0.16575 0.02897
 O39 O -0.13484 0.53404 0.96795
 O40 O 0.04807 0.59190 0.96206
 O41 O -0.03764 0.53653 0.86700
 O42 O -0.05539 0.59942 1.05828
 O43 O 0.03525 0.46667 1.12537
 O44 O 0.05314 0.40332 0.93274
 O45 O 0.13810 0.45854 1.02815
 O46 O -0.04398 0.40094 1.03383
 Cu47 Cu -0.05407 0.57876 0.95725
 Cu48 Cu 0.05445 0.41902 1.03685
 C49 C -0.12034 0.45760 1.00292
 C50 C 0.12437 0.53436 0.99264
 C51 C 0.01195 0.46003 0.86698
 C52 C -0.01397 0.54393 1.12440
 O53 O -0.02009 -0.06082 0.40734
 O54 O -0.05884 0.14846 0.45701
 O55 O 0.05814 0.04144 0.40651
 O56 O -0.14235 0.04913 0.45630
 O57 O -0.07357 -0.01155 0.58393
 O58 O 0.12955 -0.02817 0.53196
 O59 O 0.01168 0.08113 0.58327
 O60 O 0.04384 -0.12769 0.53482
 Cu61 Cu -0.04827 0.05089 0.41917
 Cu62 Cu 0.03557 -0.02960 0.57098
 C63 C 0.01669 -0.12975 0.46303
 C64 C -0.02824 0.15018 0.52801
 C65 C 0.12746 0.00776 0.46118
 C66 C -0.14241 0.02137 0.52863
 N67 N -0.18199 0.35805 1.04576
 N68 N -0.25794 0.35994 1.05124
 C69 C -0.31720 0.44246 1.02026
 C70 C -0.27455 0.49028 0.99235
 N71 N -0.19074 0.43572 1.01070
 H72 H -0.30126 0.55770 0.96084
 N73 N 0.18857 0.63174 0.95050
 N74 N 0.26531 0.62836 0.94637
 C75 C 0.32345 0.54524 0.97696
 C76 C 0.27910 0.49830 1.00239
 N77 N 0.19568 0.55435 0.98413
 H78 H 0.30440 0.43088 1.03334
 N79 N 0.02432 -0.22487 0.37225
 N80 N 0.02116 -0.30012 0.37171
 C81 C 0.01754 -0.33420 0.44607
 C82 C 0.02117 -0.27692 0.49313
 N83 N 0.02471 -0.20999 0.44470
 H84 H 0.01578 -0.27979 0.55472
 N85 N -0.04682 0.25121 0.61412
 N86 N -0.04171 0.32566 0.61466
 C87 C -0.02451 0.35212 0.54438
 C88 C -0.02169 0.29183 0.49970
 N89 N -0.03566 0.23043 0.54530
 H90 H -0.00617 0.28970 0.44180
 N91 N 0.64098 -0.05468 -0.20816
 N92 N 0.64066 -0.05321 -0.28478
 C93 C 0.55774 -0.01305 -0.32735
 C94 C 0.50692 0.00759 -0.27284
 N95 N 0.56131 -0.01813 -0.19998
 H96 H 0.43749 0.03976 -0.28452
 N97 N 0.39644 -0.04850 0.24035
 N98 N 0.39770 -0.04956 0.31714
 C99 C 0.45452 -0.01827 0.34383
 C100 C 0.48938 0.00031 0.28080
 N101 N 0.45105 -0.01869 0.21773
 H102 H 0.53704 0.02618 0.27998
 N103 N 0.63561 -0.31908 0.08396
 N104 N 0.63619 -0.39492 0.07847
 C105 C 0.56167 -0.37907 0.02690
 C106 C 0.51444 -0.29040 0.00287
 N107 N 0.56289 -0.25582 0.03898
 H108 H 0.45217 -0.25386 -0.03895
 N109 N 0.37607 0.29803 -0.08150
 N110 N 0.37539 0.37482 -0.08048
 C111 C 0.44418 0.36162 -0.02250
 C112 C 0.48830 0.27373 0.01048
 N113 N 0.44356 0.23672 -0.02750
 H114 H 0.54725 0.23982 0.05730
 N115 N -0.24652 0.05167 0.61118
 N116 N -0.32001 0.04608 0.61426
 C117 C -0.34090 0.01367 0.55219
 C118 C -0.27810 0.00299 0.50879
 N119 N -0.22079 0.02636 0.54809
 H120 H -0.27170 -0.02256 0.45595
 N121 N 0.20119 0.06321 0.37510
 N122 N 0.27724 0.06470 0.37773
 C123 C 0.32897 0.01484 0.44992
 C124 C 0.28135 -0.01610 0.49225
 N125 N 0.20245 0.01478 0.44299
 H126 H 0.30153 -0.05582 0.55303
 N127 N -0.08165 0.64465 1.20264
 N128 N -0.08165 0.64670 1.27872
 C129 C -0.02168 0.56951 1.32437
 C130 C 0.01351 0.51919 1.27351
 N131 N -0.02495 0.56872 1.19832
 H132 H 0.06041 0.45242 1.28957
 N133 N 0.07706 0.36216 0.78499
 N134 N 0.07804 0.36419 0.70839
 C135 C 0.02267 0.44465 0.66551
 C136 C -0.01126 0.49223 0.71840
 N137 N 0.02357 0.43830 0.79206
 H138 H -0.05560 0.55980 0.70480
   
