data_POSCAR
  _audit_creation_date              2014-09-24
  _audit_creation_method            'ToBaCCo'
  _symmetry_space_group_name_H-M    'P1'
  _symmetry_Int_Tables_number       1
  _symmetry_cell_setting            triclinic
  loop_
  _symmetry_equiv_pos_as_xyz
 x,y,z
_cell_length_a 44.3256
_cell_length_b 44.4322
_cell_length_c 44.4172
_cell_angle_alpha 90.108100
_cell_angle_beta 90.131800
_cell_angle_gamma 89.912300
loop_
  _atom_site_label
  _atom_site_type_symbol
  _atom_site_fract_x
  _atom_site_fract_y
  _atom_site_fract_z
N1 N 0.18310 0.18570 0.18394
 N2 N -0.18095 0.81877 0.18320
 N3 N -0.18393 0.18210 -0.18439
 N4 N 0.18396 0.81598 -0.18142
 N5 N 0.18277 1.18292 0.81918
 N6 N 0.81760 0.81911 0.81652
 N7 N 0.18400 0.81496 1.18338
 N8 N 0.81813 1.18411 1.18478
 O9 O 0.45830 0.94513 0.94967
 O10 O 0.42488 0.97403 0.97676
 C11 C 0.43115 0.95297 0.95750
 O12 O 0.54253 0.94962 1.05768
 O13 O 0.57565 0.97680 1.02878
 C14 C 0.56958 0.95756 1.04983
 O15 O 0.45776 0.94713 1.05517
 O16 O 0.42467 0.97460 1.02628
 C17 C 0.43070 0.95444 1.04649
 O18 O 0.54318 0.94773 0.94781
 O19 O 0.57591 0.97627 0.97605
 C20 C 0.57014 0.95627 0.95554
 Zr21 Zr 0.50059 0.96226 0.96413
 O22 O 0.50364 0.91472 0.96518
 O23 O 0.49772 0.96158 0.91655
 Zr24 Zr 0.50018 0.96316 1.04002
 O25 O 0.50110 0.91580 1.03578
 O26 O 0.49975 0.95981 1.08750
 O27 O 0.47345 0.95682 1.00200
 O28 O 0.52680 0.95739 1.00236
 O29 O 0.54252 1.05282 0.94652
 O30 O 0.57560 1.02572 0.97575
 C31 C 0.56958 1.04500 0.95470
 O32 O 0.45754 1.05702 1.05301
 O33 O 0.42481 1.02695 1.02657
 C34 C 0.43059 1.04848 1.04542
 O35 O 0.54217 1.05450 1.05604
 O36 O 0.57538 1.02630 1.02812
 C37 C 0.56927 1.04626 1.04853
 O38 O 0.45755 1.05447 0.94794
 O39 O 0.42457 1.02661 0.97632
 C40 C 0.43053 1.04690 0.95627
 Zr41 Zr 0.50006 1.03843 0.96312
 O42 O 0.50287 1.08600 0.96302
 O43 O 0.49711 1.03779 0.91554
 Zr44 Zr 0.49985 1.03951 1.03931
 O45 O 0.50290 1.08704 1.03893
 O46 O 0.49675 1.03959 1.08687
 Zr47 Zr 0.45534 1.00070 1.00145
 Zr48 Zr 0.54491 1.00109 1.00198
 O49 O 0.52609 1.04457 1.00131
 O50 O 0.47301 1.04472 1.00099
 O51 O 0.52720 1.00040 0.95789
 O52 O 0.47384 1.00134 1.04508
 O53 O 0.47415 1.00013 0.95800
 O54 O 0.52673 1.00152 1.04581
 H55 H 0.54072 0.93993 1.00265
 H56 H 0.46001 1.00165 1.06257
 H57 H 0.53969 1.06224 1.00119
 H58 H 0.46053 0.99978 0.94028
 H59 H 0.49403 0.97980 1.09542
 H60 H 0.51402 1.02781 1.09472
 H61 H 0.48693 1.09461 1.02531
 H62 H 0.48508 1.09385 0.97393
 H63 H 0.51426 1.02573 0.90795
 H64 H 0.51454 0.97388 0.90872
 H65 H 0.48805 0.90746 0.97931
 H66 H 0.50153 0.90781 1.05659
 O67 O 0.05548 0.45719 -0.05079
 O68 O 0.02449 0.42445 -0.02558
 C69 C 0.04652 0.43026 -0.04380
 O70 O 0.04871 0.54265 0.05503
 O71 O 0.02308 0.57544 0.02433
 C72 C 0.04157 0.56960 0.04621
 O73 O 0.05241 0.45820 0.05186
 O74 O 0.02288 0.42501 0.02530
 C75 C 0.04399 0.43117 0.04459
 O76 O 0.05259 0.54187 -0.05464
 O77 O 0.02330 0.57513 -0.02780
 C78 C 0.04386 0.56892 -0.04760
 Zr79 Zr 0.03714 0.49973 -0.03857
 O80 O 0.08482 0.50142 -0.03873
 O81 O 0.03611 0.50090 -0.08629
 Zr82 Zr 0.03522 0.50028 0.03740
 O83 O 0.08284 0.50201 0.03607
 O84 O 0.03512 0.49734 0.08496
 O85 O 0.04188 0.47313 -0.00022
 O86 O 0.04171 0.52622 -0.00054
 O87 O -0.05233 0.54195 -0.05901
 O88 O -0.02703 0.57504 -0.02828
 C89 C -0.04537 0.56898 -0.05024
 O90 O -0.05891 0.45838 0.04922
 O91 O -0.02855 0.42511 0.02372
 C92 C -0.05023 0.43131 0.04227
 O93 O -0.05605 0.54307 0.05139
 O94 O -0.02715 0.57568 0.02368
 C95 C -0.04747 0.56996 0.04379
 O96 O -0.05633 0.45756 -0.05481
 O97 O -0.02726 0.42467 -0.02742
 C98 C -0.04815 0.43060 -0.04700
 Zr99 Zr -0.03913 0.49983 -0.04072
 O100 O -0.08672 0.50373 -0.04215
 O101 O -0.03756 0.49626 -0.08821
 Zr102 Zr -0.04119 0.50050 0.03539
 O103 O -0.08882 0.50407 0.03427
 O104 O -0.04190 0.49749 0.08296
 Zr105 Zr -0.00213 0.45529 -0.00134
 Zr106 Zr -0.00194 0.54476 -0.00181
 O107 O -0.04562 0.52630 -0.00299
 O108 O -0.04614 0.47332 -0.00267
 O109 O -0.00081 0.52653 -0.04558
 O110 O -0.00315 0.47436 0.04207
 O111 O -0.00085 0.47347 -0.04502
 O112 O -0.00310 0.52720 0.04220
 H113 H 0.05945 0.53975 -0.00009
 H114 H -0.00353 0.46098 0.05989
 H115 H -0.06330 0.53997 -0.00359
 H116 H -0.00048 0.45948 -0.06239
 H117 H 0.02070 0.51259 0.09246
 H118 H -0.03080 0.51506 0.09102
 H119 H -0.09648 0.48747 0.02154
 H120 H -0.09512 0.48733 -0.02971
 H121 H -0.02161 0.51011 -0.09523
 H122 H 0.03313 0.48022 -0.09402
 H123 H 0.09176 0.49120 -0.02020
 H124 H 0.08972 0.50207 0.05732
 O125 O 0.94908 0.05369 0.54227
 O126 O 0.97718 0.02572 0.57560
 C127 C 0.95661 0.04552 0.56935
 O128 O 0.95078 -0.05454 0.45823
 O129 O 0.97917 -0.02671 0.42525
 C130 C 0.95927 -0.04715 0.43125
 O131 O 0.94805 -0.05180 0.54283
 O132 O 0.97663 -0.02389 0.57583
 C133 C 0.95582 -0.04352 0.56984
 O134 O 0.95241 0.05588 0.45750
 O135 O 0.97875 0.02545 0.42499
 C136 C 0.95990 0.04706 0.43063
 Zr137 Zr 0.96599 0.03885 0.50008
 O138 O 0.91833 0.03924 0.49682
 O139 O 0.96664 0.08640 0.50320
 Zr140 Zr 0.96461 -0.03712 0.50056
 O141 O 0.91729 -0.03143 0.49955
 O142 O 0.95982 -0.08450 0.50052
 O143 O 0.95937 0.00113 0.52717
 O144 O 0.95999 0.00067 0.47398
 O145 O 1.05625 0.05454 0.45824
 O146 O 1.02939 0.02496 0.42532
 C147 C 1.04868 0.04603 0.43126
 O148 O 1.05726 -0.05320 0.54372
 O149 O 1.02922 -0.02439 0.57631
 C150 C 1.04960 -0.04454 0.57058
 O151 O 1.05492 -0.05673 0.45917
 O152 O 1.02925 -0.02665 0.42583
 C153 C 1.04789 -0.04826 0.43208
 O154 O 1.05863 0.05265 0.54303
 O155 O 1.02994 0.02506 0.57592
 C156 C 1.05073 0.04465 0.57000
 Zr157 Zr 1.04228 0.03758 0.50064
 O158 O 1.08991 0.03570 0.49764
 O159 O 1.04387 0.08509 0.50358
 Zr160 Zr 1.04104 -0.03867 0.50119
 O161 O 1.08871 -0.03902 0.49832
 O162 O 1.04036 -0.08619 0.50436
 Zr163 Zr 1.00335 0.00045 0.54529
 Zr164 Zr 1.00381 -0.00033 0.45593
 O165 O 1.04736 -0.00086 0.47486
 O166 O 1.04749 -0.00041 0.52775
 O167 O 1.00435 0.04382 0.47348
 O168 O 1.00265 -0.04322 0.52703
 O169 O 1.00406 0.04388 0.52648
 O170 O 1.00290 -0.04406 0.47423
 H171 H 0.94246 0.00076 0.46009
 H172 H 1.00249 -0.06060 0.54094
 H173 H 1.06508 -0.00122 0.46130
 H174 H 1.00415 0.06161 0.54002
 H175 H 0.97798 -0.09305 0.51021
 H176 H 1.02591 -0.09361 0.48904
 H177 H 1.09654 -0.02686 0.51529
 H178 H 1.09744 0.02514 0.51575
 H179 H 1.02999 0.09313 0.48810
 H180 H 0.97894 0.09401 0.48631
 H181 H 0.91058 0.02533 0.51236
 H182 H 0.90865 -0.05197 0.49890
 C183 C 1.14367 0.14428 0.25775
 N184 N 1.14389 0.17472 0.25531
 N185 N 1.15634 0.18793 0.23149
 C186 C 1.16927 0.17121 0.20935
 N187 N 1.16925 0.14076 0.21197
 N188 N 1.15652 0.12753 0.23563
 C189 C 1.12973 0.12971 0.28385
 N190 N 1.12264 0.10002 0.28300
 N191 N 1.10973 0.08683 0.30658
 C192 C 1.10376 0.10277 0.33199
 N193 N 1.11102 0.13243 0.33292
 N194 N 1.12364 0.14570 0.30920
 C195 C 1.08951 0.08815 0.35789
 N196 N 1.09015 0.10122 0.38556
 N197 N 1.07729 0.08776 0.40905
 C198 C 1.06306 0.06093 0.40561
 N199 N 1.06230 0.04798 0.37792
 N200 N 1.07543 0.06126 0.35453
 C201 C 0.86161 -0.14322 0.25741
 N202 N 0.83107 -0.14346 0.25529
 N203 N 0.81750 -0.15544 0.23133
 C204 C 0.83395 -0.16787 0.20872
 N205 N 0.86452 -0.16781 0.21099
 N206 N 0.87810 -0.15553 0.23480
 C207 C 0.87652 -0.12978 0.28368
 N208 N 0.90621 -0.12242 0.28270
 N209 N 0.91963 -0.10981 0.30642
 C210 C 0.90393 -0.10444 0.33209
 N211 N 0.87429 -0.11201 0.33314
 N212 N 0.86079 -0.12432 0.30930
 C213 C 0.91860 -0.09018 0.35804
 N214 N 0.90565 -0.09110 0.38569
 N215 N 0.91881 -0.07774 0.40916
 C216 C 0.94521 -0.06271 0.40572
 N217 N 0.95812 -0.06174 0.37806
 N218 N 0.94513 -0.07538 0.35467
 C219 C 0.85635 0.14101 0.74187
 N220 N 0.84384 0.12415 0.76400
 N221 N 0.83082 0.13726 0.78765
 C222 C 0.83019 0.16773 0.79023
 N223 N 0.84280 0.18455 0.76809
 N224 N 0.85552 0.17145 0.74429
 C225 C 0.87065 0.12660 0.71581
 N226 N 0.87632 0.14258 0.69043
 N227 N 0.88941 0.12951 0.66680
 C228 C 0.89757 0.10007 0.66784
 N229 N 0.89200 0.08412 0.69326
 N230 N 0.87862 0.09711 0.71676
 C231 C 0.91256 0.08580 0.64209
 N232 N 0.92776 0.05951 0.64564
 N233 N 0.94182 0.04674 0.62243
 C234 C 0.94093 0.05963 0.59475
 N235 N 0.92553 0.08581 0.59113
 N236 N 0.91173 0.09876 0.61444
 C237 C 1.14636 -0.14218 0.74397
 N238 N 1.14633 -0.17264 0.74628
 N239 N 1.15839 -0.18608 0.77024
 C240 C 1.17122 -0.16956 0.79260
 N241 N 1.17143 -0.13910 0.79017
 N242 N 1.15908 -0.12564 0.76636
 C243 C 1.13259 -0.12736 0.71785
 N244 N 1.12532 -0.09769 0.71890
 N245 N 1.11236 -0.08433 0.69534
 C246 C 1.10652 -0.10010 0.66979
 N247 N 1.11398 -0.12973 0.66867
 N248 N 1.12664 -0.14316 0.69234
 C249 C 1.09208 -0.08547 0.64392
 N250 N 1.09281 -0.09853 0.61628
 N251 N 1.07952 -0.08533 0.59282
 C252 C 1.06474 -0.05877 0.59625
 N253 N 1.06391 -0.04576 0.62392
 N254 N 1.07749 -0.05880 0.64730
 C255 C 0.25691 1.14655 1.14187
 N256 N 0.25770 1.17588 1.15048
 N257 N 0.23396 1.18850 1.16391
 C258 C 0.20869 1.17219 1.16941
 N259 N 0.20797 1.14285 1.16083
 N260 N 0.23160 1.13030 1.14724
 C261 C 0.28294 1.13251 1.12702
 N262 N 0.28034 1.10483 1.11430
 N263 N 0.30390 1.09191 1.10091
 C264 C 0.33098 1.10608 1.09992
 N265 N 0.33362 1.13375 1.11268
 N266 N 0.30998 1.14678 1.12591
 C267 C 0.35693 1.09149 1.08548
 N268 N 0.38517 1.10293 1.08861
 N269 N 0.40870 1.08927 1.07586
 C270 C 0.40480 1.06381 1.05935
 N271 N 0.37655 1.05250 1.05610
 N272 N 0.35307 1.06603 1.06901
 C273 C 0.25884 0.85339 0.86038
 N274 N 0.23647 0.84085 0.87694
 N275 N 0.21259 0.82852 0.86351
 C276 C 0.21006 0.82860 0.83303
 N277 N 0.23240 0.84125 0.81647
 N278 N 0.25644 0.85327 0.82990
 C279 C 0.28496 0.86728 0.87518
 N280 N 0.31053 0.87303 0.85946
 N281 N 0.33413 0.88594 0.87286
 C282 C 0.33286 0.89386 0.90236
 N283 N 0.30725 0.88819 0.91806
 N284 N 0.28378 0.87498 0.90475
 C285 C 0.35854 0.90876 0.91692
 N286 N 0.35478 0.92405 0.94314
 N287 N 0.37794 0.93814 0.95606
 C288 C 0.40578 0.93717 0.94340
 N289 N 0.40960 0.92168 0.91731
 N290 N 0.38635 0.90787 0.90421
 C291 C 0.74265 0.85928 1.14721
 N292 N 0.74598 0.82891 1.14607
 N293 N 0.77038 0.81578 1.15777
 C294 C 0.79213 0.83251 1.17140
 N295 N 0.78861 0.86286 1.17269
 N296 N 0.76441 0.87600 1.16070
 C297 C 0.71639 0.87402 1.13347
 N298 N 0.71726 0.90381 1.12680
 N299 N 0.69370 0.91726 1.11388
 C300 C 0.66828 0.90149 1.10750
 N301 N 0.66732 0.87173 1.11435
 N302 N 0.69103 0.85819 1.12696
 C303 C 0.64248 0.91632 1.09303
 N304 N 0.61466 0.90362 1.09378
 N305 N 0.59132 0.91701 1.08038
 C306 C 0.59504 0.94338 1.06546
 N307 N 0.62288 0.95603 1.06465
 N308 N 0.64614 0.94283 1.07836
 C309 C 0.74253 1.14200 0.85685
 N310 N 0.74113 1.17114 0.84775
 N311 N 0.76480 1.18409 0.83466
 C312 C 0.79063 1.16831 0.82998
 N313 N 0.79199 1.13918 0.83907
 N314 N 0.76842 1.12630 0.85234
 C315 C 0.71654 1.12758 0.87125
 N316 N 0.71960 1.10030 0.88462
 N317 N 0.69609 1.08709 0.89770
 C318 C 0.66860 1.10058 0.89767
 N319 N 0.66549 1.12783 0.88421
 N320 N 0.68907 1.14114 0.87131
 C321 C 0.64276 1.08599 0.91217
 N322 N 0.61436 1.09677 0.90816
 N323 N 0.59097 1.08355 0.92148
 C324 C 0.59518 1.05920 0.93945
 N325 N 0.62358 1.04846 0.94348
 N326 N 0.64693 1.06154 0.92999
 C327 C 0.14316 0.26104 0.14555
 N328 N 0.17358 0.25745 0.14472
 N329 N 0.18653 0.23345 0.15729
 C330 C 0.16956 0.21238 0.17150
 N331 N 0.13917 0.21618 0.17249
 N332 N 0.12622 0.23998 0.15966
 C333 C 0.12863 0.28677 0.13075
 N334 N 0.09873 0.28595 0.12413
 N335 N 0.08546 0.30898 0.11022
 C336 C 0.10155 0.33380 0.10270
 N337 N 0.13142 0.33473 0.10949
 N338 N 0.14477 0.31154 0.12312
 C339 C 0.08679 0.35911 0.08741
 N340 N 0.09983 0.38673 0.08698
 N341 N 0.08615 0.40975 0.07339
 C342 C 0.05914 0.40586 0.05945
 N343 N 0.04622 0.37819 0.05970
 N344 N 0.05973 0.35527 0.07358
 C345 C -0.14545 0.25828 -0.14613
 N346 N -0.12812 0.23744 -0.16027
 N347 N -0.14062 0.21336 -0.17304
 C348 C -0.17092 0.20904 -0.17194
 N349 N -0.18827 0.22986 -0.15767
 N350 N -0.17578 0.25415 -0.14517
 C351 C -0.13135 0.28433 -0.13148
 N352 N -0.14784 0.30904 -0.12411
 N353 N -0.13480 0.33258 -0.11075
 C354 C -0.10490 0.33206 -0.10397
 N355 N -0.08850 0.30729 -0.11120
 N356 N -0.10145 0.28393 -0.12485
 C357 C -0.09044 0.35772 -0.08896
 N358 N -0.06343 0.35420 -0.07494
 N359 N -0.05012 0.37740 -0.06135
 C360 C -0.06316 0.40505 -0.06159
 N361 N -0.09012 0.40863 -0.07573
 N362 N -0.10361 0.38532 -0.08903
 C363 C 0.14227 0.74120 -0.14442
 N364 N 0.12565 0.76341 -0.15730
 N365 N 0.13905 0.78727 -0.16945
 C366 C 0.16956 0.78994 -0.16887
 N367 N 0.18619 0.76776 -0.15588
 N368 N 0.17279 0.74375 -0.14402
 C369 C 0.12745 0.71510 -0.13076
 N370 N 0.14337 0.68977 -0.12439
 N371 N 0.12991 0.66618 -0.11175
 C372 C 0.10013 0.66722 -0.10475
 N373 N 0.08424 0.69259 -0.11104
 N374 N 0.09763 0.71605 -0.12397
 C375 C 0.08541 0.64153 -0.09025
 N376 N 0.05848 0.64509 -0.07620
 N377 N 0.04528 0.62192 -0.06257
 C378 C 0.05838 0.59429 -0.06280
 N379 N 0.08521 0.59067 -0.07703
 N380 N 0.09858 0.61392 -0.09038
 C381 C -0.14271 0.74464 0.14096
 N382 N -0.17208 0.74420 0.14957
 N383 N -0.18446 0.76809 0.16291
 C384 C -0.16784 0.79319 0.16833
 N385 N -0.13849 0.79359 0.15971
 N386 N -0.12618 0.76981 0.14619
 C387 C -0.12885 0.71839 0.12640
 N388 N -0.10116 0.72064 0.11365
 N389 N -0.08838 0.69687 0.10053
 C390 C -0.10271 0.66991 0.09989
 N391 N -0.13039 0.66760 0.11273
 N392 N -0.14328 0.69145 0.12567
 C393 C -0.08843 0.64380 0.08548
 N394 N -0.10003 0.61574 0.08887
 N395 N -0.08689 0.59211 0.07577
 C396 C -0.06182 0.59575 0.05866
 N397 N -0.05029 0.62382 0.05523
 N398 N -0.06329 0.64738 0.06849
 C399 C 1.14562 0.14277 0.74460
 N400 N 1.14110 0.17248 0.75008
 N401 N 1.15305 0.18552 0.77437
 C402 C 1.17038 0.16952 0.79404
 N403 N 1.17495 0.13975 0.78820
 N404 N 1.16269 0.12663 0.76415
 C405 C 1.13205 0.12815 0.71817
 N406 N 1.12809 0.09787 0.71761
 N407 N 1.11547 0.08453 0.69383
 C408 C 1.10676 0.10093 0.66957
 N409 N 1.11093 0.13120 0.67002
 N410 N 1.12318 0.14460 0.69397
 C411 C 1.09265 0.08617 0.64350
 N412 N 1.09232 0.09972 0.61613
 N413 N 1.07935 0.08630 0.59256
 C414 C 1.06592 0.05904 0.59563
 N415 N 1.06614 0.04557 0.62304
 N416 N 1.07946 0.05879 0.64649
 C417 C 0.85829 -0.14049 0.74288
 N418 N 0.84944 -0.16972 0.74156
 N419 N 0.83653 -0.18276 0.76525
 C420 C 0.83179 -0.16698 0.79104
 N421 N 0.84062 -0.13776 0.79230
 N422 N 0.85372 -0.12479 0.76871
 C423 C 0.87253 -0.12600 0.71684
 N424 N 0.88561 -0.09854 0.71974
 N425 N 0.89857 -0.08532 0.69621
 C426 C 0.89873 -0.09896 0.66884
 N427 N 0.88554 -0.12638 0.66589
 N428 N 0.87276 -0.13970 0.68949
 C429 C 0.91318 -0.08437 0.64298
 N430 N 0.90950 -0.09547 0.61470
 N431 N 0.92283 -0.08230 0.59132
 C432 C 0.94048 -0.05766 0.59541
 N433 N 0.94418 -0.04660 0.62369
 N434 N 0.93068 -0.05964 0.64702
 C435 C 1.14680 -0.14640 0.26004
 N436 N 1.16065 -0.12917 0.23903
 N437 N 1.17309 -0.14172 0.21480
 C438 C 1.17195 -0.17197 0.21049
 N439 N 1.15801 -0.18921 0.23151
 N440 N 1.14583 -0.17668 0.25594
 C441 C 1.13235 -0.13224 0.28620
 N442 N 1.12483 -0.14867 0.31082
 N443 N 1.11149 -0.13562 0.33436
 C444 C 1.10488 -0.10576 0.33394
 N445 N 1.11229 -0.08941 0.30927
 N446 N 1.12592 -0.10237 0.28591
 C447 C 1.08979 -0.09123 0.35952
 N448 N 1.07622 -0.06406 0.35596
 N449 N 1.06263 -0.05060 0.37905
 C450 C 1.06237 -0.06364 0.40666
 N451 N 1.07604 -0.09078 0.41029
 N452 N 1.08936 -0.10442 0.38708
 C453 C 0.86105 0.14378 0.25759
 N454 N 0.84793 0.12669 0.23585
 N455 N 0.83410 0.13956 0.21251
 C456 C 0.83319 0.17000 0.20982
 N457 N 0.84642 0.18705 0.23156
 N458 N 0.85997 0.17420 0.25506
 C459 C 0.87607 0.12960 0.28344
 N460 N 0.88248 0.14581 0.30859
 N461 N 0.89593 0.13286 0.33212
 C462 C 0.90374 0.10332 0.33121
 N463 N 0.89747 0.08716 0.30599
 N464 N 0.88374 0.10002 0.28259
 C465 C 0.91863 0.08898 0.35705
 N466 N 0.93279 0.06207 0.35377
 N467 N 0.94619 0.04892 0.37718
 C468 C 0.94567 0.06204 0.40481
 N469 N 0.93144 0.08892 0.40813
 N470 N 0.91830 0.10224 0.38463
 C471 C 0.14365 0.25776 -0.14326
 N472 N 0.12722 0.23880 -0.16075
 N473 N 0.14003 0.21474 -0.17334
 C474 C 0.16973 0.20833 -0.16864
 N475 N 0.18603 0.22753 -0.15106
 N476 N 0.17332 0.25179 -0.13879
 C477 C 0.12940 0.28391 -0.12880
 N478 N 0.14637 0.30725 -0.11863
 N479 N 0.13343 0.33077 -0.10514
 C480 C 0.10310 0.33159 -0.10097
 N481 N 0.08617 0.30818 -0.11103
 N482 N 0.09906 0.28485 -0.12485
 C483 C 0.08877 0.35721 -0.08570
 N484 N 0.06091 0.35427 -0.07345
 N485 N 0.04773 0.37747 -0.05970
 C486 C 0.06175 0.40455 -0.05799
 N487 N 0.08958 0.40756 -0.07035
 N488 N 0.10294 0.38423 -0.08378
 C489 C -0.14502 0.26017 0.14502
 N490 N -0.12717 0.23969 0.15904
 N491 N -0.13913 0.21567 0.17229
 C492 C -0.16941 0.21104 0.17185
 N493 N -0.18729 0.23152 0.15771
 N494 N -0.17533 0.25575 0.14471
 C495 C -0.13149 0.28611 0.12973
 N496 N -0.14842 0.31040 0.12194
 N497 N -0.13589 0.33376 0.10792
 C498 C -0.10608 0.33348 0.10088
 N499 N -0.08924 0.30914 0.10857
 N500 N -0.10167 0.28597 0.12286
 C501 C -0.09209 0.35892 0.08517
 N502 N -0.06499 0.35540 0.07144
 N503 N -0.05193 0.37841 0.05743
 C504 C -0.06533 0.40589 0.05690
 N505 N -0.09242 0.40947 0.07070
 N506 N -0.10566 0.38634 0.08444
 C507 C -0.14452 0.74200 -0.14642
 N508 N -0.15882 0.76249 -0.12881
 N509 N -0.17147 0.78685 -0.14086
 C510 C -0.17012 0.79183 -0.17099
 N511 N -0.15570 0.77134 -0.18862
 N512 N -0.14330 0.74677 -0.17658
 C513 C -0.12987 0.71570 -0.13272
 N514 N -0.12197 0.69141 -0.14959
 N515 N -0.10852 0.66773 -0.13689
 C516 C -0.10219 0.66769 -0.10695
 N517 N -0.10999 0.69202 -0.09017
 N518 N -0.12371 0.71551 -0.10279
 C519 C -0.08701 0.64197 -0.09274
 N520 N -0.07369 0.64524 -0.06539
 N521 N -0.06012 0.62202 -0.05213
 C522 C -0.05965 0.59456 -0.06555
 N523 N -0.07304 0.59121 -0.09289
 N524 N -0.08633 0.61456 -0.10633
 C525 C 0.14114 0.74174 0.14391
 N526 N 0.14920 0.74106 0.17341
 N527 N 0.16291 0.76457 0.18610
 C528 C 0.16931 0.78952 0.16970
 N529 N 0.16131 0.79012 0.14018
 N530 N 0.14742 0.76671 0.12755
 C531 C 0.12587 0.71596 0.12984
 N532 N 0.11357 0.71855 0.10194
 N533 N 0.09972 0.69524 0.08907
 C534 C 0.09782 0.66842 0.10351
 N535 N 0.11020 0.66578 0.13139
 N536 N 0.12387 0.68917 0.14436
 C537 C 0.08282 0.64271 0.08903
 N538 N 0.08520 0.61460 0.10077
 N539 N 0.07199 0.59127 0.08721
 C540 C 0.05575 0.59525 0.06156
 N541 N 0.05324 0.62339 0.04995
 N542 N 0.06660 0.64666 0.06338
 C543 C 0.25717 1.14522 0.85926
 N544 N 0.23776 1.16238 0.87547
 N545 N 0.21379 1.17490 0.86237
 C546 C 0.20792 1.17048 0.83257
 N547 N 0.22750 1.15312 0.81650
 N548 N 0.25170 1.14092 0.82952
 C549 C 0.28341 1.13119 0.87379
 N550 N 0.30739 1.12192 0.85719
 N551 N 0.33112 1.10903 0.87041
 C552 C 0.33154 1.10458 0.90064
 N553 N 0.30750 1.11370 0.91720
 N554 N 0.28394 1.12695 0.90404
 C555 C 0.35738 1.08984 0.91516
 N556 N 0.35427 1.07663 0.94251
 N557 N 0.37758 1.06285 0.95555
 C558 C 0.40494 1.06213 0.94188
 N559 N 0.40811 1.07553 0.91463
 N560 N 0.38469 1.08897 0.90141
 C561 C 0.25764 0.85514 1.14204
 N562 N 0.23520 0.84284 1.12523
 N563 N 0.21161 0.82983 1.13840
 C564 C 0.20938 0.82897 1.16889
 N565 N 0.23184 0.84136 1.18567
 N566 N 0.25558 0.85408 1.17250
 C567 C 0.28369 0.86945 1.12758
 N568 N 0.30922 0.87515 1.14354
 N569 N 0.33284 0.88820 1.13047
 C570 C 0.33167 0.89632 1.10105
 N571 N 0.30610 0.89074 1.08511
 N572 N 0.28259 0.87739 1.09810
 C573 C 0.35752 0.91117 1.08677
 N574 N 0.35404 0.92606 1.06033
 N575 N 0.37737 0.93991 1.04757
 C576 C 0.40510 0.93909 1.06061
 N577 N 0.40863 0.92402 1.08695
 N578 N 0.38522 0.91044 1.09988
 C579 C 0.74338 1.14358 1.14553
 N580 N 0.76913 1.12770 1.15026
 N581 N 0.79306 1.14069 1.16296
 C582 C 0.79222 1.17011 1.17123
 N583 N 0.76650 1.18605 1.16636
 N584 N 0.74248 1.17300 1.15384
 C585 C 0.71706 1.12912 1.13152
 N586 N 0.68981 1.14313 1.13096
 N587 N 0.66600 1.12985 1.11826
 C588 C 0.66865 1.10219 1.10548
 N589 N 0.69592 1.08825 1.10597
 N590 N 0.71965 1.10141 1.11885
 C591 C 0.64263 1.08760 1.09104
 N592 N 0.64659 1.06258 1.07392
 N593 N 0.62318 1.04944 1.06046
 C594 C 0.59489 1.06068 1.06380
 N595 N 0.59087 1.08562 1.08106
 N596 N 0.61435 1.09891 1.09437
 C597 C 0.74418 0.86035 0.85754
 N598 N 0.74631 0.82991 0.85624
 N599 N 0.77002 0.81675 0.84333
 C600 C 0.79239 0.83354 0.83100
 N601 N 0.79013 0.86402 0.83215
 N602 N 0.76657 0.87718 0.84534
 C603 C 0.71806 0.87482 0.87182
 N604 N 0.71905 0.90429 0.87988
 N605 N 0.69540 0.91733 0.89305
 C606 C 0.66980 0.90147 0.89832
 N607 N 0.66875 0.87205 0.89009
 N608 N 0.69251 0.85892 0.87722
 C609 C 0.64379 0.91584 0.91288
 N610 N 0.61609 0.90288 0.91170
 N611 N 0.59253 0.91590 0.92504
 C612 C 0.59590 0.94219 0.94030
 N613 N 0.62361 0.95510 0.94155
 N614 N 0.64710 0.94224 0.92795
   
