data_POSCAR
  _audit_creation_date              2014-09-24
  _audit_creation_method            'ToBaCCo'
  _symmetry_space_group_name_H-M    'P1'
  _symmetry_Int_Tables_number       1
  _symmetry_cell_setting            triclinic
  loop_
  _symmetry_equiv_pos_as_xyz
 x,y,z
_cell_length_a 49.0604
_cell_length_b 49.0603
_cell_length_c 39.9251
_cell_angle_alpha 89.970500
_cell_angle_beta 89.972100
_cell_angle_gamma 89.995700
loop_
  _atom_site_label
  _atom_site_type_symbol
  _atom_site_fract_x
  _atom_site_fract_y
  _atom_site_fract_z
O1 O 0.02632 0.29336 -0.03199
 O2 O -0.02714 0.29323 0.03302
 O3 O 0.02612 0.29333 0.03322
 O4 O -0.02693 0.29333 -0.03218
 O5 O -0.02677 0.24838 -0.03212
 O6 O 0.02606 0.24838 0.03310
 O7 O -0.02698 0.24832 0.03288
 O8 O 0.02625 0.24841 -0.03192
 Cu9 Cu -0.00041 0.29783 0.00053
 Cu10 Cu -0.00035 0.24389 0.00049
 C11 C 0.03552 0.27086 -0.04297
 C12 C -0.03636 0.27070 0.04401
 C13 C 0.03526 0.27081 0.04423
 C14 C -0.03602 0.27081 -0.04323
 O15 O 0.47334 0.79322 0.53258
 O16 O 0.52647 0.79320 0.46720
 O17 O 0.47320 0.79322 0.46738
 O18 O 0.52661 0.79313 0.53241
 O19 O 0.52645 0.74817 0.53230
 O20 O 0.47328 0.74827 0.46746
 O21 O 0.52633 0.74825 0.46728
 O22 O 0.47340 0.74827 0.53248
 Cu23 Cu 0.49991 0.79771 0.49989
 Cu24 Cu 0.49986 0.74376 0.49988
 C25 C 0.46418 0.77070 0.54360
 C26 C 0.53559 0.77068 0.45617
 C27 C 0.46401 0.77071 0.45641
 C28 C 0.53576 0.77058 0.54337
 O29 O 1.02746 0.70743 0.03248
 O30 O 0.97411 0.70734 -0.03260
 O31 O 1.02737 0.70738 -0.03272
 O32 O 0.97419 0.70738 0.03261
 O33 O 0.97429 0.75234 0.03244
 O34 O 1.02724 0.75228 -0.03271
 O35 O 0.97419 0.75229 -0.03258
 O36 O 1.02734 0.75233 0.03231
 Cu37 Cu 1.00079 0.70287 -0.00005
 Cu38 Cu 1.00076 0.75679 -0.00014
 C39 C 1.03668 0.72994 0.04347
 C40 C 0.96492 0.72985 -0.04361
 C41 C 1.03656 0.72987 -0.04384
 C42 C 0.96504 0.72991 0.04359
 O43 O 0.52655 0.20606 0.53257
 O44 O 0.47348 0.20597 0.46720
 O45 O 0.52673 0.20610 0.46738
 O46 O 0.47330 0.20600 0.53241
 O47 O 0.47333 0.25095 0.53229
 O48 O 0.52654 0.25105 0.46745
 O49 O 0.47350 0.25093 0.46726
 O50 O 0.52636 0.25102 0.53246
 Cu51 Cu 0.50002 0.20151 0.49989
 Cu52 Cu 0.49992 0.25547 0.49986
 C53 C 0.53563 0.22860 0.54359
 C54 C 0.46432 0.22848 0.45615
 C55 C 0.53587 0.22864 0.45640
 C56 C 0.46409 0.22851 0.54337
 O57 O 0.70658 0.02630 -0.03205
 O58 O 0.70670 -0.02715 0.03297
 O59 O 0.70666 0.02611 0.03315
 O60 O 0.70657 -0.02695 -0.03223
 O61 O 0.75152 -0.02684 -0.03228
 O62 O 0.75162 0.02600 0.03294
 O63 O 0.75161 -0.02704 0.03274
 O64 O 0.75153 0.02619 -0.03208
 Cu65 Cu 0.70211 -0.00042 0.00048
 Cu66 Cu 0.75605 -0.00042 0.00032
 C67 C 0.72908 0.03548 -0.04308
 C68 C 0.72922 -0.03639 0.04392
 C69 C 0.72920 0.03523 0.04411
 C70 C 0.72908 -0.03606 -0.04334
 O71 O 0.20669 0.52644 0.46736
 O72 O 0.20680 0.47331 0.53275
 O73 O 0.20673 0.52658 0.53257
 O74 O 0.20681 0.47317 0.46755
 O75 O 0.25176 0.47336 0.46760
 O76 O 0.25168 0.52654 0.53244
 O77 O 0.25175 0.47349 0.53262
 O78 O 0.25164 0.52641 0.46740
 Cu79 Cu 0.20224 0.49987 0.50006
 Cu80 Cu 0.25619 0.49996 0.50001
 C81 C 0.22919 0.53561 0.45630
 C82 C 0.22933 0.46421 0.54375
 C83 C 0.22924 0.53579 0.54352
 C84 C 0.22935 0.46403 0.45657
 O85 O 0.29253 1.02740 0.03254
 O86 O 0.29264 0.97404 -0.03253
 O87 O 0.29256 1.02731 -0.03266
 O88 O 0.29265 0.97414 0.03268
 O89 O 0.24770 0.97419 0.03261
 O90 O 0.24765 1.02714 -0.03256
 O91 O 0.24769 0.97408 -0.03242
 O92 O 0.24762 1.02724 0.03245
 Cu93 Cu 0.29710 1.00073 0.00000
 Cu94 Cu 0.24319 1.00066 0.00002
 C95 C 0.27002 1.03661 0.04357
 C96 C 0.27013 0.96483 -0.04349
 C97 C 0.27005 1.03648 -0.04373
 C98 C 0.27014 0.96497 0.04371
 O99 O 0.79394 0.52655 0.53241
 O100 O 0.79389 0.47347 0.46705
 O101 O 0.79392 0.52673 0.46721
 O102 O 0.79383 0.47330 0.53225
 O103 O 0.74888 0.47348 0.53216
 O104 O 0.74897 0.52667 0.46731
 O105 O 0.74894 0.47363 0.46714
 O106 O 0.74898 0.52651 0.53232
 Cu107 Cu 0.79842 0.50000 0.49973
 Cu108 Cu 0.74446 0.50008 0.49973
 C109 C 0.77142 0.53570 0.54344
 C110 C 0.77136 0.46438 0.45603
 C111 C 0.77141 0.53593 0.45624
 C112 C 0.77129 0.46416 0.54323
 O113 O 0.24423 0.20651 0.24255
 O114 O 0.23131 0.26803 0.29302
 O115 O 0.20686 0.24402 0.24300
 O116 O 0.26867 0.23050 0.29261
 O117 O 0.29299 0.25498 0.25694
 O118 O 0.23118 0.26850 0.20732
 O119 O 0.25563 0.29250 0.25735
 O120 O 0.26854 0.23099 0.20688
 Cu121 Cu 0.23532 0.23479 0.27140
 Cu122 Cu 0.26454 0.26421 0.22853
 C123 C 0.25839 0.20841 0.21606
 C124 C 0.24146 0.29061 0.28383
 C125 C 0.20863 0.25838 0.21665
 C126 C 0.29122 0.24064 0.28330
 O127 O 0.75564 0.79348 0.24245
 O128 O 0.76906 0.73191 0.29265
 O129 O 0.79325 0.75621 0.24259
 O130 O 0.73144 0.76917 0.29252
 O131 O 0.70722 0.74464 0.25687
 O132 O 0.76902 0.73167 0.20694
 O133 O 0.74484 0.70738 0.25700
 O134 O 0.73141 0.76894 0.20680
 Cu135 Cu 0.76479 0.76517 0.27115
 Cu136 Cu 0.73567 0.73568 0.22831
 C137 C 0.74143 0.79156 0.21601
 C138 C 0.75905 0.70929 0.28343
 C139 C 0.79153 0.74191 0.21620
 C140 C 0.70894 0.75892 0.28327
 O141 O 0.79346 0.24435 0.24254
 O142 O 0.73192 0.23115 0.29289
 O143 O 0.75606 0.20686 0.24284
 O144 O 0.76931 0.26864 0.29261
 O145 O 0.74481 0.29293 0.25696
 O146 O 0.73156 0.23116 0.20719
 O147 O 0.70741 0.25545 0.25725
 O148 O 0.76895 0.26864 0.20690
 Cu149 Cu 0.76516 0.23530 0.27132
 Cu150 Cu 0.73571 0.26450 0.22848
 C151 C 0.79155 0.25855 0.21608
 C152 C 0.70931 0.24123 0.28369
 C153 C 0.74173 0.20862 0.21649
 C154 C 0.75912 0.29117 0.28332
 O155 O 0.25519 0.70713 0.25687
 O156 O 0.26842 0.76897 0.20708
 O157 O 0.29257 0.74462 0.25712
 O158 O 0.23104 0.73148 0.20681
 O159 O 0.20652 0.75574 0.24248
 O160 O 0.26806 0.76887 0.29280
 O161 O 0.24391 0.79322 0.24276
 O162 O 0.23067 0.73139 0.29254
 Cu163 Cu 0.26427 0.73560 0.22837
 Cu164 Cu 0.23482 0.76475 0.27124
 C165 C 0.24087 0.70886 0.28326
 C166 C 0.25822 0.79149 0.21638
 C167 C 0.29067 0.75879 0.28359
 C168 C 0.20843 0.74158 0.21600
 O169 O 0.76873 0.26832 0.70709
 O170 O 0.75546 0.20680 0.75745
 O171 O 0.73126 0.23091 0.70728
 O172 O 0.79291 0.24421 0.75726
 O173 O 0.76852 0.26872 0.79280
 O174 O 0.70687 0.25542 0.74282
 O175 O 0.73106 0.23131 0.79299
 O176 O 0.74434 0.29283 0.74263
 Cu177 Cu 0.76455 0.23509 0.72868
 Cu178 Cu 0.73523 0.26454 0.77139
 C179 C 0.75861 0.29092 0.71623
 C180 C 0.74119 0.20871 0.78385
 C181 C 0.70870 0.24108 0.71648
 C182 C 0.79108 0.25855 0.78360
 O183 O 0.29273 0.74458 0.74306
 O184 O 0.23101 0.73135 0.79305
 O185 O 0.25529 0.70715 0.74298
 O186 O 0.26844 0.76879 0.79311
 O187 O 0.24409 0.79321 0.75743
 O188 O 0.23094 0.73157 0.70731
 O189 O 0.20666 0.75577 0.75739
 O190 O 0.26838 0.76900 0.70739
 Cu191 Cu 0.26432 0.73550 0.77165
 Cu192 Cu 0.23506 0.76485 0.72878
 C193 C 0.29094 0.75885 0.71665
 C194 C 0.20846 0.74150 0.78380
 C195 C 0.24107 0.70900 0.71654
 C196 C 0.25831 0.79137 0.78387
 O197 O 0.26869 0.23097 0.79318
 O198 O 0.25569 0.29269 0.74310
 O199 O 0.23142 0.26858 0.79325
 O200 O 0.29295 0.25507 0.74302
 O201 O 0.26839 0.23078 0.70746
 O202 O 0.20686 0.24430 0.75769
 O203 O 0.23113 0.26840 0.70754
 O204 O 0.24413 0.20668 0.75763
 Cu205 Cu 0.26467 0.26428 0.77173
 Cu206 Cu 0.23515 0.23509 0.72899
 C207 C 0.25843 0.20845 0.78400
 C208 C 0.24138 0.29092 0.71673
 C209 C 0.20879 0.25855 0.78408
 C210 C 0.29102 0.24082 0.71662
 O211 O 0.73167 0.76862 0.70696
 O212 O 0.79330 0.75570 0.75720
 O213 O 0.76925 0.73132 0.70715
 O214 O 0.75570 0.79297 0.75704
 O215 O 0.73133 0.76852 0.79268
 O216 O 0.74489 0.70687 0.74280
 O217 O 0.76894 0.73125 0.79286
 O218 O 0.70730 0.74416 0.74260
 Cu219 Cu 0.76494 0.76462 0.72849
 Cu220 Cu 0.73566 0.73523 0.77133
 C221 C 0.70912 0.75840 0.71617
 C222 C 0.79148 0.74147 0.78365
 C223 C 0.75918 0.70873 0.71641
 C224 C 0.74140 0.79111 0.78342
 C225 C 0.29390 0.08992 0.10335
 C226 C 0.26904 0.10034 0.11478
 C227 C 0.24459 0.08919 0.10316
 C228 C 0.24490 0.06792 0.07992
 C229 C 0.26978 0.05740 0.06781
 C230 C 0.29432 0.06859 0.08008
 C231 C 0.26840 0.12299 0.13769
 C232 C 0.26718 0.14223 0.15641
 C233 C 0.26493 0.16503 0.17779
 C234 C 0.26233 0.18472 0.19556
 H235 H 0.31297 0.09844 0.11216
 H236 H 0.22522 0.09714 0.11182
 H237 H 0.22556 0.05994 0.07126
 H238 H 0.31389 0.06112 0.07150
 C239 C 0.79534 0.59028 0.60400
 C240 C 0.77046 0.60036 0.61590
 C241 C 0.74601 0.58886 0.60476
 C242 C 0.74635 0.56758 0.58153
 C243 C 0.77122 0.55750 0.56907
 C244 C 0.79574 0.56896 0.58075
 C245 C 0.76978 0.62306 0.63870
 C246 C 0.76848 0.64235 0.65731
 C247 C 0.76611 0.66522 0.67852
 C248 C 0.76335 0.68498 0.69612
 H249 H 0.81439 0.59910 0.61241
 H250 H 0.72664 0.59654 0.61376
 H251 H 0.72711 0.55923 0.57309
 H252 H 0.81522 0.56167 0.57163
 C253 C 0.75469 0.91095 0.10339
 C254 C 0.73025 0.89980 0.11507
 C255 C 0.70538 0.91025 0.10374
 C256 C 0.70494 0.93161 0.08049
 C257 C 0.72947 0.94279 0.06815
 C258 C 0.75437 0.93225 0.08017
 C259 C 0.73092 0.87711 0.13793
 C260 C 0.73221 0.85784 0.15661
 C261 C 0.73457 0.83500 0.17792
 C262 C 0.73730 0.81528 0.19561
 H263 H 0.77407 0.90297 0.11197
 H264 H 0.68632 0.90173 0.11260
 H265 H 0.68536 0.93911 0.07198
 H266 H 0.77370 0.94023 0.07145
 C267 C 0.20554 0.40948 0.60431
 C268 C 0.23044 0.39942 0.61615
 C269 C 0.25487 0.41098 0.60497
 C270 C 0.25448 0.43230 0.58177
 C271 C 0.22959 0.44237 0.56937
 C272 C 0.20509 0.43085 0.58109
 C273 C 0.23115 0.37668 0.63893
 C274 C 0.23243 0.35737 0.65754
 C275 C 0.23473 0.33447 0.67877
 C276 C 0.23739 0.31470 0.69639
 H277 H 0.18651 0.40063 0.61275
 H278 H 0.27426 0.40331 0.61392
 H279 H 0.27370 0.44070 0.57330
 H280 H 0.18560 0.43812 0.57202
 C281 C 0.91098 0.24521 0.10350
 C282 C 0.89980 0.26965 0.11512
 C283 C 0.91023 0.29453 0.10374
 C284 C 0.93160 0.29497 0.08052
 C285 C 0.94281 0.27045 0.06823
 C286 C 0.93230 0.24555 0.08030
 C287 C 0.87710 0.26897 0.13797
 C288 C 0.85783 0.26768 0.15664
 C289 C 0.83498 0.26533 0.17795
 C290 C 0.81526 0.26262 0.19565
 H291 H 0.90303 0.22583 0.11212
 H292 H 0.90167 0.31358 0.11256
 H293 H 0.93907 0.31455 0.07197
 H294 H 0.94030 0.22622 0.07162
 C295 C 0.41090 0.74529 0.60486
 C296 C 0.39941 0.76975 0.61603
 C297 C 0.40953 0.79463 0.60417
 C298 C 0.43090 0.79502 0.58093
 C299 C 0.44234 0.77050 0.56923
 C300 C 0.43221 0.74563 0.58165
 C301 C 0.37668 0.76910 0.63883
 C302 C 0.35737 0.76784 0.65745
 C303 C 0.33448 0.76555 0.67868
 C304 C 0.31471 0.76289 0.69631
 H305 H 0.40319 0.72592 0.61383
 H306 H 0.40074 0.81368 0.61260
 H307 H 0.43821 0.81450 0.57185
 H308 H 0.44056 0.72639 0.57319
 C309 C 0.08994 0.70602 0.10334
 C310 C 0.10038 0.73087 0.11473
 C311 C 0.08927 0.75533 0.10305
 C312 C 0.06800 0.75504 0.07980
 C313 C 0.05747 0.73016 0.06773
 C314 C 0.06862 0.70561 0.08006
 C315 C 0.12302 0.73149 0.13765
 C316 C 0.14225 0.73272 0.15639
 C317 C 0.16505 0.73496 0.17777
 C318 C 0.18474 0.73759 0.19552
 H319 H 0.09844 0.68695 0.11220
 H320 H 0.09723 0.77470 0.11168
 H321 H 0.06005 0.77438 0.07109
 H322 H 0.06114 0.68605 0.07151
 C323 C 0.59031 0.20484 0.60414
 C324 C 0.60031 0.22974 0.61602
 C325 C 0.58872 0.25416 0.60487
 C326 C 0.56744 0.25376 0.58165
 C327 C 0.55744 0.22887 0.56921
 C328 C 0.56897 0.20437 0.58090
 C329 C 0.62302 0.23048 0.63879
 C330 C 0.64232 0.23182 0.65739
 C331 C 0.66519 0.23421 0.67859
 C332 C 0.68495 0.23696 0.69619
 H333 H 0.59919 0.18581 0.61256
 H334 H 0.59634 0.27356 0.61385
 H335 H 0.55902 0.27298 0.57320
 H336 H 0.56175 0.18488 0.57180
 C337 C 0.75449 0.08885 0.89580
 C338 C 0.73004 0.10041 0.88471
 C339 C 0.70517 0.09033 0.89662
 C340 C 0.70476 0.06892 0.91981
 C341 C 0.72928 0.05740 0.93141
 C342 C 0.75415 0.06750 0.91895
 C343 C 0.73072 0.12314 0.86191
 C344 C 0.73202 0.14243 0.84327
 C345 C 0.73437 0.16528 0.82198
 C346 C 0.73709 0.18501 0.80429
 H347 H 0.77387 0.09653 0.88679
 H348 H 0.68611 0.09918 0.88826
 H349 H 0.68529 0.06163 0.92892
 H350 H 0.77339 0.05910 0.92733
 C351 C 0.20519 0.59022 0.39572
 C352 C 0.23005 0.60034 0.38381
 C353 C 0.25452 0.58886 0.39496
 C354 C 0.25422 0.56756 0.41819
 C355 C 0.22936 0.55744 0.43066
 C356 C 0.20482 0.56887 0.41898
 C357 C 0.23068 0.62306 0.36100
 C358 C 0.23192 0.64237 0.34237
 C359 C 0.23419 0.66527 0.32114
 C360 C 0.23684 0.68506 0.30354
 H361 H 0.18612 0.59901 0.38731
 H362 H 0.27388 0.59658 0.38596
 H363 H 0.27347 0.55923 0.42663
 H364 H 0.18536 0.56155 0.42810
 C365 C 0.24474 0.91137 0.89556
 C366 C 0.26920 0.89984 0.88442
 C367 C 0.29407 0.90999 0.89622
 C368 C 0.29447 0.93142 0.91935
 C369 C 0.26994 0.94291 0.93101
 C370 C 0.24507 0.93274 0.91866
 C371 C 0.26854 0.87708 0.86168
 C372 C 0.26729 0.85776 0.84310
 C373 C 0.26500 0.83487 0.82187
 C374 C 0.26234 0.81511 0.80424
 H375 H 0.22537 0.90364 0.88664
 H376 H 0.31313 0.90118 0.88781
 H377 H 0.31394 0.93876 0.92838
 H378 H 0.22583 0.94111 0.92709
 C379 C 0.74586 0.41126 0.39474
 C380 C 0.77030 0.39968 0.38361
 C381 C 0.79519 0.40971 0.39549
 C382 C 0.79563 0.43105 0.41873
 C383 C 0.77112 0.44257 0.43040
 C384 C 0.74624 0.43255 0.41795
 C385 C 0.76959 0.37696 0.36085
 C386 C 0.76828 0.35765 0.34227
 C387 C 0.76593 0.33475 0.32111
 C388 C 0.76321 0.31496 0.30356
 H389 H 0.72648 0.40361 0.38576
 H390 H 0.81423 0.40084 0.38709
 H391 H 0.81511 0.43829 0.42783
 H392 H 0.72702 0.44095 0.42639
 C393 C 0.09037 0.29477 0.89670
 C394 C 0.10047 0.26989 0.88484
 C395 C 0.08891 0.24544 0.89597
 C396 C 0.06756 0.24579 0.91912
 C397 C 0.05745 0.27066 0.93153
 C398 C 0.06897 0.29518 0.91988
 C399 C 0.12320 0.26920 0.86206
 C400 C 0.14250 0.26788 0.84343
 C401 C 0.16536 0.26549 0.82216
 C402 C 0.18509 0.26272 0.80449
 H403 H 0.09922 0.31382 0.88831
 H404 H 0.09660 0.22607 0.88700
 H405 H 0.05916 0.22655 0.92753
 H406 H 0.06166 0.31465 0.92896
 C407 C 0.59029 0.79457 0.39564
 C408 C 0.60038 0.76969 0.38377
 C409 C 0.58884 0.74524 0.39492
 C410 C 0.56752 0.74559 0.41812
 C411 C 0.55743 0.77046 0.43055
 C412 C 0.56893 0.79498 0.41886
 C413 C 0.62312 0.76902 0.36099
 C414 C 0.64244 0.76777 0.34239
 C415 C 0.66535 0.76551 0.32118
 C416 C 0.68514 0.76289 0.30357
 H417 H 0.59913 0.81362 0.38722
 H418 H 0.59653 0.72587 0.38595
 H419 H 0.55914 0.72636 0.42657
 H420 H 0.56164 0.81446 0.42795
 C421 C 0.91009 0.70591 0.89613
 C422 C 0.89994 0.73078 0.88429
 C423 C 0.91147 0.75524 0.89539
 C424 C 0.93284 0.75491 0.91850
 C425 C 0.94300 0.73004 0.93089
 C426 C 0.93151 0.70551 0.91927
 C427 C 0.87718 0.73143 0.86155
 C428 C 0.85787 0.73266 0.84295
 C429 C 0.83498 0.73491 0.82171
 C430 C 0.81523 0.73752 0.80405
 H431 H 0.90127 0.68685 0.88776
 H432 H 0.90374 0.77460 0.88644
 H433 H 0.94121 0.77415 0.92690
 H434 H 0.93885 0.68604 0.92833
 C435 C 0.40976 0.20453 0.39557
 C436 C 0.39969 0.22940 0.38364
 C437 C 0.41120 0.25386 0.39477
 C438 C 0.43246 0.25353 0.41801
 C439 C 0.44253 0.22867 0.43050
 C440 C 0.43108 0.20414 0.41884
 C441 C 0.37699 0.23007 0.36084
 C442 C 0.35769 0.23137 0.34224
 C443 C 0.33480 0.23374 0.32106
 C444 C 0.31502 0.23648 0.30351
 H445 H 0.40095 0.18548 0.38717
 H446 H 0.40352 0.27323 0.38575
 H447 H 0.44081 0.27277 0.42644
 H448 H 0.43836 0.18467 0.42797
 C449 C 0.70516 0.90937 0.89607
 C450 C 0.73004 0.89938 0.88407
 C451 C 0.75449 0.91092 0.89516
 C452 C 0.75414 0.93216 0.91844
 C453 C 0.72927 0.94217 0.93100
 C454 C 0.70475 0.93067 0.91937
 C455 C 0.73073 0.87671 0.86123
 C456 C 0.73204 0.85744 0.84258
 C457 C 0.73444 0.83460 0.82133
 C458 C 0.73722 0.81485 0.80372
 H459 H 0.68611 0.90053 0.88770
 H460 H 0.77386 0.90329 0.88609
 H461 H 0.77338 0.94055 0.92683
 H462 H 0.68528 0.93790 0.92856
 C463 C 0.20558 0.40909 0.39636
 C464 C 0.23048 0.39900 0.38455
 C465 C 0.25490 0.41059 0.39566
 C466 C 0.25451 0.43198 0.41874
 C467 C 0.22961 0.44208 0.43110
 C468 C 0.20512 0.43052 0.41947
 C469 C 0.23120 0.37624 0.36181
 C470 C 0.23250 0.35693 0.34322
 C471 C 0.23481 0.33405 0.32196
 C472 C 0.23747 0.31432 0.30428
 H473 H 0.18655 0.40022 0.38797
 H474 H 0.27430 0.40291 0.38673
 H475 H 0.27372 0.44040 0.42715
 H476 H 0.18562 0.43782 0.42851
 C477 C 0.29398 0.08971 0.89633
 C478 C 0.26912 0.10012 0.88489
 C479 C 0.24466 0.08897 0.89652
 C480 C 0.24495 0.06771 0.91980
 C481 C 0.26983 0.05722 0.93194
 C482 C 0.29438 0.06839 0.91963
 C483 C 0.26850 0.12280 0.86201
 C484 C 0.26727 0.14207 0.84333
 C485 C 0.26502 0.16493 0.82203
 C486 C 0.26240 0.18469 0.80437
 H487 H 0.31304 0.09823 0.88751
 H488 H 0.22530 0.09692 0.88785
 H489 H 0.22561 0.05974 0.92848
 H490 H 0.31395 0.06094 0.92824
 C491 C 0.79529 0.59079 0.39591
 C492 C 0.77041 0.60089 0.38407
 C493 C 0.74596 0.58932 0.39519
 C494 C 0.74632 0.56796 0.41833
 C495 C 0.77120 0.55785 0.43073
 C496 C 0.79571 0.56938 0.41908
 C497 C 0.76970 0.62363 0.36130
 C498 C 0.76838 0.64294 0.34270
 C499 C 0.76598 0.66582 0.32146
 C500 C 0.76321 0.68557 0.30381
 H501 H 0.81434 0.59965 0.38751
 H502 H 0.72658 0.59701 0.38624
 H503 H 0.72709 0.55955 0.42675
 H504 H 0.81519 0.56208 0.42814
 C505 C 0.08975 0.70587 0.89623
 C506 C 0.10017 0.73071 0.88473
 C507 C 0.08904 0.75519 0.89632
 C508 C 0.06780 0.75492 0.91962
 C509 C 0.05730 0.73006 0.93182
 C510 C 0.06845 0.70549 0.91956
 C511 C 0.12283 0.73132 0.86183
 C512 C 0.14209 0.73254 0.84313
 C513 C 0.16494 0.73481 0.82182
 C514 C 0.18469 0.73747 0.80415
 H515 H 0.09826 0.68679 0.88744
 H516 H 0.09699 0.77454 0.88761
 H517 H 0.05984 0.77428 0.92827
 H518 H 0.06098 0.68594 0.92821
 C519 C 0.59084 0.20493 0.39614
 C520 C 0.60088 0.22985 0.38431
 C521 C 0.58925 0.25425 0.39541
 C522 C 0.56787 0.25383 0.41852
 C523 C 0.55781 0.22892 0.43091
 C524 C 0.56941 0.20444 0.41928
 C525 C 0.62365 0.23061 0.36157
 C526 C 0.64296 0.23196 0.34298
 C527 C 0.66585 0.23437 0.32175
 C528 C 0.68559 0.23712 0.30410
 H529 H 0.59975 0.18591 0.38776
 H530 H 0.59690 0.27366 0.38646
 H531 H 0.55941 0.27304 0.42693
 H532 H 0.56215 0.18494 0.42834
 C533 C 0.91094 0.24534 0.89537
 C534 C 0.89938 0.26978 0.88423
 C535 C 0.90938 0.29467 0.89615
 C536 C 0.93069 0.29509 0.91943
 C537 C 0.94220 0.27058 0.93111
 C538 C 0.93219 0.24570 0.91863
 C539 C 0.87670 0.26907 0.86140
 C540 C 0.85742 0.26776 0.84277
 C541 C 0.83457 0.26539 0.82154
 C542 C 0.81482 0.26266 0.80392
 H543 H 0.90331 0.22596 0.88635
 H544 H 0.90052 0.31371 0.88774
 H545 H 0.93791 0.31457 0.92857
 H546 H 0.94059 0.22648 0.92707
 C547 C 0.41057 0.74531 0.39544
 C548 C 0.39903 0.76976 0.38431
 C549 C 0.40915 0.79464 0.39613
 C550 C 0.43057 0.79504 0.41927
 C551 C 0.44208 0.77052 0.43092
 C552 C 0.43194 0.74565 0.41855
 C553 C 0.37628 0.76909 0.36155
 C554 C 0.35698 0.76782 0.34294
 C555 C 0.33411 0.76551 0.32168
 C556 C 0.31438 0.76284 0.30401
 H557 H 0.40286 0.72594 0.38650
 H558 H 0.40032 0.81369 0.38774
 H559 H 0.43790 0.81451 0.42831
 H560 H 0.44032 0.72641 0.42697
 C561 C 0.24474 0.91167 0.10495
 C562 C 0.26920 0.90014 0.11606
 C563 C 0.29407 0.91026 0.10419
 C564 C 0.29447 0.93164 0.08098
 C565 C 0.26994 0.94312 0.06932
 C566 C 0.24507 0.93300 0.08176
 C567 C 0.26854 0.87738 0.13881
 C568 C 0.26727 0.85804 0.15738
 C569 C 0.26496 0.83511 0.17856
 C570 C 0.26228 0.81531 0.19612
 H571 H 0.22537 0.90396 0.11392
 H572 H 0.31313 0.90143 0.11257
 H573 H 0.31394 0.93895 0.07188
 H574 H 0.22584 0.94137 0.07334
 C575 C 0.79499 0.40926 0.60360
 C576 C 0.77007 0.39923 0.61544
 C577 C 0.74567 0.41084 0.60429
 C578 C 0.74609 0.43219 0.58113
 C579 C 0.77100 0.44224 0.56874
 C580 C 0.79548 0.43067 0.58041
 C581 C 0.76931 0.37650 0.63823
 C582 C 0.76794 0.35721 0.65686
 C583 C 0.76552 0.33435 0.67813
 C584 C 0.76275 0.31463 0.69581
 H585 H 0.81401 0.40037 0.61201
 H586 H 0.72626 0.40320 0.61324
 H587 H 0.72689 0.44063 0.57270
 H588 H 0.81498 0.43792 0.57135
 C589 C 0.75478 0.08840 0.10528
 C590 C 0.73036 0.09999 0.11644
 C591 C 0.70545 0.08995 0.10462
 C592 C 0.70498 0.06858 0.08143
 C593 C 0.72947 0.05705 0.06972
 C594 C 0.75437 0.06708 0.08211
 C595 C 0.73111 0.12275 0.13914
 C596 C 0.73246 0.14209 0.15766
 C597 C 0.73486 0.16502 0.17877
 C598 C 0.73761 0.18482 0.19629
 H599 H 0.77418 0.09605 0.11421
 H600 H 0.68643 0.09883 0.11305
 H601 H 0.68549 0.06133 0.07237
 H602 H 0.77359 0.05867 0.07365
 C603 C 0.25464 0.58919 0.60455
 C604 C 0.23018 0.60068 0.61574
 C605 C 0.20531 0.59054 0.60394
 C606 C 0.20491 0.56915 0.58075
 C607 C 0.22944 0.55770 0.56904
 C608 C 0.25431 0.56786 0.58138
 C609 C 0.23085 0.62339 0.63855
 C610 C 0.23210 0.64267 0.65720
 C611 C 0.23440 0.66553 0.67848
 C612 C 0.23705 0.68526 0.69615
 H613 H 0.27401 0.59691 0.61346
 H614 H 0.18625 0.59933 0.61239
 H615 H 0.18544 0.56181 0.57173
 H616 H 0.27354 0.55951 0.57292
 C617 C 0.91028 0.70607 0.10407
 C618 C 0.90018 0.73097 0.11589
 C619 C 0.91174 0.75540 0.10472
 C620 C 0.93308 0.75503 0.08156
 C621 C 0.94318 0.73015 0.06918
 C622 C 0.93168 0.70564 0.08088
 C623 C 0.87741 0.73166 0.13862
 C624 C 0.85807 0.73295 0.15718
 C625 C 0.83514 0.73526 0.17835
 C626 C 0.81534 0.73791 0.19593
 H627 H 0.90144 0.68703 0.11250
 H628 H 0.90404 0.77479 0.11365
 H629 H 0.94147 0.77426 0.07310
 H630 H 0.93897 0.68616 0.07184
 C631 C 0.40934 0.20461 0.60384
 C632 C 0.39924 0.22949 0.61569
 C633 C 0.41075 0.25394 0.60450
 C634 C 0.43207 0.25359 0.58130
 C635 C 0.44219 0.22871 0.56891
 C636 C 0.43071 0.20419 0.58062
 C637 C 0.37654 0.23018 0.63853
 C638 C 0.35727 0.23150 0.65720
 C639 C 0.33443 0.23389 0.67851
 C640 C 0.31472 0.23665 0.69620
 H641 H 0.40052 0.18556 0.61229
 H642 H 0.40306 0.27331 0.61346
 H643 H 0.44044 0.27282 0.57285
 H644 H 0.43802 0.18472 0.57156
 C645 C 0.08843 0.24533 0.10549
 C646 C 0.09999 0.26977 0.11660
 C647 C 0.08993 0.29466 0.10473
 C648 C 0.06857 0.29509 0.08152
 C649 C 0.05707 0.27058 0.06986
 C650 C 0.06713 0.24570 0.08231
 C651 C 0.12274 0.26906 0.13932
 C652 C 0.14208 0.26773 0.15785
 C653 C 0.16501 0.26533 0.17896
 C654 C 0.18482 0.26256 0.19647
 H655 H 0.09611 0.22594 0.11447
 H656 H 0.09878 0.31370 0.11311
 H657 H 0.06130 0.31457 0.07241
 H658 H 0.05874 0.22647 0.07388
 C659 C 0.59063 0.79433 0.60370
 C660 C 0.60071 0.76942 0.61550
 C661 C 0.58914 0.74500 0.60434
 C662 C 0.56778 0.74541 0.58122
 C663 C 0.55768 0.77031 0.56887
 C664 C 0.56922 0.79480 0.58054
 C665 C 0.62345 0.76868 0.63826
 C666 C 0.64276 0.76738 0.65687
 C667 C 0.66563 0.76505 0.67812
 C668 C 0.68538 0.76239 0.69578
 H669 H 0.59948 0.81335 0.61211
 H670 H 0.59682 0.72560 0.61326
 H671 H 0.55937 0.72620 0.57278
 H672 H 0.56193 0.81429 0.57152
   
