data_POSCAR
  _audit_creation_date              2014-09-24
  _audit_creation_method            'ToBaCCo'
  _symmetry_space_group_name_H-M    'P1'
  _symmetry_Int_Tables_number       1
  _symmetry_cell_setting            triclinic
  loop_
  _symmetry_equiv_pos_as_xyz
 x,y,z
_cell_length_a 41.5111
_cell_length_b 41.3969
_cell_length_c 39.7631
_cell_angle_alpha 90.111500
_cell_angle_beta 89.856400
_cell_angle_gamma 90.004400
loop_
  _atom_site_label
  _atom_site_type_symbol
  _atom_site_fract_x
  _atom_site_fract_y
  _atom_site_fract_z
C1 C 0.29938 0.29380 0.23639
 H2 H 0.30085 0.29460 0.26354
 C3 C 0.31997 0.31287 0.21698
 H4 H 0.33699 0.32866 0.22944
 C5 C 0.27500 0.27245 0.18732
 H6 H 0.25783 0.25628 0.17582
 C7 C 0.29512 0.29112 0.16695
 H8 H 0.29315 0.28908 0.13988
 N9 N 0.27713 0.27447 0.22140
 C10 C 0.20119 0.26248 0.29641
 H11 H 0.19974 0.23641 0.29749
 C12 C 0.18069 0.28131 0.31629
 H13 H 0.16377 0.26949 0.33299
 C14 C 0.22533 0.30943 0.27349
 H15 H 0.24233 0.32034 0.25635
 C16 C 0.20532 0.32916 0.29292
 H17 H 0.20721 0.35514 0.29048
 Zn18 Zn 0.25011 0.24953 0.24968
 N19 N 0.22326 0.27672 0.27591
 C20 C 0.27536 0.22662 0.31172
 N21 N 0.27718 0.22445 0.27763
 C22 C 0.29920 0.20496 0.26239
 C23 C 0.31989 0.18589 0.28158
 C24 C 0.29558 0.20796 0.33188
 C25 C 0.20078 0.23690 0.20359
 C26 C 0.18000 0.21824 0.18399
 C27 C 0.20449 0.17020 0.20697
 C28 C 0.22479 0.18978 0.22614
 N29 N 0.22292 0.22250 0.22377
 H30 H 0.25837 0.24291 0.32341
 H31 H 0.30044 0.20405 0.23523
 H32 H 0.33674 0.16998 0.26895
 H33 H 0.29388 0.21014 0.35897
 H34 H 0.19949 0.26299 0.20256
 H35 H 0.16302 0.23017 0.16754
 H36 H 0.20623 0.14421 0.20937
 H37 H 0.24186 0.17875 0.24303
 C38 C 0.18274 0.31514 0.31483
 C39 C 0.31786 0.31183 0.18174
 C40 C 0.18182 0.18438 0.18539
 C41 C 0.31812 0.18710 0.31684
 C42 C 0.79992 0.79429 0.23648
 H43 H 0.80131 0.79525 0.26364
 C44 C 0.82053 0.81332 0.21705
 H45 H 0.83670 0.82940 0.23020
 C46 C 0.77555 0.77291 0.18761
 H47 H 0.75850 0.75656 0.17617
 C48 C 0.79561 0.79153 0.16714
 H49 H 0.79365 0.78825 0.14025
 N50 N 0.77767 0.77498 0.22161
 C51 C 0.70179 0.76307 0.29671
 H52 H 0.70035 0.73700 0.29781
 C53 C 0.68129 0.78190 0.31657
 H54 H 0.66437 0.77010 0.33328
 C55 C 0.72591 0.81000 0.27373
 H56 H 0.74291 0.82091 0.25658
 C57 C 0.70589 0.82974 0.29315
 H58 H 0.70777 0.85572 0.29068
 Zn59 Zn 0.75068 0.75007 0.24997
 N60 N 0.72385 0.77730 0.27619
 C61 C 0.77596 0.72721 0.31202
 N62 N 0.77778 0.72504 0.27793
 C63 C 0.79977 0.70551 0.26270
 C64 C 0.82043 0.68640 0.28189
 C65 C 0.79615 0.70851 0.33218
 C66 C 0.70135 0.73734 0.20390
 C67 C 0.68056 0.71861 0.18437
 C68 C 0.70503 0.67064 0.20753
 C69 C 0.72534 0.69028 0.22663
 N70 N 0.72348 0.72300 0.22415
 H71 H 0.75899 0.74352 0.32371
 H72 H 0.80101 0.70459 0.23553
 H73 H 0.83724 0.67047 0.26925
 H74 H 0.79444 0.71069 0.35927
 H75 H 0.70007 0.76342 0.20278
 H76 H 0.66360 0.73050 0.16787
 H77 H 0.70675 0.64466 0.21003
 H78 H 0.74239 0.67929 0.24357
 C79 C 0.68332 0.81574 0.31508
 C80 C 0.81863 0.81253 0.18157
 C81 C 0.68238 0.68476 0.18589
 C82 C 0.81864 0.68761 0.31715
 C83 C 0.79964 0.29359 0.73687
 H84 H 0.80125 0.29438 0.76402
 C85 C 0.82019 0.31262 0.71736
 H86 H 0.83730 0.32836 0.72974
 C87 C 0.77497 0.27232 0.68793
 H88 H 0.75770 0.25621 0.67652
 C89 C 0.79503 0.29095 0.66746
 H90 H 0.79292 0.28893 0.64040
 N91 N 0.77727 0.27432 0.72199
 C92 C 0.70168 0.26253 0.79742
 H93 H 0.70021 0.23646 0.79854
 C94 C 0.68125 0.28139 0.81733
 H95 H 0.66437 0.26962 0.83409
 C96 C 0.72578 0.30942 0.77433
 H97 H 0.74272 0.32029 0.75710
 C98 C 0.70584 0.32919 0.79379
 H99 H 0.70772 0.35517 0.79128
 Zn100 Zn 0.75031 0.24945 0.75040
 N101 N 0.72369 0.27672 0.77681
 C102 C 0.77584 0.22637 0.81219
 N103 N 0.77742 0.22424 0.77818
 C104 C 0.79928 0.20475 0.76290
 C105 C 0.82006 0.18560 0.78190
 C106 C 0.79608 0.20767 0.83228
 C107 C 0.70070 0.23714 0.70461
 C108 C 0.67967 0.21863 0.68513
 C109 C 0.70397 0.17041 0.70793
 C110 C 0.72456 0.18985 0.72693
 N111 N 0.72286 0.22258 0.72462
 H112 H 0.75915 0.24293 0.82395
 H113 H 0.80021 0.20371 0.73572
 H114 H 0.83549 0.16936 0.76800
 H115 H 0.79446 0.21164 0.85906
 H116 H 0.69945 0.26323 0.70375
 H117 H 0.66212 0.23069 0.66945
 H118 H 0.70612 0.14440 0.70964
 H119 H 0.74180 0.17868 0.74353
 C120 C 0.68330 0.31523 0.81579
 C121 C 0.81789 0.31160 0.68214
 C122 C 0.68123 0.18477 0.68655
 C123 C 0.81890 0.18633 0.81757
 C124 C 0.29938 0.79395 0.73652
 H125 H 0.30088 0.79484 0.76367
 C126 C 0.31995 0.81298 0.71703
 H127 H 0.33696 0.82883 0.72942
 C128 C 0.27499 0.77243 0.68755
 H129 H 0.25783 0.75621 0.67611
 C130 C 0.29508 0.79105 0.66709
 H131 H 0.29310 0.78893 0.64003
 N132 N 0.27715 0.77456 0.72161
 C133 C 0.20129 0.76266 0.79675
 H134 H 0.19988 0.73659 0.79791
 C135 C 0.18076 0.78151 0.81657
 H136 H 0.16386 0.76972 0.83330
 C137 C 0.22535 0.80958 0.77366
 H138 H 0.24232 0.82047 0.75648
 C139 C 0.20530 0.82934 0.79303
 H140 H 0.20714 0.85531 0.79050
 Zn141 Zn 0.25019 0.74965 0.74999
 N142 N 0.22333 0.77688 0.77619
 C143 C 0.27551 0.72686 0.81206
 N144 N 0.27732 0.72467 0.77797
 C145 C 0.29935 0.70519 0.76274
 C146 C 0.32007 0.68615 0.78192
 C147 C 0.29576 0.70823 0.83222
 C148 C 0.20084 0.73683 0.70399
 C149 C 0.18008 0.71808 0.68444
 C150 C 0.20467 0.67014 0.70756
 C151 C 0.22494 0.68982 0.72666
 N152 N 0.22301 0.72253 0.72420
 H153 H 0.25851 0.74314 0.82374
 H154 H 0.30058 0.70426 0.73557
 H155 H 0.33692 0.67025 0.76929
 H156 H 0.29407 0.71042 0.85931
 H157 H 0.19950 0.76291 0.70288
 H158 H 0.16308 0.72994 0.66797
 H159 H 0.20645 0.64416 0.71002
 H160 H 0.24203 0.67885 0.74357
 C161 C 0.18274 0.81535 0.81499
 C162 C 0.31781 0.81183 0.68180
 C163 C 0.18197 0.68423 0.68594
 C164 C 0.31831 0.68738 0.81718
 C165 C 0.04338 0.04992 0.01264
 H166 H 0.04389 0.05159 -0.01451
 C167 C 0.06258 0.07045 0.03199
 H168 H 0.07805 0.08795 0.01976
 C169 C 0.02250 0.02517 0.06185
 H170 H 0.00658 0.00781 0.07343
 C171 C 0.04131 0.04526 0.08213
 H172 H 0.04006 0.04306 0.10925
 N173 N 0.02422 0.02751 0.02774
 C174 C 0.01186 -0.04841 -0.04747
 H175 H -0.01414 -0.04992 -0.04836
 C176 C 0.03057 -0.06898 -0.06741
 H177 H 0.01900 -0.08634 -0.08384
 C178 C 0.05883 -0.02422 -0.02472
 H179 H 0.06980 -0.00713 -0.00770
 C180 C 0.07841 -0.04434 -0.04422
 H181 H 0.10438 -0.04242 -0.04241
 Zn182 Zn -0.00082 0.00050 -0.00045
 N183 N 0.02617 -0.02630 -0.02700
 C184 C -0.02420 0.02600 -0.06224
 N185 N -0.02608 0.02772 -0.02809
 C186 C -0.04543 0.04973 -0.01256
 C187 C -0.06462 0.07054 -0.03152
 C188 C -0.04299 0.04638 -0.08214
 C189 C -0.01297 -0.04923 0.04551
 C190 C -0.03143 -0.07027 0.06509
 C191 C -0.07957 -0.04571 0.04259
 C192 C -0.06023 -0.02512 0.02344
 N193 N -0.02754 -0.02694 0.02556
 H194 H -0.00811 0.00895 -0.07415
 H195 H -0.04606 0.05093 0.01461
 H196 H -0.08020 0.08777 -0.01896
 H197 H -0.04156 0.04472 -0.10930
 H198 H 0.01305 -0.05052 0.04628
 H199 H -0.01964 -0.08777 0.08112
 H200 H -0.10556 -0.04400 0.04093
 H201 H -0.07140 -0.00786 0.00683
 C202 C 0.06415 -0.06682 -0.06584
 C203 C 0.06165 0.06796 0.06704
 C204 C -0.06503 -0.06838 0.06369
 C205 C -0.06348 0.06873 -0.06662
 C206 C 0.04388 0.54941 0.51324
 H207 H 0.04441 0.55111 0.48610
 C208 C 0.06307 0.56993 0.53262
 H209 H 0.07855 0.58744 0.52041
 C210 C 0.02296 0.52465 0.56242
 H211 H 0.00701 0.50729 0.57397
 C212 C 0.04175 0.54472 0.58273
 H213 H 0.04047 0.54252 0.60984
 N214 N 0.02470 0.52701 0.52831
 C215 C 0.01219 0.45125 0.45295
 H216 H -0.01382 0.44980 0.45207
 C217 C 0.03085 0.43070 0.43294
 H218 H 0.01924 0.41340 0.41647
 C219 C 0.05921 0.47530 0.47574
 H220 H 0.07021 0.49233 0.49280
 C221 C 0.07875 0.45520 0.45618
 H222 H 0.10472 0.45706 0.45798
 Zn223 Zn -0.00039 0.50009 0.50007
 N224 N 0.02655 0.47329 0.47348
 C225 C -0.02370 0.52578 0.43833
 N226 N -0.02557 0.52743 0.47248
 C227 C -0.04486 0.54946 0.48806
 C228 C -0.06400 0.57035 0.46915
 C229 C -0.04244 0.54624 0.41848
 C230 C -0.01270 0.45032 0.54596
 C231 C -0.03123 0.42929 0.56547
 C232 C -0.07928 0.45399 0.54292
 C233 C -0.05987 0.47457 0.52384
 N234 N -0.02719 0.47268 0.52601
 H235 H -0.00766 0.50871 0.42638
 H236 H -0.04548 0.55060 0.51524
 H237 H -0.07954 0.58760 0.48176
 H238 H -0.04101 0.54463 0.39132
 H239 H 0.01332 0.44897 0.54676
 H240 H -0.01952 0.41174 0.58149
 H241 H -0.10527 0.45577 0.54121
 H242 H -0.07097 0.49188 0.50724
 C243 C 0.06443 0.43280 0.43451
 C244 C 0.06210 0.56743 0.56767
 C245 C -0.06483 0.43126 0.56401
 C246 C -0.06287 0.56861 0.43405
 C247 C 0.54381 0.04986 0.51343
 H248 H 0.54444 0.05158 0.48629
 C249 C 0.56285 0.07043 0.53291
 H250 H 0.57831 0.08802 0.52079
 C251 C 0.52277 0.02499 0.56250
 H252 H 0.50683 0.00758 0.57397
 C253 C 0.54141 0.04512 0.58291
 H254 H 0.54001 0.04290 0.61002
 N255 N 0.52464 0.02738 0.52840
 C256 C 0.51249 -0.04836 0.45296
 H257 H 0.48648 -0.04988 0.45204
 C258 C 0.53123 -0.06886 0.43299
 H259 H 0.51969 -0.08619 0.41649
 C260 C 0.55941 -0.02419 0.47583
 H261 H 0.57034 -0.00713 0.49290
 C262 C 0.57903 -0.04424 0.45630
 H263 H 0.60500 -0.04231 0.45814
 Zn264 Zn 0.49970 0.00043 0.50005
 N265 N 0.52676 -0.02628 0.47351
 C266 C 0.47645 0.02607 0.43826
 N267 N 0.47452 0.02772 0.47241
 C268 C 0.45513 0.04970 0.48795
 C269 C 0.43594 0.07051 0.46900
 C270 C 0.45766 0.04645 0.41837
 C271 C 0.48737 -0.04940 0.54587
 C272 C 0.46882 -0.07046 0.56533
 C273 C 0.42079 -0.04584 0.54267
 C274 C 0.44021 -0.02522 0.52364
 N275 N 0.47289 -0.02706 0.52589
 H276 H 0.49256 0.00905 0.42635
 H277 H 0.45446 0.05085 0.51513
 H278 H 0.42031 0.08770 0.48157
 H279 H 0.45912 0.04483 0.39122
 H280 H 0.51339 -0.05070 0.54674
 H281 H 0.48053 -0.08799 0.58138
 H282 H 0.39480 -0.04411 0.54089
 H283 H 0.42912 -0.00793 0.50701
 C284 C 0.56481 -0.06667 0.43460
 C285 C 0.56174 0.06791 0.56796
 C286 C 0.43523 -0.06855 0.56379
 C287 C 0.43712 0.06875 0.43390
 C288 C 0.54406 0.54995 0.01340
 H289 H 0.54459 0.55162 -0.01375
 C290 C 0.56324 0.57050 0.03275
 H291 H 0.57871 0.58800 0.02053
 C292 C 0.52316 0.52522 0.06259
 H293 H 0.50723 0.50785 0.07417
 C294 C 0.54195 0.54532 0.08288
 H295 H 0.54067 0.54313 0.11000
 N296 N 0.52490 0.52755 0.02849
 C297 C 0.51255 0.45169 -0.04677
 H298 H 0.48654 0.45021 -0.04771
 C299 C 0.53126 0.43110 -0.06670
 H300 H 0.51970 0.41376 -0.08316
 C301 C 0.55951 0.47580 -0.02393
 H302 H 0.57047 0.49287 -0.00689
 C303 C 0.57910 0.45567 -0.04341
 H304 H 0.60507 0.45755 -0.04156
 Zn305 Zn 0.49986 0.50057 0.00026
 N306 N 0.52686 0.47377 -0.02626
 C307 C 0.47653 0.52614 -0.06154
 N308 N 0.47467 0.52785 -0.02739
 C309 C 0.45535 0.54988 -0.01184
 C310 C 0.43616 0.57070 -0.03078
 C311 C 0.45775 0.54654 -0.08142
 C312 C 0.48754 0.45084 0.04620
 C313 C 0.46899 0.42980 0.06568
 C314 C 0.42095 0.45442 0.04300
 C315 C 0.44038 0.47501 0.02396
 N316 N 0.47305 0.47316 0.02620
 H317 H 0.49259 0.50907 -0.07346
 H318 H 0.45473 0.55106 0.01534
 H319 H 0.42060 0.58794 -0.01820
 H320 H 0.45915 0.54488 -0.10857
 H321 H 0.51355 0.44953 0.04707
 H322 H 0.48069 0.41227 0.08174
 H323 H 0.39497 0.45615 0.04122
 H324 H 0.42929 0.49228 0.00731
 C325 C 0.56484 0.43322 -0.06507
 C326 C 0.56229 0.56802 0.06780
 C327 C 0.43539 0.43171 0.06414
 C328 C 0.43728 0.56889 -0.06587
 C329 C 0.12132 -0.12483 -0.12385
 C330 C 0.10900 -0.15276 -0.13895
 C331 C 0.12894 -0.17228 -0.15883
 C332 C 0.16149 -0.16405 -0.16387
 C333 C 0.17363 -0.13592 -0.14853
 C334 C 0.15366 -0.11647 -0.12866
 C335 C 0.10087 -0.10466 -0.10344
 C336 C 0.08398 -0.08753 -0.08632
 H337 H 0.08397 -0.15940 -0.13546
 H338 H 0.11878 -0.19354 -0.17062
 H339 H 0.19867 -0.12917 -0.15153
 H340 H 0.16348 -0.09495 -0.11700
 C341 C 0.12147 0.37488 0.37625
 C342 C 0.10907 0.34702 0.36104
 C343 C 0.12896 0.32754 0.34108
 C344 C 0.16153 0.33572 0.33605
 C345 C 0.17373 0.36377 0.35150
 C346 C 0.15382 0.38319 0.37145
 C347 C 0.10106 0.39502 0.39675
 C348 C 0.08422 0.41212 0.41395
 H349 H 0.08403 0.34042 0.36452
 H350 H 0.11876 0.30634 0.32921
 H351 H 0.19879 0.37048 0.34850
 H352 H 0.16368 0.40465 0.38319
 C353 C 0.62198 -0.12452 0.37642
 C354 C 0.65433 -0.11619 0.37162
 C355 C 0.67427 -0.13560 0.35169
 C356 C 0.66209 -0.16368 0.33627
 C357 C 0.62953 -0.17188 0.34130
 C358 C 0.60962 -0.15240 0.36123
 C359 C 0.60155 -0.10439 0.39690
 C360 C 0.58467 -0.08731 0.41408
 H361 H 0.66417 -0.09471 0.38335
 H362 H 0.69931 -0.12888 0.34869
 H363 H 0.61934 -0.19310 0.32944
 H364 H 0.58458 -0.15902 0.36471
 C365 C 0.62199 0.37513 -0.12302
 C366 C 0.60962 0.34721 -0.13811
 C367 C 0.62953 0.32767 -0.15799
 C368 C 0.66209 0.33585 -0.16305
 C369 C 0.67427 0.36397 -0.14771
 C370 C 0.65434 0.38344 -0.12784
 C371 C 0.60156 0.39534 -0.10263
 C372 C 0.58468 0.41249 -0.08552
 H373 H 0.58458 0.34061 -0.13462
 H374 H 0.61933 0.30642 -0.16978
 H375 H 0.69932 0.37068 -0.15073
 H376 H 0.66418 0.40496 -0.11618
 C377 C -0.12056 0.12748 -0.12339
 C378 C -0.11285 0.13359 -0.15692
 C379 C -0.13275 0.15316 -0.17655
 C380 C -0.16123 0.16733 -0.16314
 C381 C -0.16827 0.16073 -0.12881
 C382 C -0.14823 0.14111 -0.10940
 C383 C -0.10026 0.10694 -0.10340
 C384 C -0.08341 0.08960 -0.08664
 H385 H -0.09121 0.12338 -0.16794
 H386 H -0.12439 0.15800 -0.20177
 H387 H -0.19008 0.16901 -0.11672
 H388 H -0.15463 0.13623 -0.08346
 C389 C -0.11996 0.62750 0.37746
 C390 C -0.15215 0.63228 0.38672
 C391 C -0.17208 0.65194 0.36721
 C392 C -0.16005 0.66707 0.33810
 C393 C -0.12761 0.66218 0.32906
 C394 C -0.10772 0.64252 0.34864
 C395 C -0.09963 0.60693 0.39738
 C396 C -0.08277 0.58955 0.41409
 H397 H -0.16190 0.62067 0.40892
 H398 H -0.19703 0.65486 0.37458
 H399 H -0.11752 0.67381 0.30706
 H400 H -0.08281 0.63903 0.34128
 C401 C 0.37978 0.12730 0.37720
 C402 C 0.34757 0.13197 0.38647
 C403 C 0.32756 0.15152 0.36694
 C404 C 0.33951 0.16665 0.33780
 C405 C 0.37196 0.16187 0.32875
 C406 C 0.39194 0.14232 0.34834
 C407 C 0.40020 0.10686 0.39716
 C408 C 0.41713 0.08957 0.41390
 H409 H 0.33788 0.12036 0.40870
 H410 H 0.30259 0.15436 0.37433
 H411 H 0.38199 0.17351 0.30672
 H412 H 0.41686 0.13891 0.34098
 C413 C 0.37996 0.62752 -0.12251
 C414 C 0.34776 0.63221 -0.11322
 C415 C 0.32775 0.65178 -0.13273
 C416 C 0.33970 0.66692 -0.16186
 C417 C 0.37215 0.66213 -0.17093
 C418 C 0.39213 0.64256 -0.15136
 C419 C 0.40038 0.60705 -0.10258
 C420 C 0.41730 0.58974 -0.08587
 H421 H 0.33807 0.62059 -0.09100
 H422 H 0.30279 0.65463 -0.12533
 H423 H 0.38218 0.67378 -0.19295
 H424 H 0.41704 0.63915 -0.15874
 C425 C -0.12111 -0.12791 0.12098
 C426 C -0.15042 -0.13917 0.10844
 C427 C -0.17015 -0.15889 0.12818
 C428 C -0.16104 -0.16781 0.16119
 C429 C -0.13111 -0.15621 0.17326
 C430 C -0.11146 -0.13654 0.15335
 C431 C -0.10113 -0.10715 0.10076
 C432 C -0.08458 -0.08958 0.08385
 H433 H -0.15826 -0.13238 0.08346
 H434 H -0.19316 -0.16577 0.11772
 H435 H -0.12192 -0.16306 0.19763
 H436 H -0.08864 -0.12814 0.16322
 C437 C -0.12124 0.37181 0.62102
 C438 C -0.15358 0.36726 0.61239
 C439 C -0.17333 0.34755 0.63215
 C440 C -0.16097 0.33212 0.66087
 C441 C -0.12837 0.33676 0.66925
 C442 C -0.10865 0.35647 0.64943
 C443 C -0.10112 0.39252 0.60092
 C444 C -0.08447 0.41007 0.58409
 H445 H -0.16360 0.37912 0.59052
 H446 H -0.19841 0.34483 0.62528
 H447 H -0.11803 0.32490 0.69094
 H448 H -0.08363 0.35978 0.65630
 C449 C 0.37877 -0.12801 0.62073
 C450 C 0.34648 -0.13268 0.61197
 C451 C 0.32670 -0.15238 0.63171
 C452 C 0.33898 -0.16766 0.66055
 C453 C 0.37153 -0.16291 0.66906
 C454 C 0.39127 -0.14321 0.64926
 C455 C 0.39891 -0.10730 0.60065
 C456 C 0.41558 -0.08975 0.58384
 H457 H 0.33652 -0.12093 0.59000
 H458 H 0.30166 -0.15520 0.62474
 H459 H 0.38181 -0.17465 0.69085
 H460 H 0.41626 -0.13980 0.65623
 C461 C 0.37888 0.37216 0.12093
 C462 C 0.34660 0.36753 0.11213
 C463 C 0.32680 0.34778 0.13178
 C464 C 0.33906 0.33240 0.16058
 C465 C 0.37160 0.33711 0.16913
 C466 C 0.39137 0.35686 0.14941
 C467 C 0.39905 0.39291 0.10092
 C468 C 0.41574 0.41049 0.08415
 H469 H 0.33666 0.37936 0.09019
 H470 H 0.30176 0.34499 0.12479
 H471 H 0.38186 0.32529 0.19088
 H472 H 0.41635 0.36024 0.15641
 C473 C 0.11962 0.12518 0.12476
 C474 C 0.15194 0.11661 0.12911
 C475 C 0.17215 0.13584 0.14883
 C476 C 0.16029 0.16397 0.16447
 C477 C 0.12775 0.17240 0.15990
 C478 C 0.10756 0.15310 0.14018
 C479 C 0.09890 0.10526 0.10447
 C480 C 0.08179 0.08837 0.08743
 H481 H 0.16154 0.09509 0.11720
 H482 H 0.19718 0.12894 0.15147
 H483 H 0.11780 0.19367 0.17194
 H484 H 0.08255 0.15991 0.13705
 C485 C 0.11991 0.62477 0.62541
 C486 C 0.15225 0.61628 0.62981
 C487 C 0.17241 0.63559 0.64949
 C488 C 0.16049 0.66372 0.66506
 C489 C 0.12793 0.67208 0.66046
 C490 C 0.10779 0.65270 0.64077
 C491 C 0.09926 0.60479 0.60513
 C492 C 0.08219 0.58786 0.58808
 H493 H 0.16190 0.59476 0.61794
 H494 H 0.19745 0.62875 0.65215
 H495 H 0.11793 0.69335 0.67245
 H496 H 0.08277 0.65945 0.63761
 C497 C 0.61872 0.12570 0.62613
 C498 C 0.62547 0.11692 0.65934
 C499 C 0.64565 0.13619 0.67906
 C500 C 0.65937 0.16454 0.66580
 C501 C 0.65228 0.17325 0.63243
 C502 C 0.63211 0.15392 0.61274
 C503 C 0.59841 0.10553 0.60567
 C504 C 0.58159 0.08847 0.58849
 H505 H 0.61517 0.09515 0.66997
 H506 H 0.65029 0.12906 0.70479
 H507 H 0.66279 0.19469 0.62136
 H508 H 0.62714 0.16088 0.58702
 C509 C 0.62018 0.62536 0.12546
 C510 C 0.65250 0.61680 0.12985
 C511 C 0.67271 0.63610 0.14950
 C512 C 0.66085 0.66428 0.16504
 C513 C 0.62831 0.67270 0.16043
 C514 C 0.60813 0.65334 0.14077
 C515 C 0.59948 0.60539 0.10521
 C516 C 0.58239 0.58846 0.08819
 H517 H 0.66211 0.59525 0.11802
 H518 H 0.69774 0.62921 0.15218
 H519 H 0.61836 0.69401 0.17238
 H520 H 0.58311 0.66014 0.13760
   
