data_POSCAR
  _audit_creation_date              2014-09-24
  _audit_creation_method            'ToBaCCo'
  _symmetry_space_group_name_H-M    'P1'
  _symmetry_Int_Tables_number       1
  _symmetry_cell_setting            triclinic
  loop_
  _symmetry_equiv_pos_as_xyz
 x,y,z
_cell_length_a 36.8683
_cell_length_b 36.2206
_cell_length_c 36.2008
_cell_angle_alpha 90.490500
_cell_angle_beta 89.761500
_cell_angle_gamma 89.238200
loop_
  _atom_site_label
  _atom_site_type_symbol
  _atom_site_fract_x
  _atom_site_fract_y
  _atom_site_fract_z
N1 N 0.18339 1.26910 0.16288
 N2 N 0.15672 1.26661 0.18686
 C3 C 0.13156 1.29275 0.17968
 C4 C 0.14293 1.31297 0.14937
 C5 C 0.17624 1.29709 0.13967
 H6 H 0.10640 1.29586 0.19481
 H7 H 0.19383 1.30459 0.11706
 Cu8 Cu 0.15667 1.22782 0.22355
 Cu9 Cu 0.22491 1.23502 0.16333
 Cu10 Cu 0.21092 1.15436 0.21284
 N11 N 0.15833 1.18948 0.26073
 N12 N 0.17943 1.16031 0.25602
 C13 C 0.17288 1.13600 0.28304
 C14 C 0.14599 1.15062 0.30617
 C15 C 0.13775 1.18490 0.29109
 H16 H 0.18599 1.10921 0.28467
 H17 H 0.11713 1.20437 0.30030
 N18 N 0.25029 1.15974 0.17635
 N19 N 0.25592 1.19046 0.15796
 C20 C 0.28407 1.18505 0.13465
 C21 C 0.29698 1.14921 0.13870
 C22 C 0.27493 1.13409 0.16551
 H23 H 0.29402 1.20558 0.11578
 H24 H 0.27612 1.10617 0.17578
 H25 H 0.19046 1.19384 0.17602
 H26 H 0.21986 1.20920 0.21485
 N27 N 0.80910 0.74505 0.16132
 N28 N 0.83175 0.74333 0.18917
 C29 C 0.85735 0.71746 0.18190
 C30 C 0.85049 0.70195 0.14750
 C31 C 0.81950 0.72023 0.13534
 H32 H 0.87960 0.71102 0.20017
 H33 H 0.80573 0.71628 0.10934
 Cu34 Cu 0.82684 0.77595 0.23175
 Cu35 Cu 0.76871 0.78036 0.16029
 Cu36 Cu 0.76663 0.84633 0.23000
 N37 N 0.82986 0.81714 0.26624
 N38 N 0.80602 0.84436 0.26562
 C39 C 0.81500 0.86978 0.29113
 C40 C 0.84650 0.85812 0.30880
 C41 C 0.85498 0.82432 0.29214
 H42 H 0.80012 0.89534 0.29546
 H43 H 0.87807 0.80654 0.29759
 N44 N 0.72940 0.84357 0.19126
 N45 N 0.73022 0.81859 0.16453
 C46 C 0.70253 0.82533 0.14127
 C47 C 0.68332 0.85618 0.15385
 C48 C 0.70121 0.86682 0.18573
 H49 H 0.69751 0.80962 0.11636
 H50 H 0.69499 0.89050 0.20306
 H51 H 0.79736 0.81891 0.19010
 H52 H 0.76396 0.79068 0.21630
 N53 N 0.82401 1.24989 -0.14624
 N54 N 0.85038 1.24776 -0.17068
 C55 C 0.87192 1.27723 -0.16657
 C56 C 0.85838 1.29902 -0.13781
 C57 C 0.82784 1.28067 -0.12568
 H58 H 0.89607 1.28188 -0.18279
 H59 H 0.81037 1.28825 -0.10273
 Cu60 Cu 0.85577 1.20532 -0.20366
 Cu61 Cu 0.78870 1.21099 -0.14070
 Cu62 Cu 0.78465 1.14852 -0.21346
 N63 N 0.85306 1.17002 -0.24426
 N64 N 0.82489 1.14861 -0.24841
 C65 C 0.83032 1.12651 -0.27800
 C66 C 0.86393 1.13426 -0.29344
 C67 C 0.87744 1.16231 -0.27113
 H68 H 0.81140 1.10574 -0.28682
 H69 H 0.90321 1.17591 -0.27376
 N70 N 0.74697 1.15248 -0.17479
 N71 N 0.74881 1.17599 -0.14685
 C72 C 0.72041 1.17072 -0.12410
 C73 C 0.69978 1.14222 -0.13815
 C74 C 0.71747 1.13140 -0.17038
 H75 H 0.71582 1.18570 -0.09853
 H76 H 0.70985 1.10928 -0.18887
 H77 H 0.81333 1.16679 -0.16896
 H78 H 0.79020 1.20321 -0.19679
 N79 N 0.19019 0.73493 -0.16678
 N80 N 0.16504 0.73614 -0.19238
 C81 C 0.14057 0.70974 -0.18571
 C82 C 0.15082 0.69090 -0.15418
 C83 C 0.18255 0.70772 -0.14297
 H84 H 0.11649 0.70533 -0.20196
 H85 H 0.19867 0.70111 -0.11899
 Cu86 Cu 0.16576 0.77347 -0.23067
 Cu87 Cu 0.22993 0.77000 -0.16512
 Cu88 Cu 0.23171 0.83599 -0.23412
 N89 N 0.16652 0.81081 -0.26902
 N90 N 0.19279 0.83489 -0.27035
 C91 C 0.18657 0.85839 -0.29823
 C92 C 0.15435 0.84885 -0.31545
 C93 C 0.14254 0.81826 -0.29603
 H94 H 0.20385 0.88134 -0.30457
 H95 H 0.11798 0.80298 -0.30055
 N96 N 0.26854 0.83274 -0.19497
 N97 N 0.26777 0.80796 -0.16847
 C98 C 0.29503 0.81467 -0.14473
 C99 C 0.31387 0.84518 -0.15683
 C100 C 0.29627 0.85574 -0.18883
 H101 H 0.30023 0.79902 -0.11999
 H102 H 0.30222 0.87946 -0.20558
 H103 H 0.20283 0.81256 -0.19125
 H104 H 0.23062 0.78058 -0.22087
 Si105 Si 0.49580 0.99973 -0.00451
 Si106 Si -0.00066 0.50517 0.99729
 Si107 Si 1.00475 -0.00122 0.49703
 C108 C 0.08415 0.39570 1.09312
 C109 C 0.07041 0.38147 1.12617
 C110 C 0.09009 0.35457 1.14505
 C111 C 0.12383 0.34168 1.13147
 C112 C 0.13730 0.35798 1.09904
 N113 N 0.11736 0.38397 1.08095
 C114 C 0.06324 0.42270 1.07096
 N115 N 0.08115 0.44574 1.04776
 C116 C 0.06341 0.47063 1.02614
 C117 C 0.02549 0.47304 1.02709
 C118 C 0.00648 0.44918 1.05008
 C119 C 0.02514 0.42405 1.07208
 H120 H 0.07845 0.34407 1.17024
 H121 H 0.16324 0.34976 1.08742
 H122 H 0.07893 0.48812 1.00811
 H123 H -0.02290 0.44986 1.05084
 H124 H 0.04479 0.39102 1.13763
 H125 H 0.00971 0.40536 1.08894
 C126 C -0.08709 0.61866 1.08991
 C127 C -0.07655 0.63018 1.12537
 C128 C -0.09696 0.65710 1.14413
 C129 C -0.12781 0.67300 1.12774
 C130 C -0.13719 0.66099 1.09204
 N131 N -0.11686 0.63465 1.07431
 C132 C -0.06625 0.59031 1.06865
 N133 N -0.06873 0.58971 1.03110
 C134 C -0.05007 0.56474 1.00983
 C135 C -0.02754 0.53825 1.02632
 C136 C -0.02467 0.53815 1.06484
 C137 C -0.04416 0.56385 1.08612
 H138 H -0.08824 0.66545 1.17138
 H139 H -0.16053 0.67245 1.07803
 H140 H -0.05270 0.56569 0.98008
 H141 H -0.00727 0.51847 1.07870
 H142 H -0.05242 0.61923 1.13843
 H143 H -0.04209 0.56254 1.11586
 C144 C -0.09197 0.39300 0.91273
 C145 C -0.12729 0.38326 0.92317
 C146 C -0.14379 0.35319 0.90608
 C147 C -0.12531 0.33257 0.87870
 C148 C -0.09034 0.34371 0.86857
 N149 N -0.07474 0.37291 0.88580
 C150 C -0.07169 0.42259 0.93178
 N151 N -0.03481 0.42177 0.92964
 C152 C -0.01390 0.44663 0.94765
 C153 C -0.03002 0.47442 0.96947
 C154 C -0.06788 0.47645 0.97172
 C155 C -0.08889 0.45075 0.95271
 H156 H -0.17082 0.34590 0.91484
 H157 H -0.07486 0.32880 0.84773
 H158 H 0.01533 0.44422 0.94550
 H159 H -0.08128 0.49736 0.98856
 H160 H -0.14176 0.39764 0.94509
 H161 H -0.11809 0.45309 0.95458
 C162 C 0.09135 0.60693 0.90165
 C163 C 0.08173 0.61690 0.86553
 C164 C 0.10153 0.64372 0.84716
 C165 C 0.13082 0.66099 0.86455
 C166 C 0.13980 0.64996 0.90052
 N167 N 0.11998 0.62385 0.91794
 C168 C 0.07011 0.58015 0.92338
 N169 N 0.07253 0.58109 0.96093
 C170 C 0.05282 0.55853 0.98289
 C171 C 0.02891 0.53324 0.96717
 C172 C 0.02629 0.53123 0.92868
 C173 C 0.04705 0.55434 0.90665
 H174 H 0.09353 0.65105 0.81944
 H175 H 0.16198 0.66251 0.91522
 H176 H 0.05536 0.56083 1.01260
 H177 H 0.00793 0.51226 0.91546
 H178 H 0.05861 0.60514 0.85172
 H179 H 0.04488 0.55177 0.87698
 C180 C 1.09155 0.09635 0.39243
 C181 C 1.08223 0.13304 0.38423
 C182 C 1.10081 0.15134 0.35631
 C183 C 1.12871 0.13330 0.33615
 C184 C 1.13773 0.09682 0.34609
 N185 N 1.11898 0.07955 0.37316
 C186 C 1.07109 0.07437 0.41961
 N187 N 1.07224 0.03690 0.41636
 C188 C 1.05345 0.01460 0.43930
 C189 C 1.03200 0.02984 0.46766
 C190 C 1.03052 0.06825 0.47198
 C191 C 1.05020 0.09067 0.44815
 H192 H 1.09259 0.17941 0.35037
 H193 H 1.15898 0.08140 0.33200
 H194 H 1.05502 -0.01501 0.43514
 H195 H 1.01403 0.08102 0.49343
 H196 H 1.06006 0.14729 0.39814
 H197 H 1.04908 0.12025 0.45235
 C198 C 1.09994 -0.09451 0.59921
 C199 C 1.13383 -0.08220 0.61134
 C200 C 1.15207 -0.10127 0.63907
 C201 C 1.13679 -0.13269 0.65527
 C202 C 1.10294 -0.14433 0.64184
 N203 N 1.08560 -0.12507 0.61491
 C204 C 1.07830 -0.07384 0.57164
 N205 N 1.04153 -0.07721 0.57181
 C206 C 1.01970 -0.05739 0.54892
 C207 C 1.03475 -0.03230 0.52419
 C208 C 1.07249 -0.02900 0.52275
 C209 C 1.09439 -0.04993 0.54615
 H210 H 1.17791 -0.09069 0.64795
 H211 H 1.08971 -0.16828 0.65291
 H212 H 0.99059 -0.06050 0.55076
 H213 H 1.08519 -0.00975 0.50425
 H214 H 1.14582 -0.05740 0.60058
 H215 H 1.12349 -0.04708 0.54427
 C216 C 0.90744 -0.08334 0.38783
 C217 C 0.87444 -0.06852 0.37526
 C218 C 0.85411 -0.08806 0.34953
 C219 C 0.86622 -0.12269 0.33608
 C220 C 0.89891 -0.13706 0.35047
 N221 N 0.91834 -0.11731 0.37547
 C222 C 0.93060 -0.06297 0.41416
 N223 N 0.95385 -0.08212 0.43633
 C224 C 0.97588 -0.06500 0.46104
 C225 C 0.97521 -0.02645 0.46426
 C226 C 0.95231 -0.00615 0.44114
 C227 C 0.92995 -0.02420 0.41612
 H228 H 0.82896 -0.07561 0.34036
 H229 H 0.90951 -0.16370 0.34174
 H230 H 0.99385 -0.08151 0.47791
 H231 H 0.95174 0.02374 0.44245
 H232 H 0.86406 -0.04223 0.38537
 H233 H 0.91299 -0.00780 0.39811
 C234 C 0.91592 0.08051 0.61652
 C235 C 0.88102 0.06982 0.62729
 C236 C 0.86370 0.08787 0.65673
 C237 C 0.88093 0.11657 0.67605
 C238 C 0.91595 0.12639 0.66423
 N239 N 0.93226 0.10828 0.63544
 C240 C 0.93609 0.06149 0.58620
 N241 N 0.97298 0.06334 0.58544
 C242 C 0.99339 0.04581 0.55910
 C243 C 0.97669 0.02497 0.53139
 C244 C 0.93883 0.02291 0.53129
 C245 C 0.91841 0.04136 0.55837
 H246 H 0.83692 0.07872 0.66430
 H247 H 0.93076 0.14812 0.67782
 H248 H 1.02264 0.04779 0.56005
 H249 H 0.92484 0.00683 0.51065
 H250 H 0.86734 0.04714 0.61396
 H251 H 0.88918 0.03988 0.55715
 C252 C 0.38044 1.09275 0.07710
 C253 C 0.36633 1.12637 0.06406
 C254 C 0.33945 1.14506 0.08434
 C255 C 0.32651 1.13041 0.11759
 C256 C 0.34190 1.09710 0.13002
 N257 N 0.36811 1.07946 0.10982
 C258 C 0.40853 1.07138 0.05655
 N259 N 0.43091 1.04816 0.07552
 C260 C 0.45697 1.02718 0.05849
 C261 C 0.46139 1.02876 0.02012
 C262 C 0.43817 1.05168 -0.00014
 C263 C 0.41182 1.07320 0.01792
 H264 H 0.32853 1.17067 0.07364
 H265 H 0.33327 1.08503 0.15576
 H266 H 0.47374 1.00906 0.07496
 H267 H 0.44041 1.05285 -0.02995
 H268 H 0.37611 1.13844 0.03873
 H269 H 0.39378 1.09026 0.00165
 C270 C 0.60909 1.09079 -0.08630
 C271 C 0.61943 1.12627 -0.07485
 C272 C 0.64859 1.14330 -0.09217
 C273 C 0.66759 1.12520 -0.12086
 C274 C 0.65609 1.08995 -0.13178
 N275 N 0.62782 1.07380 -0.11428
 C276 C 0.57991 1.07031 -0.06752
 N277 N 0.58051 1.03273 -0.06940
 C278 C 0.55550 1.01183 -0.05189
 C279 C 0.52772 1.02871 -0.03112
 C280 C 0.52616 1.06730 -0.02905
 C281 C 0.55202 1.08824 -0.04741
 H282 H 0.65633 1.17052 -0.08282
 H283 H 0.67003 1.07472 -0.15350
 H284 H 0.55762 0.98203 -0.05381
 H285 H 0.50545 1.08140 -0.01287
 H286 H 0.60606 1.14045 -0.05207
 H287 H 0.54995 1.11801 -0.04582
 C288 C 0.39802 0.90392 -0.10105
 C289 C 0.38997 0.91209 -0.13802
 C290 C 0.36319 0.89234 -0.15639
 C291 C 0.34407 0.86455 -0.13819
 C292 C 0.35334 0.85682 -0.10144
 N293 N 0.37941 0.87659 -0.08404
 C294 C 0.42430 0.92564 -0.07915
 N295 N 0.42201 0.92473 -0.04160
 C296 C 0.44374 0.94523 -0.01946
 C297 C 0.46953 0.96854 -0.03496
 C298 C 0.47304 0.96954 -0.07342
 C299 C 0.45074 0.94791 -0.09564
 H300 H 0.35728 0.89930 -0.18475
 H301 H 0.33934 0.83582 -0.08610
 H302 H 0.44031 0.94391 0.01021
 H303 H 0.49246 0.98742 -0.08643
 H304 H 0.40313 0.93419 -0.15253
 H305 H 0.45434 0.94892 -0.12525
 C306 C 0.59881 0.91498 0.09737
 C307 C 0.61115 0.92819 0.13158
 C308 C 0.63805 0.90862 0.15038
 C309 C 0.65273 0.87573 0.13543
 C310 C 0.63842 0.86265 0.10191
 N311 N 0.61237 0.88238 0.08397
 C312 C 0.57225 0.93594 0.07495
 N313 N 0.55175 0.91754 0.04972
 C314 C 0.52819 0.93528 0.02688
 C315 C 0.52475 0.97380 0.02841
 C316 C 0.54572 0.99338 0.05379
 C317 C 0.56938 0.97463 0.07722
 H318 H 0.64750 0.91970 0.17638
 H319 H 0.64826 0.83720 0.08946
 H320 H 0.51293 0.91932 0.00710
 H321 H 0.54421 1.02325 0.05507
 H322 H 0.60026 0.95335 0.14384
 H323 H 0.58608 0.99049 0.09583
   
