data_POSCAR
  _audit_creation_date              2014-09-24
  _audit_creation_method            'ToBaCCo'
  _symmetry_space_group_name_H-M    'P1'
  _symmetry_Int_Tables_number       1
  _symmetry_cell_setting            triclinic
  loop_
  _symmetry_equiv_pos_as_xyz
 x,y,z
_cell_length_a 48.3088
_cell_length_b 48.8464
_cell_length_c 49.8067
_cell_angle_alpha 90.050300
_cell_angle_beta 87.711800
_cell_angle_gamma 89.676800
loop_
  _atom_site_label
  _atom_site_type_symbol
  _atom_site_fract_x
  _atom_site_fract_y
  _atom_site_fract_z
N1 N 0.27874 0.23870 0.23225
 N2 N 0.27089 0.26404 0.22763
 C3 C 0.28719 0.27455 0.20769
 C4 C 0.30612 0.25477 0.19929
 C5 C 0.30022 0.23222 0.21530
 H6 H 0.28547 0.29504 0.19973
 H7 H 0.31081 0.21266 0.21484
 Cu8 Cu 0.24008 0.28093 0.24797
 Cu9 Cu 0.26066 0.21617 0.26007
 Cu10 Cu 0.20480 0.24539 0.29555
 N11 N 0.20837 0.29680 0.26785
 N12 N 0.19493 0.28276 0.28667
 C13 C 0.17445 0.29834 0.29769
 C14 C 0.17487 0.32339 0.28499
 C15 C 0.19665 0.32182 0.26610
 H16 H 0.16012 0.29192 0.31367
 H17 H 0.20356 0.33769 0.25234
 N18 N 0.21776 0.20787 0.30187
 N19 N 0.23948 0.19684 0.28898
 C20 C 0.24396 0.17166 0.29913
 C21 C 0.22393 0.16677 0.31918
 C22 C 0.20768 0.19000 0.32026
 H23 H 0.26064 0.15806 0.29261
 H24 H 0.19027 0.19382 0.33410
 H25 H 0.22270 0.23524 0.25823
 H26 H 0.24648 0.24803 0.28405
 N27 N 0.69817 -0.23401 0.19760
 N28 N 0.71046 -0.25653 0.18872
 C29 C 0.69660 -0.26650 0.16798
 C30 C 0.67455 -0.24923 0.16342
 C31 C 0.67611 -0.22875 0.18263
 H32 H 0.70226 -0.28484 0.15682
 H33 H 0.66240 -0.21136 0.18560
 Cu34 Cu 0.74383 -0.27052 0.20443
 Cu35 Cu 0.71198 -0.21324 0.22776
 Cu36 Cu 0.76619 -0.24255 0.26127
 N37 N 0.77078 -0.28899 0.22606
 N38 N 0.77930 -0.27816 0.24841
 C39 C 0.79807 -0.29500 0.25911
 C40 C 0.80153 -0.31755 0.24238
 C41 C 0.78389 -0.31306 0.22165
 H42 H 0.80869 -0.29079 0.27734
 H43 H 0.78100 -0.32624 0.20454
 N44 N 0.75007 -0.20664 0.27113
 N45 N 0.72911 -0.19560 0.25870
 C46 C 0.72252 -0.17142 0.27043
 C47 C 0.74034 -0.16697 0.29098
 C48 C 0.75752 -0.18970 0.29090
 H49 H 0.70604 -0.15793 0.26450
 H50 H 0.77393 -0.19382 0.30448
 H51 H 0.75267 -0.22648 0.22551
 H52 H 0.72748 -0.24794 0.24559
 N53 N 0.70291 0.21373 0.78165
 N54 N 0.71084 0.23605 0.79389
 C55 C 0.69323 0.24127 0.81492
 C56 C 0.67324 0.22110 0.81598
 C57 C 0.68005 0.20392 0.79463
 H58 H 0.69502 0.25832 0.82856
 H59 H 0.66914 0.18565 0.78899
 Cu60 Cu 0.74347 0.25634 0.78163
 Cu61 Cu 0.72292 0.19922 0.74987
 Cu62 Cu 0.77964 0.23626 0.72594
 N63 N 0.77490 0.27715 0.76720
 N64 N 0.78847 0.26954 0.74503
 C65 C 0.80879 0.28756 0.73926
 C66 C 0.80802 0.30751 0.75905
 C67 C 0.78630 0.30025 0.77646
 H68 H 0.82329 0.28585 0.72224
 H69 H 0.77939 0.31106 0.79449
 N70 N 0.76775 0.20209 0.70921
 N71 N 0.74598 0.18800 0.71801
 C72 C 0.74336 0.16578 0.70219
 C73 C 0.76463 0.16600 0.68271
 C74 C 0.77964 0.18917 0.68781
 H75 H 0.72742 0.15047 0.70485
 H76 H 0.79793 0.19606 0.67661
 H77 H 0.76089 0.21548 0.75812
 H78 H 0.73774 0.23670 0.73720
 N79 N 0.28285 -0.24275 0.78095
 N80 N 0.27239 -0.26592 0.79001
 C81 C 0.28911 -0.27636 0.80848
 C82 C 0.31106 -0.25874 0.81128
 C83 C 0.30646 -0.23759 0.79347
 H84 H 0.28550 -0.29525 0.81934
 H85 H 0.31922 -0.21976 0.78988
 Cu86 Cu 0.23768 -0.28034 0.77752
 Cu87 Cu 0.26494 -0.22078 0.75391
 Cu88 Cu 0.20682 -0.24849 0.72664
 N89 N 0.20703 -0.29685 0.75917
 N90 N 0.19555 -0.28443 0.73900
 C91 C 0.17547 -0.30030 0.72962
 C92 C 0.17405 -0.32385 0.74480
 C93 C 0.19438 -0.32110 0.76349
 H94 H 0.16263 -0.29504 0.71306
 H95 H 0.19980 -0.33561 0.77883
 N96 N 0.22110 -0.21233 0.71653
 N97 N 0.24367 -0.20182 0.72637
 C98 C 0.24865 -0.17740 0.71452
 C99 C 0.22804 -0.17248 0.69655
 C100 C 0.21097 -0.19490 0.69845
 H101 H 0.26595 -0.16430 0.71858
 H102 H 0.19280 -0.19843 0.68697
 H103 H 0.22540 -0.23488 0.76124
 H104 H 0.24793 -0.25465 0.73653
 N105 N 0.71807 -0.23908 0.77115
 N106 N 0.73186 -0.25964 0.78128
 C107 C 0.72010 -0.26628 0.80536
 C108 C 0.69800 -0.24880 0.81063
 C109 C 0.69725 -0.23177 0.78849
 H110 H 0.72685 -0.28276 0.81807
 H111 H 0.68229 -0.21579 0.78490
 Cu112 Cu 0.76350 -0.27599 0.76182
 Cu113 Cu 0.72721 -0.22426 0.73570
 Cu114 Cu 0.78260 -0.25395 0.69979
 N115 N 0.79427 -0.29268 0.74134
 N116 N 0.80157 -0.28419 0.71704
 C117 C 0.82308 -0.29947 0.70745
 C118 C 0.82963 -0.31847 0.72680
 C119 C 0.81091 -0.31358 0.74808
 H120 H 0.83322 -0.29698 0.68786
 H121 H 0.80929 -0.32446 0.76694
 N122 N 0.76073 -0.22313 0.68590
 N123 N 0.73950 -0.21206 0.69955
 C124 C 0.72878 -0.19174 0.68489
 C125 C 0.74404 -0.18975 0.66101
 C126 C 0.76417 -0.20995 0.66223
 H127 H 0.71133 -0.17898 0.69117
 H128 H 0.78009 -0.21471 0.64706
 H129 H 0.74488 -0.25984 0.71986
 H130 H 0.76887 -0.23464 0.73468
 N131 N 0.30985 0.22826 0.78091
 N132 N 0.29618 0.24736 0.79459
 C133 C 0.30776 0.25055 0.81857
 C134 C 0.32975 0.23236 0.81981
 C135 C 0.33042 0.21854 0.79567
 H136 H 0.30046 0.26463 0.83406
 H137 H 0.34481 0.20251 0.78941
 Cu138 Cu 0.26403 0.26543 0.78012
 Cu139 Cu 0.29985 0.21707 0.74526
 Cu140 Cu 0.24148 0.24689 0.71937
 N141 N 0.23072 0.28116 0.76561
 N142 N 0.22208 0.27413 0.74188
 C143 C 0.19882 0.28831 0.73696
 C144 C 0.19257 0.30500 0.75889
 C145 C 0.21314 0.29987 0.77666
 H146 H 0.18727 0.28643 0.71891
 H147 H 0.21509 0.30920 0.79618
 N148 N 0.26411 0.21895 0.69978
 N149 N 0.28671 0.20819 0.70955
 C150 C 0.29763 0.18989 0.69187
 C151 C 0.28105 0.18880 0.67008
 C152 C 0.25993 0.20750 0.67562
 H153 H 0.31592 0.17758 0.69487
 H154 H 0.24271 0.21220 0.66317
 H155 H 0.27988 0.25305 0.73456
 H156 H 0.25785 0.22600 0.75098
 N157 N 0.29598 -0.22099 0.21340
 N158 N 0.28481 -0.24207 0.20159
 C159 C 0.29531 -0.24394 0.17617
 C160 C 0.31390 -0.22273 0.17199
 C161 C 0.31370 -0.20857 0.19593
 H162 H 0.28984 -0.25951 0.16191
 H163 H 0.32608 -0.19090 0.20043
 Cu164 Cu 0.25777 -0.26504 0.22062
 Cu165 Cu 0.28801 -0.21207 0.25083
 Cu166 Cu 0.23422 -0.24672 0.28307
 N167 N 0.22451 -0.28085 0.23732
 N168 N 0.21544 -0.27382 0.26162
 C169 C 0.19241 -0.28817 0.26809
 C170 C 0.18677 -0.30503 0.24664
 C171 C 0.20750 -0.29981 0.22747
 H172 H 0.18072 -0.28639 0.28698
 H173 H 0.21004 -0.30922 0.20786
 N174 N 0.25616 -0.21858 0.30103
 N175 N 0.27705 -0.20585 0.28867
 C176 C 0.28824 -0.18821 0.30585
 C177 C 0.27359 -0.18962 0.33007
 C178 C 0.25332 -0.20907 0.32644
 H179 H 0.30549 -0.17484 0.30103
 H180 H 0.23773 -0.21576 0.34113
 H181 H 0.27279 -0.24973 0.26431
 H182 H 0.24731 -0.22575 0.24918
 N183 N 0.70588 0.25231 0.21778
 N184 N 0.71544 0.27636 0.21028
 C185 C 0.70248 0.28461 0.18824
 C186 C 0.68391 0.26458 0.18156
 C187 C 0.68656 0.24434 0.20072
 H188 H 0.70612 0.30381 0.17793
 H189 H 0.67494 0.22554 0.20253
 Cu190 Cu 0.74352 0.29479 0.23019
 Cu191 Cu 0.71833 0.23392 0.24978
 Cu192 Cu 0.77438 0.26233 0.28083
 N193 N 0.77811 0.30752 0.24392
 N194 N 0.79000 0.29531 0.26400
 C195 C 0.81333 0.30893 0.26950
 C196 C 0.81611 0.33065 0.25170
 C197 C 0.79350 0.32904 0.23577
 H198 H 0.82729 0.30326 0.28502
 H199 H 0.78857 0.34265 0.21949
 N200 N 0.75524 0.22901 0.29430
 N201 N 0.73381 0.21842 0.28241
 C202 C 0.72493 0.19632 0.29627
 C203 C 0.74156 0.19264 0.31781
 C204 C 0.76065 0.21370 0.31605
 H205 H 0.70758 0.18371 0.29116
 H206 H 0.77703 0.21772 0.32965
 H207 H 0.73387 0.26729 0.27028
 H208 H 0.75806 0.24994 0.24532
 O209 O 0.23453 0.01453 0.47380
 O210 O 0.23489 -0.02357 0.53793
 O211 O 0.22899 0.02716 0.52555
 O212 O 0.22821 -0.03754 0.48896
 O213 O 0.27391 -0.03748 0.48507
 O214 O 0.27475 0.02786 0.52274
 O215 O 0.28065 -0.02251 0.53591
 O216 O 0.28026 0.01512 0.47260
 Cu217 Cu 0.22749 -0.00453 0.50616
 Cu218 Cu 0.28157 -0.00487 0.50350
 C219 C 0.25753 0.02147 0.46242
 C220 C 0.25813 -0.02943 0.54783
 C221 C 0.25167 0.03852 0.53064
 C222 C 0.25070 -0.04863 0.48072
 O223 O 0.78483 0.02128 0.51817
 O224 O 0.79514 -0.02152 0.45715
 O225 O 0.79195 0.03109 0.46694
 O226 O 0.79187 -0.03081 0.50840
 O227 O 0.74645 -0.03406 0.50587
 O228 O 0.74664 0.02816 0.46335
 O229 O 0.74975 -0.02438 0.45426
 O230 O 0.73952 0.01800 0.51467
 Cu231 Cu 0.79546 0.00039 0.48794
 Cu232 Cu 0.74107 -0.00335 0.48417
 C233 C 0.76026 0.02679 0.52679
 C234 C 0.77404 -0.03038 0.44546
 C235 C 0.76951 0.04020 0.45802
 C236 C 0.76934 -0.04295 0.51430
 O237 O 0.46856 0.21137 0.03636
 O238 O 0.52064 0.21987 -0.01897
 O239 O 0.52247 0.21204 0.03277
 O240 O 0.46683 0.22068 -0.01514
 O241 O 0.46663 0.26529 -0.00776
 O242 O 0.52241 0.25673 0.03952
 O243 O 0.52057 0.26452 -0.01198
 O244 O 0.46844 0.25601 0.04351
 Cu245 Cu 0.49461 0.21150 0.00806
 Cu246 Cu 0.49451 0.26511 0.01655
 C247 C 0.45960 0.23219 0.04933
 C248 C 0.52945 0.24363 -0.02493
 C249 C 0.53195 0.23303 0.04423
 C250 C 0.45732 0.24449 -0.01960
 O251 O 0.51716 0.79822 0.01282
 O252 O 0.47111 0.79676 -0.04395
 O253 O 0.46425 0.79155 0.00786
 O254 O 0.52417 0.80122 -0.03936
 O255 O 0.52937 0.75635 -0.04217
 O256 O 0.46983 0.74672 0.00490
 O257 O 0.47586 0.75183 -0.04688
 O258 O 0.52298 0.75341 0.01000
 Cu259 Cu 0.49367 0.80142 -0.01533
 Cu260 Cu 0.50011 0.74757 -0.01884
 C261 C 0.52794 0.77624 0.02112
 C262 C 0.46545 0.77419 -0.05499
 C263 C 0.45684 0.76743 0.01434
 C264 C 0.53689 0.78032 -0.04887
 O265 O 0.02638 0.49359 0.25503
 O266 O -0.03306 0.54033 0.26223
 O267 O 0.02076 0.54623 0.25946
 O268 O -0.02709 0.48732 0.26035
 O269 O -0.02514 0.48536 0.30454
 O270 O 0.02231 0.54379 0.30367
 O271 O -0.03129 0.53855 0.30643
 O272 O 0.02826 0.49087 0.29920
 Cu273 Cu -0.00351 0.51714 0.25485
 Cu274 Cu -0.00130 0.51443 0.30789
 C275 C 0.03742 0.48420 0.27579
 C276 C -0.04231 0.54749 0.28540
 C277 C 0.02978 0.55486 0.28156
 C278 C -0.03414 0.47629 0.28271
 O279 O 0.02676 0.50391 0.77604
 O280 O -0.02991 0.45573 0.76506
 O281 O 0.02402 0.45190 0.76548
 O282 O -0.02700 0.50816 0.77386
 O283 O -0.02356 0.51611 0.73022
 O284 O 0.02722 0.46013 0.72186
 O285 O -0.02637 0.46357 0.72139
 O286 O 0.03003 0.51221 0.73245
 Cu287 Cu -0.00191 0.47909 0.77450
 Cu288 Cu 0.00216 0.48886 0.72212
 C289 C 0.03804 0.51627 0.75612
 C290 C -0.03773 0.45136 0.74141
 C291 C 0.03434 0.44653 0.74216
 C292 C -0.03394 0.52170 0.75341
 C293 C 0.32779 0.25808 0.17791
 C294 C 0.34427 0.23642 0.16826
 C295 C 0.36562 0.24016 0.14664
 N296 N 0.37922 0.21809 0.13592
 N297 N 0.39849 0.22117 0.11627
 C298 C 0.40494 0.24647 0.10667
 N299 N 0.39145 0.26854 0.11748
 N300 N 0.37212 0.26545 0.13707
 C301 C 0.42612 0.25029 0.08493
 C302 C 0.43875 0.22831 0.07132
 H303 H 0.34114 0.21604 0.17629
 H304 H 0.43154 0.27103 0.07920
 H305 H 0.33038 0.27824 0.16916
 H306 H 0.43287 0.20757 0.07657
 C307 C 0.65558 0.74760 0.14320
 C308 C 0.63449 0.76648 0.13858
 C309 C 0.61539 0.76323 0.11647
 N310 N 0.59759 0.78381 0.11080
 N311 N 0.58046 0.78145 0.09062
 C312 C 0.58040 0.75837 0.07538
 N313 N 0.59805 0.73768 0.08118
 N314 N 0.61527 0.74008 0.10131
 C315 C 0.56176 0.75571 0.05279
 C316 C 0.54623 0.77785 0.04397
 H317 H 0.63225 0.78469 0.15089
 H318 H 0.56084 0.73622 0.04248
 H319 H 0.65787 0.72984 0.13023
 H320 H 0.54797 0.79752 0.05380
 C321 C 0.64999 0.21783 -0.16419
 C322 C 0.64315 0.23797 -0.14514
 C323 C 0.62083 0.23467 -0.12443
 N324 N 0.61424 0.25580 -0.10761
 N325 N 0.59449 0.25313 -0.08837
 C326 C 0.58063 0.22917 -0.08516
 N327 N 0.58722 0.20802 -0.10197
 N328 N 0.60693 0.21072 -0.12128
 C329 C 0.55915 0.22573 -0.06362
 C330 C 0.55032 0.24730 -0.04694
 H331 H 0.65448 0.25701 -0.14527
 H332 H 0.55004 0.20566 -0.06088
 H333 H 0.63798 0.19920 -0.16473
 H334 H 0.55883 0.26756 -0.05014
 C335 C 0.33373 0.73791 -0.17002
 C336 C 0.35304 0.75843 -0.16588
 C337 C 0.37462 0.75594 -0.14596
 N338 N 0.39015 0.77806 -0.14018
 N339 N 0.40930 0.77650 -0.12173
 C340 C 0.41377 0.75272 -0.10842
 N341 N 0.39844 0.73049 -0.11440
 N342 N 0.37917 0.73207 -0.13279
 C343 C 0.43434 0.75110 -0.08740
 C344 C 0.44650 0.77460 -0.07735
 H345 H 0.35171 0.77754 -0.17674
 H346 H 0.43893 0.73132 -0.07877
 H347 H 0.33455 0.71914 -0.15852
 H348 H 0.44083 0.79443 -0.08522
 C349 C 0.15569 0.34625 0.29099
 C350 C 0.15375 0.36900 0.27435
 C351 C 0.13300 0.39065 0.27976
 N352 N 0.12774 0.40937 0.26051
 N353 N 0.10830 0.42850 0.26479
 C354 C 0.09352 0.42972 0.28856
 N355 N 0.09906 0.41124 0.30795
 N356 N 0.11839 0.39201 0.30362
 C357 C 0.07134 0.45012 0.29318
 C358 C 0.06102 0.46533 0.27214
 H359 H 0.16665 0.37032 0.25613
 H360 H 0.06192 0.45208 0.31320
 H361 H 0.14174 0.34437 0.30846
 H362 H 0.06963 0.46237 0.25192
 C363 C 0.15550 0.65488 0.74109
 C364 C 0.15311 0.63212 0.75788
 C365 C 0.13246 0.61079 0.75313
 N366 N 0.12603 0.59205 0.77245
 N367 N 0.10678 0.57317 0.76850
 C368 C 0.09341 0.57227 0.74502
 N369 N 0.10010 0.59079 0.72561
 N370 N 0.11920 0.60973 0.72962
 C371 C 0.07176 0.55200 0.74037
 C372 C 0.06060 0.53552 0.76082
 H373 H 0.16557 0.63038 0.77539
 H374 H 0.06363 0.55082 0.72044
 H375 H 0.14178 0.65672 0.72449
 H376 H 0.06800 0.53730 0.78099
 C377 C -0.18051 0.66016 0.24453
 C378 C -0.16322 0.65651 0.26607
 C379 C -0.14268 0.63414 0.26641
 N380 N -0.12751 0.63004 0.28844
 N381 N -0.10814 0.61049 0.28856
 C382 C -0.10320 0.59441 0.26660
 N383 N -0.11840 0.59849 0.24463
 N384 N -0.13781 0.61795 0.24455
 C385 C -0.08106 0.57365 0.26567
 C386 C -0.06589 0.56664 0.28791
 H387 H -0.16427 0.67050 0.28294
 H388 H -0.07632 0.56376 0.24654
 H389 H -0.17992 0.64522 0.22841
 H390 H -0.07126 0.57543 0.30742
 C391 C -0.17450 0.32989 0.76188
 C392 C -0.15381 0.33663 0.74269
 C393 C -0.13430 0.35912 0.74663
 N394 N -0.11702 0.36707 0.72600
 N395 N -0.09863 0.38685 0.72940
 C396 C -0.09674 0.39932 0.75364
 N397 N -0.11399 0.39134 0.77430
 N398 N -0.13249 0.37164 0.77085
 C399 C -0.07585 0.42045 0.75796
 C400 C -0.05993 0.43168 0.73682
 H401 H -0.15170 0.32529 0.72405
 H402 H -0.07286 0.42724 0.77835
 H403 H -0.17733 0.34247 0.77972
 H404 H -0.06379 0.42590 0.71631
 C405 C 0.22061 0.14316 0.33726
 C406 C 0.24129 0.12359 0.34039
 C407 C 0.23899 0.10278 0.36170
 N408 N 0.26159 0.08798 0.36821
 N409 N 0.26017 0.07030 0.38857
 C410 C 0.23607 0.06669 0.40311
 N411 N 0.21336 0.08116 0.39632
 N412 N 0.21480 0.09893 0.37605
 C413 C 0.23455 0.04839 0.42656
 C414 C 0.25828 0.03729 0.43734
 H415 H 0.26049 0.12485 0.32848
 H416 H 0.21452 0.04497 0.43651
 H417 H 0.20201 0.14249 0.35012
 H418 H 0.27838 0.04146 0.42783
 C419 C 0.77105 0.14631 0.66094
 C420 C 0.75293 0.12571 0.65379
 C421 C 0.75933 0.10734 0.63089
 N422 N 0.73940 0.09078 0.62159
 N423 N 0.74471 0.07458 0.60044
 C424 C 0.77020 0.07423 0.58787
 N425 N 0.79023 0.09057 0.59736
 N426 N 0.78488 0.10686 0.61842
 C427 C 0.77617 0.05686 0.56413
 C428 C 0.75516 0.04343 0.55111
 H429 H 0.73305 0.12373 0.66441
 H430 H 0.79733 0.05543 0.55619
 H431 H 0.79036 0.14893 0.64945
 H432 H 0.73390 0.04574 0.55855
 C433 C 0.22458 -0.14943 0.67801
 C434 C 0.24525 -0.13032 0.67229
 C435 C 0.24238 -0.10987 0.65087
 N436 N 0.26464 -0.09506 0.64216
 N437 N 0.26266 -0.07763 0.62175
 C438 C 0.23831 -0.07430 0.60935
 N439 N 0.21596 -0.08880 0.61832
 N440 N 0.21797 -0.10630 0.63866
 C441 C 0.23615 -0.05629 0.58585
 C442 C 0.25945 -0.04467 0.57317
 H443 H 0.26469 -0.13154 0.68232
 H444 H 0.21602 -0.05352 0.57739
 H445 H 0.20564 -0.14871 0.66709
 H446 H 0.27967 -0.04808 0.58124
 C447 C 0.73995 -0.14338 0.30946
 C448 C 0.76135 -0.13842 0.32679
 C449 C 0.76011 -0.11609 0.34668
 N450 N 0.78241 -0.11084 0.36157
 N451 N 0.78127 -0.09139 0.38038
 C452 C 0.75771 -0.07653 0.38504
 N453 N 0.73545 -0.08175 0.37011
 N454 N 0.73663 -0.10112 0.35124
 C455 C 0.75542 -0.05606 0.40671
 C456 C 0.77783 -0.04828 0.42178
 H457 H 0.77961 -0.15139 0.32598
 H458 H 0.73513 -0.04734 0.41139
 H459 H 0.72234 -0.12956 0.30930
 H460 H 0.79841 -0.05598 0.41655
 C461 C 0.67870 0.75024 -0.16581
 C462 C 0.65918 0.77080 -0.16031
 C463 C 0.63853 0.76877 -0.13793
 N464 N 0.62161 0.79036 -0.13184
 N465 N 0.60220 0.78852 -0.11216
 C466 C 0.59894 0.76497 -0.09793
 N467 N 0.61586 0.74340 -0.10403
 N468 N 0.63533 0.74527 -0.12362
 C469 C 0.57690 0.76213 -0.07695
 C470 C 0.56034 0.78410 -0.06819
 H471 H 0.65883 0.78890 -0.17281
 H472 H 0.57341 0.74200 -0.06840
 H473 H 0.67995 0.73280 -0.15249
 H474 H 0.56444 0.80448 -0.07586
 C475 C 0.34854 0.22756 -0.15818
 C476 C 0.34961 0.24482 -0.13600
 C477 C 0.36929 0.23999 -0.11473
 N478 N 0.37324 0.25950 -0.09589
 N479 N 0.39147 0.25556 -0.07687
 C480 C 0.40630 0.23189 -0.07593
 N481 N 0.40214 0.21227 -0.09459
 N482 N 0.38401 0.21626 -0.11367
 C483 C 0.42695 0.22743 -0.05548
 C484 C 0.43537 0.24843 -0.03880
 H485 H 0.33652 0.26287 -0.13462
 H486 H 0.43665 0.20743 -0.05438
 H487 H 0.36264 0.21028 -0.16006
 H488 H 0.42643 0.26871 -0.04056
 C489 C 0.33152 0.78360 0.14812
 C490 C 0.33624 0.76510 0.12715
 C491 C 0.35686 0.77058 0.10533
 N492 N 0.36558 0.75003 0.08867
 N493 N 0.38532 0.75441 0.06974
 C494 C 0.39696 0.77953 0.06670
 N495 N 0.38793 0.80018 0.08309
 N496 N 0.36830 0.79577 0.10211
 C497 C 0.41953 0.78442 0.04665
 C498 C 0.43302 0.76298 0.03303
 H499 H 0.32619 0.74534 0.12772
 H500 H 0.42657 0.80524 0.04355
 H501 H 0.34272 0.80276 0.14810
 H502 H 0.42659 0.74209 0.03684
 C503 C 0.66464 0.26592 0.15948
 C504 C 0.64839 0.24377 0.15241
 C505 C 0.62790 0.24591 0.13146
 N506 N 0.61410 0.22331 0.12367
 N507 N 0.59502 0.22511 0.10514
 C508 C 0.58898 0.24961 0.09383
 N509 N 0.60276 0.27219 0.10165
 N510 N 0.62190 0.27037 0.12009
 C511 C 0.56749 0.25223 0.07394
 C512 C 0.55415 0.22968 0.06331
 H513 H 0.65059 0.22431 0.16250
 H514 H 0.56204 0.27266 0.06746
 H515 H 0.66323 0.28501 0.14855
 H516 H 0.56018 0.20915 0.06895
 C517 C -0.14939 0.66174 0.72456
 C518 C -0.14367 0.64356 0.74530
 C519 C -0.12200 0.62232 0.74261
 N520 N -0.11659 0.60612 0.76391
 N521 N -0.09731 0.58654 0.76180
 C522 C -0.08274 0.58241 0.73825
 N523 N -0.08814 0.59860 0.71694
 N524 N -0.10739 0.61822 0.71907
 C525 C -0.06169 0.56058 0.73538
 C526 C -0.05440 0.54400 0.75681
 H527 H -0.15528 0.64474 0.76429
 H528 H -0.05171 0.55747 0.71574
 H529 H -0.13713 0.66065 0.70589
 H530 H -0.06391 0.54737 0.77660
 C531 C -0.16213 0.35157 0.24931
 C532 C -0.14237 0.35538 0.26857
 C533 C -0.12204 0.37772 0.26636
 N534 N -0.10626 0.38378 0.28747
 N535 N -0.08833 0.40442 0.28597
 C536 C -0.08544 0.41970 0.26325
 N537 N -0.10101 0.41345 0.24204
 N538 N -0.11902 0.39290 0.24359
 C539 C -0.06609 0.44289 0.26145
 C540 C -0.05286 0.45265 0.28386
 H541 H -0.14256 0.34255 0.28628
 H542 H -0.06290 0.45304 0.24225
 H543 H -0.16254 0.36524 0.23222
 H544 H -0.05680 0.44302 0.30321
 C545 C 0.16933 0.32432 0.76330
 C546 C 0.15147 0.33148 0.74315
 C547 C 0.12911 0.35178 0.74765
 N548 N 0.11485 0.36114 0.72658
 N549 N 0.09493 0.37990 0.73028
 C550 C 0.08844 0.38992 0.75521
 N551 N 0.10253 0.38038 0.77632
 N552 N 0.12254 0.36170 0.77261
 C553 C 0.06684 0.41102 0.75953
 C554 C 0.05487 0.42443 0.73817
 H555 H 0.15448 0.32280 0.72324
 H556 H 0.06103 0.41686 0.77999
 H557 H 0.16690 0.33390 0.78288
 H558 H 0.06143 0.41926 0.71773
 C559 C 0.16406 0.67523 0.24411
 C560 C 0.14541 0.66930 0.26535
 C561 C 0.12350 0.64868 0.26325
 N562 N 0.10796 0.64171 0.28545
 N563 N 0.08841 0.62270 0.28413
 C564 C 0.08357 0.60998 0.26052
 N565 N 0.09895 0.61711 0.23825
 N566 N 0.11859 0.63608 0.23958
 C567 C 0.06249 0.58840 0.25903
 C568 C 0.04928 0.57783 0.28212
 H569 H 0.14733 0.67942 0.28452
 H570 H 0.05822 0.57987 0.23956
 H571 H 0.16251 0.66458 0.22515
 H572 H 0.05437 0.58577 0.30162
 C573 C 0.73946 -0.16961 0.63964
 C574 C 0.75837 -0.16561 0.61818
 C575 C 0.75478 -0.14378 0.59825
 N576 N 0.77612 -0.13726 0.58098
 N577 N 0.77364 -0.11688 0.56348
 C578 C 0.74965 -0.10233 0.56247
 N579 N 0.72814 -0.10910 0.57949
 N580 N 0.73068 -0.12940 0.59712
 C581 C 0.74714 -0.07905 0.54392
 C582 C 0.77046 -0.06757 0.53114
 H583 H 0.77719 -0.17774 0.61670
 H584 H 0.72695 -0.06980 0.54159
 H585 H 0.72124 -0.15663 0.64167
 H586 H 0.79076 -0.07602 0.53478
 C587 C 0.27874 -0.17257 0.35365
 C588 C 0.25983 -0.16982 0.37534
 C589 C 0.26381 -0.14932 0.39649
 N590 N 0.24255 -0.14274 0.41395
 N591 N 0.24532 -0.12288 0.43199
 C592 C 0.26951 -0.10897 0.43333
 N593 N 0.29093 -0.11589 0.41620
 N594 N 0.28812 -0.13566 0.39808
 C595 C 0.27226 -0.08572 0.45181
 C596 C 0.24934 -0.07440 0.46565
 H597 H 0.24069 -0.18126 0.37573
 H598 H 0.29229 -0.07601 0.45290
 H599 H 0.29725 -0.16013 0.35285
 H600 H 0.22917 -0.08364 0.46384
 C601 C 0.73851 0.17059 0.33782
 C602 C 0.75775 0.16561 0.35735
 C603 C 0.75478 0.14242 0.37612
 N604 N 0.77574 0.13591 0.39232
 N605 N 0.77361 0.11455 0.40888
 C606 C 0.75039 0.09895 0.40996
 N607 N 0.72931 0.10562 0.39395
 N608 N 0.73148 0.12692 0.37731
 C609 C 0.74806 0.07487 0.42769
 C610 C 0.77066 0.06501 0.44135
 H611 H 0.77597 0.17831 0.35832
 H612 H 0.72851 0.06411 0.42919
 H613 H 0.72081 0.15724 0.33642
 H614 H 0.79040 0.07534 0.43907
 C615 C 0.28510 0.16998 0.64718
 C616 C 0.26473 0.16507 0.62881
 C617 C 0.26780 0.14307 0.60868
 N618 N 0.24563 0.13519 0.59477
 N619 N 0.24769 0.11422 0.57768
 C620 C 0.27202 0.10041 0.57377
 N621 N 0.29431 0.10858 0.58735
 N622 N 0.29223 0.12948 0.60454
 C623 C 0.27414 0.07628 0.55608
 C624 C 0.25066 0.06417 0.54605
 H625 H 0.24523 0.17609 0.63048
 H626 H 0.29430 0.06695 0.55222
 H627 H 0.30412 0.15810 0.64602
 H628 H 0.23044 0.07304 0.55076
   
