data_POSCAR
  _audit_creation_date              2014-09-24
  _audit_creation_method            'ToBaCCo'
  _symmetry_space_group_name_H-M    'P1'
  _symmetry_Int_Tables_number       1
  _symmetry_cell_setting            triclinic
  loop_
  _symmetry_equiv_pos_as_xyz
 x,y,z
_cell_length_a 11.3217
_cell_length_b 10.2763
_cell_length_c 30.7817
_cell_angle_alpha 90.730900
_cell_angle_beta 96.694000
_cell_angle_gamma 123.727600
loop_
  _atom_site_label
  _atom_site_type_symbol
  _atom_site_fract_x
  _atom_site_fract_y
  _atom_site_fract_z
C1 C 0.05707 0.07980 0.50195
 C2 C 0.96384 -0.14531 0.15239
 C3 C -0.02548 1.05396 0.84523
 O4 O 0.64399 0.06898 -0.03438
 O5 O 0.44019 0.03752 0.05524
 O6 O 0.64390 0.00697 0.04545
 O7 O 0.45401 0.14154 -0.02421
 O8 O 0.27790 -0.10327 -0.04755
 O9 O 0.47841 -0.23855 0.01873
 O10 O 0.26896 -0.20676 0.02907
 O11 O 0.46428 -0.16992 -0.06181
 Cu12 Cu 0.56063 0.08970 0.01235
 Cu13 Cu 0.35547 -0.20357 -0.01809
 C14 C 0.58890 -0.04844 -0.06280
 C15 C 0.32173 -0.09189 0.05781
 C16 C 0.59525 -0.13790 0.04349
 C17 C 0.33300 0.04358 -0.04695
 O18 O 0.09661 0.47274 0.63297
 O19 O 0.13301 0.73908 0.72456
 O20 O 0.11227 0.47811 0.71911
 O21 O 0.20678 0.77953 0.64376
 O22 O -0.02231 0.68665 0.62491
 O23 O -0.11660 0.39406 0.70614
 O24 O -0.09369 0.65423 0.70231
 O25 O -0.13366 0.38081 0.61813
 Cu26 Cu 0.16045 0.62704 0.68093
 Cu27 Cu -0.11224 0.51854 0.66050
 C28 C -0.02783 0.37874 0.61050
 C29 C 0.01957 0.73324 0.72972
 C30 C -0.01390 0.39385 0.72810
 C31 C 0.10977 0.78600 0.62151
 O32 O 0.66504 0.51592 0.36966
 O33 O 0.35741 0.25550 0.28462
 O34 O 0.63524 0.42579 0.28647
 O35 O 0.40009 0.29023 0.37067
 O36 O 0.36886 0.48239 0.36067
 O37 O 0.61019 0.62243 0.27695
 O38 O 0.33175 0.45083 0.27299
 O39 O 0.63157 0.70655 0.35971
 Cu40 Cu 0.51793 0.35370 0.32875
 Cu41 Cu 0.48103 0.58282 0.31615
 C42 C 0.69817 0.65409 0.37993
 C43 C 0.29445 0.31169 0.26350
 C44 C 0.66377 0.54640 0.26750
 C45 C 0.34860 0.36613 0.38122
 N46 N -0.17971 0.15121 0.55295
 N47 N -0.16022 0.07153 0.52373
 C48 C -0.01810 0.13666 0.52631
 C49 C 0.05471 0.26143 0.55904
 C50 C -0.05072 0.26674 0.57495
 H51 H 0.16932 0.33623 0.57002
 H52 H -0.28005 0.12484 0.55813
 H53 H -0.24332 -0.02692 0.50345
 N54 N 0.83316 0.53782 0.22417
 N55 N 0.91282 0.61790 0.19388
 C56 C 0.89116 0.73149 0.18418
 C57 C 0.79222 0.72137 0.20900
 C58 C 0.75975 0.59906 0.23416
 H59 H 0.75260 0.79598 0.20936
 H60 H 0.83076 0.44422 0.23798
 H61 H 0.98057 0.59461 0.18051
 N62 N 0.32125 0.24813 -0.08579
 N63 N 0.22170 0.25277 -0.11590
 C64 C 0.09651 0.10894 -0.12065
 C65 C 0.11535 0.01158 -0.09360
 C66 C 0.25700 0.10144 -0.07338
 H67 H 0.03892 -0.11288 -0.09180
 H68 H 0.42952 0.33957 -0.07779
 H69 H 0.24798 0.34784 -0.13416
 N70 N 0.27861 1.00196 0.57779
 N71 N 0.26743 1.08282 0.54615
 C72 C 0.13057 1.04147 0.53910
 C73 C 0.05318 0.93158 0.56772
 C74 C 0.14897 0.90792 0.59100
 H75 H -0.06102 0.86855 0.56881
 H76 H 0.37178 1.00642 0.58868
 H77 H 0.35013 1.15859 0.52871
 N78 N 0.17291 0.27218 0.18741
 N79 N 0.08697 0.15184 0.15752
 C80 C 0.03530 0.01677 0.17689
 C81 C 0.09658 0.05520 0.22093
 C82 C 0.18236 0.21676 0.22612
 H83 H 0.09240 -0.02341 0.24473
 H84 H 0.23440 0.38928 0.18037
 H85 H 0.07442 0.16277 0.12390
 N86 N 0.60423 -0.13209 -0.13651
 N87 N 0.70370 -0.10925 -0.15985
 C88 C 0.83474 -0.01430 -0.13556
 C89 C 0.81653 0.03057 -0.09519
 C90 C 0.66869 -0.04772 -0.09731
 H91 H 0.89886 0.11062 -0.06855
 H92 H 0.49400 -0.20161 -0.14783
 H93 H 0.68179 -0.15517 -0.19245
 N94 N 0.30140 -0.08945 0.13712
 N95 N 0.20451 -0.11221 0.16171
 C96 C 0.08459 -0.14613 0.13546
 C97 C 0.10647 -0.14791 0.09196
 C98 C 0.24502 -0.11020 0.09474
 H99 H 0.03622 -0.16319 0.06246
 H100 H 0.40464 -0.05867 0.14930
 H101 H 0.22290 -0.09822 0.19600
 N102 N 0.89111 0.70316 0.43764
 N103 N 0.98066 0.81007 0.47001
 C104 C 0.95947 0.92767 0.47139
 C105 C 0.85320 0.89431 0.43669
 C106 C 0.81233 0.75000 0.41669
 H107 H 0.81290 0.96528 0.42712
 H108 H 0.88598 0.60068 0.42989
 H109 H 1.05805 0.80270 0.48962
 N110 N -0.00814 0.39439 0.80781
 N111 N 0.00149 0.30698 0.84041
 C112 C -0.01410 0.17891 0.82078
 C113 C -0.03816 0.18108 0.77515
 C114 C -0.03348 0.31699 0.76872
 H115 H -0.05655 0.09645 0.74947
 H116 H 0.01512 0.50723 0.81339
 H117 H 0.01692 0.33716 0.87410
 N118 N 0.66680 -0.32298 0.06201
 N119 N 0.76670 -0.32110 0.08950
 C120 C 0.84498 -0.18326 0.11511
 C121 C 0.78999 -0.09479 0.10350
 C122 C 0.67881 -0.18670 0.06959
 H123 H 0.82317 0.01926 0.11781
 H124 H 0.59379 -0.41497 0.03811
 H125 H 0.78070 -0.41331 0.09081
 N126 N 0.22177 0.40683 0.43421
 N127 N 0.15211 0.33783 0.46712
 C128 C 0.15484 0.20929 0.47411
 C129 C 0.23119 0.19804 0.44359
 C130 C 0.26948 0.32429 0.41875
 H131 H 0.24735 0.10504 0.43822
 H132 H 0.23230 0.50642 0.42185
 H133 H 0.09709 0.37546 0.48233
 N134 N -0.09753 0.69071 0.79443
 N135 N -0.11866 0.77092 0.82243
 C136 C -0.03455 0.92503 0.81648
 C137 C 0.05049 0.94292 0.78448
 C138 C 0.00424 0.79066 0.77090
 H139 H 0.12830 1.05001 0.77128
 H140 H -0.15766 0.56807 0.79006
 H141 H -0.19040 0.71903 0.84507
   
