data_POSCAR
  _audit_creation_date              2014-09-24
  _audit_creation_method            'ToBaCCo'
  _symmetry_space_group_name_H-M    'P1'
  _symmetry_Int_Tables_number       1
  _symmetry_cell_setting            triclinic
  loop_
  _symmetry_equiv_pos_as_xyz
 x,y,z
_cell_length_a 30.2579
_cell_length_b 30.0732
_cell_length_c 48.2378
_cell_angle_alpha 87.849600
_cell_angle_beta 86.083600
_cell_angle_gamma 90.904900
loop_
  _atom_site_label
  _atom_site_type_symbol
  _atom_site_fract_x
  _atom_site_fract_y
  _atom_site_fract_z
O1 O -0.03359 0.54435 0.97489
 O2 O -0.03480 0.45561 1.02970
 O3 O -0.03506 0.54200 1.02889
 O4 O -0.03354 0.45745 0.97565
 O5 O 0.03952 0.45947 0.97281
 O6 O 0.03798 0.54303 1.02678
 O7 O 0.03820 0.45603 1.02655
 O8 O 0.03945 0.54601 0.97264
 Cu9 Cu -0.04156 0.49973 1.00249
 Cu10 Cu 0.04611 0.50138 0.99949
 C11 C 0.00316 0.56056 0.96448
 C12 C 0.00151 0.44018 1.03735
 C13 C 0.00115 0.55697 1.03700
 C14 C 0.00324 0.44381 0.96518
 O15 O 0.45248 0.02673 0.52587
 O16 O 0.54477 0.03183 0.47219
 O17 O 0.45855 0.02745 0.47200
 O18 O 0.53877 0.02986 0.52614
 O19 O 0.53922 -0.04356 0.52790
 O20 O 0.46187 -0.04582 0.47237
 O21 O 0.54771 -0.04137 0.47372
 O22 O 0.45342 -0.04661 0.52652
 Cu23 Cu 0.49847 0.03631 0.49895
 Cu24 Cu 0.50076 -0.05169 0.50023
 C25 C 0.43680 -0.01072 0.53521
 C26 C 0.56246 -0.00377 0.46386
 C27 C 0.44655 -0.00967 0.46292
 C28 C 0.55259 -0.00652 0.53633
 C29 C 0.11484 -0.00816 0.26345
 H30 H 0.12122 -0.01233 0.24136
 C31 C 0.15020 -0.00385 0.28037
 H32 H 0.18386 -0.00488 0.27125
 C33 C 0.06318 -0.00053 0.30210
 H34 H 0.02926 0.00158 0.31043
 C35 C 0.09753 0.00466 0.31968
 H36 H 0.08973 0.00976 0.34157
 N37 N 0.07234 -0.00733 0.27459
 C38 C -0.00030 -0.07024 0.21101
 H39 H -0.02576 -0.04573 0.20884
 C40 C 0.00070 -0.10735 0.19451
 H41 H -0.02384 -0.11084 0.17939
 C42 C 0.06302 -0.09469 0.23312
 H43 H 0.08672 -0.09010 0.24857
 C44 C 0.06527 -0.13239 0.21702
 H45 H 0.09090 -0.15641 0.22019
 Zn46 Zn 0.02589 -0.01227 0.25043
 N47 N 0.03093 -0.06422 0.22954
 C48 C 0.04172 0.03573 0.19883
 N49 N 0.02951 0.03903 0.22635
 C50 C 0.02148 0.07922 0.23752
 C51 C 0.02343 0.11798 0.22058
 C52 C 0.04504 0.07377 0.18125
 C53 C -0.03570 -0.05039 0.29045
 C54 C -0.07535 -0.05499 0.30695
 C55 C -0.10293 0.00914 0.28238
 C56 C -0.06266 0.01261 0.26642
 N57 N -0.02968 -0.01639 0.27111
 H58 H 0.04937 0.00369 0.19050
 H59 H 0.01300 0.08104 0.25960
 H60 H 0.01627 0.14971 0.22962
 H61 H 0.05447 0.07071 0.15935
 H62 H -0.00920 -0.07346 0.29341
 H63 H -0.07883 -0.08140 0.32287
 H64 H -0.12878 0.03251 0.27832
 H65 H -0.05802 0.03832 0.25021
 C66 C 0.03392 -0.13898 0.19731
 C67 C 0.14164 0.00270 0.30886
 C68 C -0.10950 -0.02468 0.30323
 C69 C 0.03530 0.11538 0.19209
 C70 C -0.06242 0.09474 0.77080
 H71 H -0.08583 0.09198 0.75503
 C72 C -0.06453 0.13111 0.78800
 H73 H -0.08968 0.15580 0.78524
 C74 C -0.00010 0.06748 0.79273
 H75 H 0.02559 0.04330 0.79424
 C76 C -0.00095 0.10333 0.81030
 H77 H 0.02348 0.10548 0.82560
 N78 N -0.03070 0.06354 0.77352
 C79 C 0.03636 -0.01807 0.71145
 H80 H 0.01380 -0.04641 0.71193
 C81 C 0.07541 -0.01760 0.69425
 H82 H 0.08237 -0.04560 0.68129
 C83 C 0.05353 0.05351 0.72712
 H84 H 0.04463 0.08133 0.73976
 C85 C 0.09305 0.05528 0.71035
 H86 H 0.11460 0.08431 0.71068
 Zn87 Zn -0.02805 0.01466 0.74935
 N88 N 0.02609 0.01725 0.72729
 C89 C -0.06697 0.02589 0.69788
 N90 N -0.07587 0.01818 0.72570
 C91 C -0.11837 0.01448 0.73692
 C92 C -0.15382 0.01707 0.71987
 C93 C -0.10143 0.02945 0.68015
 C94 C 0.00459 -0.05014 0.78579
 C95 C 0.00437 -0.08912 0.80244
 C96 C -0.06653 -0.10914 0.78600
 C97 C -0.06499 -0.06966 0.76972
 N98 N -0.03033 -0.04039 0.77044
 H99 H -0.03312 0.02970 0.68935
 H100 H -0.12471 0.00958 0.75917
 H101 H -0.18744 0.01383 0.72907
 H102 H -0.09378 0.03528 0.65804
 H103 H 0.03300 -0.02789 0.78496
 H104 H 0.03196 -0.09533 0.81512
 H105 H -0.09447 -0.13186 0.78514
 H106 H -0.09155 -0.06280 0.75648
 C107 C 0.10434 0.01952 0.69347
 C108 C -0.03349 0.13577 0.80806
 C109 C -0.03180 -0.11903 0.80297
 C110 C -0.14545 0.02469 0.69112
 C111 C -0.04160 -0.36130 0.08987
 C112 C -0.00222 -0.34132 0.09829
 C113 C 0.03866 -0.35626 0.08616
 C114 C 0.03962 -0.38973 0.06655
 C115 C 0.00025 -0.40878 0.05833
 C116 C -0.04022 -0.39430 0.07027
 C117 C 0.07845 -0.33753 0.09342
 C118 C 0.07884 -0.30357 0.11212
 C119 C 0.03915 -0.28693 0.12455
 C120 C -0.00203 -0.30674 0.11794
 C121 C -0.04164 -0.29124 0.13114
 C122 C -0.04134 -0.25683 0.14947
 C123 C -0.00174 -0.23624 0.15543
 C124 C 0.03918 -0.25101 0.14329
 C125 C 0.07831 -0.22862 0.15018
 C126 C 0.07651 -0.19297 0.16795
 C127 C 0.03588 -0.17829 0.17953
 C128 C -0.00307 -0.20053 0.17338
 H129 H -0.07417 -0.35196 0.09766
 H130 H 0.07120 -0.40055 0.05743
 H131 H -0.07122 -0.40835 0.06434
 H132 H 0.10980 -0.34899 0.08434
 H133 H 0.11111 -0.29111 0.11640
 H134 H -0.07380 -0.30503 0.12784
 H135 H -0.07268 -0.24591 0.15890
 H136 H 0.11086 -0.23719 0.14190
 H137 H 0.10712 -0.17609 0.17210
 H138 H -0.03468 -0.18996 0.18259
 C139 C -0.03958 0.35432 0.09099
 C140 C -0.00017 0.33267 0.09745
 C141 C 0.03996 0.34766 0.08297
 C142 C 0.04049 0.38407 0.06383
 C143 C 0.00108 0.40516 0.05754
 C144 C -0.03890 0.38959 0.07129
 C145 C 0.07937 0.32587 0.08733
 C146 C 0.07973 0.28845 0.10505
 C147 C 0.04065 0.27206 0.11989
 C148 C 0.00058 0.29599 0.11718
 C149 C -0.03716 0.28291 0.13458
 C150 C -0.03634 0.24667 0.15322
 C151 C 0.00156 0.22118 0.15470
 C152 C 0.04044 0.23294 0.13773
 C153 C 0.07710 0.20434 0.13883
 C154 C 0.07525 0.16630 0.15641
 C155 C 0.03725 0.15586 0.17370
 C156 C 0.00060 0.18354 0.17288
 H157 H -0.07174 0.34391 0.10013
 H158 H 0.07174 0.39504 0.05321
 H159 H -0.07008 0.40466 0.06688
 H160 H 0.11026 0.33738 0.07650
 H161 H 0.11157 0.27370 0.10728
 H162 H -0.06770 0.30087 0.13484
 H163 H -0.06603 0.23804 0.16630
 H164 H 0.10721 0.20967 0.12579
 H165 H 0.10377 0.14498 0.15661
 H166 H -0.02920 0.17497 0.18590
 C167 C 0.34651 -0.05450 0.58805
 C168 C 0.32369 -0.01536 0.59536
 C169 C 0.33935 0.02544 0.58228
 C170 C 0.37649 0.02670 0.56315
 C171 C 0.39855 -0.01236 0.55612
 C172 C 0.38316 -0.05288 0.56875
 C173 C 0.31775 0.06491 0.58813
 C174 C 0.28021 0.06495 0.60630
 C175 C 0.26281 0.02529 0.61971
 C176 C 0.28567 -0.01534 0.61480
 C177 C 0.26993 -0.05446 0.62962
 C178 C 0.23263 -0.05428 0.64804
 C179 C 0.20903 -0.01540 0.65222
 C180 C 0.22351 0.02494 0.63806
 C181 C 0.19753 0.06312 0.64259
 C182 C 0.15934 0.06118 0.66056
 C183 C 0.14552 0.02134 0.67473
 C184 C 0.17074 -0.01682 0.67047
 H185 H 0.33656 -0.08708 0.59644
 H186 H 0.38783 0.05828 0.55337
 H187 H 0.39942 -0.08363 0.56364
 H188 H 0.32980 0.09624 0.57834
 H189 H 0.26592 0.09702 0.60965
 H190 H 0.28607 -0.08595 0.62776
 H191 H 0.22188 -0.08516 0.65894
 H192 H 0.20512 0.09488 0.63218
 H193 H 0.14001 0.09098 0.66289
 H194 H 0.16069 -0.04781 0.68149
 C195 C -0.37843 -0.04369 0.59517
 C196 C -0.35082 -0.00600 0.59832
 C197 C -0.35581 0.03170 0.58031
 C198 C -0.38822 0.03183 0.56078
 C199 C -0.41506 -0.00587 0.55793
 C200 C -0.40972 -0.04357 0.57521
 C201 C -0.32803 0.06889 0.58155
 C202 C -0.29426 0.06910 0.59964
 C203 C -0.28761 0.03231 0.61785
 C204 C -0.31775 -0.00489 0.61814
 C205 C -0.31415 -0.03947 0.63845
 C206 C -0.28119 -0.03870 0.65708
 C207 C -0.24982 -0.00413 0.65586
 C208 C -0.25213 0.03167 0.63602
 C209 C -0.21810 0.06474 0.63479
 C210 C -0.18377 0.06239 0.65269
 C211 C -0.18238 0.02746 0.67258
 C212 C -0.21570 -0.00553 0.67419
 H213 H -0.37583 -0.07432 0.60721
 H214 H -0.39163 0.06093 0.54718
 H215 H -0.42986 -0.07326 0.57328
 H216 H -0.33193 0.09796 0.56801
 H217 H -0.27444 0.09920 0.59928
 H218 H -0.33708 -0.06732 0.64093
 H219 H -0.27983 -0.06594 0.67236
 H220 H -0.21628 0.09221 0.61975
 H221 H -0.15819 0.08815 0.65105
 H222 H -0.21428 -0.03309 0.68924
 C223 C 0.04483 -0.35263 0.90953
 C224 C 0.00538 -0.33172 0.90224
 C225 C -0.03507 -0.34748 0.91602
 C226 C -0.03565 -0.38294 0.93587
 C227 C 0.00375 -0.40305 0.94287
 C228 C 0.04387 -0.38753 0.92949
 C229 C -0.07482 -0.32758 0.91017
 C230 C -0.07548 -0.29156 0.89137
 C231 C -0.03616 -0.27408 0.87731
 C232 C 0.00478 -0.29536 0.88220
 C233 C 0.04367 -0.27969 0.86682
 C234 C 0.04304 -0.24366 0.84804
 C235 C 0.00386 -0.22137 0.84394
 C236 C -0.03637 -0.23611 0.85845
 C237 C -0.07496 -0.21160 0.85378
 C238 C -0.07338 -0.17425 0.83562
 C239 C -0.03350 -0.15991 0.82139
 C240 C 0.00493 -0.18402 0.82551
 H241 H 0.07716 -0.34243 0.90064
 H242 H -0.06693 -0.39443 0.94620
 H243 H 0.07489 -0.40231 0.93453
 H244 H -0.10589 -0.33971 0.92048
 H245 H -0.10768 -0.27842 0.88814
 H246 H 0.07540 -0.29484 0.86856
 H247 H 0.07381 -0.23279 0.83680
 H248 H -0.10680 -0.21964 0.86425
 H249 H -0.10346 -0.15586 0.83326
 H250 H 0.03592 -0.17367 0.81435
 C251 C 0.04519 0.36009 0.91333
 C252 C 0.00562 0.33949 0.90566
 C253 C -0.03505 0.35504 0.91771
 C254 C -0.03564 0.38942 0.93667
 C255 C 0.00389 0.40894 0.94427
 C256 C 0.04418 0.39407 0.93229
 C257 C -0.07504 0.33601 0.91103
 C258 C -0.07584 0.30128 0.89292
 C259 C -0.03639 0.28402 0.88058
 C260 C 0.00502 0.30383 0.88677
 C261 C 0.04443 0.28720 0.87396
 C262 C 0.04368 0.25208 0.85617
 C263 C 0.00381 0.23188 0.85036
 C264 C -0.03690 0.24751 0.86231
 C265 C -0.07634 0.22552 0.85557
 C266 C -0.07509 0.18970 0.83795
 C267 C -0.03471 0.17438 0.82640
 C268 C 0.00460 0.19588 0.83263
 H269 H 0.07763 0.35061 0.90538
 H270 H -0.06709 0.40058 0.94579
 H271 H 0.07529 0.40851 0.93773
 H272 H -0.10623 0.34791 0.92009
 H273 H -0.10825 0.28870 0.88907
 H274 H 0.07678 0.30058 0.87720
 H275 H 0.07487 0.24040 0.84696
 H276 H -0.10877 0.23473 0.86372
 H277 H -0.10595 0.17339 0.83373
 H278 H 0.03603 0.18476 0.82346
 C279 C -0.34743 0.04288 0.41433
 C280 C -0.32598 0.00421 0.40488
 C281 C -0.34397 -0.03759 0.41500
 C282 C -0.38101 -0.04011 0.43429
 C283 C -0.40131 -0.00137 0.44392
 C284 C -0.38421 0.04003 0.43343
 C285 C -0.32480 -0.07681 0.40600
 C286 C -0.28790 -0.07573 0.38724
 C287 C -0.26818 -0.03508 0.37677
 C288 C -0.28738 0.00559 0.38588
 C289 C -0.26694 0.04625 0.37605
 C290 C -0.22913 0.04735 0.35808
 C291 C -0.21016 0.00817 0.34892
 C292 C -0.22950 -0.03367 0.35782
 C293 C -0.20899 -0.07228 0.34741
 C294 C -0.17061 -0.06923 0.32958
 C295 C -0.15126 -0.02779 0.32137
 C296 C -0.17154 0.01079 0.33102
 H297 H -0.33686 0.07603 0.40742
 H298 H -0.39380 -0.07252 0.44190
 H299 H -0.39907 0.07074 0.44010
 H300 H -0.33845 -0.10887 0.41363
 H301 H -0.27526 -0.10767 0.38166
 H302 H -0.27892 0.07819 0.38213
 H303 H -0.21447 0.07942 0.35133
 H304 H -0.22170 -0.10543 0.35248
 H305 H -0.15618 -0.09959 0.32201
 H306 H -0.15665 0.04308 0.32508
 C307 C 0.37841 -0.05061 0.40579
 C308 C 0.34916 -0.01505 0.40156
 C309 C 0.35288 0.02254 0.41821
 C310 C 0.38554 0.02467 0.43750
 C311 C 0.41399 -0.01096 0.44145
 C312 C 0.40999 -0.04857 0.42551
 C313 C 0.32359 0.05758 0.41588
 C314 C 0.28959 0.05566 0.39803
 C315 C 0.28413 0.01886 0.38116
 C316 C 0.31573 -0.01602 0.38197
 C317 C 0.31314 -0.05039 0.36296
 C318 C 0.27987 -0.05168 0.34455
 C319 C 0.24723 -0.01950 0.34473
 C320 C 0.24846 0.01599 0.36325
 C321 C 0.21324 0.04650 0.36348
 C322 C 0.17885 0.04208 0.34585
 C323 C 0.17852 0.00755 0.32723
 C324 C 0.21297 -0.02298 0.32665
 H325 H 0.37694 -0.08108 0.39481
 H326 H 0.38792 0.05365 0.45007
 H327 H 0.43139 -0.07670 0.42831
 H328 H 0.32650 0.08657 0.42838
 H329 H 0.26857 0.08421 0.39747
 H330 H 0.33706 -0.07647 0.36132
 H331 H 0.27933 -0.07866 0.33027
 H332 H 0.21059 0.07349 0.37753
 H333 H 0.15240 0.06597 0.34668
 H334 H 0.21241 -0.05027 0.31259
   
