data_POSCAR
  _audit_creation_date              2014-09-24
  _audit_creation_method            'ToBaCCo'
  _symmetry_space_group_name_H-M    'P1'
  _symmetry_Int_Tables_number       1
  _symmetry_cell_setting            triclinic
  loop_
  _symmetry_equiv_pos_as_xyz
 x,y,z
_cell_length_a 42.4225
_cell_length_b 42.1568
_cell_length_c 42.0369
_cell_angle_alpha 90.306500
_cell_angle_beta 89.447600
_cell_angle_gamma 90.178600
loop_
  _atom_site_label
  _atom_site_type_symbol
  _atom_site_fract_x
  _atom_site_fract_y
  _atom_site_fract_z
C1 C 0.18051 1.22511 0.21565
 C2 C 0.16764 1.25262 0.20234
 C3 C 0.17957 1.26532 0.17353
 C4 C 0.20537 1.24974 0.15876
 C5 C 0.21833 1.22221 0.17177
 C6 C 0.20586 1.20981 0.20029
 C7 C 0.16775 1.21231 0.24374
 C8 C 0.17965 1.18395 0.25687
 C9 C 0.20550 1.16927 0.24122
 C10 C 0.21842 1.18181 0.21313
 C11 C 0.24327 1.16628 0.19725
 C12 C 0.25540 1.17813 0.16843
 C13 C 0.24302 1.20634 0.15607
 H14 H 0.14880 1.26443 0.21521
 H15 H 0.21451 1.25769 0.13604
 H16 H 0.14727 1.22377 0.25407
 H17 H 0.21638 1.14837 0.25105
 H18 H 0.25240 1.14431 0.20672
 H19 H 0.25251 1.21585 0.13405
 C20 C 0.82359 0.79050 0.22003
 C21 C 0.83778 0.76326 0.20704
 C22 C 0.82458 0.74713 0.18068
 C23 C 0.79623 0.75910 0.16801
 C24 C 0.78193 0.78640 0.18067
 C25 C 0.79569 0.80218 0.20673
 C26 C 0.83757 0.80674 0.24556
 C27 C 0.82412 0.83479 0.25833
 C28 C 0.79574 0.84574 0.24487
 C29 C 0.78174 0.82990 0.21920
 C30 C 0.75418 0.84173 0.20552
 C31 C 0.74049 0.82642 0.17926
 C32 C 0.75431 0.79851 0.16722
 H33 H 0.86008 0.75584 0.21676
 H34 H 0.78446 0.74690 0.14877
 H35 H 0.85986 0.79804 0.25418
 H36 H 0.78371 0.86622 0.25468
 H37 H 0.74345 0.86306 0.21518
 H38 H 0.74415 0.78679 0.14670
 C39 C 0.82684 1.21182 -0.20865
 C40 C 0.83986 1.23910 -0.19465
 C41 C 0.82580 1.25296 -0.16755
 C42 C 0.79814 1.23949 -0.15473
 C43 C 0.78489 1.21218 -0.16840
 C44 C 0.79932 1.19827 -0.19545
 C45 C 0.84113 1.19780 -0.23547
 C46 C 0.82855 1.17001 -0.24957
 C47 C 0.80091 1.15680 -0.23583
 C48 C 0.78642 1.17061 -0.20906
 C49 C 0.75950 1.15672 -0.19530
 C50 C 0.74516 1.17022 -0.16818
 C51 C 0.75785 1.19815 -0.15504
 H52 H 0.86101 1.24958 -0.20482
 H53 H 0.78742 1.24977 -0.13357
 H54 H 0.86153 1.20947 -0.24576
 H55 H 0.79119 1.13478 -0.24480
 H56 H 0.74959 1.13540 -0.20577
 H57 H 0.74716 1.20848 -0.13388
 C58 C 0.17551 0.77994 -0.22341
 C59 C 0.16060 0.75362 -0.20948
 C60 C 0.17234 0.73967 -0.18142
 C61 C 0.20016 0.75264 -0.16824
 C62 C 0.21520 0.77901 -0.18189
 C63 C 0.20281 0.79277 -0.20952
 C64 C 0.16297 0.79411 -0.25063
 C65 C 0.17709 0.82129 -0.26396
 C66 C 0.20451 0.83378 -0.24999
 C67 C 0.21750 0.81968 -0.22300
 C68 C 0.24450 0.83254 -0.20880
 C69 C 0.25695 0.81899 -0.18116
 C70 C 0.24226 0.79209 -0.16799
 H71 H 0.13880 0.74539 -0.21984
 H72 H 0.21094 0.74194 -0.14772
 H73 H 0.14213 0.78395 -0.26142
 H74 H 0.21533 0.85504 -0.25960
 H75 H 0.25537 0.85359 -0.21880
 H76 H 0.25187 0.78142 -0.14679
 C77 C 0.52428 1.04915 -0.02334
 H78 H 0.50749 1.06073 -0.00773
 C79 C 0.54622 1.06741 -0.04023
 H80 H 0.54597 1.09294 -0.03740
 C81 C 0.54639 1.00181 -0.04428
 H82 H 0.54648 0.97617 -0.04535
 C83 C 0.56865 1.01913 -0.06167
 H84 H 0.58547 1.00656 -0.07656
 N85 N 0.52471 1.01696 -0.02572
 C86 C 0.46674 1.01629 0.05489
 H87 H 0.48236 1.00124 0.06817
 C88 C 0.44381 1.03411 0.07100
 H89 H 0.44207 1.03261 0.09665
 C90 C 0.44872 1.03507 0.00526
 H91 H 0.45062 1.03497 -0.02043
 C92 C 0.42556 1.05325 0.02034
 H93 H 0.41006 1.06756 0.00604
 Zn94 Zn 0.49722 0.99153 -0.00090
 N95 N 0.46877 1.01715 0.02258
 C96 C 0.54206 0.98352 0.04636
 N97 N 0.52283 0.96730 0.02630
 C98 C 0.52389 0.93512 0.02412
 C99 C 0.54500 0.91797 0.04262
 C100 C 0.56343 0.96734 0.06534
 C101 C 0.47329 0.96700 -0.05925
 C102 C 0.45246 0.94911 -0.07771
 C103 C 0.43019 0.92727 -0.02943
 C104 C 0.45130 0.94564 -0.01194
 N105 N 0.47229 0.96497 -0.02697
 H106 H 0.54105 1.00915 0.04725
 H107 H 0.50908 0.92272 0.00737
 H108 H 0.54610 0.89245 0.03990
 H109 H 0.57840 0.98074 0.08124
 H110 H 0.48951 0.98319 -0.07073
 H111 H 0.45299 0.95176 -0.10331
 H112 H 0.41382 0.91191 -0.01692
 H113 H 0.45070 0.94488 0.01378
 C114 C 0.42266 1.05273 0.05365
 C115 C 0.56894 1.05241 -0.05960
 C116 C 0.43030 0.92913 -0.06279
 C117 C 0.56536 0.93412 0.06337
 C118 C -0.02652 0.52754 1.06229
 H119 H -0.01141 0.51037 1.07343
 C120 C -0.04384 0.54863 1.08125
 H121 H -0.04232 0.54693 1.10687
 C122 C -0.04650 0.55087 1.01550
 H123 H -0.04691 0.55188 0.98979
 C124 C -0.06407 0.57252 1.03352
 H125 H -0.07778 0.59028 1.02139
 N126 N -0.02813 0.52904 1.03004
 C127 C 0.05628 0.48117 1.02715
 H128 H 0.06670 0.49927 1.01229
 C129 C 0.07577 0.46097 1.04431
 H130 H 0.10106 0.46421 1.04289
 C131 C 0.01079 0.45465 1.04671
 H132 H -0.01459 0.45208 1.04704
 C133 C 0.02938 0.43389 1.06415
 H134 H 0.01803 0.41521 1.07768
 Zn135 Zn -0.00259 0.50289 1.00378
 N136 N 0.02441 0.47771 1.02870
 C137 C 0.03802 0.55361 0.99086
 N138 N 0.02114 0.53000 0.97684
 C139 C 0.02013 0.52698 0.94463
 C140 C 0.03698 0.54793 0.92522
 C141 C 0.05509 0.57517 0.97235
 C142 C -0.05960 0.47486 0.98174
 C143 C -0.07739 0.45258 0.96486
 C144 C -0.02900 0.43036 0.94390
 C145 C -0.01217 0.45292 0.96126
 N146 N -0.02759 0.47469 0.97955
 H147 H 0.03792 0.55584 1.01651
 H148 H 0.00609 0.50850 0.93386
 H149 H 0.03621 0.54480 0.89966
 H150 H 0.06786 0.59413 0.98404
 H151 H -0.07138 0.49187 0.99700
 H152 H -0.10280 0.45269 0.96742
 H153 H -0.01619 0.41356 0.92916
 H154 H 0.01332 0.45306 0.96032
 C155 C 0.06237 0.43676 1.06296
 C156 C -0.06271 0.57177 1.06690
 C157 C -0.06208 0.42982 0.94570
 C158 C 0.05473 0.57252 0.93902
 C159 C 1.06281 -0.02390 0.51948
 H160 H 1.07435 -0.01059 0.50082
 C161 C 1.08078 -0.04292 0.53944
 H162 H 1.10595 -0.04448 0.53534
 C163 C 1.01611 -0.03799 0.54740
 H164 H 0.99089 -0.03552 0.55057
 C165 C 1.03319 -0.05695 0.56815
 H166 H 1.02081 -0.06868 0.58742
 N167 N 1.03107 -0.02181 0.52378
 C168 C 1.03385 0.06397 0.47829
 H169 H 1.02094 0.07474 0.49778
 C170 C 1.05168 0.08307 0.45782
 H171 H 1.05273 0.10838 0.46221
 C172 C 1.04792 0.01807 0.44872
 H173 H 1.04584 -0.00727 0.44507
 C174 C 1.06587 0.03626 0.42760
 H175 H 1.07733 0.02466 0.40761
 Zn176 Zn 1.00639 0.00579 0.49901
 N177 N 1.03237 0.03208 0.47345
 C178 C 0.99633 0.04582 0.55162
 N179 N 0.98155 0.03038 0.52749
 C180 C 0.94961 0.03067 0.52504
 C181 C 0.93124 0.04698 0.54743
 C182 C 0.97886 0.06234 0.57462
 C183 C 0.96405 -0.00090 0.44917
 C184 C 0.94494 -0.01655 0.42727
 C185 C 0.95960 -0.06644 0.45090
 C186 C 0.97849 -0.04979 0.47239
 N187 N 0.98018 -0.01759 0.47125
 H188 H 1.02174 0.04470 0.55334
 H189 H 0.93820 0.01784 0.50605
 H190 H 0.90587 0.04703 0.54491
 H191 H 0.99106 0.07376 0.59409
 H192 H 0.96625 0.02466 0.44849
 H193 H 0.93269 -0.00280 0.40959
 H194 H 0.95822 -0.09203 0.45241
 H195 H 0.99183 -0.06262 0.48987
 C196 C 1.06782 0.06929 0.43189
 C197 C 1.06607 -0.05951 0.56447
 C198 C 0.94248 -0.04978 0.42794
 C199 C 0.94580 0.06285 0.57285
 C200 C 0.13604 0.34315 1.12823
 C201 C 0.16812 0.33720 1.12276
 C202 C 0.18263 0.31195 1.13807
 C203 C 0.16550 0.29229 1.15920
 C204 C 0.13355 0.30014 1.16481
 N205 N 0.11997 0.32471 1.14932
 C206 C 0.11886 0.36855 1.11150
 N207 N 0.09165 0.37989 1.12462
 C208 C 0.07370 0.40204 1.11002
 C209 C 0.08263 0.41388 1.08007
 C210 C 0.11066 0.40258 1.06615
 C211 C 0.12878 0.37998 1.08169
 H212 H 0.20760 0.30873 1.13388
 H213 H 0.11857 0.28592 1.18002
 H214 H 0.05247 0.41030 1.12183
 H215 H 0.11811 0.41044 1.04277
 H216 H 0.18216 0.35205 1.10719
 H217 H 0.14963 0.37089 1.06983
 C218 C -0.12832 0.66877 1.13826
 C219 C -0.12368 0.67565 1.17053
 C220 C -0.13945 0.70116 1.18464
 C221 C -0.16019 0.72019 1.16691
 C222 C -0.16471 0.71157 1.13471
 N223 N -0.14887 0.68671 1.12157
 C224 C -0.11143 0.64274 1.12162
 N225 N -0.12424 0.62999 1.09486
 C226 C -0.10956 0.60700 1.07748
 C227 C -0.07985 0.59572 1.08653
 C228 C -0.06622 0.60856 1.11408
 C229 C -0.08186 0.63198 1.13164
 H230 H -0.13600 0.70498 1.20981
 H231 H -0.17944 0.72533 1.11921
 H232 H -0.12115 0.59760 1.05664
 H233 H -0.04303 0.60121 1.12158
 H234 H -0.10848 0.66125 1.18502
 H235 H -0.07030 0.64218 1.15212
 C236 C -0.13066 0.33224 0.87878
 C237 C -0.16349 0.33203 0.87458
 C238 C -0.17773 0.30632 0.85924
 C239 C -0.15941 0.28088 0.84801
 C240 C -0.12672 0.28206 0.85263
 N241 N -0.11343 0.30719 0.86784
 C242 C -0.11416 0.35815 0.89580
 N243 N -0.08586 0.35179 0.90932
 C244 C -0.06901 0.37411 0.92526
 C245 C -0.08038 0.40525 0.92825
 C246 C -0.10943 0.41244 0.91429
 C247 C -0.12634 0.38905 0.89804
 H248 H -0.20304 0.30634 0.85611
 H249 H -0.11179 0.26270 0.84481
 H250 H -0.04696 0.36731 0.93596
 H251 H -0.11882 0.43628 0.91542
 H252 H -0.17821 0.35100 0.88362
 H253 H -0.14828 0.39541 0.88688
 C254 C 0.12254 0.66510 0.86436
 C255 C 0.11929 0.66937 0.83152
 C256 C 0.13595 0.69362 0.81632
 C257 C 0.15617 0.71398 0.83353
 C258 C 0.15916 0.70806 0.86644
 N259 N 0.14253 0.68435 0.88061
 C260 C 0.10493 0.64036 0.88205
 N261 N 0.11674 0.62977 0.91003
 C262 C 0.10147 0.60795 0.92827
 C263 C 0.07219 0.59564 0.91881
 C264 C 0.05953 0.60631 0.89004
 C265 C 0.07576 0.62860 0.87165
 H266 H 0.13360 0.69539 0.79081
 H267 H 0.17333 0.72304 0.88158
 H268 H 0.11234 0.60018 0.95005
 H269 H 0.03670 0.59809 0.88213
 H270 H 0.10455 0.65384 0.81745
 H271 H 0.06500 0.63712 0.85011
 C272 C 1.13454 0.14143 0.33646
 C273 C 1.13260 0.17432 0.33232
 C274 C 1.14785 0.18846 0.30645
 C275 C 1.16535 0.17011 0.28433
 C276 C 1.16737 0.13720 0.29029
 N277 N 1.15210 0.12408 0.31556
 C278 C 1.11781 0.12475 0.36256
 N279 N 1.12859 0.09591 0.37190
 C280 C 1.11360 0.07828 0.39443
 C281 C 1.08560 0.08923 0.40875
 C282 C 1.07416 0.11902 0.39962
 C283 C 1.09012 0.13681 0.37661
 H284 H 1.14655 0.21399 0.30468
 H285 H 1.17951 0.12128 0.27415
 H286 H 1.12356 0.05567 0.40099
 H287 H 1.05230 0.12815 0.40945
 H288 H 1.11987 0.18920 0.34906
 H289 H 1.08013 0.15912 0.36920
 C290 C 1.13467 -0.13033 0.65794
 C291 C 1.16765 -0.13220 0.65956
 C292 C 1.18151 -0.14843 0.68465
 C293 C 1.16267 -0.16272 0.70826
 C294 C 1.12975 -0.16079 0.70532
 N295 N 1.11682 -0.14494 0.68062
 C296 C 1.11867 -0.11265 0.63251
 N297 N 1.08934 -0.12197 0.62346
 C298 C 1.07255 -0.10599 0.60135
 C299 C 1.08492 -0.07838 0.58729
 C300 C 1.11522 -0.06842 0.59632
 C301 C 1.13215 -0.08549 0.61875
 H302 H 1.20696 -0.14994 0.68544
 H303 H 1.11423 -0.17110 0.72304
 H304 H 1.04955 -0.11492 0.59486
 H305 H 1.12550 -0.04689 0.58683
 H306 H 1.18261 -0.12159 0.64150
 H307 H 1.15501 -0.07679 0.62603
 C308 C 0.86936 -0.11458 0.33259
 C309 C 0.84896 -0.09863 0.31217
 C310 C 0.83391 -0.11530 0.28793
 C311 C 0.83895 -0.14815 0.28348
 C312 C 0.85982 -0.16304 0.30472
 N313 N 0.87420 -0.14615 0.32813
 C314 C 0.88683 -0.09779 0.35799
 N315 N 0.91463 -0.11006 0.36809
 C316 C 0.93244 -0.09557 0.39066
 C317 C 0.92257 -0.06680 0.40445
 C318 C 0.89359 -0.05415 0.39494
 C319 C 0.87567 -0.06954 0.37186
 H320 H 0.81965 -0.10169 0.27182
 H321 H 0.86414 -0.18826 0.30370
 H322 H 0.95466 -0.10613 0.39715
 H323 H 0.88466 -0.03246 0.40552
 H324 H 0.84538 -0.07329 0.31401
 H325 H 0.85321 -0.05952 0.36536
 C326 C 0.87381 0.12483 0.67213
 C327 C 0.84128 0.12092 0.67679
 C328 C 0.82632 0.13601 0.70234
 C329 C 0.84343 0.15539 0.72362
 C330 C 0.87599 0.15928 0.71724
 N331 N 0.88998 0.14409 0.69227
 C332 C 0.89114 0.10867 0.64596
 N333 N 0.91892 0.12125 0.63545
 C334 C 0.93655 0.10735 0.61208
 C335 C 0.92654 0.07883 0.59791
 C336 C 0.89807 0.06535 0.60859
 C337 C 0.88038 0.08009 0.63252
 H338 H 0.80104 0.13321 0.70441
 H339 H 0.89096 0.17301 0.73279
 H340 H 0.95822 0.11873 0.60448
 H341 H 0.88982 0.04296 0.59899
 H342 H 0.82724 0.10688 0.66060
 H343 H 0.85904 0.06863 0.64089
 C344 C 0.32520 1.12506 0.11687
 C345 C 0.30031 1.13930 0.10047
 C346 C 0.27776 1.15674 0.11728
 C347 C 0.27990 1.16030 0.15039
 C348 C 0.30541 1.14613 0.16586
 N349 N 0.32716 1.12922 0.14895
 C350 C 0.34959 1.10604 0.10014
 N351 N 0.37872 1.10340 0.11319
 C352 C 0.40228 1.08646 0.09902
 C353 C 0.39715 1.07086 0.06991
 C354 C 0.36709 1.07277 0.05642
 C355 C 0.34332 1.09019 0.07141
 H356 H 0.25837 1.16707 0.10441
 H357 H 0.30818 1.14867 0.19132
 H358 H 0.42511 1.08570 0.11025
 H359 H 0.36176 1.06037 0.03449
 H360 H 0.29833 1.13741 0.07490
 H361 H 0.32020 1.09064 0.06081
 C362 C 0.66626 1.12409 -0.12382
 C363 C 0.66604 1.15723 -0.12734
 C364 C 0.69168 1.17233 -0.14193
 C365 C 0.71748 1.15458 -0.15307
 C366 C 0.71678 1.12156 -0.14903
 N367 N 0.69169 1.10742 -0.13457
 C368 C 0.64036 1.10665 -0.10771
 N369 N 0.64675 1.07788 -0.09477
 C370 C 0.62446 1.06023 -0.07957
 C371 C 0.59336 1.07129 -0.07673
 C372 C 0.58612 1.10076 -0.09022
 C373 C 0.60946 1.11846 -0.10574
 H374 H 0.69129 1.19786 -0.14463
 H375 H 0.73642 1.10703 -0.15678
 H376 H 0.63128 1.03786 -0.06924
 H377 H 0.56232 1.10993 -0.08920
 H378 H 0.64676 1.17153 -0.11839
 H379 H 0.60309 1.14074 -0.11651
 C380 C 0.33533 0.86288 -0.13474
 C381 C 0.33589 0.85930 -0.16801
 C382 C 0.31049 0.84471 -0.18319
 C383 C 0.28459 0.83364 -0.16539
 C384 C 0.28503 0.83757 -0.13223
 N385 N 0.30988 0.85206 -0.11803
 C386 C 0.36075 0.87936 -0.11722
 N387 N 0.35378 0.89221 -0.08824
 C388 C 0.37549 0.90789 -0.07054
 C389 C 0.40660 0.91137 -0.08175
 C390 C 0.41446 0.89800 -0.11145
 C391 C 0.39169 0.88195 -0.12920
 H392 H 0.31108 0.84209 -0.20883
 H393 H 0.26532 0.82985 -0.11765
 H394 H 0.36819 0.91814 -0.04801
 H395 H 0.43829 0.89956 -0.12076
 H396 H 0.35520 0.86829 -0.18235
 H397 H 0.39852 0.87131 -0.15168
 C398 C 0.66145 0.86786 0.13254
 C399 C 0.66212 0.83488 0.13730
 C400 C 0.68772 0.82131 0.15280
 C401 C 0.71262 0.84041 0.16357
 C402 C 0.71100 0.87322 0.15835
 N403 N 0.68597 0.88584 0.14307
 C404 C 0.63575 0.88383 0.11524
 N405 N 0.64168 0.91282 0.10237
 C406 C 0.61967 0.92924 0.08605
 C407 C 0.58932 0.91659 0.08186
 C408 C 0.58251 0.88685 0.09519
 C409 C 0.60556 0.87044 0.11194
 H410 H 0.68804 0.79589 0.15638
 H411 H 0.72993 0.88877 0.16574
 H412 H 0.62616 0.95188 0.07588
 H413 H 0.55925 0.87646 0.09305
 H414 H 0.64362 0.81952 0.12862
 H415 H 0.59946 0.84791 0.12253
   
