data_POSCAR
  _audit_creation_date              2014-09-24
  _audit_creation_method            'ToBaCCo'
  _symmetry_space_group_name_H-M    'P1'
  _symmetry_Int_Tables_number       1
  _symmetry_cell_setting            triclinic
  loop_
  _symmetry_equiv_pos_as_xyz
 x,y,z
_cell_length_a 52.6559
_cell_length_b 52.4704
_cell_length_c 52.6436
_cell_angle_alpha 89.934200
_cell_angle_beta 90.002100
_cell_angle_gamma 90.084300
loop_
  _atom_site_label
  _atom_site_type_symbol
  _atom_site_fract_x
  _atom_site_fract_y
  _atom_site_fract_z
N1 N 0.59510 0.66539 0.61450
 N2 N 0.58514 0.65497 0.63494
 C3 C 0.56455 0.66850 0.64194
 C4 C 0.56155 0.68838 0.62497
 C5 C 0.58123 0.68586 0.60781
 H6 H 0.55260 0.66428 0.65812
 H7 H 0.58517 0.69806 0.59171
 Cu8 Cu 0.60027 0.62487 0.65036
 Cu9 Cu 0.62528 0.65173 0.59806
 Cu10 Cu 0.65216 0.59777 0.62501
 N11 N 0.61530 0.59442 0.66519
 N12 N 0.63565 0.58398 0.65517
 C13 C 0.64226 0.56342 0.66898
 C14 C 0.62512 0.56086 0.68871
 C15 C 0.60823 0.58082 0.68576
 H16 H 0.65836 0.55128 0.66501
 H17 H 0.59208 0.58507 0.69771
 N18 N 0.66606 0.61453 0.59448
 N19 N 0.65583 0.63508 0.58422
 C20 C 0.66954 0.64188 0.56368
 C21 C 0.68928 0.62482 0.56094
 C22 C 0.68654 0.60775 0.58073
 H23 H 0.66551 0.65801 0.55154
 H24 H 0.69861 0.59158 0.58472
 H25 H 0.62007 0.61450 0.60982
 H26 H 0.64071 0.63505 0.63010
 N27 N 0.90515 0.33360 0.11479
 N28 N 0.91493 0.34382 0.13540
 C29 C 0.93550 0.33030 0.14245
 C30 C 0.93868 0.31059 0.12531
 C31 C 0.91910 0.31324 0.10802
 H32 H 0.94734 0.33443 0.15873
 H33 H 0.91532 0.30129 0.09172
 Cu34 Cu 0.89985 0.37406 0.15049
 Cu35 Cu 0.87510 0.34741 0.09814
 Cu36 Cu 0.84820 0.40138 0.12507
 N37 N 0.88478 0.40431 0.16558
 N38 N 0.86460 0.41495 0.15538
 C39 C 0.85812 0.43558 0.16909
 C40 C 0.87515 0.43799 0.18889
 C41 C 0.89184 0.41787 0.18614
 H42 H 0.84224 0.44795 0.16495
 H43 H 0.90789 0.41356 0.19821
 N44 N 0.83443 0.38476 0.09443
 N45 N 0.84466 0.36422 0.08418
 C46 C 0.83097 0.35747 0.06364
 C47 C 0.81124 0.37455 0.06088
 C48 C 0.81397 0.39158 0.08066
 H49 H 0.83495 0.34132 0.05155
 H50 H 0.80186 0.40771 0.08467
 H51 H 0.88025 0.38461 0.10988
 H52 H 0.85953 0.36403 0.13006
 N53 N 0.40491 0.16577 -0.11440
 N54 N 0.41490 0.15532 -0.13477
 C55 C 0.43552 0.16886 -0.14178
 C56 C 0.43850 0.18878 -0.12488
 C57 C 0.41878 0.18627 -0.10776
 H58 H 0.44750 0.16464 -0.15791
 H59 H 0.41486 0.19846 -0.09169
 Cu60 Cu 0.39990 0.12507 -0.14999
 Cu61 Cu 0.37469 0.15207 -0.09796
 Cu62 Cu 0.34770 0.09811 -0.12485
 N63 N 0.38462 0.09482 -0.16494
 N64 N 0.36419 0.08438 -0.15498
 C65 C 0.35755 0.06388 -0.16882
 C66 C 0.37473 0.06134 -0.18847
 C67 C 0.39167 0.08126 -0.18549
 H68 H 0.34143 0.05169 -0.16490
 H69 H 0.40786 0.08547 -0.19743
 N70 N 0.33384 0.11484 -0.09437
 N71 N 0.34411 0.13539 -0.08414
 C72 C 0.33038 0.14222 -0.06367
 C73 C 0.31057 0.12517 -0.06094
 C74 C 0.31329 0.10808 -0.08066
 H75 H 0.33440 0.15838 -0.05159
 H76 H 0.30115 0.09194 -0.08466
 H77 H 0.37977 0.11479 -0.10952
 H78 H 0.35939 0.13535 -0.13004
 N79 N 0.09471 0.83393 0.38548
 N80 N 0.08468 0.84441 0.36513
 C81 C 0.06411 0.83084 0.35808
 C82 C 0.06117 0.81082 0.37496
 C83 C 0.08091 0.81335 0.39210
 H84 H 0.05212 0.83516 0.34196
 H85 H 0.08487 0.80117 0.40820
 Cu86 Cu 0.09953 0.87483 0.34999
 Cu87 Cu 0.12482 0.84776 0.40203
 Cu88 Cu 0.15142 0.90209 0.37539
 N89 N 0.11466 0.90525 0.33513
 N90 N 0.13494 0.91582 0.34523
 C91 C 0.14152 0.93641 0.33145
 C92 C 0.12447 0.93885 0.31167
 C93 C 0.10765 0.91880 0.31453
 H94 H 0.15752 0.94870 0.33546
 H95 H 0.09159 0.91449 0.30247
 N96 N 0.16534 0.88533 0.40587
 N97 N 0.15526 0.86461 0.41598
 C98 C 0.16907 0.85778 0.43643
 C99 C 0.18871 0.87501 0.43926
 C100 C 0.18581 0.89221 0.41962
 H101 H 0.16520 0.84149 0.44843
 H102 H 0.19780 0.90849 0.41569
 H103 H 0.11944 0.88503 0.39057
 H104 H 0.14007 0.86478 0.37005
 C105 C 0.10537 0.14456 0.12512
 C106 C 0.12433 0.14438 0.10631
 C107 C 0.14328 0.12554 0.10615
 C108 C 0.14307 0.10669 0.12514
 C109 C 0.12428 0.10647 0.14409
 C110 C 0.10553 0.12551 0.14390
 H111 H 0.12433 0.15896 0.09175
 H112 H 0.15761 0.09212 0.12517
 H113 H 0.09100 0.12550 0.15845
 C114 C 0.39427 0.85592 0.62515
 C115 C 0.37533 0.85612 0.60632
 C116 C 0.35639 0.87497 0.60609
 C117 C 0.35658 0.89381 0.62506
 C118 C 0.37535 0.89401 0.64404
 C119 C 0.39410 0.87496 0.64390
 H120 H 0.37533 0.84154 0.59179
 H121 H 0.34206 0.90840 0.62504
 H122 H 0.40861 0.87496 0.65847
 C123 C 0.89446 0.64422 0.37465
 C124 C 0.89434 0.62515 0.35592
 C125 C 0.87560 0.60604 0.35575
 C126 C 0.85678 0.60619 0.37469
 C127 C 0.85654 0.62506 0.39364
 C128 C 0.87548 0.64397 0.39343
 H129 H 0.90890 0.62517 0.34140
 H130 H 0.84227 0.59156 0.37470
 H131 H 0.87545 0.65857 0.40794
 C132 C 0.60624 0.35626 -0.12548
 C133 C 0.62522 0.35642 -0.10672
 C134 C 0.64421 0.37528 -0.10654
 C135 C 0.64401 0.39418 -0.12548
 C136 C 0.62518 0.39442 -0.14441
 C137 C 0.60640 0.37536 -0.14423
 H138 H 0.62522 0.34180 -0.09220
 H139 H 0.65857 0.40878 -0.12548
 H140 H 0.59183 0.37538 -0.15874
 N141 N -0.02371 0.25613 0.10697
 C142 C -0.00564 0.25595 0.12531
 N143 N -0.00616 0.27405 0.14365
 N144 N -0.02423 0.29181 0.14367
 C145 C -0.04240 0.29205 0.12533
 N146 N -0.04178 0.27387 0.10698
 C147 C 0.01374 0.23676 0.12533
 C148 C 0.02995 0.22058 0.12531
 C149 C 0.04918 0.20125 0.12527
 N150 N 0.06740 0.20109 0.10709
 N151 N 0.08523 0.18309 0.10704
 C152 C 0.08550 0.16460 0.12515
 N153 N 0.06714 0.16489 0.14332
 N154 N 0.04931 0.18288 0.14337
 N155 N 0.50558 0.72610 0.64345
 C156 C 0.50533 0.74450 0.62535
 N157 N 0.52354 0.74447 0.60715
 N158 N 0.54146 0.72657 0.60705
 C159 C 0.54177 0.70810 0.62513
 N160 N 0.52351 0.70819 0.64335
 C161 C 0.48602 0.76378 0.62542
 C162 C 0.46983 0.78000 0.62541
 C163 C 0.45058 0.79932 0.62536
 N164 N 0.45040 0.81766 0.64346
 N165 N 0.43253 0.83561 0.64338
 C166 C 0.41418 0.83589 0.62522
 N167 N 0.41448 0.81742 0.60713
 N168 N 0.43235 0.79947 0.60719
 N169 N 1.00603 0.77417 0.35653
 C170 C 1.00577 0.75571 0.37457
 N171 N 1.02403 0.75568 0.39272
 N172 N 1.04201 0.77357 0.39283
 C173 C 1.04236 0.79212 0.37479
 N174 N 1.02402 0.79207 0.35663
 C175 C 0.98638 0.73647 0.37451
 C176 C 0.97012 0.72027 0.37451
 C177 C 0.95079 0.70096 0.37451
 N178 N 0.95064 0.68261 0.35642
 N179 N 0.93275 0.66462 0.35647
 C180 C 0.91436 0.66431 0.37459
 N181 N 0.91463 0.68280 0.39267
 N182 N 0.93252 0.70079 0.39263
 N183 N 0.49467 0.22643 -0.14328
 C184 C 0.49494 0.24482 -0.12522
 N185 N 0.47669 0.24480 -0.10705
 N186 N 0.45870 0.22692 -0.10696
 C187 C 0.45836 0.20847 -0.12502
 N188 N 0.47667 0.20854 -0.14318
 C189 C 0.51429 0.26409 -0.12531
 C190 C 0.53052 0.28031 -0.12537
 C191 C 0.54983 0.29962 -0.12542
 N192 N 0.56813 0.29976 -0.10733
 N193 N 0.58603 0.31773 -0.10736
 C194 C 0.58630 0.33622 -0.12548
 N195 N 0.56788 0.33594 -0.14358
 N196 N 0.54997 0.31797 -0.14355
 N197 N 0.10628 -0.02359 0.25540
 C198 C 0.12425 -0.00506 0.25529
 N199 N 0.14227 -0.00495 0.27367
 N200 N 0.14232 -0.02285 0.29165
 C201 C 0.12436 -0.04144 0.29183
 N202 N 0.10633 -0.04150 0.27338
 C203 C 0.12419 0.01424 0.23596
 C204 C 0.12417 0.03047 0.21975
 C205 C 0.12417 0.04981 0.20047
 N206 N 0.10607 0.06812 0.20030
 N207 N 0.10610 0.08610 0.18240
 C208 C 0.12423 0.08642 0.16402
 N209 N 0.14233 0.06797 0.16431
 N210 N 0.14231 0.04999 0.18221
 N211 N 0.60683 0.52427 -0.25602
 C212 C 0.62493 0.50592 -0.25571
 N213 N 0.64307 0.50595 -0.27398
 N214 N 0.64312 0.52378 -0.29202
 C215 C 0.62502 0.54220 -0.29242
 N216 N 0.60687 0.54211 -0.27406
 C217 C 0.62490 0.48668 -0.23631
 C218 C 0.62494 0.47048 -0.22006
 C219 C 0.62499 0.45114 -0.20077
 N220 N 0.64318 0.45097 -0.18255
 N221 N 0.64324 0.43299 -0.16467
 C222 C 0.62512 0.41449 -0.16433
 N223 N 0.60694 0.41480 -0.18267
 N224 N 0.60687 0.43278 -0.20056
 N225 N 0.35692 1.00531 0.77342
 C226 C 0.37515 1.00529 0.75524
 N227 N 0.39326 1.02369 0.75554
 N228 N 0.39313 1.04157 0.77349
 C229 C 0.37490 1.04165 0.79173
 N230 N 0.35680 1.02319 0.79137
 C231 C 0.37526 0.98604 0.73592
 C232 C 0.37531 0.96984 0.71970
 C233 C 0.37535 0.95056 0.70040
 N234 N 0.39348 0.93226 0.70026
 N235 N 0.39348 0.91432 0.68237
 C236 C 0.37537 0.91402 0.66395
 N237 N 0.35726 0.93247 0.66422
 N238 N 0.35725 0.95041 0.68211
 N239 N 0.85784 0.49449 0.22648
 C240 C 0.87587 0.49438 0.24487
 N241 N 0.89369 0.47576 0.24486
 N242 N 0.89349 0.45777 0.22701
 C243 C 0.87544 0.45782 0.20858
 N244 N 0.85763 0.47651 0.20864
 C245 C 0.87600 0.51371 0.26413
 C246 C 0.87600 0.52996 0.28030
 C247 C 0.87592 0.54932 0.29953
 N248 N 0.89399 0.56773 0.29968
 N249 N 0.89388 0.58572 0.31752
 C250 C 0.87570 0.58599 0.33586
 N251 N 0.85763 0.56745 0.33557
 N252 N 0.85773 0.54945 0.31774
 N253 N 0.27272 0.14354 -0.00510
 C254 C 0.25437 0.12539 -0.00494
 N255 N 0.25448 0.10716 -0.02317
 N256 N 0.27241 0.10708 -0.04103
 C257 C 0.29081 0.12524 -0.04125
 N258 N 0.29065 0.14347 -0.02296
 C259 C 0.23509 0.12545 0.01430
 C260 C 0.21890 0.12549 0.03048
 C261 C 0.19965 0.12551 0.04975
 N262 N 0.19949 0.10736 0.06807
 N263 N 0.18160 0.10737 0.08596
 C264 C 0.16321 0.12554 0.08621
 N265 N 0.16351 0.14370 0.06776
 N266 N 0.18139 0.14369 0.04986
 N267 N 0.74520 0.60667 0.52306
 C268 C 0.74534 0.62487 0.50475
 N269 N 0.72707 0.64305 0.50489
 N270 N 0.70919 0.64303 0.52281
 C271 C 0.70899 0.62483 0.54118
 N272 N 0.72732 0.60665 0.54097
 C273 C 0.76460 0.62488 0.48546
 C274 C 0.78079 0.62491 0.46926
 C275 C 0.80007 0.62495 0.44999
 N276 N 0.80026 0.60676 0.43173
 N277 N 0.81817 0.60680 0.41385
 C278 C 0.83657 0.62501 0.41357
 N279 N 0.83625 0.64319 0.43196
 N280 N 0.81834 0.64316 0.44983
 N281 N 0.77349 0.35652 0.00481
 C282 C 0.75524 0.37472 0.00466
 N283 N 0.75538 0.39286 0.02298
 N284 N 0.77324 0.39280 0.04092
 C285 C 0.79155 0.37460 0.04112
 N286 N 0.79135 0.35646 0.02274
 C287 C 0.73602 0.37480 -0.01465
 C288 C 0.71986 0.37489 -0.03087
 C289 C 0.70062 0.37499 -0.05016
 N290 N 0.70054 0.39322 -0.06840
 N291 N 0.68264 0.39332 -0.08630
 C292 C 0.66417 0.37518 -0.08661
 N293 N 0.66439 0.35695 -0.06824
 N294 N 0.68228 0.35685 -0.05034
 N295 N 0.24466 0.89341 0.47704
 C296 C 0.24506 0.87502 0.49515
 N297 N 0.22695 0.85663 0.49490
 N298 N 0.20897 0.85662 0.47709
 C299 C 0.20851 0.87501 0.45892
 N300 N 0.22668 0.89341 0.45922
 C301 C 0.26442 0.87502 0.51433
 C302 C 0.28067 0.87502 0.53047
 C303 C 0.29998 0.87503 0.54970
 N304 N 0.31824 0.85686 0.54983
 N305 N 0.33615 0.85685 0.56772
 C306 C 0.33645 0.87500 0.58614
 N307 N 0.31806 0.89316 0.58586
 N308 N 0.30016 0.89318 0.56798
   
