data_POSCAR
  _audit_creation_date              2014-09-24
  _audit_creation_method            'ToBaCCo'
  _symmetry_space_group_name_H-M    'P1'
  _symmetry_Int_Tables_number       1
  _symmetry_cell_setting            triclinic
  loop_
  _symmetry_equiv_pos_as_xyz
 x,y,z
_cell_length_a 59.4437
_cell_length_b 59.4430
_cell_length_c 21.0164
_cell_angle_alpha 90.000000
_cell_angle_beta 90.000000
_cell_angle_gamma 120.000000
loop_
  _atom_site_label
  _atom_site_type_symbol
  _atom_site_fract_x
  _atom_site_fract_y
  _atom_site_fract_z
C1 C 0.19612 0.49694 0.43557
 C2 C 0.18530 0.49631 0.49810
 C3 C 0.19607 0.49611 0.55977
 C4 C 0.22147 0.49581 0.55780
 C5 C 0.23473 0.49658 0.49821
 C6 C 0.22240 0.49781 0.43823
 C7 C 0.23854 0.50198 0.38409
 C8 C 0.26264 0.50168 0.38444
 C9 C 0.27436 0.49775 0.43923
 C10 C 0.26085 0.49663 0.49876
 C11 C 0.23411 0.49387 0.61336
 C12 C 0.25829 0.49366 0.61378
 C13 C 0.27336 0.49588 0.55878
 C14 C 0.29904 0.49570 0.56118
 C15 C 0.30940 0.49514 0.49896
 C16 C 0.29934 0.49647 0.43702
 H17 H 0.23364 0.50737 0.33957
 H18 H 0.27295 0.50614 0.33984
 H19 H 0.22472 0.49162 0.65882
 H20 H 0.26458 0.49060 0.65946
 H21 H 0.16696 0.49577 0.49989
 H22 H 0.32715 0.49445 0.49849
 C23 C 0.50428 -0.30006 0.43640
 C24 C 0.50570 -0.31006 0.49848
 C25 C 0.50398 -0.30029 0.56062
 C26 C 0.50290 -0.27511 0.55856
 C27 C 0.50319 -0.26195 0.49893
 C28 C 0.50337 -0.27476 0.43893
 C29 C 0.50398 -0.26049 0.38377
 C30 C 0.50319 -0.23663 0.38407
 C31 C 0.50353 -0.22268 0.43956
 C32 C 0.50344 -0.23565 0.49931
 C33 C 0.50264 -0.26140 0.61395
 C34 C 0.50157 -0.23770 0.61417
 C35 C 0.50320 -0.22278 0.55932
 C36 C 0.50336 -0.19682 0.56181
 C37 C 0.50316 -0.18640 0.49927
 C38 C 0.50347 -0.19705 0.43739
 H39 H 0.50574 -0.26735 0.33764
 H40 H 0.50204 -0.22924 0.33812
 H41 H 0.50362 -0.26875 0.66007
 H42 H 0.49854 -0.23174 0.66007
 H43 H 0.50551 -0.32829 0.49844
 H44 H 0.50446 -0.16769 0.49798
 C45 C 1.30061 0.80298 0.43585
 C46 C 1.31091 0.81370 0.49843
 C47 C 1.29984 0.80314 0.56028
 C48 C 1.27411 0.77762 0.55824
 C49 C 1.26143 0.76451 0.49856
 C50 C 1.27500 0.77686 0.43854
 C51 C 1.26283 0.76084 0.38432
 C52 C 1.23833 0.73682 0.38464
 C53 C 1.22277 0.72499 0.43950
 C54 C 1.23531 0.73836 0.49906
 C55 C 1.26037 0.76385 0.61381
 C56 C 1.23577 0.73995 0.61418
 C57 C 1.22224 0.72554 0.55905
 C58 C 1.19623 0.69999 0.56149
 C59 C 1.18514 0.68988 0.49927
 C60 C 1.19649 0.70001 0.43733
 H61 H 1.27303 0.76576 0.33968
 H62 H 1.23233 0.72664 0.33989
 H63 H 1.26880 0.77138 0.65977
 H64 H 1.22708 0.73311 0.66028
 H65 H 1.32825 0.83246 0.49986
 H66 H 1.16661 0.67222 0.49879
 C67 C 0.69860 0.50252 0.43785
 C68 C 0.68832 0.50362 0.49946
 C69 C 0.69836 0.50251 0.56164
 C70 C 0.72378 0.50180 0.55946
 C71 C 0.73675 0.50181 0.49958
 C72 C 0.72379 0.50171 0.43989
 C73 C 0.73720 0.50116 0.38428
 C74 C 0.76115 0.50052 0.38407
 C75 C 0.77567 0.50169 0.43930
 C76 C 0.76292 0.50196 0.49929
 C77 C 0.73798 0.50230 0.61471
 C78 C 0.76189 0.50158 0.61447
 C79 C 0.77594 0.50206 0.55900
 C80 C 0.80170 0.50220 0.56094
 C81 C 0.81234 0.50214 0.49892
 C82 C 0.80152 0.50195 0.43696
 H83 H 0.72913 0.50134 0.33838
 H84 H 0.76797 0.49850 0.33813
 H85 H 0.73099 0.50388 0.66083
 H86 H 0.76921 0.50034 0.66043
 H87 H 0.67001 0.50331 0.49842
 H88 H 0.83109 0.50343 0.49893
 C89 C 0.49763 0.19663 0.56207
 C90 C 0.49717 0.18587 0.49961
 C91 C 0.49750 0.19684 0.43795
 C92 C 0.49747 0.22239 0.43978
 C93 C 0.49742 0.23529 0.49937
 C94 C 0.49835 0.22285 0.55944
 C95 C 0.50217 0.23887 0.61365
 C96 C 0.50197 0.26304 0.61315
 C97 C 0.49841 0.27494 0.55817
 C98 C 0.49732 0.26135 0.49873
 C99 C 0.49749 0.23599 0.38400
 C100 C 0.49785 0.26044 0.38348
 C101 C 0.49705 0.27402 0.43862
 C102 C 0.49685 0.29964 0.43605
 C103 C 0.49685 0.31042 0.49790
 C104 C 0.49767 0.30025 0.56002
 H105 H 0.50728 0.23387 0.65841
 H106 H 0.50626 0.27328 0.65782
 H107 H 0.49722 0.22762 0.33820
 H108 H 0.49945 0.26901 0.33737
 H109 H 0.49642 0.16743 0.49781
 H110 H 0.49519 0.32766 0.49757
 C111 C 0.69912 0.19672 0.56254
 C112 C 0.68923 0.18549 0.50035
 C113 C 0.69957 0.19689 0.43879
 C114 C 0.72477 0.22290 0.44105
 C115 C 0.73765 0.23580 0.50084
 C116 C 0.72446 0.22292 0.56052
 C117 C 0.73825 0.23691 0.61580
 C118 C 0.76198 0.26167 0.61576
 C119 C 0.77680 0.27495 0.56072
 C120 C 0.76386 0.26186 0.50084
 C121 C 0.73825 0.23685 0.38554
 C122 C 0.76216 0.26146 0.38552
 C123 C 0.77656 0.27482 0.44086
 C124 C 0.80224 0.30047 0.43847
 C125 C 0.81305 0.31132 0.50027
 C126 C 0.80271 0.30075 0.56286
 H127 H 0.73090 0.22864 0.66197
 H128 H 0.76804 0.27069 0.66161
 H129 H 0.73024 0.22860 0.33959
 H130 H 0.76905 0.27030 0.33961
 H131 H 0.67097 0.16744 0.49925
 H132 H 0.83184 0.32861 0.49895
 O133 O 0.96245 0.44302 0.12494
 O134 O 0.93252 0.44659 0.06294
 C135 C 0.93787 0.43560 0.11189
 O136 O 1.03683 0.55829 0.12236
 O137 O 1.06684 0.55421 0.06185
 C138 C 1.06145 0.56565 0.10964
 O139 O 0.96246 0.51947 0.12525
 O140 O 0.93249 0.48630 0.06256
 C141 C 0.93784 0.50250 0.11181
 O142 O 1.03684 0.47909 0.12365
 O143 O 1.06678 0.51301 0.06245
 C144 C 1.06148 0.49630 0.11065
 Zr145 Zr 0.99967 0.47175 0.07968
 O146 O 1.00080 0.47024 0.18010
 O147 O 0.99933 0.43633 0.06765
 Zr148 Zr 0.99958 0.52877 0.07803
 O149 O 0.99985 0.53399 0.17753
 O150 O 0.99779 0.56303 0.06277
 O151 O 0.97602 0.48847 0.09004
 O152 O 1.02256 0.51175 0.08937
 O153 O 1.03738 0.47911 -0.12488
 O154 O 1.06693 0.51344 -0.06418
 C155 C 1.06192 0.49673 -0.11205
 O156 O 0.96269 0.51991 -0.12811
 O157 O 0.93263 0.48634 -0.06643
 C158 C 0.93807 0.50276 -0.11519
 O159 O 1.03740 0.55818 -0.12676
 O160 O 1.06693 0.55384 -0.06487
 C161 C 1.06198 0.56534 -0.11348
 O162 O 0.96278 0.44343 -0.12867
 O163 O 0.93267 0.44646 -0.06612
 C164 C 0.93811 0.43568 -0.11535
 Zr165 Zr 0.99985 0.47124 -0.08096
 O166 O 1.00042 0.46650 -0.18048
 O167 O 0.99815 0.43523 -0.06586
 Zr168 Zr 0.99990 0.52843 -0.08263
 O169 O 1.00141 0.53118 -0.18302
 O170 O 0.99826 0.56300 -0.07242
 Zr171 Zr 0.95852 0.47941 -0.00177
 Zr172 Zr 1.04098 0.52068 -0.00105
 O173 O 1.02276 0.51126 -0.09181
 O174 O 0.97629 0.48802 -0.09336
 O175 O 1.02401 0.47943 -0.00032
 O176 O 0.97599 0.52049 -0.00256
 O177 O 0.97600 0.45580 -0.00072
 O178 O 1.02400 0.54495 -0.00208
 H179 H 1.03331 0.51709 0.12832
 H180 H 0.96368 0.52715 -0.00285
 H181 H 1.03350 0.51662 -0.13075
 H182 H 0.96373 0.43682 -0.00048
 H183 H 1.01591 0.57755 0.05953
 H184 H 1.01616 0.57717 -0.06358
 H185 H 0.99192 0.51321 -0.19960
 H186 H 1.00401 0.48311 -0.19990
 H187 H 1.01625 0.43899 -0.06047
 H188 H 0.99877 0.42971 0.11120
 H189 H 0.99157 0.47900 0.19656
 H190 H 1.00370 0.52117 0.19708
 O191 O 0.55610 0.51930 0.12460
 O192 O 0.55187 0.48555 0.06253
 C193 C 0.56305 0.50173 0.11155
 O194 O 0.44105 0.47903 0.12184
 O195 O 0.44523 0.51307 0.06082
 C196 C 0.43376 0.49630 0.10881
 O197 O 0.47918 0.44277 0.12363
 O198 O 0.51274 0.44637 0.06191
 C199 C 0.49633 0.43531 0.11069
 O200 O 0.52039 0.55835 0.12229
 O201 O 0.48615 0.55384 0.06162
 C202 C 0.50285 0.56543 0.10972
 Zr203 Zr 0.52796 0.52854 0.07800
 O204 O 0.53225 0.53263 0.17791
 O205 O 0.56327 0.56343 0.06298
 Zr206 Zr 0.47065 0.47143 0.07796
 O207 O 0.46730 0.46947 0.17822
 O208 O 0.43614 0.43527 0.06625
 O209 O 0.51096 0.48813 0.08930
 O210 O 0.48791 0.51147 0.08829
 O211 O 0.52037 0.55838 -0.12661
 O212 O 0.48616 0.55387 -0.06573
 C213 C 0.50282 0.56543 -0.11384
 O214 O 0.47933 0.44302 -0.12879
 O215 O 0.51272 0.44643 -0.06661
 C216 C 0.49642 0.43550 -0.11556
 O217 O 0.44087 0.47931 -0.12701
 O218 O 0.44550 0.51344 -0.06570
 C219 C 0.43383 0.49683 -0.11392
 O220 O 0.55604 0.51924 -0.12957
 O221 O 0.55205 0.48569 -0.06711
 C222 C 0.56318 0.50182 -0.11628
 Zr223 Zr 0.52795 0.52854 -0.08271
 O224 O 0.53223 0.53273 -0.18259
 O225 O 0.56329 0.56340 -0.06775
 Zr226 Zr 0.47053 0.47150 -0.08290
 O227 O 0.46698 0.46944 -0.18311
 O228 O 0.43602 0.43537 -0.07098
 Zr229 Zr 0.51958 0.47927 -0.00245
 Zr230 Zr 0.47875 0.52066 -0.00223
 O231 O 0.48789 0.51154 -0.09291
 O232 O 0.51089 0.48815 -0.09417
 O233 O 0.52008 0.54491 -0.00231
 O234 O 0.47853 0.45576 -0.00257
 O235 O 0.54355 0.52032 -0.00239
 O236 O 0.45435 0.47946 -0.00232
 H237 H 0.48246 0.51682 0.12716
 H238 H 0.47181 0.43678 -0.00259
 H239 H 0.48247 0.51692 -0.13177
 H240 H 0.56250 0.52686 -0.00239
 H241 H 0.42194 0.43902 0.05800
 H242 H 0.42180 0.43916 -0.06349
 H243 H 0.48483 0.47864 -0.20046
 H244 H 0.51506 0.52076 -0.20124
 H245 H 0.57052 0.56972 -0.11073
 H246 H 0.57052 0.56974 0.10595
 H247 H 0.51505 0.52075 0.19655
 H248 H 0.48518 0.47848 0.19539
 O249 O 0.48064 0.03725 0.12552
 O250 O 0.51412 0.06692 0.06308
 C251 C 0.49802 0.06182 0.11229
 O252 O 0.52168 -0.03695 0.12185
 O253 O 0.48734 -0.06710 0.06202
 C254 C 0.50435 -0.06161 0.10959
 O255 O 0.55738 0.03767 0.12423
 O256 O 0.55281 0.06713 0.06280
 C257 C 0.56416 0.06217 0.11155
 O258 O 0.44201 -0.03745 0.12311
 O259 O 0.44615 -0.06729 0.06190
 C260 C 0.43469 -0.06207 0.11017
 Zr261 Zr 0.47158 -0.00012 0.07894
 O262 O 0.46772 0.00008 0.17893
 O263 O 0.43648 -0.00004 0.06454
 Zr264 Zr 0.52893 0.00022 0.07825
 O265 O 0.53112 -0.00119 0.17844
 O266 O 0.56524 0.00228 0.06591
 O267 O 0.51191 0.02354 0.08986
 O268 O 0.48889 -0.02290 0.08883
 O269 O 0.44149 -0.03734 -0.12453
 O270 O 0.44617 -0.06729 -0.06511
 C271 C 0.43442 -0.06191 -0.11235
 O272 O 0.55711 0.03764 -0.12863
 O273 O 0.55281 0.06712 -0.06663
 C274 C 0.56407 0.06217 -0.11557
 O275 O 0.52116 -0.03710 -0.12681
 O276 O 0.48740 -0.06712 -0.06529
 C277 C 0.50406 -0.06177 -0.11370
 O278 O 0.48039 0.03695 -0.12890
 O279 O 0.51329 0.06694 -0.06573
 C280 C 0.49722 0.06159 -0.11519
 Zr281 Zr 0.47136 -0.00014 -0.08157
 O282 O 0.46689 -0.00033 -0.18142
 O283 O 0.43647 0.00025 -0.06629
 Zr284 Zr 0.52867 0.00015 -0.08264
 O285 O 0.53044 -0.00127 -0.18293
 O286 O 0.56496 0.00209 -0.07119
 Zr287 Zr 0.52043 0.04101 -0.00191
 Zr288 Zr 0.47964 -0.04134 -0.00167
 O289 O 0.48859 -0.02297 -0.09225
 O290 O 0.51164 0.02351 -0.09360
 O291 O 0.45524 -0.02443 -0.00126
 O292 O 0.54432 0.02389 -0.00229
 O293 O 0.47939 0.02361 -0.00133
 O294 O 0.52094 -0.02407 -0.00216
 H295 H 0.48360 -0.03372 0.12766
 H296 H 0.56325 0.03634 -0.00241
 H297 H 0.48313 -0.03382 -0.13103
 H298 H 0.47268 0.03588 -0.00117
 H299 H 0.56165 -0.01563 0.05794
 H300 H 0.56134 -0.01585 -0.06349
 H301 H 0.52141 0.00761 -0.19993
 H302 H 0.47901 -0.00530 -0.20020
 H303 H 0.43018 0.00134 -0.10918
 H304 H 0.43034 0.00107 0.10760
 H305 H 0.47958 -0.00531 0.19733
 H306 H 0.52191 0.00744 0.19587
 C307 C 1.14113 0.49909 0.32040
 C308 C 1.14706 0.49322 0.26202
 C309 C 1.16774 0.48787 0.25790
 C310 C 1.18280 0.48873 0.31334
 C311 C 1.17944 0.49613 0.37653
 C312 C 1.15695 0.50096 0.37731
 O313 O 1.11990 0.50241 0.31547
 C314 C 1.11230 0.49875 0.25283
 C315 C 1.12858 0.49335 0.21785
 C316 C 1.12450 0.48966 0.15131
 C317 C 1.10370 0.49138 0.11974
 C318 C 1.08511 0.49609 0.15176
 C319 C 1.09024 0.49975 0.22138
 H320 H 1.17185 0.48213 0.21247
 H321 H 1.19608 0.48165 0.30595
 H322 H 1.15162 0.50661 0.42100
 H323 H 1.13738 0.48566 0.12329
 H324 H 1.10184 0.48844 0.06875
 H325 H 1.07756 0.50359 0.25057
 C326 C 0.50906 0.64732 0.31857
 C327 C 0.49528 0.64757 0.26657
 C328 C 0.48490 0.66449 0.26695
 C329 C 0.48848 0.68144 0.32054
 C330 C 0.50261 0.68295 0.37763
 C331 C 0.51269 0.66437 0.37432
 O332 O 0.51751 0.62983 0.30922
 C333 C 0.50887 0.61868 0.25041
 C334 C 0.49495 0.62882 0.22254
 C335 C 0.48380 0.61949 0.16185
 C336 C 0.48677 0.59971 0.12880
 C337 C 0.50119 0.58800 0.15269
 C338 C 0.51247 0.59852 0.21653
 H339 H 0.47360 0.66444 0.22654
 H340 H 0.47824 0.69213 0.31815
 H341 H 0.52375 0.66338 0.41393
 H342 H 0.47267 0.62723 0.13974
 H343 H 0.47756 0.59353 0.08273
 H344 H 0.52358 0.59103 0.23986
 C345 C 0.35787 -0.14198 0.32041
 C346 C 0.34594 -0.14772 0.26217
 C347 C 0.31983 -0.16827 0.25826
 C348 C 0.30566 -0.18339 0.31370
 C349 C 0.31649 -0.18026 0.37676
 C350 C 0.34392 -0.15789 0.37737
 O351 O 0.38249 -0.12086 0.31530
 C352 C 0.38636 -0.11312 0.25270
 C353 C 0.36456 -0.12921 0.21792
 C354 C 0.36483 -0.12497 0.15145
 C355 C 0.38737 -0.10419 0.11974
 C356 C 0.41083 -0.08578 0.15149
 C357 C 0.40946 -0.09109 0.22109
 H358 H 0.30989 -0.17223 0.21298
 H359 H 0.28526 -0.19655 0.30643
 H360 H 0.35494 -0.15275 0.42101
 H361 H 0.34785 -0.13768 0.12356
 H362 H 0.38615 -0.10221 0.06884
 H363 H 0.42609 -0.07855 0.25016
 C364 C 0.85624 0.49761 0.31858
 C365 C 0.85375 0.50824 0.26300
 C366 C 0.83557 0.51706 0.26066
 C367 C 0.81957 0.51498 0.31509
 C368 C 0.81959 0.50309 0.37475
 C369 C 0.83940 0.49461 0.37425
 O370 O 0.87547 0.49132 0.31237
 C371 C 0.88525 0.49788 0.25174
 C372 C 0.87235 0.50813 0.21929
 C373 C 0.87915 0.51569 0.15504
 C374 C 0.89927 0.51293 0.12315
 C375 C 0.91439 0.50311 0.15273
 C376 C 0.90652 0.49554 0.22009
 H377 H 0.83411 0.52625 0.21763
 H378 H 0.80783 0.52404 0.31039
 H379 H 0.84186 0.48570 0.41651
 H380 H 0.86897 0.52361 0.12904
 H381 H 0.90342 0.51913 0.07401
 H382 H 0.91658 0.48783 0.24734
 C383 C 0.50130 0.35863 0.31732
 C384 C 0.49026 0.34539 0.26211
 C385 C 0.48114 0.31833 0.26012
 C386 C 0.48332 0.30445 0.31452
 C387 C 0.49558 0.31646 0.37379
 C388 C 0.50437 0.34482 0.37295
 O389 O 0.50787 0.38421 0.31085
 C390 C 0.50107 0.38736 0.25041
 C391 C 0.49039 0.36410 0.21836
 C392 C 0.48249 0.36324 0.15437
 C393 C 0.48534 0.38614 0.12236
 C394 C 0.49564 0.41121 0.15155
 C395 C 0.50356 0.41101 0.21863
 H396 H 0.47165 0.30760 0.21740
 H397 H 0.47406 0.28362 0.31015
 H398 H 0.51358 0.35625 0.41494
 H399 H 0.47421 0.34505 0.12868
 H400 H 0.47887 0.38402 0.07346
 H401 H 0.51162 0.42888 0.24560
 C402 C 0.64719 0.13822 0.31704
 C403 C 0.64471 0.15239 0.26885
 C404 C 0.65959 0.17990 0.27163
 C405 C 0.67720 0.19333 0.32398
 C406 C 0.68142 0.18052 0.37676
 C407 C 0.66510 0.15171 0.37128
 O408 O 0.63122 0.11212 0.30589
 C409 C 0.61833 0.10963 0.24975
 C410 C 0.62589 0.13385 0.22536
 C411 C 0.61456 0.13568 0.16780
 C412 C 0.59540 0.11278 0.13426
 C413 C 0.58624 0.08653 0.15474
 C414 C 0.59873 0.08574 0.21545
 H415 H 0.65747 0.19118 0.23411
 H416 H 0.68693 0.21431 0.32400
 H417 H 0.66620 0.13984 0.40878
 H418 H 0.62030 0.15468 0.14851
 H419 H 0.58758 0.11580 0.09066
 H420 H 0.59326 0.06701 0.23596
 C421 C 0.49996 0.14157 -0.32364
 C422 C 0.49390 0.14726 -0.26521
 C423 C 0.48838 0.16782 -0.26073
 C424 C 0.48924 0.18300 -0.31590
 C425 C 0.49682 0.17989 -0.37909
 C426 C 0.50186 0.15753 -0.38022
 O427 O 0.50343 0.12044 -0.31912
 C428 C 0.49967 0.11263 -0.25666
 C429 C 0.49408 0.12871 -0.22141
 C430 C 0.49029 0.12444 -0.15497
 C431 C 0.49210 0.10364 -0.12380
 C432 C 0.49698 0.08523 -0.15614
 C433 C 0.50074 0.09055 -0.22563
 H434 H 0.48251 0.17173 -0.21525
 H435 H 0.48204 0.19617 -0.30833
 H436 H 0.50773 0.15243 -0.42389
 H437 H 0.48614 0.13716 -0.12674
 H438 H 0.48907 0.10160 -0.07284
 H439 H 0.50472 0.07801 -0.25502
 C440 C 0.64546 0.50747 -0.32261
 C441 C 0.64558 0.49382 -0.27019
 C442 C 0.66254 0.48350 -0.26956
 C443 C 0.67967 0.48699 -0.32263
 C444 C 0.68128 0.50094 -0.38008
 C445 C 0.66269 0.51099 -0.37779
 O446 O 0.62794 0.51591 -0.31420
 C447 C 0.61660 0.50739 -0.25557
 C448 C 0.62668 0.49356 -0.22689
 C449 C 0.61718 0.48253 -0.16624
 C450 C 0.59730 0.48556 -0.13400
 C451 C 0.58566 0.49990 -0.15878
 C452 C 0.59635 0.51105 -0.22255
 H453 H 0.66238 0.47231 -0.22877
 H454 H 0.69041 0.47681 -0.31956
 H455 H 0.66181 0.52196 -0.41777
 H456 H 0.62488 0.47148 -0.14351
 H457 H 0.59101 0.47648 -0.08782
 H458 H 0.58894 0.52214 -0.24641
 C459 C 0.85738 0.35855 -0.32306
 C460 C 0.85328 0.34610 -0.26578
 C461 C 0.83395 0.31951 -0.26213
 C462 C 0.81835 0.30534 -0.31689
 C463 C 0.81977 0.31660 -0.37865
 C464 C 0.84097 0.34454 -0.37918
 O465 O 0.87757 0.38367 -0.31791
 C466 C 0.88636 0.38732 -0.25623
 C467 C 0.87186 0.36486 -0.22209
 C468 C 0.87736 0.36469 -0.15655
 C469 C 0.89781 0.38748 -0.12510
 C470 C 0.91461 0.41168 -0.15635
 C471 C 0.90804 0.41077 -0.22499
 H472 H 0.83138 0.30925 -0.21778
 H473 H 0.80646 0.28468 -0.31060
 H474 H 0.84468 0.35584 -0.42209
 H475 H 0.86589 0.34716 -0.12920
 H476 H 0.90087 0.38594 -0.07488
 H477 H 0.91935 0.42796 -0.25353
 C478 C 0.50041 -0.14222 -0.32290
 C479 C 0.50862 -0.14654 -0.26569
 C480 C 0.51576 -0.16598 -0.26251
 C481 C 0.51433 -0.18145 -0.31759
 C482 C 0.50460 -0.17982 -0.37936
 C483 C 0.49801 -0.15850 -0.37942
 O484 O 0.49557 -0.12196 -0.31729
 C485 C 0.50065 -0.11336 -0.25541
 C486 C 0.50848 -0.12804 -0.22157
 C487 C 0.51408 -0.12270 -0.15590
 C488 C 0.51181 -0.10226 -0.12402
 C489 C 0.50453 -0.08530 -0.15489
 C490 C 0.49895 -0.09170 -0.22370
 H491 H 0.52336 -0.16874 -0.21823
 H492 H 0.52301 -0.19343 -0.31150
 H493 H 0.49057 -0.15458 -0.42229
 H494 H 0.52005 -0.13430 -0.12877
 H495 H 0.51637 -0.09936 -0.07376
 H496 H 0.49316 -0.08026 -0.25204
 C497 C 0.35195 0.49107 -0.32191
 C498 C 0.35093 0.50385 -0.26868
 C499 C 0.33327 0.51336 -0.26788
 C500 C 0.31642 0.50997 -0.32157
 C501 C 0.31584 0.49702 -0.38002
 C502 C 0.33507 0.48773 -0.37776
 O503 O 0.36994 0.48322 -0.31354
 C504 C 0.38067 0.49124 -0.25414
 C505 C 0.36977 0.50420 -0.22489
 C506 C 0.37863 0.51465 -0.16339
 C507 C 0.39870 0.51196 -0.13097
 C508 C 0.41112 0.49844 -0.15629
 C509 C 0.40107 0.48787 -0.22089
 H510 H 0.33262 0.52379 -0.22637
 H511 H 0.30494 0.51937 -0.31799
 H512 H 0.33671 0.47744 -0.41824
 H513 H 0.37031 0.52505 -0.14018
 H514 H 0.40449 0.52059 -0.08420
 H515 H 0.40912 0.47747 -0.24529
 C516 C 1.13843 0.64726 -0.32149
 C517 C 1.15226 0.64771 -0.26885
 C518 C 1.17954 0.66484 -0.26853
 C519 C 1.19308 0.68177 -0.32205
 C520 C 1.18070 0.68305 -0.37982
 C521 C 1.15206 0.66428 -0.37717
 O522 O 1.11249 0.62964 -0.31276
 C523 C 1.10975 0.61859 -0.25372
 C524 C 1.13368 0.62893 -0.22506
 C525 C 1.13525 0.61970 -0.16401
 C526 C 1.11240 0.59984 -0.13141
 C527 C 1.08638 0.58795 -0.15609
 C528 C 1.08588 0.59836 -0.22029
 H529 H 1.19064 0.66497 -0.22758
 H530 H 1.21400 0.69265 -0.31898
 H531 H 1.14012 0.66311 -0.41722
 H532 H 1.15403 0.62759 -0.14126
 H533 H 1.11526 0.59377 -0.08502
 H534 H 1.06738 0.59073 -0.24424
 C535 C 0.85609 0.49748 -0.32077
 C536 C 0.85450 0.50925 -0.26620
 C537 C 0.83699 0.51890 -0.26449
 C538 C 0.82073 0.51650 -0.31857
 C539 C 0.81988 0.50354 -0.37712
 C540 C 0.83902 0.49423 -0.37608
 O541 O 0.87475 0.49045 -0.31408
 C542 C 0.88510 0.49772 -0.25414
 C543 C 0.87313 0.50916 -0.22264
 C544 C 0.88068 0.51770 -0.15925
 C545 C 0.90063 0.51470 -0.12726
 C546 C 0.91474 0.50358 -0.15591
 C547 C 0.90612 0.49501 -0.22237
 H548 H 0.83625 0.52894 -0.22229
 H549 H 0.80951 0.52614 -0.31467
 H550 H 0.84077 0.48452 -0.41766
 H551 H 0.87126 0.52660 -0.13404
 H552 H 0.90543 0.52171 -0.07882
 H553 H 0.91543 0.48632 -0.24887
 C554 C 0.50101 0.35898 -0.32253
 C555 C 0.49224 0.34632 -0.26556
 C556 C 0.48495 0.31971 -0.26199
 C557 C 0.48667 0.30571 -0.31667
 C558 C 0.49673 0.31725 -0.37786
 C559 C 0.50370 0.34513 -0.37850
 O560 O 0.50599 0.38409 -0.31726
 C561 C 0.50047 0.38754 -0.25582
 C562 C 0.49223 0.36497 -0.22194
 C563 C 0.48614 0.36459 -0.15666
 C564 C 0.48834 0.38731 -0.12520
 C565 C 0.49603 0.41158 -0.15629
 C566 C 0.50213 0.41090 -0.22462
 H567 H 0.47723 0.30939 -0.21772
 H568 H 0.47889 0.28510 -0.31074
 H569 H 0.51124 0.35622 -0.42176
 H570 H 0.47984 0.34696 -0.12955
 H571 H 0.48342 0.38564 -0.07517
 H572 H 0.50826 0.42821 -0.25292
 C573 C 0.64637 0.13883 -0.32166
 C574 C 0.64611 0.15264 -0.26973
 C575 C 0.66273 0.17998 -0.26948
 C576 C 0.67991 0.19363 -0.32241
 C577 C 0.68196 0.18124 -0.37929
 C578 C 0.66367 0.15254 -0.37670
 O579 O 0.62909 0.11283 -0.31295
 C580 C 0.61755 0.11003 -0.25462
 C581 C 0.62724 0.13399 -0.22643
 C582 C 0.61749 0.13554 -0.16616
 C583 C 0.59774 0.11261 -0.13379
 C584 C 0.58648 0.08659 -0.15808
 C585 C 0.59741 0.08609 -0.22146
 H586 H 0.66223 0.19103 -0.22913
 H587 H 0.69028 0.21455 -0.31980
 H588 H 0.66311 0.14069 -0.41634
 H589 H 0.62490 0.15434 -0.14384
 H590 H 0.59123 0.11542 -0.08792
 H591 H 0.59030 0.06756 -0.24494
 C592 C 1.13752 0.48993 -0.31856
 C593 C 1.15172 0.50532 -0.26856
 C594 C 1.17917 0.51696 -0.27011
 C595 C 1.19250 0.51309 -0.32315
 C596 C 1.17963 0.49743 -0.37789
 C597 C 1.15091 0.48588 -0.37352
 O598 O 1.11150 0.48057 -0.30829
 C599 C 1.10908 0.49018 -0.25088
 C600 C 1.13327 0.50560 -0.22480
 C601 C 1.13519 0.51786 -0.16574
 C602 C 1.11237 0.51448 -0.13246
 C603 C 1.08617 0.49861 -0.15470
 C604 C 1.08530 0.48622 -0.21684
 H605 H 1.19046 0.52931 -0.23106
 H606 H 1.21350 0.52346 -0.32200
 H607 H 1.13902 0.47389 -0.41233
 H608 H 1.15418 0.53015 -0.14512
 H609 H 1.11542 0.52458 -0.08765
 H610 H 1.06658 0.47396 -0.23872
 C611 C 0.50902 0.64733 -0.32185
 C612 C 0.49463 0.64701 -0.27055
 C613 C 0.48367 0.66342 -0.27136
 C614 C 0.48732 0.68046 -0.32469
 C615 C 0.50214 0.68261 -0.38091
 C616 C 0.51275 0.66451 -0.37729
 O617 O 0.51789 0.63021 -0.31217
 C618 C 0.50891 0.61874 -0.25386
 C619 C 0.49437 0.62831 -0.22663
 C620 C 0.48282 0.61861 -0.16654
 C621 C 0.48601 0.59901 -0.13339
 C622 C 0.50103 0.58789 -0.15668
 C623 C 0.51271 0.59876 -0.21991
 H624 H 0.47185 0.66285 -0.23157
 H625 H 0.47655 0.69063 -0.32295
 H626 H 0.52429 0.66400 -0.41641
 H627 H 0.47120 0.62592 -0.14499
 H628 H 0.47646 0.59250 -0.08777
 H629 H 0.52430 0.59169 -0.24270
 C630 C 0.35850 -0.14349 -0.31920
 C631 C 0.34470 -0.14425 -0.26616
 C632 C 0.31738 -0.16095 -0.26618
 C633 C 0.30382 -0.17722 -0.32045
 C634 C 0.31636 -0.17883 -0.37743
 C635 C 0.34495 -0.16052 -0.37472
 O636 O 0.38434 -0.12557 -0.31095
 C637 C 0.38704 -0.11487 -0.25158
 C638 C 0.36325 -0.12584 -0.22199
 C639 C 0.36179 -0.11767 -0.15957
 C640 C 0.38466 -0.09810 -0.12662
 C641 C 0.41031 -0.08511 -0.15327
 C642 C 0.41074 -0.09434 -0.21876
 H643 H 0.30630 -0.16106 -0.22523
 H644 H 0.28288 -0.18787 -0.31810
 H645 H 0.35669 -0.15940 -0.41520
 H646 H 0.34313 -0.12628 -0.13592
 H647 H 0.38210 -0.09271 -0.07910
 H648 H 0.42908 -0.08578 -0.24381
 C649 C 0.49860 -0.14326 0.31699
 C650 C 0.51118 -0.14442 0.26347
 C651 C 0.52135 -0.16150 0.26313
 C652 C 0.51867 -0.17775 0.31748
 C653 C 0.50496 -0.17898 0.37501
 C654 C 0.49513 -0.16028 0.37262
 O655 O 0.49108 -0.12501 0.30903
 C656 C 0.49886 -0.11450 0.24939
 C657 C 0.51115 -0.12592 0.21931
 C658 C 0.52044 -0.11803 0.15651
 C659 C 0.51733 -0.09830 0.12367
 C660 C 0.50525 -0.08482 0.15078
 C661 C 0.49594 -0.09377 0.21668
 H662 H 0.53199 -0.16193 0.22180
 H663 H 0.52865 -0.18869 0.31470
 H664 H 0.48485 -0.15883 0.41343
 H665 H 0.53004 -0.12700 0.13244
 H666 H 0.52497 -0.09320 0.07581
 H667 H 0.48655 -0.08489 0.24209
 C668 C 0.35775 0.50024 0.31781
 C669 C 0.34495 0.49169 0.26093
 C670 C 0.31833 0.48438 0.25800
 C671 C 0.30448 0.48589 0.31325
 C672 C 0.31620 0.49575 0.37439
 C673 C 0.34407 0.50272 0.37435
 O674 O 0.38284 0.50524 0.31189
 C675 C 0.38612 0.49996 0.25012
 C676 C 0.36348 0.49185 0.21667
 C677 C 0.36295 0.48601 0.15115
 C678 C 0.38559 0.48833 0.11904
 C679 C 0.40991 0.49589 0.14972
 C680 C 0.40938 0.50172 0.21826
 H681 H 0.30789 0.47682 0.21380
 H682 H 0.28385 0.47810 0.30780
 H683 H 0.35529 0.51011 0.41748
 H684 H 0.34525 0.47981 0.12439
 H685 H 0.38383 0.48358 0.06889
 H686 H 0.42673 0.50770 0.24625
 C687 C 1.14173 0.64163 0.31828
 C688 C 1.14571 0.65452 0.26163
 C689 C 1.16492 0.68119 0.25877
 C690 C 1.18043 0.69499 0.31387
 C691 C 1.17881 0.68320 0.37478
 C692 C 1.15802 0.65529 0.37467
 O693 O 1.12173 0.61649 0.31232
 C694 C 1.11296 0.61326 0.25075
 C695 C 1.12725 0.63600 0.21747
 C696 C 1.12168 0.63662 0.15217
 C697 C 1.10135 0.61397 0.12011
 C698 C 1.08485 0.58954 0.15060
 C699 C 1.09146 0.58997 0.21893
 H700 H 1.16760 0.69168 0.21475
 H701 H 1.19320 0.71564 0.30854
 H702 H 1.15439 0.64402 0.41765
 H703 H 1.13299 0.65439 0.12553
 H704 H 1.09816 0.61581 0.07012
 H705 H 1.08031 0.57253 0.24678
 C706 C 0.49111 0.13801 0.31702
 C707 C 0.50748 0.15211 0.26834
 C708 C 0.51993 0.17961 0.27050
 C709 C 0.51584 0.19312 0.32279
 C710 C 0.49910 0.18037 0.37604
 C711 C 0.48678 0.15157 0.37116
 O712 O 0.48114 0.11191 0.30641
 C713 C 0.49136 0.10934 0.25011
 C714 C 0.50775 0.13351 0.22509
 C715 C 0.52070 0.13529 0.16726
 C716 C 0.51702 0.11236 0.13407
 C717 C 0.50021 0.08616 0.15525
 C718 C 0.48714 0.08542 0.21621
 H719 H 0.53310 0.19082 0.23256
 H720 H 0.52693 0.21410 0.32237
 H721 H 0.47400 0.13976 0.40901
 H722 H 0.53374 0.15426 0.14749
 H723 H 0.52768 0.11533 0.09020
 H724 H 0.47410 0.06672 0.23718
 C725 C 0.64614 0.50875 0.31658
 C726 C 0.64370 0.49217 0.26825
 C727 C 0.65860 0.47957 0.27083
 C728 C 0.67621 0.48371 0.32314
 C729 C 0.68041 0.50071 0.37597
 C730 C 0.66407 0.51317 0.37071
 O731 O 0.63011 0.51882 0.30564
 C732 C 0.61724 0.50847 0.24949
 C733 C 0.62487 0.49189 0.22488
 C734 C 0.61360 0.47881 0.16723
 C735 C 0.59441 0.48253 0.13382
 C736 C 0.58516 0.49949 0.15461
 C737 C 0.59759 0.51271 0.21538
 H738 H 0.65649 0.46621 0.23322
 H739 H 0.68593 0.47246 0.32306
 H740 H 0.66516 0.52610 0.40829
 H741 H 0.61943 0.46564 0.14774
 H742 H 0.58667 0.47178 0.09008
 H743 H 0.59205 0.52590 0.23605
 C744 C 0.85642 0.35932 0.31906
 C745 C 0.85437 0.34593 0.26422
 C746 C 0.83662 0.31882 0.26269
 C747 C 0.82059 0.30505 0.31720
 C748 C 0.82020 0.31722 0.37607
 C749 C 0.83957 0.34562 0.37478
 O750 O 0.87527 0.38494 0.31216
 C751 C 0.88526 0.38794 0.25184
 C752 C 0.87289 0.36456 0.22027
 C753 C 0.88001 0.36352 0.15648
 C754 C 0.89995 0.38638 0.12417
 C755 C 0.91450 0.41157 0.15287
 C756 C 0.90631 0.41156 0.21976
 H757 H 0.83550 0.30799 0.22027
 H758 H 0.80916 0.28420 0.31329
 H759 H 0.84168 0.35716 0.41647
 H760 H 0.87026 0.34523 0.13120
 H761 H 0.90442 0.38414 0.07545
 H762 H 0.91597 0.42953 0.24635
   
