data_POSCAR
  _audit_creation_date              2014-09-24
  _audit_creation_method            'ToBaCCo'
  _symmetry_space_group_name_H-M    'P1'
  _symmetry_Int_Tables_number       1
  _symmetry_cell_setting            triclinic
  loop_
  _symmetry_equiv_pos_as_xyz
 x,y,z
_cell_length_a 38.2538
_cell_length_b 38.1254
_cell_length_c 37.9473
_cell_angle_alpha 89.938700
_cell_angle_beta 89.969100
_cell_angle_gamma 89.892400
loop_
  _atom_site_label
  _atom_site_type_symbol
  _atom_site_fract_x
  _atom_site_fract_y
  _atom_site_fract_z
C1 C 0.17261 1.21822 0.21827
 C2 C 0.15851 1.24843 0.20259
 C3 C 0.17436 1.26313 0.17272
 C4 C 0.20469 1.24797 0.15858
 C5 C 0.21914 1.21776 0.17396
 C6 C 0.20303 1.20275 0.20391
 C7 C 0.15629 1.20268 0.24748
 C8 C 0.16995 1.17186 0.26228
 C9 C 0.20028 1.15662 0.24825
 C10 C 0.21692 1.17184 0.21905
 C11 C 0.24663 1.15617 0.20411
 C12 C 0.26239 1.17094 0.17426
 C13 C 0.24884 1.20173 0.15937
 H14 H 0.13488 1.26012 0.21324
 H15 H 0.21668 1.25931 0.13529
 H16 H 0.13264 1.21420 0.25828
 H17 H 0.21057 1.13261 0.25964
 H18 H 0.25714 1.13215 0.21524
 H19 H 0.26104 1.21277 0.13606
 C20 C 0.82693 0.77868 0.22081
 C21 C 0.84291 0.74936 0.20529
 C22 C 0.82920 0.73485 0.17431
 C23 C 0.79914 0.74929 0.15890
 C24 C 0.78284 0.77861 0.17409
 C25 C 0.79679 0.79344 0.20515
 C26 C 0.84114 0.79410 0.25113
 C27 C 0.82567 0.82411 0.26576
 C28 C 0.79561 0.83864 0.25042
 C29 C 0.78107 0.82354 0.22009
 C30 C 0.75169 0.83856 0.20386
 C31 C 0.73808 0.82395 0.17292
 C32 C 0.75345 0.79397 0.15821
 H33 H 0.86637 0.73826 0.21691
 H34 H 0.78884 0.73814 0.13475
 H35 H 0.86458 0.78315 0.26295
 H36 H 0.78394 0.86205 0.26169
 H37 H 0.73979 0.86197 0.21485
 H38 H 0.74291 0.78307 0.13407
 C39 C 0.82659 1.21991 -0.21757
 C40 C 0.84204 1.24935 -0.20186
 C41 C 0.82749 1.26403 -0.17136
 C42 C 0.79721 1.24962 -0.15650
 C43 C 0.78141 1.22019 -0.17186
 C44 C 0.79616 1.20521 -0.20252
 C45 C 0.84148 1.20445 -0.24759
 C46 C 0.82635 1.17448 -0.26253
 C47 C 0.79603 1.15999 -0.24777
 C48 C 0.78083 1.17513 -0.21776
 C49 C 0.75103 1.16028 -0.20223
 C50 C 0.73660 1.17505 -0.17172
 C51 C 0.75161 1.20499 -0.15668
 H52 H 0.86563 1.26055 -0.21301
 H53 H 0.78630 1.26103 -0.13273
 H54 H 0.86509 1.21540 -0.25899
 H55 H 0.78459 1.13665 -0.25932
 H56 H 0.73936 1.13695 -0.21351
 H57 H 0.74039 1.21606 -0.13290
 C58 C 0.17512 0.78048 -0.22111
 C59 C 0.15998 0.75074 -0.20560
 C60 C 0.17482 0.73578 -0.17532
 C61 C 0.20521 0.75015 -0.16065
 C62 C 0.22069 0.77989 -0.17584
 C63 C 0.20558 0.79519 -0.20618
 C64 C 0.15971 0.79645 -0.25060
 C65 C 0.17429 0.82692 -0.26508
 C66 C 0.20465 0.84137 -0.25052
 C67 C 0.22040 0.82575 -0.22103
 C68 C 0.25003 0.84077 -0.20544
 C69 C 0.26477 0.82574 -0.17519
 C70 C 0.25033 0.79528 -0.16058
 H71 H 0.13625 0.73971 -0.21662
 H72 H 0.21637 0.73866 -0.13700
 H73 H 0.13599 0.78568 -0.26186
 H74 H 0.21553 0.86517 -0.26170
 H75 H 0.26120 0.86457 -0.21633
 H76 H 0.26172 0.78407 -0.13693
 C77 C 0.55322 1.04853 -0.01006
 H78 H 0.55413 1.04793 0.01843
 C79 C 0.57693 1.06917 -0.02879
 H80 H 0.59618 1.08427 -0.01445
 C81 C 0.52811 1.02799 -0.06323
 H82 H 0.50953 1.01137 -0.07658
 C83 C 0.55138 1.04823 -0.08302
 H84 H 0.54992 1.04749 -0.11150
 N85 N 0.52942 1.02854 -0.02742
 C86 C 0.44792 1.00761 0.05000
 H87 H 0.44816 0.97924 0.04966
 C88 C 0.42333 1.02544 0.07043
 H89 H 0.40506 1.01054 0.08626
 C90 C 0.47125 1.06134 0.02923
 H91 H 0.48935 1.07520 0.01241
 C92 C 0.44705 1.08025 0.04927
 H93 H 0.44685 1.10861 0.04765
 Zn94 Zn 0.50065 0.99900 0.00017
 N95 N 0.47120 1.02566 0.02993
 C96 C 0.53061 0.97045 0.06268
 N97 N 0.53080 0.96995 0.02683
 C98 C 0.55440 0.95035 0.00866
 C99 C 0.57909 0.93007 0.02655
 C100 C 0.55488 0.95055 0.08165
 C101 C 0.44674 0.98957 -0.04807
 C102 C 0.42224 0.97141 -0.06817
 C103 C 0.44788 0.91693 -0.04824
 C104 C 0.47196 0.93618 -0.02848
 N105 N 0.47096 0.97185 -0.02879
 H106 H 0.51225 0.98691 0.07664
 H107 H 0.55426 0.95083 -0.01984
 H108 H 0.59754 0.91452 0.01156
 H109 H 0.55487 0.95192 0.11015
 H110 H 0.44626 1.01794 -0.04743
 H111 H 0.40328 0.98606 -0.08345
 H112 H 0.44853 0.88856 -0.04703
 H113 H 0.49080 0.92256 -0.01227
 C114 C 0.42240 1.06227 0.06994
 C115 C 0.57638 1.06901 -0.06580
 C116 C 0.42238 0.93457 -0.06819
 C117 C 0.57974 0.93022 0.06356
 C118 C -0.00612 0.55442 1.04873
 H119 H 0.02216 0.55479 1.04826
 C120 C -0.02436 0.57893 1.06891
 H121 H -0.00987 0.59776 1.08442
 C122 C -0.05919 0.52950 1.02863
 H123 H -0.07265 0.51076 1.01222
 C124 C -0.07851 0.55358 1.04846
 H125 H -0.10678 0.55306 1.04707
 N126 N -0.02364 0.53034 1.02916
 C127 C 0.05255 0.44722 1.01057
 H128 H 0.05227 0.44644 0.98207
 C129 C 0.07276 0.42314 1.02941
 H130 H 0.08786 0.40374 1.01515
 C131 C 0.03162 0.47238 1.06363
 H132 H 0.01503 0.49114 1.07688
 C133 C 0.05143 0.44877 1.08353
 H134 H 0.05038 0.45013 1.11200
 Zn135 Zn 0.00360 0.50061 1.00018
 N136 N 0.03257 0.47122 1.02782
 C137 C 0.06617 0.52956 0.97145
 N138 N 0.03062 0.53023 0.97094
 C139 C 0.01287 0.55412 0.95123
 C140 C 0.03089 0.57866 0.93090
 C141 C 0.08528 0.55368 0.95149
 C142 C -0.04509 0.44710 0.99036
 C143 C -0.06546 0.42306 0.97180
 C144 C -0.04442 0.44835 0.91739
 C145 C -0.02446 0.47195 0.93701
 N146 N -0.02524 0.47097 0.97284
 H147 H 0.07980 0.51094 0.98798
 H148 H -0.01541 0.55436 0.95170
 H149 H 0.01622 0.59736 0.91530
 H150 H 0.11354 0.55332 0.95288
 H151 H -0.04467 0.44647 1.01886
 H152 H -0.08053 0.40383 0.98627
 H153 H -0.04358 0.44961 0.88889
 H154 H -0.00796 0.49060 0.92354
 C155 C 0.07217 0.42354 1.06642
 C156 C -0.06108 0.57893 1.06871
 C157 C -0.06515 0.42336 0.93478
 C158 C 0.06760 0.57888 0.93112
 C159 C 1.04557 -0.00836 0.55285
 H160 H 1.04545 0.02002 0.55265
 C161 C 1.06611 -0.02643 0.57724
 H162 H 1.08221 -0.01172 0.59541
 C163 C 1.02435 -0.06185 0.52947
 H164 H 1.00740 -0.07554 0.51138
 C165 C 1.04451 -0.08100 0.55345
 H166 H 1.04281 -0.10934 0.55351
 N167 N 1.02530 -0.02619 0.52957
 C168 C 1.00534 0.04839 0.44477
 H169 H 0.97706 0.04829 0.44477
 C170 C 1.02345 0.06816 0.41979
 H171 H 1.00886 0.08369 0.40094
 C172 C 1.05856 0.02791 0.46931
 H173 H 1.07213 0.01153 0.48809
 C174 C 1.07774 0.04730 0.44476
 H175 H 1.10599 0.04561 0.44498
 Zn176 Zn 0.99610 0.00074 0.49974
 N177 N 1.02301 0.02888 0.46893
 C178 C 0.96869 0.06452 0.52757
 N179 N 0.96786 0.02889 0.52935
 C180 C 0.94842 0.01208 0.55413
 C181 C 0.92856 0.03117 0.57831
 C182 C 0.94924 0.08466 0.55129
 C183 C 0.98512 -0.04909 0.44724
 C184 C 0.96624 -0.06983 0.42373
 C185 C 0.91276 -0.04798 0.44964
 C186 C 0.93270 -0.02766 0.47271
 N187 N 0.96822 -0.02864 0.47115
 H188 H 0.98488 0.07743 0.50819
 H189 H 0.94881 -0.01627 0.55540
 H190 H 0.91385 0.01725 0.59827
 H191 H 0.95013 0.11299 0.54942
 H192 H 1.01338 -0.04882 0.44612
 H193 H 0.98022 -0.08533 0.40441
 H194 H 0.88453 -0.04692 0.45130
 H195 H 0.91973 -0.01070 0.49138
 C196 C 1.06016 0.06760 0.41940
 C197 C 1.06555 -0.06326 0.57795
 C198 C 0.92953 -0.06929 0.42459
 C199 C 0.92894 0.06799 0.57721
 C200 C 0.12792 0.34399 1.12401
 C201 C 0.09478 0.35485 1.13523
 C202 C 0.07692 0.38114 1.11687
 C203 C 0.15929 0.29123 1.15649
 C204 C 0.12553 0.38615 1.07618
 C205 C 0.14336 0.35985 1.09461
 C206 C 0.14535 0.31559 1.14184
 C207 C 0.09196 0.39691 1.08695
 H208 H 0.08250 0.34259 1.15782
 H209 H 0.05093 0.38843 1.12552
 H210 H 0.13797 0.39806 1.05352
 H211 H 0.16900 0.35162 1.08569
 C212 C -0.11883 0.65783 1.12514
 C213 C -0.08802 0.66663 1.10737
 C214 C -0.06921 0.64095 1.08919
 C215 C -0.15379 0.70789 1.15813
 C216 C -0.11197 0.59736 1.10651
 C217 C -0.13077 0.62314 1.12473
 C218 C -0.13818 0.68466 1.14335
 C219 C -0.08096 0.60600 1.08853
 H220 H -0.07864 0.69343 1.10737
 H221 H -0.04579 0.64859 1.07514
 H222 H -0.12150 0.57064 1.10678
 H223 H -0.15458 0.61604 1.13843
 C224 C -0.12250 0.34480 0.87788
 C225 C -0.08930 0.35503 0.86636
 C226 C -0.07087 0.38095 0.88452
 C227 C -0.15544 0.29308 0.84559
 C228 C -0.11902 0.38682 0.92566
 C229 C -0.13741 0.36089 0.90743
 C230 C -0.14067 0.31692 0.86014
 C231 C -0.08541 0.39697 0.91456
 H232 H -0.07743 0.34260 0.84363
 H233 H -0.04487 0.38781 0.87560
 H234 H -0.13109 0.39895 0.94841
 H235 H -0.16311 0.35316 0.91658
 C236 C 0.12443 0.65814 0.87439
 C237 C 0.09355 0.66673 0.89219
 C238 C 0.07507 0.64093 0.91048
 C239 C 0.15848 0.70853 0.84104
 C240 C 0.11831 0.59765 0.89326
 C241 C 0.13678 0.62356 0.87492
 C242 C 0.14335 0.68512 0.85598
 C243 C 0.08721 0.60607 0.91124
 H244 H 0.08385 0.69345 0.89209
 H245 H 0.05157 0.64841 0.92454
 H246 H 0.12813 0.57100 0.89308
 H247 H 0.16065 0.61663 0.86120
 C248 C 1.11770 0.12325 0.33967
 C249 C 1.08665 0.10594 0.33105
 C250 C 1.06788 0.08803 0.35700
 C251 C 1.15275 0.15580 0.28927
 C252 C 1.11115 0.10474 0.40047
 C253 C 1.12990 0.12268 0.37443
 C254 C 1.13705 0.14119 0.31259
 C255 C 1.07992 0.08717 0.39203
 H256 H 1.07705 0.10609 0.30419
 H257 H 1.04427 0.07432 0.34951
 H258 H 1.12090 0.10486 0.42725
 H259 H 1.15389 0.13603 0.38139
 C260 C 1.12321 -0.12058 0.65648
 C261 C 1.10629 -0.08925 0.66530
 C262 C 1.08774 -0.07055 0.63973
 C263 C 1.15685 -0.15535 0.70639
 C264 C 1.10303 -0.11447 0.59620
 C265 C 1.12161 -0.13315 0.62187
 C266 C 1.14177 -0.13984 0.68323
 C267 C 1.08584 -0.08295 0.60487
 H268 H 1.10723 -0.07937 0.69205
 H269 H 1.07434 -0.04671 0.64741
 H270 H 1.10235 -0.12451 0.56953
 H271 H 1.13466 -0.15738 0.61475
 C272 C 0.87231 -0.12708 0.34642
 C273 C 0.86103 -0.09366 0.35661
 C274 C 0.87920 -0.07514 0.38255
 C275 C 0.84091 -0.15981 0.29386
 C276 C 0.91977 -0.12369 0.38860
 C277 C 0.90153 -0.14217 0.36267
 C278 C 0.85492 -0.14514 0.31817
 C279 C 0.90901 -0.08981 0.39859
 H280 H 0.83857 -0.08164 0.34404
 H281 H 0.87054 -0.04894 0.38928
 H282 H 0.94234 -0.13586 0.40076
 H283 H 0.91051 -0.16802 0.35495
 C284 C 0.87352 0.12610 0.65667
 C285 C 0.85815 0.09659 0.64125
 C286 C 0.87587 0.07803 0.61496
 C287 C 0.84196 0.15856 0.70943
 C288 C 0.92425 0.11879 0.61905
 C289 C 0.90648 0.13730 0.64535
 C290 C 0.85614 0.14402 0.68509
 C291 C 0.90927 0.08874 0.60377
 H292 H 0.83264 0.08770 0.64983
 H293 H 0.86347 0.05527 0.60342
 H294 H 0.95011 0.12743 0.61138
 H295 H 0.91871 0.15999 0.65726
 C296 C 0.34229 1.11889 0.12564
 C297 C 0.37654 1.13173 0.12503
 C298 C 0.40275 1.11327 0.10714
 C299 C 0.29138 1.15334 0.15773
 C300 C 0.36046 1.06898 0.09059
 C301 C 0.33436 1.08746 0.10846
 C302 C 0.31498 1.13797 0.14337
 C303 C 0.39497 1.08167 0.08967
 H304 H 0.38297 1.15604 0.13829
 H305 H 0.42912 1.12353 0.10719
 H306 H 0.35346 1.04509 0.07692
 H307 H 0.30790 1.07737 0.10861
 C308 C 0.65500 1.12613 -0.12287
 C309 C 0.64449 1.09294 -0.13443
 C310 C 0.61848 1.07464 -0.11627
 C311 C 0.70721 1.15847 -0.15491
 C312 C 0.61301 1.12291 -0.07509
 C313 C 0.63904 1.14118 -0.09333
 C314 C 0.68312 1.14403 -0.14048
 C315 C 0.60264 1.08928 -0.08619
 H316 H 0.65683 1.08096 -0.15715
 H317 H 0.61146 1.04862 -0.12518
 H318 H 0.60104 1.13505 -0.05230
 H319 H 0.64698 1.16685 -0.08414
 C320 C 0.34351 0.87720 -0.12449
 C321 C 0.37811 0.86518 -0.12442
 C322 C 0.40388 0.88383 -0.10620
 C323 C 0.29345 0.84295 -0.15785
 C324 C 0.36043 0.92657 -0.08819
 C325 C 0.33477 0.90791 -0.10636
 C326 C 0.31670 0.85815 -0.14288
 C327 C 0.39531 0.91477 -0.08790
 H328 H 0.38516 0.84145 -0.13842
 H329 H 0.43055 0.87427 -0.10675
 H330 H 0.35286 0.94993 -0.07387
 H331 H 0.30804 0.91736 -0.10611
 C332 C 0.65913 0.87371 0.12044
 C333 C 0.62475 0.87431 0.13309
 C334 C 0.59880 0.89251 0.11454
 C335 C 0.70945 0.84091 0.15511
 C336 C 0.64160 0.90939 0.07058
 C337 C 0.66745 0.89122 0.08914
 C338 C 0.68614 0.85560 0.13961
 C339 C 0.60696 0.91029 0.08307
 H340 H 0.61802 0.86081 0.15728
 H341 H 0.57233 0.89242 0.12464
 H342 H 0.64887 0.92327 0.04678
 H343 H 0.69401 0.89106 0.07920
   
