data_POSCAR
  _audit_creation_date              2014-09-24
  _audit_creation_method            'ToBaCCo'
  _symmetry_space_group_name_H-M    'P1'
  _symmetry_Int_Tables_number       1
  _symmetry_cell_setting            triclinic
  loop_
  _symmetry_equiv_pos_as_xyz
 x,y,z
_cell_length_a 24.5575
_cell_length_b 31.2590
_cell_length_c 6.2160
_cell_angle_alpha 89.994100
_cell_angle_beta 89.998900
_cell_angle_gamma 90.240100
loop_
  _atom_site_label
  _atom_site_type_symbol
  _atom_site_fract_x
  _atom_site_fract_y
  _atom_site_fract_z
O1 O 0.23609 0.29132 -0.01958
 O2 O 0.31805 0.20787 0.24089
 O3 O 0.23556 0.20714 -0.01897
 O4 O 0.31820 0.29077 0.24156
 O5 O 0.26217 0.29119 0.51953
 O6 O 0.17940 0.20780 0.25835
 O7 O 0.26193 0.20714 0.51858
 O8 O 0.18007 0.29077 0.25844
 Cu9 Cu 0.28256 0.24926 0.08296
 Cu10 Cu 0.21526 0.24919 0.41659
 C11 C 0.19425 0.30545 0.07652
 C12 C 0.30397 0.19323 0.42295
 C13 C 0.19337 0.19308 0.07637
 C14 C 0.30421 0.30532 0.42377
 O15 O 0.81854 0.29106 0.26178
 O16 O 0.73590 0.20742 0.52235
 O17 O 0.81834 0.20811 0.26234
 O18 O 0.73637 0.29156 0.52282
 O19 O 0.68037 0.29101 0.24474
 O20 O 0.76221 0.20739 -0.01529
 O21 O 0.67973 0.20809 0.24502
 O22 O 0.76252 0.29149 -0.01620
 Cu23 Cu 0.78290 0.24953 0.42028
 Cu24 Cu 0.71560 0.24947 0.08664
 C25 C 0.80454 0.30563 0.07962
 C26 C 0.69369 0.19339 0.42707
 C27 C 0.80422 0.19343 0.08041
 C28 C 0.69449 0.30565 0.42678
 O29 O 0.73805 0.79285 0.48048
 O30 O 0.81987 0.70923 0.74049
 O31 O 0.73760 0.70873 0.47994
 O32 O 0.82040 0.79213 0.74117
 O33 O 0.76421 0.79279 1.01842
 O34 O 0.68160 0.70916 0.75798
 O35 O 0.76389 0.70867 1.01863
 O36 O 0.68190 0.79212 0.75805
 Cu37 Cu 0.78458 0.75075 0.58256
 Cu38 Cu 0.71729 0.75068 0.91620
 C39 C 0.69606 0.80683 0.57620
 C40 C 0.80579 0.69461 0.92263
 C41 C 0.69557 0.69459 0.57580
 C42 C 0.80642 0.80683 0.92318
 O43 O 0.18084 0.79103 0.73915
 O44 O 0.26267 0.70741 0.47914
 O45 O 0.18031 0.70806 0.73993
 O46 O 0.26313 0.79146 0.47856
 O47 O 0.31912 0.79103 0.75663
 O48 O 0.23651 0.70740 1.01713
 O49 O 0.31882 0.70813 0.75675
 O50 O 0.23683 0.79158 1.01723
 Cu51 Cu 0.21611 0.74947 0.58132
 Cu52 Cu 0.28341 0.74954 0.91494
 C53 C 0.19496 0.80568 0.92115
 C54 C 0.30469 0.69346 0.57479
 C55 C 0.19434 0.69332 0.92183
 C56 C 0.30518 0.80556 0.57433
 C57 C 0.95060 -0.08978 0.06895
 C58 C 1.00022 -0.11134 0.08059
 C59 C 1.04978 -0.08936 0.06798
 C60 C 1.05012 -0.04462 0.03640
 C61 C 1.00001 -0.02248 0.01928
 C62 C 0.95004 -0.04507 0.03789
 C63 C 0.90085 -0.02259 0.01947
 C64 C 0.90071 0.02145 -0.01519
 C65 C 0.94975 0.04438 -0.03611
 C66 C 0.99986 0.02225 -0.01895
 C67 C 1.09916 -0.02168 0.01552
 C68 C 1.09902 0.02237 -0.01912
 C69 C 1.04983 0.04485 -0.03755
 C70 C 1.04925 0.08956 -0.06863
 C71 C 0.99962 0.11111 -0.08033
 C72 C 0.95007 0.08911 -0.06781
 H73 H 0.86200 -0.03888 0.03129
 H74 H 0.86174 0.03734 -0.02466
 H75 H 1.13813 -0.03758 0.02502
 H76 H 1.13787 0.03865 -0.03092
 H77 H 1.00026 -0.14575 0.10172
 H78 H 0.99955 0.14552 -0.10150
 C79 C 0.54965 0.58935 0.42808
 C80 C 0.50008 0.61096 0.41468
 C81 C 0.45046 0.58908 0.42736
 C82 C 0.44996 0.54442 0.46075
 C83 C 0.49997 0.52221 0.47998
 C84 C 0.55004 0.54468 0.46142
 C85 C 0.59911 0.52213 0.48254
 C86 C 0.59905 0.47814 0.51907
 C87 C 0.54990 0.45534 0.53958
 C88 C 0.49990 0.47755 0.52040
 C89 C 0.40082 0.52162 0.48132
 C90 C 0.40075 0.47764 0.51788
 C91 C 0.44983 0.45509 0.53897
 C92 C 0.45020 0.41043 0.57232
 C93 C 0.49975 0.38880 0.58564
 C94 C 0.54938 0.41066 0.57287
 H95 H 0.63806 0.53828 0.47163
 H96 H 0.63795 0.46219 0.53048
 H97 H 0.36191 0.53756 0.46996
 H98 H 0.36180 0.46149 0.52883
 H99 H 0.50013 0.64534 0.39212
 H100 H 0.49968 0.35443 0.60816
 C101 C 0.05025 0.58985 0.06799
 C102 C 0.00076 0.61156 0.08073
 C103 C -0.04892 0.58974 0.06915
 C104 C -0.04952 0.54502 0.03742
 C105 C 0.00043 0.52271 0.01910
 C106 C 0.05054 0.54514 0.03682
 C107 C 0.09959 0.52250 0.01750
 C108 C 0.09945 0.47845 -0.01723
 C109 C 0.05025 0.45568 -0.03738
 C110 C 0.00029 0.47799 -0.01938
 C111 C -0.09871 0.52225 0.01774
 C112 C -0.09887 0.47821 -0.01707
 C113 C -0.04984 0.45557 -0.03719
 C114 C -0.04955 0.41085 -0.06879
 C115 C -0.00004 0.38915 -0.08113
 C116 C 0.04964 0.41095 -0.06903
 H117 H 0.13854 0.53865 0.02873
 H118 H 0.13831 0.46242 -0.02738
 H119 H -0.13758 0.53826 0.02842
 H120 H -0.13785 0.46210 -0.02738
 H121 H 0.00091 0.64597 0.10194
 H122 H -0.00018 0.35474 -0.10258
 C123 C 0.45120 0.91073 0.42691
 C124 C 0.50089 0.88927 0.41461
 C125 C 0.55039 0.91130 0.42837
 C126 C 0.55062 0.95598 0.46168
 C127 C 0.50047 0.97802 0.47972
 C128 C 0.45054 0.95539 0.46022
 C129 C 0.40132 0.97777 0.48044
 C130 C 0.40109 1.02175 0.51699
 C131 C 0.45009 1.04471 0.53832
 C132 C 0.50023 1.02268 0.51997
 C133 C 0.59962 0.97894 0.48347
 C134 C 0.59939 1.02293 0.51991
 C135 C 0.55015 1.04531 0.53935
 C136 C 0.54948 1.08997 0.57225
 C137 C 0.49981 1.11143 0.58498
 C138 C 0.45031 1.08939 0.57174
 H139 H 0.36247 0.96149 0.46886
 H140 H 0.36209 1.03756 0.52772
 H141 H 0.63862 0.96311 0.47327
 H142 H 0.63820 1.03925 0.53237
 H143 H 0.50104 0.85489 0.39208
 H144 H 0.49967 1.14582 0.60727
 N145 N 1.13405 0.11309 -0.23920
 N146 N 1.17348 0.14149 -0.20603
 C147 C 1.16198 0.16113 -0.01808
 C148 C 1.11440 0.14403 0.06280
 N149 N 1.09857 0.11410 -0.07883
 H150 H 1.09309 0.15257 0.20910
 N151 N 0.63583 0.61120 0.26227
 N152 N 0.67537 0.63953 0.29483
 C153 C 0.66256 0.66078 0.47679
 C154 C 0.61414 0.64478 0.55466
 N155 N 0.59905 0.61380 0.41752
 H156 H 0.59199 0.65457 0.69690
 N157 N -0.13578 0.38902 -0.23418
 N158 N -0.17531 0.36069 -0.20148
 C159 C -0.16248 0.33946 -0.01944
 C160 C -0.11407 0.35548 0.05833
 N161 N -0.09900 0.38645 -0.07893
 H162 H -0.09189 0.34570 0.20052
 N163 N 0.36529 0.88865 0.25976
 N164 N 0.32569 0.86037 0.29238
 C165 C 0.33831 0.83928 0.47502
 C166 C 0.38668 0.85530 0.55320
 N167 N 0.40192 0.88614 0.41555
 H168 H 0.40866 0.84565 0.69611
 N169 N -0.13492 0.61130 0.23552
 N170 N -0.17429 0.63953 0.20333
 C171 C -0.16143 0.66083 0.02133
 C172 C -0.11315 0.64497 -0.05692
 N173 N -0.09820 0.61401 0.07999
 H174 H -0.09099 0.65485 -0.19925
 N175 N 0.36400 1.11045 0.73727
 N176 N 0.32429 1.13836 0.70430
 C177 C 0.33701 1.15966 0.52214
 C178 C 0.38555 1.14415 0.44466
 N179 N 0.40080 1.11339 0.58217
 H180 H 0.40770 1.15413 0.30246
 N181 N 1.13607 -0.11066 0.23284
 N182 N 1.17538 -0.13895 0.20072
 C183 C 1.16230 -0.16043 0.01952
 C184 C 1.11396 -0.14461 -0.05835
 N185 N 1.09919 -0.11349 0.07797
 H186 H 1.09161 -0.15465 -0.19991
 N187 N 0.63545 0.38917 0.73892
 N188 N 0.67476 0.36088 0.70691
 C189 C 0.66180 0.33950 0.52526
 C190 C 0.61354 0.35538 0.44702
 N191 N 0.59869 0.38643 0.58358
 H192 H 0.59130 0.34544 0.30499
 N193 N 0.86579 -0.11330 0.23936
 N194 N 0.82633 -0.14166 0.20591
 C195 C 0.83782 -0.16125 0.01783
 C196 C 0.88542 -0.14417 -0.06286
 N197 N 0.90128 -0.11430 0.07902
 H198 H 0.90673 -0.15268 -0.20922
 N199 N 0.36403 0.38857 0.73802
 N200 N 0.32446 0.36027 0.70519
 C201 C 0.33724 0.33910 0.52300
 C202 C 0.38567 0.35509 0.44528
 N203 N 0.40079 0.38599 0.58274
 H204 H 0.40781 0.34534 0.30294
 N205 N 0.13525 0.61321 0.23741
 N206 N 0.17465 0.64163 0.20402
 C207 C 0.16303 0.66131 0.01627
 C208 C 0.11544 0.64421 -0.06431
 N209 N 0.09970 0.61423 0.07730
 H210 H 0.09401 0.65281 -0.21026
 N211 N 0.63421 1.11353 0.74314
 N212 N 0.67369 1.14189 0.70982
 C213 C 0.66225 1.16148 0.52169
 C214 C 0.61465 1.14442 0.44086
 N215 N 0.59876 1.11455 0.58271
 H216 H 0.59339 1.15292 0.29439
 N217 N 0.13571 0.38935 -0.23463
 N218 N 0.17485 0.36090 -0.20290
 C219 C 0.16171 0.33943 -0.02168
 C220 C 0.11352 0.35543 0.05661
 N221 N 0.09889 0.38664 -0.07948
 H222 H 0.09118 0.34547 0.19835
 N223 N 0.63678 0.89020 0.26361
 N224 N 0.67626 0.86207 0.29614
 C225 C 0.66326 0.84060 0.47750
 C226 C 0.61480 0.85625 0.55501
 N227 N 0.59987 0.88725 0.41832
 H228 H 0.59248 0.84618 0.69662
 N229 N 0.86375 0.11029 -0.23288
 N230 N 0.82421 0.13836 -0.20019
 C231 C 0.83711 0.15974 -0.01848
 C232 C 0.88558 0.14411 0.05905
 N233 N 0.90062 0.11320 -0.07799
 H234 H 0.90783 0.15411 0.20094
 N235 N 0.36437 0.61046 0.26108
 N236 N 0.32483 0.63853 0.29366
 C237 C 0.33760 0.65981 0.47581
 C238 C 0.38600 0.64411 0.55371
 N239 N 0.40111 0.61327 0.41645
 H240 H 0.40814 0.65401 0.69607
   
