data_POSCAR
  _audit_creation_date              2014-09-24
  _audit_creation_method            'ToBaCCo'
  _symmetry_space_group_name_H-M    'P1'
  _symmetry_Int_Tables_number       1
  _symmetry_cell_setting            triclinic
  loop_
  _symmetry_equiv_pos_as_xyz
 x,y,z
_cell_length_a 43.7175
_cell_length_b 42.1150
_cell_length_c 41.2733
_cell_angle_alpha 90.039700
_cell_angle_beta 89.987200
_cell_angle_gamma 89.941600
loop_
  _atom_site_label
  _atom_site_type_symbol
  _atom_site_fract_x
  _atom_site_fract_y
  _atom_site_fract_z
N1 N 0.58552 0.67121 0.60801
 N2 N 0.56424 0.65200 0.61910
 C3 C 0.53747 0.66773 0.62070
 C4 C 0.54243 0.69856 0.61054
 C5 C 0.57316 0.70003 0.60279
 H6 H 0.51631 0.65789 0.62982
 H7 H 0.58559 0.72050 0.59402
 Cu8 Cu 0.57401 0.60945 0.63390
 Cu9 Cu 0.62763 0.65739 0.60121
 Cu10 Cu 0.64105 0.57750 0.61284
 N11 N 0.59122 0.57370 0.65764
 N12 N 0.61832 0.56222 0.65025
 C13 C 0.62623 0.54008 0.67217
 C14 C 0.60264 0.53733 0.69433
 C15 C 0.58058 0.55877 0.68421
 H16 H 0.64767 0.52720 0.67211
 H17 H 0.55918 0.56425 0.69614
 N18 N 0.66808 0.60424 0.58687
 N19 N 0.66410 0.63517 0.58391
 C20 C 0.68628 0.64685 0.56461
 C21 C 0.70467 0.62188 0.55478
 C22 C 0.69248 0.59524 0.56931
 H23 H 0.68788 0.67130 0.55679
 H24 H 0.70046 0.57104 0.56686
 H25 H 0.61258 0.61280 0.59147
 H26 H 0.62899 0.61940 0.63279
 N27 N 0.91506 0.32620 0.10261
 N28 N 0.92557 0.33717 0.13029
 C29 C 0.94954 0.31929 0.13970
 C30 C 0.95468 0.29641 0.11625
 C31 C 0.93251 0.30160 0.09295
 H32 H 0.96265 0.32291 0.16162
 H33 H 0.92879 0.28788 0.07114
 Cu34 Cu 0.90772 0.37468 0.15041
 Cu35 Cu 0.87802 0.34284 0.08258
 Cu36 Cu 0.84417 0.40789 0.11970
 N37 N 0.88938 0.41220 0.17001
 N38 N 0.86361 0.42399 0.15881
 C39 C 0.85502 0.44869 0.17743
 C40 C 0.87691 0.45297 0.20112
 C41 C 0.89849 0.42957 0.19571
 H42 H 0.83479 0.46299 0.17360
 H43 H 0.91895 0.42531 0.20976
 N44 N 0.82798 0.38830 0.07991
 N45 N 0.84034 0.36301 0.06621
 C46 C 0.82330 0.35463 0.04035
 C47 C 0.79952 0.37602 0.03745
 C48 C 0.80320 0.39708 0.06274
 H49 H 0.82796 0.33471 0.02456
 H50 H 0.78855 0.41702 0.06843
 H51 H 0.88326 0.38873 0.09930
 H52 H 0.85931 0.36150 0.12438
 N53 N 0.41401 0.17338 -0.10863
 N54 N 0.43542 0.15446 -0.12007
 C55 C 0.46200 0.17045 -0.12175
 C56 C 0.45679 0.20116 -0.11130
 C57 C 0.42610 0.20230 -0.10329
 H58 H 0.48322 0.16084 -0.13101
 H59 H 0.41354 0.22256 -0.09415
 Cu60 Cu 0.42606 0.11183 -0.13484
 Cu61 Cu 0.37218 0.15893 -0.10141
 Cu62 Cu 0.36033 0.07852 -0.11180
 N63 N 0.40922 0.07548 -0.15786
 N64 N 0.38276 0.06316 -0.14946
 C65 C 0.37505 0.04042 -0.17083
 C66 C 0.39808 0.03823 -0.19364
 C67 C 0.41955 0.06064 -0.18463
 H68 H 0.35405 0.02687 -0.17011
 H69 H 0.44032 0.06674 -0.19744
 N70 N 0.33303 0.10512 -0.08586
 N71 N 0.33638 0.13618 -0.08341
 C72 C 0.31406 0.14771 -0.06415
 C73 C 0.29625 0.12253 -0.05381
 C74 C 0.30893 0.09592 -0.06801
 H75 H 0.31194 0.17226 -0.05675
 H76 H 0.30142 0.07161 -0.06521
 H77 H 0.38831 0.11474 -0.09152
 H78 H 0.37086 0.12041 -0.13247
 N79 N 0.08477 0.82630 0.39729
 N80 N 0.07430 0.83724 0.36958
 C81 C 0.05031 0.81942 0.36017
 C82 C 0.04512 0.79663 0.38364
 C83 C 0.06727 0.80178 0.40695
 H84 H 0.03723 0.82304 0.33823
 H85 H 0.07096 0.78809 0.42877
 Cu86 Cu 0.09223 0.87461 0.34943
 Cu87 Cu 0.12185 0.84282 0.41730
 Cu88 Cu 0.15585 0.90762 0.38009
 N89 N 0.11064 0.91201 0.32979
 N90 N 0.13643 0.92374 0.34098
 C91 C 0.14503 0.94838 0.32236
 C92 C 0.12315 0.95270 0.29867
 C93 C 0.10155 0.92937 0.30409
 H94 H 0.16527 0.96263 0.32620
 H95 H 0.08107 0.92516 0.29004
 N96 N 0.17201 0.88803 0.41989
 N97 N 0.15957 0.86285 0.43364
 C98 C 0.17661 0.85443 0.45948
 C99 C 0.20048 0.87568 0.46233
 C100 C 0.19685 0.89670 0.43701
 H101 H 0.17190 0.83457 0.47530
 H102 H 0.21158 0.91653 0.43128
 H103 H 0.11672 0.88869 0.40053
 H104 H 0.14060 0.86129 0.37548
 N105 N 0.08431 0.17313 0.10262
 N106 N 0.07352 0.16182 0.13004
 C107 C 0.04939 0.17955 0.13939
 C108 C 0.04450 0.20255 0.11616
 C109 C 0.06686 0.19778 0.09308
 H110 H 0.03603 0.17577 0.16110
 H111 H 0.07071 0.21182 0.07154
 Cu112 Cu 0.09123 0.12416 0.14989
 Cu113 Cu 0.12164 0.15686 0.08285
 Cu114 Cu 0.15582 0.09219 0.12023
 N115 N 0.11010 0.08719 0.16996
 N116 N 0.13623 0.07589 0.15916
 C117 C 0.14505 0.05147 0.17800
 C118 C 0.12296 0.04686 0.20141
 C119 C 0.10102 0.06979 0.19562
 H120 H 0.16558 0.03754 0.17447
 H121 H 0.08029 0.07369 0.20937
 N122 N 0.17213 0.11191 0.08058
 N123 N 0.15961 0.13704 0.06677
 C124 C 0.17672 0.14552 0.04100
 C125 C 0.20072 0.12437 0.03827
 C126 C 0.19709 0.10333 0.06357
 H127 H 0.17195 0.16534 0.02514
 H128 H 0.21187 0.08353 0.06935
 H129 H 0.11683 0.11080 0.09915
 H130 H 0.13985 0.13830 0.12491
 N131 N 0.41396 0.82676 0.60885
 N132 N 0.43536 0.84569 0.62020
 C133 C 0.46198 0.82972 0.62179
 C134 C 0.45682 0.79901 0.61135
 C135 C 0.42611 0.79784 0.60347
 H136 H 0.48321 0.83934 0.63097
 H137 H 0.41357 0.77758 0.59437
 Cu138 Cu 0.42593 0.88831 0.63501
 Cu139 Cu 0.37207 0.84118 0.60179
 Cu140 Cu 0.36004 0.92159 0.61226
 N141 N 0.40906 0.92463 0.65812
 N142 N 0.38254 0.93693 0.64984
 C143 C 0.37485 0.95967 0.67126
 C144 C 0.39796 0.96187 0.69396
 C145 C 0.41945 0.93948 0.68485
 H146 H 0.35381 0.97321 0.67062
 H147 H 0.44028 0.93339 0.69756
 N148 N 0.33274 0.89497 0.58641
 N149 N 0.33616 0.86392 0.58393
 C150 C 0.31383 0.85238 0.56471
 C151 C 0.29594 0.87755 0.55444
 C152 C 0.30857 0.90417 0.56862
 H153 H 0.31177 0.82784 0.55729
 H154 H 0.30101 0.92848 0.56584
 H155 H 0.38804 0.88539 0.59186
 H156 H 0.37074 0.87970 0.63287
 N157 N 0.91556 0.67352 0.39724
 N158 N 0.92603 0.66254 0.36952
 C159 C 0.95006 0.68033 0.36013
 C160 C 0.95522 0.70302 0.38363
 C161 C 0.93311 0.69800 0.40692
 H162 H 0.96318 0.67679 0.33821
 H163 H 0.92952 0.71178 0.42872
 Cu164 Cu 0.90806 0.62520 0.34932
 Cu165 Cu 0.87848 0.65704 0.41726
 Cu166 Cu 0.84444 0.59225 0.38000
 N167 N 0.88960 0.58783 0.32962
 N168 N 0.86380 0.57614 0.34083
 C169 C 0.85515 0.55152 0.32216
 C170 C 0.87701 0.54719 0.29844
 C171 C 0.89865 0.57048 0.30388
 H172 H 0.83489 0.53730 0.32600
 H173 H 0.91913 0.57466 0.28982
 N174 N 0.82833 0.61182 0.41986
 N175 N 0.84075 0.63702 0.43361
 C176 C 0.82375 0.64542 0.45950
 C177 C 0.79992 0.62413 0.46239
 C178 C 0.80354 0.60310 0.43704
 H179 H 0.82846 0.66528 0.47534
 H180 H 0.78885 0.58324 0.43134
 H181 H 0.88360 0.61117 0.40043
 H182 H 0.85971 0.63857 0.37543
 N183 N 0.58519 0.32901 -0.10811
 N184 N 0.56386 0.34821 -0.11918
 C185 C 0.53713 0.33247 -0.12078
 C186 C 0.54217 0.30164 -0.11065
 C187 C 0.57290 0.30018 -0.10291
 H188 H 0.51595 0.34230 -0.12989
 H189 H 0.58537 0.27972 -0.09415
 Cu190 Cu 0.57354 0.39078 -0.13394
 Cu191 Cu 0.62726 0.34285 -0.10129
 Cu192 Cu 0.64047 0.42277 -0.11278
 N193 N 0.59064 0.42662 -0.15759
 N194 N 0.61771 0.43810 -0.15016
 C195 C 0.62562 0.46019 -0.17213
 C196 C 0.60203 0.46295 -0.19418
 C197 C 0.58006 0.44150 -0.18421
 H198 H 0.64709 0.47295 -0.17228
 H199 H 0.55882 0.43592 -0.19637
 N200 N 0.66755 0.39602 -0.08685
 N201 N 0.66364 0.36508 -0.08394
 C202 C 0.68585 0.35338 -0.06466
 C203 C 0.70417 0.37835 -0.05478
 C204 C 0.69192 0.40500 -0.06927
 H205 H 0.68752 0.32892 -0.05688
 H206 H 0.69983 0.42921 -0.06679
 H207 H 0.61208 0.38742 -0.09151
 H208 H 0.62855 0.38090 -0.13282
 N209 N -0.01754 0.25525 0.08928
 C210 C -0.02283 0.27296 0.11623
 N211 N -0.00583 0.26732 0.14317
 N212 N 0.01541 0.24461 0.14327
 C213 C 0.02085 0.22718 0.11621
 N214 N 0.00414 0.23299 0.08916
 N215 N 0.52972 0.75529 0.60995
 C216 C 0.52015 0.72464 0.60992
 N217 N 0.48967 0.71852 0.60999
 N218 N 0.46946 0.74223 0.60998
 C219 C 0.47904 0.77288 0.61033
 N220 N 0.50951 0.77899 0.61036
 N221 N 1.01725 0.75561 0.41060
 C222 C 1.02260 0.77325 0.38365
 N223 N 1.00563 0.76761 0.35668
 N224 N 0.98437 0.74496 0.35657
 C225 C 0.97887 0.72761 0.38362
 N226 N 0.99555 0.73342 0.41070
 N227 N 0.50944 0.22119 -0.11043
 C228 C 0.47895 0.22729 -0.11033
 N229 N 0.46930 0.25794 -0.10995
 N230 N 0.48946 0.28165 -0.11000
 C231 C 0.51995 0.27555 -0.11001
 N232 N 0.52959 0.24490 -0.11007
 N233 N 0.09620 -0.01168 0.26122
 C234 C 0.12298 -0.02290 0.27333
 N235 N 0.14968 -0.01102 0.26180
 N236 N 0.14964 0.01108 0.23873
 C237 C 0.12288 0.02251 0.22680
 N238 N 0.09615 0.01083 0.23853
 N239 N 0.57619 0.51511 -0.26025
 C240 C 0.60213 0.51831 -0.27810
 N241 N 0.62787 0.50307 -0.26822
 N242 N 0.62782 0.48565 -0.24132
 C243 C 0.60187 0.48230 -0.22364
 N244 N 0.57598 0.49713 -0.23367
 N245 N 0.37153 1.00889 0.76360
 C246 C 0.39828 1.01824 0.77726
 N247 N 0.42503 1.00913 0.76334
 N248 N 0.42500 0.99098 0.73686
 C249 C 0.39821 0.98186 0.72306
 N250 N 0.37150 0.99120 0.73685
 N251 N 0.90384 0.48876 0.23841
 C252 C 0.87707 0.47737 0.22649
 N253 N 0.85035 0.48910 0.23822
 N254 N 0.85037 0.51121 0.26132
 C255 C 0.87712 0.52281 0.27305
 N256 N 0.90387 0.51129 0.26112
 N257 N 0.26337 0.09646 -0.01391
 C258 C 0.27099 0.12318 -0.03039
 N259 N 0.25522 0.15036 -0.02443
 N260 N 0.23253 0.15072 -0.00284
 C261 C 0.22512 0.12403 0.01384
 N262 N 0.24099 0.09693 0.00796
 N263 N 0.74528 0.64996 0.52512
 C264 C 0.72990 0.62263 0.53133
 N265 N 0.73785 0.59588 0.51503
 N266 N 0.76016 0.59644 0.49308
 C267 C 0.77563 0.62368 0.48694
 N268 N 0.76791 0.65042 0.50345
 N269 N 0.75972 0.40376 0.00679
 C270 C 0.77521 0.37649 0.01293
 N271 N 0.76747 0.34974 -0.00353
 N272 N 0.74481 0.35022 -0.02515
 C273 C 0.72943 0.37758 -0.03137
 N274 N 0.73739 0.40434 -0.01512
 N275 N 0.24059 0.90316 0.49273
 C276 C 0.22483 0.87605 0.48680
 N277 N 0.23232 0.84934 0.50345
 N278 N 0.25500 0.84971 0.52504
 C279 C 0.27067 0.87691 0.53104
 N280 N 0.26296 0.90364 0.51460
   
