data_POSCAR
  _audit_creation_date              2014-09-24
  _audit_creation_method            'ToBaCCo'
  _symmetry_space_group_name_H-M    'P1'
  _symmetry_Int_Tables_number       1
  _symmetry_cell_setting            triclinic
  loop_
  _symmetry_equiv_pos_as_xyz
 x,y,z
_cell_length_a 42.1150
_cell_length_b 42.1123
_cell_length_c 14.4049
_cell_angle_alpha 89.992500
_cell_angle_beta 89.982400
_cell_angle_gamma 119.941400
loop_
  _atom_site_label
  _atom_site_type_symbol
  _atom_site_fract_x
  _atom_site_fract_y
  _atom_site_fract_z
C1 C 0.17799 0.49274 0.58562
 C2 C 0.16254 0.49382 0.49996
 C3 C 0.17768 0.49192 0.41449
 C4 C 0.21188 0.49263 0.41483
 C5 C 0.22849 0.49233 0.50049
 C6 C 0.21229 0.49378 0.58564
 C7 C 0.23239 0.49905 0.66783
 C8 C 0.26468 0.49776 0.66830
 C9 C 0.27879 0.49134 0.58647
 C10 C 0.26186 0.49123 0.50100
 C11 C 0.23141 0.49628 0.33240
 C12 C 0.26365 0.49489 0.33287
 C13 C 0.27846 0.49059 0.41596
 C14 C 0.31045 0.48756 0.41630
 C15 C 0.32650 0.48727 0.50109
 C16 C 0.31084 0.48796 0.58673
 H17 H 0.22446 0.50595 0.73267
 H18 H 0.27913 0.50360 0.73350
 H19 H 0.22310 0.50182 0.26638
 H20 H 0.27745 0.49852 0.26716
 H21 H 0.13597 0.49184 0.49993
 H22 H 0.34994 0.48325 0.49965
 C23 C 0.51776 -0.17445 0.41455
 C24 C 0.51950 -0.15751 0.49945
 C25 C 0.51782 -0.17446 0.58429
 C26 C 0.51350 -0.21007 0.58450
 C27 C 0.51261 -0.22739 0.49928
 C28 C 0.51347 -0.21004 0.41416
 C29 C 0.50832 -0.22950 0.33131
 C30 C 0.50588 -0.26364 0.33119
 C31 C 0.50945 -0.27961 0.41366
 C32 C 0.51062 -0.26224 0.49920
 C33 C 0.50835 -0.22956 0.66728
 C34 C 0.50588 -0.26370 0.66723
 C35 C 0.50946 -0.27962 0.58467
 C36 C 0.50951 -0.31342 0.58475
 C37 C 0.50749 -0.33044 0.49914
 C38 C 0.50947 -0.31345 0.41350
 H39 H 0.50498 -0.21914 0.26559
 H40 H 0.49975 -0.27772 0.26543
 H41 H 0.50503 -0.21922 0.73306
 H42 H 0.49972 -0.27784 0.73295
 H43 H 0.52428 -0.12973 0.49949
 H44 H 0.50879 -0.35540 0.49917
 C45 C 1.31490 0.82077 0.41495
 C46 C 1.33198 0.83577 0.50042
 C47 C 1.31535 0.82040 0.58609
 C48 C 1.28192 0.78629 0.58609
 C49 C 1.26423 0.77026 0.50095
 C50 C 1.28126 0.78675 0.41530
 C51 C 1.26527 0.76729 0.33289
 C52 C 1.23143 0.73536 0.33333
 C53 C 1.21222 0.72074 0.41640
 C54 C 1.22954 0.73718 0.50145
 C55 C 1.26693 0.76621 0.66826
 C56 C 1.23313 0.73423 0.66875
 C57 C 1.21258 0.72037 0.58693
 C58 C 1.17697 0.68863 0.58717
 C59 C 1.16055 0.67315 0.50151
 C60 C 1.17703 0.68908 0.41673
 H61 H 1.27918 0.77542 0.26691
 H62 H 1.22116 0.72163 0.26763
 H63 H 1.28174 0.77391 0.73308
 H64 H 1.22435 0.71978 0.73395
 H65 H 1.35669 0.86219 0.50039
 H66 H 1.13298 0.64996 0.50005
 C67 C 0.68674 0.51053 0.58722
 C68 C 0.67105 0.51096 0.50138
 C69 C 0.68779 0.51182 0.41672
 C70 C 0.72055 0.51013 0.41675
 C71 C 0.73694 0.50939 0.50218
 C72 C 0.71937 0.50820 0.58736
 C73 C 0.73368 0.50208 0.66932
 C74 C 0.76677 0.50230 0.66951
 C75 C 0.78734 0.50862 0.58773
 C76 C 0.77094 0.50960 0.50237
 C77 C 0.73667 0.50772 0.33362
 C78 C 0.76973 0.50790 0.33380
 C79 C 0.78823 0.51051 0.41712
 C80 C 0.82285 0.51262 0.41742
 C81 C 0.83877 0.51196 0.50217
 C82 C 0.82248 0.51134 0.58791
 H83 H 0.71889 0.49545 0.73415
 H84 H 0.77502 0.49585 0.73447
 H85 H 0.72353 0.50471 0.26724
 H86 H 0.78004 0.50500 0.26754
 H87 H 0.64705 0.51405 0.49978
 H88 H 0.86598 0.51535 0.50071
 C89 C 0.48396 0.17367 0.58501
 C90 C 0.48240 0.15683 0.50004
 C91 C 0.48307 0.17335 0.41518
 C92 C 0.48624 0.20850 0.41501
 C93 C 0.48730 0.22581 0.50045
 C94 C 0.48741 0.20891 0.58547
 C95 C 0.49238 0.22836 0.66833
 C96 C 0.49352 0.26192 0.66873
 C97 C 0.48892 0.27730 0.58649
 C98 C 0.48813 0.26008 0.50089
 C99 C 0.48959 0.22740 0.33198
 C100 C 0.49060 0.26089 0.33232
 C101 C 0.48811 0.27691 0.41566
 C102 C 0.48676 0.30982 0.41598
 C103 C 0.48756 0.32646 0.50079
 C104 C 0.48726 0.31033 0.58659
 H105 H 0.49645 0.21839 0.73384
 H106 H 0.49932 0.27598 0.73447
 H107 H 0.49225 0.21699 0.26564
 H108 H 0.49417 0.27437 0.26619
 H109 H 0.47834 0.12931 0.50003
 H110 H 0.48485 0.35068 0.49926
 C111 C 0.82430 0.31187 0.41558
 C112 C 0.84090 0.32760 0.50045
 C113 C 0.82399 0.31240 0.58544
 C114 C 0.78863 0.28085 0.58591
 C115 C 0.77168 0.26393 0.50093
 C116 C 0.78903 0.28013 0.41547
 C117 C 0.77004 0.26473 0.33250
 C118 C 0.73650 0.23236 0.33290
 C119 C 0.72055 0.21379 0.41622
 C120 C 0.73737 0.23060 0.50142
 C121 C 0.76912 0.26650 0.66878
 C122 C 0.73552 0.23419 0.66922
 C123 C 0.72018 0.21419 0.58703
 C124 C 0.68727 0.17945 0.58722
 C125 C 0.67115 0.16362 0.50145
 C126 C 0.68773 0.17949 0.41658
 H127 H 0.78044 0.27782 0.26618
 H128 H 0.72296 0.22254 0.26683
 H129 H 0.77909 0.28054 0.73425
 H130 H 0.72141 0.22599 0.73493
 H131 H 0.86851 0.35083 0.50040
 H132 H 0.64705 0.13666 0.49997
 N133 N 0.96118 0.53806 0.09957
 N134 N 0.93431 0.54507 0.11321
 N135 N 1.03824 0.55501 0.16476
 N136 N 1.06526 0.57327 0.22408
 N137 N 1.03826 0.57694 0.09980
 N138 N 1.06527 0.61077 0.11293
 N139 N 0.96113 0.51599 0.16415
 N140 N 0.93421 0.50737 0.22385
 C141 C 0.91775 0.52560 0.19050
 C142 C 1.08181 0.60787 0.19034
 N143 N 1.03961 0.46556 0.09980
 N144 N 1.06685 0.45908 0.11351
 N145 N 0.96188 0.44785 0.16415
 N146 N 0.93488 0.42923 0.22339
 N147 N 0.96244 0.42613 0.09952
 N148 N 0.93580 0.39211 0.11257
 N149 N 1.03892 0.48698 0.16515
 N150 N 1.06558 0.49557 0.22560
 Mn151 Mn 1.00000 0.50145 0.16563
 C152 C 1.08272 0.47806 0.19193
 C153 C 0.91889 0.39464 0.18969
 N154 N 1.03839 0.57701 -0.10028
 N155 N 1.06565 0.61078 -0.11312
 N156 N 0.96132 0.51619 -0.16499
 N157 N 0.93432 0.50731 -0.22448
 N158 N 0.96107 0.53797 -0.10004
 N159 N 0.93363 0.54425 -0.11279
 N160 N 1.03818 0.55513 -0.16560
 N161 N 1.06507 0.57337 -0.22527
 Mn162 Mn 0.99975 0.55787 -0.00025
 C163 C 1.08189 0.60789 -0.19120
 C164 C 0.91735 0.52491 -0.19049
 N165 N 0.96249 0.42626 -0.09998
 N166 N 0.93560 0.39234 -0.11250
 N167 N 1.03896 0.48713 -0.16558
 N168 N 1.06579 0.49600 -0.22568
 N169 N 1.03965 0.46569 -0.10028
 N170 N 1.06710 0.45950 -0.11363
 N171 N 0.96199 0.44803 -0.16462
 N172 N 0.93481 0.42953 -0.22336
 Mn173 Mn 1.00110 0.44558 -0.00026
 Mn174 Mn 1.00008 0.50159 -0.16622
 Cl175 Cl 1.00024 0.50163 -0.00025
 C176 C 0.91866 0.39497 -0.18936
 C177 C 1.08304 0.47865 -0.19185
 N178 N 0.46184 0.42318 0.09845
 N179 N 0.45480 0.38928 0.11191
 N180 N 0.44504 0.48346 0.16394
 N181 N 0.42675 0.49217 0.22345
 N182 N 0.42313 0.46161 0.09901
 N183 N 0.38929 0.45479 0.11228
 N184 N 0.48386 0.44508 0.16316
 N185 N 0.49245 0.42671 0.22272
 C186 C 0.47423 0.39209 0.18919
 C187 C 0.39215 0.47416 0.18975
 N188 N 0.53483 0.57396 0.09908
 N189 N 0.54144 0.60772 0.11276
 N190 N 0.55209 0.51360 0.16327
 N191 N 0.57062 0.50527 0.22295
 N192 N 0.57390 0.53578 0.09861
 N193 N 0.60791 0.54317 0.11221
 N194 N 0.51329 0.55194 0.16437
 N195 N 0.50477 0.57010 0.22478
 Mn196 Mn 0.49857 0.49850 0.16476
 C197 C 0.52244 0.60472 0.19113
 C198 C 0.60527 0.52379 0.18956
 N199 N 0.42301 0.46178 -0.10085
 N200 N 0.38922 0.45523 -0.11361
 N201 N 0.48360 0.44522 -0.16633
 N202 N 0.49224 0.42697 -0.22616
 N203 N 0.46185 0.42327 -0.10123
 N204 N 0.45531 0.38950 -0.11426
 N205 N 0.44487 0.48347 -0.16614
 N206 N 0.42658 0.49209 -0.22577
 Mn207 Mn 0.44210 0.44211 -0.00116
 C208 C 0.39206 0.47437 -0.19160
 C209 C 0.47448 0.39240 -0.19220
 N210 N 0.57372 0.53570 -0.10113
 N211 N 0.60753 0.54231 -0.11385
 N212 N 0.51306 0.55202 -0.16617
 N213 N 0.50457 0.57025 -0.22641
 N214 N 0.53472 0.57399 -0.10102
 N215 N 0.54144 0.60779 -0.11463
 N216 N 0.55187 0.51390 -0.16625
 N217 N 0.57021 0.50528 -0.22577
 Mn218 Mn 0.55463 0.55523 -0.00114
 Mn219 Mn 0.49836 0.49864 -0.16724
 Cl220 Cl 0.49842 0.49863 -0.00118
 C221 C 0.60473 0.52312 -0.19166
 C222 C 0.52237 0.60485 -0.19278
 N223 N 0.42586 -0.04088 0.09987
 N224 N 0.39235 -0.06841 0.11374
 N225 N 0.48455 0.03721 0.16415
 N226 N 0.49236 0.06408 0.22334
 N227 N 0.46213 0.03623 0.09935
 N228 N 0.45406 0.06242 0.11230
 N229 N 0.44814 -0.03983 0.16516
 N230 N 0.43040 -0.06652 0.22581
 C231 C 0.39577 -0.08408 0.19220
 C232 C 0.47323 0.07952 0.18950
 N233 N 0.57646 0.04027 0.09924
 N234 N 0.61002 0.06769 0.11266
 N235 N 0.51780 -0.03742 0.16461
 N236 N 0.50968 -0.06443 0.22362
 N237 N 0.54001 -0.03676 0.09954
 N238 N 0.54761 -0.06329 0.11213
 N239 N 0.55422 0.03968 0.16406
 N240 N 0.57203 0.06673 0.22370
 Mn241 Mn 0.50120 -0.00008 0.16562
 C242 C 0.60666 0.08393 0.19004
 C243 C 0.52841 -0.08024 0.18943
 N244 N 0.46217 0.03609 -0.10027
 N245 N 0.45448 0.06257 -0.11279
 N246 N 0.44815 -0.04000 -0.16531
 N247 N 0.43050 -0.06690 -0.22538
 N248 N 0.42587 -0.04102 -0.10001
 N249 N 0.39244 -0.06876 -0.11328
 N250 N 0.48455 0.03696 -0.16510
 N251 N 0.49268 0.06402 -0.22395
 Mn252 Mn 0.44364 -0.00244 -0.00029
 C253 C 0.47380 0.07967 -0.18985
 C254 C 0.39593 -0.08455 -0.19143
 N255 N 0.53998 -0.03691 -0.10016
 N256 N 0.54769 -0.06337 -0.11284
 N257 N 0.55420 0.03933 -0.16556
 N258 N 0.57190 0.06631 -0.22547
 N259 N 0.57645 0.04025 -0.10035
 N260 N 0.60988 0.06803 -0.11341
 N261 N 0.51770 -0.03768 -0.16509
 N262 N 0.50964 -0.06466 -0.22410
 Mn263 Mn 0.55857 0.00172 -0.00043
 Mn264 Mn 0.50115 -0.00033 -0.16636
 Cl265 Cl 0.50113 -0.00029 -0.00035
 C266 C 0.52847 -0.08038 -0.19006
 C267 C 0.60646 0.08392 -0.19144
 N268 N 1.13234 0.46438 0.19868
 N269 N 1.15847 0.46819 0.25641
 C270 C 1.15639 0.48565 0.33297
 C271 C 1.12735 0.49201 0.31978
 N272 N 1.11345 0.47857 0.23553
 H273 H 1.11717 0.50509 0.36628
 N274 N 0.53634 0.66806 0.19748
 N275 N 0.53276 0.69056 0.25511
 C276 C 0.51535 0.67122 0.33194
 C277 C 0.50876 0.63573 0.31897
 N278 N 0.52205 0.63505 0.23460
 H279 H 0.49571 0.61257 0.36575
 N280 N 0.33271 -0.13386 0.19912
 N281 N 0.31044 -0.16000 0.25687
 C282 C 0.32996 -0.15793 0.33342
 C283 C 0.36532 -0.12885 0.32020
 N284 N 0.36574 -0.11495 0.23591
 H285 H 0.38855 -0.11860 0.36672
 N286 N 0.87300 0.54568 0.20478
 N287 N 0.84728 0.54261 0.26304
 C288 C 0.84524 0.51990 0.33191
 C289 C 0.87114 0.50959 0.31440
 N290 N 0.88761 0.52611 0.23456
 H291 H 0.87806 0.49267 0.35674
 N292 N 0.45407 0.32728 0.20322
 N293 N 0.45705 0.30457 0.26143
 C294 C 0.47973 0.32512 0.33040
 C295 C 0.49013 0.36133 0.31298
 N296 N 0.47368 0.36140 0.23311
 H297 H 0.50703 0.38512 0.35542
 N298 N 0.67110 0.12954 0.20385
 N299 N 0.69348 0.15542 0.26195
 C300 C 0.67268 0.15709 0.33104
 C301 C 0.63664 0.13076 0.31381
 N302 N 0.63694 0.11443 0.23390
 H303 H 0.61276 0.12341 0.35637
 N304 N 0.45432 0.12506 -0.19963
 N305 N 0.45678 0.15068 -0.25736
 C306 C 0.47803 0.15192 -0.32909
 C307 C 0.48814 0.12578 -0.31380
 N308 N 0.47292 0.10984 -0.23248
 H309 H 0.50396 0.11826 -0.35865
 N310 N 0.66754 0.53518 -0.19488
 N311 N 0.69010 0.53157 -0.25231
 C312 C 0.67129 0.51592 -0.33106
 C313 C 0.63617 0.51038 -0.31954
 N314 N 0.63508 0.52254 -0.23410
 H315 H 0.61352 0.49873 -0.36801
 N316 N 0.87251 0.33045 -0.19933
 N317 N 0.84671 0.30764 -0.25708
 C318 C 0.84583 0.32789 -0.32866
 C319 C 0.87238 0.36394 -0.31325
 N320 N 0.88819 0.36428 -0.23202
 H321 H 0.88025 0.38738 -0.35799
 N322 N 0.54784 -0.12590 -0.20029
 N323 N 0.54525 -0.15154 -0.25815
 C324 C 0.52405 -0.15263 -0.32978
 C325 C 0.51409 -0.12639 -0.31427
 N326 N 0.52935 -0.11053 -0.23295
 H327 H 0.49828 -0.11880 -0.35895
 N328 N 0.32934 0.46276 -0.19512
 N329 N 0.30699 0.46666 -0.25269
 C330 C 0.32593 0.48214 -0.33146
 C331 C 0.36089 0.48726 -0.31978
 N332 N 0.36179 0.47506 -0.23426
 H333 H 0.38360 0.49878 -0.36815
 N334 N 1.13328 0.67044 -0.19465
 N335 N 1.15962 0.69265 -0.25219
 C336 C 1.15599 0.67369 -0.33103
 C337 C 1.12597 0.63888 -0.31941
 N338 N 1.11291 0.63808 -0.23388
 H339 H 1.11463 0.61619 -0.36781
 N340 N 0.86607 0.53625 -0.19388
 N341 N 0.83982 0.53235 -0.25140
 C342 C 0.84330 0.51690 -0.33022
 C343 C 0.87316 0.51178 -0.31857
 N344 N 0.88625 0.52398 -0.23305
 H345 H 0.88445 0.50038 -0.36703
 N346 N 0.46184 0.32941 -0.19622
 N347 N 0.46544 0.30683 -0.25358
 C348 C 0.48168 0.32577 -0.33179
 C349 C 0.48758 0.36104 -0.31997
 N350 N 0.47504 0.36205 -0.23490
 H351 H 0.49970 0.38384 -0.36802
 N352 N 0.66895 0.13502 -0.19567
 N353 N 0.69118 0.16136 -0.25305
 C354 C 0.67208 0.15838 -0.33114
 C355 C 0.63705 0.12863 -0.31919
 N356 N 0.63636 0.11518 -0.23417
 H357 H 0.61422 0.11761 -0.36714
 N358 N 1.13344 0.46612 -0.19750
 N359 N 1.15962 0.47007 -0.25529
 C360 C 1.15693 0.48679 -0.33263
 C361 C 1.12754 0.49259 -0.31985
 N362 N 1.11399 0.47953 -0.23509
 H363 H 1.11683 0.50497 -0.36700
 N364 N 0.53662 0.66828 -0.19948
 N365 N 0.53308 0.69077 -0.25722
 C366 C 0.51548 0.67134 -0.33374
 C367 C 0.50875 0.63583 -0.32054
 N368 N 0.52213 0.63521 -0.23630
 H369 H 0.49552 0.61262 -0.36705
 N370 N 0.33323 -0.13511 -0.19705
 N371 N 0.31107 -0.16128 -0.25482
 C372 C 0.33048 -0.15858 -0.33216
 C373 C 0.36563 -0.12916 -0.31938
 N374 N 0.36606 -0.11563 -0.23462
 H375 H 0.38870 -0.11838 -0.36657
 N376 N 0.54769 -0.12581 0.19924
 N377 N 0.54511 -0.15149 0.25696
 C378 C 0.52393 -0.15261 0.32871
 C379 C 0.51399 -0.12634 0.31345
 N380 N 0.52922 -0.11045 0.23212
 H381 H 0.49821 -0.11875 0.35829
 N382 N 0.32756 0.45532 0.20234
 N383 N 0.30499 0.45859 0.26048
 C384 C 0.32559 0.48049 0.33054
 C385 C 0.36164 0.49014 0.31382
 N386 N 0.36161 0.47401 0.23333
 H387 H 0.38536 0.50633 0.35710
 N388 N 1.12782 0.67240 0.20272
 N389 N 1.15371 0.69484 0.26082
 C390 C 1.15484 0.67412 0.33093
 C391 C 1.12830 0.63816 0.31425
 N392 N 1.11228 0.63834 0.23377
 H393 H 1.12063 0.61440 0.35758
 N394 N 0.45249 0.12392 0.20101
 N395 N 0.45479 0.14944 0.25886
 C396 C 0.47678 0.15137 0.32945
 C397 C 0.48747 0.12569 0.31337
 N398 N 0.47188 0.10938 0.23268
 H399 H 0.50401 0.11878 0.35726
 N400 N 0.67021 0.54438 0.20373
 N401 N 0.69300 0.54155 0.26200
 C402 C 0.67251 0.51883 0.33103
 C403 C 0.63625 0.50824 0.31354
 N404 N 0.63609 0.52463 0.23361
 H405 H 0.61249 0.49123 0.35598
 N406 N 0.87364 0.32984 0.20135
 N407 N 0.84791 0.30696 0.25925
 C408 C 0.84638 0.32726 0.32981
 C409 C 0.87252 0.36344 0.31366
 N410 N 0.88870 0.36379 0.23296
 H411 H 0.87983 0.38698 0.35751
   
