data_POSCAR
  _audit_creation_date              2014-09-24
  _audit_creation_method            'ToBaCCo'
  _symmetry_space_group_name_H-M    'P1'
  _symmetry_Int_Tables_number       1
  _symmetry_cell_setting            triclinic
  loop_
  _symmetry_equiv_pos_as_xyz
 x,y,z
_cell_length_a 44.2136
_cell_length_b 8.8948
_cell_length_c 20.7923
_cell_angle_alpha 91.552000
_cell_angle_beta 90.385900
_cell_angle_gamma 86.677500
loop_
  _atom_site_label
  _atom_site_type_symbol
  _atom_site_fract_x
  _atom_site_fract_y
  _atom_site_fract_z
C1 C 0.81243 0.21314 0.40201
 C2 C 0.82897 0.20479 0.46046
 C3 C 0.81553 0.24180 0.52119
 C4 C 0.78488 0.30414 0.51996
 C5 C 0.76691 0.28253 0.46435
 C6 C 0.78045 0.23011 0.40631
 C7 C 0.76146 0.18964 0.35500
 C8 C 0.73030 0.21235 0.35894
 C9 C 0.71686 0.28960 0.41203
 C10 C 0.73517 0.31623 0.46649
 C11 C 0.77159 0.39362 0.57064
 C12 C 0.74035 0.42226 0.57372
 C13 C 0.72168 0.37120 0.52402
 C14 C 0.68983 0.37478 0.53005
 C15 C 0.67259 0.38130 0.47280
 C16 C 0.68575 0.33925 0.41307
 H17 H 0.77039 0.14070 0.31085
 H18 H 0.71710 0.16905 0.31949
 H19 H 0.78498 0.43960 0.60924
 H20 H 0.73069 0.48169 0.61564
 H21 H 0.85266 0.17379 0.45774
 H22 H 0.64848 0.40627 0.47464
 C23 C 0.32770 0.74225 0.47198
 C24 C 0.33846 0.75482 0.53499
 C25 C 0.31891 0.78534 0.58795
 C26 C 0.28677 0.78744 0.57546
 C27 C 0.27604 0.74974 0.51265
 C28 C 0.29635 0.73423 0.46044
 C29 C 0.28483 0.71474 0.39743
 C30 C 0.25384 0.71628 0.38563
 C31 C 0.23357 0.72079 0.43680
 C32 C 0.24461 0.73483 0.50113
 C33 C 0.26462 0.83520 0.62131
 C34 C 0.23390 0.81060 0.61130
 C35 C 0.22382 0.74473 0.55338
 C36 C 0.19349 0.70085 0.54211
 C37 C 0.18633 0.65561 0.47846
 C38 C 0.20268 0.70078 0.42644
 H39 H 0.29971 0.69694 0.35645
 H40 H 0.24607 0.70191 0.33657
 H41 H 0.27043 0.89668 0.66458
 H42 H 0.21818 0.85154 0.64811
 H43 H 0.36276 0.74719 0.54115
 H44 H 0.16502 0.60642 0.46693
 C45 C 0.28042 0.28817 -0.57282
 C46 C 0.29581 0.27095 -0.51374
 C47 C 0.28044 0.26035 -0.45563
 C48 C 0.24872 0.24747 -0.45653
 C49 C 0.23243 0.26941 -0.51422
 C50 C 0.24811 0.30198 -0.57101
 C51 C 0.23089 0.36209 -0.62190
 C52 C 0.19963 0.35988 -0.62178
 C53 C 0.18405 0.29423 -0.57184
 C54 C 0.20017 0.26456 -0.51475
 C55 C 0.23261 0.22226 -0.40044
 C56 C 0.20129 0.23297 -0.40011
 C57 C 0.18429 0.23742 -0.45781
 C58 C 0.15205 0.22362 -0.45941
 C59 C 0.13667 0.24363 -0.51911
 C60 C 0.15258 0.26940 -0.57669
 H61 H 0.24131 0.41500 -0.66169
 H62 H 0.18760 0.40963 -0.66182
 H63 H 0.24396 0.19824 -0.35535
 H64 H 0.19094 0.23729 -0.35325
 H65 H 0.32019 0.26570 -0.51185
 H66 H 0.11283 0.22257 -0.52172
 C67 C -0.34301 0.85615 -0.46690
 C68 C -0.35896 0.85899 -0.52516
 C69 C -0.34516 0.84863 -0.58597
 C70 C -0.31275 0.83522 -0.58830
 C71 C -0.29567 0.83446 -0.52966
 C72 C -0.31080 0.84440 -0.46909
 C73 C -0.29323 0.85025 -0.41257
 C74 C -0.26189 0.83152 -0.41420
 C75 C -0.24630 0.82197 -0.47265
 C76 C -0.26323 0.82677 -0.53141
 C77 C -0.29674 0.83089 -0.64676
 C78 C -0.26517 0.81408 -0.64843
 C79 C -0.24779 0.81554 -0.59169
 C80 C -0.21548 0.80303 -0.59232
 C81 C -0.20006 0.81822 -0.53368
 C82 C -0.21424 0.80960 -0.47444
 H83 H -0.30339 0.87157 -0.36591
 H84 H -0.25020 0.82923 -0.36864
 H85 H -0.30825 0.84334 -0.69237
 H86 H -0.25466 0.80430 -0.69513
 H87 H -0.38337 0.85436 -0.52286
 H88 H -0.17548 0.81846 -0.53410
 O89 O -0.03733 0.85096 0.10330
 O90 O 0.01770 0.64965 -0.13186
 O91 O -0.07497 0.84979 -0.09332
 O92 O 0.06513 0.80648 0.03082
 O93 O -0.04233 0.68078 -0.14081
 O94 O 0.02580 0.77412 0.08881
 O95 O 0.05271 0.76494 -0.08059
 O96 O -0.07542 0.86799 0.02877
 C97 C -0.06714 0.84215 0.08586
 C98 C 0.04522 0.67710 -0.12622
 C99 C -0.06934 0.73470 -0.13129
 C100 C 0.05489 0.78103 0.08568
 O101 O 0.01222 1.03551 0.10935
 O102 O -0.03801 0.95026 -0.16494
 O103 O -0.03350 1.07653 0.03014
 O104 O 0.03153 1.00685 -0.04058
 O105 O 0.01698 0.94654 -0.14067
 O106 O -0.03122 1.07509 0.03286
 O107 O 0.03322 1.02883 0.01205
 O108 O -0.03756 1.09418 -0.08634
 Co109 Co -0.00252 0.91616 0.05120
 Co110 Co -0.01145 0.80723 -0.13527
 Co111 Co -0.05343 0.96144 -0.03210
 Co112 Co 0.02908 0.81149 -0.00861
 O113 O -0.01572 0.81253 -0.03314
 C114 C 0.03099 1.08893 0.07188
 C115 C -0.04321 1.07815 -0.14382
 C116 C -0.03949 1.18438 0.07101
 C117 C 0.03108 1.03050 -0.10269
 O118 O 0.46271 0.24994 0.13572
 O119 O 0.52533 0.23993 -0.15095
 O120 O 0.42603 0.43589 -0.07030
 O121 O 0.53628 0.13677 0.03239
 O122 O 0.45777 0.37763 -0.15577
 O123 O 0.51345 0.24016 0.11280
 O124 O 0.56399 0.22046 -0.07057
 O125 O 0.43377 0.26674 0.04699
 C126 C 0.43655 0.23958 0.11195
 C127 C 0.55581 0.20506 -0.13165
 C128 C 0.43107 0.40054 -0.13016
 C129 C 0.53620 0.16705 0.09115
 O130 O 0.49869 0.47311 0.09214
 O131 O 0.47944 0.61994 -0.11171
 O132 O 0.42301 0.53651 0.05463
 O133 O 0.53473 0.45455 -0.08449
 O134 O 0.53414 0.46123 -0.08837
 O135 O 0.47090 0.49627 0.09652
 O136 O 0.54325 0.43255 0.03356
 O137 O 0.45475 0.64788 -0.01972
 Co138 Co 0.48104 0.29422 0.06247
 Co139 Co 0.49595 0.41950 -0.12193
 Co140 Co 0.44881 0.44642 0.00337
 Co141 Co 0.53064 0.28419 -0.02532
 O142 O 0.48852 0.34981 -0.02643
 C143 C 0.52735 0.50259 0.07943
 C144 C 0.45897 0.68803 -0.07675
 C145 C 0.44275 0.56048 0.09972
 C146 C 0.55848 0.52686 -0.09591
 C147 C 0.34473 0.30565 0.31154
 C148 C 0.33115 0.25975 0.25543
 C149 C 0.30143 0.21844 0.25279
 C150 C 0.28502 0.22526 0.31029
 C151 C 0.29739 0.28455 0.36874
 C152 C 0.32810 0.32582 0.36800
 O153 O 0.37448 0.31443 0.30636
 C154 C 0.37973 0.27348 0.24545
 C155 C 0.35382 0.24280 0.21182
 C156 C 0.35401 0.19764 0.14738
 C157 C 0.38200 0.18796 0.11588
 C158 C 0.40916 0.21767 0.14960
 C159 C 0.40802 0.25599 0.21596
 H160 H 0.29192 0.17164 0.20906
 H161 H 0.26317 0.17661 0.30917
 H162 H 0.33935 0.37158 0.40974
 H163 H 0.33333 0.17341 0.12201
 H164 H 0.38240 0.15942 0.06493
 H165 H 0.42829 0.27721 0.24324
 C166 C -0.17109 0.79836 0.25499
 C167 C -0.14930 0.68810 0.26982
 C168 C -0.15046 0.60233 0.32403
 C169 C -0.17477 0.63291 0.36562
 C170 C -0.19707 0.75224 0.35464
 C171 C -0.19572 0.83137 0.29632
 O172 O -0.16410 0.87402 0.20326
 C173 C -0.13732 0.80992 0.18578
 C174 C -0.12739 0.69562 0.22523
 C175 C -0.09894 0.62141 0.21996
 C176 C -0.07947 0.66916 0.17282
 C177 C -0.08891 0.78731 0.13168
 C178 C -0.11858 0.85618 0.13700
 H179 H -0.13289 0.51670 0.33475
 H180 H -0.17555 0.56669 0.40837
 H181 H -0.21164 0.92249 0.28529
 H182 H -0.09169 0.53277 0.25225
 H183 H -0.05696 0.61522 0.16870
 H184 H -0.12599 0.94931 0.10703
 C185 C 0.61536 0.73169 0.26129
 C186 C 0.58867 0.81759 0.26814
 C187 C 0.58350 0.91997 0.31851
 C188 C 0.60688 0.93748 0.36313
 C189 C 0.63467 0.84694 0.35989
 C190 C 0.63872 0.74260 0.30702
 O191 O 0.61472 0.63465 0.21158
 C192 C 0.58708 0.66061 0.18704
 C193 C 0.57018 0.77098 0.22022
 C194 C 0.53978 0.80719 0.20652
 C195 C 0.52597 0.72367 0.15739
 C196 C 0.54281 0.60837 0.12264
 C197 C 0.57405 0.57997 0.13656
 H198 H 0.56215 0.98515 0.32327
 H199 H 0.60288 1.02103 0.40147
 H200 H 0.65821 0.66404 0.30397
 H201 H 0.52681 0.89238 0.23446
 H202 H 0.50204 0.74565 0.14779
 H203 H 0.58727 0.49075 0.11173
 C204 C 0.09691 1.29794 0.28526
 C205 C 0.11640 1.26180 0.23516
 C206 C 0.14584 1.20686 0.24461
 C207 C 0.15621 1.19753 0.30778
 C208 C 0.13857 1.25736 0.36111
 C209 C 0.10751 1.29968 0.34930
 O210 O 0.06823 1.31508 0.26575
 C211 C 0.07000 1.28995 0.20233
 C212 C 0.09916 1.26161 0.18116
 C213 C 0.10623 1.21683 0.11808
 C214 C 0.08222 1.18689 0.07620
 C215 C 0.05213 1.19606 0.09912
 C216 C 0.04580 1.26076 0.16129
 H217 H 0.15984 1.16443 0.20488
 H218 H 0.17846 1.14303 0.31488
 H219 H 0.09221 1.33519 0.38786
 H220 H 0.12947 1.19413 0.10307
 H221 H 0.08742 1.13722 0.02923
 H222 H 0.02309 1.26510 0.18076
 C223 C 0.63109 0.30795 -0.34760
 C224 C 0.64760 0.21566 -0.30683
 C225 C 0.67827 0.18110 -0.31449
 C226 C 0.69236 0.24038 -0.36744
 C227 C 0.67598 0.33630 -0.41149
 C228 C 0.64469 0.37127 -0.39979
 O229 O 0.60225 0.32879 -0.33110
 C230 C 0.60063 0.24783 -0.27878
 C231 C 0.62777 0.17649 -0.26168
 C232 C 0.63152 0.09346 -0.20609
 C233 C 0.60658 0.09107 -0.16473
 C234 C 0.57873 0.16809 -0.18077
 C235 C 0.57538 0.24127 -0.23998
 H236 H 0.69076 0.10710 -0.28199
 H237 H 0.71566 0.20158 -0.37572
 H238 H 0.63101 0.44660 -0.42956
 H239 H 0.65320 0.03919 -0.19345
 H240 H 0.60935 0.03613 -0.11906
 H241 H 0.55470 0.30559 -0.25234
 C242 C 0.14595 0.66486 -0.30840
 C243 C 0.11839 0.65999 -0.33868
 C244 C 0.11369 0.69447 -0.40211
 C245 C 0.13887 0.72602 -0.43742
 C246 C 0.16910 0.70305 -0.41264
 C247 C 0.17239 0.67737 -0.34512
 O248 O 0.14353 0.65818 -0.24445
 C249 C 0.11386 0.64478 -0.23571
 C250 C 0.09822 0.63746 -0.29273
 C251 C 0.06781 0.61130 -0.29743
 C252 C 0.05205 0.60111 -0.24040
 C253 C 0.06586 0.63460 -0.18032
 C254 C 0.09777 0.65015 -0.17736
 H255 H 0.09114 0.70613 -0.42274
 H256 H 0.13434 0.76758 -0.48516
 H257 H 0.19420 0.65908 -0.32212
 H258 H 0.05663 0.59748 -0.34349
 H259 H 0.02844 0.57652 -0.24395
 H260 H 0.10919 0.67186 -0.13211
 C261 C 0.37787 0.86720 -0.28083
 C262 C 0.36176 0.84844 -0.22593
 C263 C 0.33226 0.80232 -0.22765
 C264 C 0.31891 0.77601 -0.28818
 C265 C 0.33347 0.81146 -0.34631
 C266 C 0.36373 0.85986 -0.34106
 O267 O 0.40748 0.87401 -0.27012
 C268 C 0.41006 0.86105 -0.20671
 C269 C 0.38248 0.85189 -0.17726
 C270 C 0.37977 0.82983 -0.11181
 C271 C 0.40646 0.80402 -0.07609
 C272 C 0.43522 0.78977 -0.10678
 C273 C 0.43708 0.82866 -0.17244
 H274 H 0.32084 0.77459 -0.18403
 H275 H 0.29770 0.72232 -0.28882
 H276 H 0.37679 0.88764 -0.38228
 H277 H 0.35780 0.82304 -0.08971
 H278 H 0.40414 0.77513 -0.02620
 H279 H 0.45837 0.81574 -0.19795
 C280 C -0.12037 1.19105 -0.35872
 C281 C -0.13616 1.21741 -0.30269
 C282 C -0.16742 1.22367 -0.30072
 C283 C -0.18294 1.21269 -0.35940
 C284 C -0.16770 1.21712 -0.41978
 C285 C -0.13536 1.19371 -0.41809
 O286 O -0.09069 1.17013 -0.34931
 C287 C -0.08783 1.18716 -0.28593
 C288 C -0.11492 1.22133 -0.25548
 C289 C -0.11675 1.25887 -0.19024
 C290 C -0.08982 1.24726 -0.15410
 C291 C -0.06288 1.18183 -0.18211
 C292 C -0.06126 1.16516 -0.25006
 H293 H -0.17943 1.22910 -0.25546
 H294 H -0.20706 1.20071 -0.35669
 H295 H -0.12126 1.18712 -0.46017
 H296 H -0.13804 1.29681 -0.16818
 H297 H -0.09058 1.28080 -0.10399
 H298 H -0.04067 1.12114 -0.27344
 C299 C 0.62540 0.73271 -0.31210
 C300 C 0.59830 0.81709 -0.31040
 C301 C 0.59076 0.92536 -0.35547
 C302 C 0.61162 0.94498 -0.40477
 C303 C 0.63936 0.85441 -0.40974
 C304 C 0.64621 0.74806 -0.36135
 O305 O 0.62808 0.63369 -0.26567
 C306 C 0.60212 0.65546 -0.23427
 C307 C 0.58286 0.76553 -0.25964
 C308 C 0.55399 0.80152 -0.23458
 C309 C 0.54477 0.72038 -0.18132
 C310 C 0.56463 0.60745 -0.15466
 C311 C 0.59369 0.57670 -0.18118
 H312 H 0.56950 0.99204 -0.35306
 H313 H 0.60590 1.03009 -0.43988
 H314 H 0.66599 0.67081 -0.36428
 H315 H 0.53923 0.88928 -0.25505
 H316 H 0.52290 0.74882 -0.16002
 H317 H 0.60931 0.49156 -0.16124
 C318 C 0.09678 1.21279 -0.32204
 C319 C 0.11501 1.13043 -0.28061
 C320 C 0.14139 1.05212 -0.30005
 C321 C 0.15057 1.06774 -0.36342
 C322 C 0.13623 1.17736 -0.40390
 C323 C 0.10717 1.24179 -0.38460
 O324 O 0.06998 1.25488 -0.29583
 C325 C 0.07205 1.20055 -0.23641
 C326 C 0.09973 1.12875 -0.22448
 C327 C 0.10736 1.06296 -0.16630
 C328 C 0.08485 1.06183 -0.11937
 C329 C 0.05475 1.11560 -0.13288
 C330 C 0.04859 1.19324 -0.19122
 H331 H 0.15410 0.97810 -0.26797
 H332 H 0.17064 1.00249 -0.37931
 H333 H 0.09406 1.31814 -0.41508
 H334 H 0.12955 1.00833 -0.15837
 H335 H 0.08994 0.99932 -0.07628
 H336 H 0.02565 1.23026 -0.20409
 C337 C 0.34308 0.25472 -0.33048
 C338 C 0.32908 0.34292 -0.28303
 C339 C 0.30006 0.40805 -0.28877
 C340 C 0.28498 0.38463 -0.34681
 C341 C 0.29754 0.28306 -0.39477
 C342 C 0.32729 0.21749 -0.38635
 O343 O 0.37221 0.22128 -0.31817
 C344 C 0.37643 0.28999 -0.26154
 C345 C 0.35043 0.36308 -0.23793
 C346 C 0.34915 0.44486 -0.18055
 C347 C 0.37599 0.45419 -0.14595
 C348 C 0.40366 0.38499 -0.16961
 C349 C 0.40386 0.29997 -0.22821
 H350 H 0.29004 0.48137 -0.25136
 H351 H 0.26343 0.44605 -0.35434
 H352 H 0.33812 0.14394 -0.42275
 H353 H 0.32819 0.49982 -0.16306
 H354 H 0.37507 0.51740 -0.10075
 H355 H 0.42446 0.24417 -0.24701
 C356 C -0.16895 0.77967 -0.31690
 C357 C -0.14899 0.66190 -0.33453
 C358 C -0.15026 0.58555 -0.39305
 C359 C -0.17332 0.63039 -0.43540
 C360 C -0.19394 0.75537 -0.42079
 C361 C -0.19163 0.83123 -0.36003
 O362 O -0.16242 0.83938 -0.25931
 C363 C -0.13788 0.75680 -0.24090
 C364 C -0.12872 0.64871 -0.28602
 C365 C -0.10203 0.56077 -0.28112
 C366 C -0.08434 0.57925 -0.22604
 C367 C -0.09284 0.68933 -0.17784
 C368 C -0.12033 0.77908 -0.18534
 H369 H -0.13370 0.49624 -0.40619
 H370 H -0.17458 0.56962 -0.48095
 H371 H -0.20600 0.92946 -0.34760
 H372 H -0.09447 0.48489 -0.31984
 H373 H -0.06297 0.51391 -0.22324
 H374 H -0.12671 0.87011 -0.15155
 C375 C 0.39089 0.68720 0.34896
 C376 C 0.38241 0.80378 0.30948
 C377 C 0.35842 0.90629 0.32260
 C378 C 0.34221 0.88985 0.37888
 C379 C 0.34885 0.76536 0.41864
 C380 C 0.37416 0.66429 0.40469
 O381 O 0.41312 0.59664 0.32404
 C382 C 0.41825 0.65730 0.26747
 C383 C 0.39966 0.78283 0.25639
 C384 C 0.39718 0.85022 0.19712
 C385 C 0.41406 0.78445 0.14613
 C386 C 0.43318 0.65415 0.15575
 C387 C 0.43666 0.59454 0.21806
 H388 H 0.35180 0.99227 0.28925
 H389 H 0.32320 0.96882 0.38961
 H390 H 0.37947 0.56740 0.43402
 H391 H 0.38074 0.94174 0.18935
 H392 H 0.41070 0.82863 0.09842
 H393 H 0.45079 0.49340 0.22589
 C394 C -0.12783 1.16377 0.27486
 C395 C -0.14113 1.24694 0.22648
 C396 C -0.16975 1.31734 0.23219
 C397 C -0.18496 1.30430 0.29052
 C398 C -0.17224 1.21597 0.34172
 C399 C -0.14295 1.14419 0.33239
 O400 O -0.09988 1.11177 0.26111
 C401 C -0.09552 1.16361 0.20291
 C402 C -0.12006 1.24650 0.17916
 C403 C -0.11987 1.31374 0.11930
 C404 C -0.09337 1.29210 0.08216
 C405 C -0.06848 1.20093 0.10485
 C406 C -0.06921 1.14170 0.16708
 H407 H -0.17945 1.38613 0.19429
 H408 H -0.20596 1.37177 0.29663
 H409 H -0.13197 1.07329 0.36801
 H410 H -0.13920 1.38199 0.10229
 H411 H -0.09214 1.34661 0.03642
 H412 H -0.04971 1.08007 0.18719
 C413 C 0.62077 0.27578 0.29800
 C414 C 0.63533 0.28544 0.24032
 C415 C 0.66406 0.33878 0.23564
 C416 C 0.67898 0.37427 0.29322
 C417 C 0.66654 0.33933 0.35363
 C418 C 0.63619 0.29684 0.35572
 O419 O 0.59247 0.23639 0.29164
 C420 C 0.58953 0.21505 0.22865
 C421 C 0.61543 0.23930 0.19527
 C422 C 0.61800 0.21460 0.12929
 C423 C 0.59222 0.17011 0.09593
 C424 C 0.56441 0.15757 0.12869
 C425 C 0.56335 0.17630 0.19629
 H426 H 0.67445 0.35444 0.18951
 H427 H 0.70104 0.42077 0.29061
 H428 H 0.62525 0.27193 0.40022
 H429 H 0.63880 0.23290 0.10422
 H430 H 0.59329 0.15899 0.04401
 H431 H 0.54239 0.16927 0.22237
 C432 C 0.15630 0.73478 0.27164
 C433 C 0.13263 0.82436 0.29667
 C434 C 0.13366 0.89515 0.35660
 C435 C 0.15996 0.87146 0.39317
 C436 C 0.18356 0.76559 0.37296
 C437 C 0.18244 0.70203 0.30939
 O438 O 0.15014 0.68026 0.21277
 C439 C 0.12194 0.73611 0.20136
 C440 C 0.11027 0.82300 0.25200
 C441 C 0.08082 0.88567 0.25322
 C442 C 0.06252 0.86025 0.19947
 C443 C 0.07407 0.77902 0.14445
 C444 C 0.10432 0.71482 0.14547
 H445 H 0.11479 0.96653 0.37476
 H446 H 0.16073 0.92480 0.44062
 H447 H 0.20013 0.62353 0.29139
 H448 H 0.07218 0.95159 0.29432
 H449 H 0.03963 0.90992 0.20005
 H450 H 0.11373 0.65241 0.10421
   
