data_POSCAR
  _audit_creation_date              2014-09-24
  _audit_creation_method            'ToBaCCo'
  _symmetry_space_group_name_H-M    'P1'
  _symmetry_Int_Tables_number       1
  _symmetry_cell_setting            triclinic
  loop_
  _symmetry_equiv_pos_as_xyz
 x,y,z
_cell_length_a 44.0541
_cell_length_b 46.7228
_cell_length_c 42.2304
_cell_angle_alpha 90.671000
_cell_angle_beta 89.617100
_cell_angle_gamma 90.872400
loop_
  _atom_site_label
  _atom_site_type_symbol
  _atom_site_fract_x
  _atom_site_fract_y
  _atom_site_fract_z
C1 C 0.19505 0.21724 0.22301
 C2 C 0.19720 0.23683 0.19832
 C3 C 0.22181 0.23651 0.17776
 C4 C 0.24460 0.21617 0.18175
 C5 C 0.24286 0.19749 0.20687
 C6 C 0.21787 0.19796 0.22753
 C7 C 0.17174 0.21026 0.24337
 N8 N 0.17970 0.18694 0.26035
 C9 C 0.20824 0.17961 0.25085
 C10 C 0.26604 0.17848 0.20341
 N11 N 0.28165 0.18442 0.17627
 C12 C 0.26860 0.20765 0.16295
 C13 C 0.21651 0.25669 0.15492
 N14 N 0.18929 0.26887 0.16128
 C15 C 0.17734 0.25672 0.18764
 H16 H 0.15034 0.22123 0.24489
 H17 H 0.22036 0.16088 0.25819
 H18 H 0.26928 0.16002 0.21819
 H19 H 0.27537 0.21736 0.14082
 H20 H 0.23087 0.26158 0.13473
 H21 H 0.15561 0.26191 0.19819
 C22 C -0.19537 0.77665 0.24422
 C23 C -0.19354 0.75675 0.21917
 C24 C -0.21651 0.75490 0.19696
 C25 C -0.24146 0.77310 0.19936
 C26 C -0.24343 0.79226 0.22435
 C27 C -0.22010 0.79430 0.24660
 C28 C -0.17484 0.78575 0.26678
 N29 N -0.18618 0.80908 0.28232
 C30 C -0.21413 0.81406 0.27008
 C31 C -0.26819 0.80899 0.21927
 N32 N -0.28116 0.80106 0.19126
 C33 C -0.26481 0.77894 0.17901
 C34 C -0.20776 0.73535 0.17423
 N35 N -0.18002 0.72542 0.18200
 C36 C -0.17104 0.73851 0.20932
 H37 H -0.15225 0.77740 0.26947
 H38 H -0.22909 0.83122 0.27695
 H39 H -0.27446 0.82729 0.23370
 H40 H -0.26896 0.76813 0.15663
 H41 H -0.22021 0.72943 0.15306
 H42 H -0.14962 0.73515 0.22104
 C43 C -0.22174 0.23576 -0.25595
 C44 C -0.21891 0.25338 -0.22895
 C45 C -0.23736 0.24856 -0.20283
 C46 C -0.25911 0.22629 -0.20353
 C47 C -0.26204 0.20926 -0.23023
 C48 C -0.24315 0.21395 -0.25656
 C49 C -0.20388 0.23257 -0.28257
 N50 N -0.21357 0.20904 -0.29944
 C51 C -0.23802 0.19793 -0.28347
 C52 C -0.28233 0.18762 -0.22314
 N53 N -0.29204 0.19078 -0.19253
 C54 C -0.27771 0.21468 -0.18059
 C55 C -0.22701 0.26625 -0.17880
 N56 N -0.20286 0.28176 -0.18973
 C57 C -0.19780 0.27404 -0.22041
 H58 H -0.18412 0.24573 -0.28764
 H59 H -0.25026 0.17838 -0.28923
 H60 H -0.28794 0.17008 -0.23903
 H61 H -0.27972 0.22308 -0.15674
 H62 H -0.23573 0.26701 -0.15478
 H63 H -0.17902 0.28164 -0.23484
 C64 C 0.17871 0.78759 -0.23652
 C65 C 0.18362 0.76078 -0.22314
 C66 C 0.21060 0.75542 -0.20777
 C67 C 0.23319 0.77699 -0.20580
 C68 C 0.22841 0.80308 -0.21970
 C69 C 0.20106 0.80841 -0.23499
 C70 C 0.15420 0.79932 -0.25141
 N71 N 0.16124 0.82692 -0.25924
 C72 C 0.19008 0.83239 -0.24902
 C73 C 0.25299 0.82039 -0.21327
 N74 N 0.27296 0.80587 -0.19517
 C75 C 0.26081 0.77910 -0.19060
 C76 C 0.20821 0.72809 -0.19595
 N77 N 0.18056 0.71681 -0.20390
 C78 C 0.16546 0.73683 -0.22045
 H79 H 0.13314 0.78808 -0.25651
 H80 H 0.20227 0.85259 -0.25040
 H81 H 0.25483 0.84265 -0.21980
 H82 H 0.27091 0.76222 -0.17712
 H83 H 0.22534 0.71736 -0.18242
 H84 H 0.14243 0.73464 -0.22900
 C85 C 0.22555 1.20419 0.78015
 C86 C 0.24782 1.20036 0.80332
 C87 C 0.25290 1.22131 0.82628
 C88 C 0.23552 1.24631 0.82647
 C89 C 0.21393 1.25005 0.80341
 C90 C 0.20871 1.22878 0.78037
 C91 C 0.21405 1.18665 0.75651
 N92 N 0.19019 1.19983 0.74253
 C93 C 0.18708 1.22578 0.75724
 C94 C 0.19916 1.27499 0.81033
 N95 N 0.21071 1.28669 0.83750
 C96 C 0.23312 1.26905 0.84744
 C97 C 0.27437 1.21098 0.84667
 N98 N 0.28218 1.18428 0.83678
 C99 C 0.26600 1.17765 0.81033
 H100 H 0.22164 1.16518 0.75142
 H101 H 0.17034 1.24166 0.75188
 H102 H 0.17985 1.28268 0.79743
 H103 H 0.24666 1.27209 0.86850
 H104 H 0.28274 1.22159 0.86788
 H105 H 0.26698 1.15751 0.79744
 C106 C 0.78832 0.79693 0.76418
 C107 C 0.76307 0.79471 0.78452
 C108 C 0.76089 0.77238 0.80568
 C109 C 0.78383 0.75192 0.80670
 C110 C 0.80872 0.75420 0.78680
 C111 C 0.81080 0.77668 0.76503
 C112 C 0.79733 0.81727 0.74261
 N113 N 0.82468 0.80982 0.72981
 C114 C 0.83287 0.78480 0.74352
 C115 C 0.82847 0.73301 0.79500
 N116 N 0.81618 0.71762 0.81935
 C117 C 0.78861 0.72912 0.82630
 C118 C 0.73536 0.77677 0.82397
 N119 N 0.72186 0.80112 0.81435
 C120 C 0.73865 0.81217 0.79015
 H121 H 0.78438 0.83588 0.73658
 H122 H 0.85400 0.77379 0.73951
 H123 H 0.85023 0.72936 0.78379
 H124 H 0.77372 0.72277 0.84552
 H125 H 0.72751 0.76346 0.84327
 H126 H 0.73420 0.83215 0.77842
 C127 C 0.21326 0.80029 1.26281
 C128 C 0.23819 0.79803 1.24209
 C129 C 0.24022 0.77480 1.22173
 C130 C 0.21749 0.75355 1.22177
 C131 C 0.19274 0.75585 1.24190
 C132 C 0.19055 0.77957 1.26256
 C133 C 0.20490 0.82103 1.28431
 N134 N 0.17743 0.81377 1.29734
 C135 C 0.16855 0.78832 1.28380
 C136 C 0.17360 0.73296 1.23521
 N137 N 0.18618 0.71697 1.21151
 C138 C 0.21309 0.72951 1.20331
 C139 C 0.26531 0.77914 1.20275
 N140 N 0.27862 0.80457 1.21095
 C141 C 0.26222 0.81618 1.23519
 H142 H 0.21769 0.84056 1.28887
 H143 H 0.14788 0.77649 1.28908
 H144 H 0.15163 0.72892 1.24602
 H145 H 0.22840 0.72191 1.18503
 H146 H 0.27284 0.76507 1.18384
 H147 H 0.26646 0.83699 1.24593
 C148 C 0.79479 1.19969 1.22644
 C149 C 0.77175 1.19677 1.20363
 C150 C 0.77022 1.21632 1.17944
 C151 C 0.79132 1.23884 1.17751
 C152 C 0.81404 1.24181 1.19974
 C153 C 0.81588 1.22187 1.22439
 C154 C 0.80287 1.18318 1.25174
 N155 N 0.82861 1.19442 1.26520
 C156 C 0.83654 1.21820 1.24830
 C157 C 0.83199 1.26485 1.19056
 N158 N 0.82064 1.27546 1.16324
 C159 C 0.79576 1.25962 1.15524
 C160 C 0.74737 1.20762 1.15954
 N161 N 0.73479 1.18302 1.17071
 C162 C 0.74943 1.17626 1.19788
 H163 H 0.79133 1.16360 1.25858
 H164 H 0.85579 1.23223 1.25283
 H165 H 0.85234 1.27266 1.20223
 H166 H 0.78198 1.26281 1.13447
 H167 H 0.74075 1.21828 1.13809
 H168 H 0.74510 1.15722 1.21164
 O169 O 0.51764 0.95123 0.95129
 O170 O 0.46734 0.95981 1.06427
 O171 O 0.56083 0.97426 1.03213
 O172 O 0.46238 0.94595 0.96721
 O173 O 0.52411 0.95461 1.06023
 O174 O 0.47085 0.97503 0.93129
 O175 O 0.45703 0.93905 1.02070
 O176 O 0.55804 0.96416 0.97551
 C177 C 0.54436 0.94644 0.95821
 C178 C 0.45632 0.93890 1.04986
 C179 C 0.55141 0.95558 1.05163
 C180 C 0.45818 0.95240 0.93927
 O181 O 0.48599 1.02263 0.95710
 O182 O 0.52994 1.00975 1.06408
 O183 O 0.54147 1.01958 0.96502
 O184 O 0.43776 0.99456 1.03015
 O185 O 0.47299 1.01421 1.06037
 O186 O 0.52500 0.99831 0.92243
 O187 O 0.44399 1.00259 0.97364
 O188 O 0.54298 1.02895 1.02033
 Co189 Co 0.50276 0.98704 0.95628
 Co190 Co 0.49873 0.98445 1.05658
 Co191 Co 0.54647 0.99550 0.99861
 Co192 Co 0.45397 0.97159 0.99822
 O193 O 0.49924 0.98366 1.00430
 C194 C 0.45784 1.02391 0.96169
 C195 C 0.54256 1.02980 1.04961
 C196 C 0.54482 1.01548 0.93544
 C197 C 0.44632 1.01353 1.05013
 O198 O 0.03472 0.47447 0.05454
 O199 O 0.02237 0.52791 -0.06943
 O200 O 0.03890 0.45434 -0.01964
 O201 O 0.06066 0.54091 0.01998
 O202 O 0.02945 0.47570 -0.06292
 O203 O 0.03697 0.52750 0.06177
 O204 O 0.05495 0.53246 -0.03420
 O205 O 0.00932 0.44266 0.02842
 C206 C 0.02996 0.44880 0.04752
 C207 C 0.04886 0.53416 -0.06229
 C208 C 0.04630 0.45974 -0.04733
 C209 C 0.05930 0.53954 0.04916
 O210 O -0.02037 0.53203 0.05612
 O211 O -0.03096 0.47099 -0.04928
 O212 O -0.03912 0.46568 0.00633
 O213 O -0.00202 0.55845 -0.03170
 O214 O -0.03289 0.52395 -0.04641
 O215 O -0.02619 0.47796 0.05374
 O216 O 0.00442 0.56303 0.02573
 O217 O -0.01289 0.43156 -0.02944
 Co218 Co 0.00641 0.50261 0.05114
 Co219 Co -0.00158 0.49974 -0.05157
 Co220 Co 0.00050 0.46221 -0.00723
 Co221 Co 0.02783 0.54517 -0.00528
 O222 O 0.00945 0.50400 -0.00063
 C223 C -0.01572 0.55725 0.04661
 C224 C -0.02922 0.44374 -0.05123
 C225 C -0.04527 0.46696 0.03515
 C226 C -0.02743 0.55019 -0.04265
 O227 O 1.04789 0.04547 0.47952
 O228 O 0.92941 0.02594 0.53674
 O229 O 0.97721 0.04928 0.45817
 O230 O 1.01456 0.06316 0.55623
 O231 O 0.93556 0.03530 0.47950
 O232 O 1.05454 0.04380 0.53729
 O233 O 0.96238 0.05747 0.54661
 O234 O 1.02388 0.02455 0.44150
 C235 C 1.04328 0.04255 0.45067
 C236 C 0.93539 0.05100 0.54454
 C237 C 0.94984 0.05338 0.46316
 C238 C 1.04250 0.06312 0.55318
 O239 O 1.05029 -0.01033 0.53814
 O240 O 0.95125 -0.02012 0.47141
 O241 O 1.00382 -0.02410 0.46350
 O242 O 0.96436 0.00194 0.56977
 O243 O 0.95245 -0.02537 0.52955
 O244 O 1.04868 -0.01178 0.47815
 O245 O 1.01967 0.00814 0.57476
 O246 O 0.96836 0.00174 0.42903
 Co247 Co 1.04507 0.01675 0.50789
 Co248 Co 0.94717 0.00544 0.50464
 Co249 Co 0.98997 0.01297 0.46326
 Co250 Co 0.99016 0.03133 0.55759
 O251 O 0.99548 0.01784 0.51016
 C252 C 1.04088 -0.00866 0.56637
 C253 C 0.94858 -0.01607 0.44173
 C254 C 1.03126 -0.02959 0.46504
 C255 C 0.95496 -0.02188 0.55888
 C256 C 1.12973 0.17560 0.28166
 C257 C 1.11122 0.15930 0.30174
 C258 C 1.12396 0.13974 0.32232
 C259 C 1.15555 0.13646 0.32262
 C260 C 1.17410 0.15227 0.30219
 C261 C 1.16156 0.17211 0.28118
 N262 N 1.10450 0.12334 0.34265
 N263 N 1.11512 0.11007 0.36612
 C264 C 1.09650 0.09305 0.38656
 C265 C 1.10799 0.08567 0.41603
 C266 C 1.09048 0.06937 0.43687
 C267 C 1.06139 0.05956 0.42816
 C268 C 1.05000 0.06645 0.39827
 C269 C 1.06735 0.08340 0.37766
 H270 H 1.11867 0.19001 0.26576
 H271 H 1.08685 0.16194 0.30128
 H272 H 1.16593 0.12146 0.33845
 H273 H 1.19832 0.14922 0.30354
 H274 H 1.13047 0.09291 0.42300
 H275 H 1.09983 0.06418 0.45973
 H276 H 1.02757 0.05917 0.39116
 H277 H 1.05819 0.08875 0.35479
 C278 C 0.85454 -0.18401 0.32014
 C279 C 0.87067 -0.16612 0.34105
 C280 C 0.86218 -0.13767 0.34559
 C281 C 0.83655 -0.12752 0.33010
 C282 C 0.81990 -0.14547 0.30989
 C283 C 0.82893 -0.17395 0.30395
 N284 N 0.88000 -0.11928 0.36566
 N285 N 0.87964 -0.09222 0.36267
 C286 C 0.89668 -0.07340 0.38296
 C287 C 0.90329 -0.04554 0.37289
 C288 C 0.92036 -0.02682 0.39198
 C289 C 0.93025 -0.03555 0.42180
 C290 C 0.92301 -0.06328 0.43221
 C291 C 0.90662 -0.08221 0.41277
 H292 H 0.86198 -0.20583 0.31720
 H293 H 0.89027 -0.17426 0.35318
 H294 H 0.82944 -0.10561 0.33354
 H295 H 0.80087 -0.13627 0.29790
 H296 H 0.89560 -0.03852 0.35000
 H297 H 0.92563 -0.00548 0.38360
 H298 H 0.93052 -0.07049 0.45511
 H299 H 0.90150 -0.10359 0.42109
 C300 C 0.82814 0.20849 0.66243
 C301 C 0.84473 0.19388 0.63920
 C302 C 0.83443 0.16751 0.62733
 C303 C 0.80624 0.15663 0.63745
 C304 C 0.78950 0.17114 0.66062
 C305 C 0.80073 0.19681 0.67473
 N306 N 0.85424 0.15112 0.60745
 N307 N 0.84718 0.12616 0.59729
 C308 C 0.86840 0.10895 0.58003
 C309 C 0.85987 0.08112 0.57076
 C310 C 0.88134 0.06245 0.55787
 C311 C 0.91175 0.07143 0.55429
 C312 C 0.91989 0.09981 0.56216
 C313 C 0.89844 0.11842 0.57490
 H314 H 0.83778 0.22837 0.67119
 H315 H 0.86638 0.20262 0.63135
 H316 H 0.79759 0.13639 0.62827
 H317 H 0.76822 0.16141 0.66777
 H318 H 0.83681 0.07355 0.57465
 H319 H 0.87443 0.04073 0.55188
 H320 H 0.94311 0.10740 0.55941
 H321 H 0.90563 0.13984 0.58182
 C322 C 1.11162 -0.15985 0.72121
 C323 C 1.09350 -0.14090 0.70452
 C324 C 1.10632 -0.11633 0.69106
 C325 C 1.13729 -0.11029 0.69543
 C326 C 1.15533 -0.12885 0.71234
 C327 C 1.14303 -0.15429 0.72522
 N328 N 1.08819 -0.09842 0.67171
 N329 N 1.10101 -0.08071 0.65309
 C330 C 1.08498 -0.06227 0.63260
 C331 C 1.10130 -0.04927 0.60811
 C332 C 1.08674 -0.03185 0.58671
 C333 C 1.05561 -0.02655 0.58994
 C334 C 1.03921 -0.03889 0.61510
 C335 C 1.05379 -0.05703 0.63620
 H336 H 1.10066 -0.17856 0.73114
 H337 H 1.06958 -0.14574 0.70143
 H338 H 1.14777 -0.09133 0.68535
 H339 H 1.17917 -0.12344 0.71396
 H340 H 1.12536 -0.05312 0.60529
 H341 H 1.09988 -0.02234 0.56765
 H342 H 1.01514 -0.03508 0.61790
 H343 H 1.04086 -0.06682 0.65520
 C344 C 0.32080 1.14941 1.18281
 C345 C 0.34177 1.13060 1.16965
 C346 C 0.34608 1.12913 1.13693
 C347 C 0.33050 1.14793 1.11738
 C348 C 0.31010 1.16750 1.13057
 C349 C 0.30412 1.16785 1.16349
 N350 N 0.36608 1.10800 1.12437
 N351 N 0.36512 1.09930 1.09573
 C352 C 0.38560 1.07795 1.08435
 C353 C 0.37976 1.06381 1.05555
 C354 C 0.39907 1.04227 1.04458
 C355 C 0.42483 1.03507 1.06206
 C356 C 0.43075 1.04953 1.09076
 C357 C 0.41123 1.07060 1.10192
 H358 H 0.31799 1.14961 1.20827
 H359 H 0.35408 1.11647 1.18495
 H360 H 0.33388 1.14731 1.09197
 H361 H 0.29784 1.18101 1.11465
 H362 H 0.36007 1.06928 1.04179
 H363 H 0.39418 1.03161 1.02225
 H364 H 0.45046 1.04445 1.10472
 H365 H 0.41632 1.08129 1.12419
 C366 C 0.31368 0.80399 0.84331
 C367 C 0.33819 0.81750 0.85861
 C368 C 0.34907 0.84418 0.84852
 C369 C 0.33602 0.85673 0.82201
 C370 C 0.31147 0.84347 0.80682
 C371 C 0.29910 0.81724 0.81776
 N372 N 0.37180 0.85900 0.86677
 N373 N 0.38240 0.88339 0.85875
 C374 C 0.40346 0.89926 0.87807
 C375 C 0.41475 0.92567 0.86741
 C376 C 0.43328 0.94281 0.88691
 C377 C 0.44054 0.93377 0.91750
 C378 C 0.42974 0.90698 0.92785
 C379 C 0.41142 0.88984 0.90831
 H380 H 0.30539 0.78397 0.85283
 H381 H 0.34813 0.80756 0.87904
 H382 H 0.34427 0.87719 0.81346
 H383 H 0.30237 0.85409 0.78647
 H384 H 0.40865 0.93322 0.84420
 H385 H 0.44129 0.96338 0.87841
 H386 H 0.43503 0.89946 0.95131
 H387 H 0.40289 0.86958 0.91715
 C388 C 0.67560 0.83213 1.19492
 C389 C 0.65359 0.84835 1.18019
 C390 C 0.65157 0.84858 1.14725
 C391 C 0.67056 0.83097 1.12901
 C392 C 0.69200 0.81392 1.14373
 C393 C 0.69561 0.81500 1.17693
 N394 N 0.63063 0.86749 1.13298
 N395 N 0.63417 0.87645 1.10485
 C396 C 0.61301 0.89561 1.09124
 C397 C 0.62178 0.91176 1.06492
 C398 C 0.60198 0.93167 1.05222
 C399 C 0.57278 0.93508 1.06521
 C400 C 0.56391 0.91844 1.09130
 C401 C 0.58392 0.89906 1.10436
 H402 H 0.67663 0.83288 1.22049
 H403 H 0.63871 0.86158 1.19446
 H404 H 0.66902 0.83066 1.10344
 H405 H 0.70684 0.80135 1.12878
 H406 H 0.64420 0.90933 1.05467
 H407 H 0.60946 0.94426 1.03218
 H408 H 0.54158 0.92059 1.10187
 H409 H 0.57661 0.88671 1.12464
 C410 C 0.68397 1.17540 0.85661
 C411 C 0.66544 1.15603 0.87305
 C412 C 0.65104 1.13330 0.85720
 C413 C 0.65497 1.13027 0.82439
 C414 C 0.67350 1.14954 0.80779
 C415 C 0.68877 1.17242 0.82358
 N416 N 0.63286 1.11354 0.87509
 N417 N 0.61883 1.09235 0.86243
 C418 C 0.60097 1.07281 0.88099
 C419 C 0.58446 1.05083 0.86580
 C420 C 0.56638 1.03182 0.88340
 C421 C 0.56468 1.03455 0.91653
 C422 C 0.58166 1.05635 0.93171
 C423 C 0.59957 1.07533 0.91415
 H424 H 0.69485 1.19218 0.87036
 H425 H 0.66251 1.15860 0.89841
 H426 H 0.64382 1.11294 0.81155
 H427 H 0.67537 1.14628 0.78253
 H428 H 0.58542 1.04860 0.84026
 H429 H 0.55361 1.01517 0.87110
 H430 H 0.58085 1.05898 0.95722
 H431 H 0.61221 1.09202 0.92650
 C432 C 0.19112 0.31430 0.13203
 C433 C 0.17594 0.33681 0.11769
 C434 C 0.14437 0.33548 0.11397
 C435 C 0.12817 0.31107 0.12410
 C436 C 0.14320 0.28888 0.13873
 C437 C 0.17469 0.29047 0.14326
 N438 N 0.12889 0.35938 0.10113
 N439 N 0.10072 0.35758 0.09483
 C440 C 0.08372 0.38098 0.08325
 C441 C 0.05456 0.37539 0.07176
 C442 C 0.03700 0.39756 0.06044
 C443 C 0.04820 0.42586 0.06103
 C444 C 0.07732 0.43161 0.07314
 C445 C 0.09512 0.40924 0.08400
 H446 H 0.21540 0.31596 0.13553
 H447 H 0.18868 0.35549 0.10997
 H448 H 0.10378 0.30944 0.12148
 H449 H 0.13018 0.27055 0.14695
 H450 H 0.04553 0.35370 0.07132
 H451 H 0.01460 0.39255 0.05129
 H452 H 0.08650 0.45324 0.07361
 H453 H 0.11757 0.41400 0.09310
 C454 C -0.17779 0.29470 -0.13935
 C455 C -0.15809 0.31231 -0.12179
 C456 C -0.14449 0.33645 -0.13549
 C457 C -0.15083 0.34291 -0.16717
 C458 C -0.17021 0.32505 -0.18492
 C459 C -0.18385 0.30075 -0.17119
 N460 N -0.12370 0.35343 -0.11699
 N461 N -0.11364 0.37775 -0.12587
 C462 C -0.09219 0.39390 -0.10725
 C463 C -0.08673 0.42278 -0.11408
 C464 C -0.06623 0.43909 -0.09590
 C465 C -0.05041 0.42652 -0.07098
 C466 C -0.05553 0.39739 -0.06456
 C467 C -0.07638 0.38127 -0.08236
 H468 H -0.18763 0.27591 -0.12831
 H469 H -0.15325 0.30704 -0.09745
 H470 H -0.14046 0.36141 -0.17830
 H471 H -0.17464 0.33022 -0.20937
 H472 H -0.09870 0.43275 -0.13326
 H473 H -0.06276 0.46149 -0.10135
 H474 H -0.04378 0.38709 -0.04547
 H475 H -0.08002 0.35893 -0.07676
 C476 C 0.14464 0.67622 -0.21228
 C477 C 0.13029 0.65125 -0.20157
 C478 C 0.13934 0.63873 -0.17334
 C479 C 0.16380 0.65091 -0.15642
 C480 C 0.17806 0.67600 -0.16700
 C481 C 0.16818 0.68934 -0.19469
 N482 N 0.12165 0.61544 -0.16085
 N483 N 0.12938 0.60262 -0.13583
 C484 C 0.11051 0.58135 -0.12110
 C485 C 0.12056 0.56914 -0.09309
 C486 C 0.10094 0.55221 -0.07494
 C487 C 0.07082 0.54721 -0.08458
 C488 C 0.06133 0.55782 -0.11383
 C489 C 0.08104 0.57489 -0.13197
 H490 H 0.13689 0.68551 -0.23407
 H491 H 0.11150 0.64208 -0.21483
 H492 H 0.17113 0.64171 -0.13439
 H493 H 0.19589 0.68556 -0.15272
 H494 H 0.14318 0.57397 -0.08448
 H495 H 0.10892 0.54416 -0.05258
 H496 H 0.03824 0.55429 -0.12177
 H497 H 0.07277 0.58413 -0.15360
 C498 C -0.17758 0.68146 0.14940
 C499 C -0.16087 0.66121 0.13240
 C500 C -0.12939 0.66445 0.12913
 C501 C -0.11461 0.68814 0.14328
 C502 C -0.13124 0.70813 0.16080
 C503 C -0.16287 0.70496 0.16396
 N504 N -0.11288 0.64287 0.11238
 N505 N -0.08547 0.64662 0.10350
 C506 C -0.06887 0.62425 0.08815
 C507 C -0.04115 0.63077 0.07332
 C508 C -0.02406 0.60910 0.05909
 C509 C -0.03424 0.58047 0.06014
 C510 C -0.06213 0.57403 0.07495
 C511 C -0.07940 0.59573 0.08864
 H512 H -0.20190 0.67849 0.15177
 H513 H -0.17244 0.64293 0.12175
 H514 H -0.09024 0.69095 0.14124
 H515 H -0.11950 0.72622 0.17162
 H516 H -0.03277 0.65267 0.07290
 H517 H -0.00259 0.61463 0.04792
 H518 H -0.07061 0.55217 0.07598
 H519 H -0.10069 0.59014 0.10013
 C520 C 1.14331 0.20060 0.71253
 C521 C 1.12416 0.18842 0.68961
 C522 C 1.13307 0.16438 0.67218
 C523 C 1.16157 0.15251 0.67794
 C524 C 1.18061 0.16430 0.70121
 C525 C 1.17184 0.18857 0.71913
 N526 N 1.11245 0.15173 0.64972
 N527 N 1.12105 0.13281 0.62983
 C528 C 1.10070 0.11851 0.60834
 C529 C 1.11285 0.09979 0.58573
 C530 C 1.09381 0.08300 0.56660
 C531 C 1.06206 0.08443 0.56990
 C532 C 1.04980 0.10420 0.59169
 C533 C 1.06900 0.12118 0.61077
 H534 H 1.13489 0.21878 0.72572
 H535 H 1.10214 0.19766 0.68558
 H536 H 1.16899 0.13383 0.66479
 H537 H 1.20238 0.15449 0.70454
 H538 H 1.13722 0.09755 0.58363
 H539 H 1.10405 0.06806 0.55005
 H540 H 1.02546 0.10573 0.59486
 H541 H 1.05909 0.13551 0.62816
 C542 C 0.86471 -0.18779 0.68997
 C543 C 0.88162 -0.17205 0.66778
 C544 C 0.87633 -0.14291 0.66368
 C545 C 0.85317 -0.12981 0.68133
 C546 C 0.83563 -0.14561 0.70280
 C547 C 0.84128 -0.17488 0.70792
 N548 N 0.89458 -0.12683 0.64168
 N549 N 0.89831 -0.09993 0.64534
 C550 C 0.91512 -0.08230 0.62369
 C551 C 0.92463 -0.05515 0.63405
 C552 C 0.93888 -0.03621 0.61324
 C553 C 0.94330 -0.04379 0.58121
 C554 C 0.93434 -0.07138 0.57088
 C555 C 0.92055 -0.09064 0.59207
 H556 H 0.86960 -0.21027 0.69226
 H557 H 0.89926 -0.18249 0.65415
 H558 H 0.84852 -0.10731 0.67839
 H559 H 0.81846 -0.13435 0.71616
 H560 H 0.92052 -0.04847 0.65833
 H561 H 0.94541 -0.01516 0.62206
 H562 H 0.93741 -0.07782 0.54636
 H563 H 0.91316 -0.11153 0.58353
 C564 C 1.17612 -0.14804 0.33670
 C565 C 1.16010 -0.13156 0.35870
 C566 C 1.12921 -0.13656 0.36406
 C567 C 1.11440 -0.15892 0.34761
 C568 C 1.13049 -0.17586 0.32580
 C569 C 1.16166 -0.17047 0.31953
 N570 N 1.11369 -0.11809 0.38589
 N571 N 1.08501 -0.11828 0.38994
 C572 C 1.07109 -0.09844 0.41162
 C573 C 1.03958 -0.09468 0.41105
 C574 C 1.02610 -0.07310 0.42951
 C575 C 1.04406 -0.05512 0.44899
 C576 C 1.07540 -0.06006 0.45075
 C577 C 1.08878 -0.08138 0.43224
 H578 H 1.20005 -0.14333 0.33390
 H579 H 1.17181 -0.11449 0.37146
 H580 H 1.09044 -0.16317 0.35143
 H581 H 1.11799 -0.19245 0.31323
 H582 H 1.02562 -0.10771 0.39536
 H583 H 1.00190 -0.06981 0.42764
 H584 H 1.08987 -0.04673 0.46564
 H585 H 1.11311 -0.08400 0.43346
 C586 C 0.87423 0.19221 0.29726
 C587 C 0.89045 0.17979 0.32185
 C588 C 0.87706 0.15860 0.34066
 C589 C 0.84695 0.15001 0.33467
 C590 C 0.83079 0.16201 0.30980
 C591 C 0.84415 0.18325 0.29032
 N592 N 0.89489 0.14512 0.36446
 N593 N 0.88306 0.12857 0.38505
 C594 C 0.90079 0.11335 0.40758
 C595 C 0.88575 0.09696 0.43054
 C596 C 0.90198 0.07890 0.45024
 C597 C 0.93367 0.07670 0.44711
 C598 C 0.94893 0.09436 0.42520
 C599 C 0.93265 0.11257 0.40562
 H600 H 0.88602 0.20800 0.28311
 H601 H 0.91373 0.18650 0.32603
 H602 H 0.83605 0.13361 0.34884
 H603 H 0.80765 0.15473 0.30640
 H604 H 0.86123 0.09735 0.43236
 H605 H 0.88952 0.06561 0.46685
 H606 H 0.97331 0.09310 0.42212
 H607 H 0.94483 0.12502 0.38805
 C608 C 0.20584 0.31583 -0.11470
 C609 C 0.19171 0.33831 -0.09838
 C610 C 0.17195 0.35642 -0.11407
 C611 C 0.16729 0.35246 -0.14665
 C612 C 0.18094 0.32985 -0.16290
 C613 C 0.19983 0.31053 -0.14710
 N614 N 0.15492 0.37702 -0.09620
 N615 N 0.13821 0.39512 -0.10976
 C616 C 0.11860 0.41405 -0.09265
 C617 C 0.10186 0.43388 -0.10960
 C618 C 0.07931 0.44987 -0.09453
 C619 C 0.07300 0.44607 -0.06217
 C620 C 0.09087 0.42717 -0.04483
 C621 C 0.11352 0.41129 -0.05993
 H622 H 0.21998 0.30179 -0.10124
 H623 H 0.19547 0.34109 -0.07321
 H624 H 0.15229 0.36630 -0.15945
 H625 H 0.17651 0.32774 -0.18796
 H626 H 0.10552 0.43614 -0.13483
 H627 H 0.06602 0.46433 -0.10849
 H628 H 0.08659 0.42385 -0.01984
 H629 H 0.12612 0.39603 -0.04634
 C630 C -0.16827 0.29741 0.11152
 C631 C -0.15696 0.32004 0.09339
 C632 C -0.14445 0.34440 0.10806
 C633 C -0.14292 0.34573 0.14134
 C634 C -0.15388 0.32287 0.15954
 C635 C -0.16687 0.29858 0.14478
 N636 N -0.13225 0.36681 0.08865
 N637 N -0.12395 0.39095 0.10014
 C638 C -0.10972 0.41267 0.08123
 C639 C -0.09939 0.43777 0.09622
 C640 C -0.08056 0.45706 0.08009
 C641 C -0.07183 0.45157 0.04854
 C642 C -0.08440 0.42766 0.03261
 C643 C -0.10314 0.40823 0.04889
 H644 H -0.17778 0.27879 0.09952
 H645 H -0.15795 0.31860 0.06781
 H646 H -0.13301 0.36424 0.15322
 H647 H -0.15272 0.32434 0.18510
 H648 H -0.10442 0.44151 0.12105
 H649 H -0.07124 0.47534 0.09294
 H650 H -0.07786 0.42277 0.00839
 H651 H -0.11102 0.38903 0.03672
 C652 C -0.18750 0.67694 -0.14545
 C653 C -0.17348 0.65529 -0.12846
 C654 C -0.14198 0.65239 -0.12952
 C655 C -0.12464 0.67068 -0.14888
 C656 C -0.13860 0.69180 -0.16658
 C657 C -0.17029 0.69576 -0.16476
 N658 N -0.12786 0.63103 -0.11074
 N659 N -0.10025 0.63390 -0.10246
 C660 C -0.08437 0.61293 -0.08479
 C661 C -0.05661 0.62086 -0.07128
 C662 C -0.03899 0.60068 -0.05615
 C663 C -0.04854 0.57184 -0.05476
 C664 C -0.07695 0.56399 -0.06754
 C665 C -0.09487 0.58446 -0.08231
 H666 H -0.21192 0.67836 -0.14383
 H667 H -0.18717 0.64112 -0.11389
 H668 H -0.10022 0.66864 -0.15031
 H669 H -0.12411 0.70570 -0.18051
 H670 H -0.04830 0.64272 -0.07306
 H671 H -0.01727 0.60752 -0.04661
 H672 H -0.08489 0.54196 -0.06689
 H673 H -0.11627 0.57787 -0.09275
 C674 C 0.15178 0.67447 0.21255
 C675 C 0.13840 0.65069 0.19739
 C676 C 0.14576 0.64402 0.16588
 C677 C 0.16695 0.66129 0.14970
 C678 C 0.18026 0.68504 0.16474
 C679 C 0.17277 0.69204 0.19632
 N680 N 0.13031 0.62066 0.15030
 N681 N 0.13621 0.61371 0.12170
 C682 C 0.11966 0.59169 0.10508
 C683 C 0.12547 0.58744 0.07277
 C684 C 0.10694 0.56907 0.05475
 C685 C 0.08229 0.55453 0.06892
 C686 C 0.07771 0.55746 0.10180
 C687 C 0.09616 0.57597 0.11973
 H688 H 0.14578 0.67903 0.23695
 H689 H 0.12202 0.63760 0.21010
 H690 H 0.17283 0.65678 0.12524
 H691 H 0.19587 0.69829 0.15129
 H692 H 0.14356 0.59942 0.06123
 H693 H 0.11108 0.56727 0.02950
 H694 H 0.05891 0.54657 0.11342
 H695 H 0.09132 0.57880 0.14473
 C696 C 0.29523 1.13598 0.85454
 C697 C 0.31447 1.11746 0.87023
 C698 C 0.34140 1.12771 0.88391
 C699 C 0.34878 1.15703 0.88215
 C700 C 0.32918 1.17575 0.86692
 C701 C 0.30232 1.16532 0.85278
 N702 N 0.36033 1.10776 0.89967
 N703 N 0.38753 1.11330 0.90807
 C704 C 0.40502 1.09213 0.92387
 C705 C 0.43676 1.09479 0.92484
 C706 C 0.45424 1.07302 0.93784
 C707 C 0.44007 1.04849 0.95056
 C708 C 0.40817 1.04660 0.95077
 C709 C 0.39087 1.06806 0.93746
 H710 H 0.27451 1.12746 0.84423
 H711 H 0.30847 1.09494 0.87158
 H712 H 0.36943 1.16543 0.89273
 H713 H 0.33514 1.19828 0.86575
 H714 H 0.44799 1.11327 0.91456
 H715 H 0.47875 1.07509 0.93737
 H716 H 0.39648 1.02805 0.96037
 H717 H 0.36640 1.06560 0.93739
 C718 C 0.32311 0.83756 1.21107
 C719 C 0.34677 0.85166 1.19507
 C720 C 0.35170 0.84662 1.16273
 C721 C 0.33304 0.82675 1.14657
 C722 C 0.30944 0.81259 1.16253
 C723 C 0.30398 0.81805 1.19492
 N724 N 0.37471 0.86297 1.14662
 N725 N 0.37970 0.86033 1.11700
 C726 C 0.40167 0.87790 1.10088
 C727 C 0.40421 0.87578 1.06786
 C728 C 0.42305 0.89479 1.05114
 C729 C 0.43968 0.91624 1.06734
 C730 C 0.43816 0.91741 1.10061
 C731 C 0.41931 0.89847 1.11723
 H732 H 0.31975 0.84197 1.23605
 H733 H 0.36099 0.86695 1.20779
 H734 H 0.33631 0.82258 1.12152
 H735 H 0.29491 0.79803 1.14925
 H736 H 0.39075 0.86000 1.05498
 H737 H 0.42374 0.89335 1.02553
 H738 H 0.45077 0.93362 1.11378
 H739 H 0.41788 0.90048 1.14276
 C740 C 0.70935 1.16680 1.12166
 C741 C 0.68644 1.15142 1.10606
 C742 C 0.66515 1.13534 1.12318
 C743 C 0.66716 1.13455 1.15640
 C744 C 0.69025 1.14992 1.17212
 C745 C 0.71147 1.16639 1.15488
 N746 N 0.64232 1.11963 1.10602
 N747 N 0.62158 1.10486 1.11949
 C748 C 0.59966 1.08863 1.10154
 C749 C 0.57898 1.07087 1.11751
 C750 C 0.55932 1.05269 1.10058
 C751 C 0.55996 1.05206 1.06726
 C752 C 0.57972 1.07095 1.05125
 C753 C 0.59946 1.08903 1.06822
 H754 H 0.72566 1.17876 1.10761
 H755 H 0.68531 1.15196 1.08047
 H756 H 0.65099 1.12210 1.17013
 H757 H 0.69123 1.14934 1.19771
 H758 H 0.57881 1.07043 1.14314
 H759 H 0.54432 1.03844 1.11361
 H760 H 0.58080 1.07094 1.02562
 H761 H 0.61513 1.10269 1.05529
 C762 C 0.67548 0.83003 0.81068
 C763 C 0.65103 0.84399 0.82510
 C764 C 0.64665 0.84276 0.85792
 C765 C 0.66653 0.82652 0.87614
 C766 C 0.69074 0.81227 0.86171
 C767 C 0.69576 0.81423 0.82889
 N768 N 0.62310 0.85942 0.87233
 N769 N 0.62121 0.86284 0.90223
 C770 C 0.59890 0.88067 0.91699
 C771 C 0.60321 0.88924 0.94850
 C772 C 0.58445 0.90970 0.96247
 C773 C 0.56053 0.92141 0.94535
 C774 C 0.55486 0.91141 0.91441
 C775 C 0.57415 0.89138 0.90015
 H776 H 0.67863 0.83165 0.78532
 H777 H 0.63591 0.85642 0.81077
 H778 H 0.66366 0.82523 0.90157
 H779 H 0.70614 0.80051 0.87638
 H780 H 0.62213 0.88110 0.96175
 H781 H 0.58916 0.91701 0.98635
 H782 H 0.53667 0.92030 0.90068
 H783 H 0.57028 0.88492 0.87579
   
