data_POSCAR
  _audit_creation_date              2014-09-24
  _audit_creation_method            'ToBaCCo'
  _symmetry_space_group_name_H-M    'P1'
  _symmetry_Int_Tables_number       1
  _symmetry_cell_setting            triclinic
  loop_
  _symmetry_equiv_pos_as_xyz
 x,y,z
_cell_length_a 42.4872
_cell_length_b 41.7560
_cell_length_c 41.4666
_cell_angle_alpha 89.739000
_cell_angle_beta 90.370000
_cell_angle_gamma 90.063000
loop_
  _atom_site_label
  _atom_site_type_symbol
  _atom_site_fract_x
  _atom_site_fract_y
  _atom_site_fract_z
N1 N 0.58775 0.67488 0.60730
 N2 N 0.57510 0.66153 0.63289
 C3 C 0.54948 0.67842 0.64138
 C4 C 0.54577 0.70357 0.61980
 C5 C 0.57050 0.70050 0.59847
 H6 H 0.53441 0.67269 0.66151
 H7 H 0.57587 0.71607 0.57834
 Cu8 Cu 0.59341 0.62330 0.65237
 Cu9 Cu 0.62602 0.65861 0.58774
 Cu10 Cu 0.65969 0.59117 0.62276
 N11 N 0.61217 0.58510 0.67142
 N12 N 0.63855 0.57321 0.66030
 C13 C 0.64687 0.54765 0.67827
 C14 C 0.62431 0.54288 0.70196
 C15 C 0.60259 0.56725 0.69663
 H16 H 0.66757 0.53335 0.67386
 H17 H 0.58164 0.57211 0.71038
 N18 N 0.67743 0.61280 0.58458
 N19 N 0.66473 0.63863 0.57148
 C20 C 0.68225 0.64787 0.54615
 C21 C 0.70710 0.62676 0.54297
 C22 C 0.70325 0.60480 0.56774
 H23 H 0.67707 0.66819 0.53079
 H24 H 0.71836 0.58468 0.57327
 H25 H 0.62012 0.61143 0.60197
 H26 H 0.64412 0.63752 0.62909
 N27 N 0.91325 0.32035 0.11197
 N28 N 0.92441 0.33189 0.13914
 C29 C 0.94938 0.31431 0.14857
 C30 C 0.95451 0.29048 0.12590
 C31 C 0.93095 0.29526 0.10295
 H32 H 0.96315 0.31908 0.16999
 H33 H 0.92653 0.28134 0.08150
 Cu34 Cu 0.90601 0.36956 0.15893
 Cu35 Cu 0.87613 0.33832 0.09074
 Cu36 Cu 0.84241 0.40503 0.12626
 N37 N 0.88724 0.40725 0.17833
 N38 N 0.86213 0.42079 0.16565
 C39 C 0.85414 0.44633 0.18352
 C40 C 0.87556 0.44912 0.20867
 C41 C 0.89624 0.42388 0.20457
 H42 H 0.83467 0.46216 0.17813
 H43 H 0.91630 0.41807 0.21964
 N44 N 0.82592 0.38553 0.08638
 N45 N 0.83848 0.35993 0.07305
 C46 C 0.82154 0.35215 0.04663
 C47 C 0.79732 0.37404 0.04302
 C48 C 0.80089 0.39486 0.06864
 H49 H 0.82662 0.33225 0.03094
 H50 H 0.78598 0.41501 0.07421
 H51 H 0.88245 0.38450 0.10724
 H52 H 0.85640 0.35784 0.13157
 N53 N 0.41360 0.17632 -0.11118
 N54 N 0.42637 0.16313 -0.13666
 C55 C 0.45230 0.17982 -0.14480
 C56 C 0.45610 0.20468 -0.12311
 C57 C 0.43109 0.20165 -0.10209
 H58 H 0.46757 0.17409 -0.16470
 H59 H 0.42574 0.21699 -0.08192
 Cu60 Cu 0.40808 0.12508 -0.15623
 Cu61 Cu 0.37504 0.16002 -0.09194
 Cu62 Cu 0.34188 0.09239 -0.12663
 N63 N 0.38935 0.08704 -0.17537
 N64 N 0.36333 0.07455 -0.16382
 C65 C 0.35534 0.04877 -0.18144
 C66 C 0.37762 0.04472 -0.20530
 C67 C 0.39889 0.06947 -0.20065
 H68 H 0.33502 0.03385 -0.17691
 H69 H 0.41956 0.07451 -0.21486
 N70 N 0.32370 0.11396 -0.08889
 N71 N 0.33609 0.13996 -0.07599
 C72 C 0.31811 0.14922 -0.05108
 C73 C 0.29331 0.12794 -0.04801
 C74 C 0.29766 0.10587 -0.07237
 H75 H 0.32294 0.16967 -0.03595
 H76 H 0.28271 0.08565 -0.07788
 H77 H 0.38126 0.11297 -0.10580
 H78 H 0.35724 0.13892 -0.13323
 N79 N 0.08428 0.82489 0.38972
 N80 N 0.07392 0.83683 0.36230
 C81 C 0.04894 0.81960 0.35225
 C82 C 0.04300 0.79561 0.37477
 C83 C 0.06606 0.79994 0.39829
 H84 H 0.03584 0.82459 0.33040
 H85 H 0.06995 0.78564 0.41971
 Cu86 Cu 0.09373 0.87421 0.34289
 Cu87 Cu 0.12146 0.84163 0.41161
 Cu88 Cu 0.15787 0.90755 0.37681
 N89 N 0.11396 0.91158 0.32395
 N90 N 0.13925 0.92425 0.33713
 C91 C 0.14853 0.94951 0.31929
 C92 C 0.12780 0.95307 0.29362
 C93 C 0.10614 0.92856 0.29739
 H94 H 0.16853 0.96455 0.32494
 H95 H 0.08633 0.92336 0.28179
 N96 N 0.17308 0.88717 0.41695
 N97 N 0.15937 0.86193 0.43002
 C98 C 0.17578 0.85302 0.45646
 C99 C 0.20094 0.87373 0.46037
 C100 C 0.19842 0.89513 0.43490
 H101 H 0.16986 0.83294 0.47181
 H102 H 0.21436 0.91457 0.42943
 H103 H 0.11687 0.88813 0.39493
 H104 H 0.14254 0.86090 0.37110
 N105 N 0.12341 0.12337 0.12052
 N106 N 0.37588 0.87169 0.62570
 N107 N 0.87743 0.62467 0.37476
 N108 N 0.62717 0.37212 -0.12755
 C109 C 0.02663 0.21979 0.12701
 C110 C 0.00754 0.22420 0.09928
 C111 C -0.01660 0.24719 0.09923
 C112 C -0.02160 0.26697 0.12616
 C113 C -0.00189 0.26292 0.15329
 C114 C 0.02167 0.23967 0.15380
 C115 C 0.05171 0.19456 0.12635
 C116 C 0.07037 0.18668 0.15349
 C117 C 0.09361 0.16320 0.15152
 C118 C 0.09901 0.14721 0.12248
 C119 C 0.08042 0.15451 0.09542
 C120 C 0.05655 0.17766 0.09726
 C121 C 0.01302 0.20606 0.07153
 C122 C 0.03728 0.18365 0.07038
 H123 H -0.00142 0.20956 0.05016
 H124 H 0.04080 0.17054 0.04820
 H125 H -0.03085 0.25003 0.07768
 H126 H -0.00468 0.27734 0.17466
 H127 H 0.10776 0.15768 0.17263
 H128 H 0.08433 0.14171 0.07311
 H129 H 0.03593 0.23794 0.17535
 H130 H 0.06728 0.19813 0.17650
 C131 C 0.47356 0.77611 0.61886
 C132 C 0.48151 0.75994 0.64787
 C133 C 0.50481 0.73609 0.64794
 C134 C 0.52094 0.72843 0.61958
 C135 C 0.51342 0.74489 0.59102
 C136 C 0.49001 0.76832 0.59056
 C137 C 0.44820 0.80106 0.61971
 C138 C 0.43744 0.81737 0.59191
 C139 C 0.41377 0.84040 0.59400
 C140 C 0.40035 0.84789 0.62378
 C141 C 0.41071 0.83176 0.65159
 C142 C 0.43423 0.80825 0.64974
 C143 C 0.46645 0.76788 0.67669
 C144 C 0.44354 0.79172 0.67766
 H145 H 0.47265 0.75563 0.69894
 H146 H 0.43275 0.79712 0.70062
 H147 H 0.51078 0.72393 0.67030
 H148 H 0.52538 0.73940 0.56875
 H149 H 0.40600 0.85266 0.57231
 H150 H 0.39999 0.83725 0.67456
 H151 H 0.48534 0.78010 0.56785
 H152 H 0.44680 0.81263 0.56831
 C153 C 0.97168 0.72403 0.37150
 C154 C 0.98978 0.72861 0.39984
 C155 C 1.01355 0.75201 0.40064
 C156 C 1.01916 0.77204 0.37384
 C157 C 1.00025 0.76801 0.34615
 C158 C 0.97705 0.74433 0.34490
 C159 C 0.94719 0.69813 0.37132
 C160 C 0.92975 0.68985 0.34352
 C161 C 0.90712 0.66561 0.34471
 C162 C 0.90112 0.64933 0.37360
 C163 C 0.91848 0.65705 0.40130
 C164 C 0.94177 0.68090 0.40027
 C165 C 0.98376 0.71017 0.42744
 C166 C 0.95994 0.68720 0.42780
 H167 H 0.99743 0.71383 0.44928
 H168 H 0.95597 0.67384 0.44988
 H169 H 1.02706 0.75490 0.42265
 H170 H 1.00349 0.78271 0.32491
 H171 H 0.89393 0.65971 0.32310
 H172 H 0.91413 0.64399 0.42349
 H173 H 0.96344 0.74253 0.32295
 H174 H 0.93340 0.70152 0.32060
 C175 C 0.52956 0.27609 -0.12120
 C176 C 0.52164 0.26032 -0.15030
 C177 C 0.49795 0.23683 -0.15067
 C178 C 0.48136 0.22916 -0.12252
 C179 C 0.48886 0.24519 -0.09384
 C180 C 0.51268 0.26825 -0.09308
 C181 C 0.55524 0.30078 -0.12179
 C182 C 0.56593 0.31678 -0.09389
 C183 C 0.58965 0.33986 -0.09583
 C184 C 0.60323 0.34768 -0.12554
 C185 C 0.59306 0.33170 -0.15338
 C186 C 0.56948 0.30819 -0.15170
 C187 C 0.53709 0.26835 -0.17896
 C188 C 0.56027 0.29198 -0.17971
 H189 H 0.53094 0.25639 -0.20128
 H190 H 0.57129 0.29753 -0.20257
 H191 H 0.49201 0.22501 -0.17311
 H192 H 0.47655 0.23967 -0.07173
 H193 H 0.59718 0.35202 -0.07410
 H194 H 0.60384 0.33745 -0.17632
 H195 H 0.51731 0.27974 -0.07031
 H196 H 0.55637 0.31183 -0.07037
 C197 C 0.12970 0.02569 0.21929
 C198 C 0.10126 0.00977 0.22696
 C199 C 0.10090 -0.01409 0.25093
 C200 C 0.12843 -0.02208 0.26802
 C201 C 0.15647 -0.00595 0.26073
 C202 C 0.15720 0.01752 0.23665
 C203 C 0.12910 0.05085 0.19334
 C204 C 0.15631 0.06719 0.18296
 C205 C 0.15440 0.09068 0.15896
 C206 C 0.12539 0.09856 0.14477
 C207 C 0.09823 0.08228 0.15465
 C208 C 0.09988 0.05839 0.17853
 C209 C 0.07325 0.01800 0.21098
 C210 C 0.07253 0.04197 0.18750
 H211 H 0.05145 0.00591 0.21694
 H212 H 0.05020 0.04764 0.17606
 H213 H 0.07895 -0.02598 0.25669
 H214 H 0.17810 -0.01170 0.27342
 H215 H 0.17560 0.10310 0.15168
 H216 H 0.07583 0.08810 0.14343
 H217 H 0.17948 0.02906 0.23220
 H218 H 0.17928 0.06222 0.19297
 C219 C 0.62193 0.47039 -0.22558
 C220 C 0.64908 0.47474 -0.24466
 C221 C 0.64954 0.49836 -0.26890
 C222 C 0.62361 0.51882 -0.27399
 C223 C 0.59705 0.51484 -0.25424
 C224 C 0.59613 0.49096 -0.23059
 C225 C 0.62218 0.44450 -0.20037
 C226 C 0.59559 0.43668 -0.18172
 C227 C 0.59722 0.41270 -0.15821
 C228 C 0.62537 0.39613 -0.15255
 C229 C 0.65181 0.40329 -0.17125
 C230 C 0.65031 0.42695 -0.19537
 C231 C 0.67587 0.45592 -0.23908
 C232 C 0.67663 0.43288 -0.21465
 H233 H 0.69678 0.45937 -0.25353
 H234 H 0.69808 0.41928 -0.21101
 H235 H 0.67065 0.50112 -0.28312
 H236 H 0.57647 0.52980 -0.25710
 H237 H 0.57658 0.40731 -0.14398
 H238 H 0.67343 0.39006 -0.16715
 H239 H 0.57508 0.48929 -0.21630
 H240 H 0.57330 0.44862 -0.18498
 C241 C 0.38051 0.97098 0.72213
 C242 C 0.35195 0.97837 0.73784
 C243 C 0.35124 1.00227 0.76155
 C244 C 0.37855 1.01942 0.76974
 C245 C 0.40672 1.01230 0.75388
 C246 C 0.40778 0.98841 0.73046
 C247 C 0.38029 0.94509 0.69714
 C248 C 0.40759 0.93524 0.68076
 C249 C 0.40607 0.91115 0.65756
 C250 C 0.37737 0.89630 0.65001
 C251 C 0.35011 0.90573 0.66630
 C252 C 0.35137 0.92979 0.68981
 C253 C 0.32422 0.96208 0.72968
 C254 C 0.32390 0.93844 0.70606
 H255 H 0.30233 0.96780 0.74163
 H256 H 0.30178 0.92666 0.70052
 H257 H 0.32918 1.00781 0.77324
 H258 H 0.42823 1.02495 0.75979
 H259 H 0.42735 0.90428 0.64515
 H260 H 0.32795 0.89402 0.66080
 H261 H 0.43015 0.98407 0.71919
 H262 H 0.43033 0.94576 0.68546
 C263 C 0.87947 0.52278 0.28121
 C264 C 0.85070 0.51547 0.26545
 C265 C 0.84961 0.49153 0.24178
 C266 C 0.87672 0.47418 0.23382
 C267 C 0.90502 0.48100 0.24997
 C268 C 0.90647 0.50498 0.27327
 C269 C 0.87980 0.54906 0.30578
 C270 C 0.90750 0.55931 0.32156
 C271 C 0.90658 0.58402 0.34408
 C272 C 0.87809 0.59900 0.35162
 C273 C 0.85039 0.58908 0.33605
 C274 C 0.85107 0.56452 0.31304
 C275 C 0.82316 0.53192 0.27354
 C276 C 0.82329 0.55571 0.29702
 H277 H 0.80109 0.52621 0.26163
 H278 H 0.80132 0.56762 0.30249
 H279 H 0.82746 0.48613 0.22987
 H280 H 0.92635 0.46811 0.24427
 H281 H 0.92819 0.59139 0.35590
 H282 H 0.82841 0.60098 0.34150
 H283 H 0.92893 0.50909 0.28476
 H284 H 0.93014 0.54880 0.31675
 C285 C 0.21954 0.12990 0.02299
 C286 C 0.22766 0.10088 0.00762
 C287 C 0.25140 0.10050 -0.01579
 C288 C 0.26784 0.12857 -0.02378
 C289 C 0.26004 0.15720 -0.00823
 C290 C 0.23618 0.15796 0.01475
 C291 C 0.19399 0.12928 0.04780
 C292 C 0.18329 0.15702 0.06359
 C293 C 0.15992 0.15504 0.08702
 C294 C 0.14669 0.12543 0.09542
 C295 C 0.15671 0.09775 0.07947
 C296 C 0.18001 0.09947 0.05567
 C297 C 0.21240 0.07231 0.01602
 C298 C 0.18929 0.07157 0.03972
 H299 H 0.21867 0.05007 0.00434
 H300 H 0.17846 0.04879 0.04560
 H301 H 0.25754 0.07810 -0.02725
 H302 H 0.27219 0.17927 -0.01403
 H303 H 0.15249 0.17667 0.09909
 H304 H 0.14617 0.07489 0.08561
 H305 H 0.23136 0.18069 0.02589
 H306 H 0.19263 0.18046 0.05828
 C307 C 0.77980 0.62937 0.47081
 C308 C 0.77239 0.60034 0.48685
 C309 C 0.74894 0.59971 0.51057
 C310 C 0.73218 0.62756 0.51831
 C311 C 0.73931 0.65618 0.50211
 C312 C 0.76281 0.65717 0.47877
 C313 C 0.80520 0.62908 0.44584
 C314 C 0.81516 0.65690 0.42941
 C315 C 0.83882 0.65533 0.40628
 C316 C 0.85306 0.62607 0.39880
 C317 C 0.84351 0.59826 0.41512
 C318 C 0.81993 0.59957 0.43866
 C319 C 0.78817 0.57204 0.47889
 C320 C 0.81125 0.57163 0.45515
 H321 H 0.78242 0.54979 0.49105
 H322 H 0.82261 0.54907 0.44975
 H323 H 0.74334 0.57732 0.52256
 H324 H 0.72694 0.67809 0.50769
 H325 H 0.84586 0.67704 0.39389
 H326 H 0.85480 0.57567 0.40971
 H327 H 0.76713 0.67990 0.46719
 H328 H 0.80514 0.68011 0.43406
 C329 C 0.72513 0.37691 -0.03059
 C330 C 0.74050 0.34776 -0.02288
 C331 C 0.76432 0.34707 0.00078
 C332 C 0.77273 0.37495 0.01755
 C333 C 0.75719 0.40369 0.01016
 C334 C 0.73381 0.40476 -0.01362
 C335 C 0.69995 0.37666 -0.05612
 C336 C 0.68419 0.40459 -0.06653
 C337 C 0.66061 0.40301 -0.09005
 C338 C 0.65202 0.37363 -0.10372
 C339 C 0.66777 0.34573 -0.09388
 C340 C 0.69176 0.34705 -0.07046
 C341 C 0.73169 0.31940 -0.03845
 C342 C 0.70767 0.31900 -0.06150
 H343 H 0.74335 0.29705 -0.03247
 H344 H 0.70154 0.29637 -0.07260
 H345 H 0.77580 0.32460 0.00662
 H346 H 0.76330 0.42560 0.02257
 H347 H 0.64868 0.42480 -0.09735
 H348 H 0.66145 0.32304 -0.10476
 H349 H 0.72273 0.42757 -0.01811
 H350 H 0.68968 0.42789 -0.05691
 C351 C 0.27405 0.86977 0.53295
 C352 C 0.26707 0.89893 0.51690
 C353 C 0.24327 0.90004 0.49326
 C354 C 0.22576 0.87257 0.48560
 C355 C 0.23222 0.84389 0.50207
 C356 C 0.25605 0.84242 0.52535
 C357 C 0.30023 0.86940 0.55741
 C358 C 0.31015 0.84128 0.57346
 C359 C 0.33485 0.84218 0.59578
 C360 C 0.35014 0.87106 0.60285
 C361 C 0.34053 0.89918 0.58708
 C362 C 0.31599 0.89853 0.56426
 C363 C 0.28375 0.92684 0.52463
 C364 C 0.30748 0.92670 0.54799
 H365 H 0.27829 0.94922 0.51249
 H366 H 0.31961 0.94897 0.55316
 H367 H 0.23814 0.92249 0.48112
 H368 H 0.21919 0.82228 0.49661
 H369 H 0.34201 0.82026 0.60779
 H370 H 0.35267 0.92145 0.59221
 H371 H 0.25992 0.81966 0.53708
 H372 H 0.29939 0.81833 0.56897
   
