data_POSCAR
  _audit_creation_date              2014-09-24
  _audit_creation_method            'ToBaCCo'
  _symmetry_space_group_name_H-M    'P1'
  _symmetry_Int_Tables_number       1
  _symmetry_cell_setting            triclinic
  loop_
  _symmetry_equiv_pos_as_xyz
 x,y,z
_cell_length_a 21.6530
_cell_length_b 21.5002
_cell_length_c 24.7646
_cell_angle_alpha 97.660600
_cell_angle_beta 84.498000
_cell_angle_gamma 120.553900
loop_
  _atom_site_label
  _atom_site_type_symbol
  _atom_site_fract_x
  _atom_site_fract_y
  _atom_site_fract_z
C1 C 0.56261 0.10384 0.06401
 H2 H 0.59502 0.13113 0.02958
 C3 C 0.55833 0.14497 0.11148
 H4 H 0.58672 0.20360 0.11281
 C5 C 0.48787 -0.00502 0.10532
 H6 H 0.46012 -0.06368 0.10239
 C7 C 0.48299 0.03384 0.15363
 H8 H 0.45071 0.00433 0.18742
 N9 N 0.52625 0.03005 0.06145
 C10 C 0.51581 -0.15996 0.03133
 H11 H 0.46039 -0.18783 0.01987
 C12 C 0.54131 -0.19598 0.05746
 H13 H 0.50545 -0.25199 0.06527
 C14 C 0.62867 -0.05159 0.03899
 H15 H 0.66152 0.00550 0.03341
 C16 C 0.65662 -0.08568 0.06424
 H17 H 0.71119 -0.05405 0.07780
 Zn18 Zn 0.52533 -0.03229 -0.00073
 N19 N 0.55951 -0.08878 0.02323
 C20 C 0.63080 0.00018 -0.08567
 N21 N 0.58447 0.01982 -0.05891
 C22 C 0.57663 0.07326 -0.07539
 C23 C 0.61920 0.11201 -0.11851
 C24 C 0.67257 0.03582 -0.13015
 C25 C 0.37947 -0.07464 -0.00412
 C26 C 0.31097 -0.11142 -0.02508
 C27 C 0.34812 -0.18079 -0.09070
 C28 C 0.41621 -0.14237 -0.06829
 N29 N 0.43060 -0.09021 -0.02595
 H30 H 0.63435 -0.04420 -0.07330
 H31 H 0.53721 0.08576 -0.05504
 H32 H 0.61304 0.15495 -0.13092
 H33 H 0.70894 0.01939 -0.15126
 H34 H 0.39219 -0.03190 0.02865
 H35 H 0.27284 -0.09611 -0.00644
 H36 H 0.33866 -0.22128 -0.12494
 H37 H 0.45816 -0.15307 -0.08540
 C38 C 0.61239 -0.15850 0.07467
 C39 C 0.51810 0.10986 0.15699
 C40 C 0.29422 -0.16483 -0.06988
 C41 C 0.66732 0.09283 -0.14658
 C42 C -0.09282 0.54762 0.58789
 H43 H -0.05623 0.53991 0.55879
 C44 C -0.13977 0.56697 0.57041
 H45 H -0.13855 0.57458 0.52788
 C46 C -0.14108 0.54468 0.67816
 H47 H -0.14191 0.53471 0.71998
 C48 C -0.18805 0.56495 0.66267
 H49 H -0.22525 0.56983 0.69292
 N50 N -0.09384 0.53768 0.64116
 C51 C 0.01287 0.42551 0.59667
 H52 H -0.02311 0.38221 0.62105
 C53 C 0.04807 0.41047 0.55134
 H54 H 0.03794 0.35557 0.54112
 C55 C 0.07181 0.54954 0.58097
 H56 H 0.07998 0.60347 0.59253
 C57 C 0.10992 0.53714 0.53587
 H58 H 0.14758 0.58164 0.51271
 Zn59 Zn -0.03369 0.50904 0.66746
 N60 N 0.02303 0.49354 0.60954
 C61 C -0.14424 0.36521 0.66447
 N62 N -0.09617 0.42074 0.69839
 C63 C -0.09431 0.41281 0.75173
 C64 C -0.13965 0.34562 0.77197
 C65 C -0.18874 0.29680 0.68250
 C66 C 0.02183 0.64195 0.73414
 C67 C 0.06162 0.69339 0.77604
 C68 C 0.11731 0.62325 0.78728
 C69 C 0.07524 0.57213 0.74557
 N70 N 0.02745 0.58152 0.72081
 H71 H -0.14601 0.37358 0.62265
 H72 H -0.05730 0.45817 0.77848
 H73 H -0.13676 0.33931 0.81417
 H74 H -0.22484 0.25248 0.65442
 H75 H -0.01408 0.65031 0.71279
 H76 H 0.05532 0.74042 0.78648
 H77 H 0.15398 0.61447 0.80756
 H78 H 0.07956 0.52418 0.73368
 C79 C 0.09632 0.46637 0.51988
 C80 C -0.18763 0.57656 0.60816
 C81 C 0.10913 0.68371 0.80381
 C82 C -0.18594 0.28636 0.73665
 C83 C 0.54829 0.57346 0.44857
 H84 H 0.49601 0.56848 0.45292
 C85 C 0.58786 0.59077 0.49502
 H86 H 0.56518 0.59935 0.53420
 C87 C 0.63843 0.56261 0.39318
 H88 H 0.65687 0.54970 0.35341
 C89 C 0.67939 0.57886 0.43869
 H90 H 0.72979 0.57919 0.43355
 N91 N 0.57393 0.55973 0.39884
 C92 C 0.36645 0.43585 0.34571
 H93 H 0.37636 0.39408 0.32514
 C94 C 0.29668 0.41786 0.36291
 H95 H 0.25437 0.36191 0.35615
 C96 C 0.40979 0.55873 0.37976
 H97 H 0.45439 0.61361 0.38606
 C98 C 0.34073 0.54280 0.39863
 H99 H 0.33241 0.58559 0.41965
 Zn100 Zn 0.51652 0.52423 0.33646
 N101 N 0.42171 0.50485 0.35573
 C102 C 0.49532 0.38813 0.34616
 N103 N 0.51407 0.43671 0.30921
 C104 C 0.53250 0.42341 0.25671
 C105 C 0.53130 0.35812 0.23950
 C106 C 0.49352 0.32253 0.33081
 C107 C 0.62298 0.64965 0.28796
 C108 C 0.65138 0.69891 0.24862
 C109 C 0.54024 0.62800 0.20105
 C110 C 0.51442 0.57929 0.24081
 N111 N 0.55581 0.59098 0.28322
 H112 H 0.48166 0.40060 0.38779
 H113 H 0.54820 0.46331 0.22822
 H114 H 0.54576 0.34809 0.19750
 H115 H 0.47787 0.28509 0.36125
 H116 H 0.65462 0.65863 0.32235
 H117 H 0.70465 0.74564 0.25354
 H118 H 0.50645 0.61841 0.16779
 H119 H 0.46099 0.53238 0.23824
 C120 C 0.28331 0.47134 0.39083
 C121 C 0.65389 0.59256 0.49049
 C122 C 0.60971 0.68841 0.20454
 C123 C 0.51155 0.30662 0.27676
 C124 C 0.13122 0.44967 0.47056
 C125 C 0.09683 0.38768 0.43527
 C126 C 0.14851 0.38912 0.39882
 C127 C 0.21109 0.45176 0.41469
 O128 O 0.20046 0.48909 0.45801
 H129 H 0.04090 0.34569 0.43670
 H130 H 0.14134 0.34826 0.36549
 C131 C 0.63814 0.80668 0.10719
 C132 C 0.70937 0.83051 0.11524
 C133 C 0.70859 0.78823 0.15193
 C134 C 0.63699 0.74150 0.16363
 O135 O 0.59421 0.75220 0.13617
 H136 H 0.75647 0.87412 0.09726
 H137 H 0.75484 0.79169 0.16844
 C138 C 0.22964 0.80162 0.90633
 C139 C 0.17399 0.81554 0.92130
 C140 C 0.12184 0.77314 0.88497
 C141 C 0.14830 0.73573 0.85048
 O142 O 0.21326 0.75233 0.86344
 H143 H 0.17080 0.85261 0.95395
 H144 H 0.07036 0.76975 0.88398
 C145 C 0.76150 0.59569 0.59004
 C146 C 0.72642 0.62531 0.62373
 C147 C 0.68245 0.63024 0.59085
 C148 C 0.69377 0.60324 0.53940
 O149 O 0.74215 0.58286 0.53886
 H150 H 0.73183 0.64129 0.66709
 H151 H 0.64626 0.65067 0.60331
 C152 C 0.51187 0.15237 0.20714
 C153 C 0.49358 0.12807 0.25829
 C154 C 0.49181 0.18273 0.29175
 C155 C 0.50906 0.23676 0.25869
 O156 O 0.52164 0.21838 0.20737
 H157 H 0.48302 0.07680 0.27011
 H158 H 0.47903 0.18223 0.33501
 C159 C -0.28998 0.13074 0.80620
 C160 C -0.27848 0.09669 0.75831
 C161 C -0.23927 0.15052 0.72516
 C162 C -0.22896 0.21349 0.75560
 O163 O -0.25982 0.20168 0.80481
 H164 H -0.29739 0.03937 0.74854
 H165 H -0.21934 0.14485 0.68410
   
