data_POSCAR
  _audit_creation_date              2014-09-24
  _audit_creation_method            'ToBaCCo'
  _symmetry_space_group_name_H-M    'P1'
  _symmetry_Int_Tables_number       1
  _symmetry_cell_setting            triclinic
  loop_
  _symmetry_equiv_pos_as_xyz
 x,y,z
_cell_length_a 34.7134
_cell_length_b 34.9072
_cell_length_c 33.9773
_cell_angle_alpha 89.729500
_cell_angle_beta 90.114000
_cell_angle_gamma 90.234100
loop_
  _atom_site_label
  _atom_site_type_symbol
  _atom_site_fract_x
  _atom_site_fract_y
  _atom_site_fract_z
C1 C 0.30874 0.30084 0.23600
 H2 H 0.31024 0.30045 0.26781
 C3 C 0.33446 0.32345 0.21445
 H4 H 0.35566 0.34048 0.22991
 C5 C 0.27919 0.27882 0.17731
 H6 H 0.25793 0.26108 0.16291
 C7 C 0.30438 0.30102 0.15462
 H8 H 0.30217 0.30054 0.12282
 N9 N 0.28142 0.27960 0.21729
 C10 C 0.18965 0.26688 0.30405
 H11 H 0.18656 0.23604 0.30514
 C12 C 0.16654 0.28989 0.32777
 H13 H 0.14566 0.27674 0.34731
 C14 C 0.22055 0.32176 0.27726
 H15 H 0.24125 0.33417 0.25721
 C16 C 0.19798 0.34578 0.30038
 H17 H 0.20196 0.37644 0.29810
 Zn18 Zn 0.24760 0.25030 0.24920
 N19 N 0.21651 0.28305 0.27997
 C20 C 0.27651 0.22124 0.32184
 N21 N 0.27859 0.21889 0.28193
 C22 C 0.30425 0.19524 0.26419
 C23 C 0.32842 0.17198 0.28678
 C24 C 0.30019 0.19851 0.34552
 C25 C 0.18869 0.23880 0.19417
 C26 C 0.16362 0.21818 0.16994
 C27 C 0.19096 0.15951 0.19532
 C28 C 0.21546 0.18121 0.21913
 N29 N 0.21433 0.22015 0.21768
 H30 H 0.25677 0.24094 0.33546
 H31 H 0.30585 0.19447 0.23241
 H32 H 0.34857 0.15307 0.27237
 H33 H 0.29803 0.20067 0.37718
 H34 H 0.18800 0.26978 0.19405
 H35 H 0.14377 0.23350 0.15108
 H36 H 0.19238 0.12853 0.19633
 H37 H 0.23533 0.16685 0.23867
 C38 C 0.17087 0.32978 0.32622
 C39 C 0.33218 0.32382 0.17327
 C40 C 0.16489 0.17807 0.17024
 C41 C 0.32641 0.17348 0.32790
 C42 C 0.81355 0.80399 0.23616
 H43 H 0.81481 0.80443 0.26798
 C44 C 0.83875 0.82683 0.21424
 H45 H 0.85914 0.84467 0.22981
 C46 C 0.78514 0.77961 0.17794
 H47 H 0.76453 0.76087 0.16390
 C48 C 0.80982 0.80199 0.15482
 H49 H 0.80770 0.80049 0.12305
 N50 N 0.78705 0.78146 0.21787
 C51 C 0.69535 0.76856 0.30470
 H52 H 0.69325 0.73769 0.30684
 C53 C 0.67150 0.79157 0.32763
 H54 H 0.65104 0.77841 0.34762
 C55 C 0.72453 0.82349 0.27610
 H56 H 0.74486 0.83591 0.25566
 C57 C 0.70121 0.84752 0.29841
 H58 H 0.70424 0.87820 0.29512
 Zn59 Zn 0.75409 0.75210 0.25064
 N60 N 0.72174 0.78478 0.28012
 C61 C 0.78321 0.72542 0.32435
 N62 N 0.78601 0.72284 0.28451
 C63 C 0.81246 0.69963 0.26738
 C64 C 0.83640 0.67669 0.29051
 C65 C 0.80668 0.70299 0.34860
 C66 C 0.69616 0.73524 0.19524
 C67 C 0.67171 0.71197 0.17292
 C68 C 0.70035 0.65638 0.20359
 C69 C 0.72421 0.68064 0.22532
 N70 N 0.72210 0.71930 0.22047
 H71 H 0.76278 0.74475 0.33748
 H72 H 0.81451 0.69861 0.23563
 H73 H 0.85691 0.65783 0.27656
 H74 H 0.80375 0.70503 0.38019
 H75 H 0.69455 0.76608 0.19248
 H76 H 0.65128 0.72490 0.15277
 H77 H 0.70260 0.62577 0.20786
 H78 H 0.74413 0.66845 0.24628
 C79 C 0.67460 0.83151 0.32480
 C80 C 0.83691 0.82625 0.17291
 C81 C 0.67383 0.67207 0.17695
 C82 C 0.83337 0.67805 0.33156
 C83 C 0.80674 0.29815 0.73333
 H84 H 0.80943 0.29986 0.76501
 C85 C 0.83078 0.32021 0.70926
 H86 H 0.85197 0.33910 0.72240
 C87 C 0.77564 0.27175 0.67746
 H88 H 0.75439 0.25259 0.66510
 C89 C 0.79916 0.29322 0.65233
 H90 H 0.79538 0.29062 0.62086
 N91 N 0.77924 0.27518 0.71718
 C92 C 0.69000 0.26692 0.80729
 H93 H 0.68679 0.23616 0.80978
 C94 C 0.66757 0.29101 0.83053
 H95 H 0.64710 0.27879 0.85112
 C96 C 0.72044 0.32048 0.77733
 H97 H 0.74061 0.33196 0.75618
 C98 C 0.69854 0.34556 0.79993
 H99 H 0.70253 0.37610 0.79618
 Zn100 Zn 0.74625 0.24761 0.75162
 N101 N 0.71633 0.28192 0.78185
 C102 C 0.77653 0.22078 0.82452
 N103 N 0.77774 0.21704 0.78471
 C104 C 0.80251 0.19228 0.76734
 C105 C 0.82654 0.16918 0.79024
 C106 C 0.80006 0.19825 0.84857
 C107 C 0.68564 0.23509 0.69905
 C108 C 0.66028 0.21421 0.67541
 C109 C 0.68791 0.15583 0.70117
 C110 C 0.71274 0.17781 0.72437
 N111 N 0.71171 0.21673 0.72229
 H112 H 0.75750 0.24136 0.83780
 H113 H 0.80343 0.19039 0.73558
 H114 H 0.84587 0.14936 0.77590
 H115 H 0.79823 0.20182 0.88007
 H116 H 0.68509 0.26608 0.69839
 H117 H 0.64031 0.22934 0.65653
 H118 H 0.68943 0.12486 0.70243
 H119 H 0.73299 0.16369 0.74368
 C120 C 0.67199 0.33078 0.82711
 C121 C 0.82674 0.31814 0.66830
 C122 C 0.66167 0.17410 0.67604
 C123 C 0.82540 0.17181 0.83148
 C124 C 0.30939 0.79960 0.73123
 H125 H 0.31241 0.80162 0.76285
 C126 C 0.33301 0.82162 0.70667
 H127 H 0.35419 0.84079 0.71939
 C128 C 0.27797 0.77238 0.67597
 H129 H 0.25679 0.75289 0.66404
 C130 C 0.30106 0.79378 0.65037
 H131 H 0.29702 0.79081 0.61897
 N132 N 0.28196 0.77621 0.71561
 C133 C 0.19415 0.76700 0.80707
 H134 H 0.19160 0.73621 0.80988
 C135 C 0.17119 0.79082 0.83006
 H136 H 0.15103 0.77837 0.85082
 C137 C 0.22318 0.82090 0.77631
 H138 H 0.24295 0.83259 0.75488
 C139 C 0.20074 0.84573 0.79865
 H140 H 0.20394 0.87629 0.79445
 Zn141 Zn 0.24988 0.74837 0.75068
 N142 N 0.21995 0.78232 0.78127
 C143 C 0.28161 0.72147 0.82303
 N144 N 0.28228 0.71821 0.78314
 C145 C 0.30716 0.69401 0.76503
 C146 C 0.33191 0.67101 0.78723
 C147 C 0.30588 0.69898 0.84633
 C148 C 0.18863 0.73501 0.69918
 C149 C 0.16302 0.71376 0.67620
 C150 C 0.19154 0.65578 0.70189
 C151 C 0.21663 0.67812 0.72443
 N152 N 0.21526 0.71702 0.72207
 H153 H 0.26241 0.74154 0.83689
 H154 H 0.30756 0.69248 0.73324
 H155 H 0.35122 0.65169 0.77231
 H156 H 0.30494 0.70154 0.87807
 H157 H 0.18782 0.76598 0.69832
 H158 H 0.14258 0.72861 0.65761
 H159 H 0.19330 0.62483 0.70337
 H160 H 0.23733 0.66430 0.74347
 C161 C 0.17455 0.83064 0.82602
 C162 C 0.32863 0.81905 0.66578
 C163 C 0.16470 0.67367 0.67714
 C164 C 0.33120 0.67330 0.82839
 C165 C 0.04972 0.06130 0.01052
 H166 H 0.04978 0.06282 -0.02129
 C167 C 0.07211 0.08690 0.03231
 H168 H 0.08941 0.10804 0.01703
 C169 C 0.02688 0.03175 0.06899
 H170 H 0.00893 0.01052 0.08322
 C171 C 0.04880 0.05684 0.09190
 H172 H 0.04791 0.05457 0.12369
 N173 N 0.02824 0.03399 0.02902
 C174 C 0.01771 -0.05751 -0.05749
 H175 H -0.01326 -0.06083 -0.05909
 C176 C 0.04149 -0.08062 -0.08038
 H177 H 0.02883 -0.10171 -0.09983
 C178 C 0.07212 -0.02622 -0.03000
 H179 H 0.08405 -0.00544 -0.00991
 C180 C 0.09691 -0.04877 -0.05229
 H181 H 0.12767 -0.04468 -0.04938
 Zn182 Zn -0.00044 -0.00002 -0.00307
 N183 N 0.03327 -0.03052 -0.03340
 C184 C -0.03012 0.02809 -0.07593
 N185 N -0.03226 0.03031 -0.03600
 C186 C -0.05623 0.05561 -0.01822
 C187 C -0.08000 0.07930 -0.04074
 C188 C -0.05343 0.05129 -0.09956
 C189 C -0.01161 -0.05873 0.05206
 C190 C -0.03215 -0.08382 0.07641
 C191 C -0.09137 -0.05755 0.05062
 C192 C -0.06973 -0.03298 0.02672
 N193 N -0.03056 -0.03354 0.02835
 H194 H -0.01020 0.00858 -0.08958
 H195 H -0.05685 0.05728 0.01356
 H196 H -0.09915 0.09919 -0.02628
 H197 H -0.05150 0.04909 -0.13124
 H198 H 0.01955 -0.05898 0.05232
 H199 H -0.01661 -0.10326 0.09551
 H200 H -0.12253 -0.05654 0.04954
 H201 H -0.08431 -0.01346 0.00703
 C202 C 0.08155 -0.07616 -0.07799
 C203 C 0.07197 0.08452 0.07348
 C204 C -0.07250 -0.08306 0.07599
 C205 C -0.07876 0.07713 -0.08185
 C206 C 0.05094 0.55641 0.51720
 H207 H 0.05152 0.55801 0.48540
 C208 C 0.07351 0.58146 0.53939
 H209 H 0.09149 0.60223 0.52439
 C210 C 0.02640 0.52735 0.57521
 H211 H 0.00765 0.50656 0.58906
 C212 C 0.04857 0.55189 0.59855
 H213 H 0.04707 0.54966 0.63031
 N214 N 0.02839 0.52971 0.53527
 C215 C 0.01596 0.44013 0.44699
 H216 H -0.01507 0.43814 0.44462
 C217 C 0.03926 0.41697 0.42362
 H218 H 0.02616 0.39716 0.40308
 C219 C 0.07100 0.46841 0.47652
 H220 H 0.08334 0.48815 0.49745
 C221 C 0.09532 0.44574 0.45381
 H222 H 0.12615 0.44867 0.45729
 Zn223 Zn -0.00093 0.49741 0.50206
 N224 N 0.03210 0.46576 0.47222
 C225 C -0.02652 0.52813 0.42869
 N226 N -0.03005 0.52978 0.46854
 C227 C -0.05356 0.55579 0.48587
 C228 C -0.07564 0.58068 0.46291
 C229 C -0.04805 0.55257 0.40463
 C230 C -0.01781 0.43905 0.55665
 C231 C -0.04110 0.41445 0.57889
 C232 C -0.09713 0.44322 0.54883
 C233 C -0.07283 0.46724 0.52718
 N234 N -0.03395 0.46513 0.53180
 H235 H -0.00692 0.50806 0.41544
 H236 H -0.05528 0.55697 0.51763
 H237 H -0.09459 0.60100 0.47700
 H238 H -0.04510 0.55068 0.37302
 H239 H 0.01321 0.43747 0.55924
 H240 H -0.02801 0.39396 0.59881
 H241 H -0.12794 0.44550 0.54482
 H242 H -0.08515 0.48734 0.50652
 C243 C 0.07940 0.41998 0.42672
 C244 C 0.07256 0.57915 0.58056
 C245 C -0.08123 0.41659 0.57515
 C246 C -0.07308 0.57904 0.42183
 C247 C 0.54990 0.05824 0.51340
 H248 H 0.55084 0.06005 0.48161
 C249 C 0.57204 0.08332 0.53603
 H250 H 0.59003 0.10433 0.52141
 C251 C 0.52499 0.02858 0.57091
 H252 H 0.50628 0.00755 0.58442
 C253 C 0.54668 0.05314 0.59468
 H254 H 0.54486 0.05065 0.62641
 N255 N 0.52743 0.03118 0.53102
 C256 C 0.51704 -0.05882 0.44277
 H257 H 0.48606 -0.06143 0.44035
 C258 C 0.54085 -0.08181 0.41976
 H259 H 0.52820 -0.10210 0.39943
 C260 C 0.57145 -0.02927 0.47220
 H261 H 0.58335 -0.00913 0.49300
 C262 C 0.59627 -0.05171 0.44982
 H263 H 0.62703 -0.04821 0.45341
 Zn264 Zn 0.49888 -0.00159 0.49749
 N265 N 0.53262 -0.03268 0.46783
 C266 C 0.47223 0.02813 0.42399
 N267 N 0.46918 0.03016 0.46385
 C268 C 0.44530 0.05584 0.48119
 C269 C 0.42228 0.07986 0.45825
 C270 C 0.44973 0.05170 0.39992
 C271 C 0.48273 -0.06025 0.55202
 C272 C 0.45971 -0.08495 0.57444
 C273 C 0.40335 -0.05694 0.54427
 C274 C 0.42738 -0.03281 0.52244
 N275 N 0.46628 -0.03443 0.52708
 H276 H 0.49207 0.00830 0.41071
 H277 H 0.44391 0.05730 0.51296
 H278 H 0.40299 0.09985 0.47236
 H279 H 0.45223 0.04946 0.36830
 H280 H 0.51377 -0.06144 0.55464
 H281 H 0.47303 -0.10516 0.59451
 H282 H 0.37251 -0.05499 0.54030
 H283 H 0.41481 -0.01293 0.50170
 C284 C 0.58093 -0.07807 0.42298
 C285 C 0.57069 0.08068 0.57717
 C286 C 0.41955 -0.08321 0.57079
 C287 C 0.42423 0.07770 0.41716
 C288 C 0.55443 0.55999 0.01999
 H289 H 0.55587 0.56267 -0.01171
 C290 C 0.57699 0.58375 0.04374
 H291 H 0.59602 0.60469 0.03031
 C292 C 0.52801 0.52938 0.07626
 H293 H 0.50860 0.50848 0.08891
 C294 C 0.54997 0.55263 0.10107
 H295 H 0.54749 0.54897 0.13258
 N296 N 0.53113 0.53293 0.03650
 C297 C 0.51897 0.44464 -0.05338
 H298 H 0.48793 0.44219 -0.05498
 C299 C 0.54205 0.42148 -0.07694
 H300 H 0.52876 0.40123 -0.09690
 C301 C 0.57426 0.47372 -0.02518
 H302 H 0.58679 0.49365 -0.00455
 C303 C 0.59838 0.45108 -0.04815
 H304 H 0.62925 0.45422 -0.04522
 Zn305 Zn 0.50216 0.50090 0.00255
 N306 N 0.53532 0.47056 -0.02858
 C307 C 0.47389 0.53177 -0.06958
 N308 N 0.47142 0.53302 -0.02964
 C309 C 0.44759 0.55816 -0.01141
 C310 C 0.42410 0.58254 -0.03351
 C311 C 0.45091 0.55565 -0.09277
 C312 C 0.48911 0.44046 0.05508
 C313 C 0.46786 0.41508 0.07844
 C314 C 0.40944 0.44379 0.05354
 C315 C 0.43178 0.46861 0.03061
 N316 N 0.47091 0.46698 0.03231
 H317 H 0.49370 0.51239 -0.08358
 H318 H 0.44668 0.55901 0.02040
 H319 H 0.40504 0.60204 -0.01850
 H320 H 0.45282 0.55422 -0.12455
 H321 H 0.52026 0.43942 0.05543
 H322 H 0.48287 0.39461 0.09682
 H323 H 0.37832 0.44567 0.05244
 H324 H 0.41778 0.48921 0.01165
 C325 C 0.58221 0.42477 -0.07454
 C326 C 0.57508 0.57989 0.08474
 C327 C 0.42755 0.41692 0.07801
 C328 C 0.42554 0.58118 -0.07469
 C329 C 0.10563 -0.10023 -0.14835
 C330 C 0.15021 -0.09943 -0.14960
 C331 C 0.15038 -0.14355 -0.14891
 C332 C 0.10607 -0.14458 -0.14794
 C333 C 0.15203 -0.14371 -0.10366
 C334 C 0.15165 -0.09937 -0.10408
 C335 C 0.10730 -0.10036 -0.10311
 C336 C 0.10745 -0.14444 -0.10241
 H337 H 0.08630 -0.08211 -0.16658
 H338 H 0.16750 -0.08023 -0.16883
 H339 H 0.08749 -0.16336 -0.16626
 H340 H 0.17135 -0.16185 -0.08544
 H341 H 0.17111 -0.08106 -0.08622
 H342 H 0.08968 -0.16279 -0.08272
 C343 C 0.10350 0.39913 0.35536
 C344 C 0.14808 0.39872 0.35460
 C345 C 0.14699 0.35467 0.35256
 C346 C 0.10267 0.35484 0.35303
 C347 C 0.14813 0.35183 0.39774
 C348 C 0.14903 0.39610 0.40005
 C349 C 0.10467 0.39632 0.40054
 C350 C 0.10353 0.35231 0.39852
 H351 H 0.08490 0.41882 0.33808
 H352 H 0.16609 0.41854 0.33675
 H353 H 0.08377 0.33771 0.33339
 H354 H 0.16673 0.33213 0.41501
 H355 H 0.16881 0.41274 0.41920
 H356 H 0.08504 0.33338 0.41688
 C357 C 0.60553 -0.10003 0.35209
 C358 C 0.65011 -0.09941 0.35134
 C359 C 0.65008 -0.14352 0.35044
 C360 C 0.60575 -0.14437 0.35091
 C361 C 0.65125 -0.14523 0.39568
 C362 C 0.65110 -0.10090 0.39684
 C363 C 0.60674 -0.10170 0.39733
 C364 C 0.60665 -0.14578 0.39645
 H365 H 0.58647 -0.08121 0.33432
 H366 H 0.66766 -0.07962 0.33300
 H367 H 0.58728 -0.16242 0.33172
 H368 H 0.67030 -0.16406 0.41345
 H369 H 0.67048 -0.08333 0.41553
 H370 H 0.58861 -0.16468 0.41529
 C371 C 0.60525 0.40142 -0.14554
 C372 C 0.64982 0.40096 -0.14705
 C373 C 0.64870 0.35685 -0.14723
 C374 C 0.60440 0.35708 -0.14601
 C375 C 0.65060 0.35580 -0.10200
 C376 C 0.65152 0.40014 -0.10154
 C377 C 0.60717 0.40040 -0.10031
 C378 C 0.60603 0.35632 -0.10048
 H379 H 0.58636 0.42043 -0.16329
 H380 H 0.66756 0.42000 -0.16603
 H381 H 0.58517 0.33919 -0.16457
 H382 H 0.66948 0.33678 -0.08425
 H383 H 0.67156 0.41757 -0.08344
 H384 H 0.58786 0.33813 -0.08104
 C385 C -0.10749 0.10446 -0.15150
 C386 C -0.15186 0.10576 -0.14800
 C387 C -0.15012 0.14777 -0.14513
 C388 C -0.10795 0.14868 -0.14933
 C389 C -0.14812 0.14690 -0.10179
 C390 C -0.14872 0.10266 -0.10270
 C391 C -0.10438 0.10252 -0.10613
 C392 C -0.10367 0.14670 -0.10406
 H393 H -0.09144 0.08762 -0.17365
 H394 H -0.17280 0.09010 -0.16682
 H395 H -0.09239 0.16874 -0.16926
 H396 H -0.16510 0.16460 -0.08114
 H397 H -0.16671 0.08384 -0.08370
 H398 H -0.08396 0.16474 -0.08619
 C399 C -0.09834 0.60799 0.35180
 C400 C -0.14289 0.60848 0.35329
 C401 C -0.14179 0.65242 0.35645
 C402 C -0.09751 0.65223 0.35475
 C403 C -0.14077 0.64978 0.40170
 C404 C -0.14160 0.60556 0.39874
 C405 C -0.09732 0.60535 0.39706
 C406 C -0.09620 0.64929 0.40024
 H407 H -0.08109 0.59103 0.33072
 H408 H -0.16241 0.59185 0.33382
 H409 H -0.07954 0.67175 0.33650
 H410 H -0.15801 0.66679 0.42276
 H411 H -0.15959 0.58604 0.41698
 H412 H -0.07667 0.66589 0.41972
 C413 C 0.39674 0.10500 0.34721
 C414 C 0.35222 0.10443 0.34970
 C415 C 0.35229 0.14841 0.35232
 C416 C 0.39652 0.14929 0.34959
 C417 C 0.35439 0.14635 0.39757
 C418 C 0.35459 0.10210 0.39516
 C419 C 0.39882 0.10296 0.39246
 C420 C 0.39890 0.14694 0.39507
 H421 H 0.41398 0.08820 0.32599
 H422 H 0.33269 0.08710 0.33090
 H423 H 0.41360 0.16902 0.33070
 H424 H 0.33721 0.16312 0.41887
 H425 H 0.33750 0.08237 0.41405
 H426 H 0.41843 0.16427 0.41387
 C427 C 0.37074 0.63600 -0.08544
 C428 C 0.38604 0.66467 -0.11666
 C429 C 0.35687 0.64864 -0.14655
 C430 C 0.34132 0.62023 -0.11563
 C431 C 0.38640 0.61896 -0.16076
 C432 C 0.41583 0.63473 -0.13056
 C433 C 0.40027 0.60632 -0.09965
 C434 C 0.37109 0.59032 -0.12955
 H435 H 0.36389 0.64344 -0.05453
 H436 H 0.39208 0.69551 -0.11165
 H437 H 0.31041 0.61437 -0.10976
 H438 H 0.39329 0.61151 -0.19165
 H439 H 0.44675 0.64059 -0.13643
 H440 H 0.36504 0.55948 -0.13458
 C441 C -0.12683 -0.13710 0.08893
 C442 C -0.11228 -0.16651 0.11967
 C443 C -0.13845 -0.15015 0.14910
 C444 C -0.15430 -0.12208 0.12103
 C445 C -0.10903 -0.12314 0.16371
 C446 C -0.08035 -0.13823 0.13274
 C447 C -0.09568 -0.10845 0.10283
 C448 C -0.12353 -0.09267 0.13413
 H449 H -0.13501 -0.14369 0.05809
 H450 H -0.10870 -0.19776 0.11495
 H451 H -0.18558 -0.11640 0.11745
 H452 H -0.10164 -0.11727 0.19487
 H453 H -0.05004 -0.14631 0.13888
 H454 H -0.12902 -0.06211 0.14098
 C455 C -0.10596 0.38878 0.64439
 C456 C -0.15053 0.38744 0.64440
 C457 C -0.14904 0.34346 0.64230
 C458 C -0.10472 0.34450 0.64259
 C459 C -0.14958 0.34507 0.59700
 C460 C -0.15089 0.38933 0.59889
 C461 C -0.10653 0.39041 0.59912
 C462 C -0.10498 0.34642 0.59703
 H463 H -0.08786 0.40704 0.66373
 H464 H -0.16949 0.40417 0.66413
 H465 H -0.08590 0.32578 0.66074
 H466 H -0.16723 0.32725 0.57685
 H467 H -0.17063 0.40753 0.58125
 H468 H -0.08599 0.32973 0.57729
 C469 C 0.39536 -0.11028 0.64047
 C470 C 0.35080 -0.11185 0.64075
 C471 C 0.35253 -0.15585 0.63927
 C472 C 0.39684 -0.15457 0.63928
 C473 C 0.35172 -0.15485 0.59396
 C474 C 0.35018 -0.11058 0.59523
 C475 C 0.39454 -0.10926 0.59519
 C476 C 0.39633 -0.15326 0.59370
 H477 H 0.41347 -0.09167 0.65945
 H478 H 0.33186 -0.09497 0.66036
 H479 H 0.41586 -0.17294 0.65759
 H480 H 0.33406 -0.17304 0.57416
 H481 H 0.33025 -0.09273 0.57745
 H482 H 0.41530 -0.17011 0.57409
 C483 C 0.37192 0.36419 0.08852
 C484 C 0.38608 0.33282 0.11743
 C485 C 0.35870 0.34847 0.14900
 C486 C 0.34425 0.37955 0.12036
 C487 C 0.39041 0.37555 0.16436
 C488 C 0.41809 0.36014 0.13251
 C489 C 0.40360 0.39124 0.10387
 C490 C 0.37619 0.40685 0.13544
 H491 H 0.36453 0.35967 0.05708
 H492 H 0.38995 0.30209 0.11022
 H493 H 0.31364 0.38741 0.11559
 H494 H 0.39852 0.38074 0.19549
 H495 H 0.44842 0.35164 0.13787
 H496 H 0.37229 0.43757 0.14266
 C497 C 0.12719 0.09591 0.12711
 C498 C 0.15524 0.12742 0.11246
 C499 C 0.13930 0.15473 0.14381
 C500 C 0.11149 0.12347 0.15873
 C501 C 0.10867 0.16959 0.11472
 C502 C 0.12440 0.14199 0.08309
 C503 C 0.09658 0.11069 0.09802
 C504 C 0.08060 0.13799 0.12937
 H505 H 0.13469 0.06537 0.13198
 H506 H 0.18620 0.12323 0.10570
 H507 H 0.10634 0.11607 0.19009
 H508 H 0.10058 0.19987 0.10930
 H509 H 0.13021 0.15005 0.05203
 H510 H 0.04963 0.14214 0.13612
 C511 C 0.12463 0.63666 0.59049
 C512 C 0.10858 0.66427 0.62189
 C513 C 0.13919 0.64977 0.65118
 C514 C 0.15541 0.62239 0.62004
 C515 C 0.11153 0.61840 0.66616
 C516 C 0.08065 0.63259 0.63658
 C517 C 0.09693 0.60525 0.60543
 C518 C 0.12750 0.59077 0.63472
 H519 H 0.13062 0.64473 0.55947
 H520 H 0.10024 0.69445 0.61621
 H521 H 0.18643 0.61835 0.61343
 H522 H 0.10630 0.61113 0.69754
 H523 H 0.04963 0.63659 0.64317
 H524 H 0.13515 0.56029 0.63976
 C525 C 0.62273 0.13806 0.58835
 C526 C 0.60631 0.16543 0.61980
 C527 C 0.63646 0.15057 0.64940
 C528 C 0.65306 0.12345 0.61822
 C529 C 0.60852 0.11913 0.66364
 C530 C 0.57810 0.13368 0.63375
 C531 C 0.59475 0.10659 0.60257
 C532 C 0.62487 0.09176 0.63217
 H533 H 0.62915 0.14638 0.55749
 H534 H 0.59813 0.19568 0.61432
 H535 H 0.68416 0.11940 0.61203
 H536 H 0.60282 0.11157 0.69487
 H537 H 0.54699 0.13769 0.63993
 H538 H 0.63239 0.06123 0.63702
 C539 C 0.60219 0.60383 0.15570
 C540 C 0.64669 0.60265 0.15370
 C541 C 0.64765 0.64677 0.15312
 C542 C 0.60342 0.64819 0.15532
 C543 C 0.64602 0.64711 0.10785
 C544 C 0.64480 0.60278 0.10819
 C545 C 0.60057 0.60414 0.11040
 C546 C 0.60149 0.64822 0.10977
 H547 H 0.58434 0.58634 0.17607
 H548 H 0.66505 0.58314 0.17142
 H549 H 0.58657 0.66712 0.17495
 H550 H 0.66433 0.66508 0.08832
 H551 H 0.66167 0.58388 0.08856
 H552 H 0.58261 0.66679 0.09152
   
