data_POSCAR
  _audit_creation_date              2014-09-24
  _audit_creation_method            'ToBaCCo'
  _symmetry_space_group_name_H-M    'P1'
  _symmetry_Int_Tables_number       1
  _symmetry_cell_setting            triclinic
  loop_
  _symmetry_equiv_pos_as_xyz
 x,y,z
_cell_length_a 55.7675
_cell_length_b 55.7392
_cell_length_c 55.7787
_cell_angle_alpha 89.966900
_cell_angle_beta 89.973700
_cell_angle_gamma 90.033900
loop_
  _atom_site_label
  _atom_site_type_symbol
  _atom_site_fract_x
  _atom_site_fract_y
  _atom_site_fract_z
C1 C 0.29017 0.36204 -0.02223
 C2 C 0.28162 0.37070 -0.00034
 C3 C 0.29042 0.36196 0.02140
 C4 C 0.30824 0.34397 0.02153
 C5 C 0.31709 0.33497 -0.00057
 C6 C 0.30804 0.34402 -0.02258
 C7 C 0.31716 0.33488 -0.04426
 C8 C 0.33488 0.31729 -0.04433
 C9 C 0.34417 0.30813 -0.02273
 C10 C 0.33516 0.31702 -0.00065
 C11 C 0.31750 0.33483 0.04312
 C12 C 0.33521 0.31723 0.04305
 C13 C 0.34431 0.30812 0.02138
 C14 C 0.36240 0.29040 0.02110
 C15 C 0.37112 0.28177 -0.00072
 C16 C 0.36232 0.29039 -0.02253
 H17 H 0.31068 0.34132 -0.06138
 H18 H 0.34129 0.31093 -0.06151
 H19 H 0.31114 0.34126 0.06029
 H20 H 0.34175 0.31082 0.06017
 H21 H 0.26800 0.38463 -0.00016
 H22 H 0.38513 0.26823 -0.00066
 C23 C 0.71006 0.63804 0.02214
 C24 C 0.71881 0.62928 0.00039
 C25 C 0.71029 0.63802 -0.02150
 C26 C 0.69251 0.65612 -0.02182
 C27 C 0.68350 0.66517 0.00020
 C28 C 0.69231 0.65610 0.02229
 C29 C 0.68308 0.66525 0.04390
 C30 C 0.66544 0.68292 0.04384
 C31 C 0.65638 0.69209 0.02217
 C32 C 0.66551 0.68318 0.00015
 C33 C 0.68341 0.66533 -0.04349
 C34 C 0.66576 0.68299 -0.04352
 C35 C 0.65654 0.69212 -0.02192
 C36 C 0.63849 0.70988 -0.02173
 C37 C 0.62968 0.71852 0.00005
 C38 C 0.63833 0.70986 0.02188
 H39 H 0.68942 0.65877 0.06106
 H40 H 0.65891 0.68933 0.06096
 H41 H 0.68986 0.65890 -0.06063
 H42 H 0.65935 0.68942 -0.06068
 H43 H 0.73237 0.61529 0.00054
 H44 H 0.61571 0.73208 0.00000
 C45 C 0.63783 0.28957 1.02173
 C46 C 0.62913 0.28106 0.99984
 C47 C 0.63787 0.28990 0.97810
 C48 C 0.65588 0.30771 0.97797
 C49 C 0.66491 0.31652 1.00007
 C50 C 0.65588 0.30743 1.02208
 C51 C 0.66505 0.31652 1.04376
 C52 C 0.68266 0.33425 1.04382
 C53 C 0.69177 0.34355 1.02223
 C54 C 0.68287 0.33458 1.00015
 C55 C 0.66501 0.31703 0.95638
 C56 C 0.68263 0.33475 0.95646
 C57 C 0.69176 0.34380 0.97814
 C58 C 0.70948 0.36192 0.97846
 C59 C 0.71810 0.37056 1.00030
 C60 C 0.70948 0.36168 1.02206
 H61 H 0.65863 0.31001 1.06089
 H62 H 0.68907 0.34064 1.06099
 H63 H 0.65856 0.31070 0.93920
 H64 H 0.68902 0.34134 0.93935
 H65 H 0.61518 0.26745 0.99967
 H66 H 0.73162 0.38459 1.00036
 C67 C 0.29057 0.63751 0.97893
 C68 C 0.28189 0.62878 1.00073
 C69 C 0.29053 0.63751 1.02256
 C70 C 0.30835 0.65560 1.02279
 C71 C 0.31730 0.66463 1.00072
 C72 C 0.30836 0.65555 0.97868
 C73 C 0.31752 0.66467 0.95702
 C74 C 0.33520 0.68232 0.95697
 C75 C 0.34437 0.69151 0.97858
 C76 C 0.33532 0.68263 1.00067
 C77 C 0.31754 0.66482 1.04440
 C78 C 0.33521 0.68247 1.04435
 C79 C 0.34440 0.69161 1.02269
 C80 C 0.36250 0.70942 1.02237
 C81 C 0.37121 0.71800 1.00048
 C82 C 0.36244 0.70928 0.97873
 H83 H 0.31110 0.65818 0.93989
 H84 H 0.34167 0.68870 0.93981
 H85 H 0.31113 0.65840 1.06157
 H86 H 0.34166 0.68891 1.06149
 H87 H 0.26830 0.61481 1.00066
 H88 H 0.38519 0.73158 1.00033
 C89 C -0.02246 0.28967 0.36159
 C90 C -0.00058 0.28106 0.37022
 C91 C 0.02117 0.28981 0.36142
 C92 C 0.02133 0.30762 0.34341
 C93 C -0.00076 0.31653 0.33444
 C94 C -0.02279 0.30753 0.34355
 C95 C -0.04445 0.31671 0.33445
 C96 C -0.04450 0.33443 0.31685
 C97 C -0.02289 0.34368 0.30764
 C98 C -0.00081 0.33460 0.31649
 C99 C 0.04294 0.31683 0.33422
 C100 C 0.04289 0.33454 0.31661
 C101 C 0.02123 0.34370 0.30755
 C102 C 0.02098 0.36182 0.28984
 C103 C -0.00082 0.37060 0.28125
 C104 C -0.02266 0.36184 0.28991
 H105 H -0.06160 0.31027 0.34092
 H106 H -0.06168 0.34088 0.31051
 H107 H 0.06011 0.31042 0.34062
 H108 H 0.06002 0.34104 0.31018
 H109 H -0.00042 0.26745 0.38418
 H110 H -0.00075 0.38464 0.26772
 C111 C 0.02161 0.70929 0.63767
 C112 C -0.00012 0.71799 0.62881
 C113 C -0.02203 0.70949 0.63752
 C114 C -0.02242 0.69179 0.65572
 C115 C -0.00042 0.68283 0.66489
 C116 C 0.02170 0.69162 0.65583
 C117 C 0.04328 0.68245 0.66509
 C118 C 0.04318 0.66490 0.68285
 C119 C 0.02149 0.65587 0.69203
 C120 C -0.00053 0.66493 0.68302
 C121 C -0.04411 0.68274 0.66493
 C122 C -0.04422 0.66519 0.68270
 C123 C -0.02263 0.65599 0.69198
 C124 C -0.02246 0.63801 0.70990
 C125 C -0.00066 0.62928 0.71861
 C126 C 0.02118 0.63792 0.70991
 H127 H 0.06047 0.68877 0.65862
 H128 H 0.06029 0.65842 0.68934
 H129 H -0.06123 0.68916 0.65841
 H130 H -0.06142 0.65884 0.68912
 H131 H 0.00009 0.73149 0.61475
 H132 H -0.00063 0.61538 0.73228
 C133 C 0.97926 0.70971 0.36159
 C134 C 1.00111 0.71832 0.37026
 C135 C 1.02287 0.70961 0.36150
 C136 C 1.02304 0.69182 0.34348
 C137 C 1.00095 0.68292 0.33449
 C138 C 0.97894 0.69191 0.34358
 C139 C 0.95726 0.68278 0.33452
 C140 C 0.95718 0.66507 0.31692
 C141 C 0.97877 0.65585 0.30773
 C142 C 1.00088 0.66488 0.31654
 C143 C 1.04464 0.68263 0.33430
 C144 C 1.04458 0.66493 0.31668
 C145 C 1.02289 0.65576 0.30758
 C146 C 1.02254 0.63762 0.28983
 C147 C 1.00064 0.62892 0.28131
 C148 C 0.97890 0.63774 0.29004
 H149 H 0.94014 0.68924 0.34101
 H150 H 0.94000 0.65862 0.31058
 H151 H 1.06181 0.68903 0.34070
 H152 H 1.06171 0.65845 0.31025
 H153 H 1.00117 0.73190 0.38421
 H154 H 1.00046 0.61490 0.26779
 C155 C 1.02180 0.29141 0.63749
 C156 C 1.00001 0.28279 0.62868
 C157 C 0.97818 0.29139 0.63740
 C158 C 0.97790 0.30910 0.65551
 C159 C 0.99994 0.31798 0.66466
 C160 C 1.02201 0.30909 0.65562
 C161 C 1.04363 0.31817 0.66486
 C162 C 1.04361 0.33574 0.68261
 C163 C 1.02195 0.34490 0.69178
 C164 C 0.99991 0.33590 0.68274
 C165 C 0.95624 0.31822 0.66463
 C166 C 0.95620 0.33581 0.68236
 C167 C 0.97782 0.34491 0.69162
 C168 C 0.97799 0.36288 0.70946
 C169 C 0.99976 0.37157 0.71825
 C170 C 1.02164 0.36289 0.70967
 H171 H 1.06078 0.31178 0.65841
 H172 H 1.06076 0.34214 0.68908
 H173 H 0.93911 0.31184 0.65809
 H174 H 0.93904 0.34225 0.68874
 H175 H 1.00004 0.26928 0.61466
 H176 H 0.99961 0.38548 0.73189
 C177 C 0.29080 -0.02249 0.36258
 C178 C 0.28221 -0.00061 0.37127
 C179 C 0.29083 0.02117 0.36240
 C180 C 0.30850 0.02136 0.34426
 C181 C 0.31737 -0.00073 0.33521
 C182 C 0.30849 -0.02278 0.34438
 C183 C 0.31761 -0.04444 0.33519
 C184 C 0.33515 -0.04446 0.31742
 C185 C 0.34428 -0.02281 0.30815
 C186 C 0.33527 -0.00074 0.31710
 C187 C 0.31760 0.04300 0.33501
 C188 C 0.33517 0.04298 0.31726
 C189 C 0.34427 0.02133 0.30810
 C190 C 0.36223 0.02111 0.29024
 C191 C 0.37093 -0.00069 0.28154
 C192 C 0.36226 -0.02255 0.29024
 H193 H 0.31125 -0.06161 0.34171
 H194 H 0.34156 -0.06163 0.31101
 H195 H 0.31122 0.06016 0.34146
 H196 H 0.34159 0.06013 0.31078
 H197 H 0.26871 -0.00049 0.38532
 H198 H 0.38484 -0.00058 0.26789
 C199 C 0.63724 0.02157 0.70934
 C200 C 0.62847 -0.00023 0.71802
 C201 C 0.63726 -0.02209 0.70949
 C202 C 0.65543 -0.02236 0.69178
 C203 C 0.66450 -0.00028 0.68284
 C204 C 0.65538 0.02179 0.69166
 C205 C 0.66454 0.04345 0.68249
 C206 C 0.68229 0.04345 0.66492
 C207 C 0.69152 0.02181 0.65587
 C208 C 0.68260 -0.00026 0.66493
 C209 C 0.66471 -0.04400 0.68268
 C210 C 0.68246 -0.04397 0.66511
 C211 C 0.69161 -0.02231 0.65597
 C212 C 0.70947 -0.02205 0.63800
 C213 C 0.71812 -0.00022 0.62926
 C214 C 0.70938 0.02159 0.63790
 H215 H 0.65802 0.06060 0.68883
 H216 H 0.68870 0.06061 0.65844
 H217 H 0.65827 -0.06118 0.68908
 H218 H 0.68895 -0.06112 0.65871
 H219 H 0.61443 -0.00013 0.73153
 H220 H 0.73175 -0.00021 0.61535
 C221 C 0.36167 0.97881 0.71053
 C222 C 0.37040 1.00061 0.71921
 C223 C 0.36169 1.02247 0.71057
 C224 C 0.34363 1.02272 0.69276
 C225 C 0.33459 1.00064 0.68384
 C226 C 0.34364 0.97858 0.69277
 C227 C 0.33451 0.95692 0.68362
 C228 C 0.31688 0.95690 0.66594
 C229 C 0.30774 0.97854 0.65677
 C230 C 0.31663 1.00062 0.66582
 C231 C 0.33444 1.04436 0.68355
 C232 C 0.31682 1.04433 0.66587
 C233 C 0.30772 1.02266 0.65673
 C234 C 0.29000 1.02239 0.63864
 C235 C 0.28139 1.00056 0.62991
 C236 C 0.29002 0.97876 0.63868
 H237 H 0.34097 0.93977 0.69004
 H238 H 0.31049 0.93974 0.65948
 H239 H 0.34086 1.06155 0.68994
 H240 H 0.31041 1.06147 0.65938
 H241 H 0.38438 1.00052 0.73278
 H242 H 0.26787 1.00054 0.61590
 C243 C 0.63749 0.97856 0.29083
 C244 C 0.62875 1.00035 0.28213
 C245 C 0.63748 1.02223 0.29069
 C246 C 0.65558 1.02251 0.30847
 C247 C 0.66463 1.00045 0.31743
 C248 C 0.65556 0.97837 0.30857
 C249 C 0.66470 0.95673 0.31773
 C250 C 0.68239 0.95674 0.33535
 C251 C 0.69158 0.97839 0.34445
 C252 C 0.68266 1.00046 0.33541
 C253 C 0.66479 1.04417 0.31760
 C254 C 0.68246 1.04418 0.33523
 C255 C 0.69163 1.02253 0.34443
 C256 C 0.70946 1.02226 0.36248
 C257 C 0.71808 1.00039 0.37117
 C258 C 0.70938 0.97860 0.36245
 H259 H 0.65822 0.93957 0.31136
 H260 H 0.68880 0.93958 0.34181
 H261 H 0.65835 1.06133 0.31119
 H262 H 0.68888 1.06135 0.34165
 H263 H 0.61477 1.00022 0.26857
 H264 H 0.73169 1.00029 0.38511
 O265 O 0.81772 0.84997 0.52332
 O266 O 0.85082 0.81722 0.47672
 O267 O 0.81770 0.85017 0.47687
 O268 O 0.85085 0.81704 0.52319
 O269 O 0.82297 0.78881 0.52322
 O270 O 0.78965 0.82211 0.47669
 O271 O 0.82294 0.78899 0.47655
 O272 O 0.78967 0.82192 0.52336
 Cu273 Cu 0.83708 0.83642 0.50003
 Cu274 Cu 0.80347 0.80260 0.49995
 C275 C 0.79804 0.84162 0.53109
 C276 C 0.84262 0.79751 0.46889
 C277 C 0.79801 0.84188 0.46908
 C278 C 0.84265 0.79726 0.53091
 O279 O 0.15016 0.18324 0.47636
 O280 O 0.18315 0.15055 0.52306
 O281 O 0.15014 0.18356 0.52282
 O282 O 0.18320 0.15023 0.47661
 O283 O 0.21133 0.17822 0.47631
 O284 O 0.17809 0.21172 0.52273
 O285 O 0.21128 0.17853 0.52297
 O286 O 0.17811 0.21141 0.47606
 Cu287 Cu 0.16385 0.16408 0.49973
 Cu288 Cu 0.19755 0.19782 0.49949
 C289 C 0.15842 0.20291 0.46845
 C290 C 0.20284 0.15887 0.53079
 C291 C 0.15839 0.20332 0.53046
 C292 C 0.20291 0.15845 0.46878
 O293 O 0.15067 0.81668 0.52317
 O294 O 0.18392 0.84987 0.47693
 O295 O 0.15099 0.81674 0.47672
 O296 O 0.18362 0.84982 0.52339
 O297 O 0.21181 0.82193 0.52365
 O298 O 0.17901 0.78867 0.47676
 O299 O 0.21212 0.82199 0.47698
 O300 O 0.17869 0.78862 0.52343
 Cu301 Cu 0.16448 0.83608 0.50004
 Cu302 Cu 0.19826 0.80246 0.50022
 C303 C 0.15892 0.79698 0.53099
 C304 C 0.20369 0.84168 0.46926
 C305 C 0.15934 0.79706 0.46897
 C306 C 0.20329 0.84161 0.53128
 O307 O 0.85010 0.18300 0.52262
 O308 O 0.81703 0.14975 0.47633
 O309 O 0.85008 0.18280 0.47616
 O310 O 0.81706 0.14993 0.52279
 O311 O 0.78894 0.17789 0.52279
 O312 O 0.82215 0.21094 0.47595
 O313 O 0.78892 0.17772 0.47612
 O314 O 0.82216 0.21113 0.52262
 Cu315 Cu 0.83638 0.16356 0.49948
 Cu316 Cu 0.80270 0.19727 0.49936
 C317 C 0.84186 0.20274 0.53032
 C318 C 0.79732 0.15798 0.46853
 C319 C 0.84184 0.20248 0.46830
 C320 C 0.79736 0.15821 0.53054
 O321 O 0.47697 0.85003 0.81705
 O322 O 0.52363 0.81706 0.84980
 O323 O 0.52343 0.85015 0.81681
 O324 O 0.47717 0.81694 0.85003
 O325 O 0.47698 0.78884 0.82205
 O326 O 0.52346 0.82222 0.78866
 O327 O 0.52367 0.78895 0.82183
 O328 O 0.47678 0.82211 0.78889
 Cu329 Cu 0.50031 0.83636 0.83624
 Cu330 Cu 0.50022 0.80269 0.80251
 C331 C 0.46911 0.84178 0.79738
 C332 C 0.53141 0.79738 0.84149
 C333 C 0.53114 0.84193 0.79706
 C334 C 0.46938 0.79723 0.84179
 O335 O 0.52388 0.18224 0.14942
 O336 O 0.47726 0.14939 0.18249
 O337 O 0.47741 0.18235 0.14936
 O338 O 0.52373 0.14930 0.18259
 O339 O 0.52385 0.17736 0.21061
 O340 O 0.47732 0.21057 0.17721
 O341 O 0.47717 0.17744 0.21051
 O342 O 0.52399 0.21047 0.17727
 Cu343 Cu 0.50057 0.16300 0.16316
 Cu344 Cu 0.50059 0.19681 0.19673
 C345 C 0.53168 0.20197 0.15761
 C346 C 0.46946 0.15772 0.20214
 C347 C 0.46966 0.20211 0.15753
 C348 C 0.53149 0.15761 0.20228
 O349 O 0.47610 0.18340 0.84977
 O350 O 0.52238 0.15024 0.81663
 O351 O 0.52256 0.18330 0.84960
 O352 O 0.47592 0.15033 0.81680
 O353 O 0.47580 0.17828 0.78863
 O354 O 0.52266 0.21143 0.82162
 O355 O 0.52248 0.17819 0.78847
 O356 O 0.47598 0.21152 0.82179
 Cu357 Cu 0.49924 0.16400 0.83602
 Cu358 Cu 0.49922 0.19770 0.80228
 C359 C 0.46834 0.20312 0.84152
 C360 C 0.53013 0.15847 0.79690
 C361 C 0.53038 0.20298 0.84130
 C362 C 0.46810 0.15859 0.79711
 O363 O 0.52261 0.85021 0.18300
 O364 O 0.47629 0.81710 0.14982
 O365 O 0.47614 0.85009 0.18290
 O366 O 0.52276 0.81721 0.14994
 O367 O 0.52284 0.78902 0.17786
 O368 O 0.47601 0.82207 0.21099
 O369 O 0.47616 0.78891 0.17773
 O370 O 0.52269 0.82219 0.21109
 Cu371 Cu 0.49945 0.83647 0.16361
 Cu372 Cu 0.49941 0.80270 0.19726
 C373 C 0.53035 0.84193 0.20271
 C374 C 0.46853 0.79735 0.15802
 C375 C 0.46833 0.84179 0.20258
 C376 C 0.53055 0.79750 0.15819
 O377 O 0.81695 0.47765 0.85033
 O378 O 0.84997 0.52420 0.81729
 O379 O 0.81707 0.52415 0.85047
 O380 O 0.84985 0.47771 0.81718
 O381 O 0.82180 0.47774 0.78918
 O382 O 0.78883 0.52440 0.82264
 O383 O 0.82190 0.52444 0.78929
 O384 O 0.78872 0.47769 0.82250
 Cu385 Cu 0.83628 0.50092 0.83662
 Cu386 Cu 0.80246 0.50109 0.80307
 C387 C 0.79720 0.46993 0.84214
 C388 C 0.84166 0.53205 0.79765
 C389 C 0.79735 0.53199 0.84233
 C390 C 0.84151 0.47000 0.79750
 O391 O 0.14996 0.52343 0.18271
 O392 O 0.18303 0.47695 0.14974
 O393 O 0.14987 0.47694 0.18264
 O394 O 0.18312 0.52345 0.14980
 O395 O 0.21114 0.52346 0.17784
 O396 O 0.17771 0.47674 0.21086
 O397 O 0.21105 0.47676 0.17778
 O398 O 0.17780 0.52344 0.21093
 Cu399 Cu 0.16369 0.50020 0.16340
 Cu400 Cu 0.19726 0.50009 0.19720
 C401 C 0.15815 0.53116 0.20245
 C402 C 0.20268 0.46912 0.15805
 C403 C 0.15803 0.46910 0.20235
 C404 C 0.20280 0.53119 0.15812
 O405 O 0.84967 0.47626 0.18373
 O406 O 0.81670 0.52279 0.15076
 O407 O 0.84977 0.52274 0.18370
 O408 O 0.81662 0.47631 0.15077
 O409 O 0.78852 0.47623 0.17877
 O410 O 0.82185 0.52288 0.21188
 O411 O 0.78861 0.52294 0.17876
 O412 O 0.82176 0.47618 0.21191
 Cu413 Cu 0.83600 0.49952 0.16442
 Cu414 Cu 0.80234 0.49956 0.19818
 C415 C 0.84143 0.46848 0.20344
 C416 C 0.79703 0.53061 0.15905
 C417 C 0.84155 0.53054 0.20341
 C418 C 0.79692 0.46855 0.15907
 O419 O 0.18228 0.52261 0.85091
 O420 O 0.14913 0.47622 0.81786
 O421 O 0.18222 0.47612 0.85085
 O422 O 0.14920 0.52271 0.81794
 O423 O 0.17712 0.52285 0.78977
 O424 O 0.21031 0.47605 0.82285
 O425 O 0.17706 0.47615 0.78969
 O426 O 0.21037 0.52275 0.82291
 Cu427 Cu 0.16290 0.49941 0.83721
 Cu428 Cu 0.19656 0.49945 0.80346
 C429 C 0.20199 0.53040 0.84264
 C430 C 0.15735 0.46848 0.79812
 C431 C 0.20191 0.46834 0.84255
 C432 C 0.15744 0.53052 0.79824
 C433 C 0.28093 0.37241 0.04313
 C434 C 0.27252 0.38195 0.06060
 C435 C 0.26193 0.39429 0.08062
 C436 C 0.23843 0.38889 0.08769
 C437 C 0.22712 0.40270 0.10530
 C438 C 0.23926 0.42197 0.11592
 C439 C 0.26300 0.42695 0.10932
 C440 C 0.27431 0.41314 0.09171
 C441 C 0.22672 0.43787 0.13191
 C442 C 0.21590 0.45182 0.14437
 H443 H 0.22862 0.37449 0.07909
 H444 H 0.20869 0.39882 0.11011
 H445 H 0.27249 0.44194 0.11726
 H446 H 0.29241 0.41761 0.08624
 C447 C 0.71948 0.62752 0.04386
 C448 C 0.72780 0.61795 0.06136
 C449 C 0.73826 0.60558 0.08143
 C450 C 0.76172 0.61096 0.08861
 C451 C 0.77291 0.59713 0.10629
 C452 C 0.76067 0.57787 0.11685
 C453 C 0.73697 0.57292 0.11015
 C454 C 0.72578 0.58675 0.09247
 C455 C 0.77311 0.56193 0.13289
 C456 C 0.78387 0.54795 0.14538
 H457 H 0.77160 0.62535 0.08005
 H458 H 0.79131 0.60098 0.11118
 H459 H 0.72742 0.55793 0.11804
 H460 H 0.70771 0.58231 0.08691
 C461 C 0.71903 0.37256 0.95684
 C462 C 0.72746 0.38225 0.93944
 C463 C 0.73806 0.39475 0.91950
 C464 C 0.76158 0.38943 0.91242
 C465 C 0.77288 0.40335 0.89485
 C466 C 0.76070 0.42263 0.88429
 C467 C 0.73696 0.42753 0.89090
 C468 C 0.72566 0.41361 0.90846
 C469 C 0.77321 0.43859 0.86831
 C470 C 0.78401 0.45259 0.85584
 H471 H 0.77140 0.37502 0.92098
 H472 H 0.79131 0.39953 0.89003
 H473 H 0.72745 0.44252 0.88300
 H474 H 0.70755 0.41801 0.91394
 C475 C 0.28096 0.62703 0.95727
 C476 C 0.27243 0.61746 0.93987
 C477 C 0.26170 0.60509 0.91993
 C478 C 0.27397 0.58622 0.90877
 C479 C 0.26254 0.57242 0.89123
 C480 C 0.23878 0.57742 0.88478
 C481 C 0.22673 0.59671 0.89547
 C482 C 0.23816 0.61051 0.91301
 C483 C 0.22614 0.56157 0.86881
 C484 C 0.21525 0.54766 0.85634
 H485 H 0.29210 0.58174 0.91414
 H486 H 0.27196 0.55743 0.88324
 H487 H 0.20829 0.60061 0.89077
 H488 H 0.22843 0.62492 0.92167
 C489 C 0.04290 0.28031 0.37185
 C490 C 0.06042 0.27195 0.38134
 C491 C 0.08053 0.26147 0.39362
 C492 C 0.08746 0.23787 0.38848
 C493 C 0.10520 0.22670 0.40224
 C494 C 0.11607 0.23908 0.42120
 C495 C 0.10961 0.26291 0.42591
 C496 C 0.09188 0.27408 0.41214
 C497 C 0.13217 0.22670 0.43710
 C498 C 0.14470 0.21599 0.45108
 H499 H 0.07866 0.22788 0.37433
 H500 H 0.10990 0.20820 0.39858
 H501 H 0.11774 0.27258 0.44066
 H502 H 0.08651 0.29226 0.41640
 C503 C 0.04337 0.71875 0.62722
 C504 C 0.06088 0.72712 0.61769
 C505 C 0.08097 0.73768 0.60538
 C506 C 0.09193 0.72538 0.58642
 C507 C 0.10964 0.73668 0.57268
 C508 C 0.11646 0.76031 0.57786
 C509 C 0.10597 0.77237 0.59725
 C510 C 0.08827 0.76107 0.61098
 C511 C 0.13257 0.77287 0.56206
 C512 C 0.14513 0.78372 0.54820
 H513 H 0.08629 0.70736 0.58180
 H514 H 0.11747 0.72726 0.55760
 H515 H 0.11095 0.79072 0.60128
 H516 H 0.07977 0.77082 0.62547
 C517 C 0.95763 0.71934 0.37211
 C518 C 0.94021 0.72783 0.38169
 C519 C 0.92023 0.73849 0.39405
 C520 C 0.91347 0.76214 0.38891
 C521 C 0.89585 0.77345 0.40271
 C522 C 0.88492 0.76115 0.42171
 C523 C 0.89121 0.73728 0.42643
 C524 C 0.90883 0.72597 0.41263
 C525 C 0.86888 0.77363 0.43761
 C526 C 0.85636 0.78439 0.45157
 H527 H 0.92231 0.77206 0.37472
 H528 H 0.89128 0.79198 0.39904
 H529 H 0.88303 0.72766 0.44121
 H530 H 0.91406 0.70774 0.41689
 C531 C 0.95653 0.28179 0.62687
 C532 C 0.93913 0.27328 0.61727
 C533 C 0.91920 0.26254 0.60488
 C534 C 0.90819 0.27477 0.58589
 C535 C 0.89065 0.26332 0.57210
 C536 C 0.88404 0.23961 0.57723
 C537 C 0.89458 0.22762 0.59663
 C538 C 0.91212 0.23906 0.61043
 C539 C 0.86806 0.22695 0.56141
 C540 C 0.85558 0.21604 0.54753
 H541 H 0.91367 0.29285 0.58132
 H542 H 0.88277 0.27270 0.55702
 H543 H 0.88976 0.20922 0.60064
 H544 H 0.92067 0.22937 0.62494
 C545 C 0.37268 0.04281 0.28063
 C546 C 0.38222 0.06027 0.27215
 C547 C 0.39456 0.08029 0.26149
 C548 C 0.41326 0.09157 0.27390
 C549 C 0.42707 0.10920 0.26256
 C550 C 0.42223 0.11561 0.23876
 C551 C 0.40310 0.10481 0.22657
 C552 C 0.38929 0.08719 0.23792
 C553 C 0.43814 0.13161 0.22620
 C554 C 0.45212 0.14407 0.21537
 H555 H 0.41763 0.08624 0.29207
 H556 H 0.44196 0.11727 0.27208
 H557 H 0.39933 0.10947 0.20809
 H558 H 0.37500 0.07843 0.22808
 C559 C 0.62671 0.04327 0.71881
 C560 C 0.61712 0.06074 0.72719
 C561 C 0.60475 0.08077 0.73774
 C562 C 0.61026 0.08800 0.76115
 C563 C 0.59647 0.10565 0.77242
 C564 C 0.57711 0.11614 0.76033
 C565 C 0.57202 0.10938 0.73668
 C566 C 0.58581 0.09173 0.72541
 C567 C 0.56127 0.13220 0.77285
 C568 C 0.54737 0.14473 0.78367
 H569 H 0.62474 0.07950 0.77092
 H570 H 0.60044 0.11059 0.79078
 H571 H 0.55696 0.11722 0.72724
 H572 H 0.58126 0.08613 0.70738
 C573 C 0.37218 0.95712 0.72004
 C574 C 0.38174 0.93962 0.72839
 C575 C 0.39409 0.91954 0.73887
 C576 C 0.38892 0.91252 0.76243
 C577 C 0.40274 0.89481 0.77359
 C578 C 0.42179 0.88406 0.76122
 C579 C 0.42653 0.89061 0.73743
 C580 C 0.41271 0.90831 0.72627
 C581 C 0.43773 0.86799 0.77360
 C582 C 0.45174 0.85548 0.78429
 H583 H 0.37470 0.92122 0.77240
 H584 H 0.39905 0.89004 0.79206
 H585 H 0.44135 0.88257 0.72778
 H586 H 0.41699 0.91375 0.70812
 C587 C 0.62699 0.95685 0.28131
 C588 C 0.61741 0.93940 0.27286
 C589 C 0.60503 0.91941 0.26222
 C590 C 0.61054 0.91231 0.23876
 C591 C 0.59673 0.89472 0.22739
 C592 C 0.57735 0.88416 0.23943
 C593 C 0.57225 0.89079 0.26312
 C594 C 0.58606 0.90838 0.27449
 C595 C 0.56150 0.86815 0.22684
 C596 C 0.54759 0.85566 0.21597
 H597 H 0.62503 0.92087 0.22903
 H598 H 0.60071 0.88988 0.20901
 H599 H 0.55718 0.88290 0.27253
 H600 H 0.58151 0.91388 0.29255
 C601 C 0.37220 0.28137 0.95692
 C602 C 0.38166 0.27297 0.93939
 C603 C 0.39391 0.26240 0.91931
 C604 C 0.41273 0.27478 0.90814
 C605 C 0.42645 0.26347 0.89046
 C606 C 0.42142 0.23974 0.88387
 C607 C 0.40218 0.22760 0.89456
 C608 C 0.38845 0.23890 0.91224
 C609 C 0.43723 0.22720 0.86780
 C610 C 0.45111 0.21636 0.85527
 H611 H 0.41724 0.29287 0.91361
 H612 H 0.44142 0.27296 0.88246
 H613 H 0.39825 0.20918 0.88976
 H614 H 0.37408 0.22909 0.92091
 C615 C 0.62806 0.71943 0.95657
 C616 C 0.61856 0.72784 0.93908
 C617 C 0.60627 0.73839 0.91901
 C618 C 0.61154 0.76196 0.91202
 C619 C 0.59777 0.77321 0.89435
 C620 C 0.57867 0.76093 0.88359
 C621 C 0.57382 0.73713 0.89009
 C622 C 0.58760 0.72588 0.90777
 C623 C 0.56275 0.77341 0.86757
 C624 C 0.54877 0.78420 0.85511
 H625 H 0.62580 0.77186 0.92074
 H626 H 0.60153 0.79169 0.88961
 H627 H 0.55896 0.72755 0.88205
 H628 H 0.58324 0.70772 0.91318
 C629 C 0.37242 0.71855 0.04284
 C630 C 0.38192 0.72706 0.06030
 C631 C 0.39419 0.73777 0.08031
 C632 C 0.41293 0.72543 0.09160
 C633 C 0.42665 0.73684 0.10923
 C634 C 0.42168 0.76063 0.11564
 C635 C 0.40251 0.77274 0.10482
 C636 C 0.38880 0.76134 0.08719
 C637 C 0.43746 0.77323 0.13170
 C638 C 0.45132 0.78410 0.14424
 H639 H 0.41739 0.70729 0.08628
 H640 H 0.44155 0.72737 0.11733
 H641 H 0.39864 0.79120 0.10948
 H642 H 0.37448 0.77112 0.07843
 C643 C 0.62793 0.28038 0.04221
 C644 C 0.61846 0.27186 0.05969
 C645 C 0.60622 0.26117 0.07974
 C646 C 0.61136 0.23750 0.08644
 C647 C 0.59765 0.22616 0.10413
 C648 C 0.57874 0.23845 0.11521
 C649 C 0.57403 0.26234 0.10898
 C650 C 0.58775 0.27368 0.09128
 C651 C 0.56291 0.22593 0.13130
 C652 C 0.54898 0.21514 0.14385
 H653 H 0.62547 0.22758 0.07749
 H654 H 0.60132 0.20761 0.10865
 H655 H 0.55932 0.27195 0.11726
 H656 H 0.58348 0.29192 0.08610
 C657 C 0.28050 0.04406 0.62808
 C658 C 0.27214 0.06152 0.61846
 C659 C 0.26164 0.08155 0.60604
 C660 C 0.27416 0.09266 0.58728
 C661 C 0.26296 0.11029 0.57340
 C662 C 0.23920 0.11689 0.57822
 C663 C 0.22692 0.10627 0.59741
 C664 C 0.23812 0.08863 0.61130
 C665 C 0.22677 0.13286 0.56223
 C666 C 0.21601 0.14528 0.54819
 H667 H 0.29228 0.08717 0.58293
 H668 H 0.27254 0.11822 0.55847
 H669 H 0.20848 0.11107 0.60117
 H670 H 0.22821 0.08002 0.62563
 C671 C 0.71857 0.04278 0.37237
 C672 C 0.72706 0.06027 0.38185
 C673 C 0.73777 0.08029 0.39412
 C674 C 0.72543 0.09156 0.41288
 C675 C 0.73684 0.10918 0.42662
 C676 C 0.76062 0.11561 0.42165
 C677 C 0.77273 0.10481 0.40247
 C678 C 0.76133 0.08719 0.38874
 C679 C 0.77323 0.13166 0.43745
 C680 C 0.78409 0.14419 0.45132
 H681 H 0.70729 0.08622 0.41734
 H682 H 0.72737 0.11726 0.44153
 H683 H 0.79119 0.10949 0.39860
 H684 H 0.77111 0.07844 0.37441
 C685 C 0.71914 0.95628 0.62760
 C686 C 0.72768 0.93884 0.61810
 C687 C 0.73841 0.91885 0.60581
 C688 C 0.72605 0.90750 0.58712
 C689 C 0.73746 0.88992 0.57335
 C690 C 0.76129 0.88362 0.57822
 C691 C 0.77343 0.89449 0.59734
 C692 C 0.76201 0.91207 0.61111
 C693 C 0.77391 0.86767 0.56235
 C694 C 0.78479 0.85524 0.54840
 H695 H 0.70787 0.91276 0.58274
 H696 H 0.72798 0.88179 0.55848
 H697 H 0.79192 0.88991 0.60113
 H698 H 0.77181 0.92088 0.62538
 C699 C 0.28180 0.95700 0.37262
 C700 C 0.27344 0.93950 0.38220
 C701 C 0.26290 0.91944 0.39458
 C702 C 0.27522 0.90852 0.41356
 C703 C 0.26395 0.89085 0.42737
 C704 C 0.24031 0.88403 0.42225
 C705 C 0.22823 0.89447 0.40286
 C706 C 0.23951 0.91214 0.38905
 C707 C 0.22779 0.86796 0.43812
 C708 C 0.21695 0.85543 0.45203
 H709 H 0.29324 0.91417 0.41812
 H710 H 0.27339 0.88305 0.44245
 H711 H 0.20988 0.88949 0.39887
 H712 H 0.22974 0.92061 0.37455
 C713 C 0.04213 0.37272 0.71889
 C714 C 0.05960 0.38214 0.72748
 C715 C 0.07961 0.39433 0.73829
 C716 C 0.09112 0.41299 0.72598
 C717 C 0.10876 0.42665 0.73746
 C718 C 0.11496 0.42170 0.76130
 C719 C 0.10392 0.40261 0.77338
 C720 C 0.08628 0.38896 0.76190
 C721 C 0.13102 0.43744 0.77396
 C722 C 0.14356 0.45128 0.78486
 H723 H 0.08596 0.41744 0.70779
 H724 H 0.11702 0.44150 0.72801
 H725 H 0.10842 0.39875 0.79188
 H726 H 0.07736 0.37470 0.77166
 C727 C 0.04301 0.62765 0.28073
 C728 C 0.06047 0.61812 0.27228
 C729 C 0.08049 0.60580 0.26165
 C730 C 0.08743 0.61113 0.23809
 C731 C 0.10508 0.59736 0.22677
 C732 C 0.11585 0.57821 0.23897
 C733 C 0.10938 0.57331 0.26275
 C734 C 0.09174 0.58708 0.27407
 C735 C 0.13190 0.56236 0.22644
 C736 C 0.14441 0.54844 0.21564
 H737 H 0.07871 0.62544 0.22825
 H738 H 0.10978 0.60118 0.20831
 H739 H 0.11744 0.55841 0.27228
 H740 H 0.08637 0.58267 0.29221
 C741 C 0.95681 0.37180 0.28096
 C742 C 0.93927 0.38132 0.27265
 C743 C 0.91916 0.39362 0.26220
 C744 C 0.91202 0.38828 0.23872
 C745 C 0.89431 0.40207 0.22754
 C746 C 0.88368 0.42126 0.23979
 C747 C 0.89035 0.42617 0.26350
 C748 C 0.90805 0.41238 0.27468
 C749 C 0.86762 0.43717 0.22736
 C750 C 0.85512 0.45114 0.21660
 H751 H 0.92063 0.37395 0.22883
 H752 H 0.88945 0.39825 0.20913
 H753 H 0.88241 0.44110 0.27306
 H754 H 0.91359 0.41680 0.29277
 C755 C 0.95697 0.62820 0.71900
 C756 C 0.93944 0.61878 0.72748
 C757 C 0.91935 0.60658 0.73816
 C758 C 0.90793 0.58794 0.72577
 C759 C 0.89026 0.57423 0.73715
 C760 C 0.88393 0.57910 0.76097
 C761 C 0.89487 0.59818 0.77313
 C762 C 0.91254 0.61189 0.76175
 C763 C 0.86788 0.56326 0.77356
 C764 C 0.85538 0.54935 0.78441
 H765 H 0.91321 0.58354 0.70760
 H766 H 0.88208 0.55939 0.72764
 H767 H 0.89027 0.60197 0.79162
 H768 H 0.92140 0.62613 0.77157
 C769 C 0.71941 0.62810 0.95802
 C770 C 0.72786 0.61863 0.94052
 C771 C 0.73846 0.60639 0.92044
 C772 C 0.76206 0.61162 0.91359
 C773 C 0.77332 0.59792 0.89585
 C774 C 0.76102 0.57894 0.88490
 C775 C 0.73720 0.57414 0.89129
 C776 C 0.72593 0.58784 0.90902
 C777 C 0.77348 0.56313 0.86875
 C778 C 0.78422 0.54925 0.85615
 H779 H 0.77198 0.62579 0.92244
 H780 H 0.79182 0.60166 0.89121
 H781 H 0.72758 0.55937 0.88309
 H782 H 0.70774 0.58351 0.91432
 C783 C 0.28097 0.37194 0.95731
 C784 C 0.27240 0.38143 0.93987
 C785 C 0.26162 0.39371 0.91990
 C786 C 0.27398 0.41237 0.90845
 C787 C 0.26253 0.42613 0.89088
 C788 C 0.23866 0.42128 0.88468
 C789 C 0.22652 0.40219 0.89566
 C790 C 0.23798 0.38843 0.91323
 C791 C 0.22603 0.43713 0.86870
 C792 C 0.21515 0.45105 0.85624
 H793 H 0.29219 0.41675 0.91362
 H794 H 0.27202 0.44098 0.88267
 H795 H 0.20800 0.39841 0.89116
 H796 H 0.22818 0.37418 0.92211
 C797 C 0.28146 0.62761 0.04309
 C798 C 0.27301 0.61813 0.06060
 C799 C 0.26238 0.60586 0.08066
 C800 C 0.23887 0.61130 0.08768
 C801 C 0.22751 0.59755 0.10532
 C802 C 0.23959 0.57829 0.11602
 C803 C 0.26333 0.57327 0.10948
 C804 C 0.27470 0.58703 0.09184
 C805 C 0.22699 0.56242 0.13202
 C806 C 0.21610 0.54848 0.14448
 H807 H 0.22910 0.62569 0.07901
 H808 H 0.20908 0.60145 0.11008
 H809 H 0.27277 0.55828 0.11748
 H810 H 0.29280 0.58253 0.08641
 C811 C 0.71898 0.37211 0.04378
 C812 C 0.72736 0.38161 0.06128
 C813 C 0.73788 0.39390 0.08137
 C814 C 0.72544 0.41267 0.09250
 C815 C 0.73668 0.42643 0.11020
 C816 C 0.76039 0.42146 0.11684
 C817 C 0.77259 0.40225 0.10618
 C818 C 0.76135 0.38850 0.08848
 C819 C 0.77288 0.43733 0.13289
 C820 C 0.78368 0.45126 0.14539
 H821 H 0.70736 0.41713 0.08699
 H822 H 0.72715 0.44137 0.11817
 H823 H 0.79100 0.39839 0.11101
 H824 H 0.77120 0.37415 0.07984
 C825 C 0.95752 0.71860 0.62751
 C826 C 0.94009 0.72708 0.61793
 C827 C 0.92013 0.73776 0.60556
 C828 C 0.90899 0.72543 0.58672
 C829 C 0.89142 0.73682 0.57291
 C830 C 0.88490 0.76057 0.57790
 C831 C 0.89556 0.77267 0.59716
 C832 C 0.91314 0.76129 0.61096
 C833 C 0.86889 0.77316 0.56205
 C834 C 0.85639 0.78402 0.54815
 H835 H 0.91441 0.70731 0.58225
 H836 H 0.88345 0.72736 0.55794
 H837 H 0.89081 0.79111 0.60105
 H838 H 0.92177 0.77106 0.62536
 C839 C 0.95705 0.28057 0.37157
 C840 C 0.93957 0.27213 0.38110
 C841 C 0.91953 0.26152 0.39343
 C842 C 0.90822 0.27402 0.41206
 C843 C 0.89055 0.26273 0.42586
 C844 C 0.88413 0.23890 0.42108
 C845 C 0.89496 0.22663 0.40203
 C846 C 0.91263 0.23792 0.38823
 C847 C 0.86807 0.22641 0.43699
 C848 C 0.85556 0.21564 0.45096
 H849 H 0.91356 0.29220 0.41637
 H850 H 0.88245 0.27232 0.44068
 H851 H 0.89029 0.20813 0.39831
 H852 H 0.92140 0.22802 0.37400
 C853 C 0.04349 0.28187 0.62700
 C854 C 0.06094 0.27344 0.61744
 C855 C 0.08094 0.26282 0.60508
 C856 C 0.09195 0.27512 0.58612
 C857 C 0.10955 0.26378 0.57233
 C858 C 0.11622 0.24009 0.57744
 C859 C 0.10568 0.22802 0.59681
 C860 C 0.08808 0.23937 0.61061
 C861 C 0.13222 0.22750 0.56158
 C862 C 0.14469 0.21662 0.54769
 H863 H 0.08642 0.29319 0.58156
 H864 H 0.11742 0.27320 0.55726
 H865 H 0.11055 0.20963 0.60079
 H866 H 0.07954 0.22962 0.62509
 C867 C 0.04458 0.71910 0.37197
 C868 C 0.06207 0.72748 0.38151
 C869 C 0.08211 0.73801 0.39387
 C870 C 0.09322 0.72553 0.41263
 C871 C 0.11084 0.73678 0.42648
 C872 C 0.11743 0.76055 0.42160
 C873 C 0.10681 0.77279 0.40241
 C874 C 0.08919 0.76154 0.38856
 C875 C 0.13338 0.77305 0.43757
 C876 C 0.14578 0.78385 0.45159
 H877 H 0.08774 0.70740 0.41702
 H878 H 0.11878 0.72722 0.44141
 H879 H 0.11161 0.79125 0.39862
 H880 H 0.08057 0.77143 0.37423
 C881 C 0.62733 0.95737 0.71855
 C882 C 0.61783 0.93986 0.72699
 C883 C 0.60555 0.91978 0.73761
 C884 C 0.58669 0.90864 0.72530
 C885 C 0.57296 0.89096 0.73665
 C886 C 0.57803 0.88434 0.76035
 C887 C 0.59731 0.89500 0.77242
 C888 C 0.61104 0.91269 0.76108
 C889 C 0.56222 0.86825 0.77293
 C890 C 0.54835 0.85571 0.78379
 H891 H 0.58216 0.91414 0.70723
 H892 H 0.55797 0.88299 0.72721
 H893 H 0.60126 0.89018 0.79082
 H894 H 0.62545 0.92133 0.77084
 C895 C 0.37213 0.95692 0.28114
 C896 C 0.38157 0.93942 0.27266
 C897 C 0.39379 0.91936 0.26199
 C898 C 0.38848 0.91254 0.23840
 C899 C 0.40220 0.89489 0.22704
 C900 C 0.42127 0.88398 0.23921
 C901 C 0.42614 0.89031 0.26302
 C902 C 0.41243 0.90796 0.27439
 C903 C 0.43711 0.86795 0.22663
 C904 C 0.45103 0.85547 0.21579
 H905 H 0.37425 0.92138 0.22858
 H906 H 0.39841 0.89029 0.20855
 H907 H 0.44098 0.88215 0.27253
 H908 H 0.41682 0.91324 0.29256
 C909 C 0.62760 0.04273 0.28155
 C910 C 0.61813 0.06020 0.27300
 C911 C 0.60586 0.08020 0.26223
 C912 C 0.58700 0.09142 0.27446
 C913 C 0.57328 0.10899 0.26297
 C914 C 0.57835 0.11542 0.23921
 C915 C 0.59764 0.10468 0.22722
 C916 C 0.61136 0.08710 0.23870
 C917 C 0.56256 0.13141 0.22652
 C918 C 0.54870 0.14389 0.21559
 H919 H 0.58246 0.08607 0.29258
 H920 H 0.55828 0.11703 0.27235
 H921 H 0.60160 0.10935 0.20878
 H922 H 0.62577 0.07839 0.22901
 C923 C 0.37161 0.04301 0.71958
 C924 C 0.38109 0.06056 0.72794
 C925 C 0.39335 0.08069 0.73843
 C926 C 0.41196 0.09201 0.72588
 C927 C 0.42571 0.10976 0.73706
 C928 C 0.42090 0.11626 0.76085
 C929 C 0.40185 0.10542 0.77317
 C930 C 0.38810 0.08767 0.76198
 C931 C 0.43679 0.13235 0.77326
 C932 C 0.45076 0.14488 0.78399
 H933 H 0.41630 0.08661 0.70773
 H934 H 0.44053 0.11786 0.72744
 H935 H 0.39812 0.11015 0.79163
 H936 H 0.37389 0.07890 0.77192
 C937 C 0.62775 0.71941 0.04351
 C938 C 0.61812 0.72785 0.06092
 C939 C 0.60568 0.73845 0.08088
 C940 C 0.61093 0.76202 0.08784
 C941 C 0.59705 0.77332 0.10541
 C942 C 0.57786 0.76108 0.11609
 C943 C 0.57302 0.73729 0.10959
 C944 C 0.58690 0.72600 0.09202
 C945 C 0.56190 0.77358 0.13206
 C946 C 0.54791 0.78435 0.14452
 H947 H 0.62528 0.77190 0.07919
 H948 H 0.60083 0.79179 0.11014
 H949 H 0.55809 0.72773 0.11757
 H950 H 0.58255 0.70784 0.08663
 C951 C 0.37295 0.28081 0.04274
 C952 C 0.38257 0.27231 0.06014
 C953 C 0.39498 0.26161 0.08006
 C954 C 0.38957 0.23807 0.08706
 C955 C 0.40339 0.22667 0.10461
 C956 C 0.42268 0.23877 0.11524
 C957 C 0.42768 0.26253 0.10871
 C958 C 0.41386 0.27393 0.09116
 C959 C 0.43853 0.22618 0.13125
 C960 C 0.45243 0.21533 0.14376
 H961 H 0.37515 0.22830 0.07845
 H962 H 0.39949 0.20823 0.10937
 H963 H 0.44268 0.27198 0.11666
 H964 H 0.41833 0.29206 0.08574
 C965 C 0.62738 0.28049 0.95637
 C966 C 0.61782 0.27218 0.93886
 C967 C 0.60546 0.26173 0.91879
 C968 C 0.58670 0.27424 0.90773
 C969 C 0.57286 0.26306 0.89006
 C970 C 0.57773 0.23933 0.88338
 C971 C 0.59693 0.22705 0.89396
 C972 C 0.61077 0.23823 0.91163
 C973 C 0.56177 0.22690 0.86737
 C974 C 0.54776 0.21614 0.85492
 H975 H 0.58231 0.29234 0.91327
 H976 H 0.55792 0.27264 0.88216
 H977 H 0.60072 0.20863 0.88909
 H978 H 0.62511 0.22832 0.92021
 C979 C 0.37291 0.71880 0.95702
 C980 C 0.38246 0.72723 0.93954
 C981 C 0.39480 0.73784 0.91951
 C982 C 0.41367 0.72550 0.90843
 C983 C 0.42745 0.73684 0.89078
 C984 C 0.42241 0.76055 0.88414
 C985 C 0.40312 0.77265 0.89474
 C986 C 0.38934 0.76132 0.91239
 C987 C 0.43825 0.77312 0.86808
 C988 C 0.45215 0.78397 0.85555
 H989 H 0.41818 0.70742 0.91394
 H990 H 0.44246 0.72738 0.88286
 H991 H 0.39919 0.79106 0.88990
 H992 H 0.37492 0.77110 0.92098
 C993 C 0.71899 0.95690 0.37289
 C994 C 0.72752 0.93945 0.38241
 C995 C 0.73826 0.91946 0.39471
 C996 C 0.72600 0.90825 0.41357
 C997 C 0.73744 0.89065 0.42731
 C998 C 0.76118 0.88418 0.42223
 C999 C 0.77321 0.89493 0.40295
 C1000 C 0.76177 0.91253 0.38922
 C1001 C 0.77383 0.86815 0.43802
 C1002 C 0.78473 0.85564 0.45188
 H1003 H 0.70789 0.91362 0.41811
 H1004 H 0.72804 0.88261 0.44230
 H1005 H 0.79164 0.89023 0.39899
 H1006 H 0.77149 0.92123 0.37481
 C1007 C 0.28053 0.95706 0.62818
 C1008 C 0.27218 0.93956 0.61862
 C1009 C 0.26171 0.91948 0.60627
 C1010 C 0.23812 0.91249 0.61139
 C1011 C 0.22697 0.89477 0.59758
 C1012 C 0.23936 0.88397 0.57859
 C1013 C 0.26318 0.89049 0.57389
 C1014 C 0.27433 0.90820 0.58771
 C1015 C 0.22701 0.86788 0.56265
 C1016 C 0.21634 0.85534 0.54865
 H1017 H 0.22812 0.92124 0.62557
 H1018 H 0.20848 0.89003 0.60123
 H1019 H 0.27286 0.88241 0.55911
 H1020 H 0.29251 0.91361 0.58346
 C1021 C 0.28128 0.04289 0.37283
 C1022 C 0.27285 0.06038 0.38233
 C1023 C 0.26223 0.08044 0.39459
 C1024 C 0.27455 0.09159 0.41342
 C1025 C 0.26322 0.10929 0.42711
 C1026 C 0.23953 0.11591 0.42202
 C1027 C 0.22744 0.10522 0.40277
 C1028 C 0.23876 0.08752 0.38908
 C1029 C 0.22697 0.13204 0.43777
 C1030 C 0.21614 0.14462 0.45160
 H1031 H 0.29262 0.08611 0.41796
 H1032 H 0.27267 0.11728 0.44208
 H1033 H 0.20904 0.11005 0.39880
 H1034 H 0.22900 0.07887 0.37469
 C1035 C 0.71895 0.04328 0.62739
 C1036 C 0.72741 0.06073 0.61782
 C1037 C 0.73805 0.08075 0.60545
 C1038 C 0.72565 0.09194 0.58668
 C1039 C 0.73699 0.10956 0.57286
 C1040 C 0.76076 0.11606 0.57776
 C1041 C 0.77293 0.10534 0.59694
 C1042 C 0.76160 0.08772 0.61076
 C1043 C 0.77331 0.13207 0.56185
 C1044 C 0.78414 0.14454 0.54788
 H1045 H 0.70752 0.08654 0.58229
 H1046 H 0.72748 0.11758 0.55794
 H1047 H 0.79139 0.11008 0.60075
 H1048 H 0.77142 0.07904 0.62510
 C1049 C 0.95715 0.62725 0.28064
 C1050 C 0.93962 0.61769 0.27236
 C1051 C 0.91950 0.60535 0.26195
 C1052 C 0.90844 0.58656 0.27446
 C1053 C 0.89070 0.57276 0.26333
 C1054 C 0.88396 0.57771 0.23964
 C1055 C 0.89454 0.59693 0.22737
 C1056 C 0.91228 0.61073 0.23850
 C1057 C 0.86785 0.56181 0.22726
 C1058 C 0.85530 0.54785 0.21654
 H1059 H 0.91404 0.58212 0.29252
 H1060 H 0.88279 0.55781 0.27291
 H1061 H 0.88962 0.60078 0.20898
 H1062 H 0.92086 0.62509 0.22859
 C1063 C 0.95628 0.37334 0.71897
 C1064 C 0.93881 0.38289 0.72740
 C1065 C 0.91880 0.39523 0.73800
 C1066 C 0.91165 0.38971 0.76145
 C1067 C 0.89404 0.40351 0.77279
 C1068 C 0.88352 0.42288 0.76073
 C1069 C 0.89019 0.42798 0.73705
 C1070 C 0.90779 0.41418 0.72570
 C1071 C 0.86756 0.43877 0.77332
 C1072 C 0.85513 0.45271 0.78421
 H1073 H 0.92019 0.37523 0.77120
 H1074 H 0.88918 0.39954 0.79118
 H1075 H 0.88233 0.44305 0.72763
 H1076 H 0.91333 0.41874 0.70765
 C1077 C 0.04281 0.62741 0.71956
 C1078 C 0.06020 0.61782 0.72810
 C1079 C 0.08012 0.60543 0.73883
 C1080 C 0.09147 0.58677 0.72643
 C1081 C 0.10901 0.57293 0.73782
 C1082 C 0.11528 0.57771 0.76167
 C1083 C 0.10440 0.59679 0.77386
 C1084 C 0.08686 0.61063 0.76247
 C1085 C 0.13126 0.56180 0.77424
 C1086 C 0.14373 0.54785 0.78506
 H1087 H 0.08626 0.58246 0.70822
 H1088 H 0.11716 0.55809 0.72829
 H1089 H 0.10896 0.60052 0.79237
 H1090 H 0.07805 0.62488 0.77230
 C1091 C 0.04265 0.37235 0.28027
 C1092 C 0.06011 0.38193 0.27184
 C1093 C 0.08015 0.39430 0.26125
 C1094 C 0.08710 0.38906 0.23769
 C1095 C 0.10478 0.40287 0.22643
 C1096 C 0.11558 0.42196 0.23869
 C1097 C 0.10909 0.42677 0.26248
 C1098 C 0.09141 0.41296 0.27374
 C1099 C 0.13167 0.43785 0.22624
 C1100 C 0.14424 0.45180 0.21548
 H1101 H 0.07836 0.37480 0.22779
 H1102 H 0.10950 0.39912 0.20796
 H1103 H 0.11717 0.44162 0.27206
 H1104 H 0.08603 0.41730 0.29189
   
