data_POSCAR
  _audit_creation_date              2014-09-24
  _audit_creation_method            'ToBaCCo'
  _symmetry_space_group_name_H-M    'P1'
  _symmetry_Int_Tables_number       1
  _symmetry_cell_setting            triclinic
  loop_
  _symmetry_equiv_pos_as_xyz
 x,y,z
_cell_length_a 22.4296
_cell_length_b 22.3825
_cell_length_c 56.2111
_cell_angle_alpha 90.709000
_cell_angle_beta 89.574500
_cell_angle_gamma 120.076200
loop_
  _atom_site_label
  _atom_site_type_symbol
  _atom_site_fract_x
  _atom_site_fract_y
  _atom_site_fract_z
C1 C -0.04736 0.03773 0.51501
 C2 C -0.10392 -0.01272 0.49790
 C3 C -0.08495 -0.05299 0.48508
 C4 C -0.01187 -0.03907 0.49044
 C5 C -0.03034 -0.00768 0.53033
 C6 C -0.01242 -0.04835 0.51754
 C7 C 0.01613 0.07895 0.49948
 C8 C 0.03472 0.03909 0.48659
 H9 H -0.15483 -0.01834 0.49686
 H10 H 0.00384 -0.07142 0.48000
 H11 H -0.03964 -0.01323 0.54941
 H12 H 0.04192 0.13477 0.49778
 C13 C 0.95254 -0.09052 0.18231
 C14 C 1.00427 -0.09600 0.16554
 C15 C 1.04382 -0.03675 0.15296
 C16 C 1.02787 0.02153 0.15833
 C17 C 0.99355 -0.03033 0.19716
 C18 C 1.03549 0.03114 0.18406
 C19 C 0.91056 -0.07073 0.16628
 C20 C 0.94979 -0.01217 0.15368
 H21 H 1.01092 -0.14080 0.16446
 H22 H 1.05952 0.06954 0.14805
 H23 H 1.00030 -0.03358 0.21616
 H24 H 0.85493 -0.10175 0.16434
 C25 C 0.09513 1.05570 0.84935
 C26 C 0.10173 1.11179 0.83224
 C27 C 0.04284 1.09214 0.81947
 C28 C -0.01644 1.01895 0.82488
 C29 C 0.03223 1.03881 0.86473
 C30 C -0.02600 1.02022 0.85198
 C31 C 0.07336 0.99168 0.83384
 C32 C 0.01530 0.97243 0.82100
 H33 H 0.14699 1.16290 0.83117
 H34 H -0.06419 1.00269 0.81447
 H35 H 0.03538 1.04866 0.88380
 H36 H 0.10340 0.96592 0.83215
 O37 O 0.56912 -0.00434 0.02303
 O38 O 0.45475 0.00636 -0.02143
 O39 O 0.56648 -0.00077 -0.02298
 O40 O 0.45070 -0.00759 0.02452
 O41 O 0.50801 0.10630 0.02759
 O42 O 0.62574 0.11321 -0.02025
 O43 O 0.51353 0.12029 -0.01842
 O44 O 0.62690 0.10956 0.02606
 Cu45 Cu 0.50431 -0.01299 0.00061
 Cu46 Cu 0.57446 0.12380 0.00415
 C47 C 0.61801 0.05109 0.03180
 C48 C 0.46523 0.06535 -0.02750
 C49 C 0.61552 0.05693 -0.02969
 C50 C 0.45881 0.04773 0.03387
 O51 O -0.09807 0.40844 0.69349
 O52 O -0.10524 0.51700 0.64563
 O53 O -0.11155 0.39794 0.64743
 O54 O -0.10227 0.52375 0.69199
 O55 O 0.01142 0.58052 0.68947
 O56 O 0.00218 0.45372 0.64491
 O57 O 0.00854 0.57240 0.64342
 O58 O 0.01561 0.46567 0.69092
 Cu59 Cu -0.11572 0.45620 0.67000
 Cu60 Cu 0.02082 0.52362 0.66705
 C61 C -0.03956 0.41848 0.70001
 C62 C -0.04909 0.56298 0.63643
 C63 C -0.05648 0.40461 0.63858
 C64 C -0.04415 0.57390 0.69801
 O65 O 0.59105 0.48477 0.35810
 O66 O 0.47933 0.36838 0.31010
 O67 O 0.59840 0.48138 0.31193
 O68 O 0.47568 0.36511 0.35648
 O69 O 0.41912 0.42236 0.35525
 O70 O 0.54281 0.53964 0.31072
 O71 O 0.42417 0.42710 0.30917
 O72 O 0.53396 0.54148 0.35682
 Cu73 Cu 0.54167 0.41901 0.33438
 Cu74 Cu 0.47447 0.48849 0.33299
 C75 C 0.58162 0.53350 0.36529
 C76 C 0.43292 0.37861 0.30153
 C77 C 0.59137 0.52998 0.30377
 C78 C 0.42616 0.37332 0.36315
 C79 C -0.07048 0.17252 0.55927
 C80 C -0.06069 0.15801 0.58514
 C81 C -0.05894 0.20527 0.60101
 C82 C -0.06715 0.26248 0.58948
 C83 C -0.13481 0.22441 0.57536
 C84 C -0.13656 0.17699 0.55944
 C85 C -0.01198 0.24649 0.55470
 C86 C -0.01023 0.29376 0.57057
 C87 C -0.06996 0.12221 0.54249
 C88 C -0.06351 0.08263 0.52949
 C89 C -0.06422 0.31348 0.60674
 C90 C -0.06072 0.35531 0.62119
 H91 H -0.05576 0.11427 0.59053
 H92 H -0.05247 0.20204 0.61999
 H93 H -0.17748 0.23388 0.57767
 H94 H -0.18066 0.14581 0.54810
 H95 H 0.02475 0.26054 0.54019
 H96 H 0.02799 0.34828 0.56968
 C97 C 0.81973 0.75043 0.22559
 C98 C 0.81681 0.68044 0.22521
 C99 C 0.77008 0.63417 0.24085
 C100 C 0.73109 0.66267 0.25526
 C101 C 0.69885 0.68730 0.23660
 C102 C 0.74542 0.73342 0.22101
 C103 C 0.83397 0.77492 0.25163
 C104 C 0.78741 0.72882 0.26721
 C105 C 0.86929 0.80185 0.20914
 C106 C 0.90828 0.84822 0.19644
 C107 C 0.68086 0.61398 0.27224
 C108 C 0.63973 0.57527 0.28651
 H109 H 0.84849 0.66831 0.21372
 H110 H 0.76171 0.58231 0.24276
 H111 H 0.64420 0.66992 0.23567
 H112 H 0.73065 0.75553 0.20671
 H113 H 0.87703 0.82415 0.25734
 H114 H 0.79056 0.73855 0.28626
 C115 C 0.25141 0.07995 -0.10654
 C116 C 0.26653 0.02111 -0.11124
 C117 C 0.31130 0.01943 -0.09542
 C118 C 0.33663 0.07674 -0.07644
 C119 C 0.27099 0.06889 -0.06485
 C120 C 0.22623 0.07058 -0.08066
 C121 C 0.32220 0.14605 -0.10634
 C122 C 0.36714 0.14436 -0.09047
 C123 C 0.20131 0.07927 -0.12326
 C124 C 0.15575 0.07249 -0.13622
 C125 C 0.38385 0.07379 -0.05924
 C126 C 0.42133 0.07007 -0.04484
 H127 H 0.24416 -0.01590 -0.12578
 H128 H 0.32727 -0.01901 -0.09641
 H129 H 0.26063 0.06272 -0.04587
 H130 H 0.17752 0.06589 -0.07521
 H131 H 0.33581 0.19010 -0.11761
 H132 H 0.41934 0.18704 -0.08814
 C133 C -0.02452 0.79257 0.55636
 C134 C -0.04304 0.80384 0.58173
 C135 C -0.05066 0.75443 0.59727
 C136 C -0.03907 0.69837 0.58599
 C137 C 0.03297 0.73764 0.57468
 C138 C 0.04062 0.78720 0.55909
 C139 C -0.08152 0.71956 0.54929
 C140 C -0.08918 0.66993 0.56490
 C141 C -0.01685 0.84709 0.54030
 C142 C -0.01294 0.89405 0.52884
 C143 C -0.04645 0.64643 0.60322
 C144 C -0.04970 0.60666 0.61813
 H145 H -0.04966 0.84698 0.58703
 H146 H -0.06383 0.75523 0.61585
 H147 H 0.07426 0.72724 0.57853
 H148 H 0.08837 0.81925 0.54958
 H149 H -0.11289 0.70787 0.53342
 H150 H -0.12714 0.61573 0.56242
 C151 C 0.19628 0.17344 0.22202
 C152 C 0.18667 0.14409 0.24719
 C153 C 0.23759 0.18576 0.26255
 C154 C 0.29337 0.25287 0.25132
 C155 C 0.25431 0.28654 0.24085
 C156 C 0.20323 0.24474 0.22544
 C157 C 0.26811 0.18803 0.21421
 C158 C 0.31927 0.22989 0.22965
 C159 C 0.14008 0.12681 0.20616
 C160 C 0.09167 0.08415 0.19484
 C161 C 0.34692 0.29740 0.26838
 C162 C 0.38791 0.33404 0.28322
 H163 H 0.14351 0.09469 0.25249
 H164 H 0.23808 0.17205 0.28099
 H165 H 0.26593 0.33873 0.24511
 H166 H 0.17111 0.26106 0.21650
 H167 H 0.27792 0.16749 0.19800
 H168 H 0.37292 0.24520 0.22668
 C169 C 0.82508 0.03217 -0.10931
 C170 C 0.80942 0.08896 -0.11642
 C171 C 0.76653 0.09662 -0.10091
 C172 C 0.74370 0.04674 -0.07987
 C173 C 0.81075 0.05886 -0.06844
 C174 C 0.85344 0.05123 -0.08388
 C175 C 0.75445 -0.03326 -0.10674
 C176 C 0.71162 -0.02561 -0.09125
 C177 C 0.87285 0.02452 -0.12527
 C178 C 0.91646 0.02065 -0.13669
 C179 C 0.69813 0.05414 -0.06275
 C180 C 0.66077 0.05744 -0.04792
 H181 H 0.82999 0.12018 -0.13224
 H182 H 0.75039 0.13443 -0.10342
 H183 H 0.82366 0.07237 -0.04982
 H184 H 0.90292 0.05819 -0.07846
 H185 H 0.73932 -0.08121 -0.11629
 H186 H 0.65973 -0.06709 -0.08753
 C187 C 0.20579 -0.00240 0.10927
 C188 C 0.27539 0.05724 0.11792
 C189 C 0.32918 0.07025 0.10322
 C190 C 0.30805 0.02234 0.08133
 C191 C 0.25125 0.03029 0.06928
 C192 C 0.19755 0.01731 0.08395
 C193 C 0.21725 -0.06409 0.10608
 C194 C 0.27097 -0.05110 0.09140
 C195 C 0.14767 -0.01634 0.12497
 C196 C 0.10002 -0.02673 0.13772
 C197 C 0.36509 0.03532 0.06522
 C198 C 0.40956 0.04303 0.05130
 H199 H 0.28184 0.08663 0.13416
 H200 H 0.38165 0.11074 0.10686
 H201 H 0.25308 0.04496 0.05083
 H202 H 0.15342 0.02082 0.07807
 H203 H 0.18600 -0.11359 0.11461
 H204 H 0.28570 -0.08952 0.08738
 C205 C 0.78647 0.78582 0.44099
 C206 C 0.71317 0.77389 0.43872
 C207 C 0.67207 0.72027 0.42395
 C208 C 0.70825 0.68374 0.41288
 C209 C 0.73582 0.66238 0.43410
 C210 C 0.77697 0.71606 0.44888
 C211 C 0.81363 0.79480 0.41538
 C212 C 0.77255 0.74120 0.40062
 C213 C 0.83103 0.84379 0.45679
 C214 C 0.86859 0.89123 0.46967
 C215 C 0.66378 0.62680 0.39669
 C216 C 0.62664 0.58247 0.38273
 H217 H 0.69509 0.80478 0.44792
 H218 H 0.61876 0.70525 0.42052
 H219 H 0.72409 0.60982 0.43724
 H220 H 0.80047 0.70944 0.46470
 H221 H 0.86101 0.83934 0.40936
 H222 H 0.78480 0.73985 0.38196
 C223 C 0.01029 0.21867 0.77551
 C224 C -0.00804 0.19013 0.75001
 C225 C -0.02086 0.23028 0.73529
 C226 C -0.01415 0.29512 0.74749
 C227 C 0.05867 0.33237 0.75816
 C228 C 0.07150 0.29220 0.77289
 C229 C -0.05004 0.22808 0.78372
 C230 C -0.06288 0.26829 0.76898
 C231 C 0.02394 0.17503 0.79126
 C232 C 0.03381 0.13808 0.80411
 C233 C -0.02703 0.33854 0.73135
 C234 C -0.03476 0.37470 0.71743
 H235 H -0.01075 0.14252 0.74403
 H236 H -0.03459 0.21701 0.71671
 H237 H 0.09680 0.38570 0.75450
 H238 H 0.12057 0.31109 0.78182
 H239 H -0.07999 0.20519 0.79970
 H240 H -0.10380 0.27984 0.77233
 C241 C 0.83924 0.03030 0.10598
 C242 C 0.76432 -0.02844 0.10850
 C243 C 0.71972 -0.02321 0.09358
 C244 C 0.75420 0.04026 0.07755
 C245 C 0.81198 0.03495 0.06461
 C246 C 0.85669 0.02970 0.07957
 C247 C 0.83627 0.09684 0.10965
 C248 C 0.79153 0.10210 0.09468
 C249 C 0.88549 0.02238 0.12232
 C250 C 0.91831 0.01013 0.13633
 C251 C 0.70546 0.04493 0.06146
 C252 C 0.66516 0.04776 0.04810
 H253 H 0.74771 -0.07058 0.12096
 H254 H 0.66501 -0.06078 0.09327
 H255 H 0.81737 0.03543 0.04539
 H256 H 0.90039 0.02573 0.07318
 H257 H 0.86670 0.13636 0.12277
 H258 H 0.78359 0.14613 0.09499
 C259 C 0.18696 0.14962 0.43817
 C260 C 0.25571 0.15072 0.44020
 C261 C 0.30521 0.19581 0.42502
 C262 C 0.28098 0.23530 0.40933
 C263 C 0.25461 0.26995 0.42681
 C264 C 0.20530 0.22502 0.44193
 C265 C 0.16680 0.13400 0.41184
 C266 C 0.21625 0.17904 0.39668
 C267 C 0.13326 0.10309 0.45474
 C268 C 0.08840 0.07027 0.46897
 C269 C 0.33379 0.28447 0.39305
 C270 C 0.37637 0.32532 0.37955
 H271 H 0.26467 0.11884 0.45242
 H272 H 0.35662 0.20259 0.42424
 H273 H 0.27309 0.32501 0.42729
 H274 H 0.18158 0.24172 0.45537
 H275 H 0.11815 0.09123 0.40565
 H276 H 0.20990 0.17487 0.37749
 C277 C -0.02627 0.81776 0.77283
 C278 C -0.02372 0.83584 0.74646
 C279 C -0.02839 0.78553 0.73134
 C280 C -0.03511 0.72212 0.74410
 C281 C -0.09787 0.69806 0.76056
 C282 C -0.09321 0.74841 0.77569
 C283 C 0.03173 0.80094 0.77589
 C284 C 0.02708 0.75077 0.76082
 C285 C -0.01891 0.87235 0.78934
 C286 C -0.00693 0.91791 0.80349
 C287 C -0.03912 0.66835 0.72786
 C288 C -0.04142 0.62488 0.71440
 H289 H -0.01892 0.88376 0.74021
 H290 H -0.02753 0.79041 0.71214
 H291 H -0.14208 0.64615 0.76033
 H292 H -0.13340 0.73966 0.78840
 H293 H 0.07295 0.82629 0.78883
 H294 H 0.06425 0.73318 0.76085
   
