data_POSCAR
  _audit_creation_date              2014-09-24
  _audit_creation_method            'ToBaCCo'
  _symmetry_space_group_name_H-M    'P1'
  _symmetry_Int_Tables_number       1
  _symmetry_cell_setting            triclinic
  loop_
  _symmetry_equiv_pos_as_xyz
 x,y,z
_cell_length_a 61.5040
_cell_length_b 61.4559
_cell_length_c 36.5670
_cell_angle_alpha 90.005100
_cell_angle_beta 89.909200
_cell_angle_gamma 90.000000
loop_
  _atom_site_label
  _atom_site_type_symbol
  _atom_site_fract_x
  _atom_site_fract_y
  _atom_site_fract_z
C1 C -0.00082 0.26657 -0.01836
 C2 C -0.00047 0.26660 0.01894
 C3 C -0.02081 0.26756 0.04086
 C4 C 0.02025 0.26516 0.03966
 C5 C 0.01952 0.26748 -0.04028
 C6 C -0.02153 0.26510 -0.03909
 C7 C -0.03610 0.28425 0.03538
 C8 C -0.05560 0.28441 0.05511
 C9 C -0.05990 0.26802 0.08080
 C10 C -0.04443 0.25169 0.08704
 C11 C -0.02497 0.25152 0.06728
 C12 C 0.02525 0.28097 0.06607
 C13 C 0.04485 0.27997 0.08528
 C14 C 0.05957 0.26306 0.07851
 C15 C 0.05450 0.24700 0.05272
 C16 C 0.03489 0.24797 0.03352
 C17 C 0.02367 0.25138 -0.06664
 C18 C 0.04313 0.25153 -0.08641
 C19 C 0.05856 0.26786 -0.08026
 C20 C 0.05430 0.28428 -0.05468
 C21 C 0.03482 0.28417 -0.03491
 C22 C -0.03618 0.24792 -0.03289
 C23 C -0.05574 0.24688 -0.05222
 C24 C -0.06076 0.26285 -0.07819
 C25 C -0.04604 0.27976 -0.08498
 C26 C -0.02649 0.28084 -0.06564
 H27 H -0.03301 0.29699 0.01559
 H28 H -0.06733 0.29722 0.05002
 H29 H -0.04747 0.23890 0.10684
 H30 H -0.01335 0.23859 0.07202
 H31 H 0.01410 0.29425 0.07137
 H32 H 0.04858 0.29244 0.10525
 H33 H 0.03114 0.23537 0.01380
 H34 H 0.01205 0.23844 -0.07130
 H35 H 0.04625 0.23876 -0.10617
 H36 H 0.06610 0.29704 -0.04980
 H37 H 0.03175 0.29695 -0.01517
 H38 H -0.03246 0.23538 -0.01306
 H39 H -0.06696 0.23366 -0.04690
 H40 H -0.04973 0.29216 -0.10510
 H41 H -0.01533 0.29410 -0.07099
 H42 H 0.06571 0.23378 0.04741
 C43 C 0.49975 0.76856 0.48255
 C44 C 0.50026 0.76848 0.51984
 C45 C 0.48000 0.76941 0.54198
 C46 C 0.52105 0.76693 0.54032
 C47 C 0.52000 0.76955 0.46042
 C48 C 0.47896 0.76710 0.46205
 C49 C 0.46470 0.78611 0.53677
 C50 C 0.44527 0.78621 0.55669
 C51 C 0.44108 0.76977 0.58226
 C52 C 0.45653 0.75343 0.58826
 C53 C 0.47593 0.75329 0.56834
 C54 C 0.52615 0.78261 0.56690
 C55 C 0.54579 0.78146 0.58599
 C56 C 0.56044 0.76453 0.57891
 C57 C 0.55527 0.74862 0.55293
 C58 C 0.53563 0.74973 0.53386
 C59 C 0.52406 0.75355 0.43387
 C60 C 0.54345 0.75376 0.41392
 C61 C 0.55890 0.77007 0.42009
 C62 C 0.55473 0.78640 0.44586
 C63 C 0.53532 0.78623 0.46581
 C64 C 0.46438 0.74987 0.46830
 C65 C 0.44476 0.74881 0.44914
 C66 C 0.43962 0.76481 0.42328
 C67 C 0.45426 0.78177 0.41645
 C68 C 0.47388 0.78287 0.43562
 H69 H 0.46771 0.79890 0.51703
 H70 H 0.43346 0.79897 0.55192
 H71 H 0.45345 0.74065 0.60800
 H72 H 0.48756 0.74034 0.57288
 H73 H 0.51505 0.79589 0.57245
 H74 H 0.54960 0.79382 0.60612
 H75 H 0.53179 0.73723 0.51401
 H76 H 0.51242 0.74062 0.42920
 H77 H 0.54651 0.74105 0.39402
 H78 H 0.56655 0.79914 0.45076
 H79 H 0.53232 0.79894 0.48570
 H80 H 0.46819 0.73730 0.48802
 H81 H 0.43360 0.73554 0.45449
 H82 H 0.45048 0.79419 0.39641
 H83 H 0.48499 0.79617 0.43023
 H84 H 0.56643 0.73538 0.54739
 C85 C 1.00058 0.73248 -0.01847
 C86 C 1.00011 0.73249 0.01883
 C87 C 1.02038 0.73158 0.04082
 C88 C 0.97934 0.73398 0.03947
 C89 C 0.98031 0.73152 -0.04045
 C90 C 1.02136 0.73397 -0.03911
 C91 C 1.03571 0.71491 0.03546
 C92 C 1.05513 0.71481 0.05530
 C93 C 1.05929 0.73122 0.08093
 C94 C 1.04382 0.74752 0.08706
 C95 C 1.02443 0.74766 0.06723
 C96 C 0.97428 0.71823 0.06598
 C97 C 0.95466 0.71933 0.08525
 C98 C 0.94000 0.73627 0.07843
 C99 C 0.94512 0.75224 0.05250
 C100 C 0.96474 0.75118 0.03325
 C101 C 0.97622 0.74758 -0.06687
 C102 C 0.95681 0.74742 -0.08664
 C103 C 0.94135 0.73111 -0.08044
 C104 C 0.94556 0.71471 -0.05481
 C105 C 0.96500 0.71484 -0.03504
 C106 C 1.03593 0.75120 -0.03290
 C107 C 1.05558 0.75225 -0.05206
 C108 C 1.06077 0.73623 -0.07792
 C109 C 1.04610 0.71927 -0.08474
 C110 C 1.02646 0.71820 -0.06554
 H111 H 1.03272 0.70214 0.01569
 H112 H 1.06696 0.70207 0.05043
 H113 H 1.04687 0.76028 0.10686
 H114 H 1.01278 0.76059 0.07188
 H115 H 0.98539 0.70495 0.07135
 H116 H 0.95089 0.70693 0.10534
 H117 H 0.96854 0.76373 0.01345
 H118 H 0.98786 0.76052 -0.07156
 H119 H 0.95373 0.76017 -0.10644
 H120 H 0.93374 0.70197 -0.04988
 H121 H 0.96802 0.70208 -0.01525
 H122 H 1.03209 0.76376 -0.01315
 H123 H 1.06671 0.76554 -0.04664
 H124 H 1.04986 0.70680 -0.10475
 H125 H 1.01535 0.70490 -0.07089
 H126 H 0.93395 0.76549 0.04716
 C127 C 0.50022 0.23246 0.47985
 C128 C 0.49970 0.23233 0.51715
 C129 C 0.51995 0.23128 0.53918
 C130 C 0.47890 0.23375 0.53776
 C131 C 0.47997 0.23155 0.45780
 C132 C 0.52102 0.23401 0.45929
 C133 C 0.53524 0.21459 0.53367
 C134 C 0.55464 0.21435 0.55355
 C135 C 0.55883 0.23064 0.57938
 C136 C 0.54340 0.24696 0.58567
 C137 C 0.52402 0.24724 0.56579
 C138 C 0.47383 0.21795 0.56416
 C139 C 0.45421 0.21900 0.58342
 C140 C 0.43954 0.23596 0.57671
 C141 C 0.44467 0.25198 0.55088
 C142 C 0.46430 0.25097 0.53163
 C143 C 0.47590 0.24768 0.43149
 C144 C 0.45651 0.24754 0.41164
 C145 C 0.44107 0.23119 0.41765
 C146 C 0.44526 0.21473 0.44317
 C147 C 0.46467 0.21483 0.46302
 C148 C 0.53563 0.25117 0.46576
 C149 C 0.55531 0.25226 0.44665
 C150 C 0.56047 0.23636 0.42061
 C151 C 0.54579 0.21948 0.41352
 C152 C 0.52612 0.21835 0.43265
 H153 H 0.53223 0.20191 0.51374
 H154 H 0.56644 0.20160 0.54856
 H155 H 0.54647 0.25963 0.60561
 H156 H 0.51240 0.26018 0.57056
 H157 H 0.48495 0.20465 0.56946
 H158 H 0.45043 0.20655 0.60343
 H159 H 0.46811 0.26356 0.51192
 H160 H 0.48752 0.26064 0.42694
 H161 H 0.45344 0.26034 0.39193
 H162 H 0.43346 0.20195 0.44795
 H163 H 0.46769 0.20202 0.48272
 H164 H 0.53181 0.26365 0.48566
 H165 H 0.56649 0.26547 0.45221
 H166 H 0.54959 0.20713 0.39335
 H167 H 0.51500 0.20510 0.42708
 H168 H 0.43350 0.26525 0.54562
 C169 C 0.73388 -0.00053 -0.01958
 C170 C 0.73393 -0.00019 0.01772
 C171 C 0.73302 -0.02056 0.03958
 C172 C 0.73539 0.02053 0.03850
 C173 C 0.73287 0.01983 -0.04142
 C174 C 0.73534 -0.02125 -0.04037
 C175 C 0.71635 -0.03587 0.03420
 C176 C 0.71620 -0.05535 0.05396
 C177 C 0.73259 -0.05961 0.07957
 C178 C 0.74892 -0.04414 0.08570
 C179 C 0.74908 -0.02469 0.06592
 C180 C 0.71965 0.02550 0.06507
 C181 C 0.72068 0.04510 0.08438
 C182 C 0.73757 0.05984 0.07754
 C183 C 0.75355 0.05480 0.05157
 C184 C 0.75254 0.03519 0.03227
 C185 C 0.74888 0.02402 -0.06793
 C186 C 0.74864 0.04348 -0.08767
 C187 C 0.73230 0.05891 -0.08132
 C188 C 0.71597 0.05461 -0.05555
 C189 C 0.71618 0.03511 -0.03584
 C190 C 0.75255 -0.03587 -0.03435
 C191 C 0.75356 -0.05547 -0.05365
 C192 C 0.73753 -0.06057 -0.07945
 C193 C 0.72058 -0.04586 -0.08608
 C194 C 0.71955 -0.02626 -0.06676
 H195 H 0.70359 -0.03281 0.01448
 H196 H 0.70342 -0.06713 0.04902
 H197 H 0.76168 -0.04719 0.10546
 H198 H 0.76200 -0.01305 0.07059
 H199 H 0.70639 0.01433 0.07043
 H200 H 0.70827 0.04881 0.10450
 H201 H 0.76508 0.03146 0.01242
 H202 H 0.76181 0.01240 -0.07276
 H203 H 0.76137 0.04657 -0.10755
 H204 H 0.70318 0.06636 -0.05044
 H205 H 0.70347 0.03201 -0.01598
 H206 H 0.76512 -0.03210 -0.01465
 H207 H 0.76683 -0.06664 -0.04837
 H208 H 0.70810 -0.04954 -0.10604
 H209 H 0.70627 -0.01512 -0.07196
 H210 H 0.76675 0.06603 0.04621
 C211 C 0.23321 0.49976 0.48212
 C212 C 0.23321 0.50026 0.51941
 C213 C 0.23219 0.47999 0.54147
 C214 C 0.23468 0.52106 0.53999
 C215 C 0.23228 0.52003 0.46006
 C216 C 0.23462 0.47895 0.46153
 C217 C 0.21546 0.46473 0.53619
 C218 C 0.21528 0.44528 0.55604
 C219 C 0.23166 0.44103 0.58161
 C220 C 0.24802 0.45644 0.58769
 C221 C 0.24824 0.47586 0.56784
 C222 C 0.21895 0.52613 0.56653
 C223 C 0.22003 0.54577 0.58573
 C224 C 0.23695 0.56046 0.57882
 C225 C 0.25291 0.55534 0.55286
 C226 C 0.25186 0.53569 0.53366
 C227 C 0.24835 0.52410 0.43361
 C228 C 0.24819 0.54351 0.41374
 C229 C 0.23187 0.55897 0.41988
 C230 C 0.21548 0.55479 0.44554
 C231 C 0.21559 0.53535 0.46541
 C232 C 0.25174 0.46426 0.46777
 C233 C 0.25273 0.44462 0.44856
 C234 C 0.23676 0.43955 0.42266
 C235 C 0.21990 0.45430 0.41583
 C236 C 0.21888 0.47394 0.43505
 H237 H 0.20272 0.46779 0.51644
 H238 H 0.20250 0.43350 0.55121
 H239 H 0.26076 0.45332 0.60744
 H240 H 0.26121 0.48746 0.57243
 H241 H 0.20568 0.51500 0.57198
 H242 H 0.20764 0.54954 0.60584
 H243 H 0.26440 0.53189 0.51385
 H244 H 0.26128 0.51245 0.42897
 H245 H 0.26094 0.54659 0.39392
 H246 H 0.20273 0.56661 0.45041
 H247 H 0.20284 0.53234 0.48522
 H248 H 0.26429 0.46802 0.48754
 H249 H 0.26592 0.43338 0.45392
 H250 H 0.20750 0.45058 0.39577
 H251 H 0.20565 0.48512 0.42967
 H252 H 0.26614 0.56653 0.54743
 C253 C 0.26630 1.00049 -0.01906
 C254 C 0.26631 1.00027 0.01824
 C255 C 0.26725 1.02070 0.03991
 C256 C 0.26485 0.97962 0.03921
 C257 C 0.26723 0.98005 -0.04073
 C258 C 0.26481 1.02114 -0.04003
 C259 C 0.28391 1.03601 0.03424
 C260 C 0.28406 1.05556 0.05382
 C261 C 0.26771 1.05988 0.07955
 C262 C 0.25140 1.04443 0.08597
 C263 C 0.25123 1.02492 0.06637
 C264 C 0.28062 0.97470 0.06567
 C265 C 0.27957 0.95517 0.08518
 C266 C 0.26263 0.94046 0.07866
 C267 C 0.24662 0.94545 0.05280
 C268 C 0.24764 0.96498 0.03330
 C269 C 0.25116 0.97580 -0.06701
 C270 C 0.25130 0.95626 -0.08653
 C271 C 0.26762 0.94081 -0.08021
 C272 C 0.28402 0.94518 -0.05467
 C273 C 0.28390 0.96475 -0.03517
 C274 C 0.24762 1.03577 -0.03398
 C275 C 0.24656 1.05531 -0.05346
 C276 C 0.26256 1.06032 -0.07947
 C277 C 0.27949 1.04558 -0.08612
 C278 C 0.28056 1.02605 -0.06661
 H279 H 0.29663 1.03289 0.01442
 H280 H 0.29683 1.06732 0.04866
 H281 H 0.23866 1.04754 0.10582
 H282 H 0.23831 1.01328 0.07126
 H283 H 0.29391 0.98585 0.07079
 H284 H 0.29200 0.95150 0.10521
 H285 H 0.23508 0.96868 0.01355
 H286 H 0.23824 0.98742 -0.07181
 H287 H 0.23853 0.95312 -0.10623
 H288 H 0.29679 0.93342 -0.04959
 H289 H 0.29665 0.96790 -0.01549
 H290 H 0.23507 1.03207 -0.01412
 H291 H 0.23330 1.06649 -0.04816
 H292 H 0.29194 1.04920 -0.10624
 H293 H 0.29384 1.01490 -0.07184
 H294 H 0.23338 0.93423 0.04769
 C295 C 0.76703 0.50031 0.48144
 C296 C 0.76701 0.49963 0.51873
 C297 C 0.76800 0.51981 0.54104
 C298 C 0.76548 0.47873 0.53902
 C299 C 0.76807 0.48014 0.45911
 C300 C 0.76551 0.52121 0.46115
 C301 C 0.78470 0.53512 0.53583
 C302 C 0.78485 0.55450 0.55587
 C303 C 0.76845 0.55863 0.58156
 C304 C 0.75212 0.54317 0.58758
 C305 C 0.75194 0.52382 0.56754
 C306 C 0.78114 0.47353 0.56552
 C307 C 0.77999 0.45379 0.58445
 C308 C 0.76308 0.43916 0.57731
 C309 C 0.74719 0.44442 0.55139
 C310 C 0.74830 0.46416 0.53247
 C311 C 0.75206 0.47613 0.43261
 C312 C 0.75231 0.45680 0.41252
 C313 C 0.76865 0.44136 0.41849
 C314 C 0.78498 0.44548 0.44420
 C315 C 0.78478 0.46484 0.46429
 C316 C 0.74831 0.53577 0.46772
 C317 C 0.74722 0.55551 0.44882
 C318 C 0.76315 0.56080 0.42290
 C319 C 0.78008 0.54617 0.41573
 C320 C 0.78121 0.52644 0.43465
 H321 H 0.79745 0.53215 0.51598
 H322 H 0.79760 0.56632 0.55109
 H323 H 0.73937 0.54620 0.60741
 H324 H 0.73899 0.51218 0.57207
 H325 H 0.79441 0.48462 0.57114
 H326 H 0.79233 0.44992 0.60453
 H327 H 0.73581 0.46807 0.51269
 H328 H 0.73911 0.48777 0.42809
 H329 H 0.73960 0.45377 0.39266
 H330 H 0.79774 0.43367 0.44895
 H331 H 0.79749 0.46780 0.48415
 H332 H 0.73580 0.53185 0.48751
 H333 H 0.73397 0.56665 0.45444
 H334 H 0.79245 0.55006 0.39565
 H335 H 0.79449 0.51535 0.42900
 H336 H 0.73396 0.43328 0.54580
 O337 O 0.23900 0.26781 0.29533
 O338 O 0.24567 0.21481 0.24955
 O339 O 0.26883 0.23778 0.29480
 O340 O 0.21565 0.24464 0.25013
 O341 O 0.23165 0.26094 0.20336
 O342 O 0.28486 0.25408 0.24806
 O343 O 0.26169 0.23111 0.20281
 O344 O 0.25501 0.28409 0.24856
 Cu345 Cu 0.24064 0.23965 0.27717
 Cu346 Cu 0.25989 0.25923 0.22098
 C347 C 0.24600 0.28488 0.27976
 C348 C 0.25483 0.21402 0.21847
 C349 C 0.28582 0.24474 0.27896
 C350 C 0.21468 0.25383 0.21911
 O351 O 0.71495 0.74675 0.24959
 O352 O 0.76810 0.73956 0.20460
 O353 O 0.74466 0.71660 0.25008
 O354 O 0.73820 0.76951 0.20405
 O355 O 0.75430 0.78585 0.25060
 O356 O 0.76076 0.73292 0.29665
 O357 O 0.78419 0.75588 0.25118
 O358 O 0.73106 0.76308 0.29613
 Cu359 Cu 0.73988 0.74142 0.22238
 Cu360 Cu 0.75923 0.76105 0.27834
 C361 C 0.71404 0.75615 0.28044
 C362 C 0.78511 0.74662 0.22021
 C363 C 0.75368 0.71584 0.28123
 C364 C 0.74513 0.78661 0.21957
 O365 O 0.78573 0.24598 0.24961
 O366 O 0.73263 0.23926 0.29499
 O367 O 0.75594 0.21592 0.24990
 O368 O 0.76260 0.26914 0.29474
 O369 O 0.74646 0.28517 0.24792
 O370 O 0.73981 0.23191 0.20306
 O371 O 0.71650 0.25526 0.24815
 O372 O 0.76958 0.26199 0.20279
 Cu373 Cu 0.76082 0.24093 0.27703
 Cu374 Cu 0.74143 0.26017 0.22075
 C375 C 0.78662 0.25515 0.21855
 C376 C 0.71561 0.24623 0.27931
 C377 C 0.74687 0.21494 0.21882
 C378 C 0.75568 0.28614 0.27888
 O379 O 0.26084 0.76871 0.20515
 O380 O 0.25439 0.71543 0.25005
 O381 O 0.23124 0.73846 0.20493
 O382 O 0.28421 0.74549 0.25021
 O383 O 0.26794 0.76142 0.29707
 O384 O 0.21493 0.75440 0.25176
 O385 O 0.23810 0.73139 0.29688
 O386 O 0.24455 0.78463 0.25201
 Cu387 Cu 0.25935 0.74045 0.22286
 Cu388 Cu 0.23977 0.75960 0.27916
 C389 C 0.25366 0.78565 0.22091
 C390 C 0.24512 0.71442 0.28102
 C391 C 0.21414 0.74522 0.22072
 C392 C 0.28501 0.75452 0.28137
 O393 O 0.71464 0.25303 0.75001
 O394 O 0.76772 0.26004 0.79509
 O395 O 0.74438 0.28315 0.74978
 O396 O 0.73779 0.23010 0.79535
 O397 O 0.75397 0.21389 0.74867
 O398 O 0.76056 0.26696 0.70308
 O399 O 0.78389 0.24384 0.74839
 O400 O 0.73084 0.23683 0.70333
 Cu401 Cu 0.73953 0.25824 0.77727
 Cu402 Cu 0.75898 0.23878 0.72116
 C403 C 0.71379 0.24372 0.71907
 C404 C 0.78475 0.25300 0.77944
 C405 C 0.75345 0.28399 0.71864
 C406 C 0.74475 0.21304 0.77969
 O407 O 0.28493 0.74636 0.75246
 O408 O 0.23179 0.73929 0.79755
 O409 O 0.25523 0.71619 0.75227
 O410 O 0.26168 0.76927 0.79777
 O411 O 0.24556 0.78543 0.75107
 O412 O 0.23911 0.73232 0.70556
 O413 O 0.21568 0.75543 0.75083
 O414 O 0.26879 0.76250 0.70576
 Cu415 Cu 0.26000 0.74111 0.77972
 Cu416 Cu 0.24063 0.76052 0.72359
 C417 C 0.28583 0.75565 0.72152
 C418 C 0.21478 0.74628 0.78188
 C419 C 0.24620 0.71531 0.72114
 C420 C 0.25474 0.78631 0.78208
 O421 O 0.21466 0.24527 0.74896
 O422 O 0.26777 0.23854 0.70355
 O423 O 0.24440 0.21515 0.74854
 O424 O 0.23783 0.26846 0.70394
 O425 O 0.25399 0.28438 0.75084
 O426 O 0.26056 0.23105 0.79546
 O427 O 0.28391 0.25444 0.75048
 O428 O 0.23084 0.26118 0.79586
 Cu429 Cu 0.23957 0.24022 0.72151
 Cu430 Cu 0.25899 0.25934 0.77789
 C431 C 0.21379 0.25439 0.78006
 C432 C 0.28479 0.24548 0.71926
 C433 C 0.25346 0.21411 0.77962
 C434 C 0.24476 0.28542 0.71988
 O435 O 0.73238 0.76106 0.70430
 O436 O 0.78540 0.75414 0.74956
 O437 O 0.76223 0.73105 0.70453
 O438 O 0.75573 0.78433 0.74930
 O439 O 0.73948 0.76842 0.79620
 O440 O 0.74597 0.71512 0.75141
 O441 O 0.76913 0.73822 0.79644
 O442 O 0.71613 0.74514 0.75119
 Cu443 Cu 0.76054 0.75928 0.72219
 Cu444 Cu 0.74100 0.74015 0.77854
 C445 C 0.71532 0.75416 0.72002
 C446 C 0.78621 0.74498 0.78062
 C447 C 0.75523 0.71409 0.72043
 C448 C 0.74662 0.78536 0.78040
 C449 C 0.26534 0.11684 0.13247
 N450 N 0.27101 0.13555 0.11524
 N451 N 0.26926 0.15461 0.13237
 C452 C 0.26177 0.15554 0.16724
 N453 N 0.25612 0.13683 0.18449
 N454 N 0.25787 0.11777 0.16735
 C455 C 0.26661 0.09639 0.11367
 C456 C 0.26732 0.07923 0.09772
 C457 C 0.25948 0.17610 0.18544
 C458 C 0.25741 0.19340 0.20059
 C459 C 0.76582 0.61652 0.63584
 N460 N 0.75518 0.61802 0.66826
 N461 N 0.75339 0.63713 0.68522
 C462 C 0.76216 0.65532 0.67024
 N463 N 0.77281 0.65382 0.63784
 N464 N 0.77461 0.63471 0.62088
 C465 C 0.76718 0.59608 0.61706
 C466 C 0.76797 0.57896 0.60102
 C467 C 0.75984 0.67597 0.68812
 C468 C 0.75777 0.69336 0.70296
 C469 C 0.73494 0.88361 0.13299
 N470 N 0.72841 0.86497 0.11645
 N471 N 0.73011 0.84595 0.13372
 C472 C 0.73841 0.84499 0.16802
 N473 N 0.74492 0.86364 0.18457
 N474 N 0.74322 0.88266 0.16730
 C475 C 0.73369 0.90401 0.11402
 C476 C 0.73298 0.92111 0.09792
 C477 C 0.74063 0.82447 0.18633
 C478 C 0.74264 0.80720 0.20158
 C479 C 0.23417 0.38304 0.63556
 N480 N 0.24425 0.38161 0.66843
 N481 N 0.24603 0.36249 0.68533
 C482 C 0.23781 0.34421 0.66985
 N483 N 0.22771 0.34563 0.63699
 N484 N 0.22592 0.36476 0.62009
 C485 C 0.23284 0.40351 0.61687
 C486 C 0.23209 0.42065 0.60093
 C487 C 0.24012 0.32355 0.68767
 C488 C 0.24220 0.30616 0.70247
 C489 C 0.88394 0.26566 0.13307
 N490 N 0.86541 0.27234 0.11646
 N491 N 0.84633 0.27060 0.13353
 C492 C 0.84520 0.26210 0.16771
 N493 N 0.86374 0.25544 0.18434
 N494 N 0.88282 0.25718 0.16727
 C495 C 0.90440 0.26693 0.11429
 C496 C 0.92155 0.26763 0.09831
 C497 C 0.82461 0.25981 0.18578
 C498 C 0.80727 0.25773 0.20082
 C499 C 0.38316 0.76697 0.63645
 N500 N 0.38196 0.75759 0.66997
 N501 N 0.36288 0.75568 0.68699
 C502 C 0.34443 0.76307 0.67099
 N503 N 0.34563 0.77247 0.63749
 N504 N 0.36471 0.77438 0.62047
 C505 C 0.40360 0.76841 0.61766
 C506 C 0.42072 0.76925 0.60165
 C507 C 0.32383 0.76060 0.68897
 C508 C 0.30649 0.75839 0.70391
 C509 C 0.11710 0.73397 0.13518
 N510 N 0.13568 0.72711 0.11883
 N511 N 0.15471 0.72901 0.13594
 C512 C 0.15572 0.73784 0.16989
 N513 N 0.13713 0.74468 0.18625
 N514 N 0.11810 0.74278 0.16914
 C515 C 0.09671 0.73254 0.11633
 C516 C 0.07962 0.73171 0.10030
 C517 C 0.17625 0.74030 0.18798
 C518 C 0.19353 0.74250 0.20302
 C519 C 0.61664 0.23298 0.63368
 N520 N 0.63517 0.22593 0.61738
 N521 N 0.65420 0.22769 0.63448
 C522 C 0.65529 0.23658 0.66838
 N523 N 0.63676 0.24361 0.68469
 N524 N 0.61772 0.24184 0.66760
 C525 C 0.59624 0.23170 0.61483
 C526 C 0.57915 0.23100 0.59878
 C527 C 0.67585 0.23892 0.68643
 C528 C 0.69315 0.24105 0.70143
 C529 C 0.73453 0.11580 0.86555
 N530 N 0.72782 0.13437 0.88214
 N531 N 0.72950 0.15344 0.86500
 C532 C 0.73797 0.15451 0.83077
 N533 N 0.74466 0.13594 0.81417
 N534 N 0.74297 0.11687 0.83131
 C535 C 0.73331 0.09536 0.88440
 C536 C 0.73264 0.07823 0.90041
 C537 C 0.74020 0.17509 0.81262
 C538 C 0.74222 0.19241 0.79751
 C539 C 0.23453 0.61692 0.36577
 N540 N 0.22617 0.63519 0.38111
 N541 N 0.22798 0.65430 0.36413
 C542 C 0.23821 0.65570 0.33133
 N543 N 0.24654 0.63742 0.31598
 N544 N 0.24474 0.61831 0.33295
 C545 C 0.23316 0.59647 0.38453
 C546 C 0.23236 0.57934 0.40052
 C547 C 0.24053 0.67633 0.31342
 C548 C 0.24259 0.69371 0.29854
 C549 C 0.26515 0.88371 0.86734
 N550 N 0.25811 0.88272 0.83224
 N551 N 0.25636 0.86361 0.81527
 C552 C 0.26157 0.84491 0.83289
 N553 N 0.26862 0.84590 0.86798
 N554 N 0.27038 0.86501 0.88495
 C555 C 0.26645 0.90422 0.88594
 C556 C 0.26719 0.92142 0.90175
 C557 C 0.25929 0.82430 0.81485
 C558 C 0.25725 0.80697 0.79983
 C559 C 0.76620 0.38356 0.36392
 N560 N 0.75578 0.38215 0.33135
 N561 N 0.75403 0.36307 0.31428
 C562 C 0.76262 0.34482 0.32930
 N563 N 0.77306 0.34623 0.36186
 N564 N 0.77482 0.36531 0.37892
 C565 C 0.76750 0.40396 0.38282
 C566 C 0.76824 0.42105 0.39894
 C567 C 0.76032 0.32421 0.31133
 C568 C 0.75825 0.30684 0.29642
 C569 C 0.11652 0.26521 0.86560
 N570 N 0.13505 0.27215 0.88195
 N571 N 0.15411 0.27032 0.86486
 C572 C 0.15523 0.26149 0.83092
 N573 N 0.13671 0.25457 0.81456
 N574 N 0.11764 0.25639 0.83165
 C575 C 0.09608 0.26659 0.88442
 C576 C 0.07895 0.26739 0.90041
 C577 C 0.17582 0.25912 0.81283
 C578 C 0.19314 0.25701 0.79778
 C579 C 0.61676 0.76745 0.36570
 N580 N 0.63524 0.77477 0.38171
 N581 N 0.65430 0.77289 0.36462
 C582 C 0.65546 0.76361 0.33103
 N583 N 0.63698 0.75630 0.31500
 N584 N 0.61792 0.75818 0.33208
 C585 C 0.59635 0.76883 0.38457
 C586 C 0.57925 0.76962 0.40064
 C587 C 0.67604 0.76114 0.31300
 C588 C 0.69337 0.75892 0.29803
 C589 C 0.88342 0.73384 0.86568
 N590 N 0.86485 0.72718 0.88230
 N591 N 0.84578 0.72906 0.86532
 C592 C 0.84472 0.73768 0.83122
 N593 N 0.86329 0.74431 0.81459
 N594 N 0.88236 0.74243 0.83157
 C595 C 0.90385 0.73242 0.88439
 C596 C 0.92098 0.73160 0.90031
 C597 C 0.82415 0.74011 0.81325
 C598 C 0.80684 0.74229 0.79828
 C599 C 0.38319 0.23388 0.36359
 N600 N 0.36485 0.22584 0.37919
 N601 N 0.34577 0.22767 0.36223
 C602 C 0.34446 0.23760 0.32919
 N603 N 0.36281 0.24562 0.31358
 N604 N 0.38188 0.24379 0.33054
 C605 C 0.40362 0.23250 0.38233
 C606 C 0.42073 0.23169 0.39830
 C607 C 0.32386 0.23997 0.31129
 C608 C 0.30651 0.24210 0.29644
 C609 C 0.73989 0.88266 0.86702
 N610 N 0.75353 0.87995 0.83819
 N611 N 0.75451 0.86091 0.82082
 C612 C 0.74187 0.84402 0.83172
 N613 N 0.72823 0.84674 0.86053
 N614 N 0.72725 0.86578 0.87791
 C615 C 0.73903 0.90307 0.88602
 C616 C 0.73833 0.92017 0.90215
 C617 C 0.74324 0.82340 0.81344
 C618 C 0.74463 0.80604 0.79825
 C619 C 0.23919 0.38174 0.36789
 N620 N 0.22974 0.36375 0.38234
 N621 N 0.23071 0.34478 0.36474
 C622 C 0.24114 0.34323 0.33214
 N623 N 0.25059 0.36123 0.31768
 N624 N 0.24962 0.38021 0.33528
 C625 C 0.23833 0.40212 0.38703
 C626 C 0.23763 0.41920 0.40321
 C627 C 0.24254 0.32272 0.31351
 C628 C 0.24396 0.30546 0.29801
 C629 C 0.25996 0.11687 0.86643
 N630 N 0.24123 0.12333 0.85021
 N631 N 0.24023 0.14234 0.83275
 C632 C 0.25794 0.15545 0.83097
 N633 N 0.27668 0.14899 0.84717
 N634 N 0.27768 0.12998 0.86463
 C635 C 0.26093 0.09653 0.88563
 C636 C 0.26170 0.07950 0.90193
 C637 C 0.25671 0.17607 0.81266
 C638 C 0.25541 0.19342 0.79746
 C639 C 0.76028 0.61894 0.36923
 N640 N 0.74750 0.63517 0.38226
 N641 N 0.74648 0.65421 0.36490
 C642 C 0.75822 0.65760 0.33400
 N643 N 0.77101 0.64137 0.32096
 N644 N 0.77203 0.62233 0.33833
 C645 C 0.76133 0.59843 0.38794
 C646 C 0.76216 0.58125 0.40380
 C647 C 0.75695 0.67807 0.31521
 C648 C 0.75562 0.69530 0.29959
 C649 C 0.11764 0.73877 0.86886
 N650 N 0.13606 0.73164 0.88531
 N651 N 0.15509 0.73272 0.86793
 C652 C 0.15628 0.74095 0.83357
 N653 N 0.13786 0.74806 0.81711
 N654 N 0.11882 0.74698 0.83449
 C655 C 0.09720 0.73783 0.88775
 C656 C 0.08007 0.73708 0.90379
 C657 C 0.17684 0.74252 0.81516
 C658 C 0.19415 0.74408 0.79986
 C659 C 0.61849 0.23902 0.36651
 N660 N 0.63708 0.23310 0.38374
 N661 N 0.65612 0.23416 0.36636
 C662 C 0.65714 0.24114 0.33122
 N663 N 0.63854 0.24705 0.31398
 N664 N 0.61950 0.24600 0.33135
 C665 C 0.59802 0.23808 0.38536
 C666 C 0.58088 0.23731 0.40134
 C667 C 0.67769 0.24265 0.31274
 C668 C 0.69499 0.24414 0.29738
 C669 C 0.88163 0.26022 0.86683
 N670 N 0.87880 0.24593 0.83897
 N671 N 0.85985 0.24487 0.82143
 C672 C 0.84316 0.25808 0.83119
 N673 N 0.84598 0.27238 0.85904
 N674 N 0.86494 0.27344 0.87658
 C675 C 0.90194 0.26117 0.88601
 C676 C 0.91897 0.26193 0.90226
 C677 C 0.82263 0.25663 0.81276
 C678 C 0.80535 0.25514 0.79744
 C679 C 0.38191 0.76199 0.36863
 N680 N 0.37909 0.74767 0.34082
 N681 N 0.36012 0.74654 0.32335
 C682 C 0.34340 0.75972 0.33314
 N683 N 0.34622 0.77406 0.36093
 N684 N 0.36519 0.77518 0.37841
 C685 C 0.40225 0.76302 0.38772
 C686 C 0.41930 0.76384 0.40387
 C687 C 0.32286 0.75821 0.31474
 C688 C 0.30559 0.75669 0.29942
 C689 C 0.26003 0.88283 0.13384
 N690 N 0.24126 0.87628 0.14995
 N691 N 0.24028 0.85728 0.16743
 C692 C 0.25804 0.84425 0.16935
 N693 N 0.27682 0.85080 0.15326
 N694 N 0.27780 0.86980 0.13577
 C695 C 0.26099 0.90316 0.11463
 C696 C 0.26174 0.92019 0.09832
 C697 C 0.25685 0.82366 0.18772
 C698 C 0.25556 0.80632 0.20297
 C699 C 0.76009 0.38103 0.63103
 N700 N 0.77450 0.37617 0.65788
 N701 N 0.77345 0.35712 0.67521
 C702 C 0.75797 0.34234 0.66619
 N703 N 0.74358 0.34721 0.63935
 N704 N 0.74462 0.36626 0.62203
 C705 C 0.76120 0.40153 0.61232
 C706 C 0.76206 0.41871 0.59644
 C707 C 0.75673 0.32184 0.68489
 C708 C 0.75541 0.30458 0.70041
 C709 C 0.73999 0.11769 0.13210
 N710 N 0.72815 0.13490 0.12020
 N711 N 0.72914 0.15393 0.13758
 C712 C 0.74199 0.15632 0.16742
 N713 N 0.75382 0.13910 0.17935
 N714 N 0.75282 0.12007 0.16196
 C715 C 0.73912 0.09728 0.11310
 C716 C 0.73842 0.08018 0.09698
 C717 C 0.74340 0.17692 0.18573
 C718 C 0.74482 0.19427 0.20094
 C719 C 0.23951 0.61830 0.63347
 N720 N 0.22799 0.63566 0.62127
 N721 N 0.22898 0.65465 0.63880
 C722 C 0.24149 0.65685 0.66908
 N723 N 0.25300 0.63949 0.68129
 N724 N 0.25202 0.62050 0.66376
 C725 C 0.23861 0.59791 0.61438
 C726 C 0.23787 0.58082 0.59823
 C727 C 0.24286 0.67740 0.68760
 C728 C 0.24424 0.69469 0.70301
 C729 C 0.88222 0.73904 0.13319
 N730 N 0.87938 0.75329 0.16111
 N731 N 0.86037 0.75441 0.17857
 C732 C 0.84364 0.74131 0.16866
 N733 N 0.84649 0.72705 0.14075
 N734 N 0.86550 0.72592 0.12329
 C735 C 0.90259 0.73802 0.11409
 C736 C 0.91967 0.73722 0.09791
 C737 C 0.82306 0.74284 0.18700
 C738 C 0.80574 0.74440 0.20226
 C739 C 0.38180 0.23860 0.63165
 N740 N 0.36614 0.22354 0.62525
 N741 N 0.34716 0.22457 0.64281
 C742 C 0.34327 0.24069 0.66731
 N743 N 0.35894 0.25574 0.67371
 N744 N 0.37792 0.25471 0.65616
 C745 C 0.40215 0.23764 0.61245
 C746 C 0.41921 0.23687 0.59622
 C747 C 0.32270 0.24204 0.68578
 C748 C 0.30540 0.24344 0.70116
 C749 C 0.11749 0.26079 0.13264
 N750 N 0.13573 0.26881 0.11669
 N751 N 0.15476 0.26785 0.13399
 C752 C 0.15613 0.25884 0.16777
 N753 N 0.13789 0.25082 0.18372
 N754 N 0.11885 0.25179 0.16642
 C755 C 0.09705 0.26160 0.11381
 C756 C 0.07993 0.26226 0.09781
 C757 C 0.17671 0.25739 0.18607
 C758 C 0.19403 0.25593 0.20126
 C759 C 0.61835 0.76173 0.63299
 N760 N 0.63690 0.76826 0.61615
 N761 N 0.65590 0.76714 0.63351
 C762 C 0.65693 0.75947 0.66824
 N763 N 0.63838 0.75295 0.68509
 N764 N 0.61937 0.75407 0.66773
 C765 C 0.59793 0.76273 0.61414
 C766 C 0.58081 0.76354 0.59817
 C767 C 0.67746 0.75789 0.68668
 C768 C 0.69473 0.75633 0.70200
   
