data_POSCAR
  _audit_creation_date              2014-09-24
  _audit_creation_method            'ToBaCCo'
  _symmetry_space_group_name_H-M    'P1'
  _symmetry_Int_Tables_number       1
  _symmetry_cell_setting            triclinic
  loop_
  _symmetry_equiv_pos_as_xyz
 x,y,z
_cell_length_a 48.1466
_cell_length_b 48.1434
_cell_length_c 48.1452
_cell_angle_alpha 90.005300
_cell_angle_beta 90.000800
_cell_angle_gamma 89.997400
loop_
  _atom_site_label
  _atom_site_type_symbol
  _atom_site_fract_x
  _atom_site_fract_y
  _atom_site_fract_z
N1 N 0.20871 0.20873 0.20871
 N2 N 0.70862 0.70858 0.70856
 N3 N 0.29115 0.79120 0.70886
 N4 N 0.79124 0.29118 0.20887
 N5 N 0.79128 0.70870 0.29119
 N6 N 0.29136 0.20879 -0.20875
 N7 N 0.70882 0.29127 -0.20872
 N8 N 0.20861 0.79147 0.29136
 N9 N 0.45868 0.45886 0.45877
 N10 N -0.04123 -0.04114 0.95881
 N11 N 1.04139 0.54140 0.95860
 N12 N 0.54135 0.04142 0.45865
 N13 N -0.04129 0.04111 0.54137
 N14 N 0.45875 0.54124 0.04131
 N15 N 0.54127 -0.04136 0.04123
 N16 N 1.04133 0.45862 0.54123
 C17 C 0.41749 0.01307 0.21251
 H18 H 0.41859 0.03192 0.22469
 C19 C 0.43560 0.00915 0.19019
 H20 H 0.45067 0.02505 0.18506
 C21 C 0.39680 -0.03093 0.20451
 H22 H 0.38198 -0.04670 0.21039
 C23 C 0.41454 -0.03569 0.18204
 H24 H 0.41313 -0.05497 0.17053
 N25 N 0.39837 -0.00671 0.21902
 C26 C 0.33262 0.03749 0.26305
 H27 H 0.33152 0.02529 0.28189
 C28 C 0.31450 0.05981 0.25916
 H29 H 0.29944 0.06493 0.27508
 C30 C 0.35329 0.04553 0.21905
 H31 H 0.36810 0.03966 0.20327
 C32 C 0.33554 0.06801 0.21433
 H33 H 0.33694 0.07953 0.19506
 Zn34 Zn 0.37504 0.00003 0.24997
 N35 N 0.35173 0.03100 0.24326
 C36 C 0.39686 0.03096 0.29542
 N37 N 0.39838 0.00674 0.28091
 C38 C 0.41747 -0.01307 0.28742
 C39 C 0.43560 -0.00919 0.30973
 C40 C 0.41461 0.03569 0.31788
 C41 C 0.33256 -0.03736 0.23689
 C42 C 0.31441 -0.05965 0.24078
 C43 C 0.33543 -0.06785 0.28563
 C44 C 0.35321 -0.04541 0.28090
 N45 N 0.35168 -0.03089 0.25668
 H46 H 0.38207 0.04675 0.28953
 H47 H 0.41854 -0.03193 0.27524
 H48 H 0.45063 -0.02512 0.31487
 H49 H 0.41324 0.05498 0.32939
 H50 H 0.33149 -0.02517 0.21804
 H51 H 0.29935 -0.06476 0.22486
 H52 H 0.33681 -0.07937 0.30491
 H53 H 0.36802 -0.03955 0.29668
 C54 C 0.31604 0.07523 0.23461
 C55 C 0.43405 -0.01543 0.17480
 C56 C 0.31593 -0.07506 0.26535
 C57 C 0.43409 0.01539 0.32513
 C58 C 0.08251 -0.01303 0.71276
 H59 H 0.08141 -0.03184 0.72500
 C60 C 0.06436 -0.00917 0.69047
 H61 H 0.04927 -0.02508 0.68541
 C62 C 0.10323 0.03092 0.70457
 H63 H 0.11808 0.04668 0.71037
 C64 C 0.08546 0.03561 0.68212
 H65 H 0.08687 0.05485 0.67053
 N66 N 0.10167 0.00675 0.71917
 C67 C 0.16752 -0.03733 0.76315
 H68 H 0.16866 -0.02509 0.78196
 C69 C 0.18562 -0.05966 0.75927
 H70 H 0.20072 -0.06474 0.77516
 C71 C 0.14674 -0.04548 0.71922
 H72 H 0.13188 -0.03965 0.70347
 C73 C 0.16446 -0.06797 0.71451
 H74 H 0.16301 -0.07954 0.69527
 Zn75 Zn 0.12504 0.00008 0.75009
 N76 N 0.14835 -0.03089 0.74339
 C77 C 0.10332 -0.03077 0.79564
 N78 N 0.10174 -0.00658 0.78107
 C79 C 0.08261 0.01320 0.78753
 C80 C 0.06450 0.00933 0.80986
 C81 C 0.08559 -0.03547 0.81812
 C82 C 0.16750 0.03747 0.73693
 C83 C 0.18564 0.05978 0.74078
 C84 C 0.16461 0.06807 0.78560
 C85 C 0.14684 0.04560 0.78092
 N86 N 0.14839 0.03102 0.75673
 H87 H 0.11815 -0.04654 0.78980
 H88 H 0.08150 0.03202 0.77530
 H89 H 0.04942 0.02524 0.81495
 H90 H 0.08701 -0.05472 0.82968
 H91 H 0.16858 0.02524 0.71811
 H92 H 0.20070 0.06486 0.72486
 H93 H 0.16321 0.07963 0.80486
 H94 H 0.13203 0.03977 0.79670
 C95 C 0.18402 -0.07514 0.73475
 C96 C 0.06591 0.01534 0.67498
 C97 C 0.18411 0.07524 0.76532
 C98 C 0.06607 -0.01520 0.82532
 C99 C 0.58256 0.48685 0.21261
 H100 H 0.58147 0.46801 0.22481
 C101 C 0.56444 0.49073 0.19029
 H102 H 0.54939 0.47480 0.18517
 C103 C 0.60321 0.53086 0.20456
 H104 H 0.61802 0.54664 0.21043
 C105 C 0.58546 0.53557 0.18209
 H106 H 0.58686 0.55484 0.17056
 N107 N 0.60166 0.50665 0.21910
 C108 C 0.66744 0.46252 0.26316
 H109 H 0.66852 0.47472 0.28200
 C110 C 0.68556 0.44020 0.25928
 H111 H 0.70061 0.43508 0.27520
 C112 C 0.64679 0.45446 0.21915
 H113 H 0.63198 0.46033 0.20337
 C114 C 0.66453 0.43199 0.21444
 H115 H 0.66314 0.42046 0.19516
 Zn116 Zn 0.62500 0.49996 0.25005
 N117 N 0.64833 0.46901 0.24336
 C118 C 0.60321 0.46909 0.29556
 N119 N 0.60166 0.49328 0.28100
 C120 C 0.58254 0.51308 0.28746
 C121 C 0.56442 0.50921 0.30978
 C122 C 0.58546 0.46439 0.31802
 C123 C 0.66745 0.53737 0.23693
 C124 C 0.68557 0.55969 0.24079
 C125 C 0.66454 0.56794 0.28562
 C126 C 0.64679 0.54547 0.28093
 N127 N 0.64833 0.53091 0.25673
 H128 H 0.61803 0.45331 0.28970
 H129 H 0.58145 0.53191 0.27525
 H130 H 0.54935 0.52513 0.31487
 H131 H 0.58687 0.44512 0.32957
 H132 H 0.66853 0.52516 0.21810
 H133 H 0.70062 0.56479 0.22487
 H134 H 0.66314 0.57949 0.30489
 H135 H 0.63197 0.53962 0.29671
 C136 C 0.68403 0.42477 0.23472
 C137 C 0.56597 0.51529 0.17487
 C138 C 0.68404 0.57514 0.26534
 C139 C 0.56595 0.48466 0.32522
 C140 C 0.91752 0.51306 0.71250
 H141 H 0.91861 0.53191 0.72469
 C142 C 0.93565 0.50916 0.69020
 H143 H 0.95071 0.52507 0.68507
 C144 C 0.89685 0.46906 0.70447
 H145 H 0.88203 0.45329 0.71035
 C146 C 0.91460 0.46432 0.68201
 H147 H 0.91320 0.44504 0.67050
 N148 N 0.89840 0.49328 0.71900
 C149 C 0.83261 0.53743 0.76300
 H150 H 0.83151 0.52524 0.78185
 C151 C 0.81448 0.55974 0.75910
 H152 H 0.79940 0.56485 0.77501
 C153 C 0.85329 0.54548 0.71901
 H154 H 0.86812 0.53961 0.70325
 C155 C 0.83554 0.56794 0.71428
 H156 H 0.83694 0.57946 0.69500
 Zn157 Zn 0.87507 0.50000 0.74994
 N158 N 0.85173 0.53094 0.74322
 C159 C 0.89685 0.53093 0.79542
 N160 N 0.89840 0.50672 0.78088
 C161 C 0.91752 0.48693 0.78737
 C162 C 0.93565 0.49082 0.80968
 C163 C 0.91460 0.53566 0.81788
 C164 C 0.83261 0.46257 0.73687
 C165 C 0.81449 0.44026 0.74076
 C166 C 0.83556 0.43205 0.78558
 C167 C 0.85330 0.45451 0.78086
 N168 N 0.85173 0.46906 0.75665
 H169 H 0.88203 0.54670 0.78955
 H170 H 0.91861 0.46809 0.77517
 H171 H 0.95071 0.47491 0.81479
 H172 H 0.91320 0.55494 0.82941
 H173 H 0.83151 0.47477 0.71803
 H174 H 0.79943 0.43514 0.72485
 H175 H 0.83697 0.42051 0.80485
 H176 H 0.86812 0.46038 0.79663
 C177 C 0.81602 0.57515 0.73454
 C178 C 0.93411 0.48459 0.67479
 C179 C 0.81605 0.42483 0.76531
 C180 C 0.93411 0.51539 0.82510
 C181 C 0.21258 0.41749 0.01307
 H182 H 0.22476 0.41858 0.03192
 C183 C 0.19028 0.43563 0.00915
 H184 H 0.18517 0.45070 0.02506
 C185 C 0.20456 0.39681 -0.03093
 H186 H 0.21043 0.38199 -0.04670
 C187 C 0.18211 0.41458 -0.03568
 H188 H 0.17060 0.41318 -0.05497
 N189 N 0.21907 0.39836 -0.00671
 C190 C 0.26306 0.33256 0.03745
 H191 H 0.28190 0.33146 0.02525
 C192 C 0.25917 0.31445 0.05977
 H193 H 0.27507 0.29938 0.06488
 C194 C 0.21908 0.35327 0.04551
 H195 H 0.20332 0.36810 0.03964
 C196 C 0.21436 0.33553 0.06798
 H197 H 0.19509 0.33695 0.07951
 Zn198 Zn 0.25000 0.37501 0.00001
 N199 N 0.24329 0.35169 0.03096
 C200 C 0.29549 0.39679 0.03093
 N201 N 0.28095 0.39834 0.00672
 C202 C 0.28745 0.41745 -0.01308
 C203 C 0.30977 0.43556 -0.00920
 C204 C 0.31796 0.41453 0.03564
 C205 C 0.23692 0.33255 -0.03740
 C206 C 0.24080 0.31442 -0.05972
 C207 C 0.28562 0.33547 -0.06794
 C208 C 0.28091 0.35322 -0.04547
 N209 N 0.25671 0.35167 -0.03092
 H210 H 0.28962 0.38198 0.04670
 H211 H 0.27525 0.41854 -0.03192
 H212 H 0.31489 0.45061 -0.02512
 H213 H 0.32949 0.41313 0.05492
 H214 H 0.21808 0.33146 -0.02520
 H215 H 0.22488 0.29936 -0.06483
 H216 H 0.30489 0.33688 -0.07948
 H217 H 0.29668 0.36804 -0.03961
 C218 C 0.23462 0.31601 0.07520
 C219 C 0.17489 0.43410 -0.01542
 C220 C 0.26535 0.31596 -0.07515
 C221 C 0.32519 0.43403 0.01536
 C222 C 0.71252 0.08255 -0.01309
 H223 H 0.72473 0.08147 -0.03192
 C224 C 0.69022 0.06441 -0.00922
 H225 H 0.68512 0.04935 -0.02514
 C226 C 0.70445 0.10319 0.03092
 H227 H 0.71030 0.11800 0.04671
 C228 C 0.68199 0.08542 0.03563
 H229 H 0.67046 0.08681 0.05490
 N230 N 0.71899 0.10165 0.00672
 C231 C 0.76300 0.16750 -0.03734
 H232 H 0.78183 0.16861 -0.02512
 C233 C 0.75913 0.18563 -0.05965
 H234 H 0.77503 0.20071 -0.06474
 C235 C 0.71904 0.14678 -0.04547
 H236 H 0.70328 0.13194 -0.03963
 C237 C 0.71434 0.16453 -0.06794
 H238 H 0.69508 0.16311 -0.07950
 Zn239 Zn 0.74993 0.12501 0.00004
 N240 N 0.74323 0.14836 -0.03089
 C241 C 0.79545 0.10329 -0.03086
 N242 N 0.78089 0.10169 -0.00667
 C243 C 0.78736 0.08255 0.01310
 C244 C 0.80968 0.06444 0.00921
 C245 C 0.81793 0.08555 -0.03558
 C246 C 0.73682 0.16743 0.03752
 C247 C 0.74071 0.18553 0.05985
 C248 C 0.78555 0.16450 0.06802
 C249 C 0.78083 0.14677 0.04554
 N250 N 0.75662 0.14832 0.03101
 H251 H 0.78960 0.11812 -0.04662
 H252 H 0.77514 0.08143 0.03192
 H253 H 0.81478 0.04935 0.02510
 H254 H 0.82948 0.08699 -0.05484
 H255 H 0.71798 0.16852 0.02532
 H256 H 0.72479 0.20058 0.06498
 H257 H 0.80483 0.16310 0.07955
 H258 H 0.79661 0.13196 0.03966
 C259 C 0.73460 0.18406 -0.07512
 C260 C 0.67479 0.06593 0.01534
 C261 C 0.76527 0.18399 0.07527
 C262 C 0.82513 0.06602 -0.01533
 C263 C 0.21248 0.58264 0.48683
 H264 H 0.22468 0.58157 0.46799
 C265 C 0.19018 0.56450 0.49070
 H266 H 0.18507 0.54945 0.47477
 C267 C 0.20442 0.60325 0.53086
 H268 H 0.21028 0.61805 0.54665
 C269 C 0.18197 0.58549 0.53556
 H270 H 0.17044 0.58686 0.55484
 N271 N 0.21896 0.60173 0.50665
 C272 C 0.26298 0.66758 0.46261
 H273 H 0.28182 0.66866 0.47481
 C274 C 0.25909 0.68574 0.44032
 H275 H 0.27500 0.70081 0.43522
 C276 C 0.21899 0.64692 0.45453
 H277 H 0.20322 0.63209 0.46038
 C278 C 0.21426 0.66469 0.43209
 H279 H 0.19499 0.66331 0.42056
 Zn280 Zn 0.24990 0.62508 0.49999
 N281 N 0.24320 0.64845 0.46907
 C282 C 0.29542 0.60336 0.46909
 N283 N 0.28085 0.60176 0.49327
 C284 C 0.28731 0.58261 0.51304
 C285 C 0.30963 0.56449 0.50914
 C286 C 0.31790 0.58562 0.46437
 C287 C 0.23679 0.66751 0.53744
 C288 C 0.24065 0.68561 0.55978
 C289 C 0.28546 0.66453 0.56802
 C290 C 0.28076 0.64681 0.54553
 N291 N 0.25658 0.64839 0.53096
 H292 H 0.28958 0.61821 0.45334
 H293 H 0.27509 0.58148 0.53186
 H294 H 0.31472 0.54940 0.52504
 H295 H 0.32946 0.58706 0.44511
 H296 H 0.21796 0.66862 0.52522
 H297 H 0.22474 0.70068 0.56488
 H298 H 0.30472 0.66311 0.57958
 H299 H 0.29654 0.63198 0.53967
 C300 C 0.23453 0.68421 0.42489
 C301 C 0.17476 0.56600 0.51526
 C302 C 0.26519 0.68404 0.57523
 C303 C 0.32509 0.56608 0.48461
 C304 C 0.71252 0.91743 0.51304
 H305 H 0.72470 0.91849 0.53189
 C306 C 0.69023 0.93558 0.50915
 H307 H 0.68512 0.95064 0.52508
 C308 C 0.70449 0.89681 0.46901
 H309 H 0.71035 0.88201 0.45322
 C310 C 0.68205 0.91460 0.46428
 H311 H 0.67054 0.91323 0.44499
 N312 N 0.71900 0.89833 0.49323
 C313 C 0.76295 0.83245 0.53732
 H314 H 0.78179 0.83134 0.52512
 C315 C 0.75904 0.81430 0.55961
 H316 H 0.77493 0.79921 0.56471
 C317 C 0.71898 0.85317 0.54539
 H318 H 0.70322 0.86801 0.53954
 C319 C 0.71423 0.83540 0.56784
 H320 H 0.69496 0.83682 0.57937
 Zn321 Zn 0.74992 0.87495 0.49993
 N322 N 0.74318 0.85160 0.53085
 C323 C 0.79543 0.89665 0.53087
 N324 N 0.78088 0.89826 0.50667
 C325 C 0.78737 0.91740 0.48691
 C326 C 0.80969 0.93550 0.49082
 C327 C 0.81791 0.91438 0.53561
 C328 C 0.73682 0.83255 0.46245
 C329 C 0.74071 0.81444 0.44012
 C330 C 0.78557 0.83545 0.43198
 C331 C 0.78085 0.85318 0.45446
 N332 N 0.75662 0.85164 0.46897
 H333 H 0.78957 0.88182 0.54662
 H334 H 0.77516 0.91852 0.46808
 H335 H 0.81481 0.95059 0.47493
 H336 H 0.82945 0.91294 0.55488
 H337 H 0.71797 0.83147 0.47463
 H338 H 0.72479 0.79940 0.43497
 H339 H 0.80486 0.83684 0.42047
 H340 H 0.79663 0.86798 0.46035
 C341 C 0.73448 0.81586 0.57504
 C342 C 0.67483 0.93409 0.48457
 C343 C 0.76529 0.81597 0.42472
 C344 C 0.82513 0.93392 0.51537
 C345 C 0.01314 0.21235 0.41748
 H346 H 0.03197 0.22456 0.41858
 C347 C 0.00927 0.19002 0.43560
 H348 H 0.02519 0.18491 0.45065
 C349 C -0.03086 0.20427 0.39682
 H350 H -0.04664 0.21013 0.38201
 C351 C -0.03556 0.18179 0.41455
 H352 H -0.05482 0.17025 0.41315
 N353 N -0.00666 0.21883 0.39838
 C354 C 0.03739 0.26291 0.33258
 H355 H 0.02518 0.28175 0.33151
 C356 C 0.05969 0.25904 0.31444
 H357 H 0.06478 0.27497 0.29938
 C358 C 0.04549 0.21891 0.35323
 H359 H 0.03965 0.20313 0.36805
 C360 C 0.06795 0.21421 0.33546
 H361 H 0.07949 0.19494 0.33685
 Zn362 Zn 0.00001 0.24980 0.37506
 N363 N 0.03094 0.24311 0.35170
 C364 C 0.03093 0.29527 0.39685
 N365 N 0.00673 0.28073 0.39842
 C366 C -0.01305 0.28721 0.41755
 C367 C -0.00916 0.30952 0.43567
 C368 C 0.03566 0.31774 0.41460
 C369 C -0.03745 0.23673 0.33263
 C370 C -0.05978 0.24063 0.31452
 C371 C -0.06798 0.28544 0.33562
 C372 C -0.04550 0.28071 0.35334
 N373 N -0.03096 0.25651 0.35176
 H374 H 0.04669 0.28941 0.38202
 H375 H -0.03189 0.27500 0.41865
 H376 H -0.02507 0.31463 0.45074
 H377 H 0.05492 0.32927 0.41319
 H378 H -0.02524 0.21790 0.33151
 H379 H -0.06490 0.22472 0.29945
 H380 H -0.07952 0.30471 0.33704
 H381 H -0.03963 0.29648 0.36817
 C382 C 0.07514 0.23449 0.31596
 C383 C -0.01528 0.17458 0.43405
 C384 C -0.07521 0.26518 0.31610
 C385 C 0.01539 0.32495 0.43412
 C386 C -0.01305 0.71263 0.08249
 H387 H -0.03190 0.72483 0.08141
 C388 C -0.00916 0.69033 0.06435
 H389 H -0.02508 0.68522 0.04929
 C390 C 0.03095 0.70459 0.10314
 H391 H 0.04673 0.71046 0.11796
 C392 C 0.03568 0.68213 0.08538
 H393 H 0.05496 0.67061 0.08677
 N394 N 0.00674 0.71912 0.10161
 C395 C -0.03744 0.76309 0.16741
 H396 H -0.02526 0.78194 0.16851
 C397 C -0.05976 0.75918 0.18552
 H398 H -0.06490 0.77509 0.20058
 C399 C -0.04544 0.71909 0.14672
 H400 H -0.03956 0.70332 0.13190
 C401 C -0.06791 0.71434 0.16446
 H402 H -0.07942 0.69505 0.16305
 Zn403 Zn 0.00001 0.75005 0.12496
 N404 N -0.03093 0.74331 0.14829
 C405 C -0.03092 0.79553 0.10321
 N406 N -0.00670 0.78100 0.10165
 C407 C 0.01309 0.78751 0.08254
 C408 C 0.00920 0.80983 0.06443
 C409 C -0.03564 0.81801 0.08547
 C410 C 0.03745 0.73695 0.16740
 C411 C 0.05976 0.74084 0.18554
 C412 C 0.06791 0.78570 0.16455
 C413 C 0.04546 0.78098 0.14679
 N414 N 0.03095 0.75675 0.14831
 H415 H -0.04669 0.78965 0.11801
 H416 H 0.03194 0.77531 0.08145
 H417 H 0.02511 0.81496 0.04938
 H418 H -0.05492 0.82953 0.08688
 H419 H 0.02527 0.71809 0.16847
 H420 H 0.06488 0.72491 0.20058
 H421 H 0.07942 0.80499 0.16318
 H422 H 0.03958 0.79676 0.13199
 C423 C -0.07516 0.73460 0.18397
 C424 C 0.01540 0.67491 0.06588
 C425 C 0.07515 0.76542 0.18403
 C426 C -0.01537 0.82524 0.06598
 C427 C 0.48696 0.21271 0.58252
 H428 H 0.46812 0.22492 0.58144
 C429 C 0.49084 0.19041 0.56438
 H430 H 0.47492 0.18530 0.54932
 C431 C 0.53097 0.20465 0.60316
 H432 H 0.54675 0.21051 0.61797
 C433 C 0.53568 0.18219 0.58539
 H434 H 0.55496 0.17066 0.58678
 N435 N 0.50676 0.21919 0.60163
 C436 C 0.46269 0.26317 0.66749
 H437 H 0.47490 0.28201 0.66860
 C438 C 0.44039 0.25927 0.68563
 H439 H 0.43530 0.27517 0.70072
 C440 C 0.45460 0.21921 0.64677
 H441 H 0.46044 0.20345 0.63192
 C442 C 0.43214 0.21448 0.66452
 H443 H 0.42060 0.19521 0.66310
 Zn444 Zn 0.50008 0.25012 0.62499
 N445 N 0.46915 0.24341 0.64834
 C446 C 0.46916 0.29564 0.60329
 N447 N 0.49336 0.28109 0.60169
 C448 C 0.51312 0.28757 0.58255
 C449 C 0.50922 0.30990 0.56444
 C450 C 0.46443 0.31812 0.58556
 C451 C 0.53751 0.23700 0.66743
 C452 C 0.55983 0.24087 0.68554
 C453 C 0.56808 0.28568 0.66449
 C454 C 0.54561 0.28099 0.64675
 N455 N 0.53104 0.25680 0.64831
 H456 H 0.45341 0.28978 0.61812
 H457 H 0.53196 0.27536 0.58142
 H458 H 0.52511 0.31500 0.54935
 H459 H 0.44516 0.32966 0.58700
 H460 H 0.52529 0.21818 0.66852
 H461 H 0.56493 0.22495 0.70060
 H462 H 0.57964 0.30494 0.66309
 H463 H 0.53976 0.29677 0.63193
 C464 C 0.42495 0.23473 0.68407
 C465 C 0.51540 0.17498 0.56590
 C466 C 0.57528 0.26541 0.68400
 C467 C 0.48467 0.32533 0.56602
 C468 C 0.51310 0.71247 0.91742
 H469 H 0.53195 0.72466 0.91849
 C470 C 0.50921 0.69018 0.93556
 H471 H 0.52513 0.68506 0.95061
 C472 C 0.46908 0.70444 0.89678
 H473 H 0.45330 0.71031 0.88197
 C474 C 0.46436 0.68199 0.91455
 H475 H 0.44507 0.67048 0.91317
 N476 N 0.49330 0.71896 0.89831
 C477 C 0.53742 0.76294 0.83248
 H478 H 0.52522 0.78179 0.83138
 C479 C 0.55972 0.75903 0.81434
 H480 H 0.56482 0.77494 0.79927
 C481 C 0.54547 0.71896 0.85317
 H482 H 0.53961 0.70319 0.86800
 C483 C 0.56793 0.71422 0.83542
 H484 H 0.57945 0.69494 0.83682
 Zn485 Zn 0.50000 0.74989 0.87496
 N486 N 0.53094 0.74317 0.85161
 C487 C 0.53091 0.79540 0.89670
 N488 N 0.50671 0.78085 0.89828
 C489 C 0.48693 0.78733 0.91740
 C490 C 0.49082 0.80966 0.93551
 C491 C 0.53563 0.81788 0.91444
 C492 C 0.46256 0.73679 0.83252
 C493 C 0.44023 0.74067 0.81441
 C494 C 0.43202 0.78550 0.83546
 C495 C 0.45450 0.78079 0.85319
 N496 N 0.46905 0.75659 0.85163
 H497 H 0.54668 0.78954 0.88188
 H498 H 0.46810 0.77513 0.91850
 H499 H 0.47490 0.81477 0.95058
 H500 H 0.55490 0.82941 0.91303
 H501 H 0.47476 0.71795 0.83142
 H502 H 0.43512 0.72475 0.79935
 H503 H 0.42048 0.80477 0.83687
 H504 H 0.46037 0.79657 0.86800
 C505 C 0.57514 0.73447 0.81589
 C506 C 0.48464 0.67477 0.93404
 C507 C 0.42480 0.76522 0.81596
 C508 C 0.51536 0.82509 0.93396
 C509 C 0.14054 0.22192 0.26345
 C510 C 0.13699 0.22496 0.23475
 C511 C 0.15936 0.22063 0.21676
 C512 C 0.18558 0.21321 0.22729
 C513 C 0.18896 0.21021 0.25614
 C514 C 0.16656 0.21454 0.27410
 C515 C 0.11748 0.22634 0.28194
 C516 C 0.09817 0.23005 0.29745
 H517 H 0.11692 0.23062 0.22628
 H518 H 0.15623 0.22286 0.19461
 H519 H 0.20901 0.20472 0.26472
 H520 H 0.16955 0.21217 0.29628
 C521 C 0.64050 0.72180 0.76336
 C522 C 0.66654 0.71442 0.77399
 C523 C 0.68892 0.71009 0.75601
 C524 C 0.68551 0.71307 0.72716
 C525 C 0.65928 0.72049 0.71666
 C526 C 0.63692 0.72482 0.73466
 C527 C 0.61747 0.72625 0.78188
 C528 C 0.59817 0.72999 0.79739
 H529 H 0.66954 0.71207 0.79617
 H530 H 0.70897 0.70460 0.76458
 H531 H 0.65612 0.72270 0.69450
 H532 H 0.61685 0.73049 0.72621
 C533 C 0.35935 0.77789 0.76354
 C534 C 0.33334 0.78530 0.77422
 C535 C 0.31093 0.78966 0.75627
 C536 C 0.31429 0.78667 0.72742
 C537 C 0.34049 0.77922 0.71687
 C538 C 0.36287 0.77485 0.73484
 C539 C 0.38241 0.77341 0.78201
 C540 C 0.40173 0.76967 0.79749
 H541 H 0.33037 0.78766 0.79640
 H542 H 0.29090 0.79518 0.76487
 H543 H 0.34361 0.77701 0.69471
 H544 H 0.38292 0.76917 0.72635
 C545 C -0.14063 0.27789 0.26365
 C546 C -0.15656 0.25536 0.25446
 C547 C -0.17894 0.25971 0.23648
 C548 C -0.18565 0.28667 0.22747
 C549 C -0.16955 0.30918 0.23680
 C550 C -0.14718 0.30480 0.25479
 C551 C -0.11759 0.27340 0.28214
 C552 C -0.09827 0.26965 0.29763
 H553 H -0.15170 0.23446 0.26123
 H554 H -0.19117 0.24210 0.22973
 H555 H -0.17420 0.33009 0.22997
 H556 H -0.13496 0.32238 0.26174
 C557 C -0.14056 0.72191 0.23644
 C558 C -0.14712 0.69501 0.24531
 C559 C -0.16950 0.69065 0.26329
 C560 C -0.18559 0.71318 0.27260
 C561 C -0.17886 0.74013 0.26358
 C562 C -0.15647 0.74445 0.24560
 C563 C -0.11752 0.72637 0.21794
 C564 C -0.09821 0.73011 0.20245
 H565 H -0.13492 0.67742 0.23838
 H566 H -0.17417 0.66975 0.27014
 H567 H -0.19109 0.75776 0.27031
 H568 H -0.15160 0.76535 0.23883
 C569 C 0.35954 0.22206 0.73655
 C570 C 0.36308 0.22511 0.76524
 C571 C 0.34070 0.22075 0.78322
 C572 C 0.31450 0.21331 0.77268
 C573 C 0.31113 0.21031 0.74383
 C574 C 0.33353 0.21466 0.72588
 C575 C 0.38260 0.22651 0.71806
 C576 C 0.40191 0.23026 0.70257
 H577 H 0.38314 0.23078 0.77372
 H578 H 0.34383 0.22297 0.80538
 H579 H 0.29109 0.20480 0.73523
 H580 H 0.33056 0.21229 0.70370
 C581 C 0.64069 0.27802 0.73650
 C582 C 0.66671 0.28541 0.72586
 C583 C 0.68910 0.28976 0.74383
 C584 C 0.68570 0.28676 0.77269
 C585 C 0.65949 0.27932 0.78319
 C586 C 0.63712 0.27498 0.76519
 C587 C 0.61765 0.27356 0.71799
 C588 C 0.59834 0.26984 0.70249
 H589 H 0.66971 0.28778 0.70368
 H590 H 0.70915 0.29526 0.73526
 H591 H 0.65633 0.27711 0.80535
 H592 H 0.61706 0.26931 0.77365
 C593 C 0.14051 0.77815 0.23656
 C594 C 0.15642 0.75562 0.24576
 C595 C 0.17880 0.75998 0.26375
 C596 C 0.18550 0.78695 0.27275
 C597 C 0.16940 0.80945 0.26340
 C598 C 0.14704 0.80506 0.24541
 C599 C 0.11748 0.77364 0.21805
 C600 C 0.09818 0.76989 0.20254
 H601 H 0.15157 0.73471 0.23901
 H602 H 0.19103 0.74237 0.27052
 H603 H 0.17406 0.83037 0.27023
 H604 H 0.13483 0.82263 0.23845
 C605 C 0.26352 0.14061 0.22196
 C606 C 0.23483 0.13703 0.22499
 C607 C 0.21682 0.15939 0.22065
 C608 C 0.22731 0.18561 0.21322
 C609 C 0.25616 0.18903 0.21023
 C610 C 0.27415 0.16665 0.21458
 C611 C 0.28204 0.11758 0.22641
 C612 C 0.29755 0.09828 0.23014
 H613 H 0.22638 0.11696 0.23066
 H614 H 0.19466 0.15623 0.22286
 H615 H 0.26472 0.20908 0.20473
 H616 H 0.29632 0.16966 0.21222
 C617 C 0.76347 0.64050 0.72184
 C618 C 0.73478 0.63691 0.72488
 C619 C 0.71676 0.65925 0.72053
 C620 C 0.72724 0.68548 0.71308
 C621 C 0.75608 0.68890 0.71007
 C622 C 0.77408 0.66653 0.71442
 C623 C 0.78200 0.61748 0.72631
 C624 C 0.79751 0.59819 0.73006
 H625 H 0.72634 0.61684 0.73057
 H626 H 0.69461 0.65608 0.72275
 H627 H 0.76463 0.70895 0.70455
 H628 H 0.79625 0.66955 0.71205
 C629 C 0.76357 0.35942 0.77800
 C630 C 0.73487 0.36298 0.77496
 C631 C 0.71688 0.34061 0.77932
 C632 C 0.72740 0.31440 0.78677
 C633 C 0.75625 0.31101 0.78977
 C634 C 0.77422 0.33340 0.78542
 C635 C 0.78207 0.38246 0.77352
 C636 C 0.79756 0.40177 0.76977
 H637 H 0.72641 0.38304 0.76927
 H638 H 0.69473 0.34375 0.77710
 H639 H 0.76483 0.29097 0.79529
 H640 H 0.79640 0.33041 0.78778
 C641 C 0.26339 -0.14042 0.27806
 C642 C 0.25452 -0.14694 0.30497
 C643 C 0.23653 -0.16930 0.30935
 C644 C 0.22720 -0.18542 0.28684
 C645 C 0.23622 -0.17872 0.25989
 C646 C 0.25421 -0.15635 0.25553
 C647 C 0.28190 -0.11739 0.27356
 C648 C 0.29741 -0.09809 0.26981
 H649 H 0.26147 -0.13472 0.32254
 H650 H 0.22969 -0.17395 0.33026
 H651 H 0.22948 -0.19097 0.24227
 H652 H 0.26098 -0.15150 0.23463
 C653 C 0.23645 -0.14061 0.72214
 C654 C 0.26515 -0.13707 0.72518
 C655 C 0.28312 -0.15946 0.72083
 C656 C 0.27258 -0.18566 0.71339
 C657 C 0.24373 -0.18903 0.71040
 C658 C 0.22578 -0.16662 0.71475
 C659 C 0.21796 -0.11754 0.72658
 C660 C 0.20249 -0.09821 0.73029
 H661 H 0.27363 -0.11701 0.73085
 H662 H 0.30528 -0.15633 0.72305
 H663 H 0.23514 -0.20907 0.70489
 H664 H 0.20360 -0.16960 0.71238
 C665 C 0.73651 0.35935 0.22207
 C666 C 0.74538 0.35278 0.19517
 C667 C 0.76336 0.33040 0.19082
 C668 C 0.77266 0.31431 0.21335
 C669 C 0.76364 0.32106 0.24030
 C670 C 0.74567 0.34345 0.24461
 C671 C 0.71801 0.38240 0.22652
 C672 C 0.70252 0.40172 0.23026
 H673 H 0.73844 0.36498 0.17758
 H674 H 0.77020 0.32572 0.16992
 H675 H 0.77037 0.30883 0.25792
 H676 H 0.73890 0.34833 0.26551
 C677 C 0.73652 0.64055 0.27797
 C678 C 0.74537 0.64713 0.30488
 C679 C 0.76335 0.66950 0.30923
 C680 C 0.77269 0.68558 0.28671
 C681 C 0.76369 0.67882 0.25975
 C682 C 0.74572 0.65644 0.25543
 C683 C 0.71802 0.61750 0.27350
 C684 C 0.70253 0.59819 0.26977
 H685 H 0.73841 0.63494 0.32247
 H686 H 0.77017 0.67419 0.33014
 H687 H 0.77045 0.69103 0.24212
 H688 H 0.73896 0.65155 0.23452
 C689 C 0.23662 0.14064 0.77793
 C690 C 0.26532 0.13708 0.77490
 C691 C 0.28331 0.15945 0.77927
 C692 C 0.27278 0.18566 0.78671
 C693 C 0.24393 0.18905 0.78969
 C694 C 0.22597 0.16666 0.78532
 C695 C 0.21812 0.11759 0.77347
 C696 C 0.20262 0.09829 0.76974
 H697 H 0.27379 0.11702 0.76923
 H698 H 0.30546 0.15631 0.77706
 H699 H 0.23535 0.20910 0.79520
 H700 H 0.20379 0.16965 0.78768
 C701 C 0.22196 0.26351 0.14059
 C702 C 0.22504 0.23482 0.13702
 C703 C 0.22069 0.21682 0.15938
 C704 C 0.21322 0.22732 0.18559
 C705 C 0.21018 0.25617 0.18899
 C706 C 0.21452 0.27415 0.16661
 C707 C 0.22641 0.28202 0.11755
 C708 C 0.23015 0.29752 0.09825
 H709 H 0.23074 0.22636 0.11696
 H710 H 0.22294 0.19466 0.15624
 H711 H 0.20464 0.26474 0.20903
 H712 H 0.21212 0.29632 0.16960
 C713 C 0.72181 0.76334 0.64041
 C714 C 0.71439 0.77398 0.66643
 C715 C 0.71007 0.75601 0.68882
 C716 C 0.71311 0.72716 0.68544
 C717 C 0.72056 0.71665 0.65922
 C718 C 0.72489 0.73465 0.63686
 C719 C 0.72626 0.78185 0.61737
 C720 C 0.73000 0.79735 0.59807
 H721 H 0.71200 0.79616 0.66942
 H722 H 0.70455 0.76459 0.70887
 H723 H 0.72281 0.69450 0.65608
 H724 H 0.73059 0.72619 0.61679
 C725 C 0.77800 0.76350 0.35930
 C726 C 0.80491 0.75463 0.35277
 C727 C 0.80929 0.73664 0.33040
 C728 C 0.78678 0.72731 0.31430
 C729 C 0.75982 0.73633 0.32100
 C730 C 0.75547 0.75432 0.34338
 C731 C 0.77351 0.78200 0.38235
 C732 C 0.76975 0.79749 0.40166
 H733 H 0.82248 0.76158 0.36498
 H734 H 0.83020 0.72980 0.32575
 H735 H 0.74221 0.72958 0.30876
 H736 H 0.73457 0.76109 0.34823
 C737 C 0.27803 0.26350 -0.14058
 C738 C 0.27499 0.23480 -0.13704
 C739 C 0.27936 0.21682 -0.15942
 C740 C 0.28683 0.22735 -0.18562
 C741 C 0.28983 0.25621 -0.18898
 C742 C 0.28546 0.27416 -0.16658
 C743 C 0.27355 0.28199 -0.11753
 C744 C 0.26980 0.29748 -0.09821
 H745 H 0.26929 0.22632 -0.11699
 H746 H 0.27714 0.19466 -0.15630
 H747 H 0.29536 0.26480 -0.20901
 H748 H 0.28783 0.29635 -0.16955
 C749 C 0.72202 0.23653 -0.14055
 C750 C 0.72509 0.26523 -0.13700
 C751 C 0.72076 0.28322 -0.15938
 C752 C 0.71332 0.27269 -0.18559
 C753 C 0.71030 0.24384 -0.18897
 C754 C 0.71463 0.22588 -0.16657
 C755 C 0.72644 0.21804 -0.11750
 C756 C 0.73015 0.20255 -0.09818
 H757 H 0.73076 0.27370 -0.11694
 H758 H 0.72300 0.30537 -0.15624
 H759 H 0.70479 0.23526 -0.20902
 H760 H 0.71224 0.20370 -0.16956
 C761 C 0.22185 0.73674 0.35953
 C762 C 0.19495 0.74559 0.35296
 C763 C 0.19058 0.76356 0.33057
 C764 C 0.21310 0.77289 0.31449
 C765 C 0.24006 0.76389 0.32123
 C766 C 0.24439 0.74592 0.34363
 C767 C 0.22632 0.71824 0.38257
 C768 C 0.23006 0.70273 0.40187
 H769 H 0.17736 0.73864 0.36515
 H770 H 0.16967 0.77038 0.32589
 H771 H 0.25768 0.77064 0.30901
 H772 H 0.26529 0.73917 0.34851
 C773 C 0.27783 0.73649 0.64068
 C774 C 0.27480 0.76519 0.63715
 C775 C 0.27916 0.78316 0.65953
 C776 C 0.28661 0.77263 0.68573
 C777 C 0.28960 0.74377 0.68909
 C778 C 0.28524 0.72582 0.66669
 C779 C 0.27336 0.71800 0.61763
 C780 C 0.26963 0.70252 0.59830
 H781 H 0.26911 0.77366 0.61709
 H782 H 0.27694 0.80532 0.65640
 H783 H 0.29513 0.73518 0.70913
 H784 H 0.28761 0.70364 0.66967
 C785 C 0.77797 0.23642 0.14071
 C786 C 0.75544 0.24562 0.15662
 C787 C 0.75978 0.26359 0.17902
 C788 C 0.78674 0.27258 0.18575
 C789 C 0.80925 0.26323 0.16966
 C790 C 0.80488 0.24526 0.14728
 C791 C 0.77348 0.21794 0.11766
 C792 C 0.76973 0.20246 0.09833
 H793 H 0.73453 0.23887 0.15175
 H794 H 0.74216 0.27035 0.19124
 H795 H 0.83017 0.27005 0.17434
 H796 H 0.82246 0.23830 0.13508
 C797 C 0.47196 0.39073 0.51354
 C798 C 0.47500 0.38716 0.48484
 C799 C 0.47064 0.40953 0.46685
 C800 C 0.46320 0.43574 0.47736
 C801 C 0.46020 0.43914 0.50621
 C802 C 0.46456 0.41676 0.52418
 C803 C 0.47644 0.36769 0.53205
 C804 C 0.48019 0.34839 0.54754
 H805 H 0.48069 0.36710 0.47638
 H806 H 0.47286 0.40638 0.44469
 H807 H 0.45469 0.45919 0.51478
 H808 H 0.46219 0.41975 0.54636
 C809 C -0.02800 0.89068 0.01353
 C810 C -0.02495 0.88714 -0.01517
 C811 C -0.02928 0.90952 -0.03315
 C812 C -0.03672 0.93573 -0.02262
 C813 C -0.03973 0.93910 0.00624
 C814 C -0.03540 0.91670 0.02419
 C815 C -0.02356 0.86762 0.03202
 C816 C -0.01983 0.84830 0.04750
 H817 H -0.01927 0.86708 -0.02364
 H818 H -0.02705 0.90639 -0.05531
 H819 H -0.04524 0.95914 0.01482
 H820 H -0.03777 0.91968 0.04637
 C821 C 0.02811 0.60953 0.01337
 C822 C 0.00558 0.59360 0.00419
 C823 C 0.00993 0.57122 -0.01379
 C824 C 0.03689 0.56451 -0.02281
 C825 C 0.05939 0.58062 -0.01348
 C826 C 0.05501 0.60299 0.00451
 C827 C 0.02361 0.63256 0.03188
 C828 C 0.01986 0.65187 0.04738
 H829 H -0.01532 0.59846 0.01096
 H830 H -0.00769 0.55898 -0.02054
 H831 H 0.08030 0.57596 -0.02032
 H832 H 0.07259 0.61520 0.01146
 C833 C 0.52808 0.10958 0.51340
 C834 C 0.50555 0.09366 0.50422
 C835 C 0.50989 0.07127 0.48625
 C836 C 0.53684 0.06455 0.47724
 C837 C 0.55935 0.08065 0.48656
 C838 C 0.55498 0.10303 0.50453
 C839 C 0.52359 0.13263 0.53190
 C840 C 0.51985 0.15194 0.54739
 H841 H 0.48464 0.09852 0.51099
 H842 H 0.49227 0.05903 0.47951
 H843 H 0.58026 0.07599 0.47972
 H844 H 0.57256 0.11525 0.51148
 C845 C -0.02793 0.10920 0.48656
 C846 C -0.02497 0.11279 0.51526
 C847 C -0.02935 0.09044 0.53327
 C848 C -0.03674 0.06421 0.52277
 C849 C -0.03966 0.06078 0.49391
 C850 C -0.03528 0.08315 0.47593
 C851 C -0.02346 0.13222 0.46805
 C852 C -0.01972 0.15153 0.45254
 H853 H -0.01933 0.13287 0.52372
 H854 H -0.02719 0.09362 0.55543
 H855 H -0.04513 0.04072 0.48535
 H856 H -0.03759 0.08013 0.45375
 C857 C 0.47197 0.60940 0.98656
 C858 C 0.44507 0.60284 0.99544
 C859 C 0.44071 0.58047 1.01341
 C860 C 0.46323 0.56437 1.02273
 C861 C 0.49018 0.57110 1.01371
 C862 C 0.49451 0.59349 0.99573
 C863 C 0.47643 0.63244 0.96806
 C864 C 0.48017 0.65174 0.95255
 H865 H 0.42748 0.61505 0.98850
 H866 H 0.41981 0.57580 1.02026
 H867 H 0.50781 0.55887 1.02044
 H868 H 0.51541 0.59836 0.98896
 C869 C 0.52803 0.89051 0.98644
 C870 C 0.55494 0.89706 0.99531
 C871 C 0.55930 0.91943 1.01330
 C872 C 0.53678 0.93552 1.02263
 C873 C 0.50983 0.92880 1.01360
 C874 C 0.50550 0.90642 0.99562
 C875 C 0.52356 0.86747 0.96793
 C876 C 0.51982 0.84815 0.95244
 H877 H 0.57252 0.88485 0.98836
 H878 H 0.58021 0.92409 1.02014
 H879 H 0.49221 0.94104 1.02035
 H880 H 0.48460 0.90156 0.98884
 C881 C 0.02808 0.39041 0.48654
 C882 C 0.00554 0.40632 0.49573
 C883 C 0.00988 0.42873 0.51368
 C884 C 0.03683 0.43549 0.52265
 C885 C 0.05935 0.41940 0.51331
 C886 C 0.05498 0.39700 0.49536
 C887 C 0.02359 0.36734 0.46807
 C888 C 0.01985 0.34802 0.45260
 H889 H -0.01537 0.40142 0.48900
 H890 H -0.00775 0.44095 0.52044
 H891 H 0.08027 0.42409 0.52012
 H892 H 0.07257 0.38480 0.48840
 C893 C 0.39052 0.51361 0.47198
 C894 C 0.38697 0.48491 0.47505
 C895 C 0.40935 0.46692 0.47072
 C896 C 0.43555 0.47744 0.46327
 C897 C 0.43893 0.50629 0.46025
 C898 C 0.41653 0.52426 0.46458
 C899 C 0.36746 0.53211 0.47642
 C900 C 0.34815 0.54760 0.48015
 H901 H 0.36691 0.47644 0.48073
 H902 H 0.40621 0.44477 0.47295
 H903 H 0.45897 0.51487 0.45474
 H904 H 0.41951 0.54644 0.46219
 C905 C 0.89058 0.01357 -0.02796
 C906 C 0.88704 -0.01512 -0.02493
 C907 C 0.90942 -0.03310 -0.02926
 C908 C 0.93563 -0.02257 -0.03668
 C909 C 0.93900 0.00629 -0.03967
 C910 C 0.91660 0.02424 -0.03534
 C911 C 0.86752 0.03206 -0.02352
 C912 C 0.84820 0.04755 -0.01980
 H913 H 0.86698 -0.02360 -0.01927
 H914 H 0.90629 -0.05526 -0.02705
 H915 H 0.95905 0.01488 -0.04517
 H916 H 0.91958 0.04642 -0.03770
 C917 C 0.60940 0.01342 0.02799
 C918 C 0.59349 0.00424 0.00545
 C919 C 0.57111 -0.01374 0.00979
 C920 C 0.56439 -0.02276 0.03674
 C921 C 0.58048 -0.01344 0.05926
 C922 C 0.60285 0.00455 0.05489
 C923 C 0.63244 0.03192 0.02351
 C924 C 0.65174 0.04742 0.01978
 H925 H 0.59835 0.01101 -0.01545
 H926 H 0.55888 -0.02049 -0.00784
 H927 H 0.57582 -0.02028 0.08016
 H928 H 0.61506 0.01149 0.07248
 C929 C 0.10941 0.51344 0.52794
 C930 C 0.09353 0.50421 0.50541
 C931 C 0.07116 0.48621 0.50976
 C932 C 0.06443 0.47723 0.53672
 C933 C 0.08050 0.48661 0.55923
 C934 C 0.10286 0.50461 0.55485
 C935 C 0.13243 0.53197 0.52345
 C936 C 0.15173 0.54748 0.51971
 H937 H 0.09840 0.51095 0.48450
 H938 H 0.05895 0.47943 0.49214
 H939 H 0.07584 0.47980 0.58015
 H940 H 0.11504 0.51160 0.57243
 C941 C 0.10953 0.48663 -0.02815
 C942 C 0.09363 0.49582 -0.00562
 C943 C 0.07125 0.51380 -0.00995
 C944 C 0.06452 0.52281 -0.03691
 C945 C 0.08061 0.51347 -0.05942
 C946 C 0.10298 0.49549 -0.05506
 C947 C 0.13257 0.46812 -0.02368
 C948 C 0.15186 0.45261 -0.01992
 H949 H 0.09850 0.48905 0.01529
 H950 H 0.05902 0.52055 0.00767
 H951 H 0.07594 0.52030 -0.08033
 H952 H 0.11518 0.48853 -0.07264
 C953 C 0.60949 0.98665 0.47190
 C954 C 0.60292 0.99550 0.44499
 C955 C 0.58055 1.01349 0.44063
 C956 C 0.56447 1.02283 0.46315
 C957 C 0.57121 1.01384 0.49010
 C958 C 0.59359 0.99586 0.49444
 C959 C 0.63252 0.96814 0.47637
 C960 C 0.65181 0.95262 0.48010
 H961 H 0.61511 0.98854 0.42740
 H962 H 0.57588 1.02031 0.41972
 H963 H 0.55899 1.02060 0.50773
 H964 H 0.59847 0.98910 0.51534
 C965 C 0.89054 0.98638 0.52809
 C966 C 0.91652 0.97573 0.53564
 C967 C 0.93892 0.99369 0.54000
 C968 C 0.93558 1.02254 0.53686
 C969 C 0.90940 1.03305 0.52927
 C970 C 0.88703 1.01506 0.52490
 C971 C 0.86750 0.96788 0.52360
 C972 C 0.84819 0.95239 0.51984
 H973 H 0.91948 0.95356 0.53812
 H974 H 0.95893 0.98511 0.54563
 H975 H 0.90629 1.05520 0.52693
 H976 H 0.86700 1.02352 0.51910
 C977 C 0.39061 0.48648 0.02804
 C978 C 0.40651 0.49568 0.00551
 C979 C 0.42890 0.51365 0.00985
 C980 C 0.43563 0.52265 0.03681
 C981 C 0.41955 0.51331 0.05933
 C982 C 0.39717 0.49533 0.05495
 C983 C 0.36756 0.46799 0.02356
 C984 C 0.34825 0.45251 0.01981
 H985 H 0.40163 0.48893 -0.01540
 H986 H 0.44112 0.52041 -0.00777
 H987 H 0.42422 0.52013 0.08024
 H988 H 0.38498 0.48837 0.07254
 C989 C 0.51345 0.47208 0.39063
 C990 C 0.52410 0.46469 0.41665
 C991 C 0.50612 0.46037 0.43904
 C992 C 0.47727 0.46337 0.43565
 C993 C 0.46676 0.47080 0.40943
 C994 C 0.48476 0.47513 0.38706
 C995 C 0.53196 0.47651 0.36758
 C996 C 0.54746 0.48022 0.34827
 H997 H 0.54627 0.46232 0.41965
 H998 H 0.51470 0.45486 0.45909
 H999 H 0.44461 0.47303 0.40628
 H1000 H 0.47630 0.48080 0.36700
 C1001 C 0.01356 -0.02784 0.89070
 C1002 C 0.02419 -0.03526 0.91673
 C1003 C 0.00622 -0.03961 0.93910
 C1004 C -0.02263 -0.03661 0.93570
 C1005 C -0.03314 -0.02915 0.90949
 C1006 C -0.01513 -0.02479 0.88713
 C1007 C 0.03207 -0.02338 0.86767
 C1008 C 0.04758 -0.01965 0.84837
 H1009 H 0.04637 -0.03763 0.91972
 H1010 H 0.01478 -0.04514 0.95915
 H1011 H -0.05529 -0.02692 0.90634
 H1012 H -0.02359 -0.01909 0.86707
 C1013 C 0.01340 0.02793 0.60958
 C1014 C 0.02408 0.03525 0.58354
 C1015 C 0.00613 0.03957 0.56113
 C1016 C -0.02273 0.03663 0.56452
 C1017 C -0.03327 0.02928 0.59074
 C1018 C -0.01530 0.02495 0.61313
 C1019 C 0.03190 0.02348 0.63263
 C1020 C 0.04740 0.01977 0.65194
 H1021 H 0.04626 0.03756 0.58055
 H1022 H 0.01472 0.04501 0.54108
 H1023 H -0.05543 0.02711 0.59388
 H1024 H -0.02378 0.01934 0.63320
 C1025 C 0.51351 0.52797 0.10945
 C1026 C 0.50434 0.50544 0.09352
 C1027 C 0.48637 0.50979 0.07114
 C1028 C 0.47735 0.53674 0.06442
 C1029 C 0.48667 0.55925 0.08053
 C1030 C 0.50464 0.55488 0.10291
 C1031 C 0.53200 0.52348 0.13250
 C1032 C 0.54749 0.51974 0.15181
 H1033 H 0.51111 0.48454 0.09838
 H1034 H 0.47962 0.49217 0.05889
 H1035 H 0.47983 0.58016 0.07588
 H1036 H 0.51158 0.57246 0.11512
 C1037 C 0.48651 -0.02815 0.10938
 C1038 C 0.49570 -0.00560 0.09349
 C1039 C 0.51368 -0.00993 0.07110
 C1040 C 0.52268 -0.03688 0.06435
 C1041 C 0.51335 -0.05940 0.08043
 C1042 C 0.49537 -0.05505 0.10280
 C1043 C 0.46802 -0.02368 0.13243
 C1044 C 0.45253 -0.01993 0.15175
 H1045 H 0.48894 0.01530 0.09838
 H1046 H 0.52043 0.00770 0.05889
 H1047 H 0.52017 -0.08031 0.07574
 H1048 H 0.48841 -0.07264 0.11499
 C1049 C 0.98658 0.47188 0.60938
 C1050 C 0.99550 0.44498 0.60287
 C1051 C 1.01347 0.44061 0.58049
 C1052 C 1.02274 0.46312 0.56435
 C1053 C 1.01368 0.49007 0.57104
 C1054 C 0.99571 0.49441 0.59343
 C1055 C 0.96809 0.47636 0.63243
 C1056 C 0.95260 0.48011 0.65174
 H1057 H 0.98859 0.42741 0.61511
 H1058 H 1.02035 0.41971 0.57585
 H1059 H 1.02038 0.50769 0.55878
 H1060 H 0.98890 0.51531 0.59827
 C1061 C 0.98661 0.52810 0.89048
 C1062 C 0.99581 0.50557 0.90639
 C1063 C 1.01379 0.50992 0.92877
 C1064 C 1.02279 0.53689 0.93548
 C1065 C 1.01345 0.55939 0.91939
 C1066 C 0.99546 0.55501 0.89702
 C1067 C 0.96810 0.52361 0.86745
 C1068 C 0.95260 0.51985 0.84814
 H1069 H 0.98905 0.48466 0.90153
 H1070 H 1.02055 0.49231 0.94100
 H1071 H 1.02027 0.58031 0.92405
 H1072 H 0.98850 0.57259 0.88482
 C1073 C 0.48657 0.02811 0.39052
 C1074 C 0.49543 0.05502 0.39706
 C1075 C 0.51341 0.05941 0.41943
 C1076 C 0.52275 0.03691 0.43554
 C1077 C 0.51374 0.00994 0.42883
 C1078 C 0.49576 0.00559 0.40645
 C1079 C 0.46808 0.02361 0.36748
 C1080 C 0.45258 0.01986 0.34817
 H1081 H 0.48847 0.07260 0.38485
 H1082 H 0.52024 0.08032 0.42409
 H1083 H 0.52050 -0.00767 0.44107
 H1084 H 0.48901 -0.01532 0.40159
   
