data_POSCAR
  _audit_creation_date              2014-09-24
  _audit_creation_method            'ToBaCCo'
  _symmetry_space_group_name_H-M    'P1'
  _symmetry_Int_Tables_number       1
  _symmetry_cell_setting            triclinic
  loop_
  _symmetry_equiv_pos_as_xyz
 x,y,z
_cell_length_a 22.3581
_cell_length_b 22.3374
_cell_length_c 41.5171
_cell_angle_alpha 90.098800
_cell_angle_beta 89.966900
_cell_angle_gamma 119.535200
loop_
  _atom_site_label
  _atom_site_type_symbol
  _atom_site_fract_x
  _atom_site_fract_y
  _atom_site_fract_z
Zn1 Zn 0.95763 0.04290 1.01435
 Zn2 Zn 1.09156 0.04352 1.01254
 Zn3 Zn 0.95961 -0.09059 1.01461
 Zn4 Zn 0.99815 -0.00346 0.95555
 O5 O 1.00174 -0.00201 0.99934
 O6 O 1.01225 0.11655 1.03794
 O7 O 1.11324 -0.00882 1.03703
 O8 O 0.88738 -0.10917 1.04003
 O9 O 1.11207 0.11857 1.03642
 O10 O 0.88628 -0.01066 1.03956
 O11 O 1.01614 -0.10812 1.03855
 O12 O 0.95273 -0.08843 0.93962
 O13 O 1.15108 0.07179 0.97951
 O14 O 0.92642 -0.15430 0.98300
 O15 O 1.08140 0.03754 0.93733
 O16 O 0.95481 0.03863 0.93958
 O17 O 0.92469 0.07429 0.98311
 C18 C 1.07518 0.14405 1.04571
 C19 C 1.07872 -0.07064 1.04659
 C20 C 0.86124 -0.07257 1.04887
 C21 C 0.92497 -0.14728 0.95271
 C22 C 1.14149 0.06698 0.94925
 C23 C 0.92626 0.06929 0.95273
 Zn24 Zn 0.04551 0.95416 0.51400
 Zn25 Zn -0.08669 0.95798 0.51487
 Zn26 Zn 0.04891 1.08984 0.51287
 Zn27 Zn 0.00026 0.99724 0.45591
 O28 O 0.00189 0.99985 0.49955
 O29 O -0.00817 0.88303 0.53906
 O30 O -0.10307 1.01530 0.53875
 O31 O 0.12320 1.10851 0.53653
 O32 O -0.10581 0.88554 0.54045
 O33 O 0.11979 1.00789 0.53764
 O34 O -0.00302 1.11191 0.53777
 O35 O 0.03818 1.08026 0.43819
 O36 O -0.15073 0.92521 0.48330
 O37 O 0.07886 1.15054 0.48002
 O38 O -0.08437 0.95130 0.44015
 O39 O 0.04471 0.95675 0.43921
 O40 O 0.07492 0.92013 0.48233
 C41 C -0.06958 0.85868 0.54883
 C42 C -0.06510 1.07767 0.54712
 C43 C 0.14790 1.07089 0.54563
 C44 C 0.07011 1.14050 0.44986
 C45 C -0.14340 0.92391 0.45301
 C46 C 0.07301 0.92552 0.45199
 O47 O 0.23164 0.54316 0.27347
 O48 O 0.23611 0.65979 0.28699
 C49 C 0.26724 0.72373 0.29308
 O50 O 0.32048 0.76676 0.27781
 O51 O 0.43224 0.75964 0.28949
 C52 C 0.46473 0.72708 0.29383
 O53 O 0.45477 0.67584 0.27662
 O54 O 0.33705 0.56333 0.28568
 C55 C 0.27244 0.53090 0.28980
 O56 O 0.23863 0.57260 0.21046
 O57 O 0.23675 0.68614 0.22346
 C58 C 0.28063 0.73867 0.20801
 O59 O 0.34445 0.76853 0.21428
 O60 O 0.45884 0.76748 0.22570
 C61 C 0.46820 0.72565 0.20847
 O62 O 0.43470 0.66100 0.21265
 O63 O 0.31983 0.54523 0.22124
 C64 C 0.26901 0.53850 0.20466
 Cr65 Cr 0.23944 0.61722 0.24867
 Cr66 Cr 0.38717 0.76195 0.25180
 Cr67 Cr 0.38478 0.61321 0.24910
 O68 O 0.33715 0.66414 0.24982
 O69 O 0.76365 0.45245 0.78032
 O70 O 0.76406 0.33788 0.79009
 C71 C 0.73485 0.27346 0.79413
 O72 O 0.68525 0.23138 0.77669
 O73 O 0.56979 0.23227 0.78583
 C74 C 0.53425 0.26170 0.79013
 O75 O 0.54251 0.31327 0.77364
 O76 O 0.65496 0.42938 0.78622
 C77 C 0.71786 0.46118 0.79426
 O78 O 0.76976 0.43570 0.71617
 O79 O 0.77475 0.32270 0.72579
 C80 C 0.73473 0.27081 0.70865
 O81 O 0.67016 0.23739 0.71298
 O82 O 0.55080 0.22987 0.72167
 C83 C 0.54083 0.27153 0.70479
 O84 O 0.57160 0.33565 0.71025
 O85 O 0.68074 0.45337 0.72289
 C86 C 0.73645 0.46616 0.70895
 Cr87 Cr 0.76435 0.38527 0.75297
 Cr88 Cr 0.62069 0.23649 0.74935
 Cr89 Cr 0.61446 0.38110 0.74835
 O90 O 0.66667 0.33454 0.75021
 C91 C 0.15834 0.32169 0.10812
 C92 C 0.19661 0.28802 0.10150
 C93 C 0.17020 0.23128 0.08047
 C94 C 0.10521 0.20638 0.06630
 C95 C 0.06770 0.24020 0.07274
 C96 C 0.09381 0.29709 0.09323
 C97 C 0.18734 0.38069 0.13148
 C98 C 0.15358 0.41790 0.13951
 C99 C 0.18100 0.47009 0.16264
 C100 C 0.24278 0.48674 0.17839
 C101 C 0.27798 0.45155 0.16974
 C102 C 0.25089 0.39899 0.14650
 C103 C 0.26026 0.31015 0.11646
 C104 C 0.28661 0.36415 0.13860
 H105 H 0.28968 0.28454 0.11138
 H106 H 0.33554 0.37850 0.14992
 H107 H 0.19958 0.20543 0.07581
 H108 H 0.01752 0.22236 0.06207
 H109 H 0.15287 0.49657 0.16863
 H110 H 0.32618 0.46432 0.18144
 H111 H 0.06209 0.32025 0.09740
 H112 H 0.10565 0.40719 0.12851
 C113 C 0.68802 0.84446 0.11384
 C114 C 0.71340 0.80191 0.10182
 C115 C 0.76952 0.82890 0.08046
 C116 C 0.80089 0.89803 0.07068
 C117 C 0.77470 0.93957 0.08223
 C118 C 0.71919 0.91337 0.10345
 C119 C 0.62955 0.81441 0.13737
 C120 C 0.60243 0.85328 0.15153
 C121 C 0.54965 0.82382 0.17413
 C122 C 0.52189 0.75469 0.18320
 C123 C 0.54749 0.71496 0.16876
 C124 C 0.60137 0.74443 0.14620
 C125 C 0.68291 0.73287 0.11132
 C126 C 0.62796 0.70470 0.13292
 H127 H 0.70204 0.70011 0.10203
 H128 H 0.60647 0.65111 0.13961
 H129 H 0.78893 0.79605 0.07159
 H130 H 0.79754 0.99299 0.07506
 H131 H 0.53070 0.85569 0.18467
 H132 H 0.52671 0.66155 0.17565
 H133 H 0.70186 0.94818 0.11145
 H134 H 0.62163 0.90674 0.14587
 C135 C 0.17452 0.85051 0.11132
 C136 C 0.10378 0.81064 0.10366
 C137 C 0.07328 0.83589 0.08200
 C138 C 0.11191 0.90114 0.06798
 C139 C 0.18214 0.94029 0.07540
 C140 C 0.21314 0.91542 0.09667
 C141 C 0.20462 0.82233 0.13525
 C142 C 0.27439 0.85766 0.14454
 C143 C 0.29925 0.83010 0.16774
 C144 C 0.25531 0.76670 0.18234
 C145 C 0.18610 0.73051 0.17270
 C146 C 0.16062 0.75763 0.14941
 C147 C 0.06352 0.74629 0.11806
 C148 C 0.09125 0.72048 0.14050
 H149 H 0.00941 0.71569 0.11217
 H150 H 0.05767 0.67075 0.15123
 H151 H 0.01893 0.80513 0.07658
 H152 H 0.21335 0.99077 0.06492
 H153 H 0.35291 0.85908 0.17457
 H154 H 0.15158 0.68113 0.18350
 H155 H 0.26711 0.94821 0.10156
 H156 H 0.31057 0.90679 0.13440
 C157 C 0.84964 0.68541 0.61373
 C158 C 0.81080 0.71818 0.60655
 C159 C 0.83668 0.77391 0.58498
 C160 C 0.90142 0.79827 0.57060
 C161 C 0.93947 0.76531 0.57766
 C162 C 0.91408 0.70972 0.59881
 C163 C 0.82090 0.62705 0.63736
 C164 C 0.85550 0.59112 0.64611
 C165 C 0.82758 0.53854 0.66894
 C166 C 0.76439 0.52012 0.68371
 C167 C 0.72886 0.55473 0.67468
 C168 C 0.75652 0.60778 0.65175
 C169 C 0.74683 0.69576 0.62123
 C170 C 0.72038 0.64191 0.64339
 H171 H 0.71697 0.72069 0.61574
 H172 H 0.67094 0.62700 0.65429
 H173 H 0.80677 0.79896 0.57981
 H174 H 0.98949 0.78272 0.56688
 H175 H 0.85612 0.51269 0.67525
 H176 H 0.67978 0.54090 0.68573
 H177 H 0.94613 0.68708 0.60330
 H178 H 0.90436 0.60293 0.63581
 C179 C 0.32432 0.15415 0.60859
 C180 C 0.29904 0.19687 0.59677
 C181 C 0.24233 0.16987 0.57580
 C182 C 0.20991 0.10045 0.56636
 C183 C 0.23612 0.05875 0.57757
 C184 C 0.29247 0.08505 0.59832
 C185 C 0.38294 0.18408 0.63206
 C186 C 0.41007 0.14515 0.64607
 C187 C 0.46218 0.17425 0.66905
 C188 C 0.48919 0.24307 0.67861
 C189 C 0.46407 0.28301 0.66408
 C190 C 0.41093 0.25394 0.64117
 C191 C 0.32985 0.26596 0.60629
 C192 C 0.38468 0.29392 0.62794
 H193 H 0.31081 0.29883 0.59711
 H194 H 0.40618 0.34746 0.63480
 H195 H 0.22286 0.20282 0.56721
 H196 H 0.21250 0.00511 0.57059
 H197 H 0.48087 0.14228 0.67965
 H198 H 0.48436 0.33623 0.67129
 H199 H 0.30967 0.05010 0.60621
 H200 H 0.39120 0.09185 0.64008
 C201 C 0.85446 0.17108 0.61259
 C202 C 0.81069 0.10528 0.59924
 C203 C 0.83697 0.07565 0.57756
 C204 C 0.90664 0.11064 0.56870
 C205 C 0.94950 0.17656 0.58135
 C206 C 0.92395 0.20645 0.60297
 C207 C 0.82487 0.19963 0.63665
 C208 C 0.86456 0.26328 0.65236
 C209 C 0.83505 0.28651 0.67535
 C210 C 0.76512 0.24724 0.68324
 C211 C 0.72490 0.18428 0.66733
 C212 C 0.75421 0.16008 0.64442
 C213 C 0.74108 0.06909 0.60777
 C214 C 0.71340 0.09603 0.62975
 H215 H 0.70746 0.01889 0.59742
 H216 H 0.65929 0.06576 0.63566
 H217 H 0.80308 0.02488 0.56782
 H218 H 1.00340 0.20494 0.57489
 H219 H 0.86738 0.33536 0.68712
 H220 H 0.67085 0.15318 0.67324
 H221 H 0.95962 0.25700 0.61198
 H222 H 0.91863 0.29561 0.64757
 C223 C 0.31465 0.15096 0.88471
 C224 C 0.25280 0.14967 0.87601
 C225 C 0.19633 0.12119 0.89702
 C226 C 0.20124 0.09651 0.92736
 C227 C 0.26345 0.10066 0.93661
 C228 C 0.31939 0.12701 0.91549
 C229 C 0.37268 0.17905 0.86093
 C230 C 0.43344 0.17568 0.86557
 C231 C 0.48573 0.20215 0.84249
 C232 C 0.47924 0.23369 0.81458
 C233 C 0.41890 0.23695 0.80963
 C234 C 0.36516 0.20855 0.83212
 C235 C 0.24800 0.17787 0.84668
 C236 C 0.30347 0.20797 0.82552
 H237 H 0.20091 0.17758 0.84018
 H238 H 0.29748 0.22994 0.80332
 H239 H 0.14882 0.11958 0.89002
 H240 H 0.26849 0.08240 0.96006
 H241 H 0.53174 0.19863 0.84662
 H242 H 0.41293 0.25983 0.78770
 H243 H 0.36597 0.12886 0.92382
 H244 H 0.44108 0.15186 0.88657
 C245 C 0.82228 0.67952 0.88913
 C246 C 0.87123 0.68215 0.91158
 C247 C 0.90231 0.73716 0.93356
 C248 C 0.88852 0.79184 0.93195
 C249 C 0.84196 0.79034 0.90901
 C250 C 0.80851 0.73459 0.88810
 C251 C 0.79029 0.62025 0.86609
 C252 C 0.73588 0.60903 0.84530
 C253 C 0.71072 0.55556 0.82282
 C254 C 0.73978 0.51273 0.82026
 C255 C 0.79177 0.52137 0.84181
 C256 C 0.81601 0.57373 0.86518
 C257 C 0.89112 0.63168 0.91089
 C258 C 0.86547 0.57970 0.88763
 H259 H 0.92899 0.63385 0.92784
 H260 H 0.88431 0.54333 0.88736
 H261 H 0.93971 0.73925 0.95080
 H262 H 0.83138 0.83265 0.90730
 H263 H 0.66999 0.54914 0.80662
 H264 H 0.81311 0.48710 0.84043
 H265 H 0.77376 0.73663 0.87069
 H266 H 0.71214 0.64094 0.84601
 C267 C 0.83949 0.15946 0.88991
 C268 C 0.83803 0.09731 0.88146
 C269 C 0.86648 0.06854 0.90217
 C270 C 0.89430 0.09917 0.93195
 C271 C 0.89247 0.15862 0.94119
 C272 C 0.86587 0.18886 0.92034
 C273 C 0.81231 0.19061 0.86610
 C274 C 0.81842 0.25610 0.87030
 C275 C 0.79347 0.28329 0.84692
 C276 C 0.76080 0.24531 0.81920
 C277 C 0.75451 0.18021 0.81484
 C278 C 0.78123 0.15341 0.83757
 C279 C 0.80774 0.06383 0.85254
 C280 C 0.77872 0.09059 0.83136
 H281 H 0.80589 0.01581 0.84629
 H282 H 0.75535 0.06242 0.80940
 H283 H 0.86634 0.02163 0.89523
 H284 H 0.91323 0.18271 0.96424
 H285 H 0.79928 0.33391 0.85064
 H286 H 0.73069 0.15121 0.79309
 H287 H 0.86620 0.23491 0.92848
 H288 H 0.84335 0.28754 0.89112
 C289 C 0.68607 0.82849 0.38747
 C290 C 0.68256 0.86589 0.41429
 C291 C 0.73688 0.89439 0.43675
 C292 C 0.79618 0.88909 0.43175
 C293 C 0.79994 0.85336 0.40479
 C294 C 0.74561 0.82295 0.38308
 C295 C 0.62764 0.79904 0.36400
 C296 C 0.62408 0.75633 0.33826
 C297 C 0.57048 0.73254 0.31612
 C298 C 0.51891 0.75071 0.31881
 C299 C 0.52059 0.79149 0.34499
 C300 C 0.57396 0.81472 0.36789
 C301 C 0.62624 0.87677 0.41773
 C302 C 0.57383 0.85294 0.39469
 H303 H 0.62356 0.90579 0.43809
 H304 H 0.53234 0.86426 0.39803
 H305 H 0.73446 0.92333 0.45723
 H306 H 0.84548 0.84907 0.40043
 H307 H 0.57028 0.70069 0.29637
 H308 H 0.48018 0.80461 0.34767
 H309 H 0.75226 0.79706 0.36262
 H310 H 0.66193 0.74036 0.33478
 C311 C 0.14976 0.30703 0.38181
 C312 C 0.18650 0.31308 0.41053
 C313 C 0.15908 0.25987 0.43350
 C314 C 0.09701 0.19923 0.42743
 C315 C 0.06177 0.19285 0.39863
 C316 C 0.08733 0.24602 0.37621
 C317 C 0.18003 0.36485 0.35805
 C318 C 0.14442 0.36608 0.33034
 C319 C 0.17489 0.42027 0.30857
 C320 C 0.24187 0.47454 0.31357
 C321 C 0.27773 0.47456 0.34132
 C322 C 0.24669 0.42079 0.36391
 C323 C 0.25119 0.37108 0.41555
 C324 C 0.28119 0.42312 0.39247
 H325 H 0.27974 0.37563 0.43736
 H326 H 0.33188 0.46624 0.39724
 H327 H 0.18728 0.26440 0.45545
 H328 H 0.01400 0.14629 0.39338
 H329 H 0.14598 0.41926 0.28744
 H330 H 0.32902 0.51709 0.34568
 H331 H 0.05809 0.23749 0.35439
 H332 H 0.09270 0.32619 0.32512
 C333 C 0.15846 0.83483 0.38848
 C334 C 0.16106 0.89767 0.38048
 C335 C 0.13270 0.92643 0.40133
 C336 C 0.10412 0.89521 0.43087
 C337 C 0.10474 0.83497 0.43966
 C338 C 0.13106 0.80466 0.41862
 C339 C 0.18598 0.80400 0.36459
 C340 C 0.17876 0.73794 0.36824
 C341 C 0.20465 0.71138 0.34493
 C342 C 0.23941 0.75061 0.31789
 C343 C 0.24648 0.81609 0.31399
 C344 C 0.21878 0.84226 0.33660
 C345 C 0.19265 0.93199 0.35195
 C346 C 0.22220 0.90559 0.33081
 H347 H 0.19535 0.98052 0.34605
 H348 H 0.24680 0.93453 0.30921
 H349 H 0.13376 0.97393 0.39476
 H350 H 0.08337 0.81040 0.46252
 H351 H 0.19818 0.66042 0.34822
 H352 H 0.27185 0.84597 0.29269
 H353 H 0.12990 0.75805 0.42641
 H354 H 0.15235 0.70567 0.38859
   
