data_POSCAR
  _audit_creation_date              2014-09-24
  _audit_creation_method            'ToBaCCo'
  _symmetry_space_group_name_H-M    'P1'
  _symmetry_Int_Tables_number       1
  _symmetry_cell_setting            triclinic
  loop_
  _symmetry_equiv_pos_as_xyz
 x,y,z
_cell_length_a 22.2351
_cell_length_b 22.1257
_cell_length_c 22.2953
_cell_angle_alpha 89.735300
_cell_angle_beta 90.546900
_cell_angle_gamma 89.774800
loop_
  _atom_site_label
  _atom_site_type_symbol
  _atom_site_fract_x
  _atom_site_fract_y
  _atom_site_fract_z
N1 N 0.36451 0.36618 1.35458
 N2 N 1.13445 0.63452 0.85798
 N3 N 0.66064 -0.16073 0.15293
 N4 N -0.12663 1.12487 -0.38078
 N5 N 0.64549 0.64087 0.63775
 N6 N 0.85726 0.35655 0.13867
 N7 N 0.36840 0.12930 0.85942
 N8 N 0.14062 0.85691 0.35458
 Zn9 Zn -0.03572 1.00977 0.06412
 Zn10 Zn -0.04936 0.95290 -0.05654
 Zn11 Zn 0.01368 1.07290 -0.04385
 Zn12 Zn 0.07112 0.96217 0.00376
 O13 O -0.00052 0.99947 -0.00851
 O14 O -0.10711 0.97427 0.06881
 O15 O -0.06961 0.99108 -0.12553
 O16 O -0.00985 1.13552 0.00230
 O17 O -0.11791 0.93058 -0.01987
 O18 O -0.04800 1.08735 0.08018
 O19 O -0.02435 1.07976 -0.11452
 O20 O 0.13303 1.00165 -0.02604
 O21 O -0.01373 0.88288 -0.07775
 O22 O 0.09152 1.08435 -0.06313
 O23 O 0.07391 0.89055 -0.03078
 O24 O 0.08842 0.94766 0.08003
 O25 O 0.00675 0.97782 0.12599
 C26 C -0.13653 0.94142 0.03273
 C27 C -0.05582 1.04321 -0.14517
 C28 C -0.03538 1.13621 0.05320
 C29 C 0.13719 1.05046 -0.05529
 C30 C 0.03743 0.86126 -0.06335
 C31 C 0.05787 0.95203 0.12725
 Zn32 Zn 0.43024 0.03876 0.50615
 Zn33 Zn 0.54939 0.04897 0.44413
 Zn34 Zn 0.54008 -0.01365 0.56263
 Zn35 Zn 0.48814 -0.07126 0.45477
 O36 O 0.50198 0.00095 0.49161
 O37 O 0.42464 0.10989 0.46858
 O38 O 0.61971 0.06850 0.48019
 O39 O 0.50139 0.01646 0.62521
 O40 O 0.51264 0.11897 0.42323
 O41 O 0.42007 0.05676 0.58405
 O42 O 0.61313 0.01807 0.56592
 O43 O 0.51345 -0.13572 0.49761
 O44 O 0.57100 0.01162 0.37590
 O45 O 0.55110 -0.09154 0.57800
 O46 O 0.52527 -0.07689 0.38451
 O47 O 0.41042 -0.08395 0.44061
 O48 O 0.36609 -0.00472 0.48170
 C49 C 0.46087 0.13938 0.43620
 C50 C 0.64208 0.05130 0.53008
 C51 C 0.45320 0.04665 0.62977
 C52 C 0.53876 -0.13884 0.54876
 C53 C 0.55940 -0.04100 0.35644
 C54 C 0.36325 -0.05505 0.45451
 Zn55 Zn 1.02007 0.43014 0.45535
 Zn56 Zn 1.07092 0.53951 0.51247
 Zn57 Zn 0.95271 0.54752 0.44816
 Zn58 Zn 0.96321 0.47973 0.56452
 O59 O 1.00158 0.49939 0.49506
 O60 O 1.09868 0.42186 0.44101
 O61 O 1.07223 0.61362 0.48084
 O62 O 0.93174 0.51209 0.37883
 O63 O 1.13705 0.50234 0.48511
 O64 O 0.98349 0.42640 0.38410
 O65 O 0.98668 0.61843 0.42932
 O66 O 0.89200 0.51631 0.57028
 O67 O 1.08158 0.55034 0.59070
 O68 O 0.88398 0.56742 0.48479
 O69 O 1.00368 0.50303 0.63039
 O70 O 0.94848 0.40057 0.57175
 O71 O 0.99574 0.36327 0.49356
 C72 C 1.14351 0.45465 0.45442
 C73 C 1.03572 0.64192 0.44683
 C74 C 0.94682 0.46135 0.35711
 C75 C 0.86380 0.55236 0.53571
 C76 C 1.05141 0.53387 0.63578
 C77 C 0.96348 0.35587 0.53960
 Zn78 Zn 0.46154 0.48137 0.92147
 Zn79 Zn 0.56974 0.53782 0.97435
 Zn80 Zn 0.45215 0.54634 1.03838
 Zn81 Zn 0.51758 0.42828 1.03060
 O82 O 0.50014 0.49863 0.99146
 O83 O 0.50295 0.50235 0.85614
 O84 O 0.57524 0.60874 1.01175
 O85 O 0.38433 0.57037 1.00016
 O86 O 0.57922 0.55175 0.89598
 O87 O 0.39240 0.52108 0.91431
 O88 O 0.49010 0.61376 1.06258
 O89 O 0.48277 0.42395 1.10198
 O90 O 0.63528 0.49725 0.99907
 O91 O 0.42929 0.50857 1.10599
 O92 O 0.59615 0.41791 1.04428
 O93 O 0.49065 0.36282 0.99200
 O94 O 0.44334 0.40339 0.91417
 C95 C 0.54969 0.53428 0.85025
 C96 C 0.54131 0.63485 1.04907
 C97 C 0.36468 0.55745 0.94810
 C98 C 0.44569 0.45815 1.12828
 C99 C 0.64145 0.44933 1.02990
 C100 C 0.45739 0.35760 0.94582
 C101 C 1.21713 0.37394 0.43342
 C102 C 1.27105 0.35217 0.41081
 C103 C 1.31422 0.39155 0.38730
 C104 C 1.30425 0.45483 0.39161
 C105 C 1.24813 0.47721 0.41241
 C106 C 1.20405 0.43598 0.43360
 C107 C 1.23797 0.54012 0.40938
 N108 N 1.28257 0.57766 0.39184
 N109 N 1.33649 0.55679 0.37666
 C110 C 1.34888 0.49680 0.37619
 H111 H 1.18456 0.34163 0.44973
 H112 H 1.27770 0.30373 0.40871
 H113 H 1.19521 0.56029 0.41993
 H114 H 1.39388 0.48275 0.36507
 C115 C 0.25698 0.58198 0.96173
 C116 C 0.20095 0.59970 0.93915
 C117 C 0.19409 0.61896 0.87949
 C118 C 0.24604 0.62656 0.84374
 C119 C 0.30320 0.60942 0.86701
 C120 C 0.30802 0.58447 0.92556
 C121 C 0.35423 0.62009 0.83160
 N122 N 0.34800 0.64539 0.77643
 N123 N 0.29438 0.66146 0.75458
 C124 C 0.24340 0.65333 0.78643
 H125 H 0.26012 0.56418 1.00701
 H126 H 0.16192 0.59633 0.96767
 H127 H 0.39918 0.61030 0.84781
 H128 H 0.20200 0.66997 0.76729
 C129 C -0.24055 0.94760 0.07024
 C130 C -0.28928 0.92299 0.10060
 C131 C -0.28961 0.86189 0.11784
 C132 C -0.23990 0.82455 0.10257
 C133 C -0.19070 0.84958 0.07102
 C134 C -0.19107 0.91167 0.05526
 C135 C -0.14093 0.81218 0.05909
 N136 N -0.14081 0.75364 0.07718
 N137 N -0.18661 0.73027 0.10731
 C138 C -0.23571 0.76375 0.12113
 H139 H -0.24079 0.99544 0.05963
 H140 H -0.32670 0.95213 0.11188
 H141 H -0.10174 0.82915 0.03643
 H142 H -0.26989 0.74266 0.14778
 C143 C 0.71571 0.12982 0.55802
 C144 C 0.77142 0.14755 0.58093
 C145 C 0.81701 0.10490 0.59295
 C146 C 0.80646 0.04323 0.57947
 C147 C 0.74942 0.02509 0.55718
 C148 C 0.70365 0.06885 0.54726
 C149 C 0.74045 -0.03647 0.54428
 N150 N 0.78594 -0.07668 0.55273
 N151 N 0.83977 -0.05948 0.57278
 C152 C 0.85167 -0.00097 0.58610
 H153 H 0.68103 0.16367 0.55074
 H154 H 0.77861 0.19486 0.59073
 H155 H 0.69809 -0.05290 0.52671
 H156 H 0.89665 0.01039 0.60055
 C157 C 0.41431 0.20453 0.35846
 C158 C 0.39010 0.25951 0.33898
 C159 C 0.39301 0.31103 0.37532
 C160 C 0.42287 0.30741 0.43158
 C161 C 0.44696 0.25135 0.45168
 C162 C 0.44209 0.19962 0.41482
 C163 C 0.47536 0.24900 0.50827
 N164 N 0.48007 0.29987 0.54169
 N165 N 0.45840 0.35273 0.52229
 C166 C 0.43015 0.35829 0.46834
 H167 H 0.40990 0.16516 0.33006
 H168 H 0.36748 0.26171 0.29578
 H169 H 0.49424 0.20738 0.52598
 H170 H 0.41431 0.40246 0.45453
 C171 C 0.93272 0.28298 0.61785
 C172 C 0.91143 0.22742 0.63767
 C173 C 0.90031 0.18030 0.59736
 C174 C 0.91228 0.18955 0.53563
 C175 C 0.93058 0.24737 0.51462
 C176 C 0.94243 0.29437 0.55670
 C177 C 0.93446 0.25588 0.45199
 N178 N 0.92617 0.20865 0.41433
 N179 N 0.91361 0.15356 0.43465
 C180 C 0.90657 0.14240 0.49393
 H181 H 0.94103 0.31779 0.65090
 H182 H 0.90250 0.22153 0.68498
 H183 H 0.94260 0.29935 0.43185
 H184 H 0.89721 0.09664 0.50781
 C185 C 0.11731 0.79749 -0.10417
 C186 C 0.14192 0.74273 -0.12145
 C187 C 0.10781 0.68973 -0.12027
 C188 C 0.04740 0.69233 -0.10082
 C189 C 0.02168 0.74861 -0.08402
 C190 C 0.05743 0.80168 -0.08554
 C191 C -0.03826 0.74896 -0.06438
 N192 N -0.06972 0.69665 -0.06160
 N193 N -0.04525 0.64392 -0.07667
 C194 C 0.01226 0.63994 -0.09591
 H195 H 0.14554 0.83727 -0.10554
 H196 H 0.18798 0.74193 -0.13659
 H197 H -0.06056 0.78989 -0.05097
 H198 H 0.03016 0.59578 -0.10617
 C199 C 0.58026 0.73897 1.04386
 C200 C 0.60974 0.78833 1.06894
 C201 C 0.62545 0.78917 1.13006
 C202 C 0.60917 0.73930 1.16692
 C203 C 0.57766 0.68971 1.14156
 C204 C 0.56409 0.68941 1.07931
 C205 C 0.56366 0.64036 1.17898
 N206 N 0.58056 0.64068 1.23752
 N207 N 0.61122 0.68651 1.26099
 C208 C 0.62654 0.73539 1.22770
 H209 H 0.57093 0.73893 0.99607
 H210 H 0.62174 0.82579 1.04008
 H211 H 0.54004 0.60119 1.16236
 H212 H 0.65339 0.76964 1.24901
 C213 C 0.46212 0.42598 1.23286
 C214 C 0.44258 0.40246 1.28719
 C215 C 0.38175 0.38928 1.29639
 C216 C 0.33997 0.39827 1.24846
 C217 C 0.35972 0.42400 1.19359
 C218 C 0.42133 0.43779 1.18608
 C219 C 0.31740 0.43248 1.14694
 N220 N 0.25955 0.41525 1.15455
 N221 N 0.24140 0.38945 1.20526
 C222 C 0.27964 0.37987 1.25211
 H223 H 0.50958 0.43518 1.22726
 H224 H 0.47510 0.39490 1.32295
 H225 H 0.32977 0.45189 1.10424
 H226 H 0.26261 0.35636 1.29070
 C227 C 0.55253 -0.08026 0.25314
 C228 C 0.57700 -0.11007 0.20411
 C229 C 0.63829 -0.12543 0.20277
 C230 C 0.67593 -0.10847 0.25185
 C231 C 0.65120 -0.07641 0.30094
 C232 C 0.58880 -0.06331 0.30179
 C233 C 0.68940 -0.06137 0.34934
 N234 N 0.74807 -0.07804 0.34874
 N235 N 0.77093 -0.10942 0.30353
 C236 C 0.73688 -0.12565 0.25553
 H237 H 0.50458 -0.07138 0.25370
 H238 H 0.54754 -0.12263 0.16732
 H239 H 0.67325 -0.03705 0.38794
 H240 H 0.75775 -0.15308 0.22185
 C241 C -0.13329 1.07308 -0.22037
 C242 C -0.15039 1.09313 -0.27749
 C243 C -0.10774 1.10051 -0.32307
 C244 C -0.04679 1.08542 -0.31084
 C245 C -0.02922 1.06636 -0.25241
 C246 C -0.07293 1.06076 -0.20688
 C247 C 0.03177 1.05221 -0.24178
 N248 N 0.07188 1.05614 -0.28704
 N249 N 0.05512 1.07286 -0.34217
 C250 C -0.00278 1.08728 -0.35568
 H251 H -0.16715 1.06873 -0.18601
 H252 H -0.19718 1.10428 -0.28586
 H253 H 0.04788 1.03738 -0.19819
 H254 H -0.01385 1.09887 -0.40155
 C255 C 1.07126 0.61829 0.70312
 C256 C 1.08948 0.64299 0.75733
 C257 C 1.10930 0.60604 0.80499
 C258 C 1.10539 0.54225 0.79881
 C259 C 1.08634 0.51703 0.74333
 C260 C 1.07016 0.55572 0.69514
 C261 C 1.08482 0.45381 0.73784
 N262 N 1.09920 0.41834 0.78564
 N263 N 1.11482 0.44191 0.83836
 C264 C 1.11810 0.50251 0.84662
 H265 H 1.05809 0.64845 0.66680
 H266 H 1.09089 0.69173 0.76110
 H267 H 1.07220 0.43228 0.69615
 H268 H 1.12896 0.51876 0.89083
 C269 C 0.75531 0.54431 0.55582
 C270 C 0.70248 0.56563 0.58145
 C271 C 0.70071 0.62203 0.60976
 C272 C 0.75339 0.65793 0.61185
 C273 C 0.80675 0.63679 0.58453
 C274 C 0.80754 0.57928 0.55707
 C275 C 0.85840 0.67329 0.58732
 N276 N 0.85657 0.72691 0.61643
 N277 N 0.80686 0.74614 0.64329
 C278 C 0.75544 0.71336 0.64237
 H279 H 0.75572 0.49986 0.53561
 H280 H 0.66260 0.53771 0.57996
 H281 H 0.90021 0.65961 0.56688
 H282 H 0.71726 0.73067 0.66633
 C283 C 0.71146 0.36649 1.05595
 C284 C 0.76424 0.34337 1.08086
 C285 C 0.81007 0.38183 1.10074
 C286 C 0.80461 0.44477 1.08945
 C287 C 0.74943 0.46904 1.06712
 C288 C 0.70204 0.42902 1.05041
 C289 C 0.74373 0.53256 1.06451
 N290 N 0.79154 0.56813 1.07770
 N291 N 0.84453 0.54485 1.09389
 C292 C 0.85271 0.48444 1.09999
 H293 H 0.67656 0.33497 1.04294
 H294 H 0.76778 0.29508 1.08830
 H295 H 0.70215 0.55500 1.05304
 H296 H 0.89703 0.46802 1.11186
 C297 C 0.20904 1.12953 -0.08711
 C298 C 0.26500 1.14885 -0.10683
 C299 C 0.31118 1.10735 -0.11888
 C300 C 0.29988 1.04478 -0.11165
 C301 C 0.24151 1.02471 -0.09596
 C302 C 0.19642 1.06785 -0.08045
 C303 C 0.23052 0.96195 -0.09773
 N304 N 0.27619 0.92269 -0.10795
 N305 N 0.33204 0.94166 -0.11722
 C306 C 0.34547 1.00128 -0.11917
 H307 H 0.17545 1.16331 -0.07648
 H308 H 0.27240 1.19685 -0.11257
 H309 H 0.18615 0.94330 -0.09286
 H310 H 0.39173 1.01389 -0.12607
 C311 C 0.26136 -0.04028 0.41165
 C312 C 0.20864 -0.06194 0.38562
 C313 C 0.19661 -0.12412 0.38274
 C314 C 0.23921 -0.16545 0.40838
 C315 C 0.29181 -0.14291 0.43724
 C316 C 0.30409 -0.07997 0.43632
 C317 C 0.33042 -0.18438 0.46661
 N318 N 0.31946 -0.24445 0.46342
 N319 N 0.27255 -0.26589 0.43294
 C320 C 0.23246 -0.22869 0.40510
 H321 H 0.26970 0.00793 0.41071
 H322 H 0.17679 -0.02961 0.36712
 H323 H 0.36870 -0.16981 0.49291
 H324 H 0.19674 -0.24957 0.37995
 C325 C 0.58184 -0.24080 0.53446
 C326 C 0.61001 -0.29283 0.55621
 C327 C 0.61571 -0.30388 0.61804
 C328 C 0.59120 -0.26115 0.65880
 C329 C 0.55941 -0.20993 0.63637
 C330 C 0.55762 -0.19816 0.57375
 C331 C 0.53050 -0.17192 0.67773
 N332 N 0.53767 -0.18155 0.73741
 N333 N 0.57179 -0.22652 0.75849
 C334 C 0.59917 -0.26614 0.72136
 H335 H 0.58094 -0.23281 0.48647
 H336 H 0.62807 -0.32480 0.52441
 H337 H 0.50159 -0.13514 0.66340
 H338 H 0.62805 -0.29975 0.74147
 C339 C 1.05362 0.71323 0.36415
 C340 C 1.07842 0.76603 0.34141
 C341 C 1.10209 0.81057 0.37977
 C342 C 1.09300 0.80430 0.44246
 C343 C 1.06935 0.74955 0.46570
 C344 C 1.05194 0.70290 0.42591
 C345 C 1.06284 0.74384 0.52815
 N346 N 1.07783 0.79050 0.56450
 N347 N 1.09845 0.84244 0.54258
 C348 C 1.10617 0.85106 0.48289
 H349 H 1.03932 0.67844 0.33313
 H350 H 1.08280 0.76977 0.29332
 H351 H 1.04480 0.70333 0.54834
 H352 H 1.12085 0.89491 0.46764
 C353 C -0.06426 1.24420 0.04149
 C354 C -0.09213 1.29669 0.06164
 C355 C -0.11335 1.30104 0.12045
 C356 C -0.10387 1.25169 0.16047
 C357 C -0.07047 1.20047 0.14155
 C358 C -0.05444 1.19476 0.08009
 C359 C -0.05438 1.15692 0.18528
 N360 N -0.07632 1.16098 0.24163
 N361 N -0.11290 1.20574 0.25740
 C362 C -0.12778 1.25086 0.21868
 H363 H -0.05196 1.24173 -0.00533
 H364 H -0.09849 1.33403 0.03062
 H365 H -0.02343 1.12052 0.17611
 H366 H -0.15890 1.28478 0.23371
 C367 C 0.42524 0.28792 0.86578
 C368 C 0.40397 0.23311 0.84443
 C369 C 0.39258 0.18492 0.88357
 C370 C 0.40307 0.19260 0.94590
 C371 C 0.42172 0.24964 0.96832
 C372 C 0.43471 0.29737 0.92734
 C373 C 0.42502 0.25670 1.03111
 N374 N 0.41543 0.20878 1.06786
 N375 N 0.40219 0.15438 1.04639
 C376 C 0.39587 0.14463 0.98674
 H377 H 0.43429 0.32347 0.83356
 H378 H 0.39590 0.22836 0.79672
 H379 H 0.43376 0.29964 1.05195
 H380 H 0.38580 0.09936 0.97195
 C381 C 0.63361 0.56094 0.78397
 C382 C 0.65771 0.58542 0.73210
 C383 C 0.62052 0.60260 0.68399
 C384 C 0.55872 0.58758 0.68548
 C385 C 0.53331 0.56367 0.73889
 C386 C 0.57141 0.55205 0.78969
 C387 C 0.47061 0.55405 0.73910
 N388 N 0.43728 0.56428 0.68879
 N389 N 0.46191 0.58379 0.63819
 C390 C 0.52147 0.59559 0.63480
 H391 H 0.66396 0.55111 0.82109
 H392 H 0.70534 0.59541 0.73123
 H393 H 0.44692 0.53854 0.77791
 H394 H 0.53930 0.60980 0.59215
 C395 C 0.37311 0.07878 0.69938
 C396 C 0.35212 0.09774 0.75481
 C397 C 0.39172 0.10675 0.80320
 C398 C 0.45406 0.09655 0.79497
 C399 C 0.47617 0.08145 0.73734
 C400 C 0.43475 0.06980 0.68950
 C401 C 0.53916 0.08006 0.73001
 N402 N 0.57629 0.08691 0.77805
 N403 N 0.55506 0.09578 0.83289
 C404 C 0.49529 0.10064 0.84300
 H405 H 0.34054 0.07087 0.66386
 H406 H 0.30438 0.10567 0.75995
 H407 H 0.55989 0.07536 0.68681
 H408 H 0.48071 0.10708 0.88856
 C409 C 0.05967 0.94901 0.23858
 C410 C 0.07980 0.92666 0.29376
 C411 C 0.12461 0.88235 0.29687
 C412 C 0.14904 0.85916 0.24336
 C413 C 0.12568 0.87834 0.18688
 C414 C 0.08189 0.92591 0.18445
 C415 C 0.14549 0.84680 0.13563
 N416 N 0.18872 0.80367 0.14072
 N417 N 0.21290 0.78862 0.19349
 C418 C 0.19430 0.81466 0.24491
 H419 H 0.02591 0.98445 0.23834
 H420 H 0.06047 0.94407 0.33463
 H421 H 0.12623 0.85350 0.09169
 H422 H 0.21456 0.79972 0.28643
 C423 C 0.96007 0.42032 0.25576
 C424 C 0.93846 0.39406 0.20336
 C425 C 0.87661 0.38658 0.19330
 C426 C 0.83554 0.40646 0.23789
 C427 C 0.85771 0.43465 0.29080
 C428 C 0.92060 0.44093 0.29972
 C429 C 0.81610 0.45245 0.33468
 N430 N 0.75662 0.44219 0.32623
 N431 N 0.73597 0.41439 0.27751
 C432 C 0.77327 0.39561 0.23359
 H433 H 1.00826 0.42401 0.26238
 H434 H 0.97038 0.37887 0.17023
 H435 H 0.82995 0.47355 0.37608
 H436 H 0.75362 0.37064 0.19718
   
