data_POSCAR
  _audit_creation_date              2014-09-24
  _audit_creation_method            'ToBaCCo'
  _symmetry_space_group_name_H-M    'P1'
  _symmetry_Int_Tables_number       1
  _symmetry_cell_setting            triclinic
  loop_
  _symmetry_equiv_pos_as_xyz
 x,y,z
_cell_length_a 28.9070
_cell_length_b 29.0057
_cell_length_c 28.9502
_cell_angle_alpha 90.028600
_cell_angle_beta 90.031000
_cell_angle_gamma 89.966100
loop_
  _atom_site_label
  _atom_site_type_symbol
  _atom_site_fract_x
  _atom_site_fract_y
  _atom_site_fract_z
C1 C 0.32413 0.31156 0.24218
 H2 H 0.32959 0.30248 0.27802
 C3 C 0.35451 0.34187 0.22022
 H4 H 0.38352 0.35511 0.23967
 C5 C 0.28086 0.30255 0.17331
 H6 H 0.25245 0.28675 0.15497
 C7 C 0.31014 0.33295 0.15008
 H8 H 0.30345 0.34040 0.11404
 N9 N 0.28809 0.29275 0.21864
 C10 C 0.17503 0.25826 0.31134
 H11 H 0.16963 0.22250 0.30220
 C12 C 0.14459 0.28018 0.34168
 H13 H 0.11559 0.26076 0.35488
 C14 C 0.21824 0.32701 0.30243
 H15 H 0.24663 0.34533 0.28664
 C16 C 0.18890 0.35019 0.33289
 H17 H 0.19554 0.38616 0.34039
 Zn18 Zn 0.24957 0.25037 0.25006
 N19 N 0.21108 0.28176 0.29257
 C20 C 0.28089 0.19813 0.32685
 N21 N 0.28810 0.20792 0.28152
 C22 C 0.32417 0.18912 0.25802
 C23 C 0.35459 0.15882 0.28002
 C24 C 0.31020 0.16772 0.35011
 C25 C 0.17468 0.24252 0.18910
 C26 C 0.14404 0.22060 0.15893
 C27 C 0.18871 0.15070 0.16719
 C28 C 0.21821 0.17386 0.19751
 N29 N 0.21095 0.21905 0.20758
 H30 H 0.25249 0.21394 0.34518
 H31 H 0.32962 0.19821 0.22219
 H32 H 0.38361 0.14561 0.26059
 H33 H 0.30351 0.16027 0.38614
 H34 H 0.16922 0.27825 0.19838
 H35 H 0.11488 0.24002 0.14604
 H36 H 0.19545 0.11477 0.15955
 H37 H 0.24679 0.15557 0.21305
 C38 C 0.15145 0.32685 0.35320
 C39 C 0.34758 0.35330 0.17347
 C40 C 0.15095 0.17397 0.14724
 C41 C 0.34767 0.14737 0.32677
 C42 C 0.82284 0.81491 0.24225
 H43 H 0.82540 0.80883 0.27904
 C44 C 0.85366 0.84509 0.22075
 H45 H 0.87946 0.86106 0.24236
 C46 C 0.78655 0.79850 0.17092
 H47 H 0.76069 0.77984 0.15151
 C48 C 0.81677 0.82812 0.14786
 H49 H 0.81284 0.83179 0.11084
 N50 N 0.78982 0.79278 0.21735
 C51 C 0.67596 0.75888 0.30997
 H52 H 0.67138 0.72280 0.30164
 C53 C 0.64534 0.78063 0.34029
 H54 H 0.61708 0.76067 0.35422
 C55 C 0.71723 0.82849 0.29912
 H56 H 0.74477 0.84731 0.28251
 C57 C 0.68773 0.85151 0.32955
 H58 H 0.69358 0.88778 0.33621
 Zn59 Zn 0.75050 0.75104 0.24867
 N60 N 0.71127 0.78283 0.29039
 C61 C 0.78138 0.69943 0.32628
 N62 N 0.78858 0.70880 0.28086
 C63 C 0.82442 0.68949 0.25743
 C64 C 0.85453 0.65898 0.27955
 C65 C 0.81038 0.66881 0.34967
 C66 C 0.67768 0.74327 0.18538
 C67 C 0.64737 0.72122 0.15498
 C68 C 0.68942 0.65031 0.16729
 C69 C 0.71861 0.67364 0.19777
 N70 N 0.71248 0.71937 0.20597
 H71 H 0.75322 0.71570 0.34457
 H72 H 0.82986 0.69824 0.22152
 H73 H 0.88334 0.64533 0.26012
 H74 H 0.80368 0.66166 0.38575
 H75 H 0.67310 0.77947 0.19318
 H76 H 0.61932 0.74108 0.14040
 H77 H 0.69523 0.61393 0.16121
 H78 H 0.74599 0.65504 0.21500
 C79 C 0.65123 0.82764 0.35095
 C80 C 0.85111 0.85252 0.17253
 C81 C 0.65313 0.67398 0.14523
 C82 C 0.84753 0.64784 0.32636
 C83 C 0.82485 0.31046 0.74272
 H84 H 0.83028 0.30181 0.77867
 C85 C 0.85488 0.34098 0.72060
 H86 H 0.88362 0.35474 0.74008
 C87 C 0.78194 0.30025 0.67379
 H88 H 0.75387 0.28386 0.65547
 C89 C 0.81086 0.33089 0.65040
 H90 H 0.80419 0.33794 0.61428
 N91 N 0.78911 0.29101 0.71926
 C92 C 0.67876 0.25639 0.81516
 H93 H 0.67441 0.22013 0.80753
 C94 C 0.64842 0.27839 0.84557
 H95 H 0.62060 0.25840 0.86032
 C96 C 0.71909 0.32623 0.80230
 H97 H 0.74624 0.34494 0.78487
 C98 C 0.68987 0.34951 0.83280
 H99 H 0.69543 0.38596 0.83868
 Zn100 Zn 0.75119 0.24877 0.75153
 N101 N 0.71326 0.28043 0.79432
 C102 C 0.78823 0.20206 0.82930
 N103 N 0.79072 0.20709 0.78277
 C104 C 0.82315 0.18434 0.75769
 C105 C 0.85408 0.15413 0.77908
 C106 C 0.81865 0.17256 0.85232
 C107 C 0.67663 0.24109 0.69018
 C108 C 0.64590 0.21941 0.65992
 C109 C 0.68780 0.14827 0.67113
 C110 C 0.71742 0.17122 0.70149
 N111 N 0.71179 0.21698 0.70994
 H112 H 0.76286 0.22123 0.84884
 H113 H 0.82510 0.18989 0.72079
 H114 H 0.87904 0.13767 0.75691
 H115 H 0.81513 0.16972 0.88945
 H116 H 0.67228 0.27724 0.69831
 H117 H 0.61778 0.23952 0.64582
 H118 H 0.69342 0.11192 0.66469
 H119 H 0.74478 0.15226 0.71830
 C120 C 0.65385 0.32571 0.85508
 C121 C 0.84791 0.35201 0.67376
 C122 C 0.65149 0.17230 0.64950
 C123 C 0.85253 0.14733 0.82756
 C124 C 0.32432 0.81084 0.74189
 H125 H 0.32980 0.80168 0.77771
 C126 C 0.35471 0.84116 0.71996
 H127 H 0.38374 0.85432 0.73943
 C128 C 0.28097 0.80202 0.67304
 H129 H 0.25255 0.78627 0.65468
 C130 C 0.31025 0.83245 0.64985
 H131 H 0.30352 0.83999 0.61384
 N132 N 0.28823 0.79212 0.71835
 C133 C 0.17483 0.75767 0.81064
 H134 H 0.16933 0.72196 0.80132
 C135 C 0.14420 0.77963 0.84078
 H136 H 0.11502 0.76026 0.85362
 C137 C 0.21842 0.82624 0.80234
 H138 H 0.24702 0.84448 0.78684
 C139 C 0.18894 0.84944 0.83264
 H140 H 0.19572 0.88535 0.84031
 Zn141 Zn 0.24971 0.74971 0.74975
 N142 N 0.21111 0.78107 0.79222
 C143 C 0.28094 0.69737 0.82649
 N144 N 0.28822 0.70725 0.78119
 C145 C 0.32429 0.68844 0.75768
 C146 C 0.35464 0.65804 0.77965
 C147 C 0.31019 0.66687 0.84971
 C148 C 0.17513 0.74187 0.68842
 C149 C 0.14465 0.71993 0.65811
 C150 C 0.18898 0.64989 0.66700
 C151 C 0.21836 0.67308 0.69741
 N152 N 0.21120 0.71835 0.70722
 H153 H 0.25251 0.71317 0.84479
 H154 H 0.32978 0.69758 0.72187
 H155 H 0.38365 0.64479 0.76023
 H156 H 0.30346 0.65936 0.88572
 H157 H 0.16973 0.77765 0.69751
 H158 H 0.11563 0.73937 0.64489
 H159 H 0.19562 0.61390 0.65956
 H160 H 0.24676 0.65476 0.71324
 C161 C 0.15116 0.82624 0.85252
 C162 C 0.34773 0.85273 0.67324
 C163 C 0.15150 0.67324 0.64668
 C164 C 0.34765 0.64651 0.82636
 C165 C -0.00046 0.00017 -0.00027
 C166 C -0.00127 0.49997 0.50007
 C167 C 0.49986 0.00012 0.50020
 C168 C 0.50009 0.49973 -0.00005
 C169 C 0.09069 -0.07649 -0.08889
 C170 C 0.06011 -0.09937 -0.05926
 N171 N 0.05996 -0.14612 -0.05806
 C172 C 0.08874 -0.17115 -0.08553
 C173 C 0.11912 -0.14840 -0.11612
 N174 N 0.11922 -0.10137 -0.11651
 N175 N 0.09164 -0.02975 -0.08941
 C176 C 0.06305 -0.00477 -0.06178
 C177 C 0.03133 -0.02744 -0.03250
 N178 N 0.03133 -0.07451 -0.03185
 H179 H 0.08807 -0.20825 -0.08265
 H180 H 0.06491 0.03249 -0.06257
 C181 C 0.09011 0.42382 0.41128
 C182 C 0.06069 0.40079 0.44196
 N183 N 0.06164 0.35408 0.44401
 C184 C 0.09040 0.32922 0.41638
 C185 C 0.11958 0.35210 0.38475
 N186 N 0.11863 0.39910 0.38352
 N187 N 0.08991 0.47055 0.40987
 C188 C 0.06124 0.49536 0.43757
 C189 C 0.03061 0.47250 0.46782
 N190 N 0.03185 0.42548 0.46945
 H191 H 0.09069 0.29216 0.41989
 H192 H 0.06215 0.53264 0.43604
 C193 C 0.59062 -0.07568 0.41044
 C194 C 0.56119 -0.09886 0.44099
 N195 N 0.56184 -0.14559 0.44249
 C196 C 0.59030 -0.17034 0.41444
 C197 C 0.61949 -0.14731 0.38290
 N198 N 0.61881 -0.10029 0.38224
 N199 N 0.59076 -0.02893 0.40958
 C200 C 0.56239 -0.00425 0.43770
 C201 C 0.53170 -0.02723 0.46779
 N202 N 0.53262 -0.07428 0.46888
 H203 H 0.59030 -0.20742 0.41759
 H204 H 0.56352 0.03304 0.43656
 C205 C 0.59176 0.42304 -0.08808
 C206 C 0.56271 0.40025 -0.05689
 N207 N 0.56420 0.35361 -0.05400
 C208 C 0.59313 0.32855 -0.08128
 C209 C 0.62190 0.35115 -0.11350
 N210 N 0.62040 0.39812 -0.11555
 N211 N 0.59112 0.46975 -0.09025
 C212 C 0.56234 0.49474 -0.06283
 C213 C 0.53201 0.47209 -0.03212
 N214 N 0.53372 0.42512 -0.02972
 H215 H 0.59378 0.29159 -0.07704
 H216 H 0.56294 0.53199 -0.06491
 C217 C -0.09121 0.08896 -0.07722
 C218 C -0.05899 0.06114 -0.09995
 N219 N -0.05664 0.06213 -0.14665
 C220 C -0.08490 0.08986 -0.17194
 C221 C -0.11791 0.11846 -0.14947
 N222 N -0.11966 0.11648 -0.10228
 N223 N -0.09360 0.08813 -0.03043
 C224 C -0.06496 0.06064 -0.00531
 C225 C -0.03214 0.03251 -0.02791
 N226 N -0.03055 0.03347 -0.07502
 H227 H -0.08126 0.08824 -0.20891
 H228 H -0.06775 0.06050 0.03197
 C229 C -0.09216 0.58903 0.42368
 C230 C -0.06285 0.55822 0.40065
 N231 N -0.06361 0.55624 0.35385
 C232 C -0.09204 0.58410 0.32888
 C233 C -0.12105 0.61594 0.35175
 N234 N -0.12033 0.61706 0.39885
 N235 N -0.09216 0.59035 0.47051
 C236 C -0.06374 0.56247 0.49541
 C237 C -0.03315 0.53215 0.47255
 N238 N -0.03423 0.53058 0.42543
 H239 H -0.09217 0.58062 0.29175
 H240 H -0.06476 0.56397 0.53275
 C241 C 0.40870 0.08910 0.42398
 C242 C 0.43819 0.05850 0.40089
 N243 N 0.43739 0.05657 0.35408
 C244 C 0.40873 0.08424 0.32917
 C245 C 0.37947 0.11580 0.35209
 N246 N 0.38027 0.11691 0.39920
 N247 N 0.40875 0.09038 0.47081
 C248 C 0.43734 0.06262 0.49566
 C249 C 0.46803 0.03244 0.47274
 N250 N 0.46694 0.03096 0.42562
 H251 H 0.40857 0.08080 0.29203
 H252 H 0.43631 0.06404 0.53301
 C253 C 0.40877 0.58835 -0.07646
 C254 C 0.43813 0.55759 -0.09953
 N255 N 0.43719 0.55552 -0.14633
 C256 C 0.40852 0.58319 -0.17125
 C257 C 0.37941 0.61489 -0.14834
 N258 N 0.38034 0.61615 -0.10124
 N259 N 0.40897 0.58983 -0.02964
 C260 C 0.43759 0.56214 -0.00477
 C261 C 0.46816 0.53181 -0.02766
 N262 N 0.46692 0.53010 -0.07477
 H263 H 0.40825 0.57968 -0.20838
 H264 H 0.43671 0.56377 0.03257
 C265 C -0.09126 -0.08859 0.07646
 C266 C -0.05949 -0.06031 0.09931
 N267 N -0.05766 -0.06075 0.14606
 C268 C -0.08600 -0.08844 0.17125
 C269 C -0.11829 -0.11750 0.14862
 N270 N -0.11970 -0.11613 0.10144
 N271 N -0.09324 -0.08812 0.02964
 C272 C -0.06461 -0.06061 0.00460
 C273 C -0.03216 -0.03216 0.02730
 N274 N -0.03101 -0.03270 0.07443
 H275 H -0.08319 -0.08652 0.20830
 H276 H -0.06710 -0.06073 -0.03271
 C277 C -0.09194 0.41084 0.57645
 C278 C -0.06268 0.44169 0.59948
 N279 N -0.06344 0.44369 0.64628
 C280 C -0.09180 0.41582 0.67124
 C281 C -0.12075 0.38394 0.64837
 N282 N -0.12004 0.38280 0.60127
 N283 N -0.09195 0.40950 0.52962
 C284 C -0.06361 0.43740 0.50472
 C285 C -0.03306 0.46775 0.52760
 N286 N -0.03413 0.46934 0.57471
 H287 H -0.09193 0.41933 0.70837
 H288 H -0.06464 0.43589 0.46738
 C289 C 0.40867 -0.08883 0.57619
 C290 C 0.43815 -0.05830 0.59936
 N291 N 0.43737 -0.05645 0.64616
 C292 C 0.40872 -0.08415 0.67100
 C293 C 0.37949 -0.11565 0.64800
 N294 N 0.38027 -0.11668 0.60089
 N295 N 0.40871 -0.09004 0.52935
 C296 C 0.43729 -0.06226 0.50457
 C297 C 0.46799 -0.03216 0.52757
 N298 N 0.46690 -0.03075 0.57470
 H299 H 0.40857 -0.08079 0.70815
 H300 H 0.43627 -0.06363 0.46723
 C301 C 0.40887 0.41117 0.07631
 C302 C 0.43814 0.44198 0.09939
 N303 N 0.43712 0.44417 0.14618
 C304 C 0.40843 0.41657 0.17109
 C305 C 0.37939 0.38482 0.14817
 N306 N 0.38041 0.38344 0.10109
 N307 N 0.40915 0.40957 0.02950
 C308 C 0.43776 0.43722 0.00464
 C309 C 0.46824 0.46762 0.02754
 N310 N 0.46693 0.46943 0.07464
 H311 H 0.40808 0.42018 0.20821
 H312 H 0.43694 0.43552 -0.03270
 C313 C 0.09047 0.07677 0.08862
 C314 C 0.05992 0.09968 0.05891
 N315 N 0.05978 0.14642 0.05769
 C316 C 0.08854 0.17143 0.08521
 C317 C 0.11890 0.14864 0.11586
 N318 N 0.11898 0.10162 0.11627
 N319 N 0.09141 0.03003 0.08916
 C320 C 0.06287 0.00508 0.06146
 C321 C 0.03122 0.02777 0.03207
 N322 N 0.03119 0.07484 0.03142
 H323 H 0.08789 0.20853 0.08232
 H324 H 0.06472 -0.03218 0.06227
 C325 C 0.09011 0.57621 0.58879
 C326 C 0.06062 0.59921 0.55810
 N327 N 0.06152 0.64591 0.55599
 C328 C 0.09031 0.67080 0.58356
 C329 C 0.11958 0.64796 0.61519
 N330 N 0.11866 0.60096 0.61649
 N331 N 0.08997 0.52947 0.59026
 C332 C 0.06128 0.50464 0.56260
 C333 C 0.03059 0.52746 0.53233
 N334 N 0.03176 0.57448 0.53065
 H335 H 0.09056 0.70786 0.57999
 H336 H 0.06224 0.46736 0.56417
 C337 C 0.59065 0.07575 0.59007
 C338 C 0.56126 0.09898 0.55947
 N339 N 0.56199 0.14571 0.55793
 C340 C 0.59049 0.17041 0.58599
 C341 C 0.61966 0.14733 0.61757
 N342 N 0.61889 0.10030 0.61828
 N343 N 0.59073 0.02901 0.59096
 C344 C 0.56233 0.00437 0.56282
 C345 C 0.53169 0.02742 0.53266
 N346 N 0.53266 0.07446 0.53155
 H347 H 0.59055 0.20748 0.58279
 H348 H 0.56342 -0.03291 0.56398
 C349 C 0.59146 0.57655 0.08819
 C350 C 0.56232 0.59931 0.05700
 N351 N 0.56360 0.64596 0.05419
 C352 C 0.59240 0.67106 0.08156
 C353 C 0.62128 0.64849 0.11377
 N354 N 0.61998 0.60152 0.11574
 N355 N 0.59100 0.52985 0.09029
 C356 C 0.56233 0.50481 0.06279
 C357 C 0.53192 0.52741 0.03207
 N358 N 0.53345 0.57440 0.02974
 H359 H 0.59291 0.70804 0.07739
 H360 H 0.56307 0.46756 0.06484
   
