data_POSCAR
  _audit_creation_date              2014-09-24
  _audit_creation_method            'ToBaCCo'
  _symmetry_space_group_name_H-M    'P1'
  _symmetry_Int_Tables_number       1
  _symmetry_cell_setting            triclinic
  loop_
  _symmetry_equiv_pos_as_xyz
 x,y,z
_cell_length_a 27.8678
_cell_length_b 28.5050
_cell_length_c 27.5867
_cell_angle_alpha 90.092200
_cell_angle_beta 88.993700
_cell_angle_gamma 89.901200
loop_
  _atom_site_label
  _atom_site_type_symbol
  _atom_site_fract_x
  _atom_site_fract_y
  _atom_site_fract_z
C1 C 0.46139 1.06915 -0.53312
 C2 C 0.45366 1.06373 -0.48263
 C3 C 0.49306 1.05884 -0.45224
 C4 C 0.54083 1.05965 -0.46971
 C5 C 0.54897 1.07020 -0.51965
 C6 C 0.50894 1.07587 -0.54969
 H7 H 0.51507 1.08263 -0.58797
 H8 H 0.48588 1.05459 -0.41370
 C9 C -0.52480 1.44528 0.00372
 C10 C -0.47546 1.44404 -0.00887
 C11 C -0.45051 1.48652 -0.01453
 C12 C -0.47256 1.53081 -0.00767
 C13 C -0.52231 1.53173 0.00505
 C14 C -0.54720 1.48906 0.01034
 H15 H -0.58554 1.48998 0.01775
 H16 H -0.41212 1.48457 -0.02121
 C17 C 0.00236 0.44318 0.47520
 C18 C -0.01598 0.44332 0.52395
 C19 C -0.02457 0.48705 0.54669
 C20 C -0.01583 0.52984 0.52325
 C21 C 0.00147 0.52941 0.47504
 C22 C 0.01172 0.48655 0.45231
 H23 H 0.02302 0.48727 0.41448
 H24 H -0.03475 0.48821 0.58477
 O25 O -0.12390 0.99010 -0.06155
 O26 O 0.12268 0.98689 -0.07031
 O27 O -0.00276 1.04962 -0.12479
 O28 O 0.00013 0.92381 -0.12420
 O29 O 0.00049 0.86612 -0.06570
 O30 O -0.00345 1.10799 -0.06679
 O31 O 0.06272 0.98504 -0.12671
 O32 O -0.06571 0.99011 -0.12192
 Zr33 Zr -0.00084 0.98700 -0.08461
 O34 O 0.04354 0.94448 -0.04532
 O35 O -0.04395 1.02978 -0.04238
 C36 C -0.10988 0.99223 -0.10668
 C37 C 0.10737 0.98563 -0.11448
 C38 C -0.00422 1.09323 -0.11141
 C39 C 0.00060 0.88034 -0.11045
 H40 H 0.06275 1.05004 -0.06692
 O41 O 0.04279 1.03010 -0.04535
 H42 H -0.06458 0.92502 -0.06226
 O43 O -0.04360 0.94467 -0.04206
 O44 O 0.12481 0.99148 0.06120
 O45 O -0.12155 0.98665 0.07023
 O46 O 0.06534 1.10875 -0.00060
 O47 O 0.06641 0.86668 -0.00304
 O48 O -0.06469 0.86641 0.00354
 O49 O -0.06605 1.10821 -0.00073
 O50 O 0.00497 1.05117 0.12371
 O51 O 0.00291 0.92506 0.12445
 O52 O 0.00141 1.10895 0.06529
 O53 O -0.00020 0.86691 0.06630
 O54 O 0.12367 1.05114 -0.00375
 O55 O -0.12366 1.05020 0.00319
 O56 O -0.12296 0.92402 0.00617
 O57 O 0.12423 0.92459 -0.00631
 O58 O 0.06680 0.99133 0.12164
 O59 O -0.06146 0.98607 0.12656
 Zr60 Zr 0.08484 0.98780 -0.00324
 Zr61 Zr -0.08398 0.98727 0.00298
 Zr62 Zr -0.00014 1.07073 -0.00052
 Zr63 Zr 0.00069 0.90438 0.00013
 Zr64 Zr 0.00200 0.98787 0.08434
 O65 O -0.04225 0.94473 0.04544
 O66 O 0.04434 1.03059 0.04165
 C67 C 0.11092 0.99365 0.10637
 C68 C -0.10615 0.98615 0.11439
 C69 C 0.10981 1.09462 -0.00196
 C70 C 0.11071 0.88102 -0.00582
 C71 C -0.10912 0.88052 0.00598
 C72 C -0.11033 1.09374 0.00092
 C73 C 0.00433 1.09461 0.10983
 C74 C 0.00126 0.88152 0.11089
 H75 H -0.06246 1.05019 0.06630
 O76 O -0.04232 1.03020 0.04481
 H77 H 0.06605 0.92586 0.06218
 O78 O 0.04486 0.94527 0.04195
 C79 C 0.35441 1.05197 0.36014
 C80 C 0.34319 1.07597 0.40344
 C81 C 0.37805 1.08231 0.43886
 C82 C 0.42486 1.06429 0.43198
 C83 C 0.43539 1.04022 0.38827
 C84 C 0.40091 1.03434 0.35304
 C85 C 0.31827 1.04467 0.32229
 N86 N 0.33198 1.02918 0.27755
 N87 N 0.29974 1.02122 0.24354
 C88 C 0.25233 1.02823 0.25290
 N89 N 0.23856 1.04395 0.29758
 N90 N 0.27087 1.05209 0.33160
 C91 C 0.21648 1.01843 0.21535
 C92 C 0.16741 1.01781 0.22753
 C93 C 0.13346 1.00868 0.19228
 C94 C 0.14767 1.00033 0.14381
 C95 C 0.19681 1.00062 0.13162
 C96 C 0.23089 1.00938 0.16709
 H97 H 0.30769 1.09053 0.40964
 H98 H 0.36859 1.10314 0.47037
 H99 H 0.47011 1.02405 0.38169
 H100 H 0.41069 1.01510 0.32044
 H101 H 0.15510 1.02435 0.26438
 H102 H 0.09591 1.00886 0.20309
 H103 H 0.20896 0.99443 0.09465
 H104 H 0.26849 1.00961 0.15654
 C105 C -0.32788 1.05330 0.39156
 C106 C -0.33638 1.02198 0.43006
 C107 C -0.37504 1.02928 0.46233
 C108 C -0.40575 1.06815 0.45660
 C109 C -0.39421 1.10141 0.42059
 C110 C -0.35581 1.09413 0.38861
 C111 C -0.29388 1.04164 0.35164
 N112 N -0.29776 1.06350 0.30820
 N113 N -0.26972 1.05142 0.27076
 C114 C -0.23655 1.01690 0.27512
 N115 N -0.23227 0.99516 0.31866
 N116 N -0.26064 1.00706 0.35613
 C117 C -0.20524 1.00434 0.23337
 C118 C -0.16125 0.98151 0.24037
 C119 C -0.12971 0.97391 0.20125
 C120 C -0.14192 0.98837 0.15433
 C121 C -0.18697 1.00892 0.14695
 C122 C -0.21819 1.01714 0.18616
 H123 H -0.31528 0.99025 0.43330
 H124 H -0.38321 1.00238 0.48886
 H125 H -0.41630 1.13235 0.41593
 H126 H -0.34948 1.11953 0.36007
 H127 H -0.15039 0.97114 0.27630
 H128 H -0.09527 0.95770 0.20789
 H129 H -0.19724 1.02058 0.11124
 H130 H -0.25213 1.03435 0.17959
 C131 C -0.35212 1.03956 -0.36384
 C132 C -0.39425 1.01282 -0.36313
 C133 C -0.42864 1.01902 -0.39850
 C134 C -0.42222 1.05238 -0.43579
 C135 C -0.37959 1.07897 -0.43661
 C136 C -0.34484 1.07240 -0.40120
 C137 C -0.31651 1.03325 -0.32531
 N138 N -0.27159 1.05116 -0.33006
 N139 N -0.23959 1.04488 -0.29537
 C140 C -0.25125 1.02067 -0.25444
 N141 N -0.29625 1.00302 -0.24959
 N142 N -0.32817 1.00912 -0.28435
 C143 C -0.21546 1.01316 -0.21630
 C144 C -0.22939 0.99654 -0.17016
 C145 C -0.19525 0.98957 -0.13428
 C146 C -0.14653 0.99852 -0.14416
 C147 C -0.13273 1.01495 -0.19038
 C148 C -0.16679 1.02236 -0.22591
 H149 H -0.40070 0.98673 -0.33528
 H150 H -0.46005 0.99669 -0.39708
 H151 H -0.37378 1.10629 -0.46325
 H152 H -0.31283 1.09386 -0.40245
 H153 H -0.26671 0.98926 -0.16162
 H154 H -0.20694 0.97698 -0.09899
 H155 H -0.09553 1.02273 -0.19904
 H156 H -0.15484 1.03508 -0.26106
 C157 C 0.32972 1.04439 -0.39295
 C158 C 0.34199 1.01009 -0.42777
 C159 C 0.38038 1.01760 -0.46025
 C160 C 0.40623 1.05971 -0.45861
 C161 C 0.39167 1.09520 -0.42639
 C162 C 0.35373 1.08767 -0.39389
 C163 C 0.29589 1.03385 -0.35264
 N164 N 0.29803 1.05876 -0.31076
 N165 N 0.26991 1.04805 -0.27297
 C166 C 0.23838 1.01199 -0.27549
 N167 N 0.23588 0.98718 -0.31749
 N168 N 0.26436 0.99768 -0.35525
 C169 C 0.20686 1.00097 -0.23351
 C170 C 0.16325 0.97744 -0.23997
 C171 C 0.13151 0.97104 -0.20083
 C172 C 0.14321 0.98731 -0.15438
 C173 C 0.18785 1.00875 -0.14747
 C174 C 0.21922 1.01587 -0.18676
 H175 H 0.32407 0.97642 -0.42786
 H176 H 0.39174 0.98966 -0.48452
 H177 H 0.41164 1.12772 -0.42450
 H178 H 0.34470 1.11498 -0.36794
 H179 H 0.15284 0.96555 -0.27557
 H180 H 0.09737 0.95422 -0.20711
 H181 H 0.19768 1.02183 -0.11212
 H182 H 0.25285 1.03374 -0.18066
 C183 C 0.37574 1.32971 0.00851
 C184 C 0.41000 1.33299 -0.02944
 C185 C 0.44392 1.36926 -0.03012
 C186 C 0.44469 1.40253 0.00750
 C187 C 0.41200 1.39778 0.04655
 C188 C 0.37782 1.36199 0.04696
 C189 C 0.33663 1.29443 0.00710
 N190 N 0.29652 1.29971 0.03536
 N191 N 0.26063 1.26899 0.03322
 C192 C 0.26333 1.23152 0.00282
 N193 N 0.30353 1.22610 -0.02531
 N194 N 0.33931 1.25700 -0.02339
 C195 C 0.22348 1.19710 0.00065
 C196 C 0.23115 1.15255 -0.01994
 C197 C 0.19413 1.11958 -0.02092
 C198 C 0.14825 1.13052 -0.00202
 C199 C 0.14019 1.17537 0.01773
 C200 C 0.17753 1.20818 0.01942
 H201 H 0.40936 1.30871 -0.05965
 H202 H 0.46813 1.37248 -0.06105
 H203 H 0.41198 1.42278 0.07617
 H204 H 0.35241 1.36017 0.07704
 H205 H 0.26605 1.14282 -0.03465
 H206 H 0.20146 1.08542 -0.03667
 H207 H 0.10530 1.18475 0.03277
 H208 H 0.17036 1.24229 0.03532
 C209 C 0.37932 0.64836 0.00643
 C210 C 0.38195 0.61788 0.04628
 C211 C 0.41603 0.58195 0.04698
 C212 C 0.44811 0.57528 0.00772
 C213 C 0.44703 0.60691 -0.03127
 C214 C 0.41317 0.64336 -0.03174
 C215 C 0.33983 0.68327 0.00386
 N216 N 0.34195 0.71968 -0.02784
 N217 N 0.30573 0.75015 -0.03066
 C218 C 0.26566 0.74523 -0.00228
 N219 N 0.26353 0.70876 0.02928
 N220 N 0.29984 0.67851 0.03233
 C221 C 0.22531 0.77915 -0.00516
 C222 C 0.17956 0.76776 0.01372
 C223 C 0.14187 0.80028 0.01226
 C224 C 0.14934 0.84518 -0.00736
 C225 C 0.19493 0.85635 -0.02672
 C226 C 0.23235 0.82361 -0.02599
 H227 H 0.35689 0.62109 0.07655
 H228 H 0.41625 0.55812 0.07754
 H229 H 0.47093 0.60216 -0.06227
 H230 H 0.41212 0.66627 -0.06297
 H231 H 0.17286 0.73370 0.02976
 H232 H 0.10724 0.79070 0.02765
 H233 H 0.20177 0.89058 -0.04236
 H234 H 0.26710 0.83353 -0.04082
 C235 C -0.37442 0.64516 -0.00984
 C236 C -0.41416 0.64567 0.02232
 C237 C -0.44807 0.60931 0.02181
 C238 C -0.44313 0.57150 -0.01105
 C239 C -0.40460 0.57297 -0.04495
 C240 C -0.37086 0.60900 -0.04424
 C241 C -0.33546 0.68049 -0.00649
 N242 N -0.29261 0.67303 -0.02953
 N243 N -0.25690 0.70374 -0.02584
 C244 C -0.26243 0.74339 0.00100
 N245 N -0.30534 0.75100 0.02399
 N246 N -0.34104 0.72011 0.02050
 C247 C -0.22263 0.77778 0.00446
 C248 C -0.23122 0.82331 0.02219
 C249 C -0.19418 0.85632 0.02334
 C250 C -0.14748 0.84447 0.00735
 C251 C -0.13854 0.79858 -0.00916
 C252 C -0.17575 0.76570 -0.01088
 H253 H -0.41795 0.67306 0.04937
 H254 H -0.47590 0.60934 0.04963
 H255 H -0.40021 0.54593 -0.07230
 H256 H -0.34139 0.60798 -0.07033
 H257 H -0.26682 0.83380 0.03431
 H258 H -0.20225 0.89130 0.03656
 H259 H -0.10305 0.78838 -0.02192
 H260 H -0.16780 0.73085 -0.02449
 C261 C -0.37935 1.32585 -0.01400
 C262 C -0.38174 1.35723 -0.05311
 C263 C -0.41533 1.39363 -0.05278
 C264 C -0.44712 1.39986 -0.01318
 C265 C -0.44651 1.36716 0.02486
 C266 C -0.41313 1.33029 0.02431
 C267 C -0.34003 1.29070 -0.01209
 N268 N -0.34203 1.25424 0.01953
 N269 N -0.30581 1.22376 0.02214
 C270 C -0.26586 1.22870 -0.00639
 N271 N -0.26386 1.26518 -0.03795
 N272 N -0.30018 1.29546 -0.04077
 C273 C -0.22545 1.19487 -0.00339
 C274 C -0.17975 1.20597 -0.02265
 C275 C -0.14190 1.17367 -0.02031
 C276 C -0.14920 1.12929 0.00059
 C277 C -0.19480 1.11835 0.02007
 C278 C -0.23233 1.15085 0.01844
 H279 H -0.35675 1.35446 -0.08349
 H280 H -0.41523 1.41824 -0.08266
 H281 H -0.47013 1.37153 0.05613
 H282 H -0.41229 1.30666 0.05497
 H283 H -0.17318 1.23970 -0.03949
 H284 H -0.10724 1.18301 -0.03579
 H285 H -0.20152 1.08454 0.03670
 H286 H -0.26702 1.14113 0.03358
 C287 C 0.00751 1.32731 0.37888
 C288 C -0.03124 1.33257 0.41163
 C289 C -0.03183 1.36925 0.44545
 C290 C 0.00571 1.40234 0.44608
 C291 C 0.04481 1.39620 0.41355
 C292 C 0.04606 1.35870 0.38100
 C293 C 0.00687 1.29101 0.34073
 N294 N 0.04827 1.27026 0.32518
 N295 N 0.04810 1.23932 0.28895
 C296 C 0.00667 1.22857 0.26630
 N297 N -0.03474 1.24935 0.28180
 N298 N -0.03467 1.27984 0.31847
 C299 C 0.00677 1.19505 0.22549
 C300 C -0.02484 1.20096 0.18682
 C301 C -0.02453 1.16914 0.14813
 C302 C 0.00636 1.13024 0.14835
 C303 C 0.03784 1.12427 0.18702
 C304 C 0.03857 1.15680 0.22491
 H305 H -0.06139 1.30867 0.41061
 H306 H -0.06310 1.37333 0.46895
 H307 H 0.07470 1.42046 0.41341
 H308 H 0.07634 1.35539 0.35606
 H309 H -0.04945 1.23039 0.18634
 H310 H -0.04932 1.17413 0.11875
 H311 H 0.06201 1.09449 0.18777
 H312 H 0.06321 1.15147 0.25434
 C313 C -0.02280 1.32781 -0.37893
 C314 C -0.05816 1.36286 -0.37756
 C315 C -0.05721 1.39938 -0.41110
 C316 C -0.02062 1.40233 -0.44701
 C317 C 0.01352 1.36574 -0.44963
 C318 C 0.01227 1.32888 -0.41614
 C319 C -0.02120 1.29206 -0.34007
 N320 N 0.00650 1.25304 -0.34498
 N321 N 0.00908 1.22192 -0.30912
 C322 C -0.01559 1.22871 -0.26674
 N323 N -0.04329 1.26770 -0.26187
 N324 N -0.04607 1.29867 -0.29780
 C325 C -0.01226 1.19441 -0.22666
 C326 C -0.02726 1.20645 -0.17927
 C327 C -0.02399 1.17393 -0.14151
 C328 C -0.00633 1.12853 -0.15057
 C329 C 0.00861 1.11655 -0.19795
 C330 C 0.00598 1.14919 -0.23547
 H331 H -0.08627 1.36258 -0.34996
 H332 H -0.08530 1.42564 -0.40864
 H333 H 0.04329 1.36698 -0.47529
 H334 H 0.04016 1.30242 -0.41806
 H335 H -0.04129 1.24110 -0.17127
 H336 H -0.03599 1.18408 -0.10544
 H337 H 0.02264 1.08190 -0.20608
 H338 H 0.01774 1.13876 -0.27153
 C339 C -0.02117 0.64815 -0.38013
 C340 C -0.06025 0.61722 -0.38267
 C341 C -0.05996 0.58060 -0.41639
 C342 C -0.02037 0.57379 -0.44788
 C343 C 0.01773 0.60596 -0.44678
 C344 C 0.01713 0.64303 -0.41356
 C345 C -0.01888 0.68349 -0.34087
 N346 N 0.01243 0.71987 -0.34382
 N347 N 0.01608 0.75034 -0.30742
 C348 C -0.01104 0.74542 -0.26634
 N349 N -0.04239 0.70907 -0.26340
 N350 N -0.04626 0.67878 -0.29994
 C351 C -0.00660 0.77910 -0.22578
 C352 C -0.02353 0.76772 -0.17892
 C353 C -0.01991 0.80003 -0.14091
 C354 C -0.00004 0.84459 -0.14928
 C355 C 0.01725 0.85575 -0.19600
 C356 C 0.01436 0.82325 -0.23372
 H357 H -0.09055 0.62060 -0.35779
 H358 H -0.08991 0.55643 -0.41665
 H359 H 0.04920 0.60102 -0.46981
 H360 H 0.04785 0.66620 -0.41244
 H361 H -0.03959 0.73384 -0.17162
 H362 H -0.03380 0.79062 -0.10533
 H363 H 0.03290 0.88978 -0.20350
 H364 H 0.02772 0.83311 -0.26936
 C365 C 0.00358 0.64601 0.37724
 C366 C -0.03943 0.63209 0.40027
 C367 C -0.03951 0.59586 0.43430
 C368 C 0.00323 0.57236 0.44510
 C369 C 0.04641 0.58680 0.42296
 C370 C 0.04670 0.62385 0.38979
 C371 C 0.00306 0.68169 0.33851
 N372 N 0.04197 0.70916 0.32956
 N373 N 0.04175 0.74047 0.29375
 C374 C 0.00291 0.74505 0.26505
 N375 N -0.03591 0.71744 0.27388
 N376 N -0.03591 0.68653 0.31003
 C377 C 0.00283 0.77952 0.22516
 C378 C -0.02393 0.77132 0.18326
 C379 C -0.02374 0.80403 0.14548
 C380 C 0.00214 0.84600 0.14963
 C381 C 0.02859 0.85430 0.19165
 C382 C 0.02943 0.82110 0.22879
 H383 H -0.07309 0.64879 0.39143
 H384 H -0.07322 0.58477 0.45070
 H385 H 0.07963 0.56872 0.43064
 H386 H 0.08030 0.63379 0.37239
 H387 H -0.04455 0.73939 0.17951
 H388 H -0.04455 0.79699 0.11348
 H389 H 0.04905 0.88633 0.19555
 H390 H 0.05021 0.82834 0.26075
   
