data_POSCAR
  _audit_creation_date              2014-09-24
  _audit_creation_method            'ToBaCCo'
  _symmetry_space_group_name_H-M    'P1'
  _symmetry_Int_Tables_number       1
  _symmetry_cell_setting            triclinic
  loop_
  _symmetry_equiv_pos_as_xyz
 x,y,z
_cell_length_a 48.2291
_cell_length_b 48.2281
_cell_length_c 36.7195
_cell_angle_alpha 90.211100
_cell_angle_beta 89.802000
_cell_angle_gamma 98.169200
loop_
  _atom_site_label
  _atom_site_type_symbol
  _atom_site_fract_x
  _atom_site_fract_y
  _atom_site_fract_z
O1 O -0.04132 0.26338 0.05226
 O2 O 0.01828 0.26501 -0.01149
 O3 O -0.03577 0.26331 -0.01838
 O4 O 0.01267 0.26547 0.05938
 O5 O 0.00862 0.21927 0.05848
 O6 O -0.04134 0.21707 -0.01739
 O7 O 0.01249 0.21877 -0.01211
 O8 O -0.04562 0.21719 0.05338
 Cu9 Cu -0.01101 0.26894 0.02043
 Cu10 Cu -0.01698 0.21345 0.02070
 C11 C -0.05354 0.23994 0.06374
 C12 C 0.02536 0.24209 -0.02293
 C13 C -0.04689 0.23979 -0.03101
 C14 C 0.01911 0.24274 0.07189
 O15 O 0.47943 0.77054 0.53393
 O16 O 0.53721 0.77209 0.46739
 O17 O 0.48284 0.76841 0.46326
 O18 O 0.53377 0.77577 0.53828
 O19 O 0.53192 0.72977 0.54027
 O20 O 0.47923 0.72234 0.46713
 O21 O 0.53329 0.72592 0.46977
 O22 O 0.47736 0.72460 0.53793
 Cu23 Cu 0.50864 0.77635 0.50040
 Cu24 Cu 0.50513 0.72104 0.50420
 C25 C 0.46866 0.74719 0.54731
 C26 C 0.54484 0.74913 0.45705
 C27 C 0.47224 0.74415 0.45256
 C28 C 0.54173 0.75406 0.55178
 O29 O 1.03357 0.70731 0.03589
 O30 O 0.97263 0.69859 -0.02592
 O31 O 1.02660 0.70099 -0.03450
 O32 O 0.97939 0.70401 0.04415
 O33 O 0.98172 0.74972 0.03670
 O34 O 1.03180 0.74710 -0.03842
 O35 O 0.97753 0.74446 -0.03311
 O36 O 1.03592 0.75324 0.03166
 Cu37 Cu 1.00276 0.69809 0.00549
 Cu38 Cu 1.00717 0.75323 -0.00142
 C39 C 1.04493 0.73187 0.04459
 C40 C 0.96476 0.72016 -0.04005
 C41 C 1.03758 0.72359 -0.04953
 C42 C 0.97203 0.72732 0.05322
 O43 O 0.51422 0.20704 0.55802
 O44 O 0.45288 0.19166 0.49731
 O45 O 0.50733 0.19494 0.48935
 O46 O 0.46005 0.20225 0.56658
 O47 O 0.46110 0.24713 0.55392
 O48 O 0.51003 0.24019 0.47807
 O49 O 0.45576 0.23676 0.48508
 O50 O 0.51545 0.25221 0.54707
 Cu51 Cu 0.48340 0.19442 0.52893
 Cu52 Cu 0.48585 0.24858 0.51481
 C53 C 0.52520 0.23235 0.56285
 C54 C 0.44379 0.21176 0.48105
 C55 C 0.51708 0.21633 0.47092
 C56 C 0.45220 0.22579 0.57308
 O57 O 0.70842 0.02832 -0.04611
 O58 O 0.70084 -0.02372 0.02826
 O59 O 0.70519 0.03081 0.02446
 O60 O 0.70208 -0.02636 -0.04248
 O61 O 0.74802 -0.02466 -0.03953
 O62 O 0.75131 0.03390 0.02591
 O63 O 0.74685 -0.02082 0.03126
 O64 O 0.75436 0.02953 -0.04418
 Cu65 Cu 0.69951 0.00202 -0.00917
 Cu66 Cu 0.75474 0.00464 -0.00622
 C67 C 0.73281 0.03776 -0.05773
 C68 C 0.72262 -0.03123 0.04233
 C69 C 0.72878 0.04246 0.03604
 C70 C 0.72442 -0.03535 -0.05229
 O71 O 0.23234 0.52576 0.45448
 O72 O 0.21655 0.47252 0.52544
 O73 O 0.22505 0.52707 0.52486
 O74 O 0.22609 0.47117 0.45561
 O75 O 0.27144 0.47211 0.46492
 O76 O 0.27034 0.52721 0.53381
 O77 O 0.26181 0.47281 0.53482
 O78 O 0.27768 0.52654 0.46357
 Cu79 Cu 0.22046 0.49910 0.48913
 Cu80 Cu 0.27485 0.49970 0.50020
 C81 C 0.25759 0.53526 0.44689
 C82 C 0.23640 0.46361 0.54226
 C83 C 0.24768 0.53654 0.54117
 C84 C 0.24910 0.46221 0.44854
 O85 O 0.29875 1.03058 0.03032
 O86 O 0.28912 0.97808 -0.04372
 O87 O 0.29672 1.03278 -0.04010
 O88 O 0.29155 0.97583 0.02726
 O89 O 0.24573 0.97529 0.03004
 O90 O 0.25095 1.03231 -0.03679
 O91 O 0.24335 0.97785 -0.04070
 O92 O 0.25291 1.02965 0.03343
 Cu93 Cu 0.29865 1.00425 -0.00688
 Cu94 Cu 0.24364 1.00364 -0.00324
 C95 C 0.27741 1.03925 0.04428
 C96 C 0.26454 0.96909 -0.05481
 C97 C 0.27473 1.04254 -0.04952
 C98 C 0.26773 0.96591 0.04013
 O99 O 0.81679 0.53603 0.52543
 O100 O 0.81145 0.48175 0.45446
 O101 O 0.81801 0.53670 0.45488
 O102 O 0.80764 0.48136 0.52533
 O103 O 0.76197 0.48187 0.52264
 O104 O 0.77221 0.53622 0.45225
 O105 O 0.76567 0.48147 0.45191
 O106 O 0.77108 0.53634 0.52276
 Cu107 Cu 0.81805 0.50887 0.49018
 Cu108 Cu 0.76316 0.50891 0.48706
 C109 C 0.79496 0.54564 0.53593
 C110 C 0.78774 0.47217 0.44133
 C111 C 0.79677 0.54614 0.44200
 C112 C 0.78288 0.47232 0.53601
 O113 O 0.22947 0.19095 0.26355
 O114 O 0.21664 0.25514 0.31080
 O115 O 0.19205 0.22448 0.25828
 O116 O 0.25566 0.22269 0.31389
 O117 O 0.28054 0.24857 0.27254
 O118 O 0.21785 0.24919 0.21667
 O119 O 0.24162 0.28080 0.26935
 O120 O 0.25527 0.21612 0.22236
 Cu121 Cu 0.22094 0.22084 0.29087
 Cu122 Cu 0.25136 0.25131 0.24118
 C123 C 0.24429 0.19251 0.23484
 C124 C 0.22687 0.27887 0.29827
 C125 C 0.19439 0.23677 0.22760
 C126 C 0.27896 0.23543 0.30246
 O127 O 0.71636 0.75978 0.26358
 O128 O 0.77215 0.74851 0.19893
 O129 O 0.74567 0.71924 0.25143
 O130 O 0.74237 0.78830 0.21065
 O131 O 0.77466 0.80762 0.24907
 O132 O 0.77717 0.73847 0.29092
 O133 O 0.80401 0.76697 0.23849
 O134 O 0.74811 0.77951 0.30243
 Cu135 Cu 0.74093 0.75194 0.22731
 Cu136 Cu 0.77915 0.77508 0.27421
 C137 C 0.72272 0.77171 0.29392
 C138 C 0.79757 0.75588 0.20769
 C139 C 0.76189 0.71704 0.27809
 C140 C 0.75812 0.80969 0.22267
 O141 O 0.76135 0.25379 0.23188
 O142 O 0.69435 0.24228 0.28209
 O143 O 0.72016 0.21281 0.23697
 O144 O 0.73582 0.28284 0.27814
 O145 O 0.71406 0.30088 0.23309
 O146 O 0.70081 0.23113 0.19001
 O147 O 0.67331 0.25945 0.23571
 O148 O 0.74066 0.27310 0.18689
 Cu149 Cu 0.73002 0.24612 0.26188
 Cu150 Cu 0.70501 0.26788 0.20683
 C151 C 0.76238 0.26544 0.20080
 C152 C 0.67243 0.24904 0.26746
 C153 C 0.70842 0.21017 0.20607
 C154 C 0.72733 0.30371 0.26297
 O155 O 0.22374 0.74821 0.22357
 O156 O 0.28540 0.76906 0.28138
 O157 O 0.26455 0.78969 0.22368
 O158 O 0.24463 0.72774 0.28107
 O159 O 0.26980 0.70339 0.24613
 O160 O 0.28950 0.76540 0.18841
 O161 O 0.31037 0.74463 0.24630
 O162 O 0.24859 0.72370 0.18846
 Cu163 Cu 0.25208 0.76118 0.25589
 Cu164 Cu 0.28209 0.73189 0.21369
 C165 C 0.22563 0.73240 0.19620
 C166 C 0.30826 0.76005 0.27402
 C167 C 0.28026 0.78808 0.19615
 C168 C 0.25405 0.70511 0.27361
 O169 O 0.71396 0.26043 0.72960
 O170 O 0.77545 0.27838 0.78856
 O171 O 0.75745 0.29940 0.72895
 O172 O 0.73235 0.23941 0.78831
 O173 O 0.75552 0.21233 0.75462
 O174 O 0.78110 0.27236 0.69592
 O175 O 0.79876 0.25094 0.75564
 O176 O 0.73736 0.23354 0.69597
 Cu177 Cu 0.74251 0.27223 0.76210
 Cu178 Cu 0.77061 0.23971 0.72209
 C179 C 0.71508 0.24378 0.70293
 C180 C 0.79737 0.26729 0.78260
 C181 C 0.77349 0.29605 0.70224
 C182 C 0.73969 0.21564 0.78154
 O183 O 0.29044 0.74901 0.72706
 O184 O 0.22952 0.73349 0.78767
 O185 O 0.24765 0.70959 0.72949
 O186 O 0.27222 0.77225 0.78447
 O187 O 0.24765 0.79721 0.75003
 O188 O 0.22427 0.73480 0.69384
 O189 O 0.20507 0.75752 0.75177
 O190 O 0.26681 0.77457 0.69221
 Cu191 Cu 0.26228 0.73841 0.76060
 Cu192 Cu 0.23350 0.76850 0.71841
 C193 C 0.28912 0.76457 0.69948
 C194 C 0.20707 0.74315 0.78032
 C195 C 0.23218 0.71160 0.70195
 C196 C 0.26388 0.79533 0.77685
 O197 O 0.25585 0.23672 0.80994
 O198 O 0.25616 0.30671 0.76999
 O199 O 0.22782 0.27837 0.82211
 O200 O 0.28402 0.26531 0.75866
 O201 O 0.25221 0.24797 0.71838
 O202 O 0.19612 0.25997 0.78237
 O203 O 0.22410 0.28873 0.73045
 O204 O 0.22433 0.21882 0.76965
 Cu205 Cu 0.25906 0.27358 0.79434
 Cu206 Cu 0.22091 0.25209 0.74631
 C207 C 0.24016 0.21585 0.79644
 C208 C 0.24053 0.30949 0.74290
 C209 C 0.20241 0.27111 0.81320
 C210 C 0.27764 0.25475 0.72753
 O211 O 0.74615 0.76950 0.69055
 O212 O 0.80881 0.76516 0.74541
 O213 O 0.77981 0.73288 0.69821
 O214 O 0.77423 0.80160 0.73966
 O215 O 0.74799 0.78042 0.78358
 O216 O 0.75279 0.71199 0.74165
 O217 O 0.78252 0.74364 0.78908
 O218 O 0.71932 0.74910 0.73450
 Cu219 Cu 0.77990 0.76949 0.71412
 Cu220 Cu 0.74799 0.74429 0.76671
 C221 C 0.72216 0.75967 0.70280
 C222 C 0.80644 0.75356 0.77641
 C223 C 0.76694 0.71078 0.71266
 C224 C 0.76035 0.80264 0.76896
 C225 C 0.28113 0.05990 0.07124
 C226 C 0.25841 0.06993 0.08797
 C227 C 0.26113 0.09367 0.11397
 C228 C 0.23863 0.09624 0.13744
 C229 C 0.23939 0.11926 0.16075
 C230 C 0.26271 0.14040 0.16094
 C231 C 0.28519 0.13795 0.13734
 C232 C 0.28453 0.11474 0.11417
 C233 C 0.26318 0.16596 0.18354
 C234 C 0.24769 0.16642 0.21563
 H235 H 0.23738 0.05977 0.08203
 H236 H 0.22018 0.08053 0.13738
 H237 H 0.22123 0.12084 0.17758
 H238 H 0.30318 0.15418 0.13656
 H239 H 0.30190 0.11392 0.09568
 H240 H 0.27591 0.18502 0.17444
 H241 H 0.30229 0.06835 0.07899
 H242 H 0.23675 0.14709 0.22660
 C243 C 0.79790 0.56837 0.56294
 C244 C 0.77495 0.57991 0.57620
 C245 C 0.77785 0.60502 0.59985
 C246 C 0.75547 0.60945 0.62259
 C247 C 0.75705 0.63358 0.64410
 C248 C 0.78106 0.65391 0.64297
 C249 C 0.80327 0.64964 0.61987
 C250 C 0.80178 0.62541 0.59860
 C251 C 0.78282 0.68047 0.66359
 C252 C 0.76753 0.68340 0.69531
 H253 H 0.75401 0.57009 0.56921
 H254 H 0.73663 0.59427 0.62352
 H255 H 0.73911 0.63659 0.66063
 H256 H 0.82176 0.66523 0.61806
 H257 H 0.81905 0.62320 0.58044
 H258 H 0.79682 0.69837 0.65346
 H259 H 0.81883 0.57652 0.57195
 H260 H 0.75510 0.66532 0.70746
 C261 C 0.71960 0.94843 0.06957
 C262 C 0.74265 0.93892 0.08598
 C263 C 0.74050 0.91483 0.11135
 C264 C 0.76375 0.91141 0.13291
 C265 C 0.76345 0.88792 0.15522
 C266 C 0.73979 0.86719 0.15632
 C267 C 0.71649 0.87067 0.13489
 C268 C 0.71676 0.89420 0.11267
 C269 C 0.73925 0.84087 0.17728
 C270 C 0.75775 0.83720 0.20550
 H271 H 0.76350 0.94941 0.07968
 H272 H 0.78245 0.92678 0.13204
 H273 H 0.78214 0.88575 0.17046
 H274 H 0.69813 0.85485 0.13484
 H275 H 0.69871 0.89552 0.09574
 H276 H 0.72349 0.82345 0.16996
 H277 H 0.69858 0.93961 0.07752
 H278 H 0.77252 0.85461 0.21520
 C279 C 0.22939 0.44220 0.57040
 C280 C 0.24976 0.43215 0.59151
 C281 C 0.24314 0.40948 0.61858
 C282 C 0.26258 0.40652 0.64613
 C283 C 0.25761 0.38461 0.67120
 C284 C 0.23301 0.36510 0.66908
 C285 C 0.21362 0.36808 0.64150
 C286 C 0.21857 0.38996 0.61649
 C287 C 0.22782 0.34018 0.69288
 C288 C 0.24251 0.33686 0.72488
 H289 H 0.27141 0.44163 0.58860
 H290 H 0.28184 0.42105 0.64801
 H291 H 0.27352 0.38267 0.69130
 H292 H 0.19475 0.35308 0.63885
 H293 H 0.20348 0.39085 0.59498
 H294 H 0.21227 0.32309 0.68391
 H295 H 0.20744 0.43457 0.57472
 H296 H 0.25703 0.35395 0.73587
 C297 C 0.92274 0.23870 0.08928
 C298 C 0.91121 0.26252 0.09961
 C299 C 0.88644 0.26151 0.12382
 C300 C 0.86967 0.28294 0.12156
 C301 C 0.84568 0.28232 0.14322
 C302 C 0.83808 0.26023 0.16783
 C303 C 0.85548 0.23941 0.17115
 C304 C 0.87937 0.23994 0.14933
 C305 C 0.81238 0.25831 0.19044
 C306 C 0.78873 0.26992 0.17997
 H307 H 0.91956 0.28249 0.08766
 H308 H 0.87495 0.30006 0.10261
 H309 H 0.83336 0.29929 0.14080
 H310 H 0.85035 0.22243 0.19035
 H311 H 0.89232 0.22359 0.15284
 H312 H 0.81121 0.24541 0.21465
 H313 H 0.91351 0.21826 0.09885
 H314 H 0.78870 0.28107 0.15446
 C315 C 0.44580 0.74577 0.57403
 C316 C 0.43311 0.76902 0.58357
 C317 C 0.40943 0.76724 0.60959
 C318 C 0.39018 0.78636 0.60683
 C319 C 0.36704 0.78455 0.63023
 C320 C 0.36288 0.76358 0.65705
 C321 C 0.38278 0.74520 0.66068
 C322 C 0.40580 0.74696 0.63725
 C323 C 0.33841 0.76013 0.68191
 C324 C 0.31352 0.77088 0.67525
 H325 H 0.43955 0.78875 0.56984
 H326 H 0.39283 0.80249 0.58614
 H327 H 0.35274 0.79973 0.62729
 H328 H 0.38035 0.72918 0.68151
 H329 H 0.42079 0.73255 0.64118
 H330 H 0.33946 0.74699 0.70561
 H331 H 0.43811 0.72543 0.58532
 H332 H 0.31122 0.78318 0.65117
 C333 C 0.06752 0.73597 0.06848
 C334 C 0.07995 0.71403 0.08308
 C335 C 0.10410 0.71902 0.10820
 C336 C 0.12344 0.69987 0.10905
 C337 C 0.14687 0.70450 0.13180
 C338 C 0.15123 0.72834 0.15441
 C339 C 0.13130 0.74688 0.15453
 C340 C 0.10802 0.74235 0.13165
 C341 C 0.17586 0.73445 0.17861
 C342 C 0.20113 0.72413 0.17278
 H343 H 0.07293 0.69273 0.07423
 H344 H 0.12059 0.68147 0.09170
 H345 H 0.16125 0.68922 0.13184
 H346 H 0.13389 0.76513 0.17215
 H347 H 0.09300 0.75700 0.13276
 H348 H 0.17459 0.74917 0.20072
 H349 H 0.07609 0.75738 0.07509
 H350 H 0.20361 0.71066 0.14973
 C351 C 0.54962 0.23926 0.58669
 C352 C 0.56444 0.21891 0.60072
 C353 C 0.59000 0.22600 0.62303
 C354 C 0.61009 0.20762 0.62333
 C355 C 0.63472 0.21399 0.64353
 C356 C 0.63962 0.23888 0.66410
 C357 C 0.61911 0.25679 0.66468
 C358 C 0.59458 0.25050 0.64435
 C359 C 0.66524 0.24647 0.68617
 C360 C 0.69033 0.23591 0.67983
 H361 H 0.55822 0.19720 0.59306
 H362 H 0.60683 0.18839 0.60760
 H363 H 0.64955 0.19915 0.64336
 H364 H 0.62212 0.27582 0.68083
 H365 H 0.57913 0.26468 0.64587
 H366 H 0.66458 0.26186 0.70762
 H367 H 0.55694 0.26122 0.59153
 H368 H 0.69218 0.22175 0.65733
 C369 C 0.73679 0.05871 0.91306
 C370 C 0.71534 0.07288 0.90076
 C371 C 0.72036 0.09583 0.87377
 C372 C 0.70344 0.11722 0.87443
 C373 C 0.70862 0.13991 0.85050
 C374 C 0.73080 0.14150 0.82521
 C375 C 0.74687 0.11945 0.82354
 C376 C 0.74178 0.09688 0.84752
 C377 C 0.73786 0.16546 0.80007
 C378 C 0.72989 0.19190 0.80563
 H379 H 0.69489 0.06866 0.91351
 H380 H 0.68650 0.11663 0.89398
 H381 H 0.69511 0.15595 0.85187
 H382 H 0.76374 0.11987 0.80390
 H383 H 0.75457 0.08025 0.84523
 H384 H 0.75155 0.16264 0.77729
 H385 H 0.75788 0.06445 0.90283
 H386 H 0.71725 0.19587 0.82893
 C387 C 0.26378 0.55670 0.41854
 C388 C 0.24236 0.56756 0.40033
 C389 C 0.24725 0.58999 0.37273
 C390 C 0.22565 0.60583 0.36552
 C391 C 0.22944 0.62754 0.34015
 C392 C 0.25498 0.63377 0.32133
 C393 C 0.27622 0.61728 0.32751
 C394 C 0.27248 0.59563 0.35306
 C395 C 0.26005 0.65713 0.29509
 C396 C 0.24677 0.68094 0.29769
 H397 H 0.22085 0.56033 0.40807
 H398 H 0.20583 0.60156 0.37984
 H399 H 0.21222 0.63914 0.33515
 H400 H 0.29591 0.62140 0.31288
 H401 H 0.28926 0.58327 0.35691
 H402 H 0.27640 0.65658 0.27488
 H403 H 0.28550 0.56454 0.41295
 H404 H 0.23204 0.68290 0.31952
 C405 C 0.26002 0.94815 0.91582
 C406 C 0.28183 0.93588 0.90038
 C407 C 0.27719 0.91349 0.87240
 C408 C 0.29680 0.89477 0.86880
 C409 C 0.29252 0.87266 0.84376
 C410 C 0.26849 0.86894 0.82164
 C411 C 0.24956 0.88843 0.82409
 C412 C 0.25379 0.91046 0.84920
 C413 C 0.26239 0.84512 0.79591
 C414 C 0.27292 0.81982 0.80011
 H415 H 0.30283 0.94152 0.91094
 H416 H 0.31527 0.89697 0.88584
 H417 H 0.30815 0.85872 0.84176
 H418 H 0.23116 0.88635 0.80690
 H419 H 0.23877 0.92510 0.85011
 H420 H 0.24722 0.84674 0.77460
 H421 H 0.23864 0.94144 0.90743
 H422 H 0.28675 0.81703 0.82250
 C423 C 0.78618 0.44947 0.41432
 C424 C 0.76095 0.43738 0.39882
 C425 C 0.75860 0.41211 0.37543
 C426 C 0.73615 0.40676 0.35103
 C427 C 0.73265 0.38240 0.32974
 C428 C 0.75151 0.36280 0.33274
 C429 C 0.77378 0.36803 0.35742
 C430 C 0.77737 0.39242 0.37850
 C431 C 0.74774 0.33597 0.31246
 C432 C 0.73233 0.33146 0.28037
 H433 H 0.74219 0.44678 0.40396
 H434 H 0.72115 0.42137 0.34864
 H435 H 0.71471 0.37870 0.31189
 H436 H 0.78831 0.35304 0.36068
 H437 H 0.79435 0.39526 0.39792
 H438 H 0.75792 0.31908 0.32311
 H439 H 0.80548 0.44172 0.40723
 H440 H 0.72358 0.34845 0.26766
 C441 C 0.04724 0.24196 0.95219
 C442 C 0.06347 0.26636 0.93949
 C443 C 0.08604 0.26573 0.91217
 C444 C 0.10913 0.28702 0.91227
 C445 C 0.13090 0.28671 0.88700
 C446 C 0.12975 0.26519 0.86083
 C447 C 0.10619 0.24447 0.85999
 C448 C 0.08461 0.24463 0.88543
 C449 C 0.15231 0.26383 0.83368
 C450 C 0.18019 0.27535 0.83938
 H451 H 0.06049 0.28643 0.95108
 H452 H 0.11047 0.30377 0.93220
 H453 H 0.14831 0.30352 0.88776
 H454 H 0.10458 0.22792 0.83975
 H455 H 0.06666 0.22845 0.88369
 H456 H 0.14712 0.25139 0.80937
 H457 H 0.05192 0.22180 0.94284
 H458 H 0.18632 0.28615 0.86460
 C459 C 0.56708 0.74877 0.42975
 C460 C 0.58351 0.77300 0.41725
 C461 C 0.60584 0.77192 0.38980
 C462 C 0.62987 0.79204 0.39072
 C463 C 0.65173 0.79074 0.36588
 C464 C 0.64970 0.76937 0.33940
 C465 C 0.62513 0.75002 0.33756
 C466 C 0.60345 0.75117 0.36255
 C467 C 0.67242 0.76675 0.31302
 C468 C 0.70056 0.77652 0.31982
 H469 H 0.58114 0.79301 0.42950
 H470 H 0.63194 0.80851 0.41108
 H471 H 0.66996 0.80660 0.36731
 H472 H 0.62286 0.73368 0.31701
 H473 H 0.58477 0.73593 0.36026
 H474 H 0.66697 0.75489 0.28831
 H475 H 0.57114 0.72850 0.42004
 H476 H 0.70680 0.78689 0.34528
 C477 C 0.94025 0.71686 0.93574
 C478 C 0.93115 0.73999 0.91926
 C479 C 0.90588 0.73849 0.89619
 C480 C 0.90343 0.76094 0.87282
 C481 C 0.87965 0.76099 0.85131
 C482 C 0.85764 0.73851 0.85279
 C483 C 0.85977 0.71628 0.87669
 C484 C 0.88371 0.71615 0.89811
 C485 C 0.83196 0.73830 0.83075
 C486 C 0.83200 0.75229 0.79758
 H487 H 0.94355 0.76039 0.92282
 H488 H 0.91998 0.77863 0.87130
 H489 H 0.87835 0.77898 0.83423
 H490 H 0.84289 0.69896 0.87874
 H491 H 0.88440 0.69889 0.91663
 H492 H 0.81273 0.72610 0.84034
 H493 H 0.92936 0.69597 0.93104
 H494 H 0.85152 0.76252 0.78621
 C495 C 0.41875 0.20610 0.45784
 C496 C 0.40771 0.22801 0.44092
 C497 C 0.38177 0.22487 0.41887
 C498 C 0.37651 0.24776 0.39784
 C499 C 0.35211 0.24646 0.37727
 C500 C 0.33229 0.22208 0.37717
 C501 C 0.33718 0.19932 0.39876
 C502 C 0.36174 0.20059 0.41935
 C503 C 0.30620 0.22032 0.35557
 C504 C 0.30474 0.23569 0.32369
 H505 H 0.41895 0.24902 0.44374
 H506 H 0.39132 0.26690 0.39744
 H507 H 0.34864 0.26484 0.36212
 H508 H 0.32201 0.18047 0.39956
 H509 H 0.36460 0.18276 0.43594
 H510 H 0.28809 0.20590 0.36419
 H511 H 0.40892 0.18465 0.45469
 H512 H 0.32343 0.24821 0.31317
 C513 C 0.72248 0.94124 0.92171
 C514 C 0.74615 0.93152 0.90738
 C515 C 0.74458 0.90668 0.88329
 C516 C 0.76704 0.90401 0.85978
 C517 C 0.76671 0.88027 0.83769
 C518 C 0.74389 0.85859 0.83899
 C519 C 0.72158 0.86116 0.86278
 C520 C 0.72182 0.88495 0.88464
 C521 C 0.74345 0.83230 0.81797
 C522 C 0.75927 0.82993 0.78650
 H523 H 0.76666 0.94289 0.91342
 H524 H 0.78500 0.92026 0.85867
 H525 H 0.78470 0.87867 0.82057
 H526 H 0.70399 0.84454 0.86473
 H527 H 0.70455 0.88579 0.90329
 H528 H 0.72986 0.81396 0.82769
 H529 H 0.70178 0.93161 0.91358
 H530 H 0.77144 0.84825 0.77461
 C531 C 0.25054 0.44011 0.42118
 C532 C 0.22689 0.42568 0.40427
 C533 C 0.22862 0.40228 0.37848
 C534 C 0.20587 0.38077 0.37560
 C535 C 0.20748 0.35762 0.35301
 C536 C 0.23188 0.35568 0.33258
 C537 C 0.25404 0.37789 0.33402
 C538 C 0.25252 0.40092 0.35681
 C539 C 0.23498 0.33084 0.30987
 C540 C 0.22149 0.30407 0.31823
 H541 H 0.20636 0.43021 0.41231
 H542 H 0.18703 0.38159 0.39148
 H543 H 0.18956 0.34139 0.35158
 H544 H 0.27285 0.37714 0.31804
 H545 H 0.27005 0.41763 0.35727
 H546 H 0.25024 0.33322 0.28797
 H547 H 0.27096 0.43423 0.41553
 H548 H 0.20784 0.30103 0.34176
 C549 C 0.27710 0.06516 0.92664
 C550 C 0.25386 0.07735 0.91577
 C551 C 0.25589 0.10364 0.89467
 C552 C 0.23205 0.10983 0.87639
 C553 C 0.23252 0.13517 0.85795
 C554 C 0.25696 0.15495 0.85756
 C555 C 0.28074 0.14886 0.87608
 C556 C 0.28030 0.12346 0.89441
 C557 C 0.25790 0.18258 0.83989
 C558 C 0.23980 0.18779 0.81200
 H559 H 0.23306 0.06734 0.92325
 H560 H 0.21284 0.09513 0.87674
 H561 H 0.21346 0.13944 0.84506
 H562 H 0.29967 0.16393 0.87665
 H563 H 0.29882 0.11992 0.90919
 H564 H 0.27389 0.19934 0.84870
 H565 H 0.29781 0.07368 0.91709
 H566 H 0.22508 0.17093 0.80078
 C567 C 0.80079 0.56947 0.41578
 C568 C 0.77794 0.58052 0.40127
 C569 C 0.78003 0.60638 0.37909
 C570 C 0.75624 0.61183 0.35998
 C571 C 0.75638 0.63682 0.34080
 C572 C 0.78044 0.65708 0.34032
 C573 C 0.80426 0.65167 0.35944
 C574 C 0.80415 0.62658 0.37855
 C575 C 0.78086 0.68453 0.32201
 C576 C 0.76238 0.68921 0.29421
 H577 H 0.75707 0.56981 0.40697
 H578 H 0.73724 0.59685 0.36038
 H579 H 0.73728 0.64045 0.32747
 H580 H 0.82294 0.66707 0.35991
 H581 H 0.82268 0.62360 0.39368
 H582 H 0.79662 0.70162 0.33042
 H583 H 0.82198 0.57848 0.40896
 H584 H 0.74789 0.67199 0.28340
 C585 C 0.05631 0.72234 0.92173
 C586 C 0.07221 0.74632 0.90755
 C587 C 0.09357 0.74471 0.87919
 C588 C 0.11999 0.76073 0.88312
 C589 C 0.14070 0.75945 0.85678
 C590 C 0.13497 0.74279 0.82552
 C591 C 0.10827 0.72740 0.82099
 C592 C 0.08779 0.72796 0.84799
 C593 C 0.15657 0.74223 0.79721
 C594 C 0.18380 0.73870 0.80642
 H595 H 0.07126 0.76651 0.92018
 H596 H 0.12470 0.77393 0.90688
 H597 H 0.16104 0.77189 0.86045
 H598 H 0.10345 0.71468 0.79684
 H599 H 0.06734 0.71578 0.84422
 H600 H 0.15093 0.74436 0.76893
 H601 H 0.05966 0.70197 0.91146
 H602 H 0.18842 0.73339 0.83419
 C603 C 0.53740 0.21317 0.44176
 C604 C 0.54906 0.23558 0.42009
 C605 C 0.57218 0.23375 0.39391
 C606 C 0.57640 0.25303 0.36521
 C607 C 0.59897 0.25293 0.34119
 C608 C 0.61796 0.23359 0.34563
 C609 C 0.61383 0.21443 0.37446
 C610 C 0.59117 0.21440 0.39830
 C611 C 0.64327 0.23410 0.32250
 C612 C 0.64576 0.24568 0.28766
 H613 H 0.54090 0.25533 0.42234
 H614 H 0.56234 0.26844 0.36160
 H615 H 0.60191 0.26862 0.32003
 H616 H 0.62842 0.19964 0.37884
 H617 H 0.58922 0.19982 0.42078
 H618 H 0.66071 0.22493 0.33347
 H619 H 0.54372 0.19271 0.43797
 H620 H 0.62799 0.25310 0.27499
 C621 C 0.93354 0.23840 0.93820
 C622 C 0.92582 0.26237 0.92217
 C623 C 0.90559 0.26139 0.89174
 C624 C 0.89124 0.28437 0.88619
 C625 C 0.87137 0.28388 0.85845
 C626 C 0.86555 0.26034 0.83554
 C627 C 0.88077 0.23788 0.84012
 C628 C 0.90055 0.23832 0.86792
 C629 C 0.84379 0.25828 0.80687
 C630 C 0.82095 0.27310 0.80811
 H631 H 0.93379 0.28267 0.93363
 H632 H 0.89513 0.30262 0.90371
 H633 H 0.86083 0.30204 0.85501
 H634 H 0.87705 0.21970 0.82245
 H635 H 0.91195 0.22067 0.87035
 H636 H 0.84437 0.24257 0.78581
 H637 H 0.92451 0.21784 0.92874
 H638 H 0.81888 0.28761 0.83015
 C639 C 0.45158 0.74094 0.42294
 C640 C 0.44198 0.76396 0.40682
 C641 C 0.42061 0.76138 0.37769
 C642 C 0.40476 0.78331 0.37264
 C643 C 0.38392 0.78139 0.34600
 C644 C 0.37865 0.75745 0.32370
 C645 C 0.39527 0.73604 0.32777
 C646 C 0.41600 0.73790 0.35452
 C647 C 0.35610 0.75401 0.29610
 C648 C 0.33217 0.76713 0.29871
 H649 H 0.44931 0.78472 0.41734
 H650 H 0.40827 0.80185 0.38967
 H651 H 0.37223 0.79876 0.34284
 H652 H 0.39193 0.71760 0.31053
 H653 H 0.42848 0.72104 0.35663
 H654 H 0.35717 0.73859 0.27478
 H655 H 0.44324 0.71988 0.41459
 H656 H 0.32966 0.78112 0.32120
 C657 C 0.26513 0.94326 0.06709
 C658 C 0.28796 0.93056 0.07810
 C659 C 0.28536 0.90727 0.10459
 C660 C 0.30499 0.88842 0.10370
 C661 C 0.30265 0.86571 0.12766
 C662 C 0.28061 0.86157 0.15316
 C663 C 0.26167 0.88108 0.15496
 C664 C 0.26395 0.90368 0.13097
 C665 C 0.27660 0.83744 0.17838
 C666 C 0.28754 0.81251 0.17237
 H667 H 0.30816 0.93682 0.06533
 H668 H 0.32198 0.89105 0.08408
 H669 H 0.31825 0.85172 0.12620
 H670 H 0.24480 0.87866 0.17477
 H671 H 0.24907 0.91838 0.13348
 H672 H 0.26271 0.83863 0.20143
 H673 H 0.24440 0.93591 0.07752
 H674 H 0.30039 0.81006 0.14872
 C675 C 0.77769 0.45053 0.56412
 C676 C 0.79869 0.43656 0.57824
 C677 C 0.79285 0.41389 0.60558
 C678 C 0.81049 0.39318 0.60746
 C679 C 0.80495 0.37098 0.63212
 C680 C 0.78164 0.36920 0.65563
 C681 C 0.76470 0.39055 0.65472
 C682 C 0.77017 0.41264 0.63001
 C683 C 0.77434 0.34575 0.68158
 C684 C 0.78326 0.31958 0.67775
 H685 H 0.81971 0.44114 0.56723
 H686 H 0.82840 0.39394 0.58941
 H687 H 0.81911 0.35552 0.63278
 H688 H 0.74691 0.38999 0.67296
 H689 H 0.75672 0.42877 0.63042
 H690 H 0.75978 0.34865 0.70334
 H691 H 0.75621 0.44459 0.57277
 H692 H 0.79663 0.31552 0.65522
 C693 C 0.73026 0.06688 0.06031
 C694 C 0.70649 0.07428 0.07739
 C695 C 0.70677 0.10114 0.09681
 C696 C 0.68974 0.10248 0.12762
 C697 C 0.68911 0.12796 0.14571
 C698 C 0.70499 0.15261 0.13259
 C699 C 0.72143 0.15138 0.10123
 C700 C 0.72259 0.12582 0.08369
 C701 C 0.70453 0.17985 0.15077
 C702 C 0.70436 0.18251 0.18854
 H703 H 0.68711 0.05984 0.07681
 H704 H 0.67705 0.08375 0.13779
 H705 H 0.67583 0.12849 0.16946
 H706 H 0.73363 0.17020 0.09052
 H707 H 0.73531 0.12550 0.05938
 H708 H 0.70774 0.19862 0.13423
 H709 H 0.75035 0.07978 0.06401
 H710 H 0.70465 0.16418 0.20542
 C711 C 0.24831 0.55847 0.56919
 C712 C 0.22499 0.57109 0.57872
 C713 C 0.22635 0.59344 0.60676
 C714 C 0.20775 0.61328 0.60488
 C715 C 0.20944 0.63535 0.63003
 C716 C 0.22976 0.63789 0.65776
 C717 C 0.24744 0.61727 0.66058
 C718 C 0.24579 0.59530 0.63544
 C719 C 0.23361 0.66162 0.68396
 C720 C 0.22382 0.68716 0.67827
 H721 H 0.20566 0.56559 0.56375
 H722 H 0.19222 0.61199 0.58348
 H723 H 0.19476 0.65020 0.62755
 H724 H 0.26294 0.61839 0.68202
 H725 H 0.25971 0.57978 0.63876
 H726 H 0.24680 0.65973 0.70740
 H727 H 0.26828 0.56533 0.58203
 H728 H 0.21148 0.69025 0.65450
 C729 C 0.95163 0.72817 0.08284
 C730 C 0.93627 0.75044 0.08619
 C731 C 0.91371 0.75085 0.11332
 C732 C 0.89042 0.76379 0.10428
 C733 C 0.86864 0.76451 0.12924
 C734 C 0.87007 0.75276 0.16402
 C735 C 0.89373 0.74052 0.17348
 C736 C 0.91529 0.73927 0.14820
 C737 C 0.84767 0.75414 0.19114
 C738 C 0.81959 0.75205 0.18124
 H739 H 0.93911 0.76700 0.06607
 H740 H 0.88897 0.77314 0.07769
 H741 H 0.85099 0.77480 0.12157
 H742 H 0.89541 0.73172 0.20035
 H743 H 0.93336 0.72978 0.15619
 H744 H 0.85333 0.75588 0.21968
 H745 H 0.94703 0.71005 0.10031
 H746 H 0.81348 0.74731 0.15330
 C747 C 0.43224 0.22798 0.60292
 C748 C 0.41602 0.24969 0.60450
 C749 C 0.39374 0.25066 0.63200
 C750 C 0.36965 0.26209 0.62239
 C751 C 0.34798 0.26293 0.64756
 C752 C 0.35029 0.25277 0.68310
 C753 C 0.37478 0.24215 0.69309
 C754 C 0.39624 0.24082 0.66767
 C755 C 0.32796 0.25413 0.71043
 C756 C 0.29970 0.25094 0.70103
 H757 H 0.41791 0.26505 0.58282
 H758 H 0.36744 0.27011 0.59519
 H759 H 0.32971 0.27201 0.63938
 H760 H 0.37718 0.23464 0.72050
 H761 H 0.41492 0.23255 0.67613
 H762 H 0.33387 0.25678 0.73882
 H763 H 0.42853 0.21090 0.62219
 H764 H 0.29346 0.24555 0.67330
 C765 C 0.03914 0.24383 0.10212
 C766 C 0.05339 0.22135 0.10975
 C767 C 0.07564 0.22306 0.13746
 C768 C 0.09947 0.21033 0.13030
 C769 C 0.12131 0.21233 0.15544
 C770 C 0.11936 0.22651 0.18863
 C771 C 0.09504 0.23825 0.19654
 C772 C 0.07345 0.23690 0.17091
 C773 C 0.14262 0.22907 0.21497
 C774 C 0.17022 0.23597 0.20328
 H775 H 0.05022 0.20300 0.09230
 H776 H 0.10142 0.19932 0.10485
 H777 H 0.13966 0.20261 0.14908
 H778 H 0.09305 0.24900 0.22216
 H779 H 0.05498 0.24637 0.17736
 H780 H 0.13796 0.22697 0.24380
 H781 H 0.04430 0.26337 0.11686
 H782 H 0.17434 0.24118 0.17491
 C783 C 0.56270 0.75739 0.58097
 C784 C 0.57887 0.73645 0.58886
 C785 C 0.60188 0.74061 0.61555
 C786 C 0.62666 0.72962 0.60799
 C787 C 0.64908 0.73383 0.63228
 C788 C 0.64682 0.74853 0.66502
 C789 C 0.62166 0.75863 0.67328
 C790 C 0.59944 0.75506 0.64849
 C791 C 0.67034 0.75273 0.69097
 C792 C 0.69785 0.75952 0.67885
 H793 H 0.57652 0.71760 0.57233
 H794 H 0.62883 0.71817 0.58294
 H795 H 0.66806 0.72523 0.62571
 H796 H 0.61941 0.76969 0.69861
 H797 H 0.58027 0.76321 0.65526
 H798 H 0.66592 0.75105 0.71988
 H799 H 0.56700 0.77750 0.59459
 H800 H 0.70180 0.76404 0.65026
   
