data_POSCAR
  _audit_creation_date              2014-09-24
  _audit_creation_method            'ToBaCCo'
  _symmetry_space_group_name_H-M    'P1'
  _symmetry_Int_Tables_number       1
  _symmetry_cell_setting            triclinic
  loop_
  _symmetry_equiv_pos_as_xyz
 x,y,z
_cell_length_a 47.2171
_cell_length_b 27.1423
_cell_length_c 15.5771
_cell_angle_alpha 90.376400
_cell_angle_beta 90.040500
_cell_angle_gamma 89.949800
loop_
  _atom_site_label
  _atom_site_type_symbol
  _atom_site_fract_x
  _atom_site_fract_y
  _atom_site_fract_z
C1 C 0.72233 0.25818 0.55082
 C2 C 0.72342 0.26385 0.46017
 C3 C 0.74708 0.24683 0.41456
 C4 C 0.76989 0.22345 0.45551
 C5 C 0.76953 0.21924 0.54689
 C6 C 0.74558 0.23620 0.59233
 H7 H 0.74519 0.23298 0.66164
 H8 H 0.74718 0.25062 0.34528
 C9 C 0.22557 0.76719 0.54936
 C10 C 0.22611 0.77094 0.45909
 C11 C 0.24977 0.75388 0.41374
 C12 C 0.27284 0.73261 0.45646
 C13 C 0.27264 0.72892 0.54770
 C14 C 0.24857 0.74592 0.59247
 H15 H 0.24816 0.74501 0.66204
 H16 H 0.24984 0.75575 0.34420
 C17 C 0.26923 0.27909 -0.53970
 C18 C 0.27079 0.27239 -0.45013
 C19 C 0.24951 0.24654 -0.40751
 C20 C 0.22569 0.22833 -0.45170
 C21 C 0.22428 0.23416 -0.54297
 C22 C 0.24573 0.26098 -0.58479
 H23 H 0.24544 0.26438 -0.65412
 H24 H 0.25064 0.24408 -0.33813
 C25 C -0.23146 0.78082 -0.54144
 C26 C -0.22879 0.77167 -0.45285
 C27 C -0.24922 0.74348 -0.41083
 C28 C -0.27318 0.72501 -0.45461
 C29 C -0.27572 0.73396 -0.54481
 C30 C -0.25523 0.76321 -0.58582
 H31 H -0.25650 0.76899 -0.65457
 H32 H -0.24730 0.73916 -0.34193
 O33 O -0.03968 1.08642 -0.15668
 O34 O -0.07112 1.04424 -0.07310
 C35 C -0.06524 1.07482 -0.13407
 O36 O 0.03860 0.90954 -0.14277
 O37 O 0.06960 0.95731 -0.06530
 C38 C 0.06407 0.92289 -0.12086
 O39 O -0.04124 0.91485 -0.15069
 O40 O -0.07209 0.96237 -0.07170
 C41 C -0.06660 0.92943 -0.13005
 O42 O 0.03901 1.08938 -0.14711
 O43 O 0.07003 1.04303 -0.06846
 C44 C 0.06444 1.07660 -0.12504
 Zr45 Zr -0.00053 1.06270 -0.10593
 O46 O 0.00291 1.06077 -0.24143
 O47 O -0.00333 1.14056 -0.10723
 Zr48 Zr -0.00123 0.93800 -0.10258
 O49 O 0.00195 0.93553 -0.23808
 O50 O -0.00472 0.86028 -0.09824
 O51 O -0.02605 1.00064 -0.12177
 O52 O 0.02371 0.99976 -0.11953
 O53 O 0.03919 1.09324 0.15121
 O54 O 0.07000 1.04330 0.07665
 C55 C 0.06448 1.07822 0.13107
 O56 O -0.04186 0.92034 0.16324
 O57 O -0.07238 0.96416 0.07825
 C58 C -0.06719 0.93370 0.13997
 O59 O 0.03791 0.91302 0.15580
 O60 O 0.06955 0.95917 0.07877
 C61 C 0.06354 0.92559 0.13477
 O62 O -0.04079 1.09051 0.15696
 O63 O -0.07193 1.04407 0.07684
 C64 C -0.06618 1.07675 0.13521
 Zr65 Zr -0.00086 1.06587 0.11065
 O66 O 0.00195 1.06765 0.24628
 O67 O -0.00355 1.14371 0.10759
 Zr68 Zr -0.00166 0.94108 0.11392
 O69 O 0.00132 0.94166 0.24950
 O70 O -0.00556 0.86338 0.11459
 Zr71 Zr -0.04312 1.00275 0.00313
 Zr72 Zr 0.04113 1.00117 0.00488
 O73 O 0.02322 1.00314 0.12863
 O74 O -0.02641 1.00419 0.12871
 O75 O 0.02472 1.07344 0.00249
 O76 O -0.02620 0.93106 0.00551
 O77 O -0.02529 1.07373 0.00163
 O78 O 0.02387 0.92950 0.00649
 H79 H 0.03653 0.99901 -0.16985
 H80 H -0.03940 0.90270 0.00634
 H81 H 0.03582 1.00340 0.17951
 H82 H -0.03799 1.10280 0.00062
 H83 H 0.01174 0.84771 -0.06572
 H84 H 0.01056 0.84968 0.08166
 H85 H -0.01342 0.96441 0.27131
 H86 H -0.01419 1.04853 0.26895
 H87 H 0.01277 1.15582 0.07400
 H88 H 0.01257 1.15362 -0.07258
 H89 H -0.01276 1.04014 -0.26365
 H90 H -0.01351 0.95611 -0.26141
 O91 O 0.45916 0.42150 0.16851
 O92 O 0.42827 0.46452 0.08370
 C93 C 0.43376 0.43428 0.14579
 O94 O 0.54164 0.59275 0.14147
 O95 O 0.57140 0.53958 0.06975
 C96 C 0.56667 0.57621 0.12160
 O97 O 0.46159 0.59253 0.15337
 O98 O 0.42954 0.54550 0.07788
 C99 C 0.43592 0.57876 0.13458
 O100 O 0.53818 0.41338 0.16066
 O101 O 0.56978 0.45536 0.07637
 C102 C 0.56365 0.42441 0.13640
 Zr103 Zr 0.49886 0.44117 0.11665
 O104 O 0.50225 0.44478 0.25206
 O105 O 0.49451 0.36358 0.12120
 Zr106 Zr 0.50101 0.56575 0.10559
 O107 O 0.50483 0.57032 0.24082
 O108 O 0.49913 0.64353 0.09791
 O109 O 0.47485 0.50539 0.12897
 O110 O 0.52448 0.50257 0.12606
 O111 O 0.53630 0.40258 -0.14026
 O112 O 0.56892 0.44973 -0.06807
 C113 C 0.56216 0.41443 -0.12097
 O114 O 0.46095 0.58229 -0.16039
 O115 O 0.42924 0.54327 -0.07279
 C116 C 0.43531 0.57241 -0.13589
 O117 O 0.54042 0.58191 -0.15493
 O118 O 0.57093 0.53560 -0.07409
 C119 C 0.56575 0.56827 -0.13240
 O120 O 0.45711 0.41153 -0.14372
 O121 O 0.42733 0.46193 -0.06645
 C122 C 0.43210 0.42763 -0.12287
 Zr123 Zr 0.49762 0.43403 -0.09957
 O124 O 0.49993 0.42960 -0.23514
 O125 O 0.49306 0.35659 -0.09185
 Zr126 Zr 0.50024 0.55829 -0.11052
 O127 O 0.50283 0.55426 -0.24605
 O128 O 0.49854 0.63618 -0.11578
 Zr129 Zr 0.45730 0.50226 0.00454
 Zr130 Zr 0.54162 0.49710 0.00158
 O131 O 0.52345 0.49409 -0.12171
 O132 O 0.47364 0.49722 -0.12111
 O133 O 0.52341 0.42637 0.00844
 O134 O 0.47608 0.57240 -0.00246
 O135 O 0.47343 0.43009 0.01027
 O136 O 0.52616 0.56999 -0.00414
 H137 H 0.53734 0.50362 0.17633
 H138 H 0.46368 0.60185 -0.00432
 H139 H 0.53598 0.49173 -0.17256
 H140 H 0.46004 0.40205 0.01302
 H141 H 0.51505 0.65431 0.06139
 H142 H 0.51537 0.64910 -0.08525
 H143 H 0.48706 0.53319 -0.26624
 H144 H 0.48415 0.44940 -0.25858
 H145 H 0.50877 0.34405 -0.05608
 H146 H 0.51092 0.34896 0.09092
 H147 H 0.48753 0.46789 0.27289
 H148 H 0.48881 0.55185 0.26575
 C149 C 0.34033 0.34193 0.32666
 C150 C 0.31281 0.36139 0.31394
 C151 C 0.28952 0.34082 0.35727
 C152 C 0.29332 0.30057 0.41218
 C153 C 0.32034 0.27990 0.42090
 C154 C 0.34358 0.30036 0.37940
 C155 C 0.36477 0.36576 0.28195
 C156 C 0.39305 0.35159 0.29632
 C157 C 0.41514 0.37430 0.25263
 C158 C 0.40980 0.41170 0.19293
 C159 C 0.38166 0.42663 0.17890
 C160 C 0.35923 0.40456 0.22406
 C161 C 0.30878 0.40081 0.25754
 C162 C 0.33141 0.42142 0.21256
 H163 H 0.28773 0.41560 0.24720
 H164 H 0.32711 0.45146 0.16893
 H165 H 0.26852 0.35624 0.34896
 H166 H 0.32348 0.24758 0.46015
 H167 H 0.43655 0.36203 0.26547
 H168 H 0.37717 0.45566 0.13340
 H169 H 0.36377 0.28264 0.38883
 H170 H 0.39869 0.32337 0.34160
 C171 C -0.16371 0.85093 0.32006
 C172 C -0.15851 0.80870 0.37052
 C173 C -0.18084 0.78576 0.41375
 C174 C -0.20836 0.80499 0.41011
 C175 C -0.21365 0.84670 0.36024
 C176 C -0.19162 0.86952 0.31565
 C177 C -0.13923 0.87366 0.27348
 C178 C -0.14221 0.91461 0.21914
 C179 C -0.11884 0.93381 0.17602
 C180 C -0.09179 0.91311 0.18642
 C181 C -0.08855 0.87261 0.24101
 C182 C -0.11198 0.85257 0.28381
 C183 C -0.13107 0.78961 0.37795
 C184 C -0.10828 0.81126 0.33597
 H185 H -0.12712 0.75748 0.41716
 H186 H -0.08744 0.79511 0.34390
 H187 H -0.17685 0.75267 0.45041
 H188 H -0.23483 0.86189 0.35654
 H189 H -0.12200 0.96526 0.13463
 H190 H -0.06782 0.85608 0.24926
 H191 H -0.19689 0.90170 0.27871
 H192 H -0.16238 0.93218 0.20847
 C193 C 0.66098 0.66272 0.30579
 C194 C 0.66511 0.71416 0.29928
 C195 C 0.68732 0.73702 0.34463
 C196 C 0.70377 0.71013 0.40343
 C197 C 0.69877 0.65935 0.41192
 C198 C 0.67795 0.63584 0.36318
 C199 C 0.63764 0.63945 0.25470
 C200 C 0.63476 0.58805 0.24580
 C201 C 0.61212 0.56805 0.19993
 C202 C 0.59141 0.59862 0.16404
 C203 C 0.59453 0.64990 0.16978
 C204 C 0.61808 0.67046 0.21227
 C205 C 0.64615 0.74266 0.25118
 C206 C 0.62258 0.72149 0.21111
 H207 H 0.64897 0.78220 0.24712
 H208 H 0.60799 0.74531 0.17727
 H209 H 0.69040 0.77648 0.33920
 H210 H 0.71130 0.63752 0.45587
 H211 H 0.61040 0.52841 0.19414
 H212 H 0.57899 0.67361 0.13956
 H213 H 0.67487 0.59691 0.37323
 H214 H 0.64999 0.56281 0.27278
 C215 C 0.15993 1.16201 0.31278
 C216 C 0.16732 1.21136 0.29450
 C217 C 0.18971 1.23420 0.33903
 C218 C 0.20373 1.20967 0.40613
 C219 C 0.19638 1.16050 0.42321
 C220 C 0.17493 1.13698 0.37731
 C221 C 0.13573 1.13912 0.26485
 C222 C 0.12818 1.08918 0.27386
 C223 C 0.10499 1.06993 0.22975
 C224 C 0.08864 1.09991 0.17651
 C225 C 0.09605 1.14937 0.16549
 C226 C 0.11984 1.16895 0.20806
 C227 C 0.15157 1.23822 0.23450
 C228 C 0.12803 1.21776 0.19341
 H229 H 0.15708 1.27611 0.22074
 H230 H 0.11617 1.24044 0.14905
 H231 H 0.19484 1.27232 0.32558
 H232 H 0.20742 1.13989 0.47231
 H233 H 0.09950 1.03151 0.23813
 H234 H 0.08365 1.17216 0.12259
 H235 H 0.17007 1.09959 0.39489
 H236 H 0.13997 1.06425 0.31394
 C237 C 0.65241 0.31336 -0.30527
 C238 C 0.68046 0.32112 -0.27632
 C239 C 0.70337 0.30093 -0.32217
 C240 C 0.69900 0.27454 -0.39926
 C241 C 0.67100 0.26575 -0.42597
 C242 C 0.64809 0.28482 -0.38001
 C243 C 0.62861 0.33701 -0.25624
 C244 C 0.59998 0.33093 -0.27921
 C245 C 0.57865 0.35533 -0.23400
 C246 C 0.58513 0.38667 -0.16467
 C247 C 0.61356 0.39206 -0.13976
 C248 C 0.63524 0.36734 -0.18467
 C249 C 0.68556 0.35026 -0.20332
 C250 C 0.66347 0.37314 -0.15887
 H251 H 0.70705 0.35624 -0.18106
 H252 H 0.66861 0.39600 -0.10372
 H253 H 0.72476 0.30862 -0.30054
 H254 H 0.66669 0.24350 -0.48242
 H255 H 0.55695 0.35020 -0.25476
 H256 H 0.61888 0.41575 -0.08580
 H257 H 0.62725 0.27719 -0.40495
 H258 H 0.59352 0.30781 -0.33221
 C259 C 0.15906 0.83425 -0.30177
 C260 C 0.15388 0.79003 -0.34794
 C261 C 0.17581 0.76753 -0.39488
 C262 C 0.20258 0.78952 -0.39920
 C263 C 0.20770 0.83330 -0.35407
 C264 C 0.18628 0.85548 -0.30575
 C265 C 0.13517 0.85692 -0.25192
 C266 C 0.13853 0.89947 -0.20072
 C267 C 0.11553 0.91999 -0.15733
 C268 C 0.08848 0.89887 -0.16376
 C269 C 0.08499 0.85583 -0.21312
 C270 C 0.10812 0.83454 -0.25647
 C271 C 0.12680 0.76899 -0.34802
 C272 C 0.10435 0.79107 -0.30409
 H273 H 0.12280 0.73530 -0.38370
 H274 H 0.08371 0.77371 -0.30721
 H275 H 0.17204 0.73305 -0.42837
 H276 H 0.22836 0.85056 -0.35680
 H277 H 0.11895 0.95316 -0.11968
 H278 H 0.06427 0.83882 -0.21786
 H279 H 0.19144 0.88943 -0.27308
 H280 H 0.15869 0.91760 -0.19323
 C281 C 0.34308 0.66846 -0.31799
 C282 C 0.31512 0.65768 -0.29152
 C283 C 0.29191 0.67873 -0.33460
 C284 C 0.29600 0.70991 -0.40556
 C285 C 0.32392 0.72219 -0.42825
 C286 C 0.34704 0.70173 -0.38579
 C287 C 0.36727 0.64417 -0.27225
 C288 C 0.39575 0.65136 -0.29580
 C289 C 0.41755 0.62794 -0.25158
 C290 C 0.41172 0.59655 -0.18258
 C291 C 0.38335 0.58884 -0.15883
 C292 C 0.36118 0.61219 -0.20327
 C293 C 0.31050 0.62560 -0.22279
 C294 C 0.33302 0.60353 -0.17942
 H295 H 0.28911 0.61736 -0.20221
 H296 H 0.32828 0.57901 -0.12671
 H297 H 0.27062 0.66882 -0.31524
 H298 H 0.32807 0.74906 -0.47759
 H299 H 0.43914 0.63459 -0.27183
 H300 H 0.37845 0.56464 -0.10579
 H301 H 0.36778 0.71286 -0.40695
 H302 H 0.40176 0.67472 -0.34840
 C303 C -0.15893 1.16555 -0.31634
 C304 C -0.18663 1.15205 -0.29119
 C305 C -0.21022 1.17091 -0.33510
 C306 C -0.20676 1.20255 -0.40557
 C307 C -0.17918 1.21754 -0.42733
 C308 C -0.15567 1.19925 -0.38391
 C309 C -0.13429 1.14322 -0.27001
 C310 C -0.10594 1.15311 -0.29208
 C311 C -0.08371 1.13097 -0.24778
 C312 C -0.08904 1.09832 -0.18026
 C313 C -0.11724 1.08826 -0.15763
 C314 C -0.13979 1.11020 -0.20208
 C315 C -0.19064 1.11928 -0.22318
 C316 C -0.16773 1.09895 -0.17939
 H317 H -0.21185 1.10901 -0.20367
 H318 H -0.17196 1.07366 -0.12738
 H319 H -0.23125 1.15880 -0.31698
 H320 H -0.17570 1.24408 -0.47783
 H321 H -0.06223 1.13946 -0.26691
 H322 H -0.12172 1.06314 -0.10556
 H323 H -0.13519 1.21207 -0.40448
 H324 H -0.10037 1.17754 -0.34363
 C325 C 0.66100 0.65750 -0.30970
 C326 C 0.65446 0.69042 -0.37685
 C327 C 0.67623 0.71301 -0.42330
 C328 C 0.70491 0.70277 -0.40590
 C329 C 0.71124 0.67106 -0.33736
 C330 C 0.68970 0.64857 -0.29033
 C331 C 0.63700 0.63390 -0.26210
 C332 C 0.64113 0.60011 -0.19491
 C333 C 0.61804 0.57903 -0.15293
 C334 C 0.59020 0.59103 -0.17663
 C335 C 0.58588 0.62470 -0.24341
 C336 C 0.60893 0.64600 -0.28618
 C337 C 0.62622 0.70084 -0.39740
 C338 C 0.60395 0.67914 -0.35300
 H339 H 0.62123 0.72608 -0.44890
 H340 H 0.58246 0.68837 -0.37150
 H341 H 0.67068 0.73971 -0.47191
 H342 H 0.73298 0.66192 -0.32185
 H343 H 0.62209 0.55318 -0.10168
 H344 H 0.56452 0.63430 -0.26268
 H345 H 0.69603 0.62409 -0.23958
 H346 H 0.66197 0.58930 -0.17384
 C347 C 0.15623 1.17131 -0.30952
 C348 C 0.18429 1.15844 -0.28704
 C349 C 0.20725 1.17843 -0.33256
 C350 C 0.20271 1.20991 -0.40287
 C351 C 0.17474 1.22336 -0.42304
 C352 C 0.15191 1.20439 -0.37752
 C353 C 0.13228 1.14852 -0.26079
 C354 C 0.10374 1.15959 -0.27802
 C355 C 0.08211 1.13656 -0.23301
 C356 C 0.08812 1.10170 -0.16932
 C357 C 0.11656 1.09092 -0.15038
 C358 C 0.13862 1.11416 -0.19548
 C359 C 0.18922 1.12495 -0.22051
 C360 C 0.16689 1.10309 -0.17606
 H361 H 0.21070 1.11498 -0.20320
 H362 H 0.17184 1.07699 -0.12587
 H363 H 0.22862 1.16732 -0.31595
 H364 H 0.17039 1.24947 -0.47366
 H365 H 0.06047 1.14600 -0.24913
 H366 H 0.12155 1.06426 -0.10110
 H367 H 0.13111 1.21608 -0.39727
 H368 H 0.09750 1.18575 -0.32618
 C369 C 0.33701 0.34224 -0.30505
 C370 C 0.33728 0.29055 -0.31817
 C371 C 0.31499 0.26764 -0.36269
 C372 C 0.29329 0.29595 -0.39864
 C373 C 0.29344 0.34715 -0.38823
 C374 C 0.31492 0.37016 -0.34145
 C375 C 0.36084 0.36516 -0.25561
 C376 C 0.36100 0.41523 -0.23104
 C377 C 0.38399 0.43510 -0.18656
 C378 C 0.40749 0.40579 -0.16671
 C379 C 0.40735 0.35571 -0.18914
 C380 C 0.38395 0.33498 -0.23154
 C381 C 0.36018 0.26234 -0.28928
 C382 C 0.38333 0.28426 -0.24865
 H383 H 0.36054 0.22286 -0.30012
 H384 H 0.40085 0.26103 -0.22923
 H385 H 0.31500 0.22804 -0.37236
 H386 H 0.27686 0.36934 -0.41668
 H387 H 0.38365 0.47379 -0.16913
 H388 H 0.42525 0.33269 -0.17200
 H389 H 0.31417 0.40978 -0.33618
 H390 H 0.34351 0.43953 -0.24478
 C391 C -0.16180 0.84255 -0.31153
 C392 C -0.16048 0.79134 -0.32937
 C393 C -0.18301 0.76788 -0.37211
 C394 C -0.20614 0.79531 -0.40160
 C395 C -0.20709 0.84612 -0.38631
 C396 C -0.18533 0.86954 -0.34128
 C397 C -0.13768 0.86598 -0.26387
 C398 C -0.13826 0.91534 -0.23523
 C399 C -0.11522 0.93553 -0.19130
 C400 C -0.09087 0.90738 -0.17594
 C401 C -0.09010 0.85809 -0.20344
 C402 C -0.11353 0.83693 -0.24541
 C403 C -0.13637 0.76427 -0.30675
 C404 C -0.11317 0.78678 -0.26729
 H405 H -0.13518 0.72522 -0.32129
 H406 H -0.09482 0.76437 -0.25242
 H407 H -0.18211 0.72866 -0.38563
 H408 H -0.22473 0.86774 -0.40986
 H409 H -0.11631 0.97359 -0.17021
 H410 H -0.07153 0.83586 -0.19009
 H411 H -0.18704 0.90884 -0.33213
 H412 H -0.15642 0.93878 -0.24501
 C413 C 0.34003 0.66283 0.31467
 C414 C 0.33686 0.71471 0.31298
 C415 C 0.31388 0.73714 0.35520
 C416 C 0.29499 0.70874 0.40342
 C417 C 0.29826 0.65755 0.40578
 C418 C 0.32038 0.63471 0.36163
 C419 C 0.36472 0.64025 0.26864
 C420 C 0.36824 0.58893 0.26006
 C421 C 0.39158 0.56961 0.21686
 C422 C 0.41216 0.60069 0.18214
 C423 C 0.40903 0.65183 0.18988
 C424 C 0.38509 0.67183 0.23117
 C425 C 0.35718 0.74388 0.27201
 C426 C 0.38105 0.72297 0.23343
 H427 H 0.35492 0.78361 0.27137
 H428 H 0.39641 0.74719 0.20393
 H429 H 0.31151 0.77688 0.35465
 H430 H 0.28385 0.63529 0.44324
 H431 H 0.39375 0.53003 0.21114
 H432 H 0.42469 0.67588 0.16132
 H433 H 0.32210 0.59525 0.36712
 H434 H 0.35306 0.56304 0.28494
 C435 C -0.16270 1.16329 0.30750
 C436 C -0.17609 1.13452 0.37101
 C437 C -0.19854 1.15433 0.41914
 C438 C -0.20860 1.20231 0.40362
 C439 C -0.19676 1.22897 0.33535
 C440 C -0.17394 1.21007 0.28867
 C441 C -0.13742 1.14227 0.26213
 C442 C -0.12027 1.17026 0.20664
 C443 C -0.09676 1.14903 0.16647
 C444 C -0.09017 1.09947 0.17980
 C445 C -0.10677 1.07131 0.23534
 C446 C -0.12990 1.09264 0.27821
 C447 C -0.16717 1.08602 0.38551
 C448 C -0.14502 1.06513 0.33855
 H449 H -0.17769 1.06367 0.43325
 H450 H -0.13915 1.02725 0.35129
 H451 H -0.20849 1.13206 0.46816
 H452 H -0.20413 1.26580 0.32084
 H453 H -0.08388 1.17112 0.12397
 H454 H -0.10119 1.03313 0.24663
 H455 H -0.16538 1.23263 0.23820
 H456 H -0.12439 1.20869 0.19454
 C457 C 0.65732 0.33872 0.32165
 C458 C 0.66630 0.29111 0.29583
 C459 C 0.68802 0.26721 0.34086
 C460 C 0.70128 0.29031 0.41088
 C461 C 0.69345 0.33846 0.43349
 C462 C 0.67163 0.36235 0.38994
 C463 C 0.63308 0.36190 0.27474
 C464 C 0.62106 0.40731 0.29994
 C465 C 0.59830 0.42710 0.25472
 C466 C 0.58722 0.40243 0.18329
 C467 C 0.59863 0.35716 0.15764
 C468 C 0.62128 0.33640 0.20348
 C469 C 0.65357 0.26763 0.22537
 C470 C 0.63180 0.29009 0.17945
 H471 H 0.66064 0.23137 0.20516
 H472 H 0.62273 0.27051 0.12517
 H473 H 0.69435 0.23021 0.32244
 H474 H 0.70403 0.35733 0.48595
 H475 H 0.58918 0.46177 0.27577
 H476 H 0.58968 0.33801 0.10264
 H477 H 0.66638 0.39922 0.41062
 H478 H 0.62862 0.42780 0.35486
 C479 C 0.15596 0.83128 0.31784
 C480 C 0.18118 0.85891 0.32872
 C481 C 0.20392 0.83923 0.37570
 C482 C 0.20210 0.79190 0.41051
 C483 C 0.17775 0.76369 0.39625
 C484 C 0.15481 0.78316 0.35125
 C485 C 0.13181 0.85419 0.26980
 C486 C 0.10505 0.83163 0.26213
 C487 C 0.08308 0.85475 0.21784
 C488 C 0.08726 0.90064 0.17901
 C489 C 0.11390 0.92332 0.18574
 C490 C 0.13591 0.90104 0.23235
 C491 C 0.18364 0.90561 0.29170
 C492 C 0.16167 0.92588 0.24343
 H493 H 0.20299 0.92664 0.29942
 H494 H 0.16473 0.96197 0.21555
 H495 H 0.22312 0.86051 0.38499
 H496 H 0.17655 0.72632 0.41989
 H497 H 0.06273 0.83651 0.21383
 H498 H 0.11729 0.95904 0.15678
 H499 H 0.13661 0.75971 0.34234
 H500 H 0.10044 0.79657 0.29110
   
