data_POSCAR
  _audit_creation_date              2014-09-24
  _audit_creation_method            'ToBaCCo'
  _symmetry_space_group_name_H-M    'P1'
  _symmetry_Int_Tables_number       1
  _symmetry_cell_setting            triclinic
  loop_
  _symmetry_equiv_pos_as_xyz
 x,y,z
_cell_length_a 25.5087
_cell_length_b 27.4062
_cell_length_c 28.0076
_cell_angle_alpha 88.385400
_cell_angle_beta 88.105800
_cell_angle_gamma 90.242700
loop_
  _atom_site_label
  _atom_site_type_symbol
  _atom_site_fract_x
  _atom_site_fract_y
  _atom_site_fract_z
C1 C 0.28539 0.25896 0.21663
 N2 N 0.24708 0.29322 0.21871
 C3 C 0.20765 0.28931 0.25256
 N4 N 0.20699 0.25097 0.28451
 C5 C 0.24414 0.21573 0.28162
 N6 N 0.28328 0.22025 0.24787
 C7 C 0.70932 -0.22811 0.21139
 N8 N 0.73904 -0.26893 0.21637
 C9 C 0.76347 -0.27993 0.25770
 N10 N 0.75900 -0.24846 0.29433
 C11 C 0.72876 -0.20800 0.29051
 N12 N 0.70458 -0.19833 0.24901
 C13 C 0.73189 0.22770 0.78327
 N14 N 0.73325 0.19446 0.74827
 C15 C 0.76528 0.20172 0.70900
 N16 N 0.79502 0.24294 0.70417
 C17 C 0.79248 0.27755 0.73813
 N18 N 0.76118 0.26897 0.77760
 C19 C 0.30512 -0.24879 0.77026
 N20 N 0.27469 -0.28898 0.76544
 C21 C 0.24881 -0.29674 0.72478
 N22 N 0.25288 -0.26310 0.68826
 C23 C 0.28383 -0.22300 0.69197
 N24 N 0.30970 -0.21604 0.73288
 C25 C 0.75184 -0.22767 0.79292
 N26 N 0.77962 -0.26959 0.78989
 C27 C 0.80676 -0.28169 0.74953
 N28 N 0.80702 -0.24954 0.71154
 C29 C 0.78103 -0.20640 0.71402
 N30 N 0.75251 -0.19644 0.75441
 C31 C 0.29325 0.22276 0.77519
 N32 N 0.30336 0.19471 0.73673
 C33 C 0.27556 0.20042 0.69650
 N34 N 0.23769 0.23494 0.69444
 C35 C 0.22679 0.26318 0.73253
 N36 N 0.25511 0.25719 0.77257
 C37 C 0.28702 -0.24340 0.20784
 N38 N 0.24443 -0.27347 0.20883
 C39 C 0.20466 -0.26945 0.24205
 N40 N 0.20850 -0.23452 0.27519
 C41 C 0.25001 -0.20337 0.27430
 N42 N 0.28904 -0.20774 0.24061
 C43 C 0.69798 0.25809 0.21977
 N44 N 0.69427 0.22115 0.25303
 C45 C 0.71980 0.22421 0.29458
 N46 N 0.75097 0.26348 0.30126
 C47 C 0.75515 0.30101 0.26870
 N48 N 0.72799 0.29788 0.22780
 O49 O 0.21900 0.04606 0.44860
 O50 O 0.23300 -0.05296 0.53852
 O51 O 0.23422 0.04199 0.53993
 O52 O 0.22199 -0.04831 0.44603
 O53 O 0.30788 -0.04720 0.43347
 O54 O 0.32012 0.04398 0.52653
 O55 O 0.31896 -0.05215 0.52550
 O56 O 0.30486 0.04648 0.43468
 Cu57 Cu 0.21848 -0.00357 0.49480
 Cu58 Cu 0.32172 -0.00203 0.47922
 C59 C 0.25941 0.06236 0.42571
 C60 C 0.27814 -0.06962 0.54701
 C61 C 0.27925 0.05874 0.54867
 C62 C 0.26270 -0.06218 0.42285
 O63 O 0.79573 0.04852 0.53423
 O64 O 0.78139 -0.04396 0.44274
 O65 O 0.77698 0.05001 0.44288
 O66 O 0.79877 -0.04630 0.53402
 O67 O 0.71358 -0.05242 0.54789
 O68 O 0.69258 0.04892 0.46169
 O69 O 0.69613 -0.04622 0.45805
 O70 O 0.71145 0.04194 0.55316
 Cu71 Cu 0.79677 0.00259 0.48690
 Cu72 Cu 0.69483 -0.00198 0.50679
 C73 C 0.75640 0.05985 0.56048
 C74 C 0.73610 -0.06030 0.43412
 C75 C 0.73094 0.06578 0.43623
 C76 C 0.75984 -0.06681 0.55584
 O77 O 0.45201 0.20388 0.04955
 O78 O 0.55285 0.18935 -0.04607
 O79 O 0.55278 0.20196 0.04509
 O80 O 0.45046 0.19034 -0.04322
 O81 O 0.45557 0.26922 -0.05946
 O82 O 0.55194 0.28210 0.03470
 O83 O 0.55726 0.26963 -0.05593
 O84 O 0.45041 0.28338 0.03409
 Cu85 Cu 0.50129 0.18832 0.00240
 Cu86 Cu 0.50322 0.28417 -0.01316
 C87 C 0.43520 0.24620 0.05890
 C88 C 0.57337 0.22729 -0.06604
 C89 C 0.56966 0.24394 0.05523
 C90 C 0.43733 0.22729 -0.06825
 O91 O 0.55088 0.81490 0.03651
 O92 O 0.45864 0.80706 -0.06093
 O93 O 0.45019 0.80315 0.03263
 O94 O 0.56120 0.81498 -0.05535
 O95 O 0.56909 0.73478 -0.05304
 O96 O 0.46030 0.72348 0.03529
 O97 O 0.46582 0.72678 -0.05829
 O98 O 0.55871 0.73485 0.03919
 Cu99 Cu 0.50411 0.81802 -0.01240
 Cu100 Cu 0.51416 0.72183 -0.00995
 C101 C 0.56974 0.77644 0.05531
 C102 C 0.44561 0.76549 -0.07551
 C103 C 0.43692 0.76120 0.04983
 C104 C 0.58531 0.77660 -0.06758
 O105 O 0.03941 0.46157 0.22360
 O106 O -0.06559 0.55289 0.22430
 O107 O 0.03612 0.55757 0.21940
 O108 O -0.06220 0.45877 0.22884
 O109 O -0.06307 0.46292 0.30724
 O110 O 0.03799 0.55890 0.29812
 O111 O -0.06374 0.55574 0.30294
 O112 O 0.03934 0.46185 0.30251
 Cu113 Cu -0.01265 0.50760 0.21610
 Cu114 Cu -0.01128 0.50995 0.31069
 C115 C 0.05599 0.44509 0.26303
 C116 C -0.08353 0.56894 0.26364
 C117 C 0.05258 0.57601 0.25721
 C118 C -0.08010 0.44431 0.26976
 O119 O 0.07423 0.53331 0.76778
 O120 O -0.03621 0.44534 0.77131
 O121 O 0.06560 0.43864 0.76854
 O122 O -0.02713 0.53992 0.77888
 O123 O -0.03419 0.54350 0.70087
 O124 O 0.06356 0.44460 0.68983
 O125 O -0.03796 0.44943 0.69252
 O126 O 0.06850 0.54048 0.68941
 Cu127 Cu 0.01950 0.48887 0.77939
 Cu128 Cu 0.01492 0.49539 0.68531
 C129 C 0.09013 0.55180 0.72772
 C130 C -0.05574 0.43224 0.73237
 C131 C 0.08012 0.42399 0.72770
 C132 C -0.04805 0.55814 0.74216
 C133 C 0.37978 0.24760 0.18725
 C134 C 0.32722 0.26144 0.17865
 C135 C 0.31308 0.27384 0.13189
 C136 C 0.34888 0.26975 0.09354
 C137 C 0.39955 0.25239 0.10075
 C138 C 0.41585 0.24203 0.14789
 C139 C 0.39781 0.24039 0.23414
 C140 C 0.44930 0.22611 0.24192
 C141 C 0.48405 0.21934 0.20342
 C142 C 0.46775 0.22740 0.15688
 H143 H 0.37298 0.24696 0.26528
 H144 H 0.46244 0.22069 0.27804
 H145 H 0.52407 0.20846 0.20964
 H146 H 0.49637 0.22261 0.12823
 H147 H 0.27333 0.28493 0.12468
 H148 H 0.33637 0.27855 0.05773
 C149 C 0.64601 0.82105 0.16246
 C150 C 0.68001 0.78012 0.16961
 C151 C 0.67974 0.74309 0.13575
 C152 C 0.64423 0.74328 0.09933
 C153 C 0.60613 0.77961 0.09546
 C154 C 0.60570 0.81830 0.12831
 C155 C 0.65087 0.86501 0.18749
 C156 C 0.61266 0.90106 0.18512
 C157 C 0.56930 0.89474 0.15728
 C158 C 0.56578 0.85403 0.12890
 H159 H 0.68487 0.87335 0.20766
 H160 H 0.61655 0.93389 0.20536
 H161 H 0.53878 0.92207 0.15679
 H162 H 0.53088 0.85082 0.10850
 H163 H 0.70616 0.71234 0.13790
 H164 H 0.64606 0.71379 0.07437
 C165 C 0.70833 0.23728 -0.12840
 C166 C 0.69564 0.22132 -0.17452
 C167 C 0.64528 0.20267 -0.18169
 C168 C 0.60664 0.20300 -0.14540
 C169 C 0.61704 0.22258 -0.10114
 C170 C 0.66830 0.23897 -0.09181
 C171 C 0.76004 0.25064 -0.11734
 C172 C 0.77139 0.26726 -0.07219
 C173 C 0.73185 0.27037 -0.03702
 C174 C 0.68080 0.25622 -0.04650
 H175 H 0.79250 0.24714 -0.14275
 H176 H 0.81118 0.27739 -0.06435
 H177 H 0.74091 0.28315 -0.00199
 H178 H 0.65152 0.25831 -0.01787
 H179 H 0.63492 0.18982 -0.21639
 H180 H 0.56761 0.18993 -0.15262
 C181 C 0.32233 0.73276 -0.14309
 C182 C 0.33411 0.75756 -0.18796
 C183 C 0.37878 0.78810 -0.19152
 C184 C 0.41382 0.79039 -0.15465
 C185 C 0.40593 0.76236 -0.11264
 C186 C 0.35936 0.73428 -0.10591
 C187 C 0.27339 0.70938 -0.13257
 C188 C 0.26326 0.68494 -0.08891
 C189 C 0.30044 0.68470 -0.05384
 C190 C 0.34756 0.70979 -0.06182
 H191 H 0.24107 0.71156 -0.15633
 H192 H 0.22575 0.66709 -0.08183
 H193 H 0.29204 0.66633 -0.01970
 H194 H 0.37389 0.71103 -0.03263
 H195 H 0.38866 0.80879 -0.22413
 H196 H 0.44849 0.81320 -0.15964
 C197 C 0.11233 0.31624 0.26288
 C198 C 0.16655 0.32735 0.25522
 C199 C 0.18252 0.37636 0.25027
 C200 C 0.14634 0.41415 0.25370
 C201 C 0.09314 0.40412 0.26268
 C202 C 0.07562 0.35506 0.26752
 C203 C 0.09321 0.26768 0.26418
 C204 C 0.03996 0.25765 0.27232
 C205 C 0.00453 0.29554 0.27848
 C206 C 0.02198 0.34379 0.27572
 H207 H 0.11857 0.23695 0.25785
 H208 H 0.02606 0.22024 0.27345
 H209 H -0.03678 0.28758 0.28473
 H210 H -0.00690 0.37212 0.27972
 H211 H 0.22358 0.38556 0.24406
 H212 H 0.15996 0.45156 0.24927
 C213 C 0.22296 0.61443 0.74400
 C214 C 0.21270 0.66080 0.72218
 C215 C 0.16484 0.66816 0.69987
 C216 C 0.12633 0.63199 0.70122
 C217 C 0.13390 0.58743 0.72556
 C218 C 0.18283 0.57786 0.74650
 C219 C 0.27267 0.60280 0.76200
 C220 C 0.28185 0.55740 0.78375
 C221 C 0.24231 0.52230 0.78720
 C222 C 0.19344 0.53210 0.76844
 H223 H 0.30549 0.62776 0.75827
 H224 H 0.32011 0.54918 0.79743
 H225 H 0.24983 0.48695 0.80374
 H226 H 0.16456 0.50319 0.77061
 H227 H 0.15627 0.70296 0.68261
 H228 H 0.08941 0.63954 0.68449
 C229 C -0.21125 0.63541 0.23440
 C230 C -0.20471 0.67814 0.26187
 C231 C -0.16314 0.67939 0.29363
 C232 C -0.12535 0.64312 0.29434
 C233 C -0.12761 0.60381 0.26377
 C234 C -0.17194 0.59838 0.23498
 C235 C -0.25760 0.62648 0.20941
 C236 C -0.26340 0.58447 0.18319
 C237 C -0.22438 0.54934 0.18265
 C238 C -0.17955 0.55562 0.20884
 H239 H -0.29120 0.65015 0.21155
 H240 H -0.29907 0.57853 0.16423
 H241 H -0.22962 0.51628 0.16304
 H242 H -0.15218 0.52571 0.20952
 H243 H -0.15757 0.71026 0.31630
 H244 H -0.09285 0.64689 0.31788
 C245 C -0.18509 0.36308 0.76098
 C246 C -0.17591 0.32028 0.73370
 C247 C -0.13148 0.31973 0.70256
 C248 C -0.09416 0.35686 0.70206
 C249 C -0.09899 0.39588 0.73296
 C250 C -0.14542 0.40010 0.76175
 C251 C -0.23389 0.37204 0.78481
 C252 C -0.24154 0.41333 0.81195
 C253 C -0.20184 0.44777 0.81461
 C254 C -0.15460 0.44183 0.78918
 H255 H -0.26788 0.34918 0.78099
 H256 H -0.27901 0.41922 0.83011
 H257 H -0.20852 0.48004 0.83518
 H258 H -0.12617 0.47093 0.79005
 H259 H -0.12367 0.28910 0.67981
 H260 H -0.06012 0.35406 0.67828
 C261 C 0.25736 0.12564 0.30257
 C262 C 0.24343 0.17367 0.31608
 C263 C 0.23128 0.18252 0.36425
 C264 C 0.23562 0.14573 0.39920
 C265 C 0.25336 0.09932 0.38717
 C266 C 0.26370 0.08858 0.33860
 C267 C 0.26346 0.11302 0.25410
 C268 C 0.27778 0.06589 0.24163
 C269 C 0.28577 0.03026 0.27693
 C270 C 0.27869 0.04128 0.32495
 H271 H 0.25574 0.13872 0.22527
 H272 H 0.28228 0.05687 0.20435
 H273 H 0.29671 -0.00632 0.26706
 H274 H 0.28431 0.01222 0.35108
 H275 H 0.21983 0.21865 0.37521
 H276 H 0.22644 0.15396 0.43613
 C277 C 0.81014 0.13482 0.66275
 C278 C 0.76647 0.16544 0.67123
 C279 C 0.72152 0.16012 0.64471
 C280 C 0.71953 0.12585 0.60918
 C281 C 0.76206 0.09495 0.59949
 C282 C 0.80764 0.09836 0.62741
 C283 C 0.85556 0.13857 0.68992
 C284 C 0.89734 0.10667 0.68317
 C285 C 0.89431 0.06997 0.65008
 C286 C 0.84992 0.06540 0.62277
 H287 H 0.85898 0.16577 0.71692
 H288 H 0.93186 0.10988 0.70435
 H289 H 0.92638 0.04454 0.64586
 H290 H 0.84906 0.03496 0.59925
 H291 H 0.68774 0.18313 0.65129
 H292 H 0.68426 0.12371 0.58879
 C293 C 0.29915 -0.19569 0.60503
 C294 C 0.28621 -0.18516 0.65331
 C295 C 0.27325 -0.13731 0.66532
 C296 C 0.27114 -0.10036 0.63034
 C297 C 0.28291 -0.10993 0.58242
 C298 C 0.29729 -0.15770 0.56926
 C299 C 0.31468 -0.24286 0.59149
 C300 C 0.32652 -0.25266 0.54374
 C301 C 0.32342 -0.21583 0.50870
 C302 C 0.30904 -0.16874 0.52117
 H303 H 0.31833 -0.27241 0.61755
 H304 H 0.33821 -0.28904 0.53387
 H305 H 0.33243 -0.22373 0.47168
 H306 H 0.30716 -0.14118 0.49291
 H307 H 0.26328 -0.12873 0.70204
 H308 H 0.26002 -0.06394 0.64073
 C309 C 0.68128 -0.14183 0.33755
 C310 C 0.72529 -0.17273 0.32979
 C311 C 0.76967 -0.16674 0.35722
 C312 C 0.77200 -0.13018 0.39042
 C313 C 0.73059 -0.09731 0.39686
 C314 C 0.68516 -0.10207 0.36913
 C315 C 0.63318 -0.14963 0.31513
 C316 C 0.59234 -0.11629 0.31923
 C317 C 0.59819 -0.07489 0.34607
 C318 C 0.64389 -0.06780 0.37093
 H319 H 0.62595 -0.18186 0.29501
 H320 H 0.55614 -0.12241 0.30113
 H321 H 0.56689 -0.04840 0.34816
 H322 H 0.64654 -0.03470 0.39049
 H323 H 0.80363 -0.18988 0.35221
 H324 H 0.80693 -0.12747 0.41121
 C325 C 0.72288 0.75534 -0.12190
 C326 C 0.71787 0.78027 -0.16703
 C327 C 0.67382 0.81038 -0.17340
 C328 C 0.63222 0.81013 -0.13994
 C329 C 0.63321 0.78032 -0.09870
 C330 C 0.67973 0.75455 -0.08808
 C331 C 0.77056 0.73349 -0.10828
 C332 C 0.77438 0.70858 -0.06449
 C333 C 0.73168 0.70631 -0.03244
 C334 C 0.68509 0.72962 -0.04361
 H335 H 0.80615 0.73703 -0.13007
 H336 H 0.81108 0.69181 -0.05497
 H337 H 0.73512 0.68758 0.00186
 H338 H 0.65412 0.72903 -0.01639
 H339 H 0.66914 0.83149 -0.20625
 H340 H 0.59763 0.83138 -0.14769
 C341 C 0.35371 0.17595 -0.16821
 C342 C 0.32636 0.21903 -0.18190
 C343 C 0.33433 0.26163 -0.15648
 C344 C 0.36971 0.26290 -0.11984
 C345 C 0.40009 0.22213 -0.10781
 C346 C 0.39341 0.17833 -0.13341
 C347 C 0.34231 0.13029 -0.18785
 C348 C 0.37296 0.08953 -0.17806
 C349 C 0.41543 0.09328 -0.14860
 C350 C 0.42577 0.13705 -0.12650
 H351 H 0.30900 0.12506 -0.20995
 H352 H 0.36408 0.05501 -0.19390
 H353 H 0.44020 0.06192 -0.14239
 H354 H 0.46013 0.13785 -0.10519
 H355 H 0.31385 0.29497 -0.16567
 H356 H 0.37382 0.29668 -0.10110
 C357 C 0.33541 0.71043 0.14425
 C358 C 0.32662 0.75324 0.17133
 C359 C 0.35619 0.79532 0.15877
 C360 C 0.39009 0.79698 0.11888
 C361 C 0.39619 0.75685 0.08928
 C362 C 0.36751 0.71313 0.10135
 C363 C 0.31571 0.66414 0.16008
 C364 C 0.32050 0.62358 0.13151
 C365 C 0.34608 0.62774 0.08712
 C366 C 0.36979 0.67169 0.07227
 H367 H 0.29835 0.65802 0.19539
 H368 H 0.30433 0.58874 0.14394
 H369 H 0.34878 0.59638 0.06452
 H370 H 0.38921 0.67213 0.03765
 H371 H 0.35188 0.82837 0.17884
 H372 H 0.41209 0.83037 0.11130
 C373 C 0.68023 0.21776 0.14167
 C374 C 0.66978 0.25481 0.17491
 C375 C 0.63109 0.28945 0.16568
 C376 C 0.60057 0.28628 0.12563
 C377 C 0.60813 0.24862 0.09328
 C378 C 0.64966 0.21499 0.10010
 C379 C 0.72138 0.18416 0.14824
 C380 C 0.73245 0.14890 0.11450
 C381 C 0.70338 0.14679 0.07345
 C382 C 0.66259 0.17955 0.06602
 H383 H 0.74589 0.18530 0.17897
 H384 H 0.76425 0.12352 0.11990
 H385 H 0.71280 0.11989 0.04697
 H386 H 0.64247 0.17740 0.03280
 H387 H 0.62317 0.31822 0.19064
 H388 H 0.56930 0.31245 0.12092
 C389 C -0.16600 0.63660 0.78417
 C390 C -0.16353 0.67444 0.74769
 C391 C -0.12684 0.66936 0.70953
 C392 C -0.09097 0.63138 0.70881
 C393 C -0.08842 0.59720 0.74675
 C394 C -0.12585 0.60013 0.78569
 C395 C -0.20852 0.63226 0.81802
 C396 C -0.20743 0.59909 0.85642
 C397 C -0.16546 0.56766 0.86094
 C398 C -0.12602 0.56693 0.82546
 H399 H -0.24439 0.65244 0.81456
 H400 H -0.23975 0.59734 0.88248
 H401 H -0.16471 0.54195 0.89098
 H402 H -0.09673 0.53944 0.83037
 H403 H -0.12430 0.69588 0.68012
 H404 H -0.06341 0.62983 0.67860
 C405 C -0.17946 0.34629 0.31676
 C406 C -0.20883 0.34002 0.27456
 C407 C -0.19716 0.37120 0.23479
 C408 C -0.15559 0.40403 0.23444
 C409 C -0.12250 0.40672 0.27317
 C410 C -0.13334 0.37632 0.31443
 C411 C -0.19494 0.32479 0.36168
 C412 C -0.16221 0.32602 0.40044
 C413 C -0.11382 0.34924 0.39579
 C414 C -0.09947 0.37440 0.35348
 H415 H -0.23313 0.30854 0.36840
 H416 H -0.17437 0.30858 0.43419
 H417 H -0.08774 0.34876 0.42552
 H418 H -0.06118 0.39124 0.35196
 H419 H -0.21925 0.36952 0.20250
 H420 H -0.14899 0.42732 0.20288
 C421 C 0.13895 0.29770 0.70509
 C422 C 0.18658 0.30220 0.72985
 C423 C 0.19709 0.34588 0.75269
 C424 C 0.16246 0.38480 0.75087
 C425 C 0.11661 0.38228 0.72502
 C426 C 0.10451 0.33859 0.70156
 C427 C 0.12323 0.25304 0.68568
 C428 C 0.07669 0.24949 0.66126
 C429 C 0.04429 0.28983 0.65635
 C430 C 0.05768 0.33383 0.67657
 H431 H 0.14539 0.21992 0.69025
 H432 H 0.06540 0.21505 0.64653
 H433 H 0.00809 0.28677 0.63752
 H434 H 0.03069 0.36373 0.67277
 H435 H 0.23278 0.35017 0.77212
 H436 H 0.17178 0.41742 0.76983
 C437 C 0.11377 0.70309 0.27001
 C438 C 0.16216 0.69671 0.24338
 C439 C 0.16901 0.65299 0.21851
 C440 C 0.13304 0.61489 0.22333
 C441 C 0.08861 0.61838 0.25332
 C442 C 0.07786 0.66293 0.27623
 C443 C 0.09796 0.74885 0.28785
 C444 C 0.05120 0.75383 0.31435
 C445 C 0.01799 0.71404 0.32251
 C446 C 0.03061 0.66924 0.30313
 H447 H 0.11938 0.78211 0.27971
 H448 H 0.04014 0.78912 0.32778
 H449 H -0.01857 0.71827 0.34268
 H450 H 0.00222 0.64016 0.30855
 H451 H 0.20371 0.64678 0.19629
 H452 H 0.14085 0.58159 0.20442
 C453 C 0.82129 -0.16569 0.63717
 C454 C 0.77973 -0.17175 0.67213
 C455 C 0.73371 -0.14472 0.66667
 C456 C 0.72816 -0.11220 0.62842
 C457 C 0.76772 -0.10605 0.59280
 C458 C 0.81388 -0.13499 0.59575
 C459 C 0.87051 -0.18835 0.64260
 C460 C 0.90905 -0.18547 0.60621
 C461 C 0.89963 -0.15994 0.56384
 C462 C 0.85268 -0.13491 0.55848
 H463 H 0.88061 -0.20754 0.67511
 H464 H 0.94626 -0.20359 0.61074
 H465 H 0.92912 -0.15907 0.53513
 H466 H 0.84707 -0.11686 0.52433
 H467 H 0.70127 -0.14854 0.69249
 H468 H 0.69240 -0.09108 0.62720
 C469 C 0.21575 -0.12629 0.31161
 C470 C 0.25243 -0.16492 0.30988
 C471 C 0.29214 -0.16747 0.34303
 C472 C 0.29480 -0.13364 0.37900
 C473 C 0.25788 -0.09607 0.38293
 C474 C 0.21871 -0.09119 0.34811
 C475 C 0.17728 -0.12087 0.27676
 C476 C 0.14260 -0.08175 0.27762
 C477 C 0.14602 -0.04697 0.31260
 C478 C 0.18375 -0.05128 0.34734
 H479 H 0.17426 -0.14621 0.24804
 H480 H 0.11345 -0.07798 0.25056
 H481 H 0.11962 -0.01614 0.31252
 H482 H 0.18577 -0.02227 0.37248
 H483 H 0.32074 -0.19657 0.34165
 H484 H 0.32562 -0.13736 0.40453
 C485 C 0.67253 0.15435 0.34191
 C486 C 0.71772 0.18378 0.33115
 C487 C 0.76378 0.17419 0.35547
 C488 C 0.76641 0.13618 0.38896
 C489 C 0.72342 0.10520 0.39932
 C490 C 0.67597 0.11346 0.37468
 C491 C 0.62365 0.16504 0.32176
 C492 C 0.58062 0.13416 0.33000
 C493 C 0.58511 0.09231 0.35864
 C494 C 0.63201 0.08199 0.38087
 H495 H 0.61745 0.19765 0.30026
 H496 H 0.54365 0.14264 0.31384
 H497 H 0.55184 0.06789 0.36412
 H498 H 0.63291 0.04874 0.40210
 H499 H 0.79873 0.19615 0.34823
 H500 H 0.80297 0.13107 0.40705
 C501 C 0.28951 0.18169 0.60859
 C502 C 0.28271 0.16606 0.65713
 C503 C 0.27868 0.11605 0.66863
 C504 C 0.27863 0.08171 0.63295
 C505 C 0.28368 0.09630 0.58481
 C506 C 0.29011 0.14641 0.57212
 C507 C 0.29638 0.23147 0.59541
 C508 C 0.30249 0.24617 0.54745
 C509 C 0.30231 0.21174 0.51183
 C510 C 0.29638 0.16228 0.52389
 H511 H 0.29775 0.25935 0.62191
 H512 H 0.30762 0.28447 0.53787
 H513 H 0.30709 0.22338 0.47468
 H514 H 0.29700 0.13665 0.49523
 H515 H 0.27332 0.10354 0.70552
 H516 H 0.27370 0.04343 0.64295
   
