data_POSCAR
  _audit_creation_date              2014-09-24
  _audit_creation_method            'ToBaCCo'
  _symmetry_space_group_name_H-M    'P1'
  _symmetry_Int_Tables_number       1
  _symmetry_cell_setting            triclinic
  loop_
  _symmetry_equiv_pos_as_xyz
 x,y,z
_cell_length_a 28.2933
_cell_length_b 25.3203
_cell_length_c 13.7850
_cell_angle_alpha 90.281000
_cell_angle_beta 89.196900
_cell_angle_gamma 125.116800
loop_
  _atom_site_label
  _atom_site_type_symbol
  _atom_site_fract_x
  _atom_site_fract_y
  _atom_site_fract_z
O1 O 0.59906 1.06788 0.56893
 O2 O 0.51079 0.94251 0.38478
 O3 O 0.57072 1.06705 0.39062
 O4 O 0.53873 0.93763 0.56209
 O5 O 0.45940 0.92923 0.60681
 O6 O 0.48960 1.05471 0.43594
 O7 O 0.43459 0.94087 0.43072
 O8 O 0.52148 1.06445 0.61011
 Cu9 Cu 0.56298 1.00420 0.47397
 Cu10 Cu 0.46966 0.99574 0.53388
 C11 C 0.57531 1.09062 0.61500
 C12 C 0.45827 0.92235 0.37436
 C13 C 0.53435 1.08105 0.38177
 C14 C 0.49096 0.90868 0.60820
 O15 O 0.03229 0.45190 0.57138
 O16 O -0.07965 0.44518 0.43420
 O17 O 0.02435 0.47934 0.38885
 O18 O -0.05776 0.45493 0.62085
 O19 O -0.00642 0.56088 0.63579
 O20 O 0.06717 0.58396 0.41021
 O21 O -0.03698 0.54974 0.45562
 O22 O 0.07964 0.55722 0.58961
 Cu23 Cu -0.02395 0.44806 0.50262
 Cu24 Cu 0.03009 0.57194 0.52315
 C25 C 0.07455 0.50445 0.60498
 C26 C -0.07812 0.49550 0.42144
 C27 C 0.05877 0.53773 0.35963
 C28 C -0.04540 0.50541 0.66711
 O29 O 0.51803 0.44120 0.58561
 O30 O 0.41096 0.45341 0.45589
 O31 O 0.47847 0.41810 0.40788
 O32 O 0.42924 0.43932 0.63542
 O33 O 0.48802 0.54540 0.62240
 O34 O 0.54572 0.52249 0.39054
 O35 O 0.47734 0.55781 0.43598
 O36 O 0.58018 0.54707 0.57290
 Cu37 Cu 0.45384 0.42871 0.52168
 Cu38 Cu 0.52889 0.55243 0.50464
 C39 C 0.56738 0.49312 0.60270
 C40 C 0.42668 0.50831 0.42279
 C41 C 0.51926 0.46463 0.35931
 C42 C 0.44793 0.49458 0.66789
 O43 O 0.40110 0.62030 -0.06790
 O44 O 0.42030 0.73422 -0.08000
 C45 C 0.39200 0.73428 -0.15091
 O46 O 0.33814 0.70755 -0.14727
 O47 O 0.23186 0.61258 -0.11881
 C48 C 0.21905 0.55811 -0.14632
 O49 O 0.23654 0.52828 -0.10386
 O50 O 0.31918 0.52543 -0.02812
 C51 C 0.36781 0.55929 -0.07256
 O52 O 0.38582 0.61740 0.12646
 O53 O 0.39843 0.72865 0.11337
 C54 C 0.37714 0.76070 0.10334
 O55 O 0.34390 0.75155 0.03420
 O56 O 0.23853 0.65080 0.06428
 C57 C 0.20235 0.59364 0.09414
 O58 O 0.20588 0.54687 0.07369
 O59 O 0.29058 0.54759 0.14739
 C60 C 0.34179 0.57285 0.17437
 Cr61 Cr 0.39846 0.67369 0.02253
 Cr62 Cr 0.28942 0.67917 -0.04028
 Cr63 Cr 0.26500 0.54033 0.02161
 O64 O 0.31730 0.63083 0.00203
 O65 O 0.61496 0.38654 -0.11169
 O66 O 0.62268 0.29095 -0.13762
 C67 C 0.64958 0.26496 -0.14271
 O68 O 0.67978 0.26655 -0.07365
 O69 O 0.77766 0.38063 -0.06707
 C70 C 0.80726 0.44157 -0.07343
 O71 O 0.79379 0.47576 -0.02969
 O72 O 0.70689 0.47081 -0.10407
 C73 C 0.65795 0.44009 -0.14372
 O74 O 0.58565 0.35122 0.07383
 O75 O 0.58659 0.25007 0.04683
 C76 C 0.61199 0.24187 0.11429
 O77 O 0.66648 0.27409 0.12056
 O78 O 0.76801 0.38616 0.12768
 C79 C 0.77034 0.43131 0.17416
 O80 O 0.74485 0.45631 0.14699
 O81 O 0.65946 0.45559 0.07511
 C82 C 0.60826 0.40899 0.09940
 Cr83 Cr 0.60526 0.32116 -0.03080
 Cr84 Cr 0.72153 0.32831 0.02645
 Cr85 Cr 0.72476 0.46131 0.02159
 O86 O 0.68376 0.37035 0.00651
 N87 N 0.39284 0.74558 -0.32775
 N88 N 0.41996 0.79230 -0.39240
 C89 C 0.46593 0.84469 -0.35031
 C90 C 0.46839 0.83024 -0.25377
 C91 C 0.42104 0.76650 -0.24256
 H92 H 0.49523 0.86376 -0.19704
 H93 H 0.35294 0.70173 -0.33941
 H94 H 0.40374 0.79063 -0.46109
 N95 N 0.15501 0.46524 -0.25469
 N96 N 0.11359 0.45014 -0.32400
 C97 C 0.11446 0.50339 -0.33867
 C98 C 0.15634 0.55326 -0.28110
 C99 C 0.17992 0.52714 -0.22856
 H100 H 0.16540 0.60083 -0.27266
 H101 H 0.16215 0.43252 -0.22465
 H102 H 0.08544 0.40437 -0.35443
 N103 N 0.35741 0.46029 -0.12692
 N104 N 0.38017 0.44277 -0.19970
 C105 C 0.42161 0.49679 -0.24741
 C106 C 0.42744 0.55024 -0.20503
 C107 C 0.38547 0.52479 -0.13118
 H108 H 0.45503 0.60003 -0.22919
 H109 H 0.32214 0.42784 -0.08226
 H110 H 0.36487 0.39515 -0.21609
 N111 N 0.63347 0.25128 -0.31807
 N112 N 0.61352 0.20464 -0.38224
 C113 C 0.61062 0.15463 -0.34147
 C114 C 0.63025 0.17039 -0.24625
 C115 C 0.64406 0.23239 -0.23441
 H116 H 0.62750 0.13853 -0.19076
 H117 H 0.63547 0.29338 -0.32899
 H118 H 0.59721 0.20477 -0.45004
 N119 N 0.89972 0.53963 -0.12768
 N120 N 0.94063 0.55695 -0.20040
 C121 C 0.92559 0.50294 -0.24858
 C122 C 0.87557 0.44984 -0.20675
 C123 C 0.86038 0.47546 -0.13251
 H124 H 0.85132 0.40014 -0.23099
 H125 H 0.89873 0.57206 -0.08199
 H126 H 0.97504 0.60447 -0.21635
 N127 N 0.68978 0.52790 -0.26406
 N128 N 0.66561 0.54182 -0.33121
 C129 C 0.60976 0.49162 -0.33960
 C130 C 0.59773 0.44346 -0.27536
 C131 C 0.64952 0.46879 -0.22807
 H132 H 0.55635 0.39837 -0.26054
 H133 H 0.73255 0.55940 -0.24117
 H134 H 0.68668 0.58589 -0.36812
 N135 N 0.82163 0.51549 0.30152
 N136 N 0.86299 0.53393 0.36505
 C137 C 0.87582 0.49036 0.36493
 C138 C 0.84114 0.44203 0.29883
 C139 C 0.80774 0.46012 0.25936
 H140 H 0.84252 0.40160 0.27830
 H141 H 0.80498 0.54197 0.28482
 H142 H 0.88246 0.57610 0.40613
 N143 N 0.52231 0.17767 0.21219
 N144 N 0.50165 0.13475 0.28990
 C145 C 0.54213 0.12445 0.31101
 C146 C 0.58984 0.16131 0.24950
 C147 C 0.57556 0.19400 0.18922
 H148 H 0.62955 0.16406 0.24862
 H149 H 0.50059 0.19546 0.18085
 H150 H 0.46090 0.11296 0.32272
 N151 N 0.51249 0.38046 0.14862
 N152 N 0.48935 0.39691 0.21482
 C153 C 0.53180 0.44807 0.26480
 C154 C 0.58519 0.46611 0.22724
 C155 C 0.57041 0.42079 0.15433
 H156 H 0.62769 0.50146 0.25585
 H157 H 0.48880 0.34005 0.10370
 H158 H 0.44498 0.37046 0.23003
 N159 N 0.13733 0.62335 0.14751
 N160 N 0.09818 0.60707 0.21574
 C161 C 0.08796 0.55535 0.26461
 C162 C 0.12182 0.53698 0.22466
 C163 C 0.15326 0.58251 0.15129
 H164 H 0.12777 0.50111 0.25181
 H165 H 0.15497 0.66405 0.10281
 H166 H 0.08137 0.63360 0.23231
 N167 N 0.35606 0.83129 0.18816
 N168 N 0.37656 0.87251 0.26082
 C169 C 0.42431 0.87928 0.29401
 C170 C 0.43462 0.84006 0.24073
 C171 C 0.38989 0.81025 0.17458
 H172 H 0.46898 0.83355 0.24979
 H173 H 0.31849 0.81655 0.15045
 H174 H 0.35834 0.89604 0.28655
 N175 N 0.30632 0.49083 0.30591
 N176 N 0.32853 0.47209 0.36950
 C177 C 0.38641 0.51473 0.36728
 C178 C 0.40186 0.56277 0.29983
 C179 C 0.34966 0.54531 0.26153
 H180 H 0.44517 0.60215 0.27726
 H181 H 0.26236 0.46477 0.29001
 H182 H 0.30433 0.43006 0.41160
   
