data_POSCAR
  _audit_creation_date              2014-09-24
  _audit_creation_method            'ToBaCCo'
  _symmetry_space_group_name_H-M    'P1'
  _symmetry_Int_Tables_number       1
  _symmetry_cell_setting            triclinic
  loop_
  _symmetry_equiv_pos_as_xyz
 x,y,z
_cell_length_a 57.1360
_cell_length_b 57.1812
_cell_length_c 16.7647
_cell_angle_alpha 90.043100
_cell_angle_beta 90.054400
_cell_angle_gamma 119.918700
loop_
  _atom_site_label
  _atom_site_type_symbol
  _atom_site_fract_x
  _atom_site_fract_y
  _atom_site_fract_z
C1 C 0.23436 0.51179 0.45890
 C2 C 0.23424 0.51147 0.54319
 C3 C 0.25557 0.51144 0.58469
 C4 C 0.27690 0.51151 0.54326
 C5 C 0.27705 0.51200 0.45917
 C6 C 0.25589 0.51224 0.41767
 H7 H 0.25597 0.51224 0.35291
 H8 H 0.25531 0.51086 0.64945
 C9 C 0.49096 -0.27638 0.45689
 C10 C 0.49059 -0.27578 0.54095
 C11 C 0.49009 -0.25441 0.58045
 C12 C 0.49027 -0.23339 0.53699
 C13 C 0.49083 -0.23392 0.45294
 C14 C 0.49101 -0.25544 0.41351
 H15 H 0.49165 -0.25560 0.34880
 H16 H 0.49000 -0.25397 0.64517
 C17 C 1.27660 0.76638 0.45383
 C18 C 1.27595 0.76756 0.53782
 C19 C 1.25470 0.74656 0.58007
 C20 C 1.23389 0.72460 0.53950
 C21 C 1.23440 0.72359 0.45566
 C22 C 1.25580 0.74434 0.41336
 H23 H 1.25597 0.74351 0.34868
 H24 H 1.25413 0.74752 0.64463
 C25 C 0.76835 0.49411 0.46065
 C26 C 0.76914 0.49428 0.54474
 C27 C 0.74833 0.49455 0.58824
 C28 C 0.72676 0.49470 0.54891
 C29 C 0.72590 0.49437 0.46482
 C30 C 0.74666 0.49401 0.42136
 H31 H 0.74610 0.49403 0.35668
 H32 H 0.74910 0.49496 0.65301
 C33 C 0.50472 0.27367 0.46326
 C34 C 0.50562 0.27385 0.54737
 C35 C 0.50621 0.25277 0.58813
 C36 C 0.50589 0.23143 0.54622
 C37 C 0.50534 0.23138 0.46213
 C38 C 0.50478 0.25249 0.42129
 H39 H 0.50407 0.25228 0.35660
 H40 H 0.50651 0.25277 0.65292
 C41 C 0.72535 0.23235 0.45677
 C42 C 0.72471 0.23267 0.54072
 C43 C 0.74539 0.25424 0.58291
 C44 C 0.76691 0.27548 0.54235
 C45 C 0.76749 0.27526 0.45828
 C46 C 0.74668 0.25374 0.41614
 H47 H 0.74733 0.25344 0.35150
 H48 H 0.74495 0.25420 0.64763
 O49 O 1.03812 0.55817 0.14661
 O50 O 1.06773 0.55192 0.06932
 C51 C 1.06224 0.56391 0.12562
 O52 O 0.96190 0.43795 0.13789
 O53 O 0.93237 0.44567 0.06487
 C54 C 0.93776 0.43245 0.11727
 O55 O 1.03756 0.47710 0.14564
 O56 O 1.06747 0.51285 0.06909
 C57 C 1.06179 0.49532 0.12528
 O58 O 0.96250 0.52289 0.13966
 O59 O 0.93269 0.48597 0.06632
 C60 C 0.93826 0.50448 0.11935
 Zr61 Zr 1.00029 0.52889 0.09914
 O62 O 0.99805 0.52966 0.22503
 O63 O 1.00157 0.56636 0.08937
 Zr64 Zr 0.99992 0.46942 0.09850
 O65 O 0.99693 0.46705 0.22438
 O66 O 1.00274 0.43390 0.09443
 O67 O 1.02409 0.51096 0.11464
 O68 O 0.97683 0.48767 0.11362
 O69 O 0.96269 0.52392 -0.13900
 O70 O 0.93287 0.48613 -0.06941
 C71 C 0.93850 0.50523 -0.12014
 O72 O 1.03732 0.47782 -0.15098
 O73 O 1.06737 0.51301 -0.07231
 C74 C 1.06157 0.49575 -0.12951
 O75 O 0.96159 0.43842 -0.14315
 O76 O 0.93220 0.44594 -0.06893
 C77 C 0.93747 0.43290 -0.12238
 O78 O 1.03828 0.55925 -0.14607
 O79 O 1.06783 0.55237 -0.07060
 C80 C 1.06242 0.56480 -0.12571
 Zr81 Zr 1.00039 0.52900 -0.10168
 O82 O 0.99729 0.52667 -0.22772
 O83 O 1.00321 0.56731 -0.10353
 Zr84 Zr 0.99980 0.46948 -0.10203
 O85 O 0.99707 0.46606 -0.22768
 O86 O 1.00251 0.43392 -0.09537
 Zr87 Zr 1.04056 0.51915 -0.00136
 Zr88 Zr 0.95989 0.47940 -0.00152
 O89 O 0.97679 0.48781 -0.11673
 O90 O 1.02412 0.51110 -0.11763
 O91 O 0.97614 0.52158 -0.00123
 O92 O 1.02359 0.47693 -0.00185
 O93 O 1.02404 0.54486 -0.00091
 O94 O 0.97554 0.45292 -0.00184
 H95 H 0.96489 0.48177 0.16099
 H96 H 1.03592 0.46942 -0.00213
 H97 H 0.96489 0.48205 -0.16432
 H98 H 1.03636 0.56466 -0.00038
 H99 H 0.98655 0.41995 0.06626
 H100 H 0.98541 0.41954 -0.07239
 H101 H 1.00631 0.48463 -0.24884
 H102 H 1.01390 0.52763 -0.24889
 H103 H 0.99172 0.56753 -0.05985
 H104 H 1.00190 0.57257 0.14477
 H105 H 1.00968 0.52287 0.24635
 H106 H 1.01142 0.48437 0.24589
 O107 O 0.44070 0.47941 0.14543
 O108 O 0.44723 0.51529 0.06789
 C109 C 0.43521 0.49799 0.12440
 O110 O 0.56035 0.52219 0.14238
 O111 O 0.55339 0.48549 0.06814
 C112 C 0.56612 0.50376 0.12198
 O113 O 0.52114 0.55856 0.14768
 O114 O 0.48609 0.55334 0.06825
 C115 C 0.50333 0.56497 0.12545
 O116 O 0.47542 0.43832 0.13939
 O117 O 0.51269 0.44549 0.06799
 C118 C 0.49372 0.43233 0.11947
 Zr119 Zr 0.46998 0.47042 0.09956
 O120 O 0.46947 0.46765 0.22556
 O121 O 0.43231 0.43453 0.08959
 Zr122 Zr 0.52965 0.52944 0.09909
 O123 O 0.53404 0.53255 0.22438
 O124 O 0.56526 0.56747 0.08793
 O125 O 0.48803 0.51203 0.11489
 O126 O 0.51126 0.48812 0.11483
 O127 O 0.47618 0.43799 -0.13950
 O128 O 0.51347 0.44557 -0.06642
 C129 C 0.49478 0.43238 -0.11889
 O130 O 0.52120 0.55872 -0.14816
 O131 O 0.48536 0.55287 -0.07128
 C132 C 0.50290 0.56469 -0.12743
 O133 O 0.56151 0.52301 -0.13960
 O134 O 0.55373 0.48584 -0.06670
 C135 C 0.56717 0.50456 -0.11857
 O136 O 0.44027 0.47779 -0.14794
 O137 O 0.44665 0.51389 -0.07178
 C138 C 0.43440 0.49611 -0.12724
 Zr139 Zr 0.47021 0.47001 -0.10123
 O140 O 0.47123 0.46793 -0.22716
 O141 O 0.43199 0.43441 -0.09831
 Zr142 Zr 0.52947 0.52904 -0.10177
 O143 O 0.53105 0.52734 -0.22770
 O144 O 0.56492 0.56738 -0.10182
 Zr145 Zr 0.47986 0.52004 -0.00153
 Zr146 Zr 0.51983 0.47941 0.00009
 O147 O 0.51151 0.48773 -0.11555
 O148 O 0.48787 0.51158 -0.11762
 O149 O 0.47766 0.45353 -0.00016
 O150 O 0.52206 0.54540 -0.00161
 O151 O 0.45411 0.47796 -0.00117
 O152 O 0.54618 0.52153 -0.00080
 H153 H 0.51691 0.48196 0.16254
 H154 H 0.52945 0.56519 -0.00181
 H155 H 0.51755 0.48164 -0.16254
 H156 H 0.43431 0.47066 -0.00109
 H157 H 0.58008 0.56425 0.07183
 H158 H 0.57831 0.56601 -0.06770
 H159 H 0.51410 0.52554 -0.24914
 H160 H 0.47464 0.48549 -0.24837
 H161 H 0.43327 0.42198 -0.05981
 H162 H 0.42608 0.42869 0.14492
 H163 H 0.47358 0.48542 0.24700
 H164 H 0.51756 0.51718 0.24657
 O165 O 0.52336 -0.03890 0.13565
 O166 O 0.48619 -0.06804 0.06197
 C167 C 0.50456 -0.06286 0.11517
 O168 O 0.47960 0.03792 0.14762
 O169 O 0.51587 0.06743 0.07167
 C170 C 0.49795 0.06205 0.12648
 O171 O 0.44320 -0.03846 0.15167
 O172 O 0.44773 -0.06818 0.06945
 C173 C 0.43680 -0.06268 0.12873
 O174 O 0.56402 0.03659 0.12962
 O175 O 0.55575 0.06674 0.06279
 C176 C 0.56962 0.06088 0.11164
 Zr177 Zr 0.53129 -0.00094 0.09156
 O178 O 0.53659 0.00096 0.21682
 O179 O 0.56695 -0.00268 0.07282
 Zr180 Zr 0.47267 -0.00013 0.10610
 O181 O 0.47725 0.00248 0.23183
 O182 O 0.43476 -0.00229 0.11755
 O183 O 0.48997 -0.02460 0.11351
 O184 O 0.51418 0.02280 0.11406
 O185 O 0.55908 0.03737 -0.14898
 O186 O 0.55327 0.06721 -0.07113
 C187 C 0.56546 0.06156 -0.12645
 O188 O 0.43869 -0.03651 -0.14229
 O189 O 0.44482 -0.06694 -0.06894
 C190 C 0.43243 -0.06084 -0.12242
 O191 O 0.47542 0.03888 -0.13229
 O192 O 0.51365 0.06794 -0.06245
 C193 C 0.49442 0.06287 -0.11248
 O194 O 0.51837 -0.03811 -0.15843
 O195 O 0.48363 -0.06765 -0.07844
 C196 C 0.50019 -0.06222 -0.13722
 Zr197 Zr 0.52749 -0.00040 -0.10867
 O198 O 0.52713 0.00278 -0.23449
 O199 O 0.56284 -0.00351 -0.11383
 Zr200 Zr 0.46875 0.00066 -0.09426
 O201 O 0.46421 0.00314 -0.21860
 O202 O 0.43091 -0.00171 -0.07636
 Zr203 Zr 0.47934 -0.04054 -0.00296
 Zr204 Zr 0.52060 0.03996 -0.00053
 O205 O 0.50978 0.02340 -0.11592
 O206 O 0.48559 -0.02370 -0.11830
 O207 O 0.54625 0.02348 -0.00879
 O208 O 0.45437 -0.02328 0.00604
 O209 O 0.52141 -0.02445 -0.01012
 O210 O 0.47857 0.02455 0.00759
 H211 H 0.52115 0.03467 0.16156
 H212 H 0.43456 -0.03538 0.00889
 H213 H 0.51516 0.03541 -0.16311
 H214 H 0.52859 -0.03702 -0.01342
 H215 H 0.43496 0.01153 0.08171
 H216 H 0.43440 0.01601 -0.05616
 H217 H 0.47657 -0.00190 -0.24458
 H218 H 0.50967 -0.01204 -0.25429
 H219 H 0.57622 0.01030 -0.07733
 H220 H 0.57402 -0.00288 0.12662
 H221 H 0.51842 -0.00935 0.24061
 H222 H 0.47662 -0.01421 0.25063
 C223 C 1.12598 0.50086 0.24995
 C224 C 1.14182 0.52420 0.29671
 C225 C 1.16506 0.52729 0.33734
 C226 C 1.17172 0.50656 0.33361
 C227 C 1.15577 0.48314 0.28727
 C228 C 1.13294 0.48037 0.24493
 C229 C 1.11750 0.45693 0.19833
 C230 C 1.12437 0.43677 0.19373
 C231 C 1.14662 0.43942 0.23533
 C232 C 1.16221 0.46228 0.28168
 C233 C 1.18128 0.55136 0.38055
 C234 C 1.17443 0.57154 0.38481
 C235 C 1.15102 0.56794 0.34840
 C236 C 1.13498 0.54473 0.30394
 C237 C 1.19461 0.50902 0.37853
 C238 C 1.21337 0.51058 0.41610
 C239 C 1.10292 0.49826 0.20570
 C240 C 1.08399 0.49654 0.16882
 H241 H 1.09997 0.45392 0.16501
 H242 H 1.11236 0.41899 0.15771
 H243 H 1.15188 0.42370 0.23155
 H244 H 1.17938 0.46346 0.31268
 H245 H 1.19950 0.55491 0.41089
 H246 H 1.18733 0.59007 0.41661
 H247 H 1.14550 0.58343 0.35360
 H248 H 1.11725 0.54313 0.27528
 C249 C 0.49984 0.62489 0.24885
 C250 C 0.48986 0.61966 0.32789
 C251 C 0.48722 0.63961 0.37119
 C252 C 0.49526 0.66500 0.33579
 C253 C 0.50575 0.67041 0.25717
 C254 C 0.50789 0.65024 0.21344
 C255 C 0.51828 0.65606 0.13485
 C256 C 0.52654 0.68118 0.10060
 C257 C 0.52460 0.70095 0.14348
 C258 C 0.51429 0.69573 0.22079
 C259 C 0.47661 0.63359 0.44950
 C260 C 0.46935 0.60877 0.48449
 C261 C 0.47252 0.58956 0.44269
 C262 C 0.48239 0.59471 0.36509
 C263 C 0.49330 0.68577 0.38040
 C264 C 0.49204 0.70339 0.41650
 C265 C 0.50144 0.60401 0.20390
 C266 C 0.50245 0.58632 0.16763
 H267 H 0.52026 0.64134 0.09926
 H268 H 0.53456 0.68535 0.04056
 H269 H 0.53110 0.72046 0.11670
 H270 H 0.51318 0.71177 0.25168
 H271 H 0.47392 0.64799 0.48442
 H272 H 0.46137 0.60440 0.54440
 H273 H 0.46745 0.57057 0.47045
 H274 H 0.48425 0.57898 0.33496
 C275 C 0.37722 -0.12726 0.24909
 C276 C 0.35054 -0.13161 0.24871
 C277 C 0.32963 -0.15428 0.28899
 C278 C 0.33544 -0.17268 0.32855
 C279 C 0.36194 -0.16875 0.32706
 C280 C 0.38300 -0.14570 0.28854
 C281 C 0.40958 -0.14152 0.29121
 C282 C 0.41514 -0.15970 0.33037
 C283 C 0.39441 -0.18271 0.36563
 C284 C 0.36807 -0.18728 0.36421
 C285 C 0.30319 -0.15804 0.28848
 C286 C 0.29752 -0.14001 0.24891
 C287 C 0.31792 -0.11791 0.20922
 C288 C 0.34416 -0.11364 0.20899
 C289 C 0.31435 -0.19505 0.37300
 C290 C 0.29672 -0.21327 0.41069
 C291 C 0.39854 -0.10417 0.20738
 C292 C 0.41605 -0.08510 0.17191
 H293 H 0.42635 -0.12406 0.26392
 H294 H 0.43564 -0.15595 0.33342
 H295 H 0.39883 -0.19689 0.39524
 H296 H 0.35267 -0.20527 0.39341
 H297 H 0.28662 -0.17498 0.31829
 H298 H 0.27718 -0.14322 0.24895
 H299 H 0.31341 -0.10397 0.17850
 H300 H 0.35934 -0.09612 0.17742
 C301 C 0.87423 0.50053 0.24068
 C302 C 0.87120 0.52354 0.24823
 C303 C 0.84921 0.52192 0.29241
 C304 C 0.83031 0.49726 0.32856
 C305 C 0.83313 0.47415 0.32026
 C306 C 0.85521 0.47580 0.27645
 C307 C 0.85768 0.45244 0.26947
 C308 C 0.83881 0.42815 0.30447
 C309 C 0.81727 0.42656 0.34737
 C310 C 0.81432 0.44922 0.35520
 C311 C 0.84669 0.54524 0.29930
 C312 C 0.86530 0.56943 0.26342
 C313 C 0.88675 0.57099 0.22010
 C314 C 0.88979 0.54839 0.21244
 C315 C 0.80812 0.49578 0.37482
 C316 C 0.78990 0.49483 0.41364
 C317 C 0.89703 0.50240 0.19677
 C318 C 0.91596 0.50374 0.16091
 H319 H 0.87411 0.45266 0.23680
 H320 H 0.84085 0.41043 0.29808
 H321 H 0.80278 0.40769 0.37480
 H322 H 0.79725 0.44701 0.38921
 H323 H 0.83031 0.54502 0.33223
 H324 H 0.86303 0.58706 0.26919
 H325 H 0.90113 0.58982 0.19221
 H326 H 0.90682 0.55062 0.17811
 C327 C 0.49581 0.37172 0.24238
 C328 C 0.48545 0.34532 0.21164
 C329 C 0.48713 0.32534 0.25783
 C330 C 0.49924 0.33191 0.33451
 C331 C 0.50936 0.35829 0.36548
 C332 C 0.50772 0.37825 0.31914
 C333 C 0.51812 0.40453 0.35109
 C334 C 0.52959 0.41087 0.42683
 C335 C 0.53095 0.39133 0.47236
 C336 C 0.52110 0.36532 0.44237
 C337 C 0.47650 0.29905 0.22582
 C338 C 0.46459 0.29270 0.15043
 C339 C 0.46302 0.31226 0.10528
 C340 C 0.47331 0.33831 0.13524
 C341 C 0.50141 0.31159 0.38100
 C342 C 0.50307 0.29450 0.41879
 C343 C 0.49427 0.39231 0.19577
 C344 C 0.49365 0.41020 0.15962
 H345 H 0.51754 0.42047 0.31802
 H346 H 0.53745 0.43107 0.45030
 H347 H 0.53961 0.39643 0.53131
 H348 H 0.52264 0.35081 0.48009
 H349 H 0.47718 0.28313 0.25872
 H350 H 0.45652 0.27248 0.12697
 H351 H 0.45378 0.30723 0.04671
 H352 H 0.47161 0.35285 0.09799
 C353 C 0.62911 0.12420 0.23572
 C354 C 0.65693 0.13494 0.22004
 C355 C 0.67645 0.15716 0.26551
 C356 C 0.66801 0.16872 0.32581
 C357 C 0.64012 0.15819 0.34060
 C358 C 0.62063 0.13570 0.29600
 C359 C 0.59288 0.12520 0.31292
 C360 C 0.58461 0.13685 0.37131
 C361 C 0.60364 0.15926 0.41328
 C362 C 0.63111 0.16973 0.39910
 C363 C 0.70416 0.16737 0.24914
 C364 C 0.71235 0.15612 0.18917
 C365 C 0.69325 0.13448 0.14450
 C366 C 0.66582 0.12390 0.15956
 C367 C 0.68801 0.19130 0.37272
 C368 C 0.70485 0.20999 0.41127
 C369 C 0.60908 0.10153 0.18955
 C370 C 0.59162 0.08285 0.15270
 H371 H 0.57727 0.10805 0.28089
 H372 H 0.56331 0.12878 0.38301
 H373 H 0.59702 0.16868 0.45660
 H374 H 0.64513 0.18705 0.43396
 H375 H 0.71976 0.18416 0.28231
 H376 H 0.73363 0.16422 0.17727
 H377 H 0.69972 0.12582 0.09800
 H378 H 0.65172 0.10704 0.12324
 C379 C 0.49800 0.12673 -0.23311
 C380 C 0.47543 0.12346 -0.27728
 C381 C 0.47749 0.14512 -0.32411
 C382 C 0.50216 0.16993 -0.32673
 C383 C 0.52473 0.17323 -0.28238
 C384 C 0.52258 0.15163 -0.23497
 C385 C 0.54530 0.15554 -0.19032
 C386 C 0.56949 0.18001 -0.19283
 C387 C 0.57169 0.20102 -0.23990
 C388 C 0.54962 0.19779 -0.28424
 C389 C 0.45460 0.14137 -0.36755
 C390 C 0.43036 0.11695 -0.36461
 C391 C 0.42836 0.09576 -0.31887
 C392 C 0.45058 0.09885 -0.27568
 C393 C 0.50405 0.19219 -0.37351
 C394 C 0.50516 0.21061 -0.41162
 C395 C 0.49619 0.10422 -0.18787
 C396 C 0.49505 0.08538 -0.15216
 H397 H 0.54469 0.13971 -0.15346
 H398 H 0.58672 0.18256 -0.15885
 H399 H 0.59062 0.21991 -0.24221
 H400 H 0.55230 0.21471 -0.31998
 H401 H 0.45515 0.15721 -0.40414
 H402 H 0.41303 0.11445 -0.39793
 H403 H 0.40948 0.07684 -0.31675
 H404 H 0.44803 0.08180 -0.24089
 C405 C 0.62946 0.50244 -0.23205
 C406 C 0.63159 0.47883 -0.22792
 C407 C 0.65158 0.47695 -0.27347
 C408 C 0.66977 0.49895 -0.32131
 C409 C 0.66820 0.52289 -0.32344
 C410 C 0.64794 0.52461 -0.27889
 C411 C 0.64671 0.54871 -0.28225
 C412 C 0.66506 0.57054 -0.32795
 C413 C 0.68489 0.56889 -0.37137
 C414 C 0.68652 0.54538 -0.36949
 C415 C 0.65284 0.45287 -0.26998
 C416 C 0.63512 0.43141 -0.22199
 C417 C 0.61593 0.43344 -0.17628
 C418 C 0.61404 0.45681 -0.17914
 C419 C 0.69019 0.49708 -0.36793
 C420 C 0.70727 0.49581 -0.40686
 C421 C 0.60779 0.50361 -0.19030
 C422 C 0.58945 0.50431 -0.15698
 H423 H 0.63170 0.55100 -0.24930
 H424 H 0.66390 0.58887 -0.32952
 H425 H 0.69914 0.58594 -0.40661
 H426 H 0.70232 0.54509 -0.40423
 H427 H 0.66752 0.45039 -0.30416
 H428 H 0.63633 0.41312 -0.22018
 H429 H 0.60221 0.41670 -0.13915
 H430 H 0.59861 0.45734 -0.14311
 C431 C 0.87275 0.37355 -0.24296
 C432 C 0.86880 0.34711 -0.24823
 C433 C 0.84655 0.32696 -0.29210
 C434 C 0.82825 0.33331 -0.33004
 C435 C 0.83187 0.35960 -0.32338
 C436 C 0.85429 0.37984 -0.28017
 C437 C 0.85763 0.40606 -0.27508
 C438 C 0.83921 0.41202 -0.31101
 C439 C 0.81725 0.39220 -0.35292
 C440 C 0.81350 0.36625 -0.35916
 C441 C 0.84309 0.30070 -0.29670
 C442 C 0.86103 0.29450 -0.25883
 C443 C 0.88274 0.31417 -0.21573
 C444 C 0.88669 0.34021 -0.21035
 C445 C 0.80584 0.31278 -0.37614
 C446 C 0.78747 0.29545 -0.41444
 C447 C 0.89582 0.39425 -0.19955
 C448 C 0.91495 0.41162 -0.16387
 H449 H 0.87441 0.42217 -0.24317
 H450 H 0.84192 0.43209 -0.30613
 H451 H 0.80307 0.39697 -0.38097
 H452 H 0.79616 0.35152 -0.39258
 H453 H 0.82647 0.28469 -0.32932
 H454 H 0.85804 0.27429 -0.26282
 H455 H 0.89658 0.30922 -0.18628
 H456 H 0.90387 0.35482 -0.17611
 C457 C 0.49563 -0.12586 -0.26306
 C458 C 0.51915 -0.12799 -0.27239
 C459 C 0.51777 -0.15027 -0.31444
 C460 C 0.49291 -0.17029 -0.34722
 C461 C 0.46950 -0.16791 -0.33919
 C462 C 0.47082 -0.14574 -0.29658
 C463 C 0.44703 -0.14409 -0.28822
 C464 C 0.42267 -0.16370 -0.32127
 C465 C 0.42146 -0.18514 -0.36386
 C466 C 0.44453 -0.18735 -0.37281
 C467 C 0.54155 -0.15196 -0.32263
 C468 C 0.56597 -0.13224 -0.29028
 C469 C 0.56732 -0.11049 -0.24921
 C470 C 0.54425 -0.10828 -0.24017
 C471 C 0.49148 -0.19336 -0.38858
 C472 C 0.49072 -0.21228 -0.42305
 C473 C 0.49702 -0.10332 -0.21863
 C474 C 0.49844 -0.08454 -0.18157
 H475 H 0.44696 -0.12772 -0.25596
 H476 H 0.40463 -0.16227 -0.31379
 H477 H 0.40251 -0.20018 -0.38991
 H478 H 0.44259 -0.20442 -0.40631
 H479 H 0.54157 -0.16847 -0.35420
 H480 H 0.58396 -0.13384 -0.29716
 H481 H 0.58635 -0.09523 -0.22420
 H482 H 0.54632 -0.09098 -0.20773
 C483 C 0.37435 0.50047 -0.24767
 C484 C 0.38020 0.51204 -0.32478
 C485 C 0.36040 0.51513 -0.36758
 C486 C 0.33462 0.50613 -0.33350
 C487 C 0.32866 0.49426 -0.25664
 C488 C 0.34862 0.49153 -0.21349
 C489 C 0.34221 0.47971 -0.13672
 C490 C 0.31677 0.47071 -0.10358
 C491 C 0.29723 0.47329 -0.14582
 C492 C 0.30300 0.48494 -0.22144
 C493 C 0.36700 0.52721 -0.44403
 C494 C 0.39230 0.53562 -0.47754
 C495 C 0.41142 0.53220 -0.43614
 C496 C 0.40564 0.52072 -0.36054
 C497 C 0.31406 0.50857 -0.37791
 C498 C 0.29674 0.51017 -0.41469
 C499 C 0.39505 0.49816 -0.20369
 C500 C 0.41280 0.49688 -0.16852
 H501 H 0.35675 0.47726 -0.10162
 H502 H 0.31218 0.46167 -0.04484
 H503 H 0.27747 0.46620 -0.11990
 H504 H 0.28713 0.48650 -0.25194
 H505 H 0.35273 0.53021 -0.47861
 H506 H 0.39715 0.54473 -0.53602
 H507 H 0.43085 0.53838 -0.46262
 H508 H 0.42134 0.51872 -0.33063
 C509 C 1.12638 0.62468 -0.24733
 C510 C 1.12369 0.64500 -0.28754
 C511 C 1.14572 0.66514 -0.33196
 C512 C 1.17039 0.66494 -0.33572
 C513 C 1.17297 0.64442 -0.29641
 C514 C 1.15099 0.62437 -0.25157
 C515 C 1.15420 0.60430 -0.21196
 C516 C 1.17832 0.60386 -0.21715
 C517 C 1.19967 0.62324 -0.26181
 C518 C 1.19716 0.64337 -0.30099
 C519 C 1.14247 0.68514 -0.37201
 C520 C 1.11821 0.68532 -0.36795
 C521 C 1.09671 0.66570 -0.32427
 C522 C 1.09929 0.64571 -0.28449
 C523 C 1.19313 0.68602 -0.37920
 C524 C 1.21184 0.70361 -0.41562
 C525 C 1.10367 0.60376 -0.20324
 C526 C 1.08479 0.58615 -0.16745
 H527 H 1.13807 0.58862 -0.17717
 H528 H 1.18032 0.58820 -0.18710
 H529 H 1.21827 0.62265 -0.26622
 H530 H 1.21433 0.65801 -0.33507
 H531 H 1.15858 0.70080 -0.40693
 H532 H 1.11608 0.70079 -0.39882
 H533 H 1.07792 0.66597 -0.32117
 H534 H 1.08199 0.63087 -0.25135
 C535 C 0.87510 0.50191 -0.24211
 C536 C 0.85754 0.50983 -0.20768
 C537 C 0.83548 0.50773 -0.25269
 C538 C 0.83115 0.49771 -0.33188
 C539 C 0.84865 0.48963 -0.36615
 C540 C 0.87078 0.49186 -0.32120
 C541 C 0.88803 0.48367 -0.35655
 C542 C 0.88351 0.47344 -0.43390
 C543 C 0.86187 0.47123 -0.47782
 C544 C 0.84451 0.47914 -0.44464
 C545 C 0.81805 0.51562 -0.21677
 C546 C 0.82237 0.52538 -0.13878
 C547 C 0.84391 0.52736 -0.09474
 C548 C 0.86138 0.51973 -0.12853
 C549 C 0.80880 0.49597 -0.37783
 C550 C 0.79020 0.49497 -0.41471
 C551 C 0.89753 0.50381 -0.19642
 C552 C 0.91629 0.50488 -0.16058
 H553 H 0.90505 0.48485 -0.32461
 H554 H 0.89680 0.46708 -0.45965
 H555 H 0.85854 0.46328 -0.53780
 H556 H 0.82781 0.47684 -0.48087
 H557 H 0.80087 0.51424 -0.24832
 H558 H 0.80885 0.53134 -0.11229
 H559 H 0.84705 0.53470 -0.03391
 H560 H 0.87780 0.52157 -0.09178
 C561 C 0.49928 0.37216 -0.23675
 C562 C 0.52335 0.37863 -0.27836
 C563 C 0.52550 0.35810 -0.31983
 C564 C 0.50319 0.33154 -0.32213
 C565 C 0.47931 0.32498 -0.27956
 C566 C 0.47742 0.34532 -0.23621
 C567 C 0.45350 0.33825 -0.19316
 C568 C 0.43201 0.31181 -0.19311
 C569 C 0.43379 0.29192 -0.23591
 C570 C 0.45710 0.29832 -0.27884
 C571 C 0.55008 0.36474 -0.35836
 C572 C 0.57170 0.39112 -0.35792
 C573 C 0.56920 0.41141 -0.32013
 C574 C 0.54549 0.40532 -0.27985
 C575 C 0.50451 0.31106 -0.36974
 C576 C 0.50519 0.29379 -0.40915
 C577 C 0.49706 0.39309 -0.19436
 C578 C 0.49556 0.41072 -0.15940
 H579 H 0.45118 0.35302 -0.15887
 H580 H 0.41387 0.30673 -0.15981
 H581 H 0.41701 0.27142 -0.23586
 H582 H 0.45756 0.28211 -0.31088
 H583 H 0.55278 0.34969 -0.38965
 H584 H 0.59025 0.39596 -0.38852
 H585 H 0.58573 0.43200 -0.32217
 H586 H 0.54472 0.42173 -0.25018
 C587 C 0.62525 0.12552 -0.24632
 C588 C 0.61821 0.14180 -0.29271
 C589 C 0.63858 0.16442 -0.33446
 C590 C 0.66566 0.17005 -0.33171
 C591 C 0.67271 0.15390 -0.28481
 C592 C 0.65245 0.13166 -0.24160
 C593 C 0.66000 0.11595 -0.19444
 C594 C 0.68682 0.12205 -0.19014
 C595 C 0.70662 0.14375 -0.23264
 C596 C 0.69977 0.15955 -0.27959
 C597 C 0.63129 0.18105 -0.37782
 C598 C 0.60455 0.17525 -0.38083
 C599 C 0.58446 0.15247 -0.34290
 C600 C 0.59110 0.13602 -0.29851
 C601 C 0.68627 0.19231 -0.37739
 C602 C 0.70361 0.21071 -0.41504
 C603 C 0.60452 0.10263 -0.20302
 C604 C 0.58697 0.08374 -0.16757
 H605 H 0.64529 0.09886 -0.16033
 H606 H 0.69230 0.10995 -0.15342
 H607 H 0.72744 0.14848 -0.22889
 H608 H 0.71593 0.17626 -0.31128
 H609 H 0.64618 0.19876 -0.40938
 H610 H 0.59934 0.18839 -0.41322
 H611 H 0.56365 0.14778 -0.34674
 H612 H 0.57479 0.11884 -0.26872
 C613 C 1.12578 0.50101 -0.25173
 C614 C 1.13458 0.48218 -0.23839
 C615 C 1.15748 0.48487 -0.27979
 C616 C 1.17159 0.50654 -0.33362
 C617 C 1.16314 0.52572 -0.34555
 C618 C 1.13992 0.52273 -0.30530
 C619 C 1.13146 0.54180 -0.31950
 C620 C 1.14590 0.56355 -0.37057
 C621 C 1.16910 0.56697 -0.40777
 C622 C 1.17753 0.54815 -0.39654
 C623 C 1.16584 0.46572 -0.26574
 C624 C 1.15208 0.44464 -0.21191
 C625 C 1.12974 0.44209 -0.17119
 C626 C 1.12098 0.46055 -0.18415
 C627 C 1.19449 0.50880 -0.37752
 C628 C 1.21326 0.51026 -0.41440
 C629 C 1.10264 0.49851 -0.20875
 C630 C 1.08369 0.49690 -0.17267
 H631 H 1.11376 0.54023 -0.29091
 H632 H 1.13934 0.57813 -0.38012
 H633 H 1.18072 0.58441 -0.44505
 H634 H 1.19557 0.55154 -0.42747
 H635 H 1.18315 0.46689 -0.29581
 H636 H 1.15882 0.43025 -0.20157
 H637 H 1.11914 0.42572 -0.12929
 H638 H 1.10346 0.45768 -0.15119
 C639 C 0.49839 0.62411 -0.24936
 C640 C 0.47309 0.61914 -0.27898
 C641 C 0.47120 0.63982 -0.32035
 C642 C 0.49464 0.66523 -0.33209
 C643 C 0.51996 0.67010 -0.30307
 C644 C 0.52185 0.64946 -0.26160
 C645 C 0.54738 0.65475 -0.23321
 C646 C 0.57039 0.67977 -0.24531
 C647 C 0.56854 0.69999 -0.28578
 C648 C 0.54368 0.69533 -0.31449
 C649 C 0.44573 0.63443 -0.34962
 C650 C 0.42277 0.60929 -0.33845
 C651 C 0.42459 0.58910 -0.29774
 C652 C 0.44941 0.59381 -0.26837
 C653 C 0.49284 0.68620 -0.37536
 C654 C 0.49162 0.70356 -0.41255
 C655 C 0.50031 0.60319 -0.20608
 C656 C 0.50176 0.58575 -0.17008
 H657 H 0.54985 0.63964 -0.20148
 H658 H 0.58976 0.68350 -0.22319
 H659 H 0.58647 0.71941 -0.29501
 H660 H 0.54327 0.71170 -0.34558
 H661 H 0.44332 0.64950 -0.38179
 H662 H 0.40347 0.60545 -0.36151
 H663 H 0.40667 0.56968 -0.28876
 H664 H 0.44980 0.57741 -0.23741
 C665 C 0.37239 -0.12330 -0.24630
 C666 C 0.34635 -0.13996 -0.21416
 C667 C 0.32660 -0.16205 -0.25943
 C668 C 0.33311 -0.16736 -0.33638
 C669 C 0.35907 -0.15037 -0.36896
 C670 C 0.37877 -0.12828 -0.32365
 C671 C 0.40465 -0.11160 -0.35708
 C672 C 0.41085 -0.11651 -0.43324
 C673 C 0.39156 -0.13798 -0.47767
 C674 C 0.36595 -0.15488 -0.44625
 C675 C 0.30062 -0.17838 -0.22620
 C676 C 0.29437 -0.17303 -0.15045
 C677 C 0.31374 -0.15148 -0.10612
 C678 C 0.33948 -0.13507 -0.13731
 C679 C 0.31314 -0.19039 -0.38151
 C680 C 0.29634 -0.20957 -0.41831
 C681 C 0.39285 -0.10110 -0.20013
 C682 C 0.41059 -0.08262 -0.16378
 H683 H 0.42039 -0.09461 -0.32490
 H684 H 0.43074 -0.10357 -0.45789
 H685 H 0.39660 -0.14144 -0.53675
 H686 H 0.35165 -0.17141 -0.48310
 H687 H 0.28486 -0.19538 -0.25834
 H688 H 0.27439 -0.18568 -0.12599
 H689 H 0.30880 -0.14743 -0.04729
 H690 H 0.35387 -0.11850 -0.10074
 C691 C 0.50076 -0.12720 0.23185
 C692 C 0.52215 -0.12359 0.28249
 C693 C 0.51987 -0.14572 0.32716
 C694 C 0.49614 -0.17125 0.32117
 C695 C 0.47482 -0.17489 0.27018
 C696 C 0.47725 -0.15284 0.22469
 C697 C 0.45584 -0.15700 0.17324
 C698 C 0.43253 -0.18218 0.16773
 C699 C 0.42999 -0.20366 0.21309
 C700 C 0.45085 -0.20020 0.26368
 C701 C 0.54154 -0.14167 0.37730
 C702 C 0.56479 -0.11646 0.38308
 C703 C 0.56700 -0.09479 0.33945
 C704 C 0.54598 -0.09819 0.28967
 C705 C 0.49379 -0.19373 0.36730
 C706 C 0.49220 -0.21218 0.40600
 C707 C 0.50257 -0.10435 0.18920
 C708 C 0.50376 -0.08533 0.15491
 H709 H 0.45680 -0.14084 0.13723
 H710 H 0.41624 -0.18496 0.12866
 H711 H 0.41174 -0.22311 0.20916
 H712 H 0.44797 -0.21752 0.29767
 H713 H 0.54078 -0.15791 0.41243
 H714 H 0.58120 -0.11372 0.42158
 H715 H 0.58511 -0.07524 0.34411
 H716 H 0.54868 -0.08073 0.25678
 C717 C 0.37683 0.50386 0.24804
 C718 C 0.38235 0.52910 0.27960
 C719 C 0.36190 0.53123 0.32159
 C720 C 0.33625 0.50804 0.33277
 C721 C 0.33078 0.48280 0.30153
 C722 C 0.35113 0.48071 0.25891
 C723 C 0.34522 0.45527 0.22809
 C724 C 0.31988 0.43256 0.23891
 C725 C 0.29995 0.43461 0.28053
 C726 C 0.30523 0.45937 0.31169
 C727 C 0.36771 0.55670 0.35183
 C728 C 0.39312 0.57939 0.34150
 C729 C 0.41318 0.57728 0.30090
 C730 C 0.40800 0.55247 0.27026
 C731 C 0.31552 0.51001 0.37702
 C732 C 0.29812 0.51118 0.41418
 C733 C 0.39748 0.50168 0.20405
 C734 C 0.41460 0.49981 0.16750
 H735 H 0.36006 0.45263 0.19540
 H736 H 0.31570 0.41328 0.21484
 H737 H 0.28028 0.41691 0.28870
 H738 H 0.28907 0.45994 0.34358
 H739 H 0.35279 0.55931 0.38416
 H740 H 0.39727 0.59869 0.36535
 H741 H 0.43282 0.59499 0.29291
 H742 H 0.42428 0.55182 0.23926
 C743 C 1.12654 0.62338 0.24597
 C744 C 1.15199 0.62491 0.24080
 C745 C 1.17421 0.64477 0.28535
 C746 C 1.17094 0.66334 0.33325
 C747 C 1.14549 0.66185 0.33818
 C748 C 1.12322 0.64182 0.29427
 C749 C 1.09798 0.64077 0.29971
 C750 C 1.09485 0.65899 0.34734
 C751 C 1.11660 0.67852 0.39064
 C752 C 1.14167 0.68003 0.38638
 C753 C 1.19931 0.64551 0.28101
 C754 C 1.20241 0.62723 0.23349
 C755 C 1.18078 0.60804 0.18899
 C756 C 1.15582 0.60681 0.19226
 C757 C 1.19381 0.68433 0.37619
 C758 C 1.21253 0.70207 0.41201
 C759 C 1.10361 0.60250 0.20303
 C760 C 1.08458 0.58498 0.16773
 H761 H 1.08046 0.62595 0.26710
 H762 H 1.07543 0.65797 0.35056
 H763 H 1.11405 0.69262 0.42761
 H764 H 1.15797 0.69558 0.42119
 H765 H 1.21672 0.66011 0.31446
 H766 H 1.22170 0.62795 0.23120
 H767 H 1.18328 0.59386 0.15228
 H768 H 1.13953 0.59136 0.15713
 C769 C 0.50097 0.12596 0.24544
 C770 C 0.47682 0.12424 0.27379
 C771 C 0.47791 0.14595 0.31818
 C772 C 0.50314 0.16925 0.33392
 C773 C 0.52727 0.17105 0.30504
 C774 C 0.52616 0.14946 0.25997
 C775 C 0.55048 0.15197 0.23019
 C776 C 0.57524 0.17507 0.24513
 C777 C 0.57636 0.19595 0.29054
 C778 C 0.55272 0.19411 0.32014
 C779 C 0.45351 0.14377 0.34594
 C780 C 0.42873 0.12084 0.33001
 C781 C 0.42766 0.09965 0.28640
 C782 C 0.45136 0.10120 0.25855
 C783 C 0.50419 0.19141 0.37910
 C784 C 0.50482 0.20968 0.41670
 C785 C 0.49988 0.10338 0.20256
 C786 C 0.49887 0.08446 0.16764
 H787 H 0.55064 0.13613 0.19521
 H788 H 0.59369 0.17665 0.22225
 H789 H 0.59565 0.21370 0.30281
 H790 H 0.55462 0.21093 0.35485
 H791 H 0.45330 0.15974 0.38004
 H792 H 0.41025 0.11952 0.35152
 H793 H 0.40836 0.08191 0.27396
 H794 H 0.44945 0.08420 0.22472
 C795 C 0.62524 0.50017 0.24969
 C796 C 0.65067 0.52365 0.26126
 C797 C 0.67087 0.52230 0.30721
 C798 C 0.66554 0.49748 0.34132
 C799 C 0.63996 0.47408 0.33085
 C800 C 0.61979 0.47538 0.28449
 C801 C 0.59450 0.45163 0.27399
 C802 C 0.58924 0.42733 0.30865
 C803 C 0.60885 0.42614 0.35477
 C804 C 0.63397 0.44917 0.36581
 C805 C 0.69614 0.54605 0.31797
 C806 C 0.70129 0.57044 0.28434
 C807 C 0.68153 0.57175 0.23935
 C808 C 0.65649 0.54870 0.22772
 C809 C 0.68658 0.49599 0.38572
 C810 C 0.70436 0.49509 0.42185
 C811 C 0.60460 0.50159 0.20284
 C812 C 0.58729 0.50275 0.16489
 H813 H 0.57856 0.45159 0.23893
 H814 H 0.56987 0.40931 0.29965
 H815 H 0.60462 0.40725 0.38185
 H816 H 0.64861 0.44726 0.40209
 H817 H 0.71214 0.54608 0.35261
 H818 H 0.72072 0.58841 0.29317
 H819 H 0.68561 0.59073 0.21330
 H820 H 0.64178 0.55078 0.19233
 C821 C 0.87417 0.37333 0.23988
 C822 C 0.85683 0.34765 0.20639
 C823 C 0.83484 0.32790 0.25167
 C824 C 0.83033 0.33401 0.33011
 C825 C 0.84758 0.35981 0.36335
 C826 C 0.86959 0.37952 0.31806
 C827 C 0.88658 0.40522 0.35230
 C828 C 0.88192 0.41127 0.42902
 C829 C 0.86044 0.39200 0.47338
 C830 C 0.84336 0.36651 0.44128
 C831 C 0.81776 0.30233 0.21693
 C832 C 0.82229 0.29647 0.13970
 C833 C 0.84378 0.31582 0.09538
 C834 C 0.86093 0.34116 0.12805
 C835 C 0.80807 0.31363 0.37643
 C836 C 0.78957 0.29633 0.41399
 C837 C 0.89666 0.39355 0.19411
 C838 C 0.91545 0.41094 0.15791
 H839 H 0.90351 0.42096 0.32010
 H840 H 0.89504 0.43106 0.45405
 H841 H 0.85706 0.39690 0.53292
 H842 H 0.82686 0.35219 0.47797
 H843 H 0.80073 0.28664 0.24890
 H844 H 0.80900 0.27681 0.11407
 H845 H 0.84714 0.31119 0.03531
 H846 H 0.87737 0.35558 0.09127
   
