data_POSCAR
  _audit_creation_date              2014-09-24
  _audit_creation_method            'ToBaCCo'
  _symmetry_space_group_name_H-M    'P1'
  _symmetry_Int_Tables_number       1
  _symmetry_cell_setting            triclinic
  loop_
  _symmetry_equiv_pos_as_xyz
 x,y,z
_cell_length_a 46.2709
_cell_length_b 46.3075
_cell_length_c 46.1836
_cell_angle_alpha 89.999900
_cell_angle_beta 89.998000
_cell_angle_gamma 89.910000
loop_
  _atom_site_label
  _atom_site_type_symbol
  _atom_site_fract_x
  _atom_site_fract_y
  _atom_site_fract_z
C1 C 0.15956 0.17974 0.20248
 C2 C 0.15959 0.20116 0.18101
 C3 C 0.18082 0.20115 0.15984
 C4 C 0.20227 0.17972 0.15988
 C5 C 0.20224 0.15854 0.18110
 C6 C 0.18076 0.15855 0.20253
 C7 C 0.14174 0.17457 0.22580
 N8 N 0.15174 0.15085 0.23976
 C9 C 0.17551 0.14081 0.22588
 C10 C 0.22559 0.14078 0.17592
 N11 N 0.23954 0.15079 0.15218
 C12 C 0.22563 0.17452 0.14213
 C13 C 0.17564 0.22446 0.14205
 N14 N 0.15188 0.23840 0.15202
 C15 C 0.14184 0.22448 0.17576
 H16 H 0.12303 0.18712 0.23219
 H17 H 0.18804 0.12211 0.23235
 H18 H 0.23201 0.12208 0.18848
 H19 H 0.23207 0.18706 0.12342
 H20 H 0.18819 0.23089 0.12335
 H21 H 0.12311 0.23093 0.18826
 C22 C -0.15955 0.82026 0.20231
 C23 C -0.15956 0.79885 0.18084
 C24 C -0.18075 0.79887 0.15963
 C25 C -0.20220 0.82030 0.15965
 C26 C -0.20220 0.84147 0.18087
 C27 C -0.18075 0.84145 0.20233
 C28 C -0.14178 0.82542 0.22567
 N29 N -0.15180 0.84913 0.23963
 C30 C -0.17554 0.85918 0.22571
 C31 C -0.22555 0.85923 0.17568
 N32 N -0.23947 0.84922 0.15191
 C33 C -0.22554 0.82551 0.14187
 C34 C -0.17554 0.77556 0.14185
 N35 N -0.15181 0.76161 0.15185
 C36 C -0.14180 0.77552 0.17561
 H37 H -0.12308 0.81286 0.23208
 H38 H -0.18808 0.87787 0.23216
 H39 H -0.23199 0.87791 0.18825
 H40 H -0.23196 0.81298 0.12314
 H41 H -0.18807 0.76913 0.12313
 H42 H -0.12310 0.76906 0.18814
 C43 C -0.16031 0.18011 -0.20220
 C44 C -0.16033 0.20157 -0.18078
 C45 C -0.18154 0.20167 -0.15958
 C46 C -0.20299 0.18030 -0.15956
 C47 C -0.20297 0.15908 -0.18074
 C48 C -0.18150 0.15898 -0.20219
 C49 C -0.14251 0.17483 -0.22552
 N50 N -0.15251 0.15111 -0.23942
 C51 C -0.17627 0.14117 -0.22551
 C52 C -0.22630 0.14139 -0.17552
 N53 N -0.24024 0.15147 -0.15178
 C54 C -0.22633 0.17518 -0.14178
 C55 C -0.17633 0.22501 -0.14185
 N56 N -0.15258 0.23884 -0.15188
 C57 C -0.14257 0.22484 -0.17560
 H58 H -0.12379 0.18731 -0.23194
 H59 H -0.18880 0.12250 -0.23192
 H60 H -0.23271 0.12268 -0.18804
 H61 H -0.23277 0.18776 -0.12308
 H62 H -0.18886 0.23152 -0.12315
 H63 H -0.12385 0.23120 -0.18813
 C64 C 0.16041 0.81980 -0.20233
 C65 C 0.16046 0.79835 -0.18090
 C66 C 0.18166 0.79829 -0.15970
 C67 C 0.20306 0.81971 -0.15966
 C68 C 0.20302 0.84092 -0.18085
 C69 C 0.18157 0.84097 -0.20230
 C70 C 0.14261 0.82505 -0.22565
 N71 N 0.15257 0.84879 -0.23955
 C72 C 0.17630 0.85877 -0.22563
 C73 C 0.22631 0.85867 -0.17561
 N74 N 0.24025 0.84861 -0.15186
 C75 C 0.22638 0.82487 -0.14187
 C76 C 0.17647 0.77496 -0.14195
 N77 N 0.15275 0.76108 -0.15199
 C78 C 0.14273 0.77505 -0.17572
 H79 H 0.12392 0.81254 -0.23208
 H80 H 0.18880 0.87748 -0.23203
 H81 H 0.23268 0.87738 -0.18813
 H82 H 0.23283 0.81231 -0.12316
 H83 H 0.18899 0.76848 -0.12324
 H84 H 0.12403 0.76867 -0.18826
 C85 C 0.17887 1.15894 0.79845
 C86 C 0.20027 1.15893 0.81993
 C87 C 0.20029 1.18013 0.84110
 C88 C 0.17889 1.20159 0.84105
 C89 C 0.15771 1.20161 0.81982
 C90 C 0.15770 1.18016 0.79839
 C91 C 0.17372 1.14120 0.77509
 N92 N 0.15004 1.15127 0.76109
 C93 C 0.14000 1.17500 0.77499
 C94 C 0.14002 1.22501 0.82493
 N95 N 0.15007 1.23894 0.84866
 C96 C 0.17376 1.22498 0.85876
 C97 C 0.22363 1.17495 0.85886
 N98 N 0.23755 1.15122 0.84886
 C99 C 0.22361 1.14119 0.82514
 H100 H 0.18628 1.12250 0.76868
 H101 H 0.12134 1.18759 0.76848
 H102 H 0.12136 1.23148 0.81232
 H103 H 0.18633 1.23142 0.87745
 H104 H 0.23011 1.18751 0.87753
 H105 H 0.23007 1.12250 0.81260
 C106 C 0.82118 0.84106 0.79867
 C107 C 0.79976 0.84107 0.82014
 C108 C 0.79979 0.81991 0.84136
 C109 C 0.82124 0.79850 0.84136
 C110 C 0.84242 0.79849 0.82014
 C111 C 0.84239 0.81989 0.79867
 C112 C 0.82629 0.85877 0.77527
 N113 N 0.84999 0.84872 0.76131
 C114 C 0.86009 0.82504 0.77525
 C115 C 0.86016 0.77513 0.82529
 N116 N 0.85012 0.76122 0.84903
 C117 C 0.82641 0.77515 0.85911
 C118 C 0.77641 0.82507 0.85909
 N119 N 0.76244 0.84874 0.84903
 C120 C 0.77637 0.85876 0.82530
 H121 H 0.81368 0.87742 0.76882
 H122 H 0.87877 0.81248 0.76877
 H123 H 0.87882 0.76867 0.81268
 H124 H 0.81384 0.76870 0.87780
 H125 H 0.76994 0.81253 0.87779
 H126 H 0.76987 0.87740 0.81272
 C127 C 0.17924 0.84162 1.20164
 C128 C 0.20065 0.84163 1.18016
 C129 C 0.20067 0.82049 1.15893
 C130 C 0.17927 0.79909 1.15892
 C131 C 0.15810 0.79907 1.18014
 C132 C 0.15808 0.82046 1.20163
 C133 C 0.17409 0.85929 1.22507
 N134 N 0.15042 0.84924 1.23903
 C135 C 0.14038 0.82558 1.22506
 C136 C 0.14044 0.77573 1.17496
 N137 N 0.15049 0.76182 1.15121
 C138 C 0.17415 0.77577 1.14116
 C139 C 0.22402 0.82564 1.14119
 N140 N 0.23794 0.84929 1.15126
 C141 C 0.22400 0.85930 1.17501
 H142 H 0.18665 0.87793 1.23154
 H143 H 0.12173 0.81302 1.23153
 H144 H 0.12180 0.76924 1.18754
 H145 H 0.18671 0.76932 1.12246
 H146 H 0.23050 0.81311 1.12248
 H147 H 0.23046 0.87793 1.18761
 C148 C 0.82063 1.15849 1.20175
 C149 C 0.79920 1.15852 1.18029
 C150 C 0.79921 1.17966 1.15905
 C151 C 0.82065 1.20102 1.15902
 C152 C 0.84183 1.20100 1.18024
 C153 C 0.84182 1.17962 1.20173
 C154 C 0.82576 1.14080 1.22516
 N155 N 0.84947 1.15080 1.23910
 C156 C 0.85954 1.17445 1.22513
 C157 C 0.85954 1.22431 1.17503
 N158 N 0.84950 1.23823 1.15128
 C159 C 0.82580 1.22433 1.14126
 C160 C 0.77585 1.17455 1.14133
 N161 N 0.76189 1.15092 1.15140
 C162 C 0.77583 1.14088 1.17515
 H163 H 0.81318 1.12218 1.23163
 H164 H 0.87822 1.18697 1.23159
 H165 H 0.87820 1.23076 1.18759
 H166 H 0.81325 1.23080 1.12256
 H167 H 0.76938 1.18708 1.12262
 H168 H 0.76934 1.12226 1.18774
 N169 N 0.46968 0.94885 0.96883
 N170 N 0.44771 0.93104 0.96525
 N171 N 0.53047 0.96897 0.94872
 N172 N 0.55254 0.96547 0.93094
 N173 N 0.53051 0.94891 0.96883
 N174 N 0.55260 0.93119 0.96530
 N175 N 0.46963 0.96891 0.94872
 N176 N 0.44762 0.96532 0.93088
 C177 C 0.43427 0.94163 0.94151
 C178 C 0.56601 0.94183 0.94160
 N179 N 0.53027 1.05125 0.96884
 N180 N 0.55223 1.06907 0.96525
 N181 N 0.46949 1.03112 0.94873
 N182 N 0.44741 1.03461 0.93096
 N183 N 0.46944 1.05117 0.96885
 N184 N 0.44732 1.06887 0.96535
 N185 N 0.53032 1.03119 0.94872
 N186 N 0.55232 1.03480 0.93088
 Mn187 Mn 0.49998 1.00005 0.94838
 C188 C 0.56566 1.05849 0.94151
 C189 C 0.43392 1.05824 0.94163
 N190 N 0.53055 0.94890 1.03120
 N191 N 0.55262 0.93114 1.03477
 N192 N 0.46967 0.96890 1.05132
 N193 N 0.44760 0.96539 1.06909
 N194 N 0.46971 0.94885 1.03120
 N195 N 0.44768 0.93111 1.03471
 N196 N 0.53050 0.96896 1.05131
 N197 N 0.55253 0.96542 1.06914
 Mn198 Mn 0.50011 0.94853 1.00002
 C199 C 0.56600 0.94176 1.05851
 C200 C 0.43422 0.94174 1.05842
 N201 N 0.46941 1.05116 1.03123
 N202 N 0.44734 1.06891 1.03483
 N203 N 0.53031 1.03116 1.05131
 N204 N 0.55236 1.03470 1.06909
 N205 N 0.53025 1.05123 1.03121
 N206 N 0.55226 1.06899 1.03473
 N207 N 0.46948 1.03109 1.05134
 N208 N 0.44746 1.03463 1.06918
 Mn209 Mn 0.49984 1.05155 1.00003
 Mn210 Mn 0.49999 1.00003 1.05167
 Cl211 Cl 0.49998 1.00004 1.00002
 C212 C 0.43398 1.05828 1.05857
 C213 C 0.56571 1.05836 1.05844
 N214 N 0.03116 0.46948 0.05083
 N215 N 0.03471 0.44748 0.06867
 N216 N 0.05132 0.53021 0.03072
 N217 N 0.06907 0.55222 0.03424
 N218 N 0.03124 0.53026 0.05083
 N219 N 0.03476 0.55231 0.06860
 N220 N 0.05124 0.46942 0.03071
 N221 N 0.06902 0.44738 0.03430
 C222 C 0.05839 0.43401 0.05804
 C223 C 0.05843 0.56567 0.05794
 N224 N 0.03125 0.53031 -0.05176
 N225 N 0.03484 0.55233 -0.06956
 N226 N 0.05123 0.46945 -0.03166
 N227 N 0.06895 0.44735 -0.03520
 N228 N 0.03115 0.46952 -0.05177
 N229 N 0.03464 0.44748 -0.06956
 N230 N 0.05132 0.53023 -0.03165
 N231 N 0.06914 0.55220 -0.03519
 Mn232 Mn 0.05162 0.49983 -0.00047
 C233 C 0.05854 0.56565 -0.05891
 C234 C 0.05828 0.43399 -0.05892
 N235 N -0.03101 0.53047 0.05084
 N236 N -0.03455 0.55248 0.06868
 N237 N -0.05116 0.46974 0.03073
 N238 N -0.06891 0.44772 0.03424
 N239 N -0.03108 0.46969 0.05083
 N240 N -0.03459 0.44764 0.06860
 N241 N -0.05108 0.53053 0.03074
 N242 N -0.06885 0.55258 0.03431
 Mn243 Mn 0.00008 0.49997 0.05118
 C244 C -0.05822 0.56595 0.05805
 C245 C -0.05826 0.43427 0.05794
 N246 N -0.03111 0.46967 -0.05176
 N247 N -0.03470 0.44766 -0.06957
 N248 N -0.05109 0.53052 -0.03163
 N249 N -0.06878 0.55264 -0.03513
 N250 N -0.03102 0.53046 -0.05175
 N251 N -0.03448 0.55254 -0.06950
 N252 N -0.05117 0.46973 -0.03164
 N253 N -0.06898 0.44777 -0.03518
 Mn254 Mn 0.00007 0.49999 -0.05211
 Mn255 Mn -0.05147 0.50013 -0.00045
 Cl256 Cl 0.00007 0.49998 -0.00046
 C257 C -0.05840 0.43432 -0.05891
 C258 C -0.05811 0.56603 -0.05883
 N259 N 1.03088 0.05111 0.53070
 N260 N 1.03438 0.06889 0.55277
 N261 N 1.05101 0.03107 0.46976
 N262 N 1.06880 0.03465 0.44771
 N263 N 1.03088 0.05111 0.46976
 N264 N 1.03442 0.06890 0.44770
 N265 N 1.05101 0.03108 0.53071
 N266 N 1.06879 0.03466 0.55277
 C267 C 1.05810 0.05831 0.56620
 C268 C 1.05814 0.05832 0.43427
 N269 N 1.03114 -0.05121 0.46979
 N270 N 1.03472 -0.06896 0.44770
 N271 N 1.05118 -0.03113 0.53072
 N272 N 1.06902 -0.03469 0.55276
 N273 N 1.03117 -0.05122 0.53073
 N274 N 1.03482 -0.06901 0.55277
 N275 N 1.05117 -0.03113 0.46978
 N276 N 1.06894 -0.03465 0.44769
 Mn277 Mn 1.05144 -0.00003 0.50024
 C278 C 1.05837 -0.05832 0.43426
 C279 C 1.05849 -0.05838 0.56619
 N280 N 0.96863 0.05104 0.46981
 N281 N 0.96506 0.06879 0.44772
 N282 N 0.94861 0.03096 0.53075
 N283 N 0.93080 0.03451 0.55280
 N284 N 0.96863 0.05104 0.53075
 N285 N 0.96500 0.06883 0.55281
 N286 N 0.94861 0.03097 0.46981
 N287 N 0.93084 0.03449 0.44771
 Mn288 Mn 0.99976 0.05142 0.50026
 C289 C 0.94142 0.05816 0.43428
 C290 C 0.94133 0.05820 0.56624
 N291 N 0.96891 -0.05128 0.53071
 N292 N 0.96542 -0.06905 0.55278
 N293 N 0.94876 -0.03123 0.46978
 N294 N 0.93097 -0.03480 0.44772
 N295 N 0.96889 -0.05127 0.46976
 N296 N 0.96535 -0.06905 0.44770
 N297 N 0.94878 -0.03125 0.53072
 N298 N 0.93102 -0.03482 0.55281
 Mn299 Mn 1.00003 -0.05159 0.50025
 Mn300 Mn 0.94834 -0.00014 0.50027
 Cl301 Cl 0.99989 -0.00009 0.50026
 C302 C 0.94172 -0.05847 0.56623
 C303 C 0.94162 -0.05846 0.43428
 C304 C 1.14021 0.13942 0.26343
 C305 C 1.12974 0.12908 0.28496
 C306 C 1.11725 0.11680 0.31071
 C307 C 1.12604 0.08945 0.32028
 C308 C 1.11398 0.07757 0.34537
 C309 C 1.09308 0.09299 0.36099
 C310 C 1.08427 0.12033 0.35140
 C311 C 1.09633 0.13221 0.32632
 C312 C 1.08073 0.08080 0.38685
 C313 C 1.07041 0.07057 0.40851
 H314 H 1.14220 0.07734 0.30839
 H315 H 1.12095 0.05641 0.35258
 H316 H 1.06812 0.13244 0.36331
 H317 H 1.08937 0.15337 0.31911
 C318 C 0.85968 -0.13946 0.26332
 C319 C 0.87013 -0.12913 0.28488
 C320 C 0.88259 -0.11688 0.31065
 C321 C 0.90328 -0.13242 0.32643
 C322 C 0.91532 -0.12056 0.35153
 C323 C 0.90672 -0.09311 0.36097
 C324 C 0.88605 -0.07755 0.34518
 C325 C 0.87400 -0.08941 0.32008
 C326 C 0.91906 -0.08093 0.38684
 C327 C 0.92937 -0.07070 0.40851
 H328 H 0.91007 -0.15368 0.31934
 H329 H 0.93129 -0.13278 0.36356
 H330 H 0.87924 -0.05630 0.35228
 H331 H 0.85802 -0.07720 0.30805
 C332 C 0.85900 0.13960 0.73693
 C333 C 0.86948 0.12919 0.71541
 C334 C 0.88199 0.11685 0.68969
 C335 C 0.87188 0.09038 0.67906
 C336 C 0.88398 0.07845 0.65400
 C337 C 0.90624 0.09294 0.63946
 C338 C 0.91637 0.11939 0.65011
 C339 C 0.90427 0.13132 0.67517
 C340 C 0.91863 0.08071 0.61362
 C341 C 0.92899 0.07045 0.59198
 H342 H 0.85467 0.07901 0.69012
 H343 H 0.87598 0.05799 0.64596
 H344 H 0.93357 0.13078 0.63904
 H345 H 0.91225 0.15179 0.68319
 C346 C 1.14104 -0.13972 0.73681
 C347 C 1.13054 -0.12933 0.71529
 C348 C 1.11799 -0.11701 0.68957
 C349 C 1.12746 -0.09012 0.67942
 C350 C 1.11532 -0.07820 0.65437
 C351 C 1.09368 -0.09313 0.63936
 C352 C 1.08420 -0.12000 0.64952
 C353 C 1.09633 -0.13192 0.67457
 C354 C 1.08125 -0.08090 0.61354
 C355 C 1.07085 -0.07064 0.59192
 H356 H 1.14419 -0.07841 0.69085
 H357 H 1.12282 -0.05741 0.64671
 H358 H 1.06747 -0.13173 0.63809
 H359 H 1.08885 -0.15273 0.68222
 C360 C 0.26321 1.13935 1.14071
 C361 C 0.28476 1.12899 1.13027
 C362 C 0.31050 1.11672 1.11780
 C363 C 0.31959 1.08899 1.12591
 C364 C 0.34466 1.07711 1.11384
 C365 C 0.36076 1.09291 1.09361
 C366 C 0.35165 1.12062 1.08548
 C367 C 0.32658 1.13249 1.09755
 C368 C 0.38659 1.08071 1.08124
 C369 C 0.40824 1.07049 1.07089
 H370 H 0.30732 1.07660 1.14155
 H371 H 0.35150 1.05566 1.12028
 H372 H 0.36393 1.13302 1.06986
 H373 H 0.31975 1.15395 1.09113
 C374 C 0.26386 0.86005 0.85965
 C375 C 0.28536 0.87044 0.87009
 C376 C 0.31105 0.88281 0.88251
 C377 C 0.32232 0.90859 0.87138
 C378 C 0.34735 0.92055 0.88338
 C379 C 0.36121 0.90679 0.90658
 C380 C 0.34992 0.88102 0.91773
 C381 C 0.32489 0.86906 0.90572
 C382 C 0.38700 0.91906 0.91889
 C383 C 0.40859 0.92935 0.92921
 H384 H 0.31180 0.91940 0.85343
 H385 H 0.35589 0.94048 0.87459
 H386 H 0.36046 0.87020 0.93566
 H387 H 0.31637 0.84912 0.91450
 C388 C 0.73686 0.86066 1.14045
 C389 C 0.71531 0.87103 1.13003
 C390 C 0.68955 0.88335 1.11762
 C391 C 0.66877 0.89625 1.13553
 C392 C 0.64368 0.90812 1.12350
 C393 C 0.63926 0.90715 1.09350
 C394 C 0.66005 0.89427 1.07558
 C395 C 0.68514 0.88240 1.08762
 C396 C 0.61341 0.91933 1.08113
 C397 C 0.59176 0.92955 1.07080
 H398 H 0.67196 0.89710 1.15876
 H399 H 0.62776 0.91803 1.13756
 H400 H 0.65685 0.89341 1.05236
 H401 H 0.70105 0.87247 1.07356
 C402 C 0.73611 1.14007 0.85971
 C403 C 0.71459 1.12971 0.87013
 C404 C 0.68888 1.11735 0.88252
 C405 C 0.67333 1.09636 0.86723
 C406 C 0.64830 1.08440 0.87923
 C407 C 0.63871 1.09338 0.90657
 C408 C 0.65428 1.11435 0.92187
 C409 C 0.67931 1.12631 0.90987
 C410 C 0.61293 1.08109 0.91889
 C411 C 0.59134 1.07079 0.92921
 H412 H 0.68053 1.08927 0.84607
 H413 H 0.63644 1.06819 0.86721
 H414 H 0.64707 1.12145 0.94303
 H415 H 0.69117 1.14252 0.92189
 C416 C 0.13980 0.26338 0.13987
 C417 C 0.12943 0.28490 0.12944
 C418 C 0.11709 0.31063 0.11701
 C419 C 0.08874 0.31876 0.12392
 C420 C 0.07680 0.34382 0.11191
 C421 C 0.09316 0.36085 0.09295
 C422 C 0.12150 0.35270 0.08602
 C423 C 0.13345 0.32764 0.09803
 C424 C 0.08089 0.38667 0.08065
 C425 C 0.07063 0.40829 0.07034
 H426 H 0.07590 0.30577 0.13857
 H427 H 0.05486 0.34992 0.11741
 H428 H 0.13435 0.36570 0.07139
 H429 H 0.15539 0.32156 0.09254
 C430 C -0.14045 0.26381 -0.13981
 C431 C -0.13001 0.28531 -0.12948
 C432 C -0.11755 0.31101 -0.11721
 C433 C -0.13249 0.32644 -0.09581
 C434 C -0.12043 0.35148 -0.08397
 C435 C -0.09339 0.36121 -0.09349
 C436 C -0.07843 0.34576 -0.11487
 C437 C -0.09049 0.32072 -0.12671
 C438 C -0.08102 0.38701 -0.08134
 C439 C -0.07068 0.40862 -0.07114
 H440 H -0.15342 0.31913 -0.08832
 H441 H -0.13218 0.36325 -0.06745
 H442 H -0.05751 0.35308 -0.12238
 H443 H -0.07875 0.30897 -0.14325
 C444 C 0.14063 0.73612 -0.13990
 C445 C 0.13019 0.71461 -0.12957
 C446 C 0.11771 0.68891 -0.11731
 C447 C 0.12635 0.67939 -0.08984
 C448 C 0.11428 0.65436 -0.07798
 C449 C 0.09353 0.63874 -0.09354
 C450 C 0.08488 0.64828 -0.12100
 C451 C 0.09694 0.67331 -0.13286
 C452 C 0.08117 0.61295 -0.08136
 C453 C 0.07084 0.59134 -0.07114
 H454 H 0.14239 0.69129 -0.07762
 H455 H 0.12113 0.64718 -0.05672
 H456 H 0.06885 0.63638 -0.13322
 H457 H 0.09010 0.68048 -0.15412
 C458 C -0.13970 0.73663 0.13972
 C459 C -0.12930 0.71511 0.12932
 C460 C -0.11692 0.68938 0.11693
 C461 C -0.12593 0.67980 0.08961
 C462 C -0.11398 0.65474 0.07763
 C463 C -0.09296 0.63915 0.09292
 C464 C -0.08392 0.64875 0.12023
 C465 C -0.09588 0.67381 0.13221
 C466 C -0.08072 0.61331 0.08063
 C467 C -0.07045 0.59168 0.07033
 H468 H -0.14219 0.69167 0.07761
 H469 H -0.12112 0.64752 0.05650
 H470 H -0.06769 0.63686 0.13224
 H471 H -0.08876 0.68101 0.15335
 C472 C 1.13868 0.13986 0.73736
 C473 C 1.12840 0.12949 0.71576
 C474 C 1.11619 0.11712 0.68995
 C475 C 1.09382 0.13143 0.67535
 C476 C 1.08202 0.11945 0.65020
 C477 C 1.09255 0.09313 0.63956
 C478 C 1.11490 0.07881 0.65417
 C479 C 1.12670 0.09079 0.67932
 C480 C 1.08044 0.08084 0.61366
 C481 C 1.07027 0.07055 0.59198
 H482 H 1.08553 0.15180 0.68339
 H483 H 1.06473 0.13069 0.63907
 H484 H 1.12320 0.05844 0.64613
 H485 H 1.14400 0.07955 0.69045
 C486 C 0.86133 -0.13989 0.73755
 C487 C 0.87159 -0.12954 0.71593
 C488 C 0.88377 -0.11720 0.69009
 C489 C 0.90535 -0.13205 0.67486
 C490 C 0.91711 -0.12010 0.64968
 C491 C 0.90734 -0.09325 0.63964
 C492 C 0.88578 -0.07839 0.65490
 C493 C 0.87401 -0.09034 0.68007
 C494 C 0.91942 -0.08097 0.61373
 C495 C 0.92957 -0.07070 0.59203
 H496 H 0.91303 -0.15284 0.68242
 H497 H 0.93378 -0.13176 0.63805
 H498 H 0.87808 -0.05761 0.64733
 H499 H 0.85733 -0.07868 0.69169
 C500 C 1.13906 -0.13941 0.26281
 C501 C 1.12877 -0.12910 0.28445
 C502 C 1.11655 -0.11681 0.31031
 C503 C 1.09588 -0.13223 0.32617
 C504 C 1.08408 -0.12032 0.35137
 C505 C 1.09290 -0.09297 0.36081
 C506 C 1.11355 -0.07754 0.34493
 C507 C 1.12536 -0.08944 0.31973
 C508 C 1.08077 -0.08074 0.38674
 C509 C 1.07057 -0.07051 0.40845
 H510 H 1.08893 -0.15341 0.31908
 H511 H 1.06811 -0.13243 0.36349
 H512 H 1.12052 -0.05637 0.35203
 H513 H 1.14133 -0.07735 0.30763
 C514 C 0.86083 0.13941 0.26286
 C515 C 0.87111 0.12907 0.28449
 C516 C 0.88333 0.11674 0.31033
 C517 C 0.87488 0.08916 0.31945
 C518 C 0.88667 0.07722 0.34464
 C519 C 0.90695 0.09283 0.36081
 C520 C 0.91542 0.12040 0.35169
 C521 C 0.90363 0.13234 0.32650
 C522 C 0.91905 0.08058 0.38675
 C523 C 0.92923 0.07034 0.40846
 H524 H 0.85919 0.07692 0.30711
 H525 H 0.87998 0.05588 0.35150
 H526 H 0.93109 0.13265 0.36404
 H527 H 0.91030 0.15369 0.31965
 C528 C 0.13873 0.26268 -0.13999
 C529 C 0.12846 0.28429 -0.12966
 C530 C 0.11627 0.31012 -0.11736
 C531 C 0.13177 0.32578 -0.09658
 C532 C 0.11998 0.35095 -0.08470
 C533 C 0.09264 0.36056 -0.09355
 C534 C 0.07713 0.34488 -0.11430
 C535 C 0.08892 0.31971 -0.12619
 C536 C 0.08054 0.38648 -0.08135
 C537 C 0.07040 0.40819 -0.07112
 H538 H 0.15294 0.31856 -0.08961
 H539 H 0.13215 0.36292 -0.06866
 H540 H 0.05597 0.35212 -0.12129
 H541 H 0.07676 0.30775 -0.14224
 C542 C -0.13851 0.26324 0.13921
 C543 C -0.12825 0.28479 0.12883
 C544 C -0.11609 0.31056 0.11647
 C545 C -0.09101 0.32264 0.12836
 C546 C -0.07927 0.34778 0.11643
 C547 C -0.09256 0.36094 0.09257
 C548 C -0.11762 0.34884 0.08065
 C549 C -0.12936 0.32370 0.09259
 C550 C -0.08052 0.38683 0.08034
 C551 C -0.07039 0.40851 0.07011
 H552 H -0.08058 0.31266 0.14684
 H553 H -0.05988 0.35696 0.12580
 H554 H -0.12806 0.35884 0.06220
 H555 H -0.14876 0.31454 0.08323
 C556 C -0.13851 0.73750 -0.13960
 C557 C -0.12821 0.71590 -0.12929
 C558 C -0.11597 0.69007 -0.11703
 C559 C -0.12481 0.68061 -0.08961
 C560 C -0.11303 0.65541 -0.07776
 C561 C -0.09237 0.63958 -0.09329
 C562 C -0.08350 0.64907 -0.12069
 C563 C -0.09528 0.67426 -0.13254
 C564 C -0.08031 0.61362 -0.08115
 C565 C -0.07020 0.59188 -0.07097
 H566 H -0.14080 0.69267 -0.07744
 H567 H -0.12002 0.64827 -0.05656
 H568 H -0.06753 0.63699 -0.13288
 H569 H -0.08830 0.68139 -0.15376
 C570 C 0.13854 0.73678 0.13916
 C571 C 0.12832 0.71520 0.12880
 C572 C 0.11617 0.68940 0.11648
 C573 C 0.12451 0.68040 0.08874
 C574 C 0.11280 0.65525 0.07681
 C575 C 0.09271 0.63900 0.09258
 C576 C 0.08434 0.64802 0.12031
 C577 C 0.09605 0.67317 0.13223
 C578 C 0.08068 0.61311 0.08034
 C579 C 0.07056 0.59143 0.07011
 H580 H 0.14006 0.69280 0.07638
 H581 H 0.11941 0.64847 0.05535
 H582 H 0.06881 0.63562 0.13268
 H583 H 0.08946 0.67994 0.15370
 C584 C 0.26261 1.13918 0.86091
 C585 C 0.28419 1.12884 0.87123
 C586 C 0.31000 1.11654 0.88349
 C587 C 0.32135 1.09080 0.87225
 C588 C 0.34653 1.07892 0.88408
 C589 C 0.36044 1.09273 0.90718
 C590 C 0.34906 1.11844 0.91844
 C591 C 0.32389 1.13032 0.90662
 C592 C 0.38638 1.08056 0.91930
 C593 C 0.40810 1.07037 0.92947
 H594 H 0.31078 1.07997 0.85437
 H595 H 0.35514 1.05903 0.87522
 H596 H 0.35965 1.12929 0.93631
 H597 H 0.31529 1.15023 0.91546
 C598 C 0.26300 0.86127 1.13925
 C599 C 0.28459 0.87153 1.12893
 C600 C 0.31040 0.88372 1.11665
 C601 C 0.32641 0.86805 1.09623
 C602 C 0.35157 0.87984 1.08438
 C603 C 0.36083 0.90735 1.09291
 C604 C 0.34480 0.92304 1.11330
 C605 C 0.31964 0.91124 1.12516
 C606 C 0.38674 0.91946 1.08076
 C607 C 0.40844 0.92961 1.07057
 H608 H 0.31946 0.84675 1.08951
 H609 H 0.36380 0.86754 1.06861
 H610 H 0.35176 0.94433 1.12004
 H611 H 0.30742 0.92354 1.14094
 C612 C 0.73682 1.13896 1.13939
 C613 C 0.71523 1.12870 1.12908
 C614 C 0.68941 1.11649 1.11682
 C615 C 0.67276 1.09706 1.13298
 C616 C 0.64761 1.08525 1.12111
 C617 C 0.63902 1.09284 1.09303
 C618 C 0.65569 1.11225 1.07685
 C619 C 0.68084 1.12406 1.08873
 C620 C 0.61314 1.08072 1.08083
 C621 C 0.59147 1.07053 1.07062
 H622 H 0.67920 1.09107 1.15473
 H623 H 0.63488 1.07025 1.13380
 H624 H 0.64924 1.11826 1.05512
 H625 H 0.69356 1.13907 1.07605
 C626 C 0.73735 0.86075 0.86103
 C627 C 0.71573 0.87108 0.87130
 C628 C 0.68989 0.88340 0.88347
 C629 C 0.67024 0.89805 0.86563
 C630 C 0.64507 0.90996 0.87743
 C631 C 0.63945 0.90726 0.90711
 C632 C 0.65910 0.89263 0.92496
 C633 C 0.68427 0.88072 0.91316
 C634 C 0.61352 0.91946 0.91924
 C635 C 0.59181 0.92967 0.92942
 H636 H 0.67438 0.90024 0.84265
 H637 H 0.63002 0.92124 0.86344
 H638 H 0.65495 0.89043 0.94794
 H639 H 0.69932 0.86943 0.92714
   
