data_POSCAR
  _audit_creation_date              2014-09-24
  _audit_creation_method            'ToBaCCo'
  _symmetry_space_group_name_H-M    'P1'
  _symmetry_Int_Tables_number       1
  _symmetry_cell_setting            triclinic
  loop_
  _symmetry_equiv_pos_as_xyz
 x,y,z
_cell_length_a 15.8647
_cell_length_b 16.3135
_cell_length_c 35.6659
_cell_angle_alpha 91.813600
_cell_angle_beta 86.557500
_cell_angle_gamma 123.889600
loop_
  _atom_site_label
  _atom_site_type_symbol
  _atom_site_fract_x
  _atom_site_fract_y
  _atom_site_fract_z
C1 C -0.10288 0.03087 0.54741
 C2 C -0.18773 -0.02908 0.52023
 C3 C -0.16935 -0.08144 0.49456
 C4 C -0.06591 -0.06849 0.49859
 C5 C -0.08758 -0.04399 0.56492
 C6 C -0.06781 -0.09592 0.53948
 C7 C -0.00618 0.09559 0.52227
 C8 C 0.01328 0.04335 0.49662
 H9 H -0.25685 -0.03033 0.52146
 H10 H -0.04758 -0.10976 0.47826
 H11 H -0.08537 -0.04987 0.59495
 H12 H 0.03968 0.17525 0.52420
 C13 C 0.92472 -0.13377 0.17766
 C14 C 1.00874 -0.11932 0.14940
 C15 C 1.06359 -0.02803 0.13278
 C16 C 1.02875 0.03992 0.14643
 C17 C 0.97635 -0.05296 0.20407
 C18 C 1.03402 0.04279 0.18706
 C19 C 0.86104 -0.11082 0.15472
 C20 C 0.91495 -0.01900 0.13884
 H21 H 1.02567 -0.17464 0.14469
 H22 H 1.07358 0.11399 0.13287
 H23 H 0.96926 -0.06471 0.23413
 H24 H 0.78205 -0.16550 0.14990
 C25 C 0.20857 1.12877 0.84754
 C26 C 0.23525 1.20108 0.81552
 C27 C 0.15676 1.17241 0.79311
 C28 C 0.05934 1.07121 0.80405
 C29 C 0.11334 1.11457 0.86785
 C30 C 0.03502 1.08409 0.84514
 C31 C 0.16978 1.02888 0.82844
 C32 C 0.09189 0.99858 0.80546
 H33 H 0.30632 1.27296 0.81321
 H34 H -0.00475 1.04563 0.78556
 H35 H 0.10675 1.12186 0.89799
 H36 H 0.19968 0.98543 0.83416
 O37 O 0.55201 -0.08913 0.01451
 O38 O 0.46863 -0.02535 -0.06652
 O39 O 0.63376 -0.00907 -0.05081
 O40 O 0.38947 -0.09596 0.00078
 O41 O 0.45550 0.05316 0.02465
 O42 O 0.69679 0.14147 -0.02873
 O43 O 0.52812 0.12346 -0.04329
 O44 O 0.62319 0.06258 0.03655
 Cu45 Cu 0.50413 -0.06992 -0.02776
 Cu46 Cu 0.58162 0.11012 -0.00029
 C47 C 0.60394 -0.02405 0.03873
 C48 C 0.48395 0.05927 -0.06891
 C49 C 0.70677 0.08117 -0.04850
 C50 C 0.38132 -0.03622 0.02185
 O51 O 0.01154 0.45814 0.62471
 O52 O 0.08650 0.62484 0.70486
 O53 O 0.05935 0.45215 0.69318
 O54 O 0.01017 0.61367 0.64017
 O55 O -0.15005 0.52360 0.66181
 O56 O -0.09763 0.37636 0.71786
 O57 O -0.07367 0.54945 0.72602
 O58 O -0.14633 0.36737 0.64874
 Cu59 Cu 0.05771 0.54555 0.66359
 Cu60 Cu -0.13235 0.44554 0.69099
 C61 C -0.07889 0.38382 0.62320
 C62 C 0.01988 0.61870 0.72816
 C63 C -0.01254 0.38636 0.71479
 C64 C -0.07964 0.59472 0.64218
 O65 O 0.35452 0.42501 0.38159
 O66 O 0.49349 0.55608 0.29596
 O67 O 0.33528 0.37921 0.30955
 O68 O 0.53306 0.58437 0.36720
 O69 O 0.61198 0.50763 0.36753
 O70 O 0.41613 0.30535 0.31361
 O71 O 0.58173 0.48873 0.29465
 O72 O 0.43682 0.35166 0.38252
 Cu73 Cu 0.42099 0.49303 0.33855
 Cu74 Cu 0.52068 0.40762 0.33823
 C75 C 0.37150 0.36729 0.39703
 C76 C 0.56234 0.54759 0.28100
 C77 C 0.34217 0.30582 0.30260
 C78 C 0.60615 0.57953 0.37724
 C79 C -0.12501 0.08616 0.57660
 C80 C -0.13163 0.16126 0.56788
 C81 C -0.13974 0.22096 0.59785
 C82 C -0.10240 0.31572 0.59175
 H83 H -0.12133 0.18410 0.53882
 H84 H -0.16291 0.19167 0.62623
 H85 H -0.13276 0.06585 0.60588
 H86 H -0.06965 0.34728 0.56416
 C87 C 0.86460 0.76642 0.19719
 C88 C 0.77212 0.73156 0.21317
 C89 C 0.71522 0.64346 0.23761
 C90 C 0.61949 0.61131 0.24840
 H91 H 0.73839 0.77307 0.20994
 H92 H 0.75325 0.61279 0.24948
 H93 H 0.90124 0.72811 0.20152
 H94 H 0.58523 0.64542 0.23610
 C95 C 0.29251 0.16149 -0.12588
 C96 C 0.36544 0.14495 -0.13277
 C97 C 0.42342 0.14606 -0.10187
 C98 C 0.44810 0.08014 -0.10198
 H99 H 0.37114 0.11522 -0.15970
 H100 H 0.43292 0.18992 -0.07702
 H101 H 0.28711 0.19032 -0.09867
 H102 H 0.43039 0.03131 -0.12590
 C103 C -0.04136 0.83470 0.55029
 C104 C -0.07935 0.78345 0.58229
 C105 C -0.04896 0.71969 0.59575
 C106 C -0.10489 0.65675 0.62367
 H107 H -0.13531 0.78832 0.59937
 H108 H 0.01842 0.72529 0.58368
 H109 H 0.00897 0.82518 0.53161
 H110 H -0.17438 0.64985 0.63395
 C111 C 0.09491 0.13117 0.20678
 C112 C 0.13394 0.13332 0.24111
 C113 C 0.20214 0.22146 0.25926
 C114 C 0.26869 0.22285 0.28346
 H115 H 0.12086 0.06556 0.25190
 H116 H 0.21037 0.28960 0.25184
 H117 H 0.12312 0.20058 0.19279
 H118 H 0.27033 0.15736 0.28493
 C119 C 0.93330 0.05736 -0.14104
 C120 C 0.91985 0.09988 -0.11077
 C121 C 0.81770 0.06551 -0.09496
 C122 C 0.80560 0.11700 -0.06790
 H123 H 0.98512 0.16002 -0.09696
 H124 H 0.75259 -0.00338 -0.10475
 H125 H 0.86827 0.00168 -0.15624
 H126 H 0.87069 0.18758 -0.05929
 C127 C 0.15363 0.00763 0.10673
 C128 C 0.17319 -0.05258 0.08773
 C129 C 0.26770 -0.01276 0.06417
 C130 C 0.28483 -0.07263 0.04364
 H131 H 0.11995 -0.13188 0.08967
 H132 H 0.32469 0.06611 0.06427
 H133 H 0.20558 0.08678 0.10307
 H134 H 0.22686 -0.15122 0.04320
 C135 C 0.75476 0.85549 0.46670
 C136 C 0.76214 0.79260 0.44424
 C137 C 0.68131 0.72575 0.41883
 C138 C 0.68627 0.65589 0.40054
 H139 H 0.82614 0.78625 0.44542
 H140 H 0.61650 0.73070 0.41635
 H141 H 0.68831 0.85842 0.46559
 H142 H 0.75055 0.65077 0.40433
 C143 C 0.16094 0.24161 0.76598
 C144 C 0.07846 0.24159 0.76024
 C145 C 0.08110 0.31611 0.73679
 C146 C -0.00206 0.31794 0.73675
 H147 H 0.00710 0.18818 0.77495
 H148 H 0.14937 0.36869 0.72030
 H149 H 0.23403 0.29897 0.75343
 H150 H -0.06864 0.26467 0.75391
 C151 C 0.87194 0.02053 0.11493
 C152 C 0.77255 -0.02702 0.10918
 C153 C 0.73359 0.01024 0.08269
 C154 C 0.64179 -0.05150 0.06919
 H155 H 0.71824 -0.09700 0.12273
 H156 H 0.78218 0.08526 0.07214
 H157 H 0.92464 0.09064 0.10099
 H158 H 0.59736 -0.12837 0.07780
 C159 C 0.09872 0.08672 0.46792
 C160 C 0.17828 0.18066 0.46831
 C161 C 0.25434 0.22301 0.43652
 C162 C 0.31449 0.32074 0.43238
 H163 H 0.18487 0.22905 0.49107
 H164 H 0.25371 0.17522 0.41454
 H165 H 0.09450 0.03932 0.44509
 H166 H 0.30793 0.36761 0.45292
 C167 C 0.03827 0.90330 0.78482
 C168 C 0.06201 0.83641 0.78605
 C169 C 0.01157 0.74637 0.76282
 C170 C 0.05376 0.69509 0.75716
 H171 H 0.12277 0.84927 0.80283
 H172 H -0.05462 0.72687 0.74778
 H173 H -0.02212 0.88874 0.76729
 H174 H 0.12480 0.72020 0.76980
   
