data_POSCAR
  _audit_creation_date              2014-09-24
  _audit_creation_method            'ToBaCCo'
  _symmetry_space_group_name_H-M    'P1'
  _symmetry_Int_Tables_number       1
  _symmetry_cell_setting            triclinic
  loop_
  _symmetry_equiv_pos_as_xyz
 x,y,z
_cell_length_a 22.8170
_cell_length_b 22.8979
_cell_length_c 25.8063
_cell_angle_alpha 89.994900
_cell_angle_beta 90.204000
_cell_angle_gamma 120.131100
loop_
  _atom_site_label
  _atom_site_type_symbol
  _atom_site_fract_x
  _atom_site_fract_y
  _atom_site_fract_z
O1 O 0.34821 0.56468 0.29269
 O2 O 0.23685 0.56739 0.30874
 C3 C 0.20592 0.59913 0.31836
 O4 O 0.21475 0.65018 0.29249
 O5 O 0.32913 0.76145 0.30894
 C6 C 0.39206 0.79241 0.31878
 O7 O 0.43444 0.78355 0.29311
 O8 O 0.43149 0.66969 0.30923
 C9 C 0.39956 0.60697 0.31871
 O10 O 0.32908 0.56769 0.18959
 O11 O 0.21462 0.56434 0.20563
 C12 C 0.20541 0.60630 0.17958
 O13 O 0.23663 0.66906 0.18941
 O14 O 0.34797 0.78326 0.20590
 C15 C 0.39939 0.79242 0.18025
 O16 O 0.43143 0.76177 0.19000
 O17 O 0.43441 0.65087 0.20613
 C18 C 0.39201 0.59966 0.18015
 Cr19 Cr 0.28405 0.56973 0.24917
 Cr20 Cr 0.28397 0.71413 0.24919
 Cr21 Cr 0.42923 0.71461 0.24961
 O22 O 0.33243 0.66618 0.24935
 O23 O 0.56810 0.33016 0.69047
 O24 O 0.56509 0.21627 0.70654
 C25 C 0.60744 0.20736 0.68088
 O26 O 0.67036 0.23827 0.69072
 O27 O 0.78478 0.34948 0.70710
 C28 C 0.79373 0.40064 0.68133
 O29 O 0.76291 0.43248 0.69102
 O30 O 0.65151 0.43515 0.70689
 C31 C 0.60010 0.39287 0.68092
 O32 O 0.56516 0.34890 0.79357
 O33 O 0.56813 0.23799 0.80965
 C34 C 0.60017 0.20734 0.81941
 O35 O 0.65161 0.21651 0.79378
 O36 O 0.76307 0.33066 0.81017
 C37 C 0.79396 0.39334 0.81997
 O38 O 0.78488 0.43549 0.79418
 O39 O 0.67046 0.43220 0.81003
 C40 C 0.60753 0.40018 0.81949
 Cr41 Cr 0.57035 0.28520 0.75007
 Cr42 Cr 0.71559 0.28558 0.75044
 Cr43 Cr 0.71558 0.43011 0.75052
 O44 O 0.66717 0.33363 0.75035
 N45 N 0.50763 -0.07940 0.41215
 C46 C 0.46436 -0.06805 0.44043
 N47 N 0.39733 -0.10248 0.42873
 N48 N 0.37425 -0.14694 0.38990
 C49 C 0.41745 -0.15844 0.36148
 N50 N 0.48457 -0.12386 0.37333
 C51 C 0.48922 -0.02023 0.48227
 C52 C 0.51013 0.01995 0.51742
 C53 C 0.53502 0.06780 0.55924
 N54 N 0.49178 0.07920 0.58752
 N55 N 0.51488 0.12367 0.62634
 C56 C 0.58200 0.15821 0.63818
 N57 N 0.62517 0.14665 0.60976
 N58 N 0.60206 0.10218 0.57094
 N59 N 1.07835 0.58654 0.41166
 C60 C 1.06717 0.53221 0.44022
 N61 N 1.10145 0.49975 0.42866
 N62 N 1.14560 0.52099 0.38974
 C63 C 1.15694 0.57541 0.36105
 N64 N 1.12250 0.60779 0.37274
 C65 C 1.01975 0.50945 0.48221
 C66 C 0.97993 0.49035 0.51750
 C67 C 0.93251 0.46759 0.55949
 N68 N 0.92120 0.41316 0.58796
 N69 N 0.87704 0.39189 0.62688
 C70 C 0.84273 0.42438 0.63865
 N71 N 0.85420 0.47890 0.61005
 N72 N 0.89836 0.50015 0.57113
 N73 N 0.41239 0.49186 0.41170
 C74 C 0.46711 0.53503 0.44037
 N75 N 0.49973 0.60185 0.42904
 N76 N 0.47826 0.62481 0.39021
 C77 C 0.42345 0.58170 0.36139
 N78 N 0.39091 0.51480 0.37287
 C79 C 0.49016 0.51030 0.48223
 C80 C 0.50950 0.48950 0.51739
 C81 C 0.53256 0.46478 0.55924
 N82 N 0.58735 0.50794 0.58785
 N83 N 0.60883 0.48501 0.62669
 C84 C 0.57623 0.41812 0.63823
 N85 N 0.52135 0.37502 0.60947
 N86 N 0.49988 0.39798 0.57063
 N87 N 0.41214 -0.07974 1.08726
 C88 C 0.46695 -0.06807 1.05901
 N89 N 0.49964 -0.10216 1.07061
 N90 N 0.47815 -0.14662 1.10930
 C91 C 0.42325 -0.15844 1.13770
 N92 N 0.39064 -0.12419 1.12595
 C93 C 0.49004 -0.02025 1.01731
 C94 C 0.50943 0.01994 0.98230
 C95 C 0.53254 0.06778 0.94062
 N96 N 0.58737 0.07947 0.91239
 N97 N 0.60890 0.12393 0.87370
 C98 C 0.57629 0.15819 0.86195
 N99 N 0.52138 0.14635 0.89033
 N100 N 0.49987 0.10188 0.92901
 N101 N 1.10423 0.60291 1.07278
 C102 C 1.06978 0.53612 1.06123
 N103 N 1.08116 0.49309 1.08978
 N104 N 1.12570 0.51614 1.12872
 C105 C 1.16047 0.58311 1.14053
 N106 N 1.14877 0.62601 1.11171
 C107 C 1.02188 0.51125 1.01925
 C108 C 0.98166 0.49038 0.98397
 C109 C 0.93378 0.46557 0.94198
 N110 N 0.89947 0.39880 0.93029
 N111 N 0.85493 0.37575 0.89134
 C112 C 0.84324 0.41872 0.86277
 N113 N 0.87772 0.48558 0.87460
 N114 N 0.92225 0.50861 0.91355
 N115 N 0.39733 0.49993 1.07017
 C116 C 0.46437 0.53254 1.05894
 N117 N 0.50763 0.58714 1.08753
 N118 N 0.48455 0.60850 1.12620
 C119 C 0.41742 0.57597 1.13759
 N120 N 0.37422 0.52128 1.10885
 C121 C 0.48926 0.50957 1.01728
 C122 C 0.51021 0.49031 0.98228
 C123 C 0.53511 0.46735 0.94064
 N124 N 0.60215 0.50002 0.92937
 N125 N 0.62528 0.47865 0.89071
 C126 C 0.58211 0.42389 0.86203
 N127 N 0.51498 0.39130 0.87345
 N128 N 0.49188 0.41268 0.91210
   
