data_POSCAR
  _audit_creation_date              2014-09-24
  _audit_creation_method            'ToBaCCo'
  _symmetry_space_group_name_H-M    'P1'
  _symmetry_Int_Tables_number       1
  _symmetry_cell_setting            triclinic
  loop_
  _symmetry_equiv_pos_as_xyz
 x,y,z
_cell_length_a 63.9876
_cell_length_b 64.0989
_cell_length_c 22.3637
_cell_angle_alpha 89.920500
_cell_angle_beta 89.681000
_cell_angle_gamma 119.738100
loop_
  _atom_site_label
  _atom_site_type_symbol
  _atom_site_fract_x
  _atom_site_fract_y
  _atom_site_fract_z
O1 O 0.21377 0.46956 0.45101
 O2 O 0.25711 0.47092 0.56179
 O3 O 0.21628 0.47106 0.56687
 O4 O 0.25381 0.46811 0.44581
 O5 O 0.27411 0.50768 0.44081
 O6 O 0.23629 0.51064 0.56166
 O7 O 0.27699 0.51046 0.55669
 O8 O 0.23423 0.50913 0.44604
 Cu9 Cu 0.23325 0.46595 0.50697
 Cu10 Cu 0.25745 0.51343 0.50089
 C11 C 0.21656 0.48923 0.42991
 C12 C 0.27466 0.49102 0.57789
 C13 C 0.21956 0.49130 0.58438
 C14 C 0.27046 0.48736 0.42273
 O15 O 0.52305 -0.21695 0.56044
 O16 O 0.52791 -0.25390 0.44153
 O17 O 0.52532 -0.21463 0.44462
 O18 O 0.52420 -0.25732 0.55746
 O19 O 0.48465 -0.27790 0.55193
 O20 O 0.48574 -0.23574 0.43918
 O21 O 0.48833 -0.27489 0.43590
 O22 O 0.48350 -0.23759 0.55471
 Cu23 Cu 0.52908 -0.23365 0.50181
 Cu24 Cu 0.48160 -0.25867 0.49511
 C25 C 0.50252 -0.22048 0.57711
 C26 C 0.50899 -0.27072 0.41830
 C27 C 0.50562 -0.21787 0.42285
 C28 C 0.50417 -0.27517 0.57350
 O29 O 1.26160 0.77647 0.43991
 O30 O 1.21946 0.73788 0.55670
 O31 O 1.26082 0.77756 0.55562
 O32 O 1.22061 0.73607 0.44072
 O33 O 1.23998 0.71568 0.44535
 O34 O 1.27974 0.75673 0.56066
 O35 O 1.23831 0.71702 0.56136
 O36 O 1.28102 0.75614 0.44498
 Cu37 Cu 1.23868 0.75902 0.49765
 Cu38 Cu 1.26164 0.73429 0.50347
 C39 C 1.27880 0.77327 0.42322
 C40 C 1.22147 0.72071 0.57892
 C41 C 1.27733 0.77436 0.57735
 C42 C 1.22329 0.71861 0.42381
 O43 O 0.74989 0.53818 0.56004
 O44 O 0.78941 0.53497 0.44456
 O45 O 0.75075 0.53911 0.44530
 O46 O 0.78877 0.53413 0.56079
 O47 O 0.76635 0.49465 0.55915
 O48 O 0.72824 0.49959 0.44363
 O49 O 0.76683 0.49550 0.44328
 O50 O 0.72768 0.49870 0.55999
 Cu51 Cu 0.77205 0.54055 0.50291
 Cu52 Cu 0.74502 0.49316 0.50143
 C53 C 0.73169 0.51905 0.57901
 C54 C 0.78499 0.51466 0.42443
 C55 C 0.73275 0.52022 0.42552
 C56 C 0.78430 0.51354 0.57916
 O57 O 0.47182 0.25571 0.44299
 O58 O 0.47513 0.21822 0.56297
 O59 O 0.47490 0.25899 0.55885
 O60 O 0.47352 0.21593 0.44720
 O61 O 0.51316 0.23642 0.44162
 O62 O 0.51453 0.27898 0.55319
 O63 O 0.51473 0.23824 0.55718
 O64 O 0.51146 0.27609 0.43730
 Cu65 Cu 0.46987 0.23522 0.50373
 Cu66 Cu 0.51743 0.25950 0.49694
 C67 C 0.49103 0.27237 0.41967
 C68 C 0.49542 0.22139 0.57991
 C69 C 0.49503 0.27654 0.57460
 C70 C 0.49320 0.21878 0.42563
 O71 O 0.73909 0.21487 0.44506
 O72 O 0.78233 0.25794 0.55364
 O73 O 0.74233 0.21693 0.56098
 O74 O 0.78014 0.25496 0.43769
 O75 O 0.76055 0.27519 0.43852
 O76 O 0.72202 0.23643 0.56153
 O77 O 0.76203 0.27742 0.55434
 O78 O 0.71949 0.23508 0.44561
 Cu79 Cu 0.76296 0.23419 0.49924
 Cu80 Cu 0.73902 0.25800 0.50002
 C81 C 0.72175 0.21758 0.42711
 C82 C 0.77963 0.27522 0.57236
 C83 C 0.72558 0.21994 0.58209
 C84 C 0.77710 0.27176 0.41741
 N85 N 0.97764 0.52618 0.06215
 N86 N 0.96061 0.53191 0.06983
 N87 N 1.02722 0.53357 0.10229
 N88 N 1.04514 0.54511 0.13990
 N89 N 1.02814 0.54800 0.05936
 N90 N 1.04669 0.56977 0.06670
 N91 N 0.97673 0.51171 0.10492
 N92 N 0.95909 0.50716 0.14278
 C93 C 0.94916 0.51986 0.12038
 C94 C 1.05721 0.56767 0.11701
 N95 N 1.02200 0.47116 0.06803
 N96 N 1.03853 0.46499 0.07821
 N97 N 0.97299 0.46515 0.10997
 N98 N 0.95447 0.45546 0.14717
 N99 N 0.97143 0.44934 0.07040
 N100 N 0.95177 0.42844 0.07963
 N101 N 1.02346 0.48696 0.10749
 N102 N 1.04102 0.49201 0.14547
 Mn103 Mn 1.00011 0.49935 0.10683
 C104 C 1.05033 0.47823 0.12660
 C105 C 0.94139 0.43254 0.12782
 N106 N 1.02725 0.54583 -0.06947
 N107 N 1.04673 0.56680 -0.07958
 N108 N 0.97504 0.50818 -0.10595
 N109 N 0.95693 0.50268 -0.14252
 N110 N 0.97671 0.52405 -0.06645
 N111 N 0.95979 0.52979 -0.07503
 N112 N 1.02555 0.52997 -0.10904
 N113 N 1.04380 0.53966 -0.14700
 Mn114 Mn 1.00247 0.53630 -0.00366
 C115 C 1.05688 0.56265 -0.12821
 C116 C 0.94755 0.51629 -0.12263
 N117 N 0.97067 0.44711 -0.05839
 N118 N 0.95280 0.42505 -0.06725
 N119 N 1.02190 0.48352 -0.10381
 N120 N 1.04017 0.48898 -0.14031
 N121 N 1.02121 0.46921 -0.06084
 N122 N 1.03902 0.46452 -0.06707
 N123 N 0.97143 0.46155 -0.10107
 N124 N 0.95411 0.44975 -0.14002
 Mn125 Mn 0.99631 0.45893 0.00485
 Mn126 Mn 0.99844 0.49578 -0.10563
 Cl127 Cl 0.99933 0.49758 0.00060
 C128 C 0.94249 0.42702 -0.11815
 C129 C 1.05066 0.47696 -0.11704
 N130 N 0.47870 0.45269 0.07118
 N131 N 0.47590 0.43099 0.07901
 N132 N 0.46742 0.49221 0.11317
 N133 N 0.45622 0.49952 0.14985
 N134 N 0.45254 0.47751 0.07303
 N135 N 0.43071 0.47441 0.08148
 N136 N 0.49350 0.46760 0.11112
 N137 N 0.50120 0.45658 0.14700
 C138 C 0.49009 0.43374 0.12663
 C139 C 0.43332 0.48826 0.12977
 N140 N 0.52561 0.55179 0.06838
 N141 N 0.52799 0.57336 0.07531
 N142 N 0.53774 0.51264 0.10859
 N143 N 0.55001 0.50669 0.14528
 N144 N 0.55175 0.52690 0.06603
 N145 N 0.57393 0.53082 0.07214
 N146 N 0.51157 0.53709 0.11029
 N147 N 0.50398 0.54811 0.14663
 Mn148 Mn 0.50256 0.50236 0.11137
 C149 C 0.51438 0.57073 0.12455
 C150 C 0.57254 0.51810 0.12189
 N151 N 0.45143 0.47700 -0.05602
 N152 N 0.42891 0.47162 -0.06482
 N153 N 0.49155 0.46680 -0.10015
 N154 N 0.49695 0.45483 -0.13945
 N155 N 0.47748 0.45233 -0.05784
 N156 N 0.47293 0.43014 -0.06727
 N157 N 0.46553 0.49153 -0.09818
 N158 N 0.45301 0.49645 -0.13665
 Mn159 Mn 0.46475 0.46460 0.00765
 C160 C 0.43020 0.48402 -0.11518
 C161 C 0.48529 0.43199 -0.11823
 N162 N 0.55070 0.52648 -0.06222
 N163 N 0.57268 0.53003 -0.07057
 N164 N 0.51003 0.53676 -0.10108
 N165 N 0.50407 0.54854 -0.13951
 N166 N 0.52477 0.55143 -0.06063
 N167 N 0.52924 0.57358 -0.07047
 N168 N 0.53609 0.51209 -0.10327
 N169 N 0.54779 0.50576 -0.14124
 Mn170 Mn 0.53848 0.53944 0.00287
 Mn171 Mn 0.50079 0.50180 -0.10136
 Cl172 Cl 0.50164 0.50205 0.00503
 C173 C 0.57058 0.51706 -0.12017
 C174 C 0.51611 0.57150 -0.11970
 N175 N 0.44823 -0.02692 0.06241
 N176 N 0.42663 -0.04569 0.07113
 N177 N 0.48698 0.02417 0.10183
 N178 N 0.49239 0.04171 0.14014
 N179 N 0.47185 0.02358 0.06158
 N180 N 0.46650 0.04070 0.07153
 N181 N 0.46336 -0.02638 0.10264
 N182 N 0.45245 -0.04476 0.13984
 C183 C 0.42952 -0.05667 0.11963
 C184 C 0.47953 0.05193 0.12062
 N185 N 0.54742 0.02656 0.05623
 N186 N 0.56961 0.04406 0.06576
 N187 N 0.50929 -0.02447 0.09943
 N188 N 0.50447 -0.04189 0.13797
 N189 N 0.52393 -0.02390 0.05728
 N190 N 0.52949 -0.04094 0.06610
 N191 N 0.53286 0.02599 0.09863
 N192 N 0.54475 0.04312 0.13801
 Mn193 Mn 0.49811 -0.00018 0.10130
 C194 C 0.56764 0.05437 0.11677
 C195 C 0.51713 -0.05207 0.11657
 N196 N 0.47097 0.02344 -0.06730
 N197 N 0.46689 0.04159 -0.07388
 N198 N 0.46167 -0.02682 -0.10831
 N199 N 0.44999 -0.04484 -0.14557
 N200 N 0.44718 -0.02712 -0.06615
 N201 N 0.42521 -0.04536 -0.07361
 N202 N 0.48534 0.02371 -0.10979
 N203 N 0.49146 0.04205 -0.14632
 Mn204 Mn 0.45930 -0.00174 -0.00235
 C205 C 0.47979 0.05304 -0.12349
 C206 C 0.42727 -0.05630 -0.12329
 N207 N 0.52278 -0.02429 -0.07146
 N208 N 0.52723 -0.04214 -0.07923
 N209 N 0.53098 0.02539 -0.11311
 N210 N 0.54134 0.04405 -0.14949
 N211 N 0.54628 0.02636 -0.07282
 N212 N 0.56753 0.04576 -0.08085
 N213 N 0.50748 -0.02513 -0.11154
 N214 N 0.50112 -0.04354 -0.14769
 Mn215 Mn 0.53539 0.00122 -0.00780
 Mn216 Mn 0.49636 -0.00075 -0.11138
 Cl217 Cl 0.49730 -0.00036 -0.00501
 C218 C 0.51360 -0.05400 -0.12702
 C219 C 0.56415 0.05659 -0.12904
 C220 C 1.20191 0.51097 0.36465
 C221 C 1.18451 0.51130 0.32794
 C222 C 1.16371 0.48988 0.31263
 C223 C 1.16077 0.46795 0.33447
 C224 C 1.17822 0.46763 0.37136
 C225 C 1.19885 0.48918 0.38741
 C226 C 1.14493 0.49151 0.27769
 C227 C 1.12741 0.47317 0.24743
 C228 C 1.10817 0.47521 0.21588
 C229 C 1.09673 0.46026 0.16688
 C230 C 1.07812 0.46139 0.13719
 C231 C 1.07039 0.47732 0.15654
 C232 C 1.08168 0.49214 0.20582
 C233 C 1.10029 0.49107 0.23532
 H234 H 1.21757 0.52791 0.37611
 H235 H 1.18718 0.52843 0.31207
 H236 H 1.14473 0.45109 0.32505
 H237 H 1.17527 0.45056 0.38848
 H238 H 1.14603 0.50891 0.27604
 H239 H 1.12742 0.45635 0.24380
 H240 H 1.10228 0.44772 0.15143
 H241 H 1.06965 0.44968 0.09946
 H242 H 1.07597 0.50444 0.22206
 H243 H 1.10804 0.50228 0.27418
 C244 C 0.53376 0.71772 0.35380
 C245 C 0.53567 0.70259 0.31190
 C246 C 0.51500 0.68349 0.28677
 C247 C 0.49233 0.68058 0.30218
 C248 C 0.49040 0.69570 0.34415
 C249 C 0.51107 0.71418 0.37118
 C250 C 0.51778 0.66671 0.24623
 C251 C 0.50066 0.64365 0.24021
 C252 C 0.50425 0.62559 0.20736
 C253 C 0.49010 0.60140 0.22406
 C254 C 0.49337 0.58371 0.19666
 C255 C 0.51070 0.58974 0.15124
 C256 C 0.52439 0.61382 0.13285
 C257 C 0.52123 0.63165 0.16073
 H258 H 0.55006 0.73192 0.37341
 H259 H 0.55335 0.70539 0.30038
 H260 H 0.47601 0.66666 0.28210
 H261 H 0.47268 0.69272 0.35588
 H262 H 0.53528 0.67295 0.22583
 H263 H 0.48402 0.63695 0.26526
 H264 H 0.47676 0.59620 0.25940
 H265 H 0.48236 0.56526 0.21139
 H266 H 0.53770 0.61889 0.09751
 H267 H 0.53198 0.65003 0.14544
 C268 C 0.31724 -0.21152 0.36450
 C269 C 0.33529 -0.19416 0.32780
 C270 C 0.33326 -0.17480 0.30515
 C271 C 0.31260 -0.17330 0.31961
 C272 C 0.29460 -0.19063 0.35629
 C273 C 0.29683 -0.20977 0.37980
 C274 C 0.35371 -0.15568 0.27065
 C275 C 0.35153 -0.14036 0.23369
 C276 C 0.37221 -0.11986 0.20330
 C277 C 0.36781 -0.10964 0.15275
 C278 C 0.38649 -0.08935 0.12497
 C279 C 0.40997 -0.07869 0.14758
 C280 C 0.41449 -0.08894 0.19790
 C281 C 0.39581 -0.10927 0.22565
 H282 H 0.31958 -0.22597 0.38210
 H283 H 0.35108 -0.19565 0.31780
 H284 H 0.31060 -0.15833 0.30477
 H285 H 0.27921 -0.18862 0.36757
 H286 H 0.37107 -0.15450 0.27570
 H287 H 0.33382 -0.14299 0.22418
 H288 H 0.34979 -0.11729 0.13492
 H289 H 0.38247 -0.08183 0.08625
 H290 H 0.43241 -0.08101 0.21646
 H291 H 0.39988 -0.11608 0.26555
 C292 C 0.79763 0.49081 0.36017
 C293 C 0.81431 0.48931 0.32243
 C294 C 0.83516 0.51015 0.30337
 C295 C 0.83884 0.53266 0.32232
 C296 C 0.82217 0.53415 0.36017
 C297 C 0.80154 0.51323 0.38018
 C298 C 0.85340 0.50749 0.26814
 C299 C 0.87064 0.52509 0.23477
 C300 C 0.88997 0.52265 0.20438
 C301 C 0.90142 0.53688 0.15383
 C302 C 0.92044 0.53576 0.12579
 C303 C 0.92858 0.52061 0.14838
 C304 C 0.91719 0.50643 0.19901
 C305 C 0.89814 0.50746 0.22684
 H306 H 0.78196 0.47434 0.37481
 H307 H 0.81110 0.47175 0.30888
 H308 H 0.85497 0.54912 0.31008
 H309 H 0.82579 0.55170 0.37507
 H310 H 0.85231 0.49009 0.26956
 H311 H 0.87049 0.54175 0.22825
 H312 H 0.89564 0.54891 0.13605
 H313 H 0.92896 0.54695 0.08692
 H314 H 0.92318 0.49469 0.21764
 H315 H 0.89036 0.49682 0.26686
 C316 C 0.46711 0.28464 0.35480
 C317 C 0.46575 0.30022 0.31322
 C318 C 0.48675 0.31943 0.28884
 C319 C 0.50919 0.32202 0.30461
 C320 C 0.51056 0.30646 0.34624
 C321 C 0.48956 0.28785 0.37258
 C322 C 0.48452 0.33664 0.24862
 C323 C 0.50180 0.35970 0.24324
 C324 C 0.49873 0.37808 0.21032
 C325 C 0.51301 0.40218 0.22701
 C326 C 0.51024 0.42016 0.19937
 C327 C 0.49328 0.41450 0.15379
 C328 C 0.47944 0.39050 0.13554
 C329 C 0.48212 0.37240 0.16355
 H330 H 0.45057 0.27037 0.37388
 H331 H 0.44824 0.29765 0.30138
 H332 H 0.52575 0.33605 0.28511
 H333 H 0.52811 0.30920 0.35833
 H334 H 0.46724 0.33066 0.22782
 H335 H 0.51819 0.36611 0.26868
 H336 H 0.52608 0.40710 0.26248
 H337 H 0.52133 0.43854 0.21406
 H338 H 0.46640 0.38569 0.10007
 H339 H 0.47129 0.35411 0.14820
 C340 C 0.68397 0.20260 0.36778
 C341 C 0.66600 0.18540 0.33158
 C342 C 0.66728 0.16533 0.31165
 C343 C 0.68712 0.16285 0.32860
 C344 C 0.70512 0.18008 0.36507
 C345 C 0.70363 0.20003 0.38549
 C346 C 0.64685 0.14679 0.27681
 C347 C 0.64831 0.13070 0.24132
 C348 C 0.62727 0.11177 0.20891
 C349 C 0.63112 0.10211 0.15644
 C350 C 0.61173 0.08373 0.12579
 C351 C 0.58811 0.07444 0.14754
 C352 C 0.58424 0.08401 0.20012
 C353 C 0.60358 0.10242 0.23061
 H354 H 0.68220 0.21771 0.38277
 H355 H 0.65087 0.18768 0.31956
 H356 H 0.68847 0.14733 0.31555
 H357 H 0.71994 0.17750 0.37825
 H358 H 0.63005 0.14700 0.27943
 H359 H 0.66555 0.13180 0.23381
 H360 H 0.64919 0.10882 0.13908
 H361 H 0.61526 0.07661 0.08549
 H362 H 0.56624 0.07707 0.21820
 H363 H 0.59991 0.10879 0.27193
 C364 C 0.51862 0.20805 -0.36035
 C365 C 0.51941 0.19104 -0.32263
 C366 C 0.49814 0.17140 -0.30068
 C367 C 0.47594 0.16937 -0.31640
 C368 C 0.47511 0.18635 -0.35410
 C369 C 0.49642 0.20569 -0.37764
 C370 C 0.49978 0.15248 -0.26611
 C371 C 0.48198 0.13618 -0.23131
 C372 C 0.48282 0.11577 -0.20234
 C373 C 0.46810 0.10463 -0.15221
 C374 C 0.46734 0.08444 -0.12590
 C375 C 0.48109 0.07483 -0.14972
 C376 C 0.49587 0.08597 -0.19975
 C377 C 0.49669 0.10617 -0.22593
 H378 H 0.53545 0.22266 -0.37724
 H379 H 0.53675 0.19298 -0.31151
 H380 H 0.45907 0.15423 -0.30189
 H381 H 0.45763 0.18379 -0.36625
 H382 H 0.51648 0.15213 -0.26971
 H383 H 0.46619 0.13781 -0.22282
 H384 H 0.45705 0.11149 -0.13355
 H385 H 0.45576 0.07619 -0.08741
 H386 H 0.50659 0.07889 -0.21925
 H387 H 0.50764 0.11368 -0.26565
 C388 C 0.71734 0.54282 -0.36755
 C389 C 0.69963 0.54404 -0.33341
 C390 C 0.68020 0.52313 -0.30969
 C391 C 0.67881 0.50088 -0.32014
 C392 C 0.69612 0.49952 -0.35581
 C393 C 0.71548 0.52046 -0.38074
 C394 C 0.66058 0.52469 -0.27885
 C395 C 0.64943 0.51169 -0.23015
 C396 C 0.62922 0.51303 -0.20209
 C397 C 0.62885 0.51611 -0.14011
 C398 C 0.60992 0.51779 -0.11339
 C399 C 0.59067 0.51550 -0.14809
 C400 C 0.59072 0.51173 -0.20986
 C401 C 0.61000 0.51083 -0.23680
 H402 H 0.73189 0.55937 -0.38580
 H403 H 0.70094 0.56135 -0.32604
 H404 H 0.66376 0.48444 -0.30299
 H405 H 0.69405 0.48198 -0.36464
 H406 H 0.65562 0.53747 -0.29588
 H407 H 0.65584 0.50070 -0.20909
 H408 H 0.64345 0.51767 -0.11264
 H409 H 0.61013 0.52053 -0.06556
 H410 H 0.57605 0.50990 -0.23744
 H411 H 0.60978 0.50808 -0.28462
 C412 C 0.79367 0.31176 -0.36862
 C413 C 0.81083 0.32949 -0.33187
 C414 C 0.83095 0.32816 -0.31264
 C415 C 0.83351 0.30852 -0.33077
 C416 C 0.81635 0.29075 -0.36781
 C417 C 0.79629 0.29225 -0.38782
 C418 C 0.84948 0.34839 -0.27733
 C419 C 0.86556 0.34678 -0.24225
 C420 C 0.88458 0.36770 -0.20973
 C421 C 0.89418 0.36378 -0.15739
 C422 C 0.91270 0.38308 -0.12681
 C423 C 0.92218 0.40666 -0.14854
 C424 C 0.91264 0.41059 -0.20096
 C425 C 0.89410 0.39135 -0.23135
 H426 H 0.77854 0.31368 -0.38278
 H427 H 0.80849 0.34448 -0.31886
 H428 H 0.84908 0.30715 -0.31818
 H429 H 0.81912 0.27610 -0.38166
 H430 H 0.84931 0.36519 -0.27932
 H431 H 0.86441 0.32953 -0.23528
 H432 H 0.88733 0.34573 -0.14012
 H433 H 0.91980 0.37951 -0.08665
 H434 H 0.91973 0.42855 -0.21903
 H435 H 0.88777 0.39506 -0.27259
 C436 C 0.47846 -0.20766 -0.36423
 C437 C 0.47709 -0.19079 -0.32725
 C438 C 0.49804 -0.17088 -0.30573
 C439 C 0.52051 -0.16841 -0.32122
 C440 C 0.52192 -0.18525 -0.35815
 C441 C 0.50094 -0.20489 -0.38118
 C442 C 0.49579 -0.15223 -0.27156
 C443 C 0.51323 -0.13588 -0.23672
 C444 C 0.51184 -0.11584 -0.20734
 C445 C 0.52659 -0.10457 -0.15794
 C446 C 0.52691 -0.08470 -0.13121
 C447 C 0.51264 -0.07553 -0.15380
 C448 C 0.49779 -0.08682 -0.20305
 C449 C 0.49742 -0.10671 -0.22971
 H450 H 0.46185 -0.22251 -0.38078
 H451 H 0.45955 -0.19309 -0.31630
 H452 H 0.53716 -0.15304 -0.30710
 H453 H 0.53960 -0.18236 -0.37011
 H454 H 0.47894 -0.15221 -0.27528
 H455 H 0.52915 -0.13723 -0.22828
 H456 H 0.53804 -0.11107 -0.14017
 H457 H 0.53857 -0.07634 -0.09333
 H458 H 0.48669 -0.08005 -0.22161
 H459 H 0.48638 -0.11433 -0.26885
 C460 C 0.31156 0.51409 -0.36495
 C461 C 0.32952 0.51505 -0.32797
 C462 C 0.32829 0.49394 -0.30630
 C463 C 0.30844 0.47166 -0.32198
 C464 C 0.29040 0.47065 -0.35909
 C465 C 0.29187 0.49187 -0.38179
 C466 C 0.34888 0.49606 -0.27125
 C467 C 0.34793 0.47864 -0.23602
 C468 C 0.36932 0.48095 -0.20444
 C469 C 0.36604 0.46739 -0.15232
 C470 C 0.38581 0.46862 -0.12260
 C471 C 0.40925 0.48324 -0.14494
 C472 C 0.41255 0.49672 -0.19719
 C473 C 0.39283 0.49554 -0.22678
 H474 H 0.31344 0.53088 -0.38116
 H475 H 0.34464 0.53244 -0.31687
 H476 H 0.30707 0.45493 -0.30749
 H477 H 0.27561 0.45318 -0.37105
 H478 H 0.36547 0.51310 -0.27394
 H479 H 0.33093 0.46241 -0.22835
 H480 H 0.34812 0.45583 -0.13453
 H481 H 0.38274 0.45794 -0.08253
 H482 H 0.43039 0.50798 -0.21576
 H483 H 0.39611 0.50562 -0.26793
 C484 C 1.18593 0.70941 -0.35850
 C485 C 1.16854 0.69366 -0.31799
 C486 C 1.16926 0.67352 -0.29616
 C487 C 1.18847 0.67003 -0.31360
 C488 C 1.20597 0.68583 -0.35401
 C489 C 1.20473 0.70555 -0.37786
 C490 C 1.14958 0.65657 -0.25601
 C491 C 1.14276 0.63316 -0.25193
 C492 C 1.12130 0.61552 -0.21758
 C493 C 1.10990 0.59134 -0.23490
 C494 C 1.08908 0.57419 -0.20554
 C495 C 1.07934 0.58082 -0.15768
 C496 C 1.09110 0.60486 -0.13895
 C497 C 1.11191 0.62208 -0.16854
 H498 H 1.18438 0.72445 -0.37520
 H499 H 1.15409 0.69691 -0.30477
 H500 H 1.19013 0.65518 -0.29608
 H501 H 1.22029 0.68236 -0.36704
 H502 H 1.13906 0.66324 -0.23354
 H503 H 1.15188 0.62607 -0.27896
 H504 H 1.11686 0.58575 -0.27210
 H505 H 1.08054 0.55574 -0.22064
 H506 H 1.08412 0.61040 -0.10171
 H507 H 1.12063 0.64039 -0.15257
 C508 C 0.79648 0.48881 -0.35876
 C509 C 0.81304 0.48679 -0.32224
 C510 C 0.83399 0.50734 -0.30322
 C511 C 0.83790 0.53010 -0.32100
 C512 C 0.82134 0.53212 -0.35755
 C513 C 0.80061 0.51149 -0.37752
 C514 C 0.85205 0.50421 -0.26904
 C515 C 0.86923 0.52150 -0.23558
 C516 C 0.88838 0.51883 -0.20556
 C517 C 0.90010 0.53343 -0.15625
 C518 C 0.91908 0.53234 -0.12866
 C519 C 0.92691 0.51680 -0.15033
 C520 C 0.91521 0.50215 -0.19958
 C521 C 0.89619 0.50318 -0.22709
 H522 H 0.78073 0.47255 -0.37348
 H523 H 0.80966 0.46905 -0.30958
 H524 H 0.85412 0.54638 -0.30888
 H525 H 0.82515 0.54985 -0.37158
 H526 H 0.85081 0.48676 -0.27119
 H527 H 0.86914 0.53815 -0.22853
 H528 H 0.89460 0.54579 -0.13916
 H529 H 0.92782 0.54388 -0.09082
 H530 H 0.92098 0.49011 -0.21746
 H531 H 0.88819 0.49222 -0.26616
 C532 C 0.51809 0.31448 -0.36704
 C533 C 0.51898 0.33265 -0.33094
 C534 C 0.49776 0.33147 -0.30968
 C535 C 0.47547 0.31151 -0.32500
 C536 C 0.47458 0.29331 -0.36125
 C537 C 0.49587 0.29473 -0.38322
 C538 C 0.49967 0.35213 -0.27538
 C539 C 0.48226 0.35089 -0.23933
 C540 C 0.48411 0.37208 -0.20786
 C541 C 0.47062 0.36854 -0.15534
 C542 C 0.47127 0.38803 -0.12563
 C543 C 0.48523 0.41146 -0.14834
 C544 C 0.49867 0.41505 -0.20097
 C545 C 0.49809 0.39558 -0.23057
 H546 H 0.53484 0.31618 -0.38328
 H547 H 0.53636 0.34787 -0.32017
 H548 H 0.45867 0.31021 -0.31097
 H549 H 0.45717 0.27843 -0.37328
 H550 H 0.51648 0.36891 -0.27914
 H551 H 0.46637 0.33370 -0.23072
 H552 H 0.45954 0.35062 -0.13724
 H553 H 0.46065 0.38473 -0.08524
 H554 H 0.50944 0.43289 -0.21975
 H555 H 0.50810 0.39900 -0.27198
 C556 C 0.71390 0.18564 -0.34689
 C557 C 0.69799 0.16901 -0.30526
 C558 C 0.67747 0.16981 -0.28636
 C559 C 0.67386 0.18848 -0.30755
 C560 C 0.68982 0.20517 -0.34918
 C561 C 0.70975 0.20364 -0.37018
 C562 C 0.66008 0.15053 -0.24607
 C563 C 0.63653 0.14347 -0.24476
 C564 C 0.61837 0.12188 -0.21187
 C565 C 0.59447 0.11059 -0.23160
 C566 C 0.57689 0.08951 -0.20428
 C567 C 0.58278 0.07934 -0.15617
 C568 C 0.60650 0.09098 -0.13493
 C569 C 0.62416 0.11211 -0.16241
 H570 H 0.72919 0.18407 -0.36171
 H571 H 0.70134 0.15499 -0.28917
 H572 H 0.65873 0.19024 -0.29239
 H573 H 0.68629 0.21901 -0.36572
 H574 H 0.66657 0.14031 -0.22169
 H575 H 0.62978 0.15236 -0.27350
 H576 H 0.58946 0.11783 -0.26918
 H577 H 0.55870 0.08107 -0.22127
 H578 H 0.61144 0.08368 -0.09738
 H579 H 0.64220 0.12069 -0.14458
 C580 C 1.20573 0.51442 -0.35223
 C581 C 1.18882 0.51521 -0.31383
 C582 C 1.16912 0.49394 -0.29210
 C583 C 1.16694 0.47176 -0.30868
 C584 C 1.18385 0.47099 -0.34704
 C585 C 1.20319 0.49228 -0.37008
 C586 C 1.15024 0.49562 -0.25712
 C587 C 1.13358 0.47770 -0.22331
 C588 C 1.11315 0.47874 -0.19474
 C589 C 1.10171 0.46417 -0.14465
 C590 C 1.08156 0.46376 -0.11869
 C591 C 1.07230 0.47771 -0.14293
 C592 C 1.08370 0.49226 -0.19304
 C593 C 1.10384 0.49273 -0.21882
 H594 H 1.22040 0.53116 -0.36923
 H595 H 1.19086 0.53251 -0.30213
 H596 H 1.15173 0.45491 -0.29441
 H597 H 1.18130 0.45362 -0.36019
 H598 H 1.15016 0.51244 -0.25979
 H599 H 1.13485 0.46171 -0.21553
 H600 H 1.10835 0.45302 -0.12569
 H601 H 1.07308 0.45234 -0.08014
 H602 H 1.07688 0.50310 -0.21287
 H603 H 1.11156 0.50353 -0.25861
 C604 C 0.48142 0.68758 -0.36935
 C605 C 0.48077 0.66962 -0.33267
 C606 C 0.50208 0.67128 -0.31115
 C607 C 0.52421 0.69156 -0.32665
 C608 C 0.52490 0.70959 -0.36341
 C609 C 0.50353 0.70769 -0.38604
 C610 C 0.50040 0.65076 -0.27636
 C611 C 0.51792 0.65215 -0.24104
 C612 C 0.51633 0.63105 -0.20934
 C613 C 0.53024 0.63478 -0.15798
 C614 C 0.52990 0.61541 -0.12823
 C615 C 0.51582 0.59190 -0.14972
 C616 C 0.50191 0.58812 -0.20113
 C617 C 0.50221 0.60746 -0.23080
 H618 H 0.46452 0.68537 -0.38556
 H619 H 0.46349 0.65417 -0.32169
 H620 H 0.54110 0.69328 -0.31235
 H621 H 0.54229 0.72470 -0.37528
 H622 H 0.48366 0.63390 -0.27929
 H623 H 0.53377 0.66939 -0.23330
 H624 H 0.54144 0.65276 -0.14085
 H625 H 0.54087 0.61887 -0.08879
 H626 H 0.49104 0.57021 -0.21897
 H627 H 0.49186 0.60387 -0.27134
 C628 C 0.31363 -0.21092 -0.35762
 C629 C 0.33101 -0.19350 -0.32060
 C630 C 0.32952 -0.17321 -0.30368
 C631 C 0.31003 -0.17082 -0.32405
 C632 C 0.29265 -0.18823 -0.36123
 C633 C 0.29444 -0.20831 -0.37907
 C634 C 0.34957 -0.15417 -0.26905
 C635 C 0.34766 -0.13758 -0.23671
 C636 C 0.36847 -0.11753 -0.20654
 C637 C 0.39212 -0.10801 -0.22871
 C638 C 0.41121 -0.08830 -0.20109
 C639 C 0.40711 -0.07763 -0.15098
 C640 C 0.38355 -0.08715 -0.12865
 C641 C 0.36440 -0.10681 -0.15648
 H642 H 0.31558 -0.22613 -0.37061
 H643 H 0.34591 -0.19569 -0.30590
 H644 H 0.30856 -0.15514 -0.31345
 H645 H 0.27818 -0.18562 -0.37732
 H646 H 0.36652 -0.15412 -0.26985
 H647 H 0.33026 -0.13888 -0.23074
 H648 H 0.39590 -0.11524 -0.26837
 H649 H 0.42918 -0.08124 -0.21948
 H650 H 0.37986 -0.07921 -0.09018
 H651 H 0.34633 -0.11366 -0.13895
 C652 C 0.48373 -0.20370 0.35678
 C653 C 0.48336 -0.18650 0.31921
 C654 C 0.50479 -0.16576 0.30283
 C655 C 0.52678 -0.16268 0.32438
 C656 C 0.52715 -0.17991 0.36217
 C657 C 0.50559 -0.20046 0.37935
 C658 C 0.50315 -0.14709 0.26738
 C659 C 0.52146 -0.12985 0.23578
 C660 C 0.51956 -0.11048 0.20451
 C661 C 0.53400 -0.09948 0.15393
 C662 C 0.53302 -0.08069 0.12460
 C663 C 0.51780 -0.07236 0.14597
 C664 C 0.50349 -0.08323 0.19680
 C665 C 0.50439 -0.10204 0.22588
 H666 H 0.46679 -0.21931 0.36914
 H667 H 0.46618 -0.18924 0.30357
 H668 H 0.54364 -0.14665 0.31412
 H669 H 0.54427 -0.17683 0.37910
 H670 H 0.48582 -0.14795 0.26674
 H671 H 0.53815 -0.13016 0.23108
 H672 H 0.54602 -0.10549 0.13702
 H673 H 0.54433 -0.07253 0.08564
 H674 H 0.49173 -0.07706 0.21454
 H675 H 0.49362 -0.10947 0.26593
 C676 C 0.28304 0.46376 0.35728
 C677 C 0.29881 0.46261 0.31568
 C678 C 0.31801 0.48369 0.29168
 C679 C 0.32038 0.50599 0.30773
 C680 C 0.30462 0.50715 0.34936
 C681 C 0.28605 0.48607 0.37542
 C682 C 0.33548 0.48171 0.25157
 C683 C 0.35857 0.49907 0.24688
 C684 C 0.37716 0.49625 0.21396
 C685 C 0.40123 0.51050 0.23114
 C686 C 0.41939 0.50793 0.20343
 C687 C 0.41392 0.49120 0.15732
 C688 C 0.38996 0.47739 0.13861
 C689 C 0.37169 0.47987 0.16666
 H690 H 0.26880 0.44717 0.37615
 H691 H 0.29642 0.44520 0.30358
 H692 H 0.33439 0.52260 0.28847
 H693 H 0.30721 0.52460 0.36173
 H694 H 0.32966 0.46456 0.23031
 H695 H 0.36479 0.51531 0.27282
 H696 H 0.40598 0.52339 0.26701
 H697 H 0.43774 0.51901 0.21841
 H698 H 0.38531 0.46455 0.10270
 H699 H 0.35345 0.46909 0.15091
 C700 C 1.20866 0.68116 0.36314
 C701 C 1.19165 0.66354 0.32582
 C702 C 1.17213 0.66545 0.30417
 C703 C 1.17011 0.68562 0.32020
 C704 C 1.18713 0.70326 0.35764
 C705 C 1.20642 0.70107 0.38014
 C706 C 1.15344 0.64524 0.26914
 C707 C 1.13776 0.64716 0.23322
 C708 C 1.11799 0.62630 0.20236
 C709 C 1.10821 0.63024 0.15039
 C710 C 1.08874 0.61113 0.12186
 C711 C 1.07849 0.58773 0.14527
 C712 C 1.08827 0.58373 0.19717
 C713 C 1.10776 0.60280 0.22556
 H714 H 1.22327 0.67889 0.37977
 H715 H 1.19356 0.64813 0.31454
 H716 H 1.15500 0.68748 0.30592
 H717 H 1.18479 0.71829 0.37024
 H718 H 1.15293 0.62814 0.27271
 H719 H 1.13961 0.66463 0.22478
 H720 H 1.11559 0.64819 0.13196
 H721 H 1.08151 0.61474 0.08200
 H722 H 1.08062 0.56590 0.21644
 H723 H 1.11422 0.59911 0.26659
 C724 C 0.51489 0.20399 0.36017
 C725 C 0.51508 0.18656 0.32322
 C726 C 0.49353 0.16598 0.30754
 C727 C 0.47162 0.16327 0.32926
 C728 C 0.47142 0.18073 0.36639
 C729 C 0.49308 0.20114 0.38280
 C730 C 0.49493 0.14712 0.27241
 C731 C 0.47655 0.13008 0.24130
 C732 C 0.47815 0.11061 0.20974
 C733 C 0.46344 0.09971 0.16007
 C734 C 0.46408 0.08083 0.13043
 C735 C 0.47924 0.07230 0.15051
 C736 C 0.49384 0.08307 0.20043
 C737 C 0.49327 0.10197 0.22987
 H738 H 0.53191 0.21947 0.37198
 H739 H 0.53221 0.18902 0.30745
 H740 H 0.45465 0.14738 0.31958
 H741 H 0.45434 0.17794 0.38342
 H742 H 0.51214 0.14773 0.27141
 H743 H 0.46001 0.13066 0.23703
 H744 H 0.45146 0.10587 0.14410
 H745 H 0.45255 0.07277 0.09219
 H746 H 0.50556 0.07673 0.21719
 H747 H 0.50426 0.10932 0.26923
 C748 C 0.71431 0.54324 0.38297
 C749 C 0.69680 0.54440 0.34848
 C750 C 0.68139 0.52502 0.31238
 C751 C 0.68389 0.50444 0.31084
 C752 C 0.70106 0.50304 0.34650
 C753 C 0.71626 0.52236 0.38332
 C754 C 0.66150 0.52585 0.28155
 C755 C 0.65323 0.51584 0.22816
 C756 C 0.63245 0.51610 0.20073
 C757 C 0.63289 0.52137 0.13970
 C758 C 0.61348 0.52227 0.11386
 C759 C 0.59307 0.51716 0.14843
 C760 C 0.59236 0.51114 0.20904
 C761 C 0.61196 0.51083 0.23511
 H762 H 0.72563 0.55830 0.41138
 H763 H 0.69502 0.56033 0.35067
 H764 H 0.67189 0.48904 0.28425
 H765 H 0.70215 0.48672 0.34614
 H766 H 0.65374 0.53560 0.30314
 H767 H 0.66237 0.50821 0.20317
 H768 H 0.64846 0.52527 0.11240
 H769 H 0.61431 0.52674 0.06686
 H770 H 0.57679 0.50704 0.23654
 H771 H 0.61102 0.50624 0.28205
 C772 C 0.81112 0.28339 0.34505
 C773 C 0.82790 0.29947 0.30395
 C774 C 0.82765 0.32045 0.28737
 C775 C 0.80938 0.32441 0.31041
 C776 C 0.79251 0.30825 0.35147
 C777 C 0.79350 0.28781 0.37010
 C778 C 0.84700 0.33784 0.24720
 C779 C 0.85463 0.36148 0.24729
 C780 C 0.87617 0.37940 0.21366
 C781 C 0.88824 0.40320 0.23403
 C782 C 0.90930 0.42048 0.20577
 C783 C 0.91865 0.41436 0.15614
 C784 C 0.90621 0.39076 0.13437
 C785 C 0.88512 0.37343 0.16269
 H786 H 0.81227 0.26771 0.35805
 H787 H 0.84159 0.29585 0.28639
 H788 H 0.80807 0.33994 0.29709
 H789 H 0.77900 0.31203 0.36948
 H790 H 0.85676 0.33115 0.22133
 H791 H 0.84625 0.36840 0.27743
 H792 H 0.88164 0.40835 0.27278
 H793 H 0.91838 0.43860 0.22323
 H794 H 0.91286 0.38564 0.09566
 H795 H 0.87591 0.35550 0.14428
   
