data_POSCAR
  _audit_creation_date              2014-09-24
  _audit_creation_method            'ToBaCCo'
  _symmetry_space_group_name_H-M    'P1'
  _symmetry_Int_Tables_number       1
  _symmetry_cell_setting            triclinic
  loop_
  _symmetry_equiv_pos_as_xyz
 x,y,z
_cell_length_a 25.5410
_cell_length_b 25.2908
_cell_length_c 24.3997
_cell_angle_alpha 89.258300
_cell_angle_beta 90.658600
_cell_angle_gamma 90.132900
loop_
  _atom_site_label
  _atom_site_type_symbol
  _atom_site_fract_x
  _atom_site_fract_y
  _atom_site_fract_z
C1 C 1.25077 0.25070 0.24732
 C2 C 0.74665 -0.25240 0.25193
 C3 C 0.74927 0.25239 -0.25145
 C4 C 1.24644 -0.24695 -0.24805
 C5 C 0.25224 0.24292 0.75021
 C6 C 0.75414 0.74620 0.74630
 C7 C 0.75266 0.24812 0.24928
 C8 C 0.25718 0.74596 0.24682
 N9 N 1.05931 0.05333 0.09894
 N10 N 1.09276 0.06616 0.13821
 N11 N 0.95065 0.09328 0.06335
 N12 N 0.91934 0.13252 0.07614
 N13 N 0.94984 0.05617 0.10155
 N14 N 0.91753 0.06903 0.14107
 N15 N 1.06005 0.08898 0.05929
 N16 N 1.09459 0.12638 0.07011
 C17 C 1.11529 0.11098 0.11887
 C18 C 0.89854 0.11657 0.12434
 N19 N 0.94186 0.05649 -0.09224
 N20 N 0.90730 0.06979 -0.13063
 N21 N 1.05544 0.08909 -0.05816
 N22 N 1.09251 0.12380 -0.06943
 N23 N 1.05208 0.05331 -0.09652
 N24 N 1.08658 0.06319 -0.13541
 N25 N 0.94559 0.09366 -0.05527
 N26 N 0.91417 0.13348 -0.06804
 Mn27 Mn 1.00293 0.09156 0.00228
 C28 C 0.88979 0.11759 -0.11458
 C29 C 1.11196 0.10700 -0.11748
 N30 N 0.94661 -0.05849 0.10380
 N31 N 0.91439 -0.06989 0.14428
 N32 N 1.05325 -0.09799 0.06328
 N33 N 1.08593 -0.13692 0.07520
 N34 N 1.05632 -0.06109 0.10059
 N35 N 1.09157 -0.07379 0.13857
 N36 N 0.94344 -0.09454 0.06555
 N37 N 0.90843 -0.13091 0.07864
 Mn38 Mn 1.00299 -0.00252 0.10164
 C39 C 0.89022 -0.11455 0.12740
 C40 C 1.11000 -0.12104 0.12188
 N41 N 1.04796 -0.06108 -0.09455
 N42 N 1.08055 -0.07307 -0.13399
 N43 N 0.93986 -0.09533 -0.05317
 N44 N 0.90939 -0.13522 -0.06753
 N45 N 0.93841 -0.05778 -0.09097
 N46 N 0.90640 -0.07107 -0.13141
 N47 N 1.04959 -0.09718 -0.05533
 N48 N 1.08391 -0.13432 -0.06679
 Mn49 Mn 0.99499 -0.00224 -0.09397
 Mn50 Mn 0.99655 -0.09661 0.00512
 Cl51 Cl 0.99923 -0.00252 0.00378
 C52 C 1.10311 -0.11846 -0.11583
 C53 C 0.88791 -0.11903 -0.11580
 N54 N 1.05851 0.44114 0.40205
 N55 N 1.09306 0.42958 0.36426
 N56 N 0.94919 0.40432 0.43996
 N57 N 0.91681 0.36540 0.42793
 N58 N 0.94823 0.44088 0.40120
 N59 N 0.91437 0.42800 0.36216
 N60 N 1.05850 0.40465 0.44088
 N61 N 1.09268 0.36718 0.43031
 C62 C 1.11443 0.38364 0.38277
 C63 C 0.89480 0.38102 0.37980
 N64 N 0.95025 0.44207 0.59618
 N65 N 0.91602 0.43080 0.63482
 N66 N 1.05928 0.40546 0.55894
 N67 N 1.09210 0.36703 0.57203
 N68 N 1.06049 0.44247 0.59625
 N69 N 1.09453 0.43007 0.63566
 N70 N 0.94923 0.40576 0.55819
 N71 N 0.91405 0.36908 0.56978
 Mn72 Mn 1.00401 0.40477 0.49955
 C73 C 0.89319 0.38554 0.61738
 C74 C 1.11464 0.38342 0.61918
 N75 N 0.94835 0.55540 0.39851
 N76 N 0.91216 0.56548 0.36070
 N77 N 1.05774 0.59314 0.43571
 N78 N 1.08981 0.63199 0.42187
 N79 N 1.05845 0.55567 0.39895
 N80 N 1.09161 0.56783 0.35951
 N81 N 0.94792 0.59165 0.43658
 N82 N 0.91113 0.62702 0.42602
 Mn83 Mn 1.00342 0.49825 0.39967
 C84 C 0.88895 0.61001 0.37875
 C85 C 1.11124 0.61532 0.37472
 N86 N 1.05963 0.55748 0.59383
 N87 N 1.09109 0.57207 0.63424
 N88 N 0.95014 0.59308 0.55501
 N89 N 0.91724 0.63132 0.56675
 N90 N 0.94979 0.55625 0.59349
 N91 N 0.91600 0.56818 0.63201
 N92 N 1.05991 0.59311 0.55406
 N93 N 1.09221 0.63218 0.56608
 Mn94 Mn 1.00511 0.49956 0.59541
 Mn95 Mn 1.00391 0.59306 0.49534
 Cl96 Cl 1.00417 0.49894 0.49747
 C97 C 1.11198 0.61810 0.61577
 C98 C 0.89566 0.61487 0.61438
 N99 N 0.59223 0.05468 0.55787
 N100 N 0.63021 0.08781 0.57038
 N101 N 0.55836 -0.05711 0.59543
 N102 N 0.56997 -0.09351 0.63290
 N103 N 0.59389 -0.05596 0.55696
 N104 N 0.63035 -0.09170 0.56699
 N105 N 0.55640 0.05399 0.59608
 N106 N 0.56914 0.08718 0.63554
 C107 C 0.61504 0.10838 0.61840
 C108 C 0.61482 -0.11508 0.61431
 N109 N 0.40866 -0.05895 0.55622
 N110 N 0.36954 -0.09034 0.56974
 N111 N 0.44267 0.05117 0.59570
 N112 N 0.42805 0.08170 0.63629
 N113 N 0.40710 0.05164 0.55636
 N114 N 0.36792 0.08301 0.56879
 N115 N 0.44520 -0.05959 0.59461
 N116 N 0.43190 -0.09199 0.63499
 Mn117 Mn 0.50071 -0.00287 0.59600
 C118 C 0.38503 -0.11146 0.61831
 C119 C 0.38182 0.10206 0.61835
 N120 N 0.59407 -0.05325 0.43902
 N121 N 0.63303 -0.08488 0.42673
 N122 N 0.55531 0.05621 0.40087
 N123 N 0.56674 0.09052 0.36158
 N124 N 0.59094 0.05745 0.44009
 N125 N 0.62712 0.09314 0.42888
 N126 N 0.55741 -0.05454 0.40089
 N127 N 0.57032 -0.08763 0.36185
 Mn128 Mn 0.59311 0.00075 0.49852
 C129 C 0.61743 -0.10652 0.37890
 C130 C 0.61105 0.11393 0.38020
 N131 N 0.40731 0.05341 0.43910
 N132 N 0.37096 0.08928 0.42920
 N133 N 0.44426 -0.05671 0.40002
 N134 N 0.43374 -0.09187 0.36189
 N135 N 0.40860 -0.05818 0.43834
 N136 N 0.37326 -0.09497 0.42769
 N137 N 0.44259 0.05408 0.40043
 N138 N 0.43075 0.09001 0.36266
 Mn139 Mn 0.40758 -0.00304 0.49738
 Mn140 Mn 0.49984 -0.00031 0.40002
 Cl141 Cl 0.50033 -0.00142 0.49807
 C142 C 0.38677 0.11248 0.38207
 C143 C 0.38974 -0.11594 0.38011
 N144 N 0.59423 0.55103 0.05676
 N145 N 0.63210 0.58462 0.06868
 N146 N 0.55607 0.43998 0.09372
 N147 N 0.56793 0.40521 0.13269
 N148 N 0.59166 0.44004 0.05534
 N149 N 0.62819 0.40470 0.06664
 N150 N 0.55890 0.55022 0.09544
 N151 N 0.57207 0.58289 0.13502
 C152 C 0.61746 0.60449 0.11731
 C153 C 0.61251 0.38292 0.11461
 N154 N 0.40671 0.44481 0.05395
 N155 N 0.36847 0.41134 0.06477
 N156 N 0.44597 0.55314 0.09485
 N157 N 0.43465 0.58598 0.13467
 N158 N 0.41028 0.55572 0.05577
 N159 N 0.37413 0.59077 0.06764
 N160 N 0.44319 0.44233 0.09226
 N161 N 0.43080 0.40688 0.13007
 Mn162 Mn 0.50099 0.49636 0.09456
 C163 C 0.38442 0.38741 0.11190
 C164 C 0.39018 0.60984 0.11659
 N165 N 0.59140 0.44259 -0.06188
 N166 N 0.62876 0.40879 -0.07342
 N167 N 0.55785 0.55491 -0.10029
 N168 N 0.57091 0.58880 -0.13941
 N169 N 0.59366 0.55399 -0.06122
 N170 N 0.63164 0.58776 -0.07242
 N171 N 0.55603 0.44436 -0.10136
 N172 N 0.56925 0.41256 -0.14148
 Mn173 Mn 0.59311 0.49699 -0.00276
 C174 C 0.61413 0.38983 -0.12276
 C175 C 0.61654 0.60969 -0.12094
 N176 N 0.40992 0.55835 -0.06166
 N177 N 0.37351 0.59384 -0.07251
 N178 N 0.44234 0.44648 -0.10140
 N179 N 0.42978 0.41253 -0.14007
 N180 N 0.40568 0.44791 -0.06410
 N181 N 0.36698 0.41546 -0.07675
 N182 N 0.44470 0.55732 -0.10087
 N183 N 0.43235 0.59185 -0.13994
 Mn184 Mn 0.40779 0.50174 -0.00399
 Mn185 Mn 0.50018 0.50068 -0.10152
 Cl186 Cl 0.50055 0.49891 -0.00348
 C187 C 0.38865 0.61505 -0.12073
 C188 C 0.38289 0.39323 -0.12382
 C189 C 1.16277 0.20273 0.22881
 C190 C 1.21299 0.21787 0.21092
 C191 C 1.23139 0.19341 0.16260
 C192 C 1.20023 0.15763 0.13314
 C193 C 1.15016 0.14424 0.15146
 C194 C 1.13243 0.16635 0.19983
 C195 C 1.08305 0.19640 0.20698
 C196 C 1.11550 0.23695 0.23711
 H197 H 1.27068 0.20088 0.14823
 H198 H 1.21515 0.14064 0.09593
 H199 H 1.05503 0.17486 0.23377
 H200 H 1.06618 0.21156 0.16761
 H201 H 1.10404 0.23989 0.28069
 H202 H 1.11820 0.27555 0.21492
 C203 C 1.21170 0.72083 0.65710
 C204 C 1.21004 0.71988 0.71482
 C205 C 1.16973 0.68880 0.73858
 C206 C 1.13786 0.65559 0.70654
 C207 C 1.14418 0.65356 0.64948
 C208 C 1.17905 0.68925 0.62546
 C209 C 1.22005 0.68004 0.58375
 C210 C 1.25601 0.71463 0.61808
 H211 H 1.16458 0.68809 0.78245
 H212 H 1.10907 0.63075 0.72658
 H213 H 1.20958 0.69811 0.54333
 H214 H 1.23271 0.63803 0.58249
 H215 H 1.26634 0.75227 0.59682
 H216 H 1.28975 0.69278 0.63611
 C217 C 0.65863 0.21091 0.72029
 C218 C 0.71311 0.21650 0.71316
 C219 C 0.73439 0.18207 0.67330
 C220 C 0.70244 0.14821 0.64143
 C221 C 0.64805 0.14467 0.65025
 C222 C 0.62847 0.17644 0.69099
 C223 C 0.57967 0.18717 0.72103
 C224 C 0.61280 0.22602 0.75471
 H225 H 0.77624 0.18062 0.66708
 H226 H 0.72080 0.12358 0.61122
 H227 H 0.56616 0.15220 0.74506
 H228 H 0.54949 0.20660 0.69455
 H229 H 0.61750 0.21352 0.79825
 H230 H 0.60006 0.26755 0.74809
 C231 C 0.67352 0.67990 0.23558
 C232 C 0.71269 0.71269 0.21390
 C233 C 0.72125 0.70627 0.15664
 C234 C 0.68955 0.67208 0.12467
 C235 C 0.64910 0.64198 0.14885
 C236 C 0.64267 0.64790 0.20474
 C237 C 0.61728 0.62255 0.25295
 C238 C 0.65202 0.65884 0.28821
 H239 H 0.75359 0.72526 0.13620
 H240 H 0.69761 0.66837 0.08141
 H241 H 0.62749 0.57999 0.25736
 H242 H 0.57486 0.63193 0.25494
 H243 H 0.68194 0.63690 0.31284
 H244 H 0.62936 0.68856 0.31110
 C245 C 0.83630 -0.20614 0.23540
 C246 C 0.78397 -0.21545 0.21993
 C247 C 0.76571 -0.18331 0.17521
 C248 C 0.80010 -0.15046 0.14462
 C249 C 0.85304 -0.14508 0.16043
 C250 C 0.86854 -0.17257 0.20742
 C251 C 0.91454 -0.18252 0.24377
 C252 C 0.87839 -0.21976 0.27641
 H253 H 0.72524 -0.18518 0.16218
 H254 H 0.78522 -0.12921 0.10893
 H255 H 0.92658 -0.14669 0.26663
 H256 H 0.94647 -0.20335 0.22231
 H257 H 0.86947 -0.20519 0.31803
 H258 H 0.89101 -0.26164 0.27507
 C259 C 0.79225 0.28182 0.65538
 C260 C 0.78430 0.28933 0.71206
 C261 C 0.81159 0.33284 0.73539
 C262 C 0.84702 0.36382 0.70516
 C263 C 0.85543 0.35406 0.64954
 C264 C 0.82762 0.31277 0.62540
 C265 C 0.79210 0.31750 0.57688
 C266 C 0.75291 0.28535 0.60903
 H267 H 0.80434 0.34475 0.77692
 H268 H 0.86714 0.39607 0.72527
 H269 H 0.80767 0.29644 0.54084
 H270 H 0.77918 0.35881 0.56848
 H271 H 0.74480 0.24687 0.58923
 H272 H 0.71737 0.30806 0.61991
 C273 C 0.33864 -0.21082 0.72324
 C274 C 0.28325 -0.20994 0.71769
 C275 C 0.26320 -0.17188 0.67962
 C276 C 0.29612 -0.13939 0.64817
 C277 C 0.35066 -0.14329 0.65328
 C278 C 0.37109 -0.17769 0.69280
 C279 C 0.41187 -0.21880 0.68567
 C280 C 0.37691 -0.25561 0.71821
 H281 H 0.22234 -0.16922 0.66976
 H282 H 0.27871 -0.11239 0.61838
 H283 H 0.44898 -0.20873 0.70742
 H284 H 0.41630 -0.23061 0.64222
 H285 H 0.39533 -0.26743 0.75791
 H286 H 0.36132 -0.28900 0.69382
 C287 C 0.34069 0.29256 0.22274
 C288 C 0.28735 0.28381 0.21002
 C289 C 0.26672 0.31135 0.16356
 C290 C 0.29814 0.34469 0.13140
 C291 C 0.35144 0.35143 0.14418
 C292 C 0.37159 0.32603 0.19083
 C293 C 0.41801 0.29070 0.19428
 C294 C 0.38471 0.25344 0.22809
 H295 H 0.22564 0.30785 0.15273
 H296 H 0.28060 0.36511 0.09653
 H297 H 0.45076 0.30871 0.21800
 H298 H 0.42898 0.27440 0.15389
 H299 H 0.39979 0.24911 0.27077
 H300 H 0.37599 0.21555 0.20719
 C301 C 0.78684 0.16085 -0.21829
 C302 C 0.78613 0.21672 -0.21494
 C303 C 0.82359 0.23867 -0.17802
 C304 C 0.85704 0.20677 -0.14544
 C305 C 0.85499 0.15144 -0.14849
 C306 C 0.82084 0.12951 -0.18691
 C307 C 0.78116 0.08714 -0.17824
 C308 C 0.74361 0.12094 -0.21196
 H309 H 0.82576 0.28044 -0.17117
 H310 H 0.88394 0.22559 -0.11708
 H311 H 0.76966 0.08266 -0.13460
 H312 H 0.79210 0.04982 -0.19871
 H313 H 0.71014 0.13585 -0.18805
 H314 H 0.73245 0.10185 -0.25113
 C315 C 0.80495 0.66529 0.26400
 C316 C 0.77780 0.70741 0.28809
 C317 C 0.77858 0.70678 0.34647
 C318 C 0.81375 0.67400 0.37639
 C319 C 0.84651 0.63824 0.34934
 C320 C 0.83717 0.63156 0.29349
 C321 C 0.87117 0.62143 0.24551
 C322 C 0.83461 0.65770 0.21228
 H323 H 0.75402 0.73229 0.36998
 H324 H 0.81634 0.67785 0.42049
 H325 H 0.86930 0.57952 0.23246
 H326 H 0.91129 0.63787 0.25091
 H327 H 0.81118 0.63608 0.18109
 H328 H 0.85419 0.69401 0.19677
 C329 C 0.31091 0.23021 0.33071
 C330 C 0.28381 0.21273 0.28385
 C331 C 0.29159 0.15818 0.27171
 C332 C 0.32581 0.12600 0.30337
 C333 C 0.35269 0.14640 0.34901
 C334 C 0.34278 0.19859 0.36181
 C335 C 0.35974 0.24173 0.39874
 C336 C 0.32376 0.27792 0.36387
 H337 H 0.27243 0.13924 0.23773
 H338 H 0.33100 0.08503 0.29225
 H339 H 0.40202 0.25124 0.39445
 H340 H 0.34604 0.23539 0.44140
 H341 H 0.34544 0.30845 0.34004
 H342 H 0.28969 0.29285 0.38689
 C343 C 0.28785 0.66172 -0.22205
 C344 C 0.28120 0.71595 -0.21222
 C345 C 0.31475 0.73669 -0.17028
 C346 C 0.34993 0.70414 -0.13997
 C347 C 0.35527 0.65044 -0.15278
 C348 C 0.32352 0.63140 -0.19436
 C349 C 0.31242 0.58263 -0.22535
 C350 C 0.27230 0.61618 -0.25762
 H351 H 0.31459 0.77854 -0.16158
 H352 H 0.37363 0.72122 -0.10762
 H353 H 0.29453 0.55123 -0.19929
 H354 H 0.34635 0.57016 -0.25016
 H355 H 0.23152 0.60256 -0.25080
 H356 H 0.28306 0.62230 -0.30117
 C357 C 1.21258 -0.21151 -0.15364
 C358 C 1.21012 -0.21241 -0.21172
 C359 C 1.17028 -0.18050 -0.23616
 C360 C 1.13813 -0.14763 -0.20525
 C361 C 1.14096 -0.14854 -0.14789
 C362 C 1.17898 -0.18044 -0.12293
 C363 C 1.17230 -0.22134 -0.07925
 C364 C 1.20830 -0.25586 -0.11212
 H365 H 1.16043 -0.18353 -0.27897
 H366 H 1.10813 -0.12459 -0.22622
 H367 H 1.13160 -0.23688 -0.07709
 H368 H 1.18968 -0.20886 -0.03947
 H369 H 1.18856 -0.29158 -0.12844
 H370 H 1.24559 -0.26394 -0.08971
 C371 C 1.19514 0.26974 0.33289
 C372 C 1.21917 0.28799 0.28465
 C373 C 1.21080 0.34291 0.27302
 C374 C 1.17782 0.37431 0.30555
 C375 C 1.15269 0.35286 0.35191
 C376 C 1.16432 0.30046 0.36468
 C377 C 1.14918 0.25610 0.40183
 C378 C 1.18449 0.22121 0.36670
 H379 H 1.22838 0.36281 0.23865
 H380 H 1.17147 0.41524 0.29372
 H381 H 1.10691 0.24608 0.39804
 H382 H 1.16414 0.26158 0.44434
 H383 H 1.16254 0.19040 0.34391
 H384 H 1.21974 0.20670 0.38928
 C385 C 0.65692 -0.21202 0.27967
 C386 C 0.71188 -0.21502 0.28575
 C387 C 0.73465 -0.18077 0.32501
 C388 C 0.70385 -0.14712 0.35681
 C389 C 0.64938 -0.14403 0.34826
 C390 C 0.62671 -0.17815 0.31040
 C391 C 0.58971 -0.16664 0.26421
 C392 C 0.62263 -0.20331 0.23005
 H393 H 0.77661 -0.18034 0.33148
 H394 H 0.72307 -0.12184 0.38638
 H395 H 0.59129 -0.12469 0.25009
 H396 H 0.54978 -0.18229 0.27227
 H397 H 0.64274 -0.18233 0.19608
 H398 H 0.60091 -0.23949 0.21785
 C399 C 0.71486 0.28782 -0.15899
 C400 C 0.71507 0.28893 -0.21665
 C401 C 0.68468 0.32915 -0.24266
 C402 C 0.65117 0.36163 -0.21248
 C403 C 0.64821 0.35592 -0.15524
 C404 C 0.68303 0.32101 -0.12928
 C405 C 0.67296 0.27989 -0.08636
 C406 C 0.70776 0.24333 -0.11875
 H407 H 0.68499 0.33372 -0.28682
 H408 H 0.62714 0.39057 -0.23399
 H409 H 0.63129 0.26707 -0.08550
 H410 H 0.69008 0.29081 -0.04596
 H411 H 0.68628 0.20922 -0.13621
 H412 H 0.74464 0.23304 -0.09651
 C413 C 1.19165 0.16221 -0.23423
 C414 C 1.22026 0.20480 -0.21233
 C415 C 1.21845 0.20756 -0.15398
 C416 C 1.18406 0.17507 -0.12289
 C417 C 1.15246 0.13623 -0.14819
 C418 C 1.16011 0.12981 -0.20394
 C419 C 1.13836 0.10209 -0.25248
 C420 C 1.17458 0.13769 -0.28694
 H421 H 1.24263 0.23466 -0.13127
 H422 H 1.18196 0.18084 -0.07907
 H423 H 1.09608 0.11065 -0.25921
 H424 H 1.14930 0.05959 -0.25276
 H425 H 1.15284 0.16531 -0.31457
 H426 H 1.20675 0.11560 -0.30659
 C427 C 1.18316 0.73182 0.31326
 C428 C 1.22157 0.71109 0.27857
 C429 C 1.21948 0.65439 0.27469
 C430 C 1.18385 0.62325 0.30576
 C431 C 1.14848 0.64681 0.34202
 C432 C 1.15011 0.70161 0.34402
 C433 C 1.12246 0.74779 0.36703
 C434 C 1.15962 0.78225 0.33243
 H435 H 1.24392 0.63297 0.24690
 H436 H 1.18408 0.58071 0.30124
 H437 H 1.12907 0.75130 0.41194
 H438 H 1.08093 0.74996 0.35306
 H439 H 1.18717 0.80622 0.35747
 H440 H 1.13917 0.80423 0.29879
 C441 C 0.71254 0.21535 0.34241
 C442 C 0.71554 0.21412 0.28490
 C443 C 0.67835 0.18010 0.25900
 C444 C 0.64300 0.14861 0.28961
 C445 C 0.64309 0.15019 0.34734
 C446 C 0.67826 0.18489 0.37142
 C447 C 0.69276 0.20685 0.42548
 C448 C 0.73167 0.24162 0.39376
 H449 H 0.67724 0.17735 0.21474
 H450 H 0.61663 0.12226 0.26809
 H451 H 0.71173 0.17697 0.45293
 H452 H 0.66022 0.22950 0.44376
 H453 H 0.77274 0.23172 0.40497
 H454 H 0.72189 0.28443 0.39434
 C455 C 0.72270 0.70706 -0.15960
 C456 C 0.71864 0.71052 -0.21724
 C457 C 0.67949 0.67859 -0.24228
 C458 C 0.64611 0.64622 -0.21117
 C459 C 0.65029 0.64467 -0.15376
 C460 C 0.69002 0.67418 -0.12892
 C461 C 0.68467 0.71347 -0.08439
 C462 C 0.71959 0.74977 -0.11772
 H463 H 0.67482 0.67889 -0.28646
 H464 H 0.61690 0.62258 -0.23213
 H465 H 0.70323 0.69952 -0.04540
 H466 H 0.64398 0.72843 -0.08053
 H467 H 0.75769 0.75737 -0.09683
 H468 H 0.69917 0.78574 -0.13346
 C469 C 0.79116 -0.16234 -0.22447
 C470 C 0.78949 -0.21784 -0.21831
 C471 C 0.82717 -0.24040 -0.18180
 C472 C 0.85921 -0.20853 -0.14830
 C473 C 0.85618 -0.15305 -0.15183
 C474 C 0.82441 -0.13114 -0.19303
 C475 C 0.78609 -0.08711 -0.18991
 C476 C 0.74901 -0.12126 -0.22326
 H477 H 0.83058 -0.28295 -0.17791
 H478 H 0.88575 -0.22736 -0.11919
 H479 H 0.79957 -0.05127 -0.21253
 H480 H 0.77256 -0.08017 -0.14745
 H481 H 0.74015 -0.10430 -0.26458
 H482 H 0.71434 -0.13416 -0.19942
 C483 C 0.78319 0.33978 0.28637
 C484 C 0.78759 0.28416 0.28493
 C485 C 0.82652 0.26135 0.31964
 C486 C 0.85994 0.29276 0.35203
 C487 C 0.85737 0.34826 0.34890
 C488 C 0.81723 0.37059 0.31718
 C489 C 0.81786 0.41451 0.27607
 C490 C 0.78011 0.38145 0.24214
 H491 H 0.83123 0.21883 0.32156
 H492 H 0.88946 0.27355 0.37746
 H493 H 0.85676 0.41976 0.25670
 H494 H 0.79991 0.45117 0.29195
 H495 H 0.79658 0.36869 0.20267
 H496 H 0.74069 0.39974 0.23869
 C497 C 0.33263 -0.19112 0.26171
 C498 C 0.29257 -0.22342 0.28330
 C499 C 0.29222 -0.22498 0.34215
 C500 C 0.32401 -0.19055 0.37401
 C501 C 0.36021 -0.15588 0.34900
 C502 C 0.36466 -0.16008 0.29267
 C503 C 0.38884 -0.13334 0.24466
 C504 C 0.35342 -0.16876 0.20932
 H505 H 0.26752 -0.25189 0.36476
 H506 H 0.32009 -0.19109 0.41816
 H507 H 0.43123 -0.14246 0.24130
 H508 H 0.37841 -0.09074 0.24181
 H509 H 0.37552 -0.19858 0.18584
 H510 H 0.32365 -0.14595 0.18546
 C511 C 0.26767 0.31827 -0.18112
 C512 C 0.28830 0.28016 -0.21607
 C513 C 0.34400 0.28284 -0.22159
 C514 C 0.37495 0.31915 -0.19136
 C515 C 0.35173 0.35477 -0.15494
 C516 C 0.29759 0.35223 -0.15132
 C517 C 0.25191 0.38146 -0.12988
 C518 C 0.21775 0.34312 -0.16338
 H519 H 0.36454 0.25862 -0.25033
 H520 H 0.41694 0.31960 -0.19701
 H521 H 0.25030 0.42291 -0.14550
 H522 H 0.24789 0.37638 -0.08481
 H523 H 0.19647 0.36279 -0.19799
 H524 H 0.19354 0.31649 -0.13743
 C525 C 1.18766 -0.23796 0.17394
 C526 C 1.22301 -0.21820 0.21368
 C527 C 1.21994 -0.16214 0.22085
 C528 C 1.18405 -0.13035 0.19061
 C529 C 1.14960 -0.15278 0.15189
 C530 C 1.15480 -0.20662 0.14241
 C531 C 1.11576 -0.25003 0.13533
 C532 C 1.15227 -0.28488 0.17002
 H533 H 1.24297 -0.14211 0.25165
 H534 H 1.18235 -0.08840 0.19875
 H535 H 1.11252 -0.26281 0.09201
 H536 H 1.07793 -0.24150 0.15551
 H537 H 1.17003 -0.31758 0.14664
 H538 H 1.13460 -0.29656 0.20976
 C539 C 1.16113 0.27042 0.70916
 C540 C 1.21550 0.27914 0.71517
 C541 C 1.23593 0.32395 0.68671
 C542 C 1.20346 0.35833 0.65574
 C543 C 1.14933 0.34946 0.65257
 C544 C 1.12936 0.30409 0.67777
 C545 C 1.08499 0.30037 0.71660
 C546 C 1.11925 0.26424 0.75148
 H547 H 1.27731 0.33301 0.68912
 H548 H 1.22057 0.39215 0.63492
 H549 H 1.05054 0.27993 0.69830
 H550 H 1.07629 0.33867 0.73643
 H551 H 1.10312 0.22349 0.75398
 H552 H 1.13037 0.28151 0.79159
 C553 C 0.72685 -0.20620 0.65357
 C554 C 0.71663 -0.21983 0.70888
 C555 C 0.66730 -0.20292 0.72909
 C556 C 0.63239 -0.17223 0.69721
 C557 C 0.64567 -0.15571 0.64412
 C558 C 0.69205 -0.17513 0.62246
 C559 C 0.73378 -0.14468 0.59438
 C560 C 0.77205 -0.17650 0.62858
 H561 H 0.65613 -0.21155 0.77089
 H562 H 0.59656 -0.15864 0.71563
 H563 H 0.73381 -0.10195 0.60464
 H564 H 0.73531 -0.15350 0.54991
 H565 H 0.79337 -0.15166 0.65869
 H566 H 0.79694 -0.20144 0.60232
 C567 C 0.67495 0.31089 0.23361
 C568 C 0.71557 0.28086 0.21145
 C569 C 0.71604 0.28060 0.15289
 C570 C 0.68213 0.31333 0.12118
 C571 C 0.64422 0.34503 0.14634
 C572 C 0.64106 0.34054 0.20289
 C573 C 0.61414 0.36255 0.25119
 C574 C 0.65167 0.32830 0.28629
 H575 H 0.74152 0.25542 0.13019
 H576 H 0.68550 0.31355 0.07696
 H577 H 0.57255 0.34975 0.25342
 H578 H 0.62113 0.40572 0.25540
 H579 H 0.63167 0.29542 0.30837
 H580 H 0.67911 0.35199 0.31172
 C581 C 0.82393 0.23339 0.17656
 C582 C 0.78995 0.21216 0.21630
 C583 C 0.79301 0.15630 0.22432
 C584 C 0.82780 0.12503 0.19425
 C585 C 0.86115 0.14820 0.15532
 C586 C 0.85679 0.20242 0.14582
 C587 C 0.89800 0.24423 0.14350
 C588 C 0.86164 0.27858 0.17675
 H589 H 0.77040 0.13606 0.25528
 H590 H 0.82931 0.08286 0.20235
 H591 H 0.90395 0.25945 0.10108
 H592 H 0.93439 0.23266 0.16604
 H593 H 0.84683 0.31304 0.15265
 H594 H 0.87763 0.28760 0.21813
 C595 C 0.82988 0.73232 0.67754
 C596 C 0.79115 0.71035 0.71189
 C597 C 0.78896 0.65389 0.71292
 C598 C 0.82162 0.62290 0.68025
 C599 C 0.85831 0.64658 0.64546
 C600 C 0.86074 0.70162 0.64355
 C601 C 0.90806 0.73515 0.65168
 C602 C 0.87590 0.76747 0.69059
 H603 H 0.76382 0.63214 0.74028
 H604 H 0.81904 0.58020 0.68333
 H605 H 0.91868 0.75711 0.61363
 H606 H 0.94092 0.71358 0.67216
 H607 H 0.87125 0.80896 0.67629
 H608 H 0.89042 0.76324 0.73343
 C609 C 0.27829 0.20081 0.65691
 C610 C 0.28535 0.20613 0.71404
 C611 C 0.31955 0.16884 0.73976
 C612 C 0.35088 0.13479 0.70901
 C613 C 0.34703 0.13474 0.65155
 C614 C 0.30748 0.16517 0.62699
 C615 C 0.30947 0.20005 0.57757
 C616 C 0.27894 0.23997 0.61022
 H617 H 0.32386 0.16797 0.78398
 H618 H 0.37871 0.10930 0.73017
 H619 H 0.28674 0.18354 0.54262
 H620 H 0.34990 0.21321 0.56772
 H621 H 0.23915 0.24767 0.59302
 H622 H 0.30280 0.27569 0.61907
 C623 C 0.28626 0.70823 0.15449
 C624 C 0.29205 0.71385 0.21206
 C625 C 0.33176 0.68167 0.23721
 C626 C 0.36412 0.64852 0.20657
 C627 C 0.35827 0.64570 0.14945
 C628 C 0.31793 0.67463 0.12476
 C629 C 0.32077 0.71084 0.07646
 C630 C 0.28654 0.74815 0.10809
 H631 H 0.33741 0.68177 0.28128
 H632 H 0.39362 0.62502 0.22773
 H633 H 0.30091 0.69408 0.03979
 H634 H 0.36094 0.72639 0.06946
 H635 H 0.24771 0.75318 0.08778
 H636 H 0.30645 0.78571 0.11852
   
