data_POSCAR
  _audit_creation_date              2014-09-24
  _audit_creation_method            'ToBaCCo'
  _symmetry_space_group_name_H-M    'P1'
  _symmetry_Int_Tables_number       1
  _symmetry_cell_setting            triclinic
  loop_
  _symmetry_equiv_pos_as_xyz
 x,y,z
_cell_length_a 30.1369
_cell_length_b 30.8836
_cell_length_c 16.9791
_cell_angle_alpha 90.014700
_cell_angle_beta 89.877000
_cell_angle_gamma 120.652100
loop_
  _atom_site_label
  _atom_site_type_symbol
  _atom_site_fract_x
  _atom_site_fract_y
  _atom_site_fract_z
C1 C 0.47375 0.85123 0.54279
 C2 C 0.47298 0.85075 0.46183
 C3 C 0.47948 0.89662 0.43830
 N4 N 0.48393 0.92487 0.50172
 C5 C 0.48043 0.89727 0.56559
 C6 C 0.47505 0.90959 0.36031
 C7 C 0.48764 0.95866 0.33810
 C8 C 0.47284 0.97065 0.26804
 C9 C 0.49478 1.02207 0.26696
 C10 C 0.52287 1.04021 0.33607
 N11 N 0.51811 1.00122 0.37928
 C12 C 0.55373 1.09182 0.35634
 C13 C 0.57047 1.10683 0.43473
 C14 C 0.61031 1.15388 0.45744
 C15 C 0.61024 1.15436 0.53828
 C16 C 0.57047 1.10752 0.56212
 N17 N 0.54647 1.07843 0.49880
 C18 C 0.55411 1.09314 0.64085
 C19 C 0.52314 1.04180 0.66231
 C20 C 0.49559 1.02441 0.73220
 C21 C 0.47422 0.97307 0.73293
 C22 C 0.48892 0.96045 0.66322
 N23 N 0.51853 1.00250 0.62031
 C24 C 0.47824 0.91158 0.64368
 H25 H 0.46862 0.82074 0.58048
 H26 H 0.46696 0.81976 0.42459
 H27 H 0.53945 1.00494 0.56992
 H28 H 0.44872 0.94499 0.22240
 H29 H 0.49061 1.04367 0.22041
 H30 H 0.63611 1.18485 0.41963
 H31 H 0.63599 1.18572 0.57533
 H32 H 0.45094 0.94793 0.77982
 H33 H 0.53880 1.00400 0.42995
 H34 H 0.49177 1.04650 0.77831
 C35 C -0.16110 0.44598 0.45919
 C36 C -0.16119 0.44555 0.53992
 C37 C -0.11329 0.45398 0.56291
 N38 N -0.08417 0.45901 0.49907
 C39 C -0.11333 0.45416 0.43550
 C40 C -0.09712 0.45687 0.64179
 C41 C -0.04522 0.47430 0.66246
 C42 C -0.02921 0.46670 0.73508
 C43 C 0.02378 0.49425 0.73486
 C44 C 0.03868 0.51802 0.66224
 N45 N -0.00361 0.50535 0.61823
 C46 C 0.08989 0.55457 0.64155
 C47 C 0.10538 0.56953 0.56312
 C48 C 0.15330 0.60860 0.53959
 C49 C 0.15325 0.60832 0.45866
 C50 C 0.10527 0.56916 0.43601
 N51 N 0.07631 0.54536 0.49978
 C52 C 0.08972 0.55366 0.35799
 C53 C 0.03878 0.51686 0.33777
 C54 C 0.02440 0.49166 0.26640
 C55 C -0.02857 0.46366 0.26629
 C56 C -0.04508 0.47318 0.33719
 N57 N -0.00371 0.50512 0.38087
 C58 C -0.09709 0.45692 0.35641
 H59 H -0.19238 0.44160 0.42231
 H60 H -0.19252 0.44066 0.57742
 H61 H -0.00464 0.52353 0.43161
 H62 H -0.05334 0.44464 0.78387
 H63 H 0.04849 0.49760 0.78351
 H64 H 0.18502 0.63431 0.57677
 H65 H 0.18494 0.63368 0.42089
 H66 H -0.05234 0.44031 0.21834
 H67 H -0.00443 0.52247 0.56599
 H68 H 0.04945 0.49412 0.21867
 C69 C 0.52359 0.37553 0.54376
 C70 C 0.52375 0.37560 0.46285
 C71 C 0.51866 0.41588 0.43975
 N72 N 0.51557 0.44044 0.50341
 C73 C 0.51892 0.41611 0.56707
 C74 C 0.52334 0.43345 0.36178
 C75 C 0.50837 0.46832 0.33995
 C76 C 0.52051 0.49424 0.26904
 C77 C 0.49541 0.52104 0.26862
 C78 C 0.46889 0.51085 0.33942
 N79 N 0.47685 0.47861 0.38239
 C80 C 0.43570 0.52860 0.36090
 C81 C 0.41927 0.52708 0.43924
 C82 C 0.38111 0.53681 0.46244
 C83 C 0.38175 0.53781 0.54333
 C84 C 0.42074 0.52924 0.56658
 N85 N 0.44335 0.52238 0.50286
 C86 C 0.43842 0.53242 0.64473
 C87 C 0.47053 0.51307 0.66587
 C88 C 0.49992 0.52566 0.73399
 C89 C 0.52370 0.49779 0.73424
 C90 C 0.50835 0.46888 0.66621
 N91 N 0.47608 0.47857 0.62460
 C92 C 0.52336 0.43371 0.64522
 H93 H 0.52806 0.34963 0.58117
 H94 H 0.52847 0.34988 0.42531
 H95 H 0.45519 0.45918 0.57489
 H96 H 0.54445 0.49349 0.22209
 H97 H 0.49628 0.54498 0.22137
 H98 H 0.35629 0.54362 0.42493
 H99 H 0.35733 0.54535 0.58071
 H100 H 0.54975 0.49902 0.77916
 H101 H 0.45727 0.46037 0.43370
 H102 H 0.50409 0.55246 0.77871
 O103 O 0.40997 0.66184 -0.08298
 O104 O 0.42203 0.75050 -0.06868
 C105 C 0.39526 0.76622 -0.10170
 O106 O 0.34859 0.75028 -0.08409
 O107 O 0.25688 0.67116 -0.07470
 C108 C 0.24015 0.62825 -0.10578
 O109 O 0.25554 0.59858 -0.08572
 O110 O 0.33582 0.58879 -0.07156
 C111 C 0.37861 0.61739 -0.10548
 O112 O 0.40850 0.65272 0.07578
 O113 O 0.41765 0.74051 0.08905
 C114 C 0.39334 0.76204 0.11010
 O115 O 0.35366 0.75638 0.07482
 O116 O 0.26297 0.67670 0.08371
 C117 C 0.23851 0.63080 0.10343
 O118 O 0.24592 0.59788 0.07158
 O119 O 0.32700 0.59007 0.08747
 C120 C 0.37353 0.61352 0.10982
 Cr121 Cr 0.41122 0.69994 0.00315
 Cr122 Cr 0.30693 0.71178 -0.00016
 Cr123 Cr 0.29321 0.59710 0.00044
 O124 O 0.33707 0.66963 0.00109
 O125 O 0.57795 0.32173 -0.08561
 O126 O 0.58570 0.24239 -0.07376
 C127 C 0.61996 0.23747 -0.10944
 O128 O 0.66693 0.26000 -0.08938
 O129 O 0.74958 0.34784 -0.07314
 C130 C 0.75614 0.38746 -0.10666
 O131 O 0.73144 0.40892 -0.08783
 O132 O 0.64243 0.40097 -0.07115
 C133 C 0.60226 0.36749 -0.10583
 O134 O 0.57675 0.32884 0.07316
 O135 O 0.58667 0.25102 0.08527
 C136 C 0.61709 0.23622 0.10562
 O137 O 0.65867 0.24841 0.06918
 O138 O 0.73947 0.33715 0.08475
 C139 C 0.75727 0.38283 0.10285
 O140 O 0.74307 0.41059 0.06968
 O141 O 0.65252 0.39970 0.08725
 C142 C 0.60669 0.36951 0.10914
 Cr143 Cr 0.58497 0.28774 -0.00032
 Cr144 Cr 0.70171 0.29958 -0.00220
 Cr145 Cr 0.69086 0.40192 -0.00044
 O146 O 0.65918 0.32976 -0.00124
 C147 C 0.38913 0.79933 -0.23122
 C148 C 0.40923 0.83339 -0.29343
 C149 C 0.46044 0.87320 -0.29234
 C150 C 0.49216 0.87852 -0.22720
 C151 C 0.47125 0.84503 -0.16224
 C152 C 0.41930 0.80435 -0.16516
 C153 C 0.50287 0.85483 -0.09565
 N154 N 0.55253 0.89330 -0.09670
 N155 N 0.57272 0.92307 -0.15926
 C156 C 0.54428 0.91703 -0.22445
 H157 H 0.34947 0.76871 -0.23473
 H158 H 0.38438 0.82912 -0.34249
 H159 H 0.48873 0.83330 -0.04200
 H160 H 0.56266 0.94245 -0.27342
 C161 C 0.20411 0.58326 -0.23124
 C162 C 0.16850 0.56587 -0.29242
 C163 C 0.12907 0.57714 -0.29470
 C164 C 0.12565 0.60689 -0.23421
 C165 C 0.16059 0.62298 -0.16998
 C166 C 0.20105 0.61184 -0.16943
 C167 C 0.15230 0.64810 -0.10751
 N168 N 0.11416 0.65906 -0.11195
 N169 N 0.08322 0.64620 -0.17417
 C170 C 0.08766 0.62055 -0.23542
 H171 H 0.23434 0.57407 -0.23215
 H172 H 0.17141 0.54297 -0.33817
 H173 H 0.17471 0.65833 -0.05442
 H174 H 0.06132 0.61094 -0.28430
 C175 C 0.38502 0.54853 -0.16760
 C176 C 0.40030 0.52823 -0.22753
 C177 C 0.42431 0.55578 -0.29621
 C178 C 0.43336 0.60568 -0.30332
 C179 C 0.41611 0.62569 -0.24312
 C180 C 0.39307 0.59722 -0.17369
 C181 C 0.42220 0.67359 -0.25508
 N182 N 0.44747 0.70095 -0.31963
 N183 N 0.46696 0.68373 -0.37316
 C184 C 0.46121 0.63738 -0.36695
 H185 H 0.36734 0.52615 -0.11526
 H186 H 0.39277 0.49017 -0.22050
 H187 H 0.40675 0.68950 -0.21447
 H188 H 0.47878 0.62602 -0.41163
 C189 C 0.61205 0.16220 -0.17314
 C190 C 0.59511 0.12659 -0.23307
 C191 C 0.56969 0.13047 -0.29976
 C192 C 0.56102 0.17168 -0.30482
 C193 C 0.57941 0.20851 -0.24423
 C194 C 0.60400 0.20287 -0.17725
 C195 C 0.57281 0.25017 -0.25300
 N196 N 0.54664 0.25304 -0.31567
 N197 N 0.52659 0.21702 -0.37005
 C198 C 0.53243 0.17634 -0.36647
 H199 H 0.63100 0.15755 -0.12241
 H200 H 0.60260 0.09591 -0.22778
 H201 H 0.58854 0.28065 -0.21108
 H202 H 0.51426 0.14795 -0.41155
 C203 C 0.79186 0.37521 -0.22962
 C204 C 0.82677 0.39192 -0.29193
 C205 C 0.86606 0.44250 -0.29733
 C206 C 0.86829 0.47750 -0.24081
 C207 C 0.83174 0.46070 -0.17844
 C208 C 0.79383 0.40870 -0.17211
 C209 C 0.83514 0.49677 -0.12416
 N210 N 0.87199 0.54589 -0.13254
 N211 N 0.90569 0.56168 -0.19169
 C212 C 0.90497 0.52933 -0.24623
 H213 H 0.76280 0.33558 -0.22639
 H214 H 0.82425 0.36476 -0.33483
 H215 H 0.80892 0.48694 -0.07542
 H216 H 0.93275 0.54461 -0.29373
 C217 C 0.53427 0.37789 -0.16741
 C218 C 0.51557 0.39490 -0.22742
 C219 C 0.54475 0.41720 -0.29595
 C220 C 0.59457 0.42276 -0.30286
 C221 C 0.61287 0.40421 -0.24231
 C222 C 0.58289 0.38286 -0.17346
 C223 C 0.66087 0.40761 -0.25276
 N224 N 0.69003 0.43106 -0.31706
 N225 N 0.67443 0.45135 -0.37152
 C226 C 0.62809 0.44845 -0.36634
 H227 H 0.51093 0.36145 -0.11512
 H228 H 0.47757 0.39018 -0.22061
 H229 H 0.67526 0.39153 -0.21078
 H230 H 0.61826 0.46667 -0.41162
 C231 C 0.78770 0.37535 0.23437
 C232 C 0.82225 0.39356 0.29695
 C233 C 0.86630 0.44198 0.29467
 C234 C 0.87431 0.47303 0.22782
 C235 C 0.84042 0.45346 0.16254
 C236 C 0.79606 0.40450 0.16670
 C237 C 0.85299 0.48342 0.09445
 N238 N 0.89372 0.53118 0.09450
 N239 N 0.92307 0.55097 0.15797
 C240 C 0.91460 0.52374 0.22468
 H241 H 0.75410 0.33789 0.23877
 H242 H 0.81526 0.36887 0.34668
 H243 H 0.83151 0.46914 0.04083
 H244 H 0.93937 0.54207 0.27462
 C245 C 0.60884 0.16020 0.16820
 C246 C 0.59229 0.12452 0.22812
 C247 C 0.56839 0.12890 0.29646
 C248 C 0.56110 0.17092 0.30332
 C249 C 0.58023 0.20849 0.24369
 C250 C 0.60258 0.20196 0.17425
 C251 C 0.57662 0.25173 0.25618
 N252 N 0.55145 0.25478 0.32023
 N253 N 0.52977 0.21769 0.37278
 C254 C 0.53325 0.17578 0.36618
 H255 H 0.62605 0.15466 0.11593
 H256 H 0.59888 0.09333 0.22135
 H257 H 0.59402 0.28346 0.21646
 H258 H 0.51394 0.14664 0.41000
 C259 C 0.53538 0.37236 0.17679
 C260 C 0.51554 0.38816 0.23705
 C261 C 0.54640 0.41603 0.30070
 C262 C 0.59805 0.42668 0.30492
 C263 C 0.61755 0.40847 0.24544
 C264 C 0.58655 0.38313 0.17879
 C265 C 0.66723 0.41558 0.25585
 N266 N 0.69635 0.44221 0.31828
 N267 N 0.67917 0.46195 0.37135
 C268 C 0.63119 0.45529 0.36669
 H269 H 0.51082 0.35259 0.12711
 H270 H 0.47593 0.37946 0.23328
 H271 H 0.68300 0.39945 0.21630
 H272 H 0.61950 0.47234 0.41148
 C273 C 0.19880 0.57868 0.22158
 C274 C 0.16354 0.56025 0.28336
 C275 C 0.12847 0.57664 0.29391
 C276 C 0.12935 0.61293 0.24209
 C277 C 0.16520 0.63183 0.17877
 C278 C 0.20035 0.61429 0.16849
 C279 C 0.16319 0.66644 0.12703
 N280 N 0.12876 0.68168 0.13941
 N281 N 0.09591 0.66457 0.19972
 C282 C 0.09500 0.63075 0.25143
 H283 H 0.22531 0.56495 0.21527
 H284 H 0.16310 0.53245 0.32277
 H285 H 0.18801 0.68144 0.07651
 H286 H 0.06741 0.61810 0.29928
 C287 C 0.46514 0.83342 0.18041
 C288 C 0.48473 0.86929 0.24020
 C289 C 0.45246 0.86916 0.29979
 C290 C 0.39952 0.83144 0.30011
 C291 C 0.37984 0.79417 0.24042
 C292 C 0.41271 0.79634 0.17858
 C293 C 0.32793 0.75533 0.24575
 N294 N 0.29744 0.75560 0.30435
 N295 N 0.31540 0.79189 0.35833
 C296 C 0.36530 0.82983 0.35817
 H297 H 0.49088 0.83543 0.13402
 H298 H 0.52528 0.89794 0.23941
 H299 H 0.31154 0.72428 0.20505
 H300 H 0.37769 0.85820 0.40356
 C301 C 0.37113 0.54203 0.17979
 C302 C 0.38661 0.52170 0.23955
 C303 C 0.41983 0.55231 0.29926
 C304 C 0.43713 0.60445 0.29942
 C305 C 0.42010 0.62489 0.23999
 C306 C 0.38817 0.59357 0.17809
 C307 C 0.43477 0.67592 0.24587
 N308 N 0.46670 0.70489 0.30435
 N309 N 0.48474 0.68624 0.35775
 C310 C 0.47119 0.63711 0.35722
 H311 H 0.34646 0.51743 0.13349
 H312 H 0.37303 0.48176 0.23886
 H313 H 0.42036 0.69286 0.20581
 H314 H 0.48708 0.62414 0.40212
   
