data_POSCAR
  _audit_creation_date              2014-09-24
  _audit_creation_method            'ToBaCCo'
  _symmetry_space_group_name_H-M    'P1'
  _symmetry_Int_Tables_number       1
  _symmetry_cell_setting            triclinic
  loop_
  _symmetry_equiv_pos_as_xyz
 x,y,z
_cell_length_a 36.6170
_cell_length_b 35.6829
_cell_length_c 51.6225
_cell_angle_alpha 90.296900
_cell_angle_beta 89.893300
_cell_angle_gamma 122.330600
loop_
  _atom_site_label
  _atom_site_type_symbol
  _atom_site_fract_x
  _atom_site_fract_y
  _atom_site_fract_z
C1 C 0.02894 0.49833 1.28190
 C2 C -0.01608 0.48240 1.28114
 C3 C -0.03655 0.47430 1.25681
 C4 C -0.01516 0.47734 1.23347
 C5 C 0.02910 0.49138 1.23451
 C6 C 0.05014 0.50122 1.25849
 H7 H 0.08468 0.51501 1.25847
 H8 H -0.07105 0.46054 1.25612
 C9 C 0.50851 0.53892 1.27201
 C10 C 0.52098 0.50738 1.27263
 C11 C 0.52573 0.49000 1.24930
 C12 C 0.51942 0.50368 1.22521
 C13 C 0.50779 0.53553 1.22438
 C14 C 0.50310 0.55308 1.24764
 H15 H 0.49216 0.57589 1.24658
 H16 H 0.53633 0.46685 1.24988
 C17 C 0.46617 0.96842 1.26885
 C18 C 0.49988 1.01440 1.26847
 C19 C 0.51314 1.03621 1.24439
 C20 C 0.49354 1.01462 1.22107
 C21 C 0.46079 0.96926 1.22139
 C22 C 0.44697 0.94713 1.24512
 H23 H 0.42315 0.91177 1.24474
 H24 H 0.53694 1.07156 1.24378
 C25 C 0.96861 0.46038 0.71963
 C26 C 1.01372 0.49055 0.71844
 C27 C 1.03728 0.50787 0.74150
 C28 C 1.01752 0.49456 0.76605
 C29 C 0.97211 0.46325 0.76706
 C30 C 0.94855 0.44675 0.74389
 H31 H 0.91374 0.42431 0.74476
 H32 H 1.07209 0.52990 0.74017
 C33 C 0.50883 0.52462 0.77655
 C34 C 0.52746 0.49870 0.77568
 C35 C 0.53937 0.48979 0.75169
 C36 C 0.53343 0.50650 0.72868
 C37 C 0.51547 0.53295 0.72961
 C38 C 0.50318 0.54157 0.75351
 H39 H 0.48886 0.56144 0.75418
 H40 H 0.55354 0.46978 0.75093
 C41 C 0.46385 -0.01734 0.77942
 C42 C 0.47823 0.02840 0.77970
 C43 C 0.48462 0.05064 0.75623
 C44 C 0.47764 0.02920 0.73230
 C45 C 0.46340 -0.01646 0.73155
 C46 C 0.45825 -0.03843 0.75520
 H47 H 0.44530 -0.07375 0.75472
 H48 H 0.49731 0.08595 0.75658
 O49 O 0.37953 0.63281 0.97644
 O50 O 0.38064 0.70453 0.96550
 C51 C 0.36212 0.72496 0.95997
 O52 O 0.33098 0.72109 0.97327
 O53 O 0.25847 0.64539 0.96639
 C54 C 0.23654 0.60377 0.96295
 O55 O 0.24003 0.57729 0.97764
 O56 O 0.31108 0.57900 0.96884
 C57 C 0.35103 0.59932 0.96353
 O58 O 0.38001 0.65094 1.02736
 O59 O 0.38503 0.72485 1.01644
 C60 C 0.35916 0.73119 1.02942
 O61 O 0.31890 0.71005 1.02499
 O62 O 0.24436 0.63655 1.01820
 C63 C 0.23925 0.60563 1.03300
 O64 O 0.25772 0.58457 1.02895
 O65 O 0.32617 0.58122 1.02027
 C66 C 0.35939 0.61008 1.03293
 Cr67 Cr 0.37909 0.67717 0.99647
 Cr68 Cr 0.28916 0.67711 0.99576
 Cr69 Cr 0.28491 0.58275 0.99887
 O70 O 0.31776 0.64572 0.99709
 O71 O 0.62537 0.36522 0.98000
 O72 O 0.62220 0.29104 0.97439
 C73 C 0.64065 0.27023 0.96969
 O74 O 0.67315 0.27660 0.98255
 O75 O 0.74545 0.35084 0.97367
 C76 C 0.76751 0.39180 0.96859
 O77 O 0.76501 0.42028 0.98210
 O78 O 0.69426 0.41783 0.97203
 C79 C 0.65444 0.39712 0.96636
 O80 O 0.62611 0.35549 1.03234
 O81 O 0.62012 0.27979 1.02645
 C82 C 0.64679 0.27461 1.03938
 O83 O 0.68653 0.29418 1.03378
 O84 O 0.76088 0.36635 1.02538
 C85 C 0.76566 0.39864 1.03897
 O86 O 0.74785 0.41965 1.03316
 O87 O 0.68049 0.42341 1.02270
 C88 C 0.64758 0.39694 1.03620
 Cr89 Cr 0.62569 0.32403 1.00331
 Cr90 Cr 0.71551 0.32319 1.00382
 Cr91 Cr 0.72071 0.41800 1.00253
 O92 O 0.68714 0.35491 1.00323
 O93 O 0.65450 0.39260 0.52712
 O94 O 0.72705 0.39768 0.51776
 C95 C 0.73299 0.37079 0.53045
 O96 O 0.71273 0.32965 0.52547
 O97 O 0.64113 0.25331 0.51880
 C98 C 0.61029 0.24818 0.53304
 O99 O 0.59007 0.26719 0.52842
 O100 O 0.58708 0.33695 0.51934
 C101 C 0.61463 0.37032 0.53260
 O102 O 0.63930 0.39207 0.47555
 O103 O 0.70986 0.39345 0.46635
 C104 C 0.72915 0.37379 0.46071
 O105 O 0.72452 0.34133 0.47377
 O106 O 0.65092 0.26682 0.46684
 C107 C 0.61044 0.24432 0.46326
 O108 O 0.58454 0.24873 0.47742
 O109 O 0.58686 0.32166 0.46811
 C110 C 0.60682 0.36254 0.46257
 Cr111 Cr 0.68157 0.39167 0.49672
 Cr112 Cr 0.68121 0.29886 0.49624
 Cr113 Cr 0.58939 0.29489 0.49826
 O114 O 0.65083 0.32855 0.49709
 O115 O 0.34789 0.61147 0.53516
 O116 O 0.27568 0.60725 0.52620
 C117 C 0.27092 0.63580 0.53805
 O118 O 0.29164 0.67634 0.53195
 O119 O 0.36377 0.75085 0.52403
 C120 C 0.39478 0.75597 0.53809
 O121 O 0.41506 0.73707 0.53311
 O122 O 0.41565 0.66522 0.52607
 C123 C 0.38810 0.63206 0.53942
 O124 O 0.36056 0.60680 0.48400
 O125 O 0.29105 0.60676 0.47489
 C126 C 0.27291 0.62693 0.46808
 O127 O 0.27798 0.66055 0.48029
 O128 O 0.35174 0.73324 0.47231
 C129 C 0.39171 0.75419 0.46742
 O130 O 0.41842 0.75074 0.48134
 O131 O 0.41356 0.67579 0.47430
 C132 C 0.39249 0.63436 0.47007
 Cr133 Cr 0.31991 0.61042 0.50505
 Cr134 Cr 0.32241 0.70416 0.50221
 Cr135 Cr 0.41345 0.70607 0.50371
 O136 O 0.35185 0.67353 0.50375
 C137 C 0.50193 0.61549 0.31869
 C138 C 0.47979 0.58751 0.33997
 C139 C 0.46672 0.54240 0.33783
 C140 C 0.47676 0.52673 0.31562
 C141 C 0.49949 0.55504 0.29478
 C142 C 0.51123 0.59944 0.29658
 C143 C 0.44309 0.51285 0.35769
 C144 C 0.43117 0.52674 0.37951
 C145 C 0.44316 0.57127 0.38260
 C146 C 0.46930 0.60248 0.36296
 C147 C 0.48444 0.64767 0.36705
 C148 C 0.47328 0.66179 0.38906
 C149 C 0.44609 0.63155 0.40771
 C150 C 0.43028 0.58580 0.40477
 C151 C 0.40157 0.55652 0.42396
 C152 C 0.38957 0.57224 0.44511
 C153 C 0.40590 0.61759 0.44803
 C154 C 0.43435 0.64701 0.42923
 H155 H 0.51190 0.64986 0.31822
 H156 H 0.46483 0.49170 0.31414
 H157 H 0.52893 0.62255 0.28108
 H158 H 0.43324 0.47834 0.35625
 H159 H 0.41307 0.50174 0.39390
 H160 H 0.50580 0.67337 0.35379
 H161 H 0.48575 0.69686 0.39133
 H162 H 0.38700 0.52114 0.42297
 H163 H 0.36728 0.54867 0.45921
 H164 H 0.44680 0.68215 0.43103
 C165 C 0.39675 0.88316 0.31793
 C166 C 0.42695 0.88822 0.33690
 C167 C 0.47121 0.92002 0.33221
 C168 C 0.48409 0.94649 0.30986
 C169 C 0.45355 0.94201 0.29154
 C170 C 0.40987 0.90933 0.29578
 C171 C 0.50250 0.92508 0.34974
 C172 C 0.49100 0.89889 0.37177
 C173 C 0.44736 0.86687 0.37746
 C174 C 0.41475 0.86236 0.36006
 C175 C 0.37095 0.83255 0.36655
 C176 C 0.35926 0.80713 0.38877
 C177 C 0.39052 0.80992 0.40540
 C178 C 0.43504 0.83950 0.40007
 C179 C 0.46515 0.83990 0.41754
 C180 C 0.45133 0.81242 0.43934
 C181 C 0.40720 0.78384 0.44456
 C182 C 0.37713 0.78293 0.42739
 H183 H 0.36264 0.85892 0.31935
 H184 H 0.51824 0.96976 0.30640
 H185 H 0.38519 0.90479 0.28226
 H186 H 0.53643 0.94944 0.34631
 H187 H 0.51723 0.90511 0.38425
 H188 H 0.34456 0.82850 0.35507
 H189 H 0.32517 0.78477 0.39292
 H190 H 0.49958 0.86056 0.41477
 H191 H 0.47533 0.81361 0.45215
 H192 H 0.34282 0.76064 0.43094
 C193 C 0.07337 0.55932 0.34464
 C194 C 0.10750 0.55272 0.34974
 C195 C 0.11399 0.52656 0.33183
 C196 C 0.08809 0.50890 0.30965
 C197 C 0.05433 0.51567 0.30473
 C198 C 0.04750 0.54124 0.32258
 C199 C 0.14635 0.51795 0.33603
 C200 C 0.17223 0.53409 0.35788
 C201 C 0.16707 0.56005 0.37650
 C202 C 0.13515 0.57077 0.37198
 C203 C 0.13241 0.59959 0.38963
 C204 C 0.15938 0.61676 0.41115
 C205 C 0.18947 0.60522 0.41637
 C206 C 0.19328 0.57614 0.39931
 C207 C 0.22283 0.56381 0.40602
 C208 C 0.24804 0.58040 0.42823
 C209 C 0.24502 0.60990 0.44476
 C210 C 0.21565 0.62234 0.43867
 H211 H 0.06558 0.57812 0.35732
 H212 H 0.09338 0.48833 0.29660
 H213 H 0.02281 0.54860 0.31916
 H214 H 0.15169 0.49829 0.32227
 H215 H 0.19675 0.52625 0.35924
 H216 H 0.11016 0.61028 0.38713
 H217 H 0.15628 0.63901 0.42403
 H218 H 0.22687 0.54072 0.39485
 H219 H 0.27034 0.57002 0.43236
 H220 H 0.21270 0.64480 0.45144
 C221 C 0.57923 0.51737 0.33539
 C222 C 0.56017 0.47251 0.34292
 C223 C 0.52722 0.43944 0.32675
 C224 C 0.51483 0.45105 0.30395
 C225 C 0.53416 0.49550 0.29688
 C226 C 0.56642 0.52848 0.31273
 C227 C 0.50678 0.39485 0.33331
 C228 C 0.51815 0.38193 0.35559
 C229 C 0.55096 0.41327 0.37232
 C230 C 0.57264 0.45931 0.36576
 C231 C 0.60642 0.49047 0.38205
 C232 C 0.61881 0.47730 0.40386
 C233 C 0.59788 0.43270 0.41061
 C234 C 0.56328 0.40003 0.39518
 C235 C 0.54255 0.35536 0.40330
 C236 C 0.55642 0.34376 0.42523
 C237 C 0.59132 0.37601 0.44005
 C238 C 0.61167 0.42058 0.43269
 H239 H 0.60401 0.54479 0.34654
 H240 H 0.48967 0.42548 0.29172
 H241 H 0.58193 0.56308 0.30746
 H242 H 0.48160 0.36949 0.32101
 H243 H 0.50079 0.34675 0.35889
 H244 H 0.62459 0.52555 0.37832
 H245 H 0.64523 0.50246 0.41559
 H246 H 0.51540 0.32835 0.39326
 H247 H 0.53975 0.30904 0.43042
 H248 H 0.63858 0.44597 0.44403
 C249 C 0.57962 0.10030 0.31442
 C250 C 0.55356 0.09590 0.33590
 C251 C 0.50872 0.06347 0.33427
 C252 C 0.49128 0.03623 0.31226
 C253 C 0.51762 0.04059 0.29118
 C254 C 0.56189 0.07341 0.29255
 C255 C 0.48125 0.05876 0.35444
 C256 C 0.49696 0.08647 0.37596
 C257 C 0.54122 0.11983 0.37838
 C258 C 0.57025 0.12335 0.35854
 C259 C 0.61497 0.15405 0.36203
 C260 C 0.63072 0.18174 0.38355
 C261 C 0.60268 0.18051 0.40229
 C262 C 0.55751 0.14971 0.40002
 C263 C 0.53052 0.15092 0.41925
 C264 C 0.54779 0.18127 0.43972
 C265 C 0.59246 0.21133 0.44192
 C266 C 0.61972 0.21045 0.42317
 H267 H 0.61374 0.12479 0.31359
 H268 H 0.45667 0.01276 0.31116
 H269 H 0.58339 0.07776 0.27678
 H270 H 0.44700 0.03369 0.35344
 H271 H 0.47346 0.08040 0.39061
 H272 H 0.63898 0.15718 0.34861
 H273 H 0.66531 0.20487 0.38533
 H274 H 0.49582 0.12966 0.41878
 H275 H 0.52587 0.18127 0.45384
 H276 H 0.65434 0.23382 0.42449
 C277 C 0.93693 0.43151 0.34548
 C278 C 0.90241 0.43835 0.34802
 C279 C 0.89678 0.46185 0.32799
 C280 C 0.92365 0.47624 0.30608
 C281 C 0.95767 0.46902 0.30370
 C282 C 0.96378 0.44643 0.32378
 C283 C 0.86432 0.47096 0.32984
 C284 C 0.83735 0.45766 0.35127
 C285 C 0.84126 0.43385 0.37170
 C286 C 0.87350 0.42289 0.36969
 C287 C 0.87520 0.39617 0.38915
 C288 C 0.84691 0.38116 0.41001
 C289 C 0.81635 0.39282 0.41271
 C290 C 0.81347 0.41992 0.39386
 C291 C 0.78307 0.43226 0.39815
 C292 C 0.75624 0.41745 0.41984
 C293 C 0.75843 0.38972 0.43802
 C294 C 0.78866 0.37754 0.43431
 H295 H 0.94433 0.41492 0.35995
 H296 H 0.91884 0.49451 0.29117
 H297 H 0.98862 0.43877 0.32241
 H298 H 0.85975 0.48879 0.31454
 H299 H 0.81294 0.46576 0.35088
 H300 H 0.89753 0.38529 0.38859
 H301 H 0.84922 0.36038 0.42432
 H302 H 0.77955 0.45391 0.38540
 H303 H 0.73334 0.42762 0.42223
 H304 H 0.79106 0.35653 0.44841
 C305 C 0.51652 0.42304 1.17609
 C306 C 0.54770 0.45143 1.15758
 C307 C 0.56845 0.49784 1.16159
 C308 C 0.55821 0.51463 1.18320
 C309 C 0.52774 0.48594 1.20139
 C310 C 0.50700 0.44017 1.19762
 C311 C 0.59990 0.52736 1.14430
 C312 C 0.61239 0.51206 1.12342
 C313 C 0.59355 0.46626 1.11879
 C314 C 0.55970 0.43543 1.13569
 C315 C 0.53908 0.38968 1.13017
 C316 C 0.55188 0.37438 1.10947
 C317 C 0.58592 0.40380 1.09350
 C318 C 0.60736 0.45017 1.09784
 C319 C 0.64225 0.47835 1.08122
 C320 C 0.65497 0.46108 1.06130
 C321 C 0.63348 0.41523 1.05708
 C322 C 0.59879 0.38686 1.07328
 H323 H 0.49952 0.38744 1.17492
 H324 H 0.57488 0.55016 1.18631
 H325 H 0.48345 0.41748 1.21156
 H326 H 0.61554 0.56285 1.14713
 H327 H 0.63691 0.53727 1.11112
 H328 H 0.51250 0.36452 1.14139
 H329 H 0.53513 0.33891 1.10611
 H330 H 0.66097 0.51389 1.08329
 H331 H 0.68201 0.48390 1.04921
 H332 H 0.58193 0.35127 1.07038
 C333 C 0.94293 0.42658 1.16815
 C334 C 0.91344 0.43959 1.16260
 C335 C 0.90836 0.46549 1.18146
 C336 C 0.93120 0.47684 1.20494
 C337 C 0.96100 0.46446 1.21001
 C338 C 0.96606 0.43874 1.19137
 C339 C 0.88076 0.48039 1.17679
 C340 C 0.85850 0.47093 1.15357
 C341 C 0.86243 0.44540 1.13406
 C342 C 0.88913 0.42813 1.13900
 C343 C 0.89004 0.39947 1.12039
 C344 C 0.86610 0.38837 1.09766
 C345 C 0.84116 0.40618 1.09216
 C346 C 0.83970 0.43573 1.11000
 C347 C 0.81574 0.45468 1.10289
 C348 C 0.79278 0.44318 1.07970
 C349 C 0.79276 0.41250 1.06263
 C350 C 0.81745 0.39442 1.06891
 H351 H 0.94935 0.40740 1.15490
 H352 H 0.92718 0.49727 1.21884
 H353 H 0.98718 0.42674 1.19497
 H354 H 0.87651 0.49993 1.19122
 H355 H 0.83752 0.48334 1.15182
 H356 H 0.90823 0.38403 1.12305
 H357 H 0.86737 0.36574 1.08414
 H358 H 0.81439 0.47896 1.11461
 H359 H 0.77438 0.45811 1.07534
 H360 H 0.81816 0.37105 1.05574
 C361 C 0.48710 0.06844 1.15956
 C362 C 0.53118 0.09664 1.15261
 C363 C 0.56235 0.09565 1.16839
 C364 C 0.54975 0.06814 1.19019
 C365 C 0.50618 0.04118 1.19694
 C366 C 0.47501 0.04138 1.18141
 C367 C 0.60612 0.12243 1.16259
 C368 C 0.62012 0.15114 1.14175
 C369 C 0.59072 0.15441 1.12570
 C370 C 0.54544 0.12614 1.13090
 C371 C 0.51609 0.12849 1.11429
 C372 C 0.53032 0.15768 1.09354
 C373 C 0.57431 0.18600 1.08850
 C374 C 0.60517 0.18494 1.10456
 C375 C 0.64938 0.21489 1.09890
 C376 C 0.66216 0.24366 1.07799
 C377 C 0.63167 0.24417 1.06187
 C378 C 0.58763 0.21540 1.06739
 H379 H 0.46114 0.06691 1.14885
 H380 H 0.57395 0.06792 1.20215
 H381 H 0.44111 0.02114 1.18651
 H382 H 0.63000 0.12144 1.17445
 H383 H 0.65451 0.17027 1.13877
 H384 H 0.48159 0.10798 1.11670
 H385 H 0.50652 0.15818 1.08134
 H386 H 0.67521 0.21738 1.11024
 H387 H 0.69648 0.26582 1.07454
 H388 H 0.56368 0.21556 1.05516
 C389 C 0.50587 0.60744 1.17152
 C390 C 0.47247 0.57610 1.15492
 C391 C 0.45222 0.53056 1.16130
 C392 C 0.46492 0.51748 1.18340
 C393 C 0.49738 0.54910 1.19976
 C394 C 0.51780 0.59401 1.19357
 C395 C 0.41877 0.49829 1.14594
 C396 C 0.40380 0.51004 1.12473
 C397 C 0.42203 0.55488 1.11782
 C398 C 0.45781 0.58837 1.13270
 C399 C 0.47759 0.63301 1.12493
 C400 C 0.46231 0.64481 1.10394
 C401 C 0.42654 0.61285 1.08987
 C402 C 0.40574 0.56741 1.09652
 C403 C 0.36907 0.53659 1.08173
 C404 C 0.35421 0.55045 1.06126
 C405 C 0.37517 0.59539 1.05470
 C406 C 0.41143 0.62635 1.06917
 H407 H 0.52282 0.64268 1.16846
 H408 H 0.44856 0.48264 1.18839
 H409 H 0.54287 0.61893 1.20609
 H410 H 0.40348 0.46343 1.15058
 H411 H 0.37784 0.48290 1.11403
 H412 H 0.50537 0.65995 1.13458
 H413 H 0.47854 0.67956 1.09880
 H414 H 0.35069 0.50155 1.08562
 H415 H 0.32600 0.52571 1.05055
 H416 H 0.42795 0.66129 1.06444
 C417 C 0.10547 0.49214 1.18463
 C418 C 0.10667 0.52091 1.16531
 C419 C 0.08233 0.54065 1.16977
 C420 C 0.05755 0.53124 1.19236
 C421 C 0.05607 0.50193 1.21087
 C422 C 0.08061 0.48299 1.20698
 C423 C 0.08272 0.56970 1.15169
 C424 C 0.10709 0.58017 1.12923
 C425 C 0.13208 0.56168 1.12378
 C426 C 0.13131 0.53099 1.14193
 C427 C 0.15501 0.51122 1.13602
 C428 C 0.17924 0.52155 1.11352
 C429 C 0.18119 0.55211 1.09599
 C430 C 0.15776 0.57274 1.10076
 C431 C 0.16152 0.60396 1.08234
 C432 C 0.18744 0.61411 1.06037
 C433 C 0.21045 0.59355 1.05582
 C434 C 0.20688 0.56235 1.07373
 H435 H 0.12343 0.47625 1.18324
 H436 H 0.03918 0.54664 1.19560
 H437 H 0.08011 0.46053 1.22123
 H438 H 0.06399 0.58469 1.15497
 H439 H 0.10527 0.60278 1.11639
 H440 H 0.15537 0.48718 1.14832
 H441 H 0.19694 0.50554 1.10989
 H442 H 0.14539 0.62168 1.08439
 H443 H 0.18965 0.63849 1.04697
 H444 H 0.22469 0.54633 1.07059
 C445 C 0.38252 0.88918 1.17104
 C446 C 0.41046 0.88804 1.15243
 C447 C 0.45561 0.91561 1.15685
 C448 C 0.47164 0.94280 1.17892
 C449 C 0.44346 0.94301 1.19718
 C450 C 0.39891 0.91611 1.19306
 C451 C 0.48467 0.91538 1.13950
 C452 C 0.47009 0.88725 1.11816
 C453 C 0.42552 0.85823 1.11315
 C454 C 0.39524 0.85977 1.13005
 C455 C 0.35080 0.83290 1.12405
 C456 C 0.33621 0.80429 1.10293
 C457 C 0.36509 0.80086 1.08703
 C458 C 0.41016 0.82768 1.09182
 C459 C 0.43783 0.82198 1.07531
 C460 C 0.42130 0.79109 1.05508
 C461 C 0.37674 0.76484 1.05045
 C462 C 0.34889 0.77021 1.06648
 H463 H 0.34785 0.86899 1.16958
 H464 H 0.50621 0.96301 1.18234
 H465 H 0.37666 0.91570 1.20709
 H466 H 0.51921 0.93680 1.14265
 H467 H 0.49484 0.88936 1.10582
 H468 H 0.32618 0.83333 1.13522
 H469 H 0.30174 0.78415 1.09920
 H470 H 0.47238 0.84016 1.07773
 H471 H 0.44365 0.78760 1.04311
 H472 H 0.31427 0.74995 1.06326
 C473 C 0.59335 0.51926 0.66641
 C474 C 0.57218 0.47502 0.65705
 C475 C 0.53656 0.44177 0.67149
 C476 C 0.52450 0.45232 0.69489
 C477 C 0.54645 0.49599 0.70397
 C478 C 0.58050 0.52942 0.68951
 C479 C 0.51317 0.39810 0.66260
 C480 C 0.52404 0.38641 0.63952
 C481 C 0.55963 0.41794 0.62460
 C482 C 0.58494 0.46267 0.63393
 C483 C 0.62280 0.49319 0.62028
 C484 C 0.63546 0.48063 0.59822
 C485 C 0.61042 0.43760 0.58842
 C486 C 0.57155 0.40590 0.60104
 C487 C 0.54617 0.36343 0.58944
 C488 C 0.55989 0.35254 0.56703
 C489 C 0.59931 0.38336 0.55538
 C490 C 0.62427 0.42602 0.56608
 H491 H 0.61947 0.54689 0.65619
 H492 H 0.49761 0.42661 0.70600
 H493 H 0.59739 0.56350 0.69623
 H494 H 0.48598 0.37259 0.67358
 H495 H 0.50456 0.35183 0.63433
 H496 H 0.64431 0.52692 0.62663
 H497 H 0.66521 0.50502 0.58867
 H498 H 0.51528 0.33794 0.59697
 H499 H 0.53979 0.31941 0.55906
 H500 H 0.65451 0.45036 0.55696
 C501 C 0.48460 0.10889 0.68156
 C502 C 0.51432 0.11004 0.66342
 C503 C 0.53238 0.08431 0.66889
 C504 C 0.52048 0.05826 0.69132
 C505 C 0.49045 0.05702 0.70868
 C506 C 0.47304 0.08285 0.70377
 C507 C 0.56228 0.08468 0.65199
 C508 C 0.57523 0.11039 0.62977
 C509 C 0.55845 0.13676 0.62337
 C510 C 0.52695 0.13601 0.64027
 C511 C 0.50892 0.16103 0.63339
 C512 C 0.52158 0.18648 0.61113
 C513 C 0.55283 0.18836 0.59480
 C514 C 0.57192 0.16374 0.60057
 C515 C 0.60396 0.16763 0.58332
 C516 C 0.61617 0.19466 0.56143
 C517 C 0.59691 0.21864 0.55587
 C518 C 0.56515 0.21513 0.57271
 H519 H 0.46978 0.12783 0.67938
 H520 H 0.53461 0.03885 0.69537
 H521 H 0.44998 0.08250 0.71710
 H522 H 0.57603 0.06491 0.65604
 H523 H 0.59835 0.10850 0.61785
 H524 H 0.48447 0.16151 0.64471
 H525 H 0.50679 0.20513 0.60671
 H526 H 0.62066 0.15069 0.58624
 H527 H 0.64097 0.19687 0.54886
 H528 H 0.55011 0.23372 0.56882
 C529 C 0.88489 0.38420 0.67029
 C530 C 0.88492 0.41429 0.65243
 C531 C 0.91407 0.46027 0.65709
 C532 C 0.94204 0.47499 0.67856
 C533 C 0.94120 0.44464 0.69602
 C534 C 0.91244 0.39929 0.69172
 C535 C 0.91473 0.49140 0.64056
 C536 C 0.88636 0.47815 0.61976
 C537 C 0.85630 0.43287 0.61436
 C538 C 0.85650 0.40041 0.63052
 C539 C 0.82836 0.35514 0.62420
 C540 C 0.80017 0.34184 0.60338
 C541 C 0.79841 0.37288 0.58808
 C542 C 0.82619 0.41884 0.59328
 C543 C 0.82208 0.44862 0.57728
 C544 C 0.79201 0.43320 0.55701
 C545 C 0.76510 0.38771 0.55186
 C546 C 0.76867 0.35786 0.56758
 H547 H 0.86339 0.34879 0.66869
 H548 H 0.96378 0.51023 0.68212
 H549 H 0.91118 0.37535 0.70512
 H550 H 0.93715 0.52658 0.64393
 H551 H 0.88915 0.50444 0.60805
 H552 H 0.82757 0.32883 0.63481
 H553 H 0.77919 0.30666 0.59934
 H554 H 0.84114 0.48402 0.58009
 H555 H 0.78988 0.45709 0.54532
 H556 H 0.74785 0.32249 0.56405
 C557 C 0.51950 0.61228 0.67982
 C558 C 0.48924 0.58318 0.66104
 C559 C 0.46790 0.53690 0.66555
 C560 C 0.47748 0.52087 0.68757
 C561 C 0.50730 0.55020 0.70585
 C562 C 0.52806 0.59586 0.70194
 C563 C 0.43659 0.50676 0.64831
 C564 C 0.42432 0.52140 0.62720
 C565 C 0.44368 0.56708 0.62218
 C566 C 0.47841 0.59835 0.63845
 C567 C 0.50125 0.64359 0.63148
 C568 C 0.48935 0.65804 0.61001
 C569 C 0.45348 0.62833 0.59514
 C570 C 0.42971 0.58249 0.60125
 C571 C 0.39199 0.55409 0.58666
 C572 C 0.37895 0.57052 0.56673
 C573 C 0.40318 0.61556 0.56034
 C574 C 0.44072 0.64432 0.57445
 H575 H 0.53609 0.64784 0.67842
 H576 H 0.46090 0.48545 0.69091
 H577 H 0.55094 0.61889 0.71613
 H578 H 0.42072 0.47136 0.65144
 H579 H 0.40005 0.49591 0.61477
 H580 H 0.52924 0.66868 0.64197
 H581 H 0.50789 0.69306 0.60536
 H582 H 0.37094 0.51925 0.59071
 H583 H 0.34966 0.54769 0.55617
 H584 H 0.45917 0.67939 0.56987
 C585 C 0.41852 0.94113 0.66528
 C586 C 0.43061 0.91012 0.66053
 C587 C 0.45405 0.90425 0.68022
 C588 C 0.46379 0.92770 0.70376
 C589 C 0.45232 0.95903 0.70803
 C590 C 0.42913 0.96491 0.68851
 C591 C 0.46806 0.87525 0.67632
 C592 C 0.46006 0.85234 0.65312
 C593 C 0.43686 0.85688 0.63285
 C594 C 0.42057 0.88504 0.63695
 C595 C 0.39420 0.88653 0.61754
 C596 C 0.38435 0.86174 0.59487
 C597 C 0.40120 0.83535 0.59020
 C598 C 0.42851 0.83333 0.60885
 C599 C 0.44658 0.80794 0.60257
 C600 C 0.43632 0.78410 0.57943
 C601 C 0.40774 0.78453 0.56156
 C602 C 0.39063 0.81071 0.56700
 H603 H 0.40123 0.94829 0.65135
 H604 H 0.48226 0.92299 0.71833
 H605 H 0.41786 0.98715 0.69143
 H606 H 0.48577 0.87040 0.69135
 H607 H 0.47166 0.83030 0.65197
 H608 H 0.37961 0.90577 0.61953
 H609 H 0.36344 0.86347 0.58074
 H610 H 0.46918 0.80608 0.61496
 H611 H 0.45044 0.76455 0.57578
 H612 H 0.36888 0.81179 0.55324
 C613 C 0.06054 0.48047 0.65521
 C614 C 0.09129 0.52537 0.64901
 C615 C 0.09327 0.55848 0.66539
 C616 C 0.06683 0.54686 0.68738
 C617 C 0.03787 0.50238 0.69363
 C618 C 0.03451 0.46935 0.67722
 C619 C 0.12220 0.60316 0.66012
 C620 C 0.15015 0.61612 0.63924
 C621 C 0.15064 0.58471 0.62270
 C622 C 0.12052 0.53855 0.62753
 C623 C 0.12121 0.50723 0.61101
 C624 C 0.15051 0.52034 0.59070
 C625 C 0.18027 0.56511 0.58586
 C626 C 0.18060 0.59798 0.60166
 C627 C 0.21126 0.64291 0.59579
 C628 C 0.24008 0.65447 0.57533
 C629 C 0.23983 0.62199 0.55981
 C630 C 0.20979 0.57720 0.56526
 H631 H 0.05614 0.45305 0.64375
 H632 H 0.06929 0.57250 0.70001
 H633 H 0.01247 0.43468 0.68186
 H634 H 0.12357 0.62856 0.67248
 H635 H 0.17139 0.65137 0.63688
 H636 H 0.09968 0.47199 0.61336
 H637 H 0.14993 0.49502 0.57869
 H638 H 0.21410 0.67026 0.60655
 H639 H 0.26296 0.68940 0.57177
 H640 H 0.20912 0.55171 0.55336
 C641 C 0.51169 0.56966 0.84347
 C642 C 0.46769 0.55496 0.84766
 C643 C 0.43754 0.52860 0.82804
 C644 C 0.45137 0.51911 0.80498
 C645 C 0.49496 0.53461 0.80111
 C646 C 0.52494 0.55960 0.82050
 C647 C 0.39373 0.51194 0.83138
 C648 C 0.37878 0.52085 0.85381
 C649 C 0.40733 0.54756 0.87380
 C650 C 0.45263 0.56555 0.87048
 C651 C 0.48140 0.59439 0.88977
 C652 C 0.46665 0.60558 0.91143
 C653 C 0.42267 0.58795 0.91508
 C654 C 0.39221 0.55790 0.89668
 C655 C 0.34784 0.53966 0.90196
 C656 C 0.33470 0.55239 0.92389
 C657 C 0.36510 0.58357 0.94138
 C658 C 0.40907 0.60072 0.93700
 H659 H 0.53668 0.58867 0.85754
 H660 H 0.42814 0.49929 0.78997
 H661 H 0.55882 0.57161 0.81777
 H662 H 0.37061 0.49176 0.81643
 H663 H 0.34450 0.50707 0.85452
 H664 H 0.51590 0.60998 0.88845
 H665 H 0.49007 0.62848 0.92548
 H666 H 0.32231 0.51536 0.88966
 H667 H 0.30045 0.53823 0.92687
 H668 H 0.43293 0.62443 0.95058
 C669 C 0.10424 0.57409 0.81144
 C670 C 0.09809 0.54741 0.83322
 C671 C 0.06473 0.50196 0.83182
 C672 C 0.03802 0.48472 0.80983
 C673 C 0.04384 0.51182 0.78853
 C674 C 0.07788 0.55654 0.78960
 C675 C 0.05846 0.47368 0.85224
 C676 C 0.08518 0.48919 0.87388
 C677 C 0.11901 0.53413 0.87623
 C678 C 0.12449 0.56403 0.85599
 C679 C 0.15588 0.60961 0.85930
 C680 C 0.18208 0.62534 0.88110
 C681 C 0.17866 0.59641 0.90035
 C682 C 0.14735 0.55034 0.89822
 C683 C 0.14639 0.52245 0.91802
 C684 C 0.17506 0.53978 0.93895
 C685 C 0.20546 0.58541 0.94106
 C686 C 0.20683 0.61349 0.92167
 H687 H 0.12963 0.60859 0.81037
 H688 H 0.01389 0.44951 0.80893
 H689 H 0.08354 0.57875 0.77371
 H690 H 0.03281 0.43893 0.85138
 H691 H 0.07791 0.46508 0.88872
 H692 H 0.16059 0.63440 0.84555
 H693 H 0.20570 0.66064 0.88275
 H694 H 0.12455 0.48697 0.91769
 H695 H 0.17340 0.51720 0.95354
 H696 H 0.23054 0.64883 0.92285
 C697 C 0.41586 0.93584 0.84431
 C698 C 0.42404 0.90155 0.84717
 C699 C 0.44761 0.89627 0.82723
 C700 C 0.46083 0.92321 0.80510
 C701 C 0.45212 0.95689 0.80235
 C702 C 0.42947 0.96266 0.82236
 C703 C 0.45781 0.86398 0.82934
 C704 C 0.44522 0.83661 0.85083
 C705 C 0.42114 0.83995 0.87111
 C706 C 0.40959 0.87235 0.86899
 C707 C 0.38328 0.87388 0.88849
 C708 C 0.36896 0.84510 0.90938
 C709 C 0.38075 0.81411 0.91206
 C710 C 0.40755 0.81144 0.89323
 C711 C 0.41974 0.78039 0.89747
 C712 C 0.40518 0.75281 0.91910
 C713 C 0.37786 0.75490 0.93728
 C714 C 0.36583 0.78576 0.93360
 H715 H 0.39886 0.94289 0.85859
 H716 H 0.47911 0.91862 0.79025
 H717 H 0.42017 0.98668 0.82065
 H718 H 0.47582 0.85975 0.81414
 H719 H 0.45418 0.81238 0.85063
 H720 H 0.37230 0.89645 0.88799
 H721 H 0.34847 0.84729 0.92371
 H722 H 0.44093 0.77680 0.88466
 H723 H 0.41520 0.72944 0.92147
 H724 H 0.34511 0.78810 0.94768
 C725 C 0.51194 0.43851 0.83900
 C726 C 0.55474 0.45081 0.84511
 C727 C 0.58799 0.47935 0.82760
 C728 C 0.57849 0.49414 0.80504
 C729 C 0.53618 0.48172 0.79944
 C730 C 0.50296 0.45376 0.81648
 C731 C 0.63074 0.49321 0.83262
 C732 C 0.64175 0.48016 0.85492
 C733 C 0.61020 0.45227 0.87324
 C734 C 0.56582 0.43624 0.86792
 C735 C 0.53415 0.40590 0.88543
 C736 C 0.54539 0.39211 0.90752
 C737 C 0.58858 0.40859 0.91340
 C738 C 0.62163 0.43941 0.89654
 C739 C 0.66497 0.45658 0.90387
 C740 C 0.67489 0.44280 0.92644
 C741 C 0.64225 0.41151 0.94278
 C742 C 0.59899 0.39454 0.93614
 H743 H 0.48474 0.41762 0.85130
 H744 H 0.60426 0.51607 0.79188
 H745 H 0.46993 0.44370 0.81232
 H746 H 0.65614 0.51465 0.81914
 H747 H 0.67551 0.49205 0.85691
 H748 H 0.50007 0.39150 0.88242
 H749 H 0.51991 0.36852 0.92026
 H750 H 0.69226 0.48129 0.89290
 H751 H 0.70868 0.45685 0.93099
 H752 H 0.57342 0.37062 0.94872
 C753 C 0.89677 0.39230 0.82083
 C754 C 0.89880 0.42406 0.83838
 C755 C 0.92542 0.46947 0.83161
 C756 C 0.94927 0.48210 0.80845
 C757 C 0.94716 0.45012 0.79161
 C758 C 0.92050 0.40527 0.79787
 C759 C 0.92797 0.50209 0.84786
 C760 C 0.90401 0.49082 0.87057
 C761 C 0.87663 0.44615 0.87815
 C762 C 0.87487 0.41230 0.86211
 C763 C 0.84933 0.36781 0.87037
 C764 C 0.82523 0.35646 0.89294
 C765 C 0.82525 0.38875 0.90823
 C766 C 0.85093 0.43409 0.90122
 C767 C 0.84908 0.46522 0.91746
 C768 C 0.82266 0.45164 0.93943
 C769 C 0.79728 0.40672 0.94609
 C770 C 0.79917 0.37558 0.93043
 H771 H 0.87680 0.35710 0.82397
 H772 H 0.96938 0.51688 0.80339
 H773 H 0.91827 0.38010 0.78495
 H774 H 0.94851 0.53685 0.84287
 H775 H 0.90800 0.51819 0.88189
 H776 H 0.84739 0.34064 0.85990
 H777 H 0.80594 0.32179 0.89837
 H778 H 0.86699 0.50026 0.91357
 H779 H 0.82177 0.47649 0.95106
 H780 H 0.77962 0.34064 0.93523
 C781 C 0.48913 0.10958 0.83122
 C782 C 0.52104 0.11222 0.84801
 C783 C 0.53800 0.08559 0.84195
 C784 C 0.52320 0.05752 0.82011
 C785 C 0.49186 0.05574 0.80373
 C786 C 0.47508 0.08197 0.80947
 C787 C 0.57013 0.08759 0.85746
 C788 C 0.58678 0.11626 0.87858
 C789 C 0.57154 0.14398 0.88529
 C790 C 0.53726 0.14097 0.87017
 C791 C 0.52031 0.16680 0.87771
 C792 C 0.53700 0.19559 0.89868
 C793 C 0.57138 0.20017 0.91298
 C794 C 0.58931 0.17457 0.90664
 C795 C 0.62466 0.18132 0.92178
 C796 C 0.64114 0.21202 0.94221
 C797 C 0.62305 0.23701 0.94834
 C798 C 0.58801 0.23063 0.93359
 H799 H 0.47488 0.12901 0.83392
 H800 H 0.53676 0.03773 0.81546
 H801 H 0.45096 0.08116 0.79693
 H802 H 0.58299 0.06710 0.85303
 H803 H 0.61155 0.11565 0.88941
 H804 H 0.49368 0.16539 0.86793
 H805 H 0.52296 0.21483 0.90362
 H806 H 0.64080 0.16393 0.91818
 H807 H 0.66834 0.21631 0.95316
 H808 H 0.57367 0.24979 0.93797
   
