data_POSCAR
  _audit_creation_date              2014-09-24
  _audit_creation_method            'ToBaCCo'
  _symmetry_space_group_name_H-M    'P1'
  _symmetry_Int_Tables_number       1
  _symmetry_cell_setting            triclinic
  loop_
  _symmetry_equiv_pos_as_xyz
 x,y,z
_cell_length_a 39.1025
_cell_length_b 39.1034
_cell_length_c 39.1162
_cell_angle_alpha 74.679200
_cell_angle_beta 105.239800
_cell_angle_gamma 75.106000
loop_
  _atom_site_label
  _atom_site_type_symbol
  _atom_site_fract_x
  _atom_site_fract_y
  _atom_site_fract_z
O1 O 0.55438 0.47911 0.03181
 O2 O 0.45711 0.49083 0.02966
 O3 O 0.51296 0.43628 0.03214
 O4 O 0.49851 0.53363 0.02993
 O5 O 0.47782 0.55472 -0.03268
 O6 O 0.49185 0.45717 -0.03048
 O7 O 0.43628 0.51199 -0.03293
 O8 O 0.53337 0.49986 -0.03081
 Cu9 Cu 0.50786 0.48290 0.03717
 Cu10 Cu 0.48277 0.50807 -0.03802
 C11 C 0.56035 0.48769 0.00078
 C12 C 0.43017 0.50302 -0.00202
 C13 C 0.50442 0.43021 0.00122
 C14 C 0.48598 0.56069 -0.00166
 O15 O -0.04281 0.57553 0.46778
 O16 O -0.04077 0.47805 0.47990
 O17 O -0.04108 0.51956 0.52251
 O18 O -0.04342 0.53433 0.42491
 O19 O 0.01910 0.51354 0.44576
 O20 O 0.02143 0.49902 0.54341
 O21 O 0.02174 0.45750 0.50089
 O22 O 0.01967 0.55469 0.48848
 Cu23 Cu -0.04830 0.52893 0.47170
 Cu24 Cu 0.02675 0.50411 0.49673
 C25 C -0.01182 0.58164 0.47639
 C26 C -0.00913 0.45126 0.49214
 C27 C -0.00948 0.50717 0.54950
 C28 C -0.01254 0.52610 0.41878
 O29 O 0.51138 0.01828 0.55480
 O30 O 0.49924 0.02047 0.45747
 O31 O 0.45639 0.02103 0.49869
 O32 O 0.55386 0.01868 0.51338
 O33 O 0.57460 -0.04385 0.53414
 O34 O 0.47679 -0.04150 0.51982
 O35 O 0.51961 -0.04206 0.47846
 O36 O 0.53208 -0.04423 0.57575
 Cu37 Cu 0.50316 0.02588 0.50398
 Cu38 Cu 0.52783 -0.04919 0.52913
 C39 C 0.52348 -0.01333 0.58183
 C40 C 0.50768 -0.01048 0.45148
 C41 C 0.45002 -0.00979 0.50715
 C42 C 0.58076 -0.01287 0.52590
 C43 C 0.50179 -0.02404 0.02553
 C44 C 0.50577 0.00294 -0.00177
 C45 C 0.50838 -0.00197 -0.03750
 C46 C 0.50742 0.03923 0.00228
 C47 C 0.50134 -0.01993 0.06214
 C48 C 0.49789 -0.05933 0.02044
 C49 C 0.53674 -0.03273 -0.03710
 C50 C 0.53968 -0.03583 -0.07113
 C51 C 0.51447 -0.00806 -0.10617
 C52 C 0.48610 0.02262 -0.10632
 C53 C 0.48322 0.02567 -0.07237
 C54 C 0.53801 0.05026 -0.00157
 C55 C 0.53933 0.08502 0.00043
 C56 C 0.50986 0.10966 0.00603
 C57 C 0.47922 0.09847 0.00998
 C58 C 0.47795 0.06363 0.00796
 C59 C 0.47103 -0.02325 0.07388
 C60 C 0.47048 -0.02042 0.10860
 C61 C 0.50044 -0.01450 0.13250
 C62 C 0.53091 -0.01133 0.12071
 C63 C 0.53142 -0.01419 0.08593
 C64 C 0.46891 -0.05819 -0.01044
 C65 C 0.46544 -0.09179 -0.01440
 C66 C 0.49070 -0.12712 0.01267
 C67 C 0.51942 -0.12801 0.04372
 C68 C 0.52286 -0.09447 0.04760
 H69 H 0.55687 -0.05401 -0.01044
 H70 H 0.56192 -0.05976 -0.06996
 H71 H 0.46622 0.04455 -0.13269
 H72 H 0.46128 0.04972 -0.07327
 H73 H 0.56091 0.03189 -0.00620
 H74 H 0.56332 0.09269 -0.00277
 H75 H 0.45374 0.05591 0.01029
 H76 H 0.44767 -0.02792 0.05603
 H77 H 0.44662 -0.02309 0.11674
 H78 H 0.55454 -0.00695 0.13846
 H79 H 0.55544 -0.01227 0.07772
 H80 H 0.44889 -0.03130 -0.03133
 H81 H 0.44289 -0.09006 -0.03854
 H82 H 0.53932 -0.15464 0.06516
 H83 H 0.54525 -0.09591 0.07175
 H84 H 0.45598 0.11679 0.01418
 C85 C -0.02296 0.50197 0.97489
 C86 C 0.00425 0.50587 1.00197
 C87 C 0.04068 0.50700 0.99781
 C88 C -0.00065 0.50916 1.03747
 C89 C -0.05849 0.49877 0.98001
 C90 C -0.01892 0.50109 0.93839
 C91 C 0.06483 0.47720 0.99231
 C92 C 0.09981 0.47800 0.99024
 C93 C 0.11139 0.50849 0.99394
 C94 C 0.08698 0.53830 0.99934
 C95 C 0.05210 0.53746 1.00139
 C96 C 0.02672 0.48406 1.07248
 C97 C 0.02364 0.48756 1.10622
 C98 C -0.00680 0.51649 1.10566
 C99 C -0.03430 0.54165 1.07047
 C100 C -0.03116 0.53810 1.03665
 C101 C -0.09345 0.52388 0.95262
 C102 C -0.12720 0.52103 0.95644
 C103 C -0.12675 0.49277 0.98767
 C104 C -0.09161 0.46741 1.01500
 C105 C -0.05778 0.47030 1.01112
 C106 C -0.01295 0.53088 0.91440
 C107 C -0.01005 0.52996 0.87976
 C108 C -0.01340 0.49937 0.86832
 C109 C -0.01959 0.46971 0.89241
 C110 C -0.02246 0.47067 0.92700
 H111 H 0.05683 0.45309 0.99018
 H112 H 0.11793 0.45451 0.98619
 H113 H 0.09493 0.56220 1.00235
 H114 H 0.03394 0.56061 1.00587
 H115 H 0.05058 0.46170 1.07367
 H116 H 0.04535 0.46770 1.13273
 H117 H -0.05221 0.55819 1.00985
 H118 H -0.09458 0.54591 0.92830
 H119 H -0.15366 0.54099 0.93479
 H120 H -0.09019 0.44521 1.03930
 H121 H -0.03106 0.45018 1.03221
 H122 H -0.01087 0.55498 0.92236
 H123 H -0.00547 0.55337 0.86185
 H124 H -0.02242 0.44577 0.88451
 H125 H -0.02732 0.44753 0.94503
 H126 H -0.05803 0.56431 1.06899
 C127 C 0.01862 -0.00676 0.49715
 C128 C -0.00791 0.01992 0.50205
 C129 C -0.04279 0.01415 0.50658
 C130 C -0.00390 0.05656 0.50275
 C131 C 0.05511 -0.00276 0.49600
 C132 C 0.01297 -0.04196 0.49339
 C133 C -0.07826 0.04113 0.48231
 C134 C -0.11136 0.03656 0.48645
 C135 C -0.10969 0.00498 0.51518
 C136 C -0.07403 -0.02192 0.53971
 C137 C -0.04088 -0.01728 0.53554
 C138 C 0.00133 0.08085 0.47257
 C139 C 0.00281 0.11619 0.47270
 C140 C -0.00120 0.12804 0.50288
 C141 C -0.00620 0.10347 0.53312
 C142 C -0.00768 0.06822 0.53295
 C143 C 0.07953 0.00262 0.52590
 C144 C 0.11479 0.00404 0.52543
 C145 C 0.12641 -0.00021 0.49518
 C146 C 0.10169 -0.00534 0.46520
 C147 C 0.06651 -0.00675 0.46571
 C148 C 0.04026 -0.07725 0.51779
 C149 C 0.03590 -0.11064 0.51431
 C150 C 0.00422 -0.10948 0.48612
 C151 C -0.02303 -0.07401 0.46150
 C152 C -0.01861 -0.04056 0.46501
 H153 H -0.08030 0.06568 0.45994
 H154 H -0.13826 0.05789 0.46709
 H155 H -0.07169 -0.04646 0.56225
 H156 H -0.01372 -0.03806 0.55503
 H157 H 0.00357 0.07273 0.44862
 H158 H 0.00658 0.13441 0.44889
 H159 H -0.01197 0.05000 0.55639
 H160 H 0.07159 0.00501 0.54992
 H161 H 0.13313 0.00791 0.54905
 H162 H 0.10966 -0.00873 0.44147
 H163 H 0.04816 -0.01116 0.44249
 H164 H 0.06492 -0.07893 0.53973
 H165 H 0.05749 -0.13737 0.53372
 H166 H -0.04768 -0.07205 0.43937
 H167 H -0.03966 -0.01357 0.44543
 H168 H -0.00942 0.11160 0.55682
 N169 N -0.33747 0.47123 1.03464
 C170 C -0.33108 0.48098 1.00157
 N171 N -0.36018 0.49226 0.96839
 N172 N -0.39467 0.49387 0.96822
 C173 C -0.40124 0.48427 1.00125
 N174 N -0.37199 0.47283 1.03448
 C175 C -0.29441 0.48094 1.00138
 C176 C -0.26419 0.48198 1.00014
 C177 C -0.22899 0.48449 0.99732
 N178 N -0.22900 0.51175 0.96757
 N179 N -0.19653 0.51433 0.96462
 C180 C -0.16279 0.48978 0.99131
 N181 N -0.16295 0.46248 1.02114
 N182 N -0.19547 0.45988 1.02410
 N183 N 0.33012 0.51926 0.96259
 C184 C 0.32323 0.50862 0.99527
 N185 N 0.35195 0.49681 1.02886
 N186 N 0.38659 0.49545 1.02977
 C187 C 0.39370 0.50587 0.99709
 N188 N 0.36476 0.51790 0.96348
 C189 C 0.28617 0.50911 0.99431
 C190 C 0.25512 0.50926 0.99360
 C191 C 0.21826 0.50931 0.99300
 N192 N 0.20725 0.48005 0.98878
 N193 N 0.17322 0.47988 0.98880
 C194 C 0.14896 0.50896 0.99305
 N195 N 0.16019 0.53824 0.99717
 N196 N 0.19420 0.53843 0.99715
 N197 N 0.02086 -0.34099 0.48191
 C198 C -0.01220 -0.31192 0.47056
 N199 N -0.04529 -0.31825 0.46039
 N200 N -0.04527 -0.35268 0.46171
 C201 C -0.01214 -0.38197 0.47333
 N202 N 0.02090 -0.37539 0.48325
 C203 C -0.01183 -0.27542 0.47101
 C204 C -0.01029 -0.24544 0.47257
 C205 C -0.00698 -0.21059 0.47579
 N206 N 0.02319 -0.21130 0.50303
 N207 N 0.02662 -0.17919 0.50627
 C208 C 0.00002 -0.14513 0.48242
 N209 N -0.03024 -0.14459 0.45514
 N210 N -0.03369 -0.17675 0.45188
 N211 N 0.02660 0.34920 0.50934
 C212 C -0.00592 0.34196 0.49887
 N213 N -0.03955 0.37052 0.48681
 N214 N -0.04062 0.40530 0.48512
 C215 C -0.00808 0.41266 0.49547
 N216 N 0.02554 0.38396 0.50765
 C217 C -0.00473 0.30468 0.49989
 C218 C -0.00366 0.27338 0.50059
 C219 C -0.00248 0.23616 0.50136
 N220 N -0.00625 0.21199 0.53092
 N221 N -0.00558 0.17760 0.53148
 C222 C -0.00109 0.16607 0.50253
 N223 N 0.00277 0.19045 0.47301
 N224 N 0.00210 0.22485 0.47244
 N225 N 0.51785 0.01799 -0.34022
 C226 C 0.52931 -0.01542 -0.31132
 N227 N 0.53961 -0.04819 -0.31798
 N228 N 0.53829 -0.04755 -0.35255
 C229 C 0.52656 -0.01410 -0.38167
 N230 N 0.51652 0.01865 -0.37478
 C231 C 0.52881 -0.01590 -0.27464
 C232 C 0.52732 -0.01553 -0.24434
 C233 C 0.52428 -0.01398 -0.20896
 N234 N 0.54866 -0.04129 -0.17559
 N235 N 0.54553 -0.03956 -0.14290
 C236 C 0.51789 -0.01049 -0.14242
 N237 N 0.49357 0.01671 -0.17601
 N238 N 0.49668 0.01500 -0.20866
 N239 N 0.49130 0.02393 0.34928
 C240 C 0.50120 -0.00894 0.34271
 N241 N 0.51259 -0.04225 0.37173
 N242 N 0.51418 -0.04270 0.40630
 C243 C 0.50441 -0.00985 0.41302
 N244 N 0.49289 0.02349 0.38386
 C245 C 0.50037 -0.00861 0.30570
 C246 C 0.50001 -0.00874 0.27481
 C247 C 0.49980 -0.00939 0.23823
 N248 N 0.52907 -0.00582 0.22699
 N249 N 0.52920 -0.00720 0.19334
 C250 C 0.50008 -0.01226 0.16971
 N251 N 0.47079 -0.01574 0.18116
 N252 N 0.47065 -0.01436 0.21479
 N253 N 0.46815 -0.33686 -0.03544
 C254 C 0.47748 -0.33049 -0.00235
 N255 N 0.48883 -0.35968 0.03080
 N256 N 0.49093 -0.39425 0.03092
 C257 C 0.48177 -0.40080 -0.00212
 N258 N 0.47023 -0.37146 -0.03533
 C259 C 0.47727 -0.29384 -0.00206
 C260 C 0.47836 -0.26371 -0.00066
 C261 C 0.48114 -0.22871 0.00245
 N262 N 0.45663 -0.19500 -0.02410
 N263 N 0.45961 -0.16268 -0.02093
 C264 C 0.48719 -0.16292 0.00887
 N265 N 0.51162 -0.19685 0.03533
 N266 N 0.50866 -0.22913 0.03218
 N267 N 0.49953 0.34982 -0.02945
 C268 C 0.51159 0.32105 0.00420
 N269 N 0.52210 0.32799 0.03684
 N270 N 0.52041 0.36271 0.03587
 C271 C 0.50818 0.39163 0.00223
 N272 N 0.49783 0.38456 -0.03042
 C273 C 0.51212 0.28400 0.00524
 C274 C 0.51215 0.25298 0.00604
 C275 C 0.51188 0.21621 0.00676
 N276 N 0.48257 0.20547 0.01131
 N277 N 0.48203 0.17152 0.01137
 C278 C 0.51078 0.14710 0.00687
 N279 N 0.54013 0.15805 0.00242
 N280 N 0.54068 0.19198 0.00236
 N281 N -0.31714 -0.04627 0.54252
 C282 C -0.31073 -0.01314 0.53310
 N283 N -0.33972 0.01986 0.52223
 N284 N -0.37415 0.01982 0.52064
 C285 C -0.38076 -0.01324 0.52985
 N286 N -0.35161 -0.04632 0.54095
 C287 C -0.27432 -0.01260 0.53258
 C288 C -0.24449 -0.01083 0.53080
 C289 C -0.20993 -0.00715 0.52714
 N290 N -0.21112 0.02302 0.49951
 N291 N -0.17927 0.02676 0.49576
 C292 C -0.14502 0.00049 0.51950
 N293 N -0.14399 -0.02976 0.54720
 N294 N -0.17589 -0.03353 0.55096
 N295 N 0.34771 0.02635 0.48830
 C296 C 0.34031 -0.00611 0.49865
 N297 N 0.36883 -0.03983 0.51109
 N298 N 0.40375 -0.04106 0.51327
 C299 C 0.41128 -0.00859 0.50306
 N300 N 0.38261 0.02513 0.49048
 C301 C 0.30297 -0.00473 0.49742
 C302 C 0.27164 -0.00348 0.49668
 C303 C 0.23443 -0.00205 0.49604
 N304 N 0.22325 0.00287 0.52494
 N305 N 0.18885 0.00374 0.52455
 C306 C 0.16438 -0.00025 0.49526
 N307 N 0.17578 -0.00508 0.46633
 N308 N 0.21016 -0.00595 0.46671
 N309 N -0.04748 0.54342 1.31652
 C310 C -0.01472 0.53349 1.30977
 N311 N 0.01868 0.52205 1.33862
 N312 N 0.01934 0.52041 1.37325
 C313 C -0.01339 0.53013 1.38018
 N314 N -0.04683 0.54179 1.35117
 C315 C -0.01517 0.53299 1.27313
 C316 C -0.01471 0.53132 1.24293
 C317 C -0.01299 0.52788 1.20777
 N318 N 0.01585 0.49986 1.20785
 N319 N 0.01767 0.49626 1.17541
 C320 C -0.00931 0.52051 1.14165
 N321 N -0.03823 0.54857 1.14175
 N322 N -0.04006 0.55219 1.17424
 N323 N -0.04108 0.51061 0.62960
 C324 C -0.00774 0.49893 0.65861
 N325 N 0.02509 0.48921 0.65193
 N326 N 0.02458 0.49128 0.61723
 C327 C -0.00878 0.50312 0.58808
 N328 N -0.04159 0.51268 0.59491
 C329 C -0.00735 0.49793 0.69563
 C330 C -0.00745 0.49761 0.72650
 C331 C -0.00809 0.49766 0.76299
 N332 N -0.01339 0.46880 0.78653
 N333 N -0.01483 0.46926 0.82006
 C334 C -0.01108 0.49860 0.83128
 N335 N -0.00569 0.52741 0.80754
 N336 N -0.00424 0.52697 0.77400
   
