data_POSCAR
  _audit_creation_date              2014-09-24
  _audit_creation_method            'ToBaCCo'
  _symmetry_space_group_name_H-M    'P1'
  _symmetry_Int_Tables_number       1
  _symmetry_cell_setting            triclinic
  loop_
  _symmetry_equiv_pos_as_xyz
 x,y,z
_cell_length_a 27.5856
_cell_length_b 27.8465
_cell_length_c 26.9626
_cell_angle_alpha 85.007000
_cell_angle_beta 94.211100
_cell_angle_gamma 93.665700
loop_
  _atom_site_label
  _atom_site_type_symbol
  _atom_site_fract_x
  _atom_site_fract_y
  _atom_site_fract_z
C1 C 0.21391 0.29137 0.28449
 C2 C 0.24124 0.32240 0.24408
 C3 C 0.26685 0.29692 0.21511
 C4 C 0.26110 0.24196 0.22735
 C5 C 0.18121 0.25634 0.25359
 C6 C 0.20575 0.23091 0.22369
 C7 C 0.25188 0.25957 0.31268
 C8 C 0.27636 0.23384 0.28315
 H9 H 0.24070 0.36137 0.23893
 H10 H 0.28136 0.22070 0.20358
 H11 H 0.14186 0.25499 0.25104
 H12 H 0.25731 0.25607 0.35301
 C13 C 0.71528 0.79034 0.29213
 C14 C 0.74360 0.82018 0.25134
 C15 C 0.77076 0.79363 0.22499
 C16 C 0.76774 0.73933 0.24155
 C17 C 0.68584 0.75201 0.26300
 C18 C 0.71291 0.72470 0.23746
 C19 C 0.75500 0.76327 0.32382
 C20 C 0.78213 0.73651 0.29787
 H21 H 0.74383 0.85876 0.24329
 H22 H 0.79008 0.71765 0.22024
 H23 H 0.64643 0.74811 0.26134
 H24 H 0.76026 0.76423 0.36396
 C25 C 0.70428 0.28512 0.78293
 C26 C 0.73065 0.31250 0.74406
 C27 C 0.75713 0.28432 0.71468
 C28 C 0.75364 0.23288 0.73071
 C29 C 0.67315 0.24566 0.75661
 C30 C 0.69853 0.21898 0.72836
 C31 C 0.74352 0.25601 0.81401
 C32 C 0.76898 0.22867 0.78691
 H33 H 0.73304 0.35164 0.74008
 H34 H 0.77408 0.21032 0.70846
 H35 H 0.63405 0.24064 0.75856
 H36 H 0.74727 0.25106 0.85418
 C37 C 0.20538 0.78041 0.79193
 C38 C 0.23143 0.81109 0.75058
 C39 C 0.25734 0.78596 0.72137
 C40 C 0.25809 0.73190 0.73916
 C41 C 0.17715 0.73905 0.76619
 C42 C 0.20421 0.71406 0.73821
 C43 C 0.24760 0.75559 0.82240
 C44 C 0.27499 0.73056 0.79503
 H45 H 0.23150 0.85012 0.74709
 H46 H 0.28006 0.71078 0.71702
 H47 H 0.13832 0.73150 0.76847
 H48 H 0.25634 0.75663 0.86193
 C49 C 0.07746 0.07060 0.01283
 H50 H 0.07874 0.07395 -0.02733
 C51 C 0.10619 0.10229 0.04163
 H52 H 0.12992 0.12995 0.02369
 C53 C 0.04355 0.03185 0.08524
 H54 H 0.01815 0.00536 0.10208
 C55 C 0.07146 0.06294 0.11539
 H56 H 0.06770 0.05989 0.15527
 N57 N 0.04696 0.03619 0.03491
 C58 C 0.01578 -0.07313 -0.07153
 H59 H -0.02351 -0.07646 -0.07153
 C60 C 0.03998 -0.10276 -0.09950
 H61 H 0.01930 -0.12914 -0.12099
 C62 C 0.09085 -0.03578 -0.04220
 H63 H 0.11064 -0.01036 -0.01909
 C64 C 0.11647 -0.06430 -0.07008
 H65 H 0.15584 -0.06025 -0.06875
 Zn66 Zn 0.00538 -0.00208 -0.00702
 N67 N 0.04135 -0.04009 -0.04409
 C68 C -0.03589 0.03926 -0.10043
 N69 N -0.03228 0.04071 -0.04993
 C70 C -0.05661 0.07282 -0.02743
 C71 C -0.08800 0.10350 -0.05562
 C72 C -0.06705 0.06938 -0.13012
 C73 C -0.01660 -0.07772 0.06566
 C74 C -0.04642 -0.10833 0.09583
 C75 C -0.11672 -0.07216 0.05270
 C76 C -0.08562 -0.04193 0.02377
 N77 N -0.03650 -0.04453 0.03135
 H78 H -0.01555 0.01408 -0.11764
 H79 H -0.05258 0.07356 0.01271
 H80 H -0.10828 0.12797 -0.03718
 H81 H -0.07098 0.06705 -0.17012
 H82 H 0.02255 -0.07961 0.07028
 H83 H -0.03030 -0.13375 0.12400
 H84 H -0.15574 -0.06918 0.04709
 H85 H -0.10089 -0.01631 -0.00454
 C86 C 0.09087 -0.09775 -0.09966
 C87 C 0.10252 0.09908 0.09340
 C88 C -0.09702 -0.10543 0.08941
 C89 C -0.09430 0.10102 -0.10739
 C90 C 0.07075 0.56336 0.52362
 H91 H 0.06586 0.57292 0.48389
 C92 C 0.10011 0.59327 0.55380
 H93 H 0.11803 0.62591 0.53729
 C94 C 0.05256 0.50961 0.59384
 H95 H 0.03404 0.47690 0.60918
 C96 C 0.08156 0.53853 0.62540
 H97 H 0.08478 0.52836 0.66515
 N98 N 0.04718 0.52284 0.54406
 C99 C 0.02281 0.43011 0.42172
 H100 H -0.01562 0.43236 0.41118
 C101 C 0.05183 0.40613 0.39268
 H102 H 0.03566 0.39101 0.35923
 C103 C 0.09033 0.44623 0.47845
 H104 H 0.10519 0.46162 0.51214
 C105 C 0.12007 0.42058 0.45183
 H106 H 0.15740 0.41578 0.46582
 Zn107 Zn 0.00483 0.48745 0.50044
 N108 N 0.04280 0.45126 0.46266
 C109 C -0.03236 0.53716 0.40829
 N110 N -0.03149 0.53361 0.45908
 C111 C -0.05603 0.56442 0.48318
 C112 C -0.08394 0.59920 0.45639
 C113 C -0.06052 0.57097 0.37998
 C114 C -0.04695 0.39811 0.52760
 C115 C -0.08140 0.36814 0.55290
 C116 C -0.09698 0.43485 0.59984
 C117 C -0.06275 0.46357 0.57345
 N118 N -0.03892 0.44521 0.53756
 H119 H -0.01118 0.51422 0.38934
 H120 H -0.05344 0.56261 0.52338
 H121 H -0.10329 0.62333 0.47624
 H122 H -0.06192 0.57255 0.33962
 H123 H -0.02738 0.38387 0.49943
 H124 H -0.08836 0.33107 0.54389
 H125 H -0.11577 0.45008 0.62814
 H126 H -0.05498 0.50051 0.58204
 C127 C 0.10147 0.40193 0.40710
 C128 C 0.10559 0.58093 0.60530
 C129 C -0.10755 0.38694 0.58870
 C130 C -0.08645 0.60269 0.40415
 C131 C 0.56797 0.06342 0.51405
 H132 H 0.57354 0.06340 0.47475
 C133 C 0.59671 0.09474 0.54338
 H134 H 0.62482 0.11856 0.52688
 C135 C 0.52408 0.03322 0.58357
 H136 H 0.49450 0.01094 0.59887
 C137 C 0.55208 0.06372 0.61423
 H138 H 0.54494 0.06351 0.65323
 N139 N 0.53349 0.03231 0.53477
 C140 C 0.51527 -0.07689 0.42598
 H141 H 0.47604 -0.07874 0.41957
 C142 C 0.54311 -0.10550 0.40044
 H143 H 0.52539 -0.12924 0.37402
 C144 C 0.58640 -0.04399 0.46844
 H145 H 0.60313 -0.02086 0.49575
 C146 C 0.61562 -0.07180 0.44355
 H147 H 0.65476 -0.06936 0.45119
 Zn148 Zn 0.49644 -0.00956 0.49215
 N149 N 0.53721 -0.04644 0.45874
 C150 C 0.46188 0.03338 0.39621
 N151 N 0.45880 0.03071 0.44655
 C152 C 0.42858 0.05848 0.46771
 C153 C 0.39988 0.09066 0.43809
 C154 C 0.43342 0.06497 0.36505
 C155 C 0.46948 -0.07602 0.57284
 C156 C 0.43652 -0.10378 0.60200
 C157 C 0.37434 -0.09172 0.53506
 C158 C 0.40778 -0.06212 0.50833
 N159 N 0.45389 -0.05342 0.52830
 H160 H 0.48656 0.01140 0.38019
 H161 H 0.42705 0.05570 0.50785
 H162 H 0.37621 0.11280 0.45549
 H163 H 0.43582 0.06685 0.32501
 H164 H 0.50706 -0.07076 0.58676
 H165 H 0.44875 -0.11890 0.63882
 H166 H 0.33782 -0.09842 0.51855
 H167 H 0.39679 -0.04582 0.47170
 C168 C 0.59385 -0.10299 0.40927
 C169 C 0.58919 0.09432 0.59418
 C170 C 0.38771 -0.11040 0.58387
 C171 C 0.40248 0.09445 0.38621
 C172 C 0.58503 0.57330 0.01987
 H173 H 0.58451 0.58040 -0.02025
 C174 C 0.61465 0.60261 0.05060
 H175 H 0.63725 0.63213 0.03414
 C176 C 0.55457 0.52771 0.09047
 H177 H 0.53010 0.49959 0.10607
 C178 C 0.58377 0.55593 0.12250
 H179 H 0.58189 0.54903 0.16250
 N180 N 0.55599 0.53647 0.04011
 C181 C 0.52272 0.43029 -0.06935
 H182 H 0.48378 0.42516 -0.06654
 C183 C 0.54615 0.40196 -0.09939
 H184 H 0.52524 0.37457 -0.11933
 C185 C 0.59771 0.47117 -0.04547
 H186 H 0.61778 0.49773 -0.02396
 C187 C 0.62244 0.44423 -0.07577
 H188 H 0.66146 0.45045 -0.07759
 Zn189 Zn 0.51361 0.50110 -0.00404
 N190 N 0.54861 0.46425 -0.04337
 C191 C 0.47567 0.54724 -0.09602
 N192 N 0.47799 0.54652 -0.04535
 C193 C 0.45391 0.57816 -0.02193
 C194 C 0.42418 0.61080 -0.04953
 C195 C 0.44648 0.57961 -0.12515
 C196 C 0.48725 0.42290 0.06495
 C197 C 0.45549 0.39265 0.09336
 C198 C 0.38791 0.43375 0.05066
 C199 C 0.42087 0.46350 0.02355
 N200 N 0.46963 0.45840 0.03186
 H201 H 0.49558 0.52213 -0.11383
 H202 H 0.45679 0.57695 0.01838
 H203 H 0.40394 0.63487 -0.03052
 H204 H 0.44362 0.57924 -0.16539
 H205 H 0.52608 0.41886 0.07007
 H206 H 0.46982 0.36538 0.12066
 H207 H 0.34925 0.43876 0.04447
 H208 H 0.40727 0.49074 -0.00396
 C209 C 0.59649 0.40951 -0.10360
 C210 C 0.61429 0.59374 0.10252
 C211 C 0.40529 0.39828 0.08632
 C212 C 0.41999 0.61129 -0.10161
 C213 C 0.15126 -0.15864 -0.10344
 C214 C 0.17774 -0.18850 -0.12851
 C215 C 0.17199 -0.18967 -0.18082
 C216 C 0.13541 -0.16109 -0.20726
 C217 C 0.10965 -0.12939 -0.18149
 C218 C 0.11761 -0.12859 -0.12912
 C219 C 0.07719 -0.09868 -0.20930
 N220 N 0.06879 -0.10157 -0.25907
 N221 N 0.09082 -0.13289 -0.28295
 C222 C 0.12348 -0.16268 -0.25892
 H223 H 0.15706 -0.15911 -0.06321
 H224 H 0.20238 -0.21072 -0.10550
 H225 H 0.05856 -0.07214 -0.19213
 H226 H 0.13913 -0.18744 -0.28075
 C227 C 0.11486 0.33013 0.36290
 C228 C 0.14172 0.30319 0.33496
 C229 C 0.18804 0.32011 0.32000
 C230 C 0.20917 0.36335 0.33947
 C231 C 0.18014 0.39277 0.36446
 C232 C 0.13263 0.37549 0.37702
 C233 C 0.19980 0.43883 0.37555
 N234 N 0.24699 0.45188 0.36788
 N235 N 0.27569 0.42222 0.34941
 C236 C 0.25859 0.37838 0.33540
 H237 H 0.07963 0.31510 0.37379
 H238 H 0.12585 0.26826 0.32611
 H239 H 0.17824 0.46476 0.39001
 H240 H 0.28411 0.35566 0.32185
 C241 C 0.65385 -0.10750 0.34693
 C242 C 0.68268 -0.13236 0.31895
 C243 C 0.68340 -0.18319 0.32449
 C244 C 0.65430 -0.20865 0.36148
 C245 C 0.62468 -0.18275 0.38971
 C246 C 0.62431 -0.13194 0.38175
 C247 C 0.59692 -0.20852 0.42607
 N248 N 0.59837 -0.25712 0.43358
 N249 N 0.62587 -0.28162 0.40740
 C250 C 0.65380 -0.25929 0.37195
 H251 H 0.65430 -0.06847 0.34096
 H252 H 0.70434 -0.11031 0.29329
 H253 H 0.57439 -0.19050 0.44895
 H254 H 0.67538 -0.28184 0.35298
 C255 C 0.66116 0.35417 -0.11197
 C256 C 0.68679 0.32479 -0.13840
 C257 C 0.67424 0.31801 -0.18914
 C258 C 0.63524 0.34487 -0.21354
 C259 C 0.61009 0.37609 -0.18640
 C260 C 0.62253 0.37961 -0.13488
 C261 C 0.57410 0.40415 -0.21220
 N262 N 0.56272 0.40006 -0.26139
 N263 N 0.58516 0.37017 -0.28667
 C264 C 0.62083 0.34273 -0.26466
 H265 H 0.67181 0.35710 -0.07279
 H266 H 0.71711 0.30841 -0.11776
 H267 H 0.55538 0.42993 -0.19409
 H268 H 0.63735 0.31996 -0.28791
 C269 C -0.11537 0.16734 -0.17128
 C270 C -0.14846 0.19816 -0.19675
 C271 C -0.19810 0.19240 -0.18860
 C272 C -0.21508 0.15347 -0.15550
 C273 C -0.18146 0.12207 -0.12981
 C274 C -0.13110 0.12997 -0.13693
 C275 C -0.19954 0.08314 -0.09821
 N276 N -0.24800 0.07658 -0.09260
 N277 N -0.27961 0.10608 -0.11665
 C278 C -0.26491 0.14413 -0.14791
 H279 H -0.07698 0.17361 -0.17721
 H280 H -0.13490 0.22782 -0.22155
 H281 H -0.17576 0.05746 -0.07840
 H282 H -0.29249 0.16597 -0.16723
 C283 C -0.16699 0.63649 0.38517
 C284 C -0.19841 0.66882 0.35987
 C285 C -0.18186 0.70370 0.32338
 C286 C -0.13200 0.70663 0.31317
 C287 C -0.09967 0.67412 0.33960
 C288 C -0.11769 0.63827 0.37541
 C289 C -0.04997 0.67983 0.33044
 N290 N -0.03418 0.71492 0.29635
 N291 N -0.06456 0.74506 0.27129
 C292 C -0.11275 0.74225 0.27875
 H293 H -0.18142 0.60954 0.41253
 H294 H -0.23635 0.66608 0.36830
 H295 H -0.02330 0.65738 0.35051
 H296 H -0.13527 0.76834 0.25838
 C297 C 0.32156 0.12310 0.35704
 C298 C 0.29116 0.15673 0.33226
 C299 C 0.31040 0.19733 0.30439
 C300 C 0.36139 0.20361 0.30059
 C301 C 0.39252 0.16954 0.32620
 C302 C 0.37221 0.12906 0.35489
 C303 C 0.44313 0.17836 0.32375
 N304 N 0.46096 0.21800 0.29660
 N305 N 0.43171 0.24966 0.27224
 C306 C 0.38263 0.24392 0.27353
 H307 H 0.30546 0.09253 0.37898
 H308 H 0.25222 0.15153 0.33557
 H309 H 0.46878 0.15454 0.34345
 H310 H 0.36079 0.27105 0.25381
 C311 C 0.33546 0.63003 -0.12722
 C312 C 0.30054 0.65902 -0.15176
 C313 C 0.31419 0.70117 -0.18083
 C314 C 0.36416 0.71549 -0.18331
 C315 C 0.39987 0.68554 -0.15891
 C316 C 0.38511 0.64252 -0.13069
 C317 C 0.44921 0.70062 -0.16219
 N318 N 0.46163 0.74336 -0.18748
 N319 N 0.42807 0.77210 -0.20922
 C320 C 0.37979 0.75979 -0.20763
 H321 H 0.32369 0.59763 -0.10503
 H322 H 0.26238 0.64849 -0.14808
 H323 H 0.47793 0.67910 -0.14449
 H324 H 0.35410 0.78510 -0.22447
 C325 C -0.12892 -0.12369 0.17233
 C326 C -0.16163 -0.14720 0.20445
 C327 C -0.19556 -0.18323 0.18828
 C328 C -0.19625 -0.19567 0.13829
 C329 C -0.16280 -0.17164 0.10555
 C330 C -0.12941 -0.13501 0.12278
 C331 C -0.16392 -0.18510 0.05639
 N332 N -0.19722 -0.21951 0.04088
 N333 N -0.22942 -0.24119 0.07117
 C334 C -0.23017 -0.23030 0.11915
 H335 H -0.10367 -0.09560 0.18594
 H336 H -0.16029 -0.13732 0.24254
 H337 H -0.13859 -0.16871 0.03023
 H338 H -0.25757 -0.24837 0.14152
 C339 C -0.13396 0.31449 0.64259
 C340 C -0.16745 0.28867 0.67255
 C341 C -0.21399 0.30542 0.67630
 C342 C -0.22880 0.34537 0.64318
 C343 C -0.19467 0.37155 0.61273
 C344 C -0.14620 0.35720 0.61447
 C345 C -0.21070 0.41046 0.58002
 N346 N -0.25798 0.42154 0.57730
 N347 N -0.29044 0.39596 0.60446
 C348 C -0.27763 0.35805 0.63667
 H349 H -0.09738 0.30230 0.64330
 H350 H -0.15513 0.25764 0.69582
 H351 H -0.18653 0.43134 0.55550
 H352 H -0.30609 0.33702 0.65526
 C353 C 0.36307 -0.18148 0.64060
 C354 C 0.33129 -0.20727 0.67236
 C355 C 0.28583 -0.19016 0.67979
 C356 C 0.27093 -0.14800 0.65041
 C357 C 0.30487 -0.11943 0.62164
 C358 C 0.35125 -0.13693 0.61585
 C359 C 0.29111 -0.07382 0.60045
 N360 N 0.24476 -0.06099 0.60233
 N361 N 0.21141 -0.09038 0.62439
 C362 C 0.22283 -0.13354 0.64804
 H363 H 0.39778 -0.19613 0.63611
 H364 H 0.34348 -0.24013 0.69229
 H365 H 0.31659 -0.04799 0.58273
 H366 H 0.19408 -0.15652 0.66390
 C367 C 0.37026 0.37884 0.16761
 C368 C 0.33588 0.35550 0.19797
 C369 C 0.30129 0.32107 0.17964
 C370 C 0.30144 0.31041 0.12910
 C371 C 0.33658 0.33431 0.09817
 C372 C 0.37086 0.36900 0.11771
 C373 C 0.33625 0.32263 0.04844
 N374 N 0.30214 0.29007 0.03067
 N375 N 0.26841 0.26856 0.05925
 C376 C 0.26683 0.27775 0.10765
 H377 H 0.39610 0.40554 0.18294
 H378 H 0.33666 0.36404 0.23648
 H379 H 0.36283 0.33897 0.02359
 H380 H 0.23825 0.25990 0.12853
 C381 C 0.16511 0.11871 0.16035
 C382 C 0.19051 0.15069 0.19127
 C383 C 0.18039 0.19952 0.18731
 C384 C 0.14520 0.21693 0.15010
 C385 C 0.11884 0.18427 0.11919
 C386 C 0.12916 0.13479 0.12438
 C387 C 0.08236 0.20226 0.08451
 N388 N 0.07472 0.25010 0.07965
 N389 N 0.10089 0.28110 0.10719
 C390 C 0.13588 0.26625 0.14207
 H391 H 0.17333 0.08098 0.16467
 H392 H 0.21751 0.13703 0.21932
 H393 H 0.05969 0.17889 0.06131
 H394 H 0.15642 0.29330 0.16262
 C395 C 0.11828 0.66030 0.63997
 C396 C 0.14163 0.69190 0.67244
 C397 C 0.18158 0.67807 0.70455
 C398 C 0.19860 0.63115 0.70302
 C399 C 0.17512 0.59916 0.66934
 C400 C 0.13407 0.61372 0.63835
 C401 C 0.19391 0.55359 0.66748
 N402 N 0.23242 0.54040 0.69870
 N403 N 0.25338 0.56970 0.73147
 C404 C 0.23768 0.61439 0.73474
 H405 H 0.08702 0.67206 0.61639
 H406 H 0.12833 0.72769 0.67244
 H407 H 0.17862 0.52845 0.64136
 H408 H 0.25570 0.63613 0.76222
 C409 C 0.60945 0.17336 0.62789
 C410 C 0.63557 0.20293 0.66074
 C411 C 0.67356 0.18531 0.69349
 C412 C 0.68581 0.13666 0.69214
 C413 C 0.65906 0.10660 0.65863
 C414 C 0.62037 0.12517 0.62683
 C415 C 0.67174 0.05850 0.65823
 N416 N 0.70845 0.04161 0.68981
 N417 N 0.73316 0.06954 0.72169
 C418 C 0.72300 0.11627 0.72397
 H419 H 0.57988 0.18795 0.60369
 H420 H 0.62592 0.24005 0.66067
 H421 H 0.65287 0.03422 0.63310
 H422 H 0.74397 0.13674 0.75070
 C423 C 0.63079 0.67400 0.13442
 C424 C 0.65373 0.70505 0.16771
 C425 C 0.68999 0.68918 0.20352
 C426 C 0.70332 0.64063 0.20546
 C427 C 0.68012 0.60906 0.17121
 C428 C 0.64305 0.62589 0.13601
 C429 C 0.69501 0.56151 0.17325
 N430 N 0.72964 0.54632 0.20838
 N431 N 0.75028 0.57543 0.24152
 C432 C 0.73816 0.62187 0.24136
 H433 H 0.60246 0.68739 0.10777
 H434 H 0.64324 0.74207 0.16526
 H435 H 0.67964 0.53636 0.14716
 H436 H 0.75545 0.64335 0.26959
   
