data_POSCAR
  _audit_creation_date              2014-09-24
  _audit_creation_method            'ToBaCCo'
  _symmetry_space_group_name_H-M    'P1'
  _symmetry_Int_Tables_number       1
  _symmetry_cell_setting            triclinic
  loop_
  _symmetry_equiv_pos_as_xyz
 x,y,z
_cell_length_a 61.7109
_cell_length_b 13.3208
_cell_length_c 13.4596
_cell_angle_alpha 120.168600
_cell_angle_beta 89.912700
_cell_angle_gamma 89.220100
loop_
  _atom_site_label
  _atom_site_type_symbol
  _atom_site_fract_x
  _atom_site_fract_y
  _atom_site_fract_z
O1 O 0.77453 0.14409 0.51293
 O2 O 0.72655 0.14998 0.35176
 O3 O 0.76886 0.15513 0.32932
 O4 O 0.73202 0.13725 0.53283
 O5 O 0.73122 0.32908 0.63778
 O6 O 0.76811 0.34685 0.43405
 O7 O 0.72548 0.34175 0.45591
 O8 O 0.77337 0.33585 0.61703
 Cu9 Cu 0.75069 0.12740 0.42096
 Cu10 Cu 0.74940 0.35765 0.54639
 C11 C 0.78241 0.23921 0.58999
 C12 C 0.71741 0.24674 0.38011
 C13 C 0.77555 0.25324 0.35041
 C14 C 0.72467 0.23075 0.61695
 O15 O 0.26756 0.84510 0.44614
 O16 O 0.23073 0.82996 0.65079
 O17 O 0.27341 0.83108 0.62669
 O18 O 0.22535 0.84471 0.46975
 O19 O 0.22589 0.65312 0.36253
 O20 O 0.27390 0.63954 0.52041
 O21 O 0.23086 0.63846 0.54324
 O22 O 0.26799 0.65341 0.33900
 Cu23 Cu 0.24920 0.85684 0.55943
 Cu24 Cu 0.24974 0.62678 0.43121
 C25 C 0.27469 0.75178 0.36104
 C26 C 0.22360 0.73202 0.62775
 C27 C 0.28238 0.73338 0.59639
 C28 C 0.21717 0.75112 0.39188
 O29 O 0.27255 0.35221 -0.52739
 O30 O 0.22553 0.33370 -0.36717
 O31 O 0.26783 0.33326 -0.34849
 O32 O 0.22963 0.35012 -0.54747
 O33 O 0.23097 0.15875 -0.65662
 O34 O 0.26892 0.14172 -0.45709
 O35 O 0.22641 0.14230 -0.47596
 O36 O 0.27364 0.16084 -0.63547
 Cu37 Cu 0.24880 0.36152 -0.43704
 Cu38 Cu 0.25004 0.13179 -0.56738
 C39 C 0.28165 0.25943 -0.60493
 C40 C 0.21761 0.23523 -0.39701
 C41 C 0.27558 0.23509 -0.37252
 C42 C 0.22302 0.25663 -0.63234
 O43 O -0.22588 0.86652 -0.51961
 O44 O -0.27416 0.86187 -0.35805
 O45 O -0.23169 0.85574 -0.33598
 O46 O -0.26869 0.87870 -0.53712
 O47 O -0.26844 0.68711 -0.64462
 O48 O -0.23204 0.66421 -0.44241
 O49 O -0.27455 0.67046 -0.46532
 O50 O -0.22622 0.67494 -0.62500
 Cu51 Cu -0.24998 0.88490 -0.42702
 Cu52 Cu -0.25038 0.65515 -0.55485
 C53 C -0.21743 0.77111 -0.59661
 C54 C -0.28300 0.76533 -0.38785
 C55 C -0.22487 0.75644 -0.35830
 C56 C -0.27565 0.78602 -0.62160
 N57 N 0.02289 1.17082 -0.06603
 N58 N 0.04002 1.23252 -0.05870
 N59 N -0.02280 1.07435 -0.16277
 N60 N -0.04046 1.06565 -0.22198
 N61 N -0.02291 1.17364 -0.06532
 N62 N -0.04064 1.23486 -0.05589
 N63 N 0.02313 1.07165 -0.16357
 N64 N 0.04051 1.06329 -0.22511
 C65 C 0.05073 1.16479 -0.15883
 C66 C -0.05127 1.16693 -0.15478
 N67 N -0.02236 0.77645 -0.16750
 N68 N -0.04132 0.72925 -0.17405
 N69 N 0.02323 0.83040 -0.22535
 N70 N 0.04222 0.81700 -0.27628
 N71 N 0.02307 0.77365 -0.16881
 N72 N 0.04184 0.72021 -0.18052
 N73 N -0.02261 0.83350 -0.22384
 N74 N -0.04187 0.82645 -0.26933
 Mn75 Mn 0.00025 0.95169 -0.19553
 C76 C -0.05306 0.75897 -0.23968
 C77 C 0.05335 0.74567 -0.24991
 N78 N -0.02289 1.23947 0.17360
 N79 N -0.04174 1.29138 0.18308
 N80 N 0.02256 1.17917 0.22944
 N81 N 0.04148 1.18915 0.27893
 N82 N 0.02252 1.23590 0.17280
 N83 N 0.04133 1.28580 0.18302
 N84 N -0.02322 1.18232 0.22977
 N85 N -0.04243 1.19388 0.27796
 Mn86 Mn -0.00009 1.20621 0.05436
 C87 C -0.05352 1.26458 0.25051
 C88 C 0.05272 1.25831 0.25160
 N89 N 0.02290 0.83884 0.06988
 N90 N 0.04007 0.77485 0.06198
 N91 N -0.02315 0.94072 0.16809
 N92 N -0.04051 0.94862 0.22961
 N93 N -0.02280 0.84136 0.07075
 N94 N -0.03984 0.77910 0.06357
 N95 N 0.02280 0.93781 0.16760
 N96 N 0.04001 0.94373 0.22873
 Mn97 Mn 0.00022 0.80638 -0.04957
 Mn98 Mn -0.00026 1.06082 0.20042
 Cl99 Cl 0.00004 1.00633 0.00249
 C100 C 0.05046 0.84096 0.16196
 C101 C -0.05063 0.84672 0.16346
 N102 N 0.47754 0.27100 -0.16768
 N103 N 0.45861 0.22173 -0.17989
 N104 N 0.52378 0.32150 -0.22074
 N105 N 0.54311 0.30768 -0.26827
 N106 N 0.52294 0.26617 -0.16283
 N107 N 0.54164 0.21375 -0.16993
 N108 N 0.47822 0.32563 -0.22625
 N109 N 0.45973 0.31466 -0.27942
 C110 C 0.44799 0.24741 -0.25185
 C111 C 0.55380 0.23804 -0.23815
 N112 N 0.52374 0.66227 -0.06668
 N113 N 0.54132 0.72214 -0.05698
 N114 N 0.47827 0.56554 -0.16837
 N115 N 0.46122 0.55762 -0.23142
 N116 N 0.47784 0.66530 -0.07142
 N117 N 0.46055 0.72772 -0.06619
 N118 N 0.52435 0.56189 -0.16292
 N119 N 0.54239 0.55096 -0.22109
 Mn120 Mn 0.50119 0.44291 -0.19615
 C121 C 0.55268 0.65211 -0.15427
 C122 C 0.45046 0.65995 -0.16700
 N123 N 0.52150 0.33452 0.07645
 N124 N 0.53867 0.27133 0.07056
 N125 N 0.47553 0.43940 0.16927
 N126 N 0.45806 0.44865 0.23075
 N127 N 0.47577 0.33966 0.07226
 N128 N 0.45854 0.27851 0.06532
 N129 N 0.52143 0.43479 0.17271
 N130 N 0.53857 0.44242 0.23482
 Mn131 Mn 0.49941 0.30154 -0.04610
 C132 C 0.54896 0.33915 0.17052
 C133 C 0.44773 0.34724 0.16502
 N134 N 0.47673 0.73359 0.16854
 N135 N 0.45787 0.78500 0.17676
 N136 N 0.52200 0.67477 0.22998
 N137 N 0.54089 0.68441 0.27972
 N138 N 0.52215 0.73087 0.17270
 N139 N 0.54102 0.78013 0.18296
 N140 N 0.47641 0.67938 0.22757
 N141 N 0.45734 0.69299 0.27723
 Mn142 Mn 0.50007 0.69932 0.05137
 Mn143 Mn 0.49886 0.55789 0.20144
 Cl144 Cl 0.49987 0.50040 0.00263
 C145 C 0.44625 0.76118 0.24703
 C146 C 0.55228 0.75278 0.25190
 C147 C 0.38701 0.27648 0.24045
 C148 C 0.38027 0.32088 0.35584
 C149 C 0.35789 0.32256 0.38278
 C150 C 0.34243 0.27309 0.29355
 C151 C 0.34945 0.21994 0.17750
 C152 C 0.37183 0.21973 0.15098
 C153 C 0.37855 0.16118 0.03451
 C154 C 0.36356 0.10712 -0.05352
 C155 C 0.34163 0.11133 -0.02781
 C156 C 0.33457 0.16661 0.08631
 C157 C 0.35155 0.37324 0.49956
 C158 C 0.36689 0.41570 0.58656
 C159 C 0.38881 0.40896 0.55971
 C160 C 0.39550 0.36322 0.44583
 C161 C 0.31970 0.26899 0.32201
 C162 C 0.30138 0.26492 0.35226
 C163 C 0.40894 0.29810 0.21462
 C164 C 0.42677 0.31974 0.19285
 H165 H 0.39544 0.15650 0.01047
 H166 H 0.36896 0.06295 -0.14214
 H167 H 0.33005 0.07037 -0.09668
 H168 H 0.31738 0.16630 0.10226
 H169 H 0.33473 0.37905 0.52489
 H170 H 0.36171 0.45263 0.67510
 H171 H 0.40067 0.44079 0.62761
 H172 H 0.41271 0.36090 0.42890
 C173 C -0.11097 0.77356 0.23862
 C174 C -0.11746 0.81845 0.35434
 C175 C -0.13966 0.81629 0.38190
 C176 C -0.15527 0.76760 0.29344
 C177 C -0.14842 0.71348 0.17709
 C178 C -0.12613 0.71425 0.14972
 C179 C -0.11952 0.65513 0.03307
 C180 C -0.13455 0.59879 -0.05437
 C181 C -0.15639 0.60081 -0.02789
 C182 C -0.16335 0.65779 0.08650
 C183 C -0.14570 0.86269 0.49849
 C184 C -0.13023 0.90604 0.58457
 C185 C -0.10855 0.90802 0.55783
 C186 C -0.10215 0.86540 0.44408
 C187 C -0.17806 0.76895 0.32349
 C188 C -0.19646 0.77065 0.35567
 C189 C -0.08924 0.79587 0.21196
 C190 C -0.07149 0.81824 0.19047
 H191 H -0.10271 0.65189 0.00842
 H192 H -0.12923 0.55490 -0.14312
 H193 H -0.16799 0.55775 -0.09632
 H194 H -0.18047 0.65637 0.10319
 H195 H -0.16233 0.86313 0.52428
 H196 H -0.13510 0.93569 0.67213
 H197 H -0.09662 0.94165 0.62541
 H198 H -0.08508 0.86778 0.42699
 C199 C 0.61809 0.76188 0.25999
 C200 C 0.62937 0.70119 0.30544
 C201 C 0.65230 0.70446 0.31018
 C202 C 0.66373 0.76834 0.26910
 C203 C 0.65252 0.82271 0.21702
 C204 C 0.62954 0.81891 0.21189
 C205 C 0.61855 0.87237 0.15807
 C206 C 0.62997 0.92714 0.10984
 C207 C 0.65248 0.93096 0.11495
 C208 C 0.66372 0.88036 0.16896
 C209 C 0.66327 0.64463 0.35809
 C210 C 0.65189 0.58454 0.40074
 C211 C 0.62942 0.58157 0.39614
 C212 C 0.61821 0.63830 0.34833
 C213 C 0.68671 0.78373 0.29043
 C214 C 0.70503 0.78986 0.32265
 C215 C 0.59469 0.76447 0.26219
 C216 C 0.57525 0.76249 0.26139
 H217 H 0.60107 0.87160 0.15186
 H218 H 0.62123 0.96730 0.06906
 H219 H 0.66125 0.97400 0.07762
 H220 H 0.68122 0.88503 0.17100
 H221 H 0.68074 0.64310 0.36305
 H222 H 0.66059 0.53977 0.43717
 H223 H 0.62065 0.53465 0.42930
 H224 H 0.60072 0.63298 0.34620
 C225 C 0.11851 1.26880 0.25745
 C226 C 0.12974 1.16075 0.20136
 C227 C 0.15273 1.15776 0.20085
 C228 C 0.16425 1.26287 0.25506
 C229 C 0.15301 1.37071 0.30709
 C230 C 0.13003 1.37372 0.30975
 C231 C 0.11910 1.48251 0.36796
 C232 C 0.13062 1.58516 0.42338
 C233 C 0.15315 1.58224 0.42019
 C234 C 0.16430 1.47659 0.36166
 C235 C 0.16369 1.04883 0.14827
 C236 C 0.15221 0.94565 0.09642
 C237 C 0.12969 0.94862 0.09580
 C238 C 0.11849 1.05459 0.14784
 C239 C 0.18696 1.26064 0.27944
 C240 C 0.20482 1.25951 0.31399
 C241 C 0.09512 1.27136 0.26218
 C242 C 0.07568 1.26902 0.26164
 H243 H 0.10159 1.48933 0.37328
 H244 H 0.12197 1.66697 0.47073
 H245 H 0.16212 1.66176 0.46495
 H246 H 0.18182 1.47875 0.36136
 H247 H 0.18121 1.04242 0.14533
 H248 H 0.16083 0.86312 0.05506
 H249 H 0.12079 0.86868 0.05364
 H250 H 0.10097 1.05215 0.14532
 C251 C 0.61951 0.23301 -0.24716
 C252 C 0.62877 0.29770 -0.29312
 C253 C 0.65159 0.30092 -0.30147
 C254 C 0.66494 0.23982 -0.26320
 C255 C 0.65572 0.18105 -0.21105
 C256 C 0.63284 0.17822 -0.20231
 C257 C 0.62385 0.12113 -0.14769
 C258 C 0.63717 0.06893 -0.10243
 C259 C 0.65958 0.07038 -0.11236
 C260 C 0.66886 0.12511 -0.16679
 C261 C 0.66054 0.36387 -0.35058
 C262 C 0.64728 0.42062 -0.39118
 C263 C 0.62491 0.41764 -0.38268
 C264 C 0.61567 0.35802 -0.33330
 C265 C 0.68784 0.23049 -0.28854
 C266 C 0.70584 0.22728 -0.32388
 C267 C 0.59624 0.22474 -0.24597
 C268 C 0.57680 0.22547 -0.24482
 H269 H 0.60650 0.11732 -0.13846
 H270 H 0.63004 0.02594 -0.06077
 H271 H 0.66982 0.02878 -0.07791
 H272 H 0.68636 0.12499 -0.17208
 H273 H 0.67784 0.37017 -0.35830
 H274 H 0.65442 0.46755 -0.42897
 H275 H 0.61467 0.46212 -0.41409
 H276 H 0.59817 0.35881 -0.32831
 C277 C 0.11916 0.72568 -0.25816
 C278 C 0.13100 0.61969 -0.31079
 C279 C 0.15399 0.62055 -0.30902
 C280 C 0.16491 0.72738 -0.25749
 C281 C 0.15306 0.83352 -0.20261
 C282 C 0.13007 0.83265 -0.20210
 C283 C 0.11850 0.93984 -0.14764
 C284 C 0.12937 1.04480 -0.09590
 C285 C 0.15189 1.04571 -0.09765
 C286 C 0.16369 0.94148 -0.15033
 C287 C 0.16559 0.51358 -0.36389
 C288 C 0.15474 0.40892 -0.42165
 C289 C 0.13222 0.40820 -0.42414
 C290 C 0.12039 0.51198 -0.36852
 C291 C 0.18763 0.72795 -0.28292
 C292 C 0.20547 0.72889 -0.31795
 C293 C 0.09578 0.72561 -0.26262
 C294 C 0.07633 0.73091 -0.26136
 H295 H 0.10097 0.94388 -0.14420
 H296 H 0.12023 1.12555 -0.05304
 H297 H 0.16027 1.12742 -0.05635
 H298 H 0.18118 0.94632 -0.14816
 H299 H 0.18312 0.50986 -0.36424
 H300 H 0.16392 0.32836 -0.46638
 H301 H 0.12380 0.32724 -0.47104
 H302 H 0.10290 0.50692 -0.37323
 C303 C 0.38955 0.73070 -0.24540
 C304 C 0.38330 0.68673 -0.36096
 C305 C 0.36095 0.68324 -0.38893
 C306 C 0.34494 0.72975 -0.30052
 C307 C 0.35144 0.78378 -0.18416
 C308 C 0.37381 0.78625 -0.15668
 C309 C 0.37994 0.84571 -0.03998
 C310 C 0.36443 0.89872 0.04739
 C311 C 0.34255 0.89220 0.02082
 C312 C 0.33604 0.83585 -0.09358
 C313 C 0.35517 0.63327 -0.50588
 C314 C 0.37097 0.59320 -0.59201
 C315 C 0.39280 0.60136 -0.56414
 C316 C 0.39898 0.64626 -0.45011
 C317 C 0.32209 0.72929 -0.32984
 C318 C 0.30357 0.73013 -0.35954
 C319 C 0.41158 0.70950 -0.21868
 C320 C 0.42947 0.68794 -0.19598
 H321 H 0.39677 0.85208 -0.01527
 H322 H 0.36939 0.94374 0.13617
 H323 H 0.33057 0.93223 0.08922
 H324 H 0.31886 0.83449 -0.11016
 H325 H 0.33843 0.62624 -0.53197
 H326 H 0.36621 0.55687 -0.68068
 H327 H 0.40501 0.57127 -0.63137
 H328 H 0.41614 0.64969 -0.43235
 C329 C -0.11383 1.22643 -0.21941
 C330 C -0.13081 1.17990 -0.18466
 C331 C -0.15258 1.18569 -0.21662
 C332 C -0.15741 1.24092 -0.28046
 C333 C -0.14064 1.29419 -0.30873
 C334 C -0.11879 1.28582 -0.27933
 C335 C -0.10232 1.33703 -0.31156
 C336 C -0.10725 1.39465 -0.37133
 C337 C -0.12858 1.40276 -0.39987
 C338 C -0.14516 1.35438 -0.36821
 C339 C -0.16912 1.13573 -0.18339
 C340 C -0.16444 1.08491 -0.11717
 C341 C -0.14329 1.08230 -0.08333
 C342 C -0.12655 1.12717 -0.11792
 C343 C -0.17937 1.23960 -0.32087
 C344 C -0.19718 1.23851 -0.35874
 C345 C -0.09135 1.20937 -0.19663
 C346 C -0.07292 1.19162 -0.17796
 H347 H -0.08550 1.33298 -0.29100
 H348 H -0.09446 1.43263 -0.39623
 H349 H -0.13232 1.44484 -0.44864
 H350 H -0.16148 1.36316 -0.39251
 H351 H -0.18587 1.13719 -0.20648
 H352 H -0.17732 1.04910 -0.09040
 H353 H -0.13983 1.04702 -0.02846
 H354 H -0.11036 1.12231 -0.08966
 C355 C 0.61437 0.72280 -0.21706
 C356 C 0.61795 0.77697 -0.28315
 C357 C 0.63949 0.79338 -0.30998
 C358 C 0.65739 0.75470 -0.27155
 C359 C 0.65386 0.70601 -0.20080
 C360 C 0.63234 0.69038 -0.17315
 C361 C 0.62936 0.64166 -0.10200
 C362 C 0.64707 0.61066 -0.05856
 C363 C 0.66804 0.62456 -0.08660
 C364 C 0.67149 0.67151 -0.15707
 C365 C 0.64260 0.84964 -0.37429
 C366 C 0.62499 0.88885 -0.41089
 C367 C 0.60397 0.87177 -0.38580
 C368 C 0.60040 0.81621 -0.32299
 C369 C 0.67935 0.76111 -0.30810
 C370 C 0.69734 0.76387 -0.34247
 C371 C 0.59233 0.69871 -0.19567
 C372 C 0.57417 0.67757 -0.17770
 H373 H 0.61337 0.62912 -0.07740
 H374 H 0.64457 0.57846 -0.00043
 H375 H 0.68169 0.60026 -0.05231
 H376 H 0.68811 0.68163 -0.17575
 H377 H 0.65864 0.86511 -0.39579
 H378 H 0.62767 0.93239 -0.45930
 H379 H 0.59037 0.90208 -0.41488
 H380 H 0.58377 0.80555 -0.30494
 C381 C 0.11162 1.23169 -0.23251
 C382 C 0.12699 1.28512 -0.14359
 C383 C 0.14940 1.28096 -0.17097
 C384 C 0.15624 1.22639 -0.28728
 C385 C 0.14066 1.17905 -0.37590
 C386 C 0.11825 1.18580 -0.34809
 C387 C 0.10291 1.14573 -0.43754
 C388 C 0.10957 1.09608 -0.55190
 C389 C 0.13153 1.08301 -0.57942
 C390 C 0.14695 1.12414 -0.49303
 C391 C 0.16448 1.33173 -0.08046
 C392 C 0.15755 1.38853 0.03393
 C393 C 0.13558 1.39683 0.06036
 C394 C 0.12042 1.34462 -0.02692
 C395 C 0.17891 1.22773 -0.31695
 C396 C 0.19709 1.23012 -0.34902
 C397 C 0.08963 1.21265 -0.20646
 C398 C 0.07172 1.19202 -0.18541
 H399 H 0.08568 1.15218 -0.41988
 H400 H 0.09767 1.06484 -0.61961
 H401 H 0.13673 1.04003 -0.66805
 H402 H 0.16381 1.11246 -0.51924
 H403 H 0.18170 1.32909 -0.09717
 H404 H 0.16924 1.42857 0.10237
 H405 H 0.13022 1.44501 0.14885
 H406 H 0.10350 1.35289 -0.00227
 C407 C 0.38256 0.23371 -0.27693
 C408 C 0.37236 0.18187 -0.38487
 C409 C 0.34946 0.17834 -0.39024
 C410 C 0.33703 0.22694 -0.28710
 C411 C 0.34724 0.28282 -0.17904
 C412 C 0.37017 0.28688 -0.17391
 C413 C 0.38019 0.34620 -0.06512
 C414 C 0.36782 0.40017 0.03570
 C415 C 0.34533 0.39501 0.03068
 C416 C 0.33505 0.33693 -0.07542
 C417 C 0.33953 0.12691 -0.49970
 C418 C 0.35193 0.08147 -0.60016
 C419 C 0.37439 0.08584 -0.59443
 C420 C 0.38457 0.13475 -0.48836
 C421 C 0.31380 0.22946 -0.29527
 C422 C 0.29522 0.23160 -0.31972
 C423 C 0.40584 0.23412 -0.27205
 C424 C 0.42519 0.23694 -0.26608
 H425 H 0.39762 0.35228 -0.05676
 H426 H 0.37577 0.44556 0.11798
 H427 H 0.33581 0.43655 0.10931
 H428 H 0.31753 0.33529 -0.07551
 H429 H 0.32214 0.12094 -0.50930
 H430 H 0.34405 0.04276 -0.68279
 H431 H 0.38401 0.05093 -0.67237
 H432 H 0.40210 0.13602 -0.48848
 C433 C -0.11874 0.73903 -0.25386
 C434 C -0.12879 0.68402 -0.36224
 C435 C -0.15169 0.67956 -0.36881
 C436 C -0.16438 0.73184 -0.26655
 C437 C -0.15432 0.78705 -0.15805
 C438 C -0.13135 0.79118 -0.15158
 C439 C -0.12156 0.84982 -0.04220
 C440 C -0.13417 0.90211 0.05792
 C441 C -0.15666 0.89711 0.05140
 C442 C -0.16672 0.84050 -0.05527
 C443 C -0.16140 0.62564 -0.47875
 C444 C -0.14884 0.58120 -0.57837
 C445 C -0.12640 0.58634 -0.57165
 C446 C -0.11639 0.63567 -0.46527
 C447 C -0.18751 0.74148 -0.27657
 C448 C -0.20576 0.74887 -0.30318
 C449 C -0.09542 0.74463 -0.24888
 C450 C -0.07603 0.74947 -0.24676
 H451 H -0.10414 0.85551 -0.03293
 H452 H -0.12643 0.94549 0.14084
 H453 H -0.16638 0.93660 0.12923
 H454 H -0.18424 0.83853 -0.05651
 H455 H -0.17878 0.61889 -0.48930
 H456 H -0.15661 0.54484 -0.66090
 H457 H -0.11666 0.55362 -0.64887
 H458 H -0.09888 0.63757 -0.46485
 C459 C 0.38072 0.77265 0.26373
 C460 C 0.37003 0.82286 0.37131
 C461 C 0.34713 0.82244 0.37579
 C462 C 0.33520 0.77094 0.27210
 C463 C 0.34594 0.71716 0.16444
 C464 C 0.36889 0.71692 0.16024
 C465 C 0.37951 0.65855 0.05191
 C466 C 0.36769 0.60281 -0.04941
 C467 C 0.34517 0.60478 -0.04531
 C468 C 0.33431 0.66125 0.06037
 C469 C 0.33671 0.87258 0.48496
 C470 C 0.34866 0.92005 0.58591
 C471 C 0.37114 0.91920 0.58098
 C472 C 0.38178 0.87191 0.47530
 C473 C 0.31212 0.76241 0.27960
 C474 C 0.29379 0.75664 0.30515
 C475 C 0.40397 0.77480 0.25998
 C476 C 0.42335 0.77284 0.25643
 H477 H 0.39699 0.65506 0.04430
 H478 H 0.37610 0.55852 -0.13137
 H479 H 0.33607 0.56189 -0.12430
 H480 H 0.31678 0.66018 0.05980
 H481 H 0.31927 0.87594 0.49399
 H482 H 0.34044 0.95764 0.66832
 H483 H 0.38043 0.95571 0.65928
 H484 H 0.39930 0.87358 0.47614
 C485 C -0.11925 1.26316 0.25014
 C486 C -0.13190 1.30746 0.19266
 C487 C -0.15481 1.29848 0.19136
 C488 C -0.16474 1.24590 0.24775
 C489 C -0.15199 1.19559 0.29947
 C490 C -0.12915 1.20472 0.30102
 C491 C -0.11670 1.15583 0.35511
 C492 C -0.12662 1.09977 0.40633
 C493 C -0.14899 1.08961 0.40382
 C494 C -0.16161 1.13702 0.35152
 C495 C -0.16727 1.34311 0.13391
 C496 C -0.15731 1.39520 0.07874
 C497 C -0.13488 1.40527 0.08095
 C498 C -0.12222 1.36171 0.13686
 C499 C -0.18788 1.25327 0.26563
 C500 C -0.20616 1.25607 0.29729
 C501 C -0.09599 1.27346 0.25446
 C502 C -0.07656 1.27442 0.25627
 H503 H -0.09923 1.16134 0.35961
 H504 H -0.11688 1.06597 0.44988
 H505 H -0.15667 1.04662 0.44431
 H506 H -0.17894 1.12643 0.35197
 H507 H -0.18475 1.33659 0.12975
 H508 H -0.16706 1.42627 0.03277
 H509 H -0.12719 1.44465 0.03705
 H510 H -0.10483 1.37037 0.13535
 C511 C 0.61131 0.27415 0.22930
 C512 C 0.62771 0.30997 0.18065
 C513 C 0.64992 0.29886 0.20217
 C514 C 0.65565 0.25121 0.27182
 C515 C 0.63930 0.20969 0.31558
 C516 C 0.61707 0.22178 0.29480
 C517 C 0.60107 0.18020 0.33988
 C518 C 0.60685 0.12615 0.40202
 C519 C 0.62857 0.11305 0.42115
 C520 C 0.64465 0.15499 0.37948
 C521 C 0.66593 0.33708 0.15383
 C522 C 0.66015 0.38418 0.08546
 C523 C 0.63846 0.39379 0.06368
 C524 C 0.62238 0.35810 0.11095
 C525 C 0.67818 0.24894 0.30263
 C526 C 0.69649 0.24804 0.33387
 C527 C 0.58866 0.29346 0.21253
 C528 C 0.57028 0.31300 0.19541
 H529 H 0.58399 0.18785 0.32645
 H530 H 0.59443 0.09391 0.43518
 H531 H 0.63299 0.07065 0.46901
 H532 H 0.66131 0.14281 0.39676
 H533 H 0.68302 0.33034 0.16780
 H534 H 0.67257 0.41189 0.04797
 H535 H 0.63391 0.42620 0.00753
 H536 H 0.60577 0.36722 0.09068
 C537 C 0.11114 0.76418 0.23262
 C538 C 0.11759 0.80915 0.34782
 C539 C 0.13996 0.81233 0.37429
 C540 C 0.15567 0.76243 0.28474
 C541 C 0.14901 0.70872 0.16882
 C542 C 0.12664 0.70806 0.14278
 C543 C 0.12024 0.64951 0.02651
 C544 C 0.13554 0.59489 -0.06168
 C545 C 0.15747 0.59975 -0.03656
 C546 C 0.16422 0.65551 0.07742
 C547 C 0.14606 0.86649 0.49104
 C548 C 0.13051 0.91006 0.57835
 C549 C 0.10860 0.90053 0.55217
 C550 C 0.10211 0.85195 0.43820
 C551 C 0.17833 0.75873 0.31317
 C552 C 0.19654 0.75546 0.34442
 C553 C 0.08922 0.78701 0.20790
 C554 C 0.07137 0.81065 0.18783
 H555 H 0.10336 0.64394 0.00289
 H556 H 0.13032 0.54759 -0.14986
 H557 H 0.16926 0.55784 -0.10569
 H558 H 0.18141 0.65538 0.09311
 H559 H 0.16288 0.87560 0.51625
 H560 H 0.13558 0.95235 0.66668
 H561 H 0.09660 0.93377 0.62060
 H562 H 0.08490 0.84838 0.42159
   
