data_POSCAR
  _audit_creation_date              2014-09-24
  _audit_creation_method            'ToBaCCo'
  _symmetry_space_group_name_H-M    'P1'
  _symmetry_Int_Tables_number       1
  _symmetry_cell_setting            triclinic
  loop_
  _symmetry_equiv_pos_as_xyz
 x,y,z
_cell_length_a 43.6333
_cell_length_b 25.7626
_cell_length_c 16.1817
_cell_angle_alpha 89.879300
_cell_angle_beta 89.664200
_cell_angle_gamma 91.261800
loop_
  _atom_site_label
  _atom_site_type_symbol
  _atom_site_fract_x
  _atom_site_fract_y
  _atom_site_fract_z
O1 O 0.79346 0.27324 0.42195
 O2 O 0.74005 0.31778 0.58220
 O3 O 0.79407 0.27286 0.58592
 O4 O 0.73997 0.31810 0.42950
 O5 O 0.71711 0.24026 0.42678
 O6 O 0.76836 0.19835 0.59129
 O7 O 0.71283 0.24518 0.56485
 O8 O 0.76972 0.19670 0.42100
 Cu9 Cu 0.77027 0.30249 0.50530
 Cu10 Cu 0.74197 0.21050 0.50431
 C11 C 0.79078 0.22726 0.39444
 C12 C 0.71471 0.29254 0.58654
 C13 C 0.79031 0.22755 0.61540
 C14 C 0.71737 0.28853 0.41054
 O15 O 0.22933 0.78064 0.58390
 O16 O 0.28379 0.74351 0.42236
 O17 O 0.23008 0.78550 0.42560
 O18 O 0.28252 0.73269 0.58171
 O19 O 0.25898 0.65629 0.57188
 O20 O 0.20756 0.70824 0.41518
 O21 O 0.26148 0.66590 0.41454
 O22 O 0.20623 0.70391 0.57627
 Cu23 Cu 0.25878 0.76821 0.50495
 Cu24 Cu 0.23109 0.67602 0.49380
 C25 C 0.20775 0.74967 0.60583
 C26 C 0.28238 0.69817 0.39198
 C27 C 0.20967 0.75570 0.39430
 C28 C 0.28036 0.68480 0.60098
 O29 O 0.29096 0.23916 -0.42630
 O30 O 0.23902 0.18129 -0.58121
 O31 O 0.29049 0.23655 -0.58625
 O32 O 0.23994 0.18238 -0.42356
 O33 O 0.21353 0.25432 -0.42375
 O34 O 0.26429 0.30886 -0.58579
 O35 O 0.21308 0.25372 -0.58397
 O36 O 0.26434 0.31099 -0.42780
 Cu37 Cu 0.26787 0.20275 -0.50418
 Cu38 Cu 0.23606 0.28904 -0.50537
 C39 C 0.28707 0.28558 -0.40255
 C40 C 0.21653 0.20712 -0.60735
 C41 C 0.28665 0.28259 -0.61186
 C42 C 0.21734 0.20825 -0.39790
 O43 O -0.24281 0.85090 -0.57470
 O44 O -0.29715 0.80899 -0.41167
 O45 O -0.24218 0.85225 -0.41640
 O46 O -0.29752 0.80626 -0.57291
 O47 O -0.27618 0.72944 -0.57117
 O48 O -0.22188 0.77459 -0.41283
 O49 O -0.27694 0.73137 -0.41218
 O50 O -0.22162 0.77392 -0.57246
 Cu51 Cu -0.27216 0.83724 -0.49413
 Cu52 Cu -0.24711 0.74459 -0.49190
 C53 C -0.22227 0.82026 -0.59936
 C54 C -0.29688 0.76249 -0.38530
 C55 C -0.22204 0.82164 -0.38964
 C56 C -0.29654 0.75956 -0.59783
 N57 N -0.02846 0.93493 0.14663
 N58 N -0.05335 0.92891 0.19246
 N59 N 0.03736 0.90748 0.09136
 N60 N 0.06197 0.87943 0.10278
 N61 N 0.03603 0.94464 0.14655
 N62 N 0.05973 0.94319 0.19658
 N63 N -0.02704 0.89816 0.09078
 N64 N -0.05076 0.86560 0.09806
 C65 C -0.06688 0.88533 0.16206
 C66 C 0.07571 0.90232 0.16865
 N67 N 0.03760 0.94319 -0.14266
 N68 N 0.06141 0.93984 -0.19292
 N69 N -0.02627 0.89750 -0.08781
 N70 N -0.05038 0.86575 -0.09372
 N71 N -0.02706 0.93373 -0.14496
 N72 N -0.05188 0.92807 -0.19034
 N73 N 0.03800 0.90628 -0.08662
 N74 N 0.06183 0.87632 -0.09793
 Mn75 Mn 0.00550 0.90162 0.00195
 C76 C 0.07627 0.89792 -0.16424
 C77 C -0.06603 0.88528 -0.15837
 N78 N 0.03161 1.05577 0.14454
 N79 N 0.05559 1.06467 0.19225
 N80 N -0.03469 1.08145 0.08804
 N81 N -0.05955 1.10911 0.09870
 N82 N -0.03295 1.04548 0.14525
 N83 N -0.05672 1.04714 0.19568
 N84 N 0.02944 1.09241 0.08850
 N85 N 0.05158 1.12765 0.09723
 Mn86 Mn 0.00164 0.99519 0.14675
 C87 C 0.06768 1.10977 0.16214
 C88 C -0.07309 1.08700 0.16609
 N89 N -0.03161 1.04453 -0.14691
 N90 N -0.05508 1.04597 -0.19785
 N91 N 0.03025 1.09176 -0.08900
 N92 N 0.05213 1.12745 -0.09861
 N93 N 0.03304 1.05468 -0.14391
 N94 N 0.05722 1.06373 -0.19165
 N95 N -0.03382 1.08075 -0.09039
 N96 N -0.05864 1.10822 -0.10192
 Mn97 Mn 0.00311 0.99401 -0.14571
 Mn98 Mn -0.00232 1.08721 -0.00074
 Cl99 Cl 0.00199 0.99450 0.00050
 C100 C -0.07171 1.08595 -0.16919
 C101 C 0.06877 1.10936 -0.16274
 N102 N 0.53558 0.45242 -0.15540
 N103 N 0.55737 0.45199 -0.21229
 N104 N 0.47537 0.40168 -0.09515
 N105 N 0.45367 0.36582 -0.10537
 N106 N 0.47145 0.44075 -0.14600
 N107 N 0.44689 0.43268 -0.19184
 N108 N 0.53954 0.41548 -0.10068
 N109 N 0.56429 0.38896 -0.11880
 C110 C 0.57495 0.41210 -0.18895
 C111 C 0.43610 0.38566 -0.16588
 N112 N 0.47424 0.42913 0.14049
 N113 N 0.44972 0.41914 0.18623
 N114 N 0.54127 0.40824 0.07913
 N115 N 0.56585 0.37978 0.08916
 N116 N 0.53818 0.44029 0.14145
 N117 N 0.56013 0.43418 0.19599
 N118 N 0.47690 0.39444 0.08170
 N119 N 0.45429 0.35956 0.08635
 Mn120 Mn 0.50855 0.40429 -0.00884
 C121 C 0.43763 0.37547 0.15209
 C122 C 0.57719 0.39645 0.16265
 N123 N 0.46614 0.55229 -0.13446
 N124 N 0.44232 0.55830 -0.18329
 N125 N 0.53056 0.59642 -0.08104
 N126 N 0.55448 0.62870 -0.08708
 N127 N 0.53069 0.56260 -0.14177
 N128 N 0.55493 0.57024 -0.18951
 N129 N 0.46629 0.58724 -0.07555
 N130 N 0.44276 0.61819 -0.08296
 Mn131 Mn 0.50076 0.50211 -0.14533
 C132 C 0.42791 0.59950 -0.15016
 C133 C 0.56934 0.61181 -0.15542
 N134 N 0.53332 0.55056 0.15126
 N135 N 0.55729 0.55634 0.19971
 N136 N 0.46754 0.57932 0.10110
 N137 N 0.44191 0.60478 0.11286
 N138 N 0.46893 0.53994 0.15242
 N139 N 0.44439 0.53742 0.20023
 N140 N 0.53204 0.58909 0.09823
 N141 N 0.55493 0.62270 0.11028
 Mn142 Mn 0.50354 0.49003 0.14721
 Mn143 Mn 0.49924 0.58878 0.01079
 Cl144 Cl 0.50311 0.49624 0.00086
 C145 C 0.57048 0.60154 0.17393
 C146 C 0.42778 0.57819 0.17520
 C147 C 0.31252 0.36181 0.32985
 C148 C 0.30977 0.30735 0.33290
 C149 C 0.33147 0.27735 0.29109
 C150 C 0.35653 0.30143 0.25049
 C151 C 0.36000 0.35612 0.25241
 C152 C 0.33750 0.38598 0.29032
 C153 C 0.38636 0.37996 0.21862
 C154 C 0.40908 0.35005 0.18146
 C155 C 0.40477 0.29608 0.17549
 C156 C 0.37878 0.27182 0.21049
 H157 H 0.32946 0.23534 0.29262
 H158 H 0.33969 0.42797 0.29156
 H159 H 0.38940 0.42178 0.22199
 H160 H 0.37638 0.22991 0.20772
 H161 H 0.29619 0.38580 0.36176
 H162 H 0.42205 0.27253 0.14653
 C163 C -0.19233 0.89378 0.33714
 C164 C -0.19762 0.83995 0.34498
 C165 C -0.17724 0.80569 0.30676
 C166 C -0.15109 0.82500 0.26482
 C167 C -0.14520 0.87914 0.26170
 C168 C -0.16629 0.91320 0.29620
 C169 C -0.11788 0.89834 0.22629
 C170 C -0.09648 0.86435 0.19266
 C171 C -0.10313 0.81083 0.19173
 C172 C -0.13016 0.79119 0.22826
 H173 H -0.18118 0.76411 0.31193
 H174 H -0.16222 0.95483 0.29356
 H175 H -0.11305 0.93976 0.22568
 H176 H -0.13440 0.74960 0.22937
 H177 H -0.20759 0.92102 0.36607
 H178 H -0.08690 0.78413 0.16556
 C179 C 0.66043 0.77215 0.30186
 C180 C 0.67977 0.73886 0.34525
 C181 C 0.67489 0.68492 0.33920
 C182 C 0.65025 0.66443 0.29379
 C183 C 0.63062 0.69809 0.25108
 C184 C 0.63625 0.75190 0.25441
 C185 C 0.60516 0.67735 0.20844
 C186 C 0.59866 0.62369 0.21082
 C187 C 0.61855 0.59072 0.25274
 C188 C 0.64430 0.61082 0.29308
 H189 H 0.68941 0.65879 0.37304
 H190 H 0.62146 0.77836 0.22225
 H191 H 0.58976 0.70301 0.17666
 H192 H 0.65911 0.58452 0.32556
 H193 H 0.66375 0.81386 0.30556
 H194 H 0.61406 0.54921 0.25479
 C195 C 0.19432 1.12903 0.32928
 C196 C 0.19439 1.18318 0.34184
 C197 C 0.17028 1.21206 0.30869
 C198 C 0.14583 1.18712 0.26789
 C199 C 0.14504 1.13241 0.26107
 C200 C 0.16971 1.10387 0.29025
 C201 C 0.11937 1.10720 0.22636
 C202 C 0.09502 1.13619 0.19590
 C203 C 0.09669 1.19057 0.19886
 C204 C 0.12174 1.21589 0.23557
 H205 H 0.17006 1.25387 0.31620
 H206 H 0.16968 1.06197 0.28440
 H207 H 0.11833 1.06516 0.22279
 H208 H 0.12211 1.25788 0.23950
 H209 H 0.21253 1.10551 0.35333
 H210 H 0.07813 1.21342 0.17516
 C211 C 0.66113 0.30983 -0.44802
 C212 C 0.68796 0.31938 -0.39865
 C213 C 0.68769 0.35619 -0.33500
 C214 C 0.65991 0.37403 -0.30429
 C215 C 0.63215 0.35741 -0.34115
 C216 C 0.63290 0.32582 -0.41204
 C217 C 0.60411 0.37072 -0.30395
 C218 C 0.60389 0.39933 -0.23004
 C219 C 0.63156 0.41661 -0.19532
 C220 C 0.65940 0.40448 -0.23254
 H221 H 0.70875 0.36605 -0.30268
 H222 H 0.61150 0.31099 -0.43687
 H223 H 0.58259 0.35776 -0.33093
 H224 H 0.68055 0.41735 -0.20355
 H225 H 0.66079 0.27237 -0.50334
 H226 H 0.63158 0.43924 -0.13895
 C227 C 0.16221 0.73277 -0.30793
 C228 C 0.18470 0.76724 -0.34060
 C229 C 0.18224 0.82079 -0.32428
 C230 C 0.15687 0.83979 -0.28122
 C231 C 0.13448 0.80476 -0.24886
 C232 C 0.13768 0.75129 -0.26123
 C233 C 0.10873 0.82398 -0.20737
 C234 C 0.10439 0.87774 -0.20188
 C235 C 0.12655 0.91223 -0.23506
 C236 C 0.15288 0.89344 -0.27310
 H237 H 0.19902 0.84828 -0.34949
 H238 H 0.12066 0.72388 -0.23715
 H239 H 0.09143 0.79727 -0.18270
 H240 H 0.16970 0.92086 -0.29812
 H241 H 0.16338 0.69139 -0.31891
 H242 H 0.12354 0.95379 -0.23111
 C243 C 0.30840 0.60686 -0.35226
 C244 C 0.30407 0.66074 -0.34734
 C245 C 0.32425 0.69120 -0.29925
 C246 C 0.34895 0.66828 -0.25862
 C247 C 0.35384 0.61445 -0.26744
 C248 C 0.33314 0.58399 -0.31317
 C249 C 0.37962 0.59211 -0.23152
 C250 C 0.40020 0.62260 -0.18505
 C251 C 0.39450 0.67555 -0.17351
 C252 C 0.36925 0.69835 -0.21068
 H253 H 0.32107 0.73272 -0.29471
 H254 H 0.33638 0.54263 -0.32001
 H255 H 0.38368 0.55105 -0.23967
 H256 H 0.36578 0.73956 -0.20262
 H257 H 0.29333 0.58250 -0.38928
 H258 H 0.41009 0.69965 -0.13762
 C259 C -0.17083 1.24073 -0.27304
 C260 C -0.18694 1.20725 -0.32656
 C261 C -0.17863 1.15501 -0.33195
 C262 C -0.15338 1.13700 -0.28797
 C263 C -0.13708 1.17102 -0.23467
 C264 C -0.14642 1.22253 -0.22632
 C265 C -0.11103 1.15351 -0.19332
 C266 C -0.10040 1.10316 -0.20732
 C267 C -0.11679 1.06973 -0.26032
 C268 C -0.14330 1.08623 -0.29941
 H269 H -0.19056 1.12922 -0.37445
 H270 H -0.13414 1.24921 -0.18603
 H271 H -0.09835 1.17968 -0.15305
 H272 H -0.15541 1.05976 -0.34040
 H273 H -0.17683 1.28121 -0.26850
 H274 H -0.10898 1.03083 -0.27194
 C275 C 0.65904 0.77888 -0.29518
 C276 C 0.68043 0.74462 -0.32936
 C277 C 0.67720 0.69120 -0.31162
 C278 C 0.65190 0.67197 -0.26637
 C279 C 0.63024 0.70663 -0.23389
 C280 C 0.63446 0.76012 -0.24698
 C281 C 0.60402 0.68698 -0.19245
 C282 C 0.59863 0.63317 -0.18719
 C283 C 0.62042 0.59913 -0.21885
 C284 C 0.64711 0.61834 -0.25684
 H285 H 0.69326 0.66394 -0.33730
 H286 H 0.61812 0.78730 -0.22262
 H287 H 0.58701 0.71328 -0.16890
 H288 H 0.66342 0.59120 -0.28155
 H289 H 0.66091 0.82026 -0.30681
 H290 H 0.61660 0.55748 -0.21497
 C291 C 0.19610 1.13085 -0.32930
 C292 C 0.19544 1.18468 -0.34508
 C293 C 0.17080 1.21320 -0.31349
 C294 C 0.14650 1.18804 -0.27137
 C295 C 0.14645 1.13350 -0.26152
 C296 C 0.17168 1.10548 -0.28886
 C297 C 0.12094 1.10787 -0.22580
 C298 C 0.09598 1.13632 -0.19730
 C299 C 0.09688 1.19066 -0.20313
 C300 C 0.12179 1.21635 -0.24087
 H301 H 0.17001 1.25479 -0.32350
 H302 H 0.17223 1.06375 -0.28064
 H303 H 0.12048 1.06590 -0.22000
 H304 H 0.12156 1.25822 -0.24710
 H305 H 0.21474 1.10760 -0.35199
 H306 H 0.07782 1.21311 -0.18094
 C307 C 0.31229 0.36623 -0.34782
 C308 C 0.31037 0.31167 -0.35014
 C309 C 0.33275 0.28283 -0.30944
 C310 C 0.35740 0.30815 -0.26982
 C311 C 0.35988 0.36298 -0.27161
 C312 C 0.33689 0.39165 -0.30928
 C313 C 0.38560 0.38816 -0.23715
 C314 C 0.40857 0.35929 -0.19933
 C315 C 0.40531 0.30502 -0.19464
 C316 C 0.38005 0.27958 -0.23025
 H317 H 0.33144 0.24076 -0.31046
 H318 H 0.33829 0.43370 -0.31060
 H319 H 0.38778 0.43014 -0.23987
 H320 H 0.37843 0.23757 -0.22772
 H321 H 0.29545 0.38938 -0.37901
 H322 H 0.42273 0.28214 -0.16535
 C323 C -0.19086 0.89558 -0.33307
 C324 C -0.19722 0.84188 -0.33597
 C325 C -0.17761 0.80774 -0.29502
 C326 C -0.15114 0.82683 -0.25535
 C327 C -0.14415 0.88066 -0.25716
 C328 C -0.16450 0.91479 -0.29430
 C329 C -0.11649 0.89934 -0.22387
 C330 C -0.09589 0.86516 -0.18753
 C331 C -0.10363 0.81213 -0.18192
 C332 C -0.13098 0.79298 -0.21626
 H333 H -0.18237 0.76628 -0.29638
 H334 H -0.15958 0.95621 -0.29545
 H335 H -0.11084 0.94046 -0.22691
 H336 H -0.13608 0.75166 -0.21363
 H337 H -0.20552 0.92269 -0.36424
 H338 H -0.08804 0.78532 -0.15358
 C339 C 0.32234 0.71906 0.28507
 C340 C 0.30652 0.68206 0.33400
 C341 C 0.31622 0.63047 0.33444
 C342 C 0.34256 0.61659 0.29044
 C343 C 0.35870 0.65427 0.24239
 C344 C 0.34797 0.70511 0.23865
 C345 C 0.38595 0.64099 0.20181
 C346 C 0.39781 0.59112 0.21127
 C347 C 0.38143 0.55385 0.25837
 C348 C 0.35385 0.56627 0.29683
 H349 H 0.30442 0.60190 0.37314
 H350 H 0.36003 0.73451 0.20228
 H351 H 0.39856 0.67001 0.16592
 H352 H 0.34183 0.53695 0.33350
 H353 H 0.31521 0.75907 0.28407
 H354 H 0.39010 0.51510 0.26610
 C355 C -0.16993 1.24257 0.28307
 C356 C -0.18647 1.20807 0.33483
 C357 C -0.17902 1.15535 0.33569
 C358 C -0.15421 1.13769 0.28908
 C359 C -0.13740 1.17269 0.23776
 C360 C -0.14587 1.22486 0.23390
 C361 C -0.11165 1.15537 0.19415
 C362 C -0.10186 1.10418 0.20424
 C363 C -0.11887 1.06976 0.25494
 C364 C -0.14508 1.08612 0.29606
 H365 H -0.19134 1.12863 0.37649
 H366 H -0.13322 1.25228 0.19515
 H367 H -0.09843 1.18225 0.15571
 H368 H -0.15763 1.05887 0.33539
 H369 H -0.17533 1.28340 0.28168
 H370 H -0.11167 1.03020 0.26351
 C371 C 0.66185 0.30739 0.43622
 C372 C 0.68891 0.31205 0.38518
 C373 C 0.68870 0.33697 0.30848
 C374 C 0.66127 0.35255 0.27390
 C375 C 0.63364 0.34561 0.31860
 C376 C 0.63398 0.32247 0.39765
 C377 C 0.60592 0.35989 0.28162
 C378 C 0.60571 0.37883 0.19997
 C379 C 0.63323 0.38437 0.15580
 C380 C 0.66091 0.37208 0.19290
 H381 H 0.70981 0.34064 0.27292
 H382 H 0.61229 0.31293 0.42709
 H383 H 0.58451 0.35562 0.31555
 H384 H 0.68199 0.37700 0.15774
 H385 H 0.63336 0.39947 0.09325
 C386 C 0.17094 0.74377 0.28226
 C387 C 0.18714 0.77687 0.33627
 C388 C 0.17979 0.82963 0.33973
 C389 C 0.15545 0.84859 0.29307
 C390 C 0.13894 0.81481 0.23983
 C391 C 0.14728 0.76271 0.23367
 C392 C 0.11366 0.83321 0.19619
 C393 C 0.10407 0.88439 0.20746
 C394 C 0.12087 0.91783 0.25955
 C395 C 0.14655 0.90026 0.30135
 H396 H 0.19191 0.85533 0.38198
 H397 H 0.13488 0.73626 0.19326
 H398 H 0.10069 0.80711 0.15644
 H399 H 0.15893 0.92668 0.34187
 H400 H 0.17628 0.70298 0.27855
 H401 H 0.11397 0.95757 0.26856
   
