data_POSCAR
  _audit_creation_date              2014-09-24
  _audit_creation_method            'ToBaCCo'
  _symmetry_space_group_name_H-M    'P1'
  _symmetry_Int_Tables_number       1
  _symmetry_cell_setting            triclinic
  loop_
  _symmetry_equiv_pos_as_xyz
 x,y,z
_cell_length_a 26.4059
_cell_length_b 26.8659
_cell_length_c 37.2763
_cell_angle_alpha 90.810000
_cell_angle_beta 89.701300
_cell_angle_gamma 120.907900
loop_
  _atom_site_label
  _atom_site_type_symbol
  _atom_site_fract_x
  _atom_site_fract_y
  _atom_site_fract_z
C1 C 0.05248 0.50285 1.33089
 C2 C -0.00148 0.47610 1.34937
 C3 C -0.05583 0.44035 1.33210
 C4 C -0.05636 0.43116 1.29446
 C5 C -0.00242 0.45770 1.27509
 C6 C 0.05210 0.49322 1.29334
 C7 C 0.10496 0.51598 1.27368
 C8 C 0.10438 0.50747 1.23689
 C9 C 0.05102 0.47561 1.21804
 C10 C -0.00300 0.44971 1.23715
 C11 C -0.10963 0.39940 1.27522
 C12 C -0.11022 0.39310 1.23819
 C13 C -0.05753 0.41754 1.21832
 C14 C -0.05770 0.41462 1.18011
 C15 C -0.00319 0.44122 1.16205
 C16 C 0.05053 0.47057 1.18038
 H17 H 0.14780 0.54022 1.28632
 H18 H 0.14650 0.52711 1.22329
 H19 H -0.15212 0.38082 1.28814
 H20 H -0.15314 0.36999 1.22563
 H21 H -0.00117 0.48336 1.37798
 H22 H -0.00194 0.43711 1.13312
 C23 C 0.48497 0.53427 1.32684
 C24 C 0.50707 0.50365 1.34453
 C25 C 0.52855 0.47196 1.32613
 C26 C 0.53085 0.47454 1.28781
 C27 C 0.50657 0.50369 1.26934
 C28 C 0.48207 0.53204 1.28894
 C29 C 0.45451 0.55676 1.27011
 C30 C 0.45164 0.55452 1.23279
 C31 C 0.47817 0.52944 1.21265
 C32 C 0.50738 0.50521 1.23106
 C33 C 0.55908 0.45125 1.26735
 C34 C 0.56294 0.45589 1.23008
 C35 C 0.53758 0.48279 1.21131
 C36 C 0.54096 0.48722 1.17333
 C37 C 0.51023 0.50978 1.15576
 C38 C 0.47748 0.52928 1.17462
 H39 H 0.43370 0.57713 1.28407
 H40 H 0.42984 0.57430 1.21984
 H41 H 0.58063 0.43093 1.27980
 H42 H 0.58537 0.43719 1.21611
 H43 H 0.50577 0.50389 1.37339
 H44 H 0.51148 0.51197 1.12677
 C45 C 0.45780 0.94809 1.31738
 C46 C 0.49964 0.99869 1.33585
 C47 C 0.53654 1.05161 1.31850
 C48 C 0.53266 1.05333 1.28054
 C49 C 0.49108 1.00263 1.26116
 C50 C 0.45337 0.95016 1.27959
 C51 C 0.41471 0.90018 1.25935
 C52 C 0.41117 0.90190 1.22237
 C53 C 0.44613 0.95354 1.20378
 C54 C 0.48693 1.00440 1.22311
 C55 C 0.56652 1.10517 1.26149
 C56 C 0.56206 1.10689 1.22453
 C57 C 0.52368 1.05686 1.20444
 C58 C 0.51860 1.05841 1.16653
 C59 C 0.47762 1.00718 1.14840
 C60 C 0.44270 0.95505 1.16616
 H61 H 0.38740 0.85835 1.27144
 H62 H 0.38079 0.86183 1.20854
 H63 H 0.59615 1.14597 1.27467
 H64 H 0.58839 1.14877 1.21228
 H65 H 0.50309 0.99698 1.36463
 H66 H 0.47476 1.00621 1.11941
 C67 C 0.95170 0.50093 0.67376
 C68 C 1.00528 0.52181 0.65563
 C69 C 1.05926 0.54257 0.67385
 C70 C 1.05895 0.54308 0.71218
 C71 C 1.00490 0.52286 0.73105
 C72 C 0.95121 0.50138 0.71172
 C73 C 0.89808 0.47951 0.73084
 C74 C 0.89739 0.47924 0.76817
 C75 C 0.94991 0.50173 0.78802
 C76 C 1.00442 0.52406 0.76940
 C77 C 1.11139 0.56554 0.73234
 C78 C 1.11098 0.56691 0.76966
 C79 C 1.05828 0.54706 0.78901
 C80 C 1.05744 0.54767 0.82729
 C81 C 1.00279 0.52566 0.84456
 C82 C 0.94935 0.50168 0.82597
 H83 H 0.85615 0.46152 0.71711
 H84 H 0.85499 0.46093 0.78128
 H85 H 1.15406 0.58341 0.71977
 H86 H 1.15297 0.58332 0.78292
 H87 H 1.00392 0.51955 0.62659
 H88 H 1.00150 0.53054 0.87336
 C89 C 0.53921 0.49466 0.67711
 C90 C 0.50685 0.51530 0.65965
 C91 C 0.47100 0.53064 0.67892
 C92 C 0.47039 0.52890 0.71666
 C93 C 0.49992 0.50470 0.73432
 C94 C 0.53292 0.48582 0.71441
 C95 C 0.55737 0.45719 0.73218
 C96 C 0.54916 0.44714 0.76882
 C97 C 0.51914 0.46831 0.78924
 C98 C 0.49633 0.49927 0.77202
 C99 C 0.44204 0.55174 0.73722
 C100 C 0.44352 0.55143 0.77450
 C101 C 0.47044 0.52529 0.79241
 C102 C 0.47146 0.52374 0.83016
 C103 C 0.49079 0.48994 0.84676
 C104 C 0.51283 0.46084 0.82660
 H105 H 0.58167 0.44085 0.71778
 H106 H 0.56813 0.42415 0.78115
 H107 H 0.42005 0.57169 0.72470
 H108 H 0.42180 0.57033 0.78911
 H109 H 0.50910 0.51880 0.63067
 H110 H 0.48990 0.48714 0.87576
 C111 C 0.48296 -0.05711 0.82255
 C112 C 0.49610 -0.00638 0.84202
 C113 C 0.50920 0.04513 0.82518
 C114 C 0.50916 0.04706 0.78734
 C115 C 0.49756 -0.00264 0.76679
 C116 C 0.48506 -0.05467 0.78427
 C117 C 0.47184 -0.10351 0.76275
 C118 C 0.47269 -0.10107 0.72549
 C119 C 0.48609 -0.05000 0.70778
 C120 C 0.49782 -0.00040 0.72855
 C121 C 0.52180 0.09799 0.76951
 C122 C 0.52196 0.10009 0.73224
 C123 C 0.50957 0.05138 0.71118
 C124 C 0.50990 0.05333 0.67321
 C125 C 0.49803 0.00372 0.65350
 C126 C 0.48626 -0.04771 0.66984
 H127 H 0.45947 -0.14497 0.77405
 H128 H 0.46147 -0.14040 0.71076
 H129 H 0.53207 0.13710 0.78421
 H130 H 0.53245 0.14065 0.72015
 H131 H 0.49778 -0.00589 0.87106
 H132 H 0.49825 0.00533 0.62450
 O133 O 0.40238 0.64417 0.96221
 O134 O 0.39564 0.73581 0.94799
 C135 C 0.36921 0.76374 0.94601
 O136 O 0.33049 0.75724 0.96840
 O137 O 0.23487 0.65369 0.96621
 C138 C 0.20853 0.59848 0.96534
 O139 O 0.21932 0.56884 0.98732
 O140 O 0.31446 0.56544 0.97371
 C141 C 0.36260 0.59135 0.95672
 O142 O 0.42836 0.67980 1.03108
 O143 O 0.42037 0.77094 1.01802
 C144 C 0.38870 0.78112 1.03951
 O145 O 0.33236 0.75289 1.03920
 O146 O 0.22869 0.65533 1.03761
 C147 C 0.22556 0.61901 1.05988
 O148 O 0.25671 0.59610 1.05704
 O149 O 0.35050 0.59208 1.04237
 C150 C 0.40348 0.63256 1.04810
 Cr151 Cr 0.40845 0.70602 0.99029
 Cr152 Cr 0.28323 0.70320 1.00286
 Cr153 Cr 0.28672 0.58378 1.01462
 O154 O 0.32659 0.66406 1.00254
 O155 O 0.60974 0.34832 0.94474
 O156 O 0.59514 0.24597 0.95507
 C157 C 0.63375 0.23267 0.94749
 O158 O 0.68251 0.25392 0.96386
 O159 O 0.77905 0.34995 0.98129
 C160 C 0.79134 0.39342 0.96164
 O161 O 0.76717 0.42391 0.96526
 O162 O 0.67300 0.43310 0.96950
 C163 C 0.63733 0.40306 0.94495
 O164 O 0.58190 0.35417 1.01457
 O165 O 0.57015 0.25272 1.02421
 C166 C 0.59371 0.22769 1.03938
 O167 O 0.64563 0.23820 1.03270
 O168 O 0.74200 0.33275 1.05099
 C169 C 0.77434 0.38667 1.05611
 O170 O 0.77139 0.42289 1.03652
 O171 O 0.66872 0.41868 1.04014
 C172 C 0.61241 0.39227 1.03863
 Cr173 Cr 0.59235 0.30181 0.98514
 Cr174 Cr 0.71089 0.29540 1.00689
 Cr175 Cr 0.71841 0.42151 1.00279
 O176 O 0.67353 0.33882 0.99842
 O177 O 0.65538 0.40045 0.55322
 O178 O 0.75624 0.40756 0.54163
 C179 C 0.76854 0.36913 0.54958
 O180 O 0.74585 0.32018 0.53375
 O181 O 0.64533 0.22571 0.51918
 C182 C 0.60230 0.21538 0.53972
 O183 O 0.57274 0.24080 0.53727
 O184 O 0.56716 0.33566 0.53235
 C185 C 0.59974 0.37400 0.55487
 O186 O 0.64823 0.42130 0.48289
 O187 O 0.74937 0.42756 0.47177
 C188 C 0.77200 0.40099 0.45665
 O189 O 0.75838 0.34962 0.46419
 O190 O 0.65889 0.25536 0.44892
 C191 C 0.60346 0.22614 0.44536
 O192 O 0.56949 0.23275 0.46598
 O193 O 0.57703 0.33465 0.46129
 C194 C 0.60636 0.39012 0.46095
 Cr195 Cr 0.70063 0.41096 0.51190
 Cr196 Cr 0.70048 0.28937 0.49188
 Cr197 Cr 0.57494 0.28759 0.49924
 O198 O 0.65934 0.32964 0.50091
 O199 O 0.35322 0.61641 0.55521
 O200 O 0.25094 0.60437 0.54222
 C201 C 0.23596 0.64215 0.54591
 O202 O 0.25654 0.68717 0.52691
 O203 O 0.35649 0.78057 0.51070
 C204 C 0.39976 0.79420 0.53191
 O205 O 0.43092 0.77027 0.53107
 O206 O 0.43989 0.67719 0.53175
 C207 C 0.40882 0.64385 0.55629
 O208 O 0.35832 0.58288 0.48631
 O209 O 0.25532 0.57167 0.47453
 C210 C 0.23167 0.59393 0.45638
 O211 O 0.24530 0.64665 0.45928
 O212 O 0.34347 0.74036 0.44176
 C213 C 0.39877 0.76977 0.43802
 O214 O 0.43333 0.76747 0.45996
 O215 O 0.42703 0.66640 0.46096
 C216 C 0.39787 0.61106 0.46266
 Cr217 Cr 0.30617 0.59697 0.51393
 Cr218 Cr 0.30225 0.71227 0.48517
 Cr219 Cr 0.42950 0.71867 0.49599
 O220 O 0.34515 0.67557 0.49822
 C221 C 0.46890 0.57123 0.34872
 C222 C 0.44364 0.55528 0.38110
 C223 C 0.43537 0.59479 0.40509
 C224 C 0.40994 0.57609 0.43712
 H225 H 0.42942 0.51212 0.39062
 H226 H 0.44985 0.63858 0.39670
 H227 H 0.48057 0.61346 0.33868
 H228 H 0.39415 0.53151 0.44439
 C229 C 0.42057 0.89713 0.33702
 C230 C 0.43923 0.88282 0.36624
 C231 C 0.40117 0.83044 0.38730
 C232 C 0.42747 0.81150 0.40901
 H233 H 0.48519 0.90883 0.37420
 H234 H 0.35360 0.81050 0.38685
 H235 H 0.37644 0.86664 0.32752
 H236 H 0.47525 0.83259 0.40811
 C237 C 0.10504 0.54048 0.34996
 C238 C 0.11336 0.53179 0.38416
 C239 C 0.16663 0.57313 0.40422
 C240 C 0.18366 0.55473 0.43214
 H241 H 0.08164 0.49223 0.39753
 H242 H 0.19104 0.61837 0.39665
 H243 H 0.14119 0.57691 0.33647
 H244 H 0.16079 0.50874 0.43789
 C245 C 0.54444 0.43675 0.34590
 C246 C 0.55904 0.44525 0.38100
 C247 C 0.56973 0.40570 0.40272
 C248 C 0.59095 0.42250 0.43609
 H249 H 0.56595 0.48401 0.39465
 H250 H 0.56120 0.36452 0.39175
 H251 H 0.54453 0.40078 0.33258
 H252 H 0.60171 0.46529 0.44542
 C253 C 0.57583 0.10145 0.33929
 C254 C 0.56230 0.11083 0.37242
 C255 C 0.60003 0.16430 0.39348
 C256 C 0.57389 0.17945 0.41845
 H257 H 0.51929 0.08081 0.38350
 H258 H 0.64726 0.18971 0.38917
 H259 H 0.61626 0.13566 0.32778
 H260 H 0.52614 0.15370 0.42066
 C261 C 0.89206 0.41297 0.35289
 C262 C 0.88444 0.43723 0.38252
 C263 C 0.83264 0.40481 0.40557
 C264 C 0.81819 0.43245 0.42984
 H265 H 0.91618 0.48181 0.38991
 H266 H 0.80735 0.35785 0.40348
 H267 H 0.85589 0.37090 0.34453
 H268 H 0.84171 0.47948 0.43055
 C269 C 0.57827 0.47126 1.15146
 C270 C 0.56145 0.44608 1.11896
 C271 C 0.60005 0.43484 1.09558
 C272 C 0.57887 0.40643 1.06437
 H273 H 0.51784 0.43343 1.10911
 H274 H 0.64499 0.44955 1.10369
 H275 H 0.62082 0.48157 1.16193
 H276 H 0.53317 0.39075 1.05753
 C277 C 0.88943 0.38639 1.15976
 C278 C 0.88485 0.40612 1.12788
 C279 C 0.82986 0.37822 1.10679
 C280 C 0.82085 0.41027 1.08358
 H281 H 0.92136 0.44633 1.11776
 H282 H 0.79862 0.33214 1.10920
 H283 H 0.84985 0.35015 1.17071
 H284 H 0.85200 0.45667 1.08292
 C285 C 0.55563 0.10838 1.14619
 C286 C 0.53875 0.11887 1.11475
 C287 C 0.57915 0.16722 1.09185
 C288 C 0.55699 0.18271 1.06511
 H289 H 0.49347 0.09219 1.10569
 H290 H 0.62638 0.18932 1.09640
 H291 H 0.59912 0.14004 1.15605
 H292 H 0.50951 0.16222 1.06223
 C293 C 0.43972 0.54521 1.15390
 C294 C 0.45837 0.57659 1.12391
 C295 C 0.41821 0.58533 1.10079
 C296 C 0.44008 0.62463 1.07466
 H297 H 0.50399 0.59525 1.11573
 H298 H 0.37091 0.55875 1.10459
 H299 H 0.39497 0.52915 1.16302
 H300 H 0.48756 0.65255 1.07238
 C301 C 0.10559 0.49604 1.15918
 C302 C 0.11692 0.53577 1.13442
 C303 C 0.16923 0.55870 1.11124
 C304 C 0.18107 0.60111 1.08836
 H305 H 0.08602 0.55053 1.13062
 H306 H 0.19594 0.53870 1.11145
 H307 H 0.13711 0.48259 1.16444
 H308 H 0.15387 0.62061 1.08866
 C309 C 0.40548 0.90240 1.14401
 C310 C 0.42898 0.88978 1.11611
 C311 C 0.39374 0.84008 1.09208
 C312 C 0.42033 0.82922 1.06515
 H313 H 0.47578 0.91738 1.11066
 H314 H 0.34656 0.81293 1.09621
 H315 H 0.35936 0.87411 1.15067
 H316 H 0.46776 0.85635 1.06196
 C317 C 0.57856 0.48182 0.65579
 C318 C 0.55768 0.44589 0.62769
 C319 C 0.59507 0.43162 0.60582
 C320 C 0.56890 0.38819 0.58214
 H321 H 0.51125 0.42584 0.62088
 H322 H 0.64274 0.45723 0.60808
 H323 H 0.62387 0.49962 0.66440
 H324 H 0.52101 0.36320 0.58098
 C325 C 0.52133 0.10556 0.65273
 C326 C 0.55314 0.11984 0.62248
 C327 C 0.55913 0.16462 0.59740
 C328 C 0.58750 0.17032 0.56650
 H329 H 0.57481 0.09610 0.61520
 H330 H 0.54167 0.19233 0.60403
 H331 H 0.50137 0.13024 0.66139
 H332 H 0.60533 0.14241 0.56135
 C333 C 0.89725 0.48071 0.65200
 C334 C 0.88257 0.44205 0.62510
 C335 C 0.83256 0.42693 0.60074
 C336 C 0.81324 0.38215 0.57760
 H337 H 0.90898 0.42227 0.62037
 H338 H 0.81276 0.45367 0.60097
 H339 H 0.86948 0.49858 0.65794
 H340 H 0.83195 0.35449 0.57864
 C341 C 0.43269 0.54585 0.65904
 C342 C 0.45437 0.58461 0.63302
 C343 C 0.41612 0.59564 0.61021
 C344 C 0.44113 0.63623 0.58536
 H345 H 0.50142 0.60725 0.62761
 H346 H 0.36851 0.56839 0.61194
 H347 H 0.38632 0.52480 0.66595
 H348 H 0.48894 0.66250 0.58424
 C349 C 0.47638 0.90279 0.64619
 C350 C 0.44670 0.89139 0.61523
 C351 C 0.44132 0.84720 0.58918
 C352 C 0.41296 0.84047 0.55824
 H353 H 0.42578 0.91582 0.60857
 H354 H 0.45909 0.81984 0.59544
 H355 H 0.49533 0.87692 0.65355
 H356 H 0.39415 0.86733 0.55315
 C357 C 0.11134 0.55948 0.65365
 C358 C 0.12046 0.58213 0.62066
 C359 C 0.17281 0.59501 0.59906
 C360 C 0.18982 0.63268 0.57210
 H361 H 0.08986 0.59327 0.60940
 H362 H 0.19620 0.57256 0.60453
 H363 H 0.14649 0.55537 0.66517
 H364 H 0.16765 0.65681 0.56830
 C365 C 0.45713 0.56062 0.85261
 C366 C 0.42416 0.54058 0.88194
 C367 C 0.41434 0.57901 0.90549
 C368 C 0.37234 0.55624 0.93031
 H369 H 0.40429 0.49518 0.88875
 H370 H 0.44175 0.62567 0.90281
 H371 H 0.47424 0.60517 0.84475
 H372 H 0.34376 0.50948 0.93156
 C373 C 0.10940 0.57278 0.84872
 C374 C 0.10969 0.55641 0.88267
 C375 C 0.16058 0.58865 0.90694
 C376 C 0.16142 0.56644 0.93873
 H377 H 0.07138 0.51826 0.89334
 H378 H 0.19641 0.63116 0.89936
 H379 H 0.15071 0.60683 0.83794
 H380 H 0.12694 0.52270 0.94524
 C381 C 0.46883 0.89168 0.84155
 C382 C 0.44139 0.87887 0.87347
 C383 C 0.42584 0.82582 0.89372
 C384 C 0.38415 0.80873 0.91894
 H385 H 0.42632 0.90654 0.88453
 H386 H 0.44926 0.80298 0.88917
 H387 H 0.47717 0.85968 0.82969
 H388 H 0.36095 0.83223 0.92171
 C389 C 0.53009 0.42395 0.84538
 C390 C 0.56944 0.44596 0.87179
 C391 C 0.58427 0.40965 0.89295
 C392 C 0.62637 0.43496 0.91769
 H393 H 0.58998 0.49176 0.87856
 H394 H 0.55868 0.36281 0.88997
 H395 H 0.51119 0.37907 0.83693
 H396 H 0.65122 0.48195 0.92005
 C397 C 0.89460 0.47987 0.84780
 C398 C 0.88772 0.45083 0.87817
 C399 C 0.84046 0.43754 0.90427
 C400 C 0.83697 0.40882 0.93413
 H401 H 0.91971 0.43850 0.88482
 H402 H 0.80931 0.45160 0.89940
 H403 H 0.86182 0.49056 0.84016
 H404 H 0.86716 0.39321 0.93782
 C405 C 0.52165 0.09597 0.84813
 C406 C 0.56335 0.11619 0.87357
 C407 C 0.57439 0.16459 0.89800
 C408 C 0.62190 0.18868 0.91940
 H409 H 0.58980 0.09620 0.87660
 H410 H 0.54313 0.17932 0.89912
 H411 H 0.49677 0.11723 0.84370
 H412 H 0.65321 0.17407 0.91707
   
