data_POSCAR
  _audit_creation_date              2014-09-24
  _audit_creation_method            'ToBaCCo'
  _symmetry_space_group_name_H-M    'P1'
  _symmetry_Int_Tables_number       1
  _symmetry_cell_setting            triclinic
  loop_
  _symmetry_equiv_pos_as_xyz
 x,y,z
_cell_length_a 29.4940
_cell_length_b 29.5515
_cell_length_c 34.1783
_cell_angle_alpha 89.161400
_cell_angle_beta 91.410200
_cell_angle_gamma 90.669000
loop_
  _atom_site_label
  _atom_site_type_symbol
  _atom_site_fract_x
  _atom_site_fract_y
  _atom_site_fract_z
Si1 Si 1.23522 0.25199 0.24022
 Si2 Si 0.74156 -0.24169 0.26145
 Si3 Si 0.74700 0.26376 -0.24600
 Si4 Si 1.24982 -0.23373 -0.25190
 Si5 Si 0.25411 0.24034 0.75543
 Si6 Si 0.75194 0.73481 0.74269
 Si7 Si 0.75794 0.24377 0.24558
 Si8 Si 0.25834 0.74300 0.25242
 O9 O 1.05999 0.00919 0.05318
 O10 O 0.90658 -0.06316 0.02636
 O11 O 0.95102 0.07797 0.01957
 O12 O 1.04735 -0.07495 0.04494
 O13 O 0.91108 0.02019 0.04197
 O14 O 1.10859 -0.04605 0.01937
 O15 O 0.96858 -0.08110 0.05482
 O16 O 1.03299 0.07222 0.02923
 C17 C 1.05252 0.05056 0.05685
 C18 C 0.92693 -0.07844 0.05570
 C19 C 0.92380 0.06074 0.04426
 C20 C 1.09016 -0.07663 0.04188
 O21 O 1.06671 -0.03146 -0.04638
 O22 O 0.90260 0.03861 -0.03110
 O23 O 1.03937 0.05101 -0.04914
 O24 O 0.95185 -0.10114 -0.02373
 O25 O 0.91125 -0.04393 -0.04676
 O26 O 1.09413 0.03737 -0.01129
 O27 O 1.03408 -0.09431 -0.03276
 O28 O 0.96351 0.05591 -0.05873
 Co29 Co 1.06008 -0.01278 0.00348
 Co30 Co 0.91591 -0.01191 -0.00238
 Co31 Co 0.99646 0.05887 -0.01368
 Co32 Co 0.99969 -0.08132 0.00952
 O33 O 0.99076 -0.00989 -0.00193
 C34 C 1.05862 -0.07134 -0.05493
 C35 C 0.92198 0.05611 -0.05921
 C36 C 1.07984 0.05779 -0.04100
 C37 C 0.92380 -0.08424 -0.04888
 O38 O 1.09477 0.54819 0.52683
 O39 O 0.92090 0.44141 0.52508
 O40 O 0.95590 0.57992 0.52708
 O41 O 1.05889 0.40949 0.52787
 O42 O 0.93018 0.51670 0.54790
 O43 O 1.08567 0.47132 0.54974
 O44 O 0.98295 0.41770 0.54923
 O45 O 1.03275 0.57300 0.54779
 C46 C 1.07418 0.56947 0.55204
 C47 C 0.94185 0.42302 0.55284
 C48 C 0.93593 0.55764 0.55285
 C49 C 1.07925 0.43025 0.55454
 O50 O 1.09271 0.44344 0.47411
 O51 O 0.91960 0.54713 0.47338
 O52 O 1.05835 0.58170 0.47205
 O53 O 0.95408 0.40929 0.47245
 O54 O 0.92896 0.47177 0.45004
 O55 O 1.08477 0.51987 0.45174
 O56 O 1.02939 0.41863 0.45222
 O57 O 0.98089 0.57314 0.45067
 Co58 Co 1.08134 0.49558 0.50061
 Co59 Co 0.93302 0.49429 0.49911
 Co60 Co 1.00692 0.56899 0.49936
 Co61 Co 1.00633 0.42161 0.50052
 O62 O 1.00697 0.49518 0.49989
 C63 C 1.07041 0.42401 0.44769
 C64 C 0.93938 0.56851 0.44717
 C65 C 1.07867 0.56080 0.44647
 C66 C 0.93426 0.43078 0.44560
 O67 O 0.56613 0.03673 0.55621
 O68 O 0.41503 -0.02938 0.52944
 O69 O 0.46678 0.09507 0.54034
 O70 O 0.53470 -0.10312 0.51785
 O71 O 0.40872 0.05320 0.51971
 O72 O 0.56161 -0.04223 0.54573
 O73 O 0.47894 -0.05574 0.55239
 O74 O 0.55033 0.09832 0.52669
 C75 C 0.56523 0.07843 0.55638
 C76 C 0.43746 -0.04919 0.55650
 C77 C 0.42636 0.08188 0.54335
 C78 C 0.56491 -0.08462 0.54104
 O79 O 0.58189 -0.02885 0.46900
 O80 O 0.42838 0.03958 0.44150
 O81 O 0.53211 0.09163 0.45286
 O82 O 0.45100 -0.09023 0.48768
 O83 O 0.43477 -0.03578 0.45074
 O84 O 0.58872 0.05245 0.47843
 O85 O 0.51921 -0.06100 0.45276
 O86 O 0.44920 0.10125 0.46711
 Co87 Co 0.56811 0.00534 0.51103
 Co88 Co 0.42736 0.00723 0.48658
 Co89 Co 0.49949 0.08852 0.49681
 Co90 Co 0.50057 -0.05515 0.50265
 O91 O 0.49688 0.01383 0.49806
 C92 C 0.55945 -0.05277 0.44561
 C93 C 0.43050 0.08099 0.43967
 C94 C 0.57240 0.07875 0.45189
 C95 C 0.42970 -0.07645 0.45823
 O96 O 0.57629 0.53169 0.05276
 O97 O 0.42105 0.48025 0.04709
 O98 O 0.47726 0.58319 0.05041
 O99 O 0.52315 0.42826 0.05146
 O100 O 0.41447 0.55711 0.02789
 O101 O 0.58566 0.45621 0.03208
 O102 O 0.44680 0.41899 0.02552
 O103 O 0.55303 0.59381 0.02891
 C104 C 0.57171 0.57277 0.05651
 C105 C 0.42491 0.43891 0.05060
 C106 C 0.43629 0.57650 0.05469
 C107 C 0.56435 0.43407 0.05710
 O108 O 0.57821 0.48447 -0.04430
 O109 O 0.42333 0.53314 -0.04915
 O110 O 0.52312 0.58533 -0.04673
 O111 O 0.47764 0.42931 -0.04783
 O112 O 0.41474 0.45584 -0.02966
 O113 O 0.58545 0.56017 -0.02356
 O114 O 0.55351 0.42164 -0.02261
 O115 O 0.44727 0.59435 -0.02457
 Co116 Co 0.57366 0.50810 0.00405
 Co117 Co 0.42625 0.50671 -0.00077
 Co118 Co 0.50023 0.58103 0.00193
 Co119 Co 0.50028 0.43282 0.00173
 O120 O 0.50007 0.50710 0.00177
 C121 C 0.57350 0.44334 -0.04859
 C122 C 0.42745 0.57460 -0.05204
 C123 C 0.56393 0.57874 -0.05106
 C124 C 0.43665 0.43468 -0.05414
 C125 C 1.14183 0.15783 0.17001
 N126 N 1.13654 0.20342 0.16797
 N127 N 1.16344 0.23084 0.18896
 C128 C 1.19661 0.21363 0.21273
 N129 N 1.20173 0.16810 0.21506
 N130 N 1.17491 0.14064 0.19401
 C131 C 1.11460 0.12819 0.14425
 N132 N 1.12300 0.08313 0.14248
 N133 N 1.10149 0.05744 0.11595
 C134 C 1.07074 0.07596 0.09039
 N135 N 1.06172 0.12075 0.09282
 N136 N 1.08314 0.14635 0.11926
 C137 C 1.17068 0.67474 0.66383
 N138 N 1.21674 0.67549 0.66466
 N139 N 1.23973 0.70231 0.68930
 C140 C 1.21751 0.72938 0.71396
 N141 N 1.17149 0.72871 0.71322
 N142 N 1.14847 0.70189 0.68855
 C143 C 1.14539 0.64578 0.63599
 N144 N 1.09934 0.64609 0.63405
 N145 N 1.07658 0.62105 0.60786
 C146 C 1.09902 0.59467 0.58269
 N147 N 1.14504 0.59408 0.58484
 N148 N 1.16778 0.61913 0.61102
 C149 C 0.65660 0.18039 0.67241
 N150 N 0.65596 0.22633 0.67052
 N151 N 0.68192 0.25084 0.69482
 C152 C 0.70947 0.23020 0.72172
 N153 N 0.70995 0.18435 0.72383
 N154 N 0.68396 0.15983 0.69958
 C155 C 0.63015 0.15353 0.64407
 N156 N 0.63119 0.10759 0.64538
 N157 N 0.60949 0.08335 0.61802
 C158 C 0.58609 0.10430 0.58839
 N159 N 0.58467 0.15019 0.58737
 N160 N 0.60625 0.17437 0.61473
 C161 C 0.65618 0.67152 0.17853
 N162 N 0.65146 0.71715 0.17887
 N163 N 0.67557 0.74223 0.20403
 C164 C 0.70519 0.72258 0.22979
 N165 N 0.70970 0.67694 0.22985
 N166 N 0.68557 0.65179 0.20462
 C167 C 0.63199 0.64475 0.14862
 N168 N 0.63778 0.59931 0.14634
 N169 N 0.61789 0.57591 0.11745
 C170 C 0.59166 0.59722 0.08982
 N171 N 0.58557 0.64249 0.09239
 N172 N 0.60535 0.66581 0.12124
 C173 C 0.82597 -0.15797 0.17689
 N174 N 0.78002 -0.15545 0.17585
 N175 N 0.75543 -0.17904 0.20135
 C176 C 0.77597 -0.20602 0.22869
 N177 N 0.82187 -0.20817 0.23002
 N178 N 0.84649 -0.18455 0.20458
 C179 C 0.85273 -0.13475 0.14698
 N180 N 0.89864 -0.13804 0.14726
 N181 N 0.92261 -0.11936 0.11856
 C182 C 0.90142 -0.09690 0.08855
 N183 N 0.85560 -0.09326 0.08850
 N184 N 0.83168 -0.11184 0.11719
 C185 C 0.83866 0.34501 0.67341
 N186 N 0.79320 0.35184 0.67296
 N187 N 0.76664 0.32899 0.69742
 C188 C 0.78465 0.29854 0.72323
 N189 N 0.83012 0.29203 0.72406
 N190 N 0.85673 0.31486 0.69956
 C191 C 0.86692 0.36760 0.64413
 N192 N 0.91210 0.35939 0.64236
 N193 N 0.93667 0.37770 0.61380
 C194 C 0.91675 0.40468 0.58602
 N195 N 0.87179 0.41319 0.58814
 N196 N 0.84734 0.39503 0.61663
 C197 C 0.33718 -0.14026 0.67283
 N198 N 0.29121 -0.13754 0.67133
 N199 N 0.26585 -0.16421 0.69397
 C200 C 0.28550 -0.19454 0.71902
 N201 N 0.33144 -0.19711 0.72086
 N202 N 0.35684 -0.17049 0.69812
 C203 C 0.36463 -0.11306 0.64551
 N204 N 0.41020 -0.11878 0.64350
 N205 N 0.43406 -0.09694 0.61625
 C206 C 0.41323 -0.06845 0.59013
 N207 N 0.36786 -0.06221 0.59264
 N208 N 0.34406 -0.08400 0.61980
 C209 C 0.32060 0.33692 0.15724
 N210 N 0.29209 0.35718 0.18203
 N211 N 0.26654 0.33238 0.20602
 C212 C 0.26852 0.28655 0.20590
 N213 N 0.29685 0.26628 0.18112
 N214 N 0.32240 0.29103 0.15716
 C215 C 0.34883 0.36392 0.13066
 N216 N 0.37711 0.34312 0.10609
 N217 N 0.40198 0.36723 0.08118
 C218 C 0.39962 0.41306 0.07997
 N219 N 0.37159 0.43399 0.10474
 N220 N 0.34668 0.40983 0.12971
 C221 C 0.82503 0.16470 -0.16781
 N222 N 0.77920 0.16714 -0.16639
 N223 N 0.75656 0.19626 -0.18936
 C224 C 0.77899 0.22405 -0.21435
 N225 N 0.82476 0.22161 -0.21587
 N226 N 0.84745 0.19245 -0.19295
 C227 C 0.85001 0.13397 -0.14145
 N228 N 0.89588 0.13161 -0.14268
 N229 N 0.91881 0.10563 -0.11713
 C230 C 0.89664 0.08114 -0.08952
 N231 N 0.85075 0.08310 -0.08859
 N232 N 0.82782 0.10900 -0.11417
 C233 C 0.83169 0.66930 0.33976
 N234 N 0.85032 0.69975 0.31462
 N235 N 0.82395 0.72582 0.29179
 C236 C 0.77812 0.72252 0.29338
 N237 N 0.75944 0.69214 0.31850
 N238 N 0.78577 0.66600 0.34131
 C239 C 0.86046 0.64131 0.36577
 N240 N 0.84121 0.61131 0.39091
 N241 N 0.86681 0.58735 0.41598
 C242 C 0.91261 0.59237 0.41685
 N243 N 0.93208 0.62202 0.39142
 N244 N 0.90639 0.64604 0.36625
 C245 C 0.33198 0.17527 0.32192
 N246 N 0.33279 0.22118 0.32023
 N247 N 0.30506 0.24342 0.29559
 C248 C 0.27549 0.22054 0.27196
 N249 N 0.27491 0.17469 0.27336
 N250 N 0.30271 0.15241 0.29791
 C251 C 0.36022 0.15084 0.35083
 N252 N 0.35940 0.10493 0.35236
 N253 N 0.38273 0.08268 0.38021
 C254 C 0.40758 0.10554 0.40757
 N255 N 0.40878 0.15144 0.40584
 N256 N 0.38553 0.17371 0.37792
 C257 C 0.33542 0.67885 -0.16832
 N258 N 0.30803 0.65938 -0.19598
 N259 N 0.28356 0.68490 -0.22090
 C260 C 0.28560 0.73072 -0.21902
 N261 N 0.31305 0.75021 -0.19154
 N262 N 0.33755 0.72473 -0.16667
 C263 C 0.36104 0.65106 -0.13955
 N264 N 0.38752 0.67126 -0.11172
 N265 N 0.40922 0.64663 -0.08442
 C266 C 0.40535 0.60081 -0.08385
 N267 N 0.37917 0.58043 -0.11188
 N268 N 0.35742 0.60514 -0.13925
 C269 C 1.15501 -0.15763 -0.17302
 N270 N 1.15276 -0.20343 -0.17554
 N271 N 1.18004 -0.22539 -0.19909
 C272 C 1.21050 -0.20238 -0.22108
 N273 N 1.21266 -0.15658 -0.21886
 N274 N 1.18545 -0.13459 -0.19519
 C275 C 1.12678 -0.13395 -0.14497
 N276 N 1.13232 -0.08888 -0.13881
 N277 N 1.10926 -0.06840 -0.11115
 C278 C 1.07962 -0.09220 -0.08876
 N279 N 1.07359 -0.13708 -0.09537
 N280 N 1.09668 -0.15754 -0.12295
 C281 C 1.15862 0.33810 0.32504
 N282 N 1.13578 0.30855 0.30145
 N283 N 1.15784 0.28413 0.27569
 C284 C 1.20344 0.28856 0.27264
 N285 N 1.22619 0.31837 0.29586
 N286 N 1.20418 0.34273 0.32161
 C287 C 1.13510 0.36261 0.35540
 N288 N 1.15894 0.38876 0.38116
 N289 N 1.13819 0.40892 0.41024
 C290 C 1.09283 0.40366 0.41459
 N291 N 1.06887 0.37790 0.38861
 N292 N 1.08965 0.35766 0.35956
 C293 C 0.65595 -0.14969 0.33483
 N294 N 0.63589 -0.18244 0.31270
 N295 N 0.66085 -0.20941 0.29113
 C296 C 0.70668 -0.20480 0.29123
 N297 N 0.72674 -0.17212 0.31326
 N298 N 0.70182 -0.14506 0.33469
 C299 C 0.62913 -0.12123 0.36028
 N300 N 0.64999 -0.08854 0.38184
 N301 N 0.62695 -0.06520 0.40759
 C302 C 0.58212 -0.07347 0.41271
 N303 N 0.56092 -0.10560 0.39063
 N304 N 0.58402 -0.12898 0.36476
 C305 C 0.66320 0.34793 -0.16496
 N306 N 0.65752 0.30236 -0.16671
 N307 N 0.68165 0.27813 -0.19104
 C308 C 0.71234 0.29856 -0.21447
 N309 N 0.71794 0.34415 -0.21307
 N310 N 0.69375 0.36847 -0.18868
 C311 C 0.63814 0.37375 -0.13639
 N312 N 0.64389 0.41925 -0.13321
 N313 N 0.62265 0.44184 -0.10571
 C314 C 0.59503 0.41965 -0.08043
 N315 N 0.58905 0.37430 -0.08388
 N316 N 0.61017 0.35179 -0.11136
 C317 C 1.17967 0.15678 -0.15297
 N318 N 1.22561 0.15613 -0.15427
 N319 N 1.24725 0.17963 -0.18186
 C320 C 1.22373 0.20442 -0.20910
 N321 N 1.17789 0.20498 -0.20791
 N322 N 1.15627 0.18141 -0.18044
 C323 C 1.15502 0.13155 -0.12261
 N324 N 1.10911 0.13099 -0.12400
 N325 N 1.08590 0.10798 -0.09734
 C326 C 1.10749 0.08482 -0.06797
 N327 N 1.15357 0.08548 -0.06617
 N328 N 1.17695 0.10854 -0.09310
 C329 C 1.16779 0.66000 0.32816
 N330 N 1.19723 0.63968 0.30425
 N331 N 1.22313 0.66436 0.28046
 C332 C 1.22044 0.71019 0.27969
 N333 N 1.19073 0.73049 0.30326
 N334 N 1.16481 0.70583 0.32701
 C335 C 1.14202 0.63335 0.35685
 N336 N 1.11475 0.65441 0.38210
 N337 N 1.09385 0.63097 0.41006
 C338 C 1.09944 0.58558 0.41386
 N339 N 1.12630 0.56433 0.38833
 N340 N 1.14725 0.58783 0.36033
 C341 C 0.67704 0.15828 0.33210
 N342 N 0.72297 0.15550 0.33168
 N343 N 0.74656 0.17927 0.30546
 C344 C 0.72507 0.20654 0.27877
 N345 N 0.67925 0.20891 0.27895
 N346 N 0.65568 0.18519 0.30507
 C347 C 0.65049 0.13504 0.36245
 N348 N 0.60511 0.14148 0.36335
 N349 N 0.58066 0.12292 0.39167
 C350 C 0.60049 0.09710 0.42028
 N351 N 0.64593 0.09014 0.41932
 N352 N 0.67053 0.10890 0.39091
 C353 C 0.66262 0.65273 -0.17602
 N354 N 0.70810 0.64629 -0.17618
 N355 N 0.73391 0.66909 -0.20122
 C356 C 0.71511 0.69897 -0.22708
 N357 N 0.66958 0.70505 -0.22744
 N358 N 0.64371 0.68228 -0.20230
 C359 C 0.63547 0.63090 -0.14563
 N360 N 0.59051 0.63944 -0.14270
 N361 N 0.56712 0.62220 -0.11297
 C362 C 0.58804 0.59605 -0.08513
 N363 N 0.63278 0.58716 -0.08838
 N364 N 0.65606 0.60428 -0.11805
 C365 C 0.83693 -0.18480 -0.16902
 N366 N 0.80900 -0.16309 -0.19517
 N367 N 0.78468 -0.18620 -0.22167
 C368 C 0.78748 -0.23188 -0.22291
 N369 N 0.81558 -0.25360 -0.19701
 N370 N 0.83992 -0.23051 -0.17052
 C371 C 0.86171 -0.15919 -0.13861
 N372 N 0.88939 -0.18011 -0.11169
 N373 N 0.91003 -0.15656 -0.08319
 C374 C 0.90350 -0.11128 -0.08065
 N375 N 0.87611 -0.09055 -0.10773
 N376 N 0.85565 -0.11397 -0.13614
 C377 C 0.84561 0.33122 0.32626
 N378 N 0.85131 0.28572 0.32531
 N379 N 0.82636 0.26032 0.30096
 C380 C 0.79486 0.27956 0.27669
 N381 N 0.78935 0.32506 0.27729
 N382 N 0.81430 0.35050 0.30167
 C383 C 0.87096 0.35835 0.35522
 N384 N 0.86417 0.40359 0.35812
 N385 N 0.88512 0.42726 0.38632
 C386 C 0.91348 0.40641 0.41259
 N387 N 0.92057 0.36136 0.40935
 N388 N 0.89975 0.33778 0.38120
 C389 C 0.33704 -0.18039 0.34331
 N390 N 0.33732 -0.22631 0.34331
 N391 N 0.31486 -0.24905 0.31537
 C392 C 0.29154 -0.22673 0.28641
 N393 N 0.29143 -0.18089 0.28628
 N394 N 0.31392 -0.15817 0.31414
 C395 C 0.36073 -0.15458 0.37431
 N396 N 0.36027 -0.10878 0.37267
 N397 N 0.38170 -0.08461 0.40004
 C398 C 0.40431 -0.10509 0.43035
 N399 N 0.40470 -0.15105 0.43234
 N400 N 0.38317 -0.17538 0.40476
 C401 C 0.33998 0.33454 -0.16831
 N402 N 0.29403 0.33582 -0.16850
 N403 N 0.26945 0.30845 -0.19137
 C404 C 0.28988 0.27890 -0.21497
 N405 N 0.33585 0.27761 -0.21510
 N406 N 0.36054 0.30496 -0.19205
 C407 C 0.36626 0.36308 -0.14109
 N408 N 0.41201 0.35939 -0.13708
 N409 N 0.43491 0.38322 -0.11011
 C410 C 0.41281 0.41156 -0.08632
 N411 N 0.36723 0.41564 -0.09076
 N412 N 0.34440 0.39187 -0.11764
 C413 C 1.18618 -0.17352 0.16098
 N414 N 1.23198 -0.17058 0.16570
 N415 N 1.25329 -0.19425 0.19400
 C416 C 1.22962 -0.22143 0.21878
 N417 N 1.18387 -0.22411 0.21427
 N418 N 1.16256 -0.20049 0.18600
 C419 C 1.16221 -0.14881 0.12902
 N420 N 1.11661 -0.15347 0.12449
 N421 N 1.09430 -0.13115 0.09608
 C422 C 1.11661 -0.10340 0.07086
 N423 N 1.16236 -0.09883 0.07510
 N424 N 1.18478 -0.12127 0.10363
 C425 C 1.16492 0.32782 0.67518
 N426 N 1.19575 0.34706 0.70014
 N427 N 1.22061 0.32144 0.72463
 C428 C 1.21549 0.27575 0.72509
 N429 N 1.18438 0.25648 0.70049
 N430 N 1.15949 0.28208 0.67600
 C431 C 1.14020 0.35548 0.64583
 N432 N 1.11173 0.33540 0.61943
 N433 N 1.09171 0.35967 0.59097
 C434 C 1.09936 0.40494 0.58777
 N435 N 1.12741 0.42527 0.61444
 N436 N 1.14752 0.40092 0.64296
 C437 C 0.66890 -0.18480 0.65221
 N438 N 0.69566 -0.16291 0.67898
 N439 N 0.71954 -0.18605 0.70601
 C440 C 0.71729 -0.23189 0.70727
 N441 N 0.69053 -0.25377 0.68063
 N442 N 0.66667 -0.23067 0.65362
 C443 C 0.64274 -0.15921 0.62232
 N444 N 0.61558 -0.18081 0.59564
 N445 N 0.59125 -0.15733 0.56909
 C446 C 0.59339 -0.11142 0.56826
 N447 N 0.62076 -0.08995 0.59476
 N448 N 0.64502 -0.11336 0.62123
 C449 C 0.66759 0.33428 0.16863
 N450 N 0.71345 0.33887 0.16864
 N451 N 0.73955 0.31251 0.19141
 C452 C 0.72077 0.28062 0.21504
 N453 N 0.67493 0.27603 0.21523
 N454 N 0.64874 0.30235 0.19236
 C455 C 0.63947 0.36224 0.14195
 N456 N 0.59378 0.35597 0.13878
 N457 N 0.56920 0.37974 0.11258
 C458 C 0.58953 0.41064 0.08875
 N459 N 0.63503 0.41721 0.09238
 N460 N 0.65951 0.39354 0.11847
 C461 C 0.84060 0.16318 0.16050
 N462 N 0.84390 0.20903 0.16118
 N463 N 0.82036 0.23248 0.18665
 C464 C 0.79278 0.21093 0.21231
 N465 N 0.78969 0.16516 0.21187
 N466 N 0.81318 0.14172 0.18641
 C467 C 0.86446 0.13701 0.13120
 N468 N 0.85787 0.09161 0.12941
 N469 N 0.87746 0.06767 0.10198
 C470 C 0.90450 0.08806 0.07525
 N471 N 0.91156 0.13350 0.07715
 N472 N 0.89180 0.15756 0.10464
 C473 C 0.84341 0.65177 0.66766
 N474 N 0.81235 0.63077 0.69057
 N475 N 0.78595 0.65485 0.71333
 C476 C 0.78974 0.70062 0.71377
 N477 N 0.82093 0.72155 0.69117
 N478 N 0.84732 0.69753 0.66850
 C479 C 0.87022 0.62618 0.64032
 N480 N 0.89886 0.64838 0.61604
 N481 N 0.92072 0.62611 0.58888
 C482 C 0.91478 0.58081 0.58504
 N483 N 0.88666 0.55836 0.60970
 N484 N 0.86469 0.58070 0.63689
 C485 C 0.33057 0.16011 0.66609
 N486 N 0.35307 0.18912 0.69040
 N487 N 0.33110 0.21146 0.71754
 C488 C 0.28583 0.20547 0.72141
 N489 N 0.26331 0.17616 0.69744
 N490 N 0.28529 0.15378 0.67026
 C491 C 0.35487 0.13802 0.63468
 N492 N 0.33336 0.10934 0.60934
 N493 N 0.35576 0.09097 0.58011
 C494 C 0.40036 0.10094 0.57519
 N495 N 0.42165 0.12943 0.60063
 N496 N 0.39940 0.14761 0.62976
 C497 C 0.34081 0.65878 0.17491
 N498 N 0.36166 0.68681 0.20107
 N499 N 0.33730 0.71102 0.22541
 C500 C 0.29134 0.70797 0.22433
 N501 N 0.27060 0.67975 0.19844
 N502 N 0.29488 0.65551 0.17424
 C503 C 0.36672 0.63478 0.14575
 N504 N 0.34466 0.60851 0.11902
 N505 N 0.36717 0.58922 0.09055
 C506 C 0.41259 0.59550 0.08772
 N507 N 0.43489 0.62132 0.11472
 N508 N 0.41231 0.64068 0.14325
   
