data_POSCAR
  _audit_creation_date              2014-09-24
  _audit_creation_method            'ToBaCCo'
  _symmetry_space_group_name_H-M    'P1'
  _symmetry_Int_Tables_number       1
  _symmetry_cell_setting            triclinic
  loop_
  _symmetry_equiv_pos_as_xyz
 x,y,z
_cell_length_a 25.5033
_cell_length_b 25.4843
_cell_length_c 25.3975
_cell_angle_alpha 90.124800
_cell_angle_beta 90.118300
_cell_angle_gamma 90.121000
loop_
  _atom_site_label
  _atom_site_type_symbol
  _atom_site_fract_x
  _atom_site_fract_y
  _atom_site_fract_z
C1 C 0.38961 1.00045 -0.54904
 C2 C 0.36281 0.99986 -0.50111
 C3 C 0.38983 0.99930 -0.45326
 C4 C 0.44522 0.99956 -0.45272
 C5 C 0.47300 0.99991 -0.50109
 C6 C 0.44512 1.00024 -0.54953
 C7 C 0.47349 1.00033 -0.59700
 C8 C 0.52807 1.00006 -0.59691
 C9 C 0.55652 0.99989 -0.54936
 C10 C 0.52872 0.99994 -0.50099
 C11 C 0.47353 0.99949 -0.40517
 C12 C 0.52811 0.99982 -0.40504
 C13 C 0.55654 1.00002 -0.45250
 C14 C 0.61204 1.00030 -0.45290
 C15 C 0.63894 1.00001 -0.50077
 C16 C 0.61202 0.99969 -0.54875
 H17 H 0.45364 1.00053 -0.63472
 H18 H 0.54787 1.00008 -0.63459
 H19 H 0.45366 0.99926 -0.36755
 H20 H 0.54791 0.99982 -0.36729
 H21 H 0.32021 0.99984 -0.50093
 H22 H 0.68157 1.00004 -0.50068
 C23 C -0.54704 1.38988 0.00028
 C24 C -0.49939 1.36301 -0.00023
 C25 C -0.45170 1.39001 -0.00067
 C26 C -0.45114 1.44546 -0.00036
 C27 C -0.49930 1.47322 -0.00009
 C28 C -0.54752 1.44533 0.00011
 C29 C -0.59482 1.47357 0.00013
 C30 C -0.59480 1.52821 -0.00010
 C31 C -0.54748 1.55665 -0.00015
 C32 C -0.49927 1.52895 -0.00001
 C33 C -0.40380 1.47384 -0.00032
 C34 C -0.40374 1.52848 0.00006
 C35 C -0.45104 1.55687 0.00019
 C36 C -0.45160 1.61242 0.00052
 C37 C -0.49938 1.63919 0.00014
 C38 C -0.54701 1.61208 -0.00031
 H39 H -0.63234 1.45362 0.00023
 H40 H -0.63231 1.54802 -0.00015
 H41 H -0.36632 1.45399 -0.00048
 H42 H -0.36618 1.54837 0.00015
 H43 H -0.49942 1.32041 -0.00027
 H44 H -0.49960 1.68182 0.00020
 C45 C -0.00006 0.54675 0.61281
 C46 C -0.00050 0.49900 0.63975
 C47 C -0.00084 0.45123 0.61263
 C48 C -0.00049 0.45071 0.55689
 C49 C -0.00031 0.49896 0.52907
 C50 C -0.00022 0.54724 0.55708
 C51 C -0.00029 0.59458 0.52862
 C52 C -0.00050 0.59454 0.47381
 C53 C -0.00043 0.54720 0.44531
 C54 C -0.00020 0.49896 0.47311
 C55 C -0.00031 0.40337 0.52824
 C56 C 0.00010 0.40338 0.47344
 C57 C 0.00013 0.45072 0.44503
 C58 C 0.00049 0.45131 0.38929
 C59 C 0.00001 0.49912 0.36245
 C60 C -0.00057 0.54676 0.38967
 H61 H -0.00028 0.63217 0.54856
 H62 H -0.00062 0.63208 0.45393
 H63 H -0.00040 0.36579 0.54805
 H64 H 0.00029 0.36581 0.45345
 H65 H -0.00057 0.49901 0.68256
 H66 H 0.00009 0.49936 0.31968
 O67 O -0.13543 1.00151 -0.07142
 O68 O 0.13472 0.99803 -0.07120
 O69 O -0.00206 1.07065 -0.13573
 O70 O 0.00119 0.92855 -0.13568
 O71 O 0.00116 0.86473 -0.07124
 O72 O -0.00188 1.13479 -0.07132
 O73 O 0.07053 0.99783 -0.13551
 O74 O -0.07139 1.00138 -0.13561
 Zr75 Zr -0.00038 0.99971 -0.09279
 O76 O 0.04715 0.95221 -0.04779
 O77 O -0.04780 1.04743 -0.04789
 C78 C -0.11973 1.00224 -0.11994
 C79 C 0.11891 0.99706 -0.11974
 C80 C -0.00280 1.11905 -0.11988
 C81 C 0.00197 0.88023 -0.11980
 H82 H 0.06951 1.06956 -0.07005
 O83 O 0.04712 1.04721 -0.04759
 H84 H -0.07022 0.92998 -0.07011
 O85 O -0.04777 0.95243 -0.04763
 O86 O 0.13492 1.00187 0.07127
 O87 O -0.13525 0.99836 0.07109
 O88 O 0.07097 1.13513 0.00172
 O89 O 0.07043 0.86477 -0.00173
 O90 O -0.07150 0.86477 0.00171
 O91 O -0.07093 1.13511 -0.00190
 O92 O 0.00183 1.07128 0.13559
 O93 O -0.00197 0.92923 0.13562
 O94 O 0.00190 1.13513 0.07117
 O95 O -0.00221 0.86508 0.07122
 O96 O 0.13480 1.07097 0.00181
 O97 O -0.13503 1.07094 -0.00197
 O98 O -0.13533 0.92894 0.00166
 O99 O 0.13451 0.92896 -0.00174
 O100 O 0.07091 1.00204 0.13549
 O101 O -0.07105 0.99848 0.13539
 Zr102 Zr 0.09205 0.99995 0.00001
 Zr103 Zr -0.09258 0.99994 -0.00013
 Zr104 Zr -0.00007 1.09232 -0.00007
 Zr105 Zr -0.00045 0.90756 -0.00003
 Zr106 Zr -0.00013 1.00016 0.09267
 O107 O -0.04787 0.95244 0.04770
 O108 O 0.04748 1.04767 0.04776
 C109 C 0.11925 1.00282 0.11980
 C110 C -0.11943 0.99763 0.11964
 C111 C 0.11926 1.11936 0.00261
 C112 C 0.11879 0.88057 -0.00256
 C113 C -0.11979 0.88055 0.00253
 C114 C -0.11929 1.11933 -0.00279
 C115 C 0.00276 1.11961 0.11974
 C116 C -0.00293 0.88083 0.11978
 H117 H -0.06975 1.06988 0.06990
 O118 O -0.04745 1.04743 0.04746
 H119 H 0.06942 0.93033 0.07003
 O120 O 0.04706 0.95268 0.04754
 C121 C 0.36039 1.00136 0.40576
 C122 C 0.33345 1.00224 0.36671
 C123 C 0.29993 1.00330 0.32110
 C124 C 0.28922 0.95691 0.29335
 C125 C 0.25417 0.95740 0.25092
 C126 C 0.22969 1.00428 0.23608
 C127 C 0.24095 1.05081 0.26337
 C128 C 0.27599 1.05032 0.30579
 C129 C 0.19155 1.00423 0.19426
 C130 C 0.15887 1.00382 0.15991
 H131 H 0.30732 0.92029 0.30502
 H132 H 0.24560 0.92116 0.23021
 H133 H 0.22209 1.08724 0.25234
 H134 H 0.28380 1.08636 0.32714
 C135 C -0.35888 0.99904 0.40608
 C136 C -0.33212 0.99838 0.36700
 C137 C -0.29887 0.99758 0.32131
 C138 C -0.28546 1.04459 0.29616
 C139 C -0.25073 1.04412 0.25361
 C140 C -0.22927 0.99665 0.23605
 C141 C -0.24324 0.94956 0.26075
 C142 C -0.27797 0.95002 0.30330
 C143 C -0.19140 0.99654 0.19413
 C144 C -0.15891 0.99681 0.15973
 H145 H -0.30120 1.08160 0.30992
 H146 H -0.24004 1.08078 0.23492
 H147 H -0.22672 0.91265 0.24762
 H148 H -0.28789 0.91348 0.32262
 C149 C -0.35886 1.00100 -0.40760
 C150 C -0.33215 1.00169 -0.36838
 C151 C -0.29899 1.00254 -0.32248
 C152 C -0.28684 0.95569 -0.29646
 C153 C -0.25221 0.95613 -0.25367
 C154 C -0.22961 1.00342 -0.23675
 C155 C -0.24233 1.05038 -0.26232
 C156 C -0.27695 1.04993 -0.30511
 C157 C -0.19178 1.00344 -0.19464
 C158 C -0.15928 1.00311 -0.16012
 H159 H -0.30348 0.91879 -0.30972
 H160 H -0.24248 0.91957 -0.23431
 H161 H -0.22491 1.08714 -0.24970
 H162 H -0.28590 1.08636 -0.32510
 C163 C 0.35908 0.99835 -0.40554
 C164 C 0.33220 0.99747 -0.36656
 C165 C 0.29880 0.99643 -0.32099
 C166 C 0.27452 0.94948 -0.30584
 C167 C 0.23965 0.94901 -0.26341
 C168 C 0.22892 0.99550 -0.23597
 C169 C 0.25374 1.04232 -0.25068
 C170 C 0.28861 1.04279 -0.29311
 C171 C 0.19095 0.99560 -0.19415
 C172 C 0.15840 0.99604 -0.15981
 H173 H 0.28194 0.91346 -0.32728
 H174 H 0.22053 0.91263 -0.25249
 H175 H 0.24556 1.07853 -0.22985
 H176 H 0.30698 1.07936 -0.30465
 C177 C 0.40539 1.35901 0.00113
 C178 C 0.36644 1.33214 0.00192
 C179 C 0.32085 1.29884 0.00288
 C180 C 0.30443 1.27624 0.05033
 C181 C 0.26188 1.24152 0.05083
 C182 C 0.23560 1.22928 0.00387
 C183 C 0.25158 1.25243 -0.04346
 C184 C 0.29412 1.28714 -0.04396
 C185 C 0.19369 1.19141 0.00389
 C186 C 0.15931 1.15889 0.00354
 H187 H 0.32497 1.28484 0.08673
 H188 H 0.24998 1.22368 0.08761
 H189 H 0.23165 1.24306 -0.08002
 H190 H 0.30664 1.30422 -0.08090
 C191 C 0.40538 0.64272 -0.00111
 C192 C 0.36636 0.66932 -0.00187
 C193 C 0.32064 0.70226 -0.00280
 C194 C 0.30372 0.72447 -0.05029
 C195 C 0.26102 0.75882 -0.05079
 C196 C 0.23509 0.77110 -0.00379
 C197 C 0.25156 0.74833 0.04360
 C198 C 0.29425 0.71398 0.04409
 C199 C 0.19310 0.80871 -0.00381
 C200 C 0.15872 0.84108 -0.00347
 H201 H 0.32398 0.71584 -0.08674
 H202 H 0.24875 0.77638 -0.08761
 H203 H 0.23191 0.75773 0.08020
 H204 H 0.30715 0.69720 0.08106
 C205 C -0.40658 0.64165 0.00135
 C206 C -0.36755 0.66843 0.00217
 C207 C -0.32185 0.70160 0.00318
 C208 C -0.29402 0.71138 -0.04329
 C209 C -0.25134 0.74594 -0.04284
 C210 C -0.23634 0.77085 0.00409
 C211 C -0.26374 0.76053 0.05070
 C212 C -0.30641 0.72597 0.05024
 C213 C -0.19431 0.80860 0.00395
 C214 C -0.15986 0.84104 0.00351
 H215 H -0.30577 0.69292 -0.07994
 H216 H -0.23056 0.75382 -0.07915
 H217 H -0.25260 0.77975 0.08715
 H218 H -0.32780 0.71886 0.08635
 C219 C -0.40419 1.35925 -0.00157
 C220 C -0.36534 1.33240 -0.00241
 C221 C -0.31990 1.29907 -0.00341
 C222 C -0.29240 1.28861 0.04320
 C223 C -0.25006 1.25382 0.04274
 C224 C -0.23507 1.22935 -0.00432
 C225 C -0.26212 1.24036 -0.05106
 C226 C -0.30446 1.27515 -0.05060
 C227 C -0.19337 1.19142 -0.00423
 C228 C -0.15916 1.15887 -0.00380
 H229 H -0.30416 1.30672 0.07995
 H230 H -0.22953 1.24543 0.07915
 H231 H -0.25098 1.22150 -0.08763
 H232 H -0.32561 1.28278 -0.08682
 C233 C 0.00145 1.40628 0.35992
 C234 C 0.00240 1.36727 0.33298
 C235 C 0.00355 1.32162 0.29959
 C236 C 0.05005 1.30755 0.27394
 C237 C 0.05055 1.26492 0.23917
 C238 C 0.00453 1.23619 0.22990
 C239 C -0.04181 1.24982 0.25609
 C240 C -0.04230 1.29246 0.29086
 C241 C 0.00435 1.19417 0.19197
 C242 C 0.00385 1.15972 0.15938
 H243 H 0.08566 1.32997 0.28023
 H244 H 0.08654 1.25485 0.21897
 H245 H -0.07766 1.22800 0.24904
 H246 H -0.07852 1.30314 0.31032
 C247 C -0.00162 1.40613 -0.35828
 C248 C -0.00239 1.36703 -0.33164
 C249 C -0.00331 1.32121 -0.29865
 C250 C 0.04328 1.29437 -0.28750
 C251 C 0.04283 1.25160 -0.25308
 C252 C -0.00422 1.23550 -0.22968
 C253 C -0.05093 1.26189 -0.24139
 C254 C -0.05048 1.30466 -0.27581
 C255 C -0.00415 1.19344 -0.19197
 C256 C -0.00376 1.15902 -0.15950
 H257 H 0.08001 1.30698 -0.30478
 H258 H 0.07922 1.23162 -0.24412
 H259 H -0.08749 1.24991 -0.22333
 H260 H -0.08670 1.32527 -0.28398
 C261 C 0.00067 0.59188 -0.35794
 C262 C 0.00141 0.63105 -0.33123
 C263 C 0.00233 0.67700 -0.29822
 C264 C 0.04946 0.69353 -0.27502
 C265 C 0.04993 0.73650 -0.24068
 C266 C 0.00326 0.76313 -0.22940
 C267 C -0.04376 0.74703 -0.25316
 C268 C -0.04422 0.70405 -0.28750
 C269 C 0.00320 0.80544 -0.19179
 C270 C 0.00285 0.84005 -0.15939
 H271 H 0.08565 0.67275 -0.28288
 H272 H 0.08646 0.74848 -0.22235
 H273 H -0.08011 0.76720 -0.24453
 H274 H -0.08091 0.69147 -0.30507
 C275 C -0.00145 0.59440 0.35893
 C276 C -0.00227 0.63342 0.33219
 C277 C -0.00326 0.67912 0.29905
 C278 C 0.04327 0.70630 0.28818
 C279 C 0.04277 0.74894 0.25360
 C280 C -0.00426 0.76457 0.22976
 C281 C -0.05091 0.73783 0.24120
 C282 C -0.05041 0.69519 0.27577
 C283 C -0.00424 0.80653 0.19195
 C284 C -0.00387 0.84089 0.15942
 H285 H 0.07998 0.69406 0.30578
 H286 H 0.07910 0.76921 0.24486
 H287 H -0.08745 0.74944 0.22281
 H288 H -0.08657 0.67430 0.28373
   
