data_POSCAR
  _audit_creation_date              2014-09-24
  _audit_creation_method            'ToBaCCo'
  _symmetry_space_group_name_H-M    'P1'
  _symmetry_Int_Tables_number       1
  _symmetry_cell_setting            triclinic
  loop_
  _symmetry_equiv_pos_as_xyz
 x,y,z
_cell_length_a 38.2398
_cell_length_b 39.7118
_cell_length_c 38.3831
_cell_angle_alpha 89.015900
_cell_angle_beta 90.968200
_cell_angle_gamma 91.397800
loop_
  _atom_site_label
  _atom_site_type_symbol
  _atom_site_fract_x
  _atom_site_fract_y
  _atom_site_fract_z
N1 N 0.17947 0.19837 0.27029
 N2 N 0.20122 0.17365 0.26610
 C3 C 0.19119 0.14704 0.28604
 C4 C 0.16165 0.15569 0.30348
 C5 C 0.15469 0.18829 0.29302
 H6 H 0.20391 0.12300 0.28717
 H7 H 0.13276 0.20312 0.30050
 Cu8 Cu 0.23963 0.17758 0.23392
 Cu9 Cu 0.18335 0.24046 0.24360
 Cu10 Cu 0.25286 0.24825 0.18674
 N11 N 0.28394 0.18725 0.21153
 N12 N 0.28909 0.21477 0.19258
 C13 C 0.31982 0.21275 0.17613
 C14 C 0.33466 0.18254 0.18581
 C15 C 0.31124 0.16691 0.20806
 H16 H 0.32929 0.23059 0.15666
 H17 H 0.31264 0.14152 0.21860
 N18 N 0.21792 0.28355 0.19179
 N19 N 0.19178 0.28077 0.21383
 C20 C 0.17073 0.30722 0.20893
 C21 C 0.18443 0.32754 0.18285
 C22 C 0.21419 0.31190 0.17241
 H23 H 0.14595 0.31024 0.22153
 H24 H 0.23053 0.31948 0.15079
 H25 H 0.20789 0.22148 0.20156
 H26 H 0.23711 0.23854 0.23674
 N27 N -0.17369 0.80034 0.24064
 N28 N -0.19770 0.82348 0.23861
 C29 C -0.19174 0.84609 0.26386
 C30 C -0.16260 0.83640 0.28272
 C31 C -0.15165 0.80732 0.26747
 H32 H -0.20703 0.86824 0.26774
 H33 H -0.12897 0.79283 0.27470
 Cu34 Cu -0.23417 0.82242 0.20285
 Cu35 Cu -0.17287 0.76383 0.20730
 Cu36 Cu -0.21364 0.78470 0.12859
 N37 N -0.26234 0.82773 0.16080
 N38 N -0.25405 0.81339 0.13152
 C39 C -0.27619 0.82352 0.10596
 C40 C -0.29950 0.84509 0.12036
 C41 C -0.29007 0.84737 0.15505
 H42 H -0.27470 0.81656 0.07890
 H43 H -0.30153 0.86320 0.17425
 N44 N -0.18016 0.74785 0.13386
 N45 N -0.16535 0.73940 0.16401
 C46 C -0.14447 0.71311 0.15933
 C47 C -0.14646 0.70469 0.12466
 C48 C -0.16919 0.72702 0.10916
 H49 H -0.12870 0.70128 0.17951
 H50 H -0.17715 0.72800 0.08199
 H51 H -0.18466 0.80024 0.17221
 H52 H -0.22027 0.76786 0.17855
 N53 N -0.16060 0.16865 -0.23980
 N54 N -0.18955 0.15151 -0.24724
 C55 C -0.18380 0.13102 -0.27398
 C56 C -0.14946 0.13555 -0.28357
 C57 C -0.13527 0.15947 -0.26145
 H58 H -0.20290 0.11358 -0.28510
 H59 H -0.10853 0.16900 -0.26071
 Cu60 Cu -0.23133 0.15561 -0.21991
 Cu61 Cu -0.15798 0.20000 -0.20134
 Cu62 Cu -0.23822 0.22316 -0.16916
 N63 N -0.27588 0.16812 -0.20143
 N64 N -0.27868 0.19480 -0.18193
 C65 C -0.31128 0.19522 -0.16920
 C66 C -0.32972 0.16752 -0.18172
 C67 C -0.30652 0.15072 -0.20185
 H68 H -0.31984 0.21247 -0.14975
 H69 H -0.31072 0.12625 -0.21337
 N70 N -0.19400 0.24806 -0.15896
 N71 N -0.16346 0.23871 -0.17063
 C72 C -0.13816 0.25956 -0.15809
 C73 C -0.15355 0.28290 -0.13753
 C74 C -0.18886 0.27508 -0.13850
 H75 H -0.11057 0.25778 -0.16329
 H76 H -0.20910 0.28776 -0.12485
 H77 H -0.20194 0.18652 -0.17231
 H78 H -0.20854 0.21271 -0.21251
 N79 N 0.17853 0.80122 -0.26884
 N80 N 0.19148 0.82990 -0.25709
 C81 C 0.18794 0.85398 -0.28194
 C82 C 0.17206 0.83944 -0.31069
 C83 C 0.16619 0.80605 -0.30156
 H84 H 0.19462 0.88038 -0.27868
 H85 H 0.15222 0.78723 -0.31677
 Cu86 Cu 0.20826 0.83399 -0.20927
 Cu87 Cu 0.17456 0.76119 -0.23902
 Cu88 Cu 0.22536 0.76301 -0.16338
 N89 N 0.23787 0.83453 -0.16777
 N90 N 0.24531 0.80671 -0.15035
 C91 C 0.26743 0.81429 -0.12376
 C92 C 0.27390 0.84860 -0.12480
 C93 C 0.25502 0.86076 -0.15299
 H94 H 0.27839 0.79619 -0.10551
 H95 H 0.25457 0.88652 -0.16262
 N96 N 0.20211 0.72158 -0.18091
 N97 N 0.18218 0.72100 -0.20935
 C98 C 0.16619 0.69048 -0.21169
 C99 C 0.17672 0.67108 -0.18349
 C100 C 0.19927 0.69146 -0.16442
 H101 H 0.14634 0.68373 -0.23090
 H102 H 0.21029 0.68568 -0.13894
 H103 H 0.18185 0.78034 -0.18903
 H104 H 0.22132 0.77496 -0.21611
 N105 N 0.18265 1.18156 0.72274
 N106 N 0.15757 1.20327 0.72634
 C107 C 0.12939 1.19324 0.70731
 C108 C 0.13751 1.16384 0.69100
 C109 C 0.17142 1.15708 0.70115
 H110 H 0.10493 1.20630 0.70533
 H111 H 0.18677 1.13600 0.69348
 Cu112 Cu 0.16473 1.24276 0.75504
 Cu113 Cu 0.22820 1.18712 0.74581
 Cu114 Cu 0.23106 1.24504 0.81268
 N115 N 0.17537 1.28304 0.78171
 N116 N 0.20147 1.28374 0.80448
 C117 C 0.20063 1.31249 0.82247
 C118 C 0.17277 1.33081 0.80998
 C119 C 0.15713 1.31145 0.78433
 H120 H 0.21746 1.31848 0.84456
 H121 H 0.13288 1.31656 0.77055
 N122 N 0.26657 1.21051 0.80731
 N123 N 0.26593 1.18893 0.78148
 C124 C 0.29258 1.16760 0.78603
 C125 C 0.31082 1.17653 0.81590
 C126 C 0.29373 1.20366 0.82883
 H127 H 0.29723 1.14617 0.76987
 H128 H 0.29979 1.21654 0.85288
 H129 H 0.20372 1.20550 0.78769
 H130 H 0.22803 1.23766 0.76092
 N131 N 0.79970 0.82654 0.75453
 N132 N 0.81725 0.79858 0.75237
 C133 C 0.83344 0.79827 0.72147
 C134 C 0.82545 0.82752 0.70348
 C135 C 0.80422 0.84503 0.72515
 H136 H 0.85142 0.77936 0.71355
 H137 H 0.79449 0.87013 0.72077
 Cu138 Cu 0.82110 0.76834 0.79253
 Cu139 Cu 0.77640 0.83884 0.79728
 Cu140 Cu 0.76424 0.77293 0.85729
 N141 N 0.82349 0.73779 0.83248
 N142 N 0.80123 0.73979 0.85811
 C143 C 0.80902 0.71653 0.88285
 C144 C 0.83773 0.69939 0.87199
 C145 C 0.84634 0.71340 0.84011
 H146 H 0.79529 0.71290 0.90709
 H147 H 0.86805 0.70675 0.82410
 N148 N 0.73840 0.81530 0.85870
 N149 N 0.74358 0.84055 0.83633
 C150 C 0.72265 0.86596 0.84445
 C151 C 0.70371 0.85620 0.87328
 C152 C 0.71416 0.82406 0.88175
 H153 H 0.72106 0.88967 0.83029
 H154 H 0.70491 0.80831 0.90311
 H155 H 0.79823 0.80655 0.83517
 H156 H 0.76355 0.78969 0.80508
 N157 N 0.18484 0.82125 1.27222
 N158 N 0.16745 0.79258 1.27705
 C159 C 0.14660 0.79524 1.30479
 C160 C 0.15143 0.82711 1.31792
 C161 C 0.17567 0.84308 1.29674
 H162 H 0.12855 0.77589 1.31418
 H163 H 0.18513 0.86890 1.29844
 Cu164 Cu 0.17269 0.75536 1.24550
 Cu165 Cu 0.21657 0.82877 1.23335
 Cu166 Cu 0.22639 0.76201 1.17740
 N167 N 0.17795 0.71814 1.21395
 N168 N 0.19951 0.72081 1.18764
 C169 C 0.19647 0.69284 1.16843
 C170 C 0.17183 0.67163 1.18358
 C171 C 0.16033 0.68837 1.21223
 H172 H 0.20938 0.68918 1.14397
 H173 H 0.13925 0.68037 1.22912
 N174 N 0.25126 0.80574 1.17136
 N175 N 0.24742 0.83124 1.19253
 C176 C 0.26704 0.85769 1.18101
 C177 C 0.28378 0.84825 1.15133
 C178 C 0.27336 0.81531 1.14584
 H179 H 0.26888 0.88208 1.19310
 H180 H 0.28111 0.79968 1.12466
 H181 H 0.19255 0.79472 1.20011
 H182 H 0.22930 0.77903 1.22799
 N183 N 0.81100 1.17245 1.26532
 N184 N 0.83844 1.19156 1.25751
 C185 C 0.86311 1.18803 1.28272
 C186 C 0.85021 1.16562 1.30745
 C187 C 0.81727 1.15601 1.29564
 H188 H 0.88900 1.19960 1.28231
 H189 H 0.79983 1.13735 1.30735
 Cu190 Cu 0.84052 1.21628 1.21339
 Cu191 Cu 0.77101 1.16754 1.23358
 Cu192 Cu 0.76401 1.23360 1.17372
 N193 N 0.83834 1.24485 1.17185
 N194 N 0.80830 1.25196 1.15657
 C195 C 0.81404 1.27408 1.13015
 C196 C 0.84957 1.28073 1.12879
 C197 C 0.86427 1.26201 1.15556
 H198 H 0.79383 1.28515 1.11390
 H199 H 0.89158 1.26191 1.16334
 N200 N 0.72482 1.20221 1.18486
 N201 N 0.72777 1.17656 1.20699
 C202 C 0.69810 1.15763 1.20586
 C203 C 0.67551 1.17214 1.18195
 C204 C 0.69320 1.20017 1.16892
 H205 H 0.69406 1.13397 1.21977
 H206 H 0.68474 1.21638 1.14762
 H207 H 0.78836 1.19016 1.18680
 H208 H 0.77779 1.21726 1.22428
 O209 O 0.52015 0.97209 0.94937
 O210 O 0.45698 0.96926 1.04682
 O211 O 0.55978 1.00522 1.03966
 O212 O 0.41423 1.00252 0.97621
 O213 O 0.51945 0.96885 1.04994
 O214 O 0.45376 0.96850 0.95894
 O215 O 0.41730 1.00513 1.03907
 O216 O 0.56080 1.00251 0.97584
 C217 C 0.55159 0.97751 0.95765
 C218 C 0.42555 0.97571 1.04699
 C219 C 0.55101 0.97542 1.04660
 C220 C 0.42257 0.97396 0.96542
 O221 O 0.44959 1.03053 0.93283
 O222 O 0.52108 1.03224 1.07668
 O223 O 0.54292 1.06560 0.96973
 O224 O 0.44901 1.06702 1.03438
 O225 O 0.45796 1.03190 1.07598
 O226 O 0.51461 1.03565 0.93019
 O227 O 0.44184 1.06645 0.97226
 O228 O 0.53463 1.06751 1.03542
 Co229 Co 0.48461 1.00311 0.94889
 Co230 Co 0.48869 1.00206 1.05760
 Co231 Co 0.54363 1.03380 1.00545
 Co232 Co 0.43537 1.03376 1.00545
 O233 O 0.48833 1.01808 1.00401
 C234 C 0.44080 1.05938 0.94106
 C235 C 0.53234 1.06101 1.06711
 C236 C 0.53399 1.06062 0.93867
 C237 C 0.45065 1.06118 1.06610
 O238 O 0.03234 0.45848 0.06536
 O239 O 0.02940 0.52394 -0.07951
 O240 O 0.06679 0.45627 -0.03768
 O241 O 0.06592 0.54747 0.02638
 O242 O 0.02858 0.46318 -0.07799
 O243 O 0.03545 0.52107 0.06685
 O244 O 0.06676 0.53811 -0.03919
 O245 O 0.06864 0.45030 0.02492
 C246 C 0.06223 0.45024 0.05639
 C247 C 0.05951 0.53482 -0.07068
 C248 C 0.05926 0.45620 -0.06915
 C249 C 0.06097 0.53992 0.05774
 O250 O -0.03080 0.52461 0.04889
 O251 O -0.03529 0.46252 -0.04714
 O252 O 0.00295 0.42271 0.02387
 O253 O 0.00203 0.56185 -0.04286
 O254 O -0.03595 0.52286 -0.05102
 O255 O -0.03315 0.46011 0.04095
 O256 O -0.00006 0.56360 0.02100
 O257 O 0.00274 0.42489 -0.03894
 Co258 Co 0.00223 0.49099 0.04944
 Co259 Co -0.00162 0.49313 -0.05919
 Co260 Co 0.03367 0.44310 -0.00703
 Co261 Co 0.03223 0.54706 -0.00881
 O262 O 0.01651 0.49376 -0.00604
 C263 C -0.02559 0.55480 0.03988
 C264 C -0.02819 0.43228 -0.04593
 C265 C -0.02669 0.43010 0.03513
 C266 C -0.02904 0.55333 -0.04893
 O267 O 1.03969 0.02995 0.45962
 O268 O 0.92519 0.01841 0.53329
 O269 O 0.97862 0.03500 0.45089
 O270 O 1.02278 0.00495 0.56773
 O271 O 0.92657 0.02035 0.46680
 O272 O 1.03709 0.03663 0.52309
 O273 O 0.96001 -0.00503 0.57294
 O274 O 1.01886 0.00507 0.41288
 C275 C 1.04241 0.02552 0.42693
 C276 C 0.93671 0.01603 0.56424
 C277 C 0.94690 0.04114 0.45202
 C278 C 1.03333 0.03307 0.55528
 O279 O 1.06451 -0.02255 0.53351
 O280 O 0.92615 -0.04727 0.46784
 O281 O 1.00944 -0.05076 0.44502
 O282 O 0.96699 -0.06886 0.55092
 O283 O 0.91992 -0.04586 0.53250
 O284 O 1.05714 -0.03529 0.47059
 O285 O 1.02667 -0.06036 0.54092
 O286 O 0.95521 -0.02201 0.42718
 Co287 Co 1.04371 0.00025 0.49692
 Co288 Co 0.93045 -0.01355 0.49974
 Co289 Co 0.99460 -0.00831 0.45075
 Co290 Co 0.99425 -0.03089 0.55371
 O291 O 0.98785 -0.01458 0.50218
 C292 C 1.05748 -0.05168 0.54343
 C293 C 0.93348 -0.04434 0.43634
 C294 C 1.04064 -0.05609 0.45190
 C295 C 0.93466 -0.06887 0.54919
 C296 C 1.10424 0.09325 0.36366
 C297 C 1.10489 0.09624 0.39993
 C298 C 1.08505 0.07391 0.42059
 C299 C 1.14193 0.13507 0.32430
 C300 C 1.06399 0.04535 0.36871
 C301 C 1.08386 0.06770 0.34810
 C302 C 1.12467 0.11621 0.34239
 C303 C 1.06427 0.04835 0.40515
 H304 H 1.12065 0.11587 0.41224
 H305 H 1.08576 0.07683 0.44859
 H306 H 1.04829 0.02588 0.35612
 H307 H 1.08328 0.06511 0.32004
 C308 C 0.88506 -0.10842 0.35948
 C309 C 0.91031 -0.08414 0.34975
 C310 C 0.92601 -0.06334 0.37479
 C311 C 0.85432 -0.14529 0.31049
 C312 C 0.89136 -0.09112 0.41965
 C313 C 0.87563 -0.11192 0.39448
 C314 C 0.86833 -0.12896 0.33321
 C315 C 0.91665 -0.06650 0.41002
 H316 H 0.91773 -0.08114 0.32274
 H317 H 0.94543 -0.04473 0.36650
 H318 H 0.88367 -0.09421 0.44657
 H319 H 0.85602 -0.13058 0.40228
 C320 C 0.89657 0.08062 0.64192
 C321 C 0.88346 0.08222 0.60770
 C322 C 0.89661 0.06132 0.58236
 C323 C 0.86802 0.11715 0.69029
 C324 C 0.93634 0.03728 0.62540
 C325 C 0.92314 0.05823 0.65069
 C326 C 0.88158 0.10085 0.66828
 C327 C 0.92304 0.03843 0.59098
 H328 H 0.86279 0.09937 0.60068
 H329 H 0.88589 0.06293 0.55611
 H330 H 0.95680 0.02007 0.63285
 H331 H 0.93338 0.05671 0.67715
 C332 C 1.12536 -0.11081 0.60801
 C333 C 1.09429 -0.12503 0.59451
 C334 C 1.07314 -0.10631 0.57184
 C335 C 1.15766 -0.14315 0.65948
 C336 C 1.11497 -0.05951 0.57454
 C337 C 1.13608 -0.07829 0.59742
 C338 C 1.14395 -0.12840 0.63539
 C339 C 1.08279 -0.07304 0.56238
 H340 H 1.08566 -0.15010 0.60264
 H341 H 1.04852 -0.11739 0.56284
 H342 H 1.12293 -0.03390 0.56779
 H343 H 1.15999 -0.06697 0.60789
 C344 C 0.40562 1.13163 1.13427
 C345 C 0.41636 1.10036 1.14744
 C346 C 0.43319 1.07804 1.12585
 C347 C 0.36083 1.16696 1.16938
 C348 C 0.43019 1.11899 1.07838
 C349 C 0.41345 1.14125 1.10001
 C350 C 0.38238 1.15161 1.15399
 C351 C 0.43911 1.08670 1.09073
 H352 H 0.41019 1.09256 1.17386
 H353 H 0.43981 1.05338 1.13607
 H354 H 0.43457 1.12645 1.05150
 H355 H 0.40505 1.16527 1.08945
 C356 C 0.34359 0.90361 0.93005
 C357 C 0.33389 0.93325 0.94618
 C358 C 0.35957 0.95554 0.95933
 C359 C 0.29692 0.86653 0.89537
 C360 C 0.40461 0.91781 0.94153
 C361 C 0.37893 0.89560 0.92847
 C362 C 0.31783 0.88307 0.91206
 C363 C 0.39525 0.94848 0.95621
 H364 H 0.30659 0.93973 0.94747
 H365 H 0.35155 0.97884 0.97069
 H366 H 0.43183 0.91154 0.93890
 H367 H 0.38673 0.87277 0.91596
 C368 C 0.62827 0.90319 1.07523
 C369 C 0.63853 0.93480 1.06175
 C370 C 0.61333 0.95800 1.05147
 C371 C 0.67589 0.86363 1.10350
 C372 C 0.56742 0.91755 1.06694
 C373 C 0.59269 0.89441 1.07731
 C374 C 0.65412 0.88110 1.08980
 C375 C 0.57752 0.94985 1.05463
 H376 H 0.66601 0.94188 1.06015
 H377 H 0.62188 0.98259 1.04186
 H378 H 0.54003 0.91052 1.06951
 H379 H 0.58447 0.87006 1.08786
 C380 C 0.58873 1.12371 0.86583
 C381 C 0.58093 1.13577 0.89873
 C382 C 0.56085 1.11606 0.92159
 C383 C 0.64062 1.15379 0.83208
 C384 C 0.55387 1.07302 0.87779
 C385 C 0.57432 1.09276 0.85495
 C386 C 0.61583 1.14054 0.84617
 C387 C 0.54824 1.08395 0.91184
 H388 H 0.59213 1.15954 0.90751
 H389 H 0.55670 1.12520 0.94759
 H390 H 0.54462 1.04833 0.86971
 H391 H 0.58051 1.08304 0.82965
 C392 C 0.13120 0.39866 0.12710
 C393 C 0.14175 0.40638 0.09311
 C394 C 0.12007 0.42480 0.07061
 C395 C 0.16673 0.35422 0.16458
 C396 C 0.07782 0.42932 0.11656
 C397 C 0.09956 0.41081 0.13903
 C398 C 0.15097 0.37530 0.14815
 C399 C 0.08740 0.43564 0.08179
 H400 H 0.16610 0.39700 0.08353
 H401 H 0.12825 0.42934 0.04402
 H402 H 0.05285 0.43736 0.12593
 H403 H 0.09104 0.40484 0.16525
 C404 C -0.09905 0.35603 -0.08478
 C405 C -0.10860 0.38985 -0.08617
 C406 C -0.08626 0.41474 -0.07208
 C407 C -0.13586 0.30913 -0.11827
 C408 C -0.04533 0.37183 -0.05422
 C409 C -0.06772 0.34704 -0.06816
 C410 C -0.11982 0.33074 -0.10260
 C411 C -0.05400 0.40601 -0.05672
 H412 H -0.13276 0.39710 -0.09905
 H413 H -0.09361 0.44086 -0.07440
 H414 H -0.02075 0.36433 -0.04239
 H415 H -0.06004 0.32096 -0.06695
 C416 C 0.12654 0.58957 -0.14019
 C417 C 0.13965 0.57778 -0.10813
 C418 C 0.11859 0.55758 -0.08653
 C419 C 0.16000 0.64058 -0.17089
 C420 C 0.07202 0.55865 -0.13014
 C421 C 0.09311 0.57910 -0.15168
 C422 C 0.14513 0.61637 -0.15818
 C423 C 0.08406 0.54897 -0.09671
 H424 H 0.16538 0.58588 -0.09888
 H425 H 0.12864 0.55033 -0.06100
 H426 H 0.04551 0.55248 -0.13861
 H427 H 0.08259 0.58832 -0.17633
 C428 C -0.09167 0.63098 0.07891
 C429 C -0.09730 0.59721 0.08873
 C430 C -0.07635 0.57226 0.07540
 C431 C -0.12777 0.67865 0.10802
 C432 C -0.04446 0.61477 0.04181
 C433 C -0.06549 0.63965 0.05512
 C434 C -0.11163 0.65687 0.09445
 C435 C -0.04936 0.58082 0.05215
 H436 H -0.11748 0.59023 0.10716
 H437 H -0.08085 0.54638 0.08386
 H438 H -0.02399 0.62222 0.02391
 H439 H -0.06091 0.66572 0.04733
 C440 C 1.07767 0.10618 0.62503
 C441 C 1.08007 0.11136 0.58899
 C442 C 1.06404 0.08849 0.56610
 C443 C 1.11548 0.14430 0.66794
 C444 C 1.04194 0.05585 0.61531
 C445 C 1.05795 0.07879 0.63814
 C446 C 1.09769 0.12734 0.64845
 C447 C 1.04558 0.05999 0.57905
 H448 H 1.09533 0.13245 0.57857
 H449 H 1.06735 0.09236 0.53834
 H450 H 1.02780 0.03424 0.62610
 H451 H 1.05593 0.07453 0.66600
 C452 C 0.87524 -0.13233 0.61867
 C453 C 0.85806 -0.11041 0.59555
 C454 C 0.87717 -0.09130 0.57116
 C455 C 0.84190 -0.15962 0.67241
 C456 C 0.93053 -0.11730 0.59177
 C457 C 0.91137 -0.13637 0.61611
 C458 C 0.85664 -0.14786 0.64729
 C459 C 0.91378 -0.09377 0.56975
 H460 H 0.83014 -0.10697 0.59738
 H461 H 0.86350 -0.07339 0.55465
 H462 H 0.95867 -0.11974 0.59142
 H463 H 0.92497 -0.15316 0.63396
 C464 C 1.09628 -0.12699 0.39295
 C465 C 1.05991 -0.12510 0.38909
 C466 C 1.04125 -0.10373 0.41014
 C467 C 1.13231 -0.15801 0.34539
 C468 C 1.09509 -0.08745 0.44032
 C469 C 1.11369 -0.10885 0.41923
 C470 C 1.11597 -0.14459 0.36765
 C471 C 1.05884 -0.08382 0.43518
 H472 H 1.04619 -0.13894 0.36875
 H473 H 1.01339 -0.10142 0.40548
 H474 H 1.10936 -0.07242 0.45935
 H475 H 1.14184 -0.11005 0.42239
 C476 C 0.90157 0.11720 0.38672
 C477 C 0.88155 0.10097 0.41245
 C478 C 0.89692 0.07774 0.43535
 C479 C 0.86911 0.15062 0.33614
 C480 C 0.95300 0.08829 0.40816
 C481 C 0.93750 0.11147 0.38516
 C482 C 0.88437 0.13639 0.35962
 C483 C 0.93256 0.07036 0.43271
 H484 H 0.85370 0.10508 0.41377
 H485 H 0.88054 0.06440 0.45403
 H486 H 0.98047 0.08303 0.40539
 H487 H 0.95320 0.12373 0.36519
 C488 C 0.12569 0.40568 -0.13857
 C489 C 0.13785 0.41375 -0.10509
 C490 C 0.11715 0.43230 -0.08314
 C491 C 0.15762 0.35898 -0.17345
 C492 C 0.07291 0.43656 -0.12889
 C493 C 0.09365 0.41792 -0.15079
 C494 C 0.14371 0.38121 -0.15829
 C495 C 0.08391 0.44283 -0.09441
 H496 H 0.16252 0.40424 -0.09530
 H497 H 0.12638 0.43685 -0.05676
 H498 H 0.04748 0.44441 -0.13831
 H499 H 0.08389 0.41164 -0.17659
 C500 C -0.09650 0.35196 0.07235
 C501 C -0.06603 0.34363 0.05508
 C502 C -0.04396 0.36905 0.04158
 C503 C -0.13255 0.30527 0.10723
 C504 C -0.08356 0.41120 0.06137
 C505 C -0.10556 0.38574 0.07485
 C506 C -0.11661 0.32629 0.09048
 C507 C -0.05207 0.40315 0.04537
 H508 H -0.05870 0.31755 0.05310
 H509 H -0.01999 0.36205 0.02926
 H510 H -0.09061 0.43719 0.06461
 H511 H -0.12901 0.39247 0.08830
 C512 C -0.10340 0.62765 -0.07978
 C513 C -0.07062 0.63754 -0.06622
 C514 C -0.04682 0.61330 -0.05516
 C515 C -0.14327 0.67379 -0.10946
 C516 C -0.08903 0.56907 -0.06993
 C517 C -0.11278 0.59339 -0.08112
 C518 C -0.12586 0.65257 -0.09518
 C519 C -0.05551 0.57880 -0.05757
 H520 H -0.06303 0.66398 -0.06519
 H521 H -0.02129 0.62156 -0.04557
 H522 H -0.09649 0.54268 -0.07197
 H523 H -0.13803 0.58546 -0.09173
 C524 C 0.12447 0.59457 0.13106
 C525 C 0.13627 0.58988 0.09726
 C526 C 0.11654 0.57030 0.07400
 C527 C 0.15561 0.64267 0.16765
 C528 C 0.07405 0.55809 0.11895
 C529 C 0.09379 0.57798 0.14220
 C530 C 0.14159 0.61977 0.15219
 C531 C 0.08466 0.55508 0.08425
 H532 H 0.15986 0.60274 0.08832
 H533 H 0.12549 0.56829 0.04751
 H534 H 0.04954 0.54678 0.12750
 H535 H 0.08428 0.58169 0.16825
 C536 C 0.38420 1.12339 0.87031
 C537 C 0.39405 1.13483 0.90340
 C538 C 0.41403 1.11464 0.92581
 C539 C 0.33795 1.15802 0.83340
 C540 C 0.41583 1.07197 0.88151
 C541 C 0.39571 1.09222 0.85913
 C542 C 0.35971 1.14232 0.84943
 C543 C 0.42437 1.08261 0.91545
 H544 H 0.38522 1.15886 0.91237
 H545 H 0.42027 1.12359 0.95174
 H546 H 0.42341 1.04744 0.87281
 H547 H 0.38812 1.08305 0.83360
 C548 C 0.35101 0.90690 1.09346
 C549 C 0.33999 0.93751 1.07892
 C550 C 0.36400 0.95936 1.06246
 C551 C 0.30721 0.86860 1.13039
 C552 C 0.40998 0.91951 1.07393
 C553 C 0.38592 0.89771 1.09038
 C554 C 0.32703 0.88586 1.11318
 C555 C 0.39941 0.95091 1.06048
 H556 H 0.31303 0.94488 1.08110
 H557 H 0.35506 0.98329 1.05221
 H558 H 0.43705 0.91228 1.07276
 H559 H 0.39476 0.87407 1.10149
 C560 C 0.59173 1.12519 1.13519
 C561 C 0.57909 1.09389 1.14755
 C562 C 0.55727 1.07383 1.12634
 C563 C 0.64437 1.15666 1.16734
 C564 C 0.55915 1.11722 1.08118
 C565 C 0.58078 1.13725 1.10244
 C566 C 0.61950 1.14278 1.15362
 C567 C 0.54827 1.08477 1.09239
 H568 H 0.58759 1.08422 1.17278
 H569 H 0.54937 1.04894 1.13565
 H570 H 0.55253 1.12640 1.05522
 H571 H 0.59049 1.16136 1.09254
 C572 C 0.62975 0.91227 0.91922
 C573 C 0.59446 0.90671 0.91038
 C574 C 0.56897 0.92753 0.92341
 C575 C 0.67786 0.87548 0.89033
 C576 C 0.61394 0.95935 0.95473
 C577 C 0.63940 0.93843 0.94169
 C578 C 0.65605 0.89205 0.90394
 C579 C 0.57845 0.95436 0.94542
 H580 H 0.58668 0.88659 0.89296
 H581 H 0.54191 0.92295 0.91575
 H582 H 0.62212 0.97969 0.97168
 H583 H 0.66665 0.94299 0.94870
   
