data_POSCAR
  _audit_creation_date              2014-09-24
  _audit_creation_method            'ToBaCCo'
  _symmetry_space_group_name_H-M    'P1'
  _symmetry_Int_Tables_number       1
  _symmetry_cell_setting            triclinic
  loop_
  _symmetry_equiv_pos_as_xyz
 x,y,z
_cell_length_a 59.1443
_cell_length_b 60.0488
_cell_length_c 32.0548
_cell_angle_alpha 90.118600
_cell_angle_beta 89.865600
_cell_angle_gamma 119.911200
loop_
  _atom_site_label
  _atom_site_type_symbol
  _atom_site_fract_x
  _atom_site_fract_y
  _atom_site_fract_z
O1 O -0.00776 0.53370 -0.08066
 O2 O 0.04103 0.51591 -0.05035
 O3 O -0.00436 0.49229 -0.08609
 O4 O 0.03775 0.55739 -0.04373
 O5 O 0.01941 0.54409 0.01810
 O6 O -0.02439 0.47983 -0.02527
 O7 O 0.02110 0.50184 0.01026
 O8 O -0.02625 0.52211 -0.01859
 Cu9 Cu 0.01858 0.52620 -0.07136
 Cu10 Cu -0.00447 0.51077 0.00232
 C11 C -0.02538 0.53084 -0.05496
 C12 C 0.03919 0.50555 -0.01511
 C13 C -0.02165 0.47499 -0.06297
 C14 C 0.03611 0.56165 -0.00534
 O15 O 0.53567 0.51764 -0.04357
 O16 O 0.47290 0.48917 0.01223
 O17 O 0.49648 0.47170 -0.03519
 O18 O 0.51224 0.53576 0.00281
 O19 O 0.49444 0.54150 -0.05368
 O20 O 0.47646 0.47646 -0.08959
 O21 O 0.45465 0.49605 -0.04259
 O22 O 0.51690 0.52222 -0.09984
 Cu23 Cu 0.50616 0.50306 -0.01026
 Cu24 Cu 0.48376 0.50958 -0.07706
 C25 C 0.53689 0.52440 -0.08140
 C26 C 0.45319 0.48808 -0.00546
 C27 C 0.48373 0.46313 -0.06891
 C28 C 0.50611 0.54957 -0.01909
 O29 O 0.52715 1.00374 0.11197
 O30 O 0.50637 1.04783 0.06937
 O31 O 0.48388 1.00540 0.11214
 O32 O 0.54994 1.04681 0.07076
 O33 O 0.53878 1.02478 0.01186
 O34 O 0.47226 0.98373 0.05288
 O35 O 0.49595 1.02626 0.00997
 O36 O 0.51501 0.98139 0.05339
 Cu37 Cu 0.51797 1.02812 0.09700
 Cu38 Cu 0.50437 1.00176 0.02617
 C39 C 0.52432 0.98488 0.09002
 C40 C 0.49799 1.04472 0.03215
 C41 C 0.46680 0.98759 0.08961
 C42 C 0.55559 1.04309 0.03416
 O43 O 1.03324 0.53417 0.49957
 O44 O 0.98650 0.47179 0.54666
 O45 O 1.03082 0.49002 0.50647
 O46 O 0.99025 0.51684 0.54164
 O47 O 0.96874 0.50564 0.48199
 O48 O 1.00824 0.47671 0.44799
 O49 O 0.96407 0.46043 0.48787
 O50 O 1.01204 0.52132 0.43976
 Cu51 Cu 1.01235 0.50431 0.52959
 Cu52 Cu 0.98602 0.48977 0.45849
 C53 C 1.03074 0.53811 0.46136
 C54 C 0.96705 0.45569 0.52532
 C55 C 1.02675 0.47908 0.47119
 C56 C 0.97274 0.51599 0.51789
 O57 O 0.42509 0.48046 0.54911
 O58 O 0.49147 0.50738 0.59153
 O59 O 0.46675 0.52542 0.54778
 O60 O 0.44960 0.46257 0.59281
 O61 O 0.46242 0.45222 0.53479
 O62 O 0.47988 0.51527 0.48988
 O63 O 0.50411 0.49713 0.53321
 O64 O 0.43781 0.47022 0.49089
 Cu65 Cu 0.45698 0.49504 0.57613
 Cu66 Cu 0.47226 0.48263 0.50630
 C67 C 0.42020 0.47092 0.51267
 C68 C 0.50902 0.50663 0.56971
 C69 C 0.47616 0.53102 0.51119
 C70 C 0.45333 0.44681 0.57165
 O71 O 0.55377 0.03022 0.51883
 O72 O 0.49210 -0.00544 0.46101
 O73 O 0.51031 0.03137 0.51677
 O74 O 0.53535 -0.00645 0.46358
 O75 O 0.51890 -0.03542 0.51375
 O76 O 0.49508 0.00293 0.56785
 O77 O 0.47583 -0.03386 0.51202
 O78 O 0.53804 0.00123 0.56906
 Cu79 Cu 0.52445 0.01536 0.48503
 Cu80 Cu 0.50529 -0.01917 0.54574
 C81 C 0.55646 0.02178 0.55369
 C82 C 0.47357 -0.02587 0.47645
 C83 C 0.49879 0.02376 0.55170
 C84 C 0.53114 -0.02755 0.47943
 C85 C 0.20743 0.42969 0.24036
 C86 C 0.21055 0.43412 0.19854
 C87 C 0.19031 0.43548 0.17313
 C88 C 0.23557 0.44114 0.17758
 C89 C 0.22727 0.42778 0.26607
 C90 C 0.18535 0.42943 0.26273
 C91 C 0.16442 0.41513 0.17306
 C92 C 0.14500 0.41766 0.15257
 C93 C 0.15118 0.44032 0.13101
 C94 C 0.17731 0.46033 0.12983
 C95 C 0.19667 0.45786 0.15060
 C96 C 0.23678 0.42502 0.14704
 C97 C 0.26025 0.43218 0.12624
 C98 C 0.28262 0.45589 0.13503
 C99 C 0.28120 0.47211 0.16518
 C100 C 0.25794 0.46466 0.18669
 C101 C 0.23743 0.44320 0.30173
 C102 C 0.25681 0.44235 0.32529
 C103 C 0.26627 0.42585 0.31382
 C104 C 0.25588 0.41023 0.27842
 C105 C 0.23636 0.41097 0.25499
 C106 C 0.18432 0.45217 0.26659
 C107 C 0.16348 0.45209 0.28726
 C108 C 0.14319 0.42918 0.30402
 C109 C 0.14410 0.40637 0.29972
 C110 C 0.16530 0.40658 0.27982
 H111 H 0.15917 0.39753 0.18971
 H112 H 0.12503 0.40200 0.15397
 H113 H 0.18276 0.47834 0.11447
 H114 H 0.21647 0.47386 0.15044
 H115 H 0.21956 0.40695 0.13938
 H116 H 0.26070 0.41957 0.10247
 H117 H 0.25718 0.47745 0.20982
 H118 H 0.23088 0.45644 0.31074
 H119 H 0.26485 0.45526 0.35159
 H120 H 0.26290 0.39744 0.26886
 H121 H 0.22847 0.39856 0.22804
 H122 H 0.19967 0.46995 0.25351
 H123 H 0.16299 0.46985 0.28941
 H124 H 0.12858 0.38850 0.31222
 H125 H 0.16586 0.38888 0.27699
 H126 H 0.29815 0.49055 0.17213
 C127 C 0.54582 0.76447 0.27877
 C128 C 0.54580 0.76669 0.23654
 C129 C 0.54789 0.74805 0.20860
 C130 C 0.54134 0.78648 0.21689
 C131 C 0.54613 0.78427 0.30693
 C132 C 0.54343 0.74112 0.29863
 C133 C 0.56841 0.74285 0.21323
 C134 C 0.56910 0.72373 0.18932
 C135 C 0.54958 0.70976 0.15977
 C136 C 0.52946 0.71557 0.15422
 C137 C 0.52874 0.73464 0.17830
 C138 C 0.56112 0.80653 0.19369
 C139 C 0.55695 0.82550 0.17610
 C140 C 0.53268 0.82425 0.18067
 C141 C 0.51272 0.80374 0.20289
 C142 C 0.51710 0.78517 0.22130
 C143 C 0.52723 0.77713 0.33837
 C144 C 0.52707 0.79570 0.36443
 C145 C 0.54570 0.82176 0.35945
 C146 C 0.56515 0.82883 0.32877
 C147 C 0.56538 0.81021 0.30286
 C148 C 0.52054 0.71736 0.29358
 C149 C 0.51775 0.69550 0.31364
 C150 C 0.53795 0.69704 0.33871
 C151 C 0.56105 0.72071 0.34298
 C152 C 0.56360 0.74272 0.32365
 H153 H 0.58363 0.75328 0.23598
 H154 H 0.58477 0.71964 0.19425
 H155 H 0.51369 0.70486 0.13256
 H156 H 0.51268 0.73827 0.17435
 H157 H 0.57986 0.80766 0.18979
 H158 H 0.57248 0.84082 0.15833
 H159 H 0.50157 0.76965 0.23881
 H160 H 0.51231 0.75720 0.34230
 H161 H 0.51205 0.78975 0.38810
 H162 H 0.58041 0.84859 0.32499
 H163 H 0.58064 0.81602 0.27967
 H164 H 0.50476 0.71587 0.27448
 H165 H 0.49993 0.67737 0.30919
 H166 H 0.57688 0.72225 0.36200
 H167 H 0.58135 0.76095 0.32788
 H168 H 0.49381 0.80230 0.20648
 C169 C 0.23003 0.77734 0.28780
 C170 C 0.22791 0.77602 0.24535
 C171 C 0.24707 0.79698 0.21809
 C172 C 0.20681 0.75287 0.22420
 C173 C 0.20962 0.75714 0.31439
 C174 C 0.25298 0.79810 0.31006
 C175 C 0.25378 0.82267 0.22491
 C176 C 0.27334 0.84234 0.20108
 C177 C 0.28632 0.83659 0.16969
 C178 C 0.27846 0.81080 0.16131
 C179 C 0.25908 0.79117 0.18535
 C180 C 0.19060 0.75536 0.19492
 C181 C 0.17066 0.73363 0.17513
 C182 C 0.16670 0.70903 0.18430
 C183 C 0.18310 0.70664 0.21326
 C184 C 0.20323 0.72835 0.23247
 C185 C 0.21556 0.74117 0.33817
 C186 C 0.19615 0.72113 0.36147
 C187 C 0.17067 0.71722 0.36215
 C188 C 0.16504 0.73395 0.33992
 C189 C 0.18433 0.75363 0.31571
 C190 C 0.27859 0.80473 0.29892
 C191 C 0.29986 0.82351 0.32135
 C192 C 0.29585 0.83559 0.35593
 C193 C 0.27029 0.82857 0.36755
 C194 C 0.24908 0.81014 0.34472
 H195 H 0.24418 0.82750 0.24918
 H196 H 0.27821 0.86194 0.20734
 H197 H 0.28795 0.80586 0.13697
 H198 H 0.25401 0.77148 0.17922
 H199 H 0.19315 0.77411 0.18786
 H200 H 0.15806 0.73610 0.15352
 H201 H 0.21603 0.72602 0.25387
 H202 H 0.23506 0.74380 0.33767
 H203 H 0.20101 0.70869 0.37900
 H204 H 0.14553 0.73129 0.34031
 H205 H 0.17957 0.76602 0.29781
 H206 H 0.28212 0.79504 0.27335
 H207 H 0.31931 0.82790 0.31242
 H208 H 0.26672 0.83741 0.39435
 H209 H 0.22953 0.80514 0.35428
 H210 H 0.18051 0.68791 0.22070
 C211 C 0.77003 0.55144 0.72531
 C212 C 0.76637 0.55039 0.68308
 C213 C 0.78596 0.55068 0.65351
 C214 C 0.74209 0.54767 0.66448
 C215 C 0.75162 0.55343 0.75486
 C216 C 0.79183 0.54921 0.74403
 C217 C 0.81231 0.56990 0.65569
 C218 C 0.83086 0.56869 0.63014
 C219 C 0.82331 0.54829 0.60172
 C220 C 0.79675 0.52999 0.59790
 C221 C 0.77824 0.53113 0.62359
 C222 C 0.74362 0.56415 0.63223
 C223 C 0.72091 0.56198 0.61503
 C224 C 0.69634 0.54352 0.63012
 C225 C 0.69478 0.52649 0.66150
 C226 C 0.71745 0.52836 0.67815
 C227 C 0.74104 0.53605 0.78815
 C228 C 0.72227 0.53638 0.81426
 C229 C 0.71353 0.55390 0.80737
 C230 C 0.72498 0.57213 0.77526
 C231 C 0.74406 0.57203 0.74949
 C232 C 0.79600 0.52889 0.73293
 C233 C 0.81698 0.52739 0.74957
 C234 C 0.83364 0.54559 0.77875
 C235 C 0.82903 0.56551 0.79088
 C236 C 0.80827 0.56726 0.77365
 H237 H 0.81856 0.58556 0.67776
 H238 H 0.85101 0.58371 0.63285
 H239 H 0.79039 0.51427 0.57592
 H240 H 0.75798 0.51625 0.62108
 H241 H 0.76242 0.57891 0.62077
 H242 H 0.72253 0.57503 0.59042
 H243 H 0.71579 0.51481 0.70187
 H244 H 0.74672 0.52169 0.79318
 H245 H 0.71395 0.52236 0.83911
 H246 H 0.71933 0.58648 0.77004
 H247 H 0.75254 0.58614 0.72479
 H248 H 0.78313 0.51431 0.71107
 H249 H 0.82011 0.51184 0.73987
 H250 H 0.84182 0.58012 0.81274
 H251 H 0.80529 0.58298 0.78285
 H252 H 0.67608 0.51143 0.67267
 C253 C 0.47434 0.23289 0.77816
 C254 C 0.46996 0.22999 0.73629
 C255 C 0.46644 0.24904 0.71180
 C256 C 0.46967 0.20851 0.71264
 C257 C 0.47709 0.21380 0.80348
 C258 C 0.47836 0.25627 0.80005
 C259 C 0.44649 0.25438 0.72165
 C260 C 0.44384 0.27287 0.69916
 C261 C 0.46107 0.28626 0.66620
 C262 C 0.48037 0.28015 0.65550
 C263 C 0.48307 0.26174 0.67811
 C264 C 0.44922 0.19390 0.68479
 C265 C 0.44922 0.17426 0.66126
 C266 C 0.46945 0.16867 0.66566
 C267 C 0.49016 0.18359 0.69292
 C268 C 0.49043 0.20355 0.71572
 C269 C 0.50140 0.22040 0.82079
 C270 C 0.50483 0.20205 0.84209
 C271 C 0.48378 0.17714 0.84788
 C272 C 0.45917 0.17075 0.83183
 C273 C 0.45592 0.18893 0.80938
 C274 C 0.50133 0.27975 0.79371
 C275 C 0.50496 0.30192 0.81396
 C276 C 0.48540 0.30100 0.83995
 C277 C 0.46248 0.27738 0.84656
 C278 C 0.45914 0.25509 0.82708
 H279 H 0.43294 0.24417 0.74671
 H280 H 0.42810 0.27629 0.70740
 H281 H 0.49370 0.28996 0.62998
 H282 H 0.49841 0.25769 0.66974
 H283 H 0.43326 0.19772 0.68127
 H284 H 0.43328 0.16323 0.63994
 H285 H 0.50710 0.21538 0.73523
 H286 H 0.51794 0.23950 0.81642
 H287 H 0.52397 0.20728 0.85405
 H288 H 0.44274 0.15151 0.83541
 H289 H 0.43703 0.18358 0.79622
 H290 H 0.51640 0.28085 0.77310
 H291 H 0.52283 0.31991 0.80872
 H292 H 0.44734 0.27610 0.86715
 H293 H 0.44139 0.23702 0.83242
 H294 H 0.50652 0.18032 0.69574
 C295 C 0.77982 0.22620 0.79562
 C296 C 0.78430 0.22684 0.75371
 C297 C 0.76642 0.20601 0.72491
 C298 C 0.80632 0.24978 0.73416
 C299 C 0.79833 0.24732 0.82342
 C300 C 0.75562 0.20551 0.81512
 C301 C 0.75819 0.18006 0.73297
 C302 C 0.73986 0.16072 0.70700
 C303 C 0.72981 0.16709 0.67214
 C304 C 0.73912 0.19306 0.66299
 C305 C 0.75713 0.21230 0.68915
 C306 C 0.82693 0.24812 0.71570
 C307 C 0.84804 0.26993 0.69827
 C308 C 0.84837 0.29346 0.69789
 C309 C 0.82755 0.29501 0.71612
 C310 C 0.80671 0.27333 0.73418
 C311 C 0.78940 0.26067 0.84820
 C312 C 0.80702 0.28228 0.87098
 C313 C 0.83387 0.29107 0.86899
 C314 C 0.84267 0.27686 0.84607
 C315 C 0.82500 0.25503 0.82381
 C316 C 0.73092 0.19938 0.79991
 C317 C 0.70835 0.17934 0.81766
 C318 C 0.70999 0.16562 0.85178
 C319 C 0.73470 0.17217 0.86766
 C320 C 0.75730 0.19200 0.84952
 H321 H 0.76566 0.17477 0.75969
 H322 H 0.73376 0.14092 0.71421
 H323 H 0.73188 0.19848 0.63611
 H324 H 0.76326 0.23214 0.68202
 H325 H 0.82686 0.23005 0.71551
 H326 H 0.86395 0.26838 0.68453
 H327 H 0.79088 0.27487 0.74829
 H328 H 0.76889 0.25492 0.84870
 H329 H 0.79977 0.29274 0.88889
 H330 H 0.86316 0.28262 0.84517
 H331 H 0.83220 0.24451 0.80600
 H332 H 0.72913 0.20997 0.77405
 H333 H 0.68954 0.17469 0.80496
 H334 H 0.73669 0.16164 0.89338
 H335 H 0.77616 0.19652 0.86182
 H336 H 0.82756 0.31304 0.71705
 C337 C 0.05855 0.49807 -0.00395
 C338 C 0.05613 0.48384 0.03174
 C339 C 0.07601 0.47714 0.04350
 N340 N 0.07188 0.46153 0.07662
 N341 N 0.09000 0.45580 0.08823
 C342 C 0.11294 0.46552 0.06716
 N343 N 0.11707 0.48113 0.03404
 N344 N 0.09892 0.48679 0.02235
 C345 C 0.13366 0.46045 0.08079
 C346 C 0.12983 0.44320 0.11277
 H347 H 0.03918 0.47739 0.05167
 H348 H 0.15241 0.47084 0.06542
 H349 H 0.07503 0.50376 -0.02466
 H350 H 0.11036 0.43132 0.12521
 C351 C 0.51204 0.57511 -0.00436
 C352 C 0.52515 0.58555 0.03296
 C353 C 0.52892 0.61004 0.04947
 N354 N 0.54206 0.61957 0.08573
 N355 N 0.54480 0.64125 0.10186
 C356 C 0.53449 0.65419 0.08232
 N357 N 0.52144 0.64472 0.04598
 N358 N 0.51873 0.62306 0.02982
 C359 C 0.53624 0.67747 0.10072
 C360 C 0.54992 0.68829 0.13754
 H361 H 0.53230 0.57518 0.05121
 H362 H 0.52620 0.68593 0.08495
 H363 H 0.50528 0.58566 -0.02298
 H364 H 0.56141 0.68061 0.15096
 C365 C 0.44059 0.97130 0.10702
 C366 C 0.42120 0.95016 0.08568
 C367 C 0.39571 0.93286 0.10483
 N368 N 0.37840 0.91101 0.08482
 N369 N 0.35568 0.89467 0.10256
 C370 C 0.34940 0.89964 0.14093
 N371 N 0.36659 0.92162 0.16071
 N372 N 0.38932 0.93792 0.14303
 C373 C 0.32505 0.88123 0.16201
 C374 C 0.30840 0.85684 0.14576
 H375 H 0.42513 0.94556 0.05478
 H376 H 0.32140 0.88639 0.19264
 H377 H 0.43677 0.97566 0.13817
 H378 H 0.31335 0.85149 0.11626
 C379 C 0.95700 0.52704 0.53321
 C380 C 0.93486 0.52391 0.51267
 C381 C 0.91807 0.53294 0.53135
 N382 N 0.89471 0.52648 0.51384
 N383 N 0.87887 0.53356 0.53168
 C384 C 0.88588 0.54744 0.56763
 N385 N 0.90935 0.55414 0.58481
 N386 N 0.92513 0.54702 0.56706
 C387 C 0.86820 0.55430 0.58918
 C388 C 0.84249 0.54509 0.57642
 H389 H 0.92895 0.51347 0.48345
 H390 H 0.87516 0.56521 0.61779
 H391 H 0.96240 0.53688 0.56299
 H392 H 0.83543 0.53283 0.54913
 C393 C 0.44750 0.42232 0.59096
 C394 C 0.45413 0.40544 0.57199
 C395 C 0.45144 0.38266 0.59368
 N396 N 0.46044 0.36816 0.57545
 N397 N 0.45914 0.34811 0.59541
 C398 C 0.44878 0.34180 0.63437
 N399 N 0.43958 0.35617 0.65245
 N400 N 0.44090 0.37624 0.63252
 C401 C 0.44803 0.32030 0.65754
 C402 C 0.45947 0.30647 0.64213
 H403 H 0.46280 0.40971 0.54115
 H404 H 0.43949 0.31639 0.68841
 H405 H 0.43918 0.41825 0.62205
 H406 H 0.46929 0.31186 0.61219
 C407 C 0.58096 0.03605 0.57717
 C408 C 0.60190 0.05873 0.56197
 C409 C 0.62560 0.07457 0.58658
 N410 N 0.64470 0.09705 0.57064
 N411 N 0.66581 0.11224 0.59305
 C412 C 0.66866 0.10550 0.63229
 N413 N 0.64967 0.08289 0.64812
 N414 N 0.62852 0.06769 0.62570
 C415 C 0.69122 0.12283 0.65825
 C416 C 0.70952 0.14746 0.64477
 H417 H 0.60057 0.06569 0.53143
 H418 H 0.69216 0.11672 0.68960
 H419 H 0.58224 0.02890 0.60756
 H420 H 0.70727 0.15355 0.61401
 C421 C 0.49087 0.06294 1.01440
 C422 C 0.49148 0.06673 0.97145
 C423 C 0.48598 0.08580 0.95257
 N424 N 0.49596 0.09557 0.91447
 N425 N 0.49127 0.11289 0.89675
 C426 C 0.47611 0.12083 0.91624
 N427 N 0.46579 0.11078 0.95412
 N428 N 0.47078 0.09368 0.97212
 C429 C 0.47081 0.13987 0.89662
 C430 C 0.48837 0.15781 0.86841
 H431 H 0.49796 0.05661 0.95104
 H432 H 0.45363 0.14067 0.90603
 H433 H 0.48693 0.07479 1.03533
 H434 H 0.50698 0.15883 0.86321
 C435 C 0.56156 0.53445 0.89536
 C436 C 0.58347 0.53513 0.91286
 C437 C 0.60743 0.54249 0.88892
 N438 N 0.62687 0.53992 0.90642
 N439 N 0.64831 0.54551 0.88477
 C440 C 0.65116 0.55397 0.84480
 N441 N 0.63184 0.55681 0.82742
 N442 N 0.61035 0.55114 0.84904
 C443 C 0.67422 0.55912 0.81989
 C444 C 0.69235 0.55241 0.83398
 H445 H 0.58268 0.52888 0.94478
 H446 H 0.67578 0.56653 0.78863
 H447 H 0.56209 0.54030 0.86327
 H448 H 0.68936 0.54327 0.86417
 C449 C 0.96242 0.45055 0.92042
 C450 C 0.94231 0.43072 0.94320
 C451 C 0.92555 0.40501 0.92536
 N452 N 0.90405 0.38756 0.94644
 N453 N 0.88854 0.36428 0.93052
 C454 C 0.89407 0.35755 0.89299
 N455 N 0.91569 0.37491 0.87209
 N456 N 0.93113 0.39823 0.88792
 C457 C 0.87694 0.33212 0.87448
 C458 C 0.85220 0.31527 0.89041
 H459 H 0.93826 0.43420 0.97479
 H460 H 0.88337 0.32737 0.84588
 H461 H 0.96574 0.44707 0.88840
 H462 H 0.84506 0.32119 0.91693
 C463 C 0.53972 0.95775 0.45824
 C464 C 0.53487 0.93389 0.47291
 C465 C 0.54118 0.91701 0.44836
 N466 N 0.53386 0.89308 0.46254
 N467 N 0.53835 0.87708 0.43989
 C468 C 0.55037 0.88442 0.40220
 N469 N 0.55792 0.90844 0.38819
 N470 N 0.55339 0.92444 0.41082
 C471 C 0.55448 0.86659 0.37605
 C472 C 0.54428 0.84084 0.38692
 H473 H 0.52497 0.92667 0.50248
 H474 H 0.56433 0.87367 0.34650
 H475 H 0.54968 0.96483 0.42868
 H476 H 0.53302 0.83388 0.41543
 C477 C 0.39391 0.46124 0.49558
 C478 C 0.38738 0.45159 0.45512
 C479 C 0.36232 0.44539 0.43602
 N480 N 0.35731 0.43722 0.39585
 N481 N 0.33529 0.43287 0.37745
 C482 C 0.31747 0.43653 0.39859
 N483 N 0.32239 0.44450 0.43885
 N484 N 0.34439 0.44884 0.45725
 C485 C 0.29385 0.43343 0.37811
 C486 C 0.28788 0.42563 0.33663
 H487 H 0.40151 0.44971 0.43610
 H488 H 0.28124 0.43803 0.39615
 H489 H 0.37973 0.46296 0.51471
 H490 H 0.29952 0.41912 0.32006
 C491 C 0.05005 0.56192 0.44098
 C492 C 0.06611 0.58423 0.46321
 C493 C 0.08686 0.60694 0.44210
 N494 N 0.09547 0.63079 0.45803
 N495 N 0.11443 0.65139 0.43898
 C496 C 0.12567 0.64878 0.40368
 N497 N 0.11731 0.62492 0.38814
 N498 N 0.09813 0.60438 0.40684
 C499 C 0.14697 0.67110 0.38276
 C500 C 0.14980 0.69551 0.38530
 H501 H 0.06304 0.58523 0.49633
 H502 H 0.15974 0.66790 0.36243
 H503 H 0.05147 0.56195 0.40726
 H504 H 0.13510 0.69815 0.40113
 C505 C 0.95460 0.53718 0.93246
 C506 C 0.95100 0.54101 0.89068
 C507 C 0.92942 0.54456 0.87644
 N508 N 0.92353 0.54242 0.83524
 N509 N 0.90365 0.54491 0.82169
 C510 C 0.88899 0.54981 0.84882
 N511 N 0.89507 0.55227 0.89001
 N512 N 0.91486 0.54959 0.90363
 C513 C 0.86682 0.55231 0.83412
 C514 C 0.85611 0.54381 0.79459
 H515 H 0.96347 0.53975 0.86710
 H516 H 0.85805 0.55980 0.85552
 H517 H 0.94138 0.53708 0.95599
 H518 H 0.86355 0.53408 0.77521
 C519 C 0.47774 0.43901 0.91607
 C520 C 0.48777 0.42460 0.93409
 C521 C 0.48262 0.39989 0.91652
 N522 N 0.49895 0.39078 0.92526
 N523 N 0.49484 0.36865 0.90896
 C524 C 0.47407 0.35468 0.88366
 N525 N 0.45751 0.36360 0.87542
 N526 N 0.46178 0.38588 0.89137
 C527 C 0.46944 0.33034 0.86523
 C528 C 0.48952 0.32477 0.86036
 H529 H 0.50119 0.43236 0.96009
 H530 H 0.45028 0.31733 0.85272
 H531 H 0.46584 0.43183 0.88825
 H532 H 0.50927 0.33921 0.86846
 C533 C 0.58042 0.05977 1.01859
 C534 C 0.58745 0.05905 0.97722
 C535 C 0.61273 0.07871 0.96022
 N536 N 0.61640 0.08130 0.91833
 N537 N 0.63883 0.09967 0.90246
 C538 C 0.65848 0.11604 0.92794
 N539 N 0.65495 0.11322 0.96983
 N540 N 0.63245 0.09496 0.98570
 C541 C 0.68318 0.13673 0.91094
 C542 C 0.68570 0.14424 0.86926
 H543 H 0.57345 0.04489 0.95588
 H544 H 0.69919 0.14718 0.93238
 H545 H 0.59424 0.07476 1.03905
 H546 H 0.66872 0.13516 0.84920
 C547 C 0.04363 0.47061 0.45790
 C548 C 0.04113 0.45838 0.41973
 C549 C 0.06225 0.45459 0.40337
 N550 N 0.05784 0.43839 0.37087
 N551 N 0.07728 0.43596 0.35460
 C552 C 0.10188 0.44986 0.37000
 N553 N 0.10627 0.46610 0.40235
 N554 N 0.08682 0.46833 0.41885
 C555 C 0.12393 0.44882 0.35086
 C556 C 0.12074 0.42875 0.32507
 H557 H 0.02389 0.45232 0.40075
 H558 H 0.14342 0.46423 0.35794
 H559 H 0.06012 0.47476 0.47770
 H560 H 0.10161 0.41189 0.32173
 C561 C 0.48213 0.55588 0.49329
 C562 C 0.49784 0.56606 0.45809
 C563 C 0.50194 0.58990 0.43837
 N564 N 0.52212 0.60286 0.41152
 N565 N 0.52561 0.62414 0.39274
 C566 C 0.50887 0.63305 0.39981
 N567 N 0.48859 0.61997 0.42639
 N568 N 0.48525 0.59886 0.44548
 C569 C 0.51185 0.65596 0.37831
 C570 C 0.53533 0.67415 0.36023
 H571 H 0.50761 0.55648 0.44488
 H572 H 0.49535 0.65913 0.37824
 H573 H 0.47405 0.56652 0.50842
 H574 H 0.55261 0.67252 0.36446
 C575 C 0.44966 0.95935 0.45178
 C576 C 0.42779 0.93766 0.46745
 C577 C 0.40532 0.92098 0.44091
 N578 N 0.38302 0.90225 0.45844
 N579 N 0.36286 0.88643 0.43467
 C580 C 0.36435 0.88863 0.39244
 N581 N 0.38669 0.90729 0.37490
 N582 N 0.40678 0.92323 0.39868
 C583 C 0.34259 0.87073 0.36573
 C584 C 0.31776 0.85445 0.38179
 H585 H 0.42727 0.93243 0.49991
 H586 H 0.34611 0.87087 0.33254
 H587 H 0.44966 0.96526 0.41987
 H588 H 0.31388 0.85629 0.41430
 C589 C 0.53183 0.96688 0.10758
 C590 C 0.52253 0.94240 0.09084
 C591 C 0.52887 0.92367 0.10888
 N592 N 0.51401 0.89840 0.09920
 N593 N 0.51935 0.88111 0.11534
 C594 C 0.53993 0.88849 0.14145
 N595 N 0.55500 0.91381 0.15075
 N596 N 0.54951 0.93109 0.13492
 C597 C 0.54601 0.86954 0.15939
 C598 C 0.52736 0.84351 0.16150
 H599 H 0.50904 0.93623 0.06486
 H600 H 0.56503 0.87639 0.17329
 H601 H 0.54372 0.97247 0.13548
 H602 H 0.50757 0.83731 0.15168
 C603 C 0.42849 0.47749 0.01768
 C604 C 0.40956 0.48390 0.00738
 C605 C 0.38531 0.47445 0.03146
 N606 N 0.37202 0.48745 0.03032
 N607 N 0.35008 0.47924 0.05211
 C608 C 0.34045 0.45755 0.07549
 N609 N 0.35354 0.44434 0.07620
 N610 N 0.37567 0.45272 0.05478
 C611 C 0.31608 0.44820 0.09926
 C612 C 0.30714 0.46474 0.11160
 H613 H 0.41334 0.49751 -0.01750
 H614 H 0.30566 0.42827 0.10891
 H615 H 0.42585 0.46579 0.04493
 H616 H 0.31930 0.48517 0.10603
 C617 C 0.05421 0.58717 0.01202
 C618 C 0.05722 0.59145 0.05494
 C619 C 0.07708 0.61601 0.07310
 N620 N 0.08247 0.61739 0.11444
 N621 N 0.10084 0.63924 0.13137
 C622 C 0.11443 0.66061 0.10760
 N623 N 0.10884 0.65932 0.06632
 N624 N 0.09056 0.63740 0.04932
 C625 C 0.13506 0.68476 0.12589
 C626 C 0.14528 0.68544 0.16539
 H627 H 0.04564 0.57578 0.07614
 H628 H 0.14324 0.70195 0.10695
 H629 H 0.06657 0.60241 -0.00933
 H630 H 0.13841 0.66758 0.18224
 C631 C 0.49035 0.03946 0.57491
 C632 C 0.49080 0.06093 0.55760
 C633 C 0.48627 0.07869 0.58318
 N634 N 0.48218 0.09669 0.56470
 N635 N 0.47924 0.11360 0.58768
 C636 C 0.48052 0.11325 0.62997
 N637 N 0.48470 0.09533 0.64841
 N638 N 0.48742 0.07830 0.62547
 C639 C 0.47881 0.13261 0.65573
 C640 C 0.46926 0.14802 0.64035
 H641 H 0.49513 0.06515 0.52475
 H642 H 0.48495 0.13455 0.68798
 H643 H 0.48441 0.03439 0.60710
 H644 H 0.46048 0.14419 0.60965
 C645 C 0.53509 0.51619 0.58768
 C646 C 0.55575 0.51806 0.56399
 C647 C 0.58069 0.52371 0.58279
 N648 N 0.60096 0.52767 0.55793
 N649 N 0.62327 0.53151 0.57446
 C650 C 0.62605 0.53136 0.61649
 N651 N 0.60579 0.52741 0.64135
 N652 N 0.58353 0.52371 0.62482
 C653 C 0.65006 0.53433 0.63517
 C654 C 0.67265 0.54183 0.61184
 H655 H 0.55334 0.51448 0.53072
 H656 H 0.64998 0.53077 0.66829
 H657 H 0.53779 0.52096 0.62058
 H658 H 0.67344 0.54778 0.57974
 C659 C 0.94706 0.43149 0.54389
 C660 C 0.95040 0.42230 0.58188
 C661 C 0.92892 0.39917 0.60106
 N662 N 0.93380 0.38639 0.63138
 N663 N 0.91430 0.36555 0.64906
 C664 C 0.88922 0.35692 0.63730
 N665 N 0.88435 0.36986 0.60732
 N666 N 0.90383 0.39052 0.58940
 C667 C 0.86736 0.33437 0.65693
 C668 C 0.87066 0.31619 0.67887
 H669 H 0.96909 0.43206 0.59756
 H670 H 0.84791 0.33135 0.65214
 H671 H 0.92894 0.42054 0.52696
 H672 H 0.88969 0.31771 0.67963
   
