data_POSCAR
  _audit_creation_date              2014-09-24
  _audit_creation_method            'ToBaCCo'
  _symmetry_space_group_name_H-M    'P1'
  _symmetry_Int_Tables_number       1
  _symmetry_cell_setting            triclinic
  loop_
  _symmetry_equiv_pos_as_xyz
 x,y,z
_cell_length_a 50.2142
_cell_length_b 50.1225
_cell_length_c 14.8963
_cell_angle_alpha 89.900800
_cell_angle_beta 90.208600
_cell_angle_gamma 120.137500
loop_
  _atom_site_label
  _atom_site_type_symbol
  _atom_site_fract_x
  _atom_site_fract_y
  _atom_site_fract_z
C1 C 0.25063 0.50197 0.53899
 C2 C 0.24870 0.49809 0.44827
 C3 C 0.22274 0.49607 0.39475
 C4 C 0.27406 0.49774 0.39934
 C5 C 0.27617 0.50219 0.58955
 C6 C 0.22807 0.50651 0.59132
 C7 C 0.19208 0.47575 0.41908
 C8 C 0.16805 0.47770 0.37799
 C9 C 0.17406 0.50010 0.31092
 C10 C 0.20475 0.51778 0.28021
 C11 C 0.22872 0.51605 0.32219
 C12 C 0.27156 0.46964 0.37446
 C13 C 0.29697 0.46910 0.33873
 C14 C 0.32506 0.49668 0.32693
 C15 C 0.32699 0.52489 0.34812
 C16 C 0.30177 0.52538 0.38520
 C17 C 0.30046 0.53003 0.62240
 C18 C 0.32514 0.53044 0.66732
 C19 C 0.32543 0.50288 0.68156
 C20 C 0.30131 0.47510 0.64744
 C21 C 0.27680 0.47476 0.60175
 C22 C 0.22020 0.52866 0.56537
 C23 C 0.19718 0.53098 0.61082
 C24 C 0.18265 0.51226 0.68573
 C25 C 0.19127 0.49088 0.71360
 C26 C 0.21383 0.48808 0.66691
 H27 H 0.18686 0.45945 0.47332
 H28 H 0.14516 0.46324 0.40469
 H29 H 0.21044 0.53309 0.22313
 H30 H 0.25210 0.53123 0.29993
 H31 H 0.25031 0.44815 0.38567
 H32 H 0.29491 0.44713 0.32177
 H33 H 0.30394 0.54722 0.40441
 H34 H 0.30040 0.55141 0.61235
 H35 H 0.34376 0.55211 0.69242
 H36 H 0.30125 0.45367 0.65752
 H37 H 0.25826 0.45313 0.57612
 H38 H 0.23134 0.54362 0.50853
 H39 H 0.19056 0.54730 0.58726
 H40 H 0.18028 0.47614 0.77100
 H41 H 0.21965 0.47098 0.68848
 H42 H 0.34819 0.54646 0.33729
 C43 C 0.49426 -0.25487 0.55254
 C44 C 0.49477 -0.25597 0.46090
 C45 C 0.49821 -0.28031 0.41434
 C46 C 0.49446 -0.23166 0.40369
 C47 C 0.49804 -0.22720 0.60039
 C48 C 0.49248 -0.28030 0.60860
 C49 C 0.52323 -0.28458 0.43413
 C50 C 0.52603 -0.30789 0.39176
 C51 C 0.50421 -0.32686 0.32773
 C52 C 0.47927 -0.32255 0.30759
 C53 C 0.47642 -0.29928 0.35014
 C54 C 0.51589 -0.21820 0.33384
 C55 C 0.51814 -0.19317 0.28602
 C56 C 0.49957 -0.18060 0.30865
 C57 C 0.47671 -0.19531 0.37418
 C58 C 0.47388 -0.22091 0.42039
 C59 C 0.47586 -0.23009 0.66273
 C60 C 0.47831 -0.20388 0.70368
 C61 C 0.50302 -0.17450 0.68307
 C62 C 0.52596 -0.17172 0.62395
 C63 C 0.52354 -0.19790 0.58308
 C64 C 0.47032 -0.31119 0.59124
 C65 C 0.47218 -0.33509 0.63358
 C66 C 0.49615 -0.32860 0.69497
 C67 C 0.51606 -0.29756 0.71938
 C68 C 0.51450 -0.27371 0.67589
 H69 H 0.54053 -0.26986 0.48255
 H70 H 0.54546 -0.31084 0.40776
 H71 H 0.46221 -0.33708 0.25836
 H72 H 0.45705 -0.29627 0.33386
 H73 H 0.53165 -0.22634 0.31829
 H74 H 0.53521 -0.18282 0.23348
 H75 H 0.45631 -0.23166 0.47141
 H76 H 0.45626 -0.25253 0.67767
 H77 H 0.46060 -0.20640 0.74996
 H78 H 0.54543 -0.14924 0.60853
 H79 H 0.54124 -0.19531 0.53668
 H80 H 0.45247 -0.31680 0.54156
 H81 H 0.45594 -0.35856 0.61375
 H82 H 0.53325 -0.29162 0.77146
 H83 H 0.53131 -0.25005 0.69234
 H84 H 0.46163 -0.18647 0.39123
 C85 C 1.25278 0.75236 0.54718
 C86 C 1.25201 0.75155 0.45558
 C87 C 1.27817 0.77478 0.40148
 C88 C 1.22463 0.72790 0.40590
 C89 C 1.22751 0.72793 0.60162
 C90 C 1.27793 0.77866 0.59680
 C91 C 1.27323 0.79215 0.33660
 C92 C 1.29815 0.81638 0.29237
 C93 C 1.32856 0.82404 0.31357
 C94 C 1.33306 0.80475 0.37306
 C95 C 1.30814 0.78043 0.41662
 C96 C 1.19556 0.72488 0.41940
 C97 C 1.16942 0.70076 0.37896
 C98 C 1.17205 0.67944 0.32447
 C99 C 1.20120 0.68313 0.30799
 C100 C 1.22738 0.70734 0.34814
 C101 C 1.21692 0.69661 0.58516
 C102 C 1.19035 0.67388 0.62704
 C103 C 1.17414 0.68194 0.68794
 C104 C 1.18671 0.71322 0.71121
 C105 C 1.21289 0.73601 0.66747
 C106 C 1.29628 0.77352 0.65744
 C107 C 1.31974 0.79810 0.70531
 C108 C 1.32457 0.82822 0.69608
 C109 C 1.30643 0.83325 0.63345
 C110 C 1.28328 0.80871 0.58473
 H111 H 1.25019 0.78781 0.32300
 H112 H 1.29367 0.83031 0.24589
 H113 H 1.35597 0.80868 0.38654
 H114 H 1.31228 0.76645 0.46386
 H115 H 1.19309 0.74079 0.46296
 H116 H 1.14706 0.69828 0.39168
 H117 H 1.24964 0.70942 0.33674
 H118 H 1.22865 0.68979 0.53761
 H119 H 1.18244 0.64991 0.61175
 H120 H 1.17520 0.72027 0.75894
 H121 H 1.22097 0.76003 0.68235
 H122 H 1.29249 0.75045 0.66732
 H123 H 1.33327 0.79328 0.75241
 H124 H 1.31045 0.85629 0.62117
 H125 H 1.26941 0.81312 0.53778
 H126 H 1.20353 0.66693 0.26536
 C127 C 0.74690 0.49583 0.54984
 C128 C 0.74862 0.49696 0.45847
 C129 C 0.77443 0.49675 0.41066
 C130 C 0.72508 0.49875 0.40223
 C131 C 0.72028 0.49396 0.59890
 C132 C 0.77267 0.49823 0.60463
 C133 C 0.79240 0.52050 0.35013
 C134 C 0.81689 0.52070 0.30538
 C135 C 0.82360 0.49705 0.32026
 C136 C 0.80570 0.47326 0.38055
 C137 C 0.78108 0.47296 0.42494
 C138 C 0.71783 0.52212 0.41595
 C139 C 0.69390 0.52204 0.36757
 C140 C 0.67713 0.49879 0.30439
 C141 C 0.68543 0.47641 0.28719
 C142 C 0.70929 0.47643 0.33571
 C143 C 0.68993 0.47141 0.57736
 C144 C 0.66509 0.47187 0.61776
 C145 C 0.67002 0.49482 0.68101
 C146 C 0.70053 0.51581 0.70742
 C147 C 0.72534 0.51553 0.66625
 C148 C 0.76864 0.47312 0.65636
 C149 C 0.79341 0.47473 0.70411
 C150 C 0.82239 0.50200 0.70389
 C151 C 0.82612 0.52712 0.65167
 C152 C 0.80150 0.52525 0.60268
 H153 H 0.78756 0.53897 0.33800
 H154 H 0.83043 0.53907 0.25838
 H155 H 0.81043 0.45468 0.39175
 H156 H 0.76708 0.45409 0.46995
 H157 H 0.73020 0.53992 0.46567
 H158 H 0.68786 0.53957 0.38114
 H159 H 0.71477 0.45842 0.32355
 H160 H 0.68547 0.45379 0.52804
 H161 H 0.64196 0.45409 0.59986
 H162 H 0.70537 0.53360 0.75654
 H163 H 0.74855 0.53291 0.68480
 H164 H 0.74649 0.45206 0.65802
 H165 H 0.78966 0.45492 0.74333
 H166 H 0.84837 0.54796 0.64656
 H167 H 0.80498 0.54473 0.56230
 H168 H 0.67282 0.45846 0.23804
 C169 C 0.48933 0.24268 0.55795
 C170 C 0.48762 0.24156 0.46653
 C171 C 0.48811 0.26711 0.41460
 C172 C 0.48641 0.21555 0.41485
 C173 C 0.49384 0.22014 0.61068
 C174 C 0.48667 0.26655 0.60913
 C175 C 0.46418 0.26097 0.35437
 C176 C 0.46403 0.28508 0.30762
 C177 C 0.48803 0.31557 0.31969
 C178 C 0.51205 0.32176 0.37950
 C179 C 0.51223 0.29765 0.42611
 C180 C 0.46583 0.18468 0.43842
 C181 C 0.46756 0.16065 0.39663
 C182 C 0.48938 0.16705 0.32917
 C183 C 0.50812 0.19764 0.30033
 C184 C 0.50682 0.22172 0.34330
 C185 C 0.51881 0.21574 0.59337
 C186 C 0.52106 0.19224 0.63674
 C187 C 0.49819 0.17240 0.69763
 C188 C 0.47459 0.17866 0.71983
 C189 C 0.47240 0.20220 0.67649
 C190 C 0.51058 0.28653 0.66639
 C191 C 0.50901 0.31014 0.71115
 C192 C 0.48302 0.31372 0.70158
 C193 C 0.45907 0.29345 0.64389
 C194 C 0.46077 0.26997 0.59883
 H195 H 0.44543 0.23758 0.34461
 H196 H 0.44534 0.28001 0.26154
 H197 H 0.53081 0.34516 0.38903
 H198 H 0.53114 0.30277 0.47137
 H199 H 0.44912 0.17926 0.49122
 H200 H 0.45251 0.13715 0.41872
 H201 H 0.52254 0.24525 0.32281
 H202 H 0.53617 0.23011 0.54487
 H203 H 0.54074 0.18958 0.62247
 H204 H 0.45671 0.16424 0.76699
 H205 H 0.45319 0.20557 0.69151
 H206 H 0.53077 0.28423 0.67491
 H207 H 0.52788 0.32518 0.75503
 H208 H 0.43939 0.29634 0.63139
 H209 H 0.44210 0.25474 0.55465
 H210 H 0.52455 0.20294 0.24673
 C211 C 0.75849 0.24772 0.54428
 C212 C 0.75865 0.24792 0.45257
 C213 C 0.73438 0.22152 0.40139
 C214 C 0.78322 0.27366 0.39946
 C215 C 0.78502 0.27136 0.59713
 C216 C 0.73161 0.22361 0.59496
 C217 C 0.72902 0.19155 0.41634
 C218 C 0.70414 0.16637 0.37523
 C219 C 0.68447 0.17091 0.31836
 C220 C 0.69079 0.20095 0.29938
 C221 C 0.71570 0.22617 0.34065
 C222 C 0.79763 0.26706 0.32935
 C223 C 0.82195 0.29090 0.28238
 C224 C 0.83270 0.32180 0.30566
 C225 C 0.81732 0.32852 0.37253
 C226 C 0.79256 0.30464 0.41845
 C227 C 0.78032 0.28849 0.66304
 C228 C 0.80545 0.31350 0.70447
 C229 C 0.83581 0.32224 0.67935
 C230 C 0.84030 0.30328 0.61894
 C231 C 0.81516 0.27801 0.57867
 C232 C 0.70167 0.21801 0.57743
 C233 C 0.67629 0.19386 0.62043
 C234 C 0.68054 0.17527 0.68247
 C235 C 0.71039 0.18125 0.70185
 C236 C 0.73578 0.20531 0.65850
 H237 H 0.74363 0.18767 0.46178
 H238 H 0.69976 0.14330 0.38925
 H239 H 0.67593 0.20474 0.25475
 H240 H 0.71973 0.24919 0.32790
 H241 H 0.79053 0.24340 0.31233
 H242 H 0.83293 0.28526 0.22912
 H243 H 0.78111 0.31032 0.47010
 H244 H 0.75722 0.28342 0.67929
 H245 H 0.80107 0.32723 0.75183
 H246 H 0.86333 0.30824 0.60216
 H247 H 0.81923 0.26428 0.53055
 H248 H 0.69797 0.23217 0.52975
 H249 H 0.65339 0.18978 0.60597
 H250 H 0.71398 0.16734 0.75078
 H251 H 0.75864 0.20930 0.67320
 H252 H 0.82485 0.35222 0.39025
 O253 O 1.03872 0.56999 0.17239
 O254 O 1.07537 0.56859 0.08414
 C255 C 1.06703 0.57955 0.14998
 O256 O 0.96264 0.43161 0.14075
 O257 O 0.92709 0.43711 0.05852
 C258 C 0.93452 0.42235 0.11574
 O259 O 1.04853 0.48361 0.15502
 O260 O 1.08043 0.52658 0.07384
 C261 C 1.07579 0.50619 0.13433
 O262 O 0.95261 0.52366 0.15294
 O263 O 0.92215 0.48097 0.06753
 C264 C 0.92583 0.50140 0.12714
 Zr265 Zr 0.99756 0.53472 0.11309
 O266 O 0.99274 0.53043 0.25436
 O267 O 0.99548 0.57579 0.11372
 Zr268 Zr 1.00441 0.47112 0.10211
 O269 O 0.99996 0.46634 0.24338
 O270 O 1.01213 0.43340 0.09567
 O271 O 1.02820 0.51833 0.12758
 O272 O 0.97414 0.48718 0.12146
 O273 O 0.95538 0.53041 -0.15392
 O274 O 0.92375 0.48396 -0.08570
 C275 C 0.92843 0.50706 -0.13587
 O276 O 1.05120 0.48963 -0.17248
 O277 O 1.08179 0.52998 -0.07960
 C278 C 1.07802 0.51160 -0.14566
 O279 O 0.96485 0.43790 -0.17615
 O280 O 0.92810 0.44081 -0.09274
 C281 C 0.93639 0.42841 -0.15475
 O282 O 1.04139 0.57546 -0.16275
 O283 O 1.07673 0.57191 -0.07321
 C284 C 1.06939 0.58447 -0.13746
 Zr285 Zr 0.99944 0.53934 -0.11211
 O286 O 0.99676 0.54283 -0.25288
 O287 O 0.99956 0.58147 -0.10106
 Zr288 Zr 1.00621 0.47552 -0.12430
 O289 O 1.00536 0.47648 -0.26635
 O290 O 1.01351 0.43742 -0.12809
 Zr291 Zr 1.04765 0.53146 -0.00150
 Zr292 Zr 0.95610 0.47858 -0.00980
 O293 O 0.97640 0.49249 -0.13749
 O294 O 1.03014 0.52343 -0.13380
 O295 O 0.97046 0.52594 -0.00113
 O296 O 1.03243 0.48402 -0.00950
 O297 O 1.02501 0.55717 0.00366
 O298 O 0.97838 0.45243 -0.01452
 H299 H 0.95989 0.47828 0.17293
 H300 H 1.04788 0.47724 -0.01068
 H301 H 0.96311 0.48589 -0.19168
 H302 H 1.03761 0.57996 0.00716
 H303 H 0.99776 0.41898 0.05022
 H304 H 0.99509 0.41940 -0.10253
 H305 H 1.02190 0.49701 -0.28633
 H306 H 1.00163 0.52781 -0.27971
 H307 H 0.98637 0.57946 -0.04953
 H308 H 0.99368 0.58020 0.17753
 H309 H 1.00965 0.52766 0.27774
 H310 H 1.01586 0.48600 0.27029
 O311 O 0.43281 0.47386 0.17572
 O312 O 0.44150 0.51630 0.09374
 C313 C 0.42723 0.49571 0.15536
 O314 O 0.56961 0.51987 0.15160
 O315 O 0.55721 0.47643 0.06894
 C316 C 0.57407 0.49758 0.12704
 O317 O 0.52869 0.56504 0.17005
 O318 O 0.48741 0.56005 0.08924
 C319 C 0.50895 0.57359 0.14886
 O320 O 0.46935 0.42522 0.15726
 O321 O 0.50951 0.43163 0.06952
 C322 C 0.48848 0.41677 0.12955
 Zr323 Zr 0.46471 0.46336 0.11759
 O324 O 0.46789 0.46085 0.25880
 O325 O 0.41973 0.42435 0.11776
 Zr326 Zr 0.53414 0.52895 0.11486
 O327 O 0.53685 0.52616 0.25618
 O328 O 0.57628 0.57136 0.11256
 O329 O 0.48722 0.51106 0.13737
 O330 O 0.51165 0.48152 0.12891
 O331 O 0.46472 0.42611 -0.15496
 O332 O 0.50819 0.43292 -0.08241
 C333 C 0.48510 0.41814 -0.13684
 O334 O 0.52292 0.56473 -0.15985
 O335 O 0.48467 0.56024 -0.06604
 C336 C 0.50397 0.57339 -0.13125
 O337 O 0.56479 0.52002 -0.16418
 O338 O 0.55576 0.47728 -0.08287
 C339 C 0.57047 0.49816 -0.14345
 O340 O 0.42839 0.47610 -0.15111
 O341 O 0.44011 0.51839 -0.06495
 C342 C 0.42368 0.49819 -0.12538
 Zr343 Zr 0.46200 0.46466 -0.10914
 O344 O 0.46340 0.46527 -0.25130
 O345 O 0.41733 0.42562 -0.11562
 Zr346 Zr 0.53159 0.52997 -0.11100
 O347 O 0.53477 0.53431 -0.25226
 O348 O 0.57460 0.57087 -0.09754
 Zr349 Zr 0.47740 0.52168 0.00886
 Zr350 Zr 0.51871 0.47159 -0.00320
 O351 O 0.50854 0.48273 -0.13023
 O352 O 0.48429 0.51230 -0.12437
 O353 O 0.47027 0.44386 0.00078
 O354 O 0.52572 0.54884 0.00478
 O355 O 0.44622 0.47385 0.00804
 O356 O 0.55061 0.51934 -0.00201
 H357 H 0.51839 0.47373 0.18019
 H358 H 0.53552 0.57160 0.00511
 H359 H 0.51390 0.47521 -0.18481
 H360 H 0.42383 0.46631 0.01053
 H361 H 0.58963 0.56936 0.06757
 H362 H 0.58155 0.57829 -0.15943
 H363 H 0.51632 0.51612 -0.27686
 H364 H 0.46357 0.48416 -0.27176
 H365 H 0.41417 0.41427 -0.05884
 H366 H 0.42056 0.40726 0.08727
 H367 H 0.47266 0.48105 0.28379
 H368 H 0.51868 0.52604 0.28213
 O369 O 0.47909 0.04073 0.17930
 O370 O 0.52028 0.07588 0.09638
 C371 C 0.49973 0.06878 0.15851
 O372 O 0.53184 -0.04511 0.15233
 O373 O 0.48970 -0.07796 0.06857
 C374 C 0.51124 -0.07261 0.12628
 O375 O 0.57242 0.04052 0.17171
 O376 O 0.56562 0.07551 0.08989
 C377 C 0.57962 0.06840 0.15062
 O378 O 0.43630 -0.04564 0.16882
 O379 O 0.44355 -0.07829 0.07738
 C380 C 0.42950 -0.07293 0.14156
 Zr381 Zr 0.47120 -0.00167 0.12463
 O382 O 0.47108 -0.00560 0.26623
 O383 O 0.43013 0.00044 0.12871
 Zr384 Zr 0.53882 -0.00129 0.11376
 O385 O 0.54131 -0.00598 0.25406
 O386 O 0.58266 0.00279 0.10030
 O387 O 0.51876 0.02575 0.14031
 O388 O 0.49202 -0.02825 0.13281
 O389 O 0.43167 -0.04203 -0.14321
 O390 O 0.44199 -0.07653 -0.07222
 C391 C 0.42540 -0.06994 -0.12436
 O392 O 0.57151 0.04676 -0.15679
 O393 O 0.56302 0.07853 -0.06683
 C394 C 0.57802 0.07415 -0.12966
 O395 O 0.52946 -0.04082 -0.16459
 O396 O 0.48837 -0.07588 -0.08062
 C397 C 0.50883 -0.06884 -0.14272
 O398 O 0.47996 0.04505 -0.15052
 O399 O 0.52006 0.07828 -0.05949
 C400 C 0.50055 0.07253 -0.12410
 Zr401 Zr 0.46939 0.00101 -0.10185
 O402 O 0.46507 -0.00185 -0.24330
 O403 O 0.42967 0.00537 -0.09793
 Zr404 Zr 0.53713 0.00195 -0.11225
 O405 O 0.53493 0.00145 -0.25425
 O406 O 0.58089 0.00537 -0.11705
 Zr407 Zr 0.52673 0.04583 0.01160
 Zr408 Zr 0.48140 -0.04586 0.00131
 O409 O 0.48980 -0.02508 -0.12636
 O410 O 0.51667 0.02905 -0.12138
 O411 O 0.45139 -0.02793 0.00948
 O412 O 0.55609 0.02727 0.00337
 O413 O 0.47861 0.02643 0.01463
 O414 O 0.52951 -0.02727 -0.00321
 H415 H 0.48596 -0.04257 0.18434
 H416 H 0.57866 0.04148 0.00290
 H417 H 0.48211 -0.03836 -0.18038
 H418 H 0.47000 0.04040 0.01698
 H419 H 0.58006 -0.01444 0.06201
 H420 H 0.57877 -0.01375 -0.09079
 H421 H 0.53441 0.02006 -0.27374
 H422 H 0.48576 0.01189 -0.26819
 H423 H 0.41712 -0.00731 -0.04713
 H424 H 0.41349 -0.01867 0.10118
 H425 H 0.49000 0.01250 0.28953
 H426 H 0.52782 0.00078 0.28160
 C427 C 1.09822 0.47978 0.21884
 C428 C 1.12145 0.47793 0.26396
 C429 C 1.15096 0.50391 0.27532
 C430 C 1.15542 0.53313 0.24593
 C431 C 1.13223 0.53478 0.19435
 C432 C 1.10288 0.50752 0.18152
 C433 C 1.13924 0.56412 0.16183
 N434 N 1.16566 0.58977 0.18638
 N435 N 1.18565 0.58846 0.24214
 C436 C 1.18113 0.56124 0.27411
 H437 H 1.07642 0.45860 0.21050
 H438 H 1.11645 0.45510 0.28402
 H439 H 1.12420 0.56781 0.11941
 H440 H 1.19736 0.56202 0.32328
 C441 C 0.50725 0.60049 0.28621
 C442 C 0.50554 0.62432 0.32909
 C443 C 0.50788 0.64932 0.27999
 C444 C 0.51361 0.65110 0.18652
 C445 C 0.51550 0.62697 0.14310
 C446 C 0.51132 0.60104 0.19316
 C447 C 0.52228 0.63000 0.05088
 N448 N 0.52624 0.65516 0.00529
 N449 N 0.52417 0.67768 0.04589
 C450 C 0.51816 0.67661 0.13488
 H451 H 0.50434 0.58099 0.32547
 H452 H 0.50154 0.62288 0.40083
 H453 H 0.52524 0.61302 0.01516
 H454 H 0.51745 0.69592 0.16445
 C455 C 0.37844 -0.12003 0.13998
 C456 C 0.35340 -0.14448 0.18246
 C457 C 0.35389 -0.14967 0.27526
 C458 C 0.38014 -0.12841 0.32648
 C459 C 0.40584 -0.10393 0.28243
 C460 C 0.40462 -0.09958 0.18882
 C461 C 0.43203 -0.08436 0.33404
 N462 N 0.43161 -0.08771 0.42436
 N463 N 0.40673 -0.10918 0.46664
 C464 C 0.38094 -0.12932 0.42121
 H465 H 0.37723 -0.11686 0.06838
 H466 H 0.33390 -0.16013 0.14141
 H467 H 0.45280 -0.06639 0.30371
 H468 H 0.36119 -0.14524 0.46016
 C469 C 0.90073 0.50629 0.26387
 C470 C 0.87624 0.50497 0.31131
 C471 C 0.84828 0.49638 0.26854
 C472 C 0.84458 0.48835 0.17663
 C473 C 0.86950 0.48976 0.12775
 C474 C 0.89810 0.49888 0.17207
 C475 C 0.86487 0.48278 0.03572
 N476 N 0.83732 0.47422 -0.00349
 N477 N 0.81384 0.47222 0.04305
 C478 C 0.81651 0.47896 0.13174
 H479 H 0.92203 0.51311 0.29968
 H480 H 0.87927 0.51113 0.38182
 H481 H 0.88272 0.48431 -0.00601
 H482 H 0.79664 0.47688 0.16622
 C483 C 0.48350 0.38667 0.26685
 C484 C 0.48416 0.36285 0.31331
 C485 C 0.48843 0.34090 0.26771
 C486 C 0.49225 0.34303 0.17349
 C487 C 0.49098 0.36691 0.12594
 C488 C 0.48722 0.38942 0.17331
 C489 C 0.49269 0.36680 0.03208
 N490 N 0.49715 0.34553 -0.01077
 N491 N 0.49977 0.32401 0.03423
 C492 C 0.49749 0.32202 0.12487
 H493 H 0.48071 0.40354 0.30474
 H494 H 0.48125 0.36147 0.38553
 H495 H 0.48973 0.38289 -0.00748
 H496 H 0.49984 0.30409 0.15788
 C497 C 0.63069 0.11513 0.14625
 C498 C 0.65589 0.14008 0.18645
 C499 C 0.65701 0.14418 0.27954
 C500 C 0.63208 0.12291 0.33332
 C501 C 0.60647 0.09738 0.29233
 C502 C 0.60585 0.09376 0.19784
 C503 C 0.58173 0.07708 0.34718
 N504 N 0.58275 0.08221 0.43680
 N505 N 0.60674 0.10628 0.47523
 C506 C 0.63137 0.12683 0.42669
 H507 H 0.63078 0.11216 0.07433
 H508 H 0.67483 0.15617 0.14469
 H509 H 0.56130 0.05762 0.31960
 H510 H 0.64990 0.14621 0.46145
 C511 C 0.49496 0.11854 -0.12546
 C512 C 0.49338 0.14219 -0.16962
 C513 C 0.49911 0.14721 -0.26246
 C514 C 0.50587 0.12684 -0.31159
 C515 C 0.50836 0.10336 -0.26539
 C516 C 0.50206 0.09887 -0.17235
 C517 C 0.51687 0.08481 -0.31425
 N518 N 0.52030 0.08798 -0.40448
 N519 N 0.51560 0.10828 -0.44907
 C520 C 0.50813 0.12745 -0.40618
 H521 H 0.49013 0.11529 -0.05415
 H522 H 0.48849 0.15727 -0.12975
 H523 H 0.52084 0.06784 -0.28153
 H524 H 0.50330 0.14233 -0.44709
 C525 C 0.62041 0.50009 -0.14386
 C526 C 0.64502 0.50019 -0.18678
 C527 C 0.64506 0.49632 -0.28043
 C528 C 0.61974 0.49369 -0.33174
 C529 C 0.59450 0.49322 -0.28726
 C530 C 0.59515 0.49677 -0.19279
 C531 C 0.56929 0.48924 -0.33919
 N532 N 0.57019 0.48787 -0.42987
 N533 N 0.59463 0.49037 -0.47215
 C534 C 0.61949 0.49360 -0.42656
 H535 H 0.62120 0.50287 -0.07156
 H536 H 0.66369 0.50209 -0.14539
 H537 H 0.54891 0.48729 -0.30877
 H538 H 0.63900 0.49680 -0.46536
 C539 C 0.88673 0.37972 -0.15197
 C540 C 0.86198 0.35427 -0.19194
 C541 C 0.86107 0.34927 -0.28494
 C542 C 0.88522 0.37204 -0.33925
 C543 C 0.91029 0.39837 -0.29808
 C544 C 0.91135 0.40168 -0.20319
 C545 C 0.93247 0.42144 -0.35405
 N546 N 0.93002 0.41820 -0.44447
 N547 N 0.90653 0.39380 -0.48313
 C548 C 0.88392 0.37093 -0.43403
 H549 H 0.88675 0.38210 -0.07964
 H550 H 0.84391 0.33763 -0.14876
 H551 H 0.95118 0.44254 -0.32754
 H552 H 0.86472 0.35280 -0.47020
 C553 C 0.50965 -0.11753 -0.14159
 C554 C 0.50807 -0.14311 -0.18337
 C555 C 0.50476 -0.14671 -0.27666
 C556 C 0.50241 -0.12428 -0.32889
 C557 C 0.50404 -0.09818 -0.28630
 C558 C 0.50810 -0.09471 -0.19188
 C559 C 0.50027 -0.07710 -0.33959
 N560 N 0.49566 -0.08172 -0.42932
 N561 N 0.49428 -0.10612 -0.46932
 C562 C 0.49736 -0.12760 -0.42227
 H563 H 0.51223 -0.11545 -0.06923
 H564 H 0.50954 -0.16024 -0.14255
 H565 H 0.50043 -0.05726 -0.31091
 H566 H 0.49537 -0.14724 -0.45823
 C567 C 0.39260 0.49230 -0.26093
 C568 C 0.36920 0.49348 -0.30791
 C569 C 0.35042 0.50280 -0.26555
 C570 C 0.35514 0.51090 -0.17345
 C571 C 0.37923 0.51005 -0.12526
 C572 C 0.39823 0.50051 -0.16981
 C573 C 0.38244 0.51776 -0.03342
 N574 N 0.36322 0.52573 0.00644
 N575 N 0.34060 0.52625 -0.03870
 C576 C 0.33577 0.51891 -0.12692
 H577 H 0.40668 0.48511 -0.29675
 H578 H 0.36574 0.48710 -0.37827
 H579 H 0.39941 0.51706 0.00838
 H580 H 0.31654 0.51904 -0.15920
 C581 C 1.11714 0.63512 -0.13758
 C582 C 1.14235 0.65930 -0.18026
 C583 C 1.14627 0.65900 -0.27365
 C584 C 1.12259 0.63466 -0.32524
 C585 C 1.09745 0.60961 -0.28128
 C586 C 1.09472 0.61010 -0.18673
 C587 C 1.07599 0.58464 -0.33388
 N588 N 1.07781 0.58629 -0.42460
 N589 N 1.09983 0.61103 -0.46617
 C590 C 1.12218 0.63523 -0.41989
 H591 H 1.11536 0.63570 -0.06519
 H592 H 1.15979 0.67749 -0.13890
 H593 H 1.05779 0.56382 -0.30420
 H594 H 1.13900 0.65489 -0.45769
 C595 C 0.87966 0.48061 -0.22079
 C596 C 0.85330 0.47890 -0.25729
 C597 C 0.84760 0.50357 -0.24890
 C598 C 0.86803 0.52943 -0.19523
 C599 C 0.89485 0.53100 -0.15789
 C600 C 0.90111 0.50681 -0.17374
 C601 C 0.91364 0.55597 -0.10122
 N602 N 0.90607 0.57781 -0.08327
 N603 N 0.88070 0.57614 -0.11686
 C604 C 0.86129 0.55261 -0.17108
 H605 H 0.88366 0.46149 -0.23087
 H606 H 0.83812 0.45871 -0.29671
 H607 H 0.93370 0.55787 -0.06859
 H608 H 0.84030 0.55183 -0.19198
 C609 C 0.50852 0.39326 -0.22161
 C610 C 0.50847 0.36774 -0.25787
 C611 C 0.48198 0.33827 -0.25515
 C612 C 0.45535 0.33467 -0.20993
 C613 C 0.45544 0.36095 -0.17361
 C614 C 0.48224 0.39045 -0.18072
 C615 C 0.42938 0.35645 -0.12572
 N616 N 0.40507 0.32765 -0.11430
 N617 N 0.40524 0.30296 -0.14602
 C618 C 0.42958 0.30540 -0.19214
 H619 H 0.52940 0.41557 -0.22575
 H620 H 0.52915 0.37144 -0.29152
 H621 H 0.42828 0.37533 -0.09497
 H622 H 0.42883 0.28429 -0.21138
 C623 C 0.61418 0.09718 -0.25739
 C624 C 0.63861 0.12113 -0.30327
 C625 C 0.65397 0.15091 -0.26796
 C626 C 0.64446 0.15695 -0.18513
 C627 C 0.61971 0.13262 -0.13669
 C628 C 0.60420 0.10191 -0.17373
 C629 C 0.61237 0.14048 -0.05272
 N630 N 0.62797 0.16991 -0.02207
 N631 N 0.65067 0.19243 -0.06858
 C632 C 0.65947 0.18696 -0.14883
 H633 H 0.60298 0.07456 -0.28830
 H634 H 0.64577 0.11634 -0.36685
 H635 H 0.59509 0.12422 -0.00864
 H636 H 0.67820 0.20617 -0.18342
 C637 C 1.10356 0.48698 -0.22369
 C638 C 1.12869 0.48681 -0.26209
 C639 C 1.15734 0.51386 -0.26801
 C640 C 1.16068 0.54175 -0.23389
 C641 C 1.13472 0.54230 -0.19808
 C642 C 1.10585 0.51429 -0.19062
 C643 C 1.13871 0.57115 -0.17325
 N644 N 1.16685 0.59692 -0.17761
 N645 N 1.19146 0.59596 -0.20568
 C646 C 1.18938 0.56928 -0.23358
 H647 H 1.08210 0.46525 -0.21903
 H648 H 1.12565 0.46527 -0.28810
 H649 H 1.11988 0.57382 -0.15245
 H650 H 1.21023 0.56989 -0.25474
 C651 C 0.47516 0.59664 -0.19629
 C652 C 0.47308 0.61998 -0.24054
 C653 C 0.49963 0.64731 -0.26740
 C654 C 0.52897 0.64990 -0.25231
 C655 C 0.53102 0.62679 -0.20253
 C656 C 0.50378 0.59958 -0.17653
 C657 C 0.56048 0.63199 -0.17976
 N658 N 0.58594 0.65671 -0.21353
 N659 N 0.58392 0.67663 -0.26823
 C660 C 0.55640 0.67389 -0.28961
 H661 H 0.45405 0.57603 -0.17699
 H662 H 0.45034 0.61698 -0.25012
 H663 H 0.56365 0.61693 -0.13478
 H664 H 0.55632 0.69018 -0.33696
 C665 C 0.40167 -0.11931 -0.20625
 C666 C 0.37713 -0.14434 -0.24856
 C667 C 0.34788 -0.14706 -0.25369
 C668 C 0.34317 -0.12467 -0.20839
 C669 C 0.36835 -0.09916 -0.16489
 C670 C 0.39798 -0.09613 -0.16627
 C671 C 0.36261 -0.07839 -0.11701
 N672 N 0.33371 -0.08286 -0.11285
 N673 N 0.31002 -0.10698 -0.15190
 C674 C 0.31365 -0.12817 -0.19830
 H675 H 0.42404 -0.11766 -0.20658
 H676 H 0.38159 -0.16094 -0.28160
 H677 H 0.38051 -0.05920 -0.08039
 H678 H 0.29316 -0.14803 -0.22390
 C679 C 0.48212 -0.12722 0.17509
 C680 C 0.47896 -0.15290 0.22070
 C681 C 0.50413 -0.15209 0.26392
 C682 C 0.53320 -0.12457 0.26097
 C683 C 0.53696 -0.09898 0.20953
 C684 C 0.51076 -0.09984 0.16896
 C685 C 0.56705 -0.07376 0.19977
 N686 N 0.59082 -0.07301 0.24540
 N687 N 0.58673 -0.09590 0.29948
 C688 C 0.55877 -0.12157 0.30905
 H689 H 0.46166 -0.12876 0.14544
 H690 H 0.45654 -0.17367 0.22235
 H691 H 0.57232 -0.05500 0.15477
 H692 H 0.55685 -0.13924 0.35465
 C693 C 0.37287 0.48116 0.16466
 C694 C 0.34820 0.48131 0.20615
 C695 C 0.35197 0.49605 0.28896
 C696 C 0.38124 0.51019 0.33195
 C697 C 0.40655 0.51075 0.28811
 C698 C 0.40218 0.49638 0.20354
 C699 C 0.43542 0.52544 0.33100
 N700 N 0.43843 0.53801 0.41358
 N701 N 0.41453 0.53676 0.45600
 C702 C 0.38605 0.52318 0.41836
 H703 H 0.36913 0.46934 0.10099
 H704 H 0.32601 0.47016 0.17264
 H705 H 0.45551 0.52681 0.29991
 H706 H 0.36745 0.52229 0.45699
 C707 C 1.10337 0.63482 0.17388
 C708 C 1.12909 0.65894 0.21542
 C709 C 1.14421 0.65311 0.28534
 C710 C 1.13257 0.62248 0.31618
 C711 C 1.10583 0.59810 0.27576
 C712 C 1.09171 0.60440 0.20280
 C713 C 1.09434 0.56802 0.30902
 N714 N 1.10920 0.56281 0.37700
 N715 N 1.13458 0.58565 0.41422
 C716 C 1.14674 0.61529 0.38633
 H717 H 1.09284 0.63983 0.11764
 H718 H 1.13779 0.68227 0.19133
 H719 H 1.07387 0.54861 0.28108
 H720 H 1.16714 0.63293 0.41991
 C721 C 0.47026 0.09342 0.20821
 C722 C 0.46764 0.11702 0.24898
 C723 C 0.49311 0.14190 0.29015
 C724 C 0.52158 0.14237 0.29296
 C725 C 0.52441 0.11875 0.24939
 C726 C 0.49853 0.09415 0.20604
 C727 C 0.55293 0.12005 0.25345
 N728 N 0.57687 0.14316 0.29857
 N729 N 0.57409 0.16498 0.34091
 C730 C 0.54724 0.16526 0.34027
 H731 H 0.45014 0.07475 0.17607
 H732 H 0.44562 0.11609 0.24717
 H733 H 0.55619 0.10258 0.22275
 H734 H 0.54618 0.18308 0.37802
 C735 C 0.62972 0.51975 0.15485
 C736 C 0.65461 0.52025 0.19831
 C737 C 0.65000 0.49704 0.25938
 C738 C 0.61965 0.47301 0.27793
 C739 C 0.59436 0.47235 0.23307
 C740 C 0.59959 0.49591 0.17080
 C741 C 0.56453 0.44860 0.25463
 N742 N 0.56044 0.42704 0.31666
 N743 N 0.58415 0.42775 0.35914
 C744 C 0.61357 0.45003 0.34227
 H745 H 0.63399 0.53815 0.10847
 H746 H 0.67768 0.53893 0.18433
 H747 H 0.54445 0.44716 0.22368
 H748 H 0.63182 0.44975 0.38018
 C749 C 0.88031 0.39297 0.16655
 C750 C 0.85612 0.36953 0.21447
 C751 C 0.85975 0.34699 0.25908
 C752 C 0.88850 0.34810 0.25477
 C753 C 0.91263 0.37085 0.20117
 C754 C 0.90895 0.39445 0.15954
 C755 C 0.93928 0.36857 0.19040
 N756 N 0.94263 0.34715 0.23692
 N757 N 0.92100 0.32753 0.29275
 C758 C 0.89412 0.32730 0.30341
 H759 H 0.87660 0.41048 0.13597
 H760 H 0.83430 0.36901 0.21683
 H761 H 0.95716 0.38279 0.14385
 H762 H 0.87752 0.31096 0.35020
   
