data_POSCAR
  _audit_creation_date              2014-09-24
  _audit_creation_method            'ToBaCCo'
  _symmetry_space_group_name_H-M    'P1'
  _symmetry_Int_Tables_number       1
  _symmetry_cell_setting            triclinic
  loop_
  _symmetry_equiv_pos_as_xyz
 x,y,z
_cell_length_a 27.9849
_cell_length_b 28.0300
_cell_length_c 47.6969
_cell_angle_alpha 89.845500
_cell_angle_beta 91.662500
_cell_angle_gamma 91.185400
loop_
  _atom_site_label
  _atom_site_type_symbol
  _atom_site_fract_x
  _atom_site_fract_y
  _atom_site_fract_z
C1 C -0.02532 0.59585 0.97384
 C2 C -0.03333 0.61850 0.99945
 C3 C -0.02571 0.59575 1.02542
 C4 C -0.01371 0.54662 1.02576
 C5 C -0.00885 0.52188 1.00006
 C6 C -0.01462 0.54645 0.97409
 C7 C -0.01267 0.52019 0.94904
 C8 C -0.00146 0.47220 0.94926
 C9 C 0.00570 0.44748 0.97459
 C10 C 0.00111 0.47212 1.00029
 C11 C -0.00919 0.52076 1.05099
 C12 C 0.00259 0.47289 1.05121
 C13 C 0.00630 0.44711 1.02616
 C14 C 0.01720 0.39761 1.02618
 C15 C 0.02446 0.37514 1.00040
 C16 C 0.01742 0.39871 0.97485
 H17 H -0.02057 0.53619 0.92884
 H18 H 0.00128 0.45464 0.92922
 H19 H -0.01521 0.53689 1.07108
 H20 H 0.00894 0.45657 1.07148
 H21 H -0.03995 0.65650 0.99934
 H22 H 0.03169 0.33727 0.99992
 C23 C 0.60031 0.02353 0.47348
 C24 C 0.62649 0.02978 0.49862
 C25 C 0.60510 0.02597 0.52487
 C26 C 0.55455 0.01878 0.52563
 C27 C 0.52735 0.01345 0.50011
 C28 C 0.55037 0.01551 0.47401
 C29 C 0.52275 0.01045 0.44906
 C30 C 0.47353 0.00300 0.44964
 C31 C 0.44974 0.00140 0.47516
 C32 C 0.47685 0.00653 0.50065
 C33 C 0.52993 0.01982 0.55097
 C34 C 0.48076 0.01183 0.55154
 C35 C 0.45350 0.00501 0.52665
 C36 C 0.40345 -0.00321 0.52703
 C37 C 0.37744 -0.00885 0.50176
 C38 C 0.39957 -0.00564 0.47590
 H39 H 0.53886 0.01254 0.42874
 H40 H 0.45434 -0.00158 0.42978
 H41 H 0.54815 0.02767 0.57075
 H42 H 0.46430 0.01156 0.57178
 H43 H 0.66503 0.03404 0.49757
 H44 H 0.33895 -0.01417 0.50221
 C45 C 0.08679 -0.00476 0.26274
 H46 H 0.09023 -0.00518 0.24021
 C47 C 0.12768 -0.00486 0.28030
 H48 H 0.16278 -0.00553 0.27132
 C49 C 0.03698 -0.00294 0.30210
 H50 H 0.00173 -0.00143 0.31060
 C51 C 0.07684 -0.00296 0.32035
 H52 H 0.07204 -0.00202 0.34280
 N53 N 0.04252 -0.00462 0.27386
 C54 C -0.05449 -0.06854 0.21045
 H55 H -0.08216 -0.04213 0.20975
 C56 C -0.05818 -0.10833 0.19292
 H57 H -0.08871 -0.11261 0.17860
 C58 C 0.01962 -0.09485 0.22957
 H59 H 0.04976 -0.08964 0.24394
 C60 C 0.01732 -0.13518 0.21239
 H61 H 0.04595 -0.16061 0.21337
 Zn62 Zn -0.01182 -0.00494 0.24914
 N63 N -0.01547 -0.06194 0.22782
 C64 C -0.00561 0.04237 0.19669
 N65 N -0.00598 0.04859 0.22498
 C66 C -0.00091 0.09283 0.23655
 C67 C 0.00314 0.13319 0.21941
 C68 C -0.00161 0.08168 0.17884
 C69 C -0.07889 -0.03952 0.28685
 C70 C -0.11835 -0.03834 0.30406
 C71 C -0.13699 0.03937 0.28515
 C72 C -0.09714 0.03676 0.26827
 N73 N -0.06838 -0.00180 0.26992
 H74 H -0.00825 0.00700 0.18784
 H75 H -0.00041 0.09672 0.25912
 H76 H 0.00661 0.16832 0.22874
 H77 H -0.00176 0.07639 0.15634
 H78 H -0.05576 -0.06998 0.28748
 H79 H -0.12565 -0.06792 0.31807
 H80 H -0.15901 0.07071 0.28427
 H81 H -0.08893 0.06588 0.25424
 C82 C -0.02163 -0.14162 0.19365
 C83 C 0.12256 -0.00424 0.30938
 C84 C -0.14728 0.00175 0.30347
 C85 C 0.00249 0.12748 0.19027
 C86 C 0.01585 0.09438 0.76362
 H87 H 0.01612 0.09835 0.74106
 C88 C 0.01673 0.13481 0.78075
 H89 H 0.01785 0.17007 0.77142
 C90 C 0.01346 0.04368 0.80347
 H91 H 0.01136 0.00826 0.81231
 C92 C 0.01425 0.08307 0.82131
 H93 H 0.01332 0.07774 0.84380
 N94 N 0.01499 0.04991 0.77519
 C95 C 0.07612 -0.04413 0.71342
 H96 H 0.04904 -0.07225 0.71268
 C97 C 0.11564 -0.04653 0.69630
 H98 H 0.11902 -0.07652 0.68227
 C99 C 0.10437 0.02987 0.73214
 H100 H 0.10000 0.05949 0.74619
 C101 C 0.14446 0.02886 0.71537
 H102 H 0.17054 0.05796 0.71634
 Zn103 Zn 0.01380 -0.00371 0.75099
 N104 N 0.07061 -0.00577 0.73037
 C105 C -0.03411 0.00304 0.69792
 N106 N -0.03997 0.00187 0.72615
 C107 C -0.08401 0.00600 0.73720
 C108 C -0.12457 0.00992 0.71959
 C109 C -0.07364 0.00694 0.67961
 C110 C 0.04702 -0.07117 0.78981
 C111 C 0.04492 -0.11115 0.80730
 C112 C -0.03343 -0.13053 0.78734
 C113 C -0.02989 -0.09015 0.77022
 N114 N 0.00945 -0.06081 0.77224
 H115 H 0.00115 0.00113 0.68948
 H116 H -0.08759 0.00588 0.75973
 H117 H -0.15956 0.01266 0.72852
 H118 H -0.06865 0.00745 0.65717
 H119 H 0.07811 -0.04758 0.79072
 H120 H 0.07441 -0.11838 0.82180
 H121 H -0.06535 -0.15305 0.78614
 H122 H -0.05888 -0.08204 0.75568
 C123 C 0.14977 -0.00938 0.69703
 C124 C 0.01616 0.12901 0.80988
 C125 C 0.00405 -0.14073 0.80630
 C126 C -0.11927 0.01011 0.69052
 C127 C 0.01023 -0.34448 0.09308
 C128 C -0.02711 -0.31258 0.09588
 C129 C -0.06455 -0.31211 0.07584
 C130 C -0.06455 -0.34308 0.05296
 C131 C -0.02736 -0.37574 0.04987
 C132 C 0.01030 -0.37562 0.07021
 C133 C -0.02592 -0.27845 0.11840
 C134 C -0.02503 -0.24874 0.13664
 C135 C -0.02401 -0.21269 0.15726
 C136 C -0.02304 -0.18085 0.17422
 H137 H 0.03988 -0.34451 0.10820
 H138 H -0.09345 -0.28727 0.07768
 H139 H -0.09400 -0.34182 0.03774
 H140 H 0.04088 -0.39817 0.06783
 C141 C -0.02022 0.33773 0.09246
 C142 C 0.01587 0.30432 0.09620
 C143 C 0.05322 0.30310 0.07740
 C144 C 0.05425 0.33471 0.05474
 C145 C 0.01820 0.36871 0.05062
 C146 C -0.01924 0.36952 0.06980
 C147 C 0.01322 0.26920 0.11821
 C148 C 0.01101 0.23852 0.13590
 C149 C 0.00832 0.20119 0.15574
 C150 C 0.00582 0.16818 0.17192
 H151 H -0.04981 0.33836 0.10659
 H152 H 0.08116 0.27713 0.07998
 H153 H 0.08359 0.33278 0.04048
 H154 H -0.04903 0.39318 0.06658
 C155 C 0.34134 0.03486 0.59252
 C156 C 0.31759 -0.00762 0.59993
 C157 C 0.32383 -0.04907 0.58424
 C158 C 0.35300 -0.04788 0.56095
 C159 C 0.37641 -0.00529 0.55323
 C160 C 0.37056 0.03607 0.56921
 C161 C 0.28445 -0.00809 0.62245
 C162 C 0.25541 -0.00855 0.64063
 C163 C 0.21999 -0.00905 0.66111
 C164 C 0.18859 -0.00933 0.67789
 H165 H 0.33641 0.06724 0.60435
 H166 H 0.30532 -0.08201 0.58964
 H167 H 0.35671 -0.07993 0.54863
 H168 H 0.38775 0.06940 0.56323
 C169 C -0.29330 0.05886 0.57401
 C170 C -0.29800 0.02401 0.59481
 C171 C -0.33581 -0.00937 0.59299
 C172 C -0.36860 -0.00816 0.57030
 C173 C -0.36435 0.02683 0.54912
 C174 C -0.32589 0.06012 0.55130
 C175 C -0.26235 0.02112 0.61708
 C176 C -0.23126 0.01875 0.63503
 C177 C -0.19352 0.01595 0.65521
 C178 C -0.16023 0.01341 0.67171
 H179 H -0.26397 0.08470 0.57511
 H180 H -0.33927 -0.03707 0.60872
 H181 H -0.39598 -0.03598 0.56871
 H182 H -0.32127 0.08761 0.53554
 C183 C 0.01652 -0.34681 0.90775
 C184 C -0.01794 -0.31193 0.90342
 C185 C -0.05580 -0.30879 0.92177
 C186 C -0.05893 -0.33998 0.94458
 C187 C -0.02448 -0.37542 0.94930
 C188 C 0.01347 -0.37814 0.93052
 C189 C -0.01316 -0.27761 0.88112
 C190 C -0.00906 -0.24782 0.86304
 C191 C -0.00429 -0.21174 0.84255
 C192 C -0.00035 -0.17992 0.82567
 H193 H 0.04646 -0.34902 0.89394
 H194 H -0.08255 -0.28172 0.91871
 H195 H -0.08869 -0.33662 0.95842
 H196 H 0.04210 -0.40303 0.93414
 C197 C 0.06245 0.31611 0.91930
 C198 C 0.02048 0.30657 0.90341
 C199 C -0.02188 0.32920 0.91002
 C200 C -0.02251 0.36051 0.93276
 C201 C 0.01934 0.36971 0.94899
 C202 C 0.06187 0.34744 0.94205
 C203 C 0.02009 0.27115 0.88161
 C204 C 0.01943 0.24028 0.86405
 C205 C 0.01838 0.20282 0.84432
 C206 C 0.01737 0.16974 0.82821
 H207 H 0.09531 0.29845 0.91453
 H208 H -0.05467 0.32171 0.89806
 H209 H -0.05583 0.37667 0.93818
 H210 H 0.09427 0.35363 0.95459
 C211 C -0.31649 0.06073 0.41585
 C212 C -0.31377 0.01824 0.40065
 C213 C -0.34099 -0.02184 0.40849
 C214 C -0.37016 -0.01970 0.43174
 C215 C -0.37258 0.02267 0.44725
 C216 C -0.34566 0.06291 0.43910
 C217 C -0.28078 0.01491 0.37818
 C218 C -0.25195 0.01192 0.36000
 C219 C -0.21686 0.00831 0.33950
 C220 C -0.18575 0.00525 0.32268
 H221 H -0.29527 0.09183 0.41011
 H222 H -0.33879 -0.05502 0.39705
 H223 H -0.39000 -0.05133 0.43806
 H224 H -0.34665 0.09567 0.45105
 C225 C 0.30712 -0.04883 0.42180
 C226 C 0.30277 -0.00851 0.40459
 C227 C 0.33171 0.03199 0.40997
 C228 C 0.36430 0.03244 0.43275
 C229 C 0.36841 -0.00772 0.45027
 C230 C 0.33970 -0.04841 0.44459
 C231 C 0.26661 -0.00771 0.38252
 C232 C 0.23523 -0.00689 0.36469
 C233 C 0.19724 -0.00585 0.34459
 C234 C 0.16375 -0.00503 0.32813
 H235 H 0.28464 -0.08020 0.41797
 H236 H 0.32832 0.06353 0.39694
 H237 H 0.38556 0.06443 0.43714
 H238 H 0.34202 -0.07947 0.45808
   
