data_POSCAR
  _audit_creation_date              2014-09-24
  _audit_creation_method            'ToBaCCo'
  _symmetry_space_group_name_H-M    'P1'
  _symmetry_Int_Tables_number       1
  _symmetry_cell_setting            triclinic
  loop_
  _symmetry_equiv_pos_as_xyz
 x,y,z
_cell_length_a 22.2178
_cell_length_b 22.6895
_cell_length_c 23.0820
_cell_angle_alpha 90.717100
_cell_angle_beta 89.840100
_cell_angle_gamma 91.752400
loop_
  _atom_site_label
  _atom_site_type_symbol
  _atom_site_fract_x
  _atom_site_fract_y
  _atom_site_fract_z
Si1 Si 0.26982 0.26605 0.28511
 Si2 Si 0.74630 0.76081 0.22658
 Si3 Si 0.76393 0.24227 0.74949
 Si4 Si 0.22849 0.73498 0.75444
 C5 C 0.11140 0.10602 0.05138
 H6 H 0.12199 0.11492 0.00650
 C7 C 0.13975 0.13937 0.09553
 H8 H 0.17212 0.17391 0.08418
 C9 C 0.05446 0.05176 0.12061
 H10 H 0.02021 0.01869 0.13057
 C11 C 0.08113 0.08418 0.16576
 H12 H 0.06777 0.07476 0.20990
 N13 N 0.07011 0.06269 0.06466
 C14 C 0.05618 -0.05757 -0.08467
 H15 H 0.00766 -0.06000 -0.08874
 C16 C 0.09148 -0.09365 -0.11933
 H17 H 0.06916 -0.12305 -0.15013
 C18 C 0.14281 -0.01784 -0.03702
 H19 H 0.16250 0.01049 -0.00376
 C20 C 0.17992 -0.05336 -0.07074
 H21 H 0.22806 -0.05129 -0.06351
 Zn22 Zn 0.02863 0.01914 0.00554
 N23 N 0.08207 -0.02072 -0.04443
 C24 C -0.01646 0.07564 -0.09447
 N25 N -0.01952 0.07178 -0.03576
 C26 C -0.05702 0.10609 -0.00430
 C27 C -0.09479 0.14491 -0.03196
 C28 C -0.05383 0.11355 -0.12395
 C29 C 0.01016 -0.08340 0.06755
 C30 C -0.02108 -0.12671 0.09878
 C31 C -0.11432 -0.08190 0.07272
 C32 C -0.08116 -0.03936 0.04175
 N33 N -0.01998 -0.04015 0.04093
 H34 H 0.01472 0.04924 -0.11867
 H35 H -0.05797 0.10275 0.04241
 H36 H -0.12499 0.17121 -0.00626
 H37 H -0.05079 0.11577 -0.17064
 H38 H 0.05883 -0.08315 0.06580
 H39 H 0.00398 -0.15985 0.12084
 H40 H -0.16284 -0.07985 0.07349
 H41 H -0.10432 -0.00522 0.01942
 C42 C 0.15433 -0.09254 -0.11212
 C43 C 0.12443 0.12854 0.15367
 C44 C -0.08409 -0.12575 0.10269
 C45 C -0.09414 0.14838 -0.09262
 C46 C 0.04120 0.61426 0.52541
 H47 H 0.04866 0.62199 0.47975
 C48 C 0.06824 0.65203 0.56672
 H49 H 0.09650 0.68897 0.55292
 C50 C -0.00385 0.55614 0.59934
 H51 H -0.03177 0.51866 0.61199
 C52 C 0.02075 0.59370 0.64188
 H53 H 0.01216 0.58444 0.68711
 N54 N 0.00794 0.56608 0.54238
 C55 C 0.02869 0.44031 0.39963
 H56 H -0.01777 0.42651 0.39251
 C57 C 0.07449 0.41414 0.36775
 H58 H 0.06280 0.38067 0.33560
 C59 C 0.10027 0.49977 0.45136
 H60 H 0.11068 0.53139 0.48538
 C61 C 0.14731 0.47522 0.42016
 H62 H 0.19325 0.48898 0.43008
 Zn63 Zn -0.02185 0.51120 0.48601
 N64 N 0.04222 0.48232 0.44050
 C65 C -0.06797 0.55685 0.38177
 N66 N -0.07818 0.54977 0.43945
 C67 C -0.12759 0.57216 0.46561
 C68 C -0.17026 0.60125 0.43315
 C69 C -0.10885 0.58673 0.34792
 C70 C -0.01964 0.41043 0.55309
 C71 C -0.04208 0.36287 0.58521
 C72 C -0.14259 0.38675 0.55575
 C73 C -0.11814 0.43318 0.52320
 N74 N -0.05775 0.44517 0.52383
 H75 H -0.02773 0.54008 0.36200
 H76 H -0.13384 0.56734 0.51183
 H77 H -0.20944 0.61876 0.45448
 H78 H -0.10014 0.59200 0.30210
 H79 H 0.02824 0.42062 0.55244
 H80 H -0.01135 0.33660 0.60954
 H81 H -0.19084 0.37856 0.55606
 H82 H -0.14767 0.46006 0.49847
 C83 C 0.13478 0.43126 0.37834
 C84 C 0.05856 0.64131 0.62575
 C85 C -0.10436 0.35156 0.58792
 C86 C -0.16082 0.60914 0.37366
 C87 C 0.56857 0.07318 0.55272
 H88 H 0.55658 0.09259 0.51197
 C89 C 0.60615 0.10488 0.59109
 H90 H 0.62327 0.14797 0.57863
 C91 C 0.55969 -0.00613 0.61815
 H92 H 0.54136 -0.04915 0.62895
 C93 C 0.59721 0.02396 0.65776
 H94 H 0.60734 0.00341 0.69852
 N95 N 0.54665 0.01843 0.56638
 C96 C 0.53897 -0.11188 0.43443
 H97 H 0.50414 -0.13992 0.45322
 C98 C 0.57684 -0.13482 0.39174
 H99 H 0.57084 -0.18060 0.37903
 C100 C 0.58796 -0.01811 0.42755
 H101 H 0.59192 0.02748 0.44117
 C102 C 0.62664 -0.03911 0.38489
 H103 H 0.66030 -0.00927 0.36655
 Zn104 Zn 0.49643 -0.02198 0.51117
 N105 N 0.54568 -0.05459 0.45205
 C106 C 0.44070 0.03669 0.41932
 N107 N 0.44628 0.03401 0.47786
 C108 C 0.41871 0.07299 0.51350
 C109 C 0.38455 0.11757 0.49042
 C110 C 0.40684 0.08052 0.39436
 C111 C 0.47584 -0.12988 0.56912
 C112 C 0.44260 -0.17292 0.59913
 C113 C 0.35333 -0.11675 0.58528
 C114 C 0.38819 -0.07507 0.55486
 N115 N 0.44854 -0.08174 0.54817
 H116 H 0.46308 0.00520 0.39184
 H117 H 0.42419 0.06997 0.55992
 H118 H 0.36350 0.14862 0.51947
 H119 H 0.40403 0.08226 0.34769
 H120 H 0.52378 -0.13448 0.56311
 H121 H 0.46537 -0.21043 0.61621
 H122 H 0.30557 -0.11033 0.59057
 H123 H 0.36700 -0.03696 0.53744
 C124 C 0.62190 -0.09830 0.36671
 C125 C 0.62124 0.08016 0.64444
 C126 C 0.38070 -0.16617 0.60839
 C127 C 0.37861 0.12209 0.43008
 C128 C 0.56804 0.59067 -0.00811
 H129 H 0.56342 0.59141 -0.05455
 C130 C 0.60099 0.63597 0.01975
 H131 H 0.62247 0.67043 -0.00573
 C132 C 0.54349 0.54720 0.08198
 H133 H 0.51946 0.51387 0.10654
 C134 C 0.57700 0.59112 0.11153
 H135 H 0.57879 0.59063 0.15836
 N136 N 0.53975 0.54742 0.02306
 C137 C 0.54721 0.38894 -0.06669
 H138 H 0.52691 0.36463 -0.03152
 C139 C 0.58330 0.35928 -0.10645
 H140 H 0.59046 0.31285 -0.10049
 C141 C 0.56017 0.47768 -0.11861
 H142 H 0.54960 0.52333 -0.12432
 C143 C 0.59638 0.44976 -0.15944
 H144 H 0.61456 0.47489 -0.19535
 Zn145 Zn 0.49087 0.48929 -0.01682
 N146 N 0.53771 0.44762 -0.07233
 C147 C 0.39443 0.49476 -0.09472
 N148 N 0.42906 0.52726 -0.05694
 C149 C 0.42096 0.58605 -0.04912
 C150 C 0.37764 0.61469 -0.08111
 C151 C 0.34986 0.52148 -0.12687
 C152 C 0.49433 0.40407 0.07062
 C153 C 0.47127 0.36495 0.11176
 C154 C 0.37083 0.39184 0.08502
 C155 C 0.39586 0.43036 0.04413
 N156 N 0.45666 0.43578 0.03767
 H157 H 0.40184 0.44810 -0.10010
 H158 H 0.44805 0.61097 -0.01812
 H159 H 0.37188 0.66147 -0.07444
 H160 H 0.32289 0.49520 -0.15711
 H161 H 0.54254 0.40963 0.06517
 H162 H 0.50209 0.34054 0.13782
 H163 H 0.32239 0.38819 0.08923
 H164 H 0.36661 0.45627 0.01797
 C165 C 0.60932 0.39001 -0.15312
 C166 C 0.60583 0.63645 0.08025
 C167 C 0.40879 0.35874 0.11975
 C168 C 0.34171 0.58233 -0.12079
 N169 N 0.25009 -0.13848 -0.13472
 N170 N 0.27137 -0.18166 -0.16733
 C171 C 0.22471 -0.20412 -0.19846
 C172 C 0.17432 -0.17318 -0.18421
 N173 N 0.19173 -0.13264 -0.14398
 H174 H 0.12930 -0.18052 -0.20084
 N175 N 0.23972 0.42349 0.34822
 N176 N 0.27567 0.38434 0.32456
 C177 C 0.24070 0.33699 0.30996
 C178 C 0.18230 0.34810 0.32553
 N179 N 0.18340 0.40259 0.34928
 H180 H 0.14379 0.31782 0.32350
 N181 N 0.70875 -0.08855 0.30201
 N182 N 0.74143 -0.12094 0.26650
 C183 C 0.71593 -0.17550 0.26598
 C184 C 0.66657 -0.17562 0.30220
 N185 N 0.66353 -0.12046 0.32419
 H186 H 0.63704 -0.21285 0.31232
 N187 N 0.67100 0.38721 -0.24076
 N188 N 0.70968 0.35266 -0.26721
 C189 C 0.71259 0.30334 -0.23569
 C190 C 0.67421 0.30862 -0.18908
 N191 N 0.64911 0.36174 -0.19354
 H192 H 0.66755 0.27761 -0.15427
 N193 N -0.16327 0.23017 -0.09601
 N194 N -0.19929 0.25574 -0.13315
 C195 C -0.19326 0.22718 -0.18424
 C196 C -0.15236 0.18348 -0.17739
 N197 N -0.13453 0.18665 -0.12170
 H198 H -0.13875 0.15137 -0.20950
 N199 N -0.26087 0.64518 0.35221
 N200 N -0.28654 0.68167 0.31604
 C201 C -0.24302 0.70193 0.27996
 C202 C -0.18990 0.67643 0.29501
 N203 N -0.20281 0.64140 0.34018
 H204 H -0.14549 0.68466 0.27722
 N205 N 0.32641 0.21505 0.43681
 N206 N 0.29917 0.25272 0.40311
 C207 C 0.30127 0.23036 0.34888
 C208 C 0.33043 0.17781 0.35025
 N209 N 0.34568 0.16968 0.40601
 H210 H 0.33941 0.14876 0.31396
 N211 N 0.24888 0.58370 -0.17707
 N212 N 0.21799 0.62066 -0.20851
 C213 C 0.24821 0.67306 -0.20631
 C214 C 0.29858 0.66720 -0.17250
 N215 N 0.29738 0.61078 -0.15497
 H216 H 0.33374 0.70009 -0.16349
 N217 N -0.09008 -0.21241 0.16432
 N218 N -0.12964 -0.24228 0.19639
 C219 C -0.18267 -0.21592 0.19066
 C220 C -0.17456 -0.16917 0.15370
 N221 N -0.11603 -0.16822 0.13816
 H222 H -0.20804 -0.13838 0.14074
 N223 N -0.09974 0.25925 0.64116
 N224 N -0.13108 0.22991 0.68100
 C225 C -0.18131 0.26024 0.69135
 C226 C -0.18002 0.30882 0.65610
 N227 N -0.12854 0.30672 0.62553
 H228 H -0.21160 0.34399 0.65461
 N229 N 0.36578 -0.26219 0.65357
 N230 N 0.32843 -0.28949 0.68988
 C231 C 0.28403 -0.25207 0.70183
 C232 C 0.29526 -0.20082 0.67165
 N233 N 0.34686 -0.20880 0.64203
 H234 H 0.27037 -0.16059 0.67401
 N235 N 0.41744 0.28239 0.19262
 N236 N 0.38501 0.25710 0.23419
 C237 C 0.32979 0.27969 0.23152
 C238 C 0.32925 0.31964 0.18724
 N239 N 0.38491 0.32028 0.16391
 H240 H 0.29287 0.34784 0.17578
 N241 N 0.12754 0.16462 0.25351
 N242 N 0.16160 0.19838 0.28811
 C243 C 0.20822 0.21864 0.25597
 C244 C 0.20180 0.19636 0.20043
 N245 N 0.15072 0.16277 0.20060
 H246 H 0.23201 0.20305 0.16410
 N247 N 0.06623 0.68546 0.72210
 N248 N 0.10761 0.71055 0.75622
 C249 C 0.15788 0.71826 0.72406
 C250 C 0.14614 0.69669 0.66897
 N251 N 0.08840 0.67674 0.66953
 H252 H 0.17790 0.69075 0.63386
 N253 N 0.68167 0.08728 0.73269
 N254 N 0.71763 0.12538 0.76084
 C255 C 0.71971 0.17512 0.72962
 C256 C 0.68395 0.16647 0.68152
 N257 N 0.66088 0.11092 0.68479
 H258 H 0.67585 0.19790 0.64781
 N259 N 0.64719 0.73704 0.08760
 N260 N 0.68095 0.77041 0.12289
 C261 C 0.69412 0.73690 0.16863
 C262 C 0.66732 0.68190 0.16049
 N263 N 0.63848 0.68371 0.10933
 H264 H 0.67072 0.64373 0.18780
   
