data_POSCAR
  _audit_creation_date              2014-09-24
  _audit_creation_method            'ToBaCCo'
  _symmetry_space_group_name_H-M    'P1'
  _symmetry_Int_Tables_number       1
  _symmetry_cell_setting            triclinic
  loop_
  _symmetry_equiv_pos_as_xyz
 x,y,z
_cell_length_a 18.6412
_cell_length_b 12.5547
_cell_length_c 11.6753
_cell_angle_alpha 89.821400
_cell_angle_beta 90.147800
_cell_angle_gamma 89.849900
loop_
  _atom_site_label
  _atom_site_type_symbol
  _atom_site_fract_x
  _atom_site_fract_y
  _atom_site_fract_z
O1 O 0.15169 0.18714 0.12199
 O2 O 0.19404 0.09285 -0.03214
 C3 C 0.20218 0.15914 0.05163
 O4 O -0.03223 -0.18861 0.24691
 O5 O -0.13214 -0.08918 0.20275
 C6 C -0.09899 -0.16246 0.26083
 O7 O 0.15277 -0.17609 0.12265
 O8 O 0.19464 -0.08056 -0.03090
 C9 C 0.20359 -0.14711 0.05316
 O10 O -0.03312 0.19836 0.24714
 O11 O -0.13253 0.09795 0.20488
 C12 C -0.09963 0.17160 0.26208
 Zr13 Zr 0.04230 0.14120 0.12721
 O14 O 0.08903 0.15690 0.29162
 O15 O 0.03912 0.30857 0.10802
 Zr16 Zr 0.04326 -0.12844 0.12881
 O17 O 0.08521 -0.13321 0.29743
 O18 O 0.04366 -0.29632 0.11601
 O19 O 0.10627 0.00646 0.10668
 O20 O -0.00831 0.00620 0.18881
 O21 O -0.13989 0.19927 -0.11984
 O22 O -0.18333 0.09732 0.02783
 C23 C -0.19052 0.16988 -0.05027
 O24 O 0.04185 -0.17848 -0.26017
 O25 O 0.14242 -0.08369 -0.21090
 C26 C 0.10871 -0.15219 -0.27357
 O27 O -0.13934 -0.18762 -0.11736
 O28 O -0.18322 -0.08573 0.02995
 C29 C -0.19022 -0.15806 -0.04819
 O30 O 0.04115 0.19148 -0.26117
 O31 O 0.14204 0.09744 -0.21041
 C32 C 0.10827 0.16606 -0.27363
 Zr33 Zr -0.03330 0.14033 -0.13538
 O34 O -0.08732 0.14039 -0.29520
 O35 O -0.02728 0.30867 -0.13844
 Zr36 Zr -0.03261 -0.12956 -0.13342
 O37 O -0.08659 -0.13413 -0.29307
 O38 O -0.02495 -0.29783 -0.13181
 Zr39 Zr 0.10180 0.00586 -0.07371
 Zr40 Zr -0.09230 0.00607 0.06835
 O41 O -0.09481 0.00539 -0.11212
 O42 O 0.01924 0.00535 -0.19752
 O43 O -0.05398 0.16151 0.03873
 O44 O 0.06241 -0.14846 -0.04366
 O45 O 0.06148 0.16018 -0.04537
 O46 O -0.05300 -0.14927 0.04069
 H47 H -0.02011 0.00540 0.27148
 H48 H 0.09258 -0.21051 -0.06451
 H49 H -0.14154 0.00528 -0.15273
 H50 H 0.09123 0.22252 -0.06638
 H51 H 0.06583 -0.32310 0.18780
 H52 H -0.04599 -0.32297 -0.05886
 H53 H -0.06152 -0.08454 -0.34524
 H54 H -0.05854 0.09706 -0.34885
 H55 H -0.04770 0.33480 -0.06555
 H56 H 0.06179 0.33800 0.17788
 H57 H 0.08223 0.08851 0.33212
 H58 H 0.12476 -0.08087 0.30102
 O59 O 0.54172 0.69080 0.75682
 O60 O 0.64256 0.59686 0.70623
 C61 C 0.60890 0.66507 0.76945
 O62 O 0.35938 0.31636 0.61616
 O63 O 0.31585 0.41770 0.46712
 C64 C 0.30864 0.34575 0.54609
 O65 O 0.54119 0.32560 0.75906
 O66 O 0.64262 0.41636 0.70592
 C67 C 0.60862 0.34963 0.77046
 O68 O 0.35964 0.70001 0.61358
 O69 O 0.31566 0.59815 0.46629
 C70 C 0.30873 0.67058 0.54422
 Zr71 Zr 0.46658 0.64161 0.63069
 O72 O 0.41703 0.63309 0.79308
 O73 O 0.47172 0.80990 0.63767
 Zr74 Zr 0.46652 0.37252 0.63035
 O75 O 0.41620 0.36587 0.79238
 O76 O 0.46528 0.20398 0.61898
 O77 O 0.51914 0.50685 0.69318
 O78 O 0.40459 0.50747 0.60773
 O79 O 0.46421 0.70221 0.25028
 O80 O 0.36470 0.60263 0.29412
 C81 C 0.39735 0.67629 0.23642
 O82 O 0.65124 0.32369 0.37518
 O83 O 0.69386 0.42030 0.52725
 C84 C 0.70195 0.35270 0.44475
 O85 O 0.46678 0.31237 0.25071
 O86 O 0.36721 0.41257 0.29315
 C87 C 0.40019 0.33886 0.23602
 O88 O 0.65078 0.69092 0.37455
 O89 O 0.69263 0.59687 0.52995
 C90 C 0.70113 0.66284 0.44572
 Zr91 Zr 0.54177 0.64256 0.36707
 O92 O 0.58109 0.64436 0.19712
 O93 O 0.54862 0.81074 0.37393
 Zr94 Zr 0.54242 0.37323 0.36758
 O95 O 0.58213 0.37358 0.19779
 O96 O 0.54848 0.20494 0.37423
 Zr97 Zr 0.60130 0.50705 0.56953
 Zr98 Zr 0.40727 0.50808 0.42738
 O99 O 0.49069 0.50806 0.30649
 O100 O 0.60599 0.50781 0.38919
 O101 O 0.44598 0.66337 0.45639
 O102 O 0.56136 0.35289 0.54072
 O103 O 0.56070 0.66138 0.54014
 O104 O 0.44625 0.35266 0.45621
 H105 H 0.35810 0.50766 0.64867
 H106 H 0.59176 0.29109 0.56194
 H107 H 0.47830 0.50828 0.22390
 H108 H 0.59005 0.72401 0.56138
 H109 H 0.51298 0.17607 0.64136
 H110 H 0.50200 0.17903 0.40398
 H111 H 0.62609 0.41749 0.19675
 H112 H 0.62456 0.59908 0.19527
 H113 H 0.49974 0.83846 0.38813
 H114 H 0.44872 0.83770 0.56720
 H115 H 0.40970 0.70773 0.81788
 H116 H 0.43051 0.43095 0.83409
 C117 C 0.27393 0.20280 0.07033
 C118 C 0.33406 0.17185 0.01023
 C119 C 0.38984 0.22156 0.06292
 C120 C 0.35934 0.27973 0.15021
 O121 O 0.28900 0.26862 0.15505
 H122 H 0.33711 0.11648 -0.06047
 H123 H 0.44611 0.21415 0.04229
 C124 C 0.85977 0.77902 0.34677
 C125 C 0.88963 0.72035 0.43481
 C126 C 0.83321 0.67278 0.48800
 C127 C 0.77332 0.70534 0.42745
 O128 O 0.78922 0.77014 0.34193
 H129 H 0.94582 0.71127 0.45568
 H130 H 0.83565 0.61748 0.55923
 C131 C 0.73791 0.21739 0.93574
 C132 C 0.67901 0.19002 1.00095
 C133 C 0.62211 0.23949 0.94987
 C134 C 0.65071 0.29384 0.85816
 O135 O 0.72090 0.28078 0.84934
 H136 H 0.67732 0.13654 1.07379
 H137 H 0.56635 0.23395 0.97416
 C138 C 0.15035 0.79271 0.63825
 C139 C 0.12111 0.73826 0.54724
 C140 C 0.17769 0.68970 0.49511
 C141 C 0.23714 0.71759 0.55905
 O142 O 0.22071 0.78051 0.64567
 H143 H 0.06513 0.73209 0.52408
 H144 H 0.17549 0.63635 0.42252
 C145 C 0.15015 0.22271 0.63916
 C146 C 0.12098 0.27845 0.54844
 C147 C 0.17751 0.32782 0.49712
 C148 C 0.23693 0.29916 0.56111
 O149 O 0.22049 0.23500 0.64713
 H150 H 0.06506 0.28485 0.52489
 H151 H 0.17527 0.38198 0.42486
 C152 C 0.73806 0.79521 0.93663
 C153 C 0.67875 0.82333 1.00054
 C154 C 0.62199 0.77505 0.94847
 C155 C 0.65095 0.72045 0.85736
 O156 O 0.72134 0.73239 0.84992
 H157 H 0.67673 0.87660 1.07319
 H158 H 0.56606 0.78144 0.97183
 C159 C 0.26959 0.81380 0.07114
 C160 C 0.32966 0.84244 0.00890
 C161 C 0.38571 0.79264 0.06174
 C162 C 0.35577 0.73608 0.15088
 O163 O 0.28536 0.74836 0.15682
 H164 H 0.33268 0.89612 -0.06371
 H165 H 0.44182 0.79832 0.03935
 C166 C 0.85940 0.23044 0.34811
 C167 C 0.88978 0.28880 0.43541
 C168 C 0.83392 0.33905 0.48741
 C169 C 0.77380 0.30827 0.42696
 O170 O 0.78901 0.24201 0.34264
 H171 H 0.94603 0.29618 0.45630
 H172 H 0.83692 0.39477 0.55780
   
