data_POSCAR
  _audit_creation_date              2014-09-24
  _audit_creation_method            'ToBaCCo'
  _symmetry_space_group_name_H-M    'P1'
  _symmetry_Int_Tables_number       1
  _symmetry_cell_setting            triclinic
  loop_
  _symmetry_equiv_pos_as_xyz
 x,y,z
_cell_length_a 41.8519
_cell_length_b 42.2548
_cell_length_c 40.2526
_cell_angle_alpha 93.922400
_cell_angle_beta 91.211400
_cell_angle_gamma 90.395200
loop_
  _atom_site_label
  _atom_site_type_symbol
  _atom_site_fract_x
  _atom_site_fract_y
  _atom_site_fract_z
N1 N 0.24264 0.23937 0.26203
 N2 N 0.75547 -0.26629 0.25749
 N3 N 0.73654 0.27235 0.75719
 N4 N 0.25042 -0.25193 0.74326
 N5 N 0.76701 -0.23363 0.74830
 N6 N 0.22642 0.24453 0.76110
 N7 N 0.25610 -0.26905 0.23374
 N8 N 0.75380 0.24384 0.25149
 O9 O 0.22257 0.01947 0.46471
 O10 O 0.21661 -0.03816 0.52929
 O11 O 0.22111 0.02286 0.52918
 O12 O 0.21617 -0.04216 0.46400
 O13 O 0.26871 -0.04589 0.46486
 O14 O 0.27357 0.01834 0.53154
 O15 O 0.26908 -0.04343 0.52948
 O16 O 0.27509 0.01568 0.46695
 Cu17 Cu 0.21383 -0.00922 0.49650
 Cu18 Cu 0.27687 -0.01428 0.49832
 C19 C 0.24997 0.02784 0.45520
 C20 C 0.24192 -0.05058 0.54038
 C21 C 0.24808 0.03172 0.54163
 C22 C 0.24153 -0.05513 0.45315
 O23 O 0.78682 0.03809 0.53701
 O24 O 0.78423 -0.02695 0.47099
 O25 O 0.78963 0.03475 0.47226
 O26 O 0.78221 -0.02347 0.53555
 O27 O 0.72968 -0.02081 0.53141
 O28 O 0.73718 0.03934 0.47000
 O29 O 0.73187 -0.02179 0.46629
 O30 O 0.73426 0.04106 0.53437
 Cu31 Cu 0.79099 0.00524 0.50429
 Cu32 Cu 0.72796 0.00972 0.50030
 C33 C 0.76094 0.05069 0.54703
 C34 C 0.75762 -0.03512 0.45711
 C35 C 0.76468 0.04719 0.46044
 C36 C 0.75472 -0.03231 0.54417
 O37 O 0.45975 0.29434 0.04471
 O38 O 0.51930 0.29067 -0.02220
 O39 O 0.45721 0.29414 -0.02008
 O40 O 0.52194 0.29416 0.04254
 O41 O 0.52052 0.24188 0.04045
 O42 O 0.45484 0.24188 -0.02228
 O43 O 0.51687 0.23843 -0.02409
 O44 O 0.45825 0.24206 0.04232
 Cu45 Cu 0.48970 0.29856 0.01145
 Cu46 Cu 0.48738 0.23585 0.00892
 C47 C 0.44881 0.26863 0.05490
 C48 C 0.52834 0.26372 -0.03447
 C49 C 0.44485 0.26817 -0.03193
 C50 C 0.53254 0.26817 0.05210
 O51 O 0.54039 0.72708 0.02480
 O52 O 0.47956 0.72894 -0.04273
 O53 O 0.54202 0.72553 -0.04006
 O54 O 0.47837 0.72920 0.02135
 O55 O 0.47935 0.78147 0.02263
 O56 O 0.54666 0.77766 -0.03521
 O57 O 0.48477 0.78108 -0.04177
 O58 O 0.54091 0.77946 0.02975
 Cu59 Cu 0.50995 0.72243 -0.00957
 Cu60 Cu 0.51334 0.78518 -0.00592
 C61 C 0.55028 0.75303 0.03942
 C62 C 0.47197 0.75537 -0.05382
 C63 C 0.55550 0.75086 -0.04797
 C64 C 0.46761 0.75588 0.03219
 O65 O 0.03225 0.45827 0.26598
 O66 O -0.02862 0.52109 0.26754
 O67 O -0.02990 0.45941 0.26377
 O68 O 0.03372 0.52001 0.27055
 O69 O 0.03548 0.51918 0.21577
 O70 O -0.02953 0.45967 0.20902
 O71 O -0.02614 0.52184 0.21283
 O72 O 0.03265 0.45759 0.21116
 Cu73 Cu 0.00172 0.48972 0.27246
 Cu74 Cu 0.00312 0.48947 0.20668
 C75 C 0.04278 0.44710 0.23823
 C76 C -0.03732 0.53250 0.24041
 C77 C -0.04063 0.44912 0.23530
 C78 C 0.04559 0.52993 0.24436
 O79 O 0.02976 0.53589 0.72385
 O80 O -0.03605 0.47759 0.71875
 O81 O -0.03218 0.53917 0.72585
 O82 O 0.02604 0.47401 0.71835
 O83 O 0.02678 0.47188 0.77296
 O84 O -0.02933 0.53827 0.78054
 O85 O -0.03497 0.47657 0.77346
 O86 O 0.03297 0.53301 0.77839
 Cu87 Cu -0.00328 0.50684 0.71622
 Cu88 Cu -0.00104 0.50488 0.78183
 C89 C 0.04285 0.54411 0.75187
 C90 C -0.04689 0.46713 0.74515
 C91 C -0.04061 0.54996 0.75457
 C92 C 0.03620 0.46165 0.74447
 C93 C 0.30008 0.21028 0.19660
 C94 C 0.31615 0.23850 0.18915
 C95 C 0.30709 0.26717 0.20671
 C96 C 0.28337 0.26719 0.23091
 C97 C 0.26777 0.23903 0.23787
 C98 C 0.27635 0.21068 0.22046
 C99 C 0.32156 0.29576 0.19994
 C100 C 0.34462 0.29680 0.17574
 C101 C 0.35453 0.26904 0.15740
 C102 C 0.34052 0.23931 0.16473
 C103 C 0.35149 0.21136 0.14754
 C104 C 0.37476 0.21231 0.12362
 C105 C 0.38798 0.24106 0.11555
 C106 C 0.37811 0.26992 0.13211
 C107 C 0.39215 0.29840 0.12233
 C108 C 0.41500 0.29798 0.09744
 C109 C 0.42474 0.26931 0.08145
 C110 C 0.41108 0.24095 0.09077
 H111 H 0.30478 0.18750 0.18412
 H112 H 0.27688 0.28923 0.24437
 H113 H 0.26424 0.18871 0.22502
 H114 H 0.31479 0.31773 0.21338
 H115 H 0.35449 0.31990 0.17226
 H116 H 0.34284 0.18807 0.15220
 H117 H 0.38238 0.19017 0.11114
 H118 H 0.38582 0.32147 0.13309
 H119 H 0.42504 0.32029 0.09068
 H120 H 0.41824 0.21854 0.07850
 C121 C 0.71690 0.71526 0.17294
 C122 C 0.68693 0.73023 0.17597
 C123 C 0.68032 0.74721 0.20661
 C124 C 0.70221 0.74728 0.23364
 C125 C 0.73217 0.73275 0.23013
 C126 C 0.73904 0.71676 0.19937
 C127 C 0.65206 0.76437 0.20997
 C128 C 0.63077 0.76606 0.18316
 C129 C 0.63623 0.74934 0.15224
 C130 C 0.66373 0.72956 0.14934
 C131 C 0.66675 0.70923 0.12025
 C132 C 0.64428 0.70907 0.09435
 C133 C 0.61868 0.73003 0.09574
 C134 C 0.61472 0.75109 0.12433
 C135 C 0.58985 0.77358 0.12340
 C136 C 0.56942 0.77442 0.09558
 C137 C 0.57257 0.75250 0.06821
 C138 C 0.59715 0.73025 0.06848
 H139 H 0.72449 0.70323 0.15001
 H140 H 0.69600 0.75906 0.25735
 H141 H 0.76189 0.70548 0.19540
 H142 H 0.64669 0.77728 0.23337
 H143 H 0.60954 0.77984 0.18773
 H144 H 0.68573 0.69223 0.11729
 H145 H 0.64735 0.69277 0.07268
 H146 H 0.58622 0.79145 0.14336
 H147 H 0.55071 0.79202 0.09567
 H148 H 0.60005 0.71366 0.04700
 C149 C 0.67474 0.30793 -0.18549
 C150 C 0.66197 0.28096 -0.17118
 C151 C 0.67431 0.25087 -0.18195
 C152 C 0.69867 0.24825 -0.20540
 C153 C 0.71117 0.27520 -0.21898
 C154 C 0.69887 0.30497 -0.20892
 C155 C 0.66243 0.22345 -0.16920
 C156 C 0.63842 0.22497 -0.14595
 C157 C 0.62531 0.25425 -0.13417
 C158 C 0.63752 0.28276 -0.14670
 C159 C 0.62514 0.31208 -0.13405
 C160 C 0.60170 0.31361 -0.11009
 C161 C 0.58933 0.28610 -0.09788
 C162 C 0.60066 0.25598 -0.10993
 C163 C 0.58676 0.22882 -0.09713
 C164 C 0.56331 0.23160 -0.07306
 C165 C 0.55265 0.26141 -0.06077
 C166 C 0.56569 0.28861 -0.07350
 H167 H 0.66657 0.33167 -0.17937
 H168 H 0.70824 0.22515 -0.21295
 H169 H 0.70794 0.32609 -0.21943
 H170 H 0.67182 0.20041 -0.17732
 H171 H 0.63098 0.20256 -0.13742
 H172 H 0.63334 0.33455 -0.14184
 H173 H 0.59315 0.33671 -0.10100
 H174 H 0.59326 0.20497 -0.10518
 H175 H 0.55359 0.21010 -0.06390
 H176 H 0.55752 0.31184 -0.06436
 C177 C 0.28820 0.74194 -0.17170
 C178 C 0.32070 0.74894 -0.17722
 C179 C 0.32877 0.75868 -0.20899
 C180 C 0.30570 0.75830 -0.23486
 C181 C 0.27388 0.74949 -0.22959
 C182 C 0.26523 0.74272 -0.19733
 C183 C 0.35989 0.76854 -0.21489
 C184 C 0.38324 0.76930 -0.18979
 C185 C 0.37667 0.75886 -0.15805
 C186 C 0.34531 0.74705 -0.15224
 C187 C 0.33991 0.73259 -0.12224
 C188 C 0.36418 0.73022 -0.09846
 C189 C 0.39433 0.74335 -0.10291
 C190 C 0.40073 0.75882 -0.13228
 C191 C 0.43081 0.77409 -0.13432
 C192 C 0.45373 0.77313 -0.10868
 C193 C 0.44776 0.75631 -0.08073
 C194 C 0.41810 0.74138 -0.07796
 H195 H 0.27968 0.73659 -0.14760
 H196 H 0.31276 0.76457 -0.25930
 H197 H 0.24055 0.73769 -0.19195
 H198 H 0.36624 0.77602 -0.23914
 H199 H 0.40673 0.77690 -0.19649
 H200 H 0.31739 0.72163 -0.11705
 H201 H 0.35913 0.71836 -0.07608
 H202 H 0.43694 0.78781 -0.15491
 H203 H 0.47639 0.78529 -0.11084
 H204 H 0.41320 0.72908 -0.05581
 C205 C 0.18715 0.30274 0.29526
 C206 C 0.17322 0.31371 0.26579
 C207 C 0.18343 0.29948 0.23490
 C208 C 0.20621 0.27522 0.23389
 C209 C 0.21950 0.26463 0.26328
 C210 C 0.20984 0.27864 0.29388
 C211 C 0.17085 0.30940 0.20509
 C212 C 0.14826 0.33324 0.20498
 C213 C 0.13709 0.34823 0.23492
 C214 C 0.14962 0.33817 0.26586
 C215 C 0.13801 0.35275 0.29580
 C216 C 0.11512 0.37635 0.29567
 C217 C 0.10287 0.38658 0.26583
 C218 C 0.11368 0.37284 0.23498
 C219 C 0.10055 0.38444 0.20548
 C220 C 0.07771 0.40837 0.20674
 C221 C 0.06703 0.42168 0.23728
 C222 C 0.07977 0.41062 0.26677
 H223 H 0.18123 0.31226 0.31982
 H224 H 0.21346 0.26424 0.21013
 H225 H 0.22008 0.27093 0.31687
 H226 H 0.17858 0.29857 0.18143
 H227 H 0.13990 0.33920 0.18075
 H228 H 0.14597 0.34637 0.32002
 H229 H 0.10693 0.38675 0.31932
 H230 H 0.10739 0.37574 0.18092
 H231 H 0.06838 0.41645 0.18351
 H232 H 0.07180 0.42079 0.29060
 C233 C 0.17031 0.70990 0.72192
 C234 C 0.17281 0.68031 0.73613
 C235 C 0.20167 0.67375 0.75329
 C236 C 0.22745 0.69533 0.75429
 C237 C 0.22442 0.72497 0.74071
 C238 C 0.19551 0.73176 0.72441
 C239 C 0.20451 0.64586 0.76974
 C240 C 0.17888 0.62484 0.77063
 C241 C 0.14974 0.63024 0.75370
 C242 C 0.14740 0.65743 0.73454
 C243 C 0.12011 0.66046 0.71381
 C244 C 0.09547 0.63822 0.71264
 C245 C 0.09640 0.61282 0.73297
 C246 C 0.12312 0.60889 0.75452
 C247 C 0.12173 0.58411 0.77646
 C248 C 0.09536 0.56360 0.77607
 C249 C 0.06994 0.56668 0.75342
 C250 C 0.07060 0.59134 0.73194
 H251 H 0.14872 0.71742 0.70981
 H252 H 0.24980 0.68913 0.76614
 H253 H 0.19199 0.75432 0.71378
 H254 H 0.22656 0.64055 0.78276
 H255 H 0.18297 0.60387 0.78388
 H256 H 0.11761 0.67926 0.69718
 H257 H 0.07519 0.64126 0.69597
 H258 H 0.14027 0.58052 0.79480
 H259 H 0.09510 0.54485 0.79313
 H260 H 0.05060 0.59419 0.71485
 C261 C -0.20840 0.65545 0.27403
 C262 C -0.17741 0.65821 0.26091
 C263 C -0.16976 0.68648 0.24558
 C264 C -0.19159 0.71154 0.24551
 C265 C -0.22190 0.70831 0.25878
 C266 C -0.23036 0.68009 0.27256
 C267 C -0.14053 0.68948 0.23008
 C268 C -0.11898 0.66462 0.22848
 C269 C -0.12533 0.63612 0.24360
 C270 C -0.15413 0.63365 0.26176
 C271 C -0.15830 0.60714 0.28080
 C272 C -0.13551 0.58340 0.28136
 C273 C -0.10840 0.58440 0.26187
 C274 C -0.10339 0.61032 0.24191
 C275 C -0.07698 0.60896 0.22047
 C276 C -0.05600 0.58342 0.21979
 C277 C -0.06020 0.55882 0.24086
 C278 C -0.08637 0.55944 0.26196
 H279 H -0.21670 0.63419 0.28456
 H280 H -0.18553 0.73333 0.23428
 H281 H -0.25402 0.67732 0.28241
 H282 H -0.13448 0.71109 0.21850
 H283 H -0.09687 0.66888 0.21621
 H284 H -0.17852 0.60466 0.29661
 H285 H -0.13946 0.56373 0.29676
 H286 H -0.07246 0.62678 0.20319
 H287 H -0.03608 0.58312 0.20302
 H288 H -0.09004 0.54000 0.27776
 C289 C -0.19817 0.32634 0.79332
 C290 C -0.18609 0.33982 0.76478
 C291 C -0.20024 0.32982 0.73342
 C292 C -0.22544 0.30759 0.73111
 C293 C -0.23717 0.29481 0.75965
 C294 C -0.22323 0.30428 0.79066
 C295 C -0.18932 0.34210 0.70447
 C296 C -0.16462 0.36423 0.70570
 C297 C -0.14970 0.37519 0.73618
 C298 C -0.16062 0.36279 0.76624
 C299 C -0.14580 0.37385 0.79674
 C300 C -0.12121 0.39613 0.79798
 C301 C -0.11026 0.40839 0.76901
 C302 C -0.12424 0.39817 0.73765
 C303 C -0.11204 0.41147 0.70908
 C304 C -0.08718 0.43374 0.71171
 C305 C -0.07350 0.44369 0.74276
 C306 C -0.08526 0.43088 0.77134
 H307 H -0.18890 0.33220 0.81813
 H308 H -0.23631 0.30043 0.70705
 H309 H -0.23176 0.29441 0.81300
 H310 H -0.20003 0.33451 0.68045
 H311 H -0.15787 0.37234 0.68205
 H312 H -0.15264 0.36583 0.82039
 H313 H -0.11063 0.40386 0.82202
 H314 H -0.12102 0.40525 0.68423
 H315 H -0.07862 0.44319 0.68916
 H316 H -0.07487 0.43833 0.79555
 C317 C 0.20664 0.17674 0.31190
 C318 C 0.23380 0.16382 0.32749
 C319 C 0.26419 0.17644 0.32027
 C320 C 0.26689 0.20127 0.29896
 C321 C 0.23973 0.21386 0.28403
 C322 C 0.20969 0.20126 0.29060
 C323 C 0.29180 0.16432 0.33436
 C324 C 0.29016 0.13977 0.35547
 C325 C 0.26058 0.12638 0.36371
 C326 C 0.23189 0.13888 0.34983
 C327 C 0.20226 0.12630 0.35907
 C328 C 0.20059 0.10238 0.38096
 C329 C 0.22825 0.08971 0.39440
 C330 C 0.25869 0.10119 0.38575
 C331 C 0.28595 0.08690 0.39964
 C332 C 0.28294 0.06300 0.42167
 C333 C 0.25280 0.05230 0.43069
 C334 C 0.22553 0.06566 0.41668
 H335 H 0.18268 0.16834 0.31527
 H336 H 0.29022 0.21101 0.29405
 H337 H 0.18839 0.21030 0.27892
 H338 H 0.31507 0.17391 0.32895
 H339 H 0.31272 0.13214 0.36529
 H340 H 0.17965 0.13471 0.35018
 H341 H 0.17725 0.09371 0.38748
 H342 H 0.31003 0.09348 0.39403
 H343 H 0.30449 0.05302 0.43190
 H344 H 0.20203 0.05747 0.42326
 C345 C 0.70621 0.21305 0.68997
 C346 C 0.73409 0.19578 0.68128
 C347 C 0.76311 0.20518 0.69810
 C348 C 0.76376 0.23034 0.72282
 C349 C 0.73586 0.24684 0.73131
 C350 C 0.70721 0.23806 0.71452
 C351 C 0.79137 0.18940 0.69032
 C352 C 0.79173 0.16441 0.66609
 C353 C 0.76357 0.15390 0.64861
 C354 C 0.73420 0.16966 0.65657
 C355 C 0.70590 0.15862 0.63974
 C356 C 0.70616 0.13336 0.61584
 C357 C 0.73455 0.11806 0.60747
 C358 C 0.76374 0.12806 0.62357
 C359 C 0.79185 0.11175 0.61369
 C360 C 0.79081 0.08674 0.58910
 C361 C 0.76186 0.07696 0.57346
 C362 C 0.73380 0.09277 0.58290
 H363 H 0.68320 0.20808 0.67825
 H364 H 0.78600 0.23695 0.73585
 H365 H 0.68544 0.25077 0.72039
 H366 H 0.81361 0.19648 0.70313
 H367 H 0.81464 0.15364 0.66188
 H368 H 0.68284 0.16882 0.64459
 H369 H 0.68378 0.12577 0.60366
 H370 H 0.81514 0.11776 0.62421
 H371 H 0.81291 0.07505 0.58230
 H372 H 0.71122 0.08556 0.57091
 C373 C 0.27082 -0.21718 0.66332
 C374 C 0.25649 -0.18687 0.66686
 C375 C 0.23942 -0.17905 0.69634
 C376 C 0.23868 -0.20003 0.72192
 C377 C 0.25307 -0.22974 0.71786
 C378 C 0.26870 -0.23835 0.68836
 C379 C 0.22277 -0.15059 0.69992
 C380 C 0.22189 -0.12998 0.67447
 C381 C 0.23884 -0.13645 0.64485
 C382 C 0.25786 -0.16446 0.64185
 C383 C 0.27825 -0.16871 0.61443
 C384 C 0.27948 -0.14673 0.59035
 C385 C 0.25956 -0.12037 0.59184
 C386 C 0.23821 -0.11534 0.61854
 C387 C 0.21673 -0.08964 0.61745
 C388 C 0.21746 -0.06920 0.59161
 C389 C 0.23992 -0.07330 0.56648
 C390 C 0.26085 -0.09899 0.56667
 H391 H 0.28280 -0.22564 0.64104
 H392 H 0.22596 -0.19388 0.74461
 H393 H 0.27934 -0.26160 0.68484
 H394 H 0.20977 -0.14444 0.72243
 H395 H 0.20860 -0.10845 0.67924
 H396 H 0.29456 -0.18829 0.61158
 H397 H 0.29594 -0.15066 0.57006
 H398 H 0.19858 -0.08518 0.63576
 H399 H 0.20082 -0.04966 0.59167
 H400 H 0.27783 -0.10264 0.54680
 C401 C 0.77176 -0.22153 0.34020
 C402 C 0.76409 -0.19000 0.33370
 C403 C 0.75215 -0.18437 0.30144
 C404 C 0.75029 -0.20913 0.27624
 C405 C 0.75776 -0.24043 0.28313
 C406 C 0.76838 -0.24616 0.31548
 C407 C 0.74186 -0.15410 0.29461
 C408 C 0.74208 -0.12953 0.31945
 C409 C 0.75414 -0.13393 0.35183
 C410 C 0.76718 -0.16411 0.35837
 C411 C 0.78359 -0.16719 0.38897
 C412 C 0.78618 -0.14196 0.41289
 C413 C 0.77140 -0.11314 0.40792
 C414 C 0.75439 -0.10895 0.37769
 C415 C 0.73762 -0.08020 0.37500
 C416 C 0.73842 -0.05652 0.40101
 C417 C 0.75657 -0.06033 0.43000
 C418 C 0.77319 -0.08858 0.43327
 H419 H 0.77932 -0.22814 0.36453
 H420 H 0.74277 -0.20401 0.25128
 H421 H 0.77399 -0.26996 0.32192
 H422 H 0.73284 -0.14951 0.26997
 H423 H 0.73371 -0.10687 0.31222
 H424 H 0.79578 -0.18861 0.39467
 H425 H 0.79938 -0.14528 0.43585
 H426 H 0.72281 -0.07580 0.35359
 H427 H 0.72509 -0.03492 0.39830
 H428 H 0.78668 -0.09181 0.45608
 C429 C 0.71293 0.79919 -0.18479
 C430 C 0.69553 0.77198 -0.17665
 C431 C 0.70312 0.74259 -0.19371
 C432 C 0.72660 0.74092 -0.21817
 C433 C 0.74324 0.76814 -0.22611
 C434 C 0.73630 0.79718 -0.20907
 C435 C 0.68718 0.71494 -0.18648
 C436 C 0.66373 0.71559 -0.16261
 C437 C 0.65499 0.74417 -0.14499
 C438 C 0.67096 0.77290 -0.15232
 C439 C 0.66158 0.80161 -0.13536
 C440 C 0.63756 0.80235 -0.11209
 C441 C 0.62197 0.77462 -0.10446
 C442 C 0.63055 0.74505 -0.12052
 C443 C 0.61420 0.71762 -0.11134
 C444 C 0.59019 0.71967 -0.08779
 C445 C 0.58151 0.74900 -0.07243
 C446 C 0.59767 0.77639 -0.08083
 H447 H 0.70931 0.82242 -0.17285
 H448 H 0.73175 0.71839 -0.23141
 H449 H 0.74919 0.81846 -0.21451
 H450 H 0.69290 0.69243 -0.19946
 H451 H 0.65265 0.69309 -0.15889
 H452 H 0.67210 0.82422 -0.13972
 H453 H 0.63110 0.82501 -0.09989
 H454 H 0.61933 0.69410 -0.12170
 H455 H 0.57826 0.69805 -0.08172
 H456 H 0.59131 0.79924 -0.06900
 C457 C 0.28372 0.21387 -0.17606
 C458 C 0.30112 0.24156 -0.16468
 C459 C 0.29235 0.27052 -0.17813
 C460 C 0.26774 0.27133 -0.20226
 C461 C 0.25119 0.24364 -0.21347
 C462 C 0.25925 0.21503 -0.20002
 C463 C 0.30825 0.29860 -0.16763
 C464 C 0.33278 0.29881 -0.14394
 C465 C 0.34267 0.27071 -0.12977
 C466 C 0.32679 0.24154 -0.14055
 C467 C 0.33731 0.21331 -0.12708
 C468 C 0.36225 0.21347 -0.10381
 C469 C 0.37769 0.24168 -0.09276
 C470 C 0.36809 0.27076 -0.10537
 C471 C 0.38437 0.29871 -0.09286
 C472 C 0.40909 0.29764 -0.06923
 C473 C 0.41861 0.26881 -0.05711
 C474 C 0.40275 0.24088 -0.06903
 H475 H 0.28820 0.19092 -0.16695
 H476 H 0.26162 0.29351 -0.21276
 H477 H 0.24641 0.19343 -0.20811
 H478 H 0.30164 0.32077 -0.17788
 H479 H 0.34371 0.32160 -0.13755
 H480 H 0.32695 0.19041 -0.13420
 H481 H 0.36951 0.19117 -0.09429
 H482 H 0.37860 0.32193 -0.10054
 H483 H 0.42082 0.31965 -0.06042
 H484 H 0.40978 0.21841 -0.05972
 C485 C 0.31766 0.70024 0.17365
 C486 C 0.32937 0.72842 0.16081
 C487 C 0.31581 0.75756 0.17282
 C488 C 0.29157 0.75815 0.19641
 C489 C 0.28048 0.73006 0.20885
 C490 C 0.29368 0.70119 0.19725
 C491 C 0.32653 0.78606 0.16141
 C492 C 0.35080 0.78653 0.13850
 C493 C 0.36534 0.75829 0.12582
 C494 C 0.35412 0.72870 0.13680
 C495 C 0.36798 0.70040 0.12336
 C496 C 0.39221 0.70085 0.10046
 C497 C 0.40381 0.72941 0.09002
 C498 C 0.39069 0.75861 0.10245
 C499 C 0.40375 0.78685 0.09104
 C500 C 0.42855 0.78592 0.06832
 C501 C 0.44124 0.75694 0.05614
 C502 C 0.42864 0.72879 0.06713
 H503 H 0.32666 0.67705 0.16641
 H504 H 0.28123 0.78055 0.20524
 H505 H 0.28563 0.67925 0.20686
 H506 H 0.31615 0.80837 0.17044
 H507 H 0.35748 0.80962 0.13113
 H508 H 0.36055 0.67723 0.12985
 H509 H 0.40209 0.67847 0.09089
 H510 H 0.39562 0.81014 0.09926
 H511 H 0.43786 0.80807 0.06032
 H512 H 0.43827 0.70616 0.05796
 C513 C 0.69480 0.21326 0.18546
 C514 C 0.67894 0.24126 0.17707
 C515 C 0.68981 0.27045 0.19307
 C516 C 0.71482 0.27120 0.21689
 C517 C 0.72959 0.24319 0.22536
 C518 C 0.71960 0.21435 0.20924
 C519 C 0.67546 0.29879 0.18562
 C520 C 0.65023 0.29903 0.16277
 C521 C 0.63806 0.27069 0.14642
 C522 C 0.65264 0.24130 0.15369
 C523 C 0.64021 0.21293 0.13764
 C524 C 0.61450 0.21313 0.11533
 C525 C 0.60011 0.24149 0.10790
 C526 C 0.61167 0.27073 0.12317
 C527 C 0.59621 0.29879 0.11446
 C528 C 0.57061 0.29771 0.09168
 C529 C 0.55931 0.26877 0.07676
 C530 C 0.57416 0.24070 0.08510
 H531 H 0.68866 0.19008 0.17433
 H532 H 0.72237 0.29356 0.22955
 H533 H 0.73098 0.19248 0.21533
 H534 H 0.68375 0.32115 0.19772
 H535 H 0.64064 0.32204 0.15876
 H536 H 0.64965 0.18990 0.14190
 H537 H 0.60578 0.19072 0.10372
 H538 H 0.60326 0.32209 0.12455
 H539 H 0.55964 0.31983 0.08572
 H540 H 0.56573 0.21813 0.07360
 C541 C -0.18297 0.70052 0.71058
 C542 C -0.16765 0.68863 0.73885
 C543 C -0.17533 0.70287 0.77060
 C544 C -0.19692 0.72817 0.77354
 C545 C -0.21143 0.73981 0.74525
 C546 C -0.20440 0.72563 0.71386
 C547 C -0.16134 0.69197 0.79931
 C548 C -0.13973 0.66719 0.79745
 C549 C -0.13099 0.65225 0.76653
 C550 C -0.14504 0.66327 0.73671
 C551 C -0.13582 0.64877 0.70577
 C552 C -0.11382 0.62435 0.70387
 C553 C -0.10011 0.61317 0.73260
 C554 C -0.10850 0.62677 0.76439
 C555 C -0.09396 0.61417 0.79268
 C556 C -0.07208 0.58942 0.78935
 C557 C -0.06379 0.57628 0.75785
 C558 C -0.07797 0.58835 0.72957
 H559 H -0.17911 0.69100 0.68552
 H560 H -0.20221 0.73920 0.79790
 H561 H -0.21568 0.73404 0.69170
 H562 H -0.16714 0.70276 0.82363
 H563 H -0.13011 0.66050 0.82093
 H564 H -0.14499 0.65585 0.68225
 H565 H -0.10747 0.61406 0.67950
 H566 H -0.09896 0.62269 0.81782
 H567 H -0.06159 0.58056 0.81169
 H568 H -0.07187 0.57832 0.70502
 C569 C -0.18856 0.30657 0.28642
 C570 C -0.17399 0.31673 0.25747
 C571 C -0.18411 0.30188 0.22631
 C572 C -0.20746 0.27776 0.22459
 C573 C -0.22155 0.26807 0.25351
 C574 C -0.21190 0.28275 0.28434
 C575 C -0.17102 0.31120 0.19695
 C576 C -0.14816 0.33519 0.19758
 C577 C -0.13717 0.35083 0.22785
 C578 C -0.14999 0.34114 0.25834
 C579 C -0.13823 0.35601 0.28868
 C580 C -0.11502 0.37962 0.28937
 C581 C -0.10263 0.38963 0.25997
 C582 C -0.11356 0.37564 0.22873
 C583 C -0.10033 0.38724 0.19972
 C584 C -0.07700 0.41115 0.20190
 C585 C -0.06602 0.42442 0.23290
 C586 C -0.07914 0.41358 0.26183
 H587 H -0.18290 0.31673 0.31110
 H588 H -0.21478 0.26641 0.20064
 H589 H -0.22282 0.27603 0.30699
 H590 H -0.17864 0.29988 0.17308
 H591 H -0.13936 0.34070 0.17370
 H592 H -0.14620 0.34977 0.31263
 H593 H -0.10668 0.39021 0.31332
 H594 H -0.10747 0.37851 0.17491
 H595 H -0.06740 0.41914 0.17910
 H596 H -0.07099 0.42375 0.28602
 C597 C 0.16787 0.30447 0.79520
 C598 C 0.15801 0.31972 0.76645
 C599 C 0.17127 0.30892 0.73561
 C600 C 0.19362 0.28425 0.73402
 C601 C 0.20319 0.26968 0.76277
 C602 C 0.19004 0.27995 0.79325
 C603 C 0.16227 0.32280 0.70646
 C604 C 0.14031 0.34727 0.70701
 C605 C 0.12642 0.35910 0.73699
 C606 C 0.13557 0.34520 0.76725
 C607 C 0.12213 0.35738 0.79732
 C608 C 0.10053 0.38210 0.79798
 C609 C 0.09124 0.39574 0.76881
 C610 C 0.10383 0.38450 0.73781
 C611 C 0.09317 0.39925 0.70901
 C612 C 0.07127 0.42410 0.71118
 C613 C 0.05921 0.43516 0.74197
 C614 C 0.06933 0.42074 0.77065
 H615 H 0.15893 0.31068 0.81963
 H616 H 0.20392 0.27649 0.71037
 H617 H 0.19687 0.26875 0.81571
 H618 H 0.17235 0.31462 0.68283
 H619 H 0.13489 0.35655 0.68332
 H620 H 0.12792 0.34849 0.82111
 H621 H 0.09096 0.39066 0.82173
 H622 H 0.10113 0.39222 0.68437
 H623 H 0.06382 0.43473 0.68857
 H624 H 0.06011 0.42897 0.79467
 C625 C 0.19143 0.67630 0.19759
 C626 C 0.18055 0.66157 0.22592
 C627 C 0.19503 0.67120 0.25721
 C628 C 0.21967 0.69401 0.25960
 C629 C 0.23034 0.70792 0.23124
 C630 C 0.21587 0.69901 0.20034
 C631 C 0.18500 0.65796 0.28601
 C632 C 0.16078 0.63530 0.28468
 C633 C 0.14562 0.62466 0.25423
 C634 C 0.15591 0.63777 0.22429
 C635 C 0.14146 0.62640 0.19372
 C636 C 0.11769 0.60330 0.19231
 C637 C 0.10710 0.59062 0.22120
 C638 C 0.12068 0.60116 0.25265
 C639 C 0.10855 0.58769 0.28116
 C640 C 0.08434 0.56471 0.27835
 C641 C 0.07131 0.55426 0.24717
 C642 C 0.08286 0.56739 0.21869
 H643 H 0.18154 0.67107 0.17292
 H644 H 0.23090 0.70075 0.28358
 H645 H 0.22348 0.70983 0.17817
 H646 H 0.19602 0.66522 0.30997
 H647 H 0.15477 0.62636 0.30817
 H648 H 0.14817 0.63462 0.17011
 H649 H 0.10743 0.59528 0.16821
 H650 H 0.11699 0.59443 0.30610
 H651 H 0.07581 0.55508 0.30082
 H652 H 0.07285 0.55964 0.19439
 C653 C 0.80132 -0.17353 0.69442
 C654 C 0.77369 -0.16125 0.67905
 C655 C 0.74356 -0.17336 0.68789
 C656 C 0.74153 -0.19692 0.71075
 C657 C 0.76915 -0.20891 0.72535
 C658 C 0.79895 -0.19692 0.71709
 C659 C 0.71556 -0.16207 0.67378
 C660 C 0.71658 -0.13903 0.65086
 C661 C 0.74587 -0.12626 0.64092
 C662 C 0.77492 -0.13758 0.65524
 C663 C 0.80423 -0.12501 0.64513
 C664 C 0.80530 -0.10233 0.62187
 C665 C 0.77732 -0.09108 0.60770
 C666 C 0.74714 -0.10267 0.61699
 C667 C 0.71957 -0.09011 0.60178
 C668 C 0.72208 -0.06733 0.57836
 C669 C 0.75201 -0.05623 0.56922
 C670 C 0.77952 -0.06823 0.58412
 H671 H 0.82519 -0.16569 0.68961
 H672 H 0.71841 -0.20632 0.71696
 H673 H 0.82056 -0.20571 0.72839
 H674 H 0.69248 -0.17123 0.68049
 H675 H 0.69376 -0.13185 0.64126
 H676 H 0.82707 -0.13229 0.65457
 H677 H 0.82842 -0.09351 0.61485
 H678 H 0.69565 -0.09726 0.60732
 H679 H 0.70039 -0.05846 0.56731
 H680 H 0.80287 -0.05979 0.57735
 C681 C 0.28917 -0.21389 0.30312
 C682 C 0.26177 -0.19684 0.31386
 C683 C 0.23210 -0.20523 0.29781
 C684 C 0.23036 -0.22911 0.27179
 C685 C 0.25781 -0.24523 0.26122
 C686 C 0.28709 -0.23758 0.27727
 C687 C 0.20429 -0.18963 0.30757
 C688 C 0.20506 -0.16567 0.33291
 C689 C 0.23394 -0.15608 0.34955
 C690 C 0.26281 -0.17183 0.33976
 C691 C 0.29179 -0.16181 0.35592
 C692 C 0.29267 -0.13737 0.38073
 C693 C 0.26482 -0.12192 0.39068
 C694 C 0.23498 -0.13108 0.37548
 C695 C 0.20747 -0.11470 0.38697
 C696 C 0.20972 -0.09027 0.41207
 C697 C 0.23933 -0.08119 0.42666
 C698 C 0.26679 -0.09723 0.41583
 H699 H 0.31261 -0.20967 0.31409
 H700 H 0.20765 -0.23492 0.25931
 H701 H 0.30852 -0.25009 0.26972
 H702 H 0.18155 -0.19599 0.29540
 H703 H 0.18241 -0.15493 0.33859
 H704 H 0.31451 -0.17217 0.34983
 H705 H 0.31554 -0.13045 0.39227
 H706 H 0.18376 -0.12013 0.37728
 H707 H 0.18805 -0.07838 0.42000
 H708 H 0.28986 -0.09055 0.42705
 C709 C 0.71965 0.19293 0.31483
 C710 C 0.74691 0.17689 0.32639
 C711 C 0.77684 0.18426 0.31277
 C712 C 0.77897 0.20628 0.28828
 C713 C 0.75166 0.22152 0.27696
 C714 C 0.72212 0.21477 0.29058
 C715 C 0.80452 0.16958 0.32351
 C716 C 0.80337 0.14763 0.34758
 C717 C 0.77423 0.13922 0.36187
 C718 C 0.74549 0.15393 0.35090
 C719 C 0.71624 0.14499 0.36458
 C720 C 0.71498 0.12267 0.38819
 C721 C 0.74269 0.10836 0.39934
 C722 C 0.77279 0.11642 0.38659
 C723 C 0.80012 0.10122 0.39924
 C724 C 0.79744 0.07895 0.42313
 C725 C 0.76756 0.07097 0.43531
 C726 C 0.74030 0.08588 0.42328
 H727 H 0.69603 0.18940 0.32402
 H728 H 0.80188 0.21146 0.27770
 H729 H 0.70078 0.22668 0.28248
 H730 H 0.82745 0.17513 0.31318
 H731 H 0.82593 0.13746 0.35423
 H732 H 0.69358 0.15458 0.35740
 H733 H 0.69191 0.11654 0.39784
 H734 H 0.82399 0.10599 0.39138
 H735 H 0.81895 0.06788 0.43205
 H736 H 0.71702 0.08003 0.43259
 C737 C 0.19441 0.18294 0.69726
 C738 C 0.22261 0.17108 0.68215
 C739 C 0.25220 0.18456 0.69392
 C740 C 0.25318 0.20899 0.71934
 C741 C 0.22507 0.22022 0.73407
 C742 C 0.19575 0.20703 0.72277
 C743 C 0.28076 0.17352 0.68048
 C744 C 0.28086 0.14891 0.65586
 C745 C 0.25216 0.13442 0.64333
 C746 C 0.22250 0.14618 0.65616
 C747 C 0.19375 0.13279 0.64245
 C748 C 0.19382 0.10843 0.61758
 C749 C 0.22243 0.09615 0.60549
 C750 C 0.25208 0.10871 0.61820
 C751 C 0.28035 0.09474 0.60532
 C752 C 0.27901 0.06980 0.58067
 C753 C 0.24961 0.05789 0.56799
 C754 C 0.22142 0.07122 0.58062
 H755 H 0.17091 0.17385 0.69048
 H756 H 0.27594 0.21928 0.72791
 H757 H 0.17377 0.21511 0.73413
 H758 H 0.30342 0.18388 0.68930
 H759 H 0.30402 0.14202 0.64692
 H760 H 0.17052 0.14083 0.65009
 H761 H 0.17110 0.09898 0.60780
 H762 H 0.30392 0.10221 0.61388
 H763 H 0.30119 0.05986 0.57149
 H764 H 0.19846 0.06209 0.57118
   
