data_POSCAR
  _audit_creation_date              2014-09-24
  _audit_creation_method            'ToBaCCo'
  _symmetry_space_group_name_H-M    'P1'
  _symmetry_Int_Tables_number       1
  _symmetry_cell_setting            triclinic
  loop_
  _symmetry_equiv_pos_as_xyz
 x,y,z
_cell_length_a 27.6503
_cell_length_b 27.7204
_cell_length_c 27.4230
_cell_angle_alpha 90.067600
_cell_angle_beta 90.278000
_cell_angle_gamma 89.747000
loop_
  _atom_site_label
  _atom_site_type_symbol
  _atom_site_fract_x
  _atom_site_fract_y
  _atom_site_fract_z
C1 C 0.16340 0.16187 0.21760
 N2 N 0.20319 0.14143 0.19714
 C3 C 0.22444 0.16152 0.15755
 N4 N 0.20414 0.20144 0.13713
 C5 C 0.16421 0.22205 0.15697
 N6 N 0.14450 0.20273 0.19774
 C7 C -0.16271 0.83515 0.22279
 N8 N -0.20052 0.85714 0.19975
 C9 C -0.22051 0.83771 0.15883
 N10 N -0.20042 0.79712 0.13952
 C11 C -0.16247 0.77502 0.16198
 N12 N -0.14453 0.79336 0.20425
 C13 C -0.16711 0.16072 -0.22849
 N14 N -0.20429 0.13866 -0.20528
 C15 C -0.22375 0.15804 -0.16420
 N16 N -0.20525 0.19977 -0.14604
 C17 C -0.16798 0.22190 -0.16868
 N18 N -0.14908 0.20244 -0.20978
 C19 C 0.16056 0.84026 -0.22039
 N20 N 0.19737 0.86191 -0.19597
 C21 C 0.22105 0.83839 -0.15951
 N22 N 0.20578 0.79408 -0.14572
 C23 C 0.16716 0.77332 -0.16799
 N24 N 0.14547 0.79578 -0.20639
 C25 C 0.17232 1.16955 0.76552
 N26 N 0.21263 1.14980 0.78620
 C27 C 0.23404 1.17117 0.82537
 N28 N 0.21411 1.21171 0.84463
 C29 C 0.17319 1.23114 0.82530
 N30 N 0.15281 1.21003 0.78558
 C31 C 0.84002 0.84300 0.77571
 N32 N 0.79687 0.85813 0.79376
 C33 C 0.77602 0.83451 0.83137
 N34 N 0.79791 0.79506 0.85076
 C35 C 0.84118 0.77948 0.83325
 N36 N 0.86234 0.80413 0.79623
 C37 C 0.15790 0.83772 1.21839
 N38 N 0.19686 0.85818 1.19682
 C39 C 0.21762 0.83772 1.15704
 N40 N 0.19930 0.79600 1.13870
 C41 C 0.15967 0.77565 1.15928
 N42 N 0.13920 0.79665 1.19900
 C43 C 0.84163 1.16385 1.21483
 N44 N 0.79862 1.14669 1.19831
 C45 C 0.77889 1.16423 1.15656
 N46 N 0.80084 1.20090 1.13266
 C47 C 0.84266 1.22009 1.15004
 N48 N 0.86353 1.20036 1.19042
 O49 O 0.42896 0.91031 0.91748
 O50 O 0.37768 0.96134 0.95848
 C51 C 0.38603 0.92580 0.92905
 O52 O 0.56555 0.91120 1.08837
 O53 O 0.62001 0.95375 1.04257
 C54 C 0.60930 0.92256 1.07579
 O55 O 0.42875 0.91119 1.08150
 O56 O 0.37770 0.96158 1.03885
 C57 C 0.38598 0.92676 1.06922
 O58 O 0.56572 0.91115 0.91103
 O59 O 0.61980 0.95329 0.95817
 C60 C 0.60946 0.92234 0.92432
 Zr61 Zr 0.49831 0.93697 0.93763
 O62 O 0.50165 0.86076 0.93473
 O63 O 0.49217 0.93928 0.86067
 Zr64 Zr 0.49811 0.93689 1.06090
 O65 O 0.50135 0.86059 1.06222
 O66 O 0.49198 0.93834 1.13783
 O67 O 0.45493 0.92939 0.99895
 O68 O 0.53989 0.92653 0.99955
 O69 O 0.57152 1.08028 0.91205
 O70 O 0.62282 1.03326 0.95809
 C71 C 0.61425 1.06571 0.92525
 O72 O 0.43523 1.08773 1.08486
 O73 O 0.38064 1.04401 1.03968
 C74 C 0.39156 1.07645 1.07186
 O75 O 0.57057 1.07893 1.08953
 O76 O 0.62227 1.03470 1.04169
 C77 C 0.61355 1.06616 1.07555
 O78 O 0.43700 1.09010 0.91409
 O79 O 0.38192 1.04476 0.95630
 C80 C 0.39325 1.07813 0.92527
 Zr81 Zr 0.50274 1.05879 0.93774
 O82 O 0.51043 1.13468 0.93594
 O83 O 0.49787 1.05613 0.86068
 Zr84 Zr 0.50218 1.05871 1.06128
 O85 O 0.50986 1.13469 1.06083
 O86 O 0.49692 1.05885 1.13827
 Zr87 Zr 0.42847 1.00100 0.99871
 Zr88 Zr 0.57220 0.99519 0.99991
 O89 O 0.54452 1.06604 0.99989
 O90 O 0.45970 1.07014 0.99919
 O91 O 0.54374 0.99620 0.92846
 O92 O 0.45814 0.99937 1.06958
 O93 O 0.45843 0.99949 0.92835
 O94 O 0.54334 0.99616 1.07096
 H95 H 0.56069 0.89733 0.99966
 H96 H 0.43620 0.99985 1.09804
 H97 H 0.56702 1.09376 1.00014
 H98 H 0.43630 0.99998 0.89982
 H99 H 0.52113 0.95444 1.15094
 H100 H 0.52250 1.03716 1.15101
 H101 H 0.48186 1.14835 1.04289
 H102 H 0.48754 1.14830 0.95994
 H103 H 0.52664 1.03855 0.84860
 H104 H 0.52159 0.95507 0.84806
 H105 H 0.47838 0.84842 0.95890
 H106 H 0.47506 0.84848 1.04099
 O107 O -0.08666 0.43057 0.07704
 O108 O -0.04123 0.37790 0.03132
 C109 C -0.07404 0.38744 0.06345
 O110 O -0.08498 0.56899 -0.09412
 O111 O -0.03833 0.62071 -0.04838
 C112 C -0.07071 0.61182 -0.08140
 O113 O -0.08993 0.43271 -0.09209
 O114 O -0.04249 0.37922 -0.04936
 C115 C -0.07677 0.38916 -0.08015
 O116 O -0.08152 0.56619 0.08377
 O117 O -0.03959 0.61921 0.03588
 C118 C -0.06995 0.60955 0.07034
 Zr119 Zr -0.05972 0.49858 0.05456
 O120 O -0.13607 0.50487 0.05446
 O121 O -0.05930 0.49211 0.13146
 Zr122 Zr -0.06168 0.50024 -0.06878
 O123 O -0.13803 0.50618 -0.06851
 O124 O -0.06185 0.49597 -0.14588
 O125 O -0.07033 0.45649 -0.00762
 O126 O -0.06922 0.54138 -0.00639
 O127 O 0.08708 0.56465 0.08076
 O128 O 0.04129 0.61879 0.03674
 C129 C 0.07365 0.60818 0.06943
 O130 O 0.08818 0.43165 -0.09340
 O131 O 0.04129 0.37833 -0.05061
 C132 C 0.07513 0.38842 -0.08143
 O133 O 0.08269 0.56641 -0.09780
 O134 O 0.04218 0.61928 -0.04797
 C135 C 0.07202 0.60955 -0.08299
 O136 O 0.08830 0.42890 0.07690
 O137 O 0.04269 0.37735 0.03005
 C138 C 0.07550 0.38609 0.06268
 Zr139 Zr 0.06265 0.49742 0.05339
 O140 O 0.13911 0.50102 0.05159
 O141 O 0.06395 0.49205 0.13040
 Zr142 Zr 0.06049 0.49901 -0.07004
 O143 O 0.13682 0.50423 -0.07127
 O144 O 0.05869 0.49385 -0.14706
 Zr145 Zr 0.00021 0.42721 -0.00882
 Zr146 Zr 0.00098 0.57055 -0.00657
 O147 O 0.07072 0.53997 -0.00782
 O148 O 0.07093 0.45520 -0.00902
 O149 O 0.00184 0.54090 0.06421
 O150 O -0.00090 0.45778 -0.07898
 O151 O 0.00132 0.45607 0.06222
 O152 O -0.00046 0.54282 -0.07823
 H153 H -0.09746 0.56350 -0.00584
 H154 H -0.00133 0.43610 -0.10773
 H155 H 0.09924 0.56149 -0.00790
 H156 H 0.00142 0.43399 0.09061
 H157 H -0.04454 0.52455 -0.15831
 H158 H 0.03830 0.52065 -0.15935
 H159 H 0.14982 0.47886 -0.04947
 H160 H 0.15094 0.47217 0.03395
 H161 H 0.04467 0.51924 0.14346
 H162 H -0.03795 0.51764 0.14450
 H163 H -0.14916 0.47724 0.03584
 H164 H -0.15048 0.48007 -0.04756
 O165 O 1.08826 -0.08116 0.56703
 O166 O 1.04437 -0.03376 0.61959
 C167 C 1.07647 -0.06671 0.61053
 O168 O 1.08318 0.08968 0.42511
 O169 O 1.04070 0.04029 0.37313
 C170 C 1.07114 0.07465 0.38192
 O171 O 1.09019 0.08867 0.56132
 O172 O 1.04383 0.04724 0.61642
 C173 C 1.07761 0.07754 0.60534
 O174 O 1.08491 -0.08743 0.42995
 O175 O 1.04024 -0.04287 0.37517
 C176 C 1.07196 -0.07573 0.38596
 Zr177 Zr 1.06230 -0.05843 0.49771
 O178 O 1.13869 -0.05674 0.49280
 O179 O 1.06401 -0.13449 0.50427
 Zr180 Zr 1.06168 0.06355 0.49428
 O181 O 1.13798 0.06291 0.48819
 O182 O 1.06112 0.13985 0.49793
 O183 O 1.07203 0.00374 0.53950
 O184 O 1.07052 0.00135 0.45366
 O185 O 0.91752 -0.08846 0.43083
 O186 O 0.95887 -0.04217 0.37570
 C187 C 0.92851 -0.07590 0.38669
 O188 O 0.91129 0.08754 0.56197
 O189 O 0.95856 0.04592 0.61683
 C190 C 0.92415 0.07602 0.60597
 O191 O 0.91507 0.08764 0.42531
 O192 O 0.96078 0.04157 0.37301
 C193 C 0.92879 0.07463 0.38201
 O194 O 0.91336 -0.07874 0.56770
 O195 O 0.96106 -0.03443 0.61977
 C196 C 0.92727 -0.06540 0.61094
 Zr197 Zr 0.93996 -0.05823 0.49826
 O198 O 0.86355 -0.05714 0.49248
 O199 O 0.93917 -0.13416 0.50630
 Zr200 Zr 0.93959 0.06352 0.49465
 O201 O 0.86321 0.06522 0.48954
 O202 O 0.94172 0.13983 0.49793
 Zr203 Zr 1.00177 0.00458 0.56898
 Zr204 Zr 1.00032 0.00045 0.42374
 O205 O 0.93056 0.00139 0.45410
 O206 O 0.93087 0.00387 0.54003
 O207 O 1.00080 -0.06911 0.45479
 O208 O 1.00091 0.07348 0.53682
 O209 O 1.00152 -0.06600 0.54046
 O210 O 1.00022 0.07170 0.45070
 H211 H 1.09870 0.00080 0.43148
 H212 H 1.00075 0.10229 0.55826
 H213 H 0.90201 0.00075 0.43213
 H214 H 1.00157 -0.09389 0.56303
 H215 H 1.04005 0.15174 0.47125
 H216 H 0.95707 0.15144 0.46764
 H217 H 0.85067 0.04255 0.51419
 H218 H 0.85085 -0.03916 0.52088
 H219 H 0.96061 -0.14784 0.48100
 H220 H 1.04267 -0.14777 0.47855
 H221 H 1.15111 -0.04006 0.52217
 H222 H 1.15088 0.04289 0.51515
 C223 C 1.10712 0.16408 0.28618
 C224 C 1.14122 0.14004 0.25759
 C225 C 1.15151 0.09161 0.27126
 C226 C 1.12776 0.06990 0.31131
 C227 C 1.09489 0.09656 0.34007
 C228 C 1.08630 0.14396 0.32606
 C229 C 1.06183 0.18958 0.34087
 C230 C 1.08539 0.21246 0.29567
 H231 H 1.17702 0.07004 0.25068
 H232 H 1.13579 0.03272 0.32031
 H233 H 1.07626 0.20382 0.37591
 H234 H 1.02182 0.18754 0.33846
 H235 H 1.11316 0.23992 0.30487
 H236 H 1.05898 0.22318 0.26692
 C237 C 0.84951 -0.09570 0.27625
 C238 C 0.85674 -0.14468 0.26545
 C239 C 0.88417 -0.17234 0.29909
 C240 C 0.90575 -0.15045 0.34020
 C241 C 0.90312 -0.10018 0.34659
 C242 C 0.87322 -0.07388 0.31517
 C243 C 0.88403 -0.02953 0.28665
 C244 C 0.85766 -0.05287 0.24420
 H245 H 0.88926 -0.21072 0.29361
 H246 H 0.92673 -0.17232 0.36532
 H247 H 0.92336 -0.02463 0.28007
 H248 H 0.86499 0.00260 0.30108
 H249 H 0.88155 -0.06108 0.21272
 H250 H 0.82335 -0.03407 0.23466
 C251 C 0.88852 0.16519 0.70281
 C252 C 0.85187 0.14130 0.72830
 C253 C 0.83465 0.09752 0.70803
 C254 C 0.85760 0.07649 0.66734
 C255 C 0.89778 0.09890 0.64597
 C256 C 0.91059 0.14468 0.66244
 C257 C 0.95899 0.16355 0.67669
 C258 C 0.93494 0.18624 0.72080
 H259 H 0.80507 0.07825 0.72474
 H260 H 0.84520 0.04195 0.65381
 H261 H 0.97248 0.19058 0.65020
 H262 H 0.98470 0.13412 0.68644
 H263 H 0.93455 0.22633 0.71968
 H264 H 0.94716 0.17031 0.75600
 C265 C 1.13414 -0.08619 0.73437
 C266 C 1.14012 -0.13629 0.73602
 C267 C 1.13067 -0.16277 0.69316
 C268 C 1.11185 -0.13969 0.65139
 C269 C 1.10069 -0.09002 0.65226
 C270 C 1.11379 -0.06375 0.69387
 C271 C 1.08483 -0.02992 0.72459
 C272 C 1.10755 -0.05408 0.76887
 H273 H 1.13727 -0.20129 0.69215
 H274 H 1.10358 -0.16114 0.61941
 H275 H 1.04523 -0.03616 0.72146
 H276 H 1.09615 0.00815 0.72024
 H277 H 1.08111 -0.07398 0.79162
 H278 H 1.13246 -0.03004 0.78945
 C279 C 0.29093 1.16379 1.09928
 C280 C 0.26769 1.14238 1.13909
 C281 C 0.29098 1.10223 1.16102
 C282 C 0.33269 1.08175 1.14001
 C283 C 0.35184 1.10085 1.09682
 C284 C 0.33212 1.14368 1.07885
 C285 C 0.31686 1.15686 1.02842
 C286 C 0.27149 1.17867 1.05062
 H287 H 0.27618 1.08534 1.19323
 H288 H 0.34863 1.04978 1.15624
 H289 H 0.30963 1.12480 1.00514
 H290 H 0.34111 1.18440 1.01244
 H291 H 0.23788 1.15911 1.04043
 H292 H 0.26950 1.21854 1.04674
 C293 C 0.26615 0.90918 0.86507
 C294 C 0.26196 0.85898 0.86188
 C295 C 0.30073 0.83039 0.87944
 C296 C 0.34213 0.85204 0.89987
 C297 C 0.34396 0.90232 0.90647
 C298 C 0.30539 0.93013 0.88884
 C299 C 0.27363 0.96435 0.91624
 C300 C 0.23118 0.94292 0.88892
 H301 H 0.29960 0.79145 0.87643
 H302 H 0.37170 0.82941 0.91238
 H303 H 0.27995 1.00254 0.90690
 H304 H 0.27299 0.95668 0.95604
 H305 H 0.21451 0.96827 0.86224
 H306 H 0.20505 0.92420 0.91304
 C307 C 0.71354 0.89707 1.16088
 C308 C 0.73644 0.85710 1.13923
 C309 C 0.71211 0.83496 1.09955
 C310 C 0.66924 0.85513 1.08015
 C311 C 0.64961 0.89769 1.09995
 C312 C 0.67133 0.91685 1.14165
 C313 C 0.68682 0.96723 1.15229
 C314 C 0.73306 0.94578 1.17345
 H315 H 0.72671 0.80288 1.08241
 H316 H 0.65268 0.83873 1.04836
 H317 H 0.66359 0.98486 1.18013
 H318 H 0.69283 0.98873 1.11869
 H319 H 0.73630 0.95110 1.21350
 H320 H 0.76592 0.95501 1.15223
 C321 C 0.71849 1.09163 0.84262
 C322 C 0.73731 1.13554 0.85889
 C323 C 0.71384 1.15623 0.90000
 C324 C 0.67335 1.13354 0.92160
 C325 C 0.65577 1.08931 0.90328
 C326 C 0.68012 1.06967 0.86385
 C327 C 0.67982 1.02873 0.82878
 C328 C 0.72344 1.05337 0.80464
 H329 H 0.72607 1.19012 0.91525
 H330 H 0.65601 1.15039 0.95263
 H331 H 0.64678 1.02858 0.80554
 H332 H 0.68897 0.99381 0.84642
 H333 H 0.71552 1.06717 0.76740
 H334 H 0.75777 1.03265 0.80851
 C335 C 0.11435 0.29731 0.15904
 C336 C 0.14029 0.26286 0.13247
 C337 C 0.13996 0.26665 0.08116
 C338 C 0.11812 0.30661 0.05811
 C339 C 0.09808 0.34423 0.08610
 C340 C 0.09442 0.33744 0.13639
 C341 C 0.10715 0.36993 0.17780
 C342 C 0.12899 0.32589 0.20282
 H343 H 0.15708 0.23917 0.05896
 H344 H 0.11868 0.30906 0.01871
 H345 H 0.07449 0.38416 0.19652
 H346 H 0.13441 0.39750 0.16772
 H347 H 0.10887 0.31482 0.23594
 H348 H 0.16891 0.32794 0.20740
 C349 C -0.10772 0.26163 -0.11507
 C350 C -0.14636 0.26510 -0.14725
 C351 C -0.16336 0.31220 -0.15776
 C352 C -0.14110 0.35327 -0.13605
 C353 C -0.10156 0.34790 -0.10323
 C354 C -0.08671 0.30065 -0.09409
 C355 C -0.05101 0.27087 -0.06632
 C356 C -0.07493 0.22663 -0.09032
 H357 H -0.19349 0.31725 -0.18262
 H358 H -0.15484 0.38883 -0.14493
 H359 H -0.05682 0.27305 -0.02628
 H360 H -0.01323 0.27701 -0.07842
 H361 H -0.09449 0.20326 -0.06415
 H362 H -0.05105 0.20744 -0.11652
 C363 C 0.14636 0.72166 -0.09740
 C364 C 0.14726 0.72853 -0.14792
 C365 C 0.12734 0.69223 -0.17781
 C366 C 0.10357 0.65245 -0.15680
 C367 C 0.09770 0.64965 -0.10582
 C368 C 0.12172 0.68343 -0.07687
 C369 C 0.10370 0.71340 -0.03548
 C370 C 0.13078 0.75543 -0.05791
 H371 H 0.12892 0.69533 -0.21714
 H372 H 0.08761 0.62539 -0.18035
 H373 H 0.11912 0.70162 0.00005
 H374 H 0.06374 0.71817 -0.03608
 H375 H 0.16175 0.76782 -0.03521
 H376 H 0.10654 0.78464 -0.07150
 C377 C -0.12287 0.73297 0.09247
 C378 C -0.14015 0.73217 0.13992
 C379 C -0.13403 0.68831 0.16565
 C380 C -0.11185 0.64764 0.14302
 C381 C -0.09374 0.65058 0.09480
 C382 C -0.10003 0.69481 0.07150
 C383 C -0.08932 0.72193 0.02593
 C384 C -0.11502 0.76522 0.04995
 H385 H -0.14672 0.68530 0.20281
 H386 H -0.10811 0.61445 0.16350
 H387 H -0.10889 0.70740 -0.00618
 H388 H -0.04995 0.72758 0.02057
 H389 H -0.14950 0.77554 0.03166
 H390 H -0.09029 0.79553 0.05882
 C391 C 1.16460 0.10194 0.70824
 C392 C 1.14912 0.14702 0.72597
 C393 C 1.10755 0.16776 0.70393
 C394 C 1.08510 0.14559 0.66376
 C395 C 1.10240 0.10157 0.64561
 C396 C 1.14134 0.07953 0.66926
 C397 C 1.18765 0.06213 0.64782
 C398 C 1.21324 0.08671 0.69007
 H399 H 1.09314 0.20196 0.71641
 H400 H 1.05508 0.16347 0.64593
 H401 H 1.19544 0.07884 0.61185
 H402 H 1.19070 0.02214 0.64880
 H403 H 1.23593 0.11774 0.67878
 H404 H 1.23125 0.06056 0.71481
 C405 C 0.90773 -0.14338 0.72030
 C406 C 0.86079 -0.13328 0.73595
 C407 C 0.83514 -0.09801 0.70823
 C408 C 0.85633 -0.07609 0.66672
 C409 C 0.90410 -0.08769 0.65288
 C410 C 0.92842 -0.12112 0.68161
 C411 C 0.97527 -0.14713 0.68717
 C412 C 0.95202 -0.17245 0.73118
 H413 H 0.79847 -0.08796 0.71769
 H414 H 0.83561 -0.05002 0.64584
 H415 H 1.00528 -0.12250 0.69739
 H416 H 0.98272 -0.17169 0.65602
 H417 H 0.96875 -0.16248 0.76670
 H418 H 0.94618 -0.21170 0.72544
 C419 C 1.09899 -0.16360 0.28482
 C420 C 1.13891 -0.14271 0.26156
 C421 C 1.16061 -0.10261 0.28494
 C422 C 1.13961 -0.08180 0.32670
 C423 C 1.09640 -0.10024 0.34574
 C424 C 1.07833 -0.14288 0.32589
 C425 C 1.02831 -0.15531 0.30999
 C426 C 1.05075 -0.17798 0.26488
 H427 H 1.19293 -0.08621 0.27034
 H428 H 1.15603 -0.05018 0.34290
 H429 H 1.00580 -0.12293 0.30187
 H430 H 1.01147 -0.18221 0.33457
 H431 H 1.04129 -0.15876 0.23054
 H432 H 1.04652 -0.21781 0.26357
 C433 C 0.83723 0.11785 0.29061
 C434 C 0.86352 0.14354 0.25602
 C435 C 0.91408 0.14678 0.26477
 C436 C 0.93570 0.12329 0.30541
 C437 C 0.90704 0.09918 0.34016
 C438 C 0.85757 0.09868 0.33145
 C439 C 0.81067 0.08117 0.35090
 C440 C 0.78744 0.10311 0.30472
 H441 H 0.93727 0.16543 0.23932
 H442 H 0.97458 0.12405 0.30971
 H443 H 0.80030 0.10009 0.38507
 H444 H 0.80857 0.04119 0.35237
 H445 H 0.76368 0.13464 0.31235
 H446 H 0.77212 0.07573 0.27942
 C447 C 0.10583 0.28826 -0.16771
 C448 C 0.15071 0.27060 -0.15215
 C449 C 0.17105 0.29406 -0.11072
 C450 C 0.14644 0.33272 -0.08740
 C451 C 0.10071 0.34837 -0.10435
 C452 C 0.08207 0.32473 -0.14479
 C453 C 0.03974 0.32313 -0.17840
 C454 C 0.06627 0.28138 -0.20423
 H455 H 0.20575 0.28277 -0.09611
 H456 H 0.16296 0.35006 -0.05610
 H457 H 0.03658 0.35632 -0.20092
 H458 H 0.00607 0.31187 -0.15972
 H459 H 0.07795 0.29032 -0.24186
 H460 H 0.04800 0.24597 -0.20009
 C461 C -0.09709 0.28438 0.14908
 C462 C -0.13802 0.26195 0.12895
 C463 C -0.16119 0.28573 0.08943
 C464 C -0.14117 0.32766 0.06876
 C465 C -0.09768 0.34664 0.08705
 C466 C -0.07753 0.32565 0.12868
 C467 C -0.02691 0.30951 0.13845
 C468 C -0.04817 0.26419 0.16080
 H469 H -0.19410 0.27149 0.07354
 H470 H -0.15861 0.34410 0.03743
 H471 H -0.00847 0.33297 0.16560
 H472 H -0.00624 0.30248 0.10446
 H473 H -0.04175 0.26153 0.20076
 H474 H -0.03985 0.23086 0.13979
 C475 C -0.16041 0.70788 -0.11472
 C476 C -0.13650 0.73835 -0.14707
 C477 C -0.08831 0.72459 -0.15890
 C478 C -0.06651 0.68307 -0.13761
 C479 C -0.09289 0.65328 -0.10562
 C480 C -0.14018 0.66706 -0.09615
 C481 C -0.18349 0.65452 -0.06689
 C482 C -0.20672 0.70062 -0.08811
 H483 H -0.06696 0.74623 -0.18352
 H484 H -0.02929 0.67428 -0.14619
 H485 H -0.17658 0.65653 -0.02699
 H486 H -0.20085 0.62072 -0.07978
 H487 H -0.21319 0.72918 -0.06037
 H488 H -0.23750 0.69342 -0.11327
 C489 C 0.09099 0.71844 0.14782
 C490 C 0.13944 0.73037 0.13975
 C491 C 0.16812 0.69701 0.11365
 C492 C 0.14708 0.65569 0.09238
 C493 C 0.09690 0.64797 0.09564
 C494 C 0.07014 0.67849 0.12587
 C495 C 0.02344 0.70412 0.11704
 C496 C 0.04619 0.74805 0.14098
 H497 H 0.20632 0.70356 0.10842
 H498 H 0.16939 0.63153 0.07095
 H499 H -0.00647 0.68857 0.13880
 H500 H 0.01555 0.70926 0.07763
 H501 H 0.02903 0.75771 0.17623
 H502 H 0.05144 0.77870 0.11546
 C503 C 0.28495 1.09889 0.84479
 C504 C 0.27575 1.14832 0.85008
 C505 C 0.30481 1.17441 0.88334
 C506 C 0.34401 1.15199 0.90734
 C507 C 0.35370 1.10278 0.89992
 C508 C 0.32328 1.07681 0.86905
 C509 C 0.33649 1.04720 0.82561
 C510 C 0.29404 1.07052 0.79943
 H511 H 0.29819 1.21242 0.88975
 H512 H 0.36696 1.17306 0.93120
 H513 H 0.33165 1.00798 0.83169
 H514 H 0.37214 1.05736 0.81015
 H515 H 0.26430 1.04469 0.79192
 H516 H 0.30483 1.09347 0.76810
 C517 C 0.29369 0.83512 1.10718
 C518 C 0.25995 0.86081 1.13458
 C519 C 0.26908 0.91083 1.14030
 C520 C 0.31009 0.93257 1.11863
 C521 C 0.34383 0.90461 1.09209
 C522 C 0.33386 0.85571 1.08786
 C523 C 0.35080 0.81007 1.06492
 C524 C 0.30555 0.78653 1.08721
 H525 H 0.24433 0.93330 1.16083
 H526 H 0.31560 0.97097 1.12298
 H527 H 0.38537 0.79697 1.08107
 H528 H 0.34979 0.81190 1.02442
 H529 H 0.31396 0.76001 1.11645
 H530 H 0.27870 0.77446 1.05953
 C531 C 0.73255 1.13076 1.08675
 C532 C 0.73489 1.14266 1.13621
 C533 C 0.69449 1.13258 1.16552
 C534 C 0.65428 1.10811 1.14583
 C535 C 0.65491 1.09158 1.09719
 C536 C 0.69379 1.10515 1.06787
 C537 C 0.72575 1.07508 1.03615
 C538 C 0.76816 1.10346 1.05652
 H539 H 0.69445 1.14273 1.20367
 H540 H 0.62379 1.10028 1.16912
 H541 H 0.71929 1.08174 0.99675
 H542 H 0.72630 1.03641 1.04685
 H543 H 0.78571 1.12684 1.02892
 H544 H 0.79344 1.08120 1.07886
 C545 C 0.73681 0.89003 0.88975
 C546 C 0.73286 0.85465 0.85423
 C547 C 0.68548 0.84029 0.84131
 C548 C 0.64456 0.86204 0.86392
 C549 C 0.65045 0.89833 0.90003
 C550 C 0.69795 0.91047 0.91159
 C551 C 0.72812 0.94318 0.94226
 C552 C 0.77225 0.91994 0.91724
 H553 H 0.68010 0.81280 0.81375
 H554 H 0.60871 0.85054 0.85307
 H555 H 0.72544 0.93456 0.98174
 H556 H 0.72275 0.98182 0.93277
 H557 H 0.79513 0.89797 0.94226
 H558 H 0.79211 0.94513 0.89308
   
