data_POSCAR
  _audit_creation_date              2014-09-24
  _audit_creation_method            'ToBaCCo'
  _symmetry_space_group_name_H-M    'P1'
  _symmetry_Int_Tables_number       1
  _symmetry_cell_setting            triclinic
  loop_
  _symmetry_equiv_pos_as_xyz
 x,y,z
_cell_length_a 16.7527
_cell_length_b 16.8608
_cell_length_c 26.9958
_cell_angle_alpha 90.025100
_cell_angle_beta 90.234600
_cell_angle_gamma 120.298200
loop_
  _atom_site_label
  _atom_site_type_symbol
  _atom_site_fract_x
  _atom_site_fract_y
  _atom_site_fract_z
O1 O 0.32549 0.53271 0.30677
 O2 O 0.17035 0.52699 0.29035
 C3 C 0.16344 0.58585 0.31660
 O4 O 0.20268 0.67026 0.30616
 O5 O 0.35295 0.82491 0.29074
 C6 C 0.41925 0.83234 0.31730
 O7 O 0.46491 0.79354 0.30713
 O8 O 0.46994 0.64469 0.29150
 C9 C 0.41049 0.57847 0.31753
 O10 O 0.35349 0.52811 0.20798
 O11 O 0.20318 0.53188 0.19153
 C12 C 0.16382 0.57679 0.18077
 O13 O 0.17047 0.64239 0.20715
 O14 O 0.32563 0.79232 0.19178
 C15 C 0.41072 0.83195 0.18167
 O16 O 0.47005 0.82551 0.20822
 O17 O 0.46555 0.67188 0.19257
 C18 C 0.42005 0.58736 0.18199
 Cr19 Cr 0.26536 0.53441 0.24916
 Cr20 Cr 0.26518 0.73024 0.24896
 Cr21 Cr 0.46309 0.73163 0.24984
 O22 O 0.33123 0.66543 0.24934
 O23 O 0.52918 0.35544 0.70851
 O24 O 0.53351 0.20626 0.69266
 C25 C 0.57894 0.16732 0.68226
 O26 O 0.64537 0.17454 0.70863
 O27 O 0.79580 0.32888 0.69301
 C28 C 0.83519 0.41329 0.68254
 O29 O 0.82868 0.47230 0.70887
 O30 O 0.67363 0.46697 0.69285
 C31 C 0.58852 0.42142 0.68232
 O32 O 0.53438 0.32830 0.80741
 O33 O 0.52910 0.17433 0.79154
 C34 C 0.58851 0.16757 0.81786
 O35 O 0.67350 0.20702 0.80756
 O36 O 0.82874 0.35670 0.79198
 C37 C 0.83580 0.42249 0.81833
 O38 O 0.79667 0.46770 0.80776
 O39 O 0.64649 0.47191 0.79171
 C40 C 0.58021 0.41284 0.81791
 Cr41 Cr 0.53606 0.26834 0.75004
 Cr42 Cr 0.73362 0.26903 0.75029
 Cr43 Cr 0.73412 0.46524 0.75029
 O44 O 0.66793 0.33420 0.75021
 C45 C 0.51654 0.03745 0.54820
 C46 C 0.50964 0.08785 0.50804
 C47 C 0.49241 0.05037 0.45939
 C48 C 0.48114 -0.03763 0.45130
 C49 C 0.48811 -0.08800 0.49146
 C50 C 0.50529 -0.05053 0.54011
 C51 C 0.51074 -0.10253 0.57975
 C52 C 0.50022 -0.18891 0.57153
 C53 C 0.48450 -0.22516 0.52390
 C54 C 0.47825 -0.17575 0.48419
 C55 C 0.48698 0.10237 0.41974
 C56 C 0.49762 0.18880 0.42796
 C57 C 0.51344 0.22510 0.47558
 C58 C 0.51964 0.17566 0.51529
 C59 C 0.46042 -0.07777 0.40205
 C60 C 0.44215 -0.11557 0.36230
 C61 C 0.53729 0.07759 0.59745
 C62 C 0.55569 0.11532 0.63722
 H63 H 0.52313 -0.07703 0.61744
 H64 H 0.50464 -0.22779 0.60225
 H65 H 0.47725 -0.29185 0.51769
 H66 H 0.46555 -0.20717 0.44789
 H67 H 0.47454 0.07684 0.38206
 H68 H 0.49323 0.22769 0.39723
 H69 H 0.52080 0.29183 0.48178
 H70 H 0.53241 0.20711 0.55159
 C71 C 0.96265 0.48020 0.54811
 C72 C 0.91068 0.42182 0.50827
 C73 C 0.94706 0.44150 0.45947
 C74 C 1.03551 0.51873 0.45090
 C75 C 1.08746 0.57714 0.49074
 C76 C 1.05109 0.55746 0.53954
 C77 C 1.10462 0.61603 0.57884
 C78 C 1.19144 0.69240 0.57015
 C79 C 1.22661 0.71231 0.52238
 C80 C 1.17570 0.65555 0.48300
 C81 C 0.89350 0.38296 0.42016
 C82 C 0.80663 0.30665 0.42885
 C83 C 0.77144 0.28675 0.47661
 C84 C 0.82240 0.34346 0.51600
 C85 C 1.07458 0.53761 0.40149
 C86 C 1.11172 0.55681 0.36165
 C87 C 0.92365 0.46131 0.59753
 C88 C 0.88665 0.44216 0.63741
 H89 H 1.07999 0.60341 0.61663
 H90 H 1.23149 0.73657 0.60061
 H91 H 1.29365 0.77213 0.51580
 H92 H 1.20634 0.67385 0.44657
 H93 H 0.91814 0.39558 0.38238
 H94 H 0.76655 0.26252 0.39838
 H95 H 0.70435 0.22700 0.48318
 H96 H 0.79175 0.32518 0.55244
 C97 C 0.51946 0.48233 0.54837
 C98 C 0.57578 0.48717 0.50808
 C99 C 0.55518 0.50425 0.45949
 C100 C 0.47912 0.51740 0.45158
 C101 C 0.42279 0.51254 0.49185
 C102 C 0.44339 0.49547 0.54045
 C103 C 0.38695 0.49204 0.58021
 C104 C 0.31175 0.50447 0.57216
 C105 C 0.29091 0.52014 0.52459
 C106 C 0.34558 0.52437 0.48477
 C107 C 0.61162 0.50766 0.41973
 C108 C 0.68680 0.49521 0.42778
 C109 C 0.70763 0.47953 0.47534
 C110 C 0.65297 0.47531 0.51516
 C111 C 0.45934 0.53778 0.40236
 C112 C 0.43967 0.55579 0.36260
 C113 C 0.53929 0.46201 0.59759
 C114 C 0.55910 0.44404 0.63732
 H115 H 0.40034 0.47979 0.61786
 H116 H 0.26922 0.50160 0.60297
 H117 H 0.23202 0.52896 0.51853
 H118 H 0.32666 0.53710 0.44852
 H119 H 0.59823 0.51991 0.38208
 H120 H 0.72932 0.49806 0.39696
 H121 H 0.76650 0.47068 0.48140
 H122 H 0.67189 0.46257 0.55141
 C123 C 0.52004 0.03731 0.95142
 C124 C 0.57656 0.08881 0.99197
 C125 C 0.55604 0.05105 1.04045
 C126 C 0.47988 -0.03829 1.04798
 C127 C 0.42348 -0.08987 1.00741
 C128 C 0.44397 -0.05209 0.95894
 C129 C 0.38742 -0.10519 0.91889
 C130 C 0.31226 -0.19303 0.92654
 C131 C 0.29157 -0.22967 0.97398
 C132 C 0.34632 -0.17914 1.01408
 C133 C 0.61268 0.10411 1.08049
 C134 C 0.68799 0.19184 1.07282
 C135 C 0.70874 0.22843 1.02537
 C136 C 0.65387 0.17797 0.98528
 C137 C 0.46000 -0.07843 1.09711
 C138 C 0.44016 -0.11613 1.13677
 C139 C 0.53967 0.07762 0.90233
 C140 C 0.55930 0.11548 0.86272
 H141 H 0.40071 -0.07946 0.88132
 H142 H 0.26967 -0.23276 0.89551
 H143 H 0.23273 -0.29757 0.97972
 H144 H 0.32750 -0.21091 1.05022
 H145 H 0.59937 0.07840 1.11806
 H146 H 0.73067 0.23153 1.10383
 H147 H 0.76772 0.29623 1.01960
 H148 H 0.67274 0.20970 0.94913
 C149 C 0.96481 0.48325 0.95303
 C150 C 0.91352 0.48974 0.99289
 C151 C 0.95065 0.50658 1.04172
 C152 C 1.03915 0.51783 1.05030
 C153 C 1.09038 0.51122 1.01045
 C154 C 1.05327 0.49441 0.96162
 C155 C 1.10608 0.48920 0.92230
 C156 C 1.19290 0.49956 0.93101
 C157 C 1.22880 0.51494 0.97881
 C158 C 1.17863 0.52103 1.01820
 C159 C 0.89780 0.51167 1.08105
 C160 C 0.81086 0.50104 1.07235
 C161 C 0.77490 0.48556 1.02456
 C162 C 0.82519 0.47974 0.98515
 C163 C 1.07902 0.53816 1.09973
 C164 C 1.11693 0.55622 1.13958
 C165 C 0.92511 0.46309 0.90356
 C166 C 0.88767 0.44518 0.86360
 H167 H 1.08088 0.47709 0.88449
 H168 H 1.23239 0.49530 0.90054
 H169 H 1.29580 0.52205 0.98540
 H170 H 1.20983 0.53346 1.05465
 H171 H 0.92304 0.52383 1.11885
 H172 H 0.77130 0.50514 1.10284
 H173 H 0.70774 0.47812 1.01799
 H174 H 0.79398 0.46724 0.94869
 C175 C 0.51914 0.48099 0.95177
 C176 C 0.50795 0.55773 0.95983
 C177 C 0.49063 0.57787 1.00838
 C178 C 0.48341 0.52034 1.04846
 C179 C 0.49479 0.44372 1.04043
 C180 C 0.51223 0.42364 0.99189
 C181 C 0.52234 0.34592 0.98469
 C182 C 0.51602 0.29019 1.02435
 C183 C 0.49996 0.31047 1.07187
 C184 C 0.48923 0.38618 1.08003
 C185 C 0.48080 0.65575 1.01561
 C186 C 0.48716 0.71151 0.97596
 C187 C 0.50303 0.69113 0.92842
 C188 C 0.51355 0.61530 0.92024
 C189 C 0.46219 0.53939 1.09756
 C190 C 0.44347 0.55857 1.13717
 C191 C 0.53956 0.46148 0.90259
 C192 C 0.55756 0.44194 0.86288
 H193 H 0.53529 0.32740 0.94847
 H194 H 0.52346 0.23088 1.01818
 H195 H 0.49547 0.26711 1.10255
 H196 H 0.47662 0.39913 1.11764
 H197 H 0.46800 0.67436 1.05185
 H198 H 0.47988 0.77091 0.98215
 H199 H 0.50755 0.73452 0.89774
 H200 H 0.52607 0.60231 0.88262
   
