data_POSCAR
  _audit_creation_date              2014-09-24
  _audit_creation_method            'ToBaCCo'
  _symmetry_space_group_name_H-M    'P1'
  _symmetry_Int_Tables_number       1
  _symmetry_cell_setting            triclinic
  loop_
  _symmetry_equiv_pos_as_xyz
 x,y,z
_cell_length_a 36.3999
_cell_length_b 36.4374
_cell_length_c 36.5153
_cell_angle_alpha 89.982000
_cell_angle_beta 90.068700
_cell_angle_gamma 89.974600
loop_
  _atom_site_label
  _atom_site_type_symbol
  _atom_site_fract_x
  _atom_site_fract_y
  _atom_site_fract_z
C1 C 0.25711 1.07606 0.03043
 C2 C 0.25741 1.09330 -0.00396
 C3 C 0.25814 1.07389 -0.03708
 C4 C 0.25964 1.03493 -0.03601
 C5 C 0.25747 1.01653 -0.00169
 C6 C 0.25561 1.03708 0.03149
 C7 C 0.24938 1.01809 0.06442
 C8 C 0.24939 0.98016 0.06567
 C9 C 0.25262 0.95922 0.03362
 C10 C 0.25551 0.97739 -0.00058
 C11 C 0.26111 1.01370 -0.06809
 C12 C 0.26167 0.97565 -0.06669
 C13 C 0.25671 0.95660 -0.03355
 C14 C 0.25495 0.91741 -0.03214
 C15 C 0.25464 0.90033 0.00259
 C16 C 0.25301 0.92056 0.03512
 H17 H 0.24355 1.03211 0.08978
 H18 H 0.24619 0.96757 0.09228
 H19 H 0.26181 1.02589 -0.09497
 H20 H 0.26631 0.96159 -0.09228
 H21 H 0.25929 1.12299 -0.00530
 H22 H 0.25350 0.87067 0.00464
 C23 C 0.74012 0.41917 0.45977
 C24 C 0.74081 0.39962 0.49297
 C25 C 0.74636 0.41727 0.52668
 C26 C 0.75299 0.45546 0.52714
 C27 C 0.75028 0.47604 0.49425
 C28 C 0.74344 0.45797 0.46047
 C29 C 0.74109 0.47919 0.42838
 C30 C 0.74426 0.51725 0.42951
 C31 C 0.75232 0.53563 0.46240
 C32 C 0.75540 0.51474 0.49510
 C33 C 0.76392 0.47335 0.55944
 C34 C 0.76930 0.51096 0.56017
 C35 C 0.76354 0.53242 0.52876
 C36 C 0.76669 0.57102 0.53003
 C37 C 0.76386 0.59118 0.49758
 C38 C 0.75697 0.57429 0.46378
 H39 H 0.73642 0.46682 0.40192
 H40 H 0.74033 0.53195 0.40412
 H41 H 0.76921 0.45845 0.58450
 H42 H 0.77841 0.52293 0.58571
 H43 H 0.73739 0.37006 0.49247
 H44 H 0.76659 0.62080 0.49874
 C45 C 0.73986 0.96255 1.07038
 C46 C 0.74370 0.99565 1.08941
 C47 C 0.74900 1.02942 1.07145
 C48 C 0.75277 1.02919 1.03268
 C49 C 0.74711 0.99612 1.01280
 C50 C 0.74003 0.96286 1.03170
 C51 C 0.73288 0.93091 1.01140
 C52 C 0.73538 0.93090 0.97343
 C53 C 0.74506 0.96288 0.95419
 C54 C 0.74945 0.99614 0.97390
 C55 C 0.76526 1.06019 1.01346
 C56 C 0.76715 1.06029 0.97553
 C57 C 0.75689 1.02932 0.95495
 C58 C 0.75700 1.02988 0.91603
 C59 C 0.75516 0.99602 0.89733
 C60 C 0.74995 0.96259 0.91576
 H61 H 0.72508 0.90553 1.02466
 H62 H 0.72929 0.90553 0.95934
 H63 H 0.77479 1.08449 1.02752
 H64 H 0.77790 1.08471 0.96257
 H65 H 0.74144 0.99491 1.11899
 H66 H 0.75639 0.99550 0.86770
 C67 C 0.24109 0.46721 0.57678
 C68 C 0.24460 0.50115 0.59454
 C69 C 0.24726 0.53396 0.57493
 C70 C 0.24808 0.53315 0.53638
 C71 C 0.24379 0.49931 0.51776
 C72 C 0.23954 0.46626 0.53794
 C73 C 0.23294 0.43350 0.51871
 C74 C 0.23308 0.43275 0.48059
 C75 C 0.23960 0.46477 0.46006
 C76 C 0.24367 0.49859 0.47885
 C77 C 0.25403 0.56529 0.51607
 C78 C 0.25415 0.56457 0.47814
 C79 C 0.24770 0.53178 0.45890
 C80 C 0.24607 0.53128 0.42022
 C81 C 0.24370 0.49744 0.40203
 C82 C 0.24118 0.46409 0.42127
 H83 H 0.22713 0.40812 0.53290
 H84 H 0.22743 0.40678 0.46741
 H85 H 0.25914 0.59137 0.52930
 H86 H 0.25985 0.59009 0.46418
 H87 H 0.24539 0.50214 0.62422
 H88 H 0.24391 0.49708 0.37234
 C89 C 0.91416 0.24856 0.03310
 C90 C 0.89614 0.24936 -0.00083
 C91 C 0.91540 0.24940 -0.03428
 C92 C 0.95439 0.24805 -0.03332
 C93 C 0.97319 0.24966 0.00074
 C94 C 0.95305 0.24856 0.03399
 C95 C 0.97236 0.24477 0.06707
 C96 C 1.01046 0.24486 0.06787
 C97 C 1.03119 0.24934 0.03568
 C98 C 1.01236 0.24990 0.00153
 C99 C 0.97501 0.24062 -0.06499
 C100 C 1.01300 0.24036 -0.06422
 C101 C 1.03244 0.24796 -0.03185
 C102 C 1.07143 0.24941 -0.03135
 C103 C 1.08915 0.25019 0.00282
 C104 C 1.07020 0.24936 0.03625
 H105 H 0.95837 0.24043 0.09278
 H106 H 1.02322 0.23995 0.09410
 H107 H 0.96214 0.23323 -0.09061
 H108 H 1.02678 0.23257 -0.08921
 H109 H 0.86638 0.25081 -0.00098
 H110 H 1.11876 0.25341 0.00365
 C111 C 0.57747 0.73931 0.53415
 C112 C 0.59446 0.74111 0.49976
 C113 C 0.57402 0.74303 0.46742
 C114 C 0.53535 0.74355 0.46905
 C115 C 0.51750 0.74270 0.50352
 C116 C 0.53851 0.73948 0.53616
 C117 C 0.51988 0.73502 0.56957
 C118 C 0.48170 0.73643 0.57125
 C119 C 0.46045 0.74229 0.53958
 C120 C 0.47851 0.74422 0.50521
 C121 C 0.51410 0.74349 0.43698
 C122 C 0.47612 0.74468 0.43860
 C123 C 0.45771 0.74652 0.47237
 C124 C 0.41899 0.74896 0.47406
 C125 C 0.40159 0.74801 0.50827
 C126 C 0.42158 0.74454 0.54104
 H127 H 0.53453 0.72970 0.59478
 H128 H 0.46911 0.73223 0.59770
 H129 H 0.52654 0.74200 0.41013
 H130 H 0.46152 0.74359 0.41286
 H131 H 0.62420 0.74148 0.49805
 H132 H 0.37187 0.74987 0.50939
 C133 C 0.03372 0.74924 -0.07131
 C134 C 0.00025 0.75182 -0.09011
 C135 C -0.03384 0.75512 -0.07230
 C136 C -0.03417 0.75569 -0.03322
 C137 C -0.00050 0.75241 -0.01350
 C138 C 0.03347 0.75034 -0.03259
 C139 C 0.06634 0.75327 -0.01255
 C140 C 0.06627 0.75424 0.02525
 C141 C 0.03328 0.75297 0.04499
 C142 C -0.00049 0.75351 0.02554
 C143 C -0.06636 0.76315 -0.01321
 C144 C -0.06642 0.76318 0.02488
 C145 C -0.03404 0.75702 0.04494
 C146 C -0.03390 0.75678 0.08384
 C147 C -0.00010 0.75507 0.10250
 C148 C 0.03341 0.75351 0.08367
 H149 H 0.09272 0.75625 -0.02571
 H150 H 0.09261 0.75705 0.03864
 H151 H -0.09181 0.77041 -0.02658
 H152 H -0.09208 0.76952 0.03835
 H153 H 0.00076 0.74898 -0.11968
 H154 H 0.00021 0.75505 0.13220
 C155 C 0.52769 0.24291 0.42484
 C156 C 0.49476 0.24859 0.40597
 C157 C 0.46171 0.25578 0.42438
 C158 C 0.46188 0.25819 0.46319
 C159 C 0.49485 0.25092 0.48268
 C160 C 0.52758 0.24249 0.46343
 C161 C 0.55929 0.23309 0.48322
 C162 C 0.55981 0.23490 0.52105
 C163 C 0.52852 0.24578 0.54071
 C164 C 0.49526 0.25229 0.52156
 C165 C 0.43049 0.26863 0.48303
 C166 C 0.43078 0.26948 0.52119
 C167 C 0.46258 0.26023 0.54112
 C168 C 0.46294 0.25964 0.58002
 C169 C 0.49673 0.25514 0.59835
 C170 C 0.52961 0.24942 0.57913
 H171 H 0.58408 0.22393 0.46971
 H172 H 0.58504 0.22712 0.53468
 H173 H 0.40545 0.27677 0.46930
 H174 H 0.40594 0.27822 0.53485
 H175 H 0.49496 0.24755 0.37629
 H176 H 0.49750 0.25586 0.62802
 C177 C 0.92207 -0.02629 0.24253
 C178 C 0.90525 0.00845 0.24220
 C179 C 0.92553 0.04095 0.24083
 C180 C 0.96427 0.03937 0.24089
 C181 C 0.98215 0.00477 0.24131
 C182 C 0.96107 -0.02804 0.24028
 C183 C 0.97945 -0.06118 0.23311
 C184 C 1.01748 -0.06293 0.23241
 C185 C 1.03915 -0.03168 0.23912
 C186 C 1.02125 0.00296 0.24101
 C187 C 0.98554 0.07138 0.23858
 C188 C 1.02364 0.06963 0.23830
 C189 C 1.04218 0.03583 0.24075
 C190 C 1.08103 0.03397 0.24099
 C191 C 1.09820 -0.00049 0.24067
 C192 C 1.07818 -0.03362 0.24003
 H193 H 0.96468 -0.08605 0.22652
 H194 H 1.02953 -0.08905 0.22521
 H195 H 0.97297 0.09818 0.23630
 H196 H 1.03823 0.09525 0.23524
 H197 H 0.87562 0.01067 0.24440
 H198 H 1.12794 -0.00131 0.24228
 C199 C 0.42904 0.47117 0.76073
 C200 C 0.41201 0.50545 0.76158
 C201 C 0.43165 0.53803 0.75602
 C202 C 0.47036 0.53643 0.75198
 C203 C 0.48833 0.50183 0.75302
 C204 C 0.46743 0.46908 0.75603
 C205 C 0.48525 0.43511 0.75248
 C206 C 0.52300 0.43313 0.74868
 C207 C 0.54464 0.46504 0.74829
 C208 C 0.52715 0.49977 0.74937
 C209 C 0.49143 0.56797 0.74507
 C210 C 0.52951 0.56598 0.74214
 C211 C 0.54819 0.53234 0.74576
 C212 C 0.58714 0.53010 0.74416
 C213 C 0.60394 0.49529 0.74362
 C214 C 0.58321 0.46291 0.74534
 H215 H 0.47030 0.40951 0.75201
 H216 H 0.53484 0.40609 0.74566
 H217 H 0.47880 0.59455 0.74140
 H218 H 0.54398 0.59115 0.73610
 H219 H 0.38245 0.50666 0.76522
 H220 H 0.63363 0.49328 0.74225
 C221 C 1.03577 0.92413 0.75282
 C222 C 1.00099 0.90757 0.74874
 C223 C 0.96852 0.92775 0.74890
 C224 C 0.96994 0.96619 0.75118
 C225 C 1.00436 0.98423 0.75349
 C226 C 1.03724 0.96322 0.75628
 C227 C 1.06954 0.98177 0.76651
 C228 C 1.07077 1.01986 0.76853
 C229 C 1.03970 1.04151 0.76068
 C230 C 1.00556 1.02333 0.75543
 C231 C 0.93760 0.98680 0.75375
 C232 C 0.93881 1.02457 0.75632
 C233 C 0.97230 1.04380 0.75449
 C234 C 0.97328 1.08274 0.75552
 C235 C 1.00750 1.10012 0.76004
 C236 C 1.04093 1.08057 0.76219
 H237 H 1.09399 0.96717 0.77481
 H238 H 1.09617 1.03194 0.77797
 H239 H 0.91085 0.97390 0.75484
 H240 H 0.91291 1.03821 0.76101
 H241 H 0.99866 0.87817 0.74480
 H242 H 1.00836 1.12985 0.75916
 C243 C 0.52704 0.42390 0.25471
 C244 C 0.49189 0.40824 0.25324
 C245 C 0.46023 0.42986 0.25343
 C246 C 0.46327 0.46834 0.25445
 C247 C 0.49847 0.48492 0.25537
 C248 C 0.53050 0.46270 0.25660
 C249 C 0.56476 0.47992 0.26121
 C250 C 0.56776 0.51803 0.26204
 C251 C 0.53662 0.54061 0.25827
 C252 C 0.50151 0.52382 0.25593
 C253 C 0.43185 0.49056 0.25594
 C254 C 0.43480 0.52840 0.25661
 C255 C 0.46928 0.54573 0.25520
 C256 C 0.47222 0.58438 0.25456
 C257 C 0.50708 0.60064 0.25642
 C258 C 0.53935 0.57946 0.25845
 H259 H 0.58965 0.46417 0.26498
 H260 H 0.59482 0.52948 0.26624
 H261 H 0.40452 0.47895 0.25702
 H262 H 0.40950 0.54373 0.25883
 H263 H 0.48901 0.37866 0.25165
 H264 H 0.50914 0.63033 0.25619
 O265 O 0.26133 0.16060 0.18733
 O266 O 0.30281 0.15232 0.23965
 O267 O 0.16240 0.19411 0.24420
 O268 O 0.14559 0.24002 0.28149
 O269 O 0.20093 0.25238 0.14806
 O270 O 0.24855 0.29834 0.13900
 O271 O 0.25156 0.30354 0.33737
 O272 O 0.21138 0.24934 0.34594
 O273 O 0.34832 0.26070 0.29114
 O274 O 0.36083 0.21978 0.23934
 O275 O 0.29642 0.35175 0.24596
 O276 O 0.24232 0.35820 0.20194
 O277 O 0.24481 0.34734 0.29349
 O278 O 0.20518 0.35740 0.24282
 O279 O 0.34310 0.31020 0.24735
 O280 O 0.35420 0.26436 0.19733
 O281 O 0.30514 0.25609 0.33596
 O282 O 0.26099 0.21401 0.34955
 O283 O 0.25593 0.20664 0.14557
 O284 O 0.29140 0.26024 0.13573
 O285 O 0.15694 0.24771 0.19213
 O286 O 0.14530 0.28692 0.24473
 O287 O 0.21013 0.15421 0.23783
 O288 O 0.26086 0.14593 0.27840
 Zr289 Zr 0.25685 0.18782 0.23850
 O290 O 0.28827 0.22104 0.27379
 Zr291 Zr 0.18715 0.24664 0.24157
 O292 O 0.21633 0.28296 0.27605
 Zr293 Zr 0.25086 0.25434 0.17671
 O294 O 0.28316 0.28991 0.20846
 Zr295 Zr 0.25465 0.25357 0.30756
 O296 O 0.22274 0.21629 0.27583
 Zr297 Zr 0.31788 0.25905 0.24245
 O298 O 0.28930 0.22336 0.20685
 Zr299 Zr 0.24861 0.31880 0.24414
 O300 O 0.21563 0.28570 0.20973
 O301 O 0.21987 0.21655 0.20605
 O302 O 0.28561 0.29074 0.27753
 C303 C 0.25964 0.17275 0.15420
 C304 C 0.17584 0.16150 0.24139
 C305 C 0.16735 0.25006 0.15857
 C306 C 0.24685 0.33705 0.32694
 C307 C 0.33856 0.25913 0.32487
 C308 C 0.33060 0.34300 0.24789
 H309 H 0.30461 0.20523 0.28860
 H310 H 0.29752 0.30629 0.19230
 H311 H 0.20530 0.20013 0.19007
 H312 H 0.19877 0.29633 0.29180
 H313 H 0.19668 0.22754 0.33897
 H314 H 0.15311 0.25420 0.30333
 H315 H 0.37795 0.27434 0.20622
 H316 H 0.31298 0.24596 0.14406
 H317 H 0.26829 0.19085 0.33756
 H318 H 0.24190 0.15122 0.29711
 H319 H 0.26474 0.35775 0.18667
 H320 H 0.22850 0.31474 0.14722
 H321 H 0.32043 0.16177 0.22130
 H322 H 0.35742 0.20173 0.25927
 H323 H 0.15100 0.30578 0.22605
 H324 H 0.18564 0.34821 0.25924
 O325 O 0.73954 0.85117 0.20319
 O326 O 0.70037 0.86125 0.25537
 O327 O 0.83973 0.81713 0.25983
 O328 O 0.85382 0.77145 0.29997
 O329 O 0.80397 0.75758 0.16428
 O330 O 0.75386 0.71429 0.15360
 O331 O 0.74845 0.71032 0.35238
 O332 O 0.78840 0.76314 0.36153
 O333 O 0.65216 0.75392 0.30513
 O334 O 0.64181 0.79517 0.25167
 O335 O 0.70241 0.66143 0.25935
 O336 O 0.75808 0.65379 0.21739
 O337 O 0.75286 0.66508 0.30968
 O338 O 0.79388 0.65373 0.25966
 O339 O 0.65664 0.70389 0.26121
 O340 O 0.64716 0.74900 0.21089
 O341 O 0.69613 0.75326 0.34960
 O342 O 0.73636 0.79936 0.36263
 O343 O 0.74844 0.80690 0.16010
 O344 O 0.71268 0.75371 0.14915
 O345 O 0.84559 0.76541 0.21019
 O346 O 0.85577 0.72461 0.26125
 O347 O 0.79235 0.85721 0.25249
 O348 O 0.74096 0.86658 0.29339
 Zr349 Zr 0.74525 0.82439 0.25380
 O350 O 0.71280 0.79184 0.28836
 Zr351 Zr 0.81411 0.76507 0.25807
 O352 O 0.78399 0.72875 0.29153
 Zr353 Zr 0.75225 0.75830 0.19129
 O354 O 0.71839 0.72329 0.22275
 Zr355 Zr 0.74601 0.75913 0.32204
 O356 O 0.77882 0.79615 0.29159
 Zr357 Zr 0.68319 0.75440 0.25631
 O358 O 0.71330 0.78932 0.22115
 Zr359 Zr 0.75137 0.69334 0.25933
 O360 O 0.78575 0.72622 0.22566
 O361 O 0.78252 0.79560 0.22171
 O362 O 0.71467 0.72237 0.29177
 C363 C 0.74217 0.84024 0.16986
 C364 C 0.82662 0.84973 0.25584
 C365 C 0.83710 0.76127 0.17637
 C366 C 0.75097 0.67647 0.34294
 C367 C 0.66267 0.75220 0.33872
 C368 C 0.66828 0.67077 0.26121
 H369 H 0.69671 0.80777 0.30330
 H370 H 0.70402 0.70717 0.20630
 H371 H 0.79729 0.81175 0.20566
 H372 H 0.80102 0.71507 0.30765
 H373 H 0.80268 0.78549 0.35559
 H374 H 0.84642 0.75564 0.32069
 H375 H 0.62281 0.74065 0.21983
 H376 H 0.69048 0.76659 0.15804
 H377 H 0.74594 0.82266 0.35272
 H378 H 0.76194 0.86376 0.31044
 H379 H 0.73624 0.65497 0.20128
 H380 H 0.77282 0.69700 0.16259
 H381 H 0.68193 0.85197 0.23771
 H382 H 0.64378 0.81182 0.27297
 H383 H 0.84958 0.70552 0.24298
 H384 H 0.81355 0.66308 0.27587
 O385 O 0.75650 0.14990 0.79191
 O386 O 0.72406 0.13380 0.74300
 O387 O 0.85021 0.20547 0.74902
 O388 O 0.86027 0.25529 0.71239
 O389 O 0.79501 0.24674 0.84278
 O390 O 0.74587 0.28328 0.85247
 O391 O 0.74988 0.29357 0.64832
 O392 O 0.78624 0.24632 0.63521
 O393 O 0.65388 0.24103 0.69670
 O394 O 0.64562 0.20161 0.74148
 O395 O 0.69681 0.33939 0.74012
 O396 O 0.74286 0.35618 0.77902
 O397 O 0.74543 0.33924 0.69042
 O398 O 0.78913 0.35079 0.74695
 O399 O 0.65371 0.29418 0.74180
 O400 O 0.64957 0.24381 0.79022
 O401 O 0.69695 0.24600 0.65179
 O402 O 0.75434 0.20070 0.64370
 O403 O 0.74992 0.19173 0.83767
 O404 O 0.70089 0.24170 0.84347
 O405 O 0.84168 0.25363 0.80186
 O406 O 0.84889 0.29858 0.74838
 O407 O 0.81090 0.15723 0.74372
 O408 O 0.75769 0.14583 0.69847
 Zr409 Zr 0.75735 0.18120 0.74444
 O410 O 0.71905 0.21017 0.71229
 Zr411 Zr 0.81577 0.25089 0.74921
 O412 O 0.78326 0.28039 0.71148
 Zr413 Zr 0.74862 0.24358 0.81025
 O414 O 0.71549 0.27838 0.77813
 Zr415 Zr 0.74898 0.24609 0.67950
 O416 O 0.78804 0.21645 0.71119
 Zr417 Zr 0.68474 0.24451 0.74394
 O418 O 0.71748 0.20916 0.77652
 Zr419 Zr 0.74642 0.31167 0.74208
 O420 O 0.77960 0.28274 0.78021
 O421 O 0.78685 0.21349 0.78065
 O422 O 0.71317 0.27947 0.70866
 C423 C 0.75369 0.15853 0.82573
 C424 C 0.84343 0.17116 0.74647
 C425 C 0.82896 0.25061 0.83483
 C426 C 0.74790 0.32739 0.65716
 C427 C 0.66338 0.24286 0.66314
 C428 C 0.66363 0.32818 0.74036
 H429 H 0.70437 0.19261 0.69770
 H430 H 0.69950 0.29322 0.79428
 H431 H 0.80307 0.19862 0.79656
 H432 H 0.79954 0.29562 0.69603
 H433 H 0.81016 0.25409 0.64545
 H434 H 0.85281 0.24186 0.69004
 H435 H 0.62456 0.25075 0.78193
 H436 H 0.70762 0.23108 0.86758
 H437 H 0.72982 0.18937 0.64074
 H438 H 0.78068 0.15071 0.68484
 H439 H 0.73292 0.34625 0.80217
 H440 H 0.75839 0.30547 0.84307
 H441 H 0.69841 0.14265 0.74395
 H442 H 0.65338 0.18307 0.75973
 H443 H 0.84314 0.31271 0.77081
 H444 H 0.80227 0.35179 0.72327
 O445 O 0.24278 0.83497 0.80960
 O446 O 0.28395 0.84826 0.75851
 O447 O 0.14884 0.79032 0.75259
 O448 O 0.13737 0.74375 0.71451
 O449 O 0.19303 0.73821 0.84837
 O450 O 0.24524 0.69554 0.85580
 O451 O 0.24468 0.69421 0.65762
 O452 O 0.20240 0.74528 0.65030
 O453 O 0.34047 0.74494 0.70275
 O454 O 0.35047 0.78613 0.75345
 O455 O 0.29830 0.64931 0.75005
 O456 O 0.24568 0.63596 0.79196
 O457 O 0.25114 0.64961 0.70079
 O458 O 0.20842 0.63440 0.75074
 O459 O 0.34168 0.69417 0.75157
 O460 O 0.34740 0.74545 0.79807
 O461 O 0.29547 0.74084 0.65957
 O462 O 0.25221 0.78410 0.64804
 O463 O 0.24700 0.78833 0.85087
 O464 O 0.28348 0.73725 0.86113
 O465 O 0.14995 0.73940 0.80313
 O466 O 0.14248 0.69721 0.75170
 O467 O 0.19110 0.83616 0.75576
 O468 O 0.24433 0.85148 0.71938
 Zr469 Zr 0.24202 0.80813 0.75788
 O470 O 0.27667 0.77846 0.72218
 Zr471 Zr 0.17961 0.74185 0.75431
 O472 O 0.21175 0.70913 0.71950
 Zr473 Zr 0.24340 0.74064 0.81936
 O474 O 0.27938 0.70919 0.78692
 Zr475 Zr 0.24607 0.74308 0.68855
 O476 O 0.21085 0.77666 0.72038
 Zr477 Zr 0.31094 0.74336 0.75271
 O478 O 0.27834 0.77540 0.78879
 Zr479 Zr 0.24789 0.67706 0.75103
 O480 O 0.21182 0.70590 0.78604
 O481 O 0.20871 0.77538 0.79021
 O482 O 0.28141 0.70902 0.71780
 C483 C 0.24614 0.82248 0.84253
 C484 C 0.15786 0.82435 0.75350
 C485 C 0.15956 0.73861 0.83689
 C486 C 0.24863 0.66058 0.66753
 C487 C 0.32927 0.74244 0.66934
 C488 C 0.33175 0.66035 0.75051
 H489 H 0.29084 0.79578 0.70687
 H490 H 0.29529 0.69433 0.80315
 H491 H 0.19280 0.79056 0.80612
 H492 H 0.19558 0.69413 0.70372
 H493 H 0.18672 0.76639 0.65722
 H494 H 0.14677 0.73155 0.69224
 H495 H 0.37173 0.73579 0.79051
 H496 H 0.30524 0.75068 0.85203
 H497 H 0.24083 0.80652 0.65808
 H498 H 0.22524 0.84662 0.70069
 H499 H 0.26613 0.64040 0.80926
 H500 H 0.22571 0.67830 0.84804
 H501 H 0.30274 0.83961 0.77614
 H502 H 0.34244 0.80544 0.73620
 H503 H 0.15075 0.67898 0.77005
 H504 H 0.18989 0.64033 0.73182
 O505 O 0.24482 0.35430 0.71063
 O506 O 0.20706 0.36313 0.76409
 O507 O 0.34436 0.31318 0.76420
 O508 O 0.35934 0.26397 0.79845
 O509 O 0.30259 0.26102 0.66460
 O510 O 0.25411 0.21862 0.65485
 O511 O 0.25108 0.20601 0.85287
 O512 O 0.29490 0.25618 0.86294
 O513 O 0.15614 0.25711 0.81139
 O514 O 0.14397 0.29778 0.76069
 O515 O 0.20121 0.16330 0.76059
 O516 O 0.25413 0.15474 0.71634
 O517 O 0.25423 0.16248 0.80834
 O518 O 0.29291 0.15290 0.75561
 O519 O 0.15737 0.20751 0.76495
 O520 O 0.14989 0.25697 0.71560
 O521 O 0.20156 0.25420 0.85419
 O522 O 0.24815 0.29468 0.86877
 O523 O 0.25040 0.31157 0.66548
 O524 O 0.20710 0.25996 0.65749
 O525 O 0.34604 0.26470 0.70947
 O526 O 0.35649 0.21986 0.75778
 O527 O 0.29872 0.35566 0.75916
 O528 O 0.24992 0.36480 0.80172
 Zr529 Zr 0.25046 0.32476 0.75980
 O530 O 0.21788 0.29206 0.79389
 Zr531 Zr 0.31681 0.26238 0.75890
 O532 O 0.28647 0.22597 0.79209
 Zr533 Zr 0.25236 0.26132 0.69419
 O534 O 0.21849 0.22607 0.72552
 Zr535 Zr 0.25084 0.25654 0.82510
 O536 O 0.28405 0.29332 0.79496
 Zr537 Zr 0.18572 0.25717 0.76150
 O538 O 0.21600 0.29258 0.72691
 Zr539 Zr 0.25134 0.19329 0.75963
 O540 O 0.28554 0.22640 0.72607
 O541 O 0.28527 0.29587 0.72531
 O542 O 0.21686 0.22230 0.79463
 C543 C 0.24606 0.34471 0.67679
 C544 C 0.33255 0.34643 0.76216
 C545 C 0.33623 0.26306 0.67572
 C546 C 0.25290 0.17252 0.84200
 C547 C 0.16763 0.25498 0.84471
 C548 C 0.16753 0.17390 0.76368
 H549 H 0.20271 0.30810 0.80961
 H550 H 0.20292 0.21116 0.70903
 H551 H 0.30026 0.31241 0.70988
 H552 H 0.30345 0.21097 0.80703
 H553 H 0.31118 0.27696 0.85640
 H554 H 0.35198 0.24795 0.81904
 H555 H 0.12616 0.24583 0.72298
 H556 H 0.21572 0.26736 0.63279
 H557 H 0.23891 0.31801 0.85854
 H558 H 0.26890 0.35746 0.81975
 H559 H 0.23237 0.15836 0.70050
 H560 H 0.27169 0.20003 0.66405
 H561 H 0.18792 0.35534 0.74645
 H562 H 0.14978 0.31621 0.77971
 H563 H 0.34915 0.20273 0.73804
 H564 H 0.31314 0.16038 0.77210
 O565 O 0.76923 0.65184 0.69101
 O566 O 0.81027 0.64509 0.74404
 O567 O 0.67062 0.68960 0.74276
 O568 O 0.65346 0.73737 0.77740
 O569 O 0.71358 0.74130 0.64530
 O570 O 0.76112 0.78782 0.63647
 O571 O 0.75973 0.80122 0.83430
 O572 O 0.71785 0.74892 0.84402
 O573 O 0.85640 0.75417 0.79300
 O574 O 0.86978 0.71162 0.74288
 O575 O 0.80752 0.84488 0.74126
 O576 O 0.75451 0.85031 0.69658
 O577 O 0.75506 0.84326 0.78849
 O578 O 0.71644 0.85160 0.73642
 O579 O 0.85331 0.80281 0.74732
 O580 O 0.86562 0.75483 0.69961
 O581 O 0.81196 0.75223 0.83677
 O582 O 0.76566 0.71176 0.85034
 O583 O 0.77078 0.69624 0.64714
 O584 O 0.80377 0.74991 0.63537
 O585 O 0.66834 0.74108 0.68836
 O586 O 0.65565 0.78275 0.73903
 O587 O 0.71778 0.64861 0.74039
 O588 O 0.76732 0.64145 0.78262
 Zr589 Zr 0.76508 0.68143 0.74070
 O590 O 0.79625 0.71552 0.77535
 Zr591 Zr 0.69664 0.74146 0.73889
 O592 O 0.72547 0.77862 0.77281
 Zr593 Zr 0.76247 0.74515 0.67573
 O594 O 0.79438 0.78154 0.70702
 Zr595 Zr 0.76229 0.74998 0.80675
 O596 O 0.73045 0.71206 0.77567
 Zr597 Zr 0.82749 0.75172 0.74344
 O598 O 0.79928 0.71498 0.70860
 Zr599 Zr 0.75929 0.81253 0.74040
 O600 O 0.72684 0.77853 0.70632
 O601 O 0.72982 0.70925 0.70570
 O602 O 0.79479 0.78540 0.77616
 C603 C 0.77184 0.66269 0.65754
 C604 C 0.68351 0.65665 0.74211
 C605 C 0.67966 0.74093 0.65500
 C606 C 0.75611 0.83436 0.82240
 C607 C 0.84575 0.75403 0.82652
 C608 C 0.84143 0.83581 0.74518
 H609 H 0.81187 0.69998 0.79118
 H610 H 0.80952 0.79697 0.69064
 H611 H 0.71560 0.69227 0.68999
 H612 H 0.70775 0.79296 0.78749
 H613 H 0.70245 0.72750 0.83739
 H614 H 0.66056 0.75216 0.79898
 H615 H 0.88914 0.76489 0.70902
 H616 H 0.82593 0.73792 0.64556
 H617 H 0.77557 0.68873 0.84007
 H618 H 0.74821 0.64815 0.80071
 H619 H 0.77662 0.84787 0.68104
 H620 H 0.74037 0.80406 0.64313
 H621 H 0.82830 0.65333 0.72550
 H622 H 0.86507 0.69396 0.76288
 H623 H 0.66231 0.80062 0.71971
 H624 H 0.69656 0.84367 0.75308
 O625 O 0.25420 0.65457 0.29754
 O626 O 0.22121 0.64108 0.24822
 O627 O 0.34970 0.70846 0.25819
 O628 O 0.36171 0.75837 0.22221
 O629 O 0.29466 0.74795 0.35178
 O630 O 0.24686 0.78673 0.36162
 O631 O 0.25262 0.80272 0.15790
 O632 O 0.28960 0.75558 0.14429
 O633 O 0.15561 0.75458 0.20268
 O634 O 0.14585 0.71085 0.24558
 O635 O 0.20042 0.84709 0.24951
 O636 O 0.24596 0.86139 0.29056
 O637 O 0.24999 0.84710 0.20162
 O638 O 0.29290 0.85580 0.25914
 O639 O 0.15585 0.80342 0.24879
 O640 O 0.14932 0.75237 0.29620
 O641 O 0.19997 0.75461 0.15869
 O642 O 0.25708 0.70989 0.15050
 O643 O 0.24630 0.69543 0.34401
 O644 O 0.20009 0.74747 0.35082
 O645 O 0.34154 0.75671 0.31139
 O646 O 0.35159 0.80129 0.25858
 O647 O 0.30901 0.66187 0.24948
 O648 O 0.25545 0.65290 0.20420
 Zr649 Zr 0.25612 0.68726 0.25093
 O650 O 0.21937 0.71836 0.21881
 Zr651 Zr 0.31662 0.75491 0.25842
 O652 O 0.28568 0.78662 0.22122
 Zr653 Zr 0.24839 0.74807 0.31838
 O654 O 0.21667 0.78472 0.28670
 Zr655 Zr 0.25121 0.75414 0.18760
 O656 O 0.28854 0.72231 0.21912
 Zr657 Zr 0.18556 0.75296 0.25077
 O658 O 0.21665 0.71575 0.28304
 Zr659 Zr 0.24928 0.81801 0.25230
 O660 O 0.28107 0.78700 0.28989
 O661 O 0.28609 0.71758 0.28848
 O662 O 0.21603 0.78776 0.21722
 C663 C 0.24978 0.66249 0.33136
 C664 C 0.34189 0.67461 0.25351
 C665 C 0.32864 0.75254 0.34411
 C666 C 0.25169 0.83623 0.16803
 C667 C 0.16607 0.75516 0.16934
 C668 C 0.16685 0.83709 0.24769
 H669 H 0.20435 0.70175 0.20346
 H670 H 0.20076 0.79963 0.30286
 H671 H 0.30160 0.70178 0.30422
 H672 H 0.30259 0.80189 0.20650
 H673 H 0.31326 0.76312 0.15529
 H674 H 0.35425 0.74521 0.19969
 H675 H 0.12457 0.75934 0.28721
 H676 H 0.20599 0.73613 0.37482
 H677 H 0.23286 0.69786 0.14789
 H678 H 0.27862 0.65729 0.19073
 H679 H 0.23590 0.85083 0.31337
 H680 H 0.26086 0.80841 0.35316
 H681 H 0.19589 0.65081 0.24926
 H682 H 0.15169 0.69237 0.26459
 H683 H 0.34574 0.81566 0.28083
 H684 H 0.30660 0.85702 0.23579
 O685 O 0.73217 0.33702 0.29818
 O686 O 0.77221 0.34907 0.24529
 O687 O 0.63901 0.28635 0.24983
 O688 O 0.62980 0.24005 0.20920
 O689 O 0.68803 0.24043 0.34258
 O690 O 0.74276 0.20016 0.35073
 O691 O 0.73849 0.18809 0.15356
 O692 O 0.69195 0.23609 0.14462
 O693 O 0.83105 0.24758 0.19298
 O694 O 0.84007 0.29056 0.24286
 O695 O 0.79429 0.15099 0.24474
 O696 O 0.74422 0.13838 0.29103
 O697 O 0.74479 0.14631 0.19932
 O698 O 0.70524 0.13271 0.25160
 O699 O 0.83573 0.19765 0.24197
 O700 O 0.84140 0.24924 0.28752
 O701 O 0.78539 0.23887 0.15118
 O702 O 0.73898 0.27799 0.13873
 O703 O 0.74002 0.29276 0.34151
 O704 O 0.77854 0.24433 0.35357
 O705 O 0.64400 0.23371 0.29873
 O706 O 0.63568 0.19351 0.24828
 O707 O 0.68005 0.33334 0.24638
 O708 O 0.73104 0.34892 0.20733
 Zr709 Zr 0.73182 0.30747 0.24791
 O710 O 0.76649 0.27745 0.21257
 Zr711 Zr 0.67193 0.23896 0.24918
 O712 O 0.70453 0.20553 0.21530
 Zr713 Zr 0.73767 0.24345 0.31245
 O714 O 0.77414 0.21192 0.28062
 Zr715 Zr 0.73668 0.23900 0.18156
 O716 O 0.70101 0.27302 0.21272
 Zr717 Zr 0.80313 0.24556 0.24377
 O718 O 0.77035 0.27798 0.27931
 Zr719 Zr 0.74287 0.17680 0.24752
 O720 O 0.70654 0.20601 0.28175
 O721 O 0.70071 0.27506 0.28274
 O722 O 0.77413 0.20822 0.21162
 C723 C 0.73693 0.32634 0.33156
 C724 C 0.64719 0.32061 0.24798
 C725 C 0.65453 0.23562 0.33214
 C726 C 0.74279 0.15505 0.16542
 C727 C 0.81922 0.24336 0.15997
 C728 C 0.82714 0.16347 0.24248
 H729 H 0.77939 0.29468 0.19609
 H730 H 0.79126 0.19850 0.29687
 H731 H 0.68460 0.28988 0.29880
 H732 H 0.68871 0.18897 0.20076
 H733 H 0.67552 0.25700 0.15033
 H734 H 0.63768 0.22417 0.18870
 H735 H 0.86594 0.24148 0.27859
 H736 H 0.80012 0.25663 0.34262
 H737 H 0.72704 0.30039 0.14817
 H738 H 0.71176 0.34221 0.18942
 H739 H 0.76638 0.14334 0.30593
 H740 H 0.72349 0.18197 0.34466
 H741 H 0.79109 0.34284 0.26382
 H742 H 0.83126 0.30836 0.22440
 H743 H 0.64610 0.17483 0.26502
 H744 H 0.68635 0.13608 0.23239
 C745 C 0.27947 0.09054 0.09326
 C746 C 0.25776 0.09880 0.06213
 C747 C 0.23782 0.13193 0.06223
 C748 C 0.23933 0.15560 0.09194
 C749 C 0.25960 0.14664 0.12333
 C750 C 0.27957 0.11374 0.12396
 H751 H 0.29712 0.06662 0.09362
 H752 H 0.22024 0.13951 0.03949
 H753 H 0.22420 0.18104 0.09039
 H754 H 0.29615 0.10665 0.14757
 C755 C 0.79830 0.61830 0.56859
 C756 C 0.77079 0.59158 0.56493
 C757 C 0.74548 0.58655 0.59358
 C758 C 0.74771 0.60782 0.62532
 C759 C 0.77439 0.63533 0.62826
 C760 C 0.79984 0.64027 0.59985
 H761 H 0.81793 0.62283 0.54678
 H762 H 0.72341 0.56679 0.59094
 H763 H 0.72725 0.60436 0.64651
 H764 H 0.82026 0.66184 0.60148
 C765 C 0.76242 0.89958 0.08756
 C766 C 0.73707 0.92832 0.09242
 C767 C 0.71170 0.92619 0.12128
 C768 C 0.71268 0.89679 0.14573
 C769 C 0.73851 0.86854 0.14135
 C770 C 0.76274 0.86959 0.11152
 H771 H 0.78280 0.90101 0.06602
 H772 H 0.69196 0.94800 0.12563
 H773 H 0.69369 0.89645 0.16855
 H774 H 0.78320 0.84828 0.10798
 C775 C 0.26504 0.40478 0.59454
 C776 C 0.24006 0.43372 0.60011
 C777 C 0.21630 0.43227 0.63037
 C778 C 0.21799 0.40300 0.65497
 C779 C 0.24290 0.37416 0.64937
 C780 C 0.26596 0.37488 0.61860
 H781 H 0.28437 0.40574 0.57204
 H782 H 0.19694 0.45428 0.63540
 H783 H 0.19993 0.40293 0.67854
 H784 H 0.28572 0.35311 0.61409
 C785 C 0.77819 0.06506 0.86272
 C786 C 0.75787 0.06303 0.89540
 C787 C 0.73704 0.09419 0.90584
 C788 C 0.73678 0.12616 0.88438
 C789 C 0.75656 0.12737 0.85155
 C790 C 0.77761 0.09668 0.84130
 H791 H 0.79529 0.04242 0.85388
 H792 H 0.71965 0.09340 0.92987
 H793 H 0.71987 0.14920 0.89257
 H794 H 0.79359 0.09698 0.81628
 C795 C 0.27400 0.57011 0.37105
 C796 C 0.24712 0.56562 0.39810
 C797 C 0.22153 0.59405 0.40405
 C798 C 0.22338 0.62672 0.38384
 C799 C 0.25008 0.63086 0.35654
 C800 C 0.27533 0.60229 0.35036
 H801 H 0.29399 0.54868 0.36597
 H802 H 0.20019 0.59091 0.42446
 H803 H 0.20321 0.64806 0.38851
 H804 H 0.29605 0.60482 0.32922
 C805 C 0.23001 0.90341 0.90605
 C806 C 0.25309 0.89476 0.93606
 C807 C 0.27321 0.86175 0.93445
 C808 C 0.27125 0.83898 0.90378
 C809 C 0.24921 0.84837 0.87360
 C810 C 0.22871 0.88091 0.87489
 H811 H 0.21213 0.92715 0.90697
 H812 H 0.29144 0.85384 0.95656
 H813 H 0.28728 0.81392 0.90356
 H814 H 0.21066 0.88820 0.85243
 C815 C 0.76807 0.37260 0.41832
 C816 C 0.73954 0.39759 0.42509
 C817 C 0.71071 0.40051 0.39949
 C818 C 0.71078 0.37903 0.36751
 C819 C 0.73911 0.35360 0.36135
 C820 C 0.76770 0.35067 0.38701
 H821 H 0.79045 0.36968 0.43770
 H822 H 0.68801 0.41906 0.40451
 H823 H 0.68798 0.38102 0.34853
 H824 H 0.78954 0.33085 0.38305
 C825 C 0.08508 0.27139 0.09877
 C826 C 0.09160 0.24796 0.06866
 C827 C 0.12220 0.22432 0.07007
 C828 C 0.14570 0.22445 0.10003
 C829 C 0.13957 0.24812 0.12949
 C830 C 0.10868 0.27112 0.12919
 H831 H 0.06281 0.29111 0.09812
 H832 H 0.12794 0.20544 0.04786
 H833 H 0.16894 0.20607 0.10018
 H834 H 0.10384 0.28998 0.15159
 C835 C 0.59787 0.76370 0.59550
 C836 C 0.60178 0.73808 0.56696
 C837 C 0.63113 0.71302 0.56822
 C838 C 0.65631 0.71388 0.59706
 C839 C 0.65210 0.73921 0.62565
 C840 C 0.62240 0.76372 0.62505
 H841 H 0.57619 0.78405 0.59463
 H842 H 0.63492 0.69317 0.54647
 H843 H 0.67910 0.69474 0.59712
 H844 H 0.61904 0.78376 0.64669
 C845 C 0.07098 0.77037 0.87767
 C846 C 0.06628 0.74675 0.90771
 C847 C 0.09393 0.72050 0.91522
 C848 C 0.12550 0.71835 0.89330
 C849 C 0.12937 0.74189 0.86324
 C850 C 0.10221 0.76811 0.85608
 H851 H 0.05079 0.79130 0.87129
 H852 H 0.09062 0.70099 0.93736
 H853 H 0.14605 0.69759 0.89892
 H854 H 0.10527 0.78700 0.83353
 C855 C 0.59176 0.26270 0.40913
 C856 C 0.56196 0.23881 0.40333
 C857 C 0.56431 0.21206 0.37588
 C858 C 0.59557 0.20978 0.35399
 C859 C 0.62516 0.23390 0.35951
 C860 C 0.62343 0.25989 0.38771
 H861 H 0.59016 0.28397 0.42978
 H862 H 0.54163 0.19346 0.37094
 H863 H 0.59630 0.18979 0.33204
 H864 H 0.64559 0.27931 0.39175
 C865 C 0.92858 0.78506 0.13399
 C866 C 0.93170 0.75885 0.10601
 C867 C 0.90252 0.73407 0.10035
 C868 C 0.87068 0.73592 0.12190
 C869 C 0.86809 0.76172 0.15030
 C870 C 0.89729 0.78628 0.15605
 H871 H 0.95059 0.80444 0.13899
 H872 H 0.90457 0.71308 0.07946
 H873 H 0.84880 0.71629 0.11741
 H874 H 0.89596 0.80637 0.17789
 C875 C 0.42726 0.28694 0.63221
 C876 C 0.42872 0.26264 0.60243
 C877 C 0.39830 0.23964 0.59573
 C878 C 0.36712 0.24107 0.61825
 C879 C 0.36634 0.26463 0.64861
 C880 C 0.39658 0.28772 0.65517
 H881 H 0.45020 0.30495 0.63808
 H882 H 0.39901 0.22001 0.57348
 H883 H 0.34441 0.22261 0.61300
 H884 H 0.39664 0.30614 0.67847
 C885 C 0.90523 0.27216 0.90242
 C886 C 0.89508 0.24982 0.93251
 C887 C 0.86370 0.22766 0.92902
 C888 C 0.84365 0.22723 0.89663
 C889 C 0.85384 0.24928 0.86671
 C890 C 0.88505 0.27153 0.86963
 H891 H 0.92833 0.29077 0.90453
 H892 H 0.85516 0.20962 0.95101
 H893 H 0.81976 0.20955 0.89505
 H894 H 0.89295 0.28933 0.84724
 C895 C 0.40027 0.77893 0.41449
 C896 C 0.39583 0.75071 0.44051
 C897 C 0.36979 0.72317 0.43402
 C898 C 0.34881 0.72354 0.40204
 C899 C 0.35379 0.75116 0.37565
 C900 C 0.37982 0.77879 0.38192
 H901 H 0.41993 0.80072 0.41925
 H902 H 0.36588 0.70122 0.45365
 H903 H 0.32855 0.70216 0.39786
 H904 H 0.38344 0.80076 0.36227
 C905 C 0.10082 0.09472 0.26813
 C906 C 0.10487 0.06730 0.24126
 C907 C 0.13256 0.07124 0.21481
 C908 C 0.15541 0.10204 0.21492
 C909 C 0.15057 0.12991 0.24102
 C910 C 0.12294 0.12619 0.26750
 H911 H 0.08035 0.09184 0.28944
 H912 H 0.13647 0.05043 0.19399
 H913 H 0.17673 0.10430 0.19436
 H914 H 0.11924 0.14707 0.28828
 C915 C 0.60699 0.59172 0.76927
 C916 C 0.61119 0.56333 0.74339
 C917 C 0.63938 0.56620 0.71732
 C918 C 0.66261 0.59673 0.71696
 C919 C 0.65767 0.62547 0.74208
 C920 C 0.62948 0.62293 0.76808
 H921 H 0.58622 0.58974 0.79039
 H922 H 0.64346 0.54474 0.69721
 H923 H 0.68437 0.59806 0.69685
 H924 H 0.62567 0.64447 0.78815
 C925 C 0.93631 0.13552 0.77503
 C926 C 0.94115 0.10480 0.75219
 C927 C 0.91331 0.09685 0.72625
 C928 C 0.88065 0.11723 0.72518
 C929 C 0.87588 0.14707 0.74879
 C930 C 0.90416 0.15626 0.77334
 H931 H 0.95674 0.14278 0.79536
 H932 H 0.91685 0.07487 0.70661
 H933 H 0.85972 0.11044 0.70520
 H934 H 0.90119 0.17946 0.79166
 C935 C 0.43213 0.63282 0.28192
 C936 C 0.43911 0.60832 0.25320
 C937 C 0.41336 0.60524 0.22451
 C938 C 0.38047 0.62523 0.22538
 C939 C 0.37355 0.64952 0.25430
 C940 C 0.39980 0.65343 0.28231
 H941 H 0.45153 0.63565 0.30426
 H942 H 0.41846 0.58671 0.20188
 H943 H 0.36105 0.62262 0.20305
 H944 H 0.39519 0.67255 0.30456
 C945 C 0.10066 0.90997 0.73631
 C946 C 0.06714 0.90068 0.75356
 C947 C 0.06458 0.86573 0.77005
 C948 C 0.09378 0.84121 0.76909
 C949 C 0.12738 0.85112 0.75334
 C950 C 0.13076 0.88587 0.73712
 H951 H 0.10341 0.93532 0.72110
 H952 H 0.04003 0.85720 0.78444
 H953 H 0.09001 0.81437 0.78102
 H954 H 0.15616 0.89379 0.72388
 C955 C 0.58716 0.40282 0.22775
 C956 C 0.55901 0.39844 0.25373
 C957 C 0.55993 0.36787 0.27721
 C958 C 0.58835 0.34226 0.27481
 C959 C 0.61682 0.34717 0.24946
 C960 C 0.61629 0.37781 0.22620
 H961 H 0.58648 0.42548 0.20857
 H962 H 0.53846 0.36371 0.29730
 H963 H 0.58845 0.31890 0.29320
 H964 H 0.63795 0.38189 0.20629
 C965 C 0.90880 0.91229 0.26833
 C966 C 0.89930 0.94223 0.24556
 C967 C 0.86538 0.94096 0.22697
 C968 C 0.84217 0.91087 0.23055
 C969 C 0.85208 0.88096 0.25265
 C970 C 0.88573 0.88169 0.27130
 H971 H 0.93364 0.91287 0.28467
 H972 H 0.85708 0.96282 0.20863
 H973 H 0.81653 0.91078 0.21544
 H974 H 0.89367 0.85911 0.28892
 C975 C 0.40930 0.41091 0.78834
 C976 C 0.40518 0.43828 0.76146
 C977 C 0.37771 0.43460 0.73479
 C978 C 0.35465 0.40421 0.73494
 C979 C 0.35903 0.37662 0.76137
 C980 C 0.38671 0.37982 0.78789
 H981 H 0.43006 0.41361 0.80944
 H982 H 0.37410 0.45540 0.71388
 H983 H 0.33329 0.40216 0.71433
 H984 H 0.39001 0.35898 0.80879
 C985 C 0.08425 0.27071 0.90511
 C986 C 0.09365 0.24999 0.93658
 C987 C 0.12737 0.23100 0.93635
 C988 C 0.15075 0.23293 0.90645
 C989 C 0.14092 0.25258 0.87496
 C990 C 0.10724 0.27122 0.87426
 H991 H 0.05975 0.28756 0.90468
 H992 H 0.13579 0.21410 0.95928
 H993 H 0.17690 0.21909 0.90813
 H994 H 0.09951 0.28745 0.85062
 C995 C 0.59229 0.77576 0.40989
 C996 C 0.59412 0.74444 0.43230
 C997 C 0.61585 0.71458 0.42161
 C998 C 0.63627 0.71636 0.38941
 C999 C 0.63526 0.74798 0.36757
 C1000 C 0.61270 0.77746 0.37751
 H1001 H 0.57572 0.79909 0.41796
 H1002 H 0.61742 0.69020 0.43854
 H1003 H 0.65370 0.69347 0.38195
 H1004 H 0.61232 0.80233 0.36126
 C1005 C 0.93565 0.77732 0.87206
 C1006 C 0.93425 0.75728 0.90513
 C1007 C 0.90195 0.73712 0.91264
 C1008 C 0.87228 0.73730 0.88801
 C1009 C 0.87482 0.75635 0.85469
 C1010 C 0.90677 0.77632 0.84710
 H1011 H 0.95940 0.79386 0.86519
 H1012 H 0.90023 0.71960 0.93652
 H1013 H 0.84815 0.72104 0.89413
 H1014 H 0.90965 0.79101 0.82152
 C1015 C 0.42870 0.28227 0.37033
 C1016 C 0.42796 0.25986 0.40164
 C1017 C 0.39655 0.23844 0.40846
 C1018 C 0.36653 0.23951 0.38446
 C1019 C 0.36811 0.26081 0.35245
 C1020 C 0.39939 0.28226 0.34573
 H1021 H 0.45258 0.29893 0.36430
 H1022 H 0.39567 0.22010 0.43179
 H1023 H 0.34287 0.22236 0.38993
 H1024 H 0.40142 0.29866 0.32110
 C1025 C 0.07715 0.78450 0.12648
 C1026 C 0.06832 0.75393 0.10492
 C1027 C 0.09367 0.72484 0.10229
 C1028 C 0.12741 0.72647 0.12079
 C1029 C 0.13593 0.75693 0.14263
 C1030 C 0.11054 0.78587 0.14534
 H1031 H 0.05810 0.80723 0.12880
 H1032 H 0.08725 0.70093 0.08587
 H1033 H 0.14601 0.70330 0.11950
 H1034 H 0.11617 0.80909 0.16302
 C1035 C 0.59396 0.27145 0.59183
 C1036 C 0.56489 0.24710 0.59958
 C1037 C 0.57006 0.21962 0.62583
 C1038 C 0.60342 0.21685 0.64448
 C1039 C 0.63237 0.24141 0.63722
 C1040 C 0.62762 0.26845 0.61034
 H1041 H 0.59041 0.29292 0.57161
 H1042 H 0.54821 0.20043 0.63199
 H1043 H 0.60631 0.19609 0.66554
 H1044 H 0.64912 0.28830 0.60505
 C1045 C 0.89498 0.27264 0.09524
 C1046 C 0.89114 0.24676 0.06685
 C1047 C 0.86421 0.21939 0.07010
 C1048 C 0.84152 0.21795 0.10087
 C1049 C 0.84568 0.24345 0.12941
 C1050 C 0.87289 0.27056 0.12662
 H1051 H 0.91499 0.29451 0.09300
 H1052 H 0.86056 0.19923 0.04860
 H1053 H 0.82053 0.19692 0.10236
 H1054 H 0.87605 0.29092 0.14799
 C1055 C 0.40657 0.76742 0.60469
 C1056 C 0.40051 0.74238 0.57593
 C1057 C 0.37253 0.71617 0.57955
 C1058 C 0.35049 0.71548 0.61076
 C1059 C 0.35624 0.74065 0.63931
 C1060 C 0.38493 0.76618 0.63646
 H1061 H 0.42755 0.78833 0.60221
 H1062 H 0.36728 0.69664 0.55779
 H1063 H 0.32839 0.69562 0.61235
 H1064 H 0.38937 0.78624 0.65789
 C1065 C 0.28137 0.09236 0.90182
 C1066 C 0.25542 0.09491 0.93040
 C1067 C 0.22800 0.12209 0.92801
 C1068 C 0.22671 0.14612 0.89847
 C1069 C 0.25283 0.14406 0.87056
 C1070 C 0.27976 0.11651 0.87187
 H1071 H 0.30396 0.07308 0.90351
 H1072 H 0.20743 0.12484 0.94928
 H1073 H 0.20530 0.16654 0.89745
 H1074 H 0.30052 0.11485 0.85071
 C1075 C 0.77608 0.59343 0.40011
 C1076 C 0.75389 0.59864 0.43118
 C1077 C 0.73067 0.62942 0.43262
 C1078 C 0.72996 0.65465 0.40393
 C1079 C 0.75151 0.64907 0.37261
 C1080 C 0.77424 0.61799 0.37064
 H1081 H 0.79512 0.57061 0.39885
 H1082 H 0.71357 0.63430 0.45639
 H1083 H 0.71255 0.67861 0.40626
 H1084 H 0.79153 0.61348 0.34695
 C1085 C 0.76649 0.06184 0.12761
 C1086 C 0.74960 0.06197 0.09291
 C1087 C 0.73122 0.09432 0.08168
 C1088 C 0.73007 0.12536 0.10438
 C1089 C 0.74620 0.12432 0.13925
 C1090 C 0.76451 0.09229 0.15042
 H1091 H 0.78174 0.03819 0.13724
 H1092 H 0.71630 0.09521 0.05603
 H1093 H 0.71526 0.14951 0.09535
 H1094 H 0.77722 0.09053 0.17717
 C1095 C 0.27929 0.57573 0.61841
 C1096 C 0.24908 0.56868 0.59576
 C1097 C 0.22014 0.59418 0.59394
 C1098 C 0.22088 0.62581 0.61567
 C1099 C 0.25046 0.63193 0.63948
 C1100 C 0.28001 0.60727 0.63996
 H1101 H 0.30199 0.55653 0.61980
 H1102 H 0.19661 0.58901 0.57650
 H1103 H 0.19769 0.64444 0.61527
 H1104 H 0.30330 0.61220 0.65756
 C1105 C 0.72711 0.92524 0.86274
 C1106 C 0.74974 0.92805 0.89373
 C1107 C 0.77349 0.89869 0.90225
 C1108 C 0.77440 0.86713 0.88023
 C1109 C 0.75243 0.86496 0.84871
 C1110 C 0.72864 0.89421 0.84037
 H1111 H 0.70858 0.94737 0.85553
 H1112 H 0.79175 0.90048 0.92561
 H1113 H 0.79336 0.84519 0.88689
 H1114 H 0.71140 0.89320 0.81618
 C1115 C 0.26634 0.40116 0.40631
 C1116 C 0.24058 0.42931 0.39974
 C1117 C 0.21561 0.42529 0.37075
 C1118 C 0.21691 0.39439 0.34822
 C1119 C 0.24290 0.36652 0.35439
 C1120 C 0.26715 0.36972 0.38410
 H1121 H 0.28639 0.40396 0.42807
 H1122 H 0.19554 0.44651 0.36507
 H1123 H 0.19798 0.39257 0.32537
 H1124 H 0.28784 0.34889 0.38895
 C1125 C 0.28471 0.88284 0.08267
 C1126 C 0.25274 0.90048 0.07052
 C1127 C 0.22105 0.89953 0.09251
 C1128 C 0.22138 0.88097 0.12614
 C1129 C 0.25333 0.86299 0.13802
 C1130 C 0.28493 0.86406 0.11605
 H1131 H 0.30935 0.88325 0.06607
 H1132 H 0.19606 0.91288 0.08341
 H1133 H 0.19630 0.87910 0.14194
 H1134 H 0.30944 0.84928 0.12422
 C1135 C 0.77117 0.36547 0.56412
 C1136 C 0.74671 0.39492 0.56086
 C1137 C 0.72345 0.40342 0.59055
 C1138 C 0.72508 0.38299 0.62311
 C1139 C 0.74928 0.35318 0.62599
 C1140 C 0.77234 0.34478 0.59623
 H1141 H 0.78946 0.35852 0.54179
 H1142 H 0.70414 0.42595 0.58846
 H1143 H 0.70660 0.38955 0.64537
 H1144 H 0.79113 0.32175 0.59771
 C1145 C 0.07555 0.13275 0.78700
 C1146 C 0.07417 0.10109 0.76487
 C1147 C 0.10568 0.09232 0.74392
 C1148 C 0.13717 0.11461 0.74499
 C1149 C 0.13755 0.14662 0.76630
 C1150 C 0.10664 0.15504 0.78768
 H1151 H 0.05248 0.14034 0.80413
 H1152 H 0.10540 0.06929 0.72519
 H1153 H 0.16037 0.10794 0.72767
 H1154 H 0.10626 0.17947 0.80460
 C1155 C 0.58020 0.62513 0.28935
 C1156 C 0.57511 0.59922 0.26139
 C1157 C 0.60310 0.59439 0.23521
 C1158 C 0.63528 0.61560 0.23671
 C1159 C 0.63944 0.64250 0.26387
 C1160 C 0.61188 0.64667 0.29044
 H1161 H 0.55905 0.62945 0.30976
 H1162 H 0.59951 0.57502 0.21300
 H1163 H 0.65578 0.61259 0.21544
 H1164 H 0.61435 0.66762 0.31137
 C1165 C 0.13003 0.92904 0.21923
 C1166 C 0.09796 0.93268 0.24039
 C1167 C 0.08743 0.90270 0.26275
 C1168 C 0.10824 0.87022 0.26361
 C1169 C 0.14050 0.86749 0.24292
 C1170 C 0.15083 0.89703 0.22048
 H1171 H 0.13899 0.95090 0.20121
 H1172 H 0.06395 0.90488 0.28080
 H1173 H 0.10030 0.84818 0.28186
 H1174 H 0.17575 0.89565 0.20436
 C1175 C 0.61943 0.41590 0.71112
 C1176 C 0.60231 0.42697 0.74363
 C1177 C 0.60169 0.40287 0.77373
 C1178 C 0.61849 0.36837 0.77146
 C1179 C 0.63634 0.35770 0.73918
 C1180 C 0.63646 0.38160 0.70899
 H1181 H 0.61995 0.43399 0.68758
 H1182 H 0.58847 0.41100 0.79902
 H1183 H 0.61944 0.35096 0.79549
 H1184 H 0.65119 0.37428 0.68429
 C1185 C 0.90595 0.10137 0.26780
 C1186 C 0.90453 0.07577 0.23904
 C1187 C 0.87991 0.08142 0.20999
 C1188 C 0.85604 0.11133 0.21035
 C1189 C 0.85649 0.13612 0.23964
 C1190 C 0.88220 0.13164 0.26793
 H1191 H 0.92441 0.09713 0.29069
 H1192 H 0.87835 0.06191 0.18766
 H1193 H 0.83656 0.11471 0.18820
 H1194 H 0.88252 0.15039 0.29095
 C1195 C 0.41538 0.60314 0.77425
 C1196 C 0.40959 0.57215 0.75199
 C1197 C 0.37943 0.57180 0.72801
 C1198 C 0.35464 0.60078 0.72749
 C1199 C 0.36022 0.63169 0.74955
 C1200 C 0.39127 0.63316 0.77239
 H1201 H 0.43784 0.60365 0.79373
 H1202 H 0.37417 0.54822 0.71071
 H1203 H 0.33053 0.59864 0.71042
 H1204 H 0.39571 0.65655 0.79014
 C1205 C 0.92430 0.88575 0.77921
 C1206 C 0.93344 0.90728 0.74879
 C1207 C 0.90965 0.90844 0.71847
 C1208 C 0.87765 0.88710 0.71815
 C1209 C 0.86946 0.86442 0.74807
 C1210 C 0.89249 0.86454 0.77885
 H1211 H 0.94222 0.88483 0.80290
 H1212 H 0.91643 0.92502 0.69480
 H1213 H 0.86043 0.88677 0.69394
 H1214 H 0.88630 0.84731 0.80217
 C1215 C 0.41290 0.39160 0.28412
 C1216 C 0.42428 0.41117 0.25315
 C1217 C 0.40177 0.41222 0.22190
 C1218 C 0.36885 0.39244 0.22114
 C1219 C 0.35836 0.37161 0.25163
 C1220 C 0.38007 0.37199 0.28336
 H1221 H 0.42992 0.39078 0.30846
 H1222 H 0.41034 0.42732 0.19783
 H1223 H 0.35280 0.39160 0.19616
 H1224 H 0.37231 0.35573 0.30694
   
