data_POSCAR
  _audit_creation_date              2014-09-24
  _audit_creation_method            'ToBaCCo'
  _symmetry_space_group_name_H-M    'P1'
  _symmetry_Int_Tables_number       1
  _symmetry_cell_setting            triclinic
  loop_
  _symmetry_equiv_pos_as_xyz
 x,y,z
_cell_length_a 38.6377
_cell_length_b 38.2584
_cell_length_c 48.4695
_cell_angle_alpha 90.082900
_cell_angle_beta 89.964900
_cell_angle_gamma 120.123000
loop_
  _atom_site_label
  _atom_site_type_symbol
  _atom_site_fract_x
  _atom_site_fract_y
  _atom_site_fract_z
O1 O 0.03658 0.54931 1.27718
 O2 O -0.04066 0.51110 1.22300
 O3 O -0.04101 0.51078 1.27690
 O4 O 0.03689 0.54945 1.22328
 O5 O 0.03600 0.49119 1.22319
 O6 O -0.04189 0.45252 1.27677
 O7 O -0.04154 0.45285 1.22288
 O8 O 0.03569 0.49105 1.27708
 Cu9 Cu -0.00197 0.53605 1.25011
 Cu10 Cu -0.00303 0.46601 1.24998
 C11 C 0.04890 0.52650 1.28645
 C12 C -0.05383 0.47568 1.21359
 C13 C -0.05430 0.47526 1.28607
 C14 C 0.04929 0.52668 1.21400
 O15 O 0.45395 0.49159 1.27715
 O16 O 0.49357 0.45336 1.22317
 O17 O 0.49353 0.45337 1.27706
 O18 O 0.45414 0.49174 1.22324
 O19 O 0.51107 0.55007 1.22333
 O20 O 0.55048 0.51168 1.27716
 O21 O 0.55052 0.51166 1.22324
 O22 O 0.51087 0.54991 1.27728
 Cu23 Cu 0.46804 0.46663 1.25014
 Cu24 Cu 0.53649 0.53673 1.25026
 C25 C 0.47585 0.52704 1.28654
 C26 C 0.52858 0.47618 1.21390
 C27 C 0.52850 0.47619 1.28638
 C28 C 0.47610 0.52723 1.21401
 O29 O 0.50883 0.96117 1.27772
 O30 O 0.54872 1.03930 1.22374
 O31 O 0.54855 1.03955 1.27765
 O32 O 0.50819 0.96092 1.22383
 O33 O 0.45154 0.96209 1.22398
 O34 O 0.49189 1.04069 1.27768
 O35 O 0.49208 1.04048 1.22376
 O36 O 0.45217 0.96231 1.27789
 Cu37 Cu 0.53429 1.00012 1.25072
 Cu38 Cu 0.46620 1.00152 1.25084
 C39 C 0.47394 0.94882 1.28711
 C40 C 0.52703 1.05281 1.21445
 C41 C 0.52685 1.05310 1.28693
 C42 C 0.47317 0.94852 1.21466
 O43 O 0.96318 0.51082 0.72247
 O44 O 1.04174 0.54948 0.77572
 O45 O 1.04079 0.54940 0.72174
 O46 O 0.96414 0.51111 0.77635
 O47 O 0.96328 0.45287 0.77612
 O48 O 1.03992 0.49117 0.72148
 O49 O 1.04086 0.49123 0.77544
 O50 O 0.96233 0.45258 0.72225
 Cu51 Cu 1.00258 0.53610 0.74909
 Cu52 Cu 1.00155 0.46610 0.74879
 C53 C 0.94976 0.47529 0.71321
 C54 C 1.05421 0.52669 0.78479
 C55 C 1.05298 0.52659 0.71218
 C56 C 0.95102 0.47566 0.78561
 O57 O 0.48852 0.44988 0.72361
 O58 O 0.44851 0.48847 0.77699
 O59 O 0.44916 0.48832 0.72306
 O60 O 0.48787 0.44998 0.77749
 O61 O 0.54489 0.50824 0.77768
 O62 O 0.50619 0.54656 0.72326
 O63 O 0.50555 0.54671 0.77717
 O64 O 0.54554 0.50814 0.72382
 Cu65 Cu 0.46274 0.46328 0.75027
 Cu66 Cu 0.53130 0.53330 0.75051
 C67 C 0.52364 0.47265 0.71452
 C68 C 0.47045 0.52395 0.78629
 C69 C 0.47131 0.52375 0.71377
 C70 C 0.52280 0.47278 0.78693
 O71 O 0.54982 0.03664 0.72288
 O72 O 0.50964 -0.04201 0.77656
 O73 O 0.51017 -0.04173 0.72263
 O74 O 0.54997 0.03640 0.77678
 O75 O 0.49324 0.03741 0.77682
 O76 O 0.45345 -0.04070 0.72257
 O77 O 0.45292 -0.04095 0.77647
 O78 O 0.49306 0.03762 0.72295
 Cu79 Cu 0.53563 -0.00279 0.74972
 Cu80 Cu 0.46744 -0.00157 0.74971
 C81 C 0.52803 0.05011 0.71369
 C82 C 0.47461 -0.05445 0.78575
 C83 C 0.47527 -0.05409 0.71325
 C84 C 0.52821 0.04984 0.78611
 O85 O 0.38942 0.66693 0.96917
 O86 O 0.39114 0.73492 0.97755
 C87 C 0.36586 0.73938 0.96355
 O88 O 0.32884 0.72130 0.96881
 O89 O 0.26156 0.65501 0.97737
 C90 C 0.25692 0.62463 0.96368
 O91 O 0.27462 0.60527 0.96925
 O92 O 0.34035 0.60398 0.97790
 C93 C 0.37023 0.62949 0.96395
 O94 O 0.39138 0.65603 1.02411
 O95 O 0.38924 0.72208 1.03252
 C96 C 0.36984 0.73985 1.03774
 O97 O 0.33988 0.73487 1.02378
 O98 O 0.27432 0.66674 1.03230
 C99 C 0.25661 0.62941 1.03776
 O100 O 0.26164 0.60388 1.02420
 O101 O 0.32922 0.60617 1.03285
 C102 C 0.36630 0.62574 1.03802
 Cr103 Cr 0.38815 0.69390 1.00084
 Cr104 Cr 0.30224 0.69341 1.00058
 Cr105 Cr 0.30252 0.60700 1.00105
 O106 O 0.33095 0.66476 1.00085
 O107 O 0.60818 0.34290 0.97635
 O108 O 0.61079 0.27703 0.96814
 C109 C 0.63051 0.25965 0.96271
 O110 O 0.66088 0.26517 0.97640
 O111 O 0.72616 0.33363 0.96786
 C112 C 0.74345 0.37091 0.96226
 O113 O 0.73803 0.39625 0.97575
 O114 O 0.67005 0.39336 0.96763
 C115 C 0.63297 0.37343 0.96249
 O116 O 0.61062 0.33257 1.03136
 O117 O 0.60951 0.26479 1.02319
 C118 C 0.63501 0.26035 1.03692
 O119 O 0.67198 0.27854 1.03141
 O120 O 0.73894 0.34525 1.02283
 C121 C 0.74367 0.37577 1.03638
 O122 O 0.72578 0.39495 1.03082
 O123 O 0.65958 0.39559 1.02269
 C124 C 0.62968 0.37001 1.03660
 Cr125 Cr 0.61196 0.30545 0.99975
 Cr126 Cr 0.69836 0.30672 0.99961
 Cr127 Cr 0.69729 0.39283 0.99923
 O128 O 0.66922 0.33501 0.99951
 O129 O 0.66867 0.39268 0.53267
 O130 O 0.73609 0.39470 0.52405
 C131 C 0.74088 0.36912 0.53768
 O132 O 0.72302 0.33177 0.53221
 O133 O 0.65738 0.26376 0.52338
 C134 C 0.62735 0.25881 0.53724
 O135 O 0.60811 0.27674 0.53204
 O136 O 0.60641 0.34302 0.52383
 C137 C 0.63160 0.37321 0.53783
 O138 O 0.65768 0.39504 0.47776
 O139 O 0.72323 0.39335 0.46913
 C140 C 0.74094 0.37396 0.46364
 O141 O 0.73614 0.34356 0.47732
 O142 O 0.66874 0.27737 0.46849
 C143 C 0.63174 0.25941 0.46313
 O144 O 0.60647 0.26406 0.47703
 O145 O 0.60847 0.33221 0.46884
 C146 C 0.62778 0.36966 0.46374
 Cr147 Cr 0.69534 0.39177 0.50089
 Cr148 Cr 0.69524 0.30519 0.50036
 Cr149 Cr 0.60951 0.30509 0.50044
 O150 O 0.66670 0.33402 0.50058
 O151 O 0.34055 0.60385 0.52231
 O152 O 0.27522 0.60626 0.53060
 C153 C 0.25798 0.62612 0.53613
 O154 O 0.26354 0.65692 0.52262
 O155 O 0.33146 0.72275 0.53104
 C156 C 0.36844 0.74018 0.53645
 O157 O 0.39339 0.73496 0.52260
 O158 O 0.39069 0.66645 0.53065
 C159 C 0.37094 0.62909 0.53602
 O160 O 0.32994 0.60594 0.46725
 O161 O 0.26288 0.60494 0.47556
 C162 C 0.25808 0.63066 0.46210
 O163 O 0.27614 0.66801 0.46764
 O164 O 0.34239 0.73572 0.47600
 C165 C 0.37241 0.74048 0.46222
 O166 O 0.39141 0.72233 0.46753
 O167 O 0.39234 0.65562 0.47563
 C168 C 0.36698 0.62522 0.46188
 Cr169 Cr 0.30327 0.60746 0.49893
 Cr170 Cr 0.30447 0.69473 0.49931
 Cr171 Cr 0.38975 0.69375 0.49910
 O172 O 0.33248 0.66530 0.49911
 C173 C 0.40745 0.58873 0.39604
 C174 C 0.41048 0.60644 0.36985
 C175 C 0.42449 0.59407 0.34677
 C176 C 0.43543 0.56410 0.35002
 C177 C 0.43248 0.54645 0.37623
 C178 C 0.41845 0.55880 0.39929
 C179 C 0.41577 0.54072 0.42526
 C180 C 0.42660 0.51126 0.42837
 C181 C 0.44028 0.49916 0.40582
 C182 C 0.44329 0.51647 0.38001
 C183 C 0.42725 0.61220 0.32082
 C184 C 0.41652 0.64175 0.31774
 C185 C 0.40287 0.65388 0.34029
 C186 C 0.39980 0.63652 0.36609
 C187 C 0.44981 0.55140 0.32652
 C188 C 0.46194 0.54027 0.30743
 C189 C 0.39307 0.60132 0.41960
 C190 C 0.38114 0.61201 0.43903
 H191 H 0.40529 0.54913 0.44342
 H192 H 0.42434 0.49774 0.44837
 H193 H 0.44855 0.47619 0.40832
 H194 H 0.45414 0.50606 0.36313
 H195 H 0.43772 0.60377 0.30267
 H196 H 0.41884 0.65533 0.29774
 H197 H 0.39464 0.67688 0.33780
 H198 H 0.38901 0.64695 0.38301
 C199 C 0.40971 0.81782 0.39642
 C200 C 0.43245 0.86012 0.40060
 C201 C 0.44533 0.88668 0.37757
 C202 C 0.43529 0.87077 0.35047
 C203 C 0.41269 0.82845 0.34627
 C204 C 0.39991 0.80189 0.36931
 C205 C 0.37753 0.75969 0.36459
 C206 C 0.36810 0.74418 0.33788
 C207 C 0.38051 0.77015 0.31537
 C208 C 0.40254 0.81184 0.31940
 C209 C 0.46826 0.92886 0.38229
 C210 C 0.47823 0.94433 0.40898
 C211 C 0.46551 0.91838 0.43149
 C212 C 0.44285 0.87673 0.42748
 C213 C 0.44854 0.89806 0.32701
 C214 C 0.46013 0.92149 0.30797
 C215 C 0.39657 0.79069 0.41996
 C216 C 0.38562 0.76799 0.43939
 H217 H 0.36717 0.73825 0.38143
 H218 H 0.35107 0.71183 0.33464
 H219 H 0.37306 0.75794 0.29467
 H220 H 0.41157 0.83083 0.30124
 H221 H 0.47883 0.95032 0.36547
 H222 H 0.49599 0.97664 0.41221
 H223 H 0.47329 0.93056 0.45218
 H224 H 0.43371 0.85777 0.44565
 C225 C 0.18076 0.59178 0.39666
 C226 C 0.19403 0.61136 0.37084
 C227 C 0.16757 0.59813 0.34787
 C228 C 0.12797 0.56546 0.35087
 C229 C 0.11467 0.54594 0.37670
 C230 C 0.14115 0.55912 0.39966
 C231 C 0.12717 0.53915 0.42527
 C232 C 0.08815 0.50707 0.42813
 C233 C 0.06225 0.49416 0.40569
 C234 C 0.07518 0.51327 0.38024
 C235 C 0.18151 0.61816 0.32228
 C236 C 0.22044 0.65044 0.31948
 C237 C 0.24628 0.66345 0.34195
 C238 C 0.23342 0.64422 0.36737
 C239 C 0.10074 0.55209 0.32751
 C240 C 0.07750 0.54064 0.30849
 C241 C 0.20784 0.60525 0.42010
 C242 C 0.23057 0.61666 0.43941
 H243 H 0.14619 0.54810 0.44333
 H244 H 0.07795 0.49213 0.44787
 H245 H 0.03199 0.46918 0.40801
 H246 H 0.05390 0.50213 0.36341
 H247 H 0.16250 0.60915 0.30421
 H248 H 0.23060 0.66547 0.29977
 H249 H 0.27643 0.68862 0.33968
 H250 H 0.25465 0.65544 0.38423
 C251 C 0.59241 0.41023 0.39762
 C252 C 0.59854 0.40004 0.37066
 C253 C 0.58614 0.41356 0.34739
 C254 C 0.56770 0.43717 0.35125
 C255 C 0.56178 0.44756 0.37821
 C256 C 0.57417 0.43403 0.40146
 C257 C 0.56791 0.44474 0.42821
 C258 C 0.55000 0.46823 0.43187
 C259 C 0.53793 0.48152 0.40913
 C260 C 0.54362 0.47136 0.38257
 C261 C 0.59254 0.40299 0.32065
 C262 C 0.61066 0.37968 0.31699
 C263 C 0.62275 0.36642 0.33974
 C264 C 0.61687 0.37641 0.36631
 C265 C 0.55447 0.45060 0.32759
 C266 C 0.54294 0.46206 0.30843
 C267 C 0.60477 0.39613 0.42136
 C268 C 0.61515 0.38420 0.44089
 H269 H 0.57682 0.43515 0.44654
 H270 H 0.54549 0.47618 0.45247
 H271 H 0.52414 0.49986 0.41208
 H272 H 0.53370 0.48243 0.36555
 H273 H 0.58364 0.41261 0.30232
 H274 H 0.61531 0.37186 0.29639
 H275 H 0.63674 0.34825 0.33679
 H276 H 0.62682 0.36540 0.38335
 C277 C 0.59216 0.18319 0.39673
 C278 C 0.56145 0.14246 0.39984
 C279 C 0.54814 0.11625 0.37660
 C280 C 0.56569 0.13093 0.35040
 C281 C 0.59618 0.17175 0.34725
 C282 C 0.60945 0.19799 0.37049
 C283 C 0.63996 0.23871 0.36684
 C284 C 0.65685 0.25308 0.34096
 C285 C 0.64386 0.22741 0.31824
 C286 C 0.61389 0.18718 0.32122
 C287 C 0.51727 0.07565 0.38021
 C288 C 0.50001 0.06143 0.40601
 C289 C 0.51313 0.08704 0.42875
 C290 C 0.54350 0.12711 0.42583
 C291 C 0.55241 0.10384 0.32684
 C292 C 0.54076 0.08046 0.30776
 C293 C 0.60596 0.20988 0.42050
 C294 C 0.61759 0.23225 0.44012
 H295 H 0.65106 0.25985 0.38388
 H296 H 0.68016 0.28428 0.33854
 H297 H 0.65708 0.23873 0.29818
 H298 H 0.60475 0.16837 0.30294
 H299 H 0.50604 0.05452 0.36316
 H300 H 0.47628 0.03039 0.40835
 H301 H 0.49967 0.07583 0.44876
 H302 H 0.55265 0.14588 0.44413
 C303 C 0.81637 0.41082 0.39736
 C304 C 0.79998 0.40378 0.37043
 C305 C 0.82576 0.41656 0.34712
 C306 C 0.86773 0.43633 0.35092
 C307 C 0.88410 0.44337 0.37786
 C308 C 0.85833 0.43055 0.40115
 C309 C 0.87535 0.43790 0.42789
 C310 C 0.91669 0.45744 0.43149
 C311 C 0.94192 0.47004 0.40871
 C312 C 0.92600 0.46314 0.38215
 C313 C 0.80875 0.40921 0.32040
 C314 C 0.76741 0.38985 0.31681
 C315 C 0.74219 0.37741 0.33960
 C316 C 0.75810 0.38416 0.36615
 C317 C 0.89421 0.44959 0.32722
 C318 C 0.91714 0.46105 0.30806
 C319 C 0.79005 0.39790 0.42114
 C320 C 0.76790 0.38708 0.44073
 H321 H 0.85695 0.42868 0.44626
 H322 H 0.92920 0.46286 0.45208
 H323 H 0.97401 0.48529 0.41161
 H324 H 0.94688 0.47350 0.36510
 H325 H 0.82717 0.41836 0.30204
 H326 H 0.75489 0.38450 0.29622
 H327 H 0.71011 0.36247 0.33670
 H328 H 0.73724 0.37387 0.38323
 C329 C 0.59326 0.41005 1.10274
 C330 C 0.60393 0.40470 1.12971
 C331 C 0.59120 0.41811 1.15292
 C332 C 0.56792 0.43684 1.14903
 C333 C 0.55740 0.44234 1.12204
 C334 C 0.57009 0.42889 1.09884
 C335 C 0.55919 0.43471 1.07209
 C336 C 0.53643 0.45332 1.06835
 C337 C 0.52404 0.46650 1.09102
 C338 C 0.53428 0.46113 1.11760
 C339 C 0.60219 0.41240 1.17967
 C340 C 0.62519 0.39404 1.18339
 C341 C 0.63770 0.38099 1.16070
 C342 C 0.62724 0.38612 1.13413
 C343 C 0.55467 0.45045 1.17267
 C344 C 0.54311 0.46202 1.19182
 C345 C 0.60605 0.39609 1.07904
 C346 C 0.61673 0.38433 1.05951
 H347 H 0.56813 0.42499 1.05380
 H348 H 0.52839 0.45756 1.04774
 H349 H 0.50643 0.48101 1.08801
 H350 H 0.52391 0.47190 1.13457
 H351 H 0.59318 0.42208 1.19795
 H352 H 0.63337 0.38994 1.20399
 H353 H 0.65564 0.36685 1.16370
 H354 H 0.63767 0.37544 1.11715
 C355 C 0.81903 0.41311 1.10286
 C356 C 0.86096 0.43707 1.09929
 C357 C 0.88662 0.44974 1.12267
 C358 C 0.87018 0.43836 1.14951
 C359 C 0.82824 0.41445 1.15308
 C360 C 0.80258 0.40178 1.12969
 C361 C 0.76074 0.37786 1.13378
 C362 C 0.74472 0.36676 1.16021
 C363 C 0.76982 0.37919 1.18308
 C364 C 0.81112 0.40277 1.17968
 C365 C 0.92846 0.47373 1.11857
 C366 C 0.94446 0.48490 1.09214
 C367 C 0.91936 0.47245 1.06928
 C368 C 0.87808 0.44880 1.07268
 C369 C 0.89657 0.45126 1.17331
 C370 C 0.91939 0.46247 1.19257
 C371 C 0.79280 0.40015 1.07898
 C372 C 0.77068 0.38919 1.05934
 H373 H 0.73999 0.36746 1.11664
 H374 H 0.71266 0.34839 1.16296
 H375 H 0.75723 0.37051 1.20358
 H376 H 0.82944 0.41170 1.19810
 H377 H 0.94924 0.48415 1.13569
 H378 H 0.97650 0.50337 1.08939
 H379 H 0.93194 0.48119 1.04878
 H380 H 0.85979 0.43988 1.05426
 C381 C 0.59603 0.18412 1.10332
 C382 C 0.59564 0.19971 1.12978
 C383 C 0.58189 0.17351 1.15300
 C384 C 0.56870 0.13190 1.14965
 C385 C 0.56951 0.11641 1.12324
 C386 C 0.58316 0.14258 1.10001
 C387 C 0.58366 0.12639 1.07383
 C388 C 0.57123 0.08554 1.07070
 C389 C 0.55804 0.05998 1.09342
 C390 C 0.55700 0.07502 1.11941
 C391 C 0.58176 0.18978 1.17922
 C392 C 0.59490 0.23079 1.18242
 C393 C 0.60837 0.25641 1.15973
 C394 C 0.60878 0.24122 1.13366
 C395 C 0.55419 0.10489 1.17325
 C396 C 0.54190 0.08163 1.19238
 C397 C 0.60973 0.21081 1.07955
 C398 C 0.62117 0.23319 1.05994
 H399 H 0.59374 0.14508 1.05554
 H400 H 0.57192 0.07369 1.05054
 H401 H 0.54864 0.02833 1.09090
 H402 H 0.54644 0.05389 1.13643
 H403 H 0.57158 0.17105 1.19749
 H404 H 0.59463 0.24274 1.20263
 H405 H 0.61855 0.28823 1.16232
 H406 H 0.61954 0.26236 1.11664
 C407 C 0.40761 0.59002 1.10355
 C408 C 0.41420 0.55694 1.10097
 C409 C 0.42815 0.54455 1.12400
 C410 C 0.43535 0.56527 1.14947
 C411 C 0.42899 0.59849 1.15200
 C412 C 0.41513 0.61095 1.12896
 C413 C 0.40918 0.64439 1.13194
 C414 C 0.41676 0.66494 1.15696
 C415 C 0.43017 0.65266 1.17952
 C416 C 0.43625 0.61982 1.17720
 C417 C 0.43461 0.51144 1.12090
 C418 C 0.42745 0.49116 1.09580
 C419 C 0.41381 0.50329 1.07329
 C420 C 0.40720 0.53577 1.07573
 C421 C 0.44956 0.55247 1.17293
 C422 C 0.46153 0.54129 1.19200
 C423 C 0.39303 0.60246 1.08012
 C424 C 0.38084 0.61292 1.06077
 H425 H 0.39876 0.65508 1.11499
 H426 H 0.41227 0.69057 1.15884
 H427 H 0.43597 0.66870 1.19892
 H428 H 0.44677 0.61142 1.19531
 H429 H 0.44524 0.50087 1.13780
 H430 H 0.43250 0.46588 1.09381
 H431 H 0.40831 0.48744 1.05382
 H432 H 0.39659 0.54409 1.05762
 C433 C 0.18009 0.59066 1.10348
 C434 C 0.13943 0.56061 1.10014
 C435 C 0.11325 0.54780 1.12323
 C436 C 0.12795 0.56511 1.14953
 C437 C 0.16863 0.59514 1.15288
 C438 C 0.19479 0.60798 1.12978
 C439 C 0.23534 0.63814 1.13360
 C440 C 0.24960 0.65511 1.15951
 C441 C 0.22401 0.64250 1.18211
 C442 C 0.18395 0.61286 1.17896
 C443 C 0.07267 0.51772 1.11938
 C444 C 0.05841 0.50077 1.09346
 C445 C 0.08402 0.51335 1.07088
 C446 C 0.12408 0.54291 1.07405
 C447 C 0.10105 0.55212 1.17300
 C448 C 0.07793 0.54084 1.19205
 C449 C 0.20680 0.60391 1.07990
 C450 C 0.22929 0.61526 1.06049
 H451 H 0.25642 0.64894 1.11666
 H452 H 0.28066 0.67818 1.16206
 H453 H 0.23523 0.65577 1.20220
 H454 H 0.16519 0.60405 1.19715
 H455 H 0.05156 0.50695 1.13630
 H456 H 0.02733 0.47773 1.09091
 H457 H 0.07279 0.50011 1.05078
 H458 H 0.14284 0.55169 1.05586
 C459 C 0.40560 0.81652 1.10388
 C460 C 0.42448 0.85882 1.09990
 C461 C 0.43757 0.88518 1.12307
 C462 C 0.43180 0.86906 1.15007
 C463 C 0.41241 0.82673 1.15407
 C464 C 0.39919 0.80036 1.13089
 C465 C 0.37971 0.75812 1.13539
 C466 C 0.37341 0.74241 1.16203
 C467 C 0.38645 0.76821 1.18468
 C468 C 0.40577 0.80992 1.18087
 C469 C 0.45619 0.92737 1.11858
 C470 C 0.46163 0.94303 1.09198
 C471 C 0.44897 0.91726 1.06932
 C472 C 0.43063 0.87561 1.07311
 C473 C 0.44599 0.89616 1.17362
 C474 C 0.45819 0.91953 1.19270
 C475 C 0.39293 0.78967 1.08021
 C476 C 0.38246 0.76717 1.06066
 H477 H 0.36904 0.73682 1.11843
 H478 H 0.35834 0.71004 1.16510
 H479 H 0.38153 0.75584 1.20532
 H480 H 0.41531 0.82877 1.19913
 H481 H 0.46659 0.94869 1.13553
 H482 H 0.47565 0.97533 1.08893
 H483 H 0.45331 0.92958 1.04869
 H484 H 0.42121 0.85679 1.05484
 C485 C 0.59147 0.40939 0.60384
 C486 C 0.59807 0.39987 0.63084
 C487 C 0.58442 0.41238 0.65401
 C488 C 0.56430 0.43434 0.65001
 C489 C 0.55773 0.44389 0.62300
 C490 C 0.57135 0.43135 0.59984
 C491 C 0.56447 0.44123 0.57303
 C492 C 0.54475 0.46297 0.56922
 C493 C 0.53148 0.47529 0.59187
 C494 C 0.53776 0.46591 0.61849
 C495 C 0.59135 0.40254 0.68081
 C496 C 0.61120 0.38093 0.68461
 C497 C 0.62455 0.36869 0.66195
 C498 C 0.61816 0.37797 0.63533
 C499 C 0.55036 0.44726 0.67357
 C500 C 0.53839 0.45852 0.69263
 C501 C 0.60548 0.39669 0.58020
 C502 C 0.61727 0.38606 0.56070
 H503 H 0.57425 0.43233 0.55476
 H504 H 0.53978 0.47031 0.54858
 H505 H 0.51628 0.49226 0.58881
 H506 H 0.52684 0.47615 0.63544
 H507 H 0.58151 0.41142 0.69907
 H508 H 0.61624 0.37365 0.70525
 H509 H 0.63992 0.35188 0.66501
 H510 H 0.62911 0.36778 0.61837
 C511 C 0.59134 0.18187 0.60307
 C512 C 0.60939 0.19665 0.62914
 C513 C 0.59701 0.17032 0.65227
 C514 C 0.56666 0.12942 0.64918
 C515 C 0.54851 0.11468 0.62312
 C516 C 0.56092 0.14099 0.59999
 C517 C 0.54236 0.12562 0.57415
 C518 C 0.51226 0.08541 0.57127
 C519 C 0.50002 0.05970 0.59391
 C520 C 0.51789 0.07396 0.61957
 C521 C 0.61543 0.18574 0.67813
 C522 C 0.64526 0.22606 0.68106
 C523 C 0.65738 0.25182 0.65843
 C524 C 0.63976 0.23745 0.63272
 C525 C 0.55394 0.10237 0.67270
 C526 C 0.54261 0.07904 0.69176
 C527 C 0.60392 0.20876 0.57947
 C528 C 0.61448 0.23136 0.56002
 H529 H 0.55082 0.14446 0.55593
 H530 H 0.49833 0.07418 0.55138
 H531 H 0.47650 0.02855 0.59160
 H532 H 0.50736 0.05274 0.63653
 H533 H 0.60699 0.16686 0.69633
 H534 H 0.65903 0.23737 0.70099
 H535 H 0.68058 0.28309 0.66080
 H536 H 0.65021 0.25866 0.61575
 C537 C 0.81765 0.40889 0.60332
 C538 C 0.85952 0.42872 0.59903
 C539 C 0.88592 0.44216 0.62202
 C540 C 0.87026 0.43564 0.64916
 C541 C 0.82839 0.41587 0.65345
 C542 C 0.80198 0.40246 0.63045
 C543 C 0.76022 0.38281 0.63524
 C544 C 0.74500 0.37663 0.66198
 C545 C 0.77082 0.38969 0.68446
 C546 C 0.81207 0.40909 0.68037
 C547 C 0.92769 0.46196 0.61721
 C548 C 0.94293 0.46831 0.59047
 C549 C 0.91710 0.45514 0.56800
 C550 C 0.87585 0.43555 0.57210
 C551 C 0.89737 0.44929 0.67254
 C552 C 0.92076 0.46096 0.69146
 C553 C 0.79070 0.39501 0.57986
 C554 C 0.76814 0.38333 0.56047
 H555 H 0.73892 0.37207 0.61842
 H556 H 0.71300 0.36165 0.66527
 H557 H 0.75884 0.38478 0.70519
 H558 H 0.83097 0.41873 0.69850
 H559 H 0.94903 0.47276 0.63401
 H560 H 0.97494 0.48358 0.58718
 H561 H 0.92907 0.46014 0.54726
 H562 H 0.85698 0.42588 0.55396
 C563 C 0.40711 0.58912 0.60217
 C564 C 0.41619 0.55777 0.59920
 C565 C 0.42881 0.54447 0.62247
 C566 C 0.43227 0.56261 0.64860
 C567 C 0.42313 0.59392 0.65158
 C568 C 0.41054 0.60724 0.62829
 C569 C 0.40171 0.63871 0.63177
 C570 C 0.40523 0.65649 0.65750
 C571 C 0.41746 0.64340 0.68027
 C572 C 0.42634 0.61248 0.67747
 C573 C 0.43777 0.51310 0.61897
 C574 C 0.43429 0.49535 0.59323
 C575 C 0.42198 0.50837 0.57048
 C576 C 0.41299 0.53921 0.57330
 C577 C 0.44564 0.54926 0.67226
 C578 C 0.45710 0.53785 0.69151
 C579 C 0.39432 0.60282 0.57839
 C580 C 0.38367 0.61455 0.55886
 H581 H 0.39206 0.64993 0.61468
 H582 H 0.39845 0.68057 0.65977
 H583 H 0.42011 0.65730 0.70022
 H584 H 0.43575 0.60334 0.69578
 H585 H 0.44749 0.50192 0.63604
 H586 H 0.44115 0.47132 0.59095
 H587 H 0.41935 0.49450 0.55053
 H588 H 0.40352 0.54830 0.55500
 C589 C 0.40918 0.81644 0.60292
 C590 C 0.43242 0.85877 0.59909
 C591 C 0.44605 0.88495 0.62237
 C592 C 0.43625 0.86863 0.64935
 C593 C 0.41332 0.82628 0.65318
 C594 C 0.39978 0.80009 0.62990
 C595 C 0.37702 0.75784 0.63426
 C596 C 0.36795 0.74193 0.66085
 C597 C 0.38112 0.76754 0.68360
 C598 C 0.40353 0.80926 0.67993
 C599 C 0.46943 0.92717 0.61800
 C600 C 0.47911 0.94304 0.59143
 C601 C 0.46567 0.91745 0.56868
 C602 C 0.44256 0.87579 0.57234
 C603 C 0.44981 0.89556 0.67304
 C604 C 0.46151 0.91876 0.69225
 C605 C 0.39493 0.78973 0.57913
 C606 C 0.38296 0.76735 0.55949
 H607 H 0.36609 0.73668 0.61722
 H608 H 0.35062 0.70955 0.66382
 H609 H 0.37396 0.75501 0.70421
 H610 H 0.41315 0.82796 0.69826
 H611 H 0.48058 0.94834 0.63503
 H612 H 0.49723 0.97536 0.58847
 H613 H 0.47324 0.92994 0.54808
 H614 H 0.43286 0.85712 0.55400
 C615 C 0.18122 0.58971 0.60192
 C616 C 0.14164 0.55684 0.59936
 C617 C 0.11556 0.54413 0.62253
 C618 C 0.12923 0.56433 0.64816
 C619 C 0.16873 0.59736 0.65067
 C620 C 0.19478 0.61014 0.62748
 C621 C 0.23407 0.64337 0.63047
 C622 C 0.24722 0.66343 0.65564
 C623 C 0.22180 0.65086 0.67833
 C624 C 0.18298 0.61821 0.67600
 C625 C 0.07609 0.51124 0.61944
 C626 C 0.06278 0.49145 0.59419
 C627 C 0.08828 0.50387 0.57155
 C628 C 0.12729 0.53616 0.57398
 C629 C 0.10249 0.55123 0.67180
 C630 C 0.07963 0.53989 0.69105
 C631 C 0.20805 0.60241 0.57833
 C632 C 0.23061 0.61309 0.55892
 H633 H 0.25498 0.65429 0.61343
 H634 H 0.27726 0.68892 0.65752
 H635 H 0.23219 0.66652 0.69784
 H636 H 0.16429 0.60957 0.69422
 H637 H 0.05510 0.50046 0.63643
 H638 H 0.03253 0.46633 0.59221
 H639 H 0.07780 0.48841 0.55198
 H640 H 0.14599 0.54472 0.55577
 C641 C 0.40599 0.58945 0.89764
 C642 C 0.39492 0.59470 0.87078
 C643 C 0.40756 0.58146 0.84745
 C644 C 0.43108 0.56298 0.85115
 C645 C 0.44192 0.55748 0.87803
 C646 C 0.42935 0.57079 0.90135
 C647 C 0.44055 0.56501 0.92802
 C648 C 0.46346 0.54651 0.93155
 C649 C 0.47571 0.53344 0.90875
 C650 C 0.46520 0.53882 0.88225
 C651 C 0.39620 0.58707 0.82080
 C652 C 0.37289 0.60513 0.81730
 C653 C 0.36044 0.61799 0.84011
 C654 C 0.37130 0.61299 0.86659
 C655 C 0.44428 0.54959 0.82742
 C656 C 0.45585 0.53811 0.80826
 C657 C 0.39345 0.60336 0.92143
 C658 C 0.38297 0.61513 0.94103
 H659 H 0.43170 0.57463 0.94640
 H660 H 0.47171 0.54228 0.95209
 H661 H 0.49342 0.51901 0.91160
 H662 H 0.47548 0.52813 0.86519
 H663 H 0.40514 0.57751 0.80243
 H664 H 0.36442 0.60913 0.79677
 H665 H 0.34222 0.63186 0.83729
 H666 H 0.36091 0.62352 0.88369
 C667 C 0.18240 0.58844 0.89682
 C668 C 0.19910 0.60082 0.87014
 C669 C 0.17368 0.58862 0.84663
 C670 C 0.13176 0.56413 0.84995
 C671 C 0.11508 0.55167 0.87664
 C672 C 0.14049 0.56388 0.90014
 C673 C 0.12316 0.55109 0.92660
 C674 C 0.08189 0.52683 0.92975
 C675 C 0.05703 0.51481 0.90677
 C676 C 0.07325 0.52704 0.88048
 C677 C 0.19102 0.60136 0.82018
 C678 C 0.23232 0.62550 0.81704
 C679 C 0.25719 0.63747 0.84003
 C680 C 0.24094 0.62534 0.86632
 C681 C 0.10559 0.55166 0.82606
 C682 C 0.08280 0.54067 0.80681
 C683 C 0.20835 0.60098 0.92082
 C684 C 0.23022 0.61159 0.94058
 H685 H 0.14126 0.55963 0.94510
 H686 H 0.06914 0.51727 0.95013
 H687 H 0.02500 0.49586 0.90931
 H688 H 0.05264 0.51691 0.86326
 H689 H 0.17289 0.59282 0.80169
 H690 H 0.24509 0.63499 0.79666
 H691 H 0.28924 0.65628 0.83748
 H692 H 0.26151 0.63540 0.88356
 C693 C 0.40542 0.81504 0.89702
 C694 C 0.40531 0.79906 0.87062
 C695 C 0.41911 0.82502 0.84730
 C696 C 0.43283 0.86675 0.85053
 C697 C 0.43251 0.88264 0.87689
 C698 C 0.41882 0.85670 0.90021
 C699 C 0.41880 0.87324 0.92636
 C700 C 0.43173 0.91422 0.92934
 C701 C 0.44496 0.93957 0.90651
 C702 C 0.44554 0.92417 0.88056
 C703 C 0.41875 0.80841 0.82112
 C704 C 0.40506 0.76727 0.81806
 C705 C 0.39152 0.74186 0.84086
 C706 C 0.39160 0.75740 0.86689
 C707 C 0.44736 0.89351 0.82686
 C708 C 0.45969 0.91668 0.80773
 C709 C 0.39162 0.78860 0.92086
 C710 C 0.38001 0.76640 0.94052
 H711 H 0.40871 0.85472 0.94473
 H712 H 0.43140 0.92635 0.94947
 H713 H 0.45474 0.97132 0.90891
 H714 H 0.45615 0.94514 0.86345
 H715 H 0.42895 0.82698 0.80277
 H716 H 0.40494 0.75504 0.79788
 H717 H 0.38091 0.70994 0.83837
 H718 H 0.38077 0.73642 0.88400
 C719 C 0.59107 0.40919 0.89724
 C720 C 0.58351 0.38845 0.87175
 C721 C 0.56962 0.40108 0.84879
 C722 C 0.56328 0.43431 0.85149
 C723 C 0.57058 0.45488 0.87703
 C724 C 0.58453 0.44229 0.89997
 C725 C 0.59164 0.46333 0.92528
 C726 C 0.58516 0.49589 0.92787
 C727 C 0.57154 0.50821 0.90545
 C728 C 0.56426 0.48805 0.88028
 C729 C 0.56233 0.37993 0.82352
 C730 C 0.56845 0.34713 0.82102
 C731 C 0.58191 0.33470 0.84347
 C732 C 0.58948 0.35505 0.86858
 C733 C 0.54911 0.44732 0.82809
 C734 C 0.53721 0.45863 0.80903
 C735 C 0.60576 0.39662 0.92058
 C736 C 0.61810 0.38613 0.93983
 H737 H 0.60223 0.45487 0.94332
 H738 H 0.59075 0.51164 0.94737
 H739 H 0.56663 0.53357 0.90755
 H740 H 0.55364 0.49876 0.86346
 H741 H 0.55179 0.38845 0.80548
 H742 H 0.56266 0.33124 0.80155
 H743 H 0.58646 0.30912 0.84145
 H744 H 0.59993 0.34425 0.88544
 C745 C 0.82014 0.41048 0.89643
 C746 C 0.80533 0.39432 0.86990
 C747 C 0.83160 0.40751 0.84682
 C748 C 0.87251 0.43674 0.85040
 C749 C 0.88730 0.45293 0.87693
 C750 C 0.86104 0.43976 0.90001
 C751 C 0.87652 0.45636 0.92631
 C752 C 0.91679 0.48519 0.92973
 C753 C 0.94246 0.49810 0.90718
 C754 C 0.92808 0.48223 0.88105
 C755 C 0.81611 0.39092 0.82052
 C756 C 0.77583 0.36209 0.81710
 C757 C 0.75016 0.34917 0.83967
 C758 C 0.76457 0.36500 0.86580
 C759 C 0.89952 0.45006 0.82691
 C760 C 0.92260 0.46149 0.80778
 C761 C 0.79331 0.39687 0.92002
 C762 C 0.77077 0.38526 0.93945
 H763 H 0.85772 0.44729 0.94449
 H764 H 0.92812 0.49759 0.94999
 H765 H 0.97369 0.52058 0.90993
 H766 H 0.94925 0.49322 0.86416
 H767 H 0.83491 0.40002 0.80235
 H768 H 0.76448 0.34971 0.79684
 H769 H 0.71891 0.32674 0.83691
 H770 H 0.74342 0.35400 0.88271
 C771 C 0.59480 0.18244 0.89676
 C772 C 0.57665 0.14021 0.90085
 C773 C 0.56379 0.11368 0.87776
 C774 C 0.56902 0.12953 0.85070
 C775 C 0.58767 0.17180 0.84659
 C776 C 0.60066 0.19834 0.86969
 C777 C 0.61940 0.24050 0.86505
 C778 C 0.62520 0.25599 0.83837
 C779 C 0.61239 0.23003 0.81581
 C780 C 0.59379 0.18838 0.81975
 C781 C 0.54593 0.07158 0.88239
 C782 C 0.54102 0.05618 0.90904
 C783 C 0.55344 0.08211 0.93161
 C784 C 0.57104 0.12367 0.92769
 C785 C 0.55504 0.10222 0.82721
 C786 C 0.54302 0.07878 0.80814
 C787 C 0.60736 0.20949 0.92036
 C788 C 0.61782 0.23216 0.93985
 H789 H 0.62986 0.26193 0.88194
 H790 H 0.63972 0.28831 0.83520
 H791 H 0.61693 0.24221 0.79513
 H792 H 0.58441 0.16940 0.80155
 H793 H 0.53573 0.05015 0.86551
 H794 H 0.52760 0.02395 0.91219
 H795 H 0.54951 0.06998 0.95227
 H796 H 0.58030 0.14262 0.94590
   
