data_POSCAR
  _audit_creation_date              2014-09-24
  _audit_creation_method            'ToBaCCo'
  _symmetry_space_group_name_H-M    'P1'
  _symmetry_Int_Tables_number       1
  _symmetry_cell_setting            triclinic
  loop_
  _symmetry_equiv_pos_as_xyz
 x,y,z
_cell_length_a 45.0440
_cell_length_b 39.3363
_cell_length_c 17.0983
_cell_angle_alpha 89.960000
_cell_angle_beta 89.950100
_cell_angle_gamma 128.350600
loop_
  _atom_site_label
  _atom_site_type_symbol
  _atom_site_fract_x
  _atom_site_fract_y
  _atom_site_fract_z
C1 C 0.45404 0.95615 0.53723
 C2 C 0.44120 0.95696 0.46247
 C3 C 0.45564 0.99668 0.42789
 C4 C 0.48574 1.03656 0.46152
 C5 C 0.50196 1.03589 0.53303
 C6 C 0.48553 0.99535 0.56912
 H7 H 0.49490 0.99474 0.62709
 H8 H 0.44576 0.99624 0.36977
 C9 C 0.03720 0.52090 0.54229
 C10 C 0.03924 0.51293 0.46290
 C11 C 0.00645 0.49002 0.41709
 C12 C -0.02859 0.47620 0.44734
 C13 C -0.03049 0.48440 0.52761
 C14 C 0.00245 0.50680 0.57357
 H15 H 0.00070 0.51167 0.63531
 H16 H 0.00917 0.48603 0.35541
 C17 C 0.49695 0.52335 0.55095
 C18 C 0.48528 0.51336 0.47150
 C19 C 0.49256 0.48903 0.42791
 C20 C 0.51170 0.47483 0.46047
 C21 C 0.52364 0.48466 0.53955
 C22 C 0.51720 0.51005 0.58246
 H23 H 0.52455 0.51555 0.64399
 H24 H 0.48520 0.48324 0.36636
 O25 O 0.37413 0.61639 -0.06032
 O26 O 0.38410 0.68923 -0.07125
 C27 C 0.37057 0.70869 -0.08672
 O28 O 0.34025 0.69855 -0.05613
 O29 O 0.27417 0.62651 -0.09097
 C30 C 0.25343 0.58714 -0.11139
 O31 O 0.25451 0.55914 -0.07799
 O32 O 0.31461 0.56447 -0.09781
 C33 C 0.35003 0.58589 -0.10629
 O34 O 0.36698 0.61831 0.09627
 O35 O 0.37947 0.69229 0.08469
 C36 C 0.35780 0.69826 0.11787
 O37 O 0.32395 0.67924 0.09674
 O38 O 0.25745 0.60787 0.06250
 C39 C 0.24614 0.57239 0.09448
 O40 O 0.25921 0.55258 0.07703
 O41 O 0.31723 0.55303 0.05657
 C42 C 0.34569 0.57739 0.10090
 Cr43 Cr 0.37395 0.65271 0.01195
 Cr44 Cr 0.29978 0.65177 0.00295
 Cr45 Cr 0.28775 0.55981 -0.00999
 O46 O 0.32051 0.62157 0.00169
 O47 O 0.63915 0.39212 -0.05463
 O48 O 0.62940 0.32213 -0.09234
 C49 C 0.64217 0.30310 -0.11645
 O50 O 0.67001 0.30792 -0.08410
 O51 O 0.73693 0.38290 -0.10309
 C52 C 0.76024 0.42385 -0.10734
 O53 O 0.75895 0.44828 -0.06111
 O54 O 0.70036 0.44755 -0.07580
 C55 C 0.66537 0.42753 -0.08844
 O56 O 0.63919 0.37394 0.09778
 O57 O 0.62767 0.30231 0.06077
 C58 C 0.64921 0.29550 0.09232
 O59 O 0.68329 0.31537 0.07160
 O60 O 0.75100 0.38774 0.05196
 C61 C 0.75932 0.41724 0.10002
 O62 O 0.74606 0.43762 0.09434
 O63 O 0.69095 0.44195 0.07959
 C64 C 0.66041 0.41367 0.11580
 Cr65 Cr 0.63590 0.34874 0.00269
 Cr66 Cr 0.70947 0.34961 -0.01551
 Cr67 Cr 0.72286 0.44148 0.00871
 O68 O 0.68927 0.37988 -0.00168
 C69 C 0.45370 0.90767 -0.37035
 C70 C 0.43362 0.86930 -0.32596
 C71 C 0.39359 0.84101 -0.32668
 C72 C 0.37433 0.85069 -0.37364
 C73 C 0.39440 0.88817 -0.41917
 C74 C 0.43434 0.91741 -0.41815
 C75 C 0.37337 0.80357 -0.28020
 C76 C 0.39263 0.79342 -0.23420
 C77 C 0.43264 0.82062 -0.23594
 C78 C 0.45291 0.85863 -0.28118
 C79 C 0.45168 0.80943 -0.19190
 C80 C 0.43133 0.77215 -0.14535
 C81 C 0.39165 0.74588 -0.14100
 C82 C 0.37245 0.75654 -0.18610
 H83 H 0.48438 0.92904 -0.36984
 H84 H 0.34366 0.82939 -0.37483
 H85 H 0.37839 0.89515 -0.45285
 H86 H 0.34266 0.78236 -0.27980
 H87 H 0.48361 0.87987 -0.28146
 H88 H 0.48231 0.82968 -0.19291
 H89 H 0.44669 0.76458 -0.11081
 H90 H 0.34180 0.73614 -0.18368
 C91 C 0.08901 0.52308 -0.39832
 C92 C 0.11997 0.54144 -0.34780
 C93 C 0.13274 0.57877 -0.30408
 C94 C 0.11420 0.59699 -0.31169
 C95 C 0.08307 0.57814 -0.36156
 C96 C 0.07040 0.54124 -0.40536
 C97 C 0.16332 0.59677 -0.25249
 C98 C 0.18068 0.57727 -0.24270
 C99 C 0.16775 0.53983 -0.28629
 C100 C 0.13783 0.52251 -0.33928
 C101 C 0.18437 0.51967 -0.27474
 C102 C 0.21277 0.53563 -0.21888
 C103 C 0.22566 0.57259 -0.17481
 C104 C 0.20999 0.59380 -0.18817
 H105 H 0.07890 0.49418 -0.43128
 H106 H 0.12352 0.62552 -0.27853
 H107 H 0.06898 0.59249 -0.36644
 H108 H 0.17304 0.62530 -0.21872
 H109 H 0.12789 0.49375 -0.37256
 H110 H 0.17480 0.49096 -0.30762
 H111 H 0.22454 0.51887 -0.20970
 H112 H 0.21946 0.62205 -0.15376
 C113 C 0.44983 0.53113 -0.40176
 C114 C 0.43827 0.54747 -0.34726
 C115 C 0.46379 0.57682 -0.28923
 C116 C 0.50054 0.58964 -0.28716
 C117 C 0.51164 0.57265 -0.34067
 C118 C 0.48653 0.54308 -0.39880
 C119 C 0.45187 0.59191 -0.23282
 C120 C 0.41442 0.57715 -0.23254
 C121 C 0.38891 0.54790 -0.29080
 C122 C 0.40111 0.53363 -0.34830
 C123 C 0.35135 0.53265 -0.28956
 C124 C 0.33888 0.54542 -0.23012
 C125 C 0.36383 0.57405 -0.17121
 C126 C 0.40181 0.59031 -0.17363
 H127 H 0.42926 0.50685 -0.44306
 H128 H 0.52053 0.61224 -0.24323
 H129 H 0.54029 0.58331 -0.33719
 H130 H 0.47142 0.61421 -0.18796
 H131 H 0.38144 0.51096 -0.39266
 H132 H 0.33143 0.51029 -0.33383
 H133 H 0.30955 0.53261 -0.23007
 H134 H 0.42136 0.61231 -0.12854
 C135 C 0.53061 0.10928 -0.41694
 C136 C 0.55653 0.14406 -0.36723
 C137 C 0.58348 0.14383 -0.32546
 C138 C 0.58475 0.10948 -0.33566
 C139 C 0.55862 0.07478 -0.38416
 C140 C 0.53078 0.07369 -0.42493
 C141 C 0.60784 0.17710 -0.27205
 C142 C 0.60500 0.21015 -0.25837
 C143 C 0.57857 0.21086 -0.30141
 C144 C 0.55484 0.17814 -0.35611
 C145 C 0.57543 0.24355 -0.28722
 C146 C 0.59703 0.27416 -0.22875
 C147 C 0.62257 0.27308 -0.18359
 C148 C 0.62713 0.24154 -0.20027
 H149 H 0.50875 0.10874 -0.44495
 H150 H 0.60540 0.10890 -0.30463
 H151 H 0.56031 0.04860 -0.39001
 H152 H 0.62808 0.17644 -0.23922
 H153 H 0.53423 0.17846 -0.38812
 H154 H 0.55552 0.24478 -0.31995
 H155 H 0.59320 0.29835 -0.21795
 H156 H 0.64665 0.24028 -0.16596
 C157 C 0.92812 0.49202 -0.38901
 C158 C 0.89424 0.47391 -0.34818
 C159 C 0.86511 0.42854 -0.34971
 C160 C 0.87005 0.40221 -0.39340
 C161 C 0.90379 0.42051 -0.43402
 C162 C 0.93310 0.46542 -0.43187
 C163 C 0.83187 0.41012 -0.30634
 C164 C 0.82746 0.43643 -0.26090
 C165 C 0.85615 0.48187 -0.26094
 C166 C 0.88928 0.50036 -0.30484
 C167 C 0.85161 0.50800 -0.21543
 C168 C 0.81968 0.48923 -0.16789
 C169 C 0.79156 0.44395 -0.16514
 C170 C 0.79531 0.41784 -0.21350
 H171 H 0.95069 0.52672 -0.38746
 H172 H 0.84802 0.36741 -0.39531
 H173 H 0.90731 0.39955 -0.46632
 H174 H 0.80980 0.37527 -0.30662
 H175 H 0.91150 0.53517 -0.30398
 H176 H 0.87320 0.54291 -0.21509
 H177 H 0.81758 0.51020 -0.13158
 H178 H 0.77389 0.38289 -0.21229
 C179 C 0.57014 0.49329 -0.37001
 C180 C 0.58473 0.47579 -0.32864
 C181 C 0.56757 0.43132 -0.33643
 C182 C 0.53732 0.40563 -0.38834
 C183 C 0.52362 0.42354 -0.43098
 C184 C 0.53945 0.46744 -0.42174
 C185 C 0.58059 0.41314 -0.29150
 C186 C 0.61115 0.43912 -0.24019
 C187 C 0.62967 0.48411 -0.23570
 C188 C 0.61609 0.50207 -0.27932
 C189 C 0.66122 0.51032 -0.18684
 C190 C 0.67371 0.49197 -0.14121
 C191 C 0.65436 0.44706 -0.14249
 C192 C 0.62329 0.42079 -0.19262
 H193 H 0.58328 0.52737 -0.36328
 H194 H 0.52387 0.37150 -0.39517
 H195 H 0.49921 0.40228 -0.46811
 H196 H 0.56682 0.37878 -0.29608
 H197 H 0.62975 0.53638 -0.27445
 H198 H 0.67597 0.54490 -0.18324
 H199 H 0.69768 0.51265 -0.10269
 H200 H 0.60858 0.38615 -0.19435
 C201 C 0.91665 0.46946 0.39814
 C202 C 0.88812 0.45401 0.34225
 C203 C 0.88259 0.42560 0.28293
 C204 C 0.90551 0.41287 0.28090
 C205 C 0.93428 0.42897 0.33586
 C206 C 0.94038 0.45751 0.39540
 C207 C 0.85496 0.41129 0.22538
 C208 C 0.83336 0.42587 0.22537
 C209 C 0.83886 0.45423 0.28487
 C210 C 0.86591 0.46777 0.34333
 C211 C 0.81767 0.46926 0.28414
 C212 C 0.79174 0.45699 0.22428
 C213 C 0.78623 0.42912 0.16426
 C214 C 0.80690 0.41325 0.16583
 H215 H 0.92184 0.49307 0.44049
 H216 H 0.90161 0.39101 0.23598
 H217 H 0.95144 0.41838 0.33241
 H218 H 0.85090 0.38967 0.17962
 H219 H 0.87022 0.48971 0.38868
 H220 H 0.82147 0.49095 0.32934
 H221 H 0.77603 0.46946 0.22499
 H222 H 0.80299 0.39179 0.11998
 C223 C 0.54031 0.10512 0.40298
 C224 C 0.55455 0.13924 0.34952
 C225 C 0.52944 0.14357 0.31023
 C226 C 0.49061 0.11413 0.32575
 C227 C 0.47657 0.07972 0.37732
 C228 C 0.50103 0.07438 0.41634
 C229 C 0.54332 0.17638 0.25420
 C230 C 0.58196 0.20432 0.23534
 C231 C 0.60712 0.20016 0.27497
 C232 C 0.59335 0.16802 0.33235
 C233 C 0.64560 0.22769 0.25548
 C234 C 0.65901 0.25855 0.19641
 C235 C 0.63429 0.26282 0.15573
 C236 C 0.59572 0.23578 0.17633
 H237 H 0.55963 0.10094 0.42992
 H238 H 0.47095 0.11702 0.29646
 H239 H 0.44627 0.05712 0.38699
 H240 H 0.52392 0.17938 0.22380
 H241 H 0.61270 0.16472 0.36216
 H242 H 0.66531 0.22505 0.28532
 H243 H 0.68893 0.27911 0.18256
 H244 H 0.57633 0.23869 0.14573
 C245 C 0.56236 0.47508 0.39975
 C246 C 0.57418 0.45736 0.34960
 C247 C 0.54697 0.41943 0.30669
 C248 C 0.50844 0.40012 0.31437
 C249 C 0.49696 0.41830 0.36388
 C250 C 0.52376 0.45560 0.40735
 C251 C 0.55876 0.40185 0.25597
 C252 C 0.59744 0.42232 0.24617
 C253 C 0.62463 0.46046 0.28863
 C254 C 0.61280 0.47740 0.34085
 C255 C 0.66329 0.48162 0.27670
 C256 C 0.67497 0.46589 0.22158
 C257 C 0.64820 0.42815 0.17890
 C258 C 0.60942 0.40603 0.19264
 H259 H 0.58315 0.50430 0.43243
 H260 H 0.48722 0.37115 0.28171
 H261 H 0.46712 0.40300 0.36910
 H262 H 0.53790 0.37280 0.22294
 H263 H 0.63366 0.50665 0.37342
 H264 H 0.68450 0.51091 0.30865
 H265 H 0.70498 0.48340 0.21185
 H266 H 0.58857 0.37724 0.15908
 C267 C 0.08185 0.50519 0.38525
 C268 C 0.11512 0.52351 0.34198
 C269 C 0.14243 0.56915 0.33678
 C270 C 0.13675 0.59560 0.37750
 C271 C 0.10369 0.57708 0.42079
 C272 C 0.07583 0.53191 0.42390
 C273 C 0.17449 0.58762 0.28944
 C274 C 0.17966 0.56109 0.24728
 C275 C 0.15325 0.51551 0.25509
 C276 C 0.12110 0.49698 0.30235
 C277 C 0.15909 0.48922 0.21412
 C278 C 0.19012 0.50782 0.16389
 C279 C 0.21552 0.55296 0.15312
 C280 C 0.21044 0.57945 0.19606
 H281 H 0.06032 0.47027 0.38792
 H282 H 0.15747 0.63060 0.37452
 H283 H 0.09926 0.59804 0.45002
 H284 H 0.19500 0.62260 0.28415
 H285 H 0.10041 0.46200 0.30704
 H286 H 0.13932 0.45425 0.21986
 H287 H 0.19352 0.48681 0.13140
 H288 H 0.23022 0.61436 0.18888
 C289 C 0.43140 0.89259 0.40413
 C290 C 0.41211 0.85629 0.35518
 C291 C 0.37955 0.84423 0.31456
 C292 C 0.36682 0.86876 0.32415
 C293 C 0.38653 0.90529 0.37259
 C294 C 0.41888 0.91737 0.41303
 C295 C 0.36085 0.80853 0.26379
 C296 C 0.37491 0.78551 0.25182
 C297 C 0.40746 0.79766 0.29270
 C298 C 0.42555 0.83260 0.34487
 C299 C 0.42206 0.77541 0.27908
 C300 C 0.40535 0.74234 0.22351
 C301 C 0.37329 0.73033 0.18179
 C302 C 0.35771 0.75148 0.19756
 H303 H 0.45678 0.90228 0.43412
 H304 H 0.34195 0.86004 0.29337
 H305 H 0.37656 0.92410 0.37872
 H306 H 0.33600 0.79938 0.23215
 H307 H 0.45064 0.84205 0.37591
 H308 H 0.44697 0.78432 0.30997
 H309 H 0.41775 0.72643 0.21252
 H310 H 0.33322 0.74279 0.16507
 C311 C 0.43672 0.50674 0.38584
 C312 C 0.42348 0.52544 0.34323
 C313 C 0.44448 0.57099 0.34320
 C314 C 0.47794 0.59695 0.38687
 C315 C 0.49086 0.57807 0.42917
 C316 C 0.47048 0.53294 0.42885
 C317 C 0.43208 0.58993 0.29849
 C318 C 0.39909 0.56395 0.25331
 C319 C 0.37766 0.51837 0.25463
 C320 C 0.38991 0.49939 0.29980
 C321 C 0.34472 0.49257 0.20942
 C322 C 0.33371 0.51173 0.16137
 C323 C 0.35536 0.55710 0.15774
 C324 C 0.38771 0.58296 0.20527
 H325 H 0.42091 0.47188 0.38564
 H326 H 0.49437 0.63188 0.38753
 H327 H 0.51713 0.59877 0.46142
 H328 H 0.44847 0.62489 0.29775
 H329 H 0.37368 0.46444 0.30007
 H330 H 0.32785 0.45757 0.21000
 H331 H 0.30863 0.49093 0.12570
 H332 H 0.40469 0.61796 0.20336
   
