data_POSCAR
  _audit_creation_date              2014-09-24
  _audit_creation_method            'ToBaCCo'
  _symmetry_space_group_name_H-M    'P1'
  _symmetry_Int_Tables_number       1
  _symmetry_cell_setting            triclinic
  loop_
  _symmetry_equiv_pos_as_xyz
 x,y,z
_cell_length_a 10.9758
_cell_length_b 11.5085
_cell_length_c 19.2818
_cell_angle_alpha 87.599500
_cell_angle_beta 78.438500
_cell_angle_gamma 93.329000
loop_
  _atom_site_label
  _atom_site_type_symbol
  _atom_site_fract_x
  _atom_site_fract_y
  _atom_site_fract_z
O1 O -0.02332 0.36771 1.07357
 O2 O -0.15991 0.58474 0.97356
 O3 O -0.09086 0.37150 0.95242
 O4 O -0.07891 0.58096 1.09083
 O5 O 0.11250 0.64226 1.03695
 O6 O 0.09422 0.44339 0.89432
 O7 O 0.02805 0.65646 0.92002
 O8 O 0.16534 0.42569 1.01366
 Cu9 Cu -0.10737 0.46975 1.02783
 Cu10 Cu 0.11892 0.54902 0.96052
 C11 C 0.09329 0.35743 1.05957
 C12 C -0.08985 0.65977 0.93173
 C13 C 0.00103 0.37060 0.90044
 C14 C 0.01908 0.64696 1.08741
 O15 O 0.56922 -0.08959 0.58968
 O16 O 0.40619 -0.13366 0.44274
 O17 O 0.63591 -0.13170 0.45409
 O18 O 0.33880 -0.08446 0.57465
 O19 O 0.36590 0.10415 0.54473
 O20 O 0.66340 0.05734 0.42580
 O21 O 0.43106 0.05545 0.41405
 O22 O 0.59493 0.09939 0.56114
 Cu23 Cu 0.48588 -0.12879 0.51848
 Cu24 Cu 0.51800 0.09808 0.48342
 C25 C 0.60665 0.01257 0.60154
 C26 C 0.38984 -0.04666 0.40395
 C27 C 0.69823 -0.04542 0.41807
 C28 C 0.30137 0.01803 0.57957
 C29 C 0.10858 -0.10012 0.18411
 C30 C -0.01436 -0.09703 0.23886
 C31 C -0.01813 -0.00195 0.27871
 C32 C 0.09889 0.08125 0.26035
 C33 C 0.12283 0.01590 0.14084
 C34 C 0.11608 0.11065 0.18072
 C35 C 0.21031 -0.09266 0.22782
 C36 C 0.20446 0.00276 0.26794
 H37 H -0.08982 -0.16416 0.24651
 H38 H 0.09485 0.15863 0.29308
 H39 H 0.11935 0.02155 0.08505
 H40 H 0.27448 -0.15989 0.23050
 C41 C 0.01224 -0.01819 0.71836
 C42 C -0.02988 -0.11732 0.77522
 C43 C -0.13430 -0.09566 0.82294
 C44 C -0.18652 0.02200 0.80972
 C45 C -0.10139 -0.00009 0.68453
 C46 C -0.20522 0.02143 0.73317
 C47 C 0.02756 0.09096 0.75986
 C48 C -0.07734 0.11178 0.80749
 H49 H 0.01790 -0.19674 0.77709
 H50 H -0.27164 0.03900 0.84897
 H51 H -0.09875 -0.00126 0.62814
 H52 H 0.11418 0.14408 0.75350
 N53 N 0.01971 -0.26741 0.13864
 N54 N 0.11457 -0.19795 0.13782
 N55 N 0.14181 0.26209 0.09221
 N56 N 0.08662 0.22014 0.15323
 N57 N 0.18691 0.03843 0.62602
 N58 N 0.12554 -0.04176 0.66842
 N59 N -0.35221 0.02982 0.65954
 N60 N -0.32274 0.04679 0.71684
 N61 N -0.14057 -0.25502 0.90363
 N62 N -0.19312 -0.17410 0.88104
 N63 N 0.00365 0.28329 0.84982
 N64 N -0.08403 0.20404 0.85540
 N65 N -0.19416 -0.06565 0.36607
 N66 N -0.12098 0.01827 0.33424
 N67 N 0.32165 -0.06446 0.34931
 N68 N 0.27633 0.02032 0.32113
   
