data_POSCAR
  _audit_creation_date              2014-09-24
  _audit_creation_method            'ToBaCCo'
  _symmetry_space_group_name_H-M    'P1'
  _symmetry_Int_Tables_number       1
  _symmetry_cell_setting            triclinic
  loop_
  _symmetry_equiv_pos_as_xyz
 x,y,z
_cell_length_a 48.3226
_cell_length_b 27.7234
_cell_length_c 17.1492
_cell_angle_alpha 90.376200
_cell_angle_beta 89.062700
_cell_angle_gamma 90.009200
loop_
  _atom_site_label
  _atom_site_type_symbol
  _atom_site_fract_x
  _atom_site_fract_y
  _atom_site_fract_z
C1 C 0.71036 0.22302 0.54459
 C2 C 0.71441 0.23341 0.46403
 C3 C 0.73933 0.21917 0.42676
 C4 C 0.76028 0.19480 0.46749
 C5 C 0.75586 0.18470 0.54814
 C6 C 0.73023 0.19557 0.58306
 H7 H 0.72702 0.18738 0.64443
 H8 H 0.74135 0.22388 0.36447
 C9 C 0.22965 0.79240 0.55883
 C10 C 0.22930 0.80316 0.47839
 C11 C 0.25171 0.78840 0.43069
 C12 C 0.27443 0.76368 0.46112
 C13 C 0.27570 0.75542 0.54293
 C14 C 0.25270 0.76923 0.58979
 H15 H 0.25184 0.76130 0.65130
 H16 H 0.25182 0.79691 0.36909
 C17 C 0.28521 0.22920 -0.54980
 C18 C 0.28762 0.22736 -0.46777
 C19 C 0.26582 0.20689 -0.42375
 C20 C 0.24097 0.19211 -0.45861
 C21 C 0.23863 0.19446 -0.54152
 C22 C 0.26113 0.21274 -0.58523
 H23 H 0.26076 0.21251 -0.64833
 H24 H 0.26778 0.20377 -0.36114
 C25 C -0.22090 0.74791 -0.53857
 C26 C -0.21797 0.74409 -0.45693
 C27 C -0.23955 0.72325 -0.41248
 C28 C -0.26460 0.70893 -0.44651
 C29 C -0.26722 0.71200 -0.52920
 C30 C -0.24517 0.73172 -0.57331
 H31 H -0.24591 0.73248 -0.63633
 H32 H -0.23715 0.71911 -0.35017
 N33 N -0.03362 0.93032 -0.06260
 N34 N -0.05432 0.89932 -0.06471
 N35 N 0.02274 0.95847 -0.13766
 N36 N 0.03941 0.94628 -0.19592
 N37 N 0.02460 0.92771 -0.08005
 N38 N 0.04312 0.89393 -0.09747
 N39 N -0.03486 0.96058 -0.12106
 N40 N -0.05624 0.95045 -0.16536
 C41 C -0.06822 0.91232 -0.12900
 C42 C 0.05224 0.90650 -0.16984
 N43 N 0.02622 1.09829 -0.10000
 N44 N 0.04643 1.12779 -0.12023
 N45 N -0.03374 1.06433 -0.13293
 N46 N -0.05577 1.06901 -0.17658
 N47 N -0.03146 1.10115 -0.08493
 N48 N -0.05170 1.13234 -0.09548
 N49 N 0.02465 1.06188 -0.14913
 N50 N 0.04431 1.06514 -0.20343
 Mn51 Mn -0.00535 1.01138 -0.13603
 C52 C 0.05765 1.10650 -0.18428
 C53 C -0.06677 1.11150 -0.15238
 N54 N 0.02939 0.93622 0.08731
 N55 N 0.05004 0.90566 0.09541
 N56 N -0.02672 0.97511 0.15290
 N57 N -0.04601 0.97280 0.20793
 N58 N -0.02874 0.93863 0.10414
 N59 N -0.04964 0.91038 0.12487
 N60 N 0.03124 0.97200 0.13754
 N61 N 0.05324 0.96661 0.18147
 Mn62 Mn -0.00206 0.93260 0.01232
 C63 C 0.06473 0.92505 0.15426
 C64 C -0.06014 0.93239 0.18980
 N65 N -0.02671 1.10930 0.08160
 N66 N -0.04867 1.13736 0.08827
 N67 N 0.03220 1.07533 0.12447
 N68 N 0.05485 1.08101 0.16513
 N69 N 0.03147 1.10622 0.06685
 N70 N 0.05377 1.13391 0.06690
 N71 N -0.02595 1.07840 0.13924
 N72 N -0.04751 1.08459 0.18662
 Mn73 Mn -0.00007 1.10432 -0.00907
 Mn74 Mn 0.00271 1.02533 0.13943
 Cl75 Cl -0.00118 1.01830 0.00160
 C76 C -0.06131 1.12183 0.15427
 C77 C 0.06808 1.11770 0.12883
 N78 N 0.52195 0.46220 -0.14739
 N79 N 0.53979 0.45785 -0.20593
 N80 N 0.46770 0.42451 -0.06840
 N81 N 0.44819 0.39141 -0.07377
 N82 N 0.46454 0.45796 -0.12152
 N83 N 0.44296 0.44795 -0.16531
 N84 N 0.52524 0.42748 -0.09670
 N85 N 0.54551 0.39842 -0.11948
 C86 C 0.55431 0.41802 -0.18769
 C87 C 0.43289 0.40650 -0.13421
 N88 N 0.48008 0.45481 0.15241
 N89 N 0.46168 0.44906 0.20892
 N90 N 0.53474 0.42507 0.06844
 N91 N 0.55554 0.39418 0.06940
 N92 N 0.53724 0.45746 0.12411
 N93 N 0.55954 0.44892 0.16542
 N94 N 0.47698 0.42211 0.09756
 N95 N 0.45617 0.39299 0.11553
 Mn96 Mn 0.50113 0.42418 0.00024
 C97 C 0.44703 0.41042 0.18548
 C98 C 0.57084 0.40956 0.13007
 N99 N 0.46286 0.56249 -0.11486
 N100 N 0.44090 0.57089 -0.15742
 N101 N 0.52211 0.59924 -0.08585
 N102 N 0.54194 0.63048 -0.10214
 N103 N 0.52071 0.56592 -0.14046
 N104 N 0.54001 0.57313 -0.19475
 N105 N 0.46477 0.59466 -0.05862
 N106 N 0.44408 0.62565 -0.06110
 Mn107 Mn 0.49247 0.51221 -0.13199
 C108 C 0.42934 0.61018 -0.12273
 C109 C 0.55296 0.61368 -0.16996
 N110 N 0.53516 0.56151 0.12957
 N111 N 0.55827 0.56816 0.16780
 N112 N 0.47370 0.59196 0.10714
 N113 N 0.45157 0.61770 0.12648
 N114 N 0.47775 0.55777 0.15832
 N115 N 0.45845 0.55917 0.21361
 N116 N 0.53137 0.59629 0.07931
 N117 N 0.55195 0.62762 0.08181
 Mn118 Mn 0.50769 0.50795 0.14179
 Mn119 Mn 0.49792 0.59612 0.01059
 Cl120 Cl 0.49977 0.51005 0.00505
 C121 C 0.56852 0.60945 0.13732
 C122 C 0.44241 0.59688 0.19338
 C123 C 0.30774 0.24569 0.39781
 C124 C 0.31971 0.29101 0.40516
 C125 C 0.34208 0.30704 0.35264
 N126 N 0.35486 0.34963 0.36654
 N127 N 0.37569 0.36414 0.32078
 C128 C 0.38451 0.33669 0.25932
 N129 N 0.37157 0.29424 0.24493
 N130 N 0.35075 0.27963 0.29090
 C131 C 0.40796 0.35230 0.20996
 C132 C 0.42344 0.39239 0.23097
 H133 H 0.31288 0.31499 0.45176
 H134 H 0.41342 0.33173 0.15803
 H135 H 0.31318 0.22308 0.34811
 H136 H 0.41823 0.41198 0.28405
 C137 C -0.19858 0.76542 0.40860
 C138 C -0.18548 0.80970 0.41898
 C139 C -0.16317 0.82627 0.36620
 N140 N -0.15043 0.86895 0.38025
 N141 N -0.12984 0.88403 0.33395
 C142 C -0.12119 0.85702 0.27178
 N143 N -0.13399 0.81438 0.25755
 N144 N -0.15458 0.79927 0.30392
 C145 C -0.09810 0.87310 0.22110
 C146 C -0.08385 0.91560 0.23676
 H147 H -0.19152 0.83260 0.46777
 H148 H -0.09193 0.85082 0.17169
 H149 H -0.19404 0.74438 0.35649
 H150 H -0.08996 0.93760 0.28653
 C151 C 0.71040 0.69031 0.43206
 C152 C 0.70200 0.70224 0.35691
 C153 C 0.67830 0.67818 0.32090
 N154 N 0.66710 0.69640 0.25528
 N155 N 0.64513 0.67549 0.22345
 C156 C 0.63371 0.63548 0.25602
 N157 N 0.64510 0.61700 0.32105
 N158 N 0.66696 0.63799 0.35299
 C159 C 0.60913 0.61245 0.22362
 C160 C 0.59418 0.63232 0.16302
 H161 H 0.71129 0.73210 0.32580
 H162 H 0.60193 0.57949 0.25085
 H163 H 0.69839 0.66327 0.46262
 H164 H 0.60084 0.66558 0.13581
 C165 C 0.21582 1.17429 0.41930
 C166 C 0.20746 1.18779 0.34466
 C167 C 0.18213 1.16823 0.30992
 N168 N 0.17204 1.18778 0.24376
 N169 N 0.14856 1.17147 0.21341
 C170 C 0.13440 1.13493 0.24818
 N171 N 0.14462 1.11516 0.31384
 N172 N 0.16801 1.13152 0.34423
 C173 C 0.10817 1.11681 0.21744
 C174 C 0.09492 1.13687 0.15371
 H175 H 0.21794 1.21642 0.31347
 H176 H 0.09859 1.08684 0.24784
 H177 H 0.20309 1.14815 0.44959
 H178 H 0.10407 1.16687 0.12248
 C179 C 0.68802 0.24031 -0.40928
 C180 C 0.67479 0.28435 -0.42139
 C181 C 0.65274 0.30237 -0.36906
 N182 N 0.64107 0.34584 -0.38297
 N183 N 0.62115 0.36298 -0.33602
 C184 C 0.61219 0.33730 -0.27333
 N185 N 0.62387 0.29379 -0.25935
 N186 N 0.64378 0.27660 -0.30643
 C187 C 0.59018 0.35598 -0.22139
 C188 C 0.57671 0.39902 -0.23735
 H189 H 0.68179 0.30823 -0.46726
 H190 H 0.58421 0.33522 -0.17053
 H191 H 0.68328 0.22189 -0.35508
 H192 H 0.58234 0.41938 -0.28890
 C193 C 0.20688 0.80515 -0.38577
 C194 C 0.17905 0.79731 -0.40165
 C195 C 0.15696 0.80948 -0.34483
 N196 N 0.13048 0.81324 -0.36886
 N197 N 0.11041 0.82639 -0.31901
 C198 C 0.11600 0.83574 -0.24299
 N199 N 0.14240 0.83092 -0.21848
 N200 N 0.16254 0.81817 -0.26855
 C201 C 0.09429 0.85420 -0.18943
 C202 C 0.07192 0.87935 -0.21886
 H203 H 0.17315 0.78303 -0.45788
 H204 H 0.09747 0.85315 -0.12709
 H205 H 0.21250 0.81715 -0.32788
 H206 H 0.07060 0.88452 -0.28125
 C207 C 0.29944 0.73453 -0.42347
 C208 C 0.30393 0.72992 -0.34335
 C209 C 0.32776 0.70338 -0.31327
 N210 N 0.33404 0.70691 -0.23665
 N211 N 0.35521 0.68232 -0.20805
 C212 C 0.37073 0.65296 -0.25496
 N213 N 0.36434 0.64913 -0.33147
 N214 N 0.34325 0.67393 -0.36016
 C215 C 0.39420 0.62577 -0.22432
 C216 C 0.40473 0.63513 -0.15072
 H217 H 0.29052 0.74676 -0.30026
 H218 H 0.40419 0.59926 -0.26198
 H219 H 0.31616 0.72232 -0.46097
 H220 H 0.39574 0.66329 -0.11432
 C221 C -0.22351 1.16687 -0.40247
 C222 C -0.19597 1.18205 -0.40731
 C223 C -0.17466 1.16294 -0.35601
 N224 N -0.15160 1.18927 -0.34179
 N225 N -0.13153 1.17149 -0.29808
 C226 C -0.13367 1.12647 -0.26787
 N227 N -0.15664 1.09999 -0.28259
 N228 N -0.17688 1.11802 -0.32546
 C229 C -0.11086 1.10522 -0.22438
 C230 C -0.09132 1.13344 -0.18659
 H231 H -0.19006 1.21057 -0.44714
 H232 H -0.10939 1.06625 -0.22202
 H233 H -0.22976 1.14699 -0.35082
 H234 H -0.09410 1.17211 -0.18177
 C235 C 0.71403 0.69257 -0.39592
 C236 C 0.68604 0.70283 -0.40715
 C237 C 0.66364 0.68022 -0.36121
 N238 N 0.63869 0.70243 -0.35436
 N239 N 0.61758 0.68100 -0.31756
 C240 C 0.62048 0.63611 -0.28752
 N241 N 0.64537 0.61367 -0.29498
 N242 N 0.66661 0.63541 -0.33084
 C243 C 0.59694 0.61158 -0.24912
 C244 C 0.57602 0.63754 -0.21111
 H245 H 0.68023 0.72882 -0.45085
 H246 H 0.59690 0.57254 -0.24662
 H247 H 0.71954 0.67645 -0.34084
 H248 H 0.57787 0.67633 -0.20534
 C249 C 0.21935 1.17661 -0.40845
 C250 C 0.19159 1.18789 -0.42063
 C251 C 0.16882 1.16584 -0.37585
 N252 N 0.14383 1.18802 -0.37220
 N253 N 0.12244 1.16723 -0.33585
 C254 C 0.12512 1.12306 -0.30309
 N255 N 0.15005 1.10056 -0.30749
 N256 N 0.17157 1.12166 -0.34302
 C257 C 0.10145 1.09998 -0.26339
 C258 C 0.08070 1.12778 -0.22855
 H259 H 0.18625 1.21406 -0.46454
 H260 H 0.10128 1.06115 -0.25668
 H261 H 0.22450 1.16059 -0.35302
 H262 H 0.08276 1.16669 -0.22725
 C263 C 0.31288 0.24603 -0.42887
 C264 C 0.31246 0.26737 -0.35478
 C265 C 0.33616 0.29513 -0.32498
 N266 N 0.33764 0.30572 -0.24777
 N267 N 0.35829 0.33259 -0.22054
 C268 C 0.37803 0.35053 -0.26970
 N269 N 0.37641 0.34031 -0.34702
 N270 N 0.35593 0.31300 -0.37413
 C271 C 0.40078 0.38086 -0.24048
 C272 C 0.40882 0.37952 -0.16286
 H273 H 0.29388 0.26620 -0.31880
 H274 H 0.41260 0.40226 -0.28184
 H275 H 0.33212 0.24692 -0.46199
 H276 H 0.39872 0.35462 -0.12318
 C277 C -0.19226 0.76069 -0.41876
 C278 C -0.19210 0.78154 -0.34450
 C279 C -0.16775 0.80754 -0.31553
 N280 N -0.16581 0.81827 -0.23851
 N281 N -0.14440 0.84351 -0.21213
 C282 C -0.12434 0.85953 -0.26202
 N283 N -0.12642 0.84921 -0.33912
 N284 N -0.14769 0.82356 -0.36538
 C285 C -0.10074 0.88784 -0.23387
 C286 C -0.09285 0.88672 -0.15625
 H287 H -0.21060 0.78149 -0.30813
 H288 H -0.08831 0.90766 -0.27595
 H289 H -0.17315 0.76050 -0.45253
 H290 H -0.10378 0.86364 -0.11539
 C291 C 0.29692 0.74999 0.40531
 C292 C 0.30629 0.70259 0.39765
 C293 C 0.33049 0.68930 0.34880
 N294 N 0.34202 0.64499 0.35629
 N295 N 0.36462 0.63288 0.31517
 C296 C 0.37653 0.66457 0.26472
 N297 N 0.36483 0.70873 0.25654
 N298 N 0.34230 0.72097 0.29806
 C299 C 0.40180 0.65170 0.21982
 C300 C 0.41727 0.61086 0.23735
 H301 H 0.29676 0.67481 0.43325
 H302 H 0.40873 0.67545 0.17356
 H303 H 0.30509 0.77747 0.36668
 H304 H 0.41095 0.58825 0.28572
 C305 C -0.21637 1.17550 0.42771
 C306 C -0.20565 1.19121 0.35601
 C307 C -0.17925 1.17168 0.32501
 N308 N -0.16666 1.19213 0.26211
 N309 N -0.14219 1.17593 0.23614
 C310 C -0.12941 1.13872 0.27218
 N311 N -0.14209 1.11806 0.33458
 N312 N -0.16650 1.13427 0.36054
 C313 C -0.10224 1.12068 0.24528
 C314 C -0.08789 1.14117 0.18284
 H315 H -0.21495 1.22095 0.32549
 H316 H -0.09338 1.09023 0.27532
 H317 H -0.20499 1.14724 0.45620
 H318 H -0.09669 1.17142 0.15223
 C319 C 0.69123 0.25248 0.41704
 C320 C 0.69448 0.28137 0.35114
 C321 C 0.67067 0.30761 0.31938
 N322 N 0.67051 0.32121 0.24346
 N323 N 0.64922 0.34599 0.21545
 C324 C 0.62755 0.35876 0.26276
 N325 N 0.62792 0.34573 0.33881
 N326 N 0.64898 0.32042 0.36649
 C327 C 0.60405 0.38684 0.23364
 C328 C 0.59591 0.38469 0.15618
 H329 H 0.71468 0.28689 0.32459
 H330 H 0.59143 0.40665 0.27568
 H331 H 0.67034 0.24589 0.43821
 H332 H 0.60671 0.36102 0.11546
 C333 C 0.20670 0.83219 0.44472
 C334 C 0.19623 0.82263 0.37092
 C335 C 0.17248 0.84896 0.33938
 N336 N 0.16150 0.83456 0.27079
 N337 N 0.13968 0.85724 0.24190
 C338 C 0.12804 0.89531 0.28039
 N339 N 0.13914 0.90997 0.34878
 N340 N 0.16094 0.88718 0.37783
 C341 C 0.10356 0.92000 0.24957
 C342 C 0.08990 0.90258 0.18424
 H343 H 0.20479 0.79322 0.33637
 H344 H 0.09569 0.95159 0.28012
 H345 H 0.19696 0.85975 0.48081
 H346 H 0.09740 0.87037 0.15474
   
