data_POSCAR
  _audit_creation_date              2014-09-24
  _audit_creation_method            'ToBaCCo'
  _symmetry_space_group_name_H-M    'P1'
  _symmetry_Int_Tables_number       1
  _symmetry_cell_setting            triclinic
  loop_
  _symmetry_equiv_pos_as_xyz
 x,y,z
_cell_length_a 27.9137
_cell_length_b 26.6366
_cell_length_c 13.0086
_cell_angle_alpha 89.776600
_cell_angle_beta 89.955400
_cell_angle_gamma 121.182000
loop_
  _atom_site_label
  _atom_site_type_symbol
  _atom_site_fract_x
  _atom_site_fract_y
  _atom_site_fract_z
C1 C 0.46413 0.82455 0.55288
 C2 C 0.46243 0.82434 0.44763
 C3 C 0.47041 0.87818 0.41795
 N4 N 0.47687 0.91118 0.50107
 C5 C 0.47332 0.87866 0.58365
 C6 C 0.46775 0.89453 0.31613
 C7 C 0.48306 0.95208 0.28653
 C8 C 0.47166 0.96665 0.19102
 C9 C 0.49539 1.02640 0.18977
 C10 C 0.52097 1.04705 0.28458
 N11 N 0.51309 1.00134 0.34332
 C12 C 0.55318 1.10720 0.31159
 C13 C 0.56584 1.12615 0.41573
 C14 C 0.60766 1.18159 0.44662
 C15 C 0.60730 1.18158 0.55195
 C16 C 0.56551 1.12602 0.58333
 N17 N 0.54031 1.09206 0.49972
 C18 C 0.55332 1.10686 0.68773
 C19 C 0.52265 1.04672 0.71643
 C20 C 0.50035 1.02610 0.81378
 C21 C 0.47811 0.96659 0.81371
 C22 C 0.48658 0.95193 0.71601
 N23 N 0.51391 1.00113 0.65722
 C24 C 0.47260 0.89484 0.68619
 H25 H 0.45816 0.78854 0.60112
 H26 H 0.45536 0.78835 0.39872
 H27 H 0.53152 1.00462 0.58529
 H28 H 0.44878 0.93730 0.12837
 H29 H 0.49391 1.05175 0.12593
 H30 H 0.63737 1.21778 0.39885
 H31 H 0.63662 1.21773 0.59956
 H32 H 0.45879 0.93783 0.87920
 H33 H 0.53259 1.00464 0.41304
 H34 H 0.50060 1.05139 0.87894
 C35 C 0.16629 0.55524 0.55544
 C36 C 0.16790 0.56602 0.45235
 C37 C 0.11474 0.55325 0.42497
 N38 N 0.08107 0.53620 0.50883
 C39 C 0.11258 0.53751 0.58887
 C40 C 0.09937 0.56181 0.32576
 C41 C 0.04442 0.54745 0.30037
 C42 C 0.03050 0.56729 0.21351
 C43 C -0.02688 0.53873 0.21068
 C44 C -0.04713 0.50154 0.29593
 N45 N -0.00292 0.50748 0.35001
 C46 C -0.10455 0.45848 0.31466
 C47 C -0.12403 0.42875 0.41126
 C48 C -0.17994 0.39123 0.43843
 C49 C -0.18098 0.37577 0.53885
 C50 C -0.12614 0.40594 0.57257
 N51 N -0.09146 0.43842 0.49491
 C52 C -0.11046 0.40754 0.67641
 C53 C -0.05475 0.43877 0.71267
 C54 C -0.04072 0.45156 0.81544
 C55 C 0.01646 0.48465 0.82008
 C56 C 0.03636 0.49089 0.72000
 N57 N -0.00754 0.46206 0.65494
 C58 C 0.09389 0.52366 0.69225
 H59 H 0.20089 0.55966 0.60028
 H60 H 0.20462 0.58219 0.40420
 H61 H -0.00549 0.45542 0.57688
 H62 H 0.05856 0.59807 0.15622
 H63 H -0.05025 0.54400 0.14983
 H64 H -0.21718 0.37829 0.39393
 H65 H -0.21842 0.34770 0.58328
 H66 H 0.04032 0.50332 0.88962
 H67 H -0.00453 0.47998 0.40835
 H68 H -0.06879 0.43990 0.88052
 C69 C 0.57264 0.40528 0.55242
 C70 C 0.57535 0.40849 0.44716
 C71 C 0.56379 0.45130 0.41863
 N72 N 0.55411 0.47437 0.50320
 C73 C 0.55931 0.44612 0.58522
 C74 C 0.56294 0.46884 0.31602
 C75 C 0.54482 0.50780 0.28933
 C76 C 0.55563 0.53719 0.19607
 C77 C 0.52724 0.56679 0.19741
 C78 C 0.49926 0.55399 0.29093
 N79 N 0.51042 0.51816 0.34645
 C80 C 0.45952 0.56956 0.31747
 C81 C 0.43385 0.55848 0.41514
 C82 C 0.38592 0.55975 0.43717
 C83 C 0.37600 0.54851 0.54014
 C84 C 0.41951 0.54318 0.57880
 N85 N 0.45446 0.54861 0.50185
 C86 C 0.42818 0.53623 0.68397
 C87 C 0.46637 0.51927 0.71599
 C88 C 0.48830 0.52752 0.81450
 C89 C 0.52292 0.50541 0.81551
 C90 C 0.52151 0.48401 0.71767
 N91 N 0.48704 0.49284 0.65709
 C92 C 0.55049 0.45546 0.68917
 H93 H 0.57789 0.37473 0.59897
 H94 H 0.58386 0.38149 0.39755
 H95 H 0.47414 0.47663 0.58326
 H96 H 0.58069 0.53664 0.13304
 H97 H 0.52561 0.59281 0.13492
 H98 H 0.36008 0.56713 0.38484
 H99 H 0.34063 0.54477 0.58142
 H100 H 0.54703 0.50579 0.88098
 H101 H 0.49005 0.49573 0.41316
 H102 H 0.48119 0.54848 0.87893
 O103 O 0.40568 0.65050 -0.09821
 O104 O 0.40619 0.74806 -0.10755
 C105 C 0.38129 0.77621 -0.11752
 O106 O 0.33801 0.76440 -0.06629
 O107 O 0.24632 0.66721 -0.11308
 C108 C 0.21923 0.61369 -0.13858
 O109 O 0.22449 0.57446 -0.09333
 O110 O 0.31826 0.57864 -0.13423
 C111 C 0.37026 0.60841 -0.15346
 O112 O 0.40310 0.65394 0.10855
 O113 O 0.40681 0.75447 0.09830
 C114 C 0.37222 0.76114 0.15150
 O115 O 0.32004 0.73403 0.13371
 O116 O 0.22448 0.63918 0.08834
 C117 C 0.21504 0.59197 0.13150
 O118 O 0.24104 0.56629 0.10793
 O119 O 0.33216 0.56516 0.06619
 C120 C 0.37589 0.59849 0.11761
 Cr121 Cr 0.40232 0.70003 0.00055
 Cr122 Cr 0.28362 0.69950 0.01041
 Cr123 Cr 0.28065 0.57441 -0.01283
 O124 O 0.32235 0.65800 -0.00010
 O125 O 0.59664 0.35920 -0.11630
 O126 O 0.57484 0.25309 -0.08694
 C127 C 0.60378 0.23866 -0.14117
 O128 O 0.65463 0.25642 -0.12330
 O129 O 0.75770 0.34126 -0.09436
 C130 C 0.77344 0.38875 -0.14344
 O131 O 0.75642 0.42318 -0.12268
 O132 O 0.67707 0.44394 -0.09084
 C133 C 0.63156 0.41213 -0.13939
 O134 O 0.60036 0.37819 0.08699
 O135 O 0.58421 0.27393 0.12015
 C136 C 0.60204 0.23969 0.13777
 O137 O 0.63849 0.23793 0.08146
 O138 O 0.74012 0.32626 0.10974
 C139 C 0.77441 0.37982 0.12851
 O140 O 0.77427 0.42172 0.08110
 O141 O 0.69142 0.43876 0.11573
 C142 C 0.64053 0.41987 0.13621
 Cr143 Cr 0.59196 0.31702 0.00103
 Cr144 Cr 0.69663 0.29249 -0.00649
 Cr145 Cr 0.72275 0.42878 -0.00387
 O146 O 0.67054 0.34624 -0.00324
 C147 C 0.45352 0.84817 -0.23486
 C148 C 0.40312 0.82528 -0.19091
 H149 H 0.47944 0.82968 -0.21959
 H150 H 0.37731 0.84364 -0.20873
 C151 C 0.13351 0.54227 -0.22754
 C152 C 0.17955 0.59605 -0.22404
 H153 H 0.12360 0.51428 -0.16041
 H154 H 0.18682 0.62867 -0.28192
 C155 C 0.40032 0.54840 -0.23815
 C156 C 0.39143 0.59311 -0.24298
 H157 H 0.39190 0.52533 -0.16524
 H158 H 0.40699 0.62375 -0.30687
 C159 C 0.57611 0.14770 -0.23088
 C160 C 0.57718 0.19850 -0.22800
 H161 H 0.58904 0.13490 -0.16181
 H162 H 0.55719 0.20985 -0.28741
 C163 C 0.84444 0.38176 -0.24498
 C164 C 0.81420 0.40662 -0.22739
 H165 H 0.84065 0.34715 -0.19524
 H166 H 0.82184 0.44399 -0.27387
 C167 C 0.56766 0.43286 -0.23006
 C168 C 0.61780 0.43774 -0.22606
 H169 H 0.54130 0.41610 -0.16204
 H170 H 0.64944 0.46245 -0.28399
 C171 C 0.85660 0.44707 0.23467
 C172 C 0.81607 0.39260 0.20916
 H173 H 0.86217 0.48269 0.18596
 H174 H 0.81389 0.35515 0.24711
 C175 C 0.57521 0.14780 0.22876
 C176 C 0.57922 0.20016 0.22767
 H177 H 0.58440 0.13344 0.15741
 H178 H 0.56267 0.21301 0.29097
 C179 C 0.57739 0.44225 0.23038
 C180 C 0.62769 0.44782 0.22092
 H181 H 0.54608 0.41968 0.17138
 H182 H 0.66031 0.47410 0.27586
 C183 C 0.14335 0.59003 0.24523
 C184 C 0.17120 0.56482 0.21102
 H185 H 0.15130 0.63097 0.21178
 H186 H 0.16171 0.52301 0.24311
 C187 C 0.44687 0.84897 0.23558
 C188 C 0.39392 0.80373 0.23583
 H189 H 0.47436 0.85567 0.17134
 H190 H 0.36533 0.80018 0.29582
 C191 C 0.44396 0.59911 0.23918
 C192 C 0.39474 0.57013 0.19092
 H193 H 0.47346 0.64490 0.22203
 H194 H 0.36694 0.52373 0.20663
   
