data_POSCAR
  _audit_creation_date              2014-09-24
  _audit_creation_method            'ToBaCCo'
  _symmetry_space_group_name_H-M    'P1'
  _symmetry_Int_Tables_number       1
  _symmetry_cell_setting            triclinic
  loop_
  _symmetry_equiv_pos_as_xyz
 x,y,z
_cell_length_a 24.9587
_cell_length_b 43.1851
_cell_length_c 18.5713
_cell_angle_alpha 90.044500
_cell_angle_beta 90.512200
_cell_angle_gamma 89.712800
loop_
  _atom_site_label
  _atom_site_type_symbol
  _atom_site_fract_x
  _atom_site_fract_y
  _atom_site_fract_z
C1 C 0.72786 0.33382 0.50857
 C2 C 0.73751 0.31959 0.57552
 C3 C 0.75297 0.28821 0.57593
 C4 C 0.75327 0.27031 0.51205
 C5 C 0.73912 0.28505 0.44653
 C6 C 0.72744 0.31691 0.44414
 C7 C 0.76720 0.23632 0.51436
 C8 C 0.78605 0.22059 0.45246
 C9 C 0.79767 0.18847 0.45363
 C10 C 0.79299 0.17289 0.51995
 C11 C 0.77765 0.18825 0.58280
 C12 C 0.76256 0.21941 0.57907
 H13 H 0.71637 0.35802 0.50667
 H14 H 0.76638 0.27809 0.62599
 H15 H 0.73696 0.27191 0.39723
 H16 H 0.79216 0.23362 0.40404
 H17 H 0.80415 0.14869 0.52430
 H18 H 0.74713 0.23004 0.62732
 C19 C 0.20766 0.82717 0.48152
 C20 C 0.20329 0.81159 0.54791
 C21 C 0.21492 0.77947 0.54905
 C22 C 0.23317 0.76374 0.48687
 C23 C 0.23746 0.78060 0.42209
 C24 C 0.22255 0.81179 0.41849
 C25 C 0.24671 0.72974 0.48877
 C26 C 0.24454 0.71188 0.42505
 C27 C 0.26042 0.68076 0.42476
 C28 C 0.27284 0.66637 0.49029
 C29 C 0.27494 0.68298 0.55561
 C30 C 0.26321 0.71504 0.55348
 H31 H 0.19655 0.85138 0.47724
 H32 H 0.20930 0.76641 0.59759
 H33 H 0.25246 0.76986 0.37371
 H34 H 0.23060 0.72189 0.37501
 H35 H 0.28470 0.64223 0.48921
 H36 H 0.26656 0.72862 0.60186
 C37 C 0.28899 0.32801 -0.50838
 C38 C 0.27627 0.31391 -0.57408
 C39 C 0.25868 0.28316 -0.57426
 C40 C 0.25814 0.26540 -0.51022
 C41 C 0.27360 0.28002 -0.44499
 C42 C 0.28768 0.31152 -0.44353
 C43 C 0.24269 0.23173 -0.51221
 C44 C 0.22362 0.21642 -0.45007
 C45 C 0.21046 0.18457 -0.45125
 C46 C 0.21410 0.16886 -0.51764
 C47 C 0.22979 0.18386 -0.58060
 C48 C 0.24619 0.21470 -0.57698
 H49 H 0.30272 0.35178 -0.50813
 H50 H 0.24521 0.27350 -0.62485
 H51 H 0.27494 0.26717 -0.39523
 H52 H 0.21866 0.22955 -0.40144
 H53 H 0.20182 0.14491 -0.52196
 H54 H 0.26180 0.22499 -0.62537
 C55 C -0.21421 0.83112 -0.48174
 C56 C -0.21065 0.81544 -0.54817
 C57 C -0.22389 0.78359 -0.54941
 C58 C -0.24293 0.76827 -0.48728
 C59 C -0.24632 0.78527 -0.42245
 C60 C -0.22986 0.81610 -0.41878
 C61 C -0.25845 0.73462 -0.48935
 C62 C -0.25893 0.71683 -0.42536
 C63 C -0.27657 0.68608 -0.42558
 C64 C -0.28936 0.67201 -0.49128
 C65 C -0.28811 0.68853 -0.55610
 C66 C -0.27400 0.72003 -0.55459
 H67 H -0.20187 0.85506 -0.47740
 H68 H -0.21903 0.77048 -0.59809
 H69 H -0.26189 0.77497 -0.37405
 H70 H -0.24540 0.72646 -0.37477
 H71 H -0.30311 0.64825 -0.49158
 H72 H -0.27538 0.73290 -0.60432
 N73 N -0.06986 1.03380 -0.11279
 N74 N -0.10849 1.04072 -0.15883
 N75 N 0.04744 1.05517 -0.08764
 N76 N 0.07811 1.07744 -0.11324
 N77 N 0.04159 1.03300 -0.13551
 N78 N 0.06855 1.03941 -0.19426
 N79 N -0.06343 1.05621 -0.06569
 N80 N -0.09703 1.07929 -0.07982
 C81 C -0.12583 1.06885 -0.13709
 C82 C 0.09179 1.06692 -0.17937
 N83 N 0.07121 1.03236 0.11394
 N84 N 0.11007 1.03852 0.16007
 N85 N -0.04523 1.05593 0.08905
 N86 N -0.07486 1.07879 0.11502
 N87 N -0.04021 1.03361 0.13671
 N88 N -0.06671 1.04051 0.19565
 N89 N 0.06563 1.05494 0.06708
 N90 N 0.10008 1.07738 0.08146
 Mn91 Mn 0.00110 1.05586 0.00070
 C92 C 0.12846 1.06635 0.13863
 C93 C -0.08881 1.06848 0.18112
 N94 N 0.04032 0.96632 -0.13584
 N95 N 0.06700 0.95945 -0.19467
 N96 N -0.06553 0.94499 -0.06628
 N97 N -0.09994 0.92254 -0.08072
 N98 N -0.07112 0.96757 -0.11313
 N99 N -0.10994 0.96140 -0.15931
 N100 N 0.04534 0.94401 -0.08815
 N101 N 0.07514 0.92121 -0.11395
 Mn102 Mn -0.01475 1.00017 -0.12459
 C103 C 0.08919 0.93152 -0.18001
 C104 C -0.12831 0.93356 -0.13791
 N105 N -0.04150 0.96695 0.13634
 N106 N -0.06851 0.96055 0.19505
 N107 N 0.06349 0.94372 0.06657
 N108 N 0.09706 0.92064 0.08077
 N109 N 0.06995 0.96615 0.11362
 N110 N 0.10855 0.95923 0.15969
 N111 N -0.04737 0.94478 0.08845
 N112 N -0.07811 0.92253 0.11402
 Mn113 Mn 0.01484 0.99977 0.12542
 Mn114 Mn -0.00103 0.94408 0.00015
 Cl115 Cl 0.00004 0.99997 0.00042
 C116 C -0.09181 0.93307 0.18013
 C117 C 0.12587 0.93109 0.13802
 N118 N 0.55325 0.55635 -0.07670
 N119 N 0.58710 0.57862 -0.09369
 N120 N 0.44223 0.53214 -0.12762
 N121 N 0.40987 0.53838 -0.18212
 N122 N 0.44107 0.55465 -0.08002
 N123 N 0.40840 0.57705 -0.10193
 N124 N 0.55504 0.53398 -0.12457
 N125 N 0.59059 0.54012 -0.17444
 C126 C 0.61086 0.56777 -0.15415
 C127 C 0.38830 0.56615 -0.16502
 N128 N 0.44780 0.44335 -0.07920
 N129 N 0.41671 0.42013 -0.09944
 N130 N 0.55893 0.46780 -0.12429
 N131 N 0.59432 0.46261 -0.17500
 N132 N 0.55998 0.44545 -0.07641
 N133 N 0.59580 0.42412 -0.09432
 N134 N 0.44611 0.46566 -0.12721
 N135 N 0.41318 0.45848 -0.18042
 Mn136 Mn 0.50053 0.49989 -0.12624
 C137 C 0.39445 0.43030 -0.16193
 C138 C 0.61765 0.43560 -0.15535
 N139 N 0.43966 0.55455 0.07627
 N140 N 0.40336 0.57573 0.09296
 N141 N 0.55350 0.53439 0.12751
 N142 N 0.58643 0.54159 0.18070
 N143 N 0.55176 0.55670 0.07947
 N144 N 0.58282 0.57993 0.09969
 N145 N 0.44059 0.53236 0.12462
 N146 N 0.40447 0.53756 0.17455
 Mn147 Mn 0.49641 0.55588 -0.00022
 C148 C 0.38099 0.56442 0.15371
 C149 C 0.60511 0.56979 0.16219
 N150 N 0.55854 0.44542 0.07977
 N151 N 0.59196 0.42319 0.10018
 N152 N 0.44464 0.46603 0.12492
 N153 N 0.40911 0.45986 0.17479
 N154 N 0.44642 0.44369 0.07697
 N155 N 0.41258 0.42141 0.09393
 N156 N 0.55756 0.46774 0.12787
 N157 N 0.59097 0.46151 0.18138
 Mn158 Mn 0.50320 0.44416 0.00030
 Mn159 Mn 0.49913 0.50013 0.12667
 Cl160 Cl 0.49981 0.50002 0.00016
 C161 C 0.61281 0.43395 0.16286
 C162 C 0.38884 0.43222 0.15444
 C163 C 0.30221 0.38003 0.30443
 C164 C 0.32586 0.36535 0.24514
 N165 N 0.32699 0.33393 0.24215
 C166 C 0.30710 0.31652 0.29682
 C167 C 0.28620 0.33123 0.35834
 N168 N 0.28355 0.36272 0.35948
 N169 N 0.30239 0.41134 0.30906
 C170 C 0.32678 0.42873 0.25824
 C171 C 0.35315 0.41415 0.20075
 N172 N 0.35119 0.38270 0.19479
 H173 H 0.31094 0.29159 0.29418
 H174 H 0.32756 0.45365 0.26443
 C175 C -0.16524 0.88073 0.34304
 C176 C -0.15289 0.86688 0.27712
 N177 N -0.16152 0.83607 0.26836
 C178 C -0.18135 0.81839 0.32276
 C179 C -0.19254 0.83207 0.39047
 N180 N -0.18430 0.86316 0.39717
 N181 N -0.15654 0.91138 0.35298
 C182 C -0.13500 0.92886 0.30006
 C183 C -0.12101 0.91504 0.23426
 N184 N -0.13077 0.88426 0.22402
 H185 H -0.18671 0.79404 0.31246
 H186 H -0.12778 0.95320 0.30999
 C187 C 0.68517 0.62358 0.31808
 C188 C 0.65691 0.63806 0.26177
 N189 N 0.65033 0.66933 0.26295
 C190 C 0.66979 0.68669 0.31862
 C191 C 0.69650 0.67203 0.37656
 N192 N 0.70393 0.64078 0.37366
 N193 N 0.69044 0.59233 0.31888
 C194 C 0.66750 0.57469 0.26670
 C195 C 0.63752 0.58888 0.21139
 N196 N 0.63352 0.62040 0.20962
 H197 H 0.66211 0.71135 0.31901
 H198 H 0.67123 0.54973 0.26965
 C199 C 0.21370 1.11918 0.29042
 C200 C 0.18750 1.13387 0.23251
 N201 N 0.18248 1.16521 0.23263
 C202 C 0.20063 1.18239 0.28926
 C203 C 0.22345 1.16747 0.34968
 N204 N 0.23030 1.13618 0.34766
 N205 N 0.21749 1.08787 0.29182
 C206 C 0.19437 1.07043 0.23939
 C207 C 0.16485 1.08489 0.18389
 N208 N 0.16313 1.11642 0.18086
 H209 H 0.19365 1.20714 0.28925
 H210 H 0.19648 1.04545 0.24328
 C211 C 0.70440 0.38533 -0.30955
 C212 C 0.68879 0.37081 -0.24571
 N213 N 0.69579 0.33974 -0.23887
 C214 C 0.71587 0.32238 -0.29386
 C215 C 0.72760 0.33661 -0.36056
 N216 N 0.72249 0.36799 -0.36495
 N217 N 0.69727 0.41624 -0.31757
 C218 C 0.67325 0.43324 -0.26554
 C219 C 0.65399 0.41855 -0.20342
 N220 N 0.66323 0.38763 -0.19419
 H221 H 0.71823 0.29759 -0.28665
 H222 H 0.66686 0.45776 -0.27441
 C223 C 0.16033 0.87778 -0.34327
 C224 C 0.14767 0.86421 -0.27727
 N225 N 0.15530 0.83328 -0.26847
 C226 C 0.17439 0.81520 -0.32291
 C227 C 0.18588 0.82861 -0.39071
 N228 N 0.17867 0.85982 -0.39745
 N229 N 0.15263 0.90856 -0.35322
 C230 C 0.13182 0.92646 -0.30023
 C231 C 0.11757 0.91294 -0.23432
 N232 N 0.12631 0.88202 -0.22409
 H233 H 0.17902 0.79078 -0.31254
 H234 H 0.12541 0.95090 -0.31016
 C235 C 0.31027 0.61820 -0.32644
 C236 C 0.32894 0.63294 -0.26405
 N237 N 0.32646 0.66434 -0.25998
 C238 C 0.30713 0.68169 -0.31597
 C239 C 0.29062 0.66697 -0.38064
 N240 N 0.29223 0.63540 -0.38240
 N241 N 0.31285 0.58696 -0.33185
 C242 C 0.33477 0.56967 -0.27818
 C243 C 0.35597 0.58430 -0.21666
 N244 N 0.35188 0.61574 -0.21048
 H245 H 0.30753 0.70654 -0.31022
 H246 H 0.33735 0.54480 -0.28476
 C247 C -0.20915 1.12332 -0.28838
 C248 C -0.18234 1.13750 -0.23043
 N249 N -0.17608 1.16873 -0.23042
 C250 C -0.19355 1.18625 -0.28696
 C251 C -0.21693 1.17178 -0.34746
 N252 N -0.22506 1.14064 -0.34555
 N253 N -0.21418 1.09210 -0.28993
 C254 C -0.19170 1.07421 -0.23763
 C255 C -0.16156 1.08809 -0.18212
 N256 N -0.15861 1.11958 -0.17892
 H257 H -0.18556 1.21086 -0.28687
 H258 H -0.19480 1.04928 -0.24166
 C259 C 0.69749 0.61994 -0.30417
 C260 C 0.67391 0.63461 -0.24482
 N261 N 0.67284 0.66604 -0.24177
 C262 C 0.69272 0.68345 -0.29644
 C263 C 0.71354 0.66875 -0.35802
 N264 N 0.71613 0.63725 -0.35922
 N265 N 0.69724 0.58863 -0.30886
 C266 C 0.67285 0.57124 -0.25803
 C267 C 0.64655 0.58583 -0.20048
 N268 N 0.64859 0.61727 -0.19447
 H269 H 0.68893 0.70838 -0.29375
 H270 H 0.67200 0.54632 -0.26427
 C271 C 0.16510 1.11928 -0.34239
 C272 C 0.15271 1.13313 -0.27649
 N273 N 0.16130 1.16395 -0.26777
 C274 C 0.18111 1.18163 -0.32219
 C275 C 0.19234 1.16794 -0.38988
 N276 N 0.18414 1.13684 -0.39654
 N277 N 0.15645 1.08861 -0.35228
 C278 C 0.13495 1.07113 -0.29933
 C279 C 0.12094 1.08497 -0.23355
 N280 N 0.13064 1.11576 -0.22336
 H281 H 0.18643 1.20599 -0.31193
 H282 H 0.12779 1.04679 -0.30922
 C283 C 0.31441 0.37651 -0.31784
 C284 C 0.34258 0.36204 -0.26144
 N285 N 0.34909 0.33077 -0.26252
 C286 C 0.32965 0.31339 -0.31819
 C287 C 0.30303 0.32805 -0.37621
 N288 N 0.29566 0.35930 -0.37340
 N289 N 0.30922 0.40776 -0.31873
 C290 C 0.33216 0.42541 -0.26656
 C291 C 0.36204 0.41122 -0.21115
 N292 N 0.36596 0.37970 -0.20930
 H293 H 0.33729 0.28873 -0.31849
 H294 H 0.32849 0.45037 -0.26958
 C295 C -0.21359 0.88076 -0.28974
 C296 C -0.18735 0.86605 -0.23189
 N297 N -0.18234 0.83471 -0.23206
 C298 C -0.20056 0.81755 -0.28868
 C299 C -0.22343 0.83248 -0.34904
 N300 N -0.23026 0.86377 -0.34697
 N301 N -0.21738 0.91206 -0.29109
 C302 C -0.19422 0.92949 -0.23866
 C303 C -0.16468 0.91502 -0.18320
 N304 N -0.16295 0.88349 -0.18023
 H305 H -0.19358 0.79280 -0.28871
 H306 H -0.19634 0.95448 -0.24252
 C307 C 0.28965 0.61491 0.30293
 C308 C 0.31205 0.62991 0.24345
 N309 N 0.31078 0.66131 0.24018
 C310 C 0.28984 0.67845 0.29482
 C311 C 0.27026 0.66351 0.35670
 N312 N 0.26984 0.63197 0.35793
 N313 N 0.29257 0.58363 0.30802
 C314 C 0.31853 0.56666 0.25748
 C315 C 0.34360 0.58166 0.19979
 N316 N 0.33884 0.61300 0.19337
 H317 H 0.29209 0.70342 0.29189
 H318 H 0.32155 0.54180 0.26406
 C319 C -0.15926 1.12229 0.34483
 C320 C -0.14676 1.13585 0.27876
 N321 N -0.15438 1.16678 0.26997
 C322 C -0.17336 1.18486 0.32447
 C323 C -0.18477 1.17146 0.39232
 N324 N -0.17751 1.14025 0.39907
 N325 N -0.15160 1.09151 0.35475
 C326 C -0.13099 1.07359 0.30163
 C327 C -0.11692 1.08709 0.23563
 N328 N -0.12560 1.11803 0.22546
 H329 H -0.17805 1.20927 0.31403
 H330 H -0.12461 1.04915 0.31153
 C331 C 0.69693 0.38160 0.31837
 C332 C 0.66960 0.36673 0.26201
 N333 N 0.66500 0.33539 0.26297
 C334 C 0.68552 0.31829 0.31849
 C335 C 0.71147 0.33327 0.37653
 N336 N 0.71694 0.36463 0.37373
 N337 N 0.69983 0.41294 0.31958
 C338 C 0.67544 0.43025 0.26771
 C339 C 0.64657 0.41558 0.21222
 N340 N 0.64494 0.38402 0.21012
 H341 H 0.67907 0.29357 0.31856
 H342 H 0.67725 0.45526 0.27094
 C343 C 0.20908 0.87667 0.28952
 C344 C 0.18219 0.86247 0.23168
 N345 N 0.17583 0.83125 0.23181
 C346 C 0.19332 0.81375 0.28839
 C347 C 0.21684 0.82825 0.34877
 N348 N 0.22503 0.85938 0.34672
 N349 N 0.21420 0.90789 0.29093
 C350 C 0.19174 0.92575 0.23856
 C351 C 0.16154 0.91185 0.18313
 N352 N 0.15849 0.88037 0.18010
 H353 H 0.18528 0.78915 0.28839
 H354 H 0.19491 0.95068 0.24247
   
