data_POSCAR
  _audit_creation_date              2014-09-24
  _audit_creation_method            'ToBaCCo'
  _symmetry_space_group_name_H-M    'P1'
  _symmetry_Int_Tables_number       1
  _symmetry_cell_setting            triclinic
  loop_
  _symmetry_equiv_pos_as_xyz
 x,y,z
_cell_length_a 48.1353
_cell_length_b 47.8173
_cell_length_c 47.9913
_cell_angle_alpha 90.149500
_cell_angle_beta 90.025900
_cell_angle_gamma 90.087200
loop_
  _atom_site_label
  _atom_site_type_symbol
  _atom_site_fract_x
  _atom_site_fract_y
  _atom_site_fract_z
N1 N 0.20526 1.20454 0.20470
 N2 N 0.79218 0.79249 0.20591
 N3 N 0.79761 1.20224 -0.20252
 N4 N 0.20350 0.79788 -0.20469
 C5 C 0.54417 1.03831 -0.00711
 H6 H 0.54468 1.03796 0.01542
 C7 C 0.56369 1.05406 -0.02178
 H8 H 0.57892 1.06617 -0.01032
 C9 C 0.52371 1.02268 -0.04930
 H10 H 0.50851 1.00990 -0.05995
 C11 C 0.54285 1.03815 -0.06481
 H12 H 0.54214 1.03710 -0.08734
 N13 N 0.52465 1.02311 -0.02097
 C14 C 0.45871 1.00995 0.03984
 H15 H 0.45747 0.98736 0.03945
 C16 C 0.44021 1.02530 0.05619
 H17 H 0.42465 1.01433 0.06825
 C18 C 0.47970 1.05161 0.02339
 H19 H 0.49477 1.06180 0.01019
 C20 C 0.46158 1.06780 0.03942
 H21 H 0.46330 1.09037 0.03879
 Zn22 Zn 0.50064 1.00071 0.00080
 N23 N 0.47801 1.02322 0.02395
 C24 C 0.52293 0.97757 0.05070
 N25 N 0.52352 0.97700 0.02236
 C26 C 0.54196 0.96071 0.00834
 C27 C 0.56075 0.94399 0.02285
 C28 C 0.54138 0.96115 0.06605
 C29 C 0.45789 0.99387 -0.03788
 C30 C 0.43836 0.97960 -0.05407
 C31 C 0.45732 0.93596 -0.03745
 C32 C 0.47650 0.95109 -0.02156
 N33 N 0.47650 0.97953 -0.02213
 H34 H 0.50862 0.99120 0.06147
 H35 H 0.54222 0.96097 -0.01420
 H36 H 0.57515 0.93105 0.01126
 H37 H 0.54103 0.96234 0.08858
 H38 H 0.45810 1.01650 -0.03763
 H39 H 0.42386 0.99143 -0.06661
 H40 H 0.45727 0.91335 -0.03628
 H41 H 0.49095 0.94006 -0.00835
 C42 C 0.44140 1.05465 0.05601
 C43 C 0.56331 1.05398 -0.05104
 C44 C 0.43780 0.95023 -0.05386
 C45 C 0.56077 0.94422 0.05211
 C46 C -0.00678 0.54334 1.03764
 H47 H 0.01569 0.54384 1.03756
 C48 C -0.02157 0.56256 1.05372
 H49 H -0.01029 0.57757 1.06633
 C50 C -0.04866 0.52313 1.02112
 H51 H -0.05915 0.50815 1.00792
 C52 C -0.06430 0.54199 1.03691
 H53 H -0.08675 0.54127 1.03566
 N54 N -0.02043 0.52406 1.02188
 C55 C 0.03970 0.45729 1.00844
 H56 H 0.03962 0.45632 0.98591
 C57 C 0.05569 0.43840 1.02367
 H58 H 0.06777 0.42280 1.01267
 C59 C 0.02296 0.47806 1.05004
 H60 H 0.00981 0.49322 1.06025
 C61 C 0.03861 0.45954 1.06610
 H62 H 0.03775 0.46106 1.08860
 Zn63 Zn 0.00148 0.50017 0.99939
 N64 N 0.02388 0.47670 1.02174
 C65 C 0.05194 0.52222 0.97746
 N66 N 0.02372 0.52342 0.97663
 C67 C 0.01036 0.54258 0.96062
 C68 C 0.02544 0.56139 0.94435
 C69 C 0.06786 0.54068 0.96153
 C70 C -0.03733 0.45757 0.99091
 C71 C -0.05358 0.43857 0.97594
 C72 C -0.03625 0.45874 0.93323
 C73 C -0.02034 0.47739 0.94904
 N74 N -0.02126 0.47656 0.97735
 H75 H 0.06220 0.50726 0.99075
 H76 H -0.01210 0.54343 0.96079
 H77 H 0.01439 0.57679 0.93215
 H78 H 0.09029 0.53932 0.96233
 H79 H -0.03723 0.45701 1.01345
 H80 H -0.06585 0.42331 0.98715
 H81 H -0.03539 0.45983 0.91071
 H82 H -0.00700 0.49223 0.93862
 C83 C 0.05520 0.43930 1.05293
 C84 C -0.05075 0.56214 1.05340
 C85 C -0.05310 0.43892 0.94668
 C86 C 0.05461 0.56067 0.94475
 C87 C 1.03732 -0.00818 0.54142
 H88 H 1.03724 0.01444 0.54202
 C89 C 1.05358 -0.02313 0.56028
 H90 H 1.06587 -0.01181 0.57549
 C91 C 1.02029 -0.05028 0.52160
 H92 H 1.00693 -0.06080 0.50682
 C93 C 1.03621 -0.06608 0.54011
 H94 H 1.03533 -0.08868 0.53897
 N95 N 1.02123 -0.02186 0.52249
 C96 C 1.00674 0.03856 0.45625
 H97 H 0.98427 0.03853 0.45588
 C98 C 1.02152 0.05451 0.43697
 H99 H 1.01023 0.06709 0.42206
 C100 C 1.04864 0.02193 0.47611
 H101 H 1.05913 0.00870 0.49096
 C102 C 1.06426 0.03758 0.45719
 H103 H 1.08671 0.03621 0.45773
 Zn104 Zn 0.99850 0.00017 0.49907
 N105 N 1.02040 0.02278 0.47536
 C106 C 0.97699 0.05092 0.52145
 N107 N 0.97603 0.02252 0.52255
 C108 C 0.96014 0.00909 0.54174
 C109 C 0.94416 0.02429 0.56071
 C110 C 0.96134 0.06697 0.54005
 C111 C 0.98983 -0.03875 0.45663
 C112 C 0.97488 -0.05494 0.43760
 C113 C 0.93232 -0.03780 0.45809
 C114 C 0.94812 -0.02191 0.47676
 N115 N 0.97635 -0.02273 0.47575
 H116 H 0.99019 0.06124 0.50645
 H117 H 0.96020 -0.01353 0.54251
 H118 H 0.93205 0.01318 0.57614
 H119 H 0.96226 0.08955 0.53876
 H120 H 1.01230 -0.03870 0.45605
 H121 H 0.98604 -0.06769 0.42268
 H122 H 0.90989 -0.03644 0.45882
 H123 H 0.93777 -0.00850 0.49161
 C124 C 1.05070 0.05403 0.43716
 C125 C 1.05308 -0.05250 0.55986
 C126 C 0.94571 -0.05447 0.43804
 C127 C 0.94472 0.05365 0.56010
 C128 C 0.19497 0.27405 1.16990
 C129 C 0.16604 0.27460 1.16691
 C130 C 0.15002 0.25230 1.17684
 C131 C 0.16286 0.22944 1.18952
 C132 C 0.19191 0.22859 1.19242
 C133 C 0.20784 0.25118 1.18259
 C134 C 0.15275 0.29767 1.15309
 C135 C 0.14133 0.31666 1.14126
 C136 C 0.12761 0.33850 1.12714
 C137 C 0.11562 0.35683 1.11486
 C138 C 0.10095 0.37832 1.09994
 C139 C 0.07440 0.38646 1.10858
 C140 C 0.05966 0.40655 1.09351
 C141 C 0.07128 0.41874 1.06953
 C142 C 0.09812 0.41062 1.06119
 C143 C 0.11283 0.39054 1.07631
 H144 H 0.20757 0.29118 1.16227
 H145 H 0.12763 0.25246 1.17454
 H146 H 0.15017 0.21216 1.19664
 H147 H 0.23023 0.25101 1.18472
 H148 H 0.06494 0.37703 1.12676
 H149 H 0.03890 0.41204 1.10025
 H150 H 0.10777 0.41986 1.04303
 H151 H 0.13338 0.38439 1.06944
 C152 C -0.19564 0.72341 1.17053
 C153 C -0.16665 0.72339 1.16815
 C154 C -0.15122 0.74585 1.17876
 C155 C -0.16470 0.76837 1.19147
 C156 C -0.19382 0.76871 1.19373
 C157 C -0.20916 0.74594 1.18326
 C158 C -0.15268 0.70078 1.15414
 C159 C -0.14060 0.68228 1.14212
 C160 C -0.12604 0.66110 1.12773
 C161 C -0.11326 0.64344 1.11520
 C162 C -0.09759 0.62287 1.09994
 C163 C -0.07327 0.63080 1.08608
 C164 C -0.05802 0.61104 1.07103
 C165 C -0.06689 0.58302 1.06963
 C166 C -0.09138 0.57523 1.08366
 C167 C -0.10661 0.59505 1.09873
 H168 H -0.20779 0.70615 1.16235
 H169 H -0.12879 0.74611 1.17692
 H170 H -0.15245 0.78580 1.19909
 H171 H -0.23159 0.74573 1.18488
 H172 H -0.06616 0.65230 1.08678
 H173 H -0.03952 0.61780 1.06012
 H174 H -0.09858 0.55377 1.08323
 H175 H -0.12539 0.58868 1.10943
 C176 C -0.16649 0.27038 0.80682
 C177 C -0.16598 0.27255 0.83588
 C178 C -0.17809 0.25159 0.85210
 C179 C -0.19046 0.22838 0.83940
 C180 C -0.19092 0.22560 0.81006
 C181 C -0.17883 0.24719 0.79401
 C182 C -0.15239 0.29589 0.84914
 C183 C -0.14073 0.31509 0.86053
 C184 C -0.12674 0.33718 0.87418
 C185 C -0.11453 0.35571 0.88609
 C186 C -0.09962 0.37742 0.90061
 C187 C -0.11134 0.39024 0.92406
 C188 C -0.09639 0.41051 0.93885
 C189 C -0.06946 0.41821 0.93037
 C190 C -0.05800 0.40543 0.90657
 C191 C -0.07299 0.38516 0.89182
 H192 H -0.15723 0.28655 0.79405
 H193 H -0.17764 0.25299 0.87464
 H194 H -0.19884 0.21211 0.85261
 H195 H -0.17922 0.24627 0.77146
 H196 H -0.13195 0.38441 0.93104
 H197 H -0.10591 0.42021 0.95688
 H198 H -0.03719 0.41060 0.89973
 H199 H -0.06365 0.37526 0.87379
 C200 C 0.14871 0.74880 0.82201
 C201 C 0.16497 0.72685 0.83220
 C202 C 0.19393 0.72806 0.82975
 C203 C 0.20659 0.75124 0.81735
 C204 C 0.19040 0.77350 0.80728
 C205 C 0.16132 0.77199 0.80964
 C206 C 0.15190 0.70347 0.84577
 C207 C 0.14065 0.68423 0.85741
 C208 C 0.12714 0.66210 0.87134
 C209 C 0.11531 0.64355 0.88350
 C210 C 0.10083 0.62184 0.89832
 C211 C 0.10966 0.61395 0.92495
 C212 C 0.09489 0.59375 0.93989
 C213 C 0.07102 0.58120 0.92839
 C214 C 0.06252 0.58902 0.90145
 C215 C 0.07734 0.60921 0.88654
 H216 H 0.12629 0.74814 0.82391
 H217 H 0.20672 0.71119 0.83759
 H218 H 0.22900 0.75192 0.81564
 H219 H 0.14844 0.78899 0.80231
 H220 H 0.12773 0.62370 0.93432
 H221 H 0.10174 0.58848 0.96071
 H222 H 0.04444 0.57949 0.89190
 H223 H 0.07033 0.61515 0.86594
 C224 C 1.16957 0.19410 0.27349
 C225 C 1.16719 0.16493 0.27427
 C226 C 1.17791 0.14880 0.25241
 C227 C 1.19072 0.16177 0.22973
 C228 C 1.19296 0.19108 0.22863
 C229 C 1.18239 0.20711 0.25081
 C230 C 1.15304 0.15151 0.29702
 C231 C 1.14084 0.13999 0.31569
 C232 C 1.12617 0.12618 0.33709
 C233 C 1.11332 0.11412 0.35496
 C234 C 1.09757 0.09939 0.37578
 C235 C 1.07301 0.08563 0.36825
 C236 C 1.05773 0.07100 0.38822
 C237 C 1.06682 0.06993 0.41608
 C238 C 1.09153 0.08387 0.42347
 C239 C 1.10679 0.09852 0.40343
 H240 H 1.16130 0.20679 0.29028
 H241 H 1.17607 0.12622 0.25274
 H242 H 1.19843 0.14900 0.21277
 H243 H 1.18400 0.22970 0.25045
 H244 H 1.06574 0.08606 0.34688
 H245 H 1.03905 0.06013 0.38176
 H246 H 1.09891 0.08368 0.44478
 H247 H 1.12576 0.10914 0.40948
 C248 C 1.16899 -0.19219 0.72582
 C249 C 1.16621 -0.16306 0.72504
 C250 C 1.17618 -0.14680 0.74718
 C251 C 1.18868 -0.15959 0.77013
 C252 C 1.19137 -0.18884 0.77120
 C253 C 1.18151 -0.20502 0.74877
 C254 C 1.15255 -0.14983 0.70189
 C255 C 1.14083 -0.13847 0.68283
 C256 C 1.12680 -0.12486 0.66090
 C257 C 1.11456 -0.11297 0.64250
 C258 C 1.09963 -0.09848 0.62094
 C259 C 1.07299 -0.10736 0.61326
 C260 C 1.05799 -0.09265 0.59313
 C261 C 1.06945 -0.06878 0.58042
 C262 C 1.09639 -0.06021 0.58806
 C263 C 1.11136 -0.07498 0.60819
 H264 H 1.16132 -0.20499 0.70881
 H265 H 1.17403 -0.12425 0.74685
 H266 H 1.19584 -0.14671 0.78728
 H267 H 1.18348 -0.22757 0.74911
 H268 H 1.06365 -0.12545 0.62311
 H269 H 1.03717 -0.09955 0.58801
 H270 H 1.10591 -0.04214 0.57841
 H271 H 1.13198 -0.06793 0.61396
 C272 C 0.82664 -0.19648 0.27532
 C273 C 0.82883 -0.16729 0.27613
 C274 C 0.81825 -0.15134 0.25414
 C275 C 0.80583 -0.16451 0.23128
 C276 C 0.80384 -0.19383 0.23012
 C277 C 0.81420 -0.20969 0.25246
 C278 C 0.84280 -0.15367 0.29896
 C279 C 0.85491 -0.14195 0.31763
 C280 C 0.86957 -0.12789 0.33896
 C281 C 0.88247 -0.11560 0.35671
 C282 C 0.89834 -0.10059 0.37732
 C283 C 0.92281 -0.08687 0.36952
 C284 C 0.93824 -0.07199 0.38928
 C285 C 0.92940 -0.07062 0.41719
 C286 C 0.90477 -0.08450 0.42487
 C287 C 0.88936 -0.09941 0.40504
 H288 H 0.83481 -0.20903 0.29220
 H289 H 0.81996 -0.12875 0.25448
 H290 H 0.79830 -0.15186 0.21420
 H291 H 0.81278 -0.23229 0.25204
 H292 H 0.92990 -0.08754 0.34810
 H293 H 0.95685 -0.06117 0.38260
 H294 H 0.89758 -0.08407 0.44624
 H295 H 0.87046 -0.10999 0.41131
 C296 C 0.80630 0.16641 0.72934
 C297 C 0.83524 0.16612 0.72691
 C298 C 0.85160 0.17835 0.74771
 C299 C 0.83915 0.19062 0.77100
 C300 C 0.80993 0.19087 0.77403
 C301 C 0.79373 0.17866 0.75261
 C302 C 0.84826 0.15262 0.70348
 C303 C 0.85948 0.14104 0.68421
 C304 C 0.87298 0.12719 0.66203
 C305 C 0.88481 0.11511 0.64344
 C306 C 0.89930 0.10039 0.62166
 C307 C 0.92583 0.10913 0.61352
 C308 C 0.94045 0.09417 0.59322
 C309 C 0.92871 0.07021 0.58081
 C310 C 0.90188 0.06180 0.58890
 C311 C 0.88729 0.07680 0.60921
 H312 H 0.79342 0.15705 0.71330
 H313 H 0.87405 0.17806 0.74612
 H314 H 0.85248 0.19910 0.78713
 H315 H 0.77127 0.17889 0.75373
 H316 H 0.93539 0.12727 0.62314
 H317 H 0.96121 0.10096 0.58774
 H318 H 0.89215 0.04365 0.57950
 H319 H 0.86676 0.06986 0.61535
 C320 C 0.27486 1.17032 0.19546
 C321 C 0.27615 1.16776 0.16642
 C322 C 0.25432 1.17781 0.15000
 C323 C 0.23118 1.19016 0.16253
 C324 C 0.22959 1.19262 0.19169
 C325 C 0.25171 1.18269 0.20804
 C326 C 0.29949 1.15422 0.15341
 C327 C 0.31868 1.14260 0.14218
 C328 C 0.34073 1.12870 0.12863
 C329 C 0.35919 1.11657 0.11672
 C330 C 0.38077 1.10179 0.10210
 C331 C 0.38907 1.11065 0.07561
 C332 C 0.40911 1.09558 0.06080
 C333 C 0.42108 1.07138 0.07229
 C334 C 0.41286 1.06286 0.09910
 C335 C 0.39282 1.07797 0.11388
 H336 H 0.29163 1.16259 0.20837
 H337 H 0.25506 1.17583 0.12751
 H338 H 0.21428 1.19737 0.14952
 H339 H 0.25097 1.18449 0.23052
 H340 H 0.37976 1.12897 0.06623
 H341 H 0.41469 1.10247 0.04007
 H342 H 0.42193 1.04452 0.10865
 H343 H 0.38655 1.07093 0.13438
 C344 C 0.73017 1.19295 -0.16621
 C345 C 0.72790 1.16380 -0.16597
 C346 C 0.74853 1.14750 -0.17846
 C347 C 0.77152 1.16021 -0.19091
 C348 C 0.77441 1.18965 -0.19106
 C349 C 0.75313 1.20578 -0.17863
 C350 C 0.70491 1.15051 -0.15213
 C351 C 0.68604 1.13909 -0.14017
 C352 C 0.66441 1.12539 -0.12575
 C353 C 0.64637 1.11342 -0.11308
 C354 C 0.62535 1.09880 -0.09752
 C355 C 0.63265 1.08450 -0.07321
 C356 C 0.61247 1.07003 -0.05807
 C357 C 0.58463 1.06966 -0.06705
 C358 C 0.57747 1.08413 -0.09152
 C359 C 0.59772 1.09862 -0.10664
 H360 H 0.71427 1.20578 -0.15664
 H361 H 0.74707 1.12488 -0.17821
 H362 H 0.78755 1.14693 -0.19957
 H363 H 0.75415 1.22840 -0.17878
 H364 H 0.65399 1.08440 -0.06603
 H365 H 0.61874 1.05874 -0.03959
 H366 H 0.55618 1.08448 -0.09881
 H367 H 0.59184 1.10966 -0.12542
 C368 C 0.25127 0.82551 -0.14916
 C369 C 0.27317 0.83603 -0.16522
 C370 C 0.27237 0.83346 -0.19428
 C371 C 0.24964 0.82063 -0.20724
 C372 C 0.22744 0.81024 -0.19127
 C373 C 0.22854 0.81270 -0.16208
 C374 C 0.29605 0.85009 -0.15185
 C375 C 0.31485 0.86217 -0.14035
 C376 C 0.33644 0.87664 -0.12656
 C377 C 0.35450 0.88928 -0.11450
 C378 C 0.37561 0.90469 -0.09974
 C379 C 0.36867 0.92954 -0.08596
 C380 C 0.38892 0.94441 -0.07121
 C381 C 0.41645 0.93463 -0.07001
 C382 C 0.42326 0.90966 -0.08402
 C383 C 0.40295 0.89481 -0.09879
 H384 H 0.25163 0.82749 -0.12667
 H385 H 0.28919 0.84156 -0.20691
 H386 H 0.24927 0.81885 -0.22973
 H387 H 0.21157 0.80513 -0.14936
 H388 H 0.34755 0.93732 -0.08646
 H389 H 0.38291 0.96331 -0.06030
 H390 H 0.44432 0.90175 -0.08374
 H391 H 0.40855 0.87561 -0.10942
 C392 C 0.74455 0.81912 0.14999
 C393 C 0.72227 0.82912 0.16584
 C394 C 0.72273 0.82646 0.19488
 C395 C 0.74552 0.81407 0.20804
 C396 C 0.76812 0.80424 0.19227
 C397 C 0.76734 0.80676 0.16310
 C398 C 0.69942 0.84289 0.15225
 C399 C 0.68075 0.85476 0.14046
 C400 C 0.65943 0.86904 0.12620
 C401 C 0.64171 0.88156 0.11363
 C402 C 0.62117 0.89688 0.09815
 C403 C 0.59371 0.89842 0.10763
 C404 C 0.57397 0.91370 0.09263
 C405 C 0.58149 0.92761 0.06793
 C406 C 0.60914 0.92585 0.05859
 C407 C 0.62880 0.91060 0.07360
 H408 H 0.74447 0.82119 0.12751
 H409 H 0.70561 0.83418 0.20736
 H410 H 0.74565 0.81225 0.23052
 H411 H 0.78462 0.79964 0.15053
 H412 H 0.58757 0.88786 0.12660
 H413 H 0.55280 0.91443 0.10021
 H414 H 0.61570 0.93668 0.03992
 H415 H 0.65002 0.90965 0.06614
   
