data_POSCAR
  _audit_creation_date              2014-09-24
  _audit_creation_method            'ToBaCCo'
  _symmetry_space_group_name_H-M    'P1'
  _symmetry_Int_Tables_number       1
  _symmetry_cell_setting            triclinic
  loop_
  _symmetry_equiv_pos_as_xyz
 x,y,z
_cell_length_a 44.4239
_cell_length_b 45.0222
_cell_length_c 43.9020
_cell_angle_alpha 89.781300
_cell_angle_beta 90.201700
_cell_angle_gamma 90.053600
loop_
  _atom_site_label
  _atom_site_type_symbol
  _atom_site_fract_x
  _atom_site_fract_y
  _atom_site_fract_z
N1 N 0.19203 1.25505 0.16904
 N2 N 0.17082 1.25507 0.18989
 C3 C 0.15079 1.27663 0.18325
 C4 C 0.16021 1.29079 0.15708
 C5 C 0.18628 1.27660 0.14848
 H6 H 0.13015 1.28073 0.19551
 H7 H 0.19913 1.28060 0.12799
 Cu8 Cu 0.16946 1.22470 0.22152
 Cu9 Cu 0.22354 1.22504 0.16809
 Cu10 Cu 0.22169 1.17069 0.22421
 N11 N 0.16873 1.19406 0.25288
 N12 N 0.18923 1.17300 0.25379
 C13 C 0.18211 1.15335 0.27583
 C14 C 0.15587 1.16276 0.28934
 C15 C 0.14778 1.18847 0.27430
 H16 H 0.19417 1.13299 0.28057
 H17 H 0.12744 1.20118 0.27768
 N18 N 0.25274 1.17216 0.19231
 N19 N 0.25345 1.19287 0.17093
 C20 C 0.27589 1.18668 0.15137
 C21 C 0.28982 1.16101 0.16106
 C22 C 0.27470 1.15225 0.18690
 H23 H 0.28091 1.19911 0.13089
 H24 H 0.27860 1.13219 0.19994
 H25 H 0.19885 1.19178 0.18913
 H26 H 0.22299 1.21542 0.21410
 N27 N 0.80908 0.74592 0.17186
 N28 N 0.82871 0.74473 0.19434
 C29 C 0.84899 0.72328 0.18844
 C30 C 0.84150 0.71053 0.16091
 C31 C 0.81621 0.72536 0.15091
 H32 H 0.86845 0.71823 0.20240
 H33 H 0.80474 0.72236 0.12936
 Cu34 Cu 0.82784 0.77296 0.22786
 Cu35 Cu 0.77742 0.77559 0.16998
 Cu36 Cu 0.77907 0.83053 0.22448
 N37 N 0.83062 0.80655 0.25558
 N38 N 0.81160 0.82890 0.25411
 C39 C 0.81993 0.84982 0.27431
 C40 C 0.84536 0.83988 0.28919
 C41 C 0.85173 0.81247 0.27686
 H42 H 0.80911 0.87117 0.27699
 H43 H 0.87088 0.79850 0.28204
 N44 N 0.74787 0.82847 0.19267
 N45 N 0.74725 0.80746 0.17178
 C46 C 0.72487 0.81332 0.15185
 C47 C 0.71083 0.83908 0.16082
 C48 C 0.72589 0.84826 0.18659
 H49 H 0.72009 0.80069 0.13149
 H50 H 0.72207 0.86860 0.19900
 H51 H 0.80344 0.80693 0.19246
 H52 H 0.77571 0.78542 0.21598
 N53 N 0.80590 1.25477 -0.17374
 N54 N 0.82461 1.25656 -0.19684
 C55 C 0.84490 1.27815 -0.19141
 C56 C 0.83832 1.29051 -0.16354
 C57 C 0.81360 1.27524 -0.15283
 H58 H 0.86377 1.28352 -0.20595
 H59 H 0.80293 1.27787 -0.13090
 Cu60 Cu 0.82240 1.22879 -0.23043
 Cu61 Cu 0.77499 1.22411 -0.17110
 Cu62 Cu 0.77765 1.16877 -0.22563
 N63 N 0.82755 1.19517 -0.25737
 N64 N 0.80985 1.17178 -0.25553
 C65 C 0.81934 1.15108 -0.27535
 C66 C 0.84417 1.16227 -0.29025
 C67 C 0.84899 1.19017 -0.27835
 H68 H 0.80973 1.12913 -0.27778
 H69 H 0.86733 1.20515 -0.28359
 N70 N 0.74691 1.16993 -0.19337
 N71 N 0.74588 1.19104 -0.17257
 C72 C 0.72394 1.18455 -0.15249
 C73 C 0.71064 1.15827 -0.16124
 C74 C 0.72565 1.14947 -0.18707
 H75 H 0.71892 1.19719 -0.13224
 H76 H 0.72224 1.12901 -0.19944
 H77 H 0.80119 1.19381 -0.19420
 H78 H 0.77148 1.21348 -0.21680
 N79 N 0.19115 0.74446 -0.17000
 N80 N 0.17314 0.74253 -0.19376
 C81 C 0.15254 0.72112 -0.18867
 C82 C 0.15820 0.70905 -0.16031
 C83 C 0.18269 0.72429 -0.14899
 H84 H 0.13412 0.71567 -0.20383
 H85 H 0.19272 0.72180 -0.12664
 Cu86 Cu 0.17666 0.76987 -0.22784
 Cu87 Cu 0.22229 0.77483 -0.16681
 Cu88 Cu 0.22170 0.82966 -0.22233
 N89 N 0.17241 0.80345 -0.25535
 N90 N 0.19023 0.82672 -0.25323
 C91 C 0.18128 0.84746 -0.27348
 C92 C 0.15668 0.83645 -0.28898
 C93 C 0.15142 0.80859 -0.27696
 H94 H 0.19104 0.86939 -0.27576
 H95 H 0.13303 0.79376 -0.28250
 N96 N 0.25158 0.82848 -0.18904
 N97 N 0.25178 0.80756 -0.16784
 C98 C 0.27332 0.81393 -0.14718
 C99 C 0.28721 0.83993 -0.15596
 C100 C 0.27298 0.84870 -0.18242
 H101 H 0.27770 0.80138 -0.12659
 H102 H 0.27705 0.86895 -0.19508
 H103 H 0.19696 0.80505 -0.19140
 H104 H 0.22723 0.78498 -0.21248
 C105 C 0.46635 0.98101 -0.01698
 C106 C 0.48295 1.00045 0.00150
 C107 C 0.46794 1.02021 0.02085
 C108 C 0.43643 1.02046 0.02175
 C109 C 0.41993 1.00106 0.00326
 C110 C 0.43484 0.98136 -0.01611
 C111 C 0.51600 0.99990 0.00082
 C112 C 0.53176 1.01903 -0.01878
 C113 C 0.56328 1.01844 -0.01934
 C114 C 0.57901 0.99885 -0.00029
 C115 C 0.56337 0.97977 0.01931
 C116 C 0.53187 0.98024 0.01985
 H117 H 0.47793 0.96570 -0.03191
 H118 H 0.48076 1.03517 0.03521
 H119 H 0.51953 1.03422 -0.03350
 H120 H 0.51973 0.96548 0.03505
 H121 H 0.39552 1.00123 0.00399
 H122 H 0.60343 0.99846 -0.00069
 C123 C -0.02140 0.46690 0.97927
 C124 C -0.00237 0.48252 0.99916
 C125 C 0.01736 0.46692 1.01845
 C126 C 0.01805 0.43583 1.01780
 C127 C -0.00097 0.42034 0.99795
 C128 C -0.02069 0.43581 0.97870
 C129 C -0.00260 0.51515 0.99924
 C130 C -0.02145 0.53061 1.01929
 C131 C -0.02154 0.56173 1.01921
 C132 C -0.00284 0.57734 0.99918
 C133 C 0.01598 0.56202 0.97919
 C134 C 0.01611 0.53093 0.97917
 H135 H -0.03654 0.47892 0.96424
 H136 H 0.03222 0.47895 1.03369
 H137 H -0.03592 0.51847 1.03481
 H138 H 0.03070 0.51903 0.96369
 H139 H -0.00032 0.39626 0.99737
 H140 H -0.00289 0.60144 0.99918
 C141 C 0.98358 -0.01980 0.46860
 C142 C 1.00082 0.00108 0.48471
 C143 C 1.01788 0.02227 0.46878
 C144 C 1.01786 0.02240 0.43688
 C145 C 1.00048 0.00168 0.42092
 C146 C 0.98326 -0.01933 0.43670
 C147 C 1.00097 0.00081 0.51820
 C148 C 1.01758 -0.02079 0.53413
 C149 C 1.01784 -0.02089 0.56603
 C150 C 1.00120 0.00029 0.58201
 C151 C 0.98446 0.02173 0.56622
 C152 C 0.98451 0.02215 0.53433
 H153 H 0.97028 -0.03610 0.48086
 H154 H 1.03131 0.03835 0.48117
 H155 H 1.03044 -0.03721 0.52172
 H156 H 0.97155 0.03876 0.52208
 H157 H 1.00037 0.00190 0.39620
 H158 H 1.00128 0.00009 0.60673
 C159 C 0.07492 0.38580 1.07055
 C160 C 0.08147 0.35671 1.06034
 C161 C 0.09998 0.33773 1.07830
 C162 C 0.11181 0.34791 1.10638
 C163 C 0.10557 0.37711 1.11640
 C164 C 0.08709 0.39613 1.09841
 C165 C 0.08112 0.42520 1.10890
 C166 C 0.09307 0.43522 1.13641
 C167 C 0.11111 0.41662 1.15402
 C168 C 0.11735 0.38787 1.14424
 C169 C 0.10613 0.30872 1.06764
 C170 C 0.09434 0.29875 1.04006
 C171 C 0.07622 0.31731 1.02252
 C172 C 0.06978 0.34596 1.03242
 C173 C 0.12980 0.32804 1.12516
 C174 C 0.14431 0.31087 1.14038
 C175 C 0.05520 0.40471 1.05254
 C176 C 0.03845 0.41948 1.03704
 H177 H 0.06722 0.44047 1.09598
 H178 H 0.08830 0.45753 1.14410
 H179 H 0.12033 0.42450 1.17537
 H180 H 0.13152 0.37422 1.15869
 H181 H 0.12012 0.29345 1.08045
 H182 H 0.09929 0.27651 1.03226
 H183 H 0.06710 0.30947 1.00111
 H184 H 0.05558 0.35954 1.01794
 C185 C -0.07365 0.61306 1.07477
 C186 C -0.09668 0.60154 1.09363
 C187 C -0.11423 0.62111 1.11169
 C188 C -0.10857 0.65206 1.11084
 C189 C -0.08547 0.66357 1.09201
 C190 C -0.06793 0.64401 1.07398
 C191 C -0.04493 0.65606 1.05539
 C192 C -0.03946 0.68652 1.05458
 C193 C -0.05666 0.70565 1.07214
 C194 C -0.07942 0.69444 1.09068
 C195 C -0.13722 0.60909 1.13026
 C196 C -0.14268 0.57861 1.13104
 C197 C -0.12546 0.55949 1.11345
 C198 C -0.10270 0.57070 1.09490
 C199 C -0.12651 0.67216 1.12916
 C200 C -0.14119 0.68936 1.14396
 C201 C -0.05592 0.59334 1.05585
 C202 C -0.04060 0.57814 1.03951
 H203 H -0.03091 0.64212 1.04130
 H204 H -0.02176 0.69532 1.04026
 H205 H -0.05234 0.72932 1.07141
 H206 H -0.09220 0.71023 1.10390
 H207 H -0.15122 0.62308 1.14432
 H208 H -0.16035 0.56977 1.14538
 H209 H -0.12976 0.53583 1.11417
 H210 H -0.08990 0.55497 1.08162
 C211 C -0.07347 0.38644 0.92143
 C212 C -0.10329 0.39488 0.91396
 C213 C -0.12144 0.37601 0.89558
 C214 C -0.10962 0.34885 0.88474
 C215 C -0.07958 0.34070 0.89170
 C216 C -0.06147 0.35952 0.91013
 C217 C -0.03159 0.35077 0.91699
 C218 C -0.01992 0.32423 0.90589
 C219 C -0.03761 0.30586 0.88781
 C220 C -0.06711 0.31388 0.88073
 C221 C -0.15125 0.38482 0.88858
 C222 C -0.16279 0.41153 0.89939
 C223 C -0.14504 0.43000 0.91732
 C224 C -0.11561 0.42187 0.92461
 C225 C -0.12849 0.32887 0.86714
 C226 C -0.14384 0.31169 0.85292
 C227 C -0.05531 0.40493 0.94135
 C228 C -0.03980 0.41950 0.95822
 H229 H -0.01692 0.36432 0.93093
 H230 H 0.00298 0.31790 0.91135
 H231 H -0.02843 0.28527 0.87922
 H232 H -0.07996 0.29885 0.86655
 H233 H -0.16590 0.37121 0.87468
 H234 H -0.18564 0.41794 0.89380
 H235 H -0.15411 0.45074 0.92564
 H236 H -0.10264 0.43697 0.93860
 C237 C 0.06898 0.61300 0.92370
 C238 C 0.09192 0.60099 0.90516
 C239 C 0.11017 0.62019 0.88721
 C240 C 0.10532 0.65126 0.88790
 C241 C 0.08221 0.66324 0.90627
 C242 C 0.06400 0.64406 0.92423
 C243 C 0.04113 0.65659 0.94253
 C244 C 0.03638 0.68716 0.94307
 C245 C 0.05417 0.70592 0.92549
 C246 C 0.07684 0.69422 0.90726
 C247 C 0.13306 0.60769 0.86898
 C248 C 0.13778 0.57709 0.86846
 C249 C 0.11992 0.55833 0.88599
 C250 C 0.09721 0.57003 0.90417
 C251 C 0.12432 0.67104 0.87016
 C252 C 0.13990 0.68805 0.85594
 C253 C 0.05071 0.59365 0.94264
 C254 C 0.03512 0.57859 0.95897
 H255 H 0.02667 0.64294 0.95661
 H256 H 0.01880 0.69634 0.95721
 H257 H 0.05039 0.72966 0.92598
 H258 H 0.09007 0.70974 0.89400
 H259 H 0.14751 0.62139 0.85495
 H260 H 0.15540 0.56790 0.85439
 H261 H 0.12368 0.53459 0.88550
 H262 H 0.08388 0.55457 0.91740
 C263 C 1.06852 0.07947 0.38550
 C264 C 1.09150 0.09749 0.39809
 C265 C 1.10959 0.11544 0.37868
 C266 C 1.10452 0.11530 0.34682
 C267 C 1.08124 0.09760 0.33428
 C268 C 1.06320 0.07963 0.35367
 C269 C 1.04018 0.06198 0.34056
 C270 C 1.03513 0.06208 0.30923
 C271 C 1.05275 0.07967 0.29027
 C272 C 1.07556 0.09727 0.30252
 C273 C 1.13256 0.13311 0.39176
 C274 C 1.13752 0.13308 0.42312
 C275 C 1.11980 0.11557 0.44209
 C276 C 1.09702 0.09793 0.42984
 C277 C 1.12342 0.13299 0.32680
 C278 C 1.13885 0.14722 0.30953
 C279 C 1.05082 0.06011 0.40498
 C280 C 1.03591 0.04332 0.42016
 H281 H 1.02583 0.04794 0.35434
 H282 H 1.01744 0.04844 0.29961
 H283 H 1.04873 0.07969 0.26593
 H284 H 1.08864 0.11058 0.28682
 H285 H 1.14691 0.14710 0.37792
 H286 H 1.15520 0.14673 0.43275
 H287 H 1.12373 0.11565 0.46644
 H288 H 1.08379 0.08471 0.44550
 C289 C 1.06760 -0.07958 0.61672
 C290 C 1.06268 -0.08014 0.64857
 C291 C 1.08073 -0.09859 0.66757
 C292 C 1.10361 -0.11637 0.65462
 C293 C 1.10816 -0.11621 0.62271
 C294 C 1.09007 -0.09778 0.60370
 C295 C 1.09508 -0.09791 0.57189
 C296 C 1.11736 -0.11574 0.55921
 C297 C 1.13508 -0.13372 0.57780
 C298 C 1.13063 -0.13404 0.60921
 C299 C 1.07549 -0.09864 0.69937
 C300 C 1.05307 -0.08097 0.71203
 C301 C 1.03544 -0.06293 0.69345
 C302 C 1.04008 -0.06242 0.66208
 C303 C 1.12288 -0.13414 0.67430
 C304 C 1.13882 -0.14829 0.69125
 C305 C 1.05007 -0.05959 0.59765
 C306 C 1.03544 -0.04231 0.58269
 H307 H 1.08183 -0.08432 0.55651
 H308 H 1.12089 -0.11559 0.53482
 H309 H 1.15236 -0.14751 0.56783
 H310 H 1.14494 -0.14842 0.62274
 H311 H 1.08859 -0.11233 0.71478
 H312 H 1.04937 -0.08130 0.73639
 H313 H 1.01805 -0.04923 0.70339
 H314 H 1.02574 -0.04803 0.64860
 C315 C 0.93235 -0.07576 0.38483
 C316 C 0.90952 -0.09403 0.39729
 C317 C 0.89159 -0.11203 0.37780
 C318 C 0.89667 -0.11174 0.34597
 C319 C 0.91967 -0.09361 0.33354
 C320 C 0.93757 -0.07561 0.35302
 C321 C 0.96039 -0.05765 0.34003
 C322 C 0.96535 -0.05745 0.30872
 C323 C 0.94781 -0.07499 0.28966
 C324 C 0.92520 -0.09291 0.30180
 C325 C 0.86874 -0.12993 0.39077
 C326 C 0.86381 -0.13012 0.42211
 C327 C 0.88142 -0.11260 0.44116
 C328 C 0.90403 -0.09470 0.42901
 C329 C 0.87809 -0.12976 0.32594
 C330 C 0.86270 -0.14431 0.30891
 C331 C 0.95010 -0.05657 0.40445
 C332 C 0.96508 -0.03998 0.41977
 H333 H 0.97466 -0.04361 0.35389
 H334 H 0.98292 -0.04360 0.29920
 H335 H 0.95174 -0.07473 0.26533
 H336 H 0.91214 -0.10614 0.28603
 H337 H 0.85445 -0.14391 0.37687
 H338 H 0.84624 -0.14395 0.43165
 H339 H 0.87754 -0.11288 0.46548
 H340 H 0.91715 -0.08146 0.44473
 C341 C 0.93462 0.07970 0.61688
 C342 C 0.93907 0.07969 0.64884
 C343 C 0.92087 0.09794 0.66761
 C344 C 0.89826 0.11603 0.65433
 C345 C 0.89426 0.11654 0.62232
 C346 C 0.91253 0.09833 0.60353
 C347 C 0.90807 0.09912 0.57161
 C348 C 0.88619 0.11740 0.55860
 C349 C 0.86831 0.13519 0.57697
 C350 C 0.87220 0.13484 0.60849
 C351 C 0.92569 0.09751 0.69951
 C352 C 0.94784 0.07954 0.71248
 C353 C 0.96560 0.06164 0.69413
 C354 C 0.96136 0.06161 0.66267
 C355 C 0.87865 0.13341 0.67373
 C356 C 0.86239 0.14726 0.69038
 C357 C 0.95226 0.05992 0.59798
 C358 C 0.96692 0.04286 0.58303
 H359 H 0.92146 0.08570 0.55639
 H360 H 0.88309 0.11777 0.53413
 H361 H 0.85135 0.14935 0.56676
 H362 H 0.85780 0.14909 0.62184
 H363 H 0.91249 0.11107 0.71474
 H364 H 0.95124 0.07950 0.73691
 H365 H 0.98277 0.04770 0.70432
 H366 H 0.97578 0.04734 0.64937
 C367 C 0.38945 1.07589 0.07796
 C368 C 0.37610 1.06416 0.10467
 C369 C 0.35718 1.08237 0.12276
 C370 C 0.35169 1.11219 0.11402
 C371 C 0.36580 1.12419 0.08784
 C372 C 0.38473 1.10598 0.06974
 C373 C 0.39836 1.11837 0.04352
 C374 C 0.39348 1.14795 0.03543
 C375 C 0.37500 1.16576 0.05314
 C376 C 0.36124 1.15413 0.07906
 C377 C 0.34390 1.07009 0.14923
 C378 C 0.34918 1.04066 0.15760
 C379 C 0.36766 1.02284 0.13990
 C380 C 0.38102 1.03434 0.11371
 C381 C 0.33051 1.13004 0.13115
 C382 C 0.31227 1.14442 0.14501
 C383 C 0.40696 1.05668 0.05831
 C384 C 0.42079 1.04037 0.04175
 H385 H 0.41296 1.10540 0.02906
 H386 H 0.40411 1.15708 0.01531
 H387 H 0.37129 1.18872 0.04677
 H388 H 0.34709 1.16886 0.09214
 H389 H 0.32940 1.08308 0.16377
 H390 H 0.33887 1.03163 0.17794
 H391 H 0.37169 0.99999 0.14649
 H392 H 0.39526 1.01963 0.10071
 C393 C 0.61418 1.07176 -0.07462
 C394 C 0.60170 1.09444 -0.09315
 C395 C 0.62084 1.11248 -0.11141
 C396 C 0.65233 1.10767 -0.11105
 C397 C 0.66479 1.08483 -0.09267
 C398 C 0.64567 1.06686 -0.07438
 C399 C 0.65868 1.04422 -0.05613
 C400 C 0.68967 1.03947 -0.05597
 C401 C 0.70836 1.05702 -0.07388
 C402 C 0.69620 1.07947 -0.09205
 C403 C 0.60786 1.13506 -0.12969
 C404 C 0.57684 1.13968 -0.12996
 C405 C 0.55813 1.12203 -0.11214
 C406 C 0.57030 1.09964 -0.09389
 C407 C 0.67208 1.12618 -0.12938
 C408 C 0.68925 1.14111 -0.14417
 C409 C 0.59487 1.05349 -0.05560
 C410 C 0.57984 1.03780 -0.03933
 H411 H 0.64511 1.02995 -0.04180
 H412 H 0.69922 1.02206 -0.04189
 H413 H 0.73242 1.05324 -0.07371
 H414 H 0.71169 1.09251 -0.10558
 H415 H 0.62151 1.14934 -0.14394
 H416 H 0.56727 1.15705 -0.14409
 H417 H 0.53405 1.12570 -0.11245
 H418 H 0.55486 1.08646 -0.08042
 C419 C 0.38357 0.92567 -0.06850
 C420 C 0.39347 0.91587 -0.09739
 C421 C 0.37449 0.89757 -0.11551
 C422 C 0.34574 0.88917 -0.10462
 C423 C 0.33601 0.89864 -0.07555
 C424 C 0.35497 0.91697 -0.05745
 C425 C 0.34467 0.92630 -0.02854
 C426 C 0.31648 0.91774 -0.01780
 C427 C 0.29796 0.89978 -0.03547
 C428 C 0.30749 0.89028 -0.06402
 C429 C 0.38481 0.88814 -0.14435
 C430 C 0.41310 0.89654 -0.15499
 C431 C 0.43166 0.91444 -0.13727
 C432 C 0.42207 0.92406 -0.10878
 C433 C 0.32583 0.87130 -0.12342
 C434 C 0.30859 0.85680 -0.13856
 C435 C 0.40249 0.94509 -0.05031
 C436 C 0.41760 0.96149 -0.03490
 H437 H 0.35825 0.94027 -0.01393
 H438 H 0.30897 0.92507 0.00436
 H439 H 0.27609 0.89316 -0.02702
 H440 H 0.29227 0.87632 -0.07689
 H441 H 0.37118 0.87418 -0.15893
 H442 H 0.42067 0.88912 -0.17710
 H443 H 0.45361 0.92090 -0.14564
 H444 H 0.43730 0.93793 -0.09581
 C445 C 0.61421 0.92530 0.07369
 C446 C 0.64576 0.92979 0.07335
 C447 C 0.66476 0.91166 0.09169
 C448 C 0.65212 0.88907 0.11022
 C449 C 0.62057 0.88455 0.11052
 C450 C 0.60155 0.90276 0.09222
 C451 C 0.57009 0.89788 0.09291
 C452 C 0.55776 0.87561 0.11114
 C453 C 0.57635 0.85779 0.12901
 C454 C 0.60742 0.86212 0.12880
 C455 C 0.69624 0.91663 0.09100
 C456 C 0.70858 0.93882 0.07268
 C457 C 0.69001 0.95651 0.05470
 C458 C 0.65896 0.95216 0.05494
 C459 C 0.67177 0.87058 0.12877
 C460 C 0.68907 0.85584 0.14369
 C461 C 0.59499 0.94396 0.05488
 C462 C 0.57999 0.96000 0.03887
 H463 H 0.55474 0.91119 0.07939
 H464 H 0.53364 0.87216 0.11139
 H465 H 0.56665 0.84051 0.14311
 H466 H 0.62099 0.84772 0.14308
 H467 H 0.71166 0.90347 0.10457
 H468 H 0.73270 0.94228 0.07245
 H469 H 0.69971 0.97370 0.04048
 H470 H 0.64548 0.96651 0.04054
   
