data_POSCAR
  _audit_creation_date              2014-09-24
  _audit_creation_method            'ToBaCCo'
  _symmetry_space_group_name_H-M    'P1'
  _symmetry_Int_Tables_number       1
  _symmetry_cell_setting            triclinic
  loop_
  _symmetry_equiv_pos_as_xyz
 x,y,z
_cell_length_a 34.4800
_cell_length_b 31.2347
_cell_length_c 18.2011
_cell_angle_alpha 90.122400
_cell_angle_beta 89.965700
_cell_angle_gamma 89.588200
loop_
  _atom_site_label
  _atom_site_type_symbol
  _atom_site_fract_x
  _atom_site_fract_y
  _atom_site_fract_z
C1 C 1.28603 0.21321 0.31272
 C2 C 1.25246 0.22900 0.27835
 C3 C 1.22309 0.20035 0.25761
 C4 C 1.22684 0.15587 0.26987
 C5 C 1.26142 0.14075 0.30404
 C6 C 1.29154 0.16928 0.32392
 C7 C 1.24910 0.27550 0.26187
 C8 C 1.28113 0.29772 0.23276
 C9 C 1.28012 0.34262 0.22389
 C10 C 1.24510 0.36415 0.23923
 C11 C 1.21357 0.34284 0.27048
 C12 C 1.21530 0.29845 0.28078
 H13 H 1.30894 0.23513 0.32793
 H14 H 1.19766 0.21271 0.22963
 H15 H 1.30756 0.28009 0.22089
 H16 H 1.19137 0.28230 0.30730
 H17 H 1.26524 0.10686 0.31452
 H18 H 1.24261 0.39833 0.22989
 C19 C 0.78385 -0.29134 0.24788
 C20 C 0.74912 -0.27266 0.22261
 C21 C 0.71895 -0.29921 0.19847
 C22 C 0.72279 -0.34385 0.20231
 C23 C 0.75703 -0.36204 0.22938
 C24 C 0.78731 -0.33594 0.25418
 C25 C 0.74258 -0.22608 0.23257
 C26 C 0.77197 -0.19700 0.21539
 C27 C 0.76887 -0.15341 0.23433
 C28 C 0.73459 -0.13932 0.27110
 C29 C 0.70359 -0.16792 0.28402
 C30 C 0.70826 -0.21113 0.26545
 H31 H 0.80639 -0.27119 0.27055
 H32 H 0.69182 -0.28529 0.17979
 H33 H 0.79774 -0.20870 0.18751
 H34 H 0.68529 -0.23335 0.27862
 H35 H 0.75909 -0.39650 0.23583
 H36 H 0.73168 -0.10630 0.28858
 C37 C 0.78024 0.19978 -0.21314
 C38 C 0.74980 0.22561 -0.23861
 C39 C 0.71509 0.20670 -0.26149
 C40 C 0.71016 0.16253 -0.25911
 C41 C 0.74076 0.13642 -0.23261
 C42 C 0.77595 0.15519 -0.20939
 C43 C 0.75306 0.27257 -0.24226
 C44 C 0.78409 0.29249 -0.27859
 C45 C 0.78228 0.33672 -0.29448
 C46 C 0.74966 0.36035 -0.27075
 C47 C 0.71891 0.34051 -0.23546
 C48 C 0.72163 0.29726 -0.21789
 H49 H 0.80711 0.21435 -0.19537
 H50 H 0.69196 0.22648 -0.28373
 H51 H 0.80799 0.27311 -0.29892
 H52 H 0.69792 0.28218 -0.18875
 H53 H 0.73755 0.10196 -0.23149
 H54 H 0.74794 0.39462 -0.27949
 C55 C 1.27964 -0.29455 -0.20029
 C56 C 1.24658 -0.26991 -0.21633
 C57 C 1.21176 -0.29086 -0.23346
 C58 C 1.21087 -0.33584 -0.23775
 C59 C 1.24526 -0.35929 -0.22881
 C60 C 1.27998 -0.33904 -0.21032
 C61 C 1.25035 -0.22268 -0.22123
 C62 C 1.28454 -0.20552 -0.25041
 C63 C 1.29004 -0.16147 -0.25560
 C64 C 1.26001 -0.13341 -0.23228
 C65 C 1.22491 -0.15021 -0.20399
 C66 C 1.22061 -0.19481 -0.19842
 H67 H 1.30561 -0.27879 -0.18089
 H68 H 1.18585 -0.27244 -0.24578
 H69 H 1.30719 -0.22662 -0.27090
 H70 H 1.19411 -0.20767 -0.17564
 H71 H 1.24510 -0.39349 -0.23911
 H72 H 1.26369 -0.09912 -0.23677
 C73 C 0.20263 0.28139 0.72285
 C74 C 0.22528 0.24818 0.75110
 C75 C 0.20763 0.21205 0.78067
 C76 C 0.16704 0.20905 0.78352
 C77 C 0.14419 0.24247 0.75284
 C78 C 0.16235 0.27924 0.72413
 C79 C 0.26728 0.25365 0.75652
 C80 C 0.28157 0.29130 0.78772
 C81 C 0.32141 0.29739 0.79516
 C82 C 0.34690 0.26516 0.77067
 C83 C 0.33311 0.22869 0.73454
 C84 C 0.29296 0.22249 0.72931
 H85 H 0.21650 0.30951 0.70017
 H86 H 0.22554 0.18681 0.80395
 H87 H 0.26151 0.31650 0.80390
 H88 H 0.28168 0.19417 0.70255
 H89 H 0.11282 0.24080 0.75424
 H90 H 0.37786 0.26902 0.77847
 C91 C 0.69943 0.77558 0.74321
 C92 C 0.72516 0.74626 0.77546
 C93 C 0.71172 0.70624 0.79804
 C94 C 0.67397 0.69355 0.78227
 C95 C 0.64802 0.72338 0.75149
 C96 C 0.66018 0.76474 0.73105
 C97 C 0.76730 0.75350 0.77456
 C98 C 0.78419 0.79102 0.80209
 C99 C 0.82478 0.79555 0.80187
 C100 C 0.84818 0.76179 0.77392
 C101 C 0.83092 0.72453 0.74514
 C102 C 0.79084 0.72111 0.74531
 H103 H 0.71070 0.80579 0.72371
 H104 H 0.73185 0.68346 0.82228
 H105 H 0.76597 0.81608 0.82515
 H106 H 0.77775 0.69281 0.72147
 H107 H 0.61774 0.71467 0.74750
 H108 H 0.87947 0.76468 0.77391
 C109 C 0.71262 0.29478 0.26851
 C110 C 0.72766 0.25906 0.30554
 C111 C 0.70245 0.22837 0.33432
 C112 C 0.66218 0.23311 0.32479
 C113 C 0.64785 0.26790 0.28423
 C114 C 0.67292 0.29912 0.25798
 C115 C 0.76989 0.25415 0.31039
 C116 C 0.79166 0.28967 0.33099
 C117 C 0.83147 0.29076 0.31860
 C118 C 0.85027 0.25451 0.28867
 C119 C 0.82868 0.21775 0.27017
 C120 C 0.78849 0.21769 0.28185
 H121 H 0.73187 0.31853 0.24536
 H122 H 0.71410 0.20106 0.36382
 H123 H 0.77704 0.31799 0.35222
 H124 H 0.77146 0.19066 0.26350
 H125 H 0.61711 0.27067 0.27250
 H126 H 0.88113 0.25538 0.27760
 C127 C 0.21885 0.79637 0.27292
 C128 C 0.23912 0.76012 0.29737
 C129 C 0.21943 0.72628 0.33016
 C130 C 0.17903 0.72693 0.33717
 C131 C 0.15860 0.76264 0.30844
 C132 C 0.17821 0.79694 0.27410
 C133 C 0.27953 0.75338 0.27548
 C134 C 0.30817 0.78255 0.29566
 C135 C 0.34661 0.77574 0.27331
 C136 C 0.35574 0.74108 0.22806
 C137 C 0.32730 0.71150 0.20895
 C138 C 0.28930 0.71736 0.23294
 H139 H 0.23444 0.82129 0.24413
 H140 H 0.23569 0.69758 0.34410
 H141 H 0.30068 0.80996 0.32958
 H142 H 0.26732 0.69442 0.21735
 H143 H 0.12718 0.76336 0.31075
 H144 H 0.38534 0.73642 0.20932
 O145 O 1.05849 0.07255 0.17201
 O146 O 1.09935 0.03355 0.09888
 C147 C 1.09331 0.05998 0.15266
 O148 O 0.94070 -0.07098 0.15879
 O149 O 0.90049 -0.02823 0.09084
 C150 C 0.90608 -0.05746 0.13987
 O151 O 1.04901 -0.08064 0.15721
 O152 O 1.09481 -0.04333 0.09152
 C153 C 1.08436 -0.07410 0.13630
 O154 O 0.95067 0.08642 0.15988
 O155 O 0.90552 0.05009 0.09113
 C156 C 0.91556 0.07985 0.13778
 Zr157 Zr 1.00254 0.05584 0.12827
 O158 O 0.99717 0.05040 0.24381
 O159 O 1.00956 0.12281 0.13805
 Zr160 Zr 0.99739 -0.05091 0.12257
 O161 O 0.99827 -0.04578 0.23827
 O162 O 0.99443 -0.11852 0.12589
 O163 O 1.03535 0.00010 0.13961
 O164 O 0.96544 0.00436 0.13830
 O165 O 0.94559 0.08253 -0.09713
 O166 O 0.90258 0.04233 -0.03110
 C167 C 0.91039 0.07096 -0.08003
 O168 O 1.05499 -0.06915 -0.10622
 O169 O 1.09795 -0.03279 -0.03337
 C170 C 1.09019 -0.05937 -0.08588
 O171 O 0.94665 -0.07510 -0.09362
 O172 O 0.90299 -0.03413 -0.02794
 C173 C 0.91176 -0.06548 -0.07278
 O174 O 1.05338 0.08129 -0.09764
 O175 O 1.09726 0.04112 -0.03150
 C176 C 1.08839 0.07118 -0.07909
 Zr177 Zr 1.00057 0.05906 -0.05812
 O178 O 0.99917 0.06063 -0.17434
 O179 O 1.00374 0.12667 -0.05230
 Zr180 Zr 0.99990 -0.04768 -0.06417
 O181 O 0.99717 -0.03885 -0.17913
 O182 O 1.00280 -0.11489 -0.07781
 Zr183 Zr 1.05873 0.00171 0.03242
 Zr184 Zr 0.94185 0.00631 0.03174
 O185 O 0.96591 0.00636 -0.07458
 O186 O 1.03553 0.00499 -0.07474
 O187 O 0.96746 0.06736 0.03557
 O188 O 1.03160 -0.05813 0.02867
 O189 O 1.03544 0.06416 0.03530
 O190 O 0.96439 -0.05652 0.02836
 H191 H 0.94740 0.00566 0.18067
 H192 H 1.04768 -0.08392 0.02313
 H193 H 0.94828 0.00596 -0.11756
 H194 H 1.05324 0.08886 0.03811
 H195 H 0.97499 -0.12748 0.08907
 H196 H 0.99678 -0.12752 -0.02943
 H197 H 0.99728 -0.06795 -0.20086
 H198 H 1.01823 0.03930 -0.19261
 H199 H 0.97952 0.13734 -0.02927
 H200 H 0.99829 0.13569 0.09327
 H201 H 1.01936 0.03302 0.26154
 H202 H 0.99500 -0.07529 0.25706
 O203 O 1.05377 0.57524 0.65683
 O204 O 1.09724 0.53876 0.58390
 C205 C 1.08854 0.56527 0.63643
 O206 O 0.94209 0.42659 0.62331
 O207 O 0.90175 0.47175 0.56100
 C208 C 0.90768 0.43951 0.60369
 O209 O 1.04912 0.42164 0.63098
 O210 O 1.09495 0.46072 0.56881
 C211 C 1.08445 0.42909 0.61168
 O212 O 0.94969 0.58710 0.64471
 O213 O 0.90552 0.55201 0.57264
 C214 C 0.91510 0.58155 0.62044
 Zr215 Zr 1.00052 0.55626 0.61221
 O216 O 0.99657 0.54116 0.72507
 O217 O 1.00485 0.62240 0.63558
 Zr218 Zr 0.99763 0.45056 0.59517
 O219 O 0.99333 0.44887 0.71124
 O220 O 0.99829 0.38287 0.58898
 O221 O 1.03454 0.50133 0.61918
 O222 O 0.96411 0.50432 0.61545
 O223 O 0.94663 0.59388 0.39538
 O224 O 0.90316 0.54912 0.45046
 C225 C 0.91123 0.58190 0.41012
 O226 O 1.05666 0.44148 0.36685
 O227 O 1.09807 0.47477 0.44567
 C228 C 1.09145 0.45047 0.38975
 O229 O 0.94889 0.43442 0.37402
 O230 O 0.90435 0.47176 0.44369
 C231 C 0.91386 0.44247 0.39553
 O232 O 1.05579 0.59039 0.39527
 O233 O 1.09844 0.54817 0.45949
 C234 C 1.09066 0.57998 0.41547
 Zr235 Zr 1.00141 0.56663 0.42604
 O236 O 0.99892 0.56840 0.30979
 O237 O 1.00505 0.63417 0.42876
 Zr238 Zr 1.00138 0.46081 0.40861
 O239 O 0.99705 0.47250 0.29425
 O240 O 1.00548 0.39443 0.38679
 Zr241 Zr 1.05853 0.50681 0.51312
 Zr242 Zr 0.94221 0.51024 0.50832
 O243 O 0.96695 0.51483 0.40299
 O244 O 1.03696 0.51388 0.40509
 O245 O 0.96730 0.57106 0.51923
 O246 O 1.03232 0.44656 0.50181
 O247 O 1.03425 0.56869 0.52165
 O248 O 0.96561 0.44797 0.49906
 H249 H 0.94526 0.50371 0.65659
 H250 H 1.04793 0.42015 0.49612
 H251 H 0.94911 0.51662 0.36040
 H252 H 1.05098 0.59412 0.52733
 H253 H 0.97911 0.37440 0.55135
 H254 H 0.99739 0.37966 0.43217
 H255 H 1.02232 0.48357 0.27727
 H256 H 1.02438 0.55864 0.29068
 H257 H 0.98749 0.64430 0.46814
 H258 H 1.00260 0.63751 0.58813
 H259 H 0.99724 0.56887 0.75160
 H260 H 1.01774 0.46041 0.73167
 O261 O 0.43818 -0.05892 0.37525
 O262 O 0.46903 -0.10806 0.44772
 C263 C 0.44709 -0.09796 0.39263
 O264 O 0.56951 0.05964 0.39505
 O265 O 0.53300 0.10627 0.46361
 C266 C 0.55947 0.09812 0.41517
 O267 O 0.57116 -0.05852 0.38907
 O268 O 0.53782 -0.10823 0.45726
 C269 C 0.56445 -0.09733 0.40942
 O270 O 0.42675 0.05727 0.39640
 O271 O 0.46072 0.10562 0.46615
 C272 C 0.43331 0.09566 0.41915
 Zr273 Zr 0.45244 -0.00057 0.42623
 O274 O 0.45283 0.00734 0.31069
 O275 O 0.39122 -0.00491 0.42836
 Zr276 Zr 0.54861 -0.00070 0.42932
 O277 O 0.54379 0.00006 0.31364
 O278 O 0.60992 0.00255 0.42462
 O279 O 0.50097 -0.03939 0.41223
 O280 O 0.50034 0.03777 0.41612
 O281 O 0.42860 0.05850 0.64726
 O282 O 0.46676 0.10597 0.58545
 C283 C 0.43900 0.09726 0.63077
 O284 O 0.56391 -0.06571 0.65462
 O285 O 0.53050 -0.11150 0.58028
 C286 C 0.55506 -0.10401 0.63237
 O287 O 0.57437 0.05117 0.64849
 O288 O 0.54115 0.10214 0.58196
 C289 C 0.56938 0.08988 0.62586
 O290 O 0.42659 -0.05869 0.64822
 O291 O 0.45958 -0.10808 0.57734
 C292 C 0.43261 -0.09726 0.62542
 Zr293 Zr 0.45040 -0.00161 0.61175
 O294 O 0.45530 -0.00226 0.72744
 O295 O 0.38908 -0.00134 0.61489
 Zr296 Zr 0.54624 -0.00462 0.61605
 O297 O 0.54015 -0.00017 0.73167
 O298 O 0.60709 -0.01108 0.62678
 Zr299 Zr 0.49919 -0.06676 0.51815
 Zr300 Zr 0.49991 0.06277 0.52337
 O301 O 0.49892 0.03538 0.62866
 O302 O 0.49753 -0.04265 0.62643
 O303 O 0.44389 0.03680 0.52010
 O304 O 0.55480 -0.03947 0.52157
 O305 O 0.44379 -0.03826 0.51671
 O306 O 0.55544 0.03446 0.52445
 H307 H 0.49956 0.05784 0.37403
 H308 H 0.57814 -0.05804 0.52387
 H309 H 0.49966 0.05505 0.67144
 H310 H 0.42047 -0.05642 0.51223
 H311 H 0.62066 -0.01839 0.45993
 H312 H 0.61863 0.00069 0.58139
 H313 H 0.52749 -0.02668 0.74881
 H314 H 0.42852 0.00051 0.74674
 H315 H 0.38014 0.01085 0.56767
 H316 H 0.38262 -0.00623 0.37645
 H317 H 0.47331 -0.01170 0.29064
 H318 H 0.57060 0.00216 0.29442
 O319 O 0.55786 0.56880 0.12894
 O320 O 0.59839 0.52603 0.06091
 C321 C 0.59214 0.55492 0.11101
 O322 O 0.44221 0.42134 0.12191
 O323 O 0.40142 0.46715 0.06000
 C324 C 0.40805 0.43540 0.10427
 O325 O 0.55021 0.41892 0.12903
 O326 O 0.59518 0.45377 0.05811
 C327 C 0.58546 0.42626 0.10801
 O328 O 0.45053 0.58343 0.11435
 O329 O 0.40509 0.54337 0.05348
 C330 C 0.41525 0.57521 0.09449
 Zr331 Zr 0.50272 0.55083 0.08905
 O332 O 0.49725 0.54686 0.20469
 O333 O 0.51030 0.61764 0.09943
 Zr334 Zr 0.49726 0.44343 0.08890
 O335 O 0.49868 0.44270 0.20534
 O336 O 0.49529 0.37590 0.08210
 O337 O 0.53476 0.49472 0.10293
 O338 O 0.46576 0.49980 0.10262
 O339 O 0.44956 0.57653 -0.13474
 O340 O 0.40526 0.54080 -0.06561
 C341 C 0.41431 0.56898 -0.11489
 O342 O 0.54947 0.42431 -0.14570
 O343 O 0.59418 0.45531 -0.07053
 C344 C 0.58478 0.43013 -0.12437
 O345 O 0.44134 0.42390 -0.12959
 O346 O 0.40049 0.46713 -0.06328
 C347 C 0.40695 0.43672 -0.10989
 O348 O 0.55704 0.56642 -0.13924
 O349 O 0.59873 0.52707 -0.06739
 C350 C 0.59143 0.55462 -0.11893
 Zr351 Zr 0.50247 0.55060 -0.09665
 O352 O 0.49881 0.55246 -0.21266
 O353 O 0.50999 0.61782 -0.09428
 Zr354 Zr 0.49698 0.44302 -0.09558
 O355 O 0.49252 0.43472 -0.21050
 O356 O 0.49843 0.37540 -0.08623
 Zr357 Zr 0.55778 0.49313 -0.00433
 Zr358 Zr 0.44211 0.50124 -0.00371
 O359 O 0.46610 0.49901 -0.10996
 O360 O 0.53408 0.49450 -0.11114
 O361 O 0.46895 0.56166 -0.00410
 O362 O 0.53077 0.43299 -0.00393
 O363 O 0.53663 0.55646 -0.00402
 O364 O 0.46205 0.43739 -0.00322
 H365 H 0.44738 0.50208 0.14424
 H366 H 0.54716 0.40682 -0.00539
 H367 H 0.44881 0.49979 -0.15341
 H368 H 0.55522 0.58050 -0.00407
 H369 H 0.49554 0.36526 0.13337
 H370 H 0.47465 0.36658 -0.05997
 H371 H 0.49447 0.46349 -0.23248
 H372 H 0.51713 0.53071 -0.23205
 H373 H 0.48680 0.63063 -0.07072
 H374 H 0.50383 0.63017 0.05114
 H375 H 0.51704 0.52613 0.22202
 H376 H 0.47521 0.45753 0.22401
 C377 C 1.20006 0.08775 0.20524
 C378 C 1.19426 0.12646 0.24563
 C379 C 1.15569 0.13912 0.26023
 C380 C 1.12385 0.11645 0.23266
 C381 C 1.12855 0.07855 0.19173
 C382 C 1.16736 0.06226 0.18333
 C383 C 1.23749 0.07460 0.18243
 C384 C 1.24350 0.03513 0.14852
 C385 C 1.21248 0.00801 0.13616
 C386 C 1.17490 0.02129 0.15321
 H387 H 1.26248 0.09474 0.18899
 H388 H 1.27250 0.02530 0.13268
 H389 H 1.21746 -0.02334 0.11229
 H390 H 1.15233 -0.00166 0.14440
 H391 H 1.14997 0.16808 0.29135
 H392 H 1.09514 0.12966 0.24193
 C393 C 1.16349 0.60270 0.77470
 C394 C 1.17564 0.64092 0.73928
 C395 C 1.15742 0.65381 0.67423
 C396 C 1.12952 0.62827 0.64157
 C397 C 1.11962 0.58885 0.67219
 C398 C 1.13576 0.57600 0.73987
 C399 C 1.17797 0.59066 0.84430
 C400 C 1.16656 0.55239 0.87701
 C401 C 1.14030 0.52569 0.84164
 C402 C 1.12477 0.53735 0.77379
 H403 H 1.19775 0.61091 0.87438
 H404 H 1.17808 0.54348 0.93018
 H405 H 1.13164 0.49599 0.86720
 H406 H 1.10414 0.51601 0.74823
 H407 H 1.16611 0.68285 0.64649
 H408 H 1.11607 0.63895 0.59093
 C409 C 0.67380 0.12717 0.63662
 C410 C 0.67399 0.14503 0.70803
 C411 C 0.63848 0.15135 0.74465
 C412 C 0.60342 0.13766 0.71375
 C413 C 0.60256 0.11806 0.64443
 C414 C 0.63817 0.11313 0.60520
 C415 C 0.70848 0.12267 0.59575
 C416 C 0.70838 0.10350 0.52661
 C417 C 0.67397 0.08832 0.49707
 C418 C 0.63932 0.09304 0.53579
 H419 H 0.73599 0.13371 0.61676
 H420 H 0.73519 0.10007 0.49611
 H421 H 0.67411 0.07287 0.44380
 H422 H 0.61349 0.08083 0.51092
 H423 H 0.63805 0.16623 0.79846
 H424 H 0.57707 0.14029 0.74592
 C425 C 0.65650 0.62632 0.23192
 C426 C 0.68953 0.62827 0.18570
 C427 C 0.69215 0.60133 0.12461
 C428 C 0.66133 0.57528 0.10507
 C429 C 0.62654 0.57565 0.14529
 C430 C 0.62506 0.59904 0.21262
 C431 C 0.65462 0.65000 0.29810
 C432 C 0.62287 0.64640 0.34496
 C433 C 0.59287 0.61864 0.32772
 C434 C 0.59402 0.59484 0.26283
 H435 H 0.67788 0.67088 0.31497
 H436 H 0.62192 0.66456 0.39568
 H437 H 0.56882 0.61501 0.36541
 H438 H 0.57119 0.57198 0.25458
 H439 H 0.71798 0.60126 0.09065
 H440 H 0.66441 0.55576 0.05624
 C441 C 0.79861 -0.08333 0.18388
 C442 C 0.80264 -0.12447 0.21650
 C443 C 0.84056 -0.13985 0.22991
 C444 C 0.87345 -0.11733 0.20748
 C445 C 0.87035 -0.07692 0.17452
 C446 C 0.83240 -0.05812 0.16918
 C447 C 0.76192 -0.06672 0.16369
 C448 C 0.75781 -0.02462 0.13966
 C449 C 0.78999 0.00175 0.13545
 C450 C 0.82684 -0.01462 0.15028
 H451 H 0.73606 -0.08595 0.16527
 H452 H 0.72939 -0.01215 0.12570
 H453 H 0.78647 0.03500 0.11993
 H454 H 0.85047 0.00771 0.14936
 H455 H 0.84493 -0.17068 0.25586
 H456 H 0.90161 -0.13235 0.21452
 C457 C 0.80509 0.39309 0.62078
 C458 C 0.81259 0.35818 0.66888
 C459 C 0.85101 0.34940 0.68898
 C460 C 0.88076 0.37667 0.66849
 C461 C 0.87336 0.41468 0.62929
 C462 C 0.83422 0.42419 0.60801
 C463 C 0.76920 0.39700 0.58361
 C464 C 0.75998 0.43373 0.54409
 C465 C 0.78604 0.46733 0.54162
 C466 C 0.82256 0.46303 0.57374
 H467 H 0.74794 0.37167 0.58546
 H468 H 0.73207 0.43667 0.51733
 H469 H 0.77804 0.49682 0.51424
 H470 H 0.84010 0.49133 0.57303
 H471 H 0.85810 0.32271 0.72457
 H472 H 0.90993 0.36806 0.68514
 C473 C 0.33453 -0.15093 0.63458
 C474 C 0.32729 -0.14689 0.71100
 C475 C 0.35811 -0.13595 0.75727
 C476 C 0.39474 -0.12626 0.72870
 C477 C 0.40231 -0.12736 0.65263
 C478 C 0.37214 -0.14153 0.60540
 C479 C 0.30464 -0.16326 0.58610
 C480 C 0.31142 -0.16642 0.51092
 C481 C 0.34787 -0.15732 0.48270
 C482 C 0.37798 -0.14507 0.52909
 H483 H 0.27570 -0.17007 0.60569
 H484 H 0.28824 -0.17582 0.47431
 H485 H 0.35271 -0.15965 0.42448
 H486 H 0.40590 -0.13915 0.50490
 H487 H 0.35362 -0.13429 0.81612
 H488 H 0.41674 -0.11462 0.76610
 C489 C 0.32338 0.40694 0.22938
 C490 C 0.31341 0.36570 0.20057
 C491 C 0.33713 0.34810 0.14503
 C492 C 0.36744 0.37135 0.11454
 C493 C 0.37478 0.41331 0.13711
 C494 C 0.35296 0.43150 0.19500
 C495 C 0.30720 0.42288 0.29546
 C496 C 0.31627 0.46349 0.32185
 C497 C 0.34279 0.48870 0.28457
 C498 C 0.36144 0.47278 0.22222
 H499 H 0.28864 0.40351 0.32895
 H500 H 0.30308 0.47515 0.37212
 H501 H 0.34990 0.52013 0.30553
 H502 H 0.38309 0.49269 0.19663
 H503 H 0.33108 0.31694 0.12168
 H504 H 0.38465 0.35688 0.07114
 C505 C 0.84020 0.11594 -0.22703
 C506 C 0.80906 0.12921 -0.18127
 C507 C 0.81139 0.12181 -0.10564
 C508 C 0.84421 0.10265 -0.07476
 C509 C 0.87636 0.09087 -0.11803
 C510 C 0.87381 0.09603 -0.19554
 C511 C 0.83839 0.12168 -0.30382
 C512 C 0.86837 0.10712 -0.34900
 C513 C 0.90043 0.08636 -0.31878
 C514 C 0.90315 0.08062 -0.24298
 H515 H 0.81359 0.13689 -0.32956
 H516 H 0.86648 0.11145 -0.40788
 H517 H 0.92325 0.07441 -0.35435
 H518 H 0.92799 0.06321 -0.22253
 H519 H 0.78791 0.13191 -0.06986
 H520 H 0.84473 0.09770 -0.01588
 C521 C 0.80880 0.62658 0.36580
 C522 C 0.81696 0.64641 0.29747
 C523 C 0.85544 0.64970 0.27389
 C524 C 0.88531 0.62955 0.31234
 C525 C 0.87810 0.60667 0.37729
 C526 C 0.83950 0.60722 0.40673
 C527 C 0.77096 0.62815 0.39655
 C528 C 0.76323 0.61057 0.46501
 C529 C 0.79300 0.59222 0.50535
 C530 C 0.83052 0.59099 0.47712
 H531 H 0.74708 0.64411 0.36937
 H532 H 0.73421 0.61219 0.48763
 H533 H 0.78722 0.57964 0.55963
 H534 H 0.85202 0.57890 0.51328
 H535 H 0.86221 0.66607 0.22307
 H536 H 0.91428 0.63083 0.28944
 C537 C 0.35563 0.13793 0.29239
 C538 C 0.32896 0.15465 0.34488
 C539 C 0.34221 0.16170 0.41712
 C540 C 0.37905 0.14739 0.43989
 C541 C 0.40456 0.12732 0.39032
 C542 C 0.39364 0.12512 0.31508
 C543 C 0.34574 0.13450 0.21721
 C544 C 0.37227 0.11848 0.16610
 C545 C 0.40925 0.10602 0.18832
 C546 C 0.41999 0.10940 0.26189
 H547 H 0.31766 0.14461 0.19701
 H548 H 0.36419 0.11605 0.10879
 H549 H 0.42982 0.09393 0.14826
 H550 H 0.44928 0.10019 0.27685
 H551 H 0.32304 0.17621 0.45743
 H552 H 0.38639 0.14904 0.49770
 C553 C 0.35142 0.65115 -0.22222
 C554 C 0.31422 0.63690 -0.19921
 C555 C 0.31157 0.59876 -0.15953
 C556 C 0.34442 0.57739 -0.13613
 C557 C 0.38178 0.59327 -0.14973
 C558 C 0.38567 0.63076 -0.19461
 C559 C 0.35510 0.68401 -0.27520
 C560 C 0.39117 0.70011 -0.29421
 C561 C 0.42438 0.68339 -0.26210
 C562 C 0.42193 0.64914 -0.21338
 H563 H 0.33013 0.69712 -0.30343
 H564 H 0.39333 0.72582 -0.33380
 H565 H 0.45240 0.69661 -0.27588
 H566 H 0.44918 0.63885 -0.19136
 H567 H 0.28380 0.58648 -0.14171
 H568 H 0.34002 0.54854 -0.10435
 C569 C 1.16381 -0.10524 -0.22718
 C570 C 1.19207 -0.12240 -0.17850
 C571 C 1.18623 -0.11799 -0.10270
 C572 C 1.15325 -0.09747 -0.07476
 C573 C 1.12434 -0.08090 -0.12134
 C574 C 1.12991 -0.08407 -0.19859
 C575 C 1.16840 -0.10896 -0.30392
 C576 C 1.14095 -0.09145 -0.35163
 C577 C 1.10859 -0.06988 -0.32399
 C578 C 1.10306 -0.06603 -0.24833
 H579 H 1.19333 -0.12510 -0.32763
 H580 H 1.14495 -0.09436 -0.41043
 H581 H 1.08766 -0.05597 -0.36145
 H582 H 1.07783 -0.04843 -0.22955
 H583 H 1.20709 -0.13150 -0.06458
 H584 H 1.14988 -0.09530 -0.01564
 C585 C 1.19019 0.39548 0.36507
 C586 C 1.18230 0.36910 0.30375
 C587 C 1.14653 0.37258 0.26828
 C588 C 1.11815 0.40085 0.29438
 C589 C 1.12546 0.42855 0.35397
 C590 C 1.16358 0.42846 0.38531
 C591 C 1.22440 0.38969 0.40661
 C592 C 1.23466 0.41885 0.46099
 C593 C 1.21141 0.45453 0.47398
 C594 C 1.17650 0.45963 0.43632
 H595 H 1.24359 0.36268 0.39696
 H596 H 1.26137 0.41448 0.49137
 H597 H 1.22045 0.47846 0.51343
 H598 H 1.16135 0.48933 0.44564
 H599 H 1.14037 0.35286 0.22072
 H600 H 1.08998 0.40051 0.26811
 C601 C 0.63189 -0.14857 0.27075
 C602 C 0.66542 -0.15371 0.31536
 C603 C 0.66160 -0.14885 0.39167
 C604 C 0.62614 -0.13651 0.42337
 C605 C 0.59320 -0.12853 0.37994
 C606 C 0.59578 -0.13594 0.30327
 C607 C 0.63367 -0.15452 0.19392
 C608 C 0.60078 -0.14857 0.15040
 C609 C 0.56565 -0.13634 0.18223
 C610 C 0.56308 -0.12986 0.25790
 H611 H 0.66045 -0.16354 0.16680
 H612 H 0.60258 -0.15334 0.09157
 H613 H 0.54027 -0.13178 0.14808
 H614 H 0.53527 -0.12058 0.28091
 H615 H 0.68657 -0.15363 0.42689
 H616 H 0.62526 -0.12979 0.48181
 C617 C 0.64605 0.34994 -0.23820
 C618 C 0.68329 0.36483 -0.21815
 C619 C 0.68686 0.40212 -0.17678
 C620 C 0.65431 0.42342 -0.15118
 C621 C 0.61685 0.40717 -0.16270
 C622 C 0.61236 0.36944 -0.20689
 C623 C 0.64184 0.31573 -0.28851
 C624 C 0.60563 0.29837 -0.30297
 C625 C 0.57304 0.31458 -0.26759
 C626 C 0.57616 0.34943 -0.21997
 H627 H 0.66645 0.30227 -0.31754
 H628 H 0.60293 0.27182 -0.34094
 H629 H 0.54503 0.30018 -0.27735
 H630 H 0.54963 0.35889 -0.19376
 H631 H 0.71520 0.41425 -0.16215
 H632 H 0.65892 0.45223 -0.11921
 C633 C 1.15870 0.16387 -0.10551
 C634 C 1.15034 0.17374 -0.18032
 C635 C 1.12671 0.14602 -0.22046
 C636 C 1.11165 0.10918 -0.18844
 C637 C 1.11803 0.09923 -0.11395
 C638 C 1.14263 0.12639 -0.07235
 C639 C 1.17995 0.19260 -0.06098
 C640 C 1.18633 0.18419 0.01297
 C641 C 1.17134 0.14750 0.04449
 C642 C 1.14977 0.11882 0.00276
 H643 H 1.19080 0.22258 -0.08193
 H644 H 1.20248 0.20659 0.04631
 H645 H 1.17595 0.14182 0.10201
 H646 H 1.13887 0.09091 0.03009
 H647 H 1.12021 0.15258 -0.27762
 H648 H 1.09238 0.08958 -0.22113
 C649 C 1.17265 0.66235 0.41879
 C650 C 1.15963 0.68921 0.35987
 C651 C 1.12897 0.67480 0.31606
 C652 C 1.11085 0.63627 0.32991
 C653 C 1.12134 0.61024 0.38974
 C654 C 1.15478 0.62162 0.43114
 C655 C 1.20145 0.67610 0.46877
 C656 C 1.21602 0.64870 0.52249
 C657 C 1.20153 0.60754 0.52919
 C658 C 1.17083 0.59427 0.48512
 H659 H 1.21277 0.70827 0.46741
 H660 H 1.23860 0.65951 0.55928
 H661 H 1.21331 0.58617 0.57044
 H662 H 1.16096 0.56208 0.49330
 H663 H 1.11929 0.69288 0.26866
 H664 H 1.08667 0.62780 0.29487
 C665 C 0.59931 0.21064 0.38606
 C666 C 0.63504 0.20010 0.35145
 C667 C 0.64326 0.15741 0.33378
 C668 C 0.61743 0.12524 0.35124
 C669 C 0.58163 0.13461 0.38459
 C670 C 0.57105 0.17826 0.39657
 C671 C 0.59094 0.25271 0.41047
 C672 C 0.55399 0.26378 0.43534
 C673 C 0.52480 0.23334 0.43606
 C674 C 0.53308 0.19100 0.41714
 H675 H 0.61276 0.27741 0.41028
 H676 H 0.54772 0.29635 0.45223
 H677 H 0.49559 0.24252 0.45158
 H678 H 0.50898 0.16919 0.41593
 H679 H 0.67002 0.14875 0.30606
 H680 H 0.62616 0.09254 0.33974
 C681 C 0.64128 0.62633 -0.25303
 C682 C 0.66200 0.65170 -0.20163
 C683 C 0.66853 0.63554 -0.13069
 C684 C 0.64899 0.59942 -0.10662
 C685 C 0.62339 0.57804 -0.15321
 C686 C 0.62183 0.58916 -0.22839
 C687 C 0.64076 0.63610 -0.32878
 C688 C 0.61983 0.61106 -0.37814
 C689 C 0.59984 0.57530 -0.35340
 C690 C 0.60104 0.56410 -0.27930
 H691 H 0.65752 0.66227 -0.35060
 H692 H 0.61958 0.61909 -0.43598
 H693 H 0.58396 0.55570 -0.39199
 H694 H 0.58652 0.53514 -0.26233
 H695 H 0.68510 0.65359 -0.09081
 H696 H 0.65033 0.59143 -0.04905
 C697 C 0.83865 -0.12377 -0.19399
 C698 C 0.84280 -0.16576 -0.16452
 C699 C 0.86495 -0.17152 -0.10084
 C700 C 0.88404 -0.13728 -0.06804
 C701 C 0.88181 -0.09593 -0.09761
 C702 C 0.85837 -0.08866 -0.16016
 C703 C 0.81667 -0.11604 -0.25801
 C704 C 0.81366 -0.07485 -0.28722
 C705 C 0.83275 -0.04075 -0.25394
 C706 C 0.85513 -0.04749 -0.19119
 H707 H 0.80194 -0.14168 -0.28635
 H708 H 0.79659 -0.06940 -0.33625
 H709 H 0.83035 -0.00893 -0.27709
 H710 H 0.86968 -0.02028 -0.16694
 H711 H 0.86824 -0.20314 -0.07715
 H712 H 0.90250 -0.14357 -0.02102
 C713 C 0.86698 0.35769 0.27699
 C714 C 0.85157 0.33164 0.33356
 C715 C 0.85064 0.34732 0.40575
 C716 C 0.86696 0.38658 0.42338
 C717 C 0.88491 0.41147 0.36967
 C718 C 0.88397 0.39778 0.29539
 C719 C 0.86550 0.34520 0.20250
 C720 C 0.88120 0.37103 0.14776
 C721 C 0.89826 0.40989 0.16594
 C722 C 0.89958 0.42336 0.23898
 H723 H 0.85199 0.31571 0.18576
 H724 H 0.87991 0.36093 0.09088
 H725 H 0.91021 0.42989 0.12316
 H726 H 0.91220 0.45425 0.25086
 H727 H 0.83787 0.32845 0.44931
 H728 H 0.86835 0.39586 0.48040
 C729 C 0.41075 -0.20776 0.33504
 C730 C 0.37712 -0.19449 0.29602
 C731 C 0.37180 -0.15143 0.27835
 C732 C 0.39682 -0.12082 0.30525
 C733 C 0.42880 -0.13242 0.34889
 C734 C 0.43823 -0.17654 0.35718
 C735 C 0.41741 -0.25106 0.35407
 C736 C 0.45223 -0.26379 0.38650
 C737 C 0.48090 -0.23382 0.40060
 C738 C 0.47406 -0.19060 0.38643
 H739 H 0.39606 -0.27553 0.34413
 H740 H 0.45729 -0.29718 0.39938
 H741 H 0.50854 -0.24406 0.42284
 H742 H 0.49770 -0.16889 0.39589
 H743 H 0.34675 -0.14113 0.24688
 H744 H 0.38948 -0.08758 0.29514
 C745 C 0.32370 0.35967 -0.11856
 C746 C 0.33615 0.33709 -0.18267
 C747 C 0.36383 0.35572 -0.22883
 C748 C 0.38211 0.39307 -0.20936
 C749 C 0.37426 0.41284 -0.14200
 C750 C 0.34175 0.39926 -0.10020
 C751 C 0.29610 0.34265 -0.06920
 C752 C 0.28313 0.36632 -0.00892
 C753 C 0.29800 0.40679 0.00464
 C754 C 0.32745 0.42294 -0.03961
 H755 H 0.28456 0.31082 -0.07572
 H756 H 0.26150 0.35315 0.02759
 H757 H 0.28743 0.42530 0.05095
 H758 H 0.33758 0.45461 -0.02679
 H759 H 0.37224 0.34065 -0.28020
 H760 H 0.40540 0.40432 -0.24425
 C761 C 1.12989 -0.18389 0.17882
 C762 C 1.15773 -0.17197 0.23250
 C763 C 1.16550 -0.12811 0.24262
 C764 C 1.14311 -0.09648 0.20782
 C765 C 1.11267 -0.10756 0.16070
 C766 C 1.10653 -0.15182 0.14458
 C767 C 1.12636 -0.22698 0.15502
 C768 C 1.09837 -0.23881 0.10411
 C769 C 1.07390 -0.20807 0.07435
 C770 C 1.07810 -0.16522 0.09370
 H771 H 1.14585 -0.25191 0.17367
 H772 H 1.09589 -0.27193 0.08724
 H773 H 1.05205 -0.21729 0.03477
 H774 H 1.05904 -0.14320 0.06721
 H775 H 1.18751 -0.11813 0.28139
 H776 H 1.14817 -0.06324 0.22132
 C777 C 1.13704 0.32148 0.61657
 C778 C 1.14099 0.31640 0.69329
 C779 C 1.13161 0.35079 0.73978
 C780 C 1.11705 0.38929 0.71149
 C781 C 1.11220 0.39518 0.63559
 C782 C 1.12264 0.36089 0.58758
 C783 C 1.14670 0.28769 0.56794
 C784 C 1.14168 0.29226 0.49247
 C785 C 1.12701 0.33034 0.46425
 C786 C 1.11787 0.36429 0.51116
 H787 H 1.15763 0.25729 0.58786
 H788 H 1.14892 0.26607 0.45579
 H789 H 1.12269 0.33353 0.40572
 H790 H 1.10747 0.39336 0.48731
 H791 H 1.13568 0.34779 0.79857
 H792 H 1.10799 0.41421 0.74945
 C793 C 0.60078 -0.21523 0.65813
 C794 C 0.63337 -0.20454 0.70299
 C795 C 0.63722 -0.16174 0.72574
 C796 C 0.61042 -0.13062 0.70582
 C797 C 0.57738 -0.14064 0.66440
 C798 C 0.57084 -0.18428 0.64554
 C799 C 0.59814 -0.25502 0.62138
 C800 C 0.56412 -0.26712 0.58597
 C801 C 0.53237 -0.23951 0.58520
 C802 C 0.53564 -0.19833 0.61399
 H803 H 0.62247 -0.27684 0.61890
 H804 H 0.56220 -0.29831 0.56020
 H805 H 0.50531 -0.24970 0.56091
 H806 H 0.50990 -0.17851 0.61314
 H807 H 0.66075 -0.15189 0.76120
 H808 H 0.61624 -0.09802 0.72266
 C809 C 0.65771 0.33571 0.13865
 C810 C 0.65731 0.33536 0.21626
 C811 C 0.63818 0.36776 0.25528
 C812 C 0.61761 0.39940 0.21839
 C813 C 0.61554 0.39929 0.14163
 C814 C 0.63630 0.36780 0.10074
 C815 C 0.67732 0.30357 0.09801
 C816 C 0.67571 0.30302 0.02154
 C817 C 0.65415 0.33386 -0.01560
 C818 C 0.63448 0.36579 0.02341
 H819 H 0.69377 0.27847 0.12480
 H820 H 0.69082 0.27822 -0.00899
 H821 H 0.65239 0.33275 -0.07486
 H822 H 0.61766 0.38845 -0.00747
 H823 H 0.63775 0.36740 0.31482
 H824 H 0.60135 0.42283 0.25010
 C825 C 0.85993 0.18489 0.15713
 C826 C 0.84709 0.18123 0.23078
 C827 C 0.85211 0.14224 0.26776
 C828 C 0.87172 0.10797 0.23450
 C829 C 0.88676 0.11176 0.16334
 C830 C 0.88088 0.15045 0.12403
 C831 C 0.85262 0.22227 0.11573
 C832 C 0.86716 0.22642 0.04463
 C833 C 0.88931 0.19364 0.01364
 C834 C 0.89631 0.15612 0.05294
 H835 H 0.83530 0.24830 0.13759
 H836 H 0.86138 0.25529 0.01359
 H837 H 0.90086 0.19712 -0.04132
 H838 H 0.91351 0.13146 0.02691
 H839 H 0.84192 0.13882 0.32374
 H840 H 0.87687 0.07904 0.26585
 C841 C 0.87021 0.69269 0.64075
 C842 C 0.85322 0.68881 0.71104
 C843 C 0.85228 0.64838 0.74480
 C844 C 0.86937 0.61248 0.71161
 C845 C 0.88758 0.61574 0.64318
 C846 C 0.88825 0.65631 0.60754
 C847 C 0.86964 0.73204 0.60251
 C848 C 0.88758 0.73585 0.53424
 C849 C 0.90670 0.70088 0.50328
 C850 C 0.90731 0.66172 0.53978
 H851 H 0.85541 0.76017 0.62482
 H852 H 0.88698 0.76618 0.50559
 H853 H 0.92110 0.70404 0.45072
 H854 H 0.92278 0.63573 0.51458
 H855 H 0.83833 0.64469 0.79774
 H856 H 0.86981 0.58235 0.74097
 C857 C 0.39483 0.20852 0.66513
 C858 C 0.36096 0.19670 0.70452
 C859 C 0.35519 0.15371 0.72206
 C860 C 0.38156 0.12254 0.70017
 C861 C 0.41598 0.13320 0.66316
 C862 C 0.42425 0.17732 0.65092
 C863 C 0.40018 0.25072 0.63933
 C864 C 0.43571 0.26346 0.61067
 C865 C 0.46639 0.23448 0.60698
 C866 C 0.46085 0.19181 0.62635
 H867 H 0.37704 0.27423 0.64125
 H868 H 0.43975 0.29622 0.59313
 H869 H 0.49461 0.24504 0.58867
 H870 H 0.48617 0.17139 0.62494
 H871 H 0.32988 0.14399 0.75296
 H872 H 0.37446 0.08956 0.71208
 C873 C 0.35747 0.67843 0.09809
 C874 C 0.33895 0.67364 0.16666
 C875 C 0.34046 0.63432 0.20340
 C876 C 0.36353 0.60113 0.17651
 C877 C 0.38577 0.60707 0.11329
 C878 C 0.38225 0.64542 0.07226
 C879 C 0.35325 0.71637 0.05668
 C880 C 0.37418 0.72206 -0.00804
 C881 C 0.39993 0.69047 -0.03180
 C882 C 0.40400 0.65251 0.00779
 H883 H 0.33378 0.74177 0.07422
 H884 H 0.37085 0.75132 -0.03924
 H885 H 0.41692 0.69551 -0.08094
 H886 H 0.42450 0.62907 -0.01202
 H887 H 0.32642 0.63060 0.25627
 H888 H 0.36628 0.57193 0.20798
   
