data_POSCAR
  _audit_creation_date              2014-09-24
  _audit_creation_method            'ToBaCCo'
  _symmetry_space_group_name_H-M    'P1'
  _symmetry_Int_Tables_number       1
  _symmetry_cell_setting            triclinic
  loop_
  _symmetry_equiv_pos_as_xyz
 x,y,z
_cell_length_a 49.9133
_cell_length_b 48.8087
_cell_length_c 48.3743
_cell_angle_alpha 89.539200
_cell_angle_beta 89.602100
_cell_angle_gamma 93.287200
loop_
  _atom_site_label
  _atom_site_type_symbol
  _atom_site_fract_x
  _atom_site_fract_y
  _atom_site_fract_z
C1 C 0.60342 0.63242 0.64530
 C2 C 0.58370 0.65177 0.64489
 C3 C 0.58266 0.67082 0.62304
 C4 C 0.60164 0.67046 0.60147
 C5 C 0.62182 0.65161 0.60186
 C6 C 0.62274 0.63253 0.62388
 C7 C 0.60407 0.61293 0.66675
 C8 C 0.62432 0.59393 0.66765
 C9 C 0.64388 0.59472 0.64643
 C10 C 0.64293 0.61350 0.62442
 C11 C 0.66178 0.61337 0.60280
 C12 C 0.66096 0.63222 0.58074
 C13 C 0.64105 0.65146 0.58054
 H14 H 0.56891 0.65180 0.66142
 H15 H 0.60097 0.68516 0.58460
 H16 H 0.58894 0.61292 0.68294
 H17 H 0.65957 0.58025 0.64653
 H18 H 0.67720 0.59862 0.60323
 H19 H 0.64023 0.66601 0.56356
 C20 C 0.90060 0.37109 0.14405
 C21 C 0.91952 0.35094 0.14353
 C22 C 0.92010 0.33199 0.12169
 C23 C 0.90100 0.33342 0.10042
 C24 C 0.88147 0.35299 0.10113
 C25 C 0.88138 0.37203 0.12290
 C26 C 0.90059 0.39028 0.16548
 C27 C 0.88125 0.41007 0.16637
 C28 C 0.86192 0.41071 0.14543
 C29 C 0.86202 0.39199 0.12357
 C30 C 0.84299 0.39285 0.10243
 C31 C 0.84267 0.37363 0.08095
 C32 C 0.86193 0.35373 0.08045
 H33 H 0.93407 0.35041 0.16003
 H34 H 0.90089 0.31898 0.08351
 H35 H 0.91539 0.38957 0.18173
 H36 H 0.84703 0.42602 0.14595
 H37 H 0.82806 0.40812 0.10299
 H38 H 0.86185 0.33900 0.06379
 C39 C 0.39487 0.12215 -0.14454
 C40 C 0.41537 0.14304 -0.14398
 C41 C 0.41491 0.16402 -0.12430
 C42 C 0.39360 0.16415 -0.10519
 C43 C 0.37262 0.14379 -0.10592
 C44 C 0.37329 0.12263 -0.12560
 C45 C 0.39560 0.10084 -0.16378
 C46 C 0.37461 0.08026 -0.16501
 C47 C 0.35297 0.08122 -0.14619
 C48 C 0.35237 0.10197 -0.12634
 C49 C 0.33116 0.10238 -0.10719
 C50 C 0.33029 0.12350 -0.08769
 C51 C 0.35098 0.14424 -0.08730
 H52 H 0.43191 0.14280 -0.15861
 H53 H 0.39313 0.18041 -0.09008
 H54 H 0.41237 0.10069 -0.17813
 H55 H 0.33667 0.06556 -0.14657
 H56 H 0.31512 0.08644 -0.10766
 H57 H 0.35047 0.16048 -0.07217
 C58 C 0.10137 0.87945 0.36221
 C59 C 0.08063 0.85879 0.36297
 C60 C 0.08271 0.83503 0.37945
 C61 C 0.10586 0.83262 0.39569
 C62 C 0.12628 0.85359 0.39589
 C63 C 0.12416 0.87697 0.37891
 C64 C 0.09986 0.90235 0.34465
 C65 C 0.12111 0.92251 0.34320
 C66 C 0.14337 0.92032 0.36053
 C67 C 0.14487 0.89789 0.37861
 C68 C 0.16679 0.89600 0.39634
 C69 C 0.16868 0.87312 0.41387
 C70 C 0.14868 0.85167 0.41306
 H71 H 0.06318 0.86103 0.35010
 H72 H 0.10784 0.81469 0.40873
 H73 H 0.08261 0.90397 0.33138
 H74 H 0.15959 0.93608 0.35988
 H75 H 0.18243 0.91236 0.39650
 H76 H 0.15008 0.83394 0.42650
 N77 N 0.08748 0.16823 0.10858
 N78 N 0.07840 0.15913 0.13274
 C79 C 0.05787 0.17408 0.14068
 C80 C 0.05366 0.19319 0.12020
 C81 C 0.07269 0.18889 0.10007
 H82 H 0.04661 0.17119 0.15976
 H83 H 0.07590 0.20037 0.08100
 Cu84 Cu 0.09379 0.12814 0.15104
 Cu85 Cu 0.11875 0.15371 0.09078
 Cu86 Cu 0.14720 0.09916 0.12365
 N87 N 0.10954 0.09712 0.16894
 N88 N 0.13094 0.08644 0.15847
 C89 C 0.13824 0.06597 0.17508
 C90 C 0.12027 0.06347 0.19690
 C91 C 0.10225 0.08346 0.19238
 H92 H 0.15511 0.05350 0.17137
 H93 H 0.08529 0.08779 0.20534
 N94 N 0.16079 0.11489 0.08829
 N95 N 0.15049 0.13619 0.07617
 C96 C 0.16504 0.14296 0.05328
 C97 C 0.18512 0.12480 0.05077
 C98 C 0.18181 0.10724 0.07317
 H99 H 0.16134 0.15977 0.03939
 H100 H 0.19423 0.09053 0.07833
 H101 H 0.11301 0.11459 0.10708
 H102 H 0.13584 0.13919 0.12637
 N103 N 0.40988 0.83055 0.61053
 N104 N 0.42039 0.84185 0.63286
 C105 C 0.44172 0.82796 0.64052
 C106 C 0.44488 0.80717 0.62177
 C107 C 0.42442 0.80943 0.60297
 H108 H 0.45417 0.83264 0.65827
 H109 H 0.42019 0.79636 0.58540
 Cu110 Cu 0.40555 0.87384 0.64965
 Cu111 Cu 0.37759 0.84334 0.59359
 Cu112 Cu 0.34847 0.89790 0.62491
 N113 N 0.38846 0.90423 0.66705
 N114 N 0.36548 0.91258 0.65807
 C115 C 0.35753 0.93282 0.67440
 C116 C 0.37675 0.93768 0.69440
 C117 C 0.39617 0.91930 0.68915
 H118 H 0.33944 0.94367 0.67159
 H119 H 0.41433 0.91692 0.70079
 N120 N 0.33420 0.88045 0.59115
 N121 N 0.34486 0.85920 0.57954
 C122 C 0.33033 0.85175 0.55715
 C123 C 0.30988 0.86945 0.55442
 C124 C 0.31293 0.88739 0.57620
 H125 H 0.33458 0.83510 0.54349
 H126 H 0.30047 0.90421 0.58078
 H127 H 0.38251 0.88349 0.60661
 H128 H 0.36249 0.85900 0.62964
 N129 N 0.90159 0.66526 0.38166
 N130 N 0.91917 0.64825 0.37271
 C131 C 0.94345 0.66161 0.37073
 C132 C 0.94079 0.68853 0.37839
 C133 C 0.91396 0.69024 0.38504
 H134 H 0.96153 0.65266 0.36351
 H135 H 0.90426 0.70814 0.39225
 Cu136 Cu 0.90835 0.61099 0.36219
 Cu137 Cu 0.86423 0.65342 0.38900
 Cu138 Cu 0.84898 0.58363 0.38396
 N139 N 0.89168 0.57851 0.34488
 N140 N 0.86801 0.56816 0.35303
 C141 C 0.86061 0.54668 0.33699
 C142 C 0.88083 0.54338 0.31784
 C143 C 0.90031 0.56382 0.32348
 H144 H 0.84189 0.53451 0.33902
 H145 H 0.91900 0.56813 0.31239
 N146 N 0.82671 0.60801 0.40488
 N147 N 0.83177 0.63482 0.40588
 C148 C 0.81347 0.64567 0.42256
 C149 C 0.79632 0.62456 0.43255
 C150 C 0.80525 0.60100 0.42088
 H151 H 0.81355 0.66706 0.42825
 H152 H 0.79722 0.58020 0.42441
 H153 H 0.87567 0.61527 0.39930
 H154 H 0.86050 0.61882 0.36431
 N155 N 0.59510 0.33579 -0.11064
 N156 N 0.58418 0.34770 -0.13193
 C157 C 0.56187 0.33276 -0.13929
 C158 C 0.55851 0.31062 -0.12138
 C159 C 0.57985 0.31320 -0.10339
 H160 H 0.54891 0.33761 -0.15624
 H161 H 0.58424 0.29931 -0.08671
 Cu162 Cu 0.60006 0.38173 -0.14763
 Cu163 Cu 0.62901 0.34963 -0.09490
 Cu164 Cu 0.65845 0.40947 -0.12366
 N165 N 0.61632 0.41574 -0.16300
 N166 N 0.63981 0.42574 -0.15441
 C167 C 0.64726 0.44824 -0.16949
 C168 C 0.62716 0.45278 -0.18816
 C169 C 0.60777 0.43190 -0.18346
 H170 H 0.66576 0.46058 -0.16689
 H171 H 0.58919 0.42845 -0.19460
 N172 N 0.67414 0.38999 -0.09237
 N173 N 0.66329 0.36682 -0.08190
 C174 C 0.67898 0.35828 -0.06136
 C175 C 0.70042 0.37717 -0.05856
 C176 C 0.69673 0.39704 -0.07842
 H177 H 0.67492 0.33996 -0.04897
 H178 H 0.70969 0.41517 -0.08243
 H179 H 0.62488 0.39039 -0.10506
 H180 H 0.64359 0.36965 -0.13017
 C181 C -0.02352 0.27332 0.12057
 N182 N -0.03904 0.27736 0.09815
 N183 N -0.05736 0.29617 0.09856
 C184 C -0.06065 0.31198 0.12124
 N185 N -0.04487 0.30794 0.14355
 N186 N -0.02682 0.28888 0.14330
 C187 C -0.00355 0.25242 0.12036
 N188 N 0.00488 0.24149 0.14445
 N189 N 0.02296 0.22245 0.14435
 C190 C 0.03355 0.21396 0.12019
 N191 N 0.02527 0.22502 0.09610
 N192 N 0.00689 0.24378 0.09617
 C193 C 0.52382 0.72876 0.62246
 N194 N 0.53381 0.71935 0.59839
 N195 N 0.55259 0.70101 0.59856
 C196 C 0.56185 0.69116 0.62282
 N197 N 0.55171 0.70048 0.64688
 N198 N 0.53315 0.71904 0.64671
 C199 C 0.50331 0.74914 0.62227
 N200 N 0.49834 0.76378 0.64530
 N201 N 0.47983 0.78240 0.64509
 C202 C 0.46543 0.78682 0.62194
 N203 N 0.47030 0.77207 0.59896
 N204 N 0.48902 0.75367 0.59907
 C205 C 1.02246 0.77343 0.37974
 N206 N 1.01867 0.79800 0.36752
 N207 N 1.03816 0.81782 0.36730
 C208 C 1.06211 0.81405 0.37963
 N209 N 1.06567 0.78943 0.39205
 N210 N 1.04633 0.76946 0.39192
 C211 C 1.00119 0.75142 0.37958
 N212 N 1.00733 0.72478 0.38195
 N213 N 0.98807 0.70473 0.38143
 C214 C 0.96195 0.71064 0.37895
 N215 N 0.95578 0.73730 0.37681
 N216 N 0.97508 0.75733 0.37691
 C217 C 0.47623 0.22629 -0.12294
 N218 N 0.46776 0.21527 -0.14725
 N219 N 0.44841 0.19530 -0.14766
 C220 C 0.43658 0.18586 -0.12380
 N221 N 0.44497 0.19702 -0.09949
 N222 N 0.46456 0.21674 -0.09906
 C223 C 0.49759 0.24821 -0.12250
 N224 N 0.51191 0.25335 -0.09917
 N225 N 0.53143 0.27315 -0.09885
 C226 C 0.53708 0.28875 -0.12174
 N227 N 0.52264 0.28373 -0.14501
 N228 N 0.50336 0.26370 -0.14544
 C229 C 0.12038 -0.01491 0.28339
 N230 N 0.09700 -0.02615 0.29408
 N231 N 0.09717 -0.04587 0.31329
 C232 C 0.12072 -0.05486 0.32275
 N233 N 0.14407 -0.04336 0.31222
 N234 N 0.14390 -0.02386 0.29283
 C235 C 0.12036 0.00592 0.26135
 N236 N 0.14266 0.01143 0.24562
 N237 N 0.14260 0.02978 0.22510
 C238 C 0.12030 0.04351 0.21976
 N239 N 0.09804 0.03819 0.23563
 N240 N 0.09801 0.01960 0.25597
 C241 C 0.62576 0.53582 -0.26995
 N242 N 0.64690 0.53996 -0.28755
 N243 N 0.64638 0.55867 -0.30770
 C244 C 0.62490 0.57432 -0.31085
 N245 N 0.60390 0.57029 -0.29292
 N246 N 0.60422 0.55127 -0.27302
 C247 C 0.62609 0.51467 -0.24827
 N248 N 0.60279 0.50262 -0.23821
 N249 N 0.60313 0.48285 -0.21908
 C250 C 0.62676 0.47472 -0.20905
 N251 N 0.65004 0.48695 -0.21890
 N252 N 0.64971 0.50642 -0.23833
 C253 C 0.37604 1.01888 0.77682
 N254 N 0.39800 1.03601 0.78093
 N255 N 0.39751 1.05588 0.79962
 C256 C 0.37517 1.05922 0.81524
 N257 N 0.35332 1.04180 0.81119
 N258 N 0.35367 1.02218 0.79223
 C259 C 0.37629 0.99746 0.75575
 N260 N 0.35300 0.98743 0.74437
 N261 N 0.35319 0.96840 0.72480
 C262 C 0.37663 0.95841 0.71620
 N263 N 0.39992 0.96823 0.72776
 N264 N 0.39977 0.98757 0.74706
 C265 C 0.88120 0.46655 0.23120
 N266 N 0.85797 0.45835 0.21850
 N267 N 0.85801 0.44053 0.19778
 C268 C 0.88123 0.43001 0.18919
 N269 N 0.90444 0.43813 0.20202
 N270 N 0.90445 0.45618 0.22254
 C271 C 0.88117 0.48634 0.25387
 N272 N 0.90431 0.49992 0.26182
 N273 N 0.90422 0.51813 0.28219
 C274 C 0.88103 0.52317 0.29555
 N275 N 0.85792 0.50946 0.28772
 N276 N 0.85797 0.49148 0.26715
 C277 C 0.26720 0.12406 -0.03012
 N278 N 0.27592 0.10000 -0.03956
 N279 N 0.29579 0.09984 -0.05807
 C280 C 0.30792 0.12373 -0.06758
 N281 N 0.29924 0.14780 -0.05803
 N282 N 0.27915 0.14797 -0.03976
 C283 C 0.24553 0.12419 -0.00946
 N284 N 0.23180 0.14705 -0.00537
 N285 N 0.21230 0.14717 0.01358
 C286 C 0.20608 0.12453 0.02935
 N287 N 0.21987 0.10171 0.02532
 N288 N 0.23913 0.10149 0.00614
 C289 C 0.71710 0.62968 0.51600
 N290 N 0.70471 0.65314 0.52133
 N291 N 0.68675 0.65397 0.54179
 C292 C 0.68070 0.63144 0.55785
 N293 N 0.69319 0.60805 0.55249
 N294 N 0.71096 0.60715 0.53192
 C295 C 0.73707 0.62856 0.49367
 N296 N 0.74582 0.60405 0.48557
 N297 N 0.76438 0.60284 0.46579
 C298 C 0.77504 0.62611 0.45351
 N299 N 0.76629 0.65066 0.46157
 N300 N 0.74754 0.65186 0.48123
 C301 C 0.78330 0.37506 0.02019
 N302 N 0.79294 0.39868 0.03209
 N303 N 0.81183 0.39822 0.05139
 C304 C 0.82201 0.37417 0.05928
 N305 N 0.81251 0.35059 0.04717
 N306 N 0.79340 0.35101 0.02810
 C307 C 0.76204 0.37552 -0.00059
 N308 N 0.74697 0.35231 -0.00657
 N309 N 0.72730 0.35285 -0.02502
 C310 C 0.72220 0.37654 -0.03837
 N311 N 0.73740 0.39969 -0.03254
 N312 N 0.75687 0.39923 -0.01386
 C313 C 0.23061 0.87096 0.47179
 N314 N 0.22171 0.89523 0.46289
 N315 N 0.20236 0.89585 0.44413
 C316 C 0.19096 0.87223 0.43374
 N317 N 0.19986 0.84792 0.44269
 N318 N 0.21944 0.84730 0.46125
 C319 C 0.25146 0.87046 0.49299
 N320 N 0.26529 0.84766 0.49731
 N321 N 0.28410 0.84736 0.51674
 C322 C 0.28947 0.86971 0.53273
 N323 N 0.27555 0.89243 0.52847
 N324 N 0.25699 0.89284 0.50886
   
