data_POSCAR
  _audit_creation_date              2014-09-24
  _audit_creation_method            'ToBaCCo'
  _symmetry_space_group_name_H-M    'P1'
  _symmetry_Int_Tables_number       1
  _symmetry_cell_setting            triclinic
  loop_
  _symmetry_equiv_pos_as_xyz
 x,y,z
_cell_length_a 42.8073
_cell_length_b 40.4109
_cell_length_c 41.7494
_cell_angle_alpha 92.052100
_cell_angle_beta 89.595800
_cell_angle_gamma 90.508600
loop_
  _atom_site_label
  _atom_site_type_symbol
  _atom_site_fract_x
  _atom_site_fract_y
  _atom_site_fract_z
C1 C 0.20574 0.17305 0.22970
 C2 C 0.17974 0.17328 0.25043
 C3 C 0.15618 0.19697 0.24770
 C4 C 0.15844 0.22007 0.22329
 C5 C 0.18426 0.22019 0.20249
 C6 C 0.20805 0.19668 0.20569
 C7 C 0.22930 0.14939 0.23239
 C8 C 0.25521 0.14908 0.21136
 C9 C 0.25709 0.17251 0.18736
 C10 C 0.23384 0.19643 0.18447
 C11 C 0.23582 0.21984 0.16047
 C12 C 0.21229 0.24370 0.15746
 C13 C 0.18649 0.24336 0.17837
 H14 H 0.17790 0.15515 0.26890
 H15 H 0.13989 0.23760 0.21985
 H16 H 0.22690 0.13079 0.25030
 H17 H 0.27682 0.17213 0.17091
 H18 H 0.25533 0.21880 0.14386
 H19 H 0.16812 0.26141 0.17594
 C20 C 0.70458 0.67479 0.74581
 C21 C 0.67700 0.67660 0.76403
 C22 C 0.65494 0.70135 0.75897
 C23 C 0.66042 0.72413 0.73469
 C24 C 0.68787 0.72248 0.71603
 C25 C 0.71009 0.69780 0.72177
 C26 C 0.72675 0.65029 0.75129
 C27 C 0.75452 0.64843 0.73321
 C28 C 0.75968 0.67131 0.70898
 C29 C 0.73776 0.69599 0.70333
 C30 C 0.74306 0.71874 0.67931
 C31 C 0.72103 0.74315 0.67306
 C32 C 0.69345 0.74504 0.69170
 H33 H 0.67277 0.65887 0.78251
 H34 H 0.64320 0.74269 0.72974
 H35 H 0.72243 0.63261 0.76979
 H36 H 0.78026 0.66980 0.69387
 H37 H 0.76437 0.71728 0.66514
 H38 H 0.67660 0.76428 0.68784
 C39 C 0.29598 0.81785 0.73556
 C40 C 0.32205 0.81518 0.75543
 C41 C 0.34318 0.78909 0.75076
 C42 C 0.33847 0.76600 0.72515
 C43 C 0.31251 0.76846 0.70504
 C44 C 0.29106 0.79438 0.71031
 C45 C 0.27475 0.84363 0.74077
 C46 C 0.24818 0.84653 0.72141
 C47 C 0.24338 0.82274 0.69610
 C48 C 0.26476 0.79684 0.69036
 C49 C 0.26031 0.77336 0.66499
 C50 C 0.28196 0.74757 0.65933
 C51 C 0.30778 0.74537 0.67970
 H52 H 0.32572 0.83322 0.77493
 H53 H 0.35512 0.74641 0.72038
 H54 H 0.27893 0.86151 0.76032
 H55 H 0.22342 0.82398 0.68052
 H56 H 0.23986 0.77521 0.65015
 H57 H 0.32446 0.72557 0.67568
 C58 C 0.79325 0.31326 0.23631
 C59 C 0.81852 0.30786 0.25661
 C60 C 0.83974 0.28200 0.25010
 C61 C 0.83486 0.26125 0.22251
 C62 C 0.80948 0.26631 0.20213
 C63 C 0.78862 0.29241 0.20899
 C64 C 0.77260 0.33936 0.24296
 C65 C 0.74717 0.34497 0.22287
 C66 C 0.74263 0.32400 0.19552
 C67 C 0.76318 0.29771 0.18850
 C68 C 0.75876 0.27673 0.16126
 C69 C 0.77958 0.25055 0.15420
 C70 C 0.80471 0.24558 0.17492
 H71 H 0.82173 0.32414 0.27759
 H72 H 0.85025 0.24093 0.21647
 H73 H 0.77634 0.35547 0.26395
 H74 H 0.72371 0.32832 0.17919
 H75 H 0.73883 0.28069 0.14615
 H76 H 0.82078 0.22546 0.16972
 C77 C 0.79832 0.68966 0.27403
 C78 C 0.82095 0.69640 0.25061
 C79 C 0.84143 0.72384 0.25414
 C80 C 0.83845 0.74484 0.28184
 C81 C 0.81583 0.73845 0.30538
 C82 C 0.79585 0.71071 0.30156
 C83 C 0.77821 0.66209 0.27043
 C84 C 0.75569 0.65536 0.29417
 C85 C 0.75389 0.67614 0.32172
 C86 C 0.77351 0.70387 0.32544
 C87 C 0.77099 0.72488 0.35271
 C88 C 0.79018 0.75318 0.35629
 C89 C 0.81290 0.75945 0.33278
 H90 H 0.82274 0.67994 0.22958
 H91 H 0.85345 0.76618 0.28577
 H92 H 0.78060 0.64574 0.24946
 H93 H 0.73669 0.67099 0.34013
 H94 H 0.75429 0.71877 0.37122
 H95 H 0.82808 0.78096 0.33569
 C96 C 0.30380 0.18537 -0.23157
 C97 C 0.33017 0.19179 -0.25075
 C98 C 0.35137 0.21761 -0.24205
 C99 C 0.34563 0.23647 -0.21370
 C100 C 0.31923 0.23064 -0.19476
 C101 C 0.29814 0.20509 -0.20364
 C102 C 0.28302 0.15944 -0.23985
 C103 C 0.25660 0.15294 -0.22079
 C104 C 0.25112 0.17299 -0.19295
 C105 C 0.27155 0.19915 -0.18443
 C106 C 0.26597 0.21938 -0.15686
 C107 C 0.28688 0.24525 -0.14830
 C108 C 0.31362 0.25027 -0.16711
 H109 H 0.33386 0.17622 -0.27197
 H110 H 0.36159 0.25634 -0.20648
 H111 H 0.28746 0.14414 -0.26125
 H112 H 0.23150 0.16815 -0.17732
 H113 H 0.24572 0.21460 -0.14199
 H114 H 0.32989 0.27003 -0.16043
 C115 C 0.71031 0.32269 -0.24657
 C116 C 0.68395 0.31715 -0.26574
 C117 C 0.66207 0.29205 -0.25904
 C118 C 0.66742 0.27205 -0.23248
 C119 C 0.69395 0.27718 -0.21317
 C120 C 0.71537 0.30268 -0.22020
 C121 C 0.73156 0.34821 -0.25325
 C122 C 0.75790 0.35407 -0.23397
 C123 C 0.76259 0.33422 -0.20739
 C124 C 0.74165 0.30850 -0.20059
 C125 C 0.74652 0.28874 -0.17424
 C126 C 0.72574 0.26291 -0.16722
 C127 C 0.69924 0.25744 -0.18669
 H128 H 0.68035 0.33283 -0.28594
 H129 H 0.65133 0.25252 -0.22633
 H130 H 0.72759 0.36364 -0.27353
 H131 H 0.78200 0.33902 -0.19138
 H132 H 0.76676 0.29331 -0.15918
 H133 H 0.68232 0.23843 -0.18106
 C134 C 0.20125 0.80818 0.26385
 C135 C 0.17390 0.80270 0.24607
 C136 C 0.15384 0.77585 0.25250
 C137 C 0.16180 0.75421 0.27671
 C138 C 0.18907 0.75939 0.29474
 C139 C 0.20891 0.78644 0.28816
 C140 C 0.22117 0.83498 0.25749
 C141 C 0.24892 0.84051 0.27495
 C142 C 0.25635 0.81829 0.29911
 C143 C 0.23658 0.79156 0.30572
 C144 C 0.24421 0.76985 0.32980
 C145 C 0.22446 0.74325 0.33697
 C146 C 0.19694 0.73792 0.31913
 H147 H 0.16885 0.81896 0.22676
 H148 H 0.14660 0.73336 0.28160
 H149 H 0.21499 0.85159 0.23874
 H150 H 0.27722 0.82119 0.31328
 H151 H 0.26552 0.77388 0.34335
 H152 H 0.18190 0.71691 0.32367
 C153 C 0.44891 0.45847 0.49085
 C154 C 0.45502 0.43281 0.51167
 C155 C 0.48225 0.41370 0.50790
 C156 C 0.50309 0.42049 0.48283
 C157 C 0.49717 0.44595 0.46181
 C158 C 0.47000 0.46510 0.46577
 C159 C 0.42176 0.47730 0.49457
 C160 C 0.41522 0.50291 0.47383
 C161 C 0.43637 0.50937 0.44862
 C162 C 0.46374 0.49053 0.44443
 C163 C 0.48478 0.49640 0.41910
 C164 C 0.51194 0.47704 0.41491
 C165 C 0.51789 0.45217 0.43664
 H166 H 0.43806 0.42748 0.53014
 H167 H 0.52398 0.40571 0.47956
 H168 H 0.40557 0.47203 0.51388
 H169 H 0.43150 0.52839 0.43183
 H170 H 0.47984 0.51605 0.40304
 H171 H 0.53867 0.43716 0.43367
 C172 C -0.06676 -0.03457 0.98002
 C173 C -0.06265 -0.05672 1.00476
 C174 C -0.03799 -0.07944 1.00378
 C175 C -0.01682 -0.07931 0.97772
 C176 C -0.02071 -0.05739 0.95273
 C177 C -0.04581 -0.03497 0.95387
 C178 C -0.09162 -0.01213 0.98115
 C179 C -0.09607 0.01024 0.95626
 C180 C -0.07501 0.00921 0.93013
 C181 C -0.04997 -0.01300 0.92883
 C182 C -0.02900 -0.01349 0.90284
 C183 C -0.00349 -0.03534 0.90176
 C184 C 0.00019 -0.05744 0.92665
 H185 H -0.07889 -0.05647 1.02482
 H186 H 0.00301 -0.09570 0.97681
 H187 H -0.10719 -0.01287 1.00154
 H188 H -0.07793 0.02601 0.91069
 H189 H -0.03300 0.00286 0.88333
 H190 H 0.01958 -0.07455 0.92581
 C191 C 1.06119 0.54843 0.99586
 C192 C 1.05570 0.57322 1.01963
 C193 C 1.03276 0.59754 1.01567
 C194 C 1.01513 0.59635 0.98710
 C195 C 1.02032 0.57170 0.96326
 C196 C 1.04349 0.54776 0.96755
 C197 C 1.08435 0.52452 0.99991
 C198 C 1.09041 0.50000 0.97565
 C199 C 1.07259 0.49998 0.94742
 C200 C 1.04914 0.52336 0.94332
 C201 C 1.03133 0.52270 0.91523
 C202 C 1.00757 0.54602 0.91117
 C203 C 1.00263 0.57073 0.93507
 H204 H 1.06956 0.57365 1.04130
 H205 H 0.99755 0.61450 0.98249
 H206 H 1.09769 0.52597 1.02177
 H207 H 1.07681 0.48143 0.92847
 H208 H 1.03642 0.50428 0.89651
 H209 H 0.98462 0.58901 0.93186
 C210 C 0.57110 0.05416 0.47646
 C211 C 0.57010 0.08324 0.49574
 C212 C 0.54644 0.10646 0.49192
 C213 C 0.52437 0.10117 0.46741
 C214 C 0.52535 0.07236 0.44765
 C215 C 0.54867 0.04860 0.45233
 C216 C 0.59394 0.03040 0.48152
 C217 C 0.59451 0.00028 0.46322
 C218 C 0.57229 -0.00463 0.43863
 C219 C 0.54942 0.01924 0.43307
 C220 C 0.52698 0.01401 0.40893
 C221 C 0.50382 0.03789 0.40387
 C222 C 0.50315 0.06678 0.42354
 H223 H 0.58719 0.08736 0.51455
 H224 H 0.50654 0.11942 0.46351
 H225 H 0.61105 0.03616 0.49977
 H226 H 0.57248 -0.02735 0.42399
 H227 H 0.52727 -0.00895 0.39478
 H228 H 0.48521 0.08507 0.42002
 C229 C -0.06552 0.04061 0.51381
 C230 C -0.05657 0.06370 0.49111
 C231 C -0.02781 0.08082 0.49382
 C232 C -0.00771 0.07379 0.51912
 C233 C -0.01632 0.05072 0.54200
 C234 C -0.04538 0.03412 0.53937
 C235 C -0.09424 0.02373 0.51124
 C236 C -0.10322 0.00037 0.53377
 C237 C -0.08312 -0.00559 0.55948
 C238 C -0.05423 0.01088 0.56219
 C239 C -0.03400 0.00432 0.58737
 C240 C -0.00510 0.02077 0.59033
 C241 C 0.00371 0.04391 0.56741
 H242 H -0.07190 0.06771 0.47115
 H243 H 0.01458 0.08663 0.52118
 H244 H -0.10965 0.02863 0.49147
 H245 H -0.08980 -0.02258 0.57779
 H246 H -0.04077 -0.01367 0.60486
 H247 H 0.02630 0.05611 0.56879
 C248 C 0.43520 0.54201 0.01974
 C249 C 0.44216 0.56717 -0.00170
 C250 C 0.46997 0.58629 0.00146
 C251 C 0.49061 0.57941 0.02648
 C252 C 0.48406 0.55435 0.04790
 C253 C 0.45626 0.53565 0.04460
 C254 C 0.40737 0.52326 0.01698
 C255 C 0.40050 0.49843 0.03891
 C256 C 0.42166 0.49246 0.06344
 C257 C 0.44949 0.51059 0.06628
 C258 C 0.47057 0.50406 0.09067
 C259 C 0.49820 0.52260 0.09422
 C260 C 0.50493 0.54773 0.07266
 H261 H 0.42543 0.57161 -0.02025
 H262 H 0.51206 0.59369 0.02940
 H263 H 0.39091 0.52857 -0.00170
 H264 H 0.41647 0.47335 0.08034
 H265 H 0.46533 0.48464 0.10723
 H266 H 0.52657 0.56171 0.07462
 C267 C 0.55905 -0.03771 0.00773
 C268 C 0.55388 -0.06447 -0.01396
 C269 C 0.53009 -0.08790 -0.00856
 C270 C 0.51102 -0.08392 0.01903
 C271 C 0.51589 -0.05724 0.04097
 C272 C 0.53999 -0.03409 0.03529
 C273 C 0.58299 -0.01451 0.00230
 C274 C 0.58816 0.01224 0.02429
 C275 C 0.56884 0.01576 0.05142
 C276 C 0.54501 -0.00724 0.05716
 C277 C 0.52618 -0.00374 0.08455
 C278 C 0.50207 -0.02647 0.09048
 C279 C 0.49708 -0.05335 0.06858
 H280 H 0.56860 -0.06721 -0.03512
 H281 H 0.49213 -0.10104 0.02360
 H282 H 0.59706 -0.01710 -0.01927
 H283 H 0.57261 0.03640 0.06833
 H284 H 0.53020 0.01694 0.10134
 H285 H 0.47913 -0.07164 0.07310
 C286 C 1.07646 0.43965 0.51335
 C287 C 1.07045 0.41522 0.48936
 C288 C 1.04379 0.39450 0.49079
 C289 C 1.02316 0.39878 0.51720
 C290 C 1.02884 0.42315 0.54124
 C291 C 1.05550 0.44367 0.53935
 C292 C 1.10312 0.46010 0.51178
 C293 C 1.10894 0.48471 0.53587
 C294 C 1.08805 0.48817 0.56182
 C295 C 1.06132 0.46807 0.56364
 C296 C 1.04029 0.47203 0.58938
 C297 C 1.01336 0.45194 0.59110
 C298 C 1.00810 0.42728 0.56721
 H299 H 1.08671 0.41235 0.46942
 H300 H 1.00255 0.38353 0.51978
 H301 H 1.11940 0.45631 0.49207
 H302 H 1.09245 0.50696 0.58049
 H303 H 1.04529 0.49038 0.60823
 H304 H 0.98753 0.41153 0.56869
 C305 C 0.42317 0.00805 0.20121
 H306 H 0.42618 0.03076 0.21543
 C307 C 0.44062 0.00281 0.17319
 H308 H 0.45644 0.02213 0.16576
 C309 C 0.39805 -0.04409 0.19359
 H310 H 0.38185 -0.06258 0.20187
 C311 C 0.41500 -0.05035 0.16534
 H312 H 0.41145 -0.07350 0.15193
 N313 N 0.40224 -0.01513 0.21074
 C314 C 0.33541 0.03912 0.27144
 H315 H 0.33668 0.02522 0.29305
 C316 C 0.31398 0.06480 0.26944
 H317 H 0.29892 0.07064 0.28979
 C318 C 0.35290 0.04759 0.21841
 H319 H 0.36767 0.04042 0.19832
 C320 C 0.33186 0.07349 0.21538
 H321 H 0.33170 0.08608 0.19302
 Zn322 Zn 0.38056 -0.00614 0.24965
 N323 N 0.35434 0.03104 0.24614
 C324 C 0.41184 0.02989 0.30005
 N325 N 0.41096 0.00127 0.28193
 C326 C 0.43262 -0.02271 0.28553
 C327 C 0.45585 -0.01882 0.30870
 C328 C 0.43466 0.03481 0.32355
 C329 C 0.33092 -0.05047 0.23919
 C330 C 0.31094 -0.07703 0.24532
 C331 C 0.33925 -0.08548 0.29418
 C332 C 0.35877 -0.05893 0.28700
 N333 N 0.35454 -0.04231 0.25967
 H334 H 0.39504 0.04910 0.29615
 H335 H 0.43173 -0.04498 0.27037
 H336 H 0.47277 -0.03828 0.31139
 H337 H 0.43513 0.05811 0.33711
 H338 H 0.32790 -0.03653 0.21780
 H339 H 0.29315 -0.08341 0.22792
 H340 H 0.34311 -0.09853 0.31600
 H341 H 0.37718 -0.05158 0.30337
 C342 C 0.31167 0.08219 0.24106
 C343 C 0.43688 -0.02696 0.15504
 C344 C 0.31494 -0.09493 0.27330
 C345 C 0.45683 0.00998 0.32843
 C346 C 0.07250 -0.00991 0.70114
 H347 H 0.06932 -0.03194 0.71482
 C348 C 0.05288 -0.00419 0.67543
 H349 H 0.03471 -0.02220 0.67017
 C350 C 0.09970 0.04044 0.69319
 H351 H 0.11762 0.05804 0.70052
 C352 C 0.08066 0.04712 0.66718
 H353 H 0.08438 0.06979 0.65455
 N354 N 0.09550 0.01210 0.70935
 C355 C 0.16303 -0.04759 0.75901
 H356 H 0.16369 -0.03502 0.78232
 C357 C 0.18182 -0.07521 0.75270
 H358 H 0.19609 -0.08398 0.77184
 C359 C 0.14272 -0.05148 0.70640
 H360 H 0.12782 -0.04192 0.68819
 C361 C 0.16121 -0.07906 0.69901
 H362 H 0.16011 -0.09059 0.67521
 Zn363 Zn 0.11971 0.00203 0.74541
 N364 N 0.14383 -0.03640 0.73605
 C365 C 0.09063 -0.03236 0.79703
 N366 N 0.09113 -0.00454 0.77961
 C367 C 0.07052 0.02031 0.78570
 C368 C 0.04900 0.01835 0.81078
 C369 C 0.06939 -0.03540 0.82245
 C370 C 0.17026 0.04598 0.73545
 C371 C 0.19054 0.07252 0.74266
 C372 C 0.16370 0.08095 0.79332
 C373 C 0.14411 0.05422 0.78524
 N374 N 0.14734 0.03764 0.75648
 H375 H 0.10679 -0.05214 0.79147
 H376 H 0.07114 0.04198 0.77121
 H377 H 0.03310 0.03869 0.81542
 H378 H 0.07014 -0.05751 0.83617
 H379 H 0.17250 0.03225 0.71283
 H380 H 0.20790 0.07924 0.72506
 H381 H 0.16052 0.09405 0.81619
 H382 H 0.12633 0.04687 0.80204
 C383 C 0.18141 -0.09109 0.72209
 C384 C 0.05693 0.02466 0.65781
 C385 C 0.18731 0.09042 0.77202
 C386 C 0.04823 -0.00963 0.82973
 C387 C 0.57262 0.49480 0.20711
 H388 H 0.56803 0.47402 0.22215
 C389 C 0.55274 0.50100 0.18174
 H390 H 0.53264 0.48499 0.17806
 C391 C 0.60358 0.54181 0.19552
 H392 H 0.62305 0.55804 0.20131
 C393 C 0.58435 0.54890 0.16982
 H394 H 0.58944 0.57038 0.15583
 N395 N 0.59768 0.51483 0.21323
 C396 C 0.66488 0.45467 0.26235
 H397 H 0.66816 0.46949 0.28419
 C398 C 0.68274 0.42628 0.25661
 H399 H 0.69907 0.41913 0.27471
 C400 C 0.63920 0.44618 0.21262
 H401 H 0.62269 0.45434 0.19520
 C402 C 0.65649 0.41756 0.20595
 H403 H 0.65287 0.40377 0.18354
 Zn404 Zn 0.62279 0.50478 0.24853
 N405 N 0.64368 0.46411 0.24045
 C406 C 0.59432 0.47495 0.30230
 N407 N 0.59594 0.50267 0.28482
 C408 C 0.57695 0.52888 0.29151
 C409 C 0.55561 0.52807 0.31699
 C410 C 0.57343 0.47314 0.32805
 C411 C 0.67611 0.54063 0.23161
 C412 C 0.69938 0.56495 0.23448
 C413 C 0.67699 0.58256 0.28551
 C414 C 0.65411 0.55793 0.28161
 N415 N 0.65386 0.53786 0.25479
 H416 H 0.60883 0.45395 0.29601
 H417 H 0.57821 0.55036 0.27679
 H418 H 0.54061 0.54911 0.32193
 H419 H 0.57210 0.45044 0.34098
 H420 H 0.67550 0.52411 0.21064
 H421 H 0.71668 0.56713 0.21559
 H422 H 0.67586 0.59892 0.30654
 H423 H 0.63642 0.55514 0.29990
 C424 C 0.67903 0.40763 0.22775
 C425 C 0.55881 0.52816 0.16236
 C426 C 0.70013 0.58623 0.26173
 C427 C 0.55388 0.50012 0.33589
 C428 C 0.94401 0.52045 0.70673
 H429 H 0.94616 0.54186 0.72290
 C430 C 0.96489 0.51619 0.68114
 H431 H 0.98305 0.53457 0.67762
 C432 C 0.91801 0.47021 0.69213
 H433 H 0.89989 0.45219 0.69667
 C434 C 0.93835 0.46498 0.66620
 H435 H 0.93476 0.44328 0.65076
 N436 N 0.92109 0.49767 0.71166
 C437 C 0.84601 0.54707 0.76508
 H438 H 0.84375 0.53115 0.78528
 C439 C 0.82519 0.57312 0.76168
 H440 H 0.80739 0.57743 0.77983
 C441 C 0.87240 0.56076 0.71719
 H442 H 0.89047 0.55558 0.69960
 C443 C 0.85231 0.58723 0.71302
 H444 H 0.85527 0.60240 0.69232
 Zn445 Zn 0.89503 0.50437 0.74798
 N446 N 0.86902 0.54139 0.74299
 C447 C 0.91833 0.53730 0.80451
 N448 N 0.92145 0.51087 0.78369
 C449 C 0.94398 0.48790 0.78759
 C450 C 0.96391 0.49041 0.81383
 C451 C 0.93786 0.54083 0.83112
 C452 C 0.84601 0.46020 0.73216
 C453 C 0.82578 0.43329 0.73605
 C454 C 0.85314 0.42088 0.78453
 C455 C 0.87263 0.44812 0.77986
 N456 N 0.86896 0.46698 0.75384
 H457 H 0.90046 0.55544 0.80080
 H458 H 0.94610 0.46730 0.77046
 H459 H 0.98141 0.47158 0.81681
 H460 H 0.93409 0.56145 0.84786
 H461 H 0.84347 0.47576 0.71179
 H462 H 0.80812 0.42803 0.71814
 H463 H 0.85644 0.40609 0.80536
 H464 H 0.89053 0.45418 0.79721
 C465 C 0.82807 0.59339 0.73512
 C466 C 0.96247 0.48803 0.66065
 C467 C 0.82918 0.41337 0.76272
 C468 C 0.96104 0.51708 0.83602
 C469 C 0.20397 0.42650 0.02899
 H470 H 0.22165 0.42923 0.04731
 C471 C 0.17922 0.44872 0.02849
 H472 H 0.17795 0.46849 0.04665
 C473 C 0.18482 0.39789 -0.01743
 H474 H 0.18729 0.37828 -0.03551
 C475 C 0.15952 0.41937 -0.01868
 H476 H 0.14254 0.41495 -0.03738
 N477 N 0.20643 0.40185 0.00612
 C478 C 0.26415 0.32465 0.04456
 H479 H 0.28256 0.32358 0.02668
 C480 C 0.26383 0.30234 0.06931
 H481 H 0.28221 0.28418 0.07049
 C482 C 0.21744 0.34925 0.06428
 H483 H 0.19928 0.36740 0.06206
 C484 C 0.21614 0.32729 0.08937
 H485 H 0.19727 0.32959 0.10665
 Zn486 Zn 0.24233 0.37510 0.00687
 N487 N 0.24123 0.34756 0.04254
 C488 C 0.29880 0.40163 0.03257
 N489 N 0.27744 0.40399 0.00885
 C490 C 0.28026 0.42750 -0.01355
 C491 C 0.30568 0.44948 -0.01296
 C492 C 0.32455 0.42300 0.03402
 C493 C 0.22323 0.32197 -0.03393
 C494 C 0.22581 0.29883 -0.05951
 C495 C 0.27258 0.32720 -0.07669
 C496 C 0.26913 0.34971 -0.05087
 N497 N 0.24479 0.34672 -0.03007
 H498 H 0.29605 0.38309 0.05037
 H499 H 0.26276 0.42904 -0.03200
 H500 H 0.30770 0.46791 -0.03109
 H501 H 0.34165 0.41961 0.05252
 H502 H 0.20433 0.31989 -0.01677
 H503 H 0.20867 0.27907 -0.06214
 H504 H 0.29186 0.33063 -0.09317
 H505 H 0.28625 0.36921 -0.04726
 C506 C 0.23938 0.30311 0.09182
 C507 C 0.15682 0.44575 0.00416
 C508 C 0.25111 0.30087 -0.08086
 C509 C 0.32809 0.44762 0.01121
 C510 C 0.70869 0.07780 -0.02978
 H511 H 0.72457 0.07578 -0.05002
 C512 C 0.68480 0.05446 -0.02643
 H513 H 0.68228 0.03450 -0.04428
 C514 C 0.69318 0.10599 0.01839
 H515 H 0.69699 0.12562 0.03620
 C516 C 0.66893 0.08319 0.02268
 H517 H 0.65464 0.08562 0.04408
 N518 N 0.71217 0.10318 -0.00778
 C519 C 0.76048 0.17944 -0.06084
 H520 H 0.78146 0.18322 -0.04682
 C521 C 0.75551 0.19825 -0.08778
 H522 H 0.77328 0.21589 -0.09459
 C523 C 0.71229 0.15124 -0.06903
 H524 H 0.69515 0.13339 -0.06139
 C525 C 0.70647 0.16934 -0.09616
 H526 H 0.68502 0.16493 -0.10933
 Zn527 Zn 0.74591 0.13270 -0.01440
 N528 N 0.73903 0.15640 -0.05206
 C529 C 0.80109 0.10536 -0.04425
 N530 N 0.78194 0.10600 -0.01810
 C531 C 0.78671 0.08566 0.00656
 C532 C 0.81174 0.06387 0.00584
 C533 C 0.82653 0.08380 -0.04603
 C534 C 0.72661 0.18518 0.02762
 C535 C 0.72900 0.20788 0.05362
 C536 C 0.78037 0.18682 0.06420
 C537 C 0.77700 0.16459 0.03805
 N538 N 0.75020 0.16367 0.02073
 H539 H 0.79649 0.12127 -0.06391
 H540 H 0.77082 0.08632 0.02684
 H541 H 0.81498 0.04793 0.02585
 H542 H 0.84112 0.08401 -0.06720
 H543 H 0.70581 0.18449 0.01304
 H544 H 0.70987 0.22457 0.05902
 H545 H 0.80219 0.18729 0.07709
 H546 H 0.79602 0.14827 0.03155
 C547 C 0.72795 0.19349 -0.10564
 C548 C 0.66427 0.05720 -0.00022
 C549 C 0.75587 0.20846 0.07270
 C550 C 0.83212 0.06253 -0.02065
 C551 C 0.22106 0.56351 0.47833
 H552 H 0.23622 0.56353 0.45748
 C553 C 0.19792 0.53916 0.48084
 H554 H 0.19544 0.52038 0.46184
 C555 C 0.20548 0.58852 0.52800
 H556 H 0.20834 0.60793 0.54622
 C557 C 0.18202 0.56463 0.53152
 H558 H 0.16683 0.56674 0.55226
 N559 N 0.22398 0.58793 0.50139
 C560 C 0.25940 0.67283 0.45108
 H561 H 0.28004 0.67897 0.46494
 C562 C 0.25121 0.69218 0.42548
 H563 H 0.26559 0.71349 0.42032
 C564 C 0.21474 0.63865 0.44267
 H565 H 0.20021 0.61820 0.44981
 C566 C 0.20565 0.65737 0.41693
 H567 H 0.18435 0.65088 0.40422
 Zn568 Zn 0.25388 0.62177 0.49427
 N569 N 0.24149 0.64633 0.45884
 C570 C 0.30871 0.60558 0.45782
 N571 N 0.29298 0.60114 0.48581
 C572 C 0.30410 0.58066 0.50814
 C573 C 0.33218 0.56391 0.50289
 C574 C 0.33695 0.58934 0.45161
 C575 C 0.23106 0.67098 0.53732
 C576 C 0.23196 0.69449 0.56271
 C577 C 0.28518 0.67880 0.57281
 C578 C 0.28329 0.65567 0.54718
 N579 N 0.25639 0.65190 0.53024
 H580 H 0.29931 0.62140 0.44004
 H581 H 0.29107 0.57740 0.53012
 H582 H 0.34077 0.54848 0.52149
 H583 H 0.34914 0.59310 0.42919
 H584 H 0.21016 0.66805 0.52303
 H585 H 0.21158 0.70947 0.56798
 H586 H 0.30714 0.68178 0.58527
 H587 H 0.30354 0.64115 0.54058
 C588 C 0.22418 0.68418 0.40770
 C589 C 0.17786 0.53957 0.50756
 C590 C 0.25911 0.69841 0.58110
 C591 C 0.34884 0.56783 0.47406
 C592 C 0.69768 0.92517 0.53369
 H593 H 0.70947 0.92530 0.55653
 C594 C 0.67470 0.94849 0.52821
 H595 H 0.66878 0.96642 0.54714
 C596 C 0.69192 0.90224 0.48103
 H597 H 0.69932 0.88477 0.46239
 C598 C 0.66889 0.92529 0.47443
 H599 H 0.65915 0.92500 0.45061
 N600 N 0.70561 0.90244 0.51036
 C601 C 0.74878 0.82227 0.56117
 H602 H 0.77011 0.81966 0.54729
 C603 C 0.74269 0.80112 0.58622
 H604 H 0.75943 0.78202 0.59081
 C605 C 0.70048 0.84928 0.57019
 H606 H 0.68379 0.86764 0.56351
 C607 C 0.69344 0.82864 0.59548
 H608 H 0.67148 0.83159 0.60827
 Zn609 Zn 0.73846 0.87319 0.51919
 N610 N 0.72802 0.84610 0.55394
 C611 C 0.79097 0.89592 0.55583
 N612 N 0.77434 0.89940 0.52854
 C613 C 0.78313 0.92165 0.50646
 C614 C 0.81027 0.94065 0.51075
 C615 C 0.81832 0.91437 0.56107
 C616 C 0.72351 0.82382 0.47296
 C617 C 0.72821 0.80273 0.44621
 C618 C 0.78066 0.82461 0.44137
 C619 C 0.77491 0.84533 0.46819
 N620 N 0.74656 0.84494 0.48308
 H621 H 0.78336 0.87854 0.57338
 H622 H 0.76940 0.92396 0.48500
 H623 H 0.81730 0.95704 0.49205
 H624 H 0.83164 0.91085 0.58263
 H625 H 0.70134 0.82366 0.48555
 H626 H 0.70942 0.78632 0.43832
 H627 H 0.80336 0.82604 0.43008
 H628 H 0.79323 0.86166 0.47705
 C629 C 0.71484 0.80450 0.60414
 C630 C 0.65987 0.94879 0.49833
 C631 C 0.75700 0.80296 0.42989
 C632 C 0.82837 0.93700 0.53837
 C633 C 0.00760 0.19015 0.41047
 H634 H 0.02950 0.20365 0.41225
 C635 C 0.00103 0.16488 0.43158
 H636 H 0.01812 0.15953 0.44954
 C637 C -0.04194 0.18296 0.38618
 H638 H -0.05905 0.19069 0.36918
 C639 C -0.04950 0.15762 0.40679
 H640 H -0.07224 0.14574 0.40501
 N641 N -0.01373 0.19859 0.38827
 C642 C 0.03862 0.25401 0.31774
 H643 H 0.02394 0.27566 0.31749
 C644 C 0.06511 0.25211 0.29824
 H645 H 0.07066 0.27246 0.28291
 C646 C 0.04901 0.20131 0.33819
 H647 H 0.04254 0.18158 0.35378
 C648 C 0.07581 0.19831 0.31892
 H649 H 0.08981 0.17633 0.32054
 Zn650 Zn -0.00481 0.23564 0.36310
 N651 N 0.03130 0.22906 0.33747
 C652 C 0.03006 0.28743 0.39410
 N653 N 0.00163 0.27223 0.39197
 C654 C -0.02215 0.28111 0.41211
 C655 C -0.01801 0.30663 0.43514
 C656 C 0.03532 0.31294 0.41694
 C657 C -0.04516 0.21905 0.31265
 C658 C -0.06942 0.22301 0.29100
 C659 C -0.07834 0.27761 0.31449
 C660 C -0.05399 0.27250 0.33586
 N661 N -0.03829 0.24337 0.33489
 H662 H 0.04906 0.27922 0.37871
 H663 H -0.04430 0.26807 0.41045
 H664 H -0.03727 0.31326 0.45100
 H665 H 0.05848 0.32365 0.41849
 H666 H -0.03184 0.19640 0.31193
 H667 H -0.07472 0.20316 0.27371
 H668 H -0.08980 0.30134 0.31552
 H669 H -0.04743 0.29203 0.35289
 C670 C 0.08415 0.22407 0.29858
 C671 C -0.02797 0.14823 0.42988
 C672 C -0.08670 0.25237 0.29192
 C673 C 0.01097 0.32302 0.43784
 C674 C -0.02469 0.71961 0.08741
 H675 H -0.04539 0.73477 0.08758
 C676 C -0.02227 0.69254 0.06596
 H677 H -0.04139 0.68689 0.04974
 C678 C 0.02578 0.70951 0.10765
 H679 H 0.04479 0.71685 0.12330
 C680 C 0.02929 0.68225 0.08638
 H681 H 0.05124 0.66925 0.08609
 N682 N -0.00093 0.72749 0.10777
 C683 C -0.04880 0.78893 0.18044
 H684 H -0.03588 0.81198 0.17912
 C685 C -0.07325 0.78607 0.20256
 H686 H -0.07919 0.80720 0.21803
 C687 C -0.05588 0.73306 0.16276
 H688 H -0.04839 0.71209 0.14799
 C689 C -0.08030 0.72903 0.18465
 H690 H -0.09087 0.70476 0.18619
 Zn691 Zn -0.00575 0.76671 0.13323
 N692 N -0.04079 0.76270 0.16089
 C693 C -0.03619 0.82077 0.10364
 N694 N -0.01060 0.80108 0.10399
 C695 C 0.01223 0.80331 0.08135
 C696 C 0.00999 0.82610 0.05720
 C697 C -0.03931 0.84414 0.07993
 C698 C 0.03680 0.75213 0.18126
 C699 C 0.06271 0.75687 0.20112
 C700 C 0.07332 0.80851 0.17557
 C701 C 0.04726 0.80275 0.15618
 N702 N 0.02985 0.77470 0.15906
 H703 H -0.05457 0.81790 0.12121
 H704 H 0.03204 0.78689 0.08182
 H705 H 0.02830 0.82727 0.03922
 H706 H -0.06029 0.85883 0.07965
 H707 H 0.02211 0.73040 0.18352
 H708 H 0.06730 0.73869 0.21882
 H709 H 0.08702 0.83091 0.17282
 H710 H 0.04090 0.82083 0.13899
 C711 C -0.08948 0.75588 0.20488
 C712 C 0.00496 0.67346 0.06509
 C713 C 0.08162 0.78527 0.19811
 C714 C -0.01591 0.84700 0.05628
 C715 C 0.48581 0.21913 0.57604
 H716 H 0.46484 0.23387 0.57770
 C717 C 0.48931 0.19549 0.55116
 H718 H 0.47086 0.19203 0.53370
 C719 C 0.53516 0.20562 0.59710
 H720 H 0.55299 0.20972 0.61500
 C721 C 0.53965 0.18168 0.57260
 H722 H 0.56069 0.16711 0.57280
 N723 N 0.50831 0.22332 0.59867
 C724 C 0.45509 0.26256 0.68011
 H725 H 0.46698 0.28596 0.68476
 C726 C 0.42909 0.25405 0.69850
 H727 H 0.42098 0.27180 0.71658
 C728 C 0.45107 0.21214 0.64966
 H729 H 0.45991 0.19566 0.63087
 C730 C 0.42517 0.20247 0.66766
 H731 H 0.41415 0.17870 0.66228
 Zn732 Zn 0.50040 0.25518 0.63177
 N733 N 0.46523 0.24192 0.65592
 C734 C 0.46515 0.31146 0.61448
 N735 N 0.49289 0.29543 0.61144
 C736 C 0.51582 0.30644 0.59171
 C737 C 0.51138 0.33462 0.57400
 C738 C 0.45975 0.33984 0.59726
 C739 C 0.54334 0.23282 0.67659
 C740 C 0.56867 0.23488 0.69752
 C741 C 0.57509 0.29245 0.68507
 C742 C 0.54974 0.28925 0.66429
 N743 N 0.53480 0.25961 0.65999
 H744 H 0.44688 0.30193 0.62963
 H745 H 0.53755 0.29303 0.58954
 H746 H 0.53025 0.34309 0.55892
 H747 H 0.43743 0.35216 0.59965
 H748 H 0.53057 0.20974 0.67333
 H749 H 0.57542 0.21318 0.71022
 H750 H 0.58601 0.31654 0.68846
 H751 H 0.54187 0.31060 0.65189
 C752 C 0.41387 0.22338 0.69256
 C753 C 0.51642 0.17632 0.54921
 C754 C 0.58530 0.26479 0.70154
 C755 C 0.48276 0.35139 0.57626
 C756 C 0.50572 0.69414 0.91869
 H757 H 0.52743 0.70787 0.92122
 C758 C 0.49970 0.66723 0.93801
 H759 H 0.51758 0.66052 0.95461
 C760 C 0.45666 0.68698 0.89348
 H761 H 0.43961 0.69508 0.87659
 C762 C 0.44959 0.66009 0.91241
 H763 H 0.42723 0.64761 0.90948
 N764 N 0.48442 0.70334 0.89680
 C765 C 0.53622 0.76050 0.82652
 H766 H 0.52133 0.78197 0.82599
 C767 C 0.56249 0.75837 0.80658
 H768 H 0.56772 0.77839 0.79077
 C769 C 0.54724 0.70834 0.84773
 H770 H 0.54111 0.68878 0.86362
 C771 C 0.57380 0.70519 0.82820
 H772 H 0.58796 0.68340 0.83027
 Zn773 Zn 0.49296 0.74137 0.87266
 N774 N 0.52929 0.73588 0.84683
 C775 C 0.52508 0.79603 0.90248
 N776 N 0.49818 0.77784 0.90210
 C777 C 0.47490 0.78428 0.92370
 C778 C 0.47786 0.81041 0.94635
 C779 C 0.52898 0.82245 0.92463
 C780 C 0.45444 0.72524 0.82088
 C781 C 0.43003 0.72862 0.79932
 C782 C 0.41682 0.78060 0.82623
 C783 C 0.44151 0.77619 0.84734
 N784 N 0.45947 0.74864 0.84453
 H785 H 0.54379 0.78988 0.88591
 H786 H 0.45401 0.76900 0.92334
 H787 H 0.45906 0.81524 0.96332
 H788 H 0.55089 0.83598 0.92479
 H789 H 0.46930 0.70373 0.81903
 H790 H 0.42617 0.70953 0.78085
 H791 H 0.40238 0.80224 0.82974
 H792 H 0.44612 0.79470 0.86604
 C793 C 0.58169 0.73045 0.80710
 C794 C 0.47103 0.64990 0.93527
 C795 C 0.41088 0.75658 0.80171
 C796 C 0.50496 0.83018 0.94675
 C797 C 0.12897 0.19631 0.26991
 C798 C 0.11237 0.22347 0.27773
 H799 H 0.12296 0.17283 0.28004
 H800 H 0.11942 0.24690 0.26806
 C801 C 0.62620 0.70184 0.77905
 C802 C 0.60986 0.72939 0.78604
 H803 H 0.61917 0.67863 0.78909
 H804 H 0.61738 0.75254 0.77611
 C805 C 0.37009 0.78728 0.77278
 C806 C 0.38455 0.75892 0.77900
 H807 H 0.37741 0.81015 0.78482
 H808 H 0.37695 0.73608 0.76705
 C809 C -0.13530 0.27824 0.27167
 C810 C -0.11238 0.25571 0.26844
 H811 H -0.13499 0.29482 0.29257
 H812 H -0.11216 0.23811 0.24841
 C813 C -0.13578 0.72849 0.22995
 C814 C -0.11421 0.75300 0.22987
 H815 H -0.13592 0.71073 0.20996
 H816 H -0.11412 0.77226 0.24842
 C817 C 0.37807 0.22591 0.73982
 C818 C 0.38591 0.21266 0.71092
 H819 H 0.39326 0.24481 0.75029
 H820 H 0.37195 0.19310 0.69984
 C821 C 0.63580 0.28864 0.72077
 C822 C 0.61240 0.26645 0.72362
 H823 H 0.63473 0.30529 0.70106
 H824 H 0.61300 0.24802 0.74167
 C825 C 0.12515 0.76881 0.23358
 C826 C 0.10959 0.79211 0.21818
 H827 H 0.11681 0.74347 0.23260
 H828 H 0.11787 0.81748 0.21960
 C829 C 0.27992 0.12367 0.21256
 C830 C 0.28771 0.10855 0.23946
 H831 H 0.29209 0.11798 0.19035
 H832 H 0.27580 0.11545 0.26162
 C833 C 0.77680 0.62150 0.73968
 C834 C 0.80671 0.62123 0.72978
 H835 H 0.76788 0.60094 0.75304
 H836 H 0.81603 0.64139 0.71623
 C837 C 0.77908 0.38204 0.75846
 C838 C 0.80870 0.38449 0.76859
 H839 H 0.76960 0.40134 0.74417
 H840 H 0.81839 0.36529 0.78280
 C841 C 0.26788 -0.13198 0.26739
 C842 C 0.29526 -0.12391 0.28149
 H843 H 0.25932 -0.11627 0.24903
 H844 H 0.30425 -0.13845 0.30043
 C845 C 0.22796 -0.12670 0.72861
 C846 C 0.20125 -0.12016 0.71336
 H847 H 0.23504 -0.10976 0.74793
 H848 H 0.19374 -0.13540 0.69305
 C849 C 0.72698 0.37385 0.23095
 C850 C 0.69807 0.37794 0.21958
 H851 H 0.73673 0.39262 0.24719
 H852 H 0.68809 0.35971 0.20295
 C853 C 0.73368 0.62689 0.29164
 C854 C 0.72430 0.61274 0.26378
 H855 H 0.72385 0.61839 0.31386
 H856 H 0.73421 0.62088 0.24146
 C857 C 0.23614 0.12435 0.76957
 C858 C 0.20716 0.11951 0.78108
 H859 H 0.24569 0.10654 0.75227
 H860 H 0.19734 0.13695 0.79849
 C861 C 0.21300 0.26858 0.13216
 C862 C 0.23919 0.27864 0.11745
 H863 H 0.19084 0.27910 0.12578
 H864 H 0.26143 0.26816 0.12358
 C865 C 0.72841 0.76648 0.64737
 C866 C 0.70685 0.78264 0.63093
 H867 H 0.75285 0.76946 0.64129
 H868 H 0.68238 0.77997 0.63708
 C869 C 0.78759 0.77618 0.38463
 C870 C 0.76086 0.78039 0.40129
 H871 H 0.80821 0.79046 0.39094
 H872 H 0.74018 0.76688 0.39346
 C873 C 0.28235 0.26753 -0.11981
 C874 C 0.25441 0.27573 -0.10738
 H875 H 0.30321 0.27903 -0.10979
 H876 H 0.23337 0.26402 -0.11672
 C877 C 0.73231 0.24321 -0.13872
 C878 C 0.72097 0.21266 -0.13434
 H879 H 0.74764 0.25449 -0.12087
 H880 H 0.70542 0.20122 -0.15188
 C881 C 0.23406 0.72155 0.36291
 C882 C 0.21404 0.70394 0.38046
 H883 H 0.25871 0.72127 0.36842
 H884 H 0.18938 0.70378 0.37494
 C885 C 0.27892 0.72201 0.63292
 C886 C 0.25994 0.72399 0.60760
 H887 H 0.29375 0.70058 0.63438
 H888 H 0.24424 0.74464 0.60593
 C889 C 0.77598 0.22719 0.12607
 C890 C 0.75801 0.23238 0.10049
 H891 H 0.78926 0.20457 0.12660
 H892 H 0.74396 0.25441 0.09968
 C893 C 0.48929 0.38548 0.52842
 C894 C 0.47608 0.38067 0.55715
 H895 H 0.50608 0.36774 0.51898
 H896 H 0.45894 0.39785 0.56683
 C897 C -0.03511 0.89775 0.03080
 C898 C -0.01827 0.86987 0.02940
 H899 H -0.04790 0.90419 0.05255
 H900 H -0.00525 0.86320 0.00790
 C901 C 0.02902 0.62233 0.04017
 C902 C 0.00747 0.64640 0.04022
 H903 H 0.04464 0.62153 0.06037
 H904 H -0.00984 0.64685 0.02163
 C905 C 0.54533 0.13549 0.51448
 C906 C 0.51852 0.14989 0.52379
 H907 H 0.56717 0.14355 0.52516
 H908 H 0.49678 0.14143 0.51308
 C909 C -0.01762 0.10571 0.47047
 C910 C -0.03758 0.12255 0.45262
 H911 H 0.00718 0.11067 0.46877
 H912 H -0.06239 0.11774 0.45467
 C913 C 0.47824 0.61238 0.98122
 C914 C 0.46213 0.62152 0.95544
 H915 H 0.49922 0.62606 0.98748
 H916 H 0.44104 0.60842 0.94851
 C917 C 0.52610 0.88434 0.96732
 C918 C 0.50786 0.85754 0.97127
 H919 H 0.53909 0.88631 0.94514
 H920 H 0.49396 0.85528 0.99277
 C921 C 0.03923 0.37032 0.46584
 C922 C 0.01489 0.34895 0.46372
 H923 H 0.05669 0.36937 0.44702
 H924 H -0.00371 0.35004 0.48124
 C925 C 0.38557 0.52122 0.47935
 C926 C 0.37868 0.55043 0.46693
 H927 H 0.36862 0.50985 0.49496
 H928 H 0.39481 0.56195 0.45060
 C929 C 0.87940 0.03354 -0.04394
 C930 C 0.85816 0.03832 -0.02029
 H931 H 0.87802 0.04857 -0.06474
 H932 H 0.85925 0.02409 0.00099
 C933 C 0.61287 0.03755 0.01974
 C934 C 0.63923 0.03194 0.00298
 H935 H 0.60935 0.06146 0.03164
 H936 H 0.64281 0.00813 -0.00911
 C937 C 0.13653 0.50722 0.53526
 C938 C 0.15197 0.51491 0.50841
 H939 H 0.14338 0.51878 0.55792
 H940 H 0.14519 0.50332 0.48573
 C941 C 0.11377 0.47572 -0.02224
 C942 C 0.13151 0.47070 0.00361
 H943 H 0.11769 0.46025 -0.04351
 H944 H 0.12852 0.48573 0.02527
 C945 C 0.61637 0.97498 0.46841
 C946 C 0.63661 0.97504 0.49303
 H947 H 0.61596 0.95377 0.45188
 H948 H 0.63605 0.99449 0.51136
 C949 C 0.86614 0.98320 0.52967
 C950 C 0.85849 0.95474 0.54356
 H951 H 0.84959 0.99440 0.51396
 H952 H 0.87478 0.94340 0.55939
 C953 C 0.37134 0.47849 0.03805
 C954 C 0.35529 0.47069 0.01135
 H955 H 0.36382 0.46849 0.06055
 H956 H 0.36231 0.48102 -0.01119
 C957 C 0.53495 0.48111 0.38841
 C958 C 0.53066 0.49918 0.36248
 H959 H 0.55659 0.46766 0.39026
 H960 H 0.50991 0.51394 0.36033
 C961 C 0.01930 -0.03631 0.87473
 C962 C 0.02548 -0.01005 0.85682
 H963 H 0.03176 -0.05918 0.87043
 H964 H 0.01351 0.01294 0.86234
 C965 C 0.01555 0.01200 0.61701
 C966 C 0.03680 0.03281 0.63029
 H967 H 0.01194 -0.01230 0.62636
 H968 H 0.03946 0.05735 0.62100
 C969 C 0.51959 0.51424 0.12032
 C970 C 0.53858 0.53636 0.13512
 H971 H 0.51857 0.48903 0.12813
 H972 H 0.53949 0.56155 0.12717
 C973 C 0.48348 -0.02124 0.12028
 C974 C 0.45492 -0.03403 0.12520
 H975 H 0.49386 -0.00536 0.13881
 H976 H 0.44433 -0.05047 0.10730
 C977 C 0.99066 0.45529 0.61791
 C978 C 0.98520 0.48411 0.63382
 H979 H 0.97772 0.43326 0.62389
 H980 H 0.99811 0.50603 0.62725
 C981 C 0.98773 0.54571 0.88221
 C982 C 0.98167 0.51817 0.86439
 H983 H 0.97714 0.56887 0.87623
 H984 H 0.99211 0.49501 0.87066
 C985 C 0.47913 0.03340 0.37927
 C986 C 0.48172 0.01355 0.35294
 H987 H 0.45812 0.04774 0.38303
 H988 H 0.50253 -0.00108 0.34910
   
