data_POSCAR
  _audit_creation_date              2014-09-24
  _audit_creation_method            'ToBaCCo'
  _symmetry_space_group_name_H-M    'P1'
  _symmetry_Int_Tables_number       1
  _symmetry_cell_setting            triclinic
  loop_
  _symmetry_equiv_pos_as_xyz
 x,y,z
_cell_length_a 25.0797
_cell_length_b 25.0796
_cell_length_c 25.1241
_cell_angle_alpha 90.105400
_cell_angle_beta 90.105400
_cell_angle_gamma 90.000000
loop_
  _atom_site_label
  _atom_site_type_symbol
  _atom_site_fract_x
  _atom_site_fract_y
  _atom_site_fract_z
O1 O 0.44913 1.04445 -0.55100
 O2 O 0.55289 1.04439 -0.44740
 O3 O 0.55292 1.04349 -0.55106
 O4 O 0.44907 1.04342 -0.44738
 O5 O 0.44923 0.95549 -0.44771
 O6 O 0.55281 0.95556 -0.55111
 O7 O 0.55304 0.95654 -0.44746
 O8 O 0.44902 0.95651 -0.55133
 Cu9 Cu 0.50101 1.05274 -0.49918
 Cu10 Cu 0.50103 0.94723 -0.49942
 C11 C 0.43127 1.00057 -0.56895
 C12 C 0.57087 1.00054 -0.42954
 C13 C 0.57061 0.99945 -0.56886
 C14 C 0.43136 0.99936 -0.42981
 O15 O -0.55345 1.44818 0.04425
 O16 O -0.44977 1.55185 0.04413
 O17 O -0.55358 1.55202 0.04316
 O18 O -0.44963 1.44807 0.04324
 O19 O -0.44998 1.44796 -0.04453
 O20 O -0.55366 1.55163 -0.04454
 O21 O -0.44985 1.55174 -0.04365
 O22 O -0.55379 1.44779 -0.04344
 Cu23 Cu -0.50161 1.50005 0.05247
 Cu24 Cu -0.50186 1.49975 -0.05281
 C25 C -0.57150 1.43006 0.00052
 C26 C -0.43199 1.56957 0.00030
 C27 C -0.57150 1.56975 -0.00078
 C28 C -0.43199 1.43024 -0.00072
 O29 O -0.04334 0.44882 0.44866
 O30 O -0.04332 0.55284 0.55254
 O31 O -0.04429 0.55261 0.44889
 O32 O -0.04437 0.44903 0.55228
 O33 O 0.04357 0.44887 0.55261
 O34 O 0.04364 0.55272 0.44895
 O35 O 0.04454 0.55268 0.55260
 O36 O 0.04460 0.44894 0.44900
 Cu37 Cu -0.05263 0.50084 0.50058
 Cu38 Cu 0.05288 0.50081 0.50082
 C39 C 0.00072 0.43108 0.43104
 C40 C 0.00069 0.57067 0.57047
 C41 C -0.00040 0.57042 0.43114
 C42 C -0.00050 0.43115 0.57018
 O43 O -0.13726 1.00155 -0.07238
 O44 O 0.13734 0.99813 -0.07212
 O45 O -0.00173 1.07194 -0.13720
 O46 O 0.00168 0.92761 -0.13732
 O47 O 0.00174 0.86254 -0.07237
 O48 O -0.00168 1.13713 -0.07213
 O49 O 0.07215 0.99807 -0.13719
 O50 O -0.07219 1.00148 -0.13732
 Zr51 Zr 0.00002 0.99982 -0.09393
 O52 O 0.04846 0.95145 -0.04852
 O53 O -0.04835 1.04826 -0.04853
 C54 C -0.12134 1.00226 -0.12144
 C55 C 0.12133 0.99734 -0.12121
 C56 C -0.00247 1.12112 -0.12122
 C57 C 0.00245 0.87846 -0.12143
 H58 H 0.07092 1.07072 -0.07084
 O59 O 0.04819 1.04799 -0.04816
 H60 H -0.07085 0.92895 -0.07109
 O61 O -0.04807 0.95173 -0.04834
 O62 O 0.13747 1.00168 0.07196
 O63 O -0.13712 0.99827 0.07172
 O64 O 0.07226 1.13721 0.00167
 O65 O 0.07226 0.86260 -0.00196
 O66 O -0.07208 0.86261 0.00132
 O67 O -0.07208 1.13720 -0.00186
 O68 O 0.00194 1.07221 0.13690
 O69 O -0.00147 0.92790 0.13678
 O70 O 0.00187 1.13728 0.07195
 O71 O -0.00155 0.86269 0.07173
 O72 O 0.13740 1.07209 0.00167
 O73 O -0.13720 1.07206 -0.00197
 O74 O -0.13720 0.92775 0.00131
 O75 O 0.13740 0.92772 -0.00185
 O76 O 0.07240 1.00175 0.13690
 O77 O -0.07191 0.99834 0.13677
 Zr78 Zr 0.09400 0.99991 -0.00012
 Zr79 Zr -0.09379 0.99991 -0.00029
 Zr80 Zr 0.00010 1.09380 -0.00013
 Zr81 Zr 0.00010 0.90601 -0.00029
 Zr82 Zr 0.00020 1.00001 0.09350
 O83 O -0.04826 0.95155 0.04803
 O84 O 0.04856 1.04837 0.04819
 C85 C 0.12155 1.00248 0.12102
 C86 C -0.12109 0.99756 0.12081
 C87 C 0.12143 1.12126 0.00244
 C88 C 0.12142 0.87856 -0.00265
 C89 C -0.12124 0.87859 0.00204
 C90 C -0.12125 1.12123 -0.00266
 C91 C 0.00267 1.12136 0.12101
 C92 C -0.00225 0.87872 0.12082
 H93 H -0.07072 1.07086 0.07055
 O94 O -0.04798 1.04809 0.04783
 H95 H 0.07105 0.92909 0.07055
 O96 O 0.04828 0.95183 0.04783
 C97 C 0.33022 1.04981 0.33002
 C98 C 0.31022 1.00176 0.30985
 C99 C 0.32974 0.95326 0.32928
 C100 C 0.36914 0.95277 0.36875
 C101 C 0.38952 1.00089 0.38929
 C102 C 0.36959 1.04943 0.36946
 C103 C 0.26968 1.00228 0.26923
 C104 C 0.23573 1.00274 0.23522
 C105 C 0.19597 1.00311 0.19541
 C106 C 0.16200 1.00310 0.16142
 H107 H 0.31538 1.08758 0.31526
 H108 H 0.31452 0.91583 0.31393
 H109 H 0.38361 0.91475 0.38314
 H110 H 0.38441 1.08717 0.38440
 C111 C -0.32880 0.95028 0.32981
 C112 C -0.30892 0.99834 0.30979
 C113 C -0.32834 1.04683 0.32947
 C114 C -0.36753 1.04729 0.36900
 C115 C -0.38780 0.99916 0.38937
 C116 C -0.36796 0.95063 0.36932
 C117 C -0.26862 0.99784 0.26909
 C118 C -0.23486 0.99739 0.23501
 C119 C -0.19529 0.99701 0.19515
 C120 C -0.16144 0.99700 0.16117
 H121 H -0.31404 0.91252 0.31486
 H122 H -0.31321 1.08427 0.31424
 H123 H -0.38194 1.08531 0.38356
 H124 H -0.38269 0.91289 0.38412
 C125 C -0.33001 1.04962 -0.33020
 C126 C -0.31002 1.00158 -0.31028
 C127 C -0.32953 0.95314 -0.32996
 C128 C -0.36892 0.95265 -0.36942
 C129 C -0.38948 1.00081 -0.38988
 C130 C -0.36938 1.04935 -0.36964
 C131 C -0.26948 1.00205 -0.26966
 C132 C -0.23553 1.00248 -0.23564
 C133 C -0.19576 1.00284 -0.19583
 C134 C -0.16179 1.00283 -0.16184
 H135 H -0.31516 1.08736 -0.31523
 H136 H -0.31429 0.91569 -0.31479
 H137 H -0.38318 0.91447 -0.38379
 H138 H -0.38399 1.08729 -0.38417
 C139 C 0.33023 0.95006 -0.32926
 C140 C 0.31014 0.99809 -0.30922
 C141 C 0.32967 1.04660 -0.32854
 C142 C 0.36915 1.04712 -0.36779
 C143 C 0.38959 0.99902 -0.38822
 C144 C 0.36967 0.95046 -0.36849
 C145 C 0.26952 0.99755 -0.26884
 C146 C 0.23551 0.99709 -0.23500
 C147 C 0.19570 0.99671 -0.19538
 C148 C 0.16173 0.99672 -0.16152
 H149 H 0.31539 0.91228 -0.31458
 H150 H 0.31440 1.08403 -0.31329
 H151 H 0.38361 1.08515 -0.38211
 H152 H 0.38454 0.91273 -0.38334
 C153 C 0.32905 1.33000 -0.04664
 C154 C 0.30969 1.31052 0.00175
 C155 C 0.32971 1.33074 0.04967
 C156 C 0.36898 1.37029 0.04934
 C157 C 0.38893 1.39033 0.00085
 C158 C 0.36833 1.36956 -0.04719
 C159 C 0.26927 1.26978 0.00227
 C160 C 0.23541 1.23567 0.00273
 C161 C 0.19574 1.19576 0.00310
 C162 C 0.16183 1.16171 0.00308
 H163 H 0.31378 1.31459 -0.08399
 H164 H 0.31498 1.31593 0.08737
 H165 H 0.38362 1.38505 0.08718
 H166 H 0.38248 1.38377 -0.08533
 C167 C 0.32948 0.66905 -0.04984
 C168 C 0.30968 0.68929 -0.00190
 C169 C 0.32927 0.66982 0.04647
 C170 C 0.36856 0.63025 0.04699
 C171 C 0.38893 0.60948 -0.00107
 C172 C 0.36874 0.62951 -0.04954
 C173 C 0.26926 0.73003 -0.00240
 C174 C 0.23540 0.76414 -0.00285
 C175 C 0.19574 0.80405 -0.00323
 C176 C 0.16183 0.83810 -0.00323
 H177 H 0.31456 0.68386 -0.08753
 H178 H 0.31419 0.68524 0.08384
 H179 H 0.38289 0.61605 0.08511
 H180 H 0.38320 0.61474 -0.08740
 C181 C -0.33051 0.67051 0.04930
 C182 C -0.31049 0.69033 0.00131
 C183 C -0.33020 0.67074 -0.04708
 C184 C -0.36977 0.63145 -0.04751
 C185 C -0.39015 0.61124 0.00055
 C186 C -0.37006 0.63125 0.04898
 C187 C -0.26975 0.73075 0.00177
 C188 C -0.23565 0.76461 0.00221
 C189 C -0.19574 0.80428 0.00258
 C190 C -0.16169 0.83819 0.00259
 H191 H -0.31554 0.68540 0.08698
 H192 H -0.31497 0.68582 -0.08447
 H193 H -0.38437 0.61692 -0.08545
 H194 H -0.38486 0.61657 0.08667
 C195 C -0.32997 1.32907 0.04653
 C196 C -0.31049 1.30948 -0.00188
 C197 C -0.33074 1.32930 -0.04984
 C198 C -0.37029 1.36857 -0.04948
 C199 C -0.39015 1.38857 -0.00102
 C200 C -0.36954 1.36836 0.04701
 C201 C -0.26976 1.26906 -0.00239
 C202 C -0.23565 1.23521 -0.00285
 C203 C -0.19574 1.19554 -0.00323
 C204 C -0.16170 1.16163 -0.00324
 H205 H -0.31456 1.31399 0.08390
 H206 H -0.31596 1.31441 -0.08754
 H207 H -0.38528 1.38325 -0.08715
 H208 H -0.38395 1.38289 0.08497
 C209 C 0.04997 1.33004 0.33000
 C210 C 0.00192 1.31004 0.30983
 C211 C -0.04658 1.32955 0.32926
 C212 C -0.04708 1.36895 0.36873
 C213 C 0.00104 1.38933 0.38928
 C214 C 0.04959 1.36941 0.36945
 C215 C 0.00244 1.26950 0.26921
 C216 C 0.00291 1.23555 0.23520
 C217 C 0.00329 1.19579 0.19539
 C218 C 0.00328 1.16181 0.16141
 H219 H 0.08774 1.31520 0.31524
 H220 H -0.08401 1.31433 0.31391
 H221 H -0.08510 1.38342 0.38312
 H222 H 0.08732 1.38423 0.38439
 C223 C -0.04979 1.33001 -0.32927
 C224 C -0.00176 1.30993 -0.30923
 C225 C 0.04675 1.32946 -0.32856
 C226 C 0.04727 1.36894 -0.36780
 C227 C -0.00084 1.38939 -0.38823
 C228 C -0.04940 1.36946 -0.36850
 C229 C -0.00230 1.26930 -0.26885
 C230 C -0.00275 1.23530 -0.23502
 C231 C -0.00311 1.19549 -0.19539
 C232 C -0.00309 1.16152 -0.16153
 H233 H -0.08757 1.31517 -0.31459
 H234 H 0.08417 1.31418 -0.31330
 H235 H 0.08530 1.38340 -0.38212
 H236 H -0.08712 1.38433 -0.38335
 C237 C -0.04671 0.67026 -0.32994
 C238 C 0.00174 0.68977 -0.31027
 C239 C 0.04978 0.66977 -0.33018
 C240 C 0.04950 0.63040 -0.36963
 C241 C 0.00096 0.61031 -0.38987
 C242 C -0.04720 0.63087 -0.36941
 C243 C 0.00221 0.73031 -0.26964
 C244 C 0.00264 0.76426 -0.23563
 C245 C 0.00301 0.80403 -0.19582
 C246 C 0.00302 0.83800 -0.16183
 H247 H -0.08415 0.68550 -0.31477
 H248 H 0.08752 0.68461 -0.31521
 H249 H 0.08744 0.61579 -0.38416
 H250 H -0.08538 0.61662 -0.38378
 C251 C -0.04956 0.67102 0.32982
 C252 C -0.00150 0.69090 0.30981
 C253 C 0.04698 0.67147 0.32949
 C254 C 0.04745 0.63228 0.36902
 C255 C -0.00068 0.61202 0.38938
 C256 C -0.04922 0.63186 0.36933
 C257 C -0.00199 0.73120 0.26911
 C258 C -0.00244 0.76496 0.23503
 C259 C -0.00282 0.80453 0.19517
 C260 C -0.00282 0.83837 0.16118
 H261 H -0.08732 0.68579 0.31488
 H262 H 0.08443 0.68660 0.31426
 H263 H 0.08546 0.61787 0.38358
 H264 H -0.08696 0.61712 0.38413
   
