data_POSCAR
  _audit_creation_date              2014-09-24
  _audit_creation_method            'ToBaCCo'
  _symmetry_space_group_name_H-M    'P1'
  _symmetry_Int_Tables_number       1
  _symmetry_cell_setting            triclinic
  loop_
  _symmetry_equiv_pos_as_xyz
 x,y,z
_cell_length_a 36.4075
_cell_length_b 36.4453
_cell_length_c 73.1748
_cell_angle_alpha 87.602200
_cell_angle_beta 91.163900
_cell_angle_gamma 119.876000
loop_
  _atom_site_label
  _atom_site_type_symbol
  _atom_site_fract_x
  _atom_site_fract_y
  _atom_site_fract_z
C1 C 0.01759 0.07179 0.52425
 H2 H 0.04721 0.07167 0.52375
 C3 C 0.01424 0.10082 0.53489
 H4 H 0.04132 0.12254 0.54282
 C5 C -0.05347 0.04364 0.51431
 H6 H -0.07942 0.02196 0.50592
 C7 C -0.05824 0.07222 0.52481
 H8 H -0.08799 0.07219 0.52441
 N9 N -0.01594 0.04400 0.51424
 C10 C 0.01333 -0.05561 0.50406
 H11 H 0.01385 -0.05428 0.48926
 C12 C 0.01824 -0.08674 0.51372
 H13 H 0.02332 -0.10885 0.50624
 C14 C 0.00498 -0.02892 0.53171
 H15 H -0.00151 -0.00719 0.53865
 C16 C 0.00974 -0.05954 0.54191
 H17 H 0.00692 -0.06089 0.55666
 Zn18 Zn -0.00576 0.00944 0.49897
 N19 N 0.00668 -0.02762 0.51313
 C20 C 0.07742 0.04615 0.48374
 N21 N 0.04030 0.04664 0.48377
 C22 C 0.03555 0.07628 0.47378
 C23 C 0.06888 0.10708 0.46318
 C24 C 0.11169 0.07646 0.47330
 C25 C -0.08923 -0.05458 0.49371
 C26 C -0.12432 -0.08405 0.48403
 C27 C -0.08628 -0.05172 0.45593
 C28 C -0.05197 -0.02296 0.46623
 N29 N -0.05392 -0.02502 0.48476
 H30 H 0.08088 0.02294 0.49213
 H31 H 0.00584 0.07622 0.47425
 H32 H 0.06430 0.13025 0.45526
 H33 H 0.14131 0.07622 0.47373
 H34 H -0.08987 -0.05563 0.50851
 H35 H -0.15187 -0.10559 0.49202
 H36 H -0.08144 -0.04977 0.44134
 H37 H -0.02312 -0.00006 0.45934
 C38 C 0.01591 -0.08934 0.53291
 C39 C -0.02391 0.10161 0.53513
 C40 C -0.12357 -0.08403 0.46465
 C41 C 0.10775 0.10772 0.46297
 C42 C 1.08592 0.03718 0.14190
 H43 H 1.08574 0.06679 0.14171
 C44 C 1.11547 0.03353 0.13146
 H45 H 1.13757 0.06037 0.12301
 C46 C 1.05728 -0.03362 0.15332
 H47 H 1.03513 -0.05936 0.16218
 C48 C 1.08634 -0.03867 0.14306
 H49 H 1.08625 -0.06844 0.14413
 N50 N 1.05760 0.00390 0.15253
 C51 C 0.95578 0.03118 0.16136
 H52 H 0.95612 0.03179 0.17614
 C53 C 0.92472 0.03515 0.15144
 H54 H 0.90169 0.03963 0.15867
 C55 C 0.98489 0.02347 0.13409
 H56 H 1.00756 0.01760 0.12742
 C57 C 0.95438 0.02729 0.12362
 H58 H 0.95404 0.02440 0.10894
 Zn59 Zn 1.02176 0.01398 0.16728
 N60 N 0.98493 0.02529 0.15262
 C61 C 1.05555 0.09698 0.18102
 N62 N 1.05744 0.06060 0.18164
 C63 C 1.08684 0.05678 0.19200
 C64 C 1.11548 0.09009 0.20257
 C65 C 1.08374 0.13123 0.19137
 C66 C 0.95762 -0.06955 0.17417
 C67 C 0.92781 -0.10435 0.18460
 C68 C 0.95914 -0.06546 0.21191
 C69 C 0.98832 -0.03140 0.20096
 N70 N 0.98691 -0.03394 0.18244
 H71 H 1.03251 0.09969 0.17241
 H72 H 1.08813 0.02776 0.19195
 H73 H 1.13898 0.08655 0.21054
 H74 H 1.08163 0.15985 0.19085
 H75 H 0.95666 -0.07037 0.15940
 H76 H 0.90389 -0.13186 0.17771
 H77 H 0.96060 -0.06271 0.22661
 H78 H 1.01117 -0.00254 0.20728
 C79 C 0.92339 0.03265 0.13231
 C80 C 1.11620 -0.00466 0.13207
 C81 C 0.92794 -0.10233 0.20373
 C82 C 1.11419 0.12797 0.20235
 C83 C 0.03366 0.95870 0.86013
 H84 H 0.00477 0.92838 0.85992
 C85 C 0.06740 0.96362 0.87115
 H86 H 0.06429 0.93675 0.87932
 C87 C 0.07323 1.02988 0.84899
 H88 H 0.07556 1.05537 0.84009
 C89 C 0.10788 1.03617 0.85978
 H90 H 0.13644 1.06685 0.85933
 N91 N 0.03702 0.99160 0.84941
 C92 C -0.09377 0.95925 0.83905
 H93 H -0.09447 0.95878 0.82427
 C94 C -0.12921 0.95334 0.84862
 H95 H -0.15722 0.94663 0.84078
 C96 C -0.05593 0.96768 0.86665
 H97 H -0.02682 0.97476 0.87361
 C98 C -0.09060 0.96187 0.87680
 H99 H -0.08645 0.96539 0.89141
 Zn100 Zn -0.00958 0.98010 0.83404
 N101 N -0.05803 0.96644 0.84812
 C102 C -0.05579 0.89727 0.81968
 N103 N -0.01850 0.93454 0.81962
 C104 C 0.01541 0.94005 0.80991
 C105 C 0.01262 0.90745 0.79960
 C106 C -0.06000 0.86373 0.80951
 C107 C 0.00650 1.06284 0.82733
 C108 C 0.01072 1.09775 0.81693
 C109 C 0.00465 1.06035 0.78953
 C110 C 0.00054 1.02617 0.80045
 N111 N 0.00142 1.02796 0.81899
 H112 H -0.08206 0.89321 0.82783
 H113 H 0.04482 0.96988 0.81029
 H114 H 0.03992 0.91270 0.79183
 H115 H -0.08965 0.83403 0.80992
 H116 H 0.00620 1.06306 0.84210
 H117 H 0.01353 1.12472 0.82384
 H118 H 0.00374 1.05828 0.77479
 H119 H -0.00443 0.99786 0.79407
 C120 C -0.12815 0.95523 0.86789
 C121 C 0.10523 1.00271 0.87102
 C122 C 0.00932 1.09658 0.79776
 C123 C -0.02537 0.86854 0.79939
 C124 C 0.50538 -0.00708 0.00931
 C125 C 0.50326 -0.00862 -0.00929
 C126 C 0.46996 -0.00451 -0.01975
 C127 C 0.53407 -0.01454 -0.02001
 C128 C 0.54314 -0.00235 0.01953
 C129 C 0.47010 -0.00981 0.02028
 C130 C 0.44540 -0.03444 -0.03270
 C131 C 0.41402 -0.03081 -0.04256
 C132 C 0.40677 0.00299 -0.03973
 C133 C 0.43183 0.03326 -0.02693
 C134 C 0.46328 0.02967 -0.01712
 C135 C 0.54161 -0.04810 -0.01562
 C136 C 0.57038 -0.05366 -0.02582
 C137 C 0.59184 -0.02604 -0.04076
 C138 C 0.58379 0.00719 -0.04527
 C139 C 0.55508 0.01278 -0.03503
 C140 C 0.58395 0.03048 0.01482
 C141 C 0.61925 0.03507 0.02462
 C142 C 0.61441 0.00712 0.03941
 C143 C 0.57346 -0.02544 0.04420
 C144 C 0.53817 -0.03000 0.03440
 C145 C 0.47834 0.02048 0.03334
 C146 C 0.44533 0.01821 0.04364
 C147 C 0.40344 -0.01458 0.04117
 C148 C 0.39537 -0.04524 0.02827
 C149 C 0.42840 -0.04301 0.01800
 H150 H 0.45015 -0.06096 -0.03499
 H151 H 0.39495 -0.05486 -0.05219
 H152 H 0.42751 0.06005 -0.02469
 H153 H 0.48255 0.05367 -0.00749
 H154 H 0.52498 -0.07016 -0.00435
 H155 H 0.57534 -0.07998 -0.02221
 H156 H 0.54959 0.03876 -0.03869
 H157 H 0.58843 0.05265 0.00360
 H158 H 0.65039 0.06026 0.02051
 H159 H 0.56864 -0.04704 0.05571
 H160 H 0.50694 -0.05528 0.03836
 H161 H 0.51029 0.04626 0.03535
 H162 H 0.45250 0.04255 0.05334
 H163 H 0.36356 -0.07128 0.02629
 H164 H 0.42148 -0.06728 0.00830
 H165 H 0.60016 0.02926 -0.05657
 C166 C -0.01708 0.48924 0.67557
 C167 C -0.01702 0.49108 0.65693
 C168 C -0.02069 0.45565 0.64619
 C169 C -0.01251 0.52888 0.64639
 C170 C -0.02038 0.52118 0.68635
 C171 C -0.01323 0.45551 0.68608
 C172 C 0.00912 0.46363 0.63253
 C173 C 0.00637 0.43047 0.62258
 C174 C -0.02646 0.38867 0.62601
 C175 C -0.05681 0.38089 0.63944
 C176 C -0.05404 0.41409 0.64939
 C177 C 0.02134 0.56949 0.64981
 C178 C 0.02557 0.60483 0.63975
 C179 C -0.00377 0.60022 0.62597
 C180 C -0.03731 0.55944 0.62244
 C181 C -0.04151 0.52412 0.63250
 C182 C -0.05326 0.53021 0.68310
 C183 C -0.05593 0.56048 0.69323
 C184 C -0.02592 0.58206 0.70689
 C185 C 0.00652 0.57238 0.71031
 C186 C 0.00915 0.54214 0.70019
 C187 C -0.04270 0.43134 0.69983
 C188 C -0.03923 0.39966 0.70980
 C189 C -0.00597 0.39180 0.70631
 C190 C 0.02388 0.41650 0.69271
 C191 C 0.02038 0.44817 0.68275
 H192 H 0.03486 0.49550 0.62973
 H193 H 0.02980 0.43758 0.61210
 H194 H -0.08231 0.34903 0.64247
 H195 H -0.07780 0.40736 0.65966
 H196 H 0.04454 0.57378 0.66024
 H197 H 0.05156 0.63583 0.64288
 H198 H -0.06758 0.49302 0.62953
 H199 H -0.07683 0.51385 0.67270
 H200 H -0.08111 0.56742 0.69020
 H201 H 0.02967 0.58794 0.72096
 H202 H 0.03453 0.53536 0.70302
 H203 H -0.06860 0.43681 0.70274
 H204 H -0.06231 0.38163 0.72039
 H205 H 0.04966 0.41101 0.68961
 H206 H 0.04392 0.46700 0.67243
 H207 H -0.06000 0.55478 0.61171
 C208 C 0.50701 0.51402 0.34241
 C209 C 0.50873 0.51443 0.32380
 C210 C 0.54649 0.54687 0.31343
 C211 C 0.47284 0.48252 0.31295
 C212 C 0.47326 0.47732 0.35298
 C213 C 0.53855 0.55037 0.35302
 C214 C 0.54162 0.57000 0.29871
 C215 C 0.57693 0.60055 0.28891
 C216 C 0.61782 0.60835 0.29356
 C217 C 0.62253 0.58465 0.30814
 C218 C 0.58719 0.55410 0.31793
 C219 C 0.43159 0.47539 0.31536
 C220 C 0.39797 0.44524 0.30519
 C221 C 0.40501 0.42193 0.29226
 C222 C 0.44648 0.42968 0.28965
 C223 C 0.48007 0.45979 0.29986
 C224 C 0.46545 0.43606 0.35042
 C225 C 0.43338 0.40168 0.36025
 C226 C 0.40873 0.40793 0.37295
 C227 C 0.41717 0.44938 0.37573
 C228 C 0.44924 0.48374 0.36589
 C229 C 0.55971 0.54353 0.36785
 C230 C 0.58926 0.57752 0.37793
 C231 C 0.59796 0.61900 0.37347
 C232 C 0.57624 0.62567 0.35876
 C233 C 0.54671 0.59167 0.34869
 H234 H 0.51046 0.56463 0.29491
 H235 H 0.57221 0.61780 0.27757
 H236 H 0.65361 0.59012 0.31213
 H237 H 0.59158 0.53606 0.32904
 H238 H 0.42548 0.49332 0.32509
 H239 H 0.36653 0.44054 0.30728
 H240 H 0.51168 0.46494 0.29774
 H241 H 0.48412 0.43049 0.34075
 H242 H 0.42747 0.37013 0.35772
 H243 H 0.39921 0.45529 0.38563
 H244 H 0.45502 0.51535 0.36819
 H245 H 0.55357 0.51187 0.37152
 H246 H 0.60495 0.57128 0.38936
 H247 H 0.58245 0.65726 0.35491
 H248 H 0.53014 0.59755 0.33752
 H249 H 0.45284 0.41194 0.27992
 C250 C -0.03226 0.19503 0.56600
 C251 C 0.00430 0.20597 0.55597
 C252 C 0.00684 0.17564 0.54587
 C253 C -0.02721 0.13379 0.54567
 C254 C -0.06406 0.12313 0.55566
 C255 C -0.06651 0.15359 0.56579
 C256 C -0.03401 0.22648 0.57662
 C257 C -0.03407 0.25367 0.58543
 C258 C -0.03260 0.28701 0.59584
 C259 C 0.00640 0.31922 0.60203
 C260 C 0.00836 0.35217 0.61188
 C261 C -0.02874 0.35337 0.61568
 C262 C -0.06788 0.32069 0.60949
 C263 C -0.06975 0.28775 0.59961
 H264 H 0.03093 0.23798 0.55598
 H265 H 0.03534 0.18504 0.53808
 H266 H -0.09063 0.09111 0.55588
 H267 H -0.09494 0.14477 0.57354
 H268 H 0.03535 0.31891 0.59922
 H269 H 0.03887 0.37649 0.61669
 H270 H -0.09693 0.32099 0.61203
 H271 H -0.10010 0.26303 0.59483
 C272 C 0.82778 0.79649 0.23538
 C273 C 0.84288 0.83862 0.23976
 C274 C 0.87589 0.87143 0.22966
 C275 C 0.89431 0.86255 0.21499
 C276 C 0.87924 0.82003 0.21081
 C277 C 0.84618 0.78722 0.22096
 C278 C 0.79257 0.76304 0.24537
 C279 C 0.76262 0.73564 0.25375
 C280 C 0.72643 0.70359 0.26375
 C281 C 0.69367 0.71111 0.26829
 C282 C 0.65837 0.68016 0.27798
 C283 C 0.65537 0.64120 0.28327
 C284 C 0.68853 0.63395 0.27867
 C285 C 0.72382 0.66497 0.26896
 H286 H 0.82870 0.84616 0.25082
 H287 H 0.88622 0.90379 0.23303
 H288 H 0.89304 0.81217 0.19972
 H289 H 0.83472 0.75469 0.21745
 H290 H 0.69545 0.74096 0.26437
 H291 H 0.63367 0.68692 0.28154
 H292 H 0.68690 0.60410 0.28237
 H293 H 0.74897 0.65880 0.26548
 C294 C 0.21097 0.01321 -0.09764
 C295 C 0.21747 0.03245 -0.11513
 C296 C 0.18324 0.02987 -0.12520
 C297 C 0.14200 0.00785 -0.11788
 C298 C 0.13595 -0.01071 -0.10014
 C299 C 0.17022 -0.00804 -0.09011
 C300 C 0.24573 0.01380 -0.08767
 C301 C 0.27448 0.01341 -0.07937
 C302 C 0.30840 0.01200 -0.06953
 C303 C 0.31475 0.02128 -0.05098
 C304 C 0.34693 0.01865 -0.04130
 C305 C 0.37312 0.00658 -0.05007
 C306 C 0.36664 -0.00242 -0.06876
 C307 C 0.33448 0.00028 -0.07841
 H308 H 0.24887 0.04882 -0.12112
 H309 H 0.18884 0.04401 -0.13889
 H310 H 0.10469 -0.02740 -0.09405
 H311 H 0.16484 -0.02302 -0.07657
 H312 H 0.29459 0.03017 -0.04396
 H313 H 0.35080 0.02526 -0.02689
 H314 H 0.38663 -0.01125 -0.07594
 H315 H 0.32984 -0.00697 -0.09277
 C316 C 0.01707 0.80861 0.56412
 C317 C -0.00365 0.80109 0.54723
 C318 C -0.00338 0.83440 0.53694
 C319 C 0.01763 0.87579 0.54343
 C320 C 0.03886 0.88313 0.56034
 C321 C 0.03855 0.84973 0.57061
 C322 C 0.01510 0.77384 0.57499
 C323 C 0.01259 0.74425 0.58403
 C324 C 0.00873 0.70845 0.59473
 C325 C -0.03124 0.67636 0.60061
 C326 C -0.03531 0.64124 0.61081
 C327 C 0.00063 0.63774 0.61528
 C328 C 0.04072 0.67028 0.60938
 C329 C 0.04470 0.70538 0.59915
 H330 H -0.02056 0.76935 0.54213
 H331 H -0.02059 0.82755 0.52414
 H332 H 0.05568 0.91469 0.56561
 H333 H 0.05473 0.85590 0.58367
 H334 H -0.05929 0.67847 0.59729
 H335 H -0.06651 0.61703 0.61536
 H336 H 0.06890 0.66826 0.61241
 H337 H 0.07578 0.72998 0.59462
 C338 C 0.20685 0.23163 0.23325
 C339 C 0.19526 0.23928 0.21576
 C340 C 0.16452 0.20570 0.20581
 C341 C 0.14511 0.16401 0.21323
 C342 C 0.15651 0.15679 0.23094
 C343 C 0.18718 0.19038 0.24086
 C344 C 0.23985 0.26574 0.24319
 C345 C 0.26792 0.29383 0.25157
 C346 C 0.30183 0.32682 0.26163
 C347 C 0.29661 0.33104 0.28017
 C348 C 0.33004 0.36217 0.29011
 C349 C 0.36921 0.38947 0.28161
 C350 C 0.37403 0.38516 0.26293
 C351 C 0.34055 0.35403 0.25302
 H352 H 0.21041 0.27109 0.20970
 H353 H 0.15678 0.21220 0.19213
 H354 H 0.14173 0.12514 0.23712
 H355 H 0.19586 0.18412 0.25440
 H356 H 0.26685 0.30998 0.28700
 H357 H 0.32552 0.36434 0.30452
 H358 H 0.40360 0.40605 0.25595
 H359 H 0.34493 0.35104 0.23867
 C360 C 0.77112 -0.04914 -0.10178
 C361 C 0.77565 -0.03778 -0.12039
 C362 C 0.80814 -0.03718 -0.13048
 C363 C 0.83722 -0.04778 -0.12211
 C364 C 0.83135 -0.06013 -0.10330
 C365 C 0.79874 -0.06070 -0.09330
 C366 C 0.73906 -0.04743 -0.09126
 C367 C 0.71266 -0.04513 -0.08248
 C368 C 0.68161 -0.04151 -0.07205
 C369 C 0.65343 -0.03107 -0.08090
 C370 C 0.62407 -0.02626 -0.07075
 C371 C 0.62255 -0.03182 -0.05158
 C372 C 0.65083 -0.04260 -0.04281
 C373 C 0.68018 -0.04736 -0.05300
 H374 H 0.75457 -0.02843 -0.12707
 H375 H 0.81138 -0.02607 -0.14460
 H376 H 0.85110 -0.07047 -0.09619
 H377 H 0.79527 -0.06995 -0.07890
 H378 H 0.65425 -0.02648 -0.09564
 H379 H 0.60236 -0.01852 -0.07791
 H380 H 0.65079 -0.04657 -0.02807
 H381 H 0.70201 -0.05522 -0.04600
 C382 C 0.21035 -0.01472 0.10159
 C383 C 0.22118 0.02227 0.11074
 C384 C 0.19060 0.02542 0.12068
 C385 C 0.14864 -0.00844 0.12162
 C386 C 0.13808 -0.04567 0.11249
 C387 C 0.16878 -0.04874 0.10251
 C388 C 0.24205 -0.01735 0.09119
 C389 C 0.26923 -0.01855 0.08254
 C390 C 0.30233 -0.01893 0.07228
 C391 C 0.34097 -0.00860 0.08071
 C392 C 0.37376 -0.00747 0.07064
 C393 C 0.36832 -0.01666 0.05197
 C394 C 0.32922 -0.02736 0.04365
 C395 C 0.29648 -0.02843 0.05374
 H396 H 0.25330 0.04872 0.11017
 H397 H 0.19990 0.05422 0.12781
 H398 H 0.10597 -0.07210 0.11282
 H399 H 0.16004 -0.07750 0.09545
 H400 H 0.34584 -0.00118 0.09505
 H401 H 0.40327 0.00032 0.07749
 H402 H 0.32426 -0.03407 0.02925
 H403 H 0.26677 -0.03623 0.04705
 C404 C 0.77782 0.82068 0.43423
 C405 C 0.78074 0.81460 0.45302
 C406 C 0.81281 0.84641 0.46322
 C407 C 0.84341 0.88554 0.45484
 C408 C 0.83883 0.89111 0.43575
 C409 C 0.80661 0.85910 0.42567
 C410 C 0.74616 0.78690 0.42367
 C411 C 0.72010 0.75817 0.41486
 C412 C 0.68946 0.72346 0.40440
 C413 C 0.69744 0.69119 0.39981
 C414 C 0.66772 0.65725 0.38975
 C415 C 0.62956 0.65514 0.38412
 C416 C 0.62186 0.68781 0.38876
 C417 C 0.65163 0.72173 0.39885
 H418 H 0.75872 0.78472 0.45979
 H419 H 0.81442 0.83832 0.47746
 H420 H 0.85887 0.92054 0.42833
 H421 H 0.80430 0.86435 0.41111
 H422 H 0.72668 0.69228 0.40400
 H423 H 0.67483 0.63292 0.38618
 H424 H 0.59256 0.68683 0.38482
 H425 H 0.64508 0.74649 0.40237
 C426 C 0.01048 0.19891 0.76581
 C427 C 0.03757 0.20757 0.78086
 C428 C 0.03769 0.17438 0.79113
 C429 C 0.01069 0.13207 0.78646
 C430 C -0.01608 0.12378 0.77119
 C431 C -0.01616 0.15698 0.76095
 C432 C 0.00911 0.23280 0.75559
 C433 C 0.00718 0.26077 0.74702
 C434 C 0.00406 0.29369 0.73678
 C435 C 0.04047 0.33249 0.73273
 C436 C 0.03727 0.36443 0.72281
 C437 C -0.00245 0.35794 0.71683
 C438 C -0.03884 0.31879 0.72097
 C439 C -0.03557 0.28691 0.73087
 H440 H 0.05835 0.23993 0.78473
 H441 H 0.05896 0.18180 0.80269
 H442 H -0.03773 0.09158 0.76740
 H443 H -0.03741 0.14991 0.74939
 H444 H 0.07129 0.33810 0.73728
 H445 H 0.06580 0.39439 0.72003
 H446 H -0.06978 0.31262 0.71635
 H447 H -0.06395 0.25694 0.73389
 C448 C 0.82188 0.03119 0.10066
 C449 C 0.81375 0.01058 0.11789
 C450 C 0.84685 0.01164 0.12829
 C451 C 0.88865 0.03336 0.12158
 C452 C 0.89659 0.05441 0.10431
 C453 C 0.86338 0.05331 0.09393
 C454 C 0.78736 0.02858 0.08976
 C455 C 0.75795 0.02557 0.08074
 C456 C 0.72234 0.02114 0.07013
 C457 C 0.68976 -0.01918 0.06573
 C458 C 0.65476 -0.02375 0.05568
 C459 C 0.65187 0.01203 0.04989
 C460 C 0.68491 0.05247 0.05430
 C461 C 0.71989 0.05696 0.06437
 H462 H 0.78171 -0.00681 0.12320
 H463 H 0.83955 -0.00546 0.14138
 H464 H 0.92846 0.07175 0.09885
 H465 H 0.87003 0.06942 0.08060
 H466 H 0.69138 -0.04712 0.07009
 H467 H 0.63013 -0.05525 0.05229
 H468 H 0.68336 0.08058 0.05023
 H469 H 0.74487 0.08832 0.06776
 C470 C 0.21254 0.20610 0.43230
 C471 C 0.18599 0.21551 0.44220
 C472 C 0.15209 0.18355 0.45221
 C473 C 0.14418 0.14159 0.45246
 C474 C 0.17125 0.13245 0.44257
 C475 C 0.20519 0.16454 0.43253
 C476 C 0.24698 0.23926 0.42184
 C477 C 0.27538 0.26776 0.41315
 C478 C 0.30876 0.30250 0.40287
 C479 C 0.30287 0.33554 0.39589
 C480 C 0.33532 0.36974 0.38614
 C481 C 0.37419 0.37139 0.38322
 C482 C 0.37977 0.33791 0.39021
 C483 C 0.34724 0.30371 0.39999
 H484 H 0.19148 0.24759 0.44218
 H485 H 0.13231 0.19177 0.45992
 H486 H 0.16575 0.10041 0.44237
 H487 H 0.22552 0.15690 0.42488
 H488 H 0.27317 0.33488 0.39801
 H489 H 0.32984 0.39470 0.38070
 H490 H 0.40949 0.33850 0.38837
 H491 H 0.35219 0.27837 0.40539
 C492 C -0.03265 0.76740 0.76844
 C493 C -0.06706 0.77450 0.76862
 C494 C -0.06499 0.80713 0.77882
 C495 C -0.02836 0.83313 0.78891
 C496 C 0.00583 0.82537 0.78877
 C497 C 0.00367 0.79278 0.77860
 C498 C -0.03397 0.73466 0.75765
 C499 C -0.03381 0.70778 0.74865
 C500 C -0.03221 0.67634 0.73797
 C501 C -0.06940 0.63904 0.73379
 C502 C -0.06747 0.60839 0.72361
 C503 C -0.02825 0.61469 0.71751
 C504 C 0.00889 0.65240 0.72172
 C505 C 0.00688 0.68297 0.73187
 H506 H -0.09530 0.75509 0.76076
 H507 H -0.09165 0.81257 0.77853
 H508 H 0.03417 0.84434 0.79664
 H509 H 0.03043 0.78747 0.77861
 H510 H -0.09983 0.63354 0.73849
 H511 H -0.09655 0.57948 0.72077
 H512 H 0.03948 0.65846 0.71699
 H513 H 0.03585 0.71179 0.73498
   
