data_POSCAR
  _audit_creation_date              2014-09-24
  _audit_creation_method            'ToBaCCo'
  _symmetry_space_group_name_H-M    'P1'
  _symmetry_Int_Tables_number       1
  _symmetry_cell_setting            triclinic
  loop_
  _symmetry_equiv_pos_as_xyz
 x,y,z
_cell_length_a 37.0148
_cell_length_b 40.2623
_cell_length_c 43.3733
_cell_angle_alpha 89.710300
_cell_angle_beta 90.496300
_cell_angle_gamma 88.321500
loop_
  _atom_site_label
  _atom_site_type_symbol
  _atom_site_fract_x
  _atom_site_fract_y
  _atom_site_fract_z
C1 C 0.14791 0.17189 0.22947
 C2 C 0.17807 0.15655 0.21495
 C3 C 0.19236 0.16954 0.18748
 C4 C 0.17544 0.19821 0.17432
 C5 C 0.14500 0.21342 0.18807
 C6 C 0.13182 0.20032 0.21559
 H7 H 0.19080 0.13435 0.22464
 H8 H 0.18597 0.20945 0.15386
 H9 H 0.10857 0.21249 0.22622
 C10 C -0.15654 0.82087 0.22166
 C11 C -0.18811 0.83771 0.21090
 C12 C -0.20350 0.83018 0.18228
 C13 C -0.18812 0.80441 0.16443
 C14 C -0.15753 0.78615 0.17540
 C15 C -0.14188 0.79491 0.20373
 H16 H -0.20136 0.85689 0.22436
 H17 H -0.20024 0.79852 0.14245
 H18 H -0.11795 0.78123 0.21192
 C19 C -0.14798 0.16400 -0.22059
 C20 C -0.14065 0.19334 -0.20435
 C21 C -0.15928 0.20144 -0.17712
 C22 C -0.18476 0.17959 -0.16577
 C23 C -0.19171 0.14945 -0.18068
 C24 C -0.17349 0.14216 -0.20825
 H25 H -0.12157 0.21046 -0.21375
 H26 H -0.19972 0.18706 -0.14555
 H27 H -0.17861 0.11870 -0.21919
 C28 C 0.16865 0.83384 -0.21111
 C29 C 0.19319 0.84670 -0.18974
 C30 C 0.19779 0.83230 -0.16016
 C31 C 0.17749 0.80454 -0.15259
 C32 C 0.15259 0.79156 -0.17360
 C33 C 0.14884 0.80588 -0.20297
 H34 H 0.20891 0.86751 -0.19690
 H35 H 0.18167 0.79262 -0.13035
 H36 H 0.13070 0.79482 -0.21943
 C37 C 0.16120 1.17516 0.76677
 C38 C 0.19489 1.16603 0.78022
 C39 C 0.21096 1.18695 0.80194
 C40 C 0.19337 1.21675 0.81013
 C41 C 0.15888 1.22512 0.79836
 C42 C 0.14328 1.20451 0.77636
 H43 H 0.20857 1.14292 0.77403
 H44 H 0.20643 1.23299 0.82635
 H45 H 0.11693 1.21129 0.76675
 C46 C 0.86269 0.86191 0.79905
 C47 C 0.87707 0.83085 0.80926
 C48 C 0.86587 0.81642 0.83715
 C49 C 0.84024 0.83405 0.85516
 C50 C 0.82608 0.86510 0.84543
 C51 C 0.83806 0.87910 0.81798
 H52 H 0.89702 0.81747 0.79576
 H53 H 0.83141 0.82452 0.87698
 H54 H 0.82662 0.90301 0.81061
 C55 C 0.15257 0.83866 1.20642
 C56 C 0.17862 0.85008 1.18593
 C57 C 0.18657 0.83402 1.15807
 C58 C 0.16702 0.80649 1.14910
 C59 C 0.13759 0.79265 1.16866
 C60 C 0.13170 0.81142 1.19803
 H61 H 0.19330 0.87201 1.19204
 H62 H 0.17320 0.79442 1.12744
 H63 H 0.11024 0.80294 1.21253
 C64 C 0.85620 1.16968 1.22550
 C65 C 0.82294 1.15399 1.21144
 C66 C 0.80556 1.16667 1.18500
 C67 C 0.81852 1.19512 1.17030
 C68 C 0.84955 1.21136 1.18080
 C69 C 0.86780 1.19956 1.20735
 H70 H 0.81225 1.13234 1.22263
 H71 H 0.80326 1.20514 1.15099
 H72 H 0.89143 1.21216 1.21573
 N73 N 0.45785 0.95327 0.97168
 N74 N 0.42804 0.93632 0.96803
 N75 N 0.53784 0.96801 0.95344
 N76 N 0.56750 0.96094 0.93786
 N77 N 0.53376 0.94653 0.97590
 N78 N 0.56071 0.92434 0.97638
 N79 N 0.46233 0.97339 0.94821
 N80 N 0.43573 0.97097 0.92811
 C81 C 0.41472 0.94775 0.94060
 C82 C 0.58138 0.93358 0.95245
 N83 N 0.53981 1.06500 0.96569
 N84 N 0.56830 1.08354 0.96227
 N85 N 0.46608 1.04339 0.94202
 N86 N 0.44045 1.04567 0.92090
 N87 N 0.46354 1.06821 0.96146
 N88 N 0.43589 1.08837 0.95378
 N89 N 0.54157 1.03938 0.94711
 N90 N 0.57111 1.03999 0.93024
 Mn91 Mn 0.50227 1.00598 0.94743
 C92 C 0.58742 1.06777 0.94003
 C93 C 0.42194 1.07371 0.92831
 N94 N 0.53026 0.95275 1.04120
 N95 N 0.55638 0.93048 1.04610
 N96 N 0.45687 0.98383 1.05830
 N97 N 0.43030 0.98255 1.07830
 N98 N 0.45481 0.95952 1.03833
 N99 N 0.42698 0.94082 1.04443
 N100 N 0.53318 0.97798 1.06006
 N101 N 0.56171 0.97335 1.07846
 Mn102 Mn 0.49382 0.95266 1.00680
 C103 C 0.57567 0.94340 1.06936
 C104 C 0.41184 0.95574 1.06931
 N105 N 0.46054 1.07491 1.02844
 N106 N 0.43358 1.09707 1.03001
 N107 N 0.53642 1.05020 1.05414
 N108 N 0.56405 1.05496 1.07302
 N109 N 0.53654 1.07158 1.03115
 N110 N 0.56436 1.09114 1.03355
 N111 N 0.46020 1.05458 1.05224
 N112 N 0.43279 1.06216 1.07044
 Mn113 Mn 0.49980 1.07039 0.99665
 Mn114 Mn 0.49694 1.01668 1.05665
 Cl115 Cl 0.49818 1.01148 1.00195
 C116 C 0.41647 1.08872 1.05630
 C117 C 0.58117 1.08066 1.05974
 N118 N -0.04243 0.46741 -0.06921
 N119 N -0.04111 0.44326 -0.08951
 N120 N -0.07566 0.53339 -0.04528
 N121 N -0.09812 0.55941 -0.04712
 N122 N -0.04860 0.53678 -0.06431
 N123 N -0.05197 0.56511 -0.07965
 N124 N -0.06892 0.46335 -0.04972
 N125 N -0.08645 0.43603 -0.05642
 C126 C -0.06869 0.42400 -0.08149
 C127 C -0.08317 0.57878 -0.06883
 N128 N -0.05750 0.52875 0.04339
 N129 N -0.06423 0.55414 0.06184
 N130 N -0.07473 0.45867 0.01691
 N131 N -0.09566 0.43272 0.01850
 N132 N -0.05205 0.45883 0.04038
 N133 N -0.05688 0.43291 0.05850
 N134 N -0.08121 0.52840 0.02066
 N135 N -0.10475 0.55351 0.02315
 Mn136 Mn -0.07564 0.49576 -0.01441
 C137 C -0.09391 0.56924 0.04897
 C138 C -0.08414 0.41686 0.04451
 N139 N 0.02884 0.53958 -0.05876
 N140 N 0.03242 0.56697 -0.07514
 N141 N 0.05716 0.46846 -0.04023
 N142 N 0.08048 0.44334 -0.04348
 N143 N 0.03434 0.47004 -0.06354
 N144 N 0.04139 0.44595 -0.08328
 N145 N 0.05242 0.53810 -0.03601
 N146 N 0.07264 0.56455 -0.03616
 Mn147 Mn -0.00699 0.50361 -0.06427
 C148 C 0.05991 0.58221 -0.06074
 C149 C 0.07034 0.42967 -0.07048
 N150 N 0.02537 0.46149 0.04583
 N151 N 0.03005 0.43502 0.06369
 N152 N 0.04720 0.53282 0.02945
 N153 N 0.06814 0.55780 0.03558
 N154 N 0.02051 0.53162 0.04913
 N155 N 0.02277 0.55599 0.06944
 N156 N 0.05179 0.46333 0.02593
 N157 N 0.07527 0.43833 0.02982
 Mn158 Mn -0.01600 0.49526 0.04513
 Mn159 Mn 0.05252 0.50055 -0.00519
 Cl160 Cl -0.01157 0.49877 -0.00963
 C161 C 0.06136 0.42091 0.05344
 C162 C 0.05273 0.57205 0.06043
 N163 N 0.94785 0.01700 0.53918
 N164 N 0.92680 0.02169 0.56315
 N165 N 0.96888 0.04207 0.47353
 N166 N 0.96482 0.06212 0.44939
 N167 N 0.94218 0.02132 0.47482
 N168 N 0.91916 0.02684 0.45191
 N169 N 0.97364 0.03872 0.53876
 N170 N 0.97071 0.05890 0.56273
 C171 C 0.94132 0.04772 0.57771
 C172 C 0.93343 0.05237 0.43637
 N173 N 1.07054 0.01096 0.46817
 N174 N 1.09170 0.01426 0.44413
 N175 N 1.05143 0.03233 0.53466
 N176 N 1.05880 0.05095 0.55874
 N177 N 1.07473 0.00717 0.53283
 N178 N 1.09866 0.00810 0.55556
 N179 N 1.04697 0.03594 0.46972
 N180 N 1.05157 0.05697 0.44662
 Mn181 Mn 1.01028 0.03779 0.50412
 C182 C 1.07963 0.04298 0.43091
 C183 C 1.08836 0.03554 0.57151
 N184 N 0.93757 -0.04952 0.47129
 N185 N 0.91384 -0.04925 0.44842
 N186 N 0.96632 -0.07934 0.53255
 N187 N 0.96395 -0.10069 0.55548
 N188 N 0.94342 -0.05418 0.53607
 N189 N 0.92493 -0.05764 0.56179
 N190 N 0.96124 -0.07414 0.46818
 N191 N 0.95427 -0.09137 0.44312
 Mn192 Mn 0.94238 -0.01630 0.50547
 C193 C 0.92451 -0.07555 0.43117
 C194 C 0.93805 -0.08695 0.57342
 N195 N 1.06961 -0.06432 0.52975
 N196 N 1.09025 -0.06987 0.55442
 N197 N 1.03859 -0.08057 0.46459
 N198 N 1.03986 -0.10018 0.44043
 N199 N 1.06553 -0.06009 0.46452
 N200 N 1.08579 -0.06505 0.43988
 N201 N 1.04328 -0.08547 0.52880
 N202 N 1.04538 -0.10602 0.55250
 Mn203 Mn 1.07062 -0.02661 0.49887
 Mn204 Mn 1.00235 -0.08016 0.49841
 Cl205 Cl 1.00645 -0.02124 0.50172
 C206 C 1.07487 -0.09627 0.56809
 C207 C 1.06926 -0.09020 0.42520
 C208 C 1.13281 0.16015 0.25716
 C209 C 1.14652 0.13342 0.27499
 C210 C 1.12949 0.12206 0.30396
 C211 C 1.15080 0.10384 0.32536
 C212 C 1.13591 0.09199 0.35265
 C213 C 1.09903 0.09768 0.35902
 C214 C 1.07773 0.11621 0.33782
 C215 C 1.09264 0.12807 0.31045
 C216 C 1.08226 0.08476 0.38748
 C217 C 1.09589 0.05654 0.40291
 H218 H 1.17170 0.12106 0.26892
 H219 H 1.17925 0.09892 0.32106
 H220 H 1.15356 0.07876 0.36880
 H221 H 1.04926 0.12095 0.34216
 H222 H 1.07497 0.14120 0.29426
 H223 H 1.05749 0.09666 0.39555
 H224 H 1.10924 0.17355 0.26576
 H225 H 1.11888 0.04280 0.39371
 C226 C 0.86080 -0.17128 0.24966
 C227 C 0.85174 -0.14368 0.26789
 C228 C 0.87013 -0.13595 0.29730
 C229 C 0.86773 -0.10321 0.30817
 C230 C 0.88365 -0.09476 0.33620
 C231 C 0.90198 -0.11908 0.35426
 C232 C 0.90483 -0.15175 0.34328
 C233 C 0.88882 -0.16025 0.31518
 C234 C 0.91878 -0.11096 0.38423
 C235 C 0.90666 -0.08434 0.40218
 H236 H 0.83194 -0.12536 0.25983
 H237 H 0.85361 -0.08399 0.29481
 H238 H 0.88190 -0.06907 0.34334
 H239 H 0.91891 -0.17089 0.35676
 H240 H 0.89052 -0.18593 0.30803
 H241 H 0.94055 -0.12708 0.39292
 H242 H 0.88370 -0.18688 0.25684
 H243 H 0.88334 -0.06930 0.39506
 C244 C 0.87059 0.15741 0.75164
 C245 C 0.86076 0.13301 0.73045
 C246 C 0.88071 0.12518 0.70176
 C247 C 0.86194 0.11003 0.67768
 C248 C 0.87984 0.09957 0.65114
 C249 C 0.91732 0.10333 0.64821
 C250 C 0.93602 0.11965 0.67175
 C251 C 0.91794 0.13037 0.69842
 C252 C 0.93705 0.08985 0.62108
 C253 C 0.92510 0.06178 0.60574
 H254 H 0.83580 0.12020 0.73348
 H255 H 0.83321 0.10600 0.67950
 H256 H 0.86411 0.08844 0.63298
 H257 H 0.96484 0.12311 0.66995
 H258 H 0.93339 0.14157 0.71671
 H259 H 0.96183 0.10117 0.61393
 H260 H 0.89261 0.17324 0.74553
 H261 H 0.90208 0.04892 0.61456
 C262 C 1.16520 -0.15037 0.75801
 C263 C 1.13408 -0.15235 0.73975
 C264 C 1.12956 -0.13705 0.70874
 C265 C 1.09472 -0.13526 0.69577
 C266 C 1.08890 -0.12233 0.66622
 C267 C 1.11796 -0.11112 0.64870
 C268 C 1.15273 -0.11204 0.66181
 C269 C 1.15864 -0.12519 0.69146
 C270 C 1.11222 -0.09832 0.61694
 C271 C 1.08530 -0.11079 0.59801
 H272 H 1.11095 -0.16462 0.74910
 H273 H 1.07180 -0.14396 0.70857
 H274 H 1.06152 -0.12090 0.65726
 H275 H 1.17547 -0.10335 0.64879
 H276 H 1.18603 -0.12656 0.70026
 H277 H 1.12972 -0.07941 0.60819
 H278 H 1.18706 -0.13512 0.75051
 H279 H 1.06974 -0.13148 0.60593
 C280 C 0.22303 1.15325 1.17449
 C281 C 0.24079 1.16327 1.14762
 C282 C 0.27301 1.14560 1.13462
 C283 C 0.29462 1.16265 1.11368
 C284 C 0.32497 1.14709 1.10046
 C285 C 0.33426 1.11381 1.10765
 C286 C 0.31269 1.09671 1.12856
 C287 C 0.28227 1.11226 1.14175
 C288 C 0.36654 1.09639 1.09458
 C289 C 0.38423 1.10670 1.06799
 H290 H 0.23218 1.18572 1.13568
 H291 H 0.28819 1.18832 1.10771
 H292 H 0.34127 1.16150 1.08509
 H293 H 0.31919 1.07104 1.13450
 H294 H 0.26594 1.09778 1.15702
 H295 H 0.37623 1.07378 1.10597
 H296 H 0.23401 1.13165 1.18663
 H297 H 0.37413 1.12797 1.05490
 C298 C 0.22250 0.84381 0.86193
 C299 C 0.24155 0.87314 0.85928
 C300 C 0.26949 0.88291 0.88178
 C301 C 0.27787 0.91655 0.88380
 C302 C 0.30611 0.92659 0.90273
 C303 C 0.32702 0.90304 0.91966
 C304 C 0.31775 0.86957 0.91875
 C305 C 0.28941 0.85946 0.89976
 C306 C 0.35960 0.91277 0.93693
 C307 C 0.38106 0.93789 0.92583
 H308 H 0.23511 0.89068 0.84099
 H309 H 0.26280 0.93510 0.87037
 H310 H 0.31181 0.95278 0.90374
 H311 H 0.33347 0.85104 0.93166
 H312 H 0.28427 0.83321 0.89833
 H313 H 0.36857 0.89819 0.95677
 H314 H 0.22627 0.82938 0.88292
 H315 H 0.37376 0.95044 0.90444
 C316 C 0.76375 0.84949 1.17245
 C317 C 0.75664 0.85870 1.14190
 C318 C 0.72546 0.88061 1.13248
 C319 C 0.71387 0.88017 1.10165
 C320 C 0.68401 0.89961 1.09190
 C321 C 0.66494 0.92000 1.11286
 C322 C 0.67762 0.92185 1.14332
 C323 C 0.70754 0.90234 1.15312
 C324 C 0.63164 0.93891 1.10342
 C325 C 0.60860 0.92639 1.08108
 H326 H 0.77439 0.84929 1.12404
 H327 H 0.72766 0.86435 1.08509
 H328 H 0.67599 0.89862 1.06788
 H329 H 0.66388 0.93789 1.15973
 H330 H 0.71652 0.90466 1.17676
 H331 H 0.62414 0.96167 1.11527
 H332 H 0.74613 0.85862 1.19046
 H333 H 0.61484 0.90232 1.07113
 C334 C 0.78286 1.12698 0.83055
 C335 C 0.76804 1.12864 0.86015
 C336 C 0.73740 1.10883 0.87081
 C337 C 0.73012 1.10822 0.90251
 C338 C 0.69936 1.09315 0.91362
 C339 C 0.67492 1.07852 0.89320
 C340 C 0.68293 1.07763 0.86165
 C341 C 0.71374 1.09291 0.85043
 C342 C 0.64055 1.06511 0.90429
 C343 C 0.62216 1.07950 0.92901
 H344 H 0.77971 1.14481 0.87712
 H345 H 0.74795 1.12009 0.91875
 H346 H 0.69464 1.09327 0.93821
 H347 H 0.66456 1.06629 0.84552
 H348 H 0.71801 1.09324 0.82581
 H349 H 0.62814 1.04542 0.89140
 H350 H 0.77518 1.10676 0.81574
 H351 H 0.63284 1.10110 0.94026
 C352 C 0.12706 0.24388 0.17505
 C353 C 0.12758 0.25223 0.14371
 C354 C 0.11047 0.28298 0.13045
 C355 C 0.12082 0.29314 0.10089
 C356 C 0.10573 0.32200 0.08740
 C357 C 0.07983 0.34148 0.10326
 C358 C 0.06874 0.33085 0.13247
 C359 C 0.08384 0.30197 0.14598
 C360 C 0.06322 0.37240 0.08996
 C361 C 0.07843 0.39022 0.06589
 H362 H 0.14169 0.23579 0.12792
 H363 H 0.14081 0.27873 0.08817
 H364 H 0.11417 0.32852 0.06442
 H365 H 0.04837 0.34504 0.14497
 H366 H 0.07406 0.29459 0.16831
 H367 H 0.03863 0.38222 0.10032
 H368 H 0.11243 0.25974 0.19096
 H369 H 0.10389 0.38215 0.05600
 C370 C -0.15457 0.23303 -0.16027
 C371 C -0.12433 0.25277 -0.16251
 C372 C -0.11992 0.28319 -0.14379
 C373 C -0.08496 0.29442 -0.13830
 C374 C -0.07958 0.32294 -0.12084
 C375 C -0.10919 0.34122 -0.10878
 C376 C -0.14414 0.32986 -0.11393
 C377 C -0.14956 0.30134 -0.13152
 C378 C -0.10414 0.37228 -0.09124
 C379 C -0.07579 0.39303 -0.09783
 H380 H -0.10184 0.24450 -0.17658
 H381 H -0.06167 0.28089 -0.14733
 H382 H -0.05213 0.33038 -0.11657
 H383 H -0.16736 0.34354 -0.10496
 H384 H -0.17704 0.29414 -0.13590
 H385 H -0.12409 0.37991 -0.07437
 H386 H -0.17502 0.23972 -0.14357
 H387 H -0.05773 0.38679 -0.11656
 C388 C 0.13140 0.76215 -0.16578
 C389 C 0.12111 0.75517 -0.13557
 C390 C 0.10381 0.72417 -0.12593
 C391 C 0.10530 0.71534 -0.09461
 C392 C 0.09094 0.68563 -0.08440
 C393 C 0.07469 0.66407 -0.10541
 C394 C 0.07170 0.67353 -0.13651
 C395 C 0.08622 0.70325 -0.14678
 C396 C 0.06041 0.63185 -0.09554
 C397 C 0.07396 0.61440 -0.06990
 H398 H 0.12770 0.77257 -0.11756
 H399 H 0.11813 0.73128 -0.07798
 H400 H 0.09245 0.67983 -0.06004
 H401 H 0.05863 0.65761 -0.15301
 H402 H 0.08335 0.70963 -0.17093
 H403 H 0.04002 0.62063 -0.10988
 H404 H 0.12390 0.74596 -0.18442
 H405 H 0.09602 0.62397 -0.05641
 C406 C -0.14054 0.75801 0.15827
 C407 C -0.15785 0.73989 0.13531
 C408 C -0.14127 0.70964 0.12105
 C409 C -0.16383 0.68669 0.10685
 C410 C -0.14945 0.65726 0.09426
 C411 C -0.11199 0.65027 0.09543
 C412 C -0.08937 0.67341 0.10917
 C413 C -0.10370 0.70292 0.12153
 C414 C -0.09569 0.61884 0.08354
 C415 C -0.11160 0.59983 0.06060
 H416 H -0.18565 0.74619 0.12935
 H417 H -0.19283 0.69121 0.10606
 H418 H -0.16785 0.63975 0.08441
 H419 H -0.06041 0.66873 0.11019
 H420 H -0.08509 0.72033 0.13120
 H421 H -0.06914 0.61120 0.09218
 H422 H -0.11407 0.74951 0.16621
 H423 H -0.13665 0.60819 0.04969
 C424 C 1.14326 0.15478 0.74317
 C425 C 1.16185 0.13444 0.72224
 C426 C 1.14388 0.11859 0.69557
 C427 C 1.16120 0.09150 0.68105
 C428 C 1.14569 0.07676 0.65512
 C429 C 1.11243 0.08903 0.64303
 C430 C 1.09531 0.11625 0.65748
 C431 C 1.11080 0.13097 0.68329
 C432 C 1.09492 0.07521 0.61515
 C433 C 1.10713 0.04696 0.59937
 H434 H 1.19076 0.13053 0.72484
 H435 H 1.18693 0.08176 0.68975
 H436 H 1.16023 0.05618 0.64463
 H437 H 1.06991 0.12652 0.64853
 H438 H 1.09710 0.15257 0.69285
 H439 H 1.07075 0.08811 0.60652
 H440 H 1.11425 0.15798 0.74099
 H441 H 1.13056 0.03261 0.60724
 C442 C 0.87076 -0.12382 0.77030
 C443 C 0.88970 -0.13997 0.74669
 C444 C 0.89355 -0.12513 0.71567
 C445 C 0.89723 -0.14641 0.69036
 C446 C 0.90086 -0.13357 0.66066
 C447 C 0.90156 -0.09904 0.65573
 C448 C 0.89745 -0.07768 0.68097
 C449 C 0.89377 -0.09055 0.71074
 C450 C 0.90748 -0.08481 0.62476
 C451 C 0.92782 -0.10186 0.60278
 H452 H 0.89888 -0.16553 0.74936
 H453 H 0.89692 -0.17311 0.69352
 H454 H 0.90283 -0.15080 0.64165
 H455 H 0.89800 -0.05100 0.67773
 H456 H 0.89191 -0.07337 0.72978
 H457 H 0.89874 -0.05933 0.62020
 H458 H 0.85905 -0.09942 0.76525
 H459 H 0.93957 -0.12615 0.60810
 C460 C 1.14863 -0.14494 0.23493
 C461 C 1.12927 -0.15719 0.25991
 C462 C 1.12665 -0.14024 0.29004
 C463 C 1.11907 -0.15941 0.31613
 C464 C 1.11420 -0.14449 0.34476
 C465 C 1.11620 -0.10985 0.34787
 C466 C 1.12507 -0.09068 0.32208
 C467 C 1.13001 -0.10568 0.29329
 C468 C 1.10750 -0.09344 0.37744
 C469 C 1.08099 -0.10592 0.39649
 H470 H 1.11782 -0.18151 0.25877
 H471 H 1.11665 -0.18609 0.31432
 H472 H 1.10858 -0.16014 0.36441
 H473 H 1.12681 -0.06396 0.32398
 H474 H 1.13517 -0.08999 0.27359
 H475 H 1.11952 -0.06995 0.38290
 H476 H 1.16363 -0.12257 0.23853
 H477 H 1.06638 -0.12752 0.38936
 C478 C 0.87729 0.15737 0.25589
 C479 C 0.86841 0.12886 0.27199
 C480 C 0.88689 0.11827 0.30093
 C481 C 0.87786 0.08787 0.31425
 C482 C 0.89353 0.07739 0.34213
 C483 C 0.91833 0.09737 0.35768
 C484 C 0.92826 0.12735 0.34390
 C485 C 0.91261 0.13783 0.31581
 C486 C 0.93437 0.08722 0.38788
 C487 C 0.91708 0.06562 0.40777
 H488 H 0.84702 0.11360 0.26327
 H489 H 0.85851 0.07213 0.30305
 H490 H 0.88633 0.05342 0.35115
 H491 H 0.94767 0.14297 0.35515
 H492 H 0.92031 0.16135 0.30604
 H493 H 0.95995 0.09739 0.39486
 H494 H 0.86562 0.16263 0.24053
 H495 H 0.89055 0.05687 0.40194
 C496 C 0.13870 0.25508 -0.19105
 C497 C 0.14297 0.26712 -0.16114
 C498 C 0.12421 0.29714 -0.14902
 C499 C 0.12480 0.30223 -0.11706
 C500 C 0.10896 0.33082 -0.10441
 C501 C 0.09245 0.35517 -0.12358
 C502 C 0.09111 0.34984 -0.15549
 C503 C 0.10710 0.32121 -0.16821
 C504 C 0.07611 0.38601 -0.11090
 C505 C 0.08774 0.39975 -0.08326
 H506 H 0.16012 0.25307 -0.14513
 H507 H 0.13764 0.28400 -0.10176
 H508 H 0.10941 0.33351 -0.07961
 H509 H 0.07834 0.36821 -0.17068
 H510 H 0.10660 0.31857 -0.19299
 H511 H 0.05524 0.39898 -0.12434
 H512 H 0.11837 0.26609 -0.20630
 H513 H 0.11027 0.38859 -0.07052
 C514 C -0.13676 0.23975 0.16617
 C515 C -0.14974 0.25420 0.13857
 C516 C -0.13415 0.28451 0.12499
 C517 C -0.13810 0.29046 0.09319
 C518 C -0.12371 0.31870 0.07957
 C519 C -0.10534 0.34187 0.09763
 C520 C -0.10158 0.33602 0.12942
 C521 C -0.11607 0.30789 0.14304
 C522 C -0.08925 0.37199 0.08429
 C523 C -0.10005 0.38623 0.05616
 H524 H -0.17040 0.24239 0.12518
 H525 H -0.15197 0.27294 0.07875
 H526 H -0.12652 0.32185 0.05489
 H527 H -0.08772 0.35353 0.14389
 H528 H -0.11351 0.30498 0.16777
 H529 H -0.06914 0.38444 0.09798
 H530 H -0.11343 0.25079 0.17677
 H531 H -0.12152 0.37565 0.04269
 C532 C -0.11966 0.78472 -0.15463
 C533 C -0.13022 0.76591 -0.12909
 C534 C -0.11622 0.73177 -0.12185
 C535 C -0.12443 0.71806 -0.09300
 C536 C -0.11300 0.68573 -0.08520
 C537 C -0.09320 0.66619 -0.10625
 C538 C -0.08449 0.67991 -0.13491
 C539 C -0.09612 0.71222 -0.14284
 C540 C -0.08050 0.63191 -0.09870
 C541 C -0.09768 0.61189 -0.07735
 H542 H -0.14987 0.77598 -0.11322
 H543 H -0.13973 0.73248 -0.07631
 H544 H -0.11927 0.67641 -0.06249
 H545 H -0.06911 0.66536 -0.15146
 H546 H -0.08968 0.72118 -0.16557
 H547 H -0.05737 0.62176 -0.11102
 H548 H -0.09925 0.77410 -0.16959
 H549 H -0.12224 0.62055 -0.06627
 C550 C 0.11371 0.75923 0.15941
 C551 C 0.12882 0.73375 0.14193
 C552 C 0.10913 0.70364 0.13363
 C553 C 0.12884 0.67654 0.12162
 C554 C 0.11135 0.64815 0.11205
 C555 C 0.07348 0.64645 0.11360
 C556 C 0.05377 0.67299 0.12682
 C557 C 0.07142 0.70146 0.13674
 C558 C 0.05447 0.61770 0.10056
 C559 C 0.06845 0.60108 0.07502
 H560 H 0.15681 0.73535 0.13506
 H561 H 0.15794 0.67736 0.11948
 H562 H 0.12765 0.62761 0.10327
 H563 H 0.02463 0.67214 0.12857
 H564 H 0.05551 0.72196 0.14609
 H565 H 0.02858 0.61091 0.10977
 H566 H 0.12608 0.77598 0.16363
 H567 H 0.09256 0.61009 0.06424
 C568 C 0.24561 1.17831 0.81736
 C569 C 0.25176 1.14747 0.83148
 C570 C 0.28198 1.13996 0.85340
 C571 C 0.28885 1.10676 0.86202
 C572 C 0.31676 1.09830 0.88268
 C573 C 0.33872 1.12293 0.89516
 C574 C 0.33099 1.15628 0.88767
 C575 C 0.30296 1.16480 0.86696
 C576 C 0.37018 1.11409 0.91525
 C577 C 0.38991 1.08467 0.91052
 H578 H 0.23258 1.12816 0.82718
 H579 H 0.27262 1.08720 0.85261
 H580 H 0.32100 1.07241 0.88890
 H581 H 0.34714 1.17572 0.89737
 H582 H 0.29789 1.19084 0.86205
 H583 H 0.37952 1.13177 0.93207
 H584 H 0.26390 1.19829 0.82133
 H585 H 0.38233 1.06864 0.89172
 C586 C 0.21534 0.84590 1.13750
 C587 C 0.24597 0.86153 1.14881
 C588 C 0.27523 0.87484 1.12955
 C589 C 0.30146 0.89392 1.14412
 C590 C 0.32964 0.90727 1.12737
 C591 C 0.33225 0.90193 1.09545
 C592 C 0.30652 0.88231 1.08088
 C593 C 0.27816 0.86898 1.09766
 C594 C 0.36210 0.91553 1.07716
 C595 C 0.38049 0.94371 1.08607
 H596 H 0.24890 0.86434 1.17350
 H597 H 0.30021 0.89852 1.16868
 H598 H 0.34964 0.92118 1.13972
 H599 H 0.30826 0.87744 1.05639
 H600 H 0.25908 0.85399 1.08545
 H601 H 0.36929 0.90344 1.05571
 H602 H 0.21259 0.84090 1.11316
 H603 H 0.37196 0.95764 1.10612
 C604 C 0.77252 1.14986 1.17422
 C605 C 0.75882 1.15195 1.14409
 C606 C 0.72613 1.13455 1.13338
 C607 C 0.72015 1.13133 1.10155
 C608 C 0.68952 1.11571 1.09029
 C609 C 0.66384 1.10315 1.11068
 C610 C 0.66996 1.10592 1.14251
 C611 C 0.70053 1.12173 1.15381
 C612 C 0.63066 1.08710 1.09942
 C613 C 0.61448 1.09555 1.07120
 H614 H 0.77366 1.16546 1.12694
 H615 H 0.73938 1.14083 1.08526
 H616 H 0.68634 1.11319 1.06560
 H617 H 0.65061 1.09645 1.15870
 H618 H 0.70340 1.12430 1.17848
 H619 H 0.61743 1.06979 1.11449
 H620 H 0.75994 1.13345 1.19046
 H621 H 0.62578 1.11481 1.05707
 C622 C 0.79760 0.88314 0.86276
 C623 C 0.77013 0.86670 0.87787
 C624 C 0.73723 0.88366 0.88998
 C625 C 0.71524 0.86614 0.91017
 C626 C 0.68275 0.88030 0.92066
 C627 C 0.67157 0.91247 0.91111
 C628 C 0.69354 0.92995 0.89089
 C629 C 0.72595 0.91577 0.88034
 C630 C 0.63685 0.92829 0.92060
 C631 C 0.61544 0.91651 0.94430
 H632 H 0.77175 0.83987 0.87971
 H633 H 0.72301 0.84119 0.91758
 H634 H 0.66639 0.86550 0.93560
 H635 H 0.68539 0.95460 0.88287
 H636 H 0.74125 0.92983 0.86399
 H637 H 0.62802 0.95084 0.90864
 H638 H 0.79647 0.90990 0.86070
 H639 H 0.62376 0.89504 0.95791
   
