data_POSCAR
  _audit_creation_date              2014-09-24
  _audit_creation_method            'ToBaCCo'
  _symmetry_space_group_name_H-M    'P1'
  _symmetry_Int_Tables_number       1
  _symmetry_cell_setting            triclinic
  loop_
  _symmetry_equiv_pos_as_xyz
 x,y,z
_cell_length_a 42.2032
_cell_length_b 43.7771
_cell_length_c 35.2283
_cell_angle_alpha 89.785400
_cell_angle_beta 90.242200
_cell_angle_gamma 90.073000
loop_
  _atom_site_label
  _atom_site_type_symbol
  _atom_site_fract_x
  _atom_site_fract_y
  _atom_site_fract_z
C1 C 1.27635 0.21611 0.27351
 C2 C 1.25100 0.23118 0.25591
 C3 C 1.22842 0.21450 0.23552
 C4 C 1.23203 0.18297 0.23087
 C5 C 1.25814 0.16808 0.24739
 C6 C 1.28014 0.18428 0.26995
 C7 C 1.24902 0.26465 0.25731
 C8 C 1.27234 0.28243 0.23953
 C9 C 1.27048 0.31468 0.23905
 C10 C 1.24445 0.32829 0.25771
 C11 C 1.22121 0.31048 0.27560
 C12 C 1.22354 0.27869 0.27529
 H13 H 1.29368 0.22960 0.28888
 H14 H 1.20874 0.22623 0.22201
 H15 H 1.29075 0.27052 0.22433
 H16 H 1.20553 0.26488 0.28900
 H17 H 1.25991 0.14351 0.24447
 H18 H 1.24254 0.35282 0.26031
 C19 C 0.77298 -0.27950 0.26635
 C20 C 0.74945 -0.26374 0.24631
 C21 C 0.72645 -0.27979 0.22577
 C22 C 0.72717 -0.31180 0.22448
 C23 C 0.75132 -0.32743 0.24418
 C24 C 0.77437 -0.31157 0.26546
 C25 C 0.74926 -0.23027 0.24664
 C26 C 0.77380 -0.21391 0.22915
 C27 C 0.77384 -0.18193 0.22984
 C28 C 0.74999 -0.16646 0.24952
 C29 C 0.72583 -0.18280 0.26772
 C30 C 0.72509 -0.21469 0.26550
 H31 H 0.79082 -0.26646 0.28147
 H32 H 0.70859 -0.26719 0.21006
 H33 H 0.79229 -0.22602 0.21416
 H34 H 0.70656 -0.22740 0.27980
 H35 H 0.75102 -0.35216 0.24468
 H36 H 0.75031 -0.14172 0.25083
 C37 C 0.77606 0.22261 -0.22112
 C38 C 0.74938 0.23641 -0.23764
 C39 C 0.72610 0.21828 -0.25490
 C40 C 0.73006 0.18661 -0.25742
 C41 C 0.75708 0.17297 -0.24140
 C42 C 0.77987 0.19082 -0.22262
 C43 C 0.74725 0.26984 -0.24089
 C44 C 0.76994 0.28564 -0.26226
 C45 C 0.76592 0.31678 -0.27100
 C46 C 0.73921 0.33193 -0.25629
 C47 C 0.71762 0.31690 -0.23223
 C48 C 0.72139 0.28548 -0.22559
 H49 H 0.79409 0.23664 -0.20775
 H50 H 0.70584 0.22904 -0.26845
 H51 H 0.78934 0.27289 -0.27449
 H52 H 0.70477 0.27317 -0.20785
 H53 H 0.76010 0.14843 -0.24306
 H54 H 0.73593 0.35602 -0.26198
 C55 C 1.27321 -0.28630 -0.24180
 C56 C 1.24975 -0.26893 -0.26003
 C57 C 1.22443 -0.28340 -0.27816
 C58 C 1.22243 -0.31522 -0.27815
 C59 C 1.24580 -0.33262 -0.25976
 C60 C 1.27165 -0.31855 -0.24093
 C61 C 1.25135 -0.23543 -0.25887
 C62 C 1.27709 -0.22016 -0.27522
 C63 C 1.27983 -0.18838 -0.27215
 C64 C 1.25704 -0.17200 -0.25176
 C65 C 1.23087 -0.18712 -0.23592
 C66 C 1.22790 -0.21881 -0.23999
 H67 H 1.29146 -0.27406 -0.22646
 H68 H 1.20631 -0.26991 -0.29224
 H69 H 1.29497 -0.23302 -0.29030
 H70 H 1.20810 -0.23069 -0.22709
 H71 H 1.24413 -0.35719 -0.26205
 H72 H 1.25918 -0.14742 -0.24910
 C73 C 0.21346 0.27217 0.72430
 C74 C 0.23168 0.25091 0.74438
 C75 C 0.21680 0.22738 0.76473
 C76 C 0.18338 0.22478 0.76539
 C77 C 0.16555 0.24642 0.74430
 C78 C 0.18036 0.26994 0.72366
 C79 C 0.26651 0.25309 0.74306
 C80 C 0.28207 0.27757 0.76067
 C81 C 0.31540 0.28072 0.75890
 C82 C 0.33227 0.25877 0.73746
 C83 C 0.31688 0.23393 0.72005
 C84 C 0.28391 0.23120 0.72330
 H85 H 0.22524 0.29041 0.70895
 H86 H 0.23167 0.21070 0.77887
 H87 H 0.26776 0.29303 0.77718
 H88 H 0.27163 0.21215 0.71028
 H89 H 0.13995 0.24577 0.74447
 H90 H 0.35739 0.26133 0.73258
 C91 C 0.71564 0.76979 0.73293
 C92 C 0.73172 0.74658 0.75233
 C93 C 0.71472 0.72319 0.77024
 C94 C 0.68125 0.72257 0.76938
 C95 C 0.66557 0.74609 0.74881
 C96 C 0.68229 0.76994 0.73047
 C97 C 0.76669 0.74656 0.75337
 C98 C 0.78333 0.76927 0.77314
 C99 C 0.81669 0.76950 0.77368
 C100 C 0.83309 0.74693 0.75320
 C101 C 0.81662 0.72440 0.73260
 C102 C 0.78335 0.72416 0.73346
 H103 H 0.72956 0.78806 0.72061
 H104 H 0.72812 0.70651 0.78632
 H105 H 0.77019 0.78683 0.78786
 H106 H 0.77026 0.70669 0.71831
 H107 H 0.64031 0.74454 0.74433
 H108 H 0.85874 0.74699 0.75304
 C109 C 0.71723 0.27187 0.22680
 C110 C 0.73415 0.24826 0.24462
 C111 C 0.71796 0.22591 0.26548
 C112 C 0.68489 0.22730 0.26947
 C113 C 0.66821 0.25127 0.25172
 C114 C 0.68405 0.27352 0.22980
 C115 C 0.76905 0.24813 0.24362
 C116 C 0.78575 0.27048 0.26371
 C117 C 0.81899 0.27037 0.26481
 C118 C 0.83543 0.24797 0.24421
 C119 C 0.81899 0.22551 0.22335
 C120 C 0.78561 0.22558 0.22371
 H121 H 0.73007 0.28859 0.21013
 H122 H 0.73127 0.20767 0.27895
 H123 H 0.77265 0.28792 0.27873
 H124 H 0.77245 0.20811 0.20866
 H125 H 0.64286 0.25291 0.25574
 H126 H 0.86109 0.24800 0.24448
 C127 C 0.21670 0.77393 0.24045
 C128 C 0.23230 0.75146 0.26179
 C129 C 0.21485 0.72999 0.28237
 C130 C 0.18148 0.73047 0.28234
 C131 C 0.16610 0.75328 0.26044
 C132 C 0.18326 0.77524 0.23914
 C133 C 0.26720 0.75007 0.26279
 C134 C 0.28449 0.77172 0.28348
 C135 C 0.31764 0.76958 0.28641
 C136 C 0.33321 0.74547 0.26786
 C137 C 0.31623 0.72397 0.24603
 C138 C 0.28304 0.72640 0.24410
 H139 H 0.23102 0.79079 0.22591
 H140 H 0.22779 0.71226 0.29727
 H141 H 0.27200 0.79018 0.29730
 H142 H 0.26935 0.71037 0.22735
 H143 H 0.14057 0.75385 0.25988
 H144 H 0.35864 0.74324 0.27092
 N145 N 1.06158 0.02921 0.03696
 N146 N 1.08544 0.04749 0.04488
 N147 N 1.03733 -0.03381 0.06576
 N148 N 1.04260 -0.05431 0.09262
 N149 N 1.05966 -0.03480 0.03995
 N150 N 1.08074 -0.05603 0.04865
 N151 N 1.04001 0.03039 0.06368
 N152 N 1.04881 0.04975 0.09052
 C153 C 1.07707 0.06055 0.07800
 C154 C 1.06963 -0.06823 0.08144
 N155 N 0.94735 -0.03110 0.03743
 N156 N 0.92332 -0.04898 0.04583
 N157 N 0.97150 0.03258 0.06253
 N158 N 0.96563 0.05371 0.08817
 N159 N 0.94976 0.03292 0.03574
 N160 N 0.92853 0.05437 0.04254
 N161 N 0.96871 -0.03159 0.06467
 N162 N 0.95956 -0.05005 0.09241
 Mn163 Mn 1.00439 -0.00063 0.06455
 C164 C 0.93133 -0.06103 0.07984
 C165 C 0.93892 0.06739 0.07519
 N166 N 1.06019 -0.03642 -0.04168
 N167 N 1.08347 -0.05535 -0.04925
 N168 N 1.04018 0.02743 -0.07146
 N169 N 1.04601 0.04843 -0.09741
 N170 N 1.06207 0.02768 -0.04489
 N171 N 1.08355 0.04890 -0.05224
 N172 N 1.03890 -0.03669 -0.06899
 N173 N 1.04743 -0.05595 -0.09597
 Mn174 Mn 1.06108 -0.00356 -0.00242
 C175 C 1.07510 -0.06778 -0.08282
 C176 C 1.07306 0.06179 -0.08505
 N177 N 0.95067 0.03108 -0.04593
 N178 N 0.93016 0.05297 -0.05334
 N179 N 0.97030 -0.03477 -0.06996
 N180 N 0.96400 -0.05636 -0.09489
 N181 N 0.94795 -0.03329 -0.04422
 N182 N 0.92587 -0.05407 -0.05094
 N183 N 0.97198 0.02927 -0.07285
 N184 N 0.96617 0.04969 -0.09974
 Mn185 Mn 0.94868 -0.00006 -0.00429
 Mn186 Mn 1.00533 -0.00376 -0.07118
 Cl187 Cl 1.00487 -0.00204 -0.00329
 C188 C 0.94025 0.06458 -0.08676
 C189 C 0.93633 -0.06845 -0.08257
 N190 N 1.05116 0.52803 0.54012
 N191 N 1.07294 0.54873 0.54764
 N192 N 1.02674 0.46350 0.56378
 N193 N 1.03167 0.44150 0.58881
 N194 N 1.04922 0.46383 0.53814
 N195 N 1.06994 0.44190 0.54493
 N196 N 1.02948 0.52746 0.56672
 N197 N 1.03621 0.54757 0.59345
 C198 C 1.06319 0.56091 0.58078
 C199 C 1.05856 0.42798 0.57647
 N200 N 0.93676 0.46812 0.53496
 N201 N 0.91242 0.45022 0.54220
 N202 N 0.96123 0.53007 0.56493
 N203 N 0.95610 0.55064 0.59144
 N204 N 0.93976 0.53207 0.53795
 N205 N 0.91937 0.55409 0.54552
 N206 N 0.95821 0.46594 0.56198
 N207 N 0.94894 0.44621 0.58823
 Mn208 Mn 0.99391 0.49666 0.56475
 C209 C 0.92051 0.43628 0.57510
 C210 C 0.93004 0.56566 0.57889
 N211 N 1.05039 0.46600 0.45684
 N212 N 1.07150 0.44462 0.44988
 N213 N 1.03102 0.53152 0.43171
 N214 N 1.03694 0.55399 0.40777
 N215 N 1.05270 0.53030 0.45847
 N216 N 1.07412 0.55198 0.45332
 N217 N 1.02932 0.46751 0.42940
 N218 N 1.03588 0.44747 0.40263
 Mn219 Mn 1.05120 0.49707 0.49842
 C220 C 1.06198 0.43304 0.41619
 C221 C 1.06383 0.56669 0.42162
 N222 N 0.94126 0.53432 0.45605
 N223 N 0.91965 0.55508 0.44784
 N224 N 0.96108 0.46969 0.42780
 N225 N 0.95604 0.44827 0.40232
 N226 N 0.93841 0.46992 0.45320
 N227 N 0.91733 0.44837 0.44568
 N228 N 0.96304 0.53348 0.42956
 N229 N 0.95651 0.55328 0.40233
 Mn230 Mn 0.93873 0.50117 0.49550
 Mn231 Mn 0.99612 0.50052 0.42929
 Cl232 Cl 0.99496 0.49884 0.49703
 C233 C 0.92982 0.56705 0.41463
 C234 C 0.92875 0.43501 0.41383
 N235 N 0.56104 0.03530 0.54394
 N236 N 0.58489 0.05358 0.55206
 N237 N 0.53862 -0.02787 0.57433
 N238 N 0.54365 -0.04920 0.60030
 N239 N 0.56068 -0.02869 0.54820
 N240 N 0.58136 -0.05051 0.55574
 N241 N 0.53944 0.03639 0.57065
 N242 N 0.54818 0.05565 0.59759
 C243 C 0.57640 0.06655 0.58521
 C244 C 0.57038 -0.06325 0.58825
 N245 N 0.44872 -0.02827 0.54682
 N246 N 0.42723 -0.04926 0.55429
 N247 N 0.47093 0.03688 0.56987
 N248 N 0.46515 0.05904 0.59417
 N249 N 0.44897 0.03598 0.54337
 N250 N 0.42766 0.05756 0.54900
 N251 N 0.47011 -0.02713 0.57395
 N252 N 0.46341 -0.04706 0.60101
 Mn253 Mn 0.50476 0.00458 0.57261
 C254 C 0.43682 -0.06096 0.58799
 C255 C 0.43819 0.07195 0.58066
 N256 N 0.56079 -0.03158 0.46673
 N257 N 0.58383 -0.05098 0.45987
 N258 N 0.53902 0.03128 0.43562
 N259 N 0.54442 0.05198 0.40910
 N260 N 0.56093 0.03247 0.46216
 N261 N 0.58187 0.05403 0.45430
 N262 N 0.53911 -0.03286 0.43995
 N263 N 0.54695 -0.05328 0.41412
 Mn264 Mn 0.56108 0.00191 0.50524
 C265 C 0.57473 -0.06471 0.42732
 C266 C 0.57115 0.06616 0.42118
 N267 N 0.44927 0.03283 0.46161
 N268 N 0.42738 0.05309 0.45258
 N269 N 0.47078 -0.03285 0.43938
 N270 N 0.46498 -0.05510 0.41514
 N271 N 0.44856 -0.03155 0.46528
 N272 N 0.42705 -0.05302 0.45935
 N273 N 0.47069 0.03104 0.43478
 N274 N 0.46361 0.04964 0.40643
 Mn275 Mn 0.44855 0.00228 0.50429
 Mn276 Mn 0.50491 -0.00089 0.43709
 Cl277 Cl 0.50481 0.00201 0.50483
 C278 C 0.43689 0.06363 0.41834
 C279 C 0.43775 -0.06771 0.42808
 N280 N 0.45845 0.55455 -0.03746
 N281 N 0.45116 0.57532 -0.06348
 N282 N 0.43766 0.53501 0.04310
 N283 N 0.41586 0.54342 0.06803
 N284 N 0.46072 0.55517 0.04226
 N285 N 0.45545 0.57744 0.06631
 N286 N 0.43675 0.53304 -0.03664
 N287 N 0.41439 0.53841 -0.06185
 C288 C 0.42370 0.56463 -0.07874
 C289 C 0.42766 0.56986 0.08264
 N290 N 0.45844 0.44697 0.04395
 N291 N 0.45080 0.42559 0.06899
 N292 N 0.43591 0.46712 -0.03577
 N293 N 0.41415 0.46001 -0.06160
 N294 N 0.45863 0.44667 -0.03575
 N295 N 0.45326 0.42550 -0.06128
 N296 N 0.43721 0.46887 0.04404
 N297 N 0.41482 0.46312 0.06892
 Mn298 Mn 0.43655 0.50101 0.00372
 C299 C 0.42369 0.43629 0.08471
 C300 C 0.42567 0.43403 -0.07756
 N301 N 0.52905 0.55473 0.04114
 N302 N 0.53836 0.57713 0.06380
 N303 N 0.54940 0.53353 -0.03833
 N304 N 0.57189 0.54153 -0.06266
 N305 N 0.52669 0.55401 -0.03852
 N306 N 0.53289 0.57609 -0.06278
 N307 N 0.55012 0.53266 0.04134
 N308 N 0.57401 0.53934 0.06385
 Mn309 Mn 0.49371 0.55483 0.00185
 C310 C 0.56630 0.56686 0.07819
 C311 C 0.56088 0.56800 -0.07815
 N312 N 0.52681 0.44588 -0.03675
 N313 N 0.53399 0.42435 -0.06163
 N314 N 0.54978 0.46652 0.04233
 N315 N 0.57296 0.45773 0.06549
 N316 N 0.52667 0.44641 0.04298
 N317 N 0.53329 0.42384 0.06637
 N318 N 0.54828 0.46758 -0.03739
 N319 N 0.57031 0.46166 -0.06251
 Mn320 Mn 0.49261 0.44626 0.00362
 Mn321 Mn 0.54964 0.50006 0.00201
 Cl322 Cl 0.49314 0.50055 0.00286
 C323 C 0.56108 0.43487 -0.07784
 C324 C 0.56196 0.43118 0.08075
 C325 C 1.16504 0.13243 0.16502
 C326 C 1.15429 0.14980 0.19581
 C327 C 1.17630 0.16669 0.21713
 C328 C 1.20877 0.16559 0.20822
 C329 C 1.21915 0.14791 0.17751
 C330 C 1.19734 0.13150 0.15554
 C331 C 1.14208 0.11471 0.14240
 C332 C 1.15288 0.09777 0.11132
 C333 C 1.13113 0.08085 0.09000
 C334 C 1.09886 0.08013 0.09998
 C335 C 1.08829 0.09717 0.13127
 C336 C 1.10987 0.11480 0.15244
 C337 C 1.20719 0.11421 0.12428
 C338 C 1.18529 0.09773 0.10240
 C339 C 1.12185 0.14972 0.20473
 C340 C 1.10004 0.13238 0.18354
 H341 H 1.23202 0.11341 0.11664
 H342 H 1.19384 0.08466 0.07849
 H343 H 1.11327 0.16298 0.22845
 H344 H 1.07529 0.13276 0.19157
 H345 H 1.16838 0.18025 0.24097
 H346 H 1.24415 0.14731 0.17052
 H347 H 1.13954 0.06762 0.06613
 H348 H 1.06346 0.09674 0.13899
 C349 C 1.14873 0.63796 0.66281
 C350 C 1.16941 0.65716 0.64257
 C351 C 1.19289 0.67327 0.66234
 C352 C 1.19626 0.66949 0.70177
 C353 C 1.17536 0.65033 0.72175
 C354 C 1.15128 0.63467 0.70239
 C355 C 1.12470 0.62015 0.64202
 C356 C 1.10421 0.60070 0.66217
 C357 C 1.08244 0.58267 0.64204
 C358 C 1.08207 0.58329 0.60213
 C359 C 1.10226 0.60332 0.58241
 C360 C 1.12351 0.62201 0.60223
 C361 C 1.13007 0.61536 0.72165
 C362 C 1.10680 0.59880 0.70189
 C363 C 1.16672 0.65922 0.60289
 C364 C 1.14428 0.64177 0.58302
 H365 H 1.13169 0.61279 0.75219
 H366 H 1.09116 0.58387 0.71775
 H367 H 1.18253 0.67396 0.58701
 H368 H 1.14343 0.64347 0.55234
 H369 H 1.20923 0.68792 0.64707
 H370 H 1.17803 0.64761 0.75220
 H371 H 1.06711 0.56697 0.65721
 H372 H 1.10189 0.60382 0.55163
 C373 C 0.66388 0.13560 0.67622
 C374 C 0.65276 0.15304 0.70676
 C375 C 0.67455 0.16963 0.72876
 C376 C 0.70716 0.16820 0.72071
 C377 C 0.71793 0.15024 0.69043
 C378 C 0.69636 0.13415 0.66779
 C379 C 0.64111 0.11862 0.65249
 C380 C 0.65228 0.10181 0.62148
 C381 C 0.63065 0.08568 0.59903
 C382 C 0.59815 0.08562 0.60787
 C383 C 0.58723 0.10254 0.63908
 C384 C 0.60868 0.11940 0.66134
 C385 C 0.70660 0.11691 0.63665
 C386 C 0.68489 0.10112 0.61375
 C387 C 0.62012 0.15357 0.71453
 C388 C 0.59847 0.13688 0.69235
 H389 H 0.73157 0.11572 0.62983
 H390 H 0.69373 0.08812 0.58993
 H391 H 0.61124 0.16689 0.73805
 H392 H 0.57354 0.13775 0.69946
 H393 H 0.66630 0.18351 0.75214
 H394 H 0.74302 0.14951 0.68396
 H395 H 0.63929 0.07250 0.57524
 H396 H 0.56222 0.10258 0.64594
 C397 C 0.65746 0.63705 0.16252
 C398 C 0.64824 0.66386 0.18113
 C399 C 0.67104 0.68064 0.20138
 C400 C 0.70293 0.67093 0.20257
 C401 C 0.71170 0.64426 0.18303
 C402 C 0.68906 0.62707 0.16340
 C403 C 0.63362 0.61904 0.14165
 C404 C 0.64294 0.59202 0.12363
 C405 C 0.62038 0.57496 0.10387
 C406 C 0.58873 0.58491 0.10123
 C407 C 0.57960 0.61212 0.11933
 C408 C 0.60205 0.62921 0.13995
 C409 C 0.69746 0.60002 0.14474
 C410 C 0.67473 0.58268 0.12533
 C411 C 0.61640 0.67322 0.17917
 C412 C 0.59373 0.65627 0.15877
 H413 H 0.72178 0.59210 0.14530
 H414 H 0.68214 0.56188 0.11137
 H415 H 0.60896 0.69389 0.19340
 H416 H 0.56950 0.66439 0.15781
 H417 H 0.66388 0.70092 0.21664
 H418 H 0.73620 0.63688 0.18291
 H419 H 0.62774 0.55416 0.08982
 H420 H 0.55527 0.61986 0.11740
 C421 C 0.84198 -0.13125 0.16647
 C422 C 0.80958 -0.12848 0.15778
 C423 C 0.78751 -0.14495 0.17911
 C424 C 0.79765 -0.16455 0.20833
 C425 C 0.83017 -0.16754 0.21651
 C426 C 0.85253 -0.15054 0.19586
 C427 C 0.86525 -0.11358 0.14437
 C428 C 0.89765 -0.11558 0.15354
 C429 C 0.91960 -0.09820 0.13263
 C430 C 0.90915 -0.07967 0.10235
 C431 C 0.87665 -0.07834 0.09338
 C432 C 0.85459 -0.09492 0.11450
 C433 C 0.88513 -0.15226 0.20399
 C434 C 0.90729 -0.13494 0.18334
 C435 C 0.79988 -0.10937 0.12786
 C436 C 0.82205 -0.09299 0.10642
 H437 H 0.89358 -0.16699 0.22664
 H438 H 0.93217 -0.13680 0.19068
 H439 H 0.77495 -0.10716 0.12088
 H440 H 0.81363 -0.07856 0.08345
 H441 H 0.76243 -0.14294 0.17273
 H442 H 0.83786 -0.18266 0.23917
 H443 H 0.94463 -0.09932 0.13952
 H444 H 0.86839 -0.06389 0.07033
 C445 C 0.83188 0.36526 0.66169
 C446 C 0.79950 0.37212 0.65875
 C447 C 0.77782 0.35607 0.68121
 C448 C 0.78802 0.33253 0.70597
 C449 C 0.82072 0.32539 0.70752
 C450 C 0.84275 0.34211 0.68606
 C451 C 0.85485 0.38289 0.63903
 C452 C 0.88743 0.37709 0.64319
 C453 C 0.90921 0.39470 0.62237
 C454 C 0.89829 0.41716 0.59683
 C455 C 0.86556 0.42215 0.59245
 C456 C 0.84375 0.40545 0.61391
 C457 C 0.87548 0.33652 0.68896
 C458 C 0.89746 0.35389 0.66814
 C459 C 0.78935 0.39494 0.63336
 C460 C 0.81110 0.41118 0.61110
 H461 H 0.88422 0.31880 0.70781
 H462 H 0.92249 0.34905 0.67153
 H463 H 0.76438 0.40030 0.63069
 H464 H 0.80232 0.42861 0.59184
 H465 H 0.75284 0.36124 0.67814
 H466 H 0.82938 0.30802 0.72692
 H467 H 0.93443 0.39078 0.62563
 H468 H 0.85708 0.43967 0.57309
 C469 C 0.35249 -0.13943 0.66971
 C470 C 0.34965 -0.13613 0.70921
 C471 C 0.32593 -0.15243 0.72839
 C472 C 0.30570 -0.17221 0.70828
 C473 C 0.30938 -0.17587 0.66893
 C474 C 0.33248 -0.15920 0.64937
 C475 C 0.37615 -0.12110 0.64908
 C476 C 0.37763 -0.12307 0.60934
 C477 C 0.39855 -0.10402 0.58962
 C478 C 0.41816 -0.08348 0.60939
 C479 C 0.41749 -0.08268 0.64928
 C480 C 0.39602 -0.10111 0.66931
 C481 C 0.33541 -0.16131 0.60977
 C482 C 0.35750 -0.14338 0.59005
 C483 C 0.37023 -0.11624 0.72855
 C484 C 0.39315 -0.09914 0.70895
 H485 H 0.32010 -0.17649 0.59382
 H486 H 0.35856 -0.14518 0.55941
 H487 H 0.36840 -0.11363 0.75903
 H488 H 0.40832 -0.08380 0.72487
 H489 H 0.32309 -0.14977 0.75877
 H490 H 0.29355 -0.19093 0.65347
 H491 H 0.39915 -0.10468 0.55886
 H492 H 0.43236 -0.06660 0.66449
 C493 C 0.33826 0.36796 0.17921
 C494 C 0.30818 0.38007 0.18654
 C495 C 0.28604 0.36249 0.20650
 C496 C 0.29357 0.33276 0.21981
 C497 C 0.32450 0.32144 0.21262
 C498 C 0.34665 0.33876 0.19210
 C499 C 0.36116 0.38599 0.15688
 C500 C 0.39098 0.37355 0.14840
 C501 C 0.41209 0.39034 0.12560
 C502 C 0.40336 0.41931 0.11156
 C503 C 0.37373 0.43169 0.12139
 C504 C 0.35245 0.41506 0.14365
 C505 C 0.37700 0.32732 0.18389
 C506 C 0.39873 0.34436 0.16228
 C507 C 0.30050 0.40940 0.17310
 C508 C 0.32231 0.42666 0.15214
 H509 H 0.38386 0.30481 0.19379
 H510 H 0.42166 0.33448 0.15613
 H511 H 0.27734 0.41904 0.17863
 H512 H 0.31536 0.44909 0.14204
 H513 H 0.26248 0.37178 0.20965
 H514 H 0.33201 0.29951 0.22360
 H515 H 0.43486 0.38068 0.11819
 H516 H 0.36675 0.45398 0.11078
 C517 C 0.85585 0.14424 -0.16698
 C518 C 0.83679 0.16447 -0.14628
 C519 C 0.81282 0.18071 -0.16513
 C520 C 0.80728 0.17607 -0.20406
 C521 C 0.82679 0.15604 -0.22457
 C522 C 0.85133 0.14018 -0.20617
 C523 C 0.88005 0.12597 -0.14695
 C524 C 0.89872 0.10528 -0.16748
 C525 C 0.92036 0.08660 -0.14788
 C526 C 0.92232 0.08784 -0.10805
 C527 C 0.90406 0.10921 -0.08804
 C528 C 0.88299 0.12850 -0.10737
 C529 C 0.87090 0.11976 -0.22589
 C530 C 0.89432 0.10273 -0.20690
 C531 C 0.84136 0.16725 -0.10693
 C532 C 0.86395 0.14941 -0.08775
 H533 H 0.86777 0.11658 -0.25616
 H534 H 0.90855 0.08687 -0.22306
 H535 H 0.82682 0.18280 -0.09068
 H536 H 0.86616 0.15165 -0.05723
 H537 H 0.79757 0.19594 -0.14932
 H538 H 0.82255 0.15260 -0.25463
 H539 H 0.93415 0.06987 -0.16325
 H540 H 0.90562 0.11018 -0.05733
 C541 C 0.84450 0.63999 0.32647
 C542 C 0.83161 0.66662 0.34208
 C543 C 0.80910 0.68319 0.32119
 C544 C 0.79819 0.67250 0.28562
 C545 C 0.81132 0.64541 0.27074
 C546 C 0.83485 0.62946 0.29067
 C547 C 0.86805 0.62240 0.34839
 C548 C 0.88146 0.59611 0.33236
 C549 C 0.90330 0.57908 0.35363
 C550 C 0.91048 0.58746 0.39114
 C551 C 0.89691 0.61374 0.40696
 C552 C 0.87603 0.63170 0.38535
 C553 C 0.84885 0.60310 0.27554
 C554 C 0.87201 0.58686 0.29590
 C555 C 0.84095 0.67579 0.37866
 C556 C 0.86252 0.65842 0.40012
 H557 H 0.84178 0.59489 0.24779
 H558 H 0.88213 0.56656 0.28332
 H559 H 0.83105 0.69625 0.39109
 H560 H 0.86862 0.66592 0.42850
 H561 H 0.79878 0.70340 0.33379
 H562 H 0.80417 0.63727 0.24297
 H563 H 0.91345 0.55847 0.34183
 H564 H 0.90250 0.62000 0.43598
 C565 C 0.35176 0.13684 0.32992
 C566 C 0.33759 0.16252 0.34635
 C567 C 0.31480 0.17887 0.32566
 C568 C 0.30487 0.16893 0.28933
 C569 C 0.31946 0.14288 0.27348
 C570 C 0.34324 0.12713 0.29336
 C571 C 0.37536 0.11926 0.35184
 C572 C 0.38992 0.09381 0.33518
 C573 C 0.41168 0.07668 0.35655
 C574 C 0.41763 0.08411 0.39470
 C575 C 0.40297 0.10964 0.41103
 C576 C 0.38216 0.12767 0.38947
 C577 C 0.35846 0.10167 0.27755
 C578 C 0.38163 0.08545 0.29799
 C579 C 0.34581 0.17085 0.38361
 C580 C 0.36748 0.15353 0.40496
 H581 H 0.35228 0.09409 0.24922
 H582 H 0.39264 0.06582 0.28486
 H583 H 0.33493 0.19059 0.39665
 H584 H 0.37267 0.16034 0.43386
 H585 H 0.30338 0.19815 0.33909
 H586 H 0.31311 0.13534 0.24519
 H587 H 0.42268 0.05667 0.34425
 H588 H 0.40764 0.11525 0.44049
 C589 C 0.33931 0.62989 -0.17831
 C590 C 0.30943 0.61731 -0.18611
 C591 C 0.28738 0.63426 -0.20714
 C592 C 0.29478 0.66385 -0.22099
 C593 C 0.32556 0.67559 -0.21344
 C594 C 0.34762 0.65891 -0.19187
 C595 C 0.36203 0.61260 -0.15471
 C596 C 0.39162 0.62554 -0.14574
 C597 C 0.41251 0.60951 -0.12168
 C598 C 0.40375 0.58081 -0.10685
 C599 C 0.37439 0.56789 -0.11720
 C600 C 0.35335 0.58376 -0.14075
 C601 C 0.37776 0.67084 -0.18318
 C602 C 0.39933 0.65450 -0.16038
 C603 C 0.30181 0.58818 -0.17196
 C604 C 0.32346 0.57163 -0.14977
 H605 H 0.38456 0.69321 -0.19359
 H606 H 0.42208 0.66475 -0.15387
 H607 H 0.27882 0.57818 -0.17785
 H608 H 0.31655 0.54935 -0.13912
 H609 H 0.26393 0.62467 -0.21062
 H610 H 0.33299 0.69741 -0.22486
 H611 H 0.43508 0.61956 -0.11387
 H612 H 0.36741 0.54578 -0.10604
 C613 C 1.16339 -0.13788 -0.17032
 C614 C 1.15290 -0.15439 -0.20209
 C615 C 1.17507 -0.17081 -0.22350
 C616 C 1.20742 -0.16999 -0.21367
 C617 C 1.21755 -0.15312 -0.18204
 C618 C 1.19559 -0.13727 -0.15998
 C619 C 1.14028 -0.12075 -0.14753
 C620 C 1.15083 -0.10474 -0.11546
 C621 C 1.12897 -0.08835 -0.09401
 C622 C 1.09683 -0.08716 -0.10484
 C623 C 1.08648 -0.10331 -0.13708
 C624 C 1.10819 -0.12046 -0.15841
 C625 C 1.20518 -0.12090 -0.12774
 C626 C 1.18314 -0.10503 -0.10571
 C627 C 1.12056 -0.15398 -0.21183
 C628 C 1.09861 -0.13715 -0.19049
 H629 H 1.22993 -0.12038 -0.11944
 H630 H 1.19148 -0.09266 -0.08103
 H631 H 1.11218 -0.16658 -0.23631
 H632 H 1.07396 -0.13722 -0.19917
 H633 H 1.16737 -0.18381 -0.24800
 H634 H 1.24246 -0.15281 -0.17435
 H635 H 1.13722 -0.07581 -0.06940
 H636 H 1.06176 -0.10249 -0.14547
 C637 C 1.14724 0.35640 0.33429
 C638 C 1.14992 0.36011 0.29480
 C639 C 1.17405 0.34468 0.27556
 C640 C 1.19487 0.32535 0.29554
 C641 C 1.19134 0.32113 0.33484
 C642 C 1.16780 0.33700 0.35453
 C643 C 1.12322 0.37403 0.35502
 C644 C 1.12190 0.37180 0.39476
 C645 C 1.10071 0.39036 0.41458
 C646 C 1.08071 0.41068 0.39486
 C647 C 1.08120 0.41165 0.35497
 C648 C 1.10290 0.39373 0.33487
 C649 C 1.16498 0.33453 0.39413
 C650 C 1.14253 0.35181 0.41396
 C651 C 1.12885 0.37962 0.27554
 C652 C 1.10559 0.39602 0.29523
 H653 H 1.18069 0.31963 0.41002
 H654 H 1.14160 0.34980 0.44460
 H655 H 1.13058 0.38251 0.24506
 H656 H 1.09008 0.41114 0.27938
 H657 H 1.17685 0.34776 0.24520
 H658 H 1.20763 0.30636 0.35013
 H659 H 1.10026 0.38958 0.44534
 H660 H 1.06603 0.42755 0.33979
 C661 C 0.66000 -0.13601 0.33774
 C662 C 0.64877 -0.15140 0.30542
 C663 C 0.67038 -0.16714 0.28254
 C664 C 0.70287 -0.16669 0.29150
 C665 C 0.71374 -0.15111 0.32377
 C666 C 0.69236 -0.13595 0.34726
 C667 C 0.63755 -0.11924 0.36176
 C668 C 0.64887 -0.10406 0.39412
 C669 C 0.62769 -0.08746 0.41631
 C670 C 0.59557 -0.08523 0.40581
 C671 C 0.58439 -0.10088 0.37360
 C672 C 0.60535 -0.11816 0.35152
 C673 C 0.70273 -0.12064 0.37997
 C674 C 0.68129 -0.10507 0.40315
 C675 C 0.61629 -0.15041 0.29652
 C676 C 0.59497 -0.13391 0.31906
 H677 H 0.72762 -0.12060 0.38764
 H678 H 0.69023 -0.09338 0.42806
 H679 H 0.60735 -0.16217 0.27167
 H680 H 0.57019 -0.13336 0.31092
 H681 H 0.66219 -0.17925 0.25756
 H682 H 0.73882 -0.15114 0.33068
 H683 H 0.63652 -0.07534 0.44097
 H684 H 0.55964 -0.09926 0.36550
 C685 C 0.64724 0.36824 -0.17222
 C686 C 0.63979 0.33858 -0.18435
 C687 C 0.66246 0.32192 -0.20483
 C688 C 0.69259 0.33462 -0.21240
 C689 C 0.69947 0.36437 -0.19961
 C690 C 0.67688 0.38135 -0.18001
 C691 C 0.62393 0.38568 -0.15007
 C692 C 0.63174 0.41520 -0.13785
 C693 C 0.61018 0.43134 -0.11577
 C694 C 0.58120 0.41806 -0.10487
 C695 C 0.57327 0.38861 -0.11789
 C696 C 0.59469 0.37228 -0.14070
 C697 C 0.68365 0.41106 -0.16754
 C698 C 0.66136 0.42779 -0.14697
 C699 C 0.61000 0.32614 -0.17527
 C700 C 0.58790 0.34263 -0.15368
 H701 H 0.70643 0.42141 -0.17355
 H702 H 0.66757 0.45059 -0.13760
 H703 H 0.60388 0.30328 -0.18448
 H704 H 0.56544 0.33200 -0.14684
 H705 H 0.65668 0.29917 -0.21470
 H706 H 0.72275 0.37419 -0.20401
 H707 H 0.61656 0.45401 -0.10605
 H708 H 0.55099 0.37825 -0.10964
 C709 C 1.13697 0.15560 -0.17067
 C710 C 1.16697 0.16580 -0.15913
 C711 C 1.18246 0.18842 -0.18056
 C712 C 1.16810 0.20124 -0.21344
 C713 C 1.13785 0.19018 -0.22441
 C714 C 1.12231 0.16756 -0.20325
 C715 C 1.12055 0.13187 -0.14823
 C716 C 1.09065 0.12151 -0.16011
 C717 C 1.07524 0.09881 -0.13899
 C718 C 1.08946 0.08643 -0.10612
 C719 C 1.11938 0.09723 -0.09435
 C720 C 1.13510 0.11994 -0.11545
 C721 C 1.09234 0.15658 -0.21421
 C722 C 1.07678 0.13395 -0.19302
 C723 C 1.18079 0.15337 -0.12611
 C724 C 1.16513 0.13086 -0.10465
 H725 H 1.08079 0.16558 -0.23939
 H726 H 1.05371 0.12612 -0.20248
 H727 H 1.20393 0.16110 -0.11676
 H728 H 1.17666 0.12189 -0.07944
 H729 H 1.20505 0.19682 -0.17033
 H730 H 1.12658 0.19813 -0.25027
 H731 H 1.05221 0.09071 -0.14827
 H732 H 1.13051 0.08778 -0.06914
 C733 C 1.13019 0.66325 0.34401
 C734 C 1.16013 0.67244 0.35698
 C735 C 1.17685 0.69486 0.33671
 C736 C 1.16399 0.70832 0.30334
 C737 C 1.13348 0.69877 0.29129
 C738 C 1.11667 0.67630 0.31134
 C739 C 1.11282 0.63919 0.36476
 C740 C 1.08312 0.62958 0.35128
 C741 C 1.06705 0.60620 0.37049
 C742 C 1.08048 0.59237 0.40295
 C743 C 1.11008 0.60259 0.41649
 C744 C 1.12643 0.62596 0.39736
 C745 C 1.08673 0.66625 0.29895
 C746 C 1.07025 0.64328 0.31857
 C747 C 1.17285 0.65895 0.38997
 C748 C 1.15629 0.63612 0.40982
 H749 H 1.07601 0.67610 0.27373
 H750 H 1.04732 0.63608 0.30790
 H751 H 1.19592 0.66594 0.40041
 H752 H 1.16706 0.62618 0.43495
 H753 H 1.19946 0.70237 0.34793
 H754 H 1.12319 0.70743 0.26521
 H755 H 1.04424 0.59855 0.35990
 H756 H 1.12057 0.59207 0.44144
 C757 C 0.63566 0.15954 0.33529
 C758 C 0.66448 0.17139 0.34880
 C759 C 0.68045 0.19358 0.32724
 C760 C 0.66780 0.20392 0.29237
 C761 C 0.63876 0.19178 0.27938
 C762 C 0.62262 0.16958 0.30070
 C763 C 0.61888 0.13602 0.35769
 C764 C 0.59018 0.12401 0.34401
 C765 C 0.57452 0.10140 0.36517
 C766 C 0.58739 0.09074 0.39973
 C767 C 0.61608 0.10323 0.41319
 C768 C 0.63197 0.12586 0.39222
 C769 C 0.59378 0.15710 0.28804
 C770 C 0.57784 0.13471 0.30932
 C771 C 0.67675 0.16077 0.38357
 C772 C 0.66078 0.13841 0.40490
 H773 H 0.58346 0.16465 0.26141
 H774 H 0.55570 0.12563 0.29846
 H775 H 0.69895 0.16976 0.39435
 H776 H 0.67114 0.13080 0.43149
 H777 H 0.70253 0.20304 0.33778
 H778 H 0.62900 0.19928 0.25240
 H779 H 0.55245 0.09196 0.35457
 H780 H 0.62618 0.09518 0.43974
 C781 C 0.62937 0.65427 -0.17073
 C782 C 0.66058 0.64820 -0.18170
 C783 C 0.67755 0.67052 -0.20207
 C784 C 0.66379 0.69929 -0.21117
 C785 C 0.63212 0.70450 -0.19956
 C786 C 0.61494 0.68220 -0.17974
 C787 C 0.61159 0.63114 -0.14875
 C788 C 0.58047 0.63755 -0.13755
 C789 C 0.56395 0.61608 -0.11578
 C790 C 0.57835 0.58845 -0.10443
 C791 C 0.60945 0.58201 -0.11644
 C792 C 0.62621 0.60340 -0.13872
 C793 C 0.58362 0.68761 -0.16820
 C794 C 0.56665 0.66562 -0.14758
 C795 C 0.67427 0.61993 -0.17184
 C796 C 0.65745 0.59799 -0.15063
 H797 H 0.57217 0.70909 -0.17500
 H798 H 0.54262 0.67079 -0.13904
 H799 H 0.69836 0.61484 -0.18021
 H800 H 0.66908 0.57672 -0.14327
 H801 H 0.70113 0.66476 -0.21153
 H802 H 0.62088 0.72642 -0.20407
 H803 H 0.54003 0.62134 -0.10686
 H804 H 0.62074 0.56086 -0.10785
 C805 C 0.86796 -0.16176 -0.16416
 C806 C 0.84014 -0.17415 -0.14872
 C807 C 0.82348 -0.19661 -0.16908
 C808 C 0.83436 -0.20658 -0.20480
 C809 C 0.86229 -0.19367 -0.21983
 C810 C 0.87922 -0.17139 -0.19959
 C811 C 0.88561 -0.13817 -0.14287
 C812 C 0.91347 -0.12589 -0.15832
 C813 C 0.93009 -0.10340 -0.13812
 C814 C 0.91892 -0.09294 -0.10284
 C815 C 0.89094 -0.10556 -0.08767
 C816 C 0.87422 -0.12828 -0.10758
 C817 C 0.90719 -0.15850 -0.21412
 C818 C 0.92405 -0.13619 -0.19381
 C819 C 0.82958 -0.16382 -0.11321
 C820 C 0.84628 -0.14125 -0.09304
 H821 H 0.91614 -0.16574 -0.24142
 H822 H 0.94550 -0.12686 -0.20605
 H823 H 0.80815 -0.17319 -0.10094
 H824 H 0.83722 -0.13388 -0.06585
 H825 H 0.80231 -0.20659 -0.15691
 H826 H 0.87067 -0.20066 -0.24750
 H827 H 0.95155 -0.09382 -0.15011
 H828 H 0.88219 -0.09769 -0.06054
 C829 C 0.86729 0.33889 0.33007
 C830 C 0.83988 0.32512 0.34470
 C831 C 0.82456 0.30238 0.32352
 C832 C 0.83622 0.29361 0.28769
 C833 C 0.86394 0.30753 0.27363
 C834 C 0.87958 0.33016 0.29473
 C835 C 0.88325 0.36313 0.35200
 C836 C 0.91060 0.37695 0.33727
 C837 C 0.92550 0.40020 0.35798
 C838 C 0.91309 0.40986 0.39302
 C839 C 0.88570 0.39568 0.40749
 C840 C 0.87070 0.37221 0.38708
 C841 C 0.90708 0.34448 0.28104
 C842 C 0.92237 0.36744 0.30198
 C843 C 0.82820 0.33455 0.38008
 C844 C 0.84331 0.35773 0.40087
 H845 H 0.91683 0.33796 0.25385
 H846 H 0.94347 0.37796 0.29034
 H847 H 0.80707 0.32407 0.39168
 H848 H 0.83341 0.36445 0.42790
 H849 H 0.80359 0.29147 0.33496
 H850 H 0.87293 0.30127 0.24597
 H851 H 0.94656 0.41098 0.34657
 H852 H 0.87606 0.40293 0.43446
 C853 C 0.37011 -0.16278 0.34887
 C854 C 0.34134 -0.17374 0.36346
 C855 C 0.32441 -0.19604 0.34317
 C856 C 0.33600 -0.20731 0.30840
 C857 C 0.36505 -0.19608 0.29438
 C858 C 0.38218 -0.17385 0.31449
 C859 C 0.38780 -0.13901 0.36980
 C860 C 0.41643 -0.12789 0.35499
 C861 C 0.43288 -0.10494 0.37461
 C862 C 0.42082 -0.09294 0.40868
 C863 C 0.39221 -0.10459 0.42335
 C864 C 0.37558 -0.12764 0.40397
 C865 C 0.41101 -0.16227 0.30072
 C866 C 0.42785 -0.13971 0.32064
 C867 C 0.33001 -0.16202 0.39794
 C868 C 0.34682 -0.13937 0.41782
 H869 H 0.42060 -0.17063 0.27424
 H870 H 0.44992 -0.13132 0.30892
 H871 H 0.30787 -0.17031 0.40956
 H872 H 0.33712 -0.13086 0.44417
 H873 H 0.30235 -0.20477 0.35454
 H874 H 0.37401 -0.20419 0.26746
 H875 H 0.45486 -0.09617 0.36306
 H876 H 0.38275 -0.09553 0.44956
 C877 C 0.36317 0.35000 -0.17841
 C878 C 0.33134 0.35427 -0.18844
 C879 C 0.31577 0.33181 -0.21009
 C880 C 0.33153 0.30459 -0.22121
 C881 C 0.36384 0.30130 -0.21073
 C882 C 0.37962 0.32380 -0.18974
 C883 C 0.37942 0.37301 -0.15472
 C884 C 0.41111 0.36825 -0.14428
 C885 C 0.42611 0.38930 -0.12053
 C886 C 0.40964 0.41479 -0.10636
 C887 C 0.37804 0.41982 -0.11783
 C888 C 0.36276 0.39883 -0.14210
 C889 C 0.41150 0.32013 -0.17908
 C890 C 0.42702 0.34205 -0.15686
 C891 C 0.31561 0.38078 -0.17618
 C892 C 0.33099 0.40259 -0.15330
 H893 H 0.42452 0.30002 -0.18772
 H894 H 0.45154 0.33819 -0.14894
 H895 H 0.29101 0.38448 -0.18382
 H896 H 0.31778 0.42238 -0.14399
 H897 H 0.29158 0.33623 -0.21868
 H898 H 0.37672 0.28058 -0.21680
 H899 H 0.45050 0.38523 -0.11217
 H900 H 0.36518 0.43935 -0.10706
 C901 C 1.13502 -0.15853 0.17185
 C902 C 1.16529 -0.16828 0.16110
 C903 C 1.18133 -0.18988 0.18365
 C904 C 1.16729 -0.20220 0.21689
 C905 C 1.13671 -0.19166 0.22703
 C906 C 1.12062 -0.16998 0.20475
 C907 C 1.11807 -0.13581 0.14824
 C908 C 1.08791 -0.12579 0.15932
 C909 C 1.07205 -0.10394 0.13707
 C910 C 1.08611 -0.09214 0.10389
 C911 C 1.11626 -0.10268 0.09297
 C912 C 1.13241 -0.12444 0.11517
 C913 C 1.09037 -0.15942 0.21487
 C914 C 1.07431 -0.13770 0.19257
 C915 C 1.17886 -0.15643 0.12774
 C916 C 1.16270 -0.13492 0.10517
 H917 H 1.07899 -0.16802 0.24028
 H918 H 1.05106 -0.13017 0.20146
 H919 H 1.20219 -0.16382 0.11899
 H920 H 1.17406 -0.12635 0.07974
 H921 H 1.20414 -0.19796 0.17401
 H922 H 1.12562 -0.19920 0.25307
 H923 H 1.04886 -0.09602 0.14570
 H924 H 1.12731 -0.09369 0.06755
 C925 C 1.12630 0.33502 0.65914
 C926 C 1.15402 0.32264 0.64362
 C927 C 1.17137 0.30116 0.66472
 C928 C 1.16134 0.29219 0.70123
 C929 C 1.13334 0.30475 0.71624
 C930 C 1.11572 0.32617 0.69528
 C931 C 1.10825 0.35801 0.63731
 C932 C 1.08070 0.37064 0.65298
 C933 C 1.06404 0.39302 0.63248
 C934 C 1.07499 0.40298 0.59679
 C935 C 1.10243 0.38977 0.58129
 C936 C 1.11917 0.36726 0.60145
 C937 C 1.08789 0.33914 0.70988
 C938 C 1.07066 0.36097 0.68906
 C939 C 1.16396 0.33215 0.60743
 C940 C 1.14685 0.35412 0.58672
 H941 H 1.07945 0.33248 0.73771
 H942 H 1.04943 0.37053 0.70146
 H943 H 1.18528 0.32270 0.59513
 H944 H 1.15547 0.36101 0.55905
 H945 H 1.19260 0.29130 0.65267
 H946 H 1.12562 0.29833 0.74447
 H947 H 1.04296 0.40309 0.64464
 H948 H 1.11097 0.39725 0.55380
 C949 C 0.63411 -0.16013 0.66930
 C950 C 0.66471 -0.16872 0.65834
 C951 C 0.68055 -0.19177 0.67865
 C952 C 0.66603 -0.20674 0.70985
 C953 C 0.63492 -0.19773 0.71996
 C954 C 0.61906 -0.17442 0.70002
 C955 C 0.61754 -0.13559 0.64827
 C956 C 0.58713 -0.12657 0.65969
 C957 C 0.57168 -0.10291 0.63991
 C958 C 0.58639 -0.08854 0.60874
 C959 C 0.61677 -0.09815 0.59746
 C960 C 0.63253 -0.12153 0.61727
 C961 C 0.58851 -0.16489 0.71047
 C962 C 0.57286 -0.14134 0.69072
 C963 C 0.67890 -0.15414 0.62710
 C964 C 0.66307 -0.13100 0.60687
 H965 H 0.57661 -0.17566 0.73421
 H966 H 0.54939 -0.13466 0.69982
 H967 H 0.70249 -0.16063 0.61821
 H968 H 0.67490 -0.12035 0.58301
 H969 H 0.70371 -0.19873 0.66888
 H970 H 0.62333 -0.20773 0.74441
 H971 H 0.54828 -0.09574 0.64872
 H972 H 0.62832 -0.08719 0.57359
 C973 C 0.63155 0.34284 0.16955
 C974 C 0.66152 0.35007 0.18438
 C975 C 0.67848 0.32762 0.20466
 C976 C 0.66585 0.29791 0.20949
 C977 C 0.63576 0.29124 0.19407
 C978 C 0.61845 0.31360 0.17447
 C979 C 0.61366 0.36618 0.14801
 C980 C 0.58370 0.35876 0.13340
 C981 C 0.56694 0.38066 0.11255
 C982 C 0.57999 0.40978 0.10537
 C983 C 0.61007 0.41706 0.12039
 C984 C 0.62699 0.39526 0.14200
 C985 C 0.58835 0.30714 0.15939
 C986 C 0.57120 0.32939 0.13936
 C987 C 0.67393 0.37954 0.17837
 C988 C 0.65705 0.40168 0.15742
 H989 H 0.57796 0.28468 0.16307
 H990 H 0.54806 0.32346 0.12812
 H991 H 0.69704 0.38548 0.18965
 H992 H 0.66766 0.42397 0.15317
 H993 H 0.70135 0.33335 0.21674
 H994 H 0.62594 0.26845 0.19663
 H995 H 0.54387 0.37465 0.10116
 H996 H 0.62030 0.43938 0.11505
 C997 C 0.87058 0.15863 0.15934
 C998 C 0.88161 0.16725 0.19540
 C999 C 0.86454 0.18889 0.21629
 C1000 C 0.83666 0.20209 0.20132
 C1001 C 0.82597 0.19309 0.16502
 C1002 C 0.84282 0.17134 0.14395
 C1003 C 0.88841 0.13576 0.13732
 C1004 C 0.87727 0.12692 0.10136
 C1005 C 0.89408 0.10481 0.08080
 C1006 C 0.92185 0.09164 0.09601
 C1007 C 0.93283 0.10109 0.13195
 C1008 C 0.91614 0.12304 0.15277
 C1009 C 0.83252 0.16208 0.10776
 C1010 C 0.84942 0.14023 0.08687
 C1011 C 0.90950 0.15402 0.20987
 C1012 C 0.92648 0.13233 0.18891
 H1013 H 0.81116 0.17173 0.09552
 H1014 H 0.84056 0.13367 0.05916
 H1015 H 0.91828 0.16048 0.23765
 H1016 H 0.94784 0.12267 0.20117
 H1017 H 0.87278 0.19521 0.24436
 H1018 H 0.80484 0.20333 0.15294
 H1019 H 0.88546 0.09772 0.05318
 H1020 H 0.95413 0.09109 0.14395
 C1021 C 0.86622 0.65803 0.66587
 C1022 C 0.87801 0.66591 0.70188
 C1023 C 0.86181 0.68766 0.72360
 C1024 C 0.83398 0.70151 0.70952
 C1025 C 0.82267 0.69342 0.67317
 C1026 C 0.83864 0.67165 0.65129
 C1027 C 0.88295 0.63491 0.64311
 C1028 C 0.87099 0.62681 0.60724
 C1029 C 0.88670 0.60440 0.58600
 C1030 C 0.91414 0.59016 0.60047
 C1031 C 0.92599 0.59886 0.63632
 C1032 C 0.91043 0.62115 0.65781
 C1033 C 0.82754 0.66316 0.61516
 C1034 C 0.84341 0.64110 0.59353
 C1035 C 0.90568 0.65172 0.71553
 C1036 C 0.92162 0.62974 0.69386
 H1037 H 0.80629 0.67355 0.60356
 H1038 H 0.83395 0.63512 0.56590
 H1039 H 0.91504 0.65759 0.74324
 H1040 H 0.94280 0.61929 0.70551
 H1041 H 0.87054 0.69342 0.75165
 H1042 H 0.80160 0.70427 0.66176
 H1043 H 0.87744 0.59788 0.55845
 H1044 H 0.94708 0.58804 0.64772
 C1045 C 0.36985 0.16653 0.65874
 C1046 C 0.38191 0.17800 0.69306
 C1047 C 0.36459 0.20014 0.71282
 C1048 C 0.33535 0.21083 0.69853
 C1049 C 0.32373 0.19914 0.66389
 C1050 C 0.34087 0.17696 0.64391
 C1051 C 0.38777 0.14292 0.63812
 C1052 C 0.37558 0.13121 0.60398
 C1053 C 0.39243 0.10832 0.58487
 C1054 C 0.42120 0.09711 0.59981
 C1055 C 0.43324 0.10941 0.63386
 C1056 C 0.41658 0.13226 0.65318
 C1057 C 0.32957 0.16490 0.60949
 C1058 C 0.34662 0.14241 0.58988
 C1059 C 0.41094 0.16691 0.70708
 C1060 C 0.42798 0.14444 0.68748
 H1061 H 0.30728 0.17279 0.59770
 H1062 H 0.33695 0.13362 0.56355
 H1063 H 0.42051 0.17558 0.73352
 H1064 H 0.45018 0.13643 0.69939
 H1065 H 0.37357 0.20865 0.73964
 H1066 H 0.30150 0.20746 0.65237
 H1067 H 0.38298 0.09902 0.55869
 H1068 H 0.45535 0.10095 0.64559
 C1069 C 0.36467 0.65580 0.18028
 C1070 C 0.37863 0.68459 0.18584
 C1071 C 0.36276 0.70650 0.20749
 C1072 C 0.33323 0.69985 0.22419
 C1073 C 0.31980 0.67055 0.21877
 C1074 C 0.33532 0.64855 0.19654
 C1075 C 0.38093 0.63302 0.15646
 C1076 C 0.36670 0.60445 0.14985
 C1077 C 0.38200 0.58324 0.12609
 C1078 C 0.41136 0.59061 0.10942
 C1079 C 0.42537 0.61919 0.11720
 C1080 C 0.41022 0.64050 0.14029
 C1081 C 0.32199 0.61956 0.18986
 C1082 C 0.33734 0.59796 0.16683
 C1083 C 0.40806 0.69109 0.16922
 C1084 C 0.42366 0.66937 0.14696
 H1085 H 0.29934 0.61361 0.20224
 H1086 H 0.32604 0.57605 0.16216
 H1087 H 0.41910 0.71320 0.17335
 H1088 H 0.44629 0.67535 0.13454
 H1089 H 0.37315 0.72901 0.21051
 H1090 H 0.29735 0.66483 0.23180
 H1091 H 0.37104 0.56133 0.12032
 H1092 H 0.44792 0.62526 0.10460
   
