data_POSCAR
  _audit_creation_date              2014-09-24
  _audit_creation_method            'ToBaCCo'
  _symmetry_space_group_name_H-M    'P1'
  _symmetry_Int_Tables_number       1
  _symmetry_cell_setting            triclinic
  loop_
  _symmetry_equiv_pos_as_xyz
 x,y,z
_cell_length_a 34.5165
_cell_length_b 34.5553
_cell_length_c 11.1730
_cell_angle_alpha 90.124900
_cell_angle_beta 90.001700
_cell_angle_gamma 119.836600
loop_
  _atom_site_label
  _atom_site_type_symbol
  _atom_site_fract_x
  _atom_site_fract_y
  _atom_site_fract_z
C1 C 0.19622 0.46442 0.43866
 C2 C 0.19647 0.46477 0.56529
 C3 C 0.23176 0.46473 0.62773
 C4 C 0.26701 0.46458 0.56580
 C5 C 0.26663 0.46423 0.43945
 C6 C 0.23135 0.46405 0.37705
 H7 H 0.23152 0.46401 0.27987
 H8 H 0.23195 0.46515 0.72494
 C9 C 0.53516 -0.26792 0.43648
 C10 C 0.53482 -0.26780 0.56286
 C11 C 0.53492 -0.23247 0.62515
 C12 C 0.53515 -0.19715 0.56309
 C13 C 0.53551 -0.19732 0.43671
 C14 C 0.53560 -0.23253 0.37450
 H15 H 0.53566 -0.23247 0.27733
 H16 H 0.53449 -0.23271 0.72230
 C17 C 1.26812 0.80399 0.43265
 C18 C 1.26785 0.80377 0.55906
 C19 C 1.23263 0.76865 0.62098
 C20 C 1.19760 0.73346 0.55865
 C21 C 1.19783 0.73367 0.43248
 C22 C 1.23292 0.76886 0.37036
 H23 H 1.23291 0.76862 0.27320
 H24 H 1.23268 0.76852 0.71809
 C25 C 0.80267 0.53544 0.44125
 C26 C 0.80247 0.53473 0.56761
 C27 C 0.76712 0.53447 0.63033
 C28 C 0.73185 0.53469 0.56855
 C29 C 0.73216 0.53536 0.44219
 C30 C 0.76755 0.53583 0.37971
 H31 H 0.76758 0.53614 0.28260
 H32 H 0.76690 0.53380 0.72751
 C33 C 0.46423 0.26737 0.44236
 C34 C 0.46458 0.26761 0.56874
 C35 C 0.46475 0.23247 0.63100
 C36 C 0.46479 0.19720 0.56878
 C37 C 0.46444 0.19708 0.44240
 C38 C 0.46406 0.23205 0.38035
 H39 H 0.46401 0.23197 0.28323
 H40 H 0.46518 0.23275 0.72821
 C41 C 0.73377 0.19761 0.43819
 C42 C 0.73383 0.19768 0.56437
 C43 C 0.76902 0.23275 0.62690
 C44 C 0.80416 0.26797 0.56503
 C45 C 0.80406 0.26788 0.43862
 C46 C 0.76894 0.23267 0.37628
 H47 H 0.76881 0.23274 0.27917
 H48 H 0.76879 0.23272 0.72405
 N49 N 0.95305 0.54544 0.12763
 N50 N 0.92156 0.55554 0.15089
 N51 N 1.04722 0.56557 0.20842
 N52 N 1.07881 0.58792 0.28819
 N53 N 1.04693 0.59250 0.12609
 N54 N 1.07839 0.63402 0.14755
 N55 N 0.95351 0.51855 0.20982
 N56 N 0.92246 0.50961 0.29112
 C57 C 0.90268 0.53258 0.25251
 C58 C 1.09804 0.63033 0.24826
 N59 N 1.04801 0.45539 0.12781
 N60 N 1.07922 0.44494 0.15154
 N61 N 0.95409 0.43561 0.21045
 N62 N 0.92295 0.41359 0.29135
 N63 N 0.95400 0.40831 0.12837
 N64 N 0.92273 0.36685 0.15116
 N65 N 1.04792 0.48269 0.20964
 N66 N 1.07896 0.49156 0.29113
 Mn67 Mn 1.00069 0.50063 0.21014
 C68 C 1.09839 0.46815 0.25302
 C69 C 0.90357 0.37095 0.25244
 N70 N 1.04660 0.59220 -0.13240
 N71 N 1.07792 0.63370 -0.15519
 N72 N 0.95263 0.51777 -0.21318
 N73 N 0.92095 0.50830 -0.29306
 N74 N 0.95257 0.54496 -0.13095
 N75 N 0.92080 0.55475 -0.15256
 N76 N 1.04657 0.56492 -0.21448
 N77 N 1.07778 0.58703 -0.29532
 Mn78 Mn 0.99978 0.56923 -0.00240
 C79 C 1.09720 0.62972 -0.25652
 C80 C 0.90129 0.53130 -0.25330
 N81 N 0.95341 0.40773 -0.13027
 N82 N 0.92206 0.36615 -0.15235
 N83 N 1.04692 0.48173 -0.21338
 N84 N 1.07837 0.49101 -0.29361
 N85 N 1.04732 0.45491 -0.13088
 N86 N 1.07912 0.44518 -0.15267
 N87 N 0.95313 0.43468 -0.21258
 N88 N 0.92169 0.41228 -0.29282
 Mn89 Mn 1.00069 0.43113 -0.00129
 Mn90 Mn 0.99981 0.49976 -0.21407
 Cl91 Cl 1.00024 0.50018 -0.00193
 C92 C 0.90246 0.36977 -0.25339
 C93 C 1.09824 0.46827 -0.25378
 N94 N 0.43437 0.48196 0.21080
 N95 N 0.41216 0.49104 0.29151
 N96 N 0.45425 0.40772 0.12990
 N97 N 0.44413 0.36623 0.15310
 N98 N 0.48131 0.43503 0.21210
 N99 N 0.49035 0.41299 0.29335
 N100 N 0.40721 0.45472 0.12868
 N101 N 0.36563 0.44448 0.15128
 C102 C 0.36958 0.46778 0.25238
 C103 C 0.46726 0.37032 0.25468
 N104 N 0.48136 0.43429 -0.21092
 N105 N 0.49072 0.41197 -0.29082
 N106 N 0.40703 0.45432 -0.12991
 N107 N 0.36548 0.44448 -0.15222
 N108 N 0.43419 0.48126 -0.21215
 N109 N 0.41193 0.49047 -0.29264
 N110 N 0.45424 0.40730 -0.12872
 N111 N 0.44438 0.36578 -0.15039
 Mn112 Mn 0.43023 0.43056 -0.00002
 C113 C 0.46772 0.36949 -0.25114
 C114 C 0.36927 0.46759 -0.25345
 N115 N 0.56433 0.51813 0.21251
 N116 N 0.58645 0.50915 0.29374
 N117 N 0.54451 0.59219 0.12957
 N118 N 0.55479 0.63379 0.15249
 N119 N 0.51733 0.56513 0.21157
 N120 N 0.50836 0.58747 0.29244
 N121 N 0.59158 0.54508 0.13047
 N122 N 0.63312 0.55522 0.15364
 Mn123 Mn 0.49933 0.50006 0.21229
 C124 C 0.62909 0.53220 0.25509
 C125 C 0.53162 0.63008 0.25374
 N126 N 0.51759 0.56430 -0.21139
 N127 N 0.50825 0.58638 -0.29173
 N128 N 0.59176 0.54457 -0.12811
 N129 N 0.63334 0.55448 -0.14984
 N130 N 0.56467 0.51738 -0.21050
 N131 N 0.58702 0.50807 -0.29049
 N132 N 0.54462 0.59152 -0.12899
 N133 N 0.55443 0.63295 -0.15097
 Mn134 Mn 0.49946 0.49931 -0.21192
 Mn135 Mn 0.56857 0.56879 0.00068
 Cl136 Cl 0.49940 0.49968 0.00022
 C137 C 0.53117 0.62892 -0.25207
 C138 C 0.62961 0.53112 -0.25076
 N139 N 0.40784 -0.04685 0.12828
 N140 N 0.36626 -0.07814 0.15064
 N141 N 0.48206 0.04678 0.21168
 N142 N 0.49111 0.07787 0.29304
 N143 N 0.45494 0.04706 0.12971
 N144 N 0.44476 0.07844 0.15302
 N145 N 0.43502 -0.04697 0.21037
 N146 N 0.41276 -0.07826 0.29074
 C147 C 0.37008 -0.09759 0.25166
 C148 C 0.46793 0.09745 0.25451
 N149 N 0.59254 0.04664 0.12876
 N150 N 0.63407 0.07806 0.15131
 N151 N 0.51833 -0.04702 0.20946
 N152 N 0.50920 -0.07830 0.28975
 N153 N 0.54546 -0.04714 0.12725
 N154 N 0.55558 -0.07861 0.14936
 N155 N 0.56534 0.04661 0.21106
 N156 N 0.58754 0.07791 0.29181
 Mn157 Mn 0.50020 -0.00015 0.21123
 C158 C 0.63017 0.09737 0.25268
 C159 C 0.53233 -0.09780 0.25030
 N160 N 0.45516 0.04758 -0.12885
 N161 N 0.44516 0.07920 -0.15045
 N162 N 0.43542 -0.04612 -0.21270
 N163 N 0.41331 -0.07737 -0.29347
 N164 N 0.40822 -0.04622 -0.13036
 N165 N 0.36673 -0.07762 -0.15284
 N166 N 0.48231 0.04755 -0.21122
 N167 N 0.49151 0.07907 -0.29106
 Mn168 Mn 0.43108 0.00039 -0.00035
 C169 C 0.46843 0.09866 -0.25127
 C170 C 0.37075 -0.09680 -0.25418
 N171 N 0.54554 -0.04710 -0.13138
 N172 N 0.55543 -0.07877 -0.15411
 N173 N 0.56548 0.04703 -0.21179
 N174 N 0.58771 0.07847 -0.29167
 N175 N 0.59261 0.04682 -0.12973
 N176 N 0.63416 0.07820 -0.15147
 N177 N 0.51850 -0.04679 -0.21360
 N178 N 0.50926 -0.07816 -0.29446
 Mn179 Mn 0.56949 -0.00021 -0.00127
 Mn180 Mn 0.50042 0.00043 -0.21297
 Cl181 Cl 0.50030 0.00011 -0.00086
 C182 C 0.53224 -0.09796 -0.25554
 C183 C 0.63030 0.09773 -0.25211
 C184 C 1.16283 0.46520 0.37397
 C185 C 1.13351 0.46628 0.31759
 C186 C 0.53436 0.69775 0.37275
 C187 C 0.53333 0.66718 0.31731
 C188 C 0.30242 -0.16254 0.36935
 C189 C 0.33299 -0.13301 0.31451
 C190 C 0.83800 0.53498 0.37274
 C191 C 0.86743 0.53417 0.31656
 C192 C 0.46482 0.30326 0.37436
 C193 C 0.46569 0.33353 0.31855
 C194 C 0.69765 0.16231 0.37080
 C195 C 0.66715 0.13279 0.31574
 C196 C 0.46576 0.16381 -0.36795
 C197 C 0.46685 0.13422 -0.31347
 C198 C 0.69746 0.53370 -0.36783
 C199 C 0.66677 0.53263 -0.31316
 C200 C 0.83755 0.30215 -0.37121
 C201 C 0.86706 0.33268 -0.31613
 C202 C 0.53442 -0.16348 -0.37350
 C203 C 0.53356 -0.13370 -0.31865
 C204 C 0.30143 0.46536 -0.37076
 C205 C 0.33212 0.46625 -0.31614
 C206 C 1.16220 0.69723 -0.37444
 C207 C 1.13264 0.66669 -0.31964
 C208 C 0.83593 0.53373 -0.36954
 C209 C 0.86561 0.53269 -0.31537
 C210 C 0.46537 0.30186 -0.36790
 C211 C 0.46630 0.33245 -0.31335
 C212 C 0.69777 0.16252 -0.36881
 C213 C 0.66727 0.13307 -0.31431
 C214 C 1.16321 0.46573 -0.37098
 C215 C 1.13371 0.46679 -0.31621
 C216 C 0.53377 0.69618 -0.36960
 C217 C 0.53268 0.66574 -0.31470
 C218 C 0.30365 -0.16123 -0.37287
 C219 C 0.33396 -0.13194 -0.31735
 C220 C 0.53493 -0.16223 0.36878
 C221 C 0.53400 -0.13293 0.31325
 C222 C 0.30246 0.46494 0.37158
 C223 C 0.33276 0.46598 0.31583
 C224 C 1.16277 0.69775 0.36516
 C225 C 1.13335 0.66729 0.31040
 C226 C 0.46523 0.16191 0.37435
 C227 C 0.46625 0.13258 0.31847
 C228 C 0.69623 0.53475 0.37451
 C229 C 0.66591 0.53383 0.31882
 C230 C 0.83913 0.30382 0.37103
 C231 C 0.86843 0.33417 0.31574
   
