data_POSCAR
  _audit_creation_date              2014-09-24
  _audit_creation_method            'ToBaCCo'
  _symmetry_space_group_name_H-M    'P1'
  _symmetry_Int_Tables_number       1
  _symmetry_cell_setting            triclinic
  loop_
  _symmetry_equiv_pos_as_xyz
 x,y,z
_cell_length_a 32.4178
_cell_length_b 33.3380
_cell_length_c 32.0282
_cell_angle_alpha 90.635700
_cell_angle_beta 88.333800
_cell_angle_gamma 89.154500
loop_
  _atom_site_label
  _atom_site_type_symbol
  _atom_site_fract_x
  _atom_site_fract_y
  _atom_site_fract_z
N1 N 0.18198 0.20814 0.30027
 N2 N 0.20666 0.17656 0.29955
 C3 C 0.19104 0.14878 0.32538
 C4 C 0.15385 0.16324 0.34293
 C5 C 0.15004 0.20177 0.32708
 H6 H 0.20470 0.11930 0.32917
 H7 H 0.12625 0.22399 0.33448
 Cu8 Cu 0.25576 0.17368 0.26312
 Cu9 Cu 0.19082 0.25235 0.26177
 Cu10 Cu 0.24350 0.21928 0.17173
 N11 N 0.29463 0.16465 0.21665
 N12 N 0.28947 0.18221 0.18066
 C13 C 0.31836 0.16830 0.15298
 C14 C 0.34271 0.13967 0.17232
 C15 C 0.32715 0.13917 0.21327
 H16 H 0.32006 0.17691 0.12052
 H17 H 0.33874 0.12209 0.23904
 N18 N 0.20592 0.26650 0.17346
 N19 N 0.18799 0.28047 0.20835
 C20 C 0.16374 0.31216 0.19945
 C21 C 0.16652 0.31825 0.15695
 C22 C 0.19326 0.28880 0.14132
 H23 H 0.14341 0.32779 0.22174
 H24 H 0.20165 0.28326 0.10882
 H25 H 0.20389 0.20675 0.22154
 H26 H 0.24857 0.23981 0.23106
 N27 N -0.15497 0.79762 0.28931
 N28 N -0.17805 0.82963 0.28338
 C29 C -0.17259 0.85600 0.31445
 C30 C -0.14487 0.83968 0.34171
 C31 C -0.13366 0.80271 0.32446
 H32 H -0.18595 0.88591 0.31593
 H33 H -0.11076 0.78185 0.33570
 Cu34 Cu -0.20915 0.83681 0.23339
 Cu35 Cu -0.15174 0.75467 0.24788
 Cu36 Cu -0.23706 0.75311 0.18431
 N37 N -0.24622 0.83845 0.18728
 N38 N -0.25930 0.80563 0.16925
 C39 C -0.28616 0.81583 0.13964
 C40 C -0.28826 0.85747 0.13775
 C41 C -0.26320 0.87057 0.16923
 H42 H -0.30116 0.79462 0.11951
 H43 H -0.25863 0.90125 0.17917
 N44 N -0.19726 0.70776 0.18847
 N45 N -0.16439 0.70902 0.21188
 C46 C -0.13828 0.67897 0.20049
 C47 C -0.15505 0.65819 0.16794
 C48 C -0.19280 0.67662 0.16151
 H49 H -0.10718 0.67548 0.21139
 H50 H -0.21267 0.67115 0.13556
 H51 H -0.18143 0.77873 0.19564
 H52 H -0.21267 0.76441 0.24302
 N53 N -0.19847 0.21009 -0.26787
 N54 N -0.20022 0.17552 -0.24858
 C55 C -0.18430 0.14661 -0.27401
 C56 C -0.17229 0.16390 -0.31139
 C57 C -0.18165 0.20431 -0.30645
 H58 H -0.17924 0.11579 -0.26500
 H59 H -0.17300 0.22811 -0.32751
 Cu60 Cu -0.21705 0.17150 -0.18995
 Cu61 Cu -0.20884 0.25985 -0.23731
 Cu62 Cu -0.25563 0.25787 -0.14254
 N63 N -0.25325 0.17166 -0.13896
 N64 N -0.27106 0.20435 -0.12287
 C65 C -0.30288 0.19383 -0.09743
 C66 C -0.30510 0.15208 -0.09695
 C67 C -0.27253 0.13954 -0.12342
 H68 H -0.32596 0.21505 -0.08546
 H69 H -0.26632 0.10919 -0.13441
 N70 N -0.21749 0.30077 -0.15850
 N71 N -0.20134 0.30250 -0.19661
 C72 C -0.17190 0.33046 -0.19786
 C73 C -0.16781 0.34567 -0.15800
 C74 C -0.19802 0.32710 -0.13399
 H75 H -0.15144 0.33556 -0.22451
 H76 H -0.20237 0.32945 -0.10043
 H77 H -0.20689 0.22790 -0.16879
 H78 H -0.25582 0.21885 -0.19633
 N79 N 0.16096 0.80931 -0.27452
 N80 N 0.18354 0.84137 -0.26984
 C81 C 0.17069 0.86985 -0.29605
 C82 C 0.13844 0.85463 -0.31835
 C83 C 0.13272 0.81630 -0.30356
 H84 H 0.18322 0.89968 -0.29807
 H85 H 0.10902 0.79555 -0.31229
 Cu86 Cu 0.22671 0.84386 -0.22905
 Cu87 Cu 0.16894 0.76236 -0.24075
 Cu88 Cu 0.21228 0.77712 -0.14815
 N89 N 0.25594 0.84765 -0.17634
 N90 N 0.25138 0.82167 -0.14585
 C91 C 0.27713 0.83114 -0.11517
 C92 C 0.29905 0.86477 -0.12697
 C93 C 0.28391 0.87492 -0.16553
 H94 H 0.27876 0.81550 -0.08585
 H95 H 0.29378 0.89944 -0.18507
 N96 N 0.17978 0.73000 -0.15991
 N97 N 0.16342 0.72385 -0.19648
 C98 C 0.13837 0.69215 -0.19422
 C99 C 0.13863 0.67822 -0.15383
 C100 C 0.16563 0.70240 -0.13301
 H101 H 0.11876 0.68220 -0.21893
 H102 H 0.17184 0.70194 -0.10002
 H103 H 0.18623 0.81493 -0.19158
 H104 H 0.23248 0.78421 -0.20860
 N105 N 0.22210 1.17392 0.70151
 N106 N 0.19565 1.20430 0.69940
 C107 C 0.16889 1.19640 0.66899
 C108 C 0.17924 1.15947 0.65075
 C109 C 0.21282 1.14602 0.67265
 H110 H 0.14285 1.21542 0.66161
 H111 H 0.22813 1.11711 0.66902
 Cu112 Cu 0.19560 1.25082 0.73880
 Cu113 Cu 0.26579 1.17154 0.74313
 Cu114 Cu 0.27423 1.25267 0.80420
 N115 N 0.19389 1.28452 0.78972
 N116 N 0.22513 1.28553 0.81500
 C117 C 0.21570 1.31022 0.84757
 C118 C 0.17659 1.32611 0.84227
 C119 C 0.16346 1.30877 0.80543
 H120 H 0.23519 1.31511 0.87394
 H121 H 0.13365 1.31287 0.79163
 N122 N 0.31545 1.20986 0.80429
 N123 N 0.31215 1.17812 0.77995
 C124 C 0.33958 1.14997 0.79138
 C125 C 0.36104 1.16469 0.82477
 C126 C 0.34489 1.20281 0.83220
 H127 H 0.34015 1.11926 0.78012
 H128 H 0.35031 1.22168 0.85912
 H129 H 0.22301 1.20955 0.77384
 H130 H 0.25738 1.23175 0.73297
 N131 N 0.82982 0.82132 0.73891
 N132 N 0.86299 0.79996 0.74713
 C133 C 0.89596 0.81673 0.72772
 C134 C 0.88225 0.85020 0.70631
 C135 C 0.84026 0.85208 0.71422
 H136 H 0.92734 0.80537 0.72869
 H137 H 0.81872 0.87402 0.70247
 Cu138 Cu 0.85823 0.75154 0.78131
 Cu139 Cu 0.77521 0.80749 0.76002
 Cu140 Cu 0.77606 0.74795 0.84747
 N141 N 0.84819 0.70476 0.81669
 N142 N 0.81579 0.70371 0.84232
 C143 C 0.81694 0.66966 0.86441
 C144 C 0.85164 0.64758 0.85174
 C145 C 0.87102 0.67110 0.82165
 H146 H 0.79455 0.66195 0.88860
 H147 H 0.90035 0.66484 0.80577
 N148 N 0.72967 0.78406 0.83488
 N149 N 0.72836 0.80466 0.80003
 C150 C 0.69474 0.82876 0.80153
 C151 C 0.67386 0.82330 0.83925
 C152 C 0.69696 0.79466 0.85963
 H153 H 0.68822 0.85153 0.77874
 H154 H 0.69223 0.78490 0.89148
 H155 H 0.80386 0.79396 0.81329
 H156 H 0.78265 0.74994 0.78499
 N157 N 0.18962 0.83585 1.25586
 N158 N 0.15648 0.81495 1.24853
 C159 C 0.12498 0.82918 1.27308
 C160 C 0.13948 0.86026 1.29754
 C161 C 0.18054 0.86384 1.28548
 H162 H 0.09389 0.81785 1.27331
 H163 H 0.20229 0.88501 1.29760
 Cu164 Cu 0.15875 0.77099 1.20765
 Cu165 Cu 0.24215 0.82420 1.22689
 Cu166 Cu 0.23430 0.76938 1.13435
 N167 N 0.16574 0.72580 1.16868
 N168 N 0.19384 0.72640 1.13826
 C169 C 0.18802 0.69510 1.11215
 C170 C 0.15530 0.67273 1.12776
 C171 C 0.14198 0.69348 1.16365
 H172 H 0.20502 0.69030 1.08293
 H173 H 0.11558 0.68655 1.18354
 N174 N 0.28232 0.80296 1.14693
 N175 N 0.28559 0.82250 1.18275
 C176 C 0.31977 0.84481 1.18111
 C177 C 0.33931 0.83888 1.14264
 C178 C 0.31469 0.81223 1.12163
 H179 H 0.32817 0.86623 1.20490
 H180 H 0.31856 0.80262 1.08937
 H181 H 0.20978 0.81440 1.17457
 H182 H 0.23352 0.76851 1.19712
 N183 N 0.80604 1.16528 1.26444
 N184 N 0.81454 1.19815 1.28545
 C185 C 0.83250 1.18831 1.32137
 C186 C 0.83530 1.14700 1.32300
 C187 C 0.81855 1.13323 1.28633
 H188 H 0.84354 1.20956 1.34409
 H189 H 0.81618 1.10234 1.27611
 Cu190 Cu 0.80413 1.25062 1.26222
 Cu191 Cu 0.78135 1.16754 1.20909
 Cu192 Cu 0.73359 1.25832 1.18872
 N193 N 0.80287 1.29674 1.22558
 N194 N 0.77512 1.30002 1.19658
 C195 C 0.78706 1.32866 1.16959
 C196 C 0.82443 1.34349 1.18193
 C197 C 0.83310 1.32314 1.21811
 H198 H 0.77287 1.33427 1.14003
 H199 H 0.86214 1.32318 1.23395
 N200 N 0.71612 1.20765 1.16353
 N201 N 0.73879 1.17464 1.16600
 C202 C 0.72469 1.14744 1.13873
 C203 C 0.69102 1.16380 1.11844
 C204 C 0.68546 1.20149 1.13686
 H205 H 0.73726 1.11737 1.13468
 H206 H 0.66097 1.22309 1.13180
 H207 H 0.78735 1.22608 1.19249
 H208 H 0.74771 1.21308 1.23300
 O209 O 0.52982 0.94084 0.92820
 O210 O 0.49295 0.94619 1.06496
 O211 O 0.61632 0.97276 1.00850
 O212 O 0.41564 0.98292 0.97990
 O213 O 0.56489 0.95138 1.04534
 O214 O 0.45564 0.95315 0.93159
 O215 O 0.43676 0.98066 1.05344
 O216 O 0.58533 0.96962 0.93887
 C217 C 0.56772 0.94082 0.92332
 C218 C 0.45433 0.94925 1.06659
 C219 C 0.60368 0.95524 1.04265
 C220 C 0.42146 0.95763 0.95057
 O221 O 0.46426 1.02868 0.91650
 O222 O 0.55828 1.03564 1.06080
 O223 O 0.57823 1.03228 0.96349
 O224 O 0.46548 1.05816 1.04341
 O225 O 0.48752 1.02050 1.08917
 O226 O 0.53924 1.02400 0.90947
 O227 O 0.43990 1.05764 0.97356
 O228 O 0.58369 1.03800 0.99848
 Co229 Co 0.49904 0.98724 0.92775
 Co230 Co 0.52495 0.98978 1.05857
 Co231 Co 0.56643 0.98640 0.98990
 Co232 Co 0.44515 1.01798 1.01185
 O233 O 0.50536 0.99742 0.99415
 C234 C 0.44320 1.05573 0.93469
 C235 C 0.57934 1.05464 1.03366
 C236 C 0.56499 1.04453 0.92902
 C237 C 0.46880 1.05178 1.08075
 O238 O 0.04477 0.45511 0.08402
 O239 O 0.04970 0.53025 -0.05747
 O240 O 0.03532 0.40457 -0.03363
 O241 O 0.05243 0.54478 0.01463
 O242 O 0.06661 0.45844 -0.05251
 O243 O 0.03364 0.53056 0.07718
 O244 O 0.01074 0.58131 -0.03662
 O245 O 0.02881 0.40332 0.04360
 C246 C 0.05072 0.41922 0.07170
 C247 C 0.03818 0.56636 -0.06369
 C248 C 0.06676 0.42122 -0.04919
 C249 C 0.05766 0.54820 0.05264
 O250 O -0.04757 0.51749 0.07482
 O251 O -0.00604 0.44053 -0.08276
 O252 O -0.05379 0.41479 0.03670
 O253 O -0.05264 0.53811 -0.02330
 O254 O -0.02718 0.51160 -0.07888
 O255 O -0.03285 0.44648 0.09029
 O256 O -0.02289 0.56656 0.04001
 O257 O -0.04787 0.42307 -0.03513
 Co258 Co -0.00023 0.48729 0.07417
 Co259 Co 0.01864 0.48476 -0.06094
 Co260 Co -0.00822 0.41710 0.00263
 Co261 Co -0.00012 0.53843 -0.00475
 O262 O 0.00081 0.47958 0.00605
 C263 C -0.04923 0.55370 0.06572
 C264 C -0.04004 0.42660 -0.07252
 C265 C -0.05641 0.42214 0.07450
 C266 C -0.05646 0.53025 -0.06096
 O267 O 1.07311 0.03558 0.46611
 O268 O 0.91390 0.04236 0.56091
 O269 O 0.94954 0.02889 0.42722
 O270 O 1.03817 0.06648 0.55061
 O271 O 0.91129 0.04655 0.48219
 O272 O 1.08347 0.02254 0.54044
 O273 O 0.96903 0.07525 0.56907
 O274 O 1.01729 0.05837 0.44260
 C275 C 1.05457 0.06278 0.44744
 C276 C 0.93116 0.07321 0.57309
 C277 C 0.91938 0.04841 0.44343
 C278 C 1.07491 0.05759 0.55159
 O279 O 1.04980 -0.04903 0.53174
 O280 O 0.91679 -0.03143 0.47871
 O281 O 1.02460 -0.00742 0.40073
 O282 O 0.96442 -0.00099 0.60040
 O283 O 0.92604 -0.03441 0.55715
 O284 O 1.04741 -0.04048 0.45507
 O285 O 1.03688 -0.01057 0.58547
 O286 O 0.97375 -0.04256 0.44381
 Co287 Co 1.05685 -0.00593 0.49926
 Co288 Co 0.92413 0.00609 0.51892
 Co289 Co 0.99696 0.00794 0.44809
 Co290 Co 1.00195 0.03096 0.57144
 O291 O 0.99145 0.01133 0.51133
 C292 C 1.04769 -0.04449 0.57043
 C293 C 0.93636 -0.04993 0.45040
 C294 C 1.04989 -0.03481 0.41554
 C295 C 0.94293 -0.03137 0.59172
 C296 C 1.08316 0.14874 0.37395
 C297 C 1.12692 0.14221 0.37038
 C298 C 1.14475 0.11302 0.39584
 C299 C 1.12103 0.09010 0.42288
 C300 C 1.07816 0.09551 0.42672
 C301 C 1.05940 0.12738 0.40464
 C302 C 1.06146 0.17312 0.34582
 C303 C 1.01943 0.18141 0.35190
 C304 C 0.99781 0.16504 0.38549
 C305 C 1.01735 0.13798 0.41146
 H306 H 1.07579 0.18457 0.31775
 H307 H 1.00357 0.20068 0.33040
 H308 H 0.96544 0.17244 0.39077
 H309 H 0.99923 0.12615 0.43720
 H310 H 1.17776 0.10745 0.39507
 H311 H 1.13659 0.06660 0.43971
 C312 C 0.84999 -0.10988 0.40038
 C313 C 0.87377 -0.13813 0.37644
 C314 C 0.91675 -0.13871 0.37940
 C315 C 0.93637 -0.11031 0.40378
 C316 C 0.91391 -0.07969 0.42491
 C317 C 0.87000 -0.07818 0.42129
 C318 C 0.80644 -0.11164 0.40247
 C319 C 0.78290 -0.08035 0.42036
 C320 C 0.80224 -0.04658 0.43563
 C321 C 0.84519 -0.04518 0.43566
 H322 H 0.79033 -0.13710 0.38997
 H323 H 0.74955 -0.08171 0.42104
 H324 H 0.78394 -0.02126 0.44741
 H325 H 0.85808 -0.01716 0.44519
 H326 H 0.93551 -0.15993 0.36103
 H327 H 0.96951 -0.11134 0.40463
 C328 C 0.84655 0.14575 0.61295
 C329 C 0.85504 0.14506 0.65613
 C330 C 0.89047 0.12503 0.66949
 C331 C 0.91645 0.10438 0.64130
 C332 C 0.90770 0.10282 0.59887
 C333 C 0.87333 0.12453 0.58402
 C334 C 0.81153 0.16597 0.59790
 C335 C 0.80397 0.16646 0.55524
 C336 C 0.83086 0.14676 0.52692
 C337 C 0.86512 0.12571 0.54107
 H338 H 0.78974 0.18147 0.61878
 H339 H 0.77720 0.18238 0.54406
 H340 H 0.82514 0.14782 0.49383
 H341 H 0.88554 0.11112 0.51818
 H342 H 0.89769 0.12469 0.70231
 H343 H 0.94244 0.08765 0.65314
 C344 C 1.10252 -0.13849 0.61249
 C345 C 1.11251 -0.12324 0.65236
 C346 C 1.09722 -0.08572 0.66542
 C347 C 1.07381 -0.06238 0.63929
 C348 C 1.06482 -0.07542 0.59871
 C349 C 1.07728 -0.11503 0.58584
 C350 C 1.11804 -0.17609 0.59800
 C351 C 1.10677 -0.19165 0.55960
 C352 C 1.08008 -0.17015 0.53486
 C353 C 1.06548 -0.13225 0.54752
 H354 H 1.13923 -0.19380 0.61586
 H355 H 1.11850 -0.22075 0.54915
 H356 H 1.07077 -0.18305 0.50564
 H357 H 1.04393 -0.11772 0.52742
 H358 H 1.10404 -0.07396 0.69610
 H359 H 1.06422 -0.03288 0.65068
 C360 C 0.38755 1.07746 1.16646
 C361 C 0.37564 1.11678 1.15350
 C362 C 0.39791 1.13403 1.12014
 C363 C 0.43045 1.11374 1.09974
 C364 C 0.44312 1.07542 1.11197
 C365 C 0.42346 1.05813 1.14779
 C366 C 0.36275 1.05500 1.19452
 C367 C 0.37582 1.01772 1.20866
 C368 C 0.41340 1.00148 1.19468
 C369 C 0.43689 1.02113 1.16437
 H370 H 0.33212 1.06466 1.20440
 H371 H 0.35661 1.00132 1.23058
 H372 H 0.42391 0.97292 1.20650
 H373 H 0.46579 1.00694 1.15521
 H374 H 0.39030 1.16383 1.10936
 H375 H 0.44500 1.12775 1.07284
 C376 C 0.35972 0.86632 0.91952
 C377 C 0.32908 0.88558 0.89521
 C378 C 0.32901 0.92764 0.89231
 C379 C 0.35734 0.95059 0.91328
 C380 C 0.38741 0.93243 0.93724
 C381 C 0.38862 0.89022 0.94114
 C382 C 0.36529 0.82411 0.91976
 C383 C 0.39589 0.80617 0.94323
 C384 C 0.42241 0.82963 0.96603
 C385 C 0.41915 0.87128 0.96489
 H386 H 0.34766 0.80435 0.90059
 H387 H 0.39950 0.77383 0.94312
 H388 H 0.44628 0.81542 0.98373
 H389 H 0.44095 0.88854 0.98234
 H390 H 0.30631 0.94326 0.87408
 H391 H 0.35689 0.98279 0.90918
 C392 C 0.70119 0.91978 1.09702
 C393 C 0.68803 0.88148 1.11124
 C394 C 0.64879 0.86814 1.10053
 C395 C 0.62153 0.89297 1.07966
 C396 C 0.63281 0.93164 1.06766
 C397 C 0.67294 0.94544 1.07634
 C398 C 0.74263 0.93217 1.10005
 C399 C 0.75465 0.97024 1.08753
 C400 C 0.72613 0.99646 1.07067
 C401 C 0.68587 0.98418 1.06464
 H402 H 0.76661 0.91227 1.11067
 H403 H 0.78635 0.97931 1.09063
 H404 H 0.73548 1.02615 1.06126
 H405 H 0.66537 1.00541 1.05051
 H406 H 0.63807 0.83896 1.11025
 H407 H 0.59137 0.88162 1.07243
 C408 C 0.63419 1.13538 0.94948
 C409 C 0.65988 1.12890 0.91326
 C410 C 0.64751 1.10149 0.88237
 C411 C 0.61109 1.08025 0.88427
 C412 C 0.58361 1.08242 0.91819
 C413 C 0.58958 1.10978 0.95233
 C414 C 0.64290 1.17401 0.98255
 C415 C 0.58159 1.18777 1.03340
 C416 C 0.54322 1.15406 1.02536
 C417 C 0.54838 1.11829 0.98700
 H418 H 0.67268 1.18858 0.97952
 H419 H 0.57664 1.21022 1.05822
 H420 H 0.51487 1.15628 1.04393
 H421 H 0.52061 1.10228 0.98139
 H422 H 0.66598 1.09691 0.85396
 H423 H 0.60616 1.05830 0.85972
 C424 C 0.14845 0.38654 0.12865
 C425 C 0.14021 0.34524 0.13285
 C426 C 0.10566 0.32900 0.11433
 C427 C 0.07800 0.35336 0.09358
 C428 C 0.08411 0.39481 0.09030
 C429 C 0.12089 0.41150 0.10616
 C430 C 0.18399 0.40338 0.14578
 C431 C 0.19285 0.44375 0.14013
 C432 C 0.16706 0.46781 0.11675
 C433 C 0.13175 0.45193 0.09947
 H434 H 0.20535 0.38541 0.16332
 H435 H 0.22023 0.45628 0.15340
 H436 H 0.17461 0.49893 0.11178
 H437 H 0.11411 0.47158 0.08004
 H438 H 0.09942 0.29727 0.11699
 H439 H 0.05090 0.33967 0.08100
 C440 C -0.09066 0.35537 -0.14828
 C441 C -0.13255 0.36815 -0.14184
 C442 C -0.14163 0.40204 -0.11700
 C443 C -0.11049 0.42260 -0.09744
 C444 C -0.06914 0.41038 -0.10262
 C445 C -0.05861 0.37766 -0.12965
 C446 C -0.07980 0.31969 -0.17055
 C447 C -0.03862 0.30794 -0.17680
 C448 C -0.00739 0.33085 -0.16039
 C449 C -0.01715 0.36511 -0.13665
 H450 H -0.10263 0.29979 -0.18250
 H451 H -0.03094 0.28069 -0.19420
 H452 H 0.02455 0.32163 -0.16543
 H453 H 0.00816 0.38149 -0.12410
 H454 H -0.17336 0.41185 -0.11149
 H455 H -0.11890 0.44746 -0.07663
 C456 C 0.06716 0.65381 -0.13362
 C457 C 0.11077 0.64889 -0.13452
 C458 C 0.12882 0.61604 -0.11491
 C459 C 0.10459 0.58834 -0.09389
 C460 C 0.06160 0.59298 -0.09156
 C461 C 0.04233 0.62497 -0.11274
 C462 C 0.04758 0.68728 -0.15174
 C463 C 0.00466 0.69109 -0.15106
 C464 C -0.01958 0.66186 -0.13239
 C465 C -0.00112 0.62899 -0.11357
 H466 H 0.06495 0.71108 -0.16611
 H467 H -0.00988 0.71683 -0.16518
 H468 H -0.05286 0.66480 -0.13211
 H469 H -0.02124 0.60674 -0.10008
 H470 H 0.16208 0.61220 -0.11526
 H471 H 0.11970 0.56399 -0.07785
 C472 C -0.12003 0.64359 0.09755
 C473 C -0.13118 0.63185 0.13873
 C474 C -0.11684 0.59527 0.15382
 C475 C -0.09151 0.57022 0.12905
 C476 C -0.07960 0.58077 0.08815
 C477 C -0.09541 0.61717 0.07150
 C478 C -0.13211 0.68136 0.08182
 C479 C -0.12296 0.69157 0.04058
 C480 C -0.10171 0.66457 0.01428
 C481 C -0.08814 0.62786 0.02952
 H482 H -0.14844 0.70354 0.10098
 H483 H -0.13288 0.72037 0.02886
 H484 H -0.09567 0.67207 -0.01812
 H485 H -0.07330 0.60765 0.00759
 H486 H -0.12469 0.58637 0.18548
 H487 H -0.08019 0.54269 0.14261
 C488 C 1.17318 0.11069 0.58858
 C489 C 1.15495 0.13601 0.62034
 C490 C 1.11194 0.13778 0.62484
 C491 C 1.08723 0.11338 0.60097
 C492 C 1.10426 0.08542 0.57190
 C493 C 1.14772 0.08500 0.56438
 C494 C 1.21599 0.11140 0.57918
 C495 C 1.23359 0.08686 0.54777
 C496 C 1.20897 0.06171 0.52457
 C497 C 1.16648 0.06095 0.53243
 H498 H 1.23616 0.13167 0.59504
 H499 H 1.26646 0.08783 0.54094
 H500 H 1.22278 0.04317 0.49981
 H501 H 1.14873 0.04221 0.51234
 H502 H 1.09711 0.15716 0.64833
 H503 H 1.05418 0.11559 0.60662
 C504 C 0.92503 -0.13406 0.64086
 C505 C 0.90557 -0.12178 0.67921
 C506 C 0.90332 -0.08080 0.68961
 C507 C 0.91831 -0.05190 0.66214
 C508 C 0.93518 -0.06304 0.62296
 C509 C 0.94012 -0.10448 0.61263
 C510 C 0.92840 -0.17496 0.62908
 C511 C 0.94732 -0.18655 0.59111
 C512 C 0.96292 -0.15780 0.56404
 C513 C 0.95942 -0.11719 0.57453
 H514 H 0.91649 -0.19839 0.64885
 H515 H 0.94987 -0.21803 0.58264
 H516 H 0.97772 -0.16702 0.53468
 H517 H 0.97230 -0.09599 0.55268
 H518 H 0.88832 -0.07098 0.71870
 H519 H 0.91439 -0.02047 0.67053
 C520 C 1.09306 -0.13188 0.36279
 C521 C 1.11629 -0.11494 0.32934
 C522 C 1.11743 -0.07314 0.32564
 C523 C 1.09539 -0.04806 0.35366
 C524 C 1.07209 -0.06378 0.38696
 C525 C 1.07061 -0.10623 0.39175
 C526 C 1.09207 -0.17384 0.36848
 C527 C 1.06735 -0.19041 0.39986
 C528 C 1.04405 -0.16566 0.42685
 C529 C 1.04646 -0.12413 0.42375
 H530 H 1.11021 -0.19436 0.34888
 H531 H 1.06616 -0.22266 0.40317
 H532 H 1.02410 -0.17872 0.45056
 H533 H 1.02790 -0.10677 0.44598
 H534 H 1.13510 -0.05974 0.30031
 H535 H 1.09690 -0.01589 0.34953
 C536 C 0.83156 0.10727 0.38998
 C537 C 0.85456 0.12286 0.35578
 C538 C 0.89688 0.11505 0.35215
 C539 C 0.91664 0.09149 0.38128
 C540 C 0.89499 0.07489 0.41550
 C541 C 0.85165 0.08290 0.42006
 C542 C 0.78875 0.11515 0.39457
 C543 C 0.76585 0.09906 0.42762
 C544 C 0.78499 0.07470 0.45642
 C545 C 0.82725 0.06662 0.45273
 H546 H 0.77263 0.13371 0.37262
 H547 H 0.73304 0.10532 0.43078
 H548 H 0.76698 0.06199 0.48187
 H549 H 0.83994 0.04742 0.47576
 H550 H 0.91483 0.12708 0.32622
 H551 H 0.94951 0.08610 0.37679
 C552 C 0.16587 0.38761 -0.10974
 C553 C 0.15168 0.35121 -0.12749
 C554 C 0.11271 0.33732 -0.11542
 C555 C 0.08731 0.35906 -0.08746
 C556 C 0.09941 0.39614 -0.07095
 C557 C 0.13990 0.40976 -0.08052
 C558 C 0.20483 0.40315 -0.12110
 C559 C 0.21882 0.43831 -0.10265
 C560 C 0.19448 0.45863 -0.07257
 C561 C 0.15545 0.44458 -0.06143
 H562 H 0.22474 0.38860 -0.14448
 H563 H 0.24888 0.44970 -0.11149
 H564 H 0.20586 0.48548 -0.05780
 H565 H 0.13823 0.46080 -0.03709
 H566 H 0.10160 0.30930 -0.12800
 H567 H 0.05700 0.34735 -0.08016
 C568 C -0.11102 0.33963 0.13557
 C569 C -0.14467 0.36209 0.15373
 C570 C -0.14894 0.40295 0.14488
 C571 C -0.12001 0.42205 0.11915
 C572 C -0.08626 0.40068 0.10136
 C573 C -0.08112 0.35935 0.11002
 C574 C -0.10644 0.29789 0.14194
 C575 C -0.07215 0.27674 0.12557
 C576 C -0.04199 0.29647 0.10228
 C577 C -0.04642 0.33729 0.09440
 H578 H -0.12922 0.28104 0.15931
 H579 H -0.06885 0.24491 0.13117
 H580 H -0.01512 0.28007 0.09009
 H581 H -0.02225 0.35146 0.07641
 H582 H -0.17471 0.42025 0.15825
 H583 H -0.12401 0.45375 0.11297
 C584 C -0.11147 0.57911 -0.15161
 C585 C -0.13231 0.61036 -0.12867
 C586 C -0.13721 0.60663 -0.08526
 C587 C -0.11717 0.57612 -0.06412
 C588 C -0.09029 0.54903 -0.08532
 C589 C -0.09088 0.54775 -0.12983
 C590 C -0.11164 0.57765 -0.19568
 C591 C -0.09186 0.54641 -0.21791
 C592 C -0.07245 0.51556 -0.19682
 C593 C -0.07227 0.51585 -0.15332
 H594 H -0.12810 0.59979 -0.21339
 H595 H -0.09244 0.54564 -0.25169
 H596 H -0.05811 0.49080 -0.21425
 H597 H -0.05912 0.48987 -0.13869
 H598 H -0.15456 0.62899 -0.06701
 H599 H -0.12046 0.57557 -0.03048
 C600 C 0.15323 0.60762 0.08314
 C601 C 0.13337 0.63896 0.10732
 C602 C 0.09022 0.63878 0.11223
 C603 C 0.06692 0.60905 0.09418
 C604 C 0.08547 0.57872 0.06937
 C605 C 0.12882 0.57805 0.06295
 C606 C 0.19662 0.60374 0.07978
 C607 C 0.21534 0.57337 0.05522
 C608 C 0.19141 0.54584 0.03414
 C609 C 0.14852 0.54781 0.03817
 H610 H 0.21658 0.62322 0.09682
 H611 H 0.24866 0.57097 0.05284
 H612 H 0.20620 0.52230 0.01530
 H613 H 0.13102 0.52520 0.02224
 H614 H 0.07394 0.66218 0.13000
 H615 H 0.03370 0.61009 0.09919
 C616 C 0.35739 1.11762 0.88563
 C617 C 0.38104 1.13929 0.85586
 C618 C 0.42395 1.13413 0.85350
 C619 C 0.44373 1.10751 0.87992
 C620 C 0.42108 1.08535 0.90934
 C621 C 0.37745 1.08994 0.91210
 C622 C 0.31396 1.12212 0.88890
 C623 C 0.29081 1.09933 0.91695
 C624 C 0.31024 1.07130 0.94178
 C625 C 0.35301 1.06641 0.93930
 H626 H 0.29740 1.14309 0.86981
 H627 H 0.25759 1.10310 0.91906
 H628 H 0.29207 1.05306 0.96294
 H629 H 0.36641 1.04345 0.95821
 H630 H 0.44216 1.15025 0.83049
 H631 H 0.47698 1.10383 0.87711
 C632 C 0.40791 0.84920 1.10343
 C633 C 0.37172 0.86458 1.12421
 C634 C 0.36514 0.90603 1.12700
 C635 C 0.39270 0.93227 1.10854
 C636 C 0.42836 0.91829 1.08684
 C637 C 0.43656 0.87620 1.08438
 C638 C 0.41650 0.80760 1.10172
 C639 C 0.45215 0.79268 1.08132
 C640 C 0.47961 0.81873 1.06197
 C641 C 0.47180 0.85997 1.06289
 H642 H 0.39603 0.78632 1.11647
 H643 H 0.45840 0.76070 1.08034
 H644 H 0.50692 0.80688 1.04563
 H645 H 0.49354 0.87841 1.04611
 H646 H 0.33770 0.91834 1.14283
 H647 H 0.38579 0.96412 1.11115
 C648 C 0.64464 1.15952 1.05426
 C649 C 0.66406 1.14207 1.08873
 C650 C 0.65698 1.10246 1.09784
 C651 C 0.62920 1.07921 1.07755
 C652 C 0.60588 1.09028 1.04297
 C653 C 0.61241 1.13031 1.02217
 C654 C 0.65066 1.20988 1.04708
 C655 C 0.62908 1.24071 1.01214
 C656 C 0.59443 1.22779 0.97282
 C657 C 0.57861 1.17937 0.96651
 H658 H 0.67325 1.22511 1.06490
 H659 H 0.61040 1.23553 0.99048
 H660 H 0.57837 1.24865 0.94789
 H661 H 0.55543 1.17455 0.94284
 H662 H 0.67158 1.08893 1.12437
 H663 H 0.62564 1.04979 1.09140
 C664 C 0.60917 0.83810 0.88439
 C665 C 0.64262 0.85110 0.85864
 C666 C 0.64878 0.89227 0.85349
 C667 C 0.62364 0.92043 0.87430
 C668 C 0.59121 0.90859 0.90092
 C669 C 0.58363 0.86706 0.90640
 C670 C 0.60040 0.79698 0.88865
 C671 C 0.56859 0.78449 0.91546
 C672 C 0.54498 0.81255 0.93847
 C673 C 0.55228 0.85342 0.93415
 H674 H 0.61772 0.77418 0.87110
 H675 H 0.56240 0.75283 0.91860
 H676 H 0.52081 0.80258 0.95975
 H677 H 0.53339 0.87380 0.95319
 H678 H 0.67431 0.90294 0.83430
 H679 H 0.62994 0.95198 0.86990
   
