data_POSCAR
  _audit_creation_date              2014-09-24
  _audit_creation_method            'ToBaCCo'
  _symmetry_space_group_name_H-M    'P1'
  _symmetry_Int_Tables_number       1
  _symmetry_cell_setting            triclinic
  loop_
  _symmetry_equiv_pos_as_xyz
 x,y,z
_cell_length_a 30.0078
_cell_length_b 30.0622
_cell_length_c 29.6744
_cell_angle_alpha 89.682800
_cell_angle_beta 90.001700
_cell_angle_gamma 89.907200
loop_
  _atom_site_label
  _atom_site_type_symbol
  _atom_site_fract_x
  _atom_site_fract_y
  _atom_site_fract_z
C1 C -0.12034 0.31823 -0.00344
 C2 C -0.09827 0.32519 0.03739
 C3 C -0.05220 0.33284 0.03730
 C4 C -0.02677 0.32851 -0.00261
 C5 C -0.05009 0.32062 -0.04332
 C6 C -0.09673 0.31675 -0.04401
 C7 C 0.02360 0.32809 -0.00099
 C8 C 0.04943 0.33086 -0.04087
 C9 C 0.09558 0.32358 -0.03989
 C10 C 0.11718 0.31763 0.00135
 C11 C 0.09303 0.31689 0.04148
 C12 C 0.04655 0.32094 0.04020
 H13 H -0.15599 0.31218 -0.00343
 H14 H -0.03647 0.34043 0.06893
 H15 H -0.03249 0.31527 -0.07444
 H16 H 0.03418 0.33701 -0.07318
 H17 H 0.15283 0.31171 0.00206
 H18 H 0.02895 0.31619 0.07146
 C19 C 0.38089 0.81864 0.49881
 C20 C 0.40255 0.82545 0.53982
 C21 C 0.44868 0.83279 0.54045
 C22 C 0.47440 0.82933 0.50060
 C23 C 0.45141 0.82139 0.45971
 C24 C 0.40496 0.81716 0.45866
 C25 C 0.52474 0.82988 0.50204
 C26 C 0.55008 0.83378 0.46196
 C27 C 0.59616 0.82648 0.46209
 C28 C 0.61835 0.81986 0.50289
 C29 C 0.59478 0.81857 0.54340
 C30 C 0.54821 0.82248 0.54287
 H31 H 0.34526 0.81265 0.49836
 H32 H 0.46404 0.83949 0.57252
 H33 H 0.46903 0.81617 0.42858
 H34 H 0.53444 0.84073 0.43002
 H35 H 0.65400 0.81390 0.50294
 H36 H 0.53091 0.81747 0.57429
 C37 C 1.11986 0.68300 -0.00122
 C38 C 1.09829 0.67688 0.04012
 C39 C 1.05215 0.66922 0.04088
 C40 C 1.02636 0.67209 0.00102
 C41 C 1.04923 0.67952 -0.04012
 C42 C 1.09576 0.68367 -0.04151
 C43 C 0.97601 0.67141 0.00263
 C44 C 0.95055 0.66704 -0.03729
 C45 C 0.90445 0.67425 -0.03717
 C46 C 0.88235 0.68110 0.00354
 C47 C 0.90601 0.68283 0.04395
 C48 C 0.95260 0.67913 0.04337
 H49 H 1.15550 0.68906 -0.00189
 H50 H 1.03667 0.66263 0.07296
 H51 H 1.03133 0.68438 -0.07119
 H52 H 0.96607 0.65985 -0.06915
 H53 H 0.84668 0.68697 0.00356
 H54 H 0.96992 0.68453 0.07465
 C55 C 0.61963 0.18046 0.49717
 C56 C 0.59749 0.17378 0.53798
 C57 C 0.55144 0.16633 0.53811
 C58 C 0.52607 0.17016 0.49803
 C59 C 0.54949 0.17764 0.45720
 C60 C 0.59604 0.18169 0.45667
 C61 C 0.47573 0.17055 0.49948
 C62 C 0.45003 0.16711 0.45961
 C63 C 0.40385 0.17431 0.46026
 C64 C 0.38215 0.18099 0.50127
 C65 C 0.40620 0.18243 0.54144
 C66 C 0.45268 0.17833 0.54039
 H67 H 0.65524 0.18653 0.49712
 H68 H 0.53586 0.15934 0.57005
 H69 H 0.53216 0.18260 0.42579
 H70 H 0.46541 0.16054 0.42752
 H71 H 0.34650 0.18689 0.50174
 H72 H 0.47025 0.18351 0.57154
 C73 C 0.68217 -0.11844 0.00155
 C74 C 0.67645 -0.09548 0.04197
 C75 C 0.66887 -0.04942 0.04090
 C76 C 0.67156 -0.02496 0.00005
 C77 C 0.67824 -0.04933 -0.04020
 C78 C 0.68240 -0.09577 -0.03956
 C79 C 0.67149 0.02543 -0.00007
 C80 C 0.66878 0.04990 -0.04092
 C81 C 0.67621 0.09596 -0.04196
 C82 C 0.68178 0.11890 -0.00153
 C83 C 0.68211 0.09622 0.03957
 C84 C 0.67810 0.04979 0.04019
 H85 H 0.68825 -0.15402 0.00214
 H86 H 0.66255 -0.03308 0.07243
 H87 H 0.68243 -0.03295 -0.07223
 H88 H 0.66256 0.03357 -0.07247
 H89 H 0.68775 0.15448 -0.00210
 H90 H 0.68236 0.03339 0.07222
 C91 C 0.18155 0.38127 0.50201
 C92 C 0.17709 0.40436 0.54237
 C93 C 0.17003 0.45044 0.54154
 C94 C 0.17090 0.47486 0.50048
 C95 C 0.17576 0.45018 0.46012
 C96 C 0.18042 0.40379 0.46086
 C97 C 0.17087 0.52538 0.50001
 C98 C 0.16988 0.54979 0.45895
 C99 C 0.17693 0.59585 0.45807
 C100 C 0.18147 0.61895 0.49843
 C101 C 0.18038 0.59644 0.53961
 C102 C 0.17576 0.55005 0.54035
 H103 H 0.18765 0.34571 0.50269
 H104 H 0.16559 0.46648 0.57351
 H105 H 0.17805 0.46617 0.42774
 H106 H 0.16536 0.53374 0.42702
 H107 H 0.18753 0.65450 0.49773
 H108 H 0.17809 0.53405 0.57272
 C109 C 0.31727 1.11821 0.00109
 C110 C 0.31586 1.09392 0.04126
 C111 C 0.32011 1.04758 0.04027
 C112 C 0.32809 1.02487 -0.00058
 C113 C 0.33184 1.05076 -0.04050
 C114 C 0.32423 1.09689 -0.04007
 C115 C 0.32824 0.97464 -0.00197
 C116 C 0.32010 0.95187 -0.04277
 C117 C 0.31617 0.90540 -0.04377
 C118 C 0.31801 0.88127 -0.00342
 C119 C 0.32505 0.90276 0.03751
 C120 C 0.33232 0.94881 0.03794
 H121 H 0.31117 1.15378 0.00177
 H122 H 0.31491 1.02979 0.07141
 H123 H 0.33909 1.03539 -0.07238
 H124 H 0.31445 0.96983 -0.07374
 H125 H 0.31212 0.84567 -0.00359
 H126 H 0.33942 0.96404 0.06992
 C127 C 0.81883 0.61870 0.50150
 C128 C 0.82392 0.59529 0.54187
 C129 C 0.83114 0.54924 0.54107
 C130 C 0.82934 0.52517 0.50013
 C131 C 0.82358 0.55007 0.45979
 C132 C 0.81921 0.59649 0.46041
 C133 C 0.82933 0.47473 0.49986
 C134 C 0.83113 0.45065 0.45893
 C135 C 0.82389 0.40462 0.45811
 C136 C 0.81879 0.38122 0.49849
 C137 C 0.81920 0.40344 0.53959
 C138 C 0.82357 0.44984 0.54020
 H139 H 0.81277 0.65426 0.50217
 H140 H 0.83645 0.53288 0.57295
 H141 H 0.82023 0.53418 0.42761
 H142 H 0.83647 0.46701 0.42707
 H143 H 0.81275 0.34567 0.49783
 H144 H 0.82025 0.46577 0.57236
 O145 O 0.23178 0.29215 0.19977
 O146 O 0.31061 0.24736 0.28350
 O147 O 0.29208 0.23101 0.19915
 O148 O 0.25148 0.30970 0.28401
 O149 O 0.20075 0.26093 0.30598
 O150 O 0.24141 0.18200 0.22078
 O151 O 0.26022 0.19825 0.30548
 O152 O 0.18144 0.24289 0.22157
 Cu153 Cu 0.27653 0.27504 0.23944
 Cu154 Cu 0.21585 0.21612 0.26584
 C155 C 0.19380 0.27410 0.19552
 C156 C 0.29844 0.21582 0.30927
 C157 C 0.27288 0.19374 0.19476
 C158 C 0.21996 0.29829 0.31006
 O159 O 0.79551 0.74015 0.30468
 O160 O 0.75155 0.81816 0.21921
 O161 O 0.73613 0.80262 0.30472
 O162 O 0.81413 0.75927 0.22022
 O163 O 0.76452 0.70897 0.19978
 O164 O 0.68612 0.75267 0.28433
 O165 O 0.70172 0.76801 0.19890
 O166 O 0.74532 0.69049 0.28406
 Cu167 Cu 0.77938 0.78505 0.26429
 Cu168 Cu 0.71944 0.72500 0.23969
 C169 C 0.77698 0.70245 0.30951
 C170 C 0.71978 0.80579 0.19395
 C171 C 0.69833 0.78445 0.30950
 C172 C 0.80223 0.72754 0.19499
 O173 O 0.81434 0.25233 0.21442
 O174 O 0.73679 0.20797 0.29976
 O175 O 0.75585 0.18969 0.21549
 O176 O 0.79889 0.26753 0.29980
 O177 O 0.74844 0.31733 0.27920
 O178 O 0.70504 0.23899 0.19460
 O179 O 0.68657 0.25791 0.27898
 O180 O 0.76373 0.30191 0.19366
 Cu181 Cu 0.78151 0.22439 0.25948
 Cu182 Cu 0.72085 0.28400 0.23450
 C183 C 0.80168 0.28397 0.18890
 C184 C 0.69892 0.22630 0.30454
 C185 C 0.72399 0.20145 0.19001
 C186 C 0.78041 0.30516 0.30450
 O187 O 0.18991 0.75042 0.21376
 O188 O 0.26750 0.79273 0.29938
 O189 O 0.25136 0.81064 0.21434
 O190 O 0.20504 0.73385 0.29900
 O191 O 0.25449 0.68291 0.27937
 O192 O 0.30096 0.75997 0.19448
 O193 O 0.31681 0.74163 0.27984
 O194 O 0.23934 0.69955 0.19393
 Cu195 Cu 0.22352 0.77708 0.25852
 Cu196 Cu 0.28292 0.71594 0.23482
 C197 C 0.20177 0.71833 0.18886
 C198 C 0.30477 0.77348 0.30496
 C199 C 0.28329 0.79808 0.18942
 C200 C 0.22262 0.69578 0.30426
 O201 O 0.75196 0.18247 0.78135
 O202 O 0.79615 0.26043 0.69609
 O203 O 0.81419 0.24154 0.78087
 O204 O 0.73696 0.19803 0.69580
 O205 O 0.68663 0.24795 0.71583
 O206 O 0.76420 0.29174 0.80100
 O207 O 0.74567 0.31008 0.71637
 O208 O 0.70177 0.23258 0.80129
 Cu209 Cu 0.77993 0.21564 0.73650
 Cu210 Cu 0.71958 0.27565 0.76066
 C211 C 0.71994 0.19480 0.80636
 C212 C 0.77745 0.29807 0.69105
 C213 C 0.80193 0.27317 0.80611
 C214 C 0.69911 0.21616 0.69078
 O215 O 0.31023 0.75237 0.71687
 O216 O 0.23225 0.70758 0.80130
 O217 O 0.25126 0.69008 0.71672
 O218 O 0.29217 0.76889 0.80125
 O219 O 0.24115 0.81783 0.77990
 O220 O 0.20019 0.73879 0.69507
 O221 O 0.18154 0.75674 0.77980
 O222 O 0.25948 0.80140 0.69518
 Cu223 Cu 0.27653 0.72473 0.76117
 Cu224 Cu 0.21542 0.78355 0.73516
 C225 C 0.29776 0.78388 0.69116
 C226 C 0.19426 0.72562 0.80585
 C227 C 0.21959 0.70149 0.69081
 C228 C 0.27288 0.80618 0.80568
 O229 O 0.25498 0.31628 0.72055
 O230 O 0.30089 0.23887 0.80555
 O231 O 0.31732 0.25735 0.72029
 O232 O 0.23915 0.29942 0.80563
 O233 O 0.18995 0.24864 0.78541
 O234 O 0.26817 0.20645 0.70023
 O235 O 0.25155 0.18833 0.78515
 O236 O 0.20566 0.26552 0.70050
 Cu237 Cu 0.28312 0.28301 0.76515
 Cu238 Cu 0.22394 0.22205 0.74087
 C239 C 0.22319 0.30359 0.69551
 C240 C 0.28325 0.20078 0.81036
 C241 C 0.30546 0.22564 0.69496
 C242 C 0.20154 0.28076 0.81035
 O243 O 0.70507 0.76150 0.80528
 O244 O 0.74816 0.68316 0.72042
 O245 O 0.76408 0.69865 0.80565
 O246 O 0.68615 0.74266 0.72094
 O247 O 0.73608 0.79259 0.69983
 O248 O 0.81436 0.74828 0.78461
 O249 O 0.79832 0.73297 0.69951
 O250 O 0.75555 0.81083 0.78405
 Cu251 Cu 0.72077 0.71655 0.76522
 Cu252 Cu 0.78106 0.77620 0.73984
 C253 C 0.72392 0.79904 0.80976
 C254 C 0.78001 0.69529 0.69500
 C255 C 0.80203 0.71655 0.81011
 C256 C 0.69825 0.77425 0.69528
 C257 C 0.26072 0.12270 0.14139
 C258 C 0.26062 0.14060 0.09240
 C259 C 0.30583 0.11785 0.08433
 C260 C 0.30615 0.09957 0.13296
 C261 C 0.33069 0.15996 0.09941
 C262 C 0.28533 0.18290 0.10772
 C263 C 0.28560 0.16479 0.15629
 C264 C 0.33084 0.14216 0.14849
 H265 H 0.23181 0.10756 0.15903
 H266 H 0.23180 0.13984 0.06897
 H267 H 0.31485 0.06521 0.14367
 H268 H 0.35957 0.17512 0.08174
 H269 H 0.27674 0.21746 0.09761
 H270 H 0.35956 0.14310 0.17204
 C271 C 0.77188 0.62229 0.64367
 C272 C 0.76918 0.63918 0.59448
 C273 C 0.81564 0.61936 0.58530
 C274 C 0.81850 0.60211 0.63422
 C275 C 0.83790 0.66340 0.59874
 C276 C 0.79133 0.68335 0.60811
 C277 C 0.79413 0.66632 0.65697
 C278 C 0.84063 0.64665 0.64820
 H279 H 0.74456 0.60557 0.66240
 H280 H 0.73976 0.63603 0.57204
 H281 H 0.82986 0.56863 0.64526
 H282 H 0.86517 0.68011 0.57993
 H283 H 0.77995 0.71699 0.59759
 H284 H 0.86986 0.65002 0.67085
 C285 C 0.72723 0.87903 0.14228
 C286 C 0.73085 0.86242 0.09323
 C287 C 0.68418 0.88150 0.08334
 C288 C 0.68040 0.89852 0.13212
 C289 C 0.66242 0.83706 0.09675
 C290 C 0.70922 0.81782 0.10687
 C291 C 0.70552 0.83460 0.15557
 C292 C 0.65883 0.85353 0.14609
 H293 H 0.75403 0.89611 0.16126
 H294 H 0.76056 0.86610 0.07122
 H295 H 0.66837 0.93162 0.14319
 H296 H 0.63566 0.81995 0.07775
 H297 H 0.72129 0.78441 0.09675
 H298 H 0.62939 0.84957 0.16840
 C299 C 0.16159 0.35195 0.64898
 C300 C 0.18332 0.39674 0.63465
 C301 C 0.18587 0.37990 0.58576
 C302 C 0.16399 0.33562 0.59955
 C303 C 0.23251 0.36027 0.59458
 C304 C 0.23014 0.37677 0.64373
 C305 C 0.20827 0.33250 0.65740
 C306 C 0.21076 0.31585 0.60857
 H307 H 0.13258 0.34822 0.67190
 H308 H 0.17186 0.43005 0.64571
 H309 H 0.13666 0.31888 0.58103
 H310 H 0.26173 0.36378 0.57188
 H311 H 0.25752 0.39354 0.66214
 H312 H 0.22222 0.28236 0.59805
 C313 C 0.87524 0.27636 0.13832
 C314 C 0.85910 0.27183 0.08914
 C315 C 0.87800 0.31832 0.07846
 C316 C 0.89451 0.32299 0.12742
 C317 C 0.83318 0.34007 0.09065
 C318 C 0.81413 0.29346 0.10159
 C319 C 0.83044 0.29804 0.15046
 C320 C 0.84916 0.34457 0.14018
 H321 H 0.89239 0.25001 0.15815
 H322 H 0.86320 0.24181 0.06790
 H323 H 0.92745 0.33531 0.13882
 H324 H 0.81605 0.36639 0.07075
 H325 H 0.78085 0.28113 0.09123
 H326 H 0.84477 0.37432 0.16173
 C327 C 0.37222 0.77623 0.64213
 C328 C 0.35713 0.77211 0.59261
 C329 C 0.37668 0.81846 0.58261
 C330 C 0.39211 0.82273 0.63192
 C331 C 0.33177 0.84049 0.59394
 C332 C 0.31207 0.79401 0.60415
 C333 C 0.32731 0.79821 0.65339
 C334 C 0.34667 0.84462 0.64382
 H335 H 0.38874 0.74961 0.66216
 H336 H 0.36152 0.74221 0.57125
 H337 H 0.42506 0.83471 0.64365
 H338 H 0.31536 0.86705 0.57376
 H339 H 0.27893 0.78203 0.59293
 H340 H 0.34204 0.87430 0.66542
 C341 C 0.12772 0.72688 0.13917
 C342 C 0.14300 0.73027 0.08957
 C343 C 0.12283 0.68408 0.08058
 C344 C 0.10718 0.68055 0.12995
 C345 C 0.16739 0.66150 0.09252
 C346 C 0.18773 0.70783 0.10177
 C347 C 0.17227 0.70439 0.15105
 C348 C 0.15227 0.65816 0.14246
 H349 H 0.11155 0.75394 0.15856
 H350 H 0.13913 0.76004 0.06759
 H351 H 0.07416 0.66921 0.14227
 H352 H 0.18353 0.63448 0.07305
 H353 H 0.22108 0.71921 0.09043
 H354 H 0.15642 0.62866 0.16473
 C355 C 0.62567 0.22396 0.63987
 C356 C 0.64193 0.22760 0.59062
 C357 C 0.62255 0.18119 0.58108
 C358 C 0.60595 0.17740 0.63010
 C359 C 0.66712 0.15919 0.59392
 C360 C 0.68665 0.20573 0.60368
 C361 C 0.67022 0.20199 0.65262
 C362 C 0.65103 0.15553 0.64351
 H363 H 0.60876 0.25077 0.65898
 H364 H 0.63811 0.25731 0.56854
 H365 H 0.57274 0.16557 0.64137
 H366 H 0.68396 0.13244 0.57467
 H367 H 0.72007 0.21757 0.59305
 H368 H 0.65508 0.12604 0.66582
 C369 C 0.65888 0.14694 0.85381
 C370 C 0.68059 0.10198 0.86789
 C371 C 0.68401 0.11899 0.91670
 C372 C 0.66211 0.16340 0.90318
 C373 C 0.73064 0.13815 0.90709
 C374 C 0.72738 0.12155 0.85802
 C375 C 0.70554 0.16595 0.84462
 C376 C 0.70887 0.18272 0.89335
 H377 H 0.62956 0.15086 0.83133
 H378 H 0.66879 0.06886 0.85675
 H379 H 0.63515 0.18045 0.92203
 H380 H 0.76024 0.13452 0.92927
 H381 H 0.75438 0.10452 0.83920
 H382 H 0.72069 0.21614 0.90356
 C383 C 0.22972 0.62294 0.35650
 C384 C 0.23217 0.63971 0.40554
 C385 C 0.18558 0.62020 0.41458
 C386 C 0.18297 0.60309 0.36579
 C387 C 0.16358 0.66443 0.40057
 C388 C 0.21030 0.68408 0.39133
 C389 C 0.20775 0.66715 0.34260
 C390 C 0.16112 0.64781 0.35123
 H391 H 0.25710 0.60601 0.33814
 H392 H 0.26144 0.63631 0.42820
 H393 H 0.17155 0.56974 0.35490
 H394 H 0.13626 0.68131 0.41905
 H395 H 0.22170 0.71762 0.40162
 H396 H 0.13205 0.65144 0.32836
 C397 C 0.33113 0.85778 0.85135
 C398 C 0.30656 0.90059 0.86674
 C399 C 0.30645 0.88255 0.91549
 C400 C 0.33125 0.84026 0.90054
 C401 C 0.26117 0.85993 0.90781
 C402 C 0.26106 0.87756 0.85870
 C403 C 0.28583 0.83528 0.84393
 C404 C 0.28581 0.81745 0.89259
 H405 H 0.35971 0.85658 0.82765
 H406 H 0.31524 0.93474 0.85546
 H407 H 0.36023 0.82502 0.91807
 H408 H 0.23242 0.86090 0.93133
 H409 H 0.23207 0.89269 0.84111
 H410 H 0.27727 0.78298 0.90295
 C411 C 0.84086 0.35362 0.35160
 C412 C 0.81855 0.39809 0.36577
 C413 C 0.81571 0.38062 0.41461
 C414 C 0.83815 0.33666 0.40098
 C415 C 0.76933 0.36082 0.40529
 C416 C 0.77201 0.37792 0.35618
 C417 C 0.79445 0.33398 0.34268
 C418 C 0.79166 0.31672 0.39147
 H419 H 0.87013 0.35039 0.32897
 H420 H 0.82978 0.43161 0.35485
 H421 H 0.86546 0.31988 0.41975
 H422 H 0.73987 0.36384 0.42771
 H423 H 0.74465 0.39473 0.33750
 H424 H 0.78041 0.28303 0.40183
 C425 C 0.12717 0.27243 0.85961
 C426 C 0.14219 0.26969 0.90931
 C427 C 0.12166 0.31590 0.91766
 C428 C 0.10629 0.31879 0.86819
 C429 C 0.16615 0.33844 0.90571
 C430 C 0.18684 0.29209 0.89715
 C431 C 0.17165 0.29493 0.84776
 C432 C 0.15130 0.34120 0.85569
 H433 H 0.11129 0.24509 0.84045
 H434 H 0.13833 0.24021 0.93168
 H435 H 0.07314 0.32993 0.85597
 H436 H 0.18194 0.36572 0.92502
 H437 H 0.22019 0.28093 0.90883
 H438 H 0.15539 0.37046 0.83310
 C439 C 0.62472 0.77648 0.36015
 C440 C 0.64088 0.77278 0.40944
 C441 C 0.62129 0.81916 0.41900
 C442 C 0.60479 0.82302 0.36995
 C443 C 0.66580 0.84121 0.40631
 C444 C 0.68554 0.79471 0.39652
 C445 C 0.66921 0.79851 0.34754
 C446 C 0.64981 0.84495 0.35669
 H447 H 0.60797 0.74970 0.34095
 H448 H 0.63713 0.74304 0.43146
 H449 H 0.57155 0.83484 0.35864
 H450 H 0.68248 0.86795 0.42564
 H451 H 0.71898 0.78287 0.40721
 H452 H 0.65379 0.87447 0.33444
 C453 C 0.85035 0.65573 0.85784
 C454 C 0.89555 0.67743 0.87065
 C455 C 0.87925 0.68147 0.91971
 C456 C 0.83457 0.65964 0.90747
 C457 C 0.85989 0.72794 0.90961
 C458 C 0.87585 0.72406 0.86033
 C459 C 0.83118 0.70226 0.84817
 C460 C 0.81506 0.70624 0.89716
 H461 H 0.84612 0.62620 0.83598
 H462 H 0.92869 0.66539 0.85940
 H463 H 0.81781 0.63304 0.92722
 H464 H 0.86388 0.75770 0.93122
 H465 H 0.89268 0.75072 0.84071
 H466 H 0.78173 0.71829 0.90782
 C467 C 0.34785 0.15513 0.35636
 C468 C 0.39322 0.17708 0.36815
 C469 C 0.37792 0.18131 0.41751
 C470 C 0.33307 0.15922 0.40629
 C471 C 0.35812 0.22763 0.40759
 C472 C 0.37310 0.22356 0.35801
 C473 C 0.32825 0.20153 0.34688
 C474 C 0.31314 0.20568 0.39617
 H475 H 0.34329 0.12546 0.33477
 H476 H 0.42621 0.16515 0.35635
 H477 H 0.31683 0.13263 0.42650
 H478 H 0.36244 0.25752 0.42895
 H479 H 0.38943 0.25021 0.33795
 H480 H 0.27998 0.21762 0.40748
 C481 C 0.73576 0.87135 0.86072
 C482 C 0.69047 0.89479 0.86882
 C483 C 0.69144 0.87844 0.91811
 C484 C 0.73653 0.85531 0.91032
 C485 C 0.66642 0.83572 0.90505
 C486 C 0.66562 0.85160 0.85526
 C487 C 0.71077 0.82863 0.84776
 C488 C 0.71168 0.81241 0.89698
 H489 H 0.76445 0.88589 0.84222
 H490 H 0.68165 0.92872 0.85685
 H491 H 0.76571 0.85700 0.93325
 H492 H 0.63776 0.82125 0.92366
 H493 H 0.63657 0.84974 0.83220
 H494 H 0.72042 0.77826 0.90833
 C495 C 0.23222 0.37101 0.36038
 C496 C 0.18689 0.39414 0.36912
 C497 C 0.18874 0.37797 0.41845
 C498 C 0.23389 0.35517 0.41001
 C499 C 0.16384 0.33503 0.40598
 C500 C 0.16215 0.35072 0.35615
 C501 C 0.20734 0.32808 0.34802
 C502 C 0.20914 0.31204 0.39727
 H503 H 0.26051 0.38567 0.34135
 H504 H 0.17762 0.42794 0.35714
 H505 H 0.26340 0.35715 0.43247
 H506 H 0.13559 0.32043 0.42512
 H507 H 0.13276 0.34855 0.33356
 H508 H 0.21835 0.27800 0.40859
 C509 C 0.27573 0.12640 0.85964
 C510 C 0.32230 0.10646 0.86995
 C511 C 0.31758 0.12162 0.91927
 C512 C 0.27116 0.14122 0.90917
 C513 C 0.33964 0.16652 0.90796
 C514 C 0.34416 0.15189 0.85805
 C515 C 0.29767 0.17131 0.84837
 C516 C 0.29306 0.18626 0.89761
 H517 H 0.24926 0.10999 0.83960
 H518 H 0.33445 0.07374 0.85790
 H519 H 0.24098 0.13678 0.93037
 H520 H 0.36607 0.18286 0.92811
 H521 H 0.37405 0.15662 0.83654
 H522 H 0.28088 0.21929 0.90878
 C523 C 0.76605 0.62966 0.36053
 C524 C 0.81161 0.60675 0.36880
 C525 C 0.81026 0.62263 0.41806
 C526 C 0.76490 0.64524 0.41008
 C527 C 0.83478 0.66578 0.40503
 C528 C 0.83593 0.65038 0.35527
 C529 C 0.79051 0.67282 0.34760
 C530 C 0.78923 0.68858 0.39677
 H531 H 0.73761 0.61492 0.34197
 H532 H 0.82092 0.57306 0.35689
 H533 H 0.73568 0.64295 0.43291
 H534 H 0.86318 0.68043 0.42373
 H535 H 0.86502 0.65285 0.33228
 H536 H 0.78000 0.72251 0.40802
 C537 C 0.14398 0.66690 0.85372
 C538 C 0.16151 0.66836 0.90283
 C539 C 0.11864 0.69262 0.91729
 C540 C 0.10059 0.69091 0.86867
 C541 C 0.14038 0.73805 0.90802
 C542 C 0.18344 0.71397 0.89328
 C543 C 0.16559 0.71237 0.84473
 C544 C 0.12271 0.73656 0.85906
 H545 H 0.14575 0.63779 0.83094
 H546 H 0.17740 0.64021 0.92114
 H547 H 0.06656 0.68128 0.85787
 H548 H 0.13885 0.76733 0.93061
 H549 H 0.21779 0.72344 0.90316
 H550 H 0.10689 0.76474 0.84074
 C551 C 0.64714 0.16720 0.35017
 C552 C 0.66377 0.16716 0.39961
 C553 C 0.62099 0.19169 0.41389
 C554 C 0.60388 0.19154 0.36494
 C555 C 0.64368 0.23695 0.40622
 C556 C 0.68663 0.21260 0.39170
 C557 C 0.66968 0.21251 0.34280
 C558 C 0.62690 0.23701 0.35695
 H559 H 0.64890 0.13865 0.32668
 H560 H 0.67877 0.13830 0.41755
 H561 H 0.56977 0.18278 0.35364
 H562 H 0.64210 0.26563 0.42958
 H563 H 0.72094 0.22128 0.40247
 H564 H 0.61187 0.26591 0.33910
 C565 C 0.87387 0.26216 0.85878
 C566 C 0.89690 0.30761 0.86648
 C567 C 0.87967 0.30725 0.91542
 C568 C 0.85700 0.26201 0.90806
 C569 C 0.83692 0.33189 0.90088
 C570 C 0.85365 0.33200 0.85146
 C571 C 0.83111 0.28673 0.84437
 C572 C 0.81407 0.28646 0.89324
 H573 H 0.88892 0.23333 0.84117
 H574 H 0.93092 0.31641 0.85484
 H575 H 0.85848 0.23319 0.93158
 H576 H 0.82183 0.36070 0.91849
 H577 H 0.85194 0.36064 0.82776
 H578 H 0.77974 0.27776 0.90400
 C579 C 0.35627 0.83171 0.35100
 C580 C 0.33853 0.83198 0.40003
 C581 C 0.38073 0.80708 0.41560
 C582 C 0.39894 0.80699 0.36703
 C583 C 0.35782 0.76201 0.40798
 C584 C 0.31544 0.78675 0.39215
 C585 C 0.33350 0.78661 0.34366
 C586 C 0.37569 0.76171 0.35908
 H587 H 0.35534 0.86024 0.32711
 H588 H 0.32340 0.86100 0.41726
 H589 H 0.43334 0.81542 0.35631
 H590 H 0.35858 0.73338 0.43175
 H591 H 0.28082 0.77842 0.40223
 H592 H 0.39082 0.73265 0.34191
 C593 C 0.34435 0.84700 0.14212
 C594 C 0.34046 0.83207 0.09227
 C595 C 0.31819 0.87679 0.08043
 C596 C 0.32222 0.89223 0.12970
 C597 C 0.27185 0.85700 0.09017
 C598 C 0.29397 0.81214 0.10221
 C599 C 0.29792 0.82740 0.15141
 C600 C 0.27572 0.87213 0.13962
 H601 H 0.37405 0.84256 0.16399
 H602 H 0.36723 0.81580 0.07245
 H603 H 0.33398 0.92520 0.14134
 H604 H 0.24192 0.86119 0.06854
 H605 H 0.28220 0.77899 0.09109
 H606 H 0.24890 0.88853 0.15926
 C607 C 0.76627 0.37063 0.63967
 C608 C 0.81174 0.39350 0.63123
 C609 C 0.81038 0.37739 0.58204
 C610 C 0.76510 0.35482 0.59020
 C611 C 0.83505 0.33430 0.59525
 C612 C 0.83623 0.34994 0.64494
 C613 C 0.79089 0.32754 0.65280
 C614 C 0.78960 0.31154 0.60369
 H615 H 0.73781 0.38547 0.65820
 H616 H 0.82095 0.42723 0.64300
 H617 H 0.73584 0.35698 0.56739
 H618 H 0.86347 0.31956 0.57658
 H619 H 0.86535 0.34759 0.66789
 H620 H 0.78048 0.27755 0.59263
 C621 C 0.71122 0.18806 0.10289
 C622 C 0.73622 0.14522 0.08939
 C623 C 0.69121 0.12199 0.08187
 C624 C 0.66604 0.16465 0.09510
 C625 C 0.69063 0.10563 0.13117
 C626 C 0.73584 0.12917 0.13898
 C627 C 0.71070 0.17184 0.15211
 C628 C 0.66564 0.14877 0.14489
 H629 H 0.71968 0.22223 0.09148
 H630 H 0.76527 0.14361 0.06628
 H631 H 0.63719 0.17906 0.07667
 H632 H 0.68207 0.07168 0.14318
 H633 H 0.76473 0.11469 0.15730
 H634 H 0.63672 0.15057 0.16814
 C635 C 0.16194 0.64917 0.64450
 C636 C 0.16355 0.66506 0.59473
 C637 C 0.18864 0.62220 0.58207
 C638 C 0.18686 0.60583 0.63134
 C639 C 0.23369 0.64502 0.59061
 C640 C 0.20876 0.68806 0.60354
 C641 C 0.20704 0.67182 0.65273
 C642 C 0.23210 0.62897 0.64017
 H643 H 0.13255 0.65121 0.66711
 H644 H 0.13524 0.67972 0.57566
 H645 H 0.17775 0.57199 0.64323
 H646 H 0.26321 0.64317 0.56814
 H647 H 0.21780 0.72216 0.59235
 H648 H 0.26045 0.61426 0.65914
 C649 C 0.87435 0.73864 0.14263
 C650 C 0.89795 0.69331 0.13554
 C651 C 0.88097 0.69297 0.08654
 C652 C 0.85772 0.73808 0.09331
 C653 C 0.83845 0.66817 0.10115
 C654 C 0.85494 0.66870 0.15063
 C655 C 0.83182 0.71385 0.15709
 C656 C 0.81502 0.71345 0.10816
 H657 H 0.88896 0.76779 0.15999
 H658 H 0.93215 0.68493 0.14704
 H659 H 0.85902 0.76661 0.06943
 H660 H 0.82385 0.63905 0.08372
 H661 H 0.85345 0.64030 0.17463
 H662 H 0.78064 0.72176 0.09713
 C663 C 0.35728 0.16752 0.64891
 C664 C 0.33969 0.16746 0.59982
 C665 C 0.38188 0.19236 0.58449
 C666 C 0.39995 0.19224 0.63311
 C667 C 0.35887 0.23744 0.59221
 C668 C 0.31650 0.21269 0.60780
 C669 C 0.33440 0.21262 0.65636
 C670 C 0.37659 0.23753 0.64118
 H671 H 0.35632 0.13890 0.67269
 H672 H 0.32466 0.13853 0.58243
 H673 H 0.43434 0.18371 0.64388
 H674 H 0.35966 0.26616 0.56856
 H675 H 0.28189 0.22113 0.59765
 H676 H 0.39161 0.26649 0.65851
 C677 C 0.14248 0.33279 0.14850
 C678 C 0.15986 0.33193 0.09934
 C679 C 0.11726 0.30742 0.08479
 C680 C 0.09939 0.30846 0.13346
 C681 C 0.13966 0.26214 0.09357
 C682 C 0.18243 0.28648 0.10835
 C683 C 0.16474 0.28746 0.15698
 C684 C 0.12214 0.26297 0.14257
 H685 H 0.14395 0.36170 0.17155
 H686 H 0.17524 0.36039 0.08116
 H687 H 0.06514 0.31762 0.14408
 H688 H 0.13838 0.23311 0.07065
 H689 H 0.21686 0.27744 0.09825
 H690 H 0.10676 0.23446 0.16068
 C691 C 0.64604 0.83324 0.64977
 C692 C 0.66254 0.83322 0.60029
 C693 C 0.61982 0.80864 0.58616
 C694 C 0.60284 0.80885 0.63515
 C695 C 0.64271 0.76341 0.59382
 C696 C 0.68560 0.78782 0.60820
 C697 C 0.66879 0.78796 0.65714
 C698 C 0.62606 0.76340 0.64314
 H699 H 0.64775 0.86182 0.67322
 H700 H 0.67738 0.86208 0.58228
 H701 H 0.56871 0.81760 0.64650
 H702 H 0.64118 0.73470 0.57051
 H703 H 0.71991 0.77913 0.59735
 H704 H 0.61120 0.73451 0.66107
   
