data_POSCAR
  _audit_creation_date              2014-09-24
  _audit_creation_method            'ToBaCCo'
  _symmetry_space_group_name_H-M    'P1'
  _symmetry_Int_Tables_number       1
  _symmetry_cell_setting            triclinic
  loop_
  _symmetry_equiv_pos_as_xyz
 x,y,z
_cell_length_a 39.9825
_cell_length_b 39.9528
_cell_length_c 40.4026
_cell_angle_alpha 89.972100
_cell_angle_beta 89.958000
_cell_angle_gamma 89.997600
loop_
  _atom_site_label
  _atom_site_type_symbol
  _atom_site_fract_x
  _atom_site_fract_y
  _atom_site_fract_z
N1 N 0.30417 0.39782 1.37422
 N2 N 0.30627 0.37386 1.39649
 C3 C 0.28055 0.37673 1.41788
 C4 C 0.26166 0.40393 1.40840
 C5 C 0.27708 0.41678 1.38067
 H6 H 0.27547 0.35997 1.43831
 H7 H 0.26882 0.43777 1.36587
 Cu8 Cu 0.34159 0.34048 1.39426
 Cu9 Cu 0.33565 0.40167 1.33754
 Cu10 Cu 0.39907 0.34244 1.33377
 N11 N 0.37721 0.30741 1.39208
 N12 N 0.39976 0.30844 1.36835
 C13 C 0.42071 0.28226 1.37169
 C14 C 0.41066 0.26410 1.39893
 C15 C 0.38303 0.28047 1.41134
 H16 H 0.44110 0.27639 1.35507
 H17 H 0.36794 0.27285 1.43225
 N18 N 0.39414 0.37877 1.30110
 N19 N 0.36995 0.40128 1.30241
 C20 C 0.37259 0.42177 1.27600
 C21 C 0.39966 0.41157 1.25748
 C22 C 0.41278 0.38437 1.27387
 H23 H 0.35572 0.44211 1.27024
 H24 H 0.43387 0.36937 1.26606
 H25 H 0.34815 0.35155 1.33527
 H26 H 0.37525 0.37894 1.36132
 N27 N 1.19295 0.60480 0.88030
 N28 N 1.19067 0.62827 0.90301
 C29 C 1.21687 0.62558 0.92386
 C30 C 1.23623 0.59899 0.91354
 C31 C 1.22053 0.58636 0.88592
 H32 H 1.22197 0.64213 0.94442
 H33 H 1.22907 0.56589 0.87057
 Cu34 Cu 1.15461 0.66103 0.90220
 Cu35 Cu 1.16136 0.60107 0.84395
 Cu36 Cu 1.09833 0.66036 0.84007
 N37 N 1.11954 0.69466 0.89885
 N38 N 1.09763 0.69430 0.87456
 C39 C 1.07712 0.72089 0.87755
 C40 C 1.08681 0.73860 0.90517
 C41 C 1.11375 0.72156 0.91813
 H42 H 1.05725 0.72727 0.86052
 H43 H 1.12846 0.72868 0.93946
 N44 N 1.10311 0.62405 0.80746
 N45 N 1.12710 0.60137 0.80900
 C46 C 1.12434 0.58064 0.78284
 C47 C 1.09738 0.59084 0.76421
 C48 C 1.08445 0.61833 0.78028
 H49 H 1.14102 0.56007 0.77733
 H50 H 1.06343 0.63336 0.77236
 H51 H 1.14924 0.65145 0.84283
 H52 H 1.12139 0.62350 0.86769
 N53 N 0.69301 -0.10512 0.11966
 N54 N 0.69077 -0.12857 0.09693
 C55 C 0.71705 -0.12590 0.07614
 C56 C 0.73641 -0.09934 0.08652
 C57 C 0.72063 -0.08672 0.11411
 H58 H 0.72218 -0.14243 0.05556
 H59 H 0.72911 -0.06624 0.12946
 Cu60 Cu 0.65463 -0.16124 0.09759
 Cu61 Cu 0.66120 -0.10128 0.15585
 Cu62 Cu 0.59808 -0.16043 0.15961
 N63 N 0.61956 -0.19487 0.10098
 N64 N 0.59754 -0.19445 0.12521
 C65 C 0.57707 -0.22107 0.12225
 C66 C 0.58689 -0.23885 0.09472
 C67 C 0.61387 -0.22183 0.08177
 H68 H 0.55713 -0.22741 0.13925
 H69 H 0.62867 -0.22901 0.06051
 N70 N 0.60270 -0.12403 0.19214
 N71 N 0.62675 -0.10142 0.19065
 C72 C 0.62389 -0.08062 0.21675
 C73 C 0.59680 -0.09071 0.23528
 C74 C 0.58389 -0.11821 0.21923
 H75 H 0.64060 -0.06010 0.22230
 H76 H 0.56280 -0.13318 0.22710
 H77 H 0.64903 -0.15166 0.15694
 H78 H 0.62132 -0.12365 0.13200
 N79 N -0.19437 1.10216 -0.37441
 N80 N -0.19153 1.12543 -0.39730
 C81 C -0.21722 1.12262 -0.41869
 C82 C -0.23688 1.09620 -0.40861
 C83 C -0.22188 1.08373 -0.38050
 H84 H -0.22175 1.13895 -0.43957
 H85 H -0.23073 1.06331 -0.36524
 Cu86 Cu -0.15554 1.15817 -0.39621
 Cu87 Cu -0.16320 1.09855 -0.33762
 Cu88 Cu -0.09981 1.15754 -0.33378
 N89 N -0.12044 1.19172 -0.39284
 N90 N -0.09866 1.19131 -0.36845
 C91 C -0.07811 1.21787 -0.37135
 C92 C -0.08764 1.23563 -0.39901
 C93 C -0.11454 1.21863 -0.41210
 H94 H -0.05836 1.22424 -0.35419
 H95 H -0.12915 1.22581 -0.43348
 N96 N -0.10502 1.12148 -0.30094
 N97 N -0.12923 1.09901 -0.30230
 C98 C -0.12678 1.07859 -0.27582
 C99 C -0.09979 1.08880 -0.25722
 C100 C -0.08655 1.11594 -0.27362
 H101 H -0.14367 1.05825 -0.27011
 H102 H -0.06545 1.13090 -0.26579
 H103 H -0.15079 1.14876 -0.33675
 H104 H -0.12298 1.12048 -0.36121
 N105 N 0.69444 0.60540 0.62129
 N106 N 0.69313 0.62961 0.59923
 C107 C 0.71933 0.62660 0.57839
 C108 C 0.73769 0.59905 0.58804
 C109 C 0.72139 0.58617 0.61524
 H110 H 0.72514 0.64353 0.55830
 H111 H 0.72909 0.56497 0.63004
 Cu112 Cu 0.65808 0.66340 0.60117
 Cu113 Cu 0.66246 0.60167 0.65746
 Cu114 Cu 0.59956 0.66135 0.66092
 N115 N 0.62232 0.69642 0.60299
 N116 N 0.59946 0.69542 0.62642
 C117 C 0.57846 0.72152 0.62269
 C118 C 0.58879 0.73960 0.59551
 C119 C 0.61661 0.72322 0.58355
 H120 H 0.55776 0.72734 0.63894
 H121 H 0.63191 0.73077 0.56275
 N122 N 0.60390 0.62488 0.69353
 N123 N 0.62784 0.60211 0.69217
 C124 C 0.62480 0.58141 0.71835
 C125 C 0.59774 0.59171 0.73680
 C126 C 0.58501 0.61924 0.72060
 H127 H 0.64139 0.56082 0.72402
 H128 H 0.56401 0.63436 0.72839
 H129 H 0.62343 0.62508 0.63324
 H130 H 0.65040 0.65194 0.65999
 N131 N 0.80499 0.39785 0.12699
 N132 N 0.80706 0.37404 0.10459
 C133 C 0.78128 0.37705 0.08333
 C134 C 0.76235 0.40414 0.09301
 C135 C 0.77789 0.41682 0.12073
 H136 H 0.77615 0.36042 0.06285
 H137 H 0.76964 0.43774 0.13562
 Cu138 Cu 0.84237 0.34065 0.10657
 Cu139 Cu 0.83656 0.40147 0.16360
 Cu140 Cu 0.89984 0.34204 0.16698
 N141 N 0.87783 0.30741 0.10854
 N142 N 0.90036 0.30820 0.13225
 C143 C 0.92115 0.28191 0.12880
 C144 C 0.91102 0.26390 0.10152
 C145 C 0.88353 0.28053 0.08920
 H146 H 0.94150 0.27584 0.14536
 H147 H 0.86840 0.27307 0.06830
 N148 N 0.89506 0.37823 0.19979
 N149 N 0.87093 0.40082 0.19861
 C150 C 0.87368 0.42119 0.22508
 C151 C 0.90075 0.41083 0.24349
 C152 C 0.91376 0.38365 0.22698
 H153 H 0.85689 0.44156 0.23096
 H154 H 0.93481 0.36856 0.23469
 H155 H 0.87611 0.37879 0.13969
 H156 H 0.84893 0.35130 0.16562
 N157 N 0.30564 0.10164 0.87351
 N158 N 0.30833 0.12476 0.89653
 C159 C 0.28261 0.12169 0.91789
 C160 C 0.26308 0.09526 0.90764
 C161 C 0.27820 0.08305 0.87947
 H162 H 0.27796 0.13787 0.93885
 H163 H 0.26945 0.06271 0.86408
 Cu164 Cu 0.34416 0.15769 0.89565
 Cu165 Cu 0.33688 0.09842 0.83670
 Cu166 Cu 0.39995 0.15777 0.83315
 N167 N 0.37903 0.19149 0.89236
 N168 N 0.40084 0.19135 0.86797
 C169 C 0.42120 0.21803 0.87100
 C170 C 0.41153 0.23563 0.89871
 C171 C 0.38475 0.21834 0.91172
 H172 H 0.44095 0.22463 0.85389
 H173 H 0.37008 0.22531 0.93314
 N174 N 0.39499 0.12186 0.80015
 N175 N 0.37090 0.09927 0.80139
 C176 C 0.37349 0.07901 0.77483
 C177 C 0.40045 0.08946 0.75627
 C178 C 0.41354 0.11657 0.77281
 H179 H 0.35671 0.05862 0.76902
 H180 H 0.43459 0.13167 0.76506
 H181 H 0.37695 0.12044 0.86040
 H182 H 0.34900 0.14875 0.83612
 N183 N 0.19370 0.89534 0.37897
 N184 N 0.19155 0.87201 0.40187
 C185 C 0.21780 0.87494 0.42263
 C186 C 0.23703 0.90153 0.41206
 C187 C 0.22122 0.91392 0.38439
 H188 H 0.22298 0.85857 0.44333
 H189 H 0.22960 0.93436 0.36891
 Cu190 Cu 0.15562 0.83913 0.40144
 Cu191 Cu 0.16191 0.89881 0.34277
 Cu192 Cu 0.09917 0.83923 0.33942
 N193 N 0.12076 0.80526 0.39826
 N194 N 0.09881 0.80540 0.37402
 C195 C 0.07849 0.77870 0.37718
 C196 C 0.08832 0.76111 0.40483
 C197 C 0.11516 0.77840 0.41766
 H198 H 0.05859 0.77214 0.36025
 H199 H 0.12991 0.77145 0.43901
 N200 N 0.10359 0.87546 0.30666
 N201 N 0.12749 0.89825 0.30799
 C202 C 0.12450 0.91889 0.28176
 C203 C 0.09750 0.90850 0.26332
 C204 C 0.08477 0.88100 0.27956
 H205 H 0.14107 0.93950 0.27609
 H206 H 0.06378 0.86585 0.27180
 H207 H 0.12215 0.87633 0.36677
 H208 H 0.15008 0.84836 0.34203
 Zn209 Zn 0.04057 0.97993 0.01094
 Zn210 Zn 0.00876 1.04082 -0.01741
 Zn211 Zn -0.02557 0.97448 -0.02333
 Zn212 Zn -0.02030 1.00856 0.04248
 O213 O 0.00081 1.00090 0.00313
 O214 O 0.07588 1.00288 -0.00418
 O215 O -0.01131 1.04360 -0.05673
 O216 O -0.00571 0.93556 -0.03424
 O217 O 0.05223 1.04808 -0.02528
 O218 O 0.04287 0.93995 -0.00849
 O219 O -0.03658 0.99462 -0.06165
 O220 O -0.06029 0.98879 0.04460
 O221 O -0.00591 1.07606 0.00581
 O222 O -0.06446 0.96341 -0.00386
 O223 O -0.02770 1.05208 0.05015
 O224 O 0.00271 0.99332 0.07740
 O225 O 0.04807 0.97239 0.05397
 C226 C 0.07810 1.03076 -0.01908
 C227 C -0.02945 1.02342 -0.07302
 C228 C 0.02274 0.92366 -0.02663
 C229 C -0.07646 0.97067 0.02436
 C230 C -0.02088 1.07812 0.03345
 C231 C 0.03077 0.97862 0.07959
 Zn232 Zn 0.47982 0.01043 0.45614
 Zn233 Zn 0.47458 -0.02386 0.52189
 Zn234 Zn 0.54070 -0.01830 0.48751
 Zn235 Zn 0.50890 0.04250 0.51604
 O236 O 0.50094 0.00265 0.49544
 O237 O 0.43984 -0.00938 0.45403
 O238 O 0.49446 -0.06278 0.53272
 O239 O 0.54816 -0.02575 0.44446
 O240 O 0.43570 -0.03492 0.50244
 O241 O 0.50281 -0.00472 0.42114
 O242 O 0.54304 -0.05831 0.50689
 O243 O 0.55238 0.04974 0.52385
 O244 O 0.46357 -0.00383 0.56027
 O245 O 0.57602 0.00462 0.50260
 O246 O 0.48887 0.04515 0.55543
 O247 O 0.49416 0.07782 0.49295
 O248 O 0.47236 0.05397 0.44859
 C249 C 0.42371 -0.02760 0.47424
 C250 C 0.52293 -0.07465 0.52506
 C251 C 0.53085 -0.01946 0.41888
 C252 C 0.57824 0.03244 0.51757
 C253 C 0.47073 0.02491 0.57170
 C254 C 0.47915 0.07996 0.46536
 Zn255 Zn 1.00933 0.45759 0.48355
 Zn256 Zn 1.04119 0.51836 0.51202
 Zn257 Zn 0.97504 0.52395 0.47777
 Zn258 Zn 0.98031 0.48969 0.54353
 O259 O 1.00141 0.49744 0.50418
 O260 O 1.05280 0.45033 0.47565
 O261 O 1.04353 0.55836 0.49261
 O262 O 0.96407 0.50396 0.43939
 O263 O 1.07649 0.49543 0.49686
 O264 O 0.98928 0.45494 0.44420
 O265 O 0.99491 0.56287 0.46693
 O266 O 0.94027 0.50943 0.54564
 O267 O 1.04867 0.52586 0.55505
 O268 O 0.93613 0.53496 0.49724
 O269 O 1.00330 0.50493 0.57847
 O270 O 0.97294 0.44614 0.55115
 O271 O 0.99464 0.42230 0.50672
 C272 C 1.07868 0.46760 0.48188
 C273 C 1.02340 0.57470 0.47450
 C274 C 0.97120 0.47522 0.42794
 C275 C 0.92411 0.52760 0.52543
 C276 C 1.03135 0.51964 0.58067
 C277 C 0.97972 0.42015 0.53437
 Zn278 Zn 0.47958 0.49130 0.95755
 Zn279 Zn 0.54043 0.51984 0.98910
 Zn280 Zn 0.47422 0.52546 1.02334
 Zn281 Zn 0.50846 0.45906 1.01751
 O282 O 0.50061 0.49896 0.99692
 O283 O 0.50267 0.50653 0.92262
 O284 O 0.54278 0.55981 1.00851
 O285 O 0.43537 0.53657 1.00385
 O286 O 0.54803 0.52735 0.94607
 O287 O 0.43959 0.51112 0.95543
 O288 O 0.49414 0.56434 1.03421
 O289 O 0.48832 0.45637 1.05684
 O290 O 0.57568 0.49685 1.00427
 O291 O 0.46315 0.50541 1.06171
 O292 O 0.55190 0.45174 1.02543
 O293 O 0.49378 0.42382 0.99432
 O294 O 0.47215 0.44778 0.94991
 C295 C 0.53076 0.52118 0.92044
 C296 C 0.52265 0.57615 1.02662
 C297 C 0.42341 0.52928 0.97564
 C298 C 0.47023 0.47663 1.07312
 C299 C 0.57781 0.46899 1.01923
 C300 C 0.47889 0.42175 0.96666
 C301 C 1.17440 0.43380 0.44700
 C302 C 1.17188 0.46388 0.46454
 C303 C 1.14083 0.47465 0.47643
 C304 C 1.23233 0.41429 0.42198
 C305 C 1.11478 0.42498 0.45357
 C306 C 1.14584 0.41429 0.44173
 C307 C 1.20607 0.42328 0.43365
 C308 C 1.11186 0.45543 0.47085
 H309 H 1.19384 0.47919 0.46873
 H310 H 1.13946 0.49821 0.48961
 H311 H 1.09301 0.40960 0.44883
 H312 H 1.14752 0.39097 0.42815
 C313 C 0.32675 0.56623 0.94686
 C314 C 0.34518 0.54591 0.92538
 C315 C 0.37656 0.53391 0.93479
 C316 C 0.26778 0.58816 0.92673
 C317 C 0.37130 0.56252 0.98744
 C318 C 0.33983 0.57453 0.97793
 C319 C 0.29454 0.57849 0.93659
 C320 C 0.39003 0.54208 0.96593
 H321 H 0.33529 0.53934 0.90128
 H322 H 0.39025 0.51824 0.91762
 H323 H 0.38095 0.56927 1.01157
 H324 H 0.32575 0.59027 0.99475
 C325 C -0.17311 0.93362 0.05317
 C326 C -0.16001 0.92539 0.02208
 C327 C -0.12855 0.93745 0.01255
 C328 C -0.23205 0.91154 0.07333
 C329 C -0.12335 0.96600 0.06523
 C330 C -0.15472 0.95395 0.07466
 C331 C -0.20530 0.92128 0.06347
 C332 C -0.10985 0.95788 0.03407
 H333 H -0.17404 0.90965 0.00526
 H334 H -0.11888 0.93075 -0.01159
 H335 H -0.10968 0.98166 0.08240
 H336 H -0.16462 0.96046 0.09878
 C337 C 0.67407 0.06616 0.55215
 C338 C 0.64554 0.08571 0.55751
 C339 C 0.61444 0.07504 0.54577
 C340 C 0.73207 0.08547 0.57706
 C341 C 0.64040 0.02535 0.52284
 C342 C 0.67148 0.03608 0.53461
 C343 C 0.70577 0.07662 0.56544
 C344 C 0.61146 0.04459 0.52852
 H345 H 0.64726 0.10903 0.57108
 H346 H 0.59269 0.09043 0.55060
 H347 H 0.63899 0.00178 0.50968
 H348 H 0.69342 0.02075 0.53036
 C349 C 0.44689 0.17615 0.43009
 C350 C 0.44103 0.14743 0.41116
 C351 C 0.45193 0.11619 0.42239
 C352 C 0.42351 0.23453 0.40966
 C353 C 0.47501 0.14236 0.47145
 C354 C 0.46406 0.17358 0.46015
 C355 C 0.43447 0.20806 0.41902
 C356 C 0.46886 0.11325 0.45279
 H357 H 0.42772 0.14914 0.38787
 H358 H 0.44678 0.09431 0.40742
 H359 H 0.48795 0.14098 0.49495
 H360 H 0.46869 0.19566 0.47501
 C361 C 0.94800 0.32385 0.56989
 C362 C 0.94204 0.35257 0.58881
 C363 C 0.95274 0.38386 0.57749
 C364 C 0.92501 0.26533 0.59037
 C365 C 0.97583 0.35774 0.52838
 C366 C 0.96508 0.32647 0.53976
 C367 C 0.93578 0.29189 0.58102
 C368 C 0.96957 0.38684 0.54702
 H369 H 0.92881 0.35082 0.61216
 H370 H 0.94753 0.40573 0.59245
 H371 H 0.98870 0.35915 0.50483
 H372 H 0.96979 0.30440 0.52490
 C373 C 0.05312 0.82698 -0.06225
 C374 C 0.02172 0.83979 -0.07096
 C375 C 0.01164 0.87125 -0.05938
 C376 C 0.07433 0.76832 -0.08408
 C377 C 0.06435 0.87701 -0.03031
 C378 C 0.07432 0.84564 -0.04188
 C379 C 0.06407 0.79492 -0.07432
 C380 C 0.03292 0.89025 -0.03895
 H381 H 0.00512 0.82553 -0.08676
 H382 H -0.01270 0.88071 -0.06646
 H383 H 0.08135 0.89089 -0.01462
 H384 H 0.09867 0.83598 -0.03500
 C385 C 0.55321 0.67274 1.06226
 C386 C 0.57442 0.65400 1.04193
 C387 C 0.56440 0.62267 1.03036
 C388 C 0.57444 0.73141 1.08400
 C389 C 0.51163 0.62858 1.05938
 C390 C 0.52177 0.66002 1.07097
 C391 C 0.56419 0.70480 1.07429
 C392 C 0.53290 0.60953 1.03897
 H393 H 0.59882 0.66359 1.03507
 H394 H 0.58140 0.60872 1.01469
 H395 H 0.48725 0.61918 1.06645
 H396 H 0.50516 0.67432 1.08674
 C397 C 0.43287 0.44582 1.16817
 C398 C 0.45327 0.42443 1.14965
 C399 C 0.46539 0.43451 1.11880
 C400 C 0.41076 0.42480 1.22629
 C401 C 0.43671 0.48763 1.12473
 C402 C 0.42458 0.47744 1.15566
 C403 C 0.42056 0.43495 1.19989
 C404 C 0.45729 0.46624 1.10594
 H405 H 0.45983 0.39989 1.15906
 H406 H 0.48113 0.41739 1.10503
 H407 H 0.42997 0.51218 1.11553
 H408 H 0.40876 0.49420 1.16979
 C409 C 0.56566 -0.05284 0.32385
 C410 C 0.53527 -0.03568 0.32646
 C411 C 0.52414 -0.02433 0.35730
 C412 C 0.58572 -0.07688 0.26620
 C413 C 0.57405 -0.04695 0.38298
 C414 C 0.58511 -0.05826 0.35212
 C415 C 0.57655 -0.06567 0.29236
 C416 C 0.54329 -0.03007 0.38597
 H417 H 0.52001 -0.03138 0.30472
 H418 H 0.50036 -0.01143 0.35873
 H419 H 0.58941 -0.05178 0.40452
 H420 H 0.60868 -0.07154 0.35037
 C421 C -0.06684 1.05449 -0.16790
 C422 C -0.07519 1.02286 -0.15543
 C423 C -0.06306 1.01260 -0.12454
 C424 C -0.08881 1.07556 -0.22600
 C425 C -0.03425 1.06564 -0.11859
 C426 C -0.04637 1.07580 -0.14940
 C427 C -0.07910 1.06540 -0.19960
 C428 C -0.04242 1.03391 -0.10577
 H429 H -0.09105 1.00617 -0.16955
 H430 H -0.06985 0.98806 -0.11536
 H431 H -0.01847 1.08270 -0.10483
 H432 H -0.03976 1.10033 -0.15880
 C433 C 1.06625 0.55309 0.67561
 C434 C 1.03587 0.53590 0.67308
 C435 C 1.02471 0.52454 0.64227
 C436 C 1.08635 0.57705 0.73327
 C437 C 1.07455 0.54722 0.61646
 C438 C 1.08565 0.55854 0.64728
 C439 C 1.07718 0.56588 0.70709
 C440 C 1.04382 0.53029 0.61355
 H441 H 1.02064 0.53158 0.69486
 H442 H 1.00095 0.51161 0.64091
 H443 H 1.08987 0.55207 0.59487
 H444 H 1.10919 0.57185 0.64896
 C445 C 0.82759 0.56489 0.55435
 C446 C 0.84073 0.57319 0.52328
 C447 C 0.87211 0.56101 0.51369
 C448 C 0.76899 0.58763 0.57474
 C449 C 0.87716 0.53214 0.56625
 C450 C 0.84586 0.54432 0.57573
 C451 C 0.79557 0.57754 0.56477
 C452 C 0.89072 0.54039 0.53514
 H453 H 0.82678 0.58912 0.50653
 H454 H 0.88183 0.56781 0.48958
 H455 H 0.89076 0.51633 0.58336
 H456 H 0.83593 0.53774 0.59984
 C457 C 0.67347 0.43492 1.05393
 C458 C 0.67100 0.46507 1.03646
 C459 C 0.63997 0.47593 1.02465
 C460 C 0.73138 0.41521 1.07876
 C461 C 0.61383 0.42624 1.04744
 C462 C 0.64487 0.41545 1.05921
 C463 C 0.70512 0.42428 1.06718
 C464 C 0.61097 0.45675 1.03023
 H465 H 0.69299 0.48035 1.03228
 H466 H 0.63865 0.49954 1.01153
 H467 H 0.59203 0.41089 1.05218
 H468 H 0.64651 0.39209 1.07273
 C469 C 0.17395 1.06477 -0.05347
 C470 C 0.14540 1.08431 -0.05877
 C471 C 0.11429 1.07353 -0.04711
 C472 C 0.23201 1.08435 -0.07815
 C473 C 0.14027 1.02374 -0.02439
 C474 C 0.17136 1.03458 -0.03609
 C475 C 0.20568 1.07537 -0.06664
 C476 C 0.11131 1.04298 -0.02999
 H477 H 0.14713 1.10771 -0.07222
 H478 H 0.09254 1.08893 -0.05187
 H479 H 0.13885 1.00010 -0.01134
 H480 H 0.19331 1.01926 -0.03188
 C481 C 0.32725 -0.06496 0.44537
 C482 C 0.34038 -0.07328 0.47642
 C483 C 0.37176 -0.06110 0.48598
 C484 C 0.26849 -0.08736 0.42520
 C485 C 0.37684 -0.03225 0.43341
 C486 C 0.34555 -0.04442 0.42396
 C487 C 0.29516 -0.07746 0.43505
 C488 C 0.39037 -0.04047 0.46453
 H489 H 0.32642 -0.08919 0.49319
 H490 H 0.38146 -0.06790 0.51008
 H491 H 0.39045 -0.01644 0.41628
 H492 H 0.33563 -0.03784 0.39987
 C493 C 0.55363 -0.17109 0.56109
 C494 C 0.52220 -0.15835 0.56980
 C495 C 0.51199 -0.12699 0.55802
 C496 C 0.57525 -0.22933 0.58365
 C497 C 0.56461 -0.12125 0.52871
 C498 C 0.57471 -0.15250 0.54048
 C499 C 0.56479 -0.20295 0.57352
 C500 C 0.53317 -0.10804 0.53742
 H501 H 0.50568 -0.17255 0.58577
 H502 H 0.48764 -0.11756 0.56514
 H503 H 0.58153 -0.10739 0.51287
 H504 H 0.59909 -0.16212 0.53359
 C505 C 1.05397 0.67123 0.43860
 C506 C 1.02253 0.65850 0.42997
 C507 C 1.01238 0.62709 0.44166
 C508 C 1.07519 0.72978 0.41646
 C509 C 1.06511 0.62126 0.47069
 C510 C 1.07515 0.65256 0.45901
 C511 C 1.06497 0.70323 0.42639
 C512 C 1.03363 0.60809 0.46212
 H513 H 1.00594 0.67276 0.41414
 H514 H 0.98801 0.61768 0.43463
 H515 H 1.08210 0.60735 0.48640
 H516 H 1.09954 0.66217 0.46582
 C517 C -0.05259 1.17426 0.06925
 C518 C -0.03554 1.17177 0.03910
 C519 C -0.02480 1.14055 0.02761
 C520 C -0.07556 1.23265 0.09003
 C521 C -0.04787 1.11423 0.07665
 C522 C -0.05857 1.14547 0.08807
 C523 C -0.06479 1.20617 0.08051
 C524 C -0.03104 1.11138 0.04617
 H525 H -0.03084 1.19391 0.02431
 H526 H -0.01193 1.13925 0.00405
 H527 H -0.05308 1.09230 0.09155
 H528 H -0.07179 1.14712 0.11144
 C529 C 0.44739 0.32552 0.93088
 C530 C 0.44146 0.35429 0.91202
 C531 C 0.45207 0.38556 0.92343
 C532 C 0.42473 0.26700 0.91012
 C533 C 0.47498 0.35932 0.97255
 C534 C 0.46431 0.32807 0.96108
 C535 C 0.43533 0.29356 0.91960
 C536 C 0.46878 0.38847 0.95395
 H537 H 0.42834 0.35260 0.88862
 H538 H 0.44691 0.40747 0.90850
 H539 H 0.48775 0.36067 0.99614
 H540 H 0.46899 0.30596 0.97590
 C541 C 0.56609 0.55434 0.82546
 C542 C 0.53562 0.53731 0.82800
 C543 C 0.52431 0.52605 0.85882
 C544 C 0.58651 0.57807 0.76777
 C545 C 0.57417 0.54855 0.88466
 C546 C 0.58542 0.55976 0.85382
 C547 C 0.57719 0.56701 0.79396
 C548 C 0.54336 0.53176 0.88756
 H549 H 0.52045 0.53300 0.80620
 H550 H 0.50049 0.51322 0.86017
 H551 H 0.58946 0.55336 0.90625
 H552 H 0.60904 0.57295 0.85214
 C553 C 0.43349 0.05564 0.66677
 C554 C 0.42517 0.02404 0.65428
 C555 C 0.43725 0.01388 0.62332
 C556 C 0.41152 0.07645 0.72499
 C557 C 0.46597 0.06699 0.61738
 C558 C 0.45389 0.07704 0.64825
 C559 C 0.42125 0.06643 0.69854
 C560 C 0.45782 0.03529 0.60453
 H561 H 0.40935 0.00728 0.66841
 H562 H 0.43049 -0.01065 0.61413
 H563 H 0.48170 0.08412 0.60360
 H564 H 0.46046 0.10156 0.65767
 C565 C 0.06595 0.94564 0.17460
 C566 C 0.08531 0.94013 0.14627
 C567 C 0.07410 0.95126 0.11540
 C568 C 0.08631 0.92208 0.23234
 C569 C 0.02421 0.97385 0.14120
 C570 C 0.03548 0.96268 0.17205
 C571 C 0.07701 0.93307 0.20613
 C572 C 0.04330 0.96806 0.11248
 H573 H 0.10892 0.92694 0.14797
 H574 H 0.08941 0.94640 0.09381
 H575 H 0.00040 0.98669 0.13983
 H576 H 0.02029 0.96705 0.19384
 C577 C 0.93401 0.44469 0.33284
 C578 C 0.92572 0.47628 0.34539
 C579 C 0.93780 0.48637 0.37635
 C580 C 0.91191 0.42389 0.27470
 C581 C 0.96644 0.43321 0.38219
 C582 C 0.95437 0.42323 0.35132
 C583 C 0.92172 0.43392 0.30110
 C584 C 0.95832 0.46491 0.39510
 H585 H 0.90993 0.49308 0.33129
 H586 H 0.93105 0.51089 0.38559
 H587 H 0.98215 0.41605 0.39594
 H588 H 0.96093 0.39872 0.34186
   
