data_POSCAR
  _audit_creation_date              2014-09-24
  _audit_creation_method            'ToBaCCo'
  _symmetry_space_group_name_H-M    'P1'
  _symmetry_Int_Tables_number       1
  _symmetry_cell_setting            triclinic
  loop_
  _symmetry_equiv_pos_as_xyz
 x,y,z
_cell_length_a 34.7187
_cell_length_b 34.7187
_cell_length_c 34.7202
_cell_angle_alpha 90.000000
_cell_angle_beta 90.000000
_cell_angle_gamma 90.000100
loop_
  _atom_site_label
  _atom_site_type_symbol
  _atom_site_fract_x
  _atom_site_fract_y
  _atom_site_fract_z
N1 N 0.25000 0.25000 0.25001
 N2 N 0.75000 -0.24999 0.25001
 N3 N 0.75000 0.25000 0.75001
 N4 N 0.25000 -0.24999 0.75001
 N5 N 0.75000 -0.24999 0.75001
 N6 N 0.25000 0.25000 0.75001
 N7 N 0.25000 -0.24999 0.25001
 N8 N 0.75000 0.25000 0.25001
 O9 O 0.21819 0.03755 0.46254
 O10 O 0.21819 -0.03753 0.53748
 O11 O 0.21819 0.03755 0.53748
 O12 O 0.21819 -0.03753 0.46254
 O13 O 0.28183 -0.03746 0.46247
 O14 O 0.28183 0.03748 0.53755
 O15 O 0.28183 -0.03746 0.53755
 O16 O 0.28183 0.03748 0.46247
 Cu17 Cu 0.21180 0.00001 0.50001
 Cu18 Cu 0.28822 0.00001 0.50001
 C19 C 0.25001 0.05027 0.44975
 C20 C 0.25001 -0.05025 0.55027
 C21 C 0.25001 0.05027 0.55027
 C22 C 0.25001 -0.05025 0.44975
 O23 O 0.78181 0.03755 0.53747
 O24 O 0.78181 -0.03753 0.46254
 O25 O 0.78181 0.03755 0.46254
 O26 O 0.78181 -0.03753 0.53747
 O27 O 0.71817 -0.03746 0.53755
 O28 O 0.71817 0.03747 0.46247
 O29 O 0.71817 -0.03746 0.46247
 O30 O 0.71817 0.03747 0.53755
 Cu31 Cu 0.78820 0.00001 0.50001
 Cu32 Cu 0.71178 0.00001 0.50001
 C33 C 0.74999 0.05027 0.55027
 C34 C 0.74999 -0.05025 0.44975
 C35 C 0.74999 0.05027 0.44975
 C36 C 0.74999 -0.05026 0.55027
 O37 O 0.46253 0.21818 0.03755
 O38 O 0.53747 0.21818 -0.03753
 O39 O 0.53747 0.21818 0.03755
 O40 O 0.46253 0.21818 -0.03753
 O41 O 0.46246 0.28181 -0.03746
 O42 O 0.53754 0.28182 0.03748
 O43 O 0.53754 0.28182 -0.03746
 O44 O 0.46246 0.28182 0.03748
 Cu45 Cu 0.50000 0.21178 0.00001
 Cu46 Cu 0.50000 0.28821 0.00001
 C47 C 0.44974 0.25000 0.05027
 C48 C 0.55026 0.25000 -0.05025
 C49 C 0.55026 0.25000 0.05027
 C50 C 0.44974 0.25000 -0.05025
 O51 O 0.53747 0.78183 0.03755
 O52 O 0.46253 0.78183 -0.03753
 O53 O 0.46253 0.78183 0.03755
 O54 O 0.53747 0.78184 -0.03753
 O55 O 0.53754 0.71820 -0.03746
 O56 O 0.46246 0.71820 0.03748
 O57 O 0.46246 0.71820 -0.03746
 O58 O 0.53754 0.71820 0.03748
 Cu59 Cu 0.50000 0.78823 0.00001
 Cu60 Cu 0.50000 0.71180 0.00001
 C61 C 0.55026 0.75002 0.05027
 C62 C 0.44974 0.75002 -0.05025
 C63 C 0.44974 0.75002 0.05027
 C64 C 0.55026 0.75002 -0.05025
 O65 O 0.03754 0.46254 0.21819
 O66 O -0.03754 0.53748 0.21819
 O67 O 0.03754 0.53748 0.21819
 O68 O -0.03754 0.46254 0.21819
 O69 O -0.03747 0.46247 0.28183
 O70 O 0.03747 0.53755 0.28183
 O71 O -0.03747 0.53755 0.28183
 O72 O 0.03747 0.46247 0.28183
 Cu73 Cu 0.00000 0.50001 0.21180
 Cu74 Cu 0.00000 0.50001 0.28822
 C75 C 0.05026 0.44975 0.25001
 C76 C -0.05026 0.55027 0.25001
 C77 C 0.05026 0.55027 0.25001
 C78 C -0.05026 0.44975 0.25001
 O79 O 0.03754 0.53748 0.78183
 O80 O -0.03754 0.46254 0.78183
 O81 O 0.03754 0.46254 0.78183
 O82 O -0.03754 0.53748 0.78183
 O83 O -0.03747 0.53755 0.71819
 O84 O 0.03747 0.46247 0.71819
 O85 O -0.03747 0.46247 0.71819
 O86 O 0.03747 0.53755 0.71819
 Cu87 Cu 0.00000 0.50001 0.78822
 Cu88 Cu 0.00000 0.50001 0.71180
 C89 C 0.05026 0.55027 0.75001
 C90 C -0.05026 0.44975 0.75001
 C91 C 0.05026 0.44975 0.75001
 C92 C -0.05026 0.55027 0.75001
 C93 C 0.33468 0.25000 0.16533
 N94 N 0.32352 0.21659 0.18229
 N95 N 0.29642 0.21660 0.20945
 C96 C 0.27937 0.25000 0.22065
 N97 N 0.29056 0.28341 0.20359
 N98 N 0.31772 0.28341 0.17649
 C99 C 0.36459 0.25000 0.13542
 N100 N 0.37717 0.28360 0.11987
 N101 N 0.40434 0.28361 0.09277
 C102 C 0.41985 0.25000 0.08016
 N103 N 0.40724 0.21639 0.09567
 N104 N 0.38014 0.21639 0.12283
 C105 C 0.66532 0.75001 0.16533
 N106 N 0.68228 0.71660 0.17649
 N107 N 0.70944 0.71661 0.20359
 C108 C 0.72064 0.75001 0.22064
 N109 N 0.70358 0.78342 0.20945
 N110 N 0.67648 0.78342 0.18229
 C111 C 0.63541 0.75001 0.13542
 N112 N 0.61987 0.78362 0.12283
 N113 N 0.59276 0.78363 0.09567
 C114 C 0.58015 0.75002 0.08016
 N115 N 0.59566 0.71641 0.09277
 N116 N 0.62283 0.71641 0.11987
 C117 C 0.66532 0.25000 -0.16531
 N118 N 0.67648 0.21659 -0.18227
 N119 N 0.70358 0.21659 -0.20943
 C120 C 0.72063 0.25000 -0.22063
 N121 N 0.70944 0.28341 -0.20358
 N122 N 0.68228 0.28341 -0.17647
 C123 C 0.63541 0.25000 -0.13540
 N124 N 0.62283 0.28360 -0.11985
 N125 N 0.59566 0.28361 -0.09275
 C126 C 0.58015 0.25000 -0.08014
 N127 N 0.59276 0.21639 -0.09565
 N128 N 0.61986 0.21639 -0.12282
 C129 C 0.33468 0.75001 -0.16531
 N130 N 0.32352 0.78342 -0.18227
 N131 N 0.29642 0.78342 -0.20943
 C132 C 0.27937 0.75001 -0.22063
 N133 N 0.29056 0.71661 -0.20358
 N134 N 0.31772 0.71660 -0.17647
 C135 C 0.36459 0.75001 -0.13540
 N136 N 0.37717 0.71641 -0.11985
 N137 N 0.40434 0.71641 -0.09275
 C138 C 0.41985 0.75002 -0.08014
 N139 N 0.40724 0.78363 -0.09565
 N140 N 0.38014 0.78362 -0.12282
 C141 C 0.16532 0.33468 0.25001
 N142 N 0.18228 0.32352 0.21660
 N143 N 0.20944 0.29642 0.21660
 C144 C 0.22064 0.27937 0.25001
 N145 N 0.20359 0.29056 0.28341
 N146 N 0.17649 0.31773 0.28342
 C147 C 0.13541 0.36460 0.25001
 N148 N 0.11987 0.37718 0.28361
 N149 N 0.09276 0.40435 0.28362
 C150 C 0.08015 0.41985 0.25001
 N151 N 0.09566 0.40724 0.21640
 N152 N 0.12283 0.38014 0.21640
 C153 C 0.16532 0.66533 0.75001
 N154 N 0.17649 0.68229 0.71660
 N155 N 0.20359 0.70945 0.71660
 C156 C 0.22064 0.72065 0.75001
 N157 N 0.20944 0.70360 0.78341
 N158 N 0.18228 0.67649 0.78342
 C159 C 0.13541 0.63542 0.75001
 N160 N 0.12283 0.61987 0.78361
 N161 N 0.09566 0.59277 0.78362
 C162 C 0.08015 0.58016 0.75001
 N163 N 0.09276 0.59567 0.71640
 N164 N 0.11987 0.62284 0.71640
 C165 C -0.16532 0.66533 0.25001
 N166 N -0.18228 0.67649 0.21660
 N167 N -0.20944 0.70360 0.21660
 C168 C -0.22064 0.72065 0.25001
 N169 N -0.20359 0.70945 0.28341
 N170 N -0.17648 0.68229 0.28342
 C171 C -0.13541 0.63542 0.25001
 N172 N -0.11987 0.62283 0.28361
 N173 N -0.09276 0.59567 0.28362
 C174 C -0.08015 0.58016 0.25001
 N175 N -0.09566 0.59277 0.21640
 N176 N -0.12283 0.61987 0.21640
 C177 C -0.16532 0.33468 0.75001
 N178 N -0.17649 0.31773 0.71660
 N179 N -0.20359 0.29056 0.71660
 C180 C -0.22064 0.27937 0.75001
 N181 N -0.20944 0.29642 0.78341
 N182 N -0.18228 0.32352 0.78342
 C183 C -0.13541 0.36459 0.75001
 N184 N -0.12283 0.38014 0.78361
 N185 N -0.09566 0.40724 0.78362
 C186 C -0.08015 0.41985 0.75001
 N187 N -0.09276 0.40435 0.71640
 N188 N -0.11987 0.37718 0.71640
 C189 C 0.25001 0.16533 0.33469
 N190 N 0.28342 0.17649 0.31773
 N191 N 0.28341 0.20359 0.29057
 C192 C 0.25001 0.22064 0.27937
 N193 N 0.21660 0.20944 0.29642
 N194 N 0.21660 0.18228 0.32353
 C195 C 0.25001 0.13542 0.36460
 N196 N 0.21640 0.12283 0.38015
 N197 N 0.21640 0.09567 0.40725
 C198 C 0.25001 0.08016 0.41986
 N199 N 0.28362 0.09277 0.40435
 N200 N 0.28362 0.11987 0.37718
 C201 C 0.74999 0.16533 0.66533
 N202 N 0.78340 0.18228 0.67649
 N203 N 0.78340 0.20944 0.70359
 C204 C 0.75000 0.22064 0.72064
 N205 N 0.71659 0.20359 0.70945
 N206 N 0.71658 0.17649 0.68229
 C207 C 0.74999 0.13541 0.63542
 N208 N 0.71639 0.11987 0.62283
 N209 N 0.71638 0.09277 0.59567
 C210 C 0.74999 0.08016 0.58016
 N211 N 0.78360 0.09567 0.59277
 N212 N 0.78360 0.12283 0.61987
 C213 C 0.25001 -0.16531 0.66533
 N214 N 0.21660 -0.18227 0.67649
 N215 N 0.21660 -0.20943 0.70359
 C216 C 0.25001 -0.22063 0.72065
 N217 N 0.28341 -0.20358 0.70945
 N218 N 0.28342 -0.17647 0.68229
 C219 C 0.25001 -0.13540 0.63542
 N220 N 0.28362 -0.11986 0.62283
 N221 N 0.28362 -0.09275 0.59567
 C222 C 0.25001 -0.08015 0.58016
 N223 N 0.21640 -0.09565 0.59277
 N224 N 0.21640 -0.12282 0.61987
 C225 C 0.74999 -0.16531 0.33469
 N226 N 0.71658 -0.17648 0.31773
 N227 N 0.71659 -0.20358 0.29057
 C228 C 0.75000 -0.22063 0.27937
 N229 N 0.78340 -0.20943 0.29642
 N230 N 0.78340 -0.18227 0.32353
 C231 C 0.74999 -0.13540 0.36460
 N232 N 0.78360 -0.12282 0.38015
 N233 N 0.78360 -0.09565 0.40725
 C234 C 0.74999 -0.08015 0.41986
 N235 N 0.71638 -0.09275 0.40435
 N236 N 0.71639 -0.11986 0.37718
 C237 C 0.66532 0.75001 -0.16531
 N238 N 0.68228 0.71660 -0.17647
 N239 N 0.70944 0.71661 -0.20358
 C240 C 0.72064 0.75001 -0.22063
 N241 N 0.70358 0.78342 -0.20943
 N242 N 0.67648 0.78342 -0.18227
 C243 C 0.63541 0.75001 -0.13540
 N244 N 0.61987 0.78362 -0.12282
 N245 N 0.59276 0.78363 -0.09565
 C246 C 0.58015 0.75002 -0.08014
 N247 N 0.59566 0.71641 -0.09275
 N248 N 0.62283 0.71641 -0.11985
 C249 C 0.33468 0.25000 -0.16531
 N250 N 0.31772 0.28341 -0.17647
 N251 N 0.29056 0.28341 -0.20358
 C252 C 0.27937 0.25000 -0.22063
 N253 N 0.29642 0.21660 -0.20943
 N254 N 0.32352 0.21659 -0.18227
 C255 C 0.36459 0.25000 -0.13540
 N256 N 0.38014 0.21639 -0.12282
 N257 N 0.40724 0.21639 -0.09565
 C258 C 0.41985 0.25000 -0.08014
 N259 N 0.40434 0.28361 -0.09275
 N260 N 0.37717 0.28360 -0.11985
 C261 C 0.33468 0.75001 0.16533
 N262 N 0.31773 0.71660 0.17649
 N263 N 0.29056 0.71661 0.20359
 C264 C 0.27937 0.75001 0.22065
 N265 N 0.29642 0.78342 0.20945
 N266 N 0.32352 0.78342 0.18229
 C267 C 0.36459 0.75001 0.13542
 N268 N 0.38014 0.78362 0.12283
 N269 N 0.40724 0.78362 0.09567
 C270 C 0.41985 0.75002 0.08016
 N271 N 0.40434 0.71640 0.09277
 N272 N 0.37717 0.71641 0.11987
 C273 C 0.66532 0.25000 0.16533
 N274 N 0.67648 0.21659 0.18229
 N275 N 0.70358 0.21660 0.20945
 C276 C 0.72063 0.25000 0.22065
 N277 N 0.70944 0.28341 0.20359
 N278 N 0.68228 0.28341 0.17649
 C279 C 0.63541 0.25000 0.13542
 N280 N 0.62283 0.28360 0.11987
 N281 N 0.59566 0.28361 0.09277
 C282 C 0.58015 0.25000 0.08016
 N283 N 0.59276 0.21639 0.09567
 N284 N 0.61986 0.21639 0.12283
 C285 C -0.16532 0.66533 0.75001
 N286 N -0.17649 0.68229 0.71660
 N287 N -0.20359 0.70945 0.71660
 C288 C -0.22064 0.72065 0.75001
 N289 N -0.20944 0.70360 0.78341
 N290 N -0.18228 0.67649 0.78342
 C291 C -0.13541 0.63542 0.75001
 N292 N -0.12283 0.61987 0.78361
 N293 N -0.09566 0.59277 0.78362
 C294 C -0.08015 0.58016 0.75001
 N295 N -0.09276 0.59567 0.71640
 N296 N -0.11987 0.62283 0.71640
 C297 C -0.16532 0.33468 0.25001
 N298 N -0.18228 0.32352 0.21660
 N299 N -0.20944 0.29642 0.21660
 C300 C -0.22064 0.27937 0.25001
 N301 N -0.20359 0.29056 0.28341
 N302 N -0.17648 0.31772 0.28342
 C303 C -0.13541 0.36459 0.25001
 N304 N -0.11987 0.37718 0.28361
 N305 N -0.09276 0.40434 0.28362
 C306 C -0.08015 0.41985 0.25001
 N307 N -0.09566 0.40725 0.21640
 N308 N -0.12283 0.38014 0.21640
 C309 C 0.16532 0.33468 0.75001
 N310 N 0.17649 0.31773 0.71660
 N311 N 0.20359 0.29056 0.71660
 C312 C 0.22064 0.27937 0.75001
 N313 N 0.20944 0.29642 0.78341
 N314 N 0.18228 0.32352 0.78342
 C315 C 0.13541 0.36459 0.75001
 N316 N 0.12283 0.38014 0.78361
 N317 N 0.09566 0.40724 0.78362
 C318 C 0.08015 0.41985 0.75001
 N319 N 0.09276 0.40435 0.71640
 N320 N 0.11987 0.37718 0.71640
 C321 C 0.16532 0.66533 0.25001
 N322 N 0.17649 0.68229 0.28342
 N323 N 0.20359 0.70945 0.28341
 C324 C 0.22064 0.72065 0.25001
 N325 N 0.20944 0.70359 0.21660
 N326 N 0.18228 0.67649 0.21660
 C327 C 0.13541 0.63542 0.25001
 N328 N 0.11987 0.62284 0.28361
 N329 N 0.09276 0.59567 0.28362
 C330 C 0.08015 0.58016 0.25001
 N331 N 0.09566 0.59277 0.21640
 N332 N 0.12283 0.61987 0.21640
 C333 C 0.74999 -0.16531 0.66533
 N334 N 0.71658 -0.17648 0.68229
 N335 N 0.71659 -0.20358 0.70945
 C336 C 0.75000 -0.22063 0.72064
 N337 N 0.78340 -0.20943 0.70359
 N338 N 0.78340 -0.18227 0.67649
 C339 C 0.74999 -0.13540 0.63541
 N340 N 0.78360 -0.12282 0.61987
 N341 N 0.78360 -0.09565 0.59276
 C342 C 0.74999 -0.08015 0.58016
 N343 N 0.71638 -0.09276 0.59567
 N344 N 0.71639 -0.11986 0.62283
 C345 C 0.25001 -0.16531 0.33469
 N346 N 0.21660 -0.18227 0.32353
 N347 N 0.21660 -0.20943 0.29642
 C348 C 0.25001 -0.22063 0.27937
 N349 N 0.28341 -0.20358 0.29057
 N350 N 0.28342 -0.17647 0.31773
 C351 C 0.25001 -0.13540 0.36460
 N352 N 0.28362 -0.11986 0.37718
 N353 N 0.28362 -0.09275 0.40435
 C354 C 0.25001 -0.08014 0.41986
 N355 N 0.21640 -0.09565 0.40725
 N356 N 0.21640 -0.12282 0.38014
 C357 C 0.74999 0.16532 0.33469
 N358 N 0.78340 0.18228 0.32353
 N359 N 0.78340 0.20944 0.29642
 C360 C 0.75000 0.22064 0.27937
 N361 N 0.71659 0.20359 0.29057
 N362 N 0.71658 0.17649 0.31773
 C363 C 0.74999 0.13541 0.36460
 N364 N 0.71639 0.11987 0.37718
 N365 N 0.71638 0.09277 0.40435
 C366 C 0.74999 0.08016 0.41986
 N367 N 0.78360 0.09566 0.40725
 N368 N 0.78360 0.12283 0.38014
 C369 C 0.25001 0.16533 0.66533
 N370 N 0.28342 0.17649 0.68229
 N371 N 0.28341 0.20359 0.70945
 C372 C 0.25001 0.22064 0.72065
 N373 N 0.21660 0.20944 0.70359
 N374 N 0.21660 0.18228 0.67649
 C375 C 0.25001 0.13542 0.63541
 N376 N 0.21640 0.12283 0.61987
 N377 N 0.21640 0.09567 0.59276
 C378 C 0.25001 0.08016 0.58016
 N379 N 0.28362 0.09277 0.59567
 N380 N 0.28362 0.11987 0.62283
   
