data_POSCAR
  _audit_creation_date              2014-09-24
  _audit_creation_method            'ToBaCCo'
  _symmetry_space_group_name_H-M    'P1'
  _symmetry_Int_Tables_number       1
  _symmetry_cell_setting            triclinic
  loop_
  _symmetry_equiv_pos_as_xyz
 x,y,z
_cell_length_a 21.8363
_cell_length_b 21.8362
_cell_length_c 21.8363
_cell_angle_alpha 89.998200
_cell_angle_beta 90.001300
_cell_angle_gamma 90.001400
loop_
  _atom_site_label
  _atom_site_type_symbol
  _atom_site_fract_x
  _atom_site_fract_y
  _atom_site_fract_z
Zn1 Zn 0.79845 0.70158 0.79843
 Zn2 Zn 0.79846 0.79847 0.70156
 Zn3 Zn 0.70158 0.70160 0.70156
 Zn4 Zn 0.70158 0.79846 0.79844
 O5 O 0.75002 0.75003 0.75000
 O6 O 0.87857 0.71413 0.78590
 O7 O 0.78591 0.78593 0.62144
 O8 O 0.71413 0.62148 0.71410
 O9 O 0.87858 0.78592 0.71411
 O10 O 0.78591 0.62147 0.78588
 O11 O 0.71413 0.71415 0.62145
 O12 O 0.62146 0.78592 0.78588
 O13 O 0.78592 0.87858 0.71411
 O14 O 0.62147 0.71414 0.71410
 O15 O 0.71413 0.87858 0.78590
 O16 O 0.71412 0.78590 0.87855
 O17 O 0.78590 0.71411 0.87855
 C18 C 0.90673 0.75002 0.75000
 C19 C 0.75002 0.75004 0.59329
 C20 C 0.75002 0.59332 0.74998
 C21 C 0.59331 0.75003 0.74999
 C22 C 0.75003 0.90673 0.75001
 C23 C 0.75000 0.74999 0.90671
 Zn24 Zn 0.20158 0.70157 0.70159
 Zn25 Zn 0.20159 0.79846 0.79844
 Zn26 Zn 0.29846 0.70160 0.79845
 Zn27 Zn 0.29845 0.79845 0.70155
 O28 O 0.25002 0.75002 0.75001
 O29 O 0.12147 0.71412 0.71413
 O30 O 0.21413 0.78593 0.87856
 O31 O 0.28593 0.62148 0.78592
 O32 O 0.12147 0.78592 0.78590
 O33 O 0.21413 0.62146 0.71415
 O34 O 0.28592 0.71415 0.87856
 O35 O 0.37857 0.78592 0.71410
 O36 O 0.21413 0.87858 0.78587
 O37 O 0.37858 0.71415 0.78590
 O38 O 0.28590 0.87857 0.71407
 O39 O 0.28590 0.78589 0.62144
 O40 O 0.21412 0.71410 0.62147
 C41 C 0.09331 0.75002 0.75001
 C42 C 0.25002 0.75003 0.90671
 C43 C 0.25003 0.59332 0.75004
 C44 C 0.40673 0.75004 0.75000
 C45 C 0.25001 0.90673 0.74997
 C46 C 0.25001 0.74998 0.59330
 Zn47 Zn 0.70159 0.20159 0.79844
 Zn48 Zn 0.79846 0.20159 0.70157
 Zn49 Zn 0.70159 0.29846 0.70156
 Zn50 Zn 0.79846 0.29846 0.79844
 O51 O 0.75003 0.25003 0.75001
 O52 O 0.71414 0.12147 0.78591
 O53 O 0.78590 0.21412 0.62145
 O54 O 0.62147 0.28592 0.71411
 O55 O 0.78592 0.12147 0.71413
 O56 O 0.62147 0.21413 0.78589
 O57 O 0.71412 0.28590 0.62145
 O58 O 0.78592 0.37858 0.78589
 O59 O 0.87858 0.21414 0.71411
 O60 O 0.71414 0.37858 0.71410
 O61 O 0.87858 0.28592 0.78590
 O62 O 0.78592 0.28592 0.87856
 O63 O 0.71413 0.21414 0.87855
 C64 C 0.75003 0.09332 0.75002
 C65 C 0.75000 0.25000 0.59330
 C66 C 0.59332 0.25002 0.75000
 C67 C 0.75003 0.40673 0.74999
 C68 C 0.90673 0.25003 0.75000
 C69 C 0.75002 0.25003 0.90671
 Zn70 Zn 0.29846 0.20159 0.70156
 Zn71 Zn 0.20159 0.20158 0.79842
 Zn72 Zn 0.29846 0.29845 0.79845
 Zn73 Zn 0.20159 0.29847 0.70157
 O74 O 0.25003 0.25002 0.75000
 O75 O 0.28591 0.12147 0.71409
 O76 O 0.21413 0.21410 0.87854
 O77 O 0.37858 0.28591 0.78591
 O78 O 0.21412 0.12147 0.78586
 O79 O 0.37858 0.21414 0.71411
 O80 O 0.28591 0.28589 0.87857
 O81 O 0.21415 0.37858 0.71412
 O82 O 0.12147 0.21413 0.78588
 O83 O 0.28592 0.37857 0.78592
 O84 O 0.12148 0.28593 0.71411
 O85 O 0.21414 0.28593 0.62145
 O86 O 0.28592 0.21415 0.62145
 C87 C 0.25001 0.09332 0.74997
 C88 C 0.25002 0.24999 0.90671
 C89 C 0.40673 0.25002 0.75001
 C90 C 0.25004 0.40673 0.75002
 C91 C 0.09332 0.25003 0.74999
 C92 C 0.25002 0.25004 0.59329
 Zn93 Zn 0.70155 0.70154 0.20157
 Zn94 Zn 0.79842 0.79842 0.20156
 Zn95 Zn 0.70155 0.79842 0.29843
 Zn96 Zn 0.79843 0.70155 0.29844
 O97 O 0.74999 0.74998 0.25000
 O98 O 0.71409 0.71407 0.12145
 O99 O 0.78586 0.87853 0.21408
 O100 O 0.62143 0.78586 0.28590
 O101 O 0.78587 0.78586 0.12144
 O102 O 0.62143 0.71408 0.21412
 O103 O 0.71408 0.87853 0.28587
 O104 O 0.78589 0.71410 0.37855
 O105 O 0.87854 0.78588 0.21410
 O106 O 0.71411 0.78589 0.37855
 O107 O 0.87854 0.71409 0.28589
 O108 O 0.78588 0.62143 0.28591
 O109 O 0.71409 0.62142 0.21413
 C110 C 0.74998 0.74996 0.09329
 C111 C 0.74997 0.90669 0.24997
 C112 C 0.59328 0.74997 0.25001
 C113 C 0.75000 0.75000 0.40671
 C114 C 0.90669 0.74998 0.24999
 C115 C 0.74999 0.59327 0.25002
 Zn116 Zn 0.29842 0.79843 0.20158
 Zn117 Zn 0.20155 0.70156 0.20156
 Zn118 Zn 0.29842 0.70154 0.29844
 Zn119 Zn 0.20155 0.79841 0.29845
 O120 O 0.24999 0.74998 0.25001
 O121 O 0.28587 0.78591 0.12146
 O122 O 0.21409 0.62144 0.21410
 O123 O 0.37854 0.71408 0.28588
 O124 O 0.21410 0.71412 0.12145
 O125 O 0.37854 0.78589 0.21412
 O126 O 0.28587 0.62142 0.28588
 O127 O 0.21410 0.78585 0.37856
 O128 O 0.12143 0.71410 0.21410
 O129 O 0.28589 0.71407 0.37856
 O130 O 0.12143 0.78586 0.28591
 O131 O 0.21408 0.87853 0.28592
 O132 O 0.28587 0.87855 0.21414
 C133 C 0.24998 0.75002 0.09330
 C134 C 0.24998 0.59328 0.24999
 C135 C 0.40669 0.74998 0.25000
 C136 C 0.25000 0.74996 0.40671
 C137 C 0.09328 0.74998 0.25000
 C138 C 0.24997 0.90669 0.25003
 Zn139 Zn 0.70154 0.29842 0.20158
 Zn140 Zn 0.79841 0.20155 0.20156
 Zn141 Zn 0.79842 0.29841 0.29845
 Zn142 Zn 0.70154 0.20154 0.29843
 O143 O 0.74998 0.24998 0.25001
 O144 O 0.71410 0.28591 0.12146
 O145 O 0.87853 0.21408 0.21411
 O146 O 0.78588 0.37853 0.28592
 O147 O 0.78587 0.21412 0.12145
 O148 O 0.71409 0.37854 0.21414
 O149 O 0.87854 0.28586 0.28590
 O150 O 0.71409 0.21407 0.37855
 O151 O 0.78585 0.12143 0.21408
 O152 O 0.78588 0.28584 0.37857
 O153 O 0.71408 0.12142 0.28587
 O154 O 0.62142 0.21408 0.28589
 O155 O 0.62143 0.28587 0.21411
 C156 C 0.74999 0.25002 0.09330
 C157 C 0.90669 0.24997 0.25001
 C158 C 0.74998 0.40669 0.25004
 C159 C 0.74998 0.24995 0.40671
 C160 C 0.74996 0.09327 0.24997
 C161 C 0.59327 0.24998 0.25000
 Zn162 Zn 0.20154 0.29841 0.20156
 Zn163 Zn 0.29841 0.20154 0.20157
 Zn164 Zn 0.29842 0.29843 0.29843
 Zn165 Zn 0.20154 0.20155 0.29845
 O166 O 0.24998 0.24998 0.25000
 O167 O 0.21409 0.28586 0.12144
 O168 O 0.37853 0.21409 0.21412
 O169 O 0.28586 0.37854 0.28587
 O170 O 0.28587 0.21408 0.12145
 O171 O 0.21407 0.37853 0.21409
 O172 O 0.37853 0.28589 0.28588
 O173 O 0.21410 0.21410 0.37856
 O174 O 0.28586 0.12143 0.21412
 O175 O 0.28588 0.28589 0.37855
 O176 O 0.21409 0.12143 0.28591
 O177 O 0.12143 0.21408 0.28590
 O178 O 0.12142 0.28585 0.21410
 C179 C 0.24998 0.24997 0.09329
 C180 C 0.40668 0.24999 0.25000
 C181 C 0.24996 0.40669 0.24998
 C182 C 0.24999 0.25000 0.40671
 C183 C 0.24997 0.09327 0.25002
 C184 C 0.09327 0.24996 0.25000
 C185 C -0.02758 0.75001 0.74999
 C186 C 0.02762 0.75001 0.75001
 C187 C 0.75002 -0.02758 0.75000
 C188 C 0.75002 0.02763 0.75002
 C189 C 0.74997 0.74996 -0.02760
 C190 C 0.74997 0.74995 0.02760
 C191 C 0.52762 0.75002 0.74998
 C192 C 0.47242 0.75004 0.75000
 C193 C 0.24998 -0.02758 0.74994
 C194 C 0.24998 0.02763 0.74994
 C195 C 0.25000 0.75001 -0.02760
 C196 C 0.24998 0.75003 0.02761
 C197 C -0.02758 0.25003 0.75000
 C198 C 0.02763 0.25002 0.74998
 C199 C 0.75001 0.52763 0.74998
 C200 C 0.75002 0.47242 0.74999
 C201 C 0.75001 0.25002 -0.02760
 C202 C 0.74999 0.25003 0.02761
 C203 C 0.52763 0.25001 0.74999
 C204 C 0.47242 0.25002 0.75001
 C205 C 0.25003 0.52763 0.75004
 C206 C 0.25005 0.47242 0.75002
 C207 C 0.25000 0.24997 -0.02760
 C208 C 0.24998 0.24997 0.02760
 C209 C -0.02762 0.74997 0.24998
 C210 C 0.02759 0.74997 0.25000
 C211 C 0.74994 -0.02762 0.24994
 C212 C 0.74993 0.02758 0.24995
 C213 C 0.75001 0.75003 0.52760
 C214 C 0.75001 0.75000 0.47240
 C215 C 0.52759 0.74996 0.25000
 C216 C 0.47238 0.74997 0.24998
 C217 C 0.24996 -0.02762 0.25002
 C218 C 0.24996 0.02758 0.25000
 C219 C 0.25000 0.74997 0.52761
 C220 C 0.24999 0.74995 0.47240
 C221 C -0.02762 0.24996 0.25000
 C222 C 0.02758 0.24995 0.24998
 C223 C 0.74998 0.52758 0.25002
 C224 C 0.74998 0.47238 0.25004
 C225 C 0.74997 0.24996 0.52761
 C226 C 0.74997 0.24994 0.47240
 C227 C 0.52758 0.24996 0.24999
 C228 C 0.47238 0.24998 0.24999
 C229 C 0.24997 0.52758 0.24998
 C230 C 0.24995 0.47238 0.24997
 C231 C 0.25001 0.25003 0.52760
 C232 C 0.25000 0.25000 0.47240
   
