data_POSCAR
  _audit_creation_date              2014-09-24
  _audit_creation_method            'ToBaCCo'
  _symmetry_space_group_name_H-M    'P1'
  _symmetry_Int_Tables_number       1
  _symmetry_cell_setting            triclinic
  loop_
  _symmetry_equiv_pos_as_xyz
 x,y,z
_cell_length_a 41.0300
_cell_length_b 40.5552
_cell_length_c 14.8241
_cell_angle_alpha 89.746200
_cell_angle_beta 90.084800
_cell_angle_gamma 120.241500
loop_
  _atom_site_label
  _atom_site_type_symbol
  _atom_site_fract_x
  _atom_site_fract_y
  _atom_site_fract_z
C1 C 0.16542 0.49619 0.48450
 C2 C 0.18298 0.49563 0.40420
 C3 C 0.21825 0.49828 0.41023
 C4 C 0.23710 0.50445 0.49472
 C5 C 0.22006 0.50993 0.57253
 C6 C 0.18392 0.50590 0.56803
 C7 C 0.27249 0.50185 0.50157
 C8 C 0.28527 0.49509 0.58534
 C9 C 0.31469 0.48681 0.58758
 C10 C 0.32830 0.48157 0.50572
 C11 C 0.32003 0.49262 0.42360
 C12 C 0.29284 0.50381 0.42242
 H13 H 0.13629 0.48927 0.48038
 H14 H 0.22952 0.49339 0.34968
 H15 H 0.23393 0.51594 0.63713
 H16 H 0.27225 0.49522 0.64818
 H17 H 0.34898 0.47238 0.50687
 H18 H 0.28735 0.51347 0.35973
 C19 C 0.45993 -0.35041 0.48653
 C20 C 0.47382 -0.32768 0.40839
 C21 C 0.48672 -0.28849 0.41682
 C22 C 0.48536 -0.27239 0.50070
 C23 C 0.47752 -0.29544 0.57891
 C24 C 0.46895 -0.33362 0.57257
 C25 C 0.49597 -0.23091 0.50588
 C26 C 0.50295 -0.21107 0.58914
 C27 C 0.51534 -0.17181 0.59022
 C28 C 0.52455 -0.15200 0.50815
 C29 C 0.51255 -0.17123 0.42622
 C30 C 0.49785 -0.21077 0.42577
 H31 H 0.44805 -0.38095 0.48012
 H32 H 0.49931 -0.27032 0.35922
 H33 H 0.47968 -0.28396 0.64542
 H34 H 0.49870 -0.22545 0.65274
 H35 H 0.53598 -0.12136 0.50877
 H36 H 0.48711 -0.22582 0.36350
 C37 C 1.35550 0.80542 0.49107
 C38 C 1.33295 0.79704 0.41337
 C39 C 1.29421 0.77020 0.42182
 C40 C 1.27844 0.75252 0.50608
 C41 C 1.30131 0.76739 0.58394
 C42 C 1.33899 0.79695 0.57697
 C43 C 1.23768 0.72124 0.51231
 C44 C 1.21736 0.71151 0.59530
 C45 C 1.17897 0.68318 0.59857
 C46 C 1.16067 0.66704 0.51669
 C47 C 1.18024 0.67298 0.43564
 C48 C 1.21886 0.69999 0.43415
 H49 H 1.38560 0.82481 0.48509
 H50 H 1.27611 0.76420 0.36425
 H51 H 1.29021 0.75748 0.65064
 H52 H 1.23090 0.72551 0.65705
 H53 H 1.13066 0.64666 0.51759
 H54 H 1.23408 0.70444 0.37193
 C55 C 0.81482 0.46293 0.50479
 C56 C 0.80447 0.47058 0.42047
 C57 C 0.77756 0.48213 0.41789
 C58 C 0.76528 0.49151 0.49830
 C59 C 0.78350 0.49173 0.58023
 C60 C 0.80898 0.47812 0.58388
 C61 C 0.73607 0.50387 0.49651
 C62 C 0.71837 0.50547 0.57748
 C63 C 0.69374 0.52020 0.57804
 C64 C 0.68700 0.53306 0.49607
 C65 C 0.69780 0.52492 0.41372
 C66 C 0.72413 0.51257 0.41420
 H67 H 0.83382 0.45166 0.50669
 H68 H 0.76730 0.48431 0.35289
 H69 H 0.77869 0.50320 0.64070
 H70 H 0.72312 0.49457 0.63918
 H71 H 0.66829 0.54472 0.49526
 H72 H 0.73477 0.50997 0.35026
 C73 C 0.55298 0.35873 0.51335
 C74 C 0.54246 0.34163 0.42804
 C75 C 0.52867 0.30212 0.42284
 C76 C 0.51789 0.27905 0.50171
 C77 C 0.51950 0.29696 0.58489
 C78 C 0.53729 0.33689 0.59222
 C79 C 0.50129 0.23623 0.49823
 C80 C 0.49741 0.21557 0.57880
 C81 C 0.47804 0.17546 0.58041
 C82 C 0.46452 0.15621 0.49828
 C83 C 0.47471 0.17569 0.41556
 C84 C 0.49079 0.21560 0.41597
 H85 H 0.56697 0.38955 0.51781
 H86 H 0.52505 0.28988 0.35676
 H87 H 0.50487 0.27971 0.64257
 H88 H 0.51086 0.23083 0.63938
 H89 H 0.45068 0.12530 0.49775
 H90 H 0.49536 0.23002 0.35237
 C91 C 0.63660 0.19618 0.49396
 C92 C 0.65563 0.20838 0.41096
 C93 C 0.69386 0.23657 0.41167
 C94 C 0.71469 0.24771 0.49315
 C95 C 0.69564 0.22921 0.57396
 C96 C 0.65672 0.20246 0.57497
 C97 C 0.75681 0.27479 0.49323
 C98 C 0.77609 0.29218 0.57446
 C99 C 0.81578 0.31277 0.57781
 C100 C 0.83570 0.31642 0.49799
 C101 C 0.81772 0.30722 0.41431
 C102 C 0.77839 0.28387 0.41264
 H103 H 0.60657 0.17589 0.49321
 H104 H 0.70715 0.24842 0.34812
 H105 H 0.71122 0.23449 0.63574
 H106 H 0.76026 0.29023 0.63399
 H107 H 0.86632 0.33210 0.49941
 H108 H 0.76542 0.27283 0.34840
 O109 O 0.95065 0.40204 0.14881
 O110 O 0.90672 0.41182 0.07611
 C111 C 0.91632 0.39394 0.13388
 O112 O 1.04958 0.57026 0.17893
 O113 O 1.09382 0.56746 0.08932
 C114 C 1.08412 0.58108 0.15712
 O115 O 0.94532 0.51131 0.18138
 O116 O 0.90323 0.46465 0.08686
 C117 C 0.91118 0.48642 0.15739
 O118 O 1.05424 0.45447 0.13486
 O119 O 1.09598 0.51183 0.06923
 C120 C 1.08804 0.48293 0.12215
 Zr121 Zr 1.00160 0.44694 0.09765
 O122 O 1.00557 0.44047 0.23836
 O123 O 1.00142 0.39584 0.06896
 Zr124 Zr 0.99815 0.52804 0.12351
 O125 O 0.99866 0.52789 0.26611
 O126 O 0.99250 0.57718 0.12617
 O127 O 0.96660 0.46877 0.12927
 O128 O 1.03250 0.50427 0.12798
 O129 O 1.05375 0.46927 -0.17754
 O130 O 1.09581 0.51855 -0.08787
 C131 C 1.08766 0.49508 -0.15520
 O132 O 0.94523 0.52525 -0.15152
 O133 O 0.90400 0.46941 -0.07914
 C134 C 0.91174 0.49599 -0.13874
 O135 O 1.04943 0.58564 -0.13776
 O136 O 1.09369 0.57537 -0.06901
 C137 C 1.08407 0.59450 -0.12301
 O138 O 0.94952 0.41774 -0.18473
 O139 O 0.90579 0.41643 -0.08602
 C140 C 0.91508 0.40516 -0.15835
 Zr141 Zr 1.00126 0.45622 -0.12397
 O142 O 1.00178 0.45649 -0.26672
 O143 O 0.99956 0.40312 -0.12636
 Zr144 Zr 0.99802 0.53762 -0.09862
 O145 O 1.00174 0.54830 -0.23900
 O146 O 0.99094 0.58514 -0.07518
 Zr147 Zr 0.94270 0.46144 -0.00036
 Zr148 Zr 1.05715 0.52329 -0.00025
 O149 O 1.03231 0.51535 -0.12866
 O150 O 0.96654 0.47977 -0.12987
 O151 O 1.03627 0.46423 -0.01507
 O152 O 0.96404 0.52037 0.01393
 O153 O 0.96782 0.42757 -0.01479
 O154 O 1.03242 0.55777 0.01468
 H155 H 1.04870 0.51017 0.18201
 H156 H 0.94555 0.52920 0.01852
 H157 H 1.04875 0.52677 -0.18205
 H158 H 0.95112 0.39955 -0.02011
 H159 H 1.01746 0.59971 0.11275
 H160 H 1.01394 0.60501 -0.04480
 H161 H 0.98963 0.52312 -0.26881
 H162 H 1.01233 0.48319 -0.28693
 H163 H 1.02387 0.40719 -0.10256
 H164 H 1.00176 0.38451 0.12807
 H165 H 0.98782 0.44675 0.26812
 H166 H 1.00535 0.50870 0.28520
 O167 O 0.59295 0.55024 0.15600
 O168 O 0.59071 0.50076 0.07600
 C169 C 0.60505 0.52702 0.13752
 O170 O 0.42519 0.46713 0.17022
 O171 O 0.42430 0.51328 0.08167
 C172 C 0.41181 0.48896 0.14802
 O173 O 0.49093 0.42985 0.17463
 O174 O 0.54242 0.44360 0.08724
 C175 C 0.52001 0.42662 0.15520
 O176 O 0.53185 0.59333 0.14885
 O177 O 0.47543 0.57379 0.07732
 C178 C 0.50139 0.59494 0.13544
 Zr179 Zr 0.54676 0.55343 0.10405
 O180 O 0.55103 0.56074 0.24569
 O181 O 0.59433 0.60805 0.08211
 Zr182 Zr 0.47089 0.46359 0.11662
 O183 O 0.46693 0.46054 0.25880
 O184 O 0.42583 0.40639 0.10962
 O185 O 0.52940 0.49626 0.12880
 O186 O 0.48949 0.52120 0.12829
 O187 O 0.52571 0.58703 -0.16766
 O188 O 0.47206 0.57040 -0.08601
 C189 C 0.49587 0.58924 -0.15029
 O190 O 0.48412 0.42287 -0.15929
 O191 O 0.53866 0.43975 -0.08160
 C192 C 0.51385 0.42029 -0.14355
 O193 O 0.41826 0.46035 -0.15137
 O194 O 0.42201 0.51139 -0.07549
 C195 C 0.40637 0.48387 -0.13375
 O196 O 0.58602 0.54302 -0.17748
 O197 O 0.58784 0.49782 -0.08712
 C198 C 0.59957 0.52132 -0.15516
 Zr199 Zr 0.54256 0.54901 -0.11876
 O200 O 0.54173 0.55172 -0.26115
 O201 O 0.59228 0.60334 -0.11654
 Zr202 Zr 0.46658 0.45929 -0.10585
 O203 O 0.45796 0.45338 -0.24692
 O204 O 0.42215 0.40236 -0.08678
 Zr205 Zr 0.54159 0.48458 -0.00142
 Zr206 Zr 0.47190 0.52818 -0.00045
 O207 O 0.48465 0.51613 -0.12968
 O208 O 0.52445 0.49109 -0.13135
 O209 O 0.52919 0.57124 -0.00799
 O210 O 0.48426 0.44224 0.00601
 O211 O 0.57062 0.54457 -0.00844
 O212 O 0.44184 0.46792 0.00673
 H213 H 0.48107 0.52838 0.18356
 H214 H 0.47815 0.41529 0.00889
 H215 H 0.47415 0.52100 -0.18492
 H216 H 0.59855 0.55831 -0.01152
 H217 H 0.40239 0.40688 0.09689
 H218 H 0.39984 0.40326 -0.06486
 H219 H 0.48313 0.46701 -0.27553
 H220 H 0.53281 0.52566 -0.28375
 H221 H 0.58598 0.62144 -0.08791
 H222 H 0.60397 0.61870 0.14276
 H223 H 0.54589 0.53626 0.27287
 H224 H 0.48865 0.48427 0.28174
 O225 O 0.53250 -0.03898 0.17636
 O226 O 0.48801 -0.08723 0.08845
 C227 C 0.51167 -0.07466 0.15532
 O228 O 0.44775 0.04336 0.15669
 O229 O 0.49679 0.09141 0.07676
 C230 C 0.47033 0.07911 0.13769
 O231 O 0.41226 -0.06070 0.16343
 O232 O 0.42966 -0.09789 0.08444
 C233 C 0.41031 -0.09307 0.14722
 O234 O 0.57424 0.06555 0.16084
 O235 O 0.55764 0.10245 0.07714
 C236 C 0.57694 0.09801 0.14108
 Zr237 Zr 0.53710 0.01003 0.11502
 O238 O 0.54278 0.01349 0.25694
 O239 O 0.59180 0.01779 0.10185
 Zr240 Zr 0.44761 -0.00577 0.10950
 O241 O 0.44461 -0.00302 0.25157
 O242 O 0.39086 -0.01900 0.09648
 O243 O 0.48034 -0.03099 0.13223
 O244 O 0.50387 0.03452 0.12846
 O245 O 0.57658 0.06466 -0.15712
 O246 O 0.55647 0.10125 -0.08507
 C247 C 0.57711 0.09658 -0.14452
 O248 O 0.41677 -0.06125 -0.16964
 O249 O 0.43264 -0.09804 -0.08277
 C250 C 0.41504 -0.09333 -0.15006
 O251 O 0.45157 0.04289 -0.16819
 O252 O 0.49715 0.09099 -0.08195
 C253 C 0.47281 0.07862 -0.14730
 O254 O 0.53644 -0.04039 -0.15928
 O255 O 0.48945 -0.08812 -0.07442
 C256 C 0.51463 -0.07604 -0.13805
 Zr257 Zr 0.53907 0.00930 -0.10789
 O258 O 0.54450 0.01178 -0.25001
 O259 O 0.59338 0.01569 -0.09456
 Zr260 Zr 0.44937 -0.00647 -0.11375
 O261 O 0.44419 -0.00630 -0.25552
 O262 O 0.39258 -0.01969 -0.10186
 Zr263 Zr 0.47304 -0.05513 0.00284
 Zr264 Zr 0.51364 0.05882 -0.00153
 O265 O 0.50581 0.03344 -0.12968
 O266 O 0.48264 -0.03163 -0.12832
 O267 O 0.55719 0.04552 0.00270
 O268 O 0.43021 -0.04109 -0.00148
 O269 O 0.53234 -0.02302 0.00557
 O270 O 0.45405 0.02732 -0.00393
 H271 H 0.50947 0.05058 0.18274
 H272 H 0.40372 -0.06244 -0.00283
 H273 H 0.51174 0.04863 -0.18592
 H274 H 0.54642 -0.03694 0.00809
 H275 H 0.39104 0.00373 0.07131
 H276 H 0.39269 0.00444 -0.09130
 H277 H 0.46774 -0.00345 -0.28075
 H278 H 0.52001 -0.00790 -0.27506
 H279 H 0.61001 0.04071 -0.06598
 H280 H 0.60106 0.01883 0.16411
 H281 H 0.51859 0.00923 0.28140
 H282 H 0.45565 -0.01771 0.27766
 C283 C 1.16253 0.49177 0.32146
 C284 C 1.12435 0.45451 0.32269
 C285 C 1.10102 0.45120 0.25480
 C286 C 1.11744 0.48528 0.18840
 C287 C 1.13020 0.52054 0.24668
 C288 C 1.15347 0.52419 0.31499
 C289 C 1.17865 0.49202 0.22628
 C290 C 1.15476 0.48861 0.15632
 H291 H 1.11697 0.43155 0.37091
 H292 H 1.07417 0.42505 0.24624
 H293 H 1.12510 0.54326 0.22833
 H294 H 1.16689 0.54974 0.35631
 H295 H 1.20601 0.49495 0.21386
 H296 H 1.16184 0.48851 0.08587
 C297 C 0.48094 0.65546 0.32996
 C298 C 0.50814 0.64153 0.35691
 C299 C 0.51416 0.62192 0.29260
 C300 C 0.49377 0.61847 0.20281
 C301 C 0.45201 0.60083 0.22872
 C302 C 0.44529 0.61982 0.29493
 C303 C 0.49913 0.67934 0.24292
 C304 C 0.50595 0.65984 0.17689
 H305 H 0.52302 0.64806 0.42087
 H306 H 0.53340 0.61140 0.30458
 H307 H 0.42927 0.57718 0.19308
 H308 H 0.41688 0.61154 0.31648
 H309 H 0.50484 0.70812 0.23093
 H310 H 0.51763 0.67228 0.11149
 C311 C 0.34963 -0.17774 0.33626
 C312 C 0.36247 -0.13670 0.36565
 C313 C 0.38226 -0.10979 0.30327
 C314 C 0.38679 -0.12543 0.21270
 C315 C 0.40442 -0.14987 0.23681
 C316 C 0.38539 -0.17683 0.30119
 C317 C 0.32657 -0.18251 0.24911
 C318 C 0.34617 -0.15489 0.18474
 H319 H 0.35440 -0.12948 0.42898
 H320 H 0.39169 -0.08003 0.31662
 H321 H 0.42775 -0.14863 0.20008
 H322 H 0.39353 -0.19755 0.32054
 H323 H 0.29821 -0.20568 0.23636
 H324 H 0.33426 -0.15470 0.11947
 C325 C 0.82960 0.47446 0.34031
 C326 C 0.82489 0.48913 0.24696
 C327 C 0.85145 0.49317 0.18420
 C328 C 0.87992 0.48210 0.22032
 C329 C 0.89639 0.50682 0.30525
 C330 C 0.87048 0.50335 0.36552
 C331 C 0.82909 0.43725 0.31834
 C332 C 0.85478 0.44126 0.25494
 H333 H 0.80300 0.49563 0.23049
 H334 H 0.85191 0.50295 0.11572
 H335 H 0.92579 0.52842 0.31455
 H336 H 0.87827 0.52264 0.42226
 H337 H 0.80724 0.40941 0.34196
 H338 H 0.85277 0.41682 0.22127
 C339 C 0.53763 0.36395 0.34974
 C340 C 0.57265 0.38727 0.28976
 C341 C 0.56771 0.40785 0.22284
 C342 C 0.52815 0.40345 0.22216
 C343 C 0.50075 0.36032 0.21618
 C344 C 0.50552 0.33968 0.28248
 C345 C 0.52724 0.39344 0.38359
 C346 C 0.52301 0.41405 0.31814
 H347 H 0.59904 0.38758 0.29918
 H348 H 0.58991 0.42566 0.17554
 H349 H 0.47902 0.34716 0.16497
 H350 H 0.48707 0.30902 0.28758
 H351 H 0.52237 0.39766 0.45315
 H352 H 0.51576 0.43570 0.33400
 C353 C 0.63705 0.18255 0.32945
 C354 C 0.62917 0.14248 0.35440
 C355 C 0.60998 0.11568 0.29200
 C356 C 0.60045 0.13056 0.20587
 C357 C 0.57986 0.15098 0.23937
 C358 C 0.59855 0.17766 0.30426
 C359 C 0.65810 0.19070 0.23763
 C360 C 0.63879 0.16331 0.17314
 H361 H 0.63986 0.13597 0.41488
 H362 H 0.60430 0.08675 0.30236
 H363 H 0.55517 0.14829 0.20641
 H364 H 0.58852 0.19614 0.32895
 H365 H 0.68510 0.21572 0.22274
 H366 H 0.64950 0.16517 0.10530
 C367 C 0.47663 0.15311 -0.34163
 C368 C 0.50085 0.13464 -0.35891
 C369 C 0.49882 0.11049 -0.29333
 C370 C 0.47344 0.10692 -0.21388
 C371 C 0.48869 0.14814 -0.18162
 C372 C 0.49020 0.17243 -0.24816
 C373 C 0.43657 0.11950 -0.32223
 C374 C 0.43497 0.09539 -0.25601
 H375 H 0.51895 0.14074 -0.41744
 H376 H 0.51472 0.09577 -0.29696
 H377 H 0.49589 0.15704 -0.11198
 H378 H 0.49803 0.20156 -0.23253
 H379 H 0.41137 0.11565 -0.35593
 H380 H 0.40854 0.07111 -0.23359
 C381 C 0.67176 0.51966 -0.34493
 C382 C 0.67423 0.50234 -0.25349
 C383 C 0.65101 0.50317 -0.18821
 C384 C 0.62757 0.52112 -0.21997
 C385 C 0.65696 0.56078 -0.25515
 C386 C 0.67997 0.56005 -0.32008
 C387 C 0.62931 0.49702 -0.36764
 C388 C 0.60671 0.49864 -0.30400
 H389 H 0.69235 0.49072 -0.23921
 H390 H 0.64982 0.49247 -0.12033
 H391 H 0.66007 0.58725 -0.22955
 H392 H 0.70272 0.58603 -0.34960
 H393 H 0.61775 0.48014 -0.42829
 H394 H 0.57622 0.48382 -0.31151
 C395 C 0.83779 0.33446 -0.34541
 C396 C 0.81875 0.33345 -0.25431
 C397 C 0.84374 0.35647 -0.18952
 C398 C 0.88512 0.37807 -0.22170
 C399 C 0.89241 0.34662 -0.25516
 C400 C 0.86776 0.32386 -0.31913
 C401 C 0.86006 0.37728 -0.36972
 C402 C 0.88493 0.39963 -0.30631
 H403 H 0.78894 0.31591 -0.23965
 H404 H 0.83495 0.35837 -0.12166
 H405 H 0.91432 0.34179 -0.22845
 H406 H 0.86873 0.29959 -0.34664
 H407 H 0.85543 0.38935 -0.43056
 H408 H 0.90184 0.43041 -0.31413
 C409 C 0.51492 -0.14962 -0.32736
 C410 C 0.49940 -0.16978 -0.23558
 C411 C 0.49957 -0.14595 -0.16966
 C412 C 0.51540 -0.10437 -0.20172
 C413 C 0.55466 -0.09245 -0.23958
 C414 C 0.55438 -0.11598 -0.30503
 C415 C 0.49061 -0.13139 -0.34797
 C416 C 0.49167 -0.10742 -0.28397
 H417 H 0.48897 -0.19979 -0.22273
 H418 H 0.48960 -0.15572 -0.10157
 H419 H 0.58060 -0.06814 -0.21536
 H420 H 0.58011 -0.11167 -0.33659
 H421 H 0.47334 -0.13732 -0.40790
 H422 H 0.47661 -0.09200 -0.29102
 C423 C 0.33546 0.48573 -0.32799
 C424 C 0.33185 0.44639 -0.31432
 C425 C 0.35394 0.44519 -0.24753
 C426 C 0.37800 0.48350 -0.19919
 C427 C 0.39977 0.51207 -0.27437
 C428 C 0.37797 0.51386 -0.33995
 C429 C 0.32676 0.49583 -0.23387
 C430 C 0.34925 0.49472 -0.16620
 H431 H 0.31253 0.42120 -0.35241
 H432 H 0.35322 0.41893 -0.22875
 H433 H 0.43015 0.52985 -0.27563
 H434 H 0.39006 0.53401 -0.39557
 H435 H 0.30534 0.50337 -0.22090
 H436 H 0.34674 0.50109 -0.09640
 C437 C 1.15800 0.66531 -0.31953
 C438 C 1.17357 0.68079 -0.22361
 C439 C 1.14979 0.65871 -0.15446
 C440 C 1.11309 0.62364 -0.18795
 C441 C 1.09595 0.64076 -0.25268
 C442 C 1.11924 0.66253 -0.31967
 C443 C 1.14999 0.62401 -0.31576
 C444 C 1.12712 0.60295 -0.24775
 H445 H 1.20000 0.70674 -0.21026
 H446 H 1.15626 0.66582 -0.08375
 H447 H 1.06872 0.63860 -0.24300
 H448 H 1.11148 0.67826 -0.36600
 H449 H 1.16453 0.61340 -0.35727
 H450 H 1.12410 0.57590 -0.22892
 C451 C 0.83458 0.48367 -0.33497
 C452 C 0.82446 0.44612 -0.28620
 C453 C 0.84888 0.44993 -0.21895
 C454 C 0.88190 0.49095 -0.20662
 C455 C 0.89971 0.50284 -0.30074
 C456 C 0.87566 0.49995 -0.36611
 C457 C 0.83808 0.51110 -0.25815
 C458 C 0.86292 0.51488 -0.19137
 H459 H 0.79955 0.41895 -0.30170
 H460 H 0.84443 0.42607 -0.17697
 H461 H 0.92928 0.51366 -0.31541
 H462 H 0.88562 0.50934 -0.43410
 H463 H 0.82351 0.52713 -0.25641
 H464 H 0.86870 0.53338 -0.13363
 C465 C 0.53163 0.35572 -0.33138
 C466 C 0.56798 0.39147 -0.29937
 C467 C 0.56222 0.41196 -0.23525
 C468 C 0.52075 0.39564 -0.20869
 C469 C 0.49995 0.39111 -0.29840
 C470 C 0.50495 0.36997 -0.36030
 C471 C 0.51381 0.33354 -0.24225
 C472 C 0.50793 0.35454 -0.17858
 H473 H 0.59611 0.39844 -0.32023
 H474 H 0.58539 0.43537 -0.20023
 H475 H 0.48102 0.40193 -0.31181
 H476 H 0.48926 0.36214 -0.42317
 H477 H 0.50848 0.30512 -0.22672
 H478 H 0.49704 0.34356 -0.11170
 C479 C 0.63696 0.17575 -0.34424
 C480 C 0.66212 0.17170 -0.27201
 C481 C 0.64245 0.14656 -0.20413
 C482 C 0.59949 0.12745 -0.21359
 C483 C 0.59166 0.16069 -0.22153
 C484 C 0.61108 0.18575 -0.28996
 C485 C 0.61086 0.13435 -0.37518
 C486 C 0.59103 0.10977 -0.30829
 H487 H 0.69257 0.18547 -0.27505
 H488 H 0.65624 0.14014 -0.14995
 H489 H 0.57247 0.16421 -0.17772
 H490 H 0.60839 0.21055 -0.30408
 H491 H 0.60840 0.12453 -0.44405
 H492 H 0.57121 0.07996 -0.32220
 C493 C 1.16259 0.50572 -0.35369
 C494 C 1.13738 0.46477 -0.31789
 C495 C 1.11414 0.46168 -0.24911
 C496 C 1.11736 0.49966 -0.22198
 C497 C 1.15957 0.52607 -0.19997
 C498 C 1.18340 0.52911 -0.26898
 C499 C 1.13539 0.52052 -0.37623
 C500 C 1.11106 0.51562 -0.30983
 H501 H 1.13847 0.44025 -0.34318
 H502 H 1.09552 0.43465 -0.21603
 H503 H 1.16976 0.54121 -0.13669
 H504 H 1.21376 0.54740 -0.26426
 H505 H 1.13617 0.53543 -0.43800
 H506 H 1.08988 0.52396 -0.31836
 C507 C 0.47519 0.64694 -0.35205
 C508 C 0.48536 0.61674 -0.38189
 C509 C 0.49067 0.59804 -0.31366
 C510 C 0.48704 0.61119 -0.21927
 C511 C 0.51445 0.65439 -0.21998
 C512 C 0.50849 0.67310 -0.28911
 C513 C 0.44127 0.62530 -0.28792
 C514 C 0.44745 0.60670 -0.21844
 H515 H 0.49050 0.61142 -0.45043
 H516 H 0.49817 0.57637 -0.32659
 H517 H 0.53702 0.66896 -0.17128
 H518 H 0.52675 0.70358 -0.29921
 H519 H 0.41465 0.62461 -0.29649
 H520 H 0.42608 0.59024 -0.16816
 C521 C 0.35896 -0.17504 -0.34519
 C522 C 0.38654 -0.13410 -0.37869
 C523 C 0.40482 -0.10870 -0.31285
 C524 C 0.39398 -0.12504 -0.21710
 C525 C 0.35094 -0.14336 -0.21373
 C526 C 0.33260 -0.16938 -0.28044
 C527 C 0.38287 -0.18494 -0.28281
 C528 C 0.40110 -0.15891 -0.21563
 H529 H 0.39083 -0.12459 -0.44814
 H530 H 0.42471 -0.07896 -0.32834
 H531 H 0.33618 -0.13619 -0.16390
 H532 H 0.30217 -0.18373 -0.28738
 H533 H 0.38520 -0.21027 -0.29070
 H534 H 0.41884 -0.16220 -0.16634
 C535 C 0.51196 -0.14824 0.34547
 C536 C 0.49547 -0.16816 0.25426
 C537 C 0.49575 -0.14409 0.18888
 C538 C 0.51241 -0.10256 0.22054
 C539 C 0.48972 -0.10487 0.30451
 C540 C 0.48879 -0.12910 0.36840
 C541 C 0.55159 -0.11515 0.32114
 C542 C 0.55183 -0.09133 0.25589
 H543 H 0.48508 -0.19798 0.24013
 H544 H 0.48571 -0.15363 0.12085
 H545 H 0.47449 -0.08955 0.31197
 H546 H 0.47214 -0.13486 0.42937
 H547 H 0.57738 -0.11136 0.35134
 H548 H 0.57775 -0.06724 0.23049
 C549 C 0.34239 0.49270 0.34165
 C550 C 0.33901 0.50956 0.25057
 C551 C 0.36123 0.50801 0.18368
 C552 C 0.38459 0.48982 0.21400
 C553 C 0.40662 0.51287 0.29666
 C554 C 0.38493 0.51506 0.36192
 C555 C 0.33351 0.45204 0.31803
 C556 C 0.35544 0.45053 0.25143
 H557 H 0.32146 0.52203 0.23858
 H558 H 0.36206 0.51871 0.11599
 H559 H 0.43715 0.52747 0.30233
 H560 H 0.39715 0.53201 0.42224
 H561 H 0.31112 0.42646 0.34982
 H562 H 0.35179 0.42375 0.22640
 C563 C 1.15789 0.64952 0.35399
 C564 C 1.13253 0.66404 0.31538
 C565 C 1.10937 0.64236 0.24755
 C566 C 1.11305 0.60756 0.22419
 C567 C 1.15525 0.62421 0.20278
 C568 C 1.17884 0.64632 0.27072
 C569 C 1.13076 0.60759 0.38032
 C570 C 1.10690 0.58635 0.31413
 H571 H 1.13337 0.68984 0.33840
 H572 H 1.09049 0.64962 0.21286
 H573 H 1.16564 0.61870 0.14071
 H574 H 1.20916 0.65885 0.26594
 H575 H 1.13095 0.59514 0.44521
 H576 H 1.08622 0.55635 0.32414
 C577 C 0.47318 0.15258 0.33266
 C578 C 0.43283 0.12187 0.30568
 C579 C 0.43126 0.09820 0.23841
 C580 C 0.47020 0.10710 0.20405
 C581 C 0.48998 0.14947 0.17591
 C582 C 0.49160 0.17335 0.24312
 C583 C 0.49349 0.13029 0.35412
 C584 C 0.49104 0.10617 0.28888
 H585 H 0.40763 0.11949 0.33583
 H586 H 0.40479 0.07569 0.21129
 H587 H 0.50161 0.15978 0.10918
 H588 H 0.50503 0.20387 0.23237
 H589 H 0.50941 0.13377 0.41541
 H590 H 0.50425 0.08889 0.29619
 C591 C 0.67613 0.52546 0.33059
 C592 C 0.63347 0.50042 0.34836
 C593 C 0.61144 0.50202 0.28307
 C594 C 0.63314 0.52721 0.20277
 C595 C 0.66028 0.56650 0.24350
 C596 C 0.68261 0.56554 0.31010
 C597 C 0.68152 0.51101 0.23838
 C598 C 0.65880 0.51188 0.17137
 H599 H 0.62141 0.48223 0.40722
 H600 H 0.58094 0.48632 0.28775
 H601 H 0.66251 0.59298 0.22029
 H602 H 0.70379 0.59120 0.34370
 H603 H 0.70081 0.50065 0.22592
 H604 H 0.65914 0.50262 0.10297
 C605 C 0.84162 0.32769 0.33147
 C606 C 0.82156 0.32861 0.24385
 C607 C 0.84576 0.34932 0.17550
 C608 C 0.88770 0.36729 0.20089
 C609 C 0.89262 0.39025 0.28638
 C610 C 0.86813 0.37027 0.35264
 C611 C 0.86793 0.31295 0.30162
 C612 C 0.89193 0.33354 0.23305
 H613 H 0.79127 0.31523 0.23583
 H614 H 0.83595 0.35282 0.11007
 H615 H 0.91260 0.42062 0.29277
 H616 H 0.86698 0.38420 0.41384
 H617 H 0.86720 0.28800 0.33083
 H618 H 0.91164 0.32617 0.20377
   
