data_POSCAR
  _audit_creation_date              2014-09-24
  _audit_creation_method            'ToBaCCo'
  _symmetry_space_group_name_H-M    'P1'
  _symmetry_Int_Tables_number       1
  _symmetry_cell_setting            triclinic
  loop_
  _symmetry_equiv_pos_as_xyz
 x,y,z
_cell_length_a 25.2436
_cell_length_b 22.4408
_cell_length_c 7.0717
_cell_angle_alpha 90.427300
_cell_angle_beta 90.121200
_cell_angle_gamma 90.133600
loop_
  _atom_site_label
  _atom_site_type_symbol
  _atom_site_fract_x
  _atom_site_fract_y
  _atom_site_fract_z
C1 C 0.24964 0.27863 0.24357
 C2 C 0.24890 0.21834 0.24922
 C3 C 0.20023 0.18361 0.20996
 C4 C 0.29719 0.18381 0.29056
 C5 C 0.29816 0.31320 0.28465
 C6 C 0.20158 0.31346 0.20248
 C7 C 0.17663 0.15023 0.35390
 C8 C 0.13295 0.11372 0.31474
 C9 C 0.11192 0.10981 0.12975
 C10 C 0.13558 0.14462 -0.01314
 C11 C 0.17959 0.18035 0.02636
 C12 C 0.31392 0.17604 0.47764
 C13 C 0.35795 0.14072 0.51706
 C14 C 0.38540 0.11164 0.37006
 C15 C 0.36845 0.11963 0.18240
 C16 C 0.32465 0.15555 0.14309
 C17 C 0.32667 0.33963 0.13729
 C18 C 0.37020 0.37633 0.17749
 C19 C 0.38585 0.38681 0.36584
 C20 C 0.35741 0.35945 0.51264
 C21 C 0.31360 0.32352 0.47233
 C22 C 0.18875 0.32763 0.01548
 C23 C 0.14505 0.36349 -0.02323
 C24 C 0.11429 0.38710 0.12500
 C25 C 0.12746 0.37300 0.31269
 C26 C 0.17074 0.33615 0.35100
 H27 H 0.19249 0.15193 0.49634
 H28 H 0.11625 0.08807 0.42949
 H29 H 0.12133 0.14305 -0.15778
 H30 H 0.19839 0.20430 -0.08773
 H31 H 0.29228 0.19636 0.59328
 H32 H 0.36961 0.13492 0.66325
 H33 H 0.31169 0.16075 -0.00201
 H34 H 0.31471 0.33254 -0.00837
 H35 H 0.39123 0.39693 0.06164
 H36 H 0.36804 0.36721 0.65926
 H37 H 0.29105 0.30478 0.58774
 H38 H 0.21301 0.31159 -0.10027
 H39 H 0.13629 0.37417 -0.16910
 H40 H 0.10457 0.39072 0.42954
 H41 H 0.18077 0.32611 0.49634
 H42 H 0.38864 0.09767 0.06637
 C43 C 0.75019 0.21987 0.24923
 C44 C 0.74994 0.28014 0.24683
 C45 C 0.79822 0.31483 0.20614
 C46 C 0.70159 0.31471 0.28751
 C47 C 0.70192 0.18518 0.29037
 C48 C 0.79863 0.18536 0.20933
 C49 C 0.82670 0.34173 0.35435
 C50 C 0.87037 0.37805 0.31550
 C51 C 0.88619 0.38770 0.12762
 C52 C 0.85775 0.35992 -0.02014
 C53 C 0.81380 0.32430 0.01886
 C54 C 0.68538 0.32376 0.47472
 C55 C 0.64156 0.35946 0.51437
 C56 C 0.61384 0.38776 0.36746
 C57 C 0.63027 0.37854 0.17962
 C58 C 0.67384 0.34217 0.14005
 C59 C 0.67359 0.15780 0.14263
 C60 C 0.62990 0.12156 0.18203
 C61 C 0.61391 0.11245 0.37001
 C62 C 0.64220 0.14068 0.51727
 C63 C 0.68616 0.17623 0.47775
 C64 C 0.81539 0.17675 0.02252
 C65 C 0.85945 0.14133 -0.01628
 C66 C 0.88689 0.11290 0.13105
 C67 C 0.86992 0.12170 0.31847
 C68 C 0.82610 0.15777 0.35720
 H69 H 0.81462 0.33523 0.49968
 H70 H 0.89139 0.39899 0.43208
 H71 H 0.86854 0.36704 -0.16642
 H72 H 0.79134 0.30503 -0.09714
 H73 H 0.70733 0.30422 0.59036
 H74 H 0.63034 0.36623 0.66069
 H75 H 0.68642 0.33605 -0.00518
 H76 H 0.68581 0.16389 -0.00275
 H77 H 0.60902 0.10025 0.06582
 H78 H 0.63130 0.13397 0.66365
 H79 H 0.70851 0.19583 0.59347
 H80 H 0.79370 0.19645 -0.09347
 H81 H 0.87109 0.13486 -0.16232
 H82 H 0.89012 0.10023 0.43472
 H83 H 0.81314 0.16360 0.50211
 H84 H 0.60982 0.39988 0.06368
 C85 C 0.75127 0.78137 0.75088
 C86 C 0.75058 0.72108 0.75597
 C87 C 0.70200 0.68653 0.71549
 C88 C 0.79874 0.68627 0.79597
 C89 C 0.80000 0.81607 0.78932
 C90 C 0.70293 0.81590 0.71023
 C91 C 0.67356 0.66018 0.86320
 C92 C 0.62983 0.62373 0.82354
 C93 C 0.61389 0.61343 0.63539
 C94 C 0.64228 0.64068 0.48827
 C95 C 0.68629 0.67635 0.52802
 C96 C 0.81215 0.67254 0.98280
 C97 C 0.85608 0.63694 1.02066
 C98 C 0.88649 0.61314 0.87181
 C99 C 0.87271 0.62675 0.68431
 C100 C 0.82921 0.66335 0.64680
 C101 C 0.82369 0.84907 0.64457
 C102 C 0.86755 0.88540 0.68298
 C103 C 0.88856 0.88932 0.86754
 C104 C 0.86488 0.85516 1.01137
 C105 C 0.82069 0.81960 0.97290
 C106 C 0.68606 0.82372 0.52335
 C107 C 0.64191 0.85891 0.48448
 C108 C 0.61447 0.88781 0.63185
 C109 C 0.63157 0.87979 0.81933
 C110 C 0.67550 0.84399 0.85809
 H111 H 0.68572 0.66718 1.00870
 H112 H 0.60885 0.60319 0.93963
 H113 H 0.63145 0.63304 0.34177
 H114 H 0.70875 0.69505 0.41234
 H115 H 0.78817 0.68873 1.09910
 H116 H 0.86528 0.62660 1.16643
 H117 H 0.81874 0.67306 0.50161
 H118 H 0.80779 0.84720 0.50221
 H119 H 0.88449 0.91089 0.56839
 H120 H 0.87934 0.85719 1.15566
 H121 H 0.80183 0.79599 1.08757
 H122 H 0.70767 0.80352 0.40742
 H123 H 0.63016 0.86475 0.33841
 H124 H 0.61139 0.90163 0.93562
 H125 H 0.68855 0.83873 1.00306
 H126 H 0.89531 0.60885 0.56701
 C127 C 0.24893 0.71983 0.75388
 C128 C 0.24887 0.78019 0.75242
 C129 C 0.29733 0.81464 0.71167
 C130 C 0.20055 0.81515 0.79137
 C131 C 0.20059 0.68493 0.79306
 C132 C 0.29734 0.68530 0.71341
 C133 C 0.32559 0.84201 0.85957
 C134 C 0.36943 0.87807 0.82045
 C135 C 0.38563 0.88701 0.63260
 C136 C 0.35739 0.85878 0.48520
 C137 C 0.31329 0.82342 0.52443
 C138 C 0.18269 0.82255 0.97724
 C139 C 0.13875 0.85816 1.01561
 C140 C 0.11297 0.88925 0.86930
 C141 C 0.13159 0.88215 0.68270
 C142 C 0.17485 0.84515 0.64429
 C143 C 0.17432 0.65501 0.64545
 C144 C 0.13102 0.61804 0.68363
 C145 C 0.11289 0.61093 0.87056
 C146 C 0.13924 0.64196 1.01748
 C147 C 0.18325 0.67752 0.97924
 C148 C 0.31364 0.67623 0.52630
 C149 C 0.35758 0.64071 0.48698
 C150 C 0.38535 0.61258 0.63410
 C151 C 0.36881 0.62177 0.82184
 C152 C 0.32510 0.65798 0.86107
 H153 H 0.31320 0.83608 1.00483
 H154 H 0.39025 0.89940 0.93677
 H155 H 0.36843 0.86537 0.33890
 H156 H 0.29098 0.80386 0.40854
 H157 H 0.20351 0.80190 1.09344
 H158 H 0.12633 0.86296 1.16150
 H159 H 0.18881 0.84058 0.50015
 H160 H 0.18790 0.65960 0.50104
 H161 H 0.11200 0.59492 0.56673
 H162 H 0.12719 0.63715 1.16356
 H163 H 0.20450 0.69817 1.09565
 H164 H 0.29168 0.69567 0.41049
 H165 H 0.36889 0.63394 0.34073
 H166 H 0.38928 0.60053 0.93793
 H167 H 0.31244 0.66409 1.00622
 H168 H 0.11303 0.90532 0.56628
 O169 O 1.05318 -0.06930 0.07896
 O170 O 0.94904 0.03726 0.21254
 O171 O 0.94928 -0.07008 0.07729
 O172 O 1.05263 0.03797 0.21369
 O173 O 1.05337 0.06990 -0.07972
 O174 O 0.94886 -0.03691 -0.21495
 O175 O 0.94957 0.07056 -0.07993
 O176 O 1.05237 -0.03768 -0.21507
 Cu177 Cu 1.00102 -0.01989 0.17376
 Cu178 Cu 1.00107 0.02032 -0.17559
 C179 C 1.07121 -0.07161 -0.08845
 C180 C 0.93102 0.07192 0.08671
 C181 C 0.93056 -0.07161 -0.08952
 C182 C 1.07161 0.07214 0.08785
 O183 O 0.55158 0.43018 0.57966
 O184 O 0.44781 0.53712 0.71485
 O185 O 0.44801 0.42977 0.57887
 O186 O 0.55154 0.53757 0.71560
 O187 O 0.55145 0.57075 0.42290
 O188 O 0.44795 0.46294 0.28616
 O189 O 0.44779 0.57033 0.42221
 O190 O 0.55157 0.46342 0.28704
 Cu191 Cu 0.49974 0.47985 0.67560
 Cu192 Cu 0.49968 0.52071 0.32627
 C193 C 0.56984 0.42881 0.41263
 C194 C 0.42949 0.57167 0.58918
 C195 C 0.42976 0.42821 0.41154
 C196 C 0.56978 0.57224 0.59011
 O197 O -0.05065 0.57074 0.08040
 O198 O 0.05215 0.46248 0.21049
 O199 O 0.05328 0.56969 0.07996
 O200 O -0.05130 0.46343 0.21070
 O201 O -0.05149 0.43004 -0.08331
 O202 O 0.05179 0.53792 -0.21542
 O203 O 0.05227 0.43036 -0.08502
 O204 O -0.05166 0.53746 -0.21381
 Cu205 Cu 0.00092 0.52049 0.17380
 Cu206 Cu 0.00019 0.48008 -0.17785
 C207 C -0.06941 0.57213 -0.08614
 C208 C 0.07040 0.42833 0.08233
 C209 C 0.07102 0.57187 -0.08777
 C210 C -0.06970 0.42873 0.08375
 O211 O 0.44802 1.07002 0.58180
 O212 O 0.55193 0.96327 0.71399
 O213 O 0.55166 1.07040 0.58181
 O214 O 0.44817 0.96290 0.71438
 O215 O 0.44800 0.92893 0.42101
 O216 O 0.55148 1.03643 0.28843
 O217 O 0.55168 0.92929 0.42063
 O218 O 0.44780 1.03601 0.28847
 Cu219 Cu 0.49996 1.02048 0.67652
 Cu220 Cu 0.49972 0.97881 0.32614
 C221 C 0.42958 1.07090 0.41473
 C222 C 0.57017 0.92843 0.58760
 C223 C 0.56984 1.07143 0.41468
 C224 C 0.42979 0.92793 0.58810
   
