data_POSCAR
  _audit_creation_date              2014-09-24
  _audit_creation_method            'ToBaCCo'
  _symmetry_space_group_name_H-M    'P1'
  _symmetry_Int_Tables_number       1
  _symmetry_cell_setting            triclinic
  loop_
  _symmetry_equiv_pos_as_xyz
 x,y,z
_cell_length_a 44.4756
_cell_length_b 44.5446
_cell_length_c 38.0643
_cell_angle_alpha 89.929200
_cell_angle_beta 89.996400
_cell_angle_gamma 88.419600
loop_
  _atom_site_label
  _atom_site_type_symbol
  _atom_site_fract_x
  _atom_site_fract_y
  _atom_site_fract_z
O1 O -0.03148 0.30113 0.03464
 O2 O 0.02780 0.30001 -0.03346
 O3 O -0.03136 0.30124 -0.03363
 O4 O 0.02756 0.30019 0.03470
 O5 O 0.02769 0.25057 0.03479
 O6 O -0.03055 0.25161 -0.03353
 O7 O 0.02749 0.25044 -0.03377
 O8 O -0.03039 0.25151 0.03498
 Cu9 Cu -0.00193 0.30567 0.00053
 Cu10 Cu -0.00139 0.24608 0.00062
 C11 C -0.04089 0.27640 0.04643
 C12 C 0.03770 0.27493 -0.04524
 C13 C -0.04093 0.27651 -0.04516
 C14 C 0.03760 0.27512 0.04633
 O15 O 0.46913 0.80047 0.53165
 O16 O 0.52796 0.80161 0.46324
 O17 O 0.46941 0.79906 0.46364
 O18 O 0.52816 0.80272 0.53198
 O19 O 0.52951 0.75318 0.53538
 O20 O 0.47482 0.74961 0.46319
 O21 O 0.53359 0.75231 0.46780
 O22 O 0.47193 0.75086 0.53186
 Cu23 Cu 0.49838 0.80599 0.49750
 Cu24 Cu 0.50270 0.74649 0.49944
 C25 C 0.46036 0.77538 0.54310
 C26 C 0.54124 0.77712 0.45459
 C27 C 0.46230 0.77363 0.45167
 C28 C 0.53850 0.77849 0.54561
 O29 O 1.03253 0.69972 0.03201
 O30 O 0.97331 0.70007 -0.03616
 O31 O 1.03243 0.69992 -0.03611
 O32 O 0.97330 0.69966 0.03210
 O33 O 0.97252 0.74928 0.03244
 O34 O 1.03048 0.74951 -0.03615
 O35 O 0.97246 0.74969 -0.03604
 O36 O 1.03062 0.74931 0.03243
 Cu37 Cu 1.00300 0.69483 -0.00204
 Cu38 Cu 1.00139 0.75439 -0.00178
 C39 C 1.04169 0.72456 0.04377
 C40 C 0.96289 0.72504 -0.04769
 C41 C 1.04148 0.72486 -0.04775
 C42 C 0.96290 0.72454 0.04382
 O43 O 0.52946 0.19843 0.53577
 O44 O 0.47099 0.19680 0.46704
 O45 O 0.52999 0.19834 0.46758
 O46 O 0.47044 0.19721 0.53528
 O47 O 0.46851 0.24683 0.53512
 O48 O 0.52700 0.24794 0.46714
 O49 O 0.46899 0.24642 0.46654
 O50 O 0.52653 0.24804 0.53559
 Cu51 Cu 0.50046 0.19267 0.50145
 Cu52 Cu 0.49748 0.25226 0.50106
 C53 C 0.53790 0.22358 0.54732
 C54 C 0.46013 0.22142 0.45509
 C55 C 0.53856 0.22343 0.45589
 C56 C 0.45945 0.22194 0.54673
 O57 O 0.70186 0.03350 -0.03160
 O58 O 0.70324 -0.02542 0.03684
 O59 O 0.70223 0.03351 0.03659
 O60 O 0.70225 -0.02543 -0.03138
 O61 O 0.75194 -0.02596 -0.03207
 O62 O 0.75193 0.03241 0.03601
 O63 O 0.75290 -0.02552 0.03658
 O64 O 0.75156 0.03209 -0.03249
 Cu65 Cu 0.69737 0.00410 0.00267
 Cu66 Cu 0.75705 0.00315 0.00192
 C67 C 0.72659 0.04274 -0.04367
 C68 C 0.72839 -0.03539 0.04848
 C69 C 0.72713 0.04293 0.04784
 C70 C 0.72716 -0.03565 -0.04329
 O71 O 0.19927 0.46865 0.53315
 O72 O 0.19999 0.52690 0.46411
 O73 O 0.19977 0.46794 0.46491
 O74 O 0.19972 0.52764 0.53231
 O75 O 0.24942 0.52551 0.53282
 O76 O 0.24947 0.46679 0.46512
 O77 O 0.24969 0.52482 0.46431
 O78 O 0.24897 0.46746 0.53371
 Cu79 Cu 0.19467 0.49794 0.49859
 Cu80 Cu 0.25435 0.49597 0.49904
 C81 C 0.22407 0.45819 0.54515
 C82 C 0.22503 0.53572 0.45250
 C83 C 0.22472 0.45730 0.45355
 C84 C 0.22466 0.53669 0.54398
 O85 O 0.29822 1.02572 0.03291
 O86 O 0.29867 0.96701 -0.03570
 O87 O 0.29794 1.02608 -0.03516
 O88 O 0.29922 0.96662 0.03260
 O89 O 0.24952 0.96772 0.03313
 O90 O 0.24829 1.02613 -0.03506
 O91 O 0.24897 0.96811 -0.03540
 O92 O 0.24857 1.02576 0.03356
 Cu93 Cu 0.30353 0.99626 -0.00137
 Cu94 Cu 0.24389 0.99699 -0.00090
 C95 C 0.27322 1.03575 0.04488
 C96 C 0.27380 0.95765 -0.04721
 C97 C 0.27281 1.03623 -0.04663
 C98 C 0.27450 0.95712 0.04437
 O99 O 0.79954 0.47255 0.46750
 O100 O 0.79968 0.53191 0.53508
 O101 O 0.79917 0.47292 0.53563
 O102 O 0.79995 0.53139 0.46681
 O103 O 0.75025 0.53278 0.46641
 O104 O 0.74947 0.47510 0.53544
 O105 O 0.74998 0.53314 0.53500
 O106 O 0.74983 0.47481 0.46698
 Cu107 Cu 0.80461 0.50204 0.50132
 Cu108 Cu 0.74491 0.50416 0.50095
 C109 C 0.77458 0.46366 0.45576
 C110 C 0.77477 0.54254 0.54653
 C111 C 0.77411 0.46405 0.54713
 C112 C 0.77515 0.54192 0.45487
 O113 O 0.22793 0.26531 0.29453
 O114 O 0.24322 0.19837 0.23992
 O115 O 0.26962 0.22278 0.29396
 O116 O 0.20235 0.24034 0.24058
 O117 O 0.22965 0.26779 0.20498
 O118 O 0.29682 0.25042 0.25846
 O119 O 0.27134 0.22518 0.20454
 O120 O 0.25578 0.29223 0.25896
 Cu121 Cu 0.23309 0.22899 0.27095
 Cu122 Cu 0.26611 0.26157 0.22802
 C123 C 0.23952 0.29008 0.28621
 C124 C 0.25955 0.20048 0.21272
 C125 C 0.29457 0.23402 0.28556
 C126 C 0.20464 0.25676 0.21349
 O127 O 0.70609 0.75164 0.26139
 O128 O 0.77158 0.73177 0.20559
 O129 O 0.74541 0.70751 0.26016
 O130 O 0.73146 0.77573 0.20732
 O131 O 0.76040 0.80109 0.24321
 O132 O 0.77668 0.73208 0.29405
 O133 O 0.80055 0.75839 0.24013
 O134 O 0.73617 0.77479 0.29810
 Cu135 Cu 0.73575 0.73907 0.22999
 Cu136 Cu 0.77133 0.76919 0.27246
 C137 C 0.71024 0.76596 0.28971
 C138 C 0.79708 0.74232 0.21303
 C139 C 0.76326 0.70821 0.28617
 C140 C 0.74365 0.79999 0.21624
 O141 O 0.73116 0.23034 0.29770
 O142 O 0.79707 0.24613 0.24281
 O143 O 0.77184 0.27170 0.29749
 O144 O 0.75709 0.20551 0.24304
 O145 O 0.72789 0.23344 0.20836
 O146 O 0.74270 0.29964 0.26276
 O147 O 0.76854 0.27469 0.20808
 O148 O 0.70262 0.25894 0.26303
 Cu149 Cu 0.76713 0.23565 0.27391
 Cu150 Cu 0.73259 0.26948 0.23196
 C151 C 0.70572 0.24217 0.28984
 C152 C 0.79395 0.26277 0.21589
 C153 C 0.75956 0.29688 0.28954
 C154 C 0.74027 0.20829 0.21623
 O155 O 0.27356 0.76462 0.20291
 O156 O 0.25795 0.69828 0.25720
 O157 O 0.23226 0.72385 0.20264
 O158 O 0.29875 0.73825 0.25736
 O159 O 0.27066 0.76695 0.29232
 O160 O 0.20438 0.75292 0.23742
 O161 O 0.22916 0.72646 0.29198
 O162 O 0.24506 0.79278 0.23803
 Cu163 Cu 0.26842 0.72844 0.22639
 Cu164 Cu 0.23453 0.76255 0.26861
 C165 C 0.26166 0.78992 0.21106
 C166 C 0.24114 0.70116 0.28401
 C167 C 0.20710 0.73630 0.21049
 C168 C 0.29592 0.75480 0.28436
 O169 O 0.75566 0.20575 0.76079
 O170 O 0.77021 0.27188 0.70585
 O171 O 0.79573 0.24631 0.76036
 O172 O 0.72955 0.23052 0.70617
 O173 O 0.70120 0.25920 0.74089
 O174 O 0.76745 0.27496 0.79518
 O175 O 0.74127 0.29991 0.74062
 O176 O 0.72670 0.23377 0.79557
 Cu177 Cu 0.76560 0.23583 0.72964
 Cu178 Cu 0.73132 0.26977 0.77167
 C179 C 0.73898 0.20857 0.78772
 C180 C 0.75800 0.29710 0.71374
 C181 C 0.79279 0.26301 0.78719
 C182 C 0.70417 0.24238 0.71415
 O183 O 0.29665 0.74160 0.73687
 O184 O 0.23051 0.72608 0.79155
 O185 O 0.25640 0.70111 0.73688
 O186 O 0.27153 0.76707 0.79174
 O187 O 0.24271 0.79537 0.75705
 O188 O 0.22738 0.72930 0.70229
 O189 O 0.20231 0.75517 0.75706
 O190 O 0.26832 0.77041 0.70221
 Cu191 Cu 0.26659 0.73115 0.76786
 Cu192 Cu 0.23236 0.76535 0.72602
 C193 C 0.29366 0.75838 0.71005
 C194 C 0.20525 0.73835 0.78384
 C195 C 0.23959 0.70403 0.71008
 C196 C 0.25943 0.79238 0.78393
 O197 O 0.25349 0.29422 0.74145
 O198 O 0.26933 0.22696 0.79548
 O199 O 0.29463 0.25251 0.74161
 O200 O 0.22752 0.26951 0.79544
 O201 O 0.20027 0.24194 0.76001
 O202 O 0.26739 0.22504 0.70606
 O203 O 0.24130 0.20023 0.76000
 O204 O 0.22552 0.26744 0.70596
 Cu205 Cu 0.26395 0.26346 0.77222
 Cu206 Cu 0.23091 0.23100 0.72928
 C207 C 0.23714 0.29217 0.71428
 C208 C 0.25767 0.20225 0.78716
 C209 C 0.29235 0.23623 0.71445
 C210 C 0.20257 0.25827 0.78713
 O211 O 0.74375 0.70761 0.74061
 O212 O 0.72840 0.77441 0.79520
 O213 O 0.70268 0.74950 0.74127
 O214 O 0.77011 0.73195 0.79443
 O215 O 0.79720 0.75965 0.75889
 O216 O 0.72978 0.77704 0.70556
 O217 O 0.75609 0.80144 0.75957
 O218 O 0.77158 0.73456 0.70504
 Cu219 Cu 0.73352 0.73819 0.77157
 Cu220 Cu 0.76635 0.77088 0.72855
 C221 C 0.76003 0.70978 0.71338
 C222 C 0.73996 0.79919 0.78691
 C223 C 0.70483 0.76592 0.71415
 C224 C 0.79505 0.74312 0.78592
 C225 C 0.27058 0.10258 0.11919
 N226 N 0.24522 0.08831 0.10992
 N227 N 0.24616 0.06665 0.08585
 C228 C 0.27258 0.05810 0.07045
 N229 N 0.29806 0.07215 0.08004
 N230 N 0.29703 0.09416 0.10377
 C231 C 0.26898 0.12719 0.14479
 N232 N 0.28955 0.14917 0.14454
 N233 N 0.28687 0.17241 0.16649
 C234 C 0.26377 0.17422 0.18981
 N235 N 0.24349 0.15202 0.19036
 N236 N 0.24593 0.12905 0.16811
 C237 C 0.77229 0.61105 0.62137
 N238 N 0.74824 0.59344 0.61647
 N239 N 0.74918 0.57152 0.59273
 C240 C 0.77433 0.56616 0.57331
 N241 N 0.79855 0.58355 0.57844
 N242 N 0.79748 0.60575 0.60192
 C243 C 0.77045 0.63598 0.64649
 N244 N 0.78941 0.65929 0.64413
 N245 N 0.78642 0.68272 0.66575
 C246 C 0.76460 0.68346 0.69073
 N247 N 0.74594 0.65997 0.69334
 N248 N 0.74871 0.63674 0.67150
 C249 C 0.73180 0.89878 0.12408
 N250 N 0.70518 0.90713 0.10902
 N251 N 0.70391 0.92882 0.08484
 C252 C 0.72933 0.94256 0.07442
 N253 N 0.75592 0.93410 0.08947
 N254 N 0.75711 0.91275 0.11399
 C255 C 0.73361 0.87422 0.14976
 N256 N 0.75721 0.87186 0.17231
 N257 N 0.75986 0.84866 0.19433
 C258 C 0.73921 0.82680 0.19426
 N259 N 0.71557 0.82918 0.17176
 N260 N 0.71269 0.85260 0.15008
 C261 C 0.22569 0.39055 0.62132
 N262 N 0.20067 0.39575 0.60152
 N263 N 0.19988 0.41769 0.57763
 C264 C 0.22422 0.43491 0.57242
 N265 N 0.24920 0.42965 0.59219
 N266 N 0.24986 0.40800 0.61633
 C267 C 0.22723 0.36581 0.64680
 N268 N 0.24886 0.36507 0.67196
 N269 N 0.25141 0.34194 0.69404
 C270 C 0.23263 0.31853 0.69156
 N271 N 0.21092 0.31927 0.66646
 N272 N 0.20815 0.34259 0.64459
 C273 C 0.89138 0.27460 0.12241
 N274 N 0.91013 0.25046 0.11731
 N275 N 0.93178 0.25120 0.09320
 C276 C 0.93573 0.27623 0.07359
 N277 N 0.91720 0.30055 0.07891
 N278 N 0.89526 0.29968 0.10277
 C279 C 0.86676 0.27295 0.14796
 N280 N 0.84249 0.29207 0.14605
 N281 N 0.81939 0.28919 0.16802
 C282 C 0.81993 0.26732 0.19293
 N283 N 0.84437 0.24850 0.19511
 N284 N 0.86729 0.25117 0.17292
 C285 C 0.39158 0.77156 0.61760
 N286 N 0.41075 0.74775 0.61246
 N287 N 0.43270 0.74909 0.58878
 C288 C 0.43650 0.77441 0.56962
 N289 N 0.41752 0.79838 0.57496
 N290 N 0.39531 0.79691 0.59839
 C291 C 0.36675 0.76936 0.64277
 N292 N 0.34245 0.78843 0.64097
 N293 N 0.31924 0.78524 0.66271
 C294 C 0.31970 0.76308 0.68726
 N295 N 0.34417 0.74428 0.68932
 N296 N 0.36720 0.74727 0.66736
 C297 C 0.10914 0.72644 0.11737
 N298 N 0.09375 0.75195 0.10808
 N299 N 0.07189 0.75124 0.08424
 C300 C 0.06425 0.72493 0.06911
 N301 N 0.07943 0.69931 0.07872
 N302 N 0.10164 0.70009 0.10223
 C303 C 0.13388 0.72778 0.14279
 N304 N 0.15667 0.70684 0.14266
 N305 N 0.17994 0.70926 0.16449
 C306 C 0.18098 0.73246 0.18755
 N307 N 0.15799 0.75312 0.18796
 N308 N 0.13498 0.75094 0.16583
 C309 C 0.60595 0.22794 0.62258
 N310 N 0.58663 0.25161 0.61721
 N311 N 0.56482 0.25006 0.59338
 C312 C 0.56131 0.22467 0.57434
 N313 N 0.58041 0.20084 0.57996
 N314 N 0.60247 0.20251 0.60354
 C315 C 0.63081 0.23044 0.64763
 N316 N 0.65526 0.21157 0.64582
 N317 N 0.67855 0.21508 0.66732
 C318 C 0.67805 0.23738 0.69164
 N319 N 0.65343 0.25598 0.69372
 N320 N 0.63031 0.25267 0.67199
 C321 C 0.72802 0.11072 0.88067
 N322 N 0.75224 0.09200 0.88557
 N323 N 0.75162 0.07024 0.90955
 C324 C 0.72663 0.06616 0.92923
 N325 N 0.70223 0.08467 0.92410
 N326 N 0.70298 0.10669 0.90037
 C327 C 0.72952 0.13546 0.85530
 N328 N 0.71017 0.15953 0.85732
 N329 N 0.71285 0.18273 0.83548
 C330 C 0.73476 0.18251 0.81061
 N331 N 0.75383 0.15828 0.80833
 N332 N 0.75135 0.13526 0.83038
 C333 C 0.22821 0.60336 0.37656
 N334 N 0.25221 0.58447 0.38203
 N335 N 0.25106 0.56281 0.40609
 C336 C 0.22573 0.55901 0.42528
 N337 N 0.20157 0.57768 0.41957
 N338 N 0.20285 0.59960 0.39577
 C339 C 0.23026 0.62806 0.35121
 N340 N 0.21108 0.65227 0.35293
 N341 N 0.21421 0.67545 0.33118
 C342 C 0.23641 0.67507 0.30667
 N343 N 0.25531 0.65069 0.30467
 N344 N 0.25238 0.62768 0.32665
 C345 C 0.27143 0.88989 0.87703
 N346 N 0.29672 0.89389 0.89628
 N347 N 0.29777 0.91584 0.92003
 C348 C 0.27343 0.93430 0.92564
 N349 N 0.24817 0.93024 0.90642
 N350 N 0.24725 0.90857 0.88242
 C351 C 0.26963 0.86522 0.85161
 N352 N 0.24759 0.86558 0.82694
 N353 N 0.24488 0.84265 0.80484
 C354 C 0.26391 0.81837 0.80684
 N355 N 0.28602 0.81800 0.83147
 N356 N 0.28893 0.84110 0.85334
 C357 C 0.77183 0.39518 0.38112
 N358 N 0.79707 0.39910 0.40047
 N359 N 0.79822 0.42128 0.42389
 C360 C 0.77404 0.44004 0.42904
 N361 N 0.74884 0.43606 0.40971
 N362 N 0.74781 0.41415 0.38605
 C363 C 0.76992 0.37028 0.35613
 N364 N 0.74785 0.37045 0.33151
 N365 N 0.74507 0.34730 0.30977
 C366 C 0.76404 0.32300 0.31211
 N367 N 0.78618 0.32283 0.33668
 N368 N 0.78917 0.34615 0.35820
 C369 C 0.10451 0.27133 0.88033
 N370 N 0.08997 0.24621 0.88982
 N371 N 0.06833 0.24748 0.91396
 C372 C 0.06007 0.27399 0.92919
 N373 N 0.07440 0.29924 0.91939
 N374 N 0.09641 0.29789 0.89559
 C375 C 0.12911 0.26932 0.85469
 N376 N 0.13058 0.24625 0.83146
 N377 N 0.15361 0.24332 0.80928
 C378 C 0.17624 0.26312 0.80982
 N379 N 0.17481 0.28625 0.83304
 N380 N 0.15152 0.28943 0.85492
 C381 C 0.61303 0.77714 0.38402
 N382 N 0.58854 0.79542 0.37854
 N383 N 0.56567 0.79575 0.40123
 C384 C 0.56629 0.77732 0.42968
 N385 N 0.59065 0.75888 0.43491
 N386 N 0.61373 0.75899 0.41266
 C387 C 0.63829 0.77643 0.35934
 N388 N 0.66685 0.77275 0.37140
 N389 N 0.68985 0.77044 0.34909
 C390 C 0.68505 0.77118 0.31390
 N391 N 0.65646 0.77478 0.30177
 N392 N 0.63348 0.77766 0.32413
 C393 C 0.89439 0.72856 0.87716
 N394 N 0.89933 0.70331 0.89661
 N395 N 0.92156 0.70187 0.92014
 C396 C 0.93933 0.72577 0.92534
 N397 N 0.93434 0.75098 0.90591
 N398 N 0.91241 0.75228 0.88212
 C399 C 0.86935 0.73088 0.85210
 N400 N 0.86881 0.75273 0.82722
 N401 N 0.84545 0.75605 0.80556
 C402 C 0.82159 0.73784 0.80822
 N403 N 0.82212 0.71590 0.83305
 N404 N 0.84567 0.71237 0.85448
 C405 C 0.39279 0.22230 0.37862
 N406 N 0.39795 0.19746 0.39870
 N407 N 0.41979 0.19689 0.42271
 C408 C 0.43693 0.22129 0.42777
 N409 N 0.43171 0.24608 0.40772
 N410 N 0.41016 0.24651 0.38345
 C411 C 0.36816 0.22368 0.35300
 N412 N 0.36770 0.24505 0.32756
 N413 N 0.34460 0.24765 0.30544
 C414 C 0.32094 0.22920 0.30817
 N415 N 0.32141 0.20771 0.33353
 N416 N 0.34472 0.20488 0.35544
 C417 C 0.72904 0.89677 0.88071
 N418 N 0.75318 0.91423 0.88571
 N419 N 0.75249 0.93581 0.90989
 C420 C 0.72750 0.94094 0.92968
 N421 N 0.70321 0.92368 0.92447
 N422 N 0.70403 0.90183 0.90055
 C423 C 0.73052 0.87222 0.85508
 N424 N 0.71140 0.84904 0.85717
 N425 N 0.71403 0.82591 0.83508
 C426 C 0.73564 0.82536 0.80986
 N427 N 0.75447 0.84873 0.80750
 N428 N 0.75206 0.87166 0.82981
 C429 C 0.22741 0.38868 0.37869
 N430 N 0.25146 0.40626 0.38374
 N431 N 0.25047 0.42818 0.40749
 C432 C 0.22525 0.43359 0.42680
 N433 N 0.20104 0.41622 0.42154
 N434 N 0.20216 0.39402 0.39805
 C435 C 0.22926 0.36376 0.35348
 N436 N 0.21021 0.34051 0.35565
 N437 N 0.21315 0.31715 0.33392
 C438 C 0.23500 0.31641 0.30897
 N439 N 0.25376 0.33983 0.30654
 N440 N 0.25104 0.36300 0.32850
 C441 C 0.26950 0.10371 0.87979
 N442 N 0.29609 0.09516 0.89477
 N443 N 0.29732 0.07293 0.91828
 C444 C 0.27193 0.05882 0.92806
 N445 N 0.24537 0.06752 0.91311
 N446 N 0.24421 0.08939 0.88925
 C447 C 0.26768 0.12851 0.85442
 N448 N 0.24450 0.13048 0.83130
 N449 N 0.24186 0.15362 0.80925
 C450 C 0.26208 0.17587 0.80984
 N451 N 0.28531 0.17395 0.83297
 N452 N 0.28819 0.15054 0.85471
 C453 C 0.77381 0.60914 0.37817
 N454 N 0.79910 0.60333 0.39729
 N455 N 0.79976 0.58156 0.42137
 C456 C 0.77504 0.56511 0.42747
 N457 N 0.74979 0.57094 0.40836
 N458 N 0.74924 0.59245 0.38403
 C459 C 0.77244 0.63387 0.35266
 N460 N 0.74986 0.63570 0.32869
 N461 N 0.74751 0.65898 0.30678
 C462 C 0.76750 0.68142 0.30825
 N463 N 0.79017 0.67955 0.33211
 N464 N 0.79271 0.65609 0.35379
 C465 C 0.10810 0.72734 0.87774
 N466 N 0.10083 0.70087 0.89284
 N467 N 0.07890 0.69989 0.91668
 C468 C 0.06381 0.72544 0.92667
 N469 N 0.07124 0.75186 0.91160
 N470 N 0.09281 0.75276 0.88743
 C471 C 0.13255 0.72890 0.85201
 N472 N 0.13331 0.75219 0.82905
 N473 N 0.15614 0.75464 0.80671
 C474 C 0.17925 0.73413 0.80682
 N475 N 0.17853 0.71078 0.82977
 N476 N 0.15545 0.70809 0.85182
 C477 C 0.60738 0.22774 0.38147
 N478 N 0.58787 0.25131 0.38637
 N479 N 0.56585 0.24976 0.40993
 C480 C 0.56229 0.22445 0.42919
 N481 N 0.58160 0.20071 0.42406
 N482 N 0.60388 0.20239 0.40074
 C483 C 0.63236 0.23025 0.35653
 N484 N 0.65692 0.21151 0.35857
 N485 N 0.68023 0.21503 0.33707
 C486 C 0.67965 0.23719 0.31252
 N487 N 0.65495 0.25566 0.31023
 N488 N 0.63181 0.25235 0.33195
 C489 C 0.89094 0.27485 0.87944
 N490 N 0.90963 0.25064 0.88451
 N491 N 0.93144 0.25134 0.90841
 C492 C 0.93559 0.27640 0.92784
 N493 N 0.91712 0.30077 0.92255
 N494 N 0.89504 0.29994 0.89890
 C495 C 0.86614 0.27322 0.85418
 N496 N 0.84191 0.29237 0.85630
 N497 N 0.81862 0.28948 0.83462
 C498 C 0.81893 0.26757 0.80983
 N499 N 0.84334 0.24872 0.80745
 N500 N 0.86644 0.25140 0.82934
 C501 C 0.39413 0.76809 0.37654
 N502 N 0.41371 0.74461 0.38194
 N503 N 0.43559 0.74644 0.40569
 C504 C 0.43889 0.77194 0.42463
 N505 N 0.41951 0.79554 0.41897
 N506 N 0.39742 0.79359 0.39549
 C507 C 0.36919 0.76553 0.35152
 N508 N 0.34495 0.78468 0.35318
 N509 N 0.32170 0.78150 0.33153
 C510 C 0.32203 0.75926 0.30716
 N511 N 0.34642 0.74032 0.30524
 N512 N 0.36951 0.74330 0.32714
 C513 C 0.27308 0.88844 0.11916
 N514 N 0.24888 0.90724 0.11453
 N515 N 0.24950 0.92921 0.09083
 C516 C 0.27447 0.93344 0.07117
 N517 N 0.29885 0.91486 0.07602
 N518 N 0.29810 0.89261 0.09947
 C519 C 0.27155 0.86349 0.14426
 N520 N 0.29067 0.83927 0.14182
 N521 N 0.28789 0.81591 0.16342
 C522 C 0.26612 0.81613 0.18846
 N523 N 0.24731 0.84052 0.19115
 N524 N 0.24987 0.86369 0.16935
 C525 C 0.77068 0.39552 0.62194
 N526 N 0.74672 0.41451 0.61672
 N527 N 0.74796 0.43647 0.59305
 C528 C 0.77334 0.44048 0.57402
 N529 N 0.79747 0.42170 0.57949
 N530 N 0.79610 0.39948 0.60290
 C531 C 0.76856 0.37055 0.64693
 N532 N 0.78781 0.34640 0.64502
 N533 N 0.78472 0.32306 0.66657
 C534 C 0.76248 0.32322 0.69102
 N535 N 0.74349 0.34752 0.69318
 N536 N 0.74638 0.37068 0.67141
 C537 C 0.72919 0.11073 0.12336
 N538 N 0.70388 0.10649 0.10426
 N539 N 0.70298 0.08455 0.08052
 C540 C 0.72750 0.06637 0.07477
 N541 N 0.75279 0.07068 0.09384
 N542 N 0.75356 0.09235 0.11784
 C543 C 0.73076 0.13536 0.14875
 N544 N 0.75286 0.13525 0.17333
 N545 N 0.75534 0.15821 0.19541
 C546 C 0.73601 0.18226 0.19346
 N547 N 0.71384 0.18237 0.16893
 N548 N 0.71115 0.15923 0.14708
 C549 C 0.22742 0.60573 0.61812
 N550 N 0.20219 0.60170 0.59877
 N551 N 0.20102 0.57937 0.57552
 C552 C 0.22518 0.56053 0.57054
 N553 N 0.25038 0.56462 0.58985
 N554 N 0.25141 0.58668 0.61334
 C555 C 0.22933 0.63071 0.64310
 N556 N 0.25130 0.63050 0.66784
 N557 N 0.25405 0.65361 0.68965
 C558 C 0.23512 0.67795 0.68731
 N559 N 0.21308 0.67819 0.66260
 N560 N 0.21013 0.65489 0.64100
 C561 C 0.89444 0.72775 0.11898
 N562 N 0.89899 0.70275 0.09906
 N563 N 0.92119 0.70138 0.07548
 C564 C 0.93933 0.72510 0.07076
 N565 N 0.93469 0.75005 0.09064
 N566 N 0.91279 0.75127 0.11446
 C567 C 0.86971 0.73001 0.14444
 N568 N 0.87008 0.75127 0.16990
 N569 N 0.84717 0.75459 0.19216
 C570 C 0.82285 0.73700 0.18958
 N571 N 0.82242 0.71565 0.16414
 N572 N 0.84555 0.71210 0.14206
 C573 C 0.39109 0.22377 0.62206
 N574 N 0.39637 0.19875 0.60240
 N575 N 0.41852 0.19786 0.57876
 C576 C 0.43586 0.22211 0.57366
 N577 N 0.43052 0.24709 0.59329
 N578 N 0.40867 0.24784 0.61719
 C579 C 0.36621 0.22547 0.64738
 N580 N 0.36567 0.24698 0.67260
 N581 N 0.34245 0.24978 0.69454
 C582 C 0.31875 0.23138 0.69184
 N583 N 0.31928 0.20978 0.66668
 N584 N 0.34270 0.20676 0.64495
 C585 C 0.10578 0.27134 0.12175
 N586 N 0.10105 0.29656 0.10221
 N587 N 0.07895 0.29805 0.07855
 C588 C 0.06109 0.27423 0.07332
 N589 N 0.06587 0.24904 0.09284
 N590 N 0.08769 0.24769 0.11676
 C591 C 0.13068 0.26901 0.14695
 N592 N 0.13104 0.24723 0.17191
 N593 N 0.15430 0.24392 0.19371
 C594 C 0.17821 0.26207 0.19110
 N595 N 0.17785 0.28393 0.16620
 N596 N 0.15440 0.28746 0.14462
 C597 C 0.60567 0.77860 0.62236
 N598 N 0.60120 0.80285 0.60112
 N599 N 0.57930 0.80327 0.57714
 C600 C 0.56138 0.77928 0.57332
 N601 N 0.56588 0.75510 0.59458
 N602 N 0.58748 0.75484 0.61878
 C603 C 0.63055 0.77712 0.64771
 N604 N 0.63083 0.75611 0.67356
 N605 N 0.65417 0.75321 0.69531
 C606 C 0.67827 0.77101 0.69181
 N607 N 0.67797 0.79216 0.66605
 N608 N 0.65445 0.79526 0.64449
   
