data_POSCAR
  _audit_creation_date              2014-09-24
  _audit_creation_method            'ToBaCCo'
  _symmetry_space_group_name_H-M    'P1'
  _symmetry_Int_Tables_number       1
  _symmetry_cell_setting            triclinic
  loop_
  _symmetry_equiv_pos_as_xyz
 x,y,z
_cell_length_a 12.2183
_cell_length_b 12.6313
_cell_length_c 12.6623
_cell_angle_alpha 90.340500
_cell_angle_beta 86.908900
_cell_angle_gamma 92.038900
loop_
  _atom_site_label
  _atom_site_type_symbol
  _atom_site_fract_x
  _atom_site_fract_y
  _atom_site_fract_z
C1 C 0.03260 0.40198 0.17085
 C2 C 0.10770 0.41162 0.26123
 C3 C 0.10186 0.50498 0.31462
 C4 C 0.01546 0.57957 0.27532
 C5 C -0.08284 0.41959 0.22058
 C6 C -0.09154 0.51119 0.27858
 C7 C 0.06071 0.50063 0.10394
 C8 C 0.04695 0.59378 0.15613
 H9 H 0.16632 0.35203 0.27717
 H10 H 0.01023 0.65491 0.32073
 H11 H -0.14976 0.36316 0.21008
 H12 H 0.08909 0.49691 0.02165
 C13 C -0.03170 0.39973 0.82636
 C14 C -0.09925 0.39508 0.73591
 C15 C -0.09746 0.49290 0.67709
 C16 C -0.01512 0.57089 0.71414
 C17 C 0.07938 0.42383 0.78343
 C18 C 0.08931 0.51656 0.71800
 C19 C -0.06541 0.49330 0.88435
 C20 C -0.05175 0.58790 0.82469
 H21 H -0.15196 0.32646 0.72183
 H22 H -0.00835 0.64440 0.66584
 H23 H 0.14914 0.38083 0.80705
 H24 H -0.09893 0.49253 0.96545
 C25 C 0.20469 -0.02785 0.37404
 C26 C 0.25362 0.08454 0.39350
 C27 C 0.29929 0.09671 0.48904
 C28 C 0.29237 -0.00481 0.55624
 C29 C 0.29829 -0.10108 0.38942
 C30 C 0.34049 -0.09430 0.48689
 C31 C 0.12524 -0.05041 0.46955
 C32 C 0.16974 -0.03432 0.56438
 H33 H 0.25501 0.14816 0.33703
 H34 H 0.33062 0.00404 0.63361
 H35 H 0.31797 -0.16311 0.33306
 H36 H 0.04188 -0.07999 0.46231
 C37 C 0.82403 0.01177 0.42222
 C38 C 0.77808 -0.09298 0.44107
 C39 C 0.70450 -0.10214 0.53149
 C40 C 0.69379 -0.00020 0.58967
 C41 C 0.72841 0.08399 0.41802
 C42 C 0.66366 0.08722 0.50904
 C43 C 0.87962 0.04471 0.52279
 C44 C 0.81241 0.03484 0.61126
 H45 H 0.81124 -0.16043 0.39878
 H46 H 0.63766 -0.00500 0.66166
 H47 H 0.73164 0.14341 0.35700
 H48 H 0.96215 0.07852 0.52377
 C49 C 0.40962 0.18481 1.00693
 C50 C 0.40128 0.26775 1.08594
 C51 C 0.49547 0.33879 1.08576
 C52 C 0.57132 0.32260 0.99151
 C53 C 0.42086 0.23722 0.90557
 C54 C 0.50705 0.31529 0.89600
 C55 C 0.51719 0.13919 1.02075
 C56 C 0.60763 0.21528 1.00566
 H57 H 0.33474 0.26713 1.14593
 H58 H 0.63998 0.38298 0.98486
 H59 H 0.38179 0.20346 0.83788
 H60 H 0.52877 0.06012 1.04790
 C61 C 0.38276 0.78284 1.01211
 C62 C 0.39487 0.70109 0.92458
 C63 C 0.49884 0.66356 0.91186
 C64 C 0.57579 0.70267 0.99995
 C65 C 0.40999 0.72324 1.11015
 C66 C 0.51225 0.68440 1.10744
 C67 C 0.47198 0.86001 0.99002
 C68 C 0.57886 0.81707 0.98851
 H69 H 0.32930 0.68329 0.87254
 H70 H 0.65661 0.66505 0.99357
 H71 H 0.34910 0.70922 1.17421
 H72 H 0.45795 0.93633 0.95676
 B73 B 0.99878 1.10600 0.06212
 B74 B 0.99011 1.11038 -0.06981
 B75 B 1.10768 1.06889 -0.01650
 B76 B 1.07237 0.99831 0.09254
 B77 B 0.93006 0.99190 0.11107
 B78 B 0.88028 1.06200 0.00685
 B79 B 0.98904 0.88690 -0.08124
 B80 B 0.99994 0.88594 0.05567
 B81 B 0.88060 0.92674 0.00184
 B82 B 0.91533 1.00040 -0.10782
 B83 B 1.05967 1.00498 -0.12729
 B84 B 1.10852 0.93471 -0.02204
 B85 B 0.61193 0.49615 0.42931
 B86 B 0.50770 0.57145 0.39653
 B87 B 0.49456 0.43830 0.38851
 B88 B 0.55549 0.38624 0.49283
 B89 B 0.61025 0.49012 0.56281
 B90 B 0.57728 0.60616 0.50455
 B91 B 0.38373 0.50114 0.57160
 B92 B 0.49026 0.42771 0.60660
 B93 B 0.50138 0.56178 0.61352
 B94 B 0.43774 0.61108 0.50904
 B95 B 0.38883 0.50828 0.43799
 B96 B 0.41907 0.39476 0.49759
 C97 C 1.04901 1.30057 0.10990
 C98 C 0.99539 1.20887 0.13505
 H99 H 1.10681 1.30450 0.04241
 H100 H 0.93987 1.20552 0.20465
 C101 C 1.05653 0.69481 0.09714
 C102 C 0.99872 0.77971 0.12419
 H103 H 1.10368 0.69459 0.02241
 H104 H 0.94499 0.77666 0.19499
 C105 C 0.95691 1.30730 -0.10859
 C106 C 1.00051 1.21541 -0.13736
 H107 H 0.90880 1.31129 -0.03432
 H108 H 1.05067 1.21210 -0.21072
 C109 C 0.93668 0.68378 -0.12454
 C110 C 0.98475 0.77149 -0.16264
 H111 H 0.90000 0.68303 -0.04494
 H112 H 0.98721 0.82944 -0.12248
 C113 C 1.14889 0.94778 0.27235
 C114 C 1.14631 1.01481 0.19119
 H115 H 1.10474 0.87221 0.26933
 H116 H 1.18878 1.09096 0.19478
 C117 C 1.10425 0.95778 -0.33606
 C118 C 1.13571 1.01083 -0.25157
 H119 H 1.02693 0.91281 -0.33390
 H120 H 1.09141 1.00620 -0.19322
 C121 C 0.89555 1.01962 0.32437
 C122 C 0.85647 0.98125 0.23564
 H123 H 0.97272 1.06480 0.32458
 H124 H 0.89756 0.99023 0.17705
 C125 C 0.85358 1.06140 -0.28611
 C126 C 0.83943 0.99517 -0.20505
 H127 H 0.91392 1.12493 -0.28618
 H128 H 0.78636 0.92539 -0.21285
 C129 C 1.31581 1.11233 0.01302
 C130 C 1.21844 1.13813 -0.02591
 H131 H 1.32166 1.04010 0.05749
 H132 H 1.21298 1.21194 -0.06819
 C133 C 0.71643 1.18755 -0.01716
 C134 C 0.76334 1.11110 0.03464
 H135 H 0.76126 1.23030 -0.07947
 H136 H 0.71620 1.07384 0.10012
 C137 C 1.27272 0.83135 0.02996
 C138 C 1.21949 0.87606 -0.04625
 H139 H 1.23866 0.83546 0.11053
 H140 H 1.25415 0.87489 -0.12700
 C141 C 0.67437 0.88113 -0.02331
 C142 C 0.77130 0.85412 0.01239
 H143 H 0.66614 0.95822 -0.05749
 H144 H 0.77697 0.78146 0.05605
 C145 C 0.80989 0.54080 0.34511
 C146 C 0.71945 0.47785 0.35610
 H147 H 0.81547 0.61380 0.38921
 H148 H 0.71736 0.40312 0.31511
 C149 C 0.18442 0.53360 0.39062
 C150 C 0.28902 0.51388 0.36385
 H151 H 0.15812 0.56366 0.46672
 H152 H 0.30857 0.49382 0.28187
 C153 C 0.81190 0.52456 0.62116
 C154 C 0.71948 0.46398 0.61675
 H155 H 0.81406 0.60350 0.58825
 H156 H 0.71597 0.38466 0.64702
 C157 C 0.18872 0.55125 0.66325
 C158 C 0.27140 0.48480 0.64300
 H159 H 0.19445 0.63010 0.63015
 H160 H 0.25856 0.40391 0.66833
 C161 C 0.55730 0.63694 0.20224
 C162 C 0.50502 0.64680 0.29753
 H163 H 0.63177 0.59418 0.19318
 H164 H 0.44372 0.70524 0.30782
 C165 C 0.54074 0.61695 0.80966
 C166 C 0.48556 0.62513 0.72120
 H167 H 0.61952 0.58099 0.80659
 H168 H 0.41488 0.67395 0.72199
 C169 C 0.53028 0.38792 0.18081
 C170 C 0.47669 0.37563 0.27736
 H171 H 0.60750 0.43089 0.17527
 H172 H 0.40634 0.32226 0.28398
 C173 C 0.53667 0.36649 0.79920
 C174 C 0.47456 0.36040 0.71348
 H175 H 0.61178 0.41308 0.79612
 H176 H 0.39911 0.31431 0.71733
 C177 C 0.65591 0.79790 0.56294
 C178 C 0.64934 0.71482 0.49428
 H179 H 0.61717 0.79065 0.64144
 H180 H 0.68011 0.72600 0.41372
 C181 C 0.61703 0.19187 0.54242
 C182 C 0.60476 0.27153 0.47293
 H183 H 0.59745 0.20428 0.62569
 H184 H 0.61812 0.25651 0.38970
 C185 C 0.39663 0.81520 0.53153
 C186 C 0.36876 0.71570 0.50331
 H187 H 0.45545 0.83112 0.58969
 H188 H 0.29715 0.70555 0.45760
 C189 C 0.35352 0.19644 0.52600
 C190 C 0.33898 0.29228 0.48437
 H191 H 0.40950 0.18847 0.58782
 H192 H 0.27563 0.30035 0.42898
   
