data_POSCAR
  _audit_creation_date              2014-09-24
  _audit_creation_method            'ToBaCCo'
  _symmetry_space_group_name_H-M    'P1'
  _symmetry_Int_Tables_number       1
  _symmetry_cell_setting            triclinic
  loop_
  _symmetry_equiv_pos_as_xyz
 x,y,z
_cell_length_a 24.8263
_cell_length_b 30.4969
_cell_length_c 21.2775
_cell_angle_alpha 90.138900
_cell_angle_beta 90.000700
_cell_angle_gamma 90.129000
loop_
  _atom_site_label
  _atom_site_type_symbol
  _atom_site_fract_x
  _atom_site_fract_y
  _atom_site_fract_z
O1 O 0.31739 0.20606 0.25458
 O2 O 0.24178 0.29213 0.17196
 O3 O 0.31682 0.29133 0.25748
 O4 O 0.24142 0.20650 0.17044
 O5 O 0.17962 0.20564 0.24526
 O6 O 0.25494 0.29038 0.33224
 O7 O 0.17990 0.29129 0.24670
 O8 O 0.25560 0.20508 0.32945
 Cu9 Cu 0.28552 0.24913 0.20599
 Cu10 Cu 0.21121 0.24802 0.29589
 C11 C 0.29929 0.19105 0.30596
 C12 C 0.19822 0.30636 0.19541
 C13 C 0.29863 0.30510 0.30963
 C14 C 0.19793 0.19157 0.19336
 O15 O 0.75410 0.20610 0.16892
 O16 O 0.67979 0.29233 0.25349
 O17 O 0.75429 0.29131 0.16741
 O18 O 0.68026 0.20685 0.25618
 O19 O 0.74329 0.20803 0.32959
 O20 O 0.81723 0.29238 0.24097
 O21 O 0.74277 0.29349 0.32699
 O22 O 0.81713 0.20722 0.24237
 Cu23 Cu 0.71069 0.24898 0.20415
 Cu24 Cu 0.78641 0.25035 0.29246
 C25 C 0.79830 0.19229 0.19116
 C26 C 0.69880 0.30755 0.30440
 C27 C 0.79833 0.30603 0.18923
 C28 C 0.69929 0.19319 0.30789
 O29 O 0.81820 0.70769 0.76022
 O30 O 0.74458 0.79194 0.67157
 O31 O 0.81843 0.79286 0.75878
 O32 O 0.74372 0.70649 0.67422
 O33 O 0.68076 0.70760 0.74773
 O34 O 0.75543 0.79392 0.83224
 O35 O 0.68156 0.79307 0.74501
 O36 O 0.75527 0.70871 0.83380
 Cu37 Cu 0.78754 0.74968 0.70873
 Cu38 Cu 0.71184 0.75098 0.79705
 C39 C 0.79926 0.69403 0.81196
 C40 C 0.70063 0.80672 0.69328
 C41 C 0.79967 0.80780 0.80998
 C42 C 0.69970 0.69239 0.69681
 O43 O 0.24211 0.70795 0.82768
 O44 O 0.31769 0.79422 0.74486
 O45 O 0.24170 0.79356 0.82896
 O46 O 0.31719 0.70893 0.74220
 O47 O 0.25534 0.70952 0.66740
 O48 O 0.17992 0.79408 0.75411
 O49 O 0.25592 0.79484 0.66996
 O50 O 0.18026 0.70843 0.75291
 Cu51 Cu 0.28584 0.75108 0.79355
 Cu52 Cu 0.21157 0.75176 0.70360
 C53 C 0.19856 0.69351 0.80425
 C54 C 0.29959 0.80909 0.69344
 C55 C 0.19820 0.80828 0.80598
 C56 C 0.29902 0.69501 0.69009
 C57 C 0.97323 -0.00052 -0.00047
 C58 C 1.02816 -0.00040 -0.00046
 C59 C 1.05957 0.03279 0.03535
 C60 C 1.05961 -0.03348 -0.03624
 C61 C 0.94171 -0.03524 -0.03299
 C62 C 0.94169 0.03408 0.03205
 C63 C 1.09754 0.05899 0.00398
 C64 C 1.12623 0.09129 0.03661
 C65 C 1.11755 0.09750 0.10103
 C66 C 1.08058 0.07086 0.13290
 C67 C 1.05190 0.03849 0.10031
 C68 C 1.05196 -0.03924 -0.10120
 C69 C 1.08068 -0.07148 -0.13375
 C70 C 1.11769 -0.09795 -0.10185
 C71 C 1.12634 -0.09168 -0.03744
 C72 C 1.09761 -0.05950 -0.00484
 C73 C 0.94910 -0.07977 -0.01850
 C74 C 0.91971 -0.11204 -0.05039
 C75 C 0.88232 -0.10009 -0.09654
 C76 C 0.87408 -0.05576 -0.11030
 C77 C 0.90347 -0.02349 -0.07852
 C78 C 0.90346 0.02217 0.07760
 C79 C 0.87409 0.05432 0.10941
 C80 C 0.88232 0.09869 0.09568
 C81 C 0.91968 0.11079 0.04950
 C82 C 0.94906 0.07863 0.01757
 H83 H 1.10423 0.05491 -0.04599
 H84 H 1.15488 0.11161 0.01155
 H85 H 1.07380 0.07521 0.18282
 H86 H 1.02351 0.01808 0.12557
 H87 H 1.02354 -0.01896 -0.12647
 H88 H 1.07392 -0.07588 -0.18367
 H89 H 1.10428 -0.05537 0.04514
 H90 H 0.97768 -0.08944 0.01730
 H91 H 0.92617 -0.14625 -0.03915
 H92 H 0.84513 -0.04615 -0.14577
 H93 H 0.89698 0.01067 -0.09005
 H94 H 0.89700 -0.01202 0.08911
 H95 H 0.84517 0.04460 0.14491
 H96 H 0.92614 0.14503 0.03829
 H97 H 0.97762 0.08843 -0.01824
 H98 H 1.15501 -0.11185 -0.01235
 C99 C 0.47192 0.50005 0.50030
 C100 C 0.52685 0.50003 0.50040
 C101 C 0.55838 0.53300 0.53649
 C102 C 0.55824 0.46703 0.46440
 C103 C 0.44041 0.46501 0.46842
 C104 C 0.44055 0.53511 0.53205
 C105 C 0.59699 0.55881 0.50553
 C106 C 0.62605 0.59069 0.53853
 C107 C 0.61712 0.59685 0.60290
 C108 C 0.57946 0.57062 0.63436
 C109 C 0.55040 0.53867 0.60141
 C110 C 0.55040 0.46139 0.39945
 C111 C 0.57931 0.42941 0.36659
 C112 C 0.61668 0.40312 0.39818
 C113 C 0.62548 0.40924 0.46259
 C114 C 0.59657 0.44115 0.49549
 C115 C 0.44818 0.42060 0.48341
 C116 C 0.41916 0.38797 0.45180
 C117 C 0.38174 0.39943 0.40544
 C118 C 0.37302 0.44365 0.39129
 C119 C 0.40204 0.47629 0.42278
 C120 C 0.40194 0.52385 0.57750
 C121 C 0.37301 0.55650 0.60884
 C122 C 0.38206 0.60072 0.59473
 C123 C 0.41972 0.61216 0.54856
 C124 C 0.44866 0.57951 0.51710
 H125 H 0.60393 0.55474 0.45560
 H126 H 0.65520 0.61072 0.51378
 H127 H 0.57244 0.57496 0.68424
 H128 H 0.52152 0.51853 0.62636
 H129 H 0.52175 0.48158 0.37441
 H130 H 0.57241 0.42509 0.31668
 H131 H 0.60340 0.44520 0.54545
 H132 H 0.47686 0.41128 0.51930
 H133 H 0.42600 0.35386 0.46336
 H134 H 0.34405 0.45288 0.35564
 H135 H 0.39526 0.51034 0.41085
 H136 H 0.39490 0.48980 0.58939
 H137 H 0.34384 0.54728 0.64434
 H138 H 0.42682 0.64627 0.53704
 H139 H 0.47752 0.58881 0.48136
 H140 H 0.65441 0.38916 0.48744
 C141 C 0.02826 0.49992 0.00020
 C142 C -0.02667 0.49996 0.00035
 C143 C -0.05828 0.46503 0.03206
 C144 C -0.05813 0.53492 -0.03122
 C145 C 0.05967 0.53278 -0.03605
 C146 C 0.05957 0.46701 0.03630
 C147 C -0.05073 0.42060 0.01679
 C148 C -0.08034 0.38812 0.04774
 C149 C -0.11812 0.39979 0.09367
 C150 C -0.12652 0.44403 0.10818
 C151 C -0.09691 0.47650 0.07737
 C152 C -0.09700 0.52349 -0.07635
 C153 C -0.12645 0.55600 -0.10706
 C154 C -0.11766 0.60023 -0.09262
 C155 C -0.07965 0.61186 -0.04685
 C156 C -0.05019 0.57935 -0.01601
 C157 C 0.09815 0.55893 -0.00526
 C158 C 0.12656 0.59108 -0.03829
 C159 C 0.11713 0.59720 -0.10255
 C160 C 0.07972 0.57056 -0.13388
 C161 C 0.05131 0.53834 -0.10090
 C162 C 0.05140 0.46146 0.10119
 C163 C 0.07973 0.42923 0.13404
 C164 C 0.11686 0.40257 0.10252
 C165 C 0.12609 0.40868 0.03822
 C166 C 0.09776 0.44084 0.00532
 H167 H -0.02186 0.41114 -0.01888
 H168 H -0.07370 0.35397 0.03599
 H169 H -0.15572 0.45340 0.14357
 H170 H -0.10354 0.51058 0.08946
 H171 H -0.10392 0.48941 -0.08840
 H172 H -0.15582 0.54666 -0.14232
 H173 H -0.02114 0.58876 0.01953
 H174 H 0.10537 0.55498 0.04461
 H175 H 0.15555 0.61140 -0.01363
 H176 H 0.07233 0.57484 -0.18367
 H177 H 0.02251 0.51797 -0.12575
 H178 H 0.02283 0.48185 0.12618
 H179 H 0.07251 0.42497 0.18387
 H180 H 0.15488 0.38835 0.01341
 H181 H 0.10483 0.44479 -0.04458
 H182 H -0.07270 0.64600 -0.03515
 C183 C 0.53002 1.00056 0.49960
 C184 C 0.47509 1.00045 0.49962
 C185 C 0.44357 0.96734 0.53522
 C186 C 0.44353 1.03342 0.46405
 C187 C 0.56143 1.03548 0.46757
 C188 C 0.56145 0.96575 0.53161
 C189 C 0.40513 0.94155 0.50375
 C190 C 0.37565 0.90985 0.53632
 C191 C 0.38397 0.90382 0.60078
 C192 C 0.42157 0.92994 0.63272
 C193 C 0.45107 0.96173 0.60018
 C194 C 0.45099 1.03907 0.39908
 C195 C 0.42144 1.07072 0.36656
 C196 C 0.38381 1.09666 0.39852
 C197 C 0.37552 1.09060 0.46298
 C198 C 0.40507 1.05904 0.49553
 C199 C 0.55356 1.07996 0.48236
 C200 C 0.58220 1.11249 0.45027
 C201 C 0.61934 1.10086 0.40361
 C202 C 0.62824 1.05657 0.38973
 C203 C 0.59960 1.02404 0.42171
 C204 C 0.59961 0.97733 0.57748
 C205 C 0.62824 0.94491 0.60948
 C206 C 0.61934 0.90058 0.59559
 C207 C 0.58222 0.88882 0.54891
 C208 C 0.55359 0.92124 0.51680
 H209 H 0.39855 0.94559 0.45377
 H210 H 0.34656 0.88989 0.51120
 H211 H 0.42813 0.92569 0.68267
 H212 H 0.47980 0.98187 0.62551
 H213 H 0.47974 1.01906 0.37373
 H214 H 0.42796 1.07500 0.31660
 H215 H 0.39852 1.05497 0.54552
 H216 H 0.52501 1.08942 0.51838
 H217 H 0.57522 1.14665 0.46162
 H218 H 0.65701 1.04720 0.35387
 H219 H 0.60645 0.98993 0.40991
 H220 H 0.60644 1.01146 0.58929
 H221 H 0.65699 0.95438 0.64536
 H222 H 0.57524 0.85463 0.53754
 H223 H 0.52506 0.91168 0.48077
 H224 H 0.34642 1.11042 0.48812
 C225 C 1.17061 0.15974 0.16197
 C226 C 1.14642 0.13134 0.13425
 C227 C 0.67071 0.65862 0.66409
 C228 C 0.64631 0.63035 0.63640
 C229 C -0.17259 0.33879 0.15488
 C230 C -0.14785 0.36646 0.12659
 C231 C 0.32916 0.84260 0.66116
 C232 C 0.35413 0.87063 0.63386
 C233 C -0.17181 0.66127 -0.15371
 C234 C -0.14721 0.63359 -0.12546
 C235 C 0.32890 1.15765 0.33819
 C236 C 0.35391 1.12973 0.36546
 C237 C 1.17084 -0.15998 -0.16271
 C238 C 1.14660 -0.13167 -0.13503
 C239 C 0.66998 0.34131 0.33711
 C240 C 0.64572 0.36959 0.36476
 C241 C 0.82761 -0.16094 -0.15828
 C242 C 0.85253 -0.13324 -0.13002
 C243 C 0.32795 0.33806 0.34362
 C244 C 0.35250 0.36592 0.37201
 C245 C 0.16960 0.65956 -0.16354
 C246 C 0.14560 0.63105 -0.13603
 C247 C 0.67210 1.16205 0.34060
 C248 C 0.64804 1.13426 0.36953
 C249 C 0.16927 0.34026 0.16330
 C250 C 0.14529 0.36874 0.13588
 C251 C 0.67199 0.83956 0.65867
 C252 C 0.64799 0.86727 0.62971
 C253 C 0.82772 0.15933 0.15755
 C254 C 0.85258 0.13172 0.12923
 C255 C 0.32835 0.66208 0.65624
 C256 C 0.35287 0.63424 0.62799
   
