data_POSCAR
  _audit_creation_date              2014-09-24
  _audit_creation_method            'ToBaCCo'
  _symmetry_space_group_name_H-M    'P1'
  _symmetry_Int_Tables_number       1
  _symmetry_cell_setting            triclinic
  loop_
  _symmetry_equiv_pos_as_xyz
 x,y,z
_cell_length_a 36.2676
_cell_length_b 36.1379
_cell_length_c 32.3350
_cell_angle_alpha 92.400300
_cell_angle_beta 87.079900
_cell_angle_gamma 90.924500
loop_
  _atom_site_label
  _atom_site_type_symbol
  _atom_site_fract_x
  _atom_site_fract_y
  _atom_site_fract_z
C1 C 0.29397 0.31909 0.23061
 H2 H 0.29228 0.32786 0.26304
 C3 C 0.31565 0.33926 0.20229
 H4 H 0.32973 0.36404 0.21336
 C5 C 0.27686 0.27624 0.17721
 H6 H 0.26208 0.25134 0.16775
 C7 C 0.29821 0.29550 0.14791
 H8 H 0.29945 0.28539 0.11586
 N9 N 0.27533 0.28814 0.21768
 C10 C 0.22437 0.28544 0.33820
 H11 H 0.23938 0.26253 0.34897
 C12 C 0.20458 0.30829 0.36701
 H13 H 0.20439 0.30245 0.39961
 C14 C 0.20649 0.32133 0.28321
 H15 H 0.20813 0.32690 0.25059
 C16 C 0.18641 0.34489 0.31093
 H17 H 0.17302 0.36839 0.29893
 Zn18 Zn 0.24875 0.25948 0.25685
 N19 N 0.22426 0.29173 0.29700
 C20 C 0.26997 0.20355 0.30976
 N21 N 0.28252 0.22896 0.28237
 C22 C 0.31925 0.23331 0.27292
 C23 C 0.34495 0.21218 0.29181
 C24 C 0.29471 0.18174 0.32942
 C25 C 0.18571 0.24788 0.21075
 C26 C 0.15941 0.22793 0.18866
 C27 C 0.19007 0.17147 0.20323
 C28 C 0.21579 0.19262 0.22514
 N29 N 0.21314 0.23013 0.22866
 H30 H 0.24059 0.20035 0.31655
 H31 H 0.32885 0.25340 0.25089
 H32 H 0.37406 0.21650 0.28390
 H33 H 0.28332 0.16249 0.35144
 H34 H 0.18441 0.27768 0.21307
 H35 H 0.13795 0.24293 0.17465
 H36 H 0.19325 0.14181 0.20164
 H37 H 0.23819 0.17895 0.23877
 C38 C 0.18454 0.33792 0.35344
 C39 C 0.31843 0.32708 0.16035
 C40 C 0.16130 0.18916 0.18427
 C41 C 0.33304 0.18595 0.32063
 C42 C 0.80961 0.80413 0.22684
 H43 H 0.80961 0.80928 0.26005
 C44 C 0.83237 0.82537 0.20060
 H45 H 0.84970 0.84617 0.21505
 C46 C 0.78670 0.76982 0.16952
 H47 H 0.76920 0.74792 0.15746
 C48 C 0.80894 0.79031 0.14209
 H49 H 0.80774 0.78379 0.10914
 N50 N 0.78670 0.77766 0.21099
 C51 C 0.69475 0.77185 0.30302
 H52 H 0.69410 0.74251 0.30850
 C53 C 0.66897 0.79517 0.32376
 H54 H 0.64862 0.78357 0.34543
 C55 C 0.72163 0.82235 0.26745
 H56 H 0.74160 0.83274 0.24473
 C57 C 0.69622 0.84664 0.28731
 H58 H 0.69727 0.87533 0.27916
 Zn59 Zn 0.75441 0.75224 0.24851
 N60 N 0.72083 0.78580 0.27603
 C61 C 0.77737 0.73513 0.32857
 N62 N 0.78327 0.72903 0.28701
 C63 C 0.80930 0.70490 0.27145
 C64 C 0.82913 0.68409 0.29793
 C65 C 0.79658 0.71498 0.35623
 C66 C 0.70263 0.72758 0.19157
 C67 C 0.68097 0.70204 0.16960
 C68 C 0.70667 0.65315 0.20738
 C69 C 0.72788 0.67962 0.22843
 N70 N 0.72595 0.71601 0.21981
 H71 H 0.75727 0.75510 0.34046
 H72 H 0.81370 0.70088 0.23823
 H73 H 0.84849 0.66439 0.28385
 H74 H 0.79070 0.71973 0.38921
 H75 H 0.70110 0.75679 0.18587
 H76 H 0.66338 0.71267 0.14707
 H77 H 0.70892 0.62431 0.21476
 H78 H 0.74564 0.67093 0.25188
 C79 C 0.66967 0.83317 0.31639
 C80 C 0.83178 0.81922 0.15714
 C81 C 0.68282 0.66397 0.17730
 C82 C 0.82244 0.68844 0.34124
 C83 C 0.80678 0.28165 0.72634
 H84 H 0.80960 0.28419 0.75949
 C85 C 0.82857 0.30375 0.70002
 H86 H 0.84846 0.32268 0.71345
 C87 C 0.77831 0.25252 0.66901
 H88 H 0.75911 0.23220 0.65688
 C89 C 0.79956 0.27400 0.64159
 H90 H 0.79618 0.27017 0.60858
 N91 N 0.78169 0.25720 0.71062
 C92 C 0.69624 0.24463 0.80934
 H93 H 0.69498 0.21475 0.81053
 C94 C 0.67280 0.26628 0.83560
 H95 H 0.65352 0.25286 0.85706
 C96 C 0.72294 0.29830 0.77985
 H97 H 0.74232 0.31073 0.75791
 C98 C 0.70004 0.32104 0.80560
 H99 H 0.70309 0.35071 0.80356
 Zn100 Zn 0.75202 0.22919 0.74843
 N101 N 0.72102 0.26084 0.78253
 C102 C 0.78232 0.20828 0.82339
 N103 N 0.78397 0.20318 0.78144
 C104 C 0.80878 0.17974 0.76196
 C105 C 0.83209 0.15910 0.78490
 C106 C 0.80518 0.18831 0.84760
 C107 C 0.69507 0.20974 0.69573
 C108 C 0.67142 0.18634 0.67354
 C109 C 0.70022 0.13391 0.70192
 C110 C 0.72335 0.15834 0.72340
 N111 N 0.72081 0.19550 0.71947
 H112 H 0.76324 0.22786 0.83832
 H113 H 0.81003 0.17666 0.72849
 H114 H 0.85117 0.14015 0.76856
 H115 H 0.80269 0.19344 0.88072
 H116 H 0.69318 0.23945 0.69371
 H117 H 0.65199 0.19909 0.65456
 H118 H 0.70309 0.10440 0.70538
 H119 H 0.74322 0.14745 0.74329
 C120 C 0.67443 0.30501 0.83396
 C121 C 0.82459 0.30050 0.65697
 C122 C 0.67384 0.14758 0.67626
 C123 C 0.83031 0.16270 0.82846
 C124 C 0.31514 0.79013 0.74397
 H125 H 0.31803 0.78413 0.77613
 C126 C 0.33990 0.81446 0.72437
 H127 H 0.36189 0.82719 0.74168
 C128 C 0.28285 0.78064 0.68242
 H129 H 0.26032 0.76756 0.66642
 C130 C 0.30699 0.80486 0.66158
 H131 H 0.30211 0.81034 0.62975
 N132 N 0.28738 0.77378 0.72283
 C133 C 0.20011 0.74937 0.81593
 H134 H 0.19833 0.71945 0.81349
 C135 C 0.17621 0.76897 0.84379
 H136 H 0.15628 0.75398 0.86303
 C137 C 0.22756 0.80534 0.79311
 H138 H 0.24738 0.81953 0.77312
 C139 C 0.20417 0.82601 0.82043
 H140 H 0.20717 0.85585 0.82172
 Zn141 Zn 0.25581 0.74061 0.75162
 N142 N 0.22513 0.76771 0.79120
 C143 C 0.28259 0.70247 0.81952
 N144 N 0.28659 0.70787 0.77816
 C145 C 0.31470 0.69203 0.75469
 C146 C 0.33946 0.66896 0.77232
 C147 C 0.30686 0.67970 0.83859
 C148 C 0.18857 0.71882 0.71624
 C149 C 0.16564 0.69865 0.68989
 C150 C 0.21961 0.66915 0.65761
 C151 C 0.24144 0.68987 0.68466
 N152 N 0.22571 0.71370 0.71381
 H153 H 0.26103 0.71628 0.83815
 H154 H 0.31872 0.69821 0.72238
 H155 H 0.36167 0.65687 0.75278
 H156 H 0.30264 0.67665 0.87154
 H157 H 0.17649 0.73882 0.73845
 H158 H 0.13644 0.70406 0.69297
 H159 H 0.23292 0.65010 0.63498
 H160 H 0.27098 0.68680 0.68219
 C161 C 0.17766 0.80779 0.84579
 C162 C 0.33627 0.82190 0.68257
 C163 C 0.18103 0.67278 0.66029
 C164 C 0.33594 0.66238 0.81485
 C165 C 0.00341 0.00859 -0.00101
 C166 C -0.01731 0.51142 0.50627
 C167 C 0.48583 0.00244 0.48665
 C168 C 0.50236 0.50311 -0.00469
 C169 C 0.15168 -0.17164 -0.12524
 C170 C 0.14096 -0.13546 -0.13174
 C171 C 0.11556 -0.11381 -0.10310
 C172 C 0.09911 -0.08233 -0.11770
 C173 C 0.07621 -0.06007 -0.09143
 C174 C 0.06921 -0.06889 -0.04977
 C175 C 0.08581 -0.10026 -0.03508
 C176 C 0.10874 -0.12255 -0.06138
 C177 C 0.04688 -0.04490 -0.02024
 C178 C 0.02236 -0.01833 -0.03226
 H179 H 0.15033 -0.12270 -0.16017
 H180 H 0.10433 -0.07465 -0.14952
 H181 H 0.06507 -0.03551 -0.10376
 H182 H 0.08136 -0.10733 -0.00296
 H183 H 0.12173 -0.14589 -0.04851
 H184 H 0.05016 -0.04781 0.01259
 H185 H 0.13902 -0.18639 -0.09965
 H186 H 0.01660 -0.01678 -0.06465
 C187 C 0.16247 0.36089 0.38433
 C188 C 0.13261 0.38203 0.37398
 C189 C 0.10932 0.40420 0.40441
 C190 C 0.08810 0.43253 0.38980
 C191 C 0.06492 0.45365 0.41692
 C192 C 0.06192 0.44644 0.45939
 C193 C 0.08339 0.41835 0.47416
 C194 C 0.10672 0.39724 0.44699
 C195 C 0.03750 0.46826 0.48896
 C196 C 0.00720 0.48773 0.47661
 H197 H 0.12568 0.38275 0.34189
 H198 H 0.08968 0.43858 0.35721
 H199 H 0.04991 0.47589 0.40444
 H200 H 0.08169 0.41236 0.50676
 H201 H 0.12190 0.37512 0.45944
 H202 H 0.04299 0.46846 0.52159
 H203 H 0.16940 0.35988 0.41639
 H204 H -0.00107 0.48381 0.44499
 C205 C 0.64175 -0.14279 0.33871
 C206 C 0.64367 -0.10405 0.34053
 C207 C 0.61570 -0.08046 0.36340
 C208 C 0.62506 -0.04354 0.37406
 C209 C 0.59967 -0.02054 0.39611
 C210 C 0.56447 -0.03405 0.40815
 C211 C 0.55457 -0.07060 0.39632
 C212 C 0.57984 -0.09353 0.37408
 C213 C 0.53854 -0.00943 0.43246
 C214 C 0.51181 -0.02291 0.46085
 H215 H 0.66758 -0.09014 0.32680
 H216 H 0.65228 -0.03256 0.36571
 H217 H 0.60775 0.00769 0.40440
 H218 H 0.52710 -0.08141 0.40355
 H219 H 0.57081 -0.12116 0.36486
 H220 H 0.54206 0.02026 0.43021
 H221 H 0.61970 -0.15658 0.35611
 H222 H 0.51021 -0.05242 0.46546
 C223 C 0.64998 0.32739 -0.13692
 C224 C 0.64256 0.36480 -0.14162
 C225 C 0.61890 0.38717 -0.11165
 C226 C 0.60382 0.42004 -0.12456
 C227 C 0.58168 0.44216 -0.09719
 C228 C 0.57413 0.43178 -0.05611
 C229 C 0.58993 0.39937 -0.04296
 C230 C 0.61208 0.37729 -0.07030
 C231 C 0.55094 0.45423 -0.02579
 C232 C 0.52577 0.48064 -0.03671
 H233 H 0.65290 0.37808 -0.16931
 H234 H 0.60919 0.42867 -0.15601
 H235 H 0.57121 0.46753 -0.10832
 H236 H 0.58510 0.39105 -0.01131
 H237 H 0.62425 0.35297 -0.05856
 H238 H 0.55230 0.44823 0.00661
 H239 H 0.63614 0.31314 -0.11165
 H240 H 0.52284 0.48561 -0.06911
 C241 C -0.14649 0.14056 -0.14937
 C242 C -0.14634 0.13971 -0.10600
 C243 C -0.12221 0.11524 -0.08374
 C244 C -0.08967 0.09984 -0.10224
 C245 C -0.06794 0.07679 -0.08006
 C246 C -0.07788 0.06908 -0.03860
 C247 C -0.11021 0.08464 -0.02016
 C248 C -0.13197 0.10760 -0.04235
 C249 C -0.05608 0.04424 -0.01409
 C250 C -0.01931 0.03502 -0.02447
 H251 H -0.16585 0.15591 -0.08689
 H252 H -0.08050 0.10568 -0.13365
 H253 H -0.04378 0.06477 -0.09591
 H254 H -0.11867 0.07907 0.01162
 H255 H -0.15675 0.11918 -0.02718
 H256 H -0.06936 0.03382 0.01390
 H257 H -0.12831 0.12196 -0.16743
 H258 H -0.00496 0.04842 -0.05004
 C259 C -0.16056 0.66684 0.37000
 C260 C -0.13386 0.63993 0.35975
 C261 C -0.11883 0.61574 0.39052
 C262 C -0.08410 0.59994 0.38172
 C263 C -0.06924 0.57617 0.40926
 C264 C -0.08892 0.56756 0.44631
 C265 C -0.12409 0.58252 0.45467
 C266 C -0.13892 0.60652 0.42716
 C267 C -0.07388 0.54209 0.47576
 C268 C -0.03588 0.53906 0.48017
 H269 H -0.12203 0.63690 0.32851
 H270 H -0.06839 0.60596 0.35333
 H271 H -0.04269 0.56399 0.40091
 H272 H -0.14008 0.57572 0.48261
 H273 H -0.16637 0.61702 0.43428
 H274 H -0.09328 0.52632 0.49479
 H275 H -0.16876 0.67144 0.40246
 H276 H -0.01758 0.55732 0.46271
 C277 C 0.35995 0.16575 0.33966
 C278 C 0.35246 0.13756 0.36741
 C279 C 0.38173 0.11818 0.38798
 C280 C 0.37401 0.08271 0.40245
 C281 C 0.40036 0.06385 0.42312
 C282 C 0.43517 0.08015 0.42984
 C283 C 0.44270 0.11590 0.41604
 C284 C 0.41633 0.13477 0.39524
 C285 C 0.46293 0.06158 0.45351
 C286 C 0.46344 0.02311 0.45672
 H287 H 0.32453 0.12764 0.37328
 H288 H 0.34736 0.06959 0.39795
 H289 H 0.39286 0.03699 0.43476
 H290 H 0.46899 0.12937 0.42164
 H291 H 0.42286 0.16262 0.38597
 H292 H 0.48324 0.07883 0.46877
 H293 H 0.38863 0.17213 0.33158
 H294 H 0.44593 0.00620 0.43713
 C295 C 0.36216 0.63973 -0.16836
 C296 C 0.36250 0.63065 -0.12669
 C297 C 0.39189 0.60843 -0.10996
 C298 C 0.38458 0.59129 -0.07225
 C299 C 0.41172 0.57089 -0.05469
 C300 C 0.44693 0.56707 -0.07467
 C301 C 0.45447 0.58473 -0.11204
 C302 C 0.42734 0.60526 -0.12953
 C303 C 0.47693 0.54665 -0.05663
 C304 C 0.47095 0.52115 -0.02553
 H305 H 0.34010 0.63881 -0.10516
 H306 H 0.35776 0.59387 -0.05611
 H307 H 0.40503 0.55905 -0.02506
 H308 H 0.48157 0.58287 -0.12764
 H309 H 0.43472 0.61922 -0.15775
 H310 H 0.50502 0.55189 -0.06819
 H311 H 0.38349 0.62828 -0.18953
 H312 H 0.44287 0.51398 -0.01570
 C313 C -0.14842 -0.16035 0.12938
 C314 C -0.12587 -0.12957 0.13919
 C315 C -0.10580 -0.10719 0.10754
 C316 C -0.09447 -0.07102 0.11894
 C317 C -0.07513 -0.04894 0.09049
 C318 C -0.06633 -0.06277 0.04996
 C319 C -0.07788 -0.09877 0.03834
 C320 C -0.09708 -0.12096 0.06687
 C321 C -0.04535 -0.04036 0.01927
 C322 C -0.01950 -0.01320 0.03066
 H323 H -0.12401 -0.11950 0.17090
 H324 H -0.10085 -0.05963 0.14996
 H325 H -0.06762 -0.02094 0.10022
 H326 H -0.07134 -0.11004 0.00730
 H327 H -0.10424 -0.14898 0.05700
 H328 H -0.04851 -0.04692 -0.01337
 H329 H -0.15119 -0.16754 0.09684
 H330 H -0.01457 -0.00837 0.06320
 C331 C -0.15360 0.32339 0.62722
 C332 C -0.13695 0.35731 0.63831
 C333 C -0.11541 0.38067 0.60874
 C334 C -0.10782 0.41772 0.62060
 C335 C -0.08686 0.44059 0.59433
 C336 C -0.07302 0.42690 0.55529
 C337 C -0.08033 0.38975 0.54358
 C338 C -0.10120 0.36684 0.56992
 C339 C -0.04917 0.44948 0.52705
 C340 C -0.04533 0.48812 0.53113
 H341 H -0.14125 0.36841 0.66975
 H342 H -0.11794 0.42899 0.65055
 H343 H -0.08098 0.46857 0.60542
 H344 H -0.06951 0.37824 0.51403
 H345 H -0.10527 0.33822 0.55993
 H346 H -0.03396 0.43466 0.50210
 H347 H -0.15279 0.31403 0.59500
 H348 H -0.06267 0.50312 0.55407
 C349 C 0.36302 -0.15204 0.66270
 C350 C 0.36798 -0.14877 0.61988
 C351 C 0.39436 -0.12217 0.60056
 C352 C 0.38781 -0.11035 0.56089
 C353 C 0.41191 -0.08530 0.54138
 C354 C 0.44329 -0.07163 0.56117
 C355 C 0.45053 -0.08428 0.60031
 C356 C 0.42624 -0.10921 0.61999
 C357 C 0.46955 -0.04556 0.54081
 C358 C 0.45863 -0.02100 0.51169
 H359 H 0.35125 -0.16534 0.59927
 H360 H 0.36384 -0.12044 0.54496
 H361 H 0.40622 -0.07736 0.51048
 H362 H 0.47495 -0.07473 0.61575
 H363 H 0.43299 -0.11874 0.64991
 H364 H 0.49818 -0.04554 0.54889
 H365 H 0.37962 -0.13490 0.68298
 H366 H 0.42943 -0.01892 0.50659
 C367 C 0.34159 0.34638 0.12867
 C368 C 0.37061 0.37073 0.13813
 C369 C 0.39441 0.38946 0.10644
 C370 C 0.42743 0.40655 0.11857
 C371 C 0.45042 0.42514 0.09003
 C372 C 0.44069 0.42713 0.04868
 C373 C 0.40803 0.40968 0.03633
 C374 C 0.38487 0.39138 0.06490
 C375 C 0.46359 0.44743 0.01781
 C376 C 0.48509 0.47852 0.02829
 H377 H 0.37759 0.37511 0.17009
 H378 H 0.43552 0.40548 0.15028
 H379 H 0.47588 0.43756 0.10035
 H380 H 0.39993 0.41099 0.00463
 H381 H 0.35935 0.37957 0.05419
 H382 H 0.46050 0.44023 -0.01472
 H383 H 0.33685 0.33898 0.09665
 H384 H 0.48530 0.48816 0.06044
 C385 C 0.13455 0.17014 0.16105
 C386 C 0.13414 0.13198 0.15144
 C387 C 0.10571 0.11352 0.12611
 C388 C 0.11441 0.08007 0.10452
 C389 C 0.08844 0.06164 0.08039
 C390 C 0.05301 0.07631 0.07739
 C391 C 0.04396 0.10926 0.09983
 C392 C 0.07000 0.12776 0.12392
 C393 C 0.02446 0.05698 0.05304
 C394 C 0.03289 0.03123 0.02063
 H395 H 0.15641 0.11489 0.16008
 H396 H 0.14148 0.06814 0.10629
 H397 H 0.09607 0.03554 0.06499
 H398 H 0.01661 0.12070 0.09875
 H399 H 0.06171 0.15270 0.14136
 H400 H -0.00428 0.06302 0.06090
 H401 H 0.11340 0.18657 0.14851
 H402 H 0.06147 0.02777 0.01000
 C403 C 0.15978 0.65067 0.63328
 C404 C 0.12110 0.64885 0.63487
 C405 C 0.09985 0.62479 0.60619
 C406 C 0.06389 0.61369 0.61874
 C407 C 0.04274 0.59123 0.59258
 C408 C 0.05717 0.57942 0.55311
 C409 C 0.09278 0.59125 0.54014
 C410 C 0.11398 0.61367 0.56634
 C411 C 0.03544 0.55621 0.52413
 C412 C 0.00576 0.53346 0.53686
 H413 H 0.10529 0.66340 0.65944
 H414 H 0.05210 0.62243 0.64897
 H415 H 0.01492 0.58394 0.60318
 H416 H 0.10425 0.58311 0.50957
 H417 H 0.14101 0.62276 0.55489
 H418 H 0.04376 0.55610 0.49146
 H419 H 0.17453 0.63268 0.61073
 H420 H -0.00119 0.53150 0.56967
 C421 C 0.65166 0.12193 0.65428
 C422 C 0.62392 0.13113 0.62797
 C423 C 0.60285 0.10321 0.60332
 C424 C 0.56915 0.11341 0.58787
 C425 C 0.54900 0.08846 0.56329
 C426 C 0.56217 0.05255 0.55364
 C427 C 0.59607 0.04250 0.56868
 C428 C 0.61626 0.06747 0.59315
 C429 C 0.54266 0.02559 0.52630
 C430 C 0.50560 0.02862 0.51677
 H431 H 0.61611 0.15963 0.62565
 H432 H 0.55847 0.14095 0.59458
 H433 H 0.52370 0.09789 0.55122
 H434 H 0.60722 0.01527 0.56110
 H435 H 0.64271 0.05881 0.60296
 H436 H 0.55819 0.00198 0.51387
 H437 H 0.65635 0.09285 0.65842
 H438 H 0.48889 0.04957 0.53316
 C439 C 0.66212 0.63629 0.15652
 C440 C 0.63668 0.64263 0.12651
 C441 C 0.61550 0.61250 0.10560
 C442 C 0.58204 0.62109 0.08857
 C443 C 0.56109 0.59362 0.06864
 C444 C 0.57353 0.55690 0.06475
 C445 C 0.60702 0.54827 0.08166
 C446 C 0.62802 0.57579 0.10158
 C447 C 0.55171 0.52691 0.04458
 C448 C 0.52591 0.53346 0.01516
 H449 H 0.63011 0.67052 0.11906
 H450 H 0.57175 0.64912 0.09125
 H451 H 0.53487 0.60121 0.05719
 H452 H 0.61718 0.52019 0.07905
 H453 H 0.65421 0.56817 0.11308
 H454 H 0.55635 0.49877 0.05302
 H455 H 0.66573 0.60800 0.16513
 H456 H 0.52402 0.56128 0.00438
   
