data_POSCAR
  _audit_creation_date              2014-09-24
  _audit_creation_method            'ToBaCCo'
  _symmetry_space_group_name_H-M    'P1'
  _symmetry_Int_Tables_number       1
  _symmetry_cell_setting            triclinic
  loop_
  _symmetry_equiv_pos_as_xyz
 x,y,z
_cell_length_a 39.1057
_cell_length_b 38.9576
_cell_length_c 39.3313
_cell_angle_alpha 90.087300
_cell_angle_beta 89.875900
_cell_angle_gamma 87.400800
loop_
  _atom_site_label
  _atom_site_type_symbol
  _atom_site_fract_x
  _atom_site_fract_y
  _atom_site_fract_z
C1 C 0.29185 0.25405 0.23290
 N2 N 0.26651 0.27900 0.23209
 C3 C 0.24130 0.28024 0.25598
 N4 N 0.24158 0.25602 0.28090
 C5 C 0.26686 0.23088 0.28201
 N6 N 0.29178 0.23014 0.25791
 C7 C 0.70793 -0.25266 0.22772
 N8 N 0.73327 -0.27771 0.22701
 C9 C 0.75854 -0.27889 0.25077
 N10 N 0.75820 -0.25445 0.27557
 C11 C 0.73307 -0.22919 0.27667
 N12 N 0.70814 -0.22853 0.25268
 C13 C 0.73279 0.25024 0.77177
 N14 N 0.75629 0.27489 0.77282
 C15 C 0.78092 0.27640 0.74842
 N16 N 0.78181 0.25272 0.72291
 C17 C 0.75858 0.22789 0.72160
 N18 N 0.73418 0.22688 0.74610
 C19 C 0.26818 -0.25357 0.77147
 N20 N 0.26701 -0.22946 0.74645
 C21 C 0.24252 -0.22936 0.72210
 N22 N 0.21892 -0.25375 0.72285
 C23 C 0.21951 -0.27814 0.74749
 N24 N 0.24424 -0.27795 0.77181
 C25 C 0.71823 -0.24526 0.77983
 N26 N 0.71637 -0.22006 0.75585
 C27 C 0.74035 -0.21891 0.73083
 N28 N 0.76628 -0.24327 0.72994
 C29 C 0.76869 -0.26862 0.75358
 N30 N 0.74452 -0.26937 0.77841
 C31 C 0.27836 0.24275 0.78250
 N32 N 0.28045 0.21756 0.75850
 C33 C 0.25660 0.21630 0.73351
 N34 N 0.23058 0.24056 0.73268
 C35 C 0.22809 0.26589 0.75640
 N36 N 0.25211 0.26684 0.78123
 C37 C 0.26166 -0.24885 0.22158
 N38 N 0.23736 -0.27273 0.22255
 C39 C 0.21358 -0.27272 0.24779
 N40 N 0.21428 -0.24820 0.27235
 C41 C 0.23822 -0.22398 0.27185
 N42 N 0.26186 -0.22449 0.24642
 C43 C 0.73910 0.24719 0.22232
 N44 N 0.76285 0.27148 0.22249
 C45 C 0.78719 0.27218 0.24701
 N46 N 0.78759 0.24783 0.27178
 C47 C 0.76396 0.22319 0.27206
 N48 N 0.73976 0.22308 0.24724
 O49 O 0.22817 0.03770 0.46866
 O50 O 0.22109 -0.03154 0.53160
 O51 O 0.22808 0.03436 0.53473
 O52 O 0.22139 -0.02857 0.46560
 O53 O 0.27754 -0.03702 0.46522
 O54 O 0.28424 0.02591 0.53476
 O55 O 0.27727 -0.03990 0.53147
 O56 O 0.28432 0.02923 0.46865
 Cu57 Cu 0.21905 0.00384 0.50010
 Cu58 Cu 0.28648 -0.00629 0.49991
 C59 C 0.25752 0.04540 0.45798
 C60 C 0.24797 -0.04744 0.54244
 C61 C 0.25724 0.04081 0.54672
 C62 C 0.24826 -0.04369 0.45364
 O63 O 0.72466 0.03841 0.53065
 O64 O 0.71700 -0.02997 0.46692
 O65 O 0.71675 -0.02736 0.53321
 O66 O 0.72485 0.03610 0.46451
 O67 O 0.78094 0.02699 0.46490
 O68 O 0.77282 -0.03656 0.53327
 O69 O 0.77306 -0.03919 0.46695
 O70 O 0.78076 0.02938 0.53084
 Cu71 Cu 0.71520 0.00517 0.49874
 Cu72 Cu 0.78251 -0.00585 0.49897
 C73 C 0.75399 0.04563 0.54166
 C74 C 0.74366 -0.04629 0.45599
 C75 C 0.74347 -0.04270 0.54511
 C76 C 0.75430 0.04260 0.45313
 O77 O 0.47941 0.21899 0.03457
 O78 O 0.54399 0.21840 -0.03325
 O79 O 0.54576 0.21912 0.03302
 O80 O 0.47732 0.21914 -0.03161
 O81 O 0.47516 0.27581 -0.03156
 O82 O 0.54320 0.27580 0.03248
 O83 O 0.54188 0.27507 -0.03361
 O84 O 0.47681 0.27567 0.03450
 Cu85 Cu 0.51186 0.21322 0.00063
 Cu86 Cu 0.50904 0.28127 0.00037
 C87 C 0.46712 0.24733 0.04627
 C88 C 0.55410 0.24652 -0.04502
 C89 C 0.55607 0.24761 0.04387
 C90 C 0.46445 0.24758 -0.04250
 O91 O 0.51933 0.77829 0.03287
 O92 O 0.45457 0.77757 -0.03450
 O93 O 0.45296 0.77743 0.03175
 O94 O 0.52117 0.77777 -0.03342
 O95 O 0.52401 0.72110 -0.03313
 O96 O 0.45600 0.72075 0.03144
 O97 O 0.45725 0.72090 -0.03468
 O98 O 0.52254 0.72162 0.03307
 Cu99 Cu 0.48672 0.78343 -0.00087
 Cu100 Cu 0.49027 0.71542 -0.00086
 C101 C 0.53198 0.75017 0.04463
 C102 C 0.44471 0.74925 -0.04612
 C103 C 0.44284 0.74893 0.04272
 C104 C 0.53431 0.74940 -0.04434
 O105 O 0.03517 0.46849 0.22036
 O106 O -0.03615 0.53317 0.21931
 O107 O 0.03038 0.53499 0.22007
 O108 O -0.03103 0.46648 0.21946
 O109 O -0.03203 0.46631 0.27553
 O110 O 0.02936 0.53566 0.27615
 O111 O -0.03724 0.53348 0.27538
 O112 O 0.03449 0.46858 0.27645
 Cu113 Cu -0.00037 0.50081 0.21421
 Cu114 Cu -0.00147 0.50106 0.28153
 C115 C 0.04709 0.45745 0.24850
 C116 C -0.04898 0.54439 0.24710
 C117 C 0.04053 0.54699 0.24814
 C118 C -0.04199 0.45453 0.24725
 O119 O 0.03162 0.53228 0.77717
 O120 O -0.03484 0.46785 0.77786
 O121 O 0.03200 0.46533 0.77778
 O122 O -0.03535 0.53483 0.77722
 O123 O -0.03516 0.53398 0.72114
 O124 O 0.03188 0.46481 0.72170
 O125 O -0.03434 0.46709 0.72177
 O126 O 0.03135 0.53140 0.72110
 Cu127 Cu -0.00167 0.50017 0.78316
 Cu128 Cu -0.00161 0.49932 0.71584
 C129 C 0.04288 0.54279 0.74887
 C130 C -0.04576 0.45631 0.74985
 C131 C 0.04342 0.45317 0.74976
 C132 C -0.04677 0.54629 0.74900
 C133 C 0.36841 0.24834 0.15498
 C134 C 0.36830 0.22295 0.18028
 C135 C 0.34352 0.22500 0.20580
 C136 C 0.31883 0.25229 0.20638
 C137 C 0.32025 0.27754 0.18100
 N138 N 0.34468 0.27498 0.15636
 C139 C 0.39386 0.24711 0.12709
 N140 N 0.40237 0.27696 0.11194
 C141 C 0.42555 0.27774 0.08615
 C142 C 0.44151 0.24711 0.07398
 C143 C 0.43267 0.21603 0.08889
 C144 C 0.40890 0.21590 0.11532
 H145 H 0.34369 0.20509 0.22499
 H146 H 0.30194 0.29920 0.18059
 H147 H 0.43143 0.30227 0.07522
 H148 H 0.44411 0.19175 0.08014
 H149 H 0.38735 0.20194 0.18078
 H150 H 0.40206 0.19152 0.12588
 C151 C 0.63172 0.75141 0.15207
 C152 C 0.63126 0.77650 0.17773
 C153 C 0.65634 0.77504 0.20288
 C154 C 0.68209 0.74859 0.20280
 C155 C 0.68116 0.72360 0.17691
 N156 N 0.65637 0.72561 0.15270
 C157 C 0.60590 0.75202 0.12458
 N158 N 0.59813 0.72200 0.10924
 C159 C 0.57472 0.72069 0.08378
 C160 C 0.55773 0.75094 0.07212
 C161 C 0.56577 0.78221 0.08725
 C162 C 0.58976 0.78288 0.11337
 H163 H 0.65546 0.79479 0.22232
 H164 H 0.70010 0.70249 0.17571
 H165 H 0.56949 0.69604 0.07267
 H166 H 0.55351 0.80621 0.07892
 H167 H 0.61151 0.79683 0.17880
 H168 H 0.59594 0.80740 0.12410
 C169 C 0.65574 0.24543 -0.15114
 C170 C 0.65835 0.21989 -0.17635
 C171 C 0.68343 0.22153 -0.20144
 C172 C 0.70596 0.24858 -0.20169
 C173 C 0.70220 0.27388 -0.17629
 N174 N 0.67747 0.27175 -0.15209
 C175 C 0.62960 0.24477 -0.12391
 N176 N 0.61826 0.27487 -0.10923
 C177 C 0.59422 0.27615 -0.08415
 C178 C 0.58029 0.24580 -0.07225
 C179 C 0.59202 0.21447 -0.08670
 C180 C 0.61662 0.21382 -0.11240
 H181 H 0.68509 0.20158 -0.22064
 H182 H 0.71879 0.29536 -0.17562
 H183 H 0.58611 0.30084 -0.07353
 H184 H 0.58225 0.19039 -0.07812
 H185 H 0.64093 0.19912 -0.17719
 H186 H 0.62569 0.18926 -0.12259
 C187 C 0.34372 0.74940 -0.15247
 C188 C 0.34268 0.77408 -0.17840
 C189 C 0.31782 0.77292 -0.20359
 C190 C 0.29373 0.74713 -0.20337
 C191 C 0.29615 0.72245 -0.17723
 N192 N 0.32075 0.72416 -0.15290
 C193 C 0.36946 0.75011 -0.12496
 N194 N 0.38049 0.72017 -0.10989
 C195 C 0.40440 0.71915 -0.08475
 C196 C 0.41850 0.74960 -0.07324
 C197 C 0.40698 0.78075 -0.08804
 C198 C 0.38254 0.78113 -0.11376
 H199 H 0.31761 0.79242 -0.22320
 H200 H 0.27853 0.70184 -0.17595
 H201 H 0.41232 0.69459 -0.07381
 H202 H 0.41686 0.80490 -0.07978
 H203 H 0.36115 0.79391 -0.17961
 H204 H 0.37370 0.80558 -0.12430
 C205 C 0.15996 0.35732 0.25018
 C206 C 0.18563 0.35586 0.22514
 C207 C 0.21219 0.33089 0.22722
 C208 C 0.21350 0.30733 0.25421
 C209 C 0.18769 0.31009 0.27911
 N210 N 0.16200 0.33469 0.27653
 C211 C 0.13098 0.38307 0.24883
 N212 N 0.11518 0.39329 0.27829
 C213 C 0.08846 0.41689 0.27889
 C214 C 0.07596 0.43155 0.24849
 C215 C 0.09154 0.42095 0.21783
 C216 C 0.11891 0.39678 0.21787
 H217 H 0.23165 0.33006 0.20757
 H218 H 0.18779 0.29268 0.30053
 H219 H 0.07703 0.42413 0.30309
 H220 H 0.08259 0.43131 0.19375
 H221 H 0.18563 0.37403 0.20438
 H222 H 0.12997 0.38858 0.19380
 C223 C 0.14441 0.64525 0.74611
 C224 C 0.14514 0.66972 0.72002
 C225 C 0.16957 0.69457 0.72065
 C226 C 0.19338 0.69544 0.74727
 C227 C 0.19148 0.67085 0.77325
 N228 N 0.16730 0.64678 0.77208
 C229 C 0.11890 0.61831 0.74613
 N230 N 0.10795 0.60545 0.77624
 C231 C 0.08394 0.58126 0.77786
 C232 C 0.06954 0.56857 0.74792
 C233 C 0.08105 0.58098 0.71666
 C234 C 0.10569 0.60566 0.71564
 H235 H 0.16970 0.71312 0.70019
 H236 H 0.20911 0.67072 0.79442
 H237 H 0.07603 0.57214 0.80251
 H238 H 0.07101 0.57167 0.69289
 H239 H 0.12671 0.67016 0.69953
 H240 H 0.11449 0.61434 0.69116
 C241 C -0.16174 0.64474 0.24617
 C242 C -0.18761 0.64542 0.22149
 C243 C -0.21411 0.67054 0.22313
 C244 C -0.21515 0.69521 0.24935
 C245 C -0.18896 0.69316 0.27390
 N246 N -0.16344 0.66834 0.27174
 C247 C -0.13291 0.61876 0.24543
 N248 N -0.11710 0.60959 0.27509
 C249 C -0.09043 0.58597 0.27631
 C250 C -0.07791 0.57025 0.24633
 C251 C -0.09351 0.57972 0.21544
 C252 C -0.12091 0.60389 0.21486
 H253 H -0.23369 0.67054 0.20370
 H254 H -0.18857 0.71124 0.29481
 H255 H -0.07900 0.57963 0.30066
 H256 H -0.08455 0.56845 0.19166
 H257 H -0.18782 0.62650 0.20134
 H258 H -0.13203 0.61120 0.19062
 C259 C -0.14644 0.35300 0.75029
 C260 C -0.17001 0.35104 0.77706
 C261 C -0.19424 0.32578 0.77648
 C262 C -0.19487 0.30205 0.74945
 C263 C -0.17047 0.30486 0.72333
 N264 N -0.14746 0.32990 0.72437
 C265 C -0.12064 0.37969 0.74972
 N266 N -0.11367 0.39753 0.77853
 C267 C -0.08993 0.42199 0.77927
 C268 C -0.07177 0.42991 0.74968
 C269 C -0.07873 0.41198 0.71970
 C270 C -0.10293 0.38680 0.71967
 H271 H -0.21233 0.32487 0.79732
 H272 H -0.16969 0.28741 0.70187
 H273 H -0.08543 0.43530 0.80290
 H274 H -0.06527 0.41718 0.69631
 H275 H -0.16999 0.36905 0.79806
 H276 H -0.10786 0.37322 0.69627
 C277 C 0.26735 0.15265 0.35837
 C278 C 0.29449 0.15358 0.33503
 C279 C 0.29436 0.17923 0.31041
 C280 C 0.26723 0.20404 0.30870
 C281 C 0.24046 0.20215 0.33240
 N282 N 0.24111 0.17678 0.35617
 C283 C 0.26592 0.12543 0.38451
 N284 N 0.23491 0.11696 0.39698
 C285 C 0.23158 0.09175 0.42049
 C286 C 0.26064 0.07333 0.43286
 C287 C 0.29288 0.08209 0.42082
 C288 C 0.29566 0.10811 0.39683
 H289 H 0.31546 0.17940 0.29255
 H290 H 0.21891 0.22057 0.33192
 H291 H 0.20622 0.08605 0.42929
 H292 H 0.31602 0.06887 0.42995
 H293 H 0.31529 0.13432 0.33506
 H294 H 0.32089 0.11473 0.38849
 C295 C 0.76181 0.15190 0.64279
 C296 C 0.78864 0.17453 0.64557
 C297 C 0.78757 0.19948 0.67113
 C298 C 0.75992 0.20196 0.69397
 C299 C 0.73349 0.17905 0.69006
 N300 N 0.73504 0.15511 0.66490
 C301 C 0.76119 0.12504 0.61619
 N302 N 0.73041 0.11332 0.60654
 C303 C 0.72753 0.08831 0.58276
 C304 C 0.75689 0.07314 0.56733
 C305 C 0.78896 0.08457 0.57709
 C306 C 0.79124 0.11049 0.60144
 H307 H 0.80843 0.21673 0.67304
 H308 H 0.71152 0.18013 0.70687
 H309 H 0.70229 0.08016 0.57617
 H310 H 0.81229 0.07343 0.56598
 H311 H 0.80995 0.17350 0.62796
 H312 H 0.81627 0.11835 0.60904
 C313 C 0.24010 -0.15281 0.64412
 C314 C 0.21328 -0.17545 0.64660
 C315 C 0.21407 -0.20041 0.67200
 C316 C 0.24148 -0.20297 0.69501
 C317 C 0.26791 -0.18000 0.69148
 N318 N 0.26663 -0.15600 0.66642
 C319 C 0.24088 -0.12606 0.61752
 N320 N 0.27169 -0.11457 0.60758
 C321 C 0.27457 -0.08984 0.58355
 C322 C 0.24519 -0.07480 0.56819
 C323 C 0.21312 -0.08600 0.57829
 C324 C 0.21083 -0.11157 0.60289
 H325 H 0.19321 -0.21771 0.67357
 H326 H 0.28968 -0.18116 0.70845
 H327 H 0.29980 -0.08181 0.57672
 H328 H 0.18978 -0.07492 0.56730
 H329 H 0.19220 -0.17448 0.62881
 H330 H 0.18579 -0.11923 0.61076
 C331 C 0.73308 -0.15132 0.35373
 C332 C 0.70615 -0.15162 0.33018
 C333 C 0.70612 -0.17708 0.30525
 C334 C 0.73287 -0.20231 0.30344
 C335 C 0.75947 -0.20097 0.32730
 N336 N 0.75896 -0.17582 0.35136
 C337 C 0.73466 -0.12451 0.38039
 N338 N 0.76566 -0.11706 0.39353
 C339 C 0.76918 -0.09246 0.41770
 C340 C 0.74032 -0.07364 0.43016
 C341 C 0.70807 -0.08133 0.41742
 C342 C 0.70510 -0.10672 0.39270
 H343 H 0.68518 -0.17682 0.28726
 H344 H 0.78074 -0.21972 0.32678
 H345 H 0.79453 -0.08757 0.42699
 H346 H 0.68506 -0.06775 0.42654
 H347 H 0.68562 -0.13206 0.33034
 H348 H 0.67985 -0.11252 0.38384
 C349 C 0.64224 0.74979 -0.14433
 C350 C 0.66932 0.72491 -0.14526
 C351 C 0.69456 0.72668 -0.17020
 C352 C 0.69317 0.75324 -0.19446
 C353 C 0.66586 0.77802 -0.19216
 N354 N 0.64159 0.77571 -0.16753
 C355 C 0.61461 0.74878 -0.11856
 N356 N 0.59765 0.77860 -0.10910
 C357 C 0.57206 0.77952 -0.08556
 C358 C 0.56195 0.74906 -0.07019
 C359 C 0.57874 0.71799 -0.07999
 C360 C 0.60495 0.71772 -0.10408
 H361 H 0.71510 0.70706 -0.17038
 H362 H 0.66361 0.79920 -0.20991
 H363 H 0.55963 0.80402 -0.07895
 H364 H 0.57164 0.69383 -0.06905
 H365 H 0.67144 0.70450 -0.12667
 H366 H 0.61698 0.69333 -0.11162
 C367 C 0.35576 0.24785 -0.14105
 C368 C 0.32949 0.27360 -0.14261
 C369 C 0.30416 0.27181 -0.16737
 C370 C 0.30474 0.24440 -0.19060
 C371 C 0.33109 0.21882 -0.18776
 N372 N 0.35551 0.22113 -0.16340
 C373 C 0.38352 0.24874 -0.11557
 N374 N 0.39980 0.21872 -0.10580
 C375 C 0.42560 0.21763 -0.08262
 C376 C 0.43663 0.24810 -0.06798
 C377 C 0.42052 0.27934 -0.07809
 C378 C 0.39409 0.27980 -0.10182
 H379 H 0.28421 0.29198 -0.16831
 H380 H 0.33243 0.19705 -0.20491
 H381 H 0.43745 0.19298 -0.07573
 H382 H 0.42835 0.30351 -0.06769
 H383 H 0.32808 0.29471 -0.12469
 H384 H 0.38264 0.30431 -0.10965
 C385 C 0.33650 0.74793 0.14423
 C386 C 0.31146 0.72327 0.14481
 C387 C 0.28659 0.72449 0.17026
 C388 C 0.28632 0.75029 0.19538
 C389 C 0.31155 0.77491 0.19342
 N390 N 0.33553 0.77315 0.16826
 C391 C 0.36372 0.74734 0.11797
 N392 N 0.37782 0.77730 0.10879
 C393 C 0.40292 0.77854 0.08484
 C394 C 0.41551 0.74828 0.06880
 C395 C 0.40166 0.71710 0.07828
 C396 C 0.37587 0.71650 0.10277
 H397 H 0.26765 0.70504 0.17015
 H398 H 0.31243 0.79552 0.21184
 H399 H 0.41307 0.80312 0.07851
 H400 H 0.41075 0.69309 0.06681
 H401 H 0.31065 0.70344 0.12558
 H402 H 0.36614 0.69202 0.11006
 C403 C 0.66218 0.24920 0.14499
 C404 C 0.68645 0.27464 0.14569
 C405 C 0.71149 0.27378 0.17079
 C406 C 0.71273 0.24758 0.19529
 C407 C 0.68840 0.22218 0.19333
 N408 N 0.66413 0.22358 0.16854
 C409 C 0.63479 0.24954 0.11907
 N410 N 0.62156 0.21937 0.10917
 C411 C 0.59655 0.21800 0.08525
 C412 C 0.58324 0.24830 0.06995
 C413 C 0.59616 0.27967 0.08025
 C414 C 0.62177 0.28041 0.10474
 H415 H 0.72987 0.29376 0.17095
 H416 H 0.68855 0.20133 0.21148
 H417 H 0.58709 0.19328 0.07828
 H418 H 0.58645 0.30372 0.06944
 H419 H 0.68653 0.29480 0.12681
 H420 H 0.63076 0.30503 0.11267
 C421 C -0.15172 0.65488 0.74865
 C422 C -0.15369 0.68089 0.72400
 C423 C -0.17990 0.70631 0.72575
 C424 C -0.20439 0.70614 0.75203
 C425 C -0.20105 0.67986 0.77653
 N426 N -0.17519 0.65540 0.77427
 C427 C -0.12454 0.62716 0.74777
 N428 N -0.11459 0.61165 0.77737
 C429 C -0.08985 0.58597 0.77846
 C430 C -0.07373 0.57421 0.74841
 C431 C -0.08397 0.58952 0.71758
 C432 C -0.10928 0.61590 0.71713
 H433 H -0.18087 0.72603 0.70635
 H434 H -0.21894 0.67857 0.79749
 H435 H -0.08294 0.57471 0.80277
 H436 H -0.07244 0.58111 0.69375
 H437 H -0.13496 0.68206 0.70381
 H438 H -0.11715 0.62678 0.69294
 C439 C -0.14024 0.34886 0.24487
 C440 C -0.16519 0.34782 0.21940
 C441 C -0.18913 0.32248 0.22021
 C442 C -0.18863 0.29790 0.24643
 C443 C -0.16342 0.30019 0.27178
 N444 N -0.14033 0.32531 0.27042
 C445 C -0.11435 0.37543 0.24476
 N446 N -0.10142 0.38647 0.27478
 C447 C -0.07822 0.41146 0.27631
 C448 C -0.06665 0.42680 0.24635
 C449 C -0.07912 0.41522 0.21516
 C450 C -0.10281 0.38960 0.21424
 H451 H -0.20806 0.32237 0.20016
 H452 H -0.16198 0.28216 0.29269
 H453 H -0.06901 0.41937 0.30090
 H454 H -0.07067 0.42600 0.19138
 H455 H -0.16673 0.36672 0.19927
 H456 H -0.11161 0.38081 0.18980
 C457 C 0.14763 0.34393 0.75077
 C458 C 0.15028 0.31826 0.72569
 C459 C 0.17635 0.29274 0.72768
 C460 C 0.19983 0.29250 0.75465
 C461 C 0.19588 0.31825 0.77959
 N462 N 0.17023 0.34289 0.77708
 C463 C 0.12070 0.37186 0.74957
 N464 N 0.11012 0.38733 0.77908
 C465 C 0.08556 0.41321 0.77985
 C466 C 0.07028 0.42515 0.74956
 C467 C 0.08118 0.40988 0.71884
 C468 C 0.10633 0.38337 0.71871
 H469 H 0.17811 0.27326 0.70801
 H470 H 0.21318 0.31895 0.80099
 H471 H 0.07810 0.42441 0.80410
 H472 H 0.07033 0.41845 0.69483
 H473 H 0.13223 0.31745 0.70494
 H474 H 0.11474 0.37258 0.69459
 C475 C 0.13954 0.65199 0.24882
 C476 C 0.14062 0.67561 0.27570
 C477 C 0.16498 0.70074 0.27536
 C478 C 0.18871 0.70226 0.24846
 C479 C 0.18676 0.67784 0.22217
 N480 N 0.16257 0.65391 0.22298
 C481 C 0.11391 0.62513 0.24813
 N482 N 0.09634 0.61744 0.27689
 C483 C 0.07289 0.59270 0.27758
 C484 C 0.06577 0.57415 0.24798
 C485 C 0.08343 0.58184 0.21804
 C486 C 0.10757 0.60709 0.21806
 H487 H 0.16524 0.71880 0.29631
 H488 H 0.20423 0.67774 0.20078
 H489 H 0.05977 0.58767 0.30118
 H490 H 0.07883 0.56812 0.19464
 H491 H 0.12264 0.67490 0.29663
 H492 H 0.12097 0.61255 0.19470
 C493 C 0.73566 -0.14136 0.65358
 C494 C 0.70920 -0.14233 0.67778
 C495 C 0.71064 -0.16751 0.70310
 C496 C 0.73834 -0.19170 0.70446
 C497 C 0.76436 -0.18956 0.67998
 N498 N 0.76241 -0.16484 0.65569
 C499 C 0.73615 -0.11532 0.62615
 N500 N 0.76664 -0.10925 0.61102
 C501 C 0.76954 -0.08630 0.58533
 C502 C 0.74049 -0.06784 0.57306
 C503 C 0.70869 -0.07384 0.58804
 C504 C 0.70638 -0.09752 0.61451
 H505 H 0.69010 -0.16800 0.72158
 H506 H 0.78635 -0.20746 0.68005
 H507 H 0.79457 -0.08263 0.57449
 H508 H 0.68558 -0.06032 0.57925
 H509 H 0.68789 -0.12365 0.67771
 H510 H 0.68147 -0.10216 0.62507
 C511 C 0.23865 -0.14658 0.34926
 C512 C 0.21154 -0.16896 0.34769
 C513 C 0.21147 -0.19417 0.32250
 C514 C 0.23830 -0.19730 0.29877
 C515 C 0.26510 -0.17461 0.30140
 N516 N 0.26468 -0.15032 0.32631
 C517 C 0.24010 -0.11966 0.37576
 N518 N 0.27115 -0.10900 0.38594
 C519 C 0.27442 -0.08474 0.41049
 C520 C 0.24525 -0.06951 0.42627
 C521 C 0.21298 -0.07963 0.41566
 C522 C 0.21029 -0.10459 0.39048
 H523 H 0.19035 -0.21119 0.32168
 H524 H 0.28646 -0.17623 0.28384
 H525 H 0.29980 -0.07749 0.41769
 H526 H 0.18977 -0.06839 0.42690
 H527 H 0.19088 -0.16758 0.36604
 H528 H 0.18510 -0.11156 0.38241
 C529 C 0.76474 0.14625 0.34980
 C530 C 0.79190 0.16857 0.34768
 C531 C 0.79166 0.19370 0.32239
 C532 C 0.76450 0.19672 0.29914
 C533 C 0.73774 0.17405 0.30232
 N534 N 0.73846 0.14991 0.32727
 C535 C 0.76329 0.11943 0.37635
 N536 N 0.73219 0.10841 0.38606
 C537 C 0.72870 0.08396 0.41030
 C538 C 0.75770 0.06878 0.42622
 C539 C 0.79006 0.07933 0.41620
 C540 C 0.79297 0.10458 0.39135
 H541 H 0.81275 0.21073 0.32109
 H542 H 0.71613 0.17554 0.28517
 H543 H 0.70326 0.07645 0.41706
 H544 H 0.81314 0.06818 0.42764
 H545 H 0.81280 0.16722 0.36566
 H546 H 0.81822 0.11184 0.38370
 C547 C 0.26271 0.13905 0.65588
 C548 C 0.28885 0.14012 0.68028
 C549 C 0.28690 0.16520 0.70575
 C550 C 0.25900 0.18916 0.70704
 C551 C 0.23328 0.18691 0.68238
 N552 N 0.23574 0.16229 0.65793
 C553 C 0.26281 0.11312 0.62830
 N554 N 0.23257 0.10666 0.61303
 C555 C 0.23022 0.08377 0.58716
 C556 C 0.25963 0.06582 0.57488
 C557 C 0.29120 0.07223 0.58999
 C558 C 0.29294 0.09584 0.61664
 H559 H 0.30722 0.16579 0.72437
 H560 H 0.21117 0.20465 0.68241
 H561 H 0.20535 0.07977 0.57621
 H562 H 0.31457 0.05910 0.58117
 H563 H 0.31029 0.12160 0.68026
 H564 H 0.31767 0.10083 0.62732
   
