data_POSCAR
  _audit_creation_date              2014-09-24
  _audit_creation_method            'ToBaCCo'
  _symmetry_space_group_name_H-M    'P1'
  _symmetry_Int_Tables_number       1
  _symmetry_cell_setting            triclinic
  loop_
  _symmetry_equiv_pos_as_xyz
 x,y,z
_cell_length_a 29.8401
_cell_length_b 29.9504
_cell_length_c 29.9100
_cell_angle_alpha 101.351700
_cell_angle_beta 85.981100
_cell_angle_gamma 81.959300
loop_
  _atom_site_label
  _atom_site_type_symbol
  _atom_site_fract_x
  _atom_site_fract_y
  _atom_site_fract_z
C1 C 0.51190 0.48487 -0.00734
 C2 C 0.47870 0.52009 -0.01070
 C3 C 0.42964 0.51490 -0.01334
 C4 C 0.48982 0.56664 -0.01265
 C5 C 0.56026 0.49157 -0.00362
 C6 C 0.50271 0.43732 -0.00747
 C7 C 0.40524 0.53499 -0.04470
 C8 C 0.35878 0.53385 -0.04631
 C9 C 0.33476 0.51145 -0.01710
 C10 C 0.36003 0.48988 0.01337
 C11 C 0.40628 0.49286 0.01619
 C12 C 0.46602 0.60528 0.01850
 C13 C 0.47380 0.64952 0.01565
 C14 C 0.50577 0.65609 -0.01827
 C15 C 0.52988 0.61733 -0.04939
 C16 C 0.52168 0.57298 -0.04683
 C17 C 0.57246 0.52509 0.03133
 C18 C 0.61830 0.52908 0.03537
 C19 C 0.65283 0.49908 0.00500
 C20 C 0.64043 0.46537 -0.02959
 C21 C 0.59473 0.46178 -0.03393
 C22 C 0.51907 0.41491 0.02656
 C23 C 0.51364 0.36932 0.02583
 C24 C 0.49115 0.34534 -0.00856
 C25 C 0.47445 0.36769 -0.04258
 C26 C 0.48077 0.41315 -0.04241
 H27 H 0.42228 0.55191 -0.06825
 H28 H 0.34299 0.54907 -0.07229
 H29 H 0.34378 0.47235 0.03687
 H30 H 0.42356 0.47833 0.04190
 H31 H 0.44107 0.60114 0.04487
 H32 H 0.45472 0.67871 0.04007
 H33 H 0.53956 0.54369 -0.07195
 H34 H 0.54656 0.54762 0.05591
 H35 H 0.62668 0.55471 0.06309
 H36 H 0.66618 0.44178 -0.05349
 H37 H 0.58619 0.43543 -0.06091
 H38 H 0.53643 0.43271 0.05360
 H39 H 0.52684 0.35279 0.05236
 H40 H 0.45778 0.34957 -0.07001
 H41 H 0.46904 0.42927 -0.06975
 H42 H 0.55395 0.62131 -0.07658
 C43 C -0.00376 0.52400 0.52985
 C44 C -0.00544 0.48966 0.49288
 C45 C -0.00664 0.44093 0.49649
 C46 C -0.00611 0.49847 0.44564
 C47 C -0.00489 0.57280 0.52560
 C48 C -0.00085 0.51581 0.57719
 C49 C 0.02641 0.41624 0.51748
 C50 C 0.02601 0.36940 0.51703
 C51 C -0.00640 0.34629 0.49423
 C52 C -0.03949 0.37105 0.47360
 C53 C -0.03974 0.41786 0.47495
 C54 C 0.02668 0.47208 0.41117
 C55 C 0.02480 0.47632 0.36574
 C56 C -0.00978 0.50730 0.35369
 C57 C -0.04230 0.53442 0.38831
 C58 C -0.04069 0.52974 0.43390
 C59 C -0.03835 0.60671 0.55277
 C60 C -0.03813 0.65322 0.55288
 C61 C -0.00427 0.66695 0.52588
 C62 C 0.02848 0.63296 0.49752
 C63 C 0.02851 0.58621 0.49777
 C64 C -0.03253 0.49373 0.59815
 C65 C -0.03063 0.48996 0.64399
 C66 C 0.00190 0.50958 0.66989
 C67 C 0.03366 0.53125 0.64880
 C68 C 0.03243 0.53410 0.60294
 H69 H 0.05300 0.43289 0.53330
 H70 H 0.05197 0.35082 0.53297
 H71 H -0.06517 0.35411 0.45632
 H72 H -0.06549 0.43606 0.45844
 H73 H 0.05344 0.44754 0.41943
 H74 H 0.05034 0.45504 0.33987
 H75 H -0.06701 0.54961 0.45977
 H76 H -0.06442 0.59708 0.57444
 H77 H -0.06448 0.67849 0.57425
 H78 H 0.05493 0.64267 0.47641
 H79 H 0.05512 0.56065 0.47713
 H80 H -0.05922 0.48036 0.57943
 H81 H -0.05558 0.47327 0.65973
 H82 H 0.05943 0.54613 0.66789
 H83 H 0.05714 0.55137 0.58763
 H84 H -0.06992 0.55790 0.37997
 C85 C 0.52133 0.00549 0.47879
 C86 C 0.48770 0.00576 0.51222
 C87 C 0.49617 0.00687 0.56097
 C88 C 0.43996 0.00411 0.50178
 C89 C 0.51116 0.00849 0.43134
 C90 C 0.57008 0.00252 0.48741
 C91 C 0.47627 -0.02255 0.58473
 C92 C 0.48147 -0.02072 0.63095
 C93 C 0.50808 0.00962 0.65468
 C94 C 0.52811 0.03919 0.63061
 C95 C 0.52134 0.03846 0.58467
 C96 C 0.42902 -0.03146 0.46817
 C97 C 0.38359 -0.03456 0.46144
 C98 C 0.34850 -0.00265 0.48888
 C99 C 0.35959 0.03293 0.52228
 C100 C 0.40488 0.03641 0.52851
 C101 C 0.53540 -0.02380 0.39410
 C102 C 0.52825 -0.02021 0.34928
 C103 C 0.49647 0.01558 0.34068
 C104 C 0.47197 0.04788 0.37798
 C105 C 0.47955 0.04457 0.42294
 C106 C 0.59635 0.03246 0.47136
 C107 C 0.64227 0.02990 0.47810
 C108 C 0.66319 -0.00198 0.50223
 C109 C 0.63664 -0.03243 0.51788
 C110 C 0.59094 -0.03075 0.50969
 H111 H 0.45634 -0.04702 0.56744
 H112 H 0.46539 -0.04416 0.64770
 H113 H 0.54714 0.06469 0.64736
 H114 H 0.53546 0.06293 0.56777
 H115 H 0.45557 -0.05744 0.44800
 H116 H 0.37593 -0.06287 0.43608
 H117 H 0.41264 0.06389 0.55480
 H118 H 0.56013 -0.05171 0.39980
 H119 H 0.54761 -0.04559 0.32124
 H120 H 0.44805 0.07649 0.37248
 H121 H 0.46134 0.07058 0.45115
 H122 H 0.58119 0.05814 0.45365
 H123 H 0.66100 0.05401 0.46526
 H124 H 0.65109 -0.05909 0.53465
 H125 H 0.57187 -0.05556 0.52071
 H126 H 0.33313 0.05797 0.54380
 O127 O 0.45951 0.00471 -0.06017
 O128 O 0.47130 0.01820 0.06366
 O129 O 0.46992 0.07277 0.00478
 O130 O 0.45862 -0.04860 -0.00145
 O131 O 0.53268 -0.06896 -0.01950
 O132 O 0.54470 0.05388 -0.00651
 O133 O 0.54537 -0.00418 0.04779
 O134 O 0.53435 -0.01068 -0.07455
 Cu135 Cu 0.45735 0.01383 0.00331
 Cu136 Cu 0.54677 -0.00955 -0.01475
 C137 C 0.49515 -0.00421 -0.08825
 C138 C 0.51043 0.00819 0.07667
 C139 C 0.50913 0.08410 0.00025
 C140 C 0.49351 -0.07955 -0.01164
 O141 O -0.06737 0.50468 1.01284
 O142 O 0.05620 0.50790 1.00804
 O143 O -0.00378 0.50518 0.94876
 O144 O -0.00744 0.50659 1.07267
 O145 O 0.00577 0.43048 1.05709
 O146 O 0.01048 0.42909 0.93362
 O147 O 0.06989 0.43181 0.99483
 O148 O -0.05332 0.42860 0.99680
 Cu149 Cu -0.00691 0.51372 1.01217
 Cu150 Cu 0.00964 0.42241 0.99401
 C151 C -0.08137 0.46599 1.00500
 C152 C 0.08401 0.47045 1.00120
 C153 C 0.00354 0.46688 0.92011
 C154 C -0.00131 0.46861 1.08595
 O155 O 0.01325 -0.06333 0.46359
 O156 O 0.00688 0.06244 0.47510
 O157 O 0.07148 -0.00572 0.47348
 O158 O -0.05133 0.00547 0.46403
 O159 O -0.06429 0.01329 0.53904
 O160 O 0.05860 0.00508 0.54875
 O161 O -0.00647 0.07216 0.55022
 O162 O 0.00116 -0.05326 0.53884
 Cu163 Cu 0.01132 -0.00137 0.46146
 Cu164 Cu -0.00414 0.01030 0.55178
 C165 C 0.00825 -0.07968 0.49943
 C166 C -0.00047 0.08867 0.51466
 C167 C 0.08594 -0.00143 0.51275
 C168 C -0.07867 0.01090 0.49982
 C169 C -0.22228 0.46198 1.00034
 C170 C -0.20654 0.50390 1.01504
 N171 N -0.23689 0.54356 1.02696
 C172 C -0.28229 0.54322 1.02480
 C173 C -0.29823 0.50127 1.00958
 N174 N -0.26746 0.46168 0.99772
 N175 N -0.19213 0.42226 0.98855
 C176 C -0.14678 0.42249 0.99052
 C177 C -0.13062 0.46449 1.00457
 N178 N -0.16115 0.50429 1.01659
 H179 H -0.30545 0.57552 1.03383
 H180 H -0.12359 0.39024 0.98059
 C181 C 0.22472 0.47648 1.00236
 C182 C 0.19661 0.50658 0.98206
 N183 N 0.21492 0.53758 0.96207
 C184 C 0.26015 0.53989 0.96106
 C185 C 0.28915 0.51020 0.98215
 N186 N 0.26974 0.47952 1.00261
 N187 N 0.20668 0.44424 1.02093
 C188 C 0.16166 0.44095 1.02021
 C189 C 0.13313 0.47199 1.00101
 N190 N 0.15143 0.50424 0.98245
 H191 H 0.27201 0.56642 0.94584
 H192 H 0.14809 0.41503 1.03534
 C193 C 0.01026 -0.22266 0.49116
 C194 C -0.00105 -0.19087 0.53300
 N195 N -0.01245 -0.20586 0.57153
 C196 C -0.01350 -0.25128 0.57015
 C197 C -0.00262 -0.28345 0.52825
 N198 N 0.00944 -0.26821 0.48971
 N199 N 0.02124 -0.20731 0.45260
 C200 C 0.02124 -0.16156 0.45401
 C201 C 0.00984 -0.12965 0.49596
 N202 N -0.00089 -0.14538 0.53444
 H203 H -0.02226 -0.26216 0.60162
 H204 H 0.02994 -0.15029 0.42274
 C205 C -0.00090 0.23180 0.52603
 C206 C -0.00465 0.20307 0.48373
 N207 N -0.00862 0.22140 0.44593
 C208 C -0.00921 0.26728 0.44848
 C209 C -0.00519 0.29624 0.49069
 N210 N -0.00088 0.27762 0.52853
 N211 N 0.00214 0.21347 0.56397
 C212 C 0.00169 0.16767 0.56153
 C213 C -0.00145 0.13868 0.51907
 N214 N -0.00446 0.15729 0.48115
 H215 H -0.01233 0.28099 0.41775
 H216 H 0.00438 0.15399 0.59230
 C217 C 0.48473 -0.00710 -0.22860
 C218 C 0.52066 0.01021 -0.20690
 N219 N 0.55178 0.02751 -0.23102
 C220 C 0.54861 0.02850 -0.27597
 C221 C 0.51291 0.01041 -0.29849
 N222 N 0.48214 -0.00718 -0.27367
 N223 N 0.45259 -0.02288 -0.20411
 C224 C 0.45484 -0.02214 -0.15871
 C225 C 0.49141 -0.00577 -0.13712
 N226 N 0.52356 0.00996 -0.16188
 H227 H 0.57490 0.04163 -0.29385
 H228 H 0.42875 -0.03475 -0.13984
 C229 C 0.52425 0.00764 0.21620
 C230 C 0.48204 0.02346 0.20230
 N231 N 0.44523 0.03736 0.23390
 C232 C 0.44871 0.03601 0.27879
 C233 C 0.49092 0.01954 0.29273
 N234 N 0.52760 0.00582 0.26076
 N235 N 0.56115 -0.00622 0.18488
 C236 C 0.55777 -0.00535 0.14001
 C237 C 0.51540 0.00969 0.12559
 N238 N 0.47846 0.02391 0.15732
 H239 H 0.41861 0.04660 0.30300
 H240 H 0.58780 -0.01701 0.11580
 C241 C 0.47895 -0.21786 -0.01153
 C242 C 0.52124 -0.20672 -0.02507
 N243 N 0.55784 -0.24067 -0.03702
 C244 C 0.55405 -0.28524 -0.03591
 C245 C 0.51174 -0.29640 -0.02175
 N246 N 0.47529 -0.26210 -0.00995
 N247 N 0.44225 -0.18422 0.00034
 C248 C 0.44589 -0.13969 -0.00037
 C249 C 0.48835 -0.12804 -0.01317
 N250 N 0.52511 -0.16208 -0.02537
 H251 H 0.58398 -0.31137 -0.04492
 H252 H 0.41600 -0.11359 0.00965
 C253 C 0.51995 0.22339 0.00159
 C254 C 0.47956 0.20622 -0.00825
 N255 N 0.44388 0.23441 -0.01872
 C256 C 0.44673 0.27914 -0.01975
 C257 C 0.48695 0.29667 -0.00929
 N258 N 0.52256 0.26817 0.00125
 N259 N 0.55602 0.19494 0.01096
 C260 C 0.55358 0.14993 0.01088
 C261 C 0.51298 0.13271 0.00160
 N262 N 0.47687 0.16148 -0.00768
 H263 H 0.41763 0.30098 -0.02776
 H264 H 0.58289 0.12793 0.01828
 C265 C -0.21876 0.01623 0.48632
 C266 C -0.19890 -0.00405 0.52003
 N267 N -0.22480 -0.02363 0.54742
 C268 C -0.26973 -0.02412 0.54253
 C269 C -0.29026 -0.00326 0.50893
 N270 N -0.26367 0.01663 0.48205
 N271 N -0.19273 0.03449 0.45779
 C272 C -0.14746 0.03327 0.46143
 C273 C -0.12755 0.01362 0.49567
 N274 N -0.15388 -0.00448 0.52435
 H275 H -0.28901 -0.03919 0.56595
 H276 H -0.12732 0.04784 0.43812
 C277 C 0.22602 0.00044 0.52194
 C278 C 0.20944 -0.01257 0.47934
 N279 N 0.23862 -0.02314 0.44051
 C280 C 0.28372 -0.02108 0.44236
 C281 C 0.30029 -0.00723 0.48498
 N282 N 0.27079 0.00311 0.52373
 N283 N 0.19700 0.01081 0.56082
 C284 C 0.15188 0.00922 0.55904
 C285 C 0.13491 -0.00278 0.51633
 N286 N 0.16431 -0.01356 0.47746
 H287 H 0.30611 -0.02906 0.41083
 H288 H 0.12943 0.01818 0.59056
 C289 C -0.00017 0.46832 1.22718
 C290 C -0.01489 0.50922 1.21267
 N291 N -0.02843 0.54891 1.24443
 C292 C -0.02784 0.54956 1.29006
 C293 C -0.01254 0.50865 1.30468
 N294 N 0.00090 0.46907 1.27253
 N295 N 0.01304 0.42849 1.19574
 C296 C 0.01240 0.42761 1.15022
 C297 C -0.00173 0.46858 1.13528
 N298 N -0.01510 0.50854 1.16708
 H299 H -0.03824 0.58182 1.31449
 H300 H 0.02336 0.39530 1.12598
 C301 C 0.00043 0.46762 0.77902
 C302 C 0.00406 0.50787 0.81089
 N303 N 0.00668 0.54762 0.79631
 C304 C 0.00602 0.54898 0.75122
 C305 C 0.00211 0.50886 0.71912
 N306 N -0.00083 0.46905 0.73396
 N307 N -0.00128 0.42769 0.79363
 C308 C 0.00036 0.42619 0.83869
 C309 C 0.00336 0.46662 0.87080
 N310 N 0.00506 0.50654 0.85590
 H311 H 0.00805 0.58121 0.74056
 H312 H -0.00130 0.39392 0.84937
   
