data_POSCAR
  _audit_creation_date              2014-09-24
  _audit_creation_method            'ToBaCCo'
  _symmetry_space_group_name_H-M    'P1'
  _symmetry_Int_Tables_number       1
  _symmetry_cell_setting            triclinic
  loop_
  _symmetry_equiv_pos_as_xyz
 x,y,z
_cell_length_a 40.6942
_cell_length_b 42.0074
_cell_length_c 40.1000
_cell_angle_alpha 90.780500
_cell_angle_beta 89.494900
_cell_angle_gamma 90.323600
loop_
  _atom_site_label
  _atom_site_type_symbol
  _atom_site_fract_x
  _atom_site_fract_y
  _atom_site_fract_z
N1 N 0.20899 0.21771 0.20413
 N2 N -0.21599 0.76713 0.22407
 N3 N -0.23070 0.23343 -0.23668
 N4 N 0.21033 0.79425 -0.21397
 N5 N 0.21969 1.20300 0.80734
 N6 N 0.78865 0.77888 0.78510
 N7 N 0.22286 0.78201 1.20773
 N8 N 0.78587 1.22812 1.22137
 O9 O 0.53153 0.95712 0.95840
 O10 O 0.47915 0.96698 1.07045
 O11 O 0.57898 0.99076 1.03892
 O12 O 0.47157 0.95797 0.96580
 O13 O 0.54103 0.96564 1.06788
 O14 O 0.48833 0.98261 0.92191
 O15 O 0.46807 0.94575 1.02308
 O16 O 0.57478 0.98121 0.97879
 C17 C 0.56175 0.95716 0.96458
 C18 C 0.46834 0.94403 1.05381
 C19 C 0.57032 0.96865 1.05853
 C20 C 0.46704 0.96345 0.93525
 O21 O 0.49242 1.03456 0.95470
 O22 O 0.54245 1.02658 1.07457
 O23 O 0.55130 1.04317 0.97289
 O24 O 0.44389 1.00500 1.03809
 O25 O 0.48096 1.02868 1.06936
 O26 O 0.54555 1.01070 0.93376
 O27 O 0.44880 1.01803 0.97929
 O28 O 0.55399 1.05096 1.02981
 Co29 Co 0.51082 0.99559 0.95869
 Co30 Co 0.51098 0.99721 1.06467
 Co31 Co 0.56083 1.01512 1.00520
 Co32 Co 0.46256 0.98323 1.00211
 O33 O 0.51250 0.99896 1.00974
 C34 C 0.46301 1.03844 0.96189
 C35 C 0.55296 1.05076 1.06053
 C36 C 0.55749 1.03629 0.94340
 C37 C 0.45191 1.02603 1.05956
 O38 O 0.03784 0.47254 0.03302
 O39 O 0.03466 0.52919 -0.06053
 O40 O -0.00020 0.43347 -0.03413
 O41 O 0.00366 0.56614 0.02924
 O42 O 0.03523 0.46847 -0.05122
 O43 O 0.03881 0.52986 0.03623
 O44 O 0.00827 0.56666 -0.03229
 O45 O 0.00142 0.43638 0.02571
 C46 C 0.03041 0.44390 0.03245
 C47 C 0.03122 0.55778 -0.05172
 C48 C 0.02787 0.44019 -0.04563
 C49 C 0.03206 0.55846 0.03688
 O50 O -0.02343 0.52928 0.06423
 O51 O -0.02686 0.46667 -0.07324
 O52 O -0.05825 0.46604 0.02656
 O53 O -0.05448 0.55172 -0.03711
 O54 O -0.02739 0.52554 -0.07618
 O55 O -0.02201 0.47191 0.06392
 O56 O -0.05702 0.54340 0.02550
 O57 O -0.06080 0.45990 -0.03292
 Co58 Co 0.00629 0.50094 0.04475
 Co59 Co 0.00282 0.49745 -0.05941
 Co60 Co -0.02784 0.45322 -0.00369
 Co61 Co -0.02358 0.55150 -0.00361
 O62 O -0.01027 0.50098 -0.00593
 C63 C -0.05138 0.53901 0.05551
 C64 C -0.05513 0.45931 -0.06323
 C65 C -0.05087 0.46491 0.05630
 C66 C -0.05065 0.54345 -0.06692
 O67 O 1.04971 0.04590 0.47779
 O68 O 0.93968 0.03191 0.53172
 O69 O 0.97138 0.01020 0.43000
 O70 O 1.04249 0.04516 0.53863
 O71 O 0.94040 0.03228 0.46916
 O72 O 1.08654 0.02141 0.52151
 O73 O 0.98516 0.05589 0.54141
 O74 O 1.03045 0.02092 0.43409
 C75 C 1.04395 0.04527 0.44707
 C76 C 0.95475 0.05626 0.54112
 C77 C 0.94957 0.03011 0.43928
 C78 C 1.07277 0.04019 0.54332
 O79 O 1.05609 -0.03119 0.51759
 O80 O 0.93765 -0.02841 0.46792
 O81 O 1.03817 -0.04049 0.45769
 O82 O 0.97274 -0.00304 0.56729
 O83 O 0.94485 -0.02997 0.52993
 O84 O 1.07598 -0.00755 0.46347
 O85 O 1.03111 -0.01482 0.56186
 O86 O 0.98285 -0.05001 0.45382
 Co87 Co 1.05078 0.00745 0.49878
 Co88 Co 0.94648 0.00152 0.49964
 Co89 Co 1.00554 -0.01339 0.44792
 Co90 Co 1.00741 0.01923 0.54779
 O91 O 1.00055 0.00258 0.49722
 C92 C 1.04893 -0.03499 0.54744
 C93 C 0.95268 -0.05122 0.45538
 C94 C 1.06686 -0.03313 0.45093
 C95 C 0.95400 -0.02607 0.55936
 C96 C 1.15967 0.17436 0.28247
 N97 N 1.16312 0.20654 0.28203
 N98 N 1.17934 0.22055 0.25710
 C99 C 1.19304 0.20283 0.23203
 N100 N 1.18989 0.17068 0.23280
 N101 N 1.17337 0.15676 0.25743
 C102 C 1.14008 0.15846 0.30833
 N103 N 1.12689 0.12942 0.30163
 N104 N 1.10909 0.11437 0.32452
 C105 C 1.10406 0.12756 0.35519
 N106 N 1.11737 0.15663 0.36211
 N107 N 1.13489 0.17196 0.33893
 C108 C 1.08528 0.10951 0.38008
 N109 N 1.08914 0.11446 0.41343
 N110 N 1.07479 0.09499 0.43536
 C111 C 1.05588 0.07017 0.42458
 N112 N 1.05147 0.06592 0.39135
 N113 N 1.06591 0.08511 0.36957
 C114 C 0.83135 -0.19120 0.30510
 N115 N 0.79979 -0.18364 0.29809
 N116 N 0.78452 -0.19725 0.27229
 C117 C 0.80022 -0.21901 0.25261
 N118 N 0.83179 -0.22656 0.25971
 N119 N 0.84708 -0.21289 0.28544
 C120 C 0.84873 -0.17486 0.33230
 N121 N 0.88136 -0.17958 0.33683
 N122 N 0.89766 -0.16299 0.35998
 C123 C 0.88186 -0.14122 0.37952
 N124 N 0.84913 -0.13687 0.37531
 N125 N 0.83286 -0.15339 0.35212
 C126 C 0.90024 -0.12051 0.40251
 N127 N 0.88433 -0.09781 0.42070
 N128 N 0.90113 -0.07658 0.43874
 C129 C 0.93446 -0.07727 0.43929
 N130 N 0.95039 -0.10036 0.42162
 N131 N 0.93356 -0.12163 0.40357
 C132 C 0.82359 0.19502 0.68436
 N133 N 0.79057 0.19032 0.68621
 N134 N 0.77303 0.20291 0.71127
 C135 C 0.78788 0.22063 0.73547
 N136 N 0.82089 0.22542 0.73343
 N137 N 0.83840 0.21285 0.70839
 C138 C 0.84328 0.17948 0.65804
 N139 N 0.87651 0.18267 0.65750
 N140 N 0.89464 0.16658 0.63523
 C141 C 0.88016 0.14679 0.61265
 N142 N 0.84690 0.14399 0.61289
 N143 N 0.82878 0.16006 0.63514
 C144 C 0.90004 0.12620 0.59066
 N145 N 0.88515 0.10383 0.57125
 N146 N 0.90288 0.08249 0.55427
 C147 C 0.93617 0.08277 0.55591
 N148 N 0.95119 0.10560 0.57472
 N149 N 0.93342 0.12694 0.59183
 C150 C 1.16004 -0.17136 0.70441
 N151 N 1.14359 -0.18439 0.73049
 N152 N 1.15983 -0.19591 0.75630
 C153 C 1.19317 -0.19456 0.75724
 N154 N 1.20967 -0.18180 0.73095
 N155 N 1.19340 -0.17044 0.70500
 C156 C 1.14182 -0.15654 0.67729
 N157 N 1.15754 -0.14622 0.64940
 N158 N 1.14116 -0.13069 0.62605
 C159 C 1.10856 -0.12477 0.62987
 N160 N 1.09284 -0.13537 0.65760
 N161 N 1.10913 -0.15110 0.68078
 C162 C 1.09124 -0.10447 0.60632
 N163 N 1.06248 -0.09060 0.61557
 N164 N 1.04832 -0.06937 0.59606
 C165 C 1.06215 -0.06155 0.56635
 N166 N 1.09054 -0.07595 0.55668
 N167 N 1.10491 -0.09696 0.57640
 C168 C 0.28523 1.16736 1.15927
 N169 N 0.28383 1.17115 1.19292
 N170 N 0.25974 1.18791 1.20729
 C171 C 0.23641 1.20187 1.18849
 N172 N 0.23808 1.19840 1.15477
 N173 N 0.26199 1.18137 1.14044
 C174 C 0.31067 1.14732 1.14366
 N175 N 0.30740 1.13655 1.11177
 N176 N 0.32986 1.11733 1.09807
 C177 C 0.35652 1.10839 1.11570
 N178 N 0.35991 1.11937 1.14749
 N179 N 0.33730 1.13834 1.16129
 C180 C 0.38121 1.08700 1.10087
 N181 N 0.41088 1.08362 1.11554
 N182 N 0.43336 1.06419 1.10228
 C183 C 0.42686 1.04714 1.07409
 N184 N 0.39712 1.05040 1.05945
 N185 N 0.37474 1.07008 1.07255
 C186 C 0.29308 0.84127 0.82267
 N187 N 0.28264 0.81351 0.83620
 N188 N 0.25642 0.79829 0.82416
 C189 C 0.23942 0.81028 0.79821
 N190 N 0.25003 0.83804 0.78460
 N191 N 0.27636 0.85322 0.79656
 C192 C 0.32120 0.85855 0.83709
 N193 N 0.33334 0.88537 0.82279
 N194 N 0.35806 0.90151 0.83684
 C195 C 0.37140 0.89145 0.86577
 N196 N 0.35932 0.86459 0.87990
 N197 N 0.33478 0.84841 0.86580
 C198 C 0.39736 0.90982 0.88269
 N199 N 0.40591 0.90218 0.91418
 N200 N 0.42840 0.91920 0.93051
 C201 C 0.44346 0.94438 0.91593
 N202 N 0.43521 0.95198 0.88428
 N203 N 0.41245 0.93503 0.86796
 C204 C 0.72346 0.82474 1.16820
 N205 N 0.75146 0.83655 1.18183
 N206 N 0.77072 0.81806 1.19987
 C207 C 0.76285 0.78699 1.20480
 N208 N 0.73488 0.77513 1.19106
 N209 N 0.71546 0.79371 1.17323
 C210 C 0.70181 0.84540 1.14902
 N211 N 0.67085 0.83580 1.14140
 N212 N 0.65076 0.85498 1.12514
 C213 C 0.66095 0.88434 1.11559
 N214 N 0.69204 0.89384 1.12289
 N215 N 0.71207 0.87474 1.13941
 C216 C 0.63799 0.90589 1.09923
 N217 N 0.64861 0.93314 1.08461
 N218 N 0.62726 0.95304 1.07095
 C219 C 0.59454 0.94648 1.07178
 N220 N 0.58405 0.91922 1.08632
 N221 N 0.60535 0.89925 1.09964
 C222 C 0.69774 1.17740 0.80939
 N223 N 0.71764 1.16492 0.78531
 N224 N 0.74016 1.18299 0.77026
 C225 C 0.74365 1.21433 0.77853
 N226 N 0.72331 1.22685 0.80232
 N227 N 0.70091 1.20874 0.81752
 C228 C 0.67429 1.15700 0.82744
 N229 N 0.65847 1.16812 0.85513
 N230 N 0.63850 1.14920 0.87251
 C231 C 0.63345 1.11849 0.86277
 N232 N 0.64901 1.10743 0.83488
 N233 N 0.66913 1.12631 0.81760
 C234 C 0.61258 1.09733 0.88296
 N235 N 0.60459 1.06756 0.87193
 N236 N 0.58658 1.04816 0.89090
 C237 C 0.57611 1.05779 0.92164
 N238 N 0.58405 1.08754 0.93260
 N239 N 0.60186 1.10697 0.91358
 C240 C 0.16081 0.28732 0.15111
 N241 N 0.14366 0.26635 0.17004
 N242 N 0.15919 0.24456 0.18772
 C243 C 0.19248 0.24275 0.18695
 N244 N 0.20969 0.26384 0.16811
 N245 N 0.19413 0.28586 0.15064
 C246 C 0.14324 0.31039 0.13079
 N247 N 0.15892 0.33594 0.11745
 N248 N 0.14247 0.35681 0.09926
 C249 C 0.10989 0.35256 0.09343
 N250 N 0.09438 0.32689 0.10656
 N251 N 0.11071 0.30627 0.12498
 C252 C 0.09096 0.37573 0.07450
 N253 N 0.06005 0.36824 0.06465
 N254 N 0.04144 0.38975 0.04993
 C255 C 0.05293 0.41963 0.04463
 N256 N 0.08406 0.42711 0.05403
 N257 N 0.10283 0.40545 0.06859
 C258 C -0.19463 0.31664 -0.19261
 N259 N -0.18899 0.31021 -0.22539
 N260 N -0.20151 0.28408 -0.23967
 C261 C -0.21994 0.26319 -0.22174
 N262 N -0.22593 0.26998 -0.18902
 N263 N -0.21358 0.29621 -0.17476
 C264 C -0.17818 0.34365 -0.17604
 N265 N -0.18522 0.35106 -0.14374
 N266 N -0.16815 0.37352 -0.12765
 C267 C -0.14330 0.38932 -0.14319
 N268 N -0.13653 0.38223 -0.17565
 N269 N -0.15373 0.35986 -0.19181
 C270 C -0.12219 0.41120 -0.12403
 N271 N -0.09356 0.42247 -0.13715
 N272 N -0.07261 0.43911 -0.11825
 C273 C -0.07964 0.44511 -0.08561
 N274 N -0.10858 0.43444 -0.07278
 N275 N -0.12943 0.41779 -0.09161
 C276 C 0.16535 0.72169 -0.16078
 N277 N 0.17014 0.71884 -0.19424
 N278 N 0.18487 0.74201 -0.21121
 C279 C 0.19575 0.76873 -0.19530
 N280 N 0.19114 0.77152 -0.16179
 N281 N 0.17611 0.74847 -0.14485
 C282 C 0.14792 0.69657 -0.14247
 N283 N 0.13556 0.70222 -0.11139
 N284 N 0.11850 0.67977 -0.09550
 C285 C 0.11348 0.65077 -0.11000
 N286 N 0.12615 0.64504 -0.14092
 N287 N 0.14292 0.66756 -0.15692
 C288 C 0.09359 0.62630 -0.09332
 N289 N 0.09318 0.59596 -0.10538
 N290 N 0.07392 0.57400 -0.09149
 C291 C 0.05413 0.58160 -0.06518
 N292 N 0.05463 0.61192 -0.05297
 N293 N 0.07413 0.63384 -0.06670
 C294 C -0.18717 0.67815 0.18824
 N295 N -0.17856 0.68815 0.21926
 N296 N -0.18877 0.71617 0.23116
 C297 C -0.20764 0.73550 0.21240
 N298 N -0.21679 0.72510 0.18161
 N299 N -0.20677 0.69697 0.16978
 C300 C -0.17256 0.64938 0.17336
 N301 N -0.18211 0.63903 0.14275
 N302 N -0.16598 0.61568 0.12710
 C303 C -0.13961 0.60186 0.14138
 N304 N -0.13046 0.61170 0.17234
 N305 N -0.14673 0.63499 0.18809
 C306 C -0.11880 0.58029 0.12145
 N307 N -0.08901 0.57083 0.13265
 N308 N -0.06794 0.55582 0.11225
 C309 C -0.07597 0.54988 0.07995
 N310 N -0.10609 0.55852 0.06915
 N311 N -0.12710 0.57340 0.08949
 C312 C 1.18423 0.15872 0.72282
 N313 N 1.20979 0.14610 0.73954
 N314 N 1.22157 0.16062 0.76673
 C315 C 1.20841 0.18842 0.77846
 N316 N 1.18311 0.20108 0.76109
 N317 N 1.17123 0.18654 0.73404
 C318 C 1.16972 0.14205 0.69394
 N319 N 1.14123 0.15262 0.68082
 N320 N 1.12704 0.13699 0.65564
 C321 C 1.14086 0.11027 0.64244
 N322 N 1.16955 0.09980 0.65533
 N323 N 1.18369 0.11537 0.68070
 C324 C 1.12404 0.09250 0.61566
 N325 N 1.13880 0.06779 0.59933
 N326 N 1.12279 0.05134 0.57577
 C327 C 1.09142 0.05894 0.56790
 N328 N 1.07677 0.08362 0.58420
 N329 N 1.09281 0.10016 0.60752
 C330 C 0.84289 -0.16429 0.72057
 N331 N 0.83591 -0.19503 0.71237
 N332 N 0.81852 -0.21324 0.73305
 C333 C 0.80729 -0.20135 0.76265
 N334 N 0.81398 -0.17045 0.77063
 N335 N 0.83156 -0.15230 0.75005
 C336 C 0.86191 -0.14427 0.69763
 N337 N 0.87292 -0.11503 0.70736
 N338 N 0.88965 -0.09671 0.68619
 C339 C 0.89581 -0.10696 0.65451
 N340 N 0.88486 -0.13622 0.64486
 N341 N 0.86835 -0.15459 0.66606
 C342 C 0.91256 -0.08638 0.63038
 N343 N 0.91204 -0.09415 0.59746
 N344 N 0.92572 -0.07501 0.57506
 C345 C 0.94069 -0.04750 0.58472
 N346 N 0.94164 -0.03983 0.61771
 N347 N 0.92767 -0.05890 0.64016
 C348 C 1.18358 -0.16646 0.28625
 N349 N 1.21013 -0.15542 0.26926
 N350 N 1.22296 -0.17224 0.24399
 C351 C 1.20992 -0.20087 0.23445
 N352 N 1.18335 -0.21181 0.25184
 N353 N 1.17046 -0.19499 0.27711
 C354 C 1.16861 -0.14742 0.31339
 N355 N 1.14101 -0.15789 0.32908
 N356 N 1.12661 -0.14020 0.35276
 C357 C 1.13926 -0.11139 0.36174
 N358 N 1.16703 -0.10097 0.34625
 N359 N 1.18144 -0.11867 0.32250
 C360 C 1.12197 -0.09143 0.38662
 N361 N 1.13396 -0.06248 0.39632
 N362 N 1.11699 -0.04399 0.41757
 C363 C 1.08744 -0.05383 0.42976
 N364 N 1.07569 -0.08280 0.42022
 N365 N 1.09264 -0.10127 0.39916
 C366 C 0.83763 0.17476 0.28756
 N367 N 0.85358 0.19218 0.26416
 N368 N 0.83679 0.21024 0.24327
 C369 C 0.80333 0.21138 0.24462
 N370 N 0.78765 0.19414 0.26850
 N371 N 0.80441 0.17637 0.28958
 C372 C 0.85560 0.15375 0.30987
 N373 N 0.84028 0.14163 0.33708
 N374 N 0.85593 0.12185 0.35703
 C375 C 0.88737 0.11309 0.35033
 N376 N 0.90277 0.12511 0.32304
 N377 N 0.88717 0.14519 0.30319
 C378 C 0.90409 0.09127 0.37281
 N379 N 0.93251 0.07644 0.36381
 N380 N 0.94707 0.05651 0.38465
 C381 C 0.93377 0.05097 0.41525
 N382 N 0.90549 0.06590 0.42413
 N383 N 0.89084 0.08551 0.40327
 C384 C 0.16521 0.27248 -0.14553
 N385 N 0.15038 0.24977 -0.16458
 N386 N 0.16807 0.22744 -0.18020
 C387 C 0.20137 0.22661 -0.17723
 N388 N 0.21603 0.24951 -0.15800
 N389 N 0.19838 0.27205 -0.14265
 C390 C 0.14561 0.29703 -0.12831
 N391 N 0.16001 0.32398 -0.11617
 N392 N 0.14203 0.34645 -0.10106
 C393 C 0.10908 0.34256 -0.09718
 N394 N 0.09476 0.31549 -0.10907
 N395 N 0.11267 0.29320 -0.12447
 C396 C 0.08891 0.36761 -0.08155
 N397 N 0.05752 0.36127 -0.07193
 N398 N 0.03848 0.38428 -0.05948
 C399 C 0.05002 0.41455 -0.05642
 N400 N 0.08150 0.42089 -0.06580
 N401 N 0.10067 0.39778 -0.07798
 C402 C -0.17437 0.31057 0.18387
 N403 N -0.20052 0.29644 0.16902
 N404 N -0.21335 0.26974 0.18112
 C405 C -0.20067 0.25576 0.20855
 N406 N -0.17444 0.27030 0.22340
 N407 N -0.16150 0.29701 0.21129
 C408 C -0.15943 0.33912 0.16934
 N409 N -0.13144 0.35194 0.18208
 N410 N -0.11665 0.37639 0.16717
 C411 C -0.12943 0.38895 0.13910
 N412 N -0.15769 0.37644 0.12674
 N413 N -0.17244 0.35202 0.14161
 C414 C -0.11114 0.41296 0.12013
 N415 N -0.12223 0.42223 0.08998
 N416 N -0.10367 0.44042 0.07038
 C417 C -0.07338 0.45011 0.08026
 N418 N -0.06263 0.44160 0.11081
 N419 N -0.08119 0.42333 0.13041
 C420 C -0.18051 0.68718 -0.19434
 N421 N -0.20790 0.69930 -0.17947
 N422 N -0.21860 0.72817 -0.18712
 C423 C -0.20231 0.74614 -0.20991
 N424 N -0.17526 0.73366 -0.22522
 N425 N -0.16456 0.70478 -0.21759
 C426 C -0.16595 0.65773 -0.18206
 N427 N -0.13681 0.64706 -0.19452
 N428 N -0.12109 0.62329 -0.17993
 C429 C -0.13395 0.60941 -0.15232
 N430 N -0.16348 0.61955 -0.14045
 N431 N -0.17922 0.64321 -0.15507
 C432 C -0.11425 0.58766 -0.13243
 N433 N -0.12355 0.58164 -0.10058
 N434 N -0.10369 0.56624 -0.08029
 C435 C -0.07386 0.55595 -0.09111
 N436 N -0.06483 0.56108 -0.12329
 N437 N -0.08464 0.57684 -0.14356
 C438 C 0.16841 0.71330 0.15936
 N439 N 0.20170 0.71241 0.15851
 N440 N 0.21933 0.73446 0.17462
 C441 C 0.20452 0.75828 0.19250
 N442 N 0.17107 0.75859 0.19373
 N443 N 0.15342 0.73670 0.17740
 C444 C 0.14891 0.69000 0.14020
 N445 N 0.11639 0.69486 0.13528
 N446 N 0.09877 0.67423 0.11725
 C447 C 0.11294 0.64788 0.10359
 N448 N 0.14545 0.64290 0.10862
 N449 N 0.16316 0.66369 0.12645
 C450 C 0.09304 0.62502 0.08428
 N451 N 0.10452 0.59552 0.07641
 N452 N 0.08551 0.57439 0.06047
 C453 C 0.05448 0.58217 0.05154
 N454 N 0.04326 0.61181 0.05898
 N455 N 0.06214 0.63281 0.07509
 C456 C 0.30332 1.17171 0.85280
 N457 N 0.28004 1.18786 0.87033
 N458 N 0.25335 1.19856 0.85532
 C459 C 0.24842 1.19335 0.82213
 N460 N 0.27211 1.17734 0.80461
 N461 N 0.29901 1.16680 0.81960
 C462 C 0.33126 1.15770 0.87018
 N463 N 0.35711 1.14514 0.85298
 N464 N 0.38110 1.13032 0.86894
 C465 C 0.37995 1.12735 0.90263
 N466 N 0.35426 1.14017 0.91979
 N467 N 0.33048 1.15524 0.90389
 C468 C 0.40393 1.10760 0.91987
 N469 N 0.39609 1.09502 0.94992
 N470 N 0.41578 1.07400 0.96404
 C471 C 0.44432 1.06519 0.94892
 N472 N 0.45263 1.07835 0.91925
 N473 N 0.43269 1.09909 0.90489
 C474 C 0.31174 0.80857 1.16730
 N475 N 0.29001 0.79111 1.14921
 N476 N 0.26159 0.78179 1.16268
 C477 C 0.25344 0.78966 1.19477
 N478 N 0.27579 0.80662 1.21293
 N479 N 0.30426 0.81592 1.19950
 C480 C 0.34118 0.82204 1.15134
 N481 N 0.36182 0.84123 1.16895
 N482 N 0.38631 0.85653 1.15370
 C483 C 0.39106 0.85322 1.12028
 N484 N 0.37083 0.83351 1.10276
 N485 N 0.34636 0.81817 1.11803
 C486 C 0.41490 0.87362 1.10297
 N487 N 0.41681 0.87350 1.06913
 N488 N 0.43515 0.89503 1.05331
 C489 C 0.45221 0.91744 1.07081
 N490 N 0.45087 0.91709 1.10463
 N491 N 0.43257 0.89558 1.12041
 C492 C 0.69998 1.18966 1.18484
 N493 N 0.71002 1.21903 1.17543
 N494 N 0.73726 1.23195 1.18807
 C495 C 0.75605 1.21602 1.21027
 N496 N 0.74536 1.18667 1.21974
 N497 N 0.71796 1.17386 1.20748
 C498 C 0.67187 1.17388 1.16891
 N499 N 0.65876 1.14716 1.18234
 N500 N 0.63559 1.13073 1.16632
 C501 C 0.62485 1.14022 1.13611
 N502 N 0.63765 1.16719 1.12280
 N503 N 0.66065 1.18382 1.13901
 C504 C 0.60248 1.11963 1.11696
 N505 N 0.59848 1.12363 1.08368
 N506 N 0.58154 1.10236 1.06567
 C507 C 0.56789 1.07648 1.08039
 N508 N 0.57127 1.07294 1.11376
 N509 N 0.58832 1.09405 1.13169
 C510 C 0.71899 0.82059 0.84768
 N511 N 0.71046 0.79627 0.82676
 N512 N 0.73288 0.78273 0.80677
 C513 C 0.76451 0.79326 0.80676
 N514 N 0.77302 0.81745 0.82778
 N515 N 0.75069 0.83083 0.84787
 C516 C 0.69441 0.83652 0.86901
 N517 N 0.70412 0.85868 0.89183
 N518 N 0.68207 0.87467 0.91001
 C519 C 0.64943 0.86919 0.90604
 N520 N 0.63964 0.84679 0.88343
 N521 N 0.66176 0.83064 0.86530
 C522 C 0.62555 0.88925 0.92408
 N523 N 0.59290 0.88763 0.91731
 N524 N 0.57204 0.90838 0.93131
 C525 C 0.58315 0.93139 0.95259
 N526 N 0.61564 0.93252 0.95979
 N527 N 0.63642 0.91185 0.94585
   
