data_POSCAR
  _audit_creation_date              2014-09-24
  _audit_creation_method            'ToBaCCo'
  _symmetry_space_group_name_H-M    'P1'
  _symmetry_Int_Tables_number       1
  _symmetry_cell_setting            triclinic
  loop_
  _symmetry_equiv_pos_as_xyz
 x,y,z
_cell_length_a 30.4866
_cell_length_b 30.2706
_cell_length_c 28.7583
_cell_angle_alpha 83.901100
_cell_angle_beta 94.591900
_cell_angle_gamma 94.341800
loop_
  _atom_site_label
  _atom_site_type_symbol
  _atom_site_fract_x
  _atom_site_fract_y
  _atom_site_fract_z
C1 C 0.20945 0.19491 0.21174
 C2 C 0.21954 0.23835 0.19115
 C3 C 0.26131 0.24997 0.17658
 C4 C 0.29330 0.21886 0.18171
 C5 C 0.28309 0.17537 0.19924
 C6 C 0.24054 0.16329 0.21446
 C7 C 0.17212 0.17444 0.23097
 N8 N 0.17935 0.13102 0.24450
 C9 C 0.22078 0.12383 0.23358
 C10 C 0.32012 0.15222 0.19572
 N11 N 0.35217 0.18122 0.17722
 C12 C 0.33574 0.22195 0.16878
 C13 C 0.26084 0.29151 0.15256
 N14 N 0.21949 0.30536 0.15098
 C15 C 0.19402 0.27349 0.17527
 H16 H 0.14202 0.19011 0.23483
 H17 H 0.23649 0.09272 0.24093
 H18 H 0.32345 0.11710 0.20595
 H19 H 0.35237 0.25153 0.15194
 H20 H 0.28792 0.30887 0.13453
 H21 H 0.15873 0.27385 0.17724
 C22 C -0.11402 0.80840 0.20067
 C23 C -0.10606 0.78970 0.16019
 C24 C -0.12998 0.80158 0.11885
 C25 C -0.16239 0.83210 0.11753
 C26 C -0.17079 0.85095 0.15752
 C27 C -0.14550 0.83932 0.19997
 C28 C -0.09814 0.79856 0.24589
 N29 N -0.11770 0.82348 0.27370
 C30 C -0.14676 0.84877 0.24605
 C31 C -0.20898 0.87346 0.14619
 N32 N -0.22359 0.86774 0.10086
 C33 C -0.19461 0.84302 0.08345
 C34 C -0.12109 0.77282 0.08747
 N35 N -0.09251 0.74353 0.10906
 C36 C -0.08262 0.75404 0.15354
 H37 H -0.07357 0.77499 0.25725
 H38 H -0.16828 0.87104 0.25863
 H39 H -0.22632 0.88981 0.17021
 H40 H -0.19779 0.83090 0.04925
 H41 H -0.13760 0.77095 0.05296
 H42 H -0.06296 0.73490 0.18032
 C43 C -0.16497 0.18991 -0.24223
 C44 C -0.16814 0.21012 -0.20057
 C45 C -0.20730 0.20444 -0.17878
 C46 C -0.24369 0.18019 -0.19845
 C47 C -0.24120 0.16218 -0.24020
 C48 C -0.20159 0.16690 -0.26229
 C49 C -0.12985 0.18273 -0.26714
 N50 N -0.14413 0.15627 -0.30168
 C51 C -0.18836 0.14711 -0.29935
 C52 C -0.28009 0.13713 -0.24851
 N53 N -0.30575 0.13897 -0.21234
 C54 C -0.28374 0.16568 -0.18179
 C55 C -0.20121 0.22474 -0.13810
 N56 N -0.15967 0.24395 -0.13475
 C57 C -0.13882 0.23516 -0.17261
 H58 H -0.09595 0.19457 -0.25954
 H59 H -0.20887 0.12480 -0.32044
 H60 H -0.28815 0.11783 -0.27796
 H61 H -0.29461 0.17210 -0.14837
 H62 H -0.22571 0.22640 -0.11320
 H63 H -0.10503 0.24611 -0.17922
 C64 C 0.07837 0.89816 -0.13287
 C65 C 0.06763 0.85656 -0.10885
 C66 C 0.09536 0.83946 -0.07186
 C67 C 0.13364 0.86488 -0.05742
 C68 C 0.14359 0.90644 -0.08081
 C69 C 0.11597 0.92314 -0.11881
 C70 C 0.06577 0.91464 -0.17792
 N71 N 0.09526 0.94838 -0.19199
 C72 C 0.12516 0.95484 -0.15535
 C73 C 0.18645 0.91919 -0.06728
 N74 N 0.20307 0.88678 -0.03605
 C75 C 0.17080 0.85360 -0.02934
 C76 C 0.08240 0.79473 -0.06322
 N77 N 0.04750 0.78488 -0.09378
 C78 C 0.03828 0.82251 -0.12151
 H79 H 0.04034 0.89918 -0.20050
 H80 H 0.15520 0.97624 -0.15717
 H81 H 0.20490 0.94876 -0.08170
 H82 H 0.17507 0.82177 -0.00914
 H83 H 0.09892 0.77070 -0.03861
 H84 H 0.01439 0.82424 -0.15147
 C85 C 0.13934 1.14761 0.80435
 C86 C 0.17631 1.15797 0.83476
 C87 C 0.17366 1.18862 0.86705
 C88 C 0.13419 1.20881 0.87013
 C89 C 0.09730 1.19562 0.84292
 C90 C 0.09999 1.16569 0.80965
 C91 C 0.13469 1.12969 0.76157
 N92 N 0.09410 1.13850 0.74066
 C93 C 0.07231 1.15840 0.77117
 C94 C 0.06483 1.22282 0.84886
 N95 N 0.08105 1.25366 0.87788
 C96 C 0.12374 1.24538 0.89140
 C97 C 0.21435 1.19346 0.89049
 N98 N 0.24152 1.16608 0.87419
 C99 C 0.21890 1.14479 0.83949
 H100 H 0.16094 1.11723 0.74446
 H101 H 0.03999 1.17112 0.76427
 H102 H 0.03289 1.22241 0.82957
 H103 H 0.14614 1.26563 0.91285
 H104 H 0.22296 1.21420 0.91871
 H105 H 0.23218 1.12102 0.81973
 C106 C 0.77566 0.83666 0.79186
 C107 C 0.73344 0.83312 0.80844
 C108 C 0.72192 0.79920 0.84254
 C109 C 0.75213 0.76737 0.85931
 C110 C 0.79356 0.77070 0.84257
 C111 C 0.80576 0.80628 0.80992
 C112 C 0.79678 0.86727 0.76053
 N113 N 0.83940 0.85690 0.76093
 C114 C 0.84502 0.81963 0.79103
 C115 C 0.81517 0.73435 0.86259
 N116 N 0.78797 0.70896 0.89152
 C117 C 0.74954 0.72941 0.89032
 C118 C 0.68007 0.80583 0.85395
 N119 N 0.66619 0.84272 0.82756
 C120 C 0.69843 0.85948 0.79951
 H121 H 0.78291 0.89613 0.74092
 H122 H 0.87534 0.80295 0.79862
 H123 H 0.84805 0.72679 0.85581
 H124 H 0.72109 0.71696 0.90915
 H125 H 0.66140 0.78588 0.88006
 H126 H 0.69730 0.88981 0.77593
 C127 C 0.18854 0.84706 1.24001
 C128 C 0.22668 0.85727 1.21579
 C129 C 0.23302 0.83504 1.17757
 C130 C 0.20135 0.80251 1.16291
 C131 C 0.16387 0.79202 1.18698
 C132 C 0.15752 0.81448 1.22591
 C133 C 0.17419 0.86259 1.27903
 N134 N 0.13534 0.83992 1.28923
 C135 C 0.12499 0.81045 1.25678
 C136 C 0.13963 0.75850 1.16553
 N137 N 0.16159 0.74889 1.12899
 C138 C 0.19937 0.77552 1.12724
 C139 C 0.27347 0.85012 1.16219
 N140 N 0.29200 0.88080 1.19034
 C141 C 0.26348 0.88563 1.22308
 H142 H 0.19129 0.88803 1.29875
 H143 H 0.09607 0.78748 1.25548
 H144 H 0.10819 0.74270 1.17537
 H145 H 0.22403 0.77475 1.10235
 H146 H 0.28855 0.83890 1.13311
 H147 H 0.26936 0.90730 1.25083
 C148 C 0.89543 1.07336 1.12590
 C149 C 0.86468 1.09138 1.09168
 C150 C 0.87562 1.13069 1.06473
 C151 C 0.91705 1.15315 1.07253
 C152 C 0.94782 1.13493 1.10577
 C153 C 0.93747 1.09381 1.13127
 C154 C 0.89067 1.04174 1.16367
 N155 N 0.92954 1.04101 1.19020
 C156 C 0.95844 1.07235 1.17037
 C157 C 0.97879 1.16879 1.11604
 N158 N 0.96726 1.20691 1.09029
 C159 C 0.93031 1.19733 1.06262
 C160 C 0.83785 1.14324 1.03884
 N161 N 0.80455 1.11223 1.04898
 C162 C 0.82059 1.08050 1.08143
 H163 H 0.86044 1.02276 1.17275
 H164 H 0.99049 1.08255 1.18632
 H165 H 1.00371 1.16717 1.14511
 H166 H 0.91133 1.22179 1.04121
 H167 H 0.83460 1.17364 1.01580
 H168 H 0.80146 1.05195 1.09697
 N169 N 0.43267 0.92497 0.99008
 N170 N 0.39911 0.90008 1.00702
 N171 N 0.49901 0.94876 0.91529
 N172 N 0.51606 0.94186 0.87625
 N173 N 0.51348 0.92099 0.95036
 N174 N 0.54084 0.89430 0.93598
 N175 N 0.41896 0.95441 0.95612
 N176 N 0.37548 0.95024 0.94920
 C177 C 0.36376 0.91603 0.98126
 C178 C 0.54172 0.90765 0.88956
 N179 N 0.52729 1.07551 0.92042
 N180 N 0.56043 1.09650 0.89879
 N181 N 0.42793 1.05098 0.93550
 N182 N 0.38842 1.06154 0.91692
 N183 N 0.44698 1.08342 0.95840
 N184 N 0.42115 1.11647 0.95649
 N185 N 0.50872 1.04353 0.89651
 N186 N 0.52918 1.04181 0.85792
 Mn187 Mn 0.46306 0.99933 0.92539
 C188 C 0.56099 1.07546 0.85979
 C189 C 0.38471 1.10242 0.93099
 N190 N 0.55931 0.92784 1.04193
 N191 N 0.59009 0.90109 1.03593
 N192 N 0.49305 0.96513 1.10373
 N193 N 0.46907 0.96775 1.13953
 N194 N 0.47796 0.93149 1.08032
 N195 N 0.44363 0.91033 1.09969
 N196 N 0.57546 0.95954 1.06751
 N197 N 0.61775 0.95494 1.07993
 Mn198 Mn 0.49613 0.92579 1.01568
 C199 C 0.62617 0.91811 1.06019
 C200 C 0.43883 0.93283 1.13678
 N201 N 0.49169 1.08999 1.04892
 N202 N 0.46949 1.12185 1.06149
 N203 N 0.58388 1.05463 1.04812
 N204 N 0.62705 1.05765 1.05771
 N205 N 0.57279 1.08234 1.01152
 N206 N 0.60797 1.10520 0.99546
 N207 N 0.50141 1.06112 1.08498
 N208 N 0.48555 1.07255 1.12326
 Mn209 Mn 0.50987 1.08315 0.98465
 Mn210 Mn 0.53855 1.01015 1.07682
 Cl211 Cl 0.50190 1.00462 1.00061
 C212 C 0.46544 1.11037 1.10768
 C213 C 0.64148 1.08954 1.02472
 N214 N 0.07443 0.46114 0.06718
 N215 N 0.09822 0.43314 0.09500
 N216 N 0.07649 0.55771 0.02198
 N217 N 0.10003 0.59591 0.01600
 N218 N 0.06082 0.55233 0.06358
 N219 N 0.07363 0.58683 0.08721
 N220 N 0.08894 0.46694 0.02507
 N221 N 0.12367 0.44375 0.02334
 C222 C 0.12853 0.42244 0.06704
 C223 C 0.09781 0.61377 0.05672
 N224 N -0.00386 0.55367 -0.08898
 N225 N -0.01842 0.59250 -0.10628
 N226 N 0.04849 0.46558 -0.06932
 N227 N 0.06888 0.42881 -0.07233
 N228 N 0.00868 0.46270 -0.09051
 N229 N 0.00167 0.42479 -0.10911
 N230 N 0.03711 0.55874 -0.07128
 N231 N 0.05112 0.60120 -0.07606
 Mn232 Mn 0.06319 0.51201 -0.02389
 C233 C 0.01653 0.62168 -0.09860
 C234 C 0.03918 0.40415 -0.09821
 N235 N -0.02530 0.53022 0.09897
 N236 N -0.02152 0.57200 0.10938
 N237 N -0.04916 0.42899 0.08220
 N238 N -0.05825 0.38551 0.08463
 N239 N -0.00974 0.43808 0.10251
 N240 N 0.00839 0.40083 0.11925
 N241 N -0.06561 0.52012 0.08143
 N242 N -0.08962 0.55471 0.08024
 Mn243 Mn 0.02493 0.49566 0.08376
 C244 C -0.06229 0.58645 0.09841
 C245 C -0.02241 0.36845 0.10851
 N246 N -0.07590 0.43914 -0.05490
 N247 N -0.08463 0.40463 -0.07951
 N248 N -0.10557 0.51952 -0.01238
 N249 N -0.13834 0.54443 -0.00713
 N250 N -0.08959 0.53044 -0.05332
 N251 N -0.11041 0.56356 -0.07680
 N252 N -0.08925 0.42965 -0.01244
 N253 N -0.10765 0.38865 -0.00724
 Mn254 Mn -0.04024 0.49692 -0.07255
 Mn255 Mn -0.07770 0.47417 0.03527
 Cl256 Cl -0.00752 0.49474 0.00562
 C257 C -0.10441 0.37347 -0.04936
 C258 C -0.14074 0.57177 -0.04741
 N259 N 1.07410 0.03591 0.43395
 N260 N 1.10073 0.03383 0.40072
 N261 N 1.04436 0.08924 0.51118
 N262 N 1.04257 0.11982 0.53998
 N263 N 1.07674 0.06344 0.52536
 N264 N 1.09693 0.07588 0.56497
 N265 N 1.04298 0.06320 0.41995
 N266 N 1.04864 0.08112 0.37638
 C267 C 1.08483 0.06201 0.36497
 C268 C 1.07560 0.11164 0.57311
 N269 N 0.91839 0.04479 0.51889
 N270 N 0.89534 0.05332 0.55357
 N271 N 0.94725 0.05136 0.41767
 N272 N 0.95142 0.05685 0.37224
 N273 N 0.91891 0.01729 0.42812
 N274 N 0.90426 -0.00107 0.38953
 N275 N 0.94834 0.07735 0.50921
 N276 N 0.94667 0.10839 0.53786
 Mn277 Mn 0.99553 0.07086 0.46438
 C278 C 0.91283 0.09349 0.56459
 C279 C 0.92396 0.02475 0.35485
 N280 N 1.08268 -0.02743 0.56346
 N281 N 1.10544 -0.01308 0.60049
 N282 N 1.05010 -0.08786 0.48572
 N283 N 1.04971 -0.12077 0.45919
 N284 N 1.07875 -0.05536 0.47218
 N285 N 1.09853 -0.06556 0.43573
 N286 N 1.05311 -0.05925 0.57623
 N287 N 1.05482 -0.06700 0.62236
 Mn288 Mn 1.07857 0.00417 0.49863
 C289 C 1.08797 -0.03828 0.63682
 C290 C 1.08033 -0.10685 0.42863
 N291 N 0.92380 -0.07324 0.46896
 N292 N 0.89907 -0.09004 0.43435
 N293 N 0.95913 -0.07025 0.57328
 N294 N 0.95815 -0.08693 0.61717
 N295 N 0.92535 -0.04612 0.56041
 N296 N 0.90002 -0.04629 0.59600
 N297 N 0.95585 -0.09892 0.48391
 N298 N 0.95343 -0.13414 0.46042
 Mn299 Mn 0.92095 -0.01424 0.49402
 Mn300 Mn 1.00466 -0.07936 0.53000
 Cl301 Cl 0.99994 -0.00445 0.49674
 C302 C 0.91783 -0.12826 0.42986
 C303 C 0.92149 -0.07191 0.63118
 N304 N 1.12871 0.03676 0.30608
 N305 N 1.15754 0.05645 0.27356
 C306 C 1.15150 0.10034 0.26767
 C307 C 1.11813 0.10953 0.29531
 C308 C 1.10587 0.06882 0.32003
 H309 H 1.10900 0.14205 0.30185
 H310 H 1.12917 0.00374 0.32091
 H311 H 1.18125 0.03972 0.25948
 N312 N 0.92537 -0.19511 0.39064
 N313 N 0.91637 -0.20822 0.34587
 C314 C 0.89187 -0.17746 0.32083
 C315 C 0.88389 -0.14462 0.34895
 C316 C 0.90646 -0.15661 0.39198
 H317 H 0.86846 -0.11377 0.33809
 H318 H 0.94677 -0.21048 0.41653
 H319 H 0.92858 -0.23621 0.33452
 N320 N 0.94178 0.12229 0.63841
 N321 N 0.92648 0.14128 0.67530
 C322 C 0.88197 0.13990 0.66890
 C323 C 0.86809 0.11959 0.62812
 C324 C 0.90704 0.11103 0.60928
 H325 H 0.83448 0.11308 0.61367
 H326 H 0.97408 0.11369 0.63660
 H327 H 0.94672 0.15260 0.70327
 N328 N 1.13058 -0.00054 0.70040
 N329 N 1.13152 -0.00336 0.74919
 C330 C 1.09998 -0.03474 0.76275
 C331 C 1.07814 -0.05189 0.72365
 C332 C 1.09872 -0.03022 0.68577
 H333 H 1.05253 -0.07857 0.72260
 H334 H 1.15212 0.01992 0.67974
 H335 H 1.15393 0.01491 0.77030
 N336 N 0.45768 1.18301 1.13555
 N337 N 0.42455 1.20366 1.15375
 C338 C 0.39281 1.17193 1.16571
 C339 C 0.40534 1.13047 1.15674
 C340 C 0.44581 1.13919 1.13703
 H341 H 0.38510 1.09948 1.15798
 H342 H 0.48429 1.19978 1.11898
 H343 H 0.42447 1.23795 1.15524
 N344 N 0.30752 0.86231 1.01797
 N345 N 0.26183 0.85394 1.01292
 C346 C 0.24604 0.88568 0.98083
 C347 C 0.28057 0.91467 0.96502
 C348 C 0.31830 0.89850 0.98852
 H349 H 0.27900 0.94258 0.93830
 H350 H 0.32907 0.84268 1.03974
 H351 H 0.24420 0.82737 1.03074
 N352 N 0.68083 0.87957 1.02414
 N353 N 0.72342 0.86635 1.03490
 C354 C 0.73750 0.87942 1.07740
 C355 C 0.70477 0.90223 1.09405
 C356 C 0.66989 0.90111 1.05957
 H357 H 0.70526 0.91599 1.12732
 H358 H 0.66114 0.87302 0.99388
 H359 H 0.73939 0.84777 1.01370
 N360 N 0.59740 1.06713 0.78657
 N361 N 0.63538 1.08596 0.76598
 C362 C 0.65487 1.11570 0.79431
 C363 C 0.63018 1.11694 0.83243
 C364 C 0.59484 1.08630 0.82633
 H365 H 0.63728 1.13662 0.86174
 H366 H 0.57595 1.04203 0.77358
 H367 H 0.64642 1.07697 0.73510
 N368 N 0.20100 0.39239 0.06074
 N369 N 0.22564 0.36213 0.08383
 C370 C 0.20430 0.34282 0.12082
 C371 C 0.16438 0.36164 0.12167
 C372 C 0.16379 0.39298 0.08283
 H373 H 0.13910 0.35314 0.14609
 H374 H 0.20961 0.41210 0.03035
 H375 H 0.25581 0.35414 0.07328
 N376 N -0.14299 0.29891 -0.03164
 N377 N -0.15701 0.26415 -0.05420
 C378 C -0.14299 0.27056 -0.09786
 C379 C -0.11922 0.31143 -0.10360
 C380 C -0.12041 0.32849 -0.06071
 H381 H -0.10640 0.32798 -0.13538
 H382 H -0.15061 0.30304 0.00237
 H383 H -0.17742 0.23749 -0.04050
 N384 N -0.02007 0.69122 -0.12714
 N385 N -0.01227 0.73449 -0.12470
 C386 C 0.02712 0.74151 -0.10086
 C387 C 0.04546 0.70119 -0.08769
 C388 C 0.01436 0.67019 -0.10525
 H389 H 0.07680 0.69516 -0.06850
 H390 H -0.04852 0.67653 -0.14346
 H391 H -0.03384 0.75844 -0.13884
 N392 N -0.09151 0.64936 0.04683
 N393 N -0.09857 0.69153 0.04880
 C394 C -0.08263 0.70318 0.09113
 C395 C -0.06382 0.66702 0.11710
 C396 C -0.07092 0.63349 0.08767
 H397 H -0.05041 0.66430 0.15318
 H398 H -0.10165 0.63158 0.01827
 H399 H -0.11581 0.71082 0.02223
 N400 N 1.04625 0.15858 0.62565
 N401 N 1.04788 0.16247 0.67335
 C402 C 1.08075 0.13830 0.69422
 C403 C 1.10016 0.11763 0.66054
 C404 C 1.07665 0.13068 0.61814
 H405 H 1.12623 0.09488 0.66644
 H406 H 1.02264 0.17241 0.60112
 H407 H 1.02713 0.18187 0.68843
 N408 N 0.93806 -0.10168 0.71260
 N409 N 0.91494 -0.12445 0.74845
 C410 C 0.87179 -0.12009 0.73669
 C411 C 0.86615 -0.09396 0.69380
 C412 C 0.90867 -0.08458 0.67924
 H413 H 0.83547 -0.08813 0.67318
 H414 H 0.97190 -0.10300 0.71001
 H415 H 0.92937 -0.14273 0.77779
 N416 N 1.05933 -0.16567 0.37603
 N417 N 1.07435 -0.18037 0.33628
 C418 C 1.11116 -0.15490 0.32587
 C419 C 1.12028 -0.12347 0.35808
 C420 C 1.08701 -0.13150 0.38875
 H421 H 1.14723 -0.09814 0.35919
 H422 H 1.03085 -0.17869 0.39191
 H423 H 1.05924 -0.20677 0.31903
 N424 N 0.97400 0.00255 0.30118
 N425 N 0.97685 0.01026 0.25297
 C426 C 0.93648 0.01966 0.23376
 C427 C 0.90717 0.01808 0.26868
 C428 C 0.93242 0.00892 0.31044
 H429 H 0.87496 0.03140 0.26497
 H430 H 1.00129 0.00082 0.32560
 H431 H 1.00631 0.01348 0.23633
 N432 N 0.00375 0.33337 -0.11968
 N433 N 0.01479 0.29077 -0.12521
 C434 C 0.05838 0.28887 -0.11387
 C435 C 0.07607 0.32978 -0.09954
 C436 C 0.04050 0.35684 -0.10493
 H437 H 0.11020 0.33961 -0.09002
 H438 H -0.02772 0.34479 -0.12724
 H439 H -0.00768 0.26589 -0.13688
 N440 N 0.02399 0.30390 0.13060
 N441 N 0.02187 0.26106 0.12433
 C442 C -0.01671 0.25100 0.10023
 C443 C -0.04036 0.28859 0.09121
 C444 C -0.01348 0.32129 0.11128
 H445 H -0.07270 0.29170 0.07323
 H446 H 0.05076 0.32075 0.14757
 H447 H 0.04643 0.23954 0.13632
 N448 N -0.20821 0.60854 -0.03412
 N449 N -0.22857 0.64722 -0.05177
 C450 C -0.20289 0.66923 -0.08394
 C451 C -0.16639 0.64523 -0.08803
 C452 C -0.17125 0.60752 -0.05653
 H453 H -0.13969 0.65377 -0.11067
 H454 H -0.22038 0.58470 -0.00852
 H455 H -0.25768 0.65696 -0.04038
 N456 N 0.14578 0.68124 0.03525
 N457 N 0.16286 0.71705 0.05429
 C458 C 0.14789 0.71628 0.09716
 C459 C 0.12004 0.67844 0.10613
 C460 C 0.12002 0.65699 0.06584
 H461 H 0.10358 0.66744 0.13772
 H462 H 0.15230 0.67333 0.00211
 H463 H 0.18441 0.74124 0.03805
 N464 N 0.34635 1.17029 0.93595
 N465 N 0.30901 1.18773 0.92051
 C466 C 0.28571 1.15952 0.89325
 C467 C 0.30912 1.12217 0.89116
 C468 C 0.34749 1.13054 0.91917
 H469 H 0.29916 1.09294 0.87327
 H470 H 0.37048 1.18528 0.95816
 H471 H 0.29979 1.21820 0.92913
 N472 N 0.39185 0.94869 1.19936
 N473 N 0.35216 0.93529 1.21300
 C474 C 0.33514 0.90282 1.18687
 C475 C 0.36498 0.89504 1.15548
 C476 C 0.40040 0.92486 1.16457
 H477 H 0.36111 0.87213 1.12877
 H478 H 0.41217 0.97428 1.21297
 H479 H 0.33703 0.94898 1.23890
 N480 N 0.70241 1.13613 0.98725
 N481 N 0.74578 1.14204 0.99359
 C482 C 0.75951 1.11406 1.03054
 C483 C 0.72360 1.08901 1.04847
 C484 C 0.68800 1.10439 1.02008
 H485 H 0.72314 1.06392 1.07823
 H486 H 0.68315 1.15383 0.96105
 H487 H 0.76529 1.16471 0.97282
 N488 N 0.57425 0.90831 0.81320
 N489 N 0.60765 0.89127 0.79670
 C490 C 0.62577 0.86289 0.83082
 C491 C 0.60310 0.86158 0.87086
 C492 C 0.57089 0.89133 0.85815
 H493 H 0.61110 0.84453 0.90517
 H494 H 0.55536 0.93265 0.79454
 H495 H 0.61859 0.90010 0.76325
   
