data_POSCAR
  _audit_creation_date              2014-09-24
  _audit_creation_method            'ToBaCCo'
  _symmetry_space_group_name_H-M    'P1'
  _symmetry_Int_Tables_number       1
  _symmetry_cell_setting            triclinic
  loop_
  _symmetry_equiv_pos_as_xyz
 x,y,z
_cell_length_a 42.7617
_cell_length_b 42.8003
_cell_length_c 12.0149
_cell_angle_alpha 90.110200
_cell_angle_beta 89.995200
_cell_angle_gamma 119.841500
loop_
  _atom_site_label
  _atom_site_type_symbol
  _atom_site_fract_x
  _atom_site_fract_y
  _atom_site_fract_z
C1 C 0.21823 0.49403 0.44208
 C2 C 0.21795 0.49330 0.55979
 C3 C 0.24652 0.49347 0.61781
 C4 C 0.27539 0.49431 0.56008
 C5 C 0.27560 0.49499 0.44274
 C6 C 0.24714 0.49486 0.38463
 H7 H 0.24756 0.49538 0.29430
 H8 H 0.24628 0.49293 0.70819
 C9 C 0.50401 -0.27637 0.43902
 C10 C 0.50412 -0.27621 0.55647
 C11 C 0.50422 -0.24776 0.61483
 C12 C 0.50422 -0.21932 0.55730
 C13 C 0.50405 -0.21952 0.43987
 C14 C 0.50394 -0.24796 0.38152
 H15 H 0.50387 -0.24788 0.29118
 H16 H 0.50435 -0.24780 0.70517
 C17 C 1.27617 0.78207 0.43525
 C18 C 1.27609 0.78185 0.55266
 C19 C 1.24758 0.75365 0.61047
 C20 C 1.21899 0.72554 0.55256
 C21 C 1.21902 0.72576 0.43523
 C22 C 1.24754 0.75395 0.37731
 H23 H 1.24738 0.75392 0.28697
 H24 H 1.24766 0.75361 0.70076
 C25 C 0.78149 0.50573 0.44499
 C26 C 0.78152 0.50560 0.56238
 C27 C 0.75327 0.50595 0.62068
 C28 C 0.72499 0.50644 0.56305
 C29 C 0.72505 0.50660 0.44553
 C30 C 0.75327 0.50622 0.38750
 H31 H 0.75329 0.50633 0.29719
 H32 H 0.75331 0.50584 0.71107
 C33 C 0.49180 0.27447 0.44650
 C34 C 0.49157 0.27432 0.56398
 C35 C 0.49155 0.24584 0.62158
 C36 C 0.49174 0.21750 0.56346
 C37 C 0.49192 0.21768 0.44599
 C38 C 0.49195 0.24614 0.38853
 H39 H 0.49213 0.24624 0.29822
 H40 H 0.49142 0.24575 0.71199
 C41 C 0.72564 0.21900 0.44177
 C42 C 0.72572 0.21897 0.55910
 C43 C 0.75391 0.24747 0.61730
 C44 C 0.78206 0.27606 0.55966
 C45 C 0.78195 0.27612 0.44225
 C46 C 0.75377 0.24760 0.38413
 H47 H 0.75373 0.24766 0.29384
 H48 H 0.75388 0.24732 0.70765
 O49 O 0.95061 0.42154 0.20381
 O50 O 0.91049 0.42895 0.09552
 C51 C 0.91820 0.41313 0.17378
 O52 O 1.05076 0.58236 0.19063
 O53 O 1.09059 0.57239 0.08962
 C54 C 1.08305 0.59018 0.16171
 O55 O 0.95011 0.52958 0.20044
 O56 O 0.91028 0.48137 0.09451
 C57 C 0.91780 0.50530 0.17145
 O58 O 1.05153 0.46936 0.19348
 O59 O 1.09120 0.51857 0.09084
 C60 C 1.08385 0.49374 0.16450
 Zr61 Zr 1.00081 0.46069 0.13686
 O62 O 1.00154 0.45683 0.31225
 O63 O 0.99999 0.41117 0.11889
 Zr64 Zr 1.00045 0.53953 0.13669
 O65 O 1.00398 0.54142 0.31262
 O66 O 0.99645 0.58690 0.13455
 O67 O 0.96857 0.48413 0.15914
 O68 O 1.03195 0.51584 0.15725
 O69 O 1.05065 0.46745 -0.19673
 O70 O 1.09052 0.51748 -0.09712
 C71 C 1.08296 0.49201 -0.16868
 O72 O 0.94963 0.52885 -0.20689
 O73 O 0.91005 0.48101 -0.09968
 C74 C 0.91738 0.50473 -0.17685
 O75 O 1.05059 0.58164 -0.19950
 O76 O 1.09057 0.57200 -0.09832
 C77 C 1.08299 0.58956 -0.17111
 O78 O 0.94989 0.41977 -0.20568
 O79 O 0.91018 0.42838 -0.09929
 C80 C 0.91759 0.41182 -0.17610
 Zr81 Zr 1.00033 0.46021 -0.14298
 O82 O 1.00399 0.46191 -0.31886
 O83 O 0.99707 0.40921 -0.14072
 Zr84 Zr 1.00022 0.53908 -0.14412
 O85 O 1.00382 0.54050 -0.32000
 O86 O 0.99626 0.58647 -0.14288
 Zr87 Zr 0.94644 0.47296 -0.00275
 Zr88 Zr 1.05436 0.52689 -0.00352
 O89 O 1.03161 0.51524 -0.16412
 O90 O 0.96799 0.48351 -0.16519
 O91 O 1.03299 0.47062 -0.00310
 O92 O 0.96890 0.52930 -0.00350
 O93 O 0.96894 0.43900 -0.00244
 O94 O 1.03260 0.56158 -0.00397
 H95 H 1.04822 0.52422 0.22265
 H96 H 0.95265 0.53961 -0.00343
 H97 H 1.04768 0.52311 -0.22993
 H98 H 0.95267 0.41255 -0.00184
 H99 H 1.01682 0.60509 0.08998
 H100 H 1.01704 0.60499 -0.10020
 H101 H 0.98366 0.51764 -0.34862
 H102 H 0.98377 0.46453 -0.34786
 H103 H 1.01565 0.41084 -0.08819
 H104 H 0.99953 0.40237 0.19540
 H105 H 1.00843 0.48085 0.34277
 H106 H 0.98431 0.51824 0.34115
 O107 O 0.42074 0.47163 0.20331
 O108 O 0.42873 0.51934 0.09559
 C109 C 0.41259 0.49578 0.17325
 O110 O 0.58215 0.53197 0.19418
 O111 O 0.57241 0.48216 0.09382
 C112 C 0.59003 0.50743 0.16613
 O113 O 0.52927 0.58017 0.20181
 O114 O 0.48119 0.57182 0.09483
 C115 C 0.50500 0.58827 0.17205
 O116 O 0.46831 0.41832 0.19487
 O117 O 0.51809 0.42793 0.09465
 C118 C 0.49285 0.41040 0.16702
 Zr119 Zr 0.46067 0.46098 0.13944
 O120 O 0.46099 0.45814 0.31530
 O121 O 0.41070 0.41263 0.12780
 Zr122 Zr 0.53947 0.53974 0.13888
 O123 O 0.54164 0.53836 0.31477
 O124 O 0.58684 0.59090 0.13566
 O125 O 0.48395 0.51654 0.16076
 O126 O 0.51576 0.48471 0.16002
 O127 O 0.46768 0.41715 -0.19304
 O128 O 0.51779 0.42739 -0.09329
 C129 C 0.49231 0.40941 -0.16474
 O130 O 0.52904 0.57918 -0.20582
 O131 O 0.48100 0.57123 -0.09934
 C132 C 0.50481 0.58736 -0.17644
 O133 O 0.58211 0.53124 -0.19589
 O134 O 0.57237 0.48180 -0.09420
 C135 C 0.59005 0.50683 -0.16683
 O136 O 0.41981 0.47027 -0.20398
 O137 O 0.42833 0.51875 -0.09875
 C138 C 0.41176 0.49465 -0.17517
 Zr139 Zr 0.46046 0.46042 -0.14080
 O140 O 0.46267 0.45848 -0.31661
 O141 O 0.40956 0.41277 -0.13918
 Zr142 Zr 0.53926 0.53902 -0.14195
 O143 O 0.54081 0.53639 -0.31775
 O144 O 0.58662 0.59018 -0.14172
 Zr145 Zr 0.47294 0.52713 -0.00163
 Zr146 Zr 0.52705 0.47305 -0.00032
 O147 O 0.51555 0.48391 -0.16135
 O148 O 0.48368 0.51585 -0.16365
 O149 O 0.47076 0.43850 -0.00011
 O150 O 0.52933 0.56081 -0.00198
 O151 O 0.43909 0.47084 -0.00077
 O152 O 0.56170 0.52935 -0.00117
 H153 H 0.52376 0.47677 0.22620
 H154 H 0.53960 0.58729 -0.00232
 H155 H 0.52357 0.47560 -0.22674
 H156 H 0.41260 0.46061 -0.00059
 H157 H 0.60535 0.58835 0.09373
 H158 H 0.60489 0.58822 -0.09653
 H159 H 0.51799 0.53379 -0.34674
 H160 H 0.46457 0.48094 -0.34592
 H161 H 0.41055 0.39684 -0.08141
 H162 H 0.40276 0.40491 0.20535
 H163 H 0.46668 0.48202 0.34444
 H164 H 0.51877 0.53559 0.34389
 O165 O 0.52884 -0.05014 0.20322
 O166 O 0.48141 -0.08990 0.09435
 C167 C 0.50489 -0.08240 0.17263
 O168 O 0.46868 0.05069 0.19354
 O169 O 0.51835 0.09054 0.09288
 C170 C 0.49315 0.08300 0.16541
 O171 O 0.42033 -0.05028 0.20086
 O172 O 0.42878 -0.08999 0.09395
 C173 C 0.41230 -0.08258 0.17108
 O174 O 0.58205 0.05033 0.19458
 O175 O 0.57232 0.09013 0.09310
 C176 C 0.58993 0.08264 0.16600
 Zr177 Zr 0.53989 0.00013 0.13702
 O178 O 0.54489 0.00101 0.31226
 O179 O 0.58839 -0.00111 0.11779
 Zr180 Zr 0.46071 0.00016 0.13832
 O181 O 0.46227 0.00338 0.31432
 O182 O 0.40949 -0.00346 0.13630
 O183 O 0.48432 -0.03190 0.15950
 O184 O 0.51585 0.03134 0.15886
 O185 O 0.58242 0.05060 -0.19611
 O186 O 0.57189 0.09033 -0.09643
 C187 C 0.58991 0.08287 -0.16803
 O188 O 0.42066 -0.04989 -0.20646
 O189 O 0.42897 -0.08976 -0.10032
 C190 C 0.41265 -0.08217 -0.17727
 O191 O 0.46853 0.05098 -0.19559
 O192 O 0.51817 0.09067 -0.09409
 C193 C 0.49295 0.08326 -0.16654
 O194 O 0.52967 -0.05026 -0.20670
 O195 O 0.48156 -0.08996 -0.10054
 C196 C 0.50542 -0.08257 -0.17759
 Zr197 Zr 0.53966 0.00017 -0.14283
 O198 O 0.54145 0.00405 -0.31865
 O199 O 0.58740 -0.00320 -0.14096
 Zr200 Zr 0.46073 0.00036 -0.14227
 O201 O 0.46245 0.00437 -0.31804
 O202 O 0.40941 -0.00348 -0.13999
 Zr203 Zr 0.47327 -0.05376 -0.00283
 Zr204 Zr 0.52698 0.05400 -0.00147
 O205 O 0.51578 0.03154 -0.16256
 O206 O 0.48411 -0.03192 -0.16482
 O207 O 0.56193 0.03254 -0.00242
 O208 O 0.43937 -0.03115 -0.00235
 O209 O 0.52963 -0.03150 -0.00298
 O210 O 0.47063 0.03252 -0.00149
 H211 H 0.52387 0.04744 0.22471
 H212 H 0.41288 -0.04730 -0.00254
 H213 H 0.52375 0.04765 -0.22817
 H214 H 0.53977 -0.04787 -0.00291
 H215 H 0.41185 0.01740 0.09394
 H216 H 0.41167 0.01724 -0.09683
 H217 H 0.46586 -0.01532 -0.34754
 H218 H 0.51868 -0.01611 -0.34780
 H219 H 0.60446 0.01553 -0.08907
 H220 H 0.59675 -0.00195 0.19404
 H221 H 0.52592 0.00524 0.34311
 H222 H 0.46515 -0.01675 0.34258
 C223 C 1.19087 0.49396 0.38229
 C224 C 1.16667 0.49390 0.33020
 C225 C 1.13814 0.49383 0.27037
 C226 C 1.11353 0.49377 0.22085
 C227 C 0.50410 0.69620 0.38034
 C228 C 0.50425 0.67169 0.33085
 C229 C 0.50448 0.64270 0.27486
 C230 C 0.50472 0.61787 0.22787
 C231 C 0.30378 -0.19064 0.37709
 C232 C 0.32847 -0.16619 0.32816
 C233 C 0.35767 -0.13720 0.27288
 C234 C 0.38264 -0.11229 0.22643
 C235 C 0.81022 0.50546 0.38234
 C236 C 0.83457 0.50530 0.33230
 C237 C 0.86340 0.50519 0.27553
 C238 C 0.88819 0.50518 0.22786
 C239 C 0.49195 0.30334 0.38369
 C240 C 0.49211 0.32752 0.33183
 C241 C 0.49233 0.35604 0.27224
 C242 C 0.49254 0.38066 0.22297
 C243 C 0.69697 0.18999 0.37932
 C244 C 0.67286 0.16561 0.32829
 C245 C 0.64434 0.13688 0.26994
 C246 C 0.61970 0.11220 0.22154
 C247 C 0.49184 0.19019 -0.37790
 C248 C 0.49199 0.16598 -0.32703
 C249 C 0.49223 0.13744 -0.26895
 C250 C 0.49250 0.11285 -0.22103
 C251 C 0.69776 0.50672 -0.37794
 C252 C 0.67353 0.50692 -0.32708
 C253 C 0.64484 0.50707 -0.26920
 C254 C 0.62003 0.50706 -0.22140
 C255 C 0.80936 0.30353 -0.38185
 C256 C 0.83386 0.32813 -0.33279
 C257 C 0.86291 0.35723 -0.27760
 C258 C 0.88787 0.38218 -0.23129
 C259 C 0.50449 -0.19167 -0.38422
 C260 C 0.50475 -0.16687 -0.33526
 C261 C 0.50506 -0.13750 -0.28003
 C262 C 0.50528 -0.11237 -0.23348
 C263 C 0.30298 0.49440 -0.38160
 C264 C 0.32768 0.49449 -0.33261
 C265 C 0.35693 0.49458 -0.27728
 C266 C 0.38198 0.49463 -0.23075
 C267 C 1.19000 0.69674 -0.38521
 C268 C 1.16572 0.67257 -0.33408
 C269 C 1.13711 0.64401 -0.27538
 C270 C 1.11253 0.61936 -0.22673
 C271 C 0.80884 0.50523 -0.37980
 C272 C 0.83341 0.50497 -0.33152
 C273 C 0.86256 0.50477 -0.27731
 C274 C 0.88760 0.50470 -0.23164
 C275 C 0.49149 0.30157 -0.37683
 C276 C 0.49148 0.32579 -0.32551
 C277 C 0.49159 0.35447 -0.26709
 C278 C 0.49182 0.37932 -0.21905
 C279 C 0.69710 0.19000 -0.37893
 C280 C 0.67298 0.16569 -0.32825
 C281 C 0.64443 0.13705 -0.27042
 C282 C 0.61973 0.11242 -0.22261
 C283 C 1.19034 0.49253 -0.38090
 C284 C 1.16589 0.49197 -0.32966
 C285 C 1.13714 0.49158 -0.27140
 C286 C 1.11245 0.49156 -0.22334
 C287 C 0.50423 0.69499 -0.38186
 C288 C 0.50434 0.67052 -0.33318
 C289 C 0.50451 0.64159 -0.27835
 C290 C 0.50466 0.61678 -0.23204
 C291 C 0.30501 -0.18958 -0.38505
 C292 C 0.32952 -0.16526 -0.33568
 C293 C 0.35846 -0.13645 -0.28000
 C294 C 0.38325 -0.11166 -0.23314
 C295 C 0.50412 -0.19064 0.37818
 C296 C 0.50423 -0.16606 0.32953
 C297 C 0.50442 -0.13696 0.27474
 C298 C 0.50463 -0.11199 0.22840
 C299 C 0.30474 0.49561 0.38069
 C300 C 0.32938 0.49596 0.33139
 C301 C 0.35841 0.49615 0.27575
 C302 C 0.38323 0.49610 0.22894
 C303 C 1.19008 0.69728 0.37287
 C304 C 1.16578 0.67326 0.32185
 C305 C 1.13716 0.64480 0.26383
 C306 C 1.11253 0.62009 0.21602
 C307 C 0.49213 0.18907 0.38264
 C308 C 0.49233 0.16510 0.33045
 C309 C 0.49257 0.13683 0.27067
 C310 C 0.49281 0.11243 0.22133
 C311 C 0.69650 0.50707 0.38267
 C312 C 0.67256 0.50739 0.33078
 C313 C 0.64426 0.50763 0.27124
 C314 C 0.61974 0.50767 0.22201
 C315 C 0.81061 0.30519 0.38047
 C316 C 0.83499 0.32984 0.33171
 C317 C 0.86389 0.35893 0.27664
 C318 C 0.88871 0.38378 0.23001
   
