data_POSCAR
  _audit_creation_date              2014-09-24
  _audit_creation_method            'ToBaCCo'
  _symmetry_space_group_name_H-M    'P1'
  _symmetry_Int_Tables_number       1
  _symmetry_cell_setting            triclinic
  loop_
  _symmetry_equiv_pos_as_xyz
 x,y,z
_cell_length_a 11.9079
_cell_length_b 13.6649
_cell_length_c 27.7942
_cell_angle_alpha 86.947900
_cell_angle_beta 107.509900
_cell_angle_gamma 118.625900
loop_
  _atom_site_label
  _atom_site_type_symbol
  _atom_site_fract_x
  _atom_site_fract_y
  _atom_site_fract_z
C1 C -0.20876 -0.01290 0.44491
 C2 C -0.09545 0.05304 0.48592
 C3 C -0.03893 0.00191 0.52278
 C4 C -0.09103 -0.11422 0.51785
 C5 C -0.20512 -0.18094 0.47673
 C6 C -0.26471 -0.12970 0.44052
 C7 C -0.02163 0.17527 0.48668
 C8 C -0.01208 0.24497 0.52452
 C9 C 0.07779 0.36063 0.53063
 C10 C 0.16085 0.40521 0.49979
 C11 C 0.14781 0.33643 0.46064
 C12 C 0.05526 0.22157 0.45381
 H13 H -0.25085 0.02684 0.41564
 H14 H 0.05300 0.05357 0.55320
 H15 H -0.07158 0.20882 0.54995
 H16 H 0.04948 0.16721 0.42509
 H17 H -0.24367 -0.27073 0.47184
 H18 H 0.23256 0.49402 0.50521
 C19 C 1.22415 -0.18856 0.16237
 C20 C 1.13517 -0.15987 0.17347
 C21 C 1.18781 -0.05959 0.20404
 C22 C 1.32782 0.01173 0.22356
 C23 C 1.41519 -0.01990 0.21370
 C24 C 1.36385 -0.11888 0.18255
 C25 C 0.98738 -0.22917 0.15018
 C26 C 0.90135 -0.26399 0.18035
 C27 C 0.76066 -0.32426 0.15758
 C28 C 0.70691 -0.34554 0.10489
 C29 C 0.79122 -0.31347 0.07463
 C30 C 0.93119 -0.25749 0.09729
 H31 H 1.18486 -0.26393 0.13755
 H32 H 1.11964 -0.03515 0.21119
 H33 H 0.94381 -0.24518 0.22123
 H34 H 0.99586 -0.23329 0.07360
 H35 H 1.52304 0.03587 0.22786
 H36 H 0.59863 -0.39323 0.08749
 C37 C 0.15741 1.12086 0.91338
 C38 C 0.05475 1.08734 0.86639
 C39 C 0.04559 1.01461 0.82971
 C40 C 0.14092 0.97761 0.83935
 C41 C 0.24524 1.01487 0.88525
 C42 C 0.25245 1.08394 0.92266
 C43 C -0.04898 1.12156 0.85625
 C44 C -0.03888 1.21226 0.82839
 C45 C -0.14579 1.23704 0.81350
 C46 C -0.26265 1.16964 0.82687
 C47 C -0.27159 1.07963 0.85531
 C48 C -0.16486 1.05616 0.87003
 H49 H 0.16172 1.17340 0.94250
 H50 H -0.03611 0.98632 0.79416
 H51 H 0.05016 1.26071 0.81689
 H52 H -0.17379 0.98466 0.89081
 H53 H 0.31779 0.98542 0.89278
 H54 H -0.34659 1.18644 0.81467
 O55 O 0.63146 -0.02536 -0.03593
 O56 O 0.64029 -0.08040 0.09647
 O57 O 0.69285 -0.15583 0.02534
 O58 O 0.59171 0.05746 0.03497
 O59 O 0.37879 -0.06983 -0.00120
 O60 O 0.47888 -0.28225 -0.00796
 O61 O 0.42170 -0.19728 0.06803
 O62 O 0.41471 -0.15094 -0.06400
 Cu63 Cu 0.66098 -0.03902 0.03374
 Cu64 Cu 0.40506 -0.19277 -0.00060
 C65 C 0.52145 -0.07709 -0.07228
 C66 C 0.52989 -0.14521 0.10461
 C67 C 0.60294 -0.25389 0.00468
 C68 C 0.46849 0.03122 0.01539
 O69 O 0.10768 0.55377 0.64954
 O70 O 0.12430 0.75553 0.73781
 O71 O 0.09968 0.55325 0.74168
 O72 O 0.14188 0.75107 0.64632
 O73 O -0.07871 0.68168 0.61446
 O74 O -0.12123 0.48313 0.71284
 O75 O -0.09601 0.68672 0.70620
 O76 O -0.11407 0.47967 0.62072
 Cu77 Cu 0.14070 0.66121 0.69774
 Cu78 Cu -0.12484 0.57627 0.66102
 C79 C -0.00640 0.48346 0.61960
 C80 C 0.01717 0.75659 0.73642
 C81 C -0.01701 0.48247 0.74277
 C82 C 0.04006 0.74766 0.61311
 O83 O 0.48846 0.54028 0.23855
 O84 O 0.24276 0.40756 0.30867
 O85 O 0.40722 0.61209 0.29918
 O86 O 0.30231 0.33561 0.24082
 O87 O 0.45817 0.32203 0.30359
 O88 O 0.56634 0.60343 0.36253
 O89 O 0.40490 0.40953 0.37424
 O90 O 0.64732 0.53688 0.30384
 Cu91 Cu 0.34482 0.47490 0.26523
 Cu92 Cu 0.53247 0.46183 0.34110
 C93 C 0.61019 0.56237 0.25960
 C94 C 0.28409 0.38933 0.35417
 C95 C 0.50238 0.65448 0.34066
 C96 C 0.36086 0.28105 0.26223
 N97 N 0.08549 0.43404 0.56768
 N98 N -0.01437 0.40936 0.58307
 N99 N 0.66928 0.62886 0.18655
 N100 N 0.70643 0.61454 0.23303
 N101 N 0.34315 0.10542 -0.03298
 N102 N 0.43113 0.11708 0.00699
 N103 N -0.01777 0.84522 0.54664
 N104 N 0.06302 0.81718 0.57321
 N105 N 0.38187 0.12059 0.24935
 N106 N 0.31399 0.17219 0.23877
 N107 N 0.61838 0.01356 -0.13370
 N108 N 0.51583 -0.05110 -0.12311
 N109 N 0.44651 -0.14027 0.16883
 N110 N 0.52723 -0.15581 0.15566
 N111 N 0.63234 0.81122 0.40083
 N112 N 0.53545 0.76052 0.36262
 N113 N -0.14007 0.32517 0.78209
 N114 N -0.02859 0.39837 0.77664
 N115 N 0.73349 -0.34906 0.02127
 N116 N 0.64219 -0.33039 -0.00843
 N117 N 0.23419 0.38279 0.42985
 N118 N 0.19361 0.34680 0.38323
 N119 N 0.13145 0.89821 0.80465
 N120 N 0.02302 0.83637 0.76957
   
