data_POSCAR
  _audit_creation_date              2014-09-24
  _audit_creation_method            'ToBaCCo'
  _symmetry_space_group_name_H-M    'P1'
  _symmetry_Int_Tables_number       1
  _symmetry_cell_setting            triclinic
  loop_
  _symmetry_equiv_pos_as_xyz
 x,y,z
_cell_length_a 37.0360
_cell_length_b 37.1147
_cell_length_c 37.0917
_cell_angle_alpha 89.996900
_cell_angle_beta 90.037300
_cell_angle_gamma 89.883200
loop_
  _atom_site_label
  _atom_site_type_symbol
  _atom_site_fract_x
  _atom_site_fract_y
  _atom_site_fract_z
C1 C 0.24963 0.99870 -0.02100
 C2 C 0.25151 0.99842 0.01556
 C3 C 0.25192 1.03203 0.03721
 C4 C 0.25258 0.96473 0.03687
 C5 C 0.24758 0.96516 -0.04282
 C6 C 0.24992 1.03290 -0.04164
 C7 C 0.28077 1.05646 0.03516
 C8 C 0.28245 1.08580 0.05888
 C9 C 0.25532 1.09079 0.08486
 C10 C 0.22619 1.06684 0.08637
 C11 C 0.22458 1.03763 0.06279
 C12 C 0.28146 0.95921 0.06078
 C13 C 0.28051 0.93107 0.08563
 C14 C 0.25058 0.90823 0.08702
 C15 C 0.22212 0.91280 0.06248
 C16 C 0.22308 0.94102 0.03744
 C17 C 0.21942 0.96132 -0.06791
 C18 C 0.21871 0.93201 -0.09149
 C19 C 0.24625 0.90617 -0.09049
 C20 C 0.27418 0.90943 -0.06515
 C21 C 0.27490 0.93884 -0.04143
 C22 C 0.22246 1.05877 -0.03748
 C23 C 0.22235 1.08989 -0.05881
 C24 C 0.24959 1.09525 -0.08444
 C25 C 0.27708 1.06967 -0.08842
 C26 C 0.27720 1.03863 -0.06722
 H27 H 0.30240 1.05219 0.01599
 H28 H 0.30524 1.10401 0.05741
 H29 H 0.20499 1.07022 0.10627
 H30 H 0.20228 1.01890 0.06492
 H31 H 0.30423 0.97749 0.06094
 H32 H 0.30265 0.92776 0.10447
 H33 H 0.20026 0.94534 0.01968
 H34 H 0.19827 0.98145 -0.06963
 H35 H 0.19702 0.92988 -0.11099
 H36 H 0.29575 0.88970 -0.06425
 H37 H 0.29726 0.94165 -0.02283
 H38 H 0.20085 1.05448 -0.01831
 H39 H 0.20075 1.10938 -0.05578
 H40 H 0.29812 1.07342 -0.10835
 H41 H 0.29843 1.01886 -0.07093
 H42 H 0.19880 0.89525 0.06342
 C43 C 0.75040 0.49549 0.47677
 C44 C 0.75272 0.49547 0.51329
 C45 C 0.75372 0.46200 0.53504
 C46 C 0.75373 0.52925 0.53447
 C47 C 0.75084 0.52949 0.45567
 C48 C 0.74778 0.46179 0.45544
 C49 C 0.72398 0.43861 0.53637
 C50 C 0.72297 0.41083 0.56194
 C51 C 0.75163 0.40636 0.58630
 C52 C 0.78178 0.42885 0.58415
 C53 C 0.78278 0.45654 0.55877
 C54 C 0.72654 0.53558 0.56003
 C55 C 0.72873 0.56503 0.58319
 C56 C 0.75824 0.58838 0.58123
 C57 C 0.78519 0.58271 0.55532
 C58 C 0.78298 0.55316 0.53198
 C59 C 0.77772 0.53449 0.42950
 C60 C 0.77765 0.56523 0.40783
 C61 C 0.75060 0.59127 0.41190
 C62 C 0.72376 0.58663 0.43811
 C63 C 0.72382 0.55581 0.45990
 C64 C 0.77504 0.43541 0.45666
 C65 C 0.77382 0.40580 0.43327
 C66 C 0.74543 0.40243 0.40848
 C67 C 0.71792 0.42829 0.40770
 C68 C 0.71913 0.45782 0.43095
 H69 H 0.70101 0.44287 0.51879
 H70 H 0.69947 0.39357 0.56342
 H71 H 0.80410 0.42563 0.60279
 H72 H 0.80575 0.47457 0.55838
 H73 H 0.70395 0.51724 0.56246
 H74 H 0.70780 0.56916 0.60318
 H75 H 0.80447 0.54829 0.51280
 H76 H 0.79861 0.51438 0.42569
 H77 H 0.79839 0.56840 0.38750
 H78 H 0.70250 0.60647 0.44126
 H79 H 0.70249 0.55211 0.47950
 H80 H 0.79774 0.43836 0.47483
 H81 H 0.79537 0.38604 0.43394
 H82 H 0.69591 0.42604 0.38858
 H83 H 0.69803 0.47801 0.42940
 H84 H 0.80821 0.60060 0.55372
 C85 C 0.74963 1.01356 0.99517
 C86 C 0.74967 0.97700 0.99517
 C87 C 0.75072 0.95561 0.96145
 C88 C 0.74922 0.95591 1.02921
 C89 C 0.74713 1.03463 1.02892
 C90 C 0.75166 1.03540 0.96178
 C91 C 0.72389 0.92962 0.95551
 C92 C 0.72625 0.90621 0.92621
 C93 C 0.75556 0.90832 0.90257
 C94 C 0.78216 0.93463 0.90786
 C95 C 0.77979 0.95821 0.93726
 C96 C 0.72031 0.95838 1.05363
 C97 C 0.71964 0.93658 1.08446
 C98 C 0.74777 0.91210 1.09099
 C99 C 0.77668 0.90980 1.06683
 C100 C 0.77736 0.93147 1.03610
 C101 C 0.77482 1.03361 1.05478
 C102 C 0.77369 1.05682 1.08448
 C103 C 0.74495 1.08112 1.08835
 C104 C 0.71698 1.08162 1.06303
 C105 C 0.71810 1.05856 1.03342
 C106 C 0.77959 1.06070 0.95839
 C107 C 0.77902 1.08608 0.93067
 C108 C 0.75039 1.08667 0.90605
 C109 C 0.72298 1.06071 0.90849
 C110 C 0.72359 1.03514 0.93631
 H111 H 0.70146 0.92703 0.97406
 H112 H 0.70558 0.88593 0.92243
 H113 H 0.80506 0.93636 0.88980
 H114 H 0.80113 0.97759 0.94181
 H115 H 0.69804 0.97661 1.04845
 H116 H 0.69698 0.93836 1.10283
 H117 H 0.79974 0.92903 1.01747
 H118 H 0.79770 1.01572 1.05135
 H119 H 0.79557 1.05644 1.10387
 H120 H 0.69473 1.10043 1.06573
 H121 H 0.69669 1.05984 1.01355
 H122 H 0.80124 1.06152 0.97802
 H123 H 0.80045 1.10589 0.92912
 H124 H 0.70064 1.06084 0.88960
 H125 H 0.70147 1.01629 0.93892
 H126 H 0.79848 0.89083 1.07147
 C127 C 0.24809 0.47796 0.49722
 C128 C 0.24830 0.51454 0.49694
 C129 C 0.25011 0.53592 0.46329
 C130 C 0.24629 0.53612 0.53052
 C131 C 0.24773 0.45731 0.53147
 C132 C 0.24872 0.45612 0.46366
 C133 C 0.27825 0.56088 0.45922
 C134 C 0.27756 0.58585 0.43116
 C135 C 0.24864 0.58633 0.40693
 C136 C 0.22102 0.56073 0.41003
 C137 C 0.22172 0.53556 0.43818
 C138 C 0.27409 0.53509 0.55629
 C139 C 0.27351 0.55882 0.58565
 C140 C 0.24523 0.58371 0.58932
 C141 C 0.21716 0.58424 0.56409
 C142 C 0.21773 0.56067 0.53483
 C143 C 0.21902 0.46034 0.55607
 C144 C 0.21848 0.43905 0.58723
 C145 C 0.24655 0.41455 0.59391
 C146 C 0.27526 0.41169 0.56958
 C147 C 0.27581 0.43285 0.53851
 C148 C 0.22193 0.42990 0.45841
 C149 C 0.22385 0.40621 0.42924
 C150 C 0.25268 0.40823 0.40499
 C151 C 0.27925 0.43470 0.40963
 C152 C 0.27733 0.45854 0.43889
 H153 H 0.30015 0.56177 0.47858
 H154 H 0.29907 0.60548 0.42900
 H155 H 0.19849 0.56092 0.39140
 H156 H 0.19945 0.51696 0.44133
 H157 H 0.29666 0.51678 0.55304
 H158 H 0.29547 0.55833 0.60495
 H159 H 0.19623 0.56202 0.51505
 H160 H 0.19682 0.47863 0.55077
 H161 H 0.19597 0.44123 0.60574
 H162 H 0.29698 0.39266 0.57436
 H163 H 0.29803 0.43000 0.51975
 H164 H 0.19984 0.42737 0.47736
 H165 H 0.20319 0.38584 0.42602
 H166 H 0.30180 0.43641 0.39112
 H167 H 0.29868 0.47804 0.44286
 H168 H 0.19523 0.60344 0.56661
 C169 C 0.99638 0.25008 -0.01376
 C170 C 0.99647 0.24978 0.02284
 C171 C 1.03062 0.25008 0.04387
 C172 C 0.96273 0.24872 0.04433
 C173 C 0.96286 0.24808 -0.03552
 C174 C 1.03011 0.25286 -0.03495
 C175 C 1.03762 0.22184 0.06805
 C176 C 1.06842 0.22236 0.08973
 C177 C 1.09258 0.25126 0.08770
 C178 C 1.08594 0.27950 0.06342
 C179 C 1.05503 0.27895 0.04162
 C180 C 0.93832 0.21992 0.04149
 C181 C 0.90879 0.21767 0.06498
 C182 C 0.90357 0.24411 0.09147
 C183 C 0.92747 0.27314 0.09389
 C184 C 0.95690 0.27538 0.07056
 C185 C 0.93718 0.27596 -0.03493
 C186 C 0.90913 0.27654 -0.06032
 C187 C 0.90665 0.24927 -0.08644
 C188 C 0.93152 0.22084 -0.08621
 C189 C 0.95947 0.22031 -0.06100
 C190 C 1.03432 0.28196 -0.05872
 C191 C 1.06385 0.28336 -0.08194
 C192 C 1.08942 0.25557 -0.08179
 C193 C 1.08582 0.22674 -0.05761
 C194 C 1.05619 0.22535 -0.03426
 H195 H 1.01899 0.19948 0.07032
 H196 H 1.07304 0.20043 0.10850
 H197 H 1.10423 0.30219 0.06176
 H198 H 1.04976 0.30129 0.02358
 H199 H 0.94276 0.19871 0.02193
 H200 H 0.89054 0.19498 0.06300
 H201 H 0.97559 0.29762 0.07336
 H202 H 0.93979 0.29797 -0.01594
 H203 H 0.89007 0.29873 -0.06019
 H204 H 0.92996 0.19954 -0.10615
 H205 H 0.97925 0.19880 -0.06208
 H206 H 1.01428 0.30323 -0.05975
 H207 H 1.06624 0.30574 -0.10057
 H208 H 1.10535 0.20495 -0.05739
 H209 H 1.05299 0.20242 -0.01650
 H210 H 0.92377 0.29369 0.11431
 C211 C 0.49704 0.74970 0.48562
 C212 C 0.49749 0.74994 0.52221
 C213 C 0.53188 0.75031 0.54273
 C214 C 0.46399 0.74941 0.54415
 C215 C 0.46326 0.74794 0.46435
 C216 C 0.53057 0.75172 0.46394
 C217 C 0.53912 0.72225 0.56706
 C218 C 0.57033 0.72280 0.58810
 C219 C 0.59460 0.75149 0.58525
 C220 C 0.58772 0.77954 0.56088
 C221 C 0.55641 0.77899 0.53970
 C222 C 0.43914 0.72092 0.54174
 C223 C 0.40982 0.71920 0.56554
 C224 C 0.40521 0.74585 0.59195
 C225 C 0.42956 0.77453 0.59398
 C226 C 0.45879 0.77625 0.57033
 C227 C 0.43806 0.77626 0.46494
 C228 C 0.40971 0.77698 0.43992
 C229 C 0.40649 0.74943 0.41424
 C230 C 0.43081 0.72058 0.41449
 C231 C 0.45907 0.71989 0.43931
 C232 C 0.53480 0.78030 0.43953
 C233 C 0.56413 0.78099 0.41602
 C234 C 0.58948 0.75303 0.41648
 C235 C 0.58587 0.72471 0.44122
 C236 C 0.55644 0.72401 0.46489
 H237 H 0.52040 0.70004 0.56990
 H238 H 0.57526 0.70110 0.60705
 H239 H 0.60617 0.80204 0.55872
 H240 H 0.55095 0.80117 0.52152
 H241 H 0.44308 0.69955 0.52225
 H242 H 0.39122 0.69678 0.56384
 H243 H 0.47780 0.79826 0.57283
 H244 H 0.44130 0.79846 0.48360
 H245 H 0.39102 0.79946 0.43989
 H246 H 0.42857 0.69915 0.39478
 H247 H 0.47849 0.69804 0.43825
 H248 H 0.51494 0.80173 0.43827
 H249 H 0.56662 0.80294 0.39692
 H250 H 0.60527 0.70283 0.44163
 H251 H 0.55324 0.70144 0.48311
 H252 H 0.42634 0.79525 0.61432
 C253 C 0.01379 0.74925 0.00225
 C254 C -0.02283 0.75094 0.00195
 C255 C -0.04466 0.75284 0.03550
 C256 C -0.04351 0.75049 -0.03230
 C257 C 0.03545 0.74899 -0.03136
 C258 C 0.03518 0.74815 0.03594
 C259 C -0.04307 0.72555 0.06174
 C260 C -0.06679 0.72610 0.09118
 C261 C -0.09235 0.75386 0.09456
 C262 C -0.09353 0.78139 0.06878
 C263 C -0.06994 0.78082 0.03944
 C264 C -0.06890 0.72308 -0.03808
 C265 C -0.09008 0.72295 -0.06918
 C266 C -0.08629 0.75036 -0.09483
 C267 C -0.06083 0.77776 -0.08938
 C268 C -0.03954 0.77786 -0.05818
 C269 C 0.06084 0.77645 -0.03693
 C270 C 0.08451 0.77492 -0.06610
 C271 C 0.08326 0.74578 -0.09001
 C272 C 0.05748 0.71856 -0.08509
 C273 C 0.03366 0.72013 -0.05580
 C274 C 0.03587 0.77760 0.05970
 C275 C 0.06110 0.77856 0.08783
 C276 C 0.08572 0.75014 0.09226
 C277 C 0.08419 0.72025 0.06939
 C278 C 0.05915 0.71930 0.04135
 H279 H -0.02431 0.70332 0.05882
 H280 H -0.06566 0.70449 0.11080
 H281 H -0.11316 0.80300 0.07092
 H282 H -0.07180 0.80195 0.01937
 H283 H -0.07245 0.70191 -0.01830
 H284 H -0.10983 0.70175 -0.07289
 H285 H -0.02051 0.79955 -0.05386
 H286 H 0.06277 0.79874 -0.01818
 H287 H 0.10430 0.79613 -0.06951
 H288 H 0.05630 0.69578 -0.10333
 H289 H 0.01465 0.69841 -0.05155
 H290 H 0.01805 0.80039 0.05547
 H291 H 0.06212 0.80185 0.10540
 H292 H 0.10307 0.69813 0.07259
 H293 H 0.05923 0.69656 0.02303
 H294 H -0.05787 0.79933 -0.10884
 C295 C 0.51316 0.24849 0.50429
 C296 C 0.47658 0.25084 0.50429
 C297 C 0.45546 0.25036 0.47026
 C298 C 0.45520 0.25347 0.53802
 C299 C 0.53497 0.24738 0.53777
 C300 C 0.53436 0.24752 0.47047
 C301 C 0.45965 0.27729 0.44394
 C302 C 0.43795 0.27720 0.41300
 C303 C 0.41186 0.25030 0.40824
 C304 C 0.40781 0.22336 0.43431
 C305 C 0.42939 0.22344 0.46516
 C306 C 0.43057 0.28201 0.54200
 C307 C 0.40727 0.28322 0.57152
 C308 C 0.40811 0.25581 0.59739
 C309 C 0.43304 0.22753 0.59401
 C310 C 0.45649 0.22631 0.56440
 C311 C 0.55868 0.21829 0.54312
 C312 C 0.58414 0.21917 0.57080
 C313 C 0.58639 0.24923 0.59339
 C314 C 0.56205 0.27791 0.58904
 C315 C 0.53639 0.27702 0.56126
 C316 C 0.53188 0.21838 0.44644
 C317 C 0.55523 0.21621 0.41684
 C318 C 0.58114 0.24311 0.41123
 C319 C 0.58310 0.27251 0.43471
 C320 C 0.55993 0.27466 0.46421
 H321 H 0.47918 0.29864 0.44771
 H322 H 0.44107 0.29838 0.39315
 H323 H 0.38756 0.20258 0.43104
 H324 H 0.42562 0.20262 0.48526
 H325 H 0.42896 0.30304 0.52180
 H326 H 0.38804 0.30516 0.57376
 H327 H 0.47475 0.20368 0.56145
 H328 H 0.55822 0.19539 0.52500
 H329 H 0.60278 0.19684 0.57393
 H330 H 0.56360 0.30133 0.60639
 H331 H 0.51882 0.30000 0.55709
 H332 H 0.51270 0.19692 0.45124
 H333 H 0.55363 0.19327 0.39886
 H334 H 0.60309 0.29340 0.43066
 H335 H 0.56236 0.29716 0.48264
 H336 H 0.43377 0.20605 0.61377
 C337 C 1.00395 -0.01456 0.25231
 C338 C 1.00356 0.02195 0.25025
 C339 C 0.96922 0.04254 0.25046
 C340 C 1.03708 0.04376 0.24811
 C341 C 1.03773 -0.03587 0.25352
 C342 C 0.97035 -0.03619 0.25267
 C343 C 0.94341 0.03831 0.22299
 C344 C 0.91215 0.05958 0.22281
 C345 C 0.90660 0.08522 0.24999
 C346 C 0.93214 0.08927 0.27749
 C347 C 0.96331 0.06813 0.27767
 C348 C 1.04088 0.06865 0.21986
 C349 C 1.07007 0.09238 0.21911
 C350 C 1.09582 0.09173 0.24675
 C351 C 1.09261 0.06653 0.27477
 C352 C 1.06332 0.04266 0.27549
 C353 C 1.04325 -0.05950 0.28256
 C354 C 1.07119 -0.08469 0.28163
 C355 C 1.09384 -0.08671 0.25153
 C356 C 1.08933 -0.06235 0.22294
 C357 C 1.06131 -0.03698 0.22391
 C358 C 0.94582 -0.03417 0.28148
 C359 C 0.91649 -0.05789 0.28309
 C360 C 0.91164 -0.08376 0.25597
 C361 C 0.93562 -0.08528 0.22691
 C362 C 0.96484 -0.06173 0.22531
 H363 H 0.94783 0.01912 0.20144
 H364 H 0.89270 0.05651 0.20121
 H365 H 0.92824 0.10921 0.29847
 H366 H 0.98304 0.07188 0.29891
 H367 H 1.02080 0.07013 0.19866
 H368 H 1.07209 0.11172 0.19730
 H369 H 1.06050 0.02420 0.29792
 H370 H 1.02505 -0.05924 0.30541
 H371 H 1.07437 -0.10330 0.30395
 H372 H 1.10669 -0.06366 0.19946
 H373 H 1.05697 -0.01943 0.20098
 H374 H 0.95002 -0.01504 0.30312
 H375 H 0.89813 -0.05660 0.30577
 H376 H 0.93215 -0.10520 0.20584
 H377 H 0.98364 -0.06384 0.20305
 H378 H 1.11223 0.06581 0.29645
 C379 C 0.50416 0.52340 0.75081
 C380 C 0.50420 0.48689 0.75317
 C381 C 0.53777 0.46511 0.75412
 C382 C 0.47034 0.46575 0.75414
 C383 C 0.47003 0.54446 0.75111
 C384 C 0.53792 0.54474 0.74827
 C385 C 0.56129 0.46388 0.72446
 C386 C 0.58917 0.43830 0.72339
 C387 C 0.59359 0.41385 0.75190
 C388 C 0.57096 0.41590 0.78198
 C389 C 0.54317 0.44129 0.78305
 C390 C 0.46408 0.44016 0.72703
 C391 C 0.43446 0.41717 0.72912
 C392 C 0.41085 0.41934 0.75844
 C393 C 0.41647 0.44526 0.78533
 C394 C 0.44620 0.46843 0.78323
 C395 C 0.46475 0.57058 0.77796
 C396 C 0.43380 0.59209 0.77784
 C397 C 0.40782 0.58791 0.75077
 C398 C 0.41276 0.56177 0.72394
 C399 C 0.44379 0.54014 0.72405
 C400 C 0.56438 0.54339 0.77544
 C401 C 0.59405 0.56673 0.77426
 C402 C 0.59743 0.59161 0.74601
 C403 C 0.57148 0.59253 0.71861
 C404 C 0.54189 0.56934 0.71978
 H405 H 0.55707 0.48153 0.70159
 H406 H 0.60654 0.43690 0.69994
 H407 H 0.57414 0.39718 0.80418
 H408 H 0.52504 0.44160 0.80595
 H409 H 0.48258 0.43758 0.70456
 H410 H 0.43040 0.39717 0.70823
 H411 H 0.45099 0.48764 0.80467
 H412 H 0.48479 0.57445 0.79888
 H413 H 0.43041 0.61239 0.79857
 H414 H 0.39298 0.55855 0.70266
 H415 H 0.44770 0.52057 0.70275
 H416 H 0.56145 0.52515 0.79803
 H417 H 0.61388 0.56593 0.79573
 H418 H 0.57372 0.61171 0.69670
 H419 H 0.52165 0.57099 0.69875
 H420 H 0.39840 0.44702 0.80821
 C421 C 1.02354 1.00433 0.74894
 C422 C 0.98688 1.00426 0.74874
 C423 C 0.96587 0.97047 0.74634
 C424 C 0.96488 1.03763 0.75060
 C425 C 1.04486 1.03809 0.75023
 C426 C 1.04477 0.97032 0.74848
 C427 C 0.94183 0.96587 0.71745
 C428 C 0.91885 0.93621 0.71642
 C429 C 0.91951 0.91093 0.74435
 C430 C 0.94391 0.91490 0.77296
 C431 C 0.96704 0.94465 0.77400
 C432 C 0.96546 1.06318 0.72267
 C433 C 0.93994 1.09113 0.72198
 C434 C 0.91369 1.09362 0.74917
 C435 C 0.91391 1.06887 0.77763
 C436 C 0.93925 1.04104 0.77828
 C437 C 1.04170 1.06239 0.77913
 C438 C 1.06502 1.09197 0.78164
 C439 C 1.09166 1.09735 0.75536
 C440 C 1.09439 1.07357 0.72624
 C441 C 1.07123 1.04409 0.72375
 C442 C 1.06919 0.96340 0.77660
 C443 C 1.09082 0.93258 0.77604
 C444 C 1.08850 0.90831 0.74722
 C445 C 1.06405 0.91491 0.71907
 C446 C 1.04231 0.94585 0.71966
 H447 H 0.94042 0.98570 0.69606
 H448 H 0.89997 0.93344 0.69427
 H449 H 0.94442 0.89555 0.79482
 H450 H 0.98499 0.94815 0.79679
 H451 H 0.98457 1.06057 0.70074
 H452 H 0.94009 1.11011 0.69978
 H453 H 0.93818 1.02136 0.79983
 H454 H 1.02204 1.05782 0.80023
 H455 H 1.06280 1.11013 0.80440
 H456 H 1.11494 1.07740 0.70582
 H457 H 1.07428 1.02549 0.70144
 H458 H 1.07161 0.98206 0.79893
 H459 H 1.10972 0.92798 0.79790
 H460 H 1.06217 0.89654 0.69645
 H461 H 1.02408 0.95104 0.69741
 H462 H 0.89388 1.07046 0.79888
 C463 C 0.52175 0.50252 0.24786
 C464 C 0.48510 0.50285 0.24806
 C465 C 0.46356 0.46930 0.24615
 C466 C 0.46363 0.53649 0.24983
 C467 C 0.54357 0.53602 0.24855
 C468 C 0.54248 0.46828 0.24755
 C469 C 0.43903 0.46489 0.21763
 C470 C 0.41552 0.43562 0.21713
 C471 C 0.41610 0.41051 0.24523
 C472 C 0.44097 0.41430 0.27349
 C473 C 0.46463 0.44366 0.27399
 C474 C 0.46403 0.56156 0.22148
 C475 C 0.43880 0.58974 0.22077
 C476 C 0.41311 0.59290 0.24835
 C477 C 0.41354 0.56870 0.27723
 C478 C 0.43857 0.54062 0.27792
 C479 C 0.54110 0.56068 0.27721
 C480 C 0.56499 0.58986 0.27922
 C481 C 0.59153 0.59451 0.25269
 C482 C 0.59357 0.57038 0.22379
 C483 C 0.56984 0.54129 0.22179
 C484 C 0.56692 0.46127 0.27562
 C485 C 0.58819 0.43022 0.27511
 C486 C 0.58545 0.40589 0.24644
 C487 C 0.56097 0.41254 0.21838
 C488 C 0.53957 0.44369 0.21888
 H489 H 0.43766 0.48458 0.19611
 H490 H 0.39632 0.43300 0.19523
 H491 H 0.44147 0.39508 0.29546
 H492 H 0.48293 0.44702 0.29652
 H493 H 0.48271 0.55836 0.19925
 H494 H 0.43865 0.60835 0.19828
 H495 H 0.43766 0.52130 0.29979
 H496 H 0.52155 0.55667 0.29852
 H497 H 0.56327 0.60828 0.30181
 H498 H 0.61401 0.57363 0.20316
 H499 H 0.57239 0.52241 0.19966
 H500 H 0.56967 0.48003 0.29782
 H501 H 0.60720 0.42546 0.29683
 H502 H 0.55889 0.39403 0.19590
 H503 H 0.52130 0.44897 0.19669
 H504 H 0.39385 0.57092 0.29871
 O505 O 0.25739 0.15666 0.19163
 O506 O 0.29704 0.14605 0.24208
 O507 O 0.16322 0.19956 0.24419
 O508 O 0.14972 0.24647 0.27940
 O509 O 0.20667 0.25114 0.14854
 O510 O 0.25713 0.29056 0.13908
 O511 O 0.25740 0.29912 0.33586
 O512 O 0.21528 0.25143 0.34516
 O513 O 0.34993 0.25027 0.29258
 O514 O 0.36058 0.20907 0.24057
 O515 O 0.30673 0.34224 0.24457
 O516 O 0.25495 0.35355 0.20286
 O517 O 0.25756 0.34261 0.29259
 O518 O 0.21705 0.35403 0.24146
 O519 O 0.35015 0.29878 0.24428
 O520 O 0.36122 0.24801 0.20300
 O521 O 0.30633 0.25110 0.33578
 O522 O 0.25730 0.20968 0.34708
 O523 O 0.25738 0.20028 0.14839
 O524 O 0.29706 0.25022 0.13875
 O525 O 0.16329 0.25011 0.19203
 O526 O 0.15469 0.29181 0.24221
 O527 O 0.20669 0.15607 0.24291
 O528 O 0.25688 0.14550 0.28174
 Zr529 Zr 0.25541 0.18510 0.24080
 O530 O 0.28904 0.21571 0.27478
 Zr531 Zr 0.19193 0.24843 0.24104
 O532 O 0.22282 0.28184 0.27511
 Zr533 Zr 0.25548 0.24874 0.17774
 O534 O 0.28923 0.28208 0.20897
 Zr535 Zr 0.25757 0.25034 0.30686
 O536 O 0.22352 0.21646 0.27597
 Zr537 Zr 0.32108 0.25028 0.24356
 O538 O 0.29038 0.21663 0.20914
 Zr539 Zr 0.25759 0.31380 0.24373
 O540 O 0.22353 0.28337 0.20939
 O541 O 0.22184 0.21513 0.20737
 O542 O 0.29144 0.28409 0.27743
 C543 C 0.25815 0.16727 0.15866
 C544 C 0.17368 0.16653 0.24460
 C545 C 0.17363 0.25155 0.15904
 C546 C 0.25742 0.33216 0.32555
 C547 C 0.33938 0.25084 0.32553
 C548 C 0.33976 0.33172 0.24474
 H549 H 0.30401 0.19927 0.28948
 H550 H 0.30418 0.29701 0.19277
 H551 H 0.20637 0.19973 0.19202
 H552 H 0.20656 0.29654 0.29031
 H553 H 0.19727 0.23334 0.33734
 H554 H 0.15753 0.26058 0.30062
 H555 H 0.35590 0.26715 0.18521
 H556 H 0.31617 0.23360 0.14732
 H557 H 0.27542 0.19123 0.34053
 H558 H 0.24097 0.15430 0.30130
 H559 H 0.27510 0.34920 0.18591
 H560 H 0.24048 0.30958 0.14773
 H561 H 0.31600 0.15453 0.22533
 H562 H 0.35602 0.19186 0.26040
 H563 H 0.16237 0.30917 0.22347
 H564 H 0.19883 0.34831 0.26007
 O565 O 0.74856 0.85003 0.20644
 O566 O 0.70933 0.85979 0.25708
 O567 O 0.84347 0.80703 0.25780
 O568 O 0.85722 0.76027 0.29343
 O569 O 0.80007 0.75568 0.16272
 O570 O 0.74966 0.71636 0.15276
 O571 O 0.74997 0.70671 0.34997
 O572 O 0.79240 0.75403 0.35899
 O573 O 0.65774 0.75450 0.30715
 O574 O 0.64628 0.79644 0.25536
 O575 O 0.70077 0.66344 0.25752
 O576 O 0.75280 0.65262 0.21657
 O577 O 0.74942 0.66359 0.30635
 O578 O 0.79049 0.65226 0.25527
 O579 O 0.65709 0.70663 0.25780
 O580 O 0.64529 0.75768 0.21779
 O581 O 0.70142 0.75436 0.35035
 O582 O 0.75043 0.79627 0.36103
 O583 O 0.74878 0.80653 0.16310
 O584 O 0.70971 0.75625 0.15281
 O585 O 0.84382 0.75653 0.20589
 O586 O 0.85260 0.71482 0.25573
 O587 O 0.79968 0.85025 0.25703
 O588 O 0.74980 0.86013 0.29666
 Zr589 Zr 0.75117 0.82100 0.25527
 O590 O 0.71790 0.78997 0.28917
 Zr591 Zr 0.81511 0.75799 0.25490
 O592 O 0.78452 0.72424 0.28891
 Zr593 Zr 0.75126 0.75775 0.19189
 O594 O 0.71783 0.72402 0.22295
 Zr595 Zr 0.74982 0.75544 0.32097
 O596 O 0.78352 0.78963 0.29009
 Zr597 Zr 0.68596 0.75534 0.25786
 O598 O 0.71626 0.78941 0.22355
 Zr599 Zr 0.74974 0.69229 0.25747
 O600 O 0.78350 0.72307 0.22320
 O601 O 0.78480 0.79135 0.22154
 O602 O 0.71595 0.72161 0.29147
 C603 C 0.74766 0.83951 0.17345
 C604 C 0.83275 0.83998 0.25827
 C605 C 0.83321 0.75520 0.17296
 C606 C 0.74958 0.67379 0.33938
 C607 C 0.66838 0.75408 0.34009
 C608 C 0.66765 0.67372 0.25760
 H609 H 0.70288 0.80622 0.30402
 H610 H 0.70295 0.70915 0.20662
 H611 H 0.80005 0.80687 0.20612
 H612 H 0.80085 0.70950 0.30402
 H613 H 0.81027 0.77229 0.35130
 H614 H 0.84989 0.74534 0.31425
 H615 H 0.65118 0.73946 0.19924
 H616 H 0.69046 0.77264 0.16148
 H617 H 0.73169 0.81428 0.35498
 H618 H 0.76633 0.85149 0.31580
 H619 H 0.73313 0.65736 0.19915
 H620 H 0.76641 0.69731 0.16118
 H621 H 0.69014 0.85112 0.24066
 H622 H 0.65035 0.81306 0.27580
 H623 H 0.84460 0.69725 0.23731
 H624 H 0.80840 0.65771 0.27428
 O625 O 0.75059 0.15536 0.79906
 O626 O 0.71272 0.14455 0.74955
 O627 O 0.84511 0.20099 0.74893
 O628 O 0.85927 0.24811 0.71608
 O629 O 0.79914 0.24964 0.84511
 O630 O 0.74967 0.28761 0.85574
 O631 O 0.74904 0.29810 0.65631
 O632 O 0.78970 0.25198 0.64586
 O633 O 0.65675 0.25121 0.70162
 O634 O 0.64409 0.21287 0.75093
 O635 O 0.70208 0.34359 0.74900
 O636 O 0.75154 0.35596 0.78739
 O637 O 0.74959 0.34184 0.69930
 O638 O 0.79316 0.35127 0.75245
 O639 O 0.65819 0.30080 0.74939
 O640 O 0.64866 0.24752 0.79260
 O641 O 0.69970 0.25117 0.65776
 O642 O 0.75077 0.20759 0.64785
 O643 O 0.74929 0.19814 0.84308
 O644 O 0.70825 0.24954 0.85258
 O645 O 0.84319 0.25029 0.80231
 O646 O 0.85092 0.29356 0.75053
 O647 O 0.80227 0.15703 0.74912
 O648 O 0.75103 0.14752 0.70828
 Zr649 Zr 0.75261 0.18516 0.75105
 O650 O 0.71790 0.21605 0.71834
 Zr651 Zr 0.81537 0.24898 0.75246
 O652 O 0.78446 0.28157 0.71748
 Zr653 Zr 0.75120 0.24775 0.81507
 O654 O 0.71851 0.28248 0.78409
 Zr655 Zr 0.74923 0.25017 0.68601
 O656 O 0.78443 0.21713 0.71670
 Zr657 Zr 0.68629 0.25118 0.74981
 O658 O 0.71692 0.21606 0.78295
 Zr659 Zr 0.75021 0.31386 0.74896
 O660 O 0.78325 0.28321 0.78426
 O661 O 0.78550 0.21490 0.78528
 O662 O 0.71589 0.28447 0.71561
 C663 C 0.74911 0.16525 0.83213
 C664 C 0.83521 0.16793 0.74812
 C665 C 0.83226 0.25073 0.83522
 C666 C 0.74917 0.33109 0.66635
 C667 C 0.66674 0.25135 0.66858
 C668 C 0.66901 0.33368 0.74911
 H669 H 0.70263 0.19973 0.70386
 H670 H 0.70388 0.29765 0.80042
 H671 H 0.80097 0.19937 0.80056
 H672 H 0.80070 0.29599 0.70205
 H673 H 0.80954 0.23612 0.65420
 H674 H 0.85022 0.25768 0.69290
 H675 H 0.65076 0.26962 0.80736
 H676 H 0.69095 0.23053 0.84544
 H677 H 0.72925 0.19228 0.65137
 H678 H 0.76955 0.15511 0.69063
 H679 H 0.73680 0.34819 0.80819
 H680 H 0.76471 0.30782 0.84697
 H681 H 0.69242 0.15336 0.76453
 H682 H 0.65198 0.19199 0.73637
 H683 H 0.84548 0.30886 0.77171
 H684 H 0.80760 0.34936 0.73010
 O685 O 0.24340 0.83679 0.80047
 O686 O 0.28276 0.84685 0.75002
 O687 O 0.14870 0.79394 0.74775
 O688 O 0.13597 0.74722 0.71196
 O689 O 0.19145 0.74316 0.84346
 O690 O 0.24172 0.70330 0.85402
 O691 O 0.24442 0.69318 0.65746
 O692 O 0.20148 0.74062 0.64752
 O693 O 0.33563 0.74205 0.70079
 O694 O 0.34649 0.78297 0.75287
 O695 O 0.29198 0.65001 0.74983
 O696 O 0.23976 0.63983 0.79084
 O697 O 0.24394 0.65003 0.70107
 O698 O 0.20221 0.63942 0.75166
 O699 O 0.33537 0.69332 0.74948
 O700 O 0.34677 0.74434 0.79041
 O701 O 0.29248 0.74170 0.65708
 O702 O 0.24353 0.78248 0.64536
 O703 O 0.24293 0.79352 0.84402
 O704 O 0.28169 0.74317 0.85459
 O705 O 0.14824 0.74393 0.79972
 O706 O 0.14028 0.70176 0.75003
 O707 O 0.19246 0.83697 0.74917
 O708 O 0.24284 0.84719 0.71029
 Zr709 Zr 0.24121 0.80790 0.75152
 O710 O 0.27498 0.77684 0.71807
 Zr711 Zr 0.17751 0.74501 0.75112
 O712 O 0.20864 0.71110 0.71762
 Zr713 Zr 0.24064 0.74481 0.81500
 O714 O 0.27455 0.71097 0.78438
 Zr715 Zr 0.24368 0.74220 0.68594
 O716 O 0.20948 0.77654 0.71627
 Zr717 Zr 0.30669 0.74221 0.74974
 O718 O 0.27590 0.77637 0.78365
 Zr719 Zr 0.24308 0.67917 0.74964
 O720 O 0.20882 0.71015 0.78336
 O721 O 0.20732 0.77838 0.78486
 O722 O 0.27723 0.70840 0.71592
 C723 C 0.24417 0.82645 0.83354
 C724 C 0.15939 0.82685 0.74742
 C725 C 0.15845 0.74285 0.83276
 C726 C 0.24452 0.66026 0.66807
 C727 C 0.32542 0.74186 0.66770
 C728 C 0.32501 0.66039 0.74957
 H729 H 0.29007 0.79312 0.70340
 H730 H 0.28933 0.69609 0.80084
 H731 H 0.19192 0.79404 0.80006
 H732 H 0.19257 0.69634 0.70234
 H733 H 0.18353 0.75902 0.65487
 H734 H 0.14350 0.73198 0.69141
 H735 H 0.34128 0.72538 0.80832
 H736 H 0.30130 0.75899 0.84583
 H737 H 0.26070 0.80153 0.65253
 H738 H 0.22644 0.83870 0.69101
 H739 H 0.25953 0.64439 0.80818
 H740 H 0.22481 0.68449 0.84553
 H741 H 0.30185 0.83828 0.76664
 H742 H 0.34198 0.80030 0.73311
 H743 H 0.14791 0.68447 0.76889
 H744 H 0.18460 0.64475 0.73231
 O745 O 0.24735 0.35354 0.70994
 O746 O 0.20804 0.36348 0.76042
 O747 O 0.34222 0.31089 0.76162
 O748 O 0.35597 0.26442 0.79758
 O749 O 0.29920 0.25901 0.66677
 O750 O 0.24885 0.21972 0.65673
 O751 O 0.24873 0.21085 0.85397
 O752 O 0.29099 0.25833 0.86296
 O753 O 0.15651 0.25805 0.81068
 O754 O 0.14501 0.29987 0.75884
 O755 O 0.19993 0.16708 0.76148
 O756 O 0.25211 0.15620 0.72082
 O757 O 0.24832 0.16758 0.81049
 O758 O 0.28965 0.15610 0.75963
 O759 O 0.15613 0.21015 0.76141
 O760 O 0.14435 0.26115 0.72124
 O761 O 0.20006 0.25825 0.85401
 O762 O 0.24885 0.30043 0.86469
 O763 O 0.24785 0.30985 0.66679
 O764 O 0.20890 0.25951 0.65653
 O765 O 0.34282 0.26010 0.71006
 O766 O 0.35156 0.21874 0.76016
 O767 O 0.29839 0.35406 0.76057
 O768 O 0.24839 0.36399 0.80013
 Zr769 Zr 0.24992 0.32472 0.75887
 O770 O 0.21660 0.29376 0.79277
 Zr771 Zr 0.31398 0.26182 0.75894
 O772 O 0.28339 0.22816 0.79299
 Zr773 Zr 0.25031 0.26122 0.69574
 O774 O 0.21689 0.22754 0.72680
 Zr775 Zr 0.24853 0.25945 0.82479
 O776 O 0.28225 0.29358 0.79390
 Zr777 Zr 0.18485 0.25893 0.76149
 O778 O 0.21517 0.29295 0.72716
 Zr779 Zr 0.24880 0.19604 0.76153
 O780 O 0.28257 0.22674 0.72724
 O781 O 0.28370 0.29499 0.72536
 O782 O 0.21484 0.22542 0.79530
 C783 C 0.24659 0.34286 0.67700
 C784 C 0.33146 0.34381 0.76189
 C785 C 0.33230 0.25855 0.67713
 C786 C 0.24841 0.17792 0.84347
 C787 C 0.16707 0.25775 0.84364
 C788 C 0.16680 0.17727 0.76135
 H789 H 0.20149 0.31002 0.80751
 H790 H 0.20210 0.21257 0.71047
 H791 H 0.29898 0.31045 0.70989
 H792 H 0.29971 0.21353 0.80820
 H793 H 0.30881 0.27665 0.85527
 H794 H 0.34860 0.24961 0.81848
 H795 H 0.15027 0.24281 0.70281
 H796 H 0.18960 0.27592 0.66507
 H797 H 0.23005 0.31835 0.85853
 H798 H 0.26493 0.35546 0.81931
 H799 H 0.23250 0.16082 0.70329
 H800 H 0.26557 0.20069 0.66525
 H801 H 0.18884 0.35463 0.74412
 H802 H 0.14900 0.31656 0.77923
 H803 H 0.34367 0.20104 0.74183
 H804 H 0.30740 0.16158 0.77878
 O805 O 0.76116 0.65689 0.68994
 O806 O 0.80066 0.64616 0.74042
 O807 O 0.66703 0.70008 0.74239
 O808 O 0.65351 0.74711 0.77733
 O809 O 0.71074 0.75135 0.64662
 O810 O 0.76130 0.79068 0.63717
 O811 O 0.76124 0.79947 0.83377
 O812 O 0.71906 0.75187 0.84321
 O813 O 0.85375 0.75036 0.79078
 O814 O 0.86444 0.70910 0.73887
 O815 O 0.81076 0.84233 0.74265
 O816 O 0.75912 0.85366 0.70070
 O817 O 0.76152 0.84287 0.79042
 O818 O 0.72119 0.85435 0.73926
 O819 O 0.85413 0.79881 0.74253
 O820 O 0.86514 0.74793 0.70120
 O821 O 0.81006 0.75141 0.83389
 O822 O 0.76099 0.71008 0.84525
 O823 O 0.76135 0.70045 0.64665
 O824 O 0.80108 0.75022 0.63690
 O825 O 0.66732 0.75045 0.69007
 O826 O 0.65871 0.79230 0.74016
 O827 O 0.71038 0.65646 0.74120
 O828 O 0.76054 0.64581 0.78005
 Zr829 Zr 0.75917 0.68535 0.73905
 O830 O 0.79284 0.71592 0.77299
 Zr831 Zr 0.69585 0.74883 0.73909
 O832 O 0.72674 0.78220 0.77312
 Zr833 Zr 0.75948 0.74891 0.67588
 O834 O 0.79328 0.78220 0.70705
 Zr835 Zr 0.76137 0.75065 0.80494
 O836 O 0.72728 0.71682 0.77410
 Zr837 Zr 0.82498 0.75037 0.74174
 O838 O 0.79425 0.71674 0.70737
 Zr839 Zr 0.76161 0.81400 0.74168
 O840 O 0.72751 0.78363 0.70738
 O841 O 0.72573 0.71540 0.70552
 O842 O 0.79533 0.78428 0.77549
 C843 C 0.76203 0.66749 0.65699
 C844 C 0.67741 0.66702 0.74290
 C845 C 0.67771 0.75183 0.65710
 C846 C 0.76129 0.83245 0.82337
 C847 C 0.84311 0.75103 0.82370
 C848 C 0.84375 0.83175 0.74296
 H849 H 0.80775 0.69947 0.78774
 H850 H 0.80828 0.79707 0.69085
 H851 H 0.71023 0.70001 0.69020
 H852 H 0.71048 0.79696 0.78825
 H853 H 0.70102 0.73381 0.83540
 H854 H 0.66138 0.76108 0.79862
 H855 H 0.86003 0.76722 0.68351
 H856 H 0.82021 0.73369 0.64558
 H857 H 0.77910 0.69160 0.83877
 H858 H 0.74463 0.65467 0.79958
 H859 H 0.77940 0.84934 0.68390
 H860 H 0.74462 0.80972 0.64572
 H861 H 0.81971 0.65460 0.72375
 H862 H 0.85977 0.69189 0.75868
 H863 H 0.66637 0.80956 0.72133
 H864 H 0.70288 0.84868 0.75781
 O865 O 0.24878 0.65621 0.29831
 O866 O 0.21091 0.64558 0.24872
 O867 O 0.34341 0.70175 0.24832
 O868 O 0.35778 0.74892 0.21570
 O869 O 0.29745 0.75026 0.34459
 O870 O 0.24802 0.78831 0.35527
 O871 O 0.24772 0.79928 0.15599
 O872 O 0.28839 0.75310 0.14546
 O873 O 0.15533 0.75239 0.20097
 O874 O 0.14249 0.71397 0.25019
 O875 O 0.20080 0.84457 0.24868
 O876 O 0.25024 0.85670 0.28726
 O877 O 0.24831 0.84287 0.19913
 O878 O 0.29181 0.85212 0.25230
 O879 O 0.15681 0.80187 0.24884
 O880 O 0.14701 0.74854 0.29189
 O881 O 0.19837 0.75238 0.15720
 O882 O 0.24932 0.70884 0.14715
 O883 O 0.24750 0.69891 0.34242
 O884 O 0.20659 0.75030 0.35204
 O885 O 0.34154 0.75089 0.30184
 O886 O 0.34947 0.79427 0.25022
 O887 O 0.30047 0.65788 0.24838
 O888 O 0.24927 0.64849 0.20755
 Zr889 Zr 0.25090 0.68609 0.25036
 O890 O 0.21634 0.71712 0.21767
 Zr891 Zr 0.31380 0.74977 0.25199
 O892 O 0.28304 0.78252 0.21710
 Zr893 Zr 0.24955 0.74853 0.31453
 O894 O 0.21697 0.78337 0.28362
 Zr895 Zr 0.24782 0.75126 0.18550
 O896 O 0.28286 0.71805 0.21614
 Zr897 Zr 0.18476 0.75221 0.24921
 O898 O 0.21525 0.71696 0.28232
 Zr899 Zr 0.24883 0.81475 0.24866
 O900 O 0.28175 0.78397 0.28389
 O901 O 0.28382 0.71567 0.28470
 O902 O 0.21450 0.78553 0.21516
 C903 C 0.24727 0.66606 0.33139
 C904 C 0.33341 0.66873 0.24739
 C905 C 0.33056 0.75131 0.33472
 C906 C 0.24791 0.83222 0.16617
 C907 C 0.16540 0.75256 0.16796
 C908 C 0.16772 0.83471 0.24868
 H909 H 0.20107 0.70086 0.20313
 H910 H 0.20234 0.79852 0.29997
 H911 H 0.29924 0.70007 0.29996
 H912 H 0.29934 0.79695 0.20174
 H913 H 0.30814 0.73711 0.15377
 H914 H 0.34879 0.75857 0.19253
 H915 H 0.14915 0.77058 0.30673
 H916 H 0.18921 0.73142 0.34477
 H917 H 0.22786 0.69344 0.15073
 H918 H 0.26776 0.65612 0.18988
 H919 H 0.23526 0.84901 0.30792
 H920 H 0.26315 0.80849 0.34660
 H921 H 0.19064 0.65437 0.26374
 H922 H 0.15034 0.69312 0.23555
 H923 H 0.34403 0.80954 0.27143
 H924 H 0.30632 0.85020 0.22999
 O925 O 0.74163 0.33316 0.29976
 O926 O 0.78072 0.34357 0.24930
 O927 O 0.64695 0.29001 0.24706
 O928 O 0.63423 0.24325 0.21146
 O929 O 0.69004 0.23947 0.34276
 O930 O 0.74039 0.19965 0.35322
 O931 O 0.74301 0.18990 0.15676
 O932 O 0.69983 0.23706 0.14679
 O933 O 0.83396 0.23899 0.19998
 O934 O 0.84483 0.27979 0.25208
 O935 O 0.79061 0.14671 0.24900
 O936 O 0.73852 0.13631 0.29001
 O937 O 0.74267 0.14669 0.20031
 O938 O 0.70092 0.13584 0.25087
 O939 O 0.83387 0.19015 0.24852
 O940 O 0.84520 0.24119 0.28959
 O941 O 0.79076 0.23859 0.15631
 O942 O 0.74156 0.27923 0.14476
 O943 O 0.74143 0.28985 0.34328
 O944 O 0.78022 0.23961 0.35382
 O945 O 0.64676 0.24012 0.29909
 O946 O 0.63893 0.19781 0.24938
 O947 O 0.69054 0.33321 0.24854
 O948 O 0.74086 0.34372 0.20963
 Zr949 Zr 0.73940 0.30438 0.25082
 O950 O 0.77327 0.27352 0.21733
 Zr951 Zr 0.67593 0.24125 0.25046
 O952 O 0.70713 0.20755 0.21688
 Zr953 Zr 0.73916 0.24121 0.31424
 O954 O 0.77313 0.20755 0.28357
 Zr955 Zr 0.74201 0.23884 0.18523
 O956 O 0.70770 0.27297 0.21561
 Zr957 Zr 0.80510 0.23896 0.24894
 O958 O 0.77423 0.27296 0.28289
 Zr959 Zr 0.74167 0.17572 0.24887
 O960 O 0.70737 0.20649 0.28267
 O961 O 0.70568 0.27470 0.28418
 O962 O 0.77569 0.20511 0.21515
 C963 C 0.74257 0.32277 0.33279
 C964 C 0.65753 0.32295 0.24675
 C965 C 0.65705 0.23910 0.33210
 C966 C 0.74325 0.15700 0.16736
 C967 C 0.82371 0.23886 0.16690
 C968 C 0.82359 0.15720 0.24865
 H969 H 0.78828 0.28989 0.20268
 H970 H 0.78798 0.19270 0.30001
 H971 H 0.69025 0.29032 0.29940
 H972 H 0.69110 0.19274 0.20159
 H973 H 0.68174 0.25530 0.15420
 H974 H 0.64185 0.22821 0.19080
 H975 H 0.83993 0.22205 0.30736
 H976 H 0.79984 0.25540 0.34501
 H977 H 0.75886 0.29822 0.15180
 H978 H 0.72443 0.33521 0.19037
 H979 H 0.75825 0.14095 0.30738
 H980 H 0.72343 0.18087 0.34478
 H981 H 0.79996 0.33501 0.26576
 H982 H 0.84020 0.29718 0.23240
 H983 H 0.64654 0.18063 0.26835
 H984 H 0.68334 0.14109 0.23148
 C985 C 0.25746 0.11678 0.10855
 C986 C 0.25840 0.14009 0.13118
 C987 C 0.76109 0.61708 0.60703
 C988 C 0.76219 0.64035 0.62960
 C989 C 0.74659 0.88795 0.12134
 C990 C 0.74659 0.86646 0.14573
 C991 C 0.24543 0.39085 0.62457
 C992 C 0.24548 0.36963 0.64916
 C993 C 0.74893 0.11326 0.88074
 C994 C 0.74852 0.13717 0.85871
 C995 C 0.24700 0.61418 0.38001
 C996 C 0.24661 0.63800 0.35792
 C997 C 0.24626 0.87733 0.88343
 C998 C 0.24559 0.85389 0.86086
 C999 C 0.74506 0.37356 0.38256
 C1000 C 0.74416 0.35013 0.36007
 C1001 C 0.12134 0.25234 0.11061
 C1002 C 0.14583 0.25244 0.13207
 C1003 C 0.62533 0.75268 0.60893
 C1004 C 0.64994 0.75274 0.63020
 C1005 C 0.10810 0.74362 0.88303
 C1006 C 0.13087 0.74272 0.85984
 C1007 C 0.60697 0.24027 0.38250
 C1008 C 0.62958 0.23911 0.35922
 C1009 C 0.88299 0.75365 0.12189
 C1010 C 0.86048 0.75407 0.14543
 C1011 C 0.38214 0.25618 0.62627
 C1012 C 0.35961 0.25704 0.64973
 C1013 C 0.88112 0.25073 0.88712
 C1014 C 0.85893 0.25119 0.86329
 C1015 C 0.37940 0.75115 0.38650
 C1016 C 0.35720 0.75168 0.36275
 C1017 C 0.12295 0.11655 0.24677
 C1018 C 0.14632 0.13918 0.24612
 C1019 C 0.62643 0.61742 0.74563
 C1020 C 0.64996 0.63982 0.74466
 C1021 C 0.88720 0.11912 0.74769
 C1022 C 0.86332 0.14128 0.74733
 C1023 C 0.38525 0.61990 0.24676
 C1024 C 0.36144 0.64207 0.24649
 C1025 C 0.11124 0.87940 0.74620
 C1026 C 0.13255 0.85477 0.74624
 C1027 C 0.60928 0.37527 0.24537
 C1028 C 0.63063 0.35072 0.24549
 C1029 C 0.88308 0.89015 0.25818
 C1030 C 0.85988 0.86744 0.25883
 C1031 C 0.38197 0.39371 0.76118
 C1032 C 0.35860 0.37123 0.76218
 C1033 C 0.11656 0.25594 0.89356
 C1034 C 0.13987 0.25668 0.87097
 C1035 C 0.61804 0.75287 0.39028
 C1036 C 0.64124 0.75327 0.36755
 C1037 C 0.89118 0.75111 0.87617
 C1038 C 0.86995 0.75126 0.85153
 C1039 C 0.38779 0.25104 0.37776
 C1040 C 0.36634 0.25111 0.35330
 C1041 C 0.11365 0.75192 0.11912
 C1042 C 0.13745 0.75256 0.14126
 C1043 C 0.61467 0.25085 0.61997
 C1044 C 0.63867 0.25139 0.64194
 C1045 C 0.87471 0.24117 0.11727
 C1046 C 0.85122 0.23967 0.13971
 C1047 C 0.37644 0.74348 0.61797
 C1048 C 0.35298 0.74235 0.64049
 C1049 C 0.24859 0.12578 0.89173
 C1050 C 0.24831 0.15024 0.87038
 C1051 C 0.74970 0.62163 0.38775
 C1052 C 0.74948 0.64602 0.36628
 C1053 C 0.74481 0.10706 0.11702
 C1054 C 0.74422 0.12964 0.14025
 C1055 C 0.24553 0.60999 0.61780
 C1056 C 0.24523 0.63277 0.64095
 C1057 C 0.75869 0.88235 0.87396
 C1058 C 0.76034 0.85977 0.85067
 C1059 C 0.25531 0.38210 0.37633
 C1060 C 0.25666 0.35949 0.35298
 C1061 C 0.24878 0.88124 0.11475
 C1062 C 0.24806 0.85901 0.13839
 C1063 C 0.74988 0.37976 0.61447
 C1064 C 0.74924 0.35777 0.63838
 C1065 C 0.11731 0.12626 0.75859
 C1066 C 0.13965 0.14978 0.76032
 C1067 C 0.61769 0.62305 0.25541
 C1068 C 0.64033 0.64634 0.25682
 C1069 C 0.11910 0.88668 0.24977
 C1070 C 0.14112 0.86275 0.24894
 C1071 C 0.62027 0.38566 0.75006
 C1072 C 0.64230 0.36172 0.74931
 C1073 C 0.87594 0.10900 0.24892
 C1074 C 0.85138 0.13032 0.24859
 C1075 C 0.37727 0.61193 0.74981
 C1076 C 0.35277 0.63338 0.74953
 C1077 C 0.89365 0.88217 0.74431
 C1078 C 0.87111 0.85888 0.74381
 C1079 C 0.38988 0.38203 0.24561
 C1080 C 0.36716 0.35887 0.24538
   
