data_POSCAR
  _audit_creation_date              2014-09-24
  _audit_creation_method            'ToBaCCo'
  _symmetry_space_group_name_H-M    'P1'
  _symmetry_Int_Tables_number       1
  _symmetry_cell_setting            triclinic
  loop_
  _symmetry_equiv_pos_as_xyz
 x,y,z
_cell_length_a 43.4383
_cell_length_b 44.6949
_cell_length_c 41.6831
_cell_angle_alpha 91.616100
_cell_angle_beta 89.923300
_cell_angle_gamma 92.599800
loop_
  _atom_site_label
  _atom_site_type_symbol
  _atom_site_fract_x
  _atom_site_fract_y
  _atom_site_fract_z
C1 C 0.27174 0.45584 0.99370
 C2 C 0.25043 0.45473 1.02306
 C3 C 0.23274 0.47912 1.02630
 C4 C 0.23790 0.50235 1.00005
 C5 C 0.25040 0.45985 0.96505
 C6 C 0.23269 0.48419 0.96844
 C7 C 0.29043 0.48556 0.99751
 C8 C 0.27278 0.50983 1.00086
 H9 H 0.24917 0.43627 1.03949
 H10 H 0.22353 0.52222 1.00272
 H11 H 0.24881 0.44444 0.94442
 H12 H 0.31547 0.48725 0.99792
 C13 C 0.72942 0.54465 0.00728
 C14 C 0.75031 0.54074 0.03634
 C15 C 0.76799 0.51633 0.03339
 C16 C 0.76322 0.49804 0.00181
 C17 C 0.75117 0.54557 -0.02172
 C18 C 0.76885 0.52114 -0.02450
 C19 C 0.71072 0.51495 0.00337
 C20 C 0.72834 0.49063 0.00050
 H21 H 0.75163 0.55625 0.05689
 H22 H 0.77757 0.47812 -0.00051
 H23 H 0.75275 0.56396 -0.03824
 H24 H 0.68568 0.51328 0.00284
 C25 C 0.04123 0.22351 0.50160
 C26 C 0.03929 0.24156 0.47325
 C27 C 0.01248 0.25906 0.47286
 C28 C -0.00749 0.25530 0.50074
 C29 C 0.03944 0.24572 0.53030
 C30 C 0.01385 0.26242 0.52976
 C31 C 0.01091 0.20468 0.50255
 C32 C -0.01460 0.22127 0.50211
 H33 H 0.05750 0.24352 0.45541
 H34 H -0.02844 0.26871 0.50044
 H35 H 0.05741 0.24901 0.54834
 H36 H 0.00970 0.18036 0.50327
 C37 C 0.95766 0.77699 0.49723
 C38 C 0.95975 0.75467 0.46873
 C39 C 0.98544 0.73816 0.46945
 C40 C 1.00671 0.74550 0.49838
 C41 C 0.95975 0.75793 0.52713
 C42 C 0.98542 0.74141 0.52763
 C43 C 0.98785 0.79591 0.49662
 C44 C 1.01345 0.77953 0.49721
 H45 H 0.94183 0.75111 0.45069
 H46 H 1.02771 0.73221 0.49888
 H47 H 0.94171 0.75622 0.54516
 H48 H 0.98892 0.82022 0.49573
 C49 C 0.50146 0.04611 0.21660
 C50 C 0.47319 0.04521 0.23881
 C51 C 0.47219 0.02124 0.25847
 C52 C 0.49936 0.00053 0.25414
 C53 C 0.52926 0.04563 0.23927
 C54 C 0.52807 0.02168 0.25894
 C55 C 0.50047 0.01737 0.19943
 C56 C 0.49931 -0.00758 0.22009
 H57 H 0.45585 0.06199 0.23917
 H58 H 0.49848 -0.01893 0.27022
 H59 H 0.54786 0.06273 0.23999
 H60 H 0.50034 0.01491 0.17339
 C61 C 0.49786 -0.04775 0.78153
 C62 C 0.46964 -0.04709 0.75955
 C63 C 0.47051 -0.02319 0.73988
 C64 C 0.49933 -0.00218 0.74384
 C65 C 0.52573 -0.04675 0.75891
 C66 C 0.52640 -0.02286 0.73924
 C67 C 0.49925 -0.01735 0.79954
 C68 C 0.50002 0.00642 0.77976
 H69 H 0.45092 -0.06406 0.75932
 H70 H 0.49995 0.01727 0.72777
 H71 H 0.54320 -0.06340 0.75842
 H72 H 0.49970 -0.01485 0.82555
 C73 C 0.29901 0.01984 0.46316
 H74 H 0.30000 0.03635 0.48266
 C75 C 0.32045 0.02168 0.43829
 H76 H 0.33795 0.03975 0.43850
 C77 C 0.27547 -0.02434 0.43945
 H78 H 0.25829 -0.04254 0.44034
 C79 C 0.29654 -0.02333 0.41407
 H80 H 0.29535 -0.04059 0.39528
 N81 N 0.27698 -0.00279 0.46322
 C82 C 0.20547 0.03285 0.52510
 H83 H 0.20365 0.01590 0.54311
 C84 C 0.18643 0.05724 0.52674
 H85 H 0.16989 0.05912 0.54609
 C86 C 0.22867 0.05083 0.47740
 H87 H 0.24470 0.04801 0.45785
 C88 C 0.21007 0.07553 0.47814
 H89 H 0.21204 0.09174 0.45932
 Zn90 Zn 0.25065 -0.00390 0.49932
 N91 N 0.22624 0.03022 0.50082
 C92 C 0.27659 0.01721 0.55923
 N93 N 0.27665 -0.00444 0.53559
 C94 C 0.29705 -0.02665 0.53584
 C95 C 0.31830 -0.02791 0.56075
 C96 C 0.29754 0.01679 0.58464
 C97 C 0.20296 -0.04140 0.47323
 C98 C 0.18195 -0.06601 0.47149
 C99 C 0.20386 -0.08412 0.52013
 C100 C 0.22447 -0.05918 0.52098
 N101 N 0.22378 -0.03852 0.49761
 H102 H 0.26073 0.03508 0.55818
 H103 H 0.29693 -0.04324 0.51643
 H104 H 0.33454 -0.04561 0.56066
 H105 H 0.29756 0.03416 0.60330
 H106 H 0.20258 -0.02441 0.45528
 H107 H 0.16529 -0.06801 0.45214
 H108 H 0.20435 -0.10028 0.53899
 H109 H 0.24062 -0.05617 0.54059
 C110 C 0.18878 0.07877 0.50304
 C111 C 0.31923 -0.00011 0.41357
 C112 C 0.18240 -0.08754 0.49519
 C113 C 0.31861 -0.00596 0.58531
 C114 C 0.70207 0.02545 0.53920
 H115 H 0.70188 0.04310 0.52197
 C116 C 0.68061 0.02473 0.56416
 H117 H 0.66391 0.04195 0.56633
 C118 C 0.72319 -0.01933 0.55668
 H119 H 0.73925 -0.03688 0.55322
 C120 C 0.70212 -0.02089 0.58198
 H121 H 0.70225 -0.03947 0.59811
 N122 N 0.72281 0.00364 0.53594
 C123 C 0.79634 0.04211 0.47637
 H124 H 0.79685 0.02510 0.45742
 C125 C 0.81719 0.06681 0.47604
 H126 H 0.83387 0.06885 0.45678
 C127 C 0.77450 0.05992 0.52508
 H128 H 0.75818 0.05692 0.54441
 C129 C 0.79499 0.08498 0.52567
 H130 H 0.79429 0.10126 0.54538
 Zn131 Zn 0.74864 0.00455 0.49939
 N132 N 0.77541 0.03922 0.50052
 C133 C 0.72382 0.02732 0.44230
 N134 N 0.72226 0.00456 0.46335
 C135 C 0.70013 -0.01792 0.46067
 C136 C 0.67850 -0.01820 0.43591
 C137 C 0.70262 0.02789 0.41718
 C138 C 0.79439 -0.03181 0.52148
 C139 C 0.81334 -0.05623 0.52161
 C140 C 0.78903 -0.07494 0.47246
 C141 C 0.77050 -0.05016 0.47325
 N142 N 0.77327 -0.02939 0.49773
 H143 H 0.74101 0.04539 0.44530
 H144 H 0.69906 -0.03540 0.47812
 H145 H 0.66077 -0.03601 0.43413
 H146 H 0.70376 0.04625 0.40073
 H147 H 0.79640 -0.01476 0.54040
 H148 H 0.83005 -0.05801 0.54066
 H149 H 0.78671 -0.09138 0.45292
 H150 H 0.75410 -0.04752 0.45421
 C151 C 0.81650 0.08845 0.50090
 C152 C 0.68054 0.00123 0.58560
 C153 C 0.81057 -0.07803 0.49692
 C154 C 0.67969 0.00500 0.41408
 C155 C 0.48686 0.21130 1.01462
 H156 H 0.46977 0.20909 0.99574
 C157 C 0.48564 0.19161 1.04000
 H158 H 0.46752 0.17417 1.04078
 C159 C 0.53184 0.23628 1.03632
 H160 H 0.55013 0.25332 1.03448
 C161 C 0.53147 0.21701 1.06215
 H162 H 0.54932 0.21942 1.08028
 N163 N 0.50956 0.23324 1.01336
 C164 C 0.47041 0.29989 0.95295
 H165 H 0.48754 0.30157 0.93414
 C166 C 0.44483 0.31774 0.95251
 H167 H 0.44219 0.33327 0.93331
 C168 C 0.45324 0.27824 1.00149
 H169 H 0.45686 0.26331 1.02090
 C170 C 0.42737 0.29566 1.00196
 H171 H 0.41107 0.29390 1.02159
 Zn172 Zn 0.50974 0.25773 0.97714
 N173 N 0.47401 0.28047 0.97708
 C174 C 0.48738 0.22987 0.91884
 N175 N 0.51060 0.23155 0.94082
 C176 C 0.53393 0.21226 0.93942
 C177 C 0.53439 0.18995 0.91537
 C178 C 0.48694 0.20781 0.89438
 C179 C 0.54621 0.30559 1.00240
 C180 C 0.57123 0.32624 1.00464
 C181 C 0.59217 0.30405 0.95624
 C182 C 0.56673 0.28375 0.95491
 N183 N 0.54456 0.28470 0.97802
 H184 H 0.46862 0.24486 0.92088
 H185 H 0.55170 0.21370 0.95763
 H186 H 0.55263 0.17420 0.91494
 H187 H 0.46796 0.20601 0.87750
 H188 H 0.52805 0.30608 1.02017
 H189 H 0.57236 0.34279 1.02415
 H190 H 0.60970 0.30325 0.93777
 H191 H 0.56466 0.26743 0.93535
 C192 C 0.42314 0.31558 0.97726
 C193 C 0.50814 0.19451 1.06396
 C194 C 0.59445 0.32540 0.98141
 C195 C 0.51050 0.18750 0.89289
 C196 C 0.46899 0.78627 -0.01659
 H197 H 0.45141 0.78748 0.00175
 C198 C 0.46884 0.80558 -0.04231
 H199 H 0.45104 0.82170 -0.04389
 C200 C 0.51428 0.76447 -0.03646
 H201 H 0.53234 0.74891 -0.03373
 C202 C 0.51499 0.78340 -0.06257
 H203 H 0.53342 0.78219 -0.08003
 N204 N 0.49138 0.76613 -0.01423
 C205 C 0.45090 0.69778 0.04766
 H206 H 0.46781 0.69803 0.06671
 C207 C 0.42555 0.67739 0.04803
 H208 H 0.42289 0.66184 0.06742
 C209 C 0.43428 0.71685 -0.00163
 H210 H 0.43811 0.73172 -0.02135
 C211 C 0.40864 0.69685 -0.00218
 H212 H 0.39275 0.69652 -0.02221
 Zn213 Zn 0.49073 0.74252 0.02272
 N214 N 0.45475 0.71701 0.02309
 C215 C 0.46885 0.76985 0.08068
 N216 N 0.49171 0.76963 0.05831
 C217 C 0.51533 0.79068 0.05901
 C218 C 0.51664 0.81316 0.08289
 C219 C 0.46924 0.79206 0.10501
 C220 C 0.52746 0.69705 -0.00077
 C221 C 0.55276 0.67889 -0.00226
 C222 C 0.57282 0.70406 0.04589
 C223 C 0.54713 0.72178 0.04649
 N224 N 0.52533 0.71829 0.02306
 H225 H 0.44989 0.75338 0.07922
 H226 H 0.53284 0.79029 0.04054
 H227 H 0.53525 0.83014 0.08291
 H228 H 0.45068 0.79255 0.12238
 H229 H 0.50958 0.69449 -0.01882
 H230 H 0.55442 0.66221 -0.02149
 H231 H 0.59018 0.70707 0.06448
 H232 H 0.54470 0.73826 0.06565
 C233 C 0.40432 0.67687 0.02280
 C234 C 0.49209 0.80416 -0.06544
 C235 C 0.57573 0.68257 0.02117
 C236 C 0.49328 0.81400 0.10594
 C237 C 1.03757 0.46787 0.20917
 H238 H 1.01937 0.45052 0.20857
 C239 C 1.06154 0.46699 0.18689
 H240 H 1.06192 0.44881 0.16916
 C241 C 1.05879 0.51329 0.23237
 H242 H 1.05727 0.53162 0.24967
 C243 C 1.08321 0.51327 0.21045
 H244 H 1.10061 0.53143 0.21114
 N245 N 1.03666 0.49071 0.23140
 C246 C 0.97694 0.45424 0.30670
 H247 H 0.95922 0.47050 0.30757
 C248 C 0.97591 0.43057 0.32798
 H249 H 0.95730 0.42849 0.34520
 C250 C 1.02338 0.43750 0.28390
 H251 H 1.04220 0.44058 0.26719
 C252 C 1.02322 0.41354 0.30472
 H253 H 1.04176 0.39812 0.30373
 Zn254 Zn 1.00155 0.49089 0.25840
 N255 N 1.00035 0.45718 0.28512
 C256 C 0.94403 0.46836 0.23143
 N257 N 0.96695 0.49016 0.23074
 C258 C 0.96696 0.51207 0.20873
 C259 C 0.94301 0.51299 0.18658
 C260 C 0.91956 0.46846 0.20961
 C261 C 1.02524 0.53000 0.30737
 C262 C 1.02595 0.55492 0.32848
 C263 C 0.97895 0.57051 0.30437
 C264 C 0.97911 0.54535 0.28374
 N265 N 1.00217 0.52581 0.28540
 H266 H 0.94479 0.45078 0.24863
 H267 H 0.98571 0.52884 0.20842
 H268 H 0.94323 0.53059 0.16922
 H269 H 0.90136 0.45110 0.21024
 H270 H 1.04300 0.51386 0.30857
 H271 H 1.04435 0.55807 0.34593
 H272 H 0.96043 0.58586 0.30294
 H273 H 0.96054 0.54130 0.26676
 C274 C 0.99933 0.41007 0.32701
 C275 C 1.08450 0.48995 0.18744
 C276 C 1.00256 0.57534 0.32694
 C277 C 0.91909 0.49102 0.18701
 C278 C -0.03743 0.48609 0.79226
 H279 H -0.02048 0.46909 0.79243
 C280 C -0.06120 0.48571 0.81487
 H281 H -0.06270 0.46827 0.83241
 C282 C -0.05558 0.53026 0.76998
 H283 H -0.05290 0.54797 0.75297
 C284 C -0.07970 0.53070 0.79219
 H285 H -0.09571 0.54859 0.79198
 N286 N -0.03509 0.50810 0.77036
 C287 C 0.02135 0.47198 0.69296
 H288 H 0.03917 0.48964 0.69186
 C289 C 0.02192 0.44732 0.67167
 H290 H 0.04028 0.44591 0.65415
 C291 C -0.02455 0.45235 0.71692
 H292 H -0.04283 0.45458 0.73429
 C293 C -0.02484 0.42729 0.69603
 H294 H -0.04320 0.41016 0.69758
 Zn295 Zn -0.00040 0.50845 0.74275
 N296 N -0.00145 0.47390 0.71525
 C297 C 0.05493 0.48679 0.76796
 N298 N 0.03487 0.50932 0.76953
 C299 C 0.03798 0.53181 0.79217
 C300 C 0.06204 0.53221 0.81442
 C301 C 0.07931 0.48635 0.78975
 C302 C -0.02318 0.54353 0.69460
 C303 C -0.02391 0.56731 0.67364
 C304 C 0.02351 0.58791 0.69724
 C305 C 0.02336 0.56371 0.71781
 N306 N 0.00008 0.54226 0.71629
 H307 H 0.05165 0.46870 0.75041
 H308 H 0.02135 0.54911 0.79329
 H309 H 0.06409 0.54995 0.83264
 H310 H 0.09489 0.46810 0.78865
 H311 H -0.04113 0.52594 0.69358
 H312 H -0.04254 0.56813 0.65648
 H313 H 0.04211 0.60489 0.69855
 H314 H 0.04198 0.56197 0.73471
 C315 C -0.00134 0.42473 0.67327
 C316 C -0.08244 0.50830 0.81492
 C317 C -0.00036 0.58971 0.67497
 C318 C 0.08277 0.50915 0.81331
 C319 C 0.06804 0.20464 0.50210
 C320 C 0.08878 0.18762 0.50258
 C321 C 0.11177 0.16629 0.50312
 C322 C 0.13045 0.14716 0.50347
 C323 C 0.15139 0.12390 0.50367
 C324 C 0.16867 0.10352 0.50357
 C325 C 0.70943 0.57016 0.01028
 C326 C 0.69137 0.58980 0.01256
 C327 C 0.66872 0.61138 0.01498
 C328 C 0.64837 0.62879 0.01681
 C329 C 0.62364 0.64816 0.01865
 C330 C 0.60199 0.66408 0.01996
 C331 C 0.93074 -0.20433 0.49664
 C332 C 0.90991 -0.18741 0.49630
 C333 C 0.88688 -0.16612 0.49606
 C334 C 0.86823 -0.14695 0.49600
 C335 C 0.84741 -0.12358 0.49611
 C336 C 0.83032 -0.10305 0.49638
 C337 C 0.29165 0.43032 0.99011
 C338 C 0.30950 0.41054 0.98726
 C339 C 0.33179 0.38866 0.98415
 C340 C 0.35177 0.37089 0.98182
 C341 C 0.37604 0.35101 0.97958
 C342 C 0.39731 0.33462 0.97818
 C343 C 0.95497 0.20702 0.50227
 C344 C 0.93078 0.19271 0.50235
 C345 C 0.90396 0.17364 0.50235
 C346 C 0.88230 0.15578 0.50225
 C347 C 0.85829 0.13339 0.50198
 C348 C 0.83878 0.11331 0.50158
 C349 C 0.28672 0.53947 0.00552
 C350 C 0.30074 0.56319 0.00926
 C351 C 0.31949 0.58963 0.01331
 C352 C 0.33714 0.61109 0.01636
 C353 C 0.35939 0.63500 0.01936
 C354 C 0.37943 0.65451 0.02131
 C355 C 0.04377 -0.20601 0.49663
 C356 C 0.06786 -0.19156 0.49610
 C357 C 0.09458 -0.17238 0.49551
 C358 C 0.11619 -0.15449 0.49511
 C359 C 0.14022 -0.13213 0.49483
 C360 C 0.15984 -0.11216 0.49483
 C361 C 0.71433 0.46096 0.99651
 C362 C 0.70014 0.43728 0.99335
 C363 C 0.68107 0.41100 0.98995
 C364 C 0.66306 0.38977 0.98736
 C365 C 0.64034 0.36626 0.98477
 C366 C 0.61986 0.34718 0.98299
 C367 C 0.50271 0.07154 1.19511
 C368 C 0.50379 0.09186 1.17672
 C369 C 0.50504 0.11496 1.15437
 C370 C 0.50603 0.13410 1.13460
 C371 C 0.50703 0.15581 1.11071
 C372 C 0.50768 0.17377 1.08969
 C373 C -0.01024 0.71907 0.55132
 C374 C -0.00728 0.70004 0.57089
 C375 C -0.00456 0.67737 0.59354
 C376 C -0.00280 0.65773 0.61263
 C377 C -0.00137 0.63439 0.63468
 C378 C -0.00065 0.61418 0.65321
 C379 C 0.49703 0.92690 -0.19690
 C380 C 0.49633 0.90663 -0.17844
 C381 C 0.49550 0.88358 -0.15603
 C382 C 0.49476 0.86447 -0.13622
 C383 C 0.49387 0.84279 -0.11228
 C384 C 0.49307 0.82486 -0.09123
 C385 C 1.00882 0.28077 0.45094
 C386 C 1.00605 0.30016 0.43172
 C387 C 1.00338 0.32309 0.40935
 C388 C 1.00162 0.34282 0.39036
 C389 C 1.00016 0.36609 0.36821
 C390 C 0.99946 0.38607 0.34939
 C391 C 0.49776 0.96365 0.20828
 C392 C 0.49644 0.93874 0.19643
 C393 C 0.49507 0.91035 0.18076
 C394 C 0.49412 0.88685 0.16585
 C395 C 0.49336 0.86035 0.14665
 C396 C 0.49309 0.83866 0.12882
 C397 C 0.00934 0.28682 0.55242
 C398 C 0.00624 0.30746 0.57122
 C399 C 0.00334 0.33189 0.59312
 C400 C 0.00145 0.35291 0.61168
 C401 C -0.00012 0.37774 0.63328
 C402 C -0.00094 0.39908 0.65159
 C403 C 0.50159 0.03684 0.79211
 C404 C 0.50294 0.06179 0.80386
 C405 C 0.50454 0.09028 0.81931
 C406 C 0.50591 0.11391 0.83397
 C407 C 0.50753 0.14062 0.85282
 C408 C 0.50890 0.16254 0.87034
 C409 C 0.99017 0.71362 0.44704
 C410 C 0.99359 0.69282 0.42851
 C411 C 0.99694 0.66821 0.40695
 C412 C 0.99922 0.64706 0.38862
 C413 C 1.00117 0.62215 0.36719
 C414 C 1.00219 0.60083 0.34887
 C415 C 1.21060 0.48227 0.05183
 C416 C 1.19200 0.48452 0.07316
 C417 C 1.17003 0.48668 0.09804
 C418 C 1.15103 0.48811 0.11908
 C419 C 1.12840 0.48928 0.14339
 C420 C 1.10866 0.48984 0.16375
 C421 C 0.55047 -0.01776 0.71599
 C422 C 0.57066 -0.01383 0.69652
 C423 C 0.59430 -0.00966 0.67364
 C424 C 0.61441 -0.00651 0.65392
 C425 C 0.63775 -0.00330 0.63056
 C426 C 0.65744 -0.00099 0.61028
 C427 C -0.20861 0.51786 0.95038
 C428 C -0.18972 0.51552 0.92934
 C429 C -0.16750 0.51324 0.90473
 C430 C -0.14839 0.51164 0.88382
 C431 C -0.12577 0.51014 0.85952
 C432 C -0.10620 0.50915 0.83901
 C433 C 0.44800 0.01627 0.28161
 C434 C 0.42776 0.01248 0.30105
 C435 C 0.40415 0.00855 0.32401
 C436 C 0.38416 0.00569 0.34388
 C437 C 0.36108 0.00297 0.36757
 C438 C 0.34173 0.00122 0.38826
 C439 C 0.20985 0.49093 0.94497
 C440 C 0.19074 0.49570 0.92502
 C441 C 0.16829 0.50032 0.90141
 C442 C 0.14901 0.50348 0.88114
 C443 C 0.12625 0.50630 0.85738
 C444 C 0.10659 0.50799 0.83719
 C445 C 0.55142 0.01730 0.28260
 C446 C 0.57113 0.01419 0.30238
 C447 C 0.59430 0.01117 0.32557
 C448 C 0.61409 0.00909 0.34549
 C449 C 0.63717 0.00719 0.36903
 C450 C 0.65670 0.00598 0.38939
 C451 C 0.79046 0.50956 0.05723
 C452 C 0.80939 0.50464 0.07732
 C453 C 0.83177 0.49976 0.10092
 C454 C 0.85116 0.49640 0.12102
 C455 C 0.87427 0.49344 0.14438
 C456 C 0.89443 0.49181 0.16404
 C457 C 0.44663 -0.01867 0.71684
 C458 C 0.42660 -0.01534 0.69747
 C459 C 0.40318 -0.01204 0.67461
 C460 C 0.38332 -0.00976 0.65481
 C461 C 0.36034 -0.00774 0.63120
 C462 C 0.34106 -0.00660 0.61057
   
