data_POSCAR
  _audit_creation_date              2014-09-24
  _audit_creation_method            'ToBaCCo'
  _symmetry_space_group_name_H-M    'P1'
  _symmetry_Int_Tables_number       1
  _symmetry_cell_setting            triclinic
  loop_
  _symmetry_equiv_pos_as_xyz
 x,y,z
_cell_length_a 38.3692
_cell_length_b 38.4225
_cell_length_c 38.3652
_cell_angle_alpha 90.373600
_cell_angle_beta 79.963200
_cell_angle_gamma 90.464600
loop_
  _atom_site_label
  _atom_site_type_symbol
  _atom_site_fract_x
  _atom_site_fract_y
  _atom_site_fract_z
O1 O 0.54113 0.49438 0.03090
 O2 O 0.44577 0.49567 0.02759
 O3 O 0.49231 0.44706 0.02931
 O4 O 0.49404 0.54280 0.02918
 O5 O 0.50522 0.54239 -0.02923
 O6 O 0.50638 0.44667 -0.02896
 O7 O 0.45781 0.49338 -0.03067
 O8 O 0.55323 0.49576 -0.02746
 Cu9 Cu 0.49216 0.49498 0.03510
 Cu10 Cu 0.50681 0.49448 -0.03494
 C11 C 0.56349 0.49526 0.00227
 C12 C 0.43534 0.49455 -0.00208
 C13 C 0.49931 0.43049 0.00021
 C14 C 0.49967 0.55897 -0.00006
 O15 O -0.02906 0.55442 0.50730
 O16 O -0.02916 0.45851 0.50576
 O17 O -0.02689 0.50573 0.55373
 O18 O -0.03140 0.50696 0.45873
 O19 O 0.02693 0.50562 0.44594
 O20 O 0.03144 0.50788 0.54095
 O21 O 0.02922 0.45892 0.49379
 O22 O 0.02906 0.55481 0.49251
 Cu23 Cu -0.03498 0.50643 0.50760
 Cu24 Cu 0.03501 0.50692 0.49207
 C25 C -0.00001 0.57115 0.49993
 C26 C 0.00003 0.44230 0.49976
 C27 C 0.00303 0.50670 0.56359
 C28 C -0.00299 0.50602 0.43608
 O29 O 0.49780 0.02710 0.54934
 O30 O 0.50246 0.02754 0.45268
 O31 O 0.45143 0.02754 0.50699
 O32 O 0.54879 0.02722 0.49500
 O33 O 0.54787 -0.03015 0.49745
 O34 O 0.45118 -0.02981 0.50353
 O35 O 0.50481 -0.02983 0.45180
 O36 O 0.49414 -0.03016 0.54920
 Cu37 Cu 0.50018 0.03311 0.50106
 Cu38 Cu 0.49946 -0.03575 0.50045
 C39 C 0.49485 -0.00158 0.56599
 C40 C 0.50472 -0.00106 0.43566
 C41 C 0.43473 -0.00110 0.50656
 C42 C 0.56491 -0.00154 0.49488
 O43 O 0.46846 -0.00651 -0.04158
 O44 O 0.47221 -0.00440 0.05372
 O45 O 0.47025 0.04236 0.00582
 O46 O 0.47045 -0.05337 0.00687
 O47 O 0.52870 -0.05290 -0.00749
 O48 O 0.52865 0.04284 -0.00565
 O49 O 0.53056 -0.00570 0.04135
 O50 O 0.52681 -0.00412 -0.05395
 Cu51 Cu 0.46448 -0.00557 0.00739
 Cu52 Cu 0.53454 -0.00498 -0.00762
 C53 C 0.49700 -0.00523 -0.06404
 C54 C 0.50201 -0.00488 0.06383
 C55 C 0.49942 0.05897 0.00014
 C56 C 0.49960 -0.06951 -0.00036
 O57 O -0.04761 0.52833 1.00212
 O58 O 0.04898 0.52825 0.99791
 O59 O 0.00688 0.52848 0.95127
 O60 O -0.00552 0.52816 1.04867
 O61 O -0.00300 0.47079 1.04784
 O62 O 0.00351 0.47111 0.95111
 O63 O 0.04895 0.47089 0.99433
 O64 O -0.04842 0.47096 1.00455
 Cu65 Cu 0.00073 0.53408 1.00003
 Cu66 Cu 0.00022 0.46517 0.99941
 C67 C -0.06459 0.49967 1.00436
 C68 C 0.06552 0.49958 0.99512
 C69 C 0.00656 0.49983 0.93460
 C70 C -0.00566 0.49940 1.06484
 O71 O 0.00599 -0.04232 0.47085
 O72 O 0.00729 0.05360 0.47094
 O73 O 0.05384 0.00507 0.47308
 O74 O -0.04119 0.00597 0.46872
 O75 O -0.05389 0.00474 0.52706
 O76 O 0.04115 0.00683 0.53142
 O77 O -0.00714 0.05386 0.52918
 O78 O -0.00621 -0.04205 0.52924
 Cu79 Cu 0.00770 0.00562 0.46504
 Cu80 Cu -0.00774 0.00594 0.53509
 C81 C -0.00013 -0.05858 0.50004
 C82 C 0.00010 0.07014 0.50006
 C83 C 0.06375 0.00585 0.50298
 C84 C -0.06379 0.00507 0.49716
 C85 C -0.32494 0.49717 1.00549
 C86 C -0.33766 0.50897 0.97549
 C87 C -0.37386 0.50801 0.97436
 C88 C -0.39819 0.49585 1.00347
 C89 C -0.38556 0.48435 1.03362
 C90 C -0.34925 0.48468 1.03449
 C91 C -0.28653 0.49793 1.00642
 N92 N -0.27248 0.47682 1.02855
 N93 N -0.23782 0.47726 1.02898
 C94 C -0.21585 0.49906 1.00751
 N95 N -0.22995 0.52030 0.98553
 N96 N -0.26454 0.51965 0.98490
 C97 C -0.17729 0.49948 1.00769
 C98 C -0.15661 0.52860 0.99510
 C99 C -0.12012 0.52888 0.99468
 C100 C -0.10341 0.49978 1.00622
 C101 C -0.12406 0.47064 1.01883
 C102 C -0.16070 0.47062 1.01988
 H103 H -0.31958 0.51859 0.95268
 H104 H -0.38285 0.51717 0.95082
 H105 H -0.40371 0.47474 1.05640
 H106 H -0.34024 0.47554 1.05802
 H107 H -0.16866 0.55129 0.98570
 H108 H -0.10486 0.55166 0.98470
 H109 H -0.11190 0.44789 1.02799
 H110 H -0.17592 0.44775 1.02961
 C111 C 0.32549 0.49583 0.99473
 C112 C 0.33771 0.50051 1.02687
 C113 C 0.37389 0.49957 1.02799
 C114 C 0.39889 0.49473 0.99680
 C115 C 0.38649 0.49030 0.96454
 C116 C 0.35019 0.49044 0.96363
 C117 C 0.28714 0.49678 0.99378
 N118 N 0.27346 0.47948 0.96819
 N119 N 0.23882 0.48009 0.96768
 C120 C 0.21655 0.49834 0.99251
 N121 N 0.23028 0.51580 1.01793
 N122 N 0.26484 0.51490 1.01865
 C123 C 0.17808 0.49900 0.99216
 C124 C 0.15752 0.52708 1.00743
 C125 C 0.12107 0.52756 1.00768
 C126 C 0.10430 0.49962 0.99336
 C127 C 0.12481 0.47150 0.97812
 C128 C 0.16143 0.47138 0.97715
 H129 H 0.31923 0.50451 1.05130
 H130 H 0.38220 0.50312 1.05336
 H131 H 0.40476 0.48642 0.93995
 H132 H 0.34148 0.48691 0.93845
 H133 H 0.16967 0.54879 1.01904
 H134 H 0.10587 0.54950 1.01974
 H135 H 0.11255 0.44967 0.96681
 H136 H 0.17662 0.44935 0.96533
 C137 C -0.00006 -0.31847 0.50002
 C138 C 0.03142 -0.33685 0.48878
 C139 C 0.03154 -0.37324 0.48907
 C140 C -0.00002 -0.39222 0.49997
 C141 C -0.03161 -0.37364 0.51089
 C142 C -0.03152 -0.33725 0.51124
 C143 C -0.00008 -0.27994 0.50002
 N144 N -0.02598 -0.26197 0.52117
 N145 N -0.02592 -0.22729 0.52129
 C146 C -0.00013 -0.20915 0.50003
 N147 N 0.02569 -0.22712 0.47877
 N148 N 0.02579 -0.26179 0.47888
 C149 C -0.00015 -0.17061 0.50003
 C150 C 0.01778 -0.15207 0.47075
 C151 C 0.01748 -0.11568 0.47061
 C152 C -0.00016 -0.09707 0.50003
 C153 C -0.01780 -0.11558 0.52944
 C154 C -0.01809 -0.15199 0.52930
 H155 H 0.05613 -0.32308 0.48014
 H156 H 0.05642 -0.38642 0.48042
 H157 H -0.05647 -0.38715 0.51953
 H158 H -0.05624 -0.32379 0.51989
 H159 H 0.03171 -0.16570 0.44775
 H160 H 0.03140 -0.10208 0.44763
 H161 H -0.03172 -0.10192 0.55243
 H162 H -0.03202 -0.16555 0.55230
 C163 C 0.00008 0.33020 0.49982
 C164 C 0.03019 0.34895 0.48379
 C165 C 0.03026 0.38535 0.48401
 C166 C 0.00004 0.40378 0.49976
 C167 C -0.03016 0.38505 0.51553
 C168 C -0.03004 0.34866 0.51581
 C169 C 0.00011 0.29163 0.49987
 N170 N -0.02397 0.27353 0.52316
 N171 N -0.02387 0.23885 0.52329
 C172 C 0.00016 0.22081 0.49996
 N173 N 0.02416 0.23892 0.47659
 N174 N 0.02421 0.27359 0.47663
 C175 C 0.00017 0.18225 0.50000
 C176 C 0.01721 0.16357 0.47033
 C177 C 0.01695 0.12717 0.47025
 C178 C 0.00015 0.10866 0.50005
 C179 C -0.01663 0.12732 0.52984
 C180 C -0.01687 0.16372 0.52970
 H181 H 0.05386 0.33550 0.47137
 H182 H 0.05389 0.39907 0.47156
 H183 H -0.05380 0.39854 0.52797
 H184 H -0.05370 0.33498 0.52826
 H185 H 0.03045 0.17707 0.44699
 H186 H 0.03020 0.11350 0.44695
 H187 H -0.02989 0.11378 0.55315
 H188 H -0.03011 0.17735 0.55303
 C189 C 0.49078 -0.00199 -0.32290
 C190 C 0.49674 0.02914 -0.34204
 C191 C 0.49731 0.02941 -0.37856
 C192 C 0.49277 -0.00166 -0.39704
 C193 C 0.48672 -0.03284 -0.37768
 C194 C 0.48536 -0.03289 -0.34100
 C195 C 0.49090 -0.00225 -0.28437
 N196 N 0.47295 -0.02715 -0.26334
 N197 N 0.47340 -0.02746 -0.22869
 C198 C 0.49213 -0.00311 -0.21374
 N199 N 0.51015 0.02170 -0.23480
 N200 N 0.50941 0.02222 -0.26937
 C201 C 0.49323 -0.00374 -0.17541
 C202 C 0.52226 0.01069 -0.16247
 C203 C 0.52362 0.00981 -0.12633
 C204 C 0.49562 -0.00481 -0.10229
 C205 C 0.46638 -0.01890 -0.11513
 C206 C 0.46539 -0.01874 -0.15142
 H207 H 0.50077 0.05340 -0.32872
 H208 H 0.50202 0.05397 -0.39234
 H209 H 0.48296 -0.05729 -0.39078
 H210 H 0.48083 -0.05730 -0.32691
 H211 H 0.54417 0.02227 -0.18037
 H212 H 0.54641 0.02099 -0.11712
 H213 H 0.44449 -0.03043 -0.09716
 H214 H 0.44263 -0.02993 -0.16065
 C215 C 0.50822 -0.00095 0.32291
 C216 C 0.49572 0.02815 0.34360
 C217 C 0.49526 0.02833 0.38011
 C218 C 0.50669 -0.00083 0.39681
 C219 C 0.51924 -0.02993 0.37615
 C220 C 0.52032 -0.02986 0.33951
 C221 C 0.50800 -0.00129 0.28436
 N222 N 0.52936 -0.02308 0.26237
 N223 N 0.52886 -0.02348 0.22772
 C224 C 0.50674 -0.00232 0.21370
 N225 N 0.48534 0.01940 0.23572
 N226 N 0.48605 0.02000 0.27030
 C227 C 0.50569 -0.00306 0.17531
 C228 C 0.47565 0.00875 0.16271
 C229 C 0.47437 0.00781 0.12653
 C230 C 0.50338 -0.00433 0.10212
 C231 C 0.53358 -0.01585 0.11464
 C232 C 0.53459 -0.01554 0.15093
 H233 H 0.48639 0.05088 0.33156
 H234 H 0.48533 0.05108 0.39537
 H235 H 0.52831 -0.05273 0.38831
 H236 H 0.52998 -0.05271 0.32428
 H237 H 0.45290 0.01836 0.18085
 H238 H 0.45080 0.01698 0.11763
 H239 H 0.55628 -0.02544 0.09641
 H240 H 0.55815 -0.02469 0.15985
 C241 C 0.49982 -0.32913 -0.00026
 C242 C 0.51548 -0.34781 -0.03049
 C243 C 0.51520 -0.38418 -0.03052
 C244 C 0.49975 -0.40258 -0.00013
 C245 C 0.48435 -0.38392 0.03019
 C246 C 0.48413 -0.34756 0.03003
 C247 C 0.49980 -0.29064 -0.00033
 N248 N 0.47667 -0.27261 0.02387
 N249 N 0.47656 -0.23796 0.02375
 C250 C 0.49975 -0.21990 -0.00044
 N251 N 0.52297 -0.23792 -0.02457
 N252 N 0.52291 -0.27259 -0.02460
 C253 C 0.49971 -0.18141 -0.00048
 C254 C 0.52935 -0.16269 -0.01759
 C255 C 0.52942 -0.12633 -0.01733
 C256 C 0.49964 -0.10795 -0.00044
 C257 C 0.46988 -0.12666 0.01641
 C258 C 0.47002 -0.16301 0.01663
 H259 H 0.52765 -0.33434 -0.05428
 H260 H 0.52737 -0.39790 -0.05423
 H261 H 0.47215 -0.39742 0.05395
 H262 H 0.47198 -0.33389 0.05377
 H263 H 0.55267 -0.17614 -0.03088
 H264 H 0.55269 -0.11259 -0.03062
 H265 H 0.44659 -0.11318 0.02973
 H266 H 0.44673 -0.17671 0.02992
 C267 C 0.49922 0.31859 0.00035
 C268 C 0.51619 0.33705 -0.02940
 C269 C 0.51596 0.37341 -0.02955
 C270 C 0.49926 0.39204 0.00027
 C271 C 0.48252 0.37360 0.03013
 C272 C 0.48226 0.33724 0.03006
 C273 C 0.49924 0.28010 0.00039
 N274 N 0.47521 0.26201 0.02372
 N275 N 0.47516 0.22734 0.02365
 C276 C 0.49929 0.20936 0.00040
 N277 N 0.52340 0.22745 -0.02284
 N278 N 0.52330 0.26211 -0.02293
 C279 C 0.49932 0.17087 0.00039
 C280 C 0.52953 0.15249 -0.01550
 C281 C 0.52965 0.11613 -0.01531
 C282 C 0.49938 0.09741 0.00026
 C283 C 0.46909 0.11576 0.01591
 C284 C 0.46915 0.15213 0.01622
 H285 H 0.52936 0.32341 -0.05275
 H286 H 0.52917 0.38694 -0.05289
 H287 H 0.46934 0.38729 0.05344
 H288 H 0.46909 0.32373 0.05344
 H289 H 0.55322 0.16620 -0.02778
 H290 H 0.55334 0.10267 -0.02767
 H291 H 0.44542 0.10200 0.02821
 H292 H 0.44543 0.16556 0.02855
 C293 C -0.32232 -0.00140 0.49008
 C294 C -0.33907 0.02749 0.47817
 C295 C -0.37574 0.02745 0.47960
 C296 C -0.39623 -0.00173 0.49233
 C297 C -0.37937 -0.03091 0.50347
 C298 C -0.34284 -0.03063 0.50265
 C299 C -0.28381 -0.00084 0.49020
 N300 N -0.26964 -0.02205 0.51213
 N301 N -0.23509 -0.02113 0.51290
 C302 C -0.21324 0.00086 0.49159
 N303 N -0.22736 0.02192 0.46946
 N304 N -0.26199 0.02120 0.46890
 C305 C -0.17496 0.00204 0.49284
 C306 C -0.15059 0.01478 0.46403
 C307 C -0.11438 0.01551 0.46525
 C308 C -0.10196 0.00418 0.49558
 C309 C -0.12638 -0.00821 0.52450
 C310 C -0.16246 -0.00957 0.52301
 H311 H -0.32395 0.05043 0.46846
 H312 H -0.38805 0.05026 0.47074
 H313 H -0.39452 -0.05373 0.51352
 H314 H -0.33064 -0.05334 0.51183
 H315 H -0.15947 0.02378 0.44038
 H316 H -0.09612 0.02528 0.44262
 H317 H -0.11753 -0.01725 0.54815
 H318 H -0.18063 -0.01935 0.54569
 C319 C 0.32204 -0.00031 0.51082
 C320 C 0.33928 0.02847 0.52315
 C321 C 0.37592 0.02822 0.52192
 C322 C 0.39588 -0.00106 0.50896
 C323 C 0.37851 -0.03012 0.49740
 C324 C 0.34202 -0.02963 0.49803
 C325 C 0.28359 0.00044 0.51047
 N326 N 0.26915 -0.02074 0.48826
 N327 N 0.23466 -0.01973 0.48733
 C328 C 0.21311 0.00234 0.50876
 N329 N 0.22748 0.02339 0.53115
 N330 N 0.26206 0.02257 0.53188
 C331 C 0.17488 0.00353 0.50740
 C332 C 0.15061 0.01632 0.53625
 C333 C 0.11440 0.01689 0.53497
 C334 C 0.10192 0.00532 0.50456
 C335 C 0.12624 -0.00706 0.47558
 C336 C 0.16230 -0.00825 0.47711
 H337 H 0.32458 0.05148 0.53304
 H338 H 0.38863 0.05094 0.53110
 H339 H 0.39323 -0.05301 0.48716
 H340 H 0.32944 -0.05227 0.48853
 H341 H 0.15954 0.02545 0.55999
 H342 H 0.09622 0.02665 0.55765
 H343 H 0.11734 -0.01628 0.45185
 H344 H 0.18039 -0.01808 0.45439
 C345 C -0.00751 0.50305 1.32494
 C346 C -0.03625 0.51582 1.34934
 C347 C -0.03496 0.51654 1.38554
 C348 C -0.00464 0.50516 1.39792
 C349 C 0.02421 0.49275 1.37349
 C350 C 0.02265 0.49140 1.33741
 C351 C -0.00883 0.50185 1.28668
 N352 N 0.01238 0.47984 1.26486
 N353 N 0.01154 0.47890 1.23032
 C354 C -0.01035 0.50012 1.21613
 N355 N -0.03156 0.52219 1.23793
 N356 N -0.03093 0.52293 1.27255
 C357 C -0.01053 0.49954 1.17763
 C358 C -0.02239 0.52843 1.16082
 C359 C -0.02096 0.52838 1.12415
 C360 C -0.00828 0.49919 1.10371
 C361 C 0.00279 0.47002 1.12064
 C362 C 0.00197 0.47031 1.15718
 H363 H -0.05989 0.52485 1.34048
 H364 H -0.05753 0.52633 1.40382
 H365 H 0.04786 0.48367 1.38231
 H366 H 0.04527 0.48159 1.31923
 H367 H -0.03205 0.55137 1.17590
 H368 H -0.02977 0.55119 1.11179
 H369 H 0.01281 0.44720 1.10554
 H370 H 0.01111 0.44759 1.16942
 C371 C 0.00759 0.50436 0.67470
 C372 C 0.03636 0.51735 0.65040
 C373 C 0.03504 0.51792 0.61420
 C374 C 0.00466 0.50616 0.60175
 C375 C -0.02423 0.49357 0.62611
 C376 C -0.02266 0.49239 0.66216
 C377 C 0.00898 0.50318 0.71293
 N378 N -0.01232 0.48097 0.73450
 N379 N -0.01138 0.47996 0.76900
 C380 C 0.01072 0.50130 0.78341
 N381 N 0.03202 0.52358 0.76186
 N382 N 0.03128 0.52439 0.72728
 C383 C 0.01106 0.50057 0.82187
 C384 C 0.02324 0.52943 0.83910
 C385 C 0.02194 0.52920 0.87575
 C386 C 0.00908 0.49985 0.89574
 C387 C -0.00231 0.47070 0.87838
 C388 C -0.00161 0.47117 0.84188
 H389 H 0.06006 0.52664 0.65931
 H390 H 0.05765 0.52784 0.59599
 H391 H -0.04793 0.48420 0.61723
 H392 H -0.04531 0.48241 0.68027
 H393 H 0.03304 0.55249 0.82437
 H394 H 0.03099 0.55199 0.88845
 H395 H -0.01247 0.44776 0.89312
 H396 H -0.01099 0.44847 0.82931
   
