data_POSCAR
  _audit_creation_date              2014-09-24
  _audit_creation_method            'ToBaCCo'
  _symmetry_space_group_name_H-M    'P1'
  _symmetry_Int_Tables_number       1
  _symmetry_cell_setting            triclinic
  loop_
  _symmetry_equiv_pos_as_xyz
 x,y,z
_cell_length_a 20.4074
_cell_length_b 20.3731
_cell_length_c 20.3694
_cell_angle_alpha 90.138500
_cell_angle_beta 89.999500
_cell_angle_gamma 89.997500
loop_
  _atom_site_label
  _atom_site_type_symbol
  _atom_site_fract_x
  _atom_site_fract_y
  _atom_site_fract_z
C1 C 0.29415 0.99862 -0.46835
 C2 C 0.29402 0.99688 -0.53560
 C3 C 0.35913 0.99823 -0.55542
 N4 N 0.39867 1.00067 -0.50229
 C5 C 0.35926 1.00088 -0.44898
 C6 C 0.38037 0.99958 -0.62158
 C7 C 0.44690 1.00193 -0.64187
 C8 C 0.46700 1.01284 -0.70608
 C9 C 0.53422 1.01182 -0.70612
 C10 C 0.55402 1.00041 -0.64191
 N11 N 0.50037 0.99343 -0.60328
 C12 C 0.62045 0.99658 -0.62157
 C13 C 0.64165 0.99666 -0.55537
 C14 C 0.70676 0.99575 -0.53553
 C15 C 0.70665 0.99948 -0.46836
 C16 C 0.64154 1.00223 -0.44903
 N17 N 0.60210 1.00059 -0.50231
 C18 C 0.62024 1.00438 -0.38299
 C19 C 0.55393 1.00305 -0.36243
 C20 C 0.53418 0.99544 -0.29770
 C21 C 0.46694 0.99447 -0.29771
 C22 C 0.44698 1.00162 -0.36244
 N23 N 0.50039 1.00795 -0.40140
 C24 C 0.38062 1.00159 -0.38294
 H25 H 0.25110 0.99804 -0.43732
 H26 H 0.25081 0.99524 -0.56638
 H27 H 0.50030 1.01923 -0.45086
 H28 H 0.43637 1.02128 -0.74862
 H29 H 0.56506 1.01943 -0.74866
 H30 H 0.74996 0.99327 -0.56627
 H31 H 0.74971 0.99967 -0.43734
 H32 H 0.43630 0.98826 -0.25480
 H33 H 0.50025 0.97833 -0.55477
 H34 H 0.56498 0.99000 -0.25480
 C35 C -0.70842 1.53386 -0.00174
 C36 C -0.70847 1.46673 0.00201
 C37 C -0.64334 1.44704 0.00299
 N38 N -0.60380 1.50022 0.00022
 C39 C -0.64326 1.55345 -0.00262
 C40 C -0.62209 1.38083 0.00417
 C41 C -0.55563 1.36038 0.00162
 C42 C -0.53567 1.29583 -0.00783
 C43 C -0.46844 1.29594 -0.00872
 C44 C -0.44859 1.36048 0.00028
 N45 N -0.50208 1.39926 0.00760
 C46 C -0.38221 1.38090 0.00144
 C47 C -0.36089 1.44689 0.00162
 C48 C -0.29576 1.46638 0.00105
 C49 C -0.29571 1.53361 -0.00084
 C50 C -0.36082 1.55320 -0.00128
 N51 N -0.40037 1.50008 0.00021
 C52 C -0.38204 1.61922 -0.00104
 C53 C -0.44839 1.63973 0.00021
 C54 C -0.46816 1.70427 0.00934
 C55 C -0.53538 1.70448 0.00846
 C56 C -0.55543 1.63998 -0.00111
 N57 N -0.50193 1.60103 -0.00717
 C58 C -0.62192 1.61963 -0.00373
 H59 H -0.75156 1.56475 -0.00312
 H60 H -0.75165 1.43591 0.00332
 H61 H -0.50195 1.55198 -0.02050
 H62 H -0.56639 1.25300 -0.01436
 H63 H -0.43771 1.25323 -0.01599
 H64 H -0.25265 1.43544 0.00161
 H65 H -0.25255 1.56448 -0.00147
 H66 H -0.56605 1.74734 0.01507
 H67 H -0.50203 1.44834 0.02080
 H68 H -0.43737 1.74693 0.01667
 C69 C -0.00025 0.53195 0.29466
 C70 C -0.00183 0.46472 0.29462
 C71 C -0.00114 0.44516 0.35989
 N72 N 0.00074 0.49845 0.39946
 C73 C 0.00125 0.55159 0.35989
 C74 C -0.00006 0.37907 0.38125
 C75 C 0.00198 0.35902 0.44795
 C76 C 0.01233 0.29478 0.46815
 C77 C 0.01139 0.29501 0.53548
 C78 C 0.00057 0.35940 0.55527
 N79 N -0.00611 0.39790 0.50148
 C80 C -0.00288 0.38001 0.62183
 C81 C -0.00260 0.44629 0.64305
 C82 C -0.00280 0.46622 0.70828
 C83 C 0.00068 0.53336 0.70822
 C84 C 0.00257 0.55273 0.64294
 N85 N 0.00062 0.49934 0.60342
 C86 C 0.00408 0.61886 0.62153
 C87 C 0.00208 0.63904 0.55489
 C88 C -0.00649 0.70359 0.53474
 C89 C -0.00739 0.70317 0.46740
 C90 C 0.00073 0.63845 0.44764
 N91 N 0.00754 0.59985 0.50131
 C92 C 0.00136 0.61770 0.38118
 H93 H -0.00048 0.56280 0.25148
 H94 H -0.00297 0.43377 0.25137
 H95 H 0.01974 0.55058 0.50134
 H96 H 0.02039 0.25204 0.43753
 H97 H 0.01868 0.25249 0.56641
 H98 H -0.00465 0.43554 0.75156
 H99 H 0.00127 0.56441 0.75141
 H100 H -0.01414 0.74582 0.43655
 H101 H -0.02057 0.44661 0.50134
 H102 H -0.01250 0.74663 0.56542
 O103 O -0.16821 1.00239 -0.08872
 O104 O 0.16911 0.99836 -0.08866
 O105 O -0.00179 1.08922 -0.16850
 O106 O 0.00270 0.91144 -0.16915
 O107 O 0.00267 0.83120 -0.08921
 O108 O -0.00192 1.16930 -0.08802
 O109 O 0.08908 0.99839 -0.16884
 O110 O -0.08816 1.00249 -0.16888
 Zr111 Zr 0.00044 1.00029 -0.11540
 O112 O 0.05991 0.94067 -0.05960
 O113 O -0.05908 1.05978 -0.05918
 C114 C -0.14857 1.00348 -0.14923
 C115 C 0.14948 0.99751 -0.14919
 C116 C -0.00285 1.14972 -0.14864
 C117 C 0.00370 0.85089 -0.14968
 H118 H 0.08742 1.08765 -0.08671
 O119 O 0.05948 1.05956 -0.05882
 H120 H -0.08664 0.91293 -0.08748
 O121 O -0.05869 0.94090 -0.05934
 O122 O 0.16917 1.00219 0.08891
 O123 O -0.16834 0.99768 0.08885
 O124 O 0.08889 1.16926 0.00307
 O125 O 0.08915 0.83118 -0.00258
 O126 O -0.08830 0.83112 0.00167
 O127 O -0.08854 1.16905 -0.00122
 O128 O 0.00237 1.08864 0.16969
 O129 O -0.00159 0.91106 0.16895
 O130 O 0.00229 1.16899 0.08986
 O131 O -0.00158 0.83100 0.08846
 O132 O 0.16900 1.08915 0.00273
 O133 O -0.16840 1.08872 -0.00159
 O134 O -0.16829 0.91133 0.00186
 O135 O 0.16914 0.91140 -0.00237
 O136 O 0.08922 1.00205 0.16918
 O137 O -0.08843 0.99759 0.16916
 Zr138 Zr 0.11575 1.00024 0.00018
 Zr139 Zr -0.11491 1.00006 0.00014
 Zr140 Zr 0.00027 1.11576 0.00069
 Zr141 Zr 0.00044 0.88454 -0.00022
 Zr142 Zr 0.00040 0.99995 0.11583
 O143 O -0.05905 0.94042 0.05957
 O144 O 0.05981 1.05968 0.06004
 C145 C 0.14964 1.00301 0.14945
 C146 C -0.14883 0.99660 0.14939
 C147 C 0.14933 1.14966 0.00396
 C148 C 0.14955 0.85086 -0.00353
 C149 C -0.14871 0.85082 0.00261
 C150 C -0.14892 1.14926 -0.00226
 C151 C 0.00322 1.14920 0.15033
 C152 C -0.00247 0.85057 0.14907
 H153 H -0.08682 1.08716 0.08783
 O154 O -0.05880 1.05925 0.05971
 H155 H 0.08758 0.91280 0.08711
 O156 O 0.05957 0.94084 0.05923
 C157 C 0.33299 1.00113 0.33059
 C158 C 0.29101 1.00232 0.28894
 C159 C 0.24165 1.00329 0.24046
 C160 C 0.19951 1.00356 0.19902
 C161 C -0.33216 0.99593 0.33057
 C162 C -0.29020 0.99547 0.28890
 C163 C -0.24085 0.99527 0.24039
 C164 C -0.19871 0.99555 0.19895
 C165 C -0.32981 1.00479 -0.33233
 C166 C -0.28832 1.00503 -0.29023
 C167 C -0.23974 1.00501 -0.24100
 C168 C -0.19816 1.00460 -0.19903
 C169 C 0.33072 0.99976 -0.33226
 C170 C 0.28925 0.99847 -0.29016
 C171 C 0.24067 0.99739 -0.24095
 C172 C 0.19909 0.99704 -0.19898
 C173 C 0.33064 1.33286 0.00479
 C174 C 0.28913 1.29074 0.00522
 C175 C 0.24052 1.24149 0.00538
 C176 C 0.19893 1.19950 0.00506
 C177 C 0.33088 0.66767 -0.00435
 C178 C 0.28941 0.70983 -0.00479
 C179 C 0.24082 0.75910 -0.00495
 C180 C 0.19921 0.80108 -0.00463
 C181 C -0.33192 0.66969 0.00064
 C182 C -0.28995 0.71129 0.00182
 C183 C -0.24062 0.75978 0.00280
 C184 C -0.19853 0.80123 0.00310
 C185 C -0.33216 1.33036 -0.00025
 C186 C -0.29022 1.28872 -0.00145
 C187 C -0.24091 1.24022 -0.00244
 C188 C -0.19880 1.19878 -0.00274
 C189 C 0.00147 1.33104 0.33385
 C190 C 0.00262 1.28915 0.29192
 C191 C 0.00355 1.24039 0.24260
 C192 C 0.00379 1.19880 0.20042
 C193 C -0.00346 1.33220 -0.33073
 C194 C -0.00388 1.29031 -0.28898
 C195 C -0.00408 1.24135 -0.24006
 C196 C -0.00382 1.19954 -0.19829
 C197 C 0.00458 0.66705 -0.33121
 C198 C 0.00493 0.70941 -0.28974
 C199 C 0.00505 0.75892 -0.24116
 C200 C 0.00473 0.80105 -0.19952
 C201 C -0.00044 0.66815 0.33103
 C202 C -0.00169 0.71000 0.28930
 C203 C -0.00271 0.75894 0.24042
 C204 C -0.00301 0.80076 0.19868
   
