data_POSCAR
  _audit_creation_date              2014-09-24
  _audit_creation_method            'ToBaCCo'
  _symmetry_space_group_name_H-M    'P1'
  _symmetry_Int_Tables_number       1
  _symmetry_cell_setting            triclinic
  loop_
  _symmetry_equiv_pos_as_xyz
 x,y,z
_cell_length_a 33.3198
_cell_length_b 33.2204
_cell_length_c 26.3409
_cell_angle_alpha 90.015500
_cell_angle_beta 89.809300
_cell_angle_gamma 91.215400
loop_
  _atom_site_label
  _atom_site_type_symbol
  _atom_site_fract_x
  _atom_site_fract_y
  _atom_site_fract_z
O1 O 0.04112 0.31792 -0.03240
 O2 O -0.03282 0.29866 0.06751
 O3 O 0.04420 0.28959 0.05963
 O4 O -0.03804 0.30600 -0.03184
 O5 O -0.03970 0.24072 -0.04583
 O6 O 0.04238 0.22441 0.04288
 O7 O -0.03429 0.23373 0.05186
 O8 O 0.03993 0.25303 -0.05086
 Cu9 Cu 0.00334 0.30899 0.01694
 Cu10 Cu 0.00218 0.23197 -0.00317
 C11 C 0.05386 0.28874 -0.05813
 C12 C -0.04591 0.26367 0.07821
 C13 C 0.05732 0.25416 0.06659
 C14 C -0.05377 0.27526 -0.05360
 O15 O 0.46522 0.80610 0.53519
 O16 O 0.54140 0.78741 0.43628
 O17 O 0.46429 0.79953 0.43645
 O18 O 0.54314 0.79843 0.53338
 O19 O 0.53368 0.73271 0.54245
 O20 O 0.45399 0.73404 0.44633
 O21 O 0.53091 0.72195 0.44524
 O22 O 0.45593 0.74034 0.54389
 Cu23 Cu 0.50431 0.80454 0.48440
 Cu24 Cu 0.49258 0.72570 0.49549
 C25 C 0.44747 0.77609 0.55589
 C26 C 0.54996 0.75132 0.42513
 C27 C 0.44572 0.76710 0.42499
 C28 C 0.55250 0.76521 0.55333
 O29 O 1.04095 0.70188 0.03441
 O30 O 0.96159 0.70438 -0.06253
 O31 O 1.03990 0.71001 -0.06396
 O32 O 0.96262 0.69863 0.03695
 O33 O 0.96073 0.76477 0.04300
 O34 O 1.03784 0.77556 -0.05480
 O35 O 0.95989 0.77032 -0.05438
 O36 O 1.03796 0.76732 0.04315
 Cu37 Cu 1.00141 0.69702 -0.01459
 Cu38 Cu 0.99897 0.77604 -0.00518
 C39 C 1.05287 0.73396 0.05622
 C40 C 0.94750 0.73806 -0.07548
 C41 C 1.05204 0.74515 -0.07697
 C42 C 0.94897 0.73016 0.05766
 O43 O 0.53206 0.19018 0.56024
 O44 O 0.45947 0.19941 0.45469
 O45 O 0.53734 0.18703 0.46182
 O46 O 0.45533 0.20116 0.55446
 O47 O 0.46692 0.26656 0.55186
 O48 O 0.54771 0.25288 0.45849
 O49 O 0.47046 0.26498 0.45397
 O50 O 0.54414 0.25535 0.55641
 Cu51 Cu 0.49471 0.18785 0.50763
 Cu52 Cu 0.50830 0.26643 0.50486
 C53 C 0.55129 0.22119 0.57577
 C54 C 0.45241 0.23402 0.43646
 C55 C 0.55719 0.21751 0.44558
 C56 C 0.44762 0.23643 0.56985
 O57 O 0.69277 0.03077 -0.04188
 O58 O 0.69059 -0.05207 0.05152
 O59 O 0.69306 0.02627 0.05616
 O60 O 0.68868 -0.04764 -0.04758
 O61 O 0.75445 -0.05237 -0.04552
 O62 O 0.75930 0.02761 0.05060
 O63 O 0.75627 -0.05066 0.05343
 O64 O 0.75844 0.02621 -0.04755
 Cu65 Cu 0.68463 -0.01070 0.00464
 Cu66 Cu 0.76376 -0.01260 0.00249
 C67 C 0.72599 0.04239 -0.06127
 C68 C 0.72300 -0.06503 0.06994
 C69 C 0.72701 0.04021 0.07005
 C70 C 0.72064 -0.06364 -0.06327
 O71 O 0.19004 0.55342 0.45232
 O72 O 0.19243 0.47342 0.54932
 O73 O 0.19359 0.55257 0.55098
 O74 O 0.18997 0.47490 0.45075
 O75 O 0.25606 0.47401 0.44908
 O76 O 0.25969 0.55508 0.54423
 O77 O 0.25874 0.47547 0.54629
 O78 O 0.25577 0.55139 0.44560
 Cu79 Cu 0.18486 0.51361 0.50145
 Cu80 Cu 0.26425 0.51441 0.49642
 C81 C 0.22248 0.56543 0.43138
 C82 C 0.22612 0.46013 0.56312
 C83 C 0.22739 0.56772 0.56366
 C84 C 0.22233 0.46014 0.43402
 O85 O 0.31604 1.05358 0.04996
 O86 O 0.31274 0.97912 -0.05440
 O87 O 0.31422 1.05770 -0.04803
 O88 O 0.31571 0.97471 0.04394
 O89 O 0.24954 0.97276 0.04524
 O90 O 0.24852 1.05779 -0.04361
 O91 O 0.24650 0.97928 -0.05161
 O92 O 0.25044 1.05089 0.05461
 Cu93 Cu 0.32131 1.01637 -0.00240
 Cu94 Cu 0.24213 1.01532 0.00143
 C95 C 0.28381 1.06520 0.07053
 C96 C 0.27887 0.96623 -0.07034
 C97 C 0.28124 1.07303 -0.06062
 C98 C 0.28289 0.95855 0.05885
 O99 O 0.81213 0.44741 0.46084
 O100 O 0.80290 0.53478 0.54650
 O101 O 0.80348 0.45721 0.55823
 O102 O 0.80810 0.52590 0.44696
 O103 O 0.74238 0.51982 0.43974
 O104 O 0.73751 0.45501 0.55192
 O105 O 0.73745 0.53208 0.53647
 O106 O 0.74598 0.44237 0.45657
 Cu107 Cu 0.81340 0.49200 0.50342
 Cu108 Cu 0.73435 0.48715 0.49519
 C109 C 0.78046 0.42916 0.44594
 C110 C 0.76830 0.54785 0.55711
 C111 C 0.76935 0.44464 0.57423
 C112 C 0.77570 0.53419 0.42406
 O113 O 0.22661 0.28469 0.18302
 O114 O 0.31721 0.27520 0.26149
 O115 O 0.28397 0.23369 0.18862
 O116 O 0.25823 0.32653 0.25801
 O117 O 0.22506 0.28991 0.31455
 O118 O 0.24821 0.19795 0.24394
 O119 O 0.28301 0.23915 0.31742
 O120 O 0.19172 0.25032 0.23996
 Cu121 Cu 0.27503 0.28385 0.21743
 Cu122 Cu 0.23365 0.24074 0.28459
 C123 C 0.19366 0.26867 0.19760
 C124 C 0.31577 0.25595 0.30307
 C125 C 0.26978 0.20008 0.20419
 C126 C 0.23700 0.32401 0.29820
 O127 O 0.68545 0.71793 0.24844
 O128 O 0.77926 0.71442 0.17344
 O129 O 0.74461 0.66769 0.24189
 O130 O 0.72050 0.76374 0.17998
 O131 O 0.75574 0.79634 0.23846
 O132 O 0.77354 0.70058 0.30482
 O133 O 0.81185 0.74329 0.23673
 O134 O 0.71768 0.75277 0.30769
 Cu135 Cu 0.72924 0.71249 0.20491
 Cu136 Cu 0.76793 0.75167 0.27788
 C137 C 0.68586 0.73591 0.29101
 C138 C 0.81155 0.72904 0.19209
 C139 C 0.76150 0.66760 0.28503
 C140 C 0.73503 0.79633 0.19802
 O141 O 0.82372 0.21830 0.25298
 O142 O 0.73263 0.19890 0.32860
 O143 O 0.76499 0.16604 0.25012
 O144 O 0.78959 0.25310 0.33151
 O145 O 0.75634 0.29289 0.28008
 O146 O 0.73059 0.20579 0.19984
 O147 O 0.69897 0.24007 0.28071
 O148 O 0.78966 0.25811 0.20239
 Cu149 Cu 0.78134 0.20521 0.29580
 Cu150 Cu 0.74042 0.25298 0.23537
 C151 C 0.82201 0.24106 0.21445
 C152 C 0.70053 0.21717 0.31938
 C153 C 0.74363 0.17130 0.21101
 C154 C 0.77609 0.28751 0.32049
 O155 O 0.25580 0.69481 0.25112
 O156 O 0.27757 0.78399 0.17283
 O157 O 0.31289 0.74798 0.24771
 O158 O 0.22067 0.72907 0.17462
 O159 O 0.18770 0.76907 0.22636
 O160 O 0.27821 0.78217 0.30431
 O161 O 0.24725 0.82176 0.22921
 O162 O 0.21902 0.73152 0.30285
 Cu163 Cu 0.27000 0.73528 0.20583
 Cu164 Cu 0.22946 0.78014 0.27080
 C165 C 0.23397 0.69812 0.29042
 C166 C 0.26722 0.81841 0.18832
 C167 C 0.31089 0.76715 0.28930
 C168 C 0.18854 0.74600 0.18795
 O169 O 0.76965 0.27880 0.69838
 O170 O 0.75963 0.18578 0.77380
 O171 O 0.71837 0.21944 0.70139
 O172 O 0.81018 0.24717 0.77254
 O173 O 0.77326 0.27605 0.83104
 O174 O 0.68223 0.25343 0.75642
 O175 O 0.72055 0.21684 0.82856
 O176 O 0.73578 0.31130 0.75687
 Cu177 Cu 0.76823 0.22949 0.73107
 Cu178 Cu 0.72442 0.26758 0.79900
 C179 C 0.75389 0.31091 0.71435
 C180 C 0.73793 0.18534 0.81348
 C181 C 0.68468 0.23240 0.71630
 C182 C 0.80744 0.26629 0.81422
 O183 O 0.31431 0.76064 0.73370
 O184 O 0.22109 0.74432 0.80775
 O185 O 0.25760 0.70524 0.73520
 O186 O 0.27849 0.79749 0.80862
 O187 O 0.24619 0.83331 0.75167
 O188 O 0.22527 0.74073 0.67804
 O189 O 0.18847 0.77968 0.75080
 O190 O 0.28079 0.79583 0.67740
 Cu191 Cu 0.27129 0.74826 0.77686
 Cu192 Cu 0.23172 0.79084 0.70887
 C193 C 0.31322 0.78074 0.69266
 C194 C 0.18913 0.76055 0.79246
 C195 C 0.23831 0.70734 0.69386
 C196 C 0.26544 0.83088 0.79307
 O197 O 0.25469 0.32945 0.74015
 O198 O 0.27741 0.24064 0.81753
 O199 O 0.31107 0.27756 0.74205
 O200 O 0.22079 0.29251 0.81862
 O201 O 0.18494 0.25430 0.76644
 O202 O 0.27634 0.23955 0.68873
 O203 O 0.24207 0.20208 0.76512
 O204 O 0.21939 0.29065 0.68791
 Cu205 Cu 0.26915 0.28907 0.78504
 Cu206 Cu 0.22689 0.24280 0.72193
 C207 C 0.23479 0.32468 0.69948
 C208 C 0.26387 0.20623 0.80426
 C209 C 0.30910 0.25716 0.70142
 C210 C 0.18785 0.27516 0.80678
 O211 O 0.72042 0.77393 0.67445
 O212 O 0.81173 0.76057 0.74786
 O213 O 0.77406 0.72035 0.67493
 O214 O 0.75340 0.81191 0.74974
 O215 O 0.71788 0.77475 0.80358
 O216 O 0.74283 0.68379 0.73345
 O217 O 0.77769 0.72667 0.80623
 O218 O 0.68634 0.73486 0.72775
 Cu219 Cu 0.76881 0.77034 0.70657
 Cu220 Cu 0.72807 0.72626 0.77359
 C221 C 0.68849 0.75484 0.68657
 C222 C 0.81015 0.74344 0.79077
 C223 C 0.75968 0.68674 0.69035
 C224 C 0.73125 0.80884 0.78907
 C225 C 0.24266 0.14164 0.15791
 C226 C 0.24618 0.10869 0.12598
 C227 C 0.28392 0.09519 0.10925
 C228 C 0.31922 0.11451 0.13019
 C229 C 0.31508 0.14938 0.16145
 C230 C 0.27649 0.16321 0.17429
 C231 C 0.34985 0.16875 0.18047
 N232 N 0.38645 0.15388 0.17008
 N233 N 0.39059 0.12070 0.14248
 C234 C 0.35856 0.10040 0.12269
 H235 H 0.21289 0.15147 0.16821
 H236 H 0.21844 0.09461 0.11298
 H237 H 0.34831 0.19514 0.20438
 H238 H 0.36492 0.07277 0.10342
 C239 C 0.79526 0.64254 0.63002
 C240 C 0.79717 0.60887 0.59862
 C241 C 0.76416 0.58216 0.59314
 C242 C 0.72824 0.58986 0.62088
 C243 C 0.72573 0.62545 0.65060
 C244 C 0.76013 0.65105 0.65671
 C245 C 0.68829 0.63467 0.67240
 N246 N 0.65687 0.60837 0.66876
 N247 N 0.66013 0.57352 0.64452
 C248 C 0.69456 0.56328 0.62084
 H249 H 0.82155 0.66207 0.63364
 H250 H 0.82482 0.60390 0.57804
 H251 H 0.68318 0.66265 0.69171
 H252 H 0.69481 0.53414 0.60331
 C253 C 0.76360 0.85477 0.15233
 C254 C 0.76053 0.88839 0.12129
 C255 C 0.72297 0.90384 0.10724
 C256 C 0.68760 0.88570 0.12984
 C257 C 0.69114 0.85001 0.15963
 C258 C 0.72939 0.83440 0.17013
 C259 C 0.65616 0.83149 0.17956
 N260 N 0.62000 0.84821 0.17199
 N261 N 0.61654 0.88239 0.14631
 C262 C 0.64879 0.90184 0.12554
 H263 H 0.79314 0.84344 0.16064
 H264 H 0.78836 0.90149 0.10689
 H265 H 0.65726 0.80426 0.20188
 H266 H 0.64315 0.93036 0.10810
 C267 C 0.21531 0.39455 0.67931
 C268 C 0.21279 0.42720 0.64615
 C269 C 0.22770 0.42464 0.59651
 C270 C 0.24459 0.38822 0.57941
 C271 C 0.24699 0.35504 0.61291
 C272 C 0.23197 0.35831 0.66321
 C273 C 0.26530 0.31986 0.59501
 N274 N 0.27890 0.31787 0.54657
 N275 N 0.27566 0.34869 0.51473
 C276 C 0.25899 0.38367 0.52943
 H277 H 0.20401 0.39749 0.71771
 H278 H 0.19980 0.45489 0.65958
 H279 H 0.26917 0.29394 0.61882
 H280 H 0.25716 0.40742 0.50182
 C281 C 0.86978 0.21668 0.15063
 C282 C 0.90272 0.22179 0.11844
 C283 C 0.92541 0.25809 0.11761
 C284 C 0.91625 0.28833 0.15460
 C285 C 0.88159 0.28337 0.18585
 C286 C 0.85814 0.24758 0.18304
 C287 C 0.87198 0.31407 0.22035
 N288 N 0.89653 0.34682 0.22512
 N289 N 0.93020 0.35066 0.19815
 C290 C 0.94115 0.32256 0.16372
 H291 H 0.85240 0.18876 0.14904
 H292 H 0.90910 0.19758 0.09225
 H293 H 0.84555 0.31198 0.24419
 H294 H 0.97009 0.32684 0.14600
 C295 C 0.34334 0.77555 0.60806
 C296 C 0.37575 0.77431 0.57492
 C297 C 0.41471 0.78220 0.59217
 C298 C 0.42121 0.79249 0.64364
 C299 C 0.38811 0.79360 0.67769
 C300 C 0.34896 0.78412 0.65968
 C301 C 0.39546 0.80475 0.72835
 N302 N 0.43353 0.81315 0.74380
 N303 N 0.46464 0.81129 0.71203
 C304 C 0.45980 0.80122 0.66249
 H305 H 0.31367 0.76823 0.59353
 H306 H 0.37046 0.76628 0.53559
 H307 H 0.37137 0.80740 0.75565
 H308 H 0.48605 0.80037 0.63825
 C309 C 0.13234 0.77429 0.14122
 C310 C 0.09916 0.77127 0.10976
 C311 C 0.08346 0.73362 0.09362
 C312 C 0.10066 0.69793 0.11443
 C313 C 0.13587 0.70145 0.14495
 C314 C 0.15188 0.73999 0.15751
 C315 C 0.15316 0.66615 0.16373
 N316 N 0.13574 0.62979 0.15423
 N317 N 0.10197 0.62634 0.12773
 C318 C 0.08367 0.65886 0.10808
 H319 H 0.14386 0.80397 0.15137
 H320 H 0.08667 0.79926 0.09668
 H321 H 0.17988 0.66698 0.18683
 H322 H 0.05527 0.65320 0.08998
 C323 C 0.62354 0.25772 0.67627
 C324 C 0.59168 0.25473 0.64252
 C325 C 0.58270 0.21880 0.61626
 C326 C 0.60575 0.18400 0.62758
 C327 C 0.63863 0.18745 0.66213
 C328 C 0.64823 0.22502 0.68517
 C329 C 0.66064 0.15284 0.67318
 N330 N 0.65107 0.11735 0.65060
 N331 N 0.62093 0.11405 0.61783
 C332 C 0.59807 0.14585 0.60557
 H333 H 0.63003 0.28658 0.69395
 H334 H 0.57441 0.28150 0.63598
 H335 H 0.68499 0.15333 0.70013
 H336 H 0.57435 0.14012 0.57895
 C337 C 0.76586 0.13522 0.87152
 C338 C 0.76299 0.10051 0.90100
 C339 C 0.72767 0.07658 0.90205
 C340 C 0.69502 0.08759 0.87043
 C341 C 0.69756 0.12398 0.84199
 C342 C 0.73327 0.14777 0.84282
 C343 C 0.66442 0.13501 0.81258
 N344 N 0.63151 0.11044 0.81023
 N345 N 0.62963 0.07558 0.83511
 C346 C 0.66019 0.06320 0.86476
 H347 H 0.79349 0.15304 0.87210
 H348 H 0.78848 0.09290 0.92427
 H349 H 0.66450 0.16275 0.79114
 H350 H 0.65712 0.03391 0.88211
 C351 C 0.26179 0.65132 0.35146
 C352 C 0.25889 0.61937 0.38517
 C353 C 0.22272 0.59740 0.39178
 C354 C 0.18882 0.60781 0.36180
 C355 C 0.19159 0.64181 0.32903
 C356 C 0.22843 0.66327 0.32398
 C357 C 0.15755 0.65272 0.30130
 N358 N 0.12335 0.63008 0.30456
 N359 N 0.12107 0.59726 0.33347
 C360 C 0.15253 0.58519 0.36183
 H361 H 0.29022 0.66756 0.34770
 H362 H 0.28535 0.61233 0.40696
 H363 H 0.15792 0.67884 0.27680
 H364 H 0.14877 0.55746 0.38258
 C365 C 0.24868 0.86739 0.87083
 C366 C 0.25140 0.90037 0.90321
 C367 C 0.27653 0.93351 0.89166
 C368 C 0.29884 0.93358 0.84567
 C369 C 0.29575 0.89994 0.81240
 C370 C 0.27049 0.86672 0.82543
 C371 C 0.31846 0.90056 0.76736
 N372 N 0.34205 0.93313 0.75606
 N373 N 0.34437 0.96500 0.78670
 C374 C 0.32353 0.96641 0.83099
 H375 H 0.22913 0.84219 0.88116
 H376 H 0.23423 0.89966 0.93823
 H377 H 0.31770 0.87548 0.74113
 H378 H 0.32621 0.99332 0.85389
 C379 C 0.79740 0.35796 0.33758
 C380 C 0.79876 0.39230 0.36803
 C381 C 0.78319 0.39125 0.41740
 C382 C 0.76763 0.35452 0.43743
 C383 C 0.76642 0.31953 0.40666
 C384 C 0.78123 0.32149 0.35610
 C385 C 0.74884 0.28414 0.42713
 N386 N 0.73487 0.28374 0.47553
 N387 N 0.73696 0.31637 0.50480
 C388 C 0.75279 0.35169 0.48743
 H389 H 0.80825 0.36009 0.29885
 H390 H 0.81053 0.42029 0.35227
 H391 H 0.74579 0.25685 0.40530
 H392 H 0.75368 0.37712 0.51290
 C393 C 0.11419 0.28341 0.82136
 C394 C 0.08147 0.28891 0.85406
 C395 C 0.08765 0.29517 0.90620
 C396 C 0.12731 0.29575 0.92501
 C397 C 0.15814 0.28147 0.89438
 C398 C 0.15303 0.27949 0.84115
 C399 C 0.19088 0.26534 0.91963
 N400 N 0.19054 0.26382 0.97137
 N401 N 0.16390 0.28209 1.00172
 C402 C 0.13695 0.30506 0.97571
 H403 H 0.10901 0.28077 0.78091
 H404 H 0.05130 0.28779 0.83886
 H405 H 0.21447 0.25027 0.89926
 H406 H 0.11576 0.32250 0.99760
 C407 C 0.61912 0.76252 0.31232
 C408 C 0.58665 0.76657 0.34535
 C409 C 0.58364 0.74362 0.38995
 C410 C 0.61412 0.71563 0.40130
 C411 C 0.64701 0.71156 0.36749
 C412 C 0.64968 0.73569 0.32326
 C413 C 0.67673 0.68367 0.37945
 N414 N 0.67416 0.66205 0.42296
 N415 N 0.64396 0.66657 0.45546
 C416 C 0.61405 0.69262 0.44635
 H417 H 0.62099 0.78134 0.27882
 H418 H 0.56385 0.78819 0.33629
 H419 H 0.70195 0.67886 0.35465
 H420 H 0.59123 0.69539 0.47513
 C421 C 0.85339 0.70959 0.85314
 C422 C 0.88703 0.70781 0.88421
 C423 C 0.91525 0.73970 0.88591
 C424 C 0.90987 0.77365 0.85402
 C425 C 0.87425 0.77668 0.82495
 C426 C 0.84635 0.74362 0.82334
 C427 C 0.86754 0.81337 0.79964
 N428 N 0.89634 0.84277 0.79912
 N429 N 0.93125 0.83832 0.82255
 C430 C 0.93907 0.80479 0.84971
 H431 H 0.83249 0.68416 0.85268
 H432 H 0.89050 0.68155 0.90806
 H433 H 0.83961 0.81964 0.78104
 H434 H 0.96833 0.80269 0.86671
 C435 C 0.35502 0.21792 0.36613
 C436 C 0.38830 0.21171 0.39679
 C437 C 0.42110 0.23881 0.39667
 C438 C 0.42069 0.27214 0.36275
 C439 C 0.38550 0.28017 0.33418
 C440 C 0.35255 0.25203 0.33487
 C441 C 0.38457 0.31679 0.30712
 N442 N 0.41778 0.34096 0.30435
 N443 N 0.45182 0.33140 0.32715
 C444 C 0.45447 0.29784 0.35601
 H445 H 0.33062 0.19585 0.36742
 H446 H 0.38778 0.18594 0.42200
 H447 H 0.35785 0.32735 0.28904
 H448 H 0.48327 0.29133 0.37237
 C449 C 0.75418 0.87337 0.82639
 C450 C 0.75204 0.90305 0.86343
 C451 C 0.71918 0.90481 0.89680
 C452 C 0.68674 0.87657 0.89087
 C453 C 0.68809 0.84771 0.85107
 C454 C 0.72322 0.84464 0.82074
 C455 C 0.65407 0.82267 0.84303
 N456 N 0.62238 0.82412 0.87526
 N457 N 0.62236 0.84892 0.91490
 C458 C 0.65341 0.87490 0.92405
 H459 H 0.78120 0.87179 0.80354
 H460 H 0.77696 0.92438 0.86675
 H461 H 0.65197 0.80241 0.81100
 H462 H 0.65160 0.89314 0.95773
 C463 C 0.25673 0.39207 0.32869
 C464 C 0.25342 0.42425 0.36219
 C465 C 0.22156 0.42619 0.39707
 C466 C 0.19140 0.39513 0.39650
 C467 C 0.19360 0.36360 0.36002
 C468 C 0.22789 0.36081 0.32798
 C469 C 0.16114 0.33584 0.35689
 N470 N 0.13067 0.33726 0.39095
 N471 N 0.13030 0.36463 0.42778
 C472 C 0.15960 0.39334 0.43199
 H473 H 0.28303 0.39090 0.30448
 H474 H 0.27676 0.44746 0.36166
 H475 H 0.15912 0.31347 0.32721
 H476 H 0.15766 0.41372 0.46362
 C477 C 0.23898 0.14618 0.84926
 C478 C 0.24302 0.11481 0.88339
 C479 C 0.28016 0.10654 0.90622
 C480 C 0.31413 0.13217 0.89401
 C481 C 0.30985 0.16335 0.85737
 C482 C 0.27173 0.17091 0.83629
 C483 C 0.34408 0.18613 0.84276
 N484 N 0.37961 0.18040 0.86609
 N485 N 0.38317 0.15357 0.90312
 C486 C 0.35187 0.12969 0.91823
 H487 H 0.20955 0.15176 0.83364
 H488 H 0.21640 0.09657 0.89141
 H489 H 0.34311 0.20828 0.81277
 H490 H 0.35725 0.11041 0.95010
 C491 C 0.79830 0.62819 0.34896
 C492 C 0.80263 0.59581 0.38194
 C493 C 0.77586 0.56282 0.38061
 C494 C 0.74606 0.56121 0.34217
 C495 C 0.73988 0.59525 0.31048
 C496 C 0.76657 0.62936 0.31395
 C497 C 0.70619 0.59391 0.27807
 N498 N 0.68330 0.55984 0.27424
 N499 N 0.69125 0.52701 0.30093
 C500 C 0.72182 0.52649 0.33460
 H501 H 0.81924 0.65345 0.35234
 H502 H 0.82587 0.59763 0.41056
 H503 H 0.69688 0.61929 0.25612
 H504 H 0.72723 0.49868 0.35446
 C505 C 0.14013 0.72067 0.84323
 C506 C 0.10585 0.71671 0.87331
 C507 C 0.08248 0.75023 0.88572
 C508 C 0.09297 0.78827 0.86303
 C509 C 0.12923 0.79246 0.83469
 C510 C 0.15247 0.75816 0.82412
 C511 C 0.14140 0.83130 0.81842
 N512 N 0.11698 0.86287 0.82534
 N513 N 0.08126 0.85834 0.84744
 C514 C 0.06827 0.82230 0.86596
 H515 H 0.15745 0.69416 0.83515
 H516 H 0.09869 0.68716 0.88868
 H517 H 0.17012 0.83714 0.80057
 H518 H 0.03822 0.82089 0.88097
 C519 C 0.62912 0.23080 0.33702
 C520 C 0.59444 0.23066 0.36631
 C521 C 0.59328 0.21207 0.41361
 C522 C 0.62790 0.19271 0.43206
 C523 C 0.66433 0.19300 0.40261
 C524 C 0.66464 0.21303 0.35402
 C525 C 0.69976 0.17585 0.42254
 N526 N 0.69892 0.14642 0.45781
 C527 C 0.62730 0.17666 0.48117
 H528 H 0.62805 0.24585 0.30059
 H529 H 0.56827 0.24585 0.35214
 H530 H 0.72919 0.18556 0.41070
 H531 H 0.60180 0.17679 0.50632
 C532 C 0.87613 0.24828 0.83944
 C533 C 0.90907 0.25034 0.87157
 C534 C 0.91156 0.27860 0.91111
 C535 C 0.88031 0.30694 0.91639
 C536 C 0.84752 0.30609 0.88163
 C537 C 0.84432 0.27487 0.84468
 C538 C 0.81922 0.33689 0.88501
 N539 N 0.82163 0.36433 0.92298
 N540 N 0.85049 0.36329 0.95769
 C541 C 0.87969 0.33554 0.95591
 H542 H 0.87495 0.22446 0.81134
 H543 H 0.93251 0.22860 0.86619
 H544 H 0.79572 0.34022 0.85735
 H545 H 0.90155 0.33625 0.98590
 C546 C 0.34243 0.75402 0.37133
 C547 C 0.37530 0.75276 0.40354
 C548 C 0.41285 0.76796 0.38797
 C549 C 0.41753 0.78435 0.33858
 C550 C 0.38399 0.78541 0.30561
 C551 C 0.34632 0.76982 0.32229
 C552 C 0.38923 0.80267 0.25728
 N553 N 0.42597 0.81673 0.24258
 N554 N 0.45772 0.81474 0.27300
 C555 C 0.45481 0.79900 0.32040
 H556 H 0.31383 0.74175 0.38445
 H557 H 0.37129 0.74021 0.44124
 H558 H 0.36444 0.80546 0.23130
 H559 H 0.48170 0.79783 0.34314
 C560 C 0.24987 0.88701 0.16168
 C561 C 0.25323 0.92033 0.13009
 C562 C 0.28288 0.92283 0.09241
 C563 C 0.31045 0.89097 0.08726
 C564 C 0.30828 0.85774 0.12134
 C565 C 0.27635 0.85492 0.15738
 C566 C 0.33847 0.82873 0.11804
 N567 N 0.36649 0.83109 0.08073
 N568 N 0.36663 0.86052 0.04652
 C569 C 0.33954 0.89033 0.04827
 H570 H 0.22539 0.88591 0.18885
 H571 H 0.23190 0.94425 0.13471
 H572 H 0.34087 0.80456 0.14501
 H573 H 0.34096 0.91264 0.01860
 C574 C 0.79192 0.35367 0.65330
 C575 C 0.79642 0.38649 0.62075
 C576 C 0.76646 0.41526 0.61681
 C577 C 0.73217 0.41175 0.64892
 C578 C 0.72643 0.37712 0.68008
 C579 C 0.75705 0.34793 0.68272
 C580 C 0.68948 0.37261 0.70602
 N581 N 0.66230 0.40235 0.70461
 N582 N 0.66920 0.43615 0.67870
 C583 C 0.70316 0.44188 0.65102
 H584 H 0.81572 0.33198 0.65464
 H585 H 0.82288 0.38839 0.59679
 H586 H 0.68121 0.34574 0.72673
 H587 H 0.70743 0.47024 0.63177
 C588 C 0.74913 0.14158 0.12625
 C589 C 0.74617 0.10950 0.09253
 C590 C 0.72915 0.07260 0.10784
 C591 C 0.71476 0.06779 0.15815
 C592 C 0.71822 0.10038 0.19275
 C593 C 0.73589 0.13735 0.17647
 C594 C 0.70338 0.09492 0.24237
 N595 N 0.68698 0.05886 0.25635
 N596 N 0.68440 0.02802 0.22411
 C597 C 0.69776 0.03119 0.17555
 H598 H 0.76295 0.16963 0.11344
 H599 H 0.75716 0.11352 0.05405
 H600 H 0.70435 0.11899 0.27001
 H601 H 0.69511 0.00508 0.15117
 C602 C 0.24867 0.67198 0.61299
 C603 C 0.24720 0.63792 0.58220
 C604 C 0.22918 0.60195 0.59938
 C605 C 0.21262 0.60021 0.64899
 C606 C 0.21456 0.63485 0.68064
 C607 C 0.23292 0.67091 0.66232
 C608 C 0.19742 0.63229 0.72941
 N609 N 0.18036 0.59711 0.74555
 N610 N 0.17925 0.56443 0.71625
 C611 C 0.19482 0.56473 0.66860
 H612 H 0.26303 0.69925 0.59852
 H613 H 0.25982 0.63980 0.54427
 H614 H 0.19714 0.65793 0.75470
 H615 H 0.19334 0.53720 0.64672
 C616 C 0.85377 0.69889 0.12511
 C617 C 0.88747 0.69807 0.09371
 C618 C 0.91804 0.72737 0.09810
 C619 C 0.91552 0.75680 0.13702
 C620 C 0.87996 0.75955 0.16656
 C621 C 0.84900 0.72955 0.16123
 C622 C 0.87655 0.79318 0.19900
 N623 N 0.90810 0.81908 0.20537
 N624 N 0.94271 0.81418 0.18113
 C625 C 0.94755 0.78394 0.14734
 H626 H 0.83075 0.67568 0.12034
 H627 H 0.88888 0.67522 0.06443
 H628 H 0.84917 0.80013 0.21861
 H629 H 0.97661 0.78115 0.12951
 C630 C 0.34987 0.21877 0.64004
 C631 C 0.38358 0.21336 0.60960
 C632 C 0.41469 0.24248 0.60740
 C633 C 0.41170 0.27764 0.63802
 C634 C 0.37574 0.28472 0.66559
 C635 C 0.34525 0.25405 0.66843
 C636 C 0.37146 0.32284 0.68838
 N637 N 0.40269 0.34960 0.68888
 N638 N 0.43781 0.34114 0.66778
 C639 C 0.44349 0.30611 0.64271
 H640 H 0.32705 0.19506 0.64120
 H641 H 0.38498 0.18620 0.58696
 H642 H 0.34355 0.33234 0.70481
 H643 H 0.47314 0.30077 0.62802
 C644 C 0.12051 0.25481 0.18408
 C645 C 0.08744 0.24807 0.15233
 C646 C 0.09247 0.24886 0.09959
 C647 C 0.13093 0.25704 0.07950
 C648 C 0.16041 0.27456 0.11059
 C649 C 0.15774 0.26831 0.16394
 C650 C 0.18820 0.30073 0.08690
 N651 N 0.18670 0.30654 0.03570
 C652 C 0.13944 0.25227 0.02792
 H653 H 0.11656 0.25086 0.22461
 H654 H 0.05806 0.24224 0.16879
 H655 H 0.20803 0.32004 0.10878
 H656 H 0.12003 0.23248 0.00554
 C657 C 0.61523 0.75592 0.67068
 C658 C 0.58230 0.75869 0.63858
 C659 C 0.58789 0.76362 0.58636
 C660 C 0.62715 0.76399 0.56548
 C661 C 0.66036 0.75496 0.59714
 C662 C 0.65429 0.75494 0.65085
 C663 C 0.69805 0.74340 0.57683
 N664 N 0.70536 0.74014 0.52664
 C665 C 0.63330 0.77396 0.51444
 H666 H 0.61019 0.75460 0.71130
 H667 H 0.55233 0.75821 0.65469
 H668 H 0.72114 0.73229 0.60136
 H669 H 0.60986 0.78208 0.48855
   
