data_POSCAR
  _audit_creation_date              2014-09-24
  _audit_creation_method            'ToBaCCo'
  _symmetry_space_group_name_H-M    'P1'
  _symmetry_Int_Tables_number       1
  _symmetry_cell_setting            triclinic
  loop_
  _symmetry_equiv_pos_as_xyz
 x,y,z
_cell_length_a 17.9674
_cell_length_b 31.0002
_cell_length_c 34.6514
_cell_angle_alpha 88.562900
_cell_angle_beta 88.553500
_cell_angle_gamma 114.003000
loop_
  _atom_site_label
  _atom_site_type_symbol
  _atom_site_fract_x
  _atom_site_fract_y
  _atom_site_fract_z
N1 N 0.26393 0.25475 0.22074
 N2 N -0.29076 0.71190 0.20649
 N3 N -0.16437 0.22277 -0.26831
 N4 N 0.17198 0.79565 -0.23907
 N5 N 0.19906 1.20962 0.79288
 N6 N 0.67483 0.71696 0.79647
 N7 N 0.01171 0.69816 1.26338
 N8 N 0.81323 1.24776 1.27137
 O9 O 0.46881 0.93662 0.94648
 O10 O 0.38699 0.93879 1.08479
 O11 O 0.63080 0.97537 1.04128
 O12 O 0.25832 0.95619 0.99373
 O13 O 0.52620 0.94727 1.08271
 O14 O 0.32669 0.94416 0.94147
 O15 O 0.33617 0.91497 1.02890
 O16 O 0.58786 0.95362 0.97243
 C17 C 0.53331 0.93020 0.94985
 C18 C 0.33966 0.90638 1.06421
 C19 C 0.59056 0.94684 1.06843
 C20 C 0.25735 0.94304 0.95737
 O21 O 0.42196 1.02492 0.95021
 O22 O 0.58281 1.04052 1.08047
 O23 O 0.61004 1.04070 0.95643
 O24 O 0.32583 0.98868 1.06257
 O25 O 0.44405 1.03575 1.07857
 O26 O 0.48305 1.01654 0.93671
 O27 O 0.37684 1.03705 1.00398
 O28 O 0.64964 1.06267 1.02431
 Co29 Co 0.41762 0.96810 0.97200
 Co30 Co 0.48411 0.99096 1.07739
 Co31 Co 0.60752 1.00669 1.00030
 Co32 Co 0.36134 0.97626 1.01578
 O33 O 0.48298 0.99116 1.01879
 C34 C 0.39530 1.05006 0.96973
 C35 C 0.63832 1.07016 1.05877
 C36 C 0.56044 1.04151 0.93201
 C37 C 0.36911 1.02387 1.08076
 O38 O 0.10471 0.48053 0.06485
 O39 O 0.12671 0.54300 -0.07267
 O40 O 0.05665 0.43745 -0.05561
 O41 O 0.03989 0.55703 0.04976
 O42 O 0.05996 0.44500 -0.05767
 O43 O 0.03981 0.55235 0.05441
 O44 O 0.12911 0.59145 -0.02478
 O45 O 0.10275 0.42938 0.01921
 C46 C 0.13182 0.45159 0.05024
 C47 C 0.15845 0.58373 -0.05729
 C48 C 0.13062 0.44844 -0.06796
 C49 C 0.08769 0.58398 0.07485
 O50 O -0.09956 0.47864 0.06222
 O51 O -0.03311 0.46992 -0.09493
 O52 O -0.03907 0.41596 0.04725
 O53 O 0.00021 0.60214 -0.01784
 O54 O -0.00424 0.55113 -0.06399
 O55 O -0.03885 0.41803 0.05006
 O56 O -0.09247 0.52678 0.01552
 O57 O -0.08713 0.42168 -0.03853
 Co58 Co 0.00499 0.48401 0.05634
 Co59 Co 0.02700 0.49833 -0.05538
 Co60 Co 0.00867 0.42718 -0.00418
 Co61 Co 0.02109 0.55363 -0.00644
 O62 O 0.05256 0.50041 -0.00025
 C63 C -0.11806 0.51138 0.05189
 C64 C -0.08519 0.42878 -0.07898
 C65 C -0.04808 0.38319 0.07249
 C66 C -0.01274 0.58912 -0.05276
 O67 O 1.06799 0.04572 0.47122
 O68 O 0.81898 -0.02920 0.53756
 O69 O 0.87012 -0.00055 0.46581
 O70 O 1.07772 0.01490 0.53927
 O71 O 0.86943 -0.00042 0.46617
 O72 O 1.08044 0.01584 0.53764
 O73 O 0.94118 0.01498 0.54273
 O74 O 1.00106 0.02149 0.41988
 C75 C 1.05324 0.05359 0.43759
 C76 C 0.87025 0.00705 0.55057
 C77 C 0.84956 0.03432 0.46471
 C78 C 1.11370 0.05770 0.54984
 O79 O 1.10519 -0.05553 0.50902
 O80 O 0.82389 -0.09245 0.44880
 O81 O 0.98331 -0.06023 0.40908
 O82 O 0.87309 -0.07989 0.56996
 O83 O 0.79060 -0.11478 0.52312
 O84 O 1.10300 -0.02384 0.43995
 O85 O 1.01785 -0.07533 0.55989
 O86 O 0.82384 -0.09194 0.44585
 Co87 Co 1.08060 -0.00694 0.48844
 Co88 Co 0.83272 -0.05907 0.49435
 Co89 Co 0.91968 -0.03363 0.43743
 Co90 Co 0.97349 -0.03262 0.54998
 O91 O 0.95571 -0.05035 0.49246
 C92 C 1.07482 -0.07993 0.54028
 C93 C 0.82384 -0.13331 0.44596
 C94 C 1.06307 -0.05013 0.41368
 C95 C 0.81031 -0.11438 0.55796
 C96 C 1.23446 0.19038 0.31594
 C97 C 1.19107 0.20991 0.33704
 C98 C 1.17669 0.24819 0.32267
 C99 C 1.20534 0.26550 0.28464
 C100 C 1.25023 0.24564 0.26230
 C101 C 1.26848 0.20924 0.27970
 O102 O 1.23054 0.14982 0.33117
 C103 C 1.18429 0.14353 0.36294
 C104 C 1.15992 0.17975 0.36857
 C105 C 1.10828 0.17886 0.39961
 C106 C 1.07964 0.13873 0.42509
 C107 C 1.09851 0.09960 0.41756
 C108 C 1.15287 0.10250 0.38654
 H109 H 1.13957 0.26190 0.33897
 H110 H 1.18783 0.29202 0.27201
 H111 H 1.30155 0.19250 0.26384
 H112 H 1.08923 0.20747 0.40367
 H113 H 1.03939 0.13696 0.44938
 H114 H 1.16631 0.07250 0.37960
 C115 C 0.76271 -0.24575 0.30685
 C116 C 0.69154 -0.24243 0.31861
 C117 C 0.62208 -0.25868 0.29686
 C118 C 0.62678 -0.27766 0.26094
 C119 C 0.70033 -0.27974 0.24704
 C120 C 0.76854 -0.26475 0.27099
 O121 O 0.82272 -0.22601 0.33110
 C122 C 0.78875 -0.20967 0.35853
 C123 C 0.70874 -0.21846 0.35196
 C124 C 0.66337 -0.20117 0.37513
 C125 C 0.70182 -0.17369 0.40629
 C126 C 0.78387 -0.16445 0.41409
 C127 C 0.82761 -0.18342 0.39023
 H128 H 0.56702 -0.25529 0.30658
 H129 H 0.57444 -0.28845 0.24286
 H130 H 0.82568 -0.26478 0.26066
 H131 H 0.60118 -0.20751 0.36884
 H132 H 0.66799 -0.15931 0.42432
 H133 H 0.89078 -0.17616 0.39521
 C134 C 0.87009 0.15167 0.65349
 C135 C 0.85150 0.10978 0.67399
 C136 C 0.83570 0.10416 0.71343
 C137 C 0.83523 0.14289 0.73260
 C138 C 0.84873 0.18595 0.71205
 C139 C 0.86911 0.19093 0.67207
 O140 O 0.88194 0.14837 0.61585
 C141 C 0.86881 0.10320 0.61280
 C142 C 0.84853 0.07821 0.64763
 C143 C 0.82503 0.02980 0.65130
 C144 C 0.82531 0.00624 0.61766
 C145 C 0.85110 0.03139 0.58186
 C146 C 0.87262 0.08053 0.57902
 H147 H 0.82177 0.07076 0.72873
 H148 H 0.81754 0.13799 0.76300
 H149 H 0.87968 0.22335 0.65588
 H150 H 0.80688 0.01082 0.67899
 H151 H 0.80959 -0.03116 0.61968
 H152 H 0.89261 0.10023 0.55172
 C153 C 1.19924 -0.15654 0.66011
 C154 C 1.14152 -0.19420 0.64241
 C155 C 1.09977 -0.23798 0.66150
 C156 C 1.11594 -0.24242 0.70056
 C157 C 1.17294 -0.20359 0.71953
 C158 C 1.21738 -0.16071 0.69855
 O159 O 1.22288 -0.11623 0.63955
 C160 C 1.17884 -0.12830 0.60836
 C161 C 1.12804 -0.17570 0.60848
 C162 C 1.06712 -0.19427 0.58187
 C163 C 1.05620 -0.16252 0.55526
 C164 C 1.10596 -0.11348 0.55575
 C165 C 1.17013 -0.09654 0.58157
 H166 H 1.05280 -0.26672 0.64756
 H167 H 1.08038 -0.27492 0.71681
 H168 H 1.25908 -0.13005 0.71277
 H169 H 1.02535 -0.23117 0.58351
 H170 H 1.00497 -0.17539 0.53654
 H171 H 1.20523 -0.05892 0.58413
 C172 C 0.32282 1.17407 1.16168
 C173 C 0.24858 1.13605 1.16057
 C174 C 0.17733 1.13556 1.17749
 C175 C 0.18302 1.17586 1.19673
 C176 C 0.25885 1.21533 1.19835
 C177 C 0.32967 1.21476 1.18029
 O178 O 0.38320 1.16655 1.14466
 C179 C 0.34605 1.12288 1.13259
 C180 C 0.26369 1.10278 1.14154
 C181 C 0.21292 1.05723 1.13186
 C182 C 0.24848 1.03134 1.11180
 C183 C 0.33326 1.05123 1.10231
 C184 C 0.38284 1.09764 1.11300
 H185 H 0.11991 1.10504 1.17649
 H186 H 0.12902 1.17645 1.21089
 H187 H 0.38818 1.24443 1.18182
 H188 H 0.14831 1.04222 1.13944
 H189 H 0.21022 0.99577 1.10388
 H190 H 0.44774 1.11375 1.10593
 C191 C 0.12315 0.87927 0.81757
 C192 C 0.06938 0.84848 0.84508
 C193 C 0.03357 0.79980 0.84035
 C194 C 0.05971 0.78219 0.80819
 C195 C 0.12017 0.81317 0.78161
 C196 C 0.14637 0.86236 0.78460
 O197 O 0.16796 0.92103 0.83111
 C198 C 0.14511 0.91658 0.86806
 C199 C 0.08385 0.87306 0.87831
 C200 C 0.06631 0.85648 0.91680
 C201 C 0.11733 0.88397 0.94513
 C202 C 0.18433 0.92669 0.93429
 C203 C 0.19423 0.94475 0.89591
 H204 H -0.00543 0.77582 0.86287
 H205 H 0.04057 0.74440 0.80644
 H206 H 0.19656 0.88653 0.76644
 H207 H 0.02095 0.82129 0.92423
 H208 H 0.11086 0.86926 0.97434
 H209 H 0.24821 0.97578 0.88676
 C210 C 0.68613 0.81440 1.15572
 C211 C 0.64195 0.79211 1.12481
 C212 C 0.61731 0.74404 1.11938
 C213 C 0.64000 0.71783 1.14662
 C214 C 0.68744 0.73986 1.17837
 C215 C 0.71030 0.78903 1.18299
 O216 O 0.69959 0.85992 1.15643
 C217 C 0.66334 0.86646 1.12514
 C218 C 0.62779 0.82602 1.10471
 C219 C 0.58516 0.82426 1.07144
 C220 C 0.57770 0.86562 1.05895
 C221 C 0.61183 0.90743 1.07986
 C222 C 0.65584 0.90814 1.11336
 H223 H 0.58066 0.72708 1.09537
 H224 H 0.61979 0.68017 1.14336
 H225 H 0.74536 0.80680 1.20722
 H226 H 0.55728 0.79194 1.05606
 H227 H 0.54292 0.86476 1.03365
 H228 H 0.68107 0.93951 1.13016
 C229 C 0.64844 1.14905 0.78552
 C230 C 0.65662 1.17994 0.81453
 C231 C 0.69869 1.22844 0.80899
 C232 C 0.74274 1.24492 0.77394
 C233 C 0.75389 1.21253 0.74840
 C234 C 0.69289 1.16536 0.75061
 O235 O 0.61354 1.10406 0.79774
 C236 C 0.60228 1.10671 0.83546
 C237 C 0.62928 1.15253 0.84725
 C238 C 0.64076 1.16407 0.88580
 C239 C 0.62120 1.12683 0.91330
 C240 C 0.58801 1.07931 0.90198
 C241 C 0.57796 1.06897 0.86256
 H242 H 0.70247 1.25253 0.83168
 H243 H 0.77645 1.28248 0.76974
 H244 H 0.69109 1.13969 0.72972
 H245 H 0.66746 1.20048 0.89421
 H246 H 0.63053 1.13488 0.94352
 H247 H 0.55577 1.03290 0.85334
 C248 C 0.23788 0.33192 0.14173
 C249 C 0.26925 0.37543 0.15785
 C250 C 0.30016 0.38181 0.19484
 C251 C 0.29921 0.34181 0.21567
 C252 C 0.26493 0.29627 0.19992
 C253 C 0.23402 0.29195 0.16219
 O254 O 0.20779 0.33218 0.10725
 C255 C 0.21951 0.37685 0.10130
 C256 C 0.25641 0.40495 0.13142
 C257 C 0.26518 0.45157 0.13298
 C258 C 0.23117 0.46892 0.10343
 C259 C 0.19057 0.43992 0.07275
 C260 C 0.18858 0.39399 0.07090
 H261 H 0.32427 0.41632 0.20721
 H262 H 0.32492 0.34629 0.24396
 H263 H 0.20582 0.25807 0.14900
 H264 H 0.29231 0.47278 0.15734
 H265 H 0.23134 0.50372 0.10592
 H266 H 0.15499 0.37014 0.04905
 C267 C -0.06717 0.32452 -0.21179
 C268 C -0.06615 0.29976 -0.17839
 C269 C -0.06477 0.25545 -0.17835
 C270 C -0.07601 0.23310 -0.21349
 C271 C -0.09657 0.25348 -0.24654
 C272 C -0.07814 0.30250 -0.24730
 O273 O -0.07801 0.36361 -0.20496
 C274 C -0.08590 0.36263 -0.16669
 C275 C -0.08081 0.32374 -0.14924
 C276 C -0.09835 0.31217 -0.11012
 C277 C -0.11370 0.34451 -0.08730
 C278 C -0.11005 0.38772 -0.10383
 C279 C -0.10077 0.39544 -0.14453
 H280 H -0.06258 0.23697 -0.15178
 H281 H -0.08204 0.19711 -0.21272
 H282 H -0.09290 0.31903 -0.27211
 H283 H -0.09787 0.28005 -0.09740
 H284 H -0.12062 0.33770 -0.05635
 H285 H -0.09890 0.42769 -0.15820
 C286 C 0.23856 0.71189 -0.18727
 C287 C 0.27194 0.73810 -0.15570
 C288 C 0.28620 0.78551 -0.15385
 C289 C 0.26339 0.80638 -0.18504
 C290 C 0.22239 0.77923 -0.21646
 C291 C 0.21421 0.73199 -0.21857
 O292 O 0.21841 0.66603 -0.18089
 C293 C 0.23844 0.66316 -0.14452
 C294 C 0.27118 0.70627 -0.12769
 C295 C 0.28199 0.71064 -0.08805
 C296 C 0.25506 0.66905 -0.06464
 C297 C 0.21728 0.62420 -0.08105
 C298 C 0.21391 0.62147 -0.12189
 H299 H 0.30863 0.80501 -0.12814
 H300 H 0.27050 0.84261 -0.18294
 H301 H 0.18082 0.71000 -0.24138
 H302 H 0.30341 0.74478 -0.07515
 H303 H 0.25629 0.67196 -0.03358
 H304 H 0.18184 0.58809 -0.13534
 C305 C -0.20783 0.64355 0.14252
 C306 C -0.23672 0.60057 0.16221
 C307 C -0.27967 0.59262 0.19779
 C308 C -0.29447 0.63027 0.21335
 C309 C -0.26649 0.67498 0.19335
 C310 C -0.22102 0.68148 0.15775
 O311 O -0.17087 0.64356 0.10859
 C312 C -0.17668 0.59944 0.10655
 C313 C -0.21594 0.57188 0.13879
 C314 C -0.22803 0.52476 0.14294
 C315 C -0.19904 0.50523 0.11302
 C316 C -0.15952 0.53208 0.07908
 C317 C -0.14751 0.58043 0.07595
 H318 H -0.30300 0.55820 0.21257
 H319 H -0.33032 0.62403 0.24012
 H320 H -0.19883 0.71494 0.14166
 H321 H -0.25741 0.50376 0.16870
 H322 H -0.20519 0.46925 0.11671
 H323 H -0.11368 0.60308 0.05148
 C324 C 1.14697 0.15732 0.69536
 C325 C 1.17242 0.12131 0.69955
 C326 C 1.21149 0.11518 0.73160
 C327 C 1.22336 0.14645 0.76136
 C328 C 1.19297 0.18281 0.76044
 C329 C 1.15505 0.18845 0.72583
 O330 O 1.11717 0.15834 0.66053
 C331 C 1.12373 0.12194 0.64303
 C332 C 1.15587 0.09784 0.66624
 C333 C 1.16863 0.05873 0.65451
 C334 C 1.14907 0.04409 0.61679
 C335 C 1.11849 0.06896 0.59132
 C336 C 1.10575 0.10864 0.60460
 H337 H 1.23379 0.08762 0.73343
 H338 H 1.25634 0.14126 0.78542
 H339 H 1.13194 0.21554 0.72276
 H340 H 1.19408 0.04049 0.67352
 H341 H 1.16078 0.01455 0.60678
 H342 H 1.08448 0.12896 0.58540
 C343 C 0.69158 -0.21554 0.70399
 C344 C 0.68269 -0.24921 0.67723
 C345 C 0.66831 -0.29563 0.68814
 C346 C 0.66338 -0.30734 0.72799
 C347 C 0.67407 -0.27253 0.75571
 C348 C 0.68687 -0.22632 0.74318
 O349 O 0.71303 -0.17258 0.68866
 C350 C 0.71841 -0.17880 0.65132
 C351 C 0.70003 -0.22494 0.64236
 C352 C 0.70853 -0.23776 0.60471
 C353 C 0.73952 -0.20132 0.57578
 C354 C 0.76255 -0.15346 0.58538
 C355 C 0.74926 -0.14266 0.62340
 H356 H 0.66372 -0.32140 0.66681
 H357 H 0.65308 -0.34296 0.73735
 H358 H 0.69721 -0.19859 0.76340
 H359 H 0.69481 -0.27411 0.59813
 H360 H 0.75002 -0.21000 0.54664
 H361 H 0.76685 -0.10678 0.63184
 C362 C 1.02337 -0.20135 0.31828
 C363 C 1.06567 -0.20582 0.34946
 C364 C 1.07908 -0.24632 0.35713
 C365 C 1.05319 -0.28191 0.32986
 C366 C 1.01558 -0.27580 0.29546
 C367 C 0.99474 -0.23648 0.29199
 O368 O 1.01850 -0.16006 0.31503
 C369 C 1.05867 -0.13763 0.34489
 C370 C 1.08890 -0.16385 0.36708
 C371 C 1.13032 -0.14713 0.40065
 C372 C 1.13474 -0.10340 0.41321
 C373 C 1.09743 -0.07816 0.39216
 C374 C 1.06494 -0.09379 0.35606
 H375 H 1.11218 -0.24934 0.38200
 H376 H 1.06960 -0.31161 0.33398
 H377 H 0.96596 -0.23039 0.26661
 H378 H 1.15324 -0.16833 0.41789
 H379 H 1.15876 -0.09201 0.44131
 H380 H 1.03570 -0.07534 0.33955
 C381 C 0.86814 0.19561 0.36089
 C382 C 0.82756 0.14785 0.34944
 C383 C 0.77276 0.13229 0.31655
 C384 C 0.76230 0.16609 0.29396
 C385 C 0.81085 0.21411 0.29904
 C386 C 0.85598 0.22653 0.33322
 O387 O 0.85219 0.14950 0.37073
 C388 C 0.89286 0.14585 0.40321
 C389 C 0.85029 0.12058 0.37068
 C390 C 0.83766 0.07127 0.36396
 C391 C 0.85326 0.04624 0.39387
 C392 C 0.86716 0.06572 0.43038
 C393 C 0.87928 0.11308 0.43562
 H394 H 0.74066 0.09529 0.31055
 H395 H 0.71955 0.15441 0.27104
 H396 H 0.88764 0.26351 0.33915
 H397 H 0.81372 0.05431 0.33736
 H398 H 0.84144 0.00942 0.39022
 H399 H 0.92416 0.14645 0.42341
 C400 C 0.13134 0.29143 -0.15973
 C401 C 0.18070 0.33290 -0.17898
 C402 C 0.22597 0.33365 -0.21262
 C403 C 0.22314 0.29017 -0.22576
 C404 C 0.17718 0.24714 -0.20467
 C405 C 0.12776 0.24828 -0.17222
 O406 O 0.09610 0.29769 -0.12742
 C407 C 0.12394 0.34432 -0.12585
 C408 C 0.17681 0.36770 -0.15642
 C409 C 0.21799 0.41674 -0.15856
 C410 C 0.20289 0.44243 -0.12861
 C411 C 0.14641 0.41922 -0.09766
 C412 C 0.10658 0.36927 -0.09623
 H413 H 0.26551 0.36673 -0.22709
 H414 H 0.26331 0.29061 -0.24974
 H415 H 0.09306 0.21642 -0.15496
 H416 H 0.26106 0.43463 -0.18215
 H417 H 0.23409 0.48060 -0.12982
 H418 H 0.06482 0.35046 -0.07241
 C419 C -0.01712 0.35454 0.23997
 C420 C -0.07069 0.37583 0.23110
 C421 C -0.14224 0.36936 0.25612
 C422 C -0.17657 0.32676 0.27753
 C423 C -0.13949 0.29471 0.27508
 C424 C -0.05721 0.31189 0.26171
 O425 O -0.04235 0.37270 0.20915
 C426 C 0.00760 0.38001 0.17760
 C427 C -0.05885 0.38930 0.19407
 C428 C -0.11189 0.40603 0.17118
 C429 C -0.10777 0.40399 0.13139
 C430 C -0.05211 0.38873 0.11437
 C431 C 0.00340 0.37900 0.13699
 H432 H -0.17834 0.38946 0.25098
 H433 H -0.23823 0.31514 0.28943
 H434 H -0.02427 0.28976 0.26591
 H435 H -0.15927 0.41409 0.18488
 H436 H -0.15081 0.41135 0.11417
 H437 H 0.05075 0.37214 0.12203
 C438 C -0.24957 0.65176 -0.13018
 C439 C -0.17821 0.65648 -0.15211
 C440 C -0.15614 0.67786 -0.19200
 C441 C -0.20490 0.69730 -0.20861
 C442 C -0.27508 0.69434 -0.18839
 C443 C -0.29509 0.67123 -0.15157
 O444 O -0.17877 0.64524 -0.12905
 C445 C -0.17365 0.62628 -0.09365
 C446 C -0.13535 0.64018 -0.13129
 C447 C -0.05819 0.63680 -0.14407
 C448 C -0.01711 0.62216 -0.11740
 C449 C -0.04834 0.61179 -0.07965
 C450 C -0.12376 0.61300 -0.06941
 H451 H -0.10108 0.68061 -0.20732
 H452 H -0.18661 0.71566 -0.23652
 H453 H -0.35102 0.66839 -0.13711
 H454 H -0.03442 0.64495 -0.17350
 H455 H 0.03753 0.61770 -0.12612
 H456 H -0.15000 0.59972 -0.04072
 C457 C 0.10383 0.62398 0.23324
 C458 C 0.03541 0.58265 0.22927
 C459 C -0.04025 0.57524 0.24672
 C460 C -0.04714 0.61358 0.26485
 C461 C 0.02190 0.65698 0.26647
 C462 C 0.09977 0.65901 0.25592
 O463 O 0.15794 0.63395 0.20406
 C464 C 0.12352 0.59918 0.18051
 C465 C 0.05030 0.56563 0.19545
 C466 C -0.00316 0.53109 0.17306
 C467 C 0.01695 0.53287 0.13374
 C468 C 0.08534 0.57125 0.11658
 C469 C 0.14225 0.60296 0.14078
 H470 H -0.09479 0.54426 0.24103
 H471 H -0.10734 0.61176 0.27230
 H472 H 0.15202 0.69272 0.25533
 H473 H -0.06143 0.50575 0.18481
 H474 H -0.02570 0.50680 0.11662
 H475 H 0.19357 0.63357 0.12869
 C476 C 0.21512 1.13923 0.87895
 C477 C 0.29892 1.16854 0.88487
 C478 C 0.34550 1.21562 0.86531
 C479 C 0.30927 1.22980 0.83588
 C480 C 0.23128 1.19961 0.82556
 C481 C 0.18675 1.15804 0.84791
 O482 O 0.28327 1.14155 0.89707
 C483 C 0.26326 1.10245 0.92099
 C484 C 0.32773 1.14644 0.90871
 C485 C 0.41397 1.16274 0.92049
 C486 C 0.43586 1.13153 0.94152
 C487 C 0.37621 1.08719 0.95173
 C488 C 0.29449 1.07537 0.94318
 H489 H 0.40803 1.23723 0.87184
 H490 H 0.34348 1.26244 0.81947
 H491 H 0.12399 1.13793 0.84074
 H492 H 0.46022 1.19685 0.91106
 H493 H 0.49837 1.14151 0.94932
 H494 H 0.24968 1.04132 0.95383
 C495 C 0.13523 0.78471 1.18859
 C496 C 0.10322 0.76230 1.15532
 C497 C 0.03515 0.71916 1.15631
 C498 C 0.00106 0.69837 1.19292
 C499 C 0.03381 0.72150 1.22762
 C500 C 0.10164 0.76578 1.22451
 O501 O 0.20208 0.82357 1.18280
 C502 C 0.21310 0.82647 1.14496
 C503 C 0.15457 0.79043 1.12621
 C504 C 0.15600 0.78856 1.08595
 C505 C 0.21874 0.82596 1.06473
 C506 C 0.27922 0.86318 1.08425
 C507 C 0.27637 0.86223 1.12495
 H508 H 0.01088 0.70132 1.13006
 H509 H -0.04970 0.66402 1.19440
 H510 H 0.13282 0.78347 1.24966
 H511 H 0.10944 0.76019 1.07141
 H512 H 0.21900 0.82645 1.03347
 H513 H 0.32042 0.88995 1.14116
 C514 C 0.80057 1.19306 1.17725
 C515 C 0.75727 1.21342 1.15727
 C516 C 0.72990 1.24496 1.17377
 C517 C 0.74783 1.25592 1.21240
 C518 C 0.79276 1.23542 1.23389
 C519 C 0.82162 1.20471 1.21502
 O520 O 0.80871 1.15807 1.15909
 C521 C 0.76909 1.15591 1.12700
 C522 C 0.73778 1.18969 1.12408
 C523 C 0.68498 1.18993 1.09550
 C524 C 0.66002 1.15245 1.07024
 C525 C 0.68715 1.11572 1.07462
 C526 C 0.74515 1.11849 1.10214
 H527 H 0.69257 1.25883 1.15810
 H528 H 0.72346 1.27870 1.22588
 H529 H 0.85753 1.18904 1.22976
 H530 H 0.65920 1.21598 1.09451
 H531 H 0.61395 1.14967 1.04971
 H532 H 0.76378 1.08971 1.10694
 C533 C 0.66924 0.80431 0.87050
 C534 C 0.58402 0.79286 0.86804
 C535 C 0.52642 0.75422 0.84499
 C536 C 0.55729 0.72908 0.82234
 C537 C 0.64003 0.73961 0.82273
 C538 C 0.69128 0.77479 0.84653
 O539 O 0.60774 0.81713 0.88176
 C540 C 0.63710 0.85495 0.90522
 C541 C 0.56559 0.82227 0.88811
 C542 C 0.48338 0.82278 0.89199
 C543 C 0.47490 0.85854 0.91155
 C544 C 0.54269 0.89227 0.92809
 C545 C 0.61864 0.88891 0.92525
 H546 H 0.46218 0.74668 0.84433
 H547 H 0.51761 0.70224 0.80397
 H548 H 0.75526 0.78130 0.84584
 H549 H 0.43126 0.79652 0.87910
 H550 H 0.41551 0.85966 0.91398
 H551 H 0.66947 0.91495 0.93946
   
