data_POSCAR
  _audit_creation_date              2014-09-24
  _audit_creation_method            'ToBaCCo'
  _symmetry_space_group_name_H-M    'P1'
  _symmetry_Int_Tables_number       1
  _symmetry_cell_setting            triclinic
  loop_
  _symmetry_equiv_pos_as_xyz
 x,y,z
_cell_length_a 26.2599
_cell_length_b 23.1164
_cell_length_c 22.2298
_cell_angle_alpha 89.899800
_cell_angle_beta 90.089800
_cell_angle_gamma 90.150100
loop_
  _atom_site_label
  _atom_site_type_symbol
  _atom_site_fract_x
  _atom_site_fract_y
  _atom_site_fract_z
C1 C 0.15366 0.25049 0.13616
 C2 C 0.16622 0.19844 0.16545
 C3 C 0.20339 0.19959 0.21113
 C4 C 0.23052 0.25067 0.22490
 C5 C 0.21756 0.30179 0.19378
 C6 C 0.17793 0.30259 0.15141
 C7 C 0.27160 0.25073 0.27203
 C8 C 0.28436 0.30179 0.30334
 C9 C 0.32382 0.30266 0.34592
 C10 C 0.34813 0.25070 0.36113
 C11 C 0.33580 0.19872 0.33164
 C12 C 0.29882 0.19980 0.28575
 H13 H 0.12359 0.25106 0.10307
 H14 H 0.21096 0.16033 0.23605
 H15 H 0.23798 0.34159 0.20228
 H16 H 0.26388 0.34147 0.29488
 H17 H 0.37809 0.25135 0.39435
 H18 H 0.29141 0.16062 0.26072
 C19 C 0.84980 0.24729 0.14183
 C20 C 0.83632 0.29917 0.17015
 C21 C 0.79808 0.29853 0.21418
 C22 C 0.77074 0.24745 0.22761
 C23 C 0.78439 0.19620 0.19722
 C24 C 0.82494 0.19533 0.15616
 C25 C 0.72879 0.24754 0.27358
 C26 C 0.71490 0.19637 0.30431
 C27 C 0.67476 0.19564 0.34619
 C28 C 0.65100 0.24816 0.36088
 C29 C 0.66445 0.29981 0.33173
 C30 C 0.70205 0.29877 0.28700
 H31 H 0.88099 0.24711 0.11024
 H32 H 0.79016 0.33820 0.23800
 H33 H 0.76377 0.15641 0.20509
 H34 H 0.73535 0.15667 0.29616
 H35 H 0.62058 0.24885 0.39342
 H36 H 0.71005 0.33830 0.26274
 C37 C 0.65133 0.74893 0.64039
 C38 C 0.67608 0.69703 0.65479
 C39 C 0.71621 0.69792 0.69656
 C40 C 0.72950 0.74904 0.72756
 C41 C 0.70232 0.80005 0.71400
 C42 C 0.66451 0.80072 0.66932
 C43 C 0.77081 0.74901 0.77443
 C44 C 0.79785 0.80011 0.78838
 C45 C 0.83491 0.80122 0.83418
 C46 C 0.84749 0.74914 0.86338
 C47 C 0.82333 0.69705 0.84795
 C48 C 0.78381 0.69784 0.80545
 H49 H 0.62050 0.74875 0.60821
 H50 H 0.73678 0.65823 0.70464
 H51 H 0.71003 0.83958 0.73827
 H52 H 0.79024 0.83943 0.76359
 H53 H 0.87748 0.74856 0.89657
 H54 H 0.76345 0.65803 0.79686
 C55 C 0.34769 0.75159 0.63879
 C56 C 0.32281 0.80345 0.65272
 C57 C 0.28232 0.80246 0.69385
 C58 C 0.26881 0.75127 0.72474
 C59 C 0.29608 0.70029 0.71165
 C60 C 0.33428 0.69973 0.66757
 C61 C 0.22726 0.75128 0.77114
 C62 C 0.20014 0.70018 0.78500
 C63 C 0.16303 0.69903 0.83063
 C64 C 0.15044 0.75109 0.85963
 C65 C 0.17467 0.80318 0.84425
 C66 C 0.21422 0.80242 0.80196
 H67 H 0.37882 0.75186 0.60712
 H68 H 0.26169 0.84213 0.70155
 H69 H 0.28818 0.66070 0.73586
 H70 H 0.20781 0.66088 0.76039
 H71 H 0.12035 0.75168 0.89259
 H72 H 0.23464 0.84224 0.79348
 O73 O 1.05170 -0.07204 -0.00820
 O74 O 0.94524 -0.00313 0.07173
 O75 O 0.95394 -0.07463 -0.01827
 O76 O 1.04453 0.00020 0.08172
 O77 O 1.04665 0.07418 0.01876
 O78 O 0.95606 -0.00058 -0.08115
 O79 O 0.94882 0.07113 0.00921
 O80 O 1.05529 0.00216 -0.07080
 Cu81 Cu 0.99856 -0.04469 0.03827
 Cu82 Cu 1.00199 0.04402 -0.03749
 C83 C 1.07127 -0.04696 -0.05349
 C84 C 0.92922 0.04597 0.05445
 C85 C 0.93985 -0.05057 -0.06690
 C86 C 1.06076 0.05017 0.06740
 O87 O 0.55137 0.57198 0.50800
 O88 O 0.44375 0.50224 0.42988
 O89 O 0.45360 0.57396 0.51936
 O90 O 0.54270 0.50008 0.41760
 O91 O 0.54631 0.42626 0.48064
 O92 O 0.45724 0.50015 0.58242
 O93 O 0.44854 0.42801 0.49232
 O94 O 0.55616 0.49770 0.57037
 Cu95 Cu 0.49750 0.54438 0.46224
 Cu96 Cu 0.50244 0.45571 0.53789
 C97 C 0.57174 0.54697 0.55287
 C98 C 0.42814 0.45299 0.44746
 C99 C 0.44053 0.54990 0.56837
 C100 C 0.55939 0.45032 0.43163
 O101 O -0.05104 0.57160 -0.00702
 O102 O 0.05748 0.50215 0.06926
 O103 O 0.04648 0.57449 -0.01987
 O104 O -0.04132 0.49940 0.08308
 O105 O -0.04579 0.42595 0.01988
 O106 O 0.04287 0.50062 -0.08263
 O107 O 0.05184 0.42800 0.00706
 O108 O -0.05614 0.49780 -0.06974
 Cu109 Cu 0.00334 0.54418 0.03785
 Cu110 Cu -0.00227 0.45582 -0.03786
 C111 C -0.07169 0.54680 -0.05181
 C112 C 0.07277 0.45295 0.05156
 C113 C 0.05945 0.55056 -0.06886
 C114 C -0.05828 0.44969 0.06916
 O115 O 0.55610 0.99876 0.42976
 O116 O 0.44838 0.92876 0.50732
 O117 O 0.45692 1.00117 0.41731
 O118 O 0.54609 0.92699 0.51947
 O119 O 0.54227 1.00062 0.58247
 O120 O 0.45357 1.07497 0.48013
 O121 O 0.44337 1.00295 0.56951
 O122 O 0.55110 1.07281 0.49211
 Cu123 Cu 0.50228 0.95664 0.46196
 Cu124 Cu 0.49722 1.04512 0.53754
 C125 C 0.57158 1.04800 0.44739
 C126 C 0.42785 0.95369 0.55196
 C127 C 0.44034 1.05096 0.43121
 C128 C 0.55900 0.95091 0.56858
 N129 N 1.11925 0.05640 0.15265
 N130 N 1.14819 0.09551 0.17986
 C131 C 1.14174 0.14614 0.15027
 C132 C 1.10791 0.13631 0.10351
 N133 N 1.09499 0.08014 0.10667
 H134 H 1.09405 0.16638 0.06997
 N135 N 0.64173 0.54992 0.62498
 N136 N 0.67056 0.58888 0.65257
 C137 C 0.65796 0.64116 0.62980
 C138 C 0.62062 0.63266 0.58673
 N139 N 0.61159 0.57545 0.58534
 H140 H 0.59983 0.66478 0.56122
 N141 N -0.11042 0.44178 0.15970
 N142 N -0.13875 0.40270 0.18790
 C143 C -0.13720 0.35387 0.15467
 C144 C -0.10722 0.36458 0.10486
 N145 N -0.09133 0.41964 0.10975
 H146 H -0.09781 0.33552 0.06844
 N147 N 0.35757 0.95059 0.62344
 N148 N 0.32854 0.91159 0.65068
 C149 C 0.34116 0.85938 0.62799
 C150 C 0.37873 0.86797 0.58534
 N151 N 0.38787 0.92516 0.58410
 H152 H 0.39956 0.83591 0.55999
 N153 N -0.14212 0.54989 -0.12332
 N154 N -0.17113 0.58891 -0.15042
 C155 C -0.15852 0.64106 -0.12734
 C156 C -0.12095 0.63240 -0.08459
 N157 N -0.11182 0.57525 -0.08370
 H158 H -0.09999 0.66440 -0.05907
 N159 N 0.38295 1.05700 0.34484
 N160 N 0.35422 1.09600 0.31723
 C161 C 0.36028 1.14656 0.34696
 C162 C 0.39363 1.13681 0.39418
 N163 N 0.40668 1.08076 0.39119
 H164 H 0.40701 1.16682 0.42802
 N165 N 1.13994 -0.04980 -0.12716
 N166 N 1.16851 -0.08871 -0.15481
 C167 C 1.15664 -0.14088 -0.13110
 C168 C 1.11998 -0.13235 -0.08742
 N169 N 1.11063 -0.07525 -0.08659
 H170 H 1.09986 -0.16442 -0.06103
 N171 N 0.61202 0.44259 0.34146
 N172 N 0.64029 0.40349 0.31358
 C173 C 0.63850 0.35471 0.34708
 C174 C 0.60844 0.36550 0.39673
 N175 N 0.59273 0.42049 0.39146
 H176 H 0.59872 0.33650 0.43323
 N177 N 0.88153 -0.05666 -0.15230
 N178 N 0.85274 -0.09576 -0.17978
 C179 C 0.85923 -0.14646 -0.15034
 C180 C 0.89290 -0.13670 -0.10340
 N181 N 0.90570 -0.08048 -0.10630
 H182 H 0.90676 -0.16685 -0.06994
 N183 N 0.35817 0.44988 0.37529
 N184 N 0.32932 0.41084 0.34786
 C185 C 0.34179 0.35863 0.37092
 C186 C 0.37911 0.36728 0.41400
 N187 N 0.38823 0.42448 0.41510
 H188 H 0.39989 0.33527 0.43966
 N189 N 0.11656 0.55685 -0.15525
 N190 N 0.14503 0.59602 -0.18312
 C191 C 0.13878 0.64669 -0.15375
 C192 C 0.10557 0.63683 -0.10648
 N193 N 0.09282 0.58060 -0.10908
 H194 H 0.09215 0.66689 -0.07283
 N195 N 0.64442 1.05102 0.37939
 N196 N 0.67315 1.09012 0.35181
 C197 C 0.65737 1.14279 0.37040
 C198 C 0.61829 1.13424 0.41132
 N199 N 0.61143 1.07679 0.41529
 H200 H 0.59515 1.16610 0.43398
 N201 N 0.14342 0.44979 0.12279
 N202 N 0.17250 0.41075 0.14974
 C203 C 0.15974 0.35859 0.12678
 C204 C 0.12198 0.36729 0.08426
 N205 N 0.11292 0.42445 0.08338
 H206 H 0.10090 0.33530 0.05887
 N207 N 0.61146 0.94316 0.65904
 N208 N 0.63981 0.90415 0.68719
 C209 C 0.63812 0.85536 0.65387
 C210 C 0.60803 0.86604 0.60407
 N211 N 0.59223 0.92101 0.60906
 H212 H 0.59845 0.83699 0.56761
 N213 N 0.86033 0.04849 0.12785
 N214 N 0.83150 0.08726 0.15537
 C215 C 0.84332 0.13948 0.13177
 C216 C 0.88019 0.13116 0.08830
 N217 N 0.88973 0.07411 0.08748
 H218 H 0.90024 0.16336 0.06199
 N219 N 0.38764 0.55741 0.65831
 N220 N 0.35906 0.59633 0.68603
 C221 C 0.36085 0.64515 0.65260
 C222 C 0.39124 0.63461 0.60319
 N223 N 0.40712 0.57967 0.60850
 H224 H 0.40094 0.66370 0.56675
   
