data_POSCAR
  _audit_creation_date              2014-09-24
  _audit_creation_method            'ToBaCCo'
  _symmetry_space_group_name_H-M    'P1'
  _symmetry_Int_Tables_number       1
  _symmetry_cell_setting            triclinic
  loop_
  _symmetry_equiv_pos_as_xyz
 x,y,z
_cell_length_a 53.0823
_cell_length_b 52.3949
_cell_length_c 52.4819
_cell_angle_alpha 90.166400
_cell_angle_beta 89.901200
_cell_angle_gamma 89.664700
loop_
  _atom_site_label
  _atom_site_type_symbol
  _atom_site_fract_x
  _atom_site_fract_y
  _atom_site_fract_z
N1 N 0.19020 1.24356 0.16987
 N2 N 0.17223 1.24355 0.18715
 C3 C 0.15614 1.26294 0.18239
 C4 C 0.16451 1.27567 0.16095
 C5 C 0.18620 1.26292 0.15353
 H6 H 0.13937 1.26725 0.19335
 H7 H 0.19793 1.26713 0.13721
 Cu8 Cu 0.17125 1.21749 0.21345
 Cu9 Cu 0.21686 1.21782 0.16911
 Cu10 Cu 0.21527 1.17135 0.21610
 N11 N 0.17045 1.19148 0.23982
 N12 N 0.18781 1.17349 0.24073
 C13 C 0.18263 1.15759 0.26012
 C14 C 0.16080 1.16604 0.27193
 C15 C 0.15359 1.18762 0.25862
 H16 H 0.19365 1.14087 0.26499
 H17 H 0.13708 1.19931 0.26215
 N18 N 0.24148 1.17249 0.18946
 N19 N 0.24209 1.19017 0.17159
 C20 C 0.26163 1.18531 0.15586
 C21 C 0.27381 1.16355 0.16422
 C22 C 0.26062 1.15592 0.18554
 H23 H 0.26641 1.19642 0.13923
 H24 H 0.26445 1.13923 0.19700
 H25 H 0.19652 1.18921 0.18656
 H26 H 0.21620 1.20977 0.20759
 N27 N 0.80422 0.75161 0.17888
 N28 N 0.82176 0.75242 0.19651
 C29 C 0.83980 0.73511 0.19092
 C30 C 0.83308 0.72278 0.16864
 C31 C 0.81037 0.73365 0.16154
 H32 H 0.85658 0.73184 0.20213
 H33 H 0.79927 0.72904 0.14490
 Cu34 Cu 0.81935 0.77601 0.22504
 Cu35 Cu 0.77479 0.77391 0.17992
 Cu36 Cu 0.78098 0.82695 0.21916
 N37 N 0.82260 0.80561 0.24704
 N38 N 0.80784 0.82567 0.24439
 C39 C 0.81450 0.84359 0.26149
 C40 C 0.83455 0.83423 0.27553
 C41 C 0.83921 0.81005 0.26588
 H42 H 0.80551 0.86207 0.26350
 H43 H 0.85376 0.79684 0.27188
 N44 N 0.75487 0.82421 0.19262
 N45 N 0.75223 0.80379 0.17807
 C46 C 0.73292 0.80766 0.16191
 C47 C 0.72291 0.83161 0.16658
 C48 C 0.73721 0.84157 0.18615
 H49 H 0.72684 0.79423 0.14752
 H50 H 0.73497 0.86019 0.19484
 H51 H 0.79788 0.80195 0.19346
 H52 H 0.77529 0.78853 0.21704
 N53 N 0.81623 1.23511 -0.16330
 N54 N 0.83364 1.23443 -0.18112
 C55 C 0.84884 1.25473 -0.17835
 C56 C 0.84050 1.26876 -0.15761
 C57 C 0.81977 1.25578 -0.14849
 H58 H 0.86512 1.25865 -0.19010
 H59 H 0.80852 1.26065 -0.13195
 Cu60 Cu 0.83592 1.20617 -0.20510
 Cu61 Cu 0.79158 1.20808 -0.15954
 Cu62 Cu 0.78578 1.16755 -0.21154
 N63 N 0.83251 1.18333 -0.23405
 N64 N 0.81271 1.16861 -0.23676
 C65 C 0.81555 1.15434 -0.25796
 C66 C 0.83839 1.16045 -0.26905
 C67 C 0.84863 1.17899 -0.25345
 H68 H 0.80234 1.14009 -0.26444
 H69 H 0.86663 1.18827 -0.25578
 N70 N 0.76080 1.16921 -0.18370
 N71 N 0.76330 1.18433 -0.16371
 C72 C 0.74413 1.18017 -0.14744
 C73 C 0.72896 1.16143 -0.15762
 C74 C 0.74001 1.15491 -0.18060
 H75 H 0.74163 1.18967 -0.12929
 H76 H 0.73370 1.14032 -0.19369
 H77 H 0.80718 1.17843 -0.18118
 H78 H 0.79063 1.20468 -0.19843
 N79 N 0.18977 0.76117 -0.17598
 N80 N 0.17220 0.76192 -0.19361
 C81 C 0.15576 0.74287 -0.18948
 C82 C 0.16348 0.72957 -0.16815
 C83 C 0.18512 0.74164 -0.16006
 H84 H 0.13916 0.73916 -0.20079
 H85 H 0.19635 0.73685 -0.14356
 Cu86 Cu 0.17216 0.78842 -0.21948
 Cu87 Cu 0.21675 0.78619 -0.17428
 Cu88 Cu 0.21683 0.83344 -0.22053
 N89 N 0.17227 0.81487 -0.24541
 N90 N 0.18987 0.83243 -0.24570
 C91 C 0.18531 0.84879 -0.26490
 C92 C 0.16363 0.84109 -0.27723
 C93 C 0.15586 0.81947 -0.26443
 H94 H 0.19664 0.86531 -0.26927
 H95 H 0.13928 0.80826 -0.26845
 N96 N 0.24244 0.83118 -0.19345
 N97 N 0.24241 0.81321 -0.17585
 C98 C 0.26170 0.81730 -0.15971
 C99 C 0.27438 0.83884 -0.16753
 C100 C 0.26174 0.84715 -0.18896
 H101 H 0.26598 0.80580 -0.14318
 H102 H 0.26607 0.86389 -0.20010
 H103 H 0.19719 0.81560 -0.19164
 H104 H 0.21706 0.79487 -0.21262
 C105 C 0.53856 1.03315 -0.00598
 H106 H 0.53880 1.03250 0.01462
 C107 C 0.55597 1.04817 -0.01897
 H108 H 0.56948 1.05912 -0.00812
 C109 C 0.52096 1.01900 -0.04496
 H110 H 0.50763 1.00721 -0.05503
 C111 C 0.53807 1.03374 -0.05874
 H112 H 0.53747 1.03327 -0.07936
 N113 N 0.52146 1.01905 -0.01905
 C114 C 0.46126 1.00498 0.03565
 H115 H 0.46074 0.98435 0.03498
 C116 C 0.44395 1.01839 0.05068
 H117 H 0.43023 1.00784 0.06163
 C118 C 0.47947 1.04362 0.02149
 H119 H 0.49298 1.05340 0.00968
 C120 C 0.46248 1.05781 0.03624
 H121 H 0.46337 1.07844 0.03577
 Zn122 Zn 0.49996 0.99788 0.00027
 N123 N 0.47862 1.01768 0.02153
 C124 C 0.52002 0.97651 0.04582
 N125 N 0.52095 0.97630 0.01992
 C126 C 0.53820 0.96182 0.00717
 C127 C 0.55535 0.94663 0.02049
 C128 C 0.53684 0.96161 0.05992
 C129 C 0.46182 0.99164 -0.03558
 C130 C 0.44458 0.97864 -0.05082
 C131 C 0.46244 0.93878 -0.03619
 C132 C 0.47938 0.95258 -0.02124
 N133 N 0.47881 0.97853 -0.02127
 H134 H 0.50660 0.98860 0.05564
 H135 H 0.53879 0.96235 -0.01343
 H136 H 0.56900 0.93541 0.00990
 H137 H 0.53591 0.96225 0.08052
 H138 H 0.46151 1.01228 -0.03490
 H139 H 0.43114 0.98952 -0.06192
 H140 H 0.46309 0.91813 -0.03573
 H141 H 0.49261 0.94249 -0.00928
 C142 C 0.44431 1.04520 0.05101
 C143 C 0.55598 1.04850 -0.04574
 C144 C 0.44463 0.95182 -0.05115
 C145 C 0.55493 0.94651 0.04726
 C146 C -0.00495 0.54189 1.03269
 H147 H 0.01541 0.54255 1.03214
 C148 C -0.01837 0.55925 1.04779
 H149 H -0.00809 0.57315 1.05891
 C150 C -0.04292 0.52324 1.01826
 H151 H -0.05244 0.50953 1.00635
 C152 C -0.05709 0.54026 1.03308
 H153 H -0.07744 0.53918 1.03254
 N154 N -0.01732 0.52426 1.01845
 C155 C 0.03786 0.46387 1.00451
 H156 H 0.03739 0.46322 0.98391
 C157 C 0.05277 0.44649 1.01791
 H158 H 0.06384 0.43261 1.00738
 C159 C 0.02327 0.48240 1.04308
 H160 H 0.01134 0.49605 1.05283
 C161 C 0.03790 0.46535 1.05726
 H162 H 0.03721 0.46634 1.07786
 Zn163 Zn 0.00237 0.50261 0.99735
 N164 N 0.02357 0.48140 1.01718
 C165 C 0.04722 0.52331 0.97619
 N166 N 0.02160 0.52394 0.97587
 C167 C 0.00884 0.54109 0.96132
 C168 C 0.02186 0.55843 0.94614
 C169 C 0.06101 0.54034 0.96130
 C170 C -0.03227 0.46340 0.99114
 C171 C -0.04703 0.44565 0.97822
 C172 C -0.03286 0.46360 0.93837
 C173 C -0.01837 0.48107 0.95209
 N174 N -0.01842 0.48071 0.97801
 H175 H 0.05704 0.50997 0.98833
 H176 H -0.01154 0.54144 0.96177
 H177 H 0.01127 0.57201 0.93485
 H178 H 0.08139 0.53964 0.96201
 H179 H -0.03161 0.46327 1.01174
 H180 H -0.05779 0.43199 0.98913
 H181 H -0.03242 0.46410 0.91776
 H182 H -0.00679 0.49457 0.94199
 C183 C 0.05280 0.44697 1.04468
 C184 C -0.04483 0.55865 1.04806
 C185 C -0.04737 0.44548 0.95145
 C186 C 0.04833 0.55832 0.94611
 C187 C 1.03304 -0.00382 0.53634
 H188 H 1.03225 0.01682 0.53692
 C189 C 1.04805 -0.01706 0.55372
 H190 H 1.05885 -0.00637 0.56754
 C191 C 1.01924 -0.04262 0.51793
 H192 H 1.00759 -0.05253 0.50430
 C193 C 1.03397 -0.05666 0.53498
 H194 H 1.03365 -0.07729 0.53404
 N195 N 1.01912 -0.01668 0.51885
 C196 C 1.00455 0.03887 0.45887
 H197 H 0.98419 0.03838 0.45840
 C198 C 1.01766 0.05399 0.44154
 H199 H 1.00715 0.06520 0.42786
 C200 C 1.04283 0.02416 0.47693
 H201 H 1.05259 0.01210 0.49038
 C202 C 1.05671 0.03899 0.45993
 H203 H 1.07708 0.03833 0.46075
 Zn204 Zn 0.99795 0.00298 0.49748
 N205 N 1.01723 0.02442 0.47615
 C206 C 0.97667 0.04841 0.51867
 N207 N 0.97673 0.02245 0.51915
 C208 C 0.96279 0.00942 0.53647
 C209 C 0.94787 0.02250 0.55417
 C210 C 0.96203 0.06228 0.53607
 C211 C 0.99149 -0.03260 0.45839
 C212 C 0.97847 -0.04776 0.44098
 C213 C 0.93934 -0.03311 0.45968
 C214 C 0.95313 -0.01822 0.47675
 N215 N 0.97874 -0.01833 0.47588
 H216 H 0.98834 0.05843 0.50516
 H217 H 0.96353 -0.01122 0.53670
 H218 H 0.93708 0.01168 0.56788
 H219 H 0.96244 0.08292 0.53551
 H220 H 1.01186 -0.03198 0.45785
 H221 H 0.98906 -0.05887 0.42717
 H222 H 0.91897 -0.03262 0.46062
 H223 H 0.94331 -0.00630 0.49037
 C224 C 1.04413 0.05408 0.44181
 C225 C 1.04856 -0.04387 0.55329
 C226 C 0.95201 -0.04808 0.44140
 C227 C 0.94748 0.04932 0.55425
 N228 N 0.11993 0.32581 1.14612
 C229 C 0.13012 0.33572 1.12464
 N230 N 0.15194 0.32572 1.11545
 N231 N 0.16321 0.30637 1.12736
 C232 C 0.15303 0.29631 1.14885
 N233 N 0.13121 0.30645 1.15804
 C234 C 0.11753 0.35597 1.11132
 C235 C 0.10675 0.37267 1.09986
 C236 C 0.09366 0.39215 1.08590
 N237 N 0.09445 0.39233 1.06009
 N238 N 0.08168 0.40991 1.04704
 C239 C 0.06765 0.42794 1.05929
 N240 N 0.06702 0.42771 1.08519
 N241 N 0.07979 0.41012 1.09826
 N242 N -0.11739 0.67614 1.15185
 C243 C -0.12642 0.66609 1.12988
 N244 N -0.14880 0.67458 1.12071
 N245 N -0.16176 0.69259 1.13312
 C246 C -0.15275 0.70272 1.15512
 N247 N -0.13034 0.69416 1.16427
 C248 C -0.11232 0.64695 1.11629
 C249 C -0.10045 0.63102 1.10471
 C250 C -0.08629 0.61224 1.09070
 N251 N -0.09826 0.59425 1.07670
 N252 N -0.08509 0.57713 1.06330
 C253 C -0.05948 0.57737 1.06339
 N254 N -0.04761 0.59544 1.07753
 N255 N -0.06077 0.61256 1.09093
 N256 N -0.14626 0.32241 0.88570
 C257 C -0.12492 0.33213 0.87545
 N258 N -0.11516 0.32129 0.85409
 N259 N -0.12637 0.30129 0.84334
 C260 C -0.14769 0.29144 0.85362
 N261 N -0.15747 0.30241 0.87495
 C262 C -0.11223 0.35289 0.88774
 C263 C -0.10137 0.36994 0.89851
 C264 C -0.08824 0.38974 0.91185
 N265 N -0.07460 0.40728 0.89895
 N266 N -0.06182 0.42516 0.91149
 C267 C -0.06218 0.42611 0.93739
 N268 N -0.07597 0.40850 0.95018
 N269 N -0.08875 0.39064 0.93765
 N270 N 0.11703 0.67955 0.84577
 C271 C 0.12655 0.66904 0.86731
 N272 N 0.14833 0.67825 0.87705
 N273 N 0.16022 0.69741 0.86562
 C274 C 0.15071 0.70801 0.84408
 N275 N 0.12892 0.69870 0.83433
 C276 C 0.11334 0.64895 0.88006
 C277 C 0.10207 0.63235 0.89103
 C278 C 0.08845 0.61295 0.90440
 N279 N 0.10087 0.59529 0.91850
 N280 N 0.08815 0.57778 0.93154
 C281 C 0.06255 0.57729 0.93097
 N282 N 0.05023 0.59501 0.91670
 N283 N 0.06295 0.61252 0.90367
 N284 N 1.14523 0.12183 0.32215
 C285 C 1.12345 0.13201 0.33121
 N286 N 1.11427 0.15372 0.32062
 N287 N 1.12650 0.16488 0.30150
 C288 C 1.14830 0.15470 0.29229
 N289 N 1.15746 0.13299 0.30304
 C290 C 1.10991 0.11953 0.35127
 C291 C 1.09842 0.10874 0.36785
 C292 C 1.08464 0.09552 0.38724
 N293 N 1.05911 0.09618 0.38746
 N294 N 1.04627 0.08324 0.40496
 C295 C 1.05846 0.06914 0.42286
 N296 N 1.08408 0.06864 0.42258
 N297 N 1.09693 0.08159 0.40508
 N298 N 1.14959 -0.11346 0.67307
 C299 C 1.12787 -0.12296 0.66349
 N300 N 1.11823 -0.14462 0.67355
 N301 N 1.12995 -0.15641 0.69266
 C302 C 1.15169 -0.14692 0.70239
 N303 N 1.16132 -0.12525 0.69218
 C304 C 1.11482 -0.10979 0.64349
 C305 C 1.10368 -0.09845 0.62699
 C306 C 1.09020 -0.08463 0.60772
 N307 N 1.07658 -0.09719 0.58988
 N308 N 1.06353 -0.08427 0.57244
 C309 C 1.06362 -0.05831 0.57222
 N310 N 1.07739 -0.04586 0.59013
 N311 N 1.09043 -0.05878 0.60756
 N312 N 0.85324 -0.11723 0.32057
 C313 C 0.87287 -0.12879 0.33243
 N314 N 0.87963 -0.15277 0.32535
 N315 N 0.86714 -0.16483 0.30693
 C316 C 0.84748 -0.15330 0.29496
 N317 N 0.84075 -0.12927 0.30216
 C318 C 0.88653 -0.11560 0.35197
 C319 C 0.89803 -0.10428 0.36820
 C320 C 0.91177 -0.09050 0.38727
 N321 N 0.93729 -0.09077 0.38723
 N322 N 0.95006 -0.07747 0.40455
 C323 C 0.93778 -0.06339 0.42253
 N324 N 0.91216 -0.06327 0.42251
 N325 N 0.89939 -0.07657 0.40519
 N326 N 0.84816 0.11942 0.67633
 C327 C 0.87133 0.12679 0.66843
 N328 N 0.88331 0.14566 0.68121
 N329 N 0.87249 0.15679 0.70133
 C330 C 0.84933 0.14938 0.70941
 N331 N 0.83733 0.13054 0.69646
 C332 C 0.88348 0.11404 0.64749
 C333 C 0.89399 0.10299 0.63028
 C334 C 0.90684 0.08945 0.61028
 N335 N 0.92040 0.10221 0.59256
 N336 N 0.93308 0.08949 0.57457
 C337 C 0.93267 0.06356 0.57367
 N338 N 0.91894 0.05091 0.59145
 N339 N 0.90627 0.06361 0.60942
 N340 N 0.32492 1.14771 0.11924
 C341 C 0.33420 1.12576 0.12922
 N342 N 0.32385 1.11638 0.15086
 N343 N 0.30475 1.12856 0.16217
 C344 C 0.29535 1.15052 0.15218
 N345 N 0.30581 1.15990 0.13054
 C346 C 0.35420 1.11219 0.11657
 C347 C 0.37070 1.10059 0.10569
 C348 C 0.38998 1.08654 0.09242
 N349 N 0.39017 1.06069 0.09286
 N350 N 0.40758 1.04759 0.07992
 C351 C 0.42542 1.05984 0.06603
 N352 N 0.42517 1.08579 0.06575
 N353 N 0.40775 1.09891 0.07869
 N354 N 0.67936 1.14629 -0.11103
 C355 C 0.66710 1.12695 -0.12279
 N356 N 0.67491 1.11917 -0.14618
 N357 N 0.69445 1.13038 -0.15745
 C358 C 0.70683 1.14970 -0.14567
 N359 N 0.69889 1.15749 -0.12228
 C360 C 0.64677 1.11420 -0.11016
 C361 C 0.63006 1.10326 -0.09918
 C362 C 0.61064 1.08997 -0.08568
 N363 N 0.59322 1.07615 -0.09847
 N364 N 0.57569 1.06318 -0.08580
 C365 C 0.57497 1.06353 -0.05990
 N366 N 0.59246 1.07751 -0.04723
 N367 N 0.60997 1.09048 -0.05987
 N368 N 0.32487 0.85263 -0.12155
 C369 C 0.33471 0.87443 -0.13111
 N370 N 0.32492 0.88437 -0.15278
 N371 N 0.30583 0.87289 -0.16453
 C372 C 0.29589 0.85109 -0.15497
 N373 N 0.30579 0.84114 -0.13330
 C374 C 0.35469 0.88728 -0.11800
 C375 C 0.37117 0.89835 -0.10680
 C376 C 0.39040 0.91187 -0.09323
 N377 N 0.39096 0.93772 -0.09367
 N378 N 0.40834 0.95037 -0.08051
 C379 C 0.42579 0.93765 -0.06639
 N380 N 0.42517 0.91171 -0.06611
 N381 N 0.40778 0.89905 -0.07928
 N382 N 0.67137 0.84375 0.12122
 C383 C 0.66407 0.86773 0.12778
 N384 N 0.67598 0.87976 0.14719
 N385 N 0.69464 0.86817 0.15966
 C386 C 0.70204 0.84418 0.15311
 N387 N 0.69004 0.83216 0.13368
 C388 C 0.64437 0.88047 0.11401
 C389 C 0.62804 0.89144 0.10235
 C390 C 0.60892 0.90482 0.08836
 N391 N 0.59115 0.91882 0.10075
 N392 N 0.57385 0.93184 0.08771
 C393 C 0.57369 0.93138 0.06181
 N394 N 0.59152 0.91722 0.04952
 N395 N 0.60882 0.90419 0.06255
   
