data_POSCAR
  _audit_creation_date              2014-09-24
  _audit_creation_method            'ToBaCCo'
  _symmetry_space_group_name_H-M    'P1'
  _symmetry_Int_Tables_number       1
  _symmetry_cell_setting            triclinic
  loop_
  _symmetry_equiv_pos_as_xyz
 x,y,z
_cell_length_a 20.2710
_cell_length_b 20.3497
_cell_length_c 22.2949
_cell_angle_alpha 90.010400
_cell_angle_beta 90.191900
_cell_angle_gamma 120.011200
loop_
  _atom_site_label
  _atom_site_type_symbol
  _atom_site_fract_x
  _atom_site_fract_y
  _atom_site_fract_z
O1 O 0.34646 0.54834 0.30337
 O2 O 0.22343 0.55615 0.31975
 C3 C 0.19213 0.59497 0.33193
 O4 O 0.20545 0.65394 0.30266
 O5 O 0.33655 0.77672 0.31737
 C6 C 0.40721 0.80875 0.32863
 O7 O 0.45244 0.79470 0.29929
 O8 O 0.44495 0.66501 0.31734
 C9 C 0.40704 0.59536 0.33095
 O10 O 0.32543 0.54900 0.18345
 O11 O 0.19981 0.55155 0.19985
 C12 C 0.18942 0.59946 0.17057
 O13 O 0.22533 0.66976 0.18293
 O14 O 0.35352 0.79596 0.19728
 C15 C 0.41102 0.80465 0.16789
 O16 O 0.44557 0.76890 0.18007
 O17 O 0.44466 0.64235 0.19817
 C18 C 0.39552 0.58347 0.17032
 Cr19 Cr 0.27608 0.55565 0.25157
 Cr20 Cr 0.28226 0.72174 0.25006
 Cr21 Cr 0.44249 0.71565 0.24878
 O22 O 0.33359 0.66430 0.25017
 O23 O 0.55209 0.34385 0.69773
 O24 O 0.56032 0.22147 0.68109
 C25 C 0.59938 0.19030 0.66916
 O26 O 0.65858 0.20374 0.69875
 O27 O 0.78190 0.33438 0.68511
 C28 C 0.81354 0.40464 0.67374
 O29 O 0.79922 0.44972 0.70290
 O30 O 0.66905 0.44217 0.68472
 C31 C 0.59922 0.40429 0.67063
 O32 O 0.55251 0.32301 0.81755
 O33 O 0.55512 0.19778 0.80077
 C34 C 0.60333 0.18756 0.82990
 O35 O 0.67399 0.22333 0.81865
 O36 O 0.80058 0.35102 0.80541
 C37 C 0.80973 0.40877 0.83449
 O38 O 0.77408 0.44336 0.82207
 O39 O 0.64660 0.44180 0.80394
 C40 C 0.58728 0.39280 0.83122
 Cr41 Cr 0.55946 0.27385 0.74936
 Cr42 Cr 0.72641 0.28019 0.75197
 Cr43 Cr 0.72011 0.43982 0.75334
 O44 O 0.66864 0.33128 0.75161
 C45 C 0.49776 -0.02725 0.47262
 C46 C 0.42308 -0.05355 0.45053
 C47 C 0.39397 -0.10707 0.40385
 C48 C 0.43847 -0.13454 0.37777
 C49 C 0.51288 -0.10752 0.39910
 C50 C 0.54218 -0.05478 0.44591
 C51 C 0.52612 0.02904 0.52326
 C52 C 0.59836 0.05666 0.55008
 C53 C 0.62188 0.10876 0.59732
 C54 C 0.57433 0.13510 0.61896
 C55 C 0.50228 0.10790 0.59253
 C56 C 0.47774 0.05493 0.54546
 C57 C 0.37792 -0.02607 0.47488
 C58 C 0.40484 0.02737 0.52101
 H59 H 0.32086 -0.04597 0.45781
 H60 H 0.36772 0.04703 0.53811
 H61 H 0.33660 -0.12692 0.38751
 H62 H 0.54857 -0.12764 0.37987
 H63 H 0.67778 0.12874 0.61677
 H64 H 0.46463 0.12725 0.60907
 H65 H 0.59969 -0.03629 0.46028
 H66 H 0.63744 0.03853 0.53557
 C67 C 1.03188 0.52227 0.47823
 C68 C 1.05785 0.47414 0.45576
 C69 C 1.11036 0.49843 0.40847
 C70 C 1.13705 0.56998 0.38212
 C71 C 1.11055 0.61723 0.40399
 C72 C 1.05887 0.59394 0.45142
 C73 C 0.97620 0.49425 0.52917
 C74 C 0.94872 0.53850 0.55618
 C75 C 0.89652 0.50953 0.60322
 C76 C 0.86998 0.43562 0.62452
 C77 C 0.89746 0.39132 0.59818
 C78 C 0.95046 0.42011 0.55124
 C79 C 1.03086 0.40178 0.48019
 C80 C 0.97794 0.37516 0.52659
 H81 H 1.05057 0.36485 0.46288
 H82 H 0.95847 0.31851 0.54363
 H83 H 1.12984 0.46102 0.39176
 H84 H 1.13012 0.67274 0.38460
 H85 H 0.87638 0.54506 0.62262
 H86 H 0.87798 0.33433 0.61448
 H87 H 1.04062 0.63278 0.46612
 H88 H 0.96684 0.59562 0.54185
 C89 C 0.49397 0.51912 0.47575
 C90 C 0.42019 0.47046 0.45226
 C91 C 0.39195 0.49505 0.40477
 C92 C 0.43596 0.56824 0.38072
 C93 C 0.50860 0.61644 0.40485
 C94 C 0.53729 0.59243 0.45148
 C95 C 0.52256 0.49070 0.52582
 C96 C 0.59614 0.53394 0.55048
 C97 C 0.62029 0.50542 0.59711
 C98 C 0.57197 0.43304 0.62084
 C99 C 0.49852 0.38912 0.59639
 C100 C 0.47378 0.41719 0.54890
 C101 C 0.37498 0.39792 0.47663
 C102 C 0.40098 0.37207 0.52414
 H103 H 0.31836 0.36063 0.45891
 H104 H 0.36361 0.31566 0.54155
 H105 H 0.33545 0.45743 0.38696
 H106 H 0.54397 0.67324 0.38745
 H107 H 0.67729 0.54071 0.61482
 H108 H 0.46080 0.33282 0.61389
 H109 H 0.59337 0.63251 0.46787
 H110 H 0.63633 0.58983 0.53440
 C111 C 0.49799 -0.03396 1.02272
 C112 C 0.42479 -0.05765 1.04648
 C113 C 0.39671 -0.10991 1.09404
 C114 C 0.44007 -0.14024 1.11780
 C115 C 0.51188 -0.11776 1.09318
 C116 C 0.54058 -0.06538 1.04649
 C117 C 0.52666 0.02310 0.97292
 C118 C 0.60017 0.05310 0.94855
 C119 C 0.62446 0.10623 0.90238
 C120 C 0.57621 0.13080 0.87883
 C121 C 0.50285 0.10150 0.90291
 C122 C 0.47813 0.04860 0.95004
 C123 C 0.37990 -0.02951 1.02234
 C124 C 0.40571 0.02190 0.97481
 H125 H 0.32368 -0.04789 1.04023
 H126 H 0.36859 0.04160 0.95755
 H127 H 0.34072 -0.12752 1.11213
 H128 H 0.54658 -0.14031 1.11037
 H129 H 0.68140 0.12787 0.88486
 H130 H 0.46532 0.12071 0.88562
 H131 H 0.59604 -0.05071 1.02964
 H132 H 0.64021 0.03694 0.96468
 C133 C 1.03057 0.52536 1.02916
 C134 C 1.04673 0.47355 1.05880
 C135 C 1.09907 0.49815 1.10674
 C136 C 1.13817 0.57500 1.12490
 C137 C 1.12305 0.62633 1.09359
 C138 C 1.07015 0.60199 1.04688
 C139 C 0.97302 0.49662 0.97929
 C140 C 0.94871 0.54241 0.95037
 C141 C 0.89550 0.51338 0.90386
 C142 C 0.86540 0.43814 0.88448
 C143 C 0.88842 0.39161 0.91345
 C144 C 0.94096 0.41993 0.96121
 C145 C 1.01149 0.39774 1.03977
 C146 C 0.96068 0.37182 0.99146
 H147 H 1.02417 0.35800 1.06208
 H148 H 0.93573 0.31291 0.97805
 H149 H 1.11002 0.45718 1.12909
 H150 H 1.15182 0.68608 1.10517
 H151 H 0.87846 0.55043 0.88252
 H152 H 0.86444 0.33295 0.89954
 H153 H 1.06189 0.64451 1.02487
 H154 H 0.96941 0.60059 0.96322
 C155 C 0.46991 0.49510 1.02580
 C156 C 0.51896 0.56854 1.04922
 C157 C 0.49467 0.59674 1.09660
 C158 C 0.42130 0.55334 1.12071
 C159 C 0.37240 0.48109 1.09671
 C160 C 0.39625 0.45219 1.05009
 C161 C 0.49846 0.46671 0.97576
 C162 C 0.45541 0.39334 0.95107
 C163 C 0.48446 0.36964 0.90444
 C164 C 0.55699 0.41839 0.88085
 C165 C 0.60053 0.49146 0.90538
 C166 C 0.57218 0.51561 0.95275
 C167 C 0.59169 0.61370 1.02493
 C168 C 0.61748 0.58805 0.97745
 H169 H 0.62916 0.67006 1.04266
 H170 H 0.67406 0.62541 0.96004
 H171 H 0.53276 0.65304 1.11421
 H172 H 0.31542 0.44635 1.11425
 H173 H 0.44961 0.31288 0.88659
 H174 H 0.65704 0.52945 0.88808
 H175 H 0.35592 0.39638 1.03362
 H176 H 0.39940 0.35314 0.96721
   
