data_POSCAR
  _audit_creation_date              2014-09-24
  _audit_creation_method            'ToBaCCo'
  _symmetry_space_group_name_H-M    'P1'
  _symmetry_Int_Tables_number       1
  _symmetry_cell_setting            triclinic
  loop_
  _symmetry_equiv_pos_as_xyz
 x,y,z
_cell_length_a 35.4232
_cell_length_b 21.1118
_cell_length_c 13.6812
_cell_angle_alpha 89.951500
_cell_angle_beta 89.869000
_cell_angle_gamma 90.109000
loop_
  _atom_site_label
  _atom_site_type_symbol
  _atom_site_fract_x
  _atom_site_fract_y
  _atom_site_fract_z
O1 O 0.76871 0.17359 0.58671
 O2 O 0.70218 0.23435 0.40395
 O3 O 0.76757 0.18293 0.39369
 O4 O 0.70316 0.23596 0.58907
 O5 O 0.73519 0.32540 0.60161
 O6 O 0.80150 0.26949 0.41563
 O7 O 0.73271 0.32557 0.40438
 O8 O 0.79766 0.26617 0.59444
 Cu9 Cu 0.73288 0.19693 0.49451
 Cu10 Cu 0.76835 0.30683 0.50154
 C11 C 0.79503 0.20842 0.61989
 C12 C 0.70605 0.29058 0.37307
 C13 C 0.79664 0.21625 0.37447
 C14 C 0.70753 0.29063 0.62627
 O15 O 0.26847 0.67123 0.59149
 O16 O 0.20129 0.72984 0.41004
 O17 O 0.26644 0.67355 0.40270
 O18 O 0.20290 0.73138 0.59724
 O19 O 0.23209 0.82385 0.59508
 O20 O 0.29703 0.76477 0.40764
 O21 O 0.23164 0.82131 0.40446
 O22 O 0.29688 0.76419 0.59592
 Cu23 Cu 0.23190 0.69212 0.50125
 Cu24 Cu 0.26727 0.80289 0.50095
 C25 C 0.29464 0.70676 0.62350
 C26 C 0.20492 0.78543 0.37618
 C27 C 0.29311 0.70927 0.37359
 C28 C 0.20589 0.78827 0.62675
 O29 O 0.26635 0.33177 -0.59309
 O30 O 0.20224 0.26974 -0.40417
 O31 O 0.26722 0.32741 -0.40344
 O32 O 0.20060 0.27288 -0.59287
 O33 O 0.23120 0.18231 -0.60219
 O34 O 0.29633 0.23498 -0.41075
 O35 O 0.23117 0.17729 -0.41002
 O36 O 0.29664 0.24060 -0.59572
 Cu37 Cu 0.23106 0.30960 -0.49827
 Cu38 Cu 0.26633 0.19908 -0.50562
 C39 C 0.29358 0.29783 -0.62349
 C40 C 0.20567 0.21299 -0.37498
 C41 C 0.29367 0.29070 -0.37681
 C42 C 0.20433 0.21792 -0.62947
 O43 O -0.29812 0.77766 -0.40430
 O44 O -0.23301 0.82892 -0.59898
 O45 O -0.29900 0.77323 -0.59207
 O46 O -0.23296 0.83595 -0.40921
 O47 O -0.20385 0.74350 -0.40548
 O48 O -0.26954 0.68115 -0.58967
 O49 O -0.20325 0.73744 -0.59158
 O50 O -0.26908 0.68539 -0.39838
 Cu51 Cu -0.26861 0.81325 -0.50183
 Cu52 Cu -0.23379 0.70228 -0.49575
 C53 C -0.29501 0.72230 -0.36895
 C54 C -0.20629 0.79291 -0.62672
 C55 C -0.29603 0.71630 -0.62066
 C56 C -0.20653 0.80079 -0.37821
 O57 O -0.05324 0.88971 0.17918
 O58 O -0.09419 0.95060 0.08945
 C59 C -0.08704 0.90694 0.15372
 O60 O 0.05411 1.12234 0.16675
 O61 O 0.09545 1.05690 0.08663
 C62 C 0.08800 1.10399 0.14439
 O63 O -0.05098 1.11755 0.17694
 O64 O -0.09328 1.05909 0.08778
 C65 C -0.08510 1.10204 0.15235
 O66 O 0.05270 0.88387 0.17138
 O67 O 0.09523 0.94526 0.08682
 C68 C 0.08696 0.90010 0.14770
 Zr69 Zr 0.00011 0.92305 0.12981
 O70 O 0.00366 0.93028 0.28393
 O71 O -0.00374 0.82346 0.14234
 Zr72 Zr 0.00145 1.08204 0.12847
 O73 O 0.00520 1.07328 0.28244
 O74 O 0.00006 1.18152 0.14452
 O75 O -0.03345 1.00334 0.14784
 O76 O 0.03407 1.00198 0.14713
 O77 O 0.05329 0.88564 -0.16390
 O78 O 0.09540 0.94569 -0.07657
 C79 C 0.08738 0.90221 -0.14026
 O80 O -0.05029 1.11337 -0.17528
 O81 O -0.09265 1.05651 -0.08329
 C82 C -0.08443 1.09680 -0.15168
 O83 O 0.05546 1.11696 -0.16266
 O84 O 0.09645 1.05436 -0.07639
 C85 C 0.08925 1.09923 -0.13835
 O86 O -0.05238 0.89350 -0.17196
 O87 O -0.09425 0.95130 -0.08004
 C88 C -0.08637 0.91048 -0.14800
 Zr89 Zr 0.00064 0.92204 -0.11715
 O90 O 0.00497 0.92082 -0.27151
 O91 O -0.00430 0.82203 -0.11575
 Zr92 Zr 0.00201 1.08193 -0.11871
 O93 O 0.00682 1.08085 -0.27300
 O94 O -0.00114 1.18210 -0.12029
 Zr95 Zr -0.05547 1.00345 0.00457
 Zr96 Zr 0.05733 1.00098 0.00550
 O97 O 0.03411 1.00130 -0.13590
 O98 O -0.03231 1.00258 -0.13764
 O99 O 0.03386 0.90912 0.00650
 O100 O -0.03096 1.09440 0.00415
 O101 O -0.03245 0.91151 0.00578
 O102 O 0.03530 1.09380 0.00488
 H103 H 0.05171 1.00200 0.20328
 H104 H -0.04744 1.13224 0.00227
 H105 H 0.05119 1.00103 -0.19335
 H106 H -0.04944 0.87419 0.00485
 H107 H -0.00069 1.19943 0.07785
 H108 H 0.01985 1.19843 -0.07983
 H109 H -0.01460 1.05587 -0.29874
 H110 H -0.01549 0.94775 -0.29758
 H111 H 0.01774 0.80490 -0.08023
 H112 H 0.00890 0.80558 0.08416
 H113 H -0.02074 0.94699 0.30793
 H114 H -0.01999 1.06064 0.30720
 O115 O 0.44741 0.39075 0.17505
 O116 O 0.40552 0.44872 0.08336
 C117 C 0.41338 0.40772 0.15096
 O118 O 0.55158 0.62085 0.16527
 O119 O 0.59443 0.55905 0.08320
 C120 C 0.58588 0.60370 0.14450
 O121 O 0.44586 0.61375 0.17113
 O122 O 0.40496 0.55345 0.08062
 C123 C 0.41210 0.59631 0.14589
 O124 O 0.55356 0.38627 0.16731
 O125 O 0.59489 0.44963 0.08280
 C126 C 0.58746 0.40437 0.14401
 Zr127 Zr 0.50064 0.42214 0.12195
 O128 O 0.50441 0.42347 0.27637
 O129 O 0.49700 0.32204 0.12406
 Zr130 Zr 0.49926 0.58151 0.12272
 O131 O 0.50232 0.57342 0.27693
 O132 O 0.49734 0.68101 0.13891
 O133 O 0.46602 0.50103 0.14093
 O134 O 0.53292 0.50275 0.14073
 O135 O 0.55422 0.38721 -0.16954
 O136 O 0.59541 0.44887 -0.08211
 C137 C 0.58803 0.40448 -0.14500
 O138 O 0.44767 0.61424 -0.17907
 O139 O 0.40635 0.55259 -0.09092
 C140 C 0.41391 0.59545 -0.15615
 O141 O 0.55326 0.62139 -0.16569
 O142 O 0.59525 0.56048 -0.07938
 C143 C 0.58734 0.60585 -0.14002
 O144 O 0.44901 0.38978 -0.17785
 O145 O 0.40636 0.44569 -0.08587
 C146 C 0.41478 0.40427 -0.15235
 Zr147 Zr 0.50143 0.42293 -0.12485
 O148 O 0.50587 0.42673 -0.27917
 O149 O 0.49839 0.32285 -0.12970
 Zr150 Zr 0.50025 0.58256 -0.12449
 O151 O 0.50508 0.57960 -0.27875
 O152 O 0.49590 0.68253 -0.12804
 Zr153 Zr 0.44402 0.50080 -0.00228
 Zr154 Zr 0.55680 0.50397 -0.00032
 O155 O 0.53395 0.50370 -0.14208
 O156 O 0.46702 0.50183 -0.14454
 O157 O 0.53484 0.41100 -0.00102
 O158 O 0.46692 0.59287 -0.00165
 O159 O 0.46838 0.40991 -0.00187
 O160 O 0.53313 0.59565 -0.00008
 H161 H 0.54995 0.50306 0.19809
 H162 H 0.44979 0.62989 -0.00277
 H163 H 0.55152 0.50448 -0.19854
 H164 H 0.45181 0.37204 -0.00142
 H165 H 0.49146 0.69886 0.07399
 H166 H 0.51458 0.69957 -0.08120
 H167 H 0.48262 0.55718 -0.30422
 H168 H 0.48274 0.44718 -0.30437
 H169 H 0.51739 0.30628 -0.08350
 H170 H 0.51737 0.30558 0.08163
 H171 H 0.48260 0.44784 0.30131
 H172 H 0.47742 0.55877 0.30096
 C173 C 0.35574 0.29240 0.30052
 C174 C 0.32177 0.32470 0.31733
 C175 C 0.31947 0.38785 0.28322
 C176 C 0.34898 0.41465 0.22750
 C177 C 0.38186 0.37969 0.20654
 C178 C 0.38519 0.31949 0.24800
 C179 C 0.39491 0.25817 0.20006
 C180 C 0.36260 0.22851 0.25740
 H181 H 0.29468 0.41632 0.29781
 H182 H 0.34609 0.46265 0.20099
 H183 H 0.42311 0.24057 0.22285
 H184 H 0.39006 0.25897 0.11977
 H185 H 0.37220 0.19377 0.31309
 H186 H 0.33890 0.21221 0.21048
 C187 C -0.18374 0.87415 0.25972
 C188 C -0.17956 0.81521 0.30551
 C189 C -0.14609 0.78123 0.28447
 C190 C -0.11613 0.81026 0.23264
 C191 C -0.11942 0.87301 0.19796
 C192 C -0.15484 0.90156 0.20571
 C193 C -0.16521 0.96642 0.23859
 C194 C -0.19659 0.93650 0.29871
 H195 H -0.14165 0.73434 0.31444
 H196 H -0.08991 0.78462 0.22352
 H197 H -0.17616 0.99465 0.17686
 H198 H -0.14286 0.98939 0.28329
 H199 H -0.22528 0.94925 0.27253
 H200 H -0.19218 0.94117 0.37884
 C201 C 0.68129 0.63505 0.25949
 C202 C 0.67474 0.68965 0.31496
 C203 C 0.63785 0.71437 0.31682
 C204 C 0.60914 0.68715 0.26011
 C205 C 0.61666 0.63498 0.19881
 C206 C 0.65294 0.60871 0.20182
 C207 C 0.67960 0.59626 0.11941
 C208 C 0.71053 0.62452 0.18249
 H209 H 0.63107 0.75462 0.36262
 H210 H 0.58115 0.70754 0.26373
 H211 H 0.67315 0.62502 0.05338
 H212 H 0.68345 0.54487 0.10552
 H213 H 0.72227 0.66953 0.15286
 H214 H 0.73198 0.58921 0.20560
 C215 C 0.18367 1.13798 0.25270
 C216 C 0.17843 1.19594 0.30087
 C217 C 0.14507 1.22975 0.27862
 C218 C 0.11599 1.20114 0.22360
 C219 C 0.12011 1.13900 0.18710
 C220 C 0.15565 1.11094 0.19584
 C221 C 0.16650 1.04544 0.22518
 C222 C 0.19696 1.07505 0.28863
 H223 H 0.13995 1.27602 0.31007
 H224 H 0.08963 1.22631 0.21429
 H225 H 0.17829 1.01864 0.16246
 H226 H 0.14406 1.02067 0.26756
 H227 H 0.22604 1.06404 0.26322
 H228 H 0.19190 1.06821 0.36821
 C229 C 0.64068 0.30058 -0.32318
 C230 C 0.67853 0.31607 -0.30752
 C231 C 0.68664 0.36427 -0.23936
 C232 C 0.65754 0.39160 -0.18296
 C233 C 0.61960 0.37325 -0.19657
 C234 C 0.61201 0.32866 -0.26965
 C235 C 0.59014 0.26824 -0.26350
 C236 C 0.62165 0.23746 -0.32194
 H237 H 0.71545 0.37988 -0.22830
 H238 H 0.66476 0.42656 -0.12844
 H239 H 0.56306 0.27094 -0.30417
 H240 H 0.58777 0.24999 -0.18744
 H241 H 0.61268 0.22231 -0.39613
 H242 H 0.63769 0.20142 -0.27979
 C243 C 0.14021 0.79162 -0.30866
 C244 C 0.17713 0.81509 -0.30728
 C245 C 0.18387 0.87131 -0.25430
 C246 C 0.15506 0.89905 -0.19751
 C247 C 0.11865 0.87191 -0.19415
 C248 C 0.11171 0.81949 -0.25408
 C249 C 0.09448 0.75697 -0.22908
 C250 C 0.12575 0.72643 -0.28885
 H251 H 0.21150 0.89333 -0.25558
 H252 H 0.16131 0.94161 -0.15654
 H253 H 0.06605 0.75106 -0.26216
 H254 H 0.09609 0.74602 -0.14967
 H255 H 0.11533 0.70297 -0.35633
 H256 H 0.14559 0.69775 -0.24419
 C257 C 0.32310 0.61589 -0.29573
 C258 C 0.32157 0.68149 -0.31247
 C259 C 0.34955 0.71955 -0.26803
 C260 C 0.37938 0.69173 -0.21530
 C261 C 0.38188 0.62547 -0.20593
 C262 C 0.35272 0.58851 -0.24408
 C263 C 0.35602 0.53533 -0.31563
 C264 C 0.32321 0.56419 -0.37033
 H265 H 0.34933 0.77052 -0.27701
 H266 H 0.40105 0.72183 -0.18429
 H267 H 0.34910 0.48872 -0.28362
 H268 H 0.38297 0.53664 -0.35749
 H269 H 0.29714 0.53486 -0.36677
 H270 H 0.33094 0.58122 -0.44473
 C271 C -0.13932 1.20728 -0.31541
 C272 C -0.17544 1.18036 -0.31775
 C273 C -0.18044 1.12121 -0.27131
 C274 C -0.15101 1.09402 -0.21622
 C275 C -0.11569 1.12461 -0.20834
 C276 C -0.11015 1.17990 -0.26285
 C277 C -0.09520 1.24270 -0.23112
 C278 C -0.12721 1.27273 -0.28854
 H279 H -0.20726 1.09668 -0.27569
 H280 H -0.15593 1.04940 -0.17953
 H281 H -0.06687 1.25272 -0.26274
 H282 H -0.09754 1.24997 -0.15083
 H283 H -0.11729 1.30014 -0.35312
 H284 H -0.14820 1.29741 -0.24160
 C285 C 0.68449 0.64780 -0.23526
 C286 C 0.67748 0.70036 -0.29493
 C287 C 0.64186 0.72966 -0.28569
 C288 C 0.61281 0.70073 -0.23083
 C289 C 0.61899 0.64252 -0.18258
 C290 C 0.65616 0.62023 -0.17935
 C291 C 0.67150 0.55534 -0.19492
 C292 C 0.70241 0.58543 -0.25680
 H293 H 0.63537 0.77193 -0.32723
 H294 H 0.58501 0.72198 -0.23129
 H295 H 0.65199 0.52470 -0.23754
 H296 H 0.68226 0.53460 -0.12573
 H297 H 0.70068 0.57222 -0.33533
 H298 H 0.73091 0.58124 -0.22365
 C299 C 0.14479 1.21943 -0.28425
 C300 C 0.17909 1.18856 -0.30096
 C301 C 0.18625 1.13274 -0.24736
 C302 C 0.15773 1.10530 -0.18871
 C303 C 0.12133 1.13240 -0.18474
 C304 C 0.11652 1.19175 -0.22870
 C305 C 0.08620 1.21615 -0.29442
 C306 C 0.11726 1.24669 -0.35519
 H307 H 0.21304 1.10859 -0.25469
 H308 H 0.16339 1.06072 -0.15253
 H309 H 0.06776 1.25117 -0.25708
 H310 H 0.07106 1.17775 -0.33387
 H311 H 0.11676 1.29930 -0.35260
 H312 H 0.12006 1.22601 -0.42961
 C313 C 0.31731 0.35499 -0.23442
 C314 C 0.32364 0.31402 -0.31238
 C315 C 0.36173 0.29874 -0.33224
 C316 C 0.39143 0.32701 -0.27871
 C317 C 0.38389 0.37055 -0.20232
 C318 C 0.34585 0.38049 -0.18056
 C319 C 0.31963 0.41841 -0.11855
 C320 C 0.28741 0.38986 -0.18019
 H321 H 0.36871 0.26727 -0.39209
 H322 H 0.42020 0.31585 -0.29922
 H323 H 0.32310 0.47030 -0.12851
 H324 H 0.31955 0.40210 -0.04127
 H325 H 0.27287 0.42526 -0.22699
 H326 H 0.26858 0.35754 -0.13830
 C327 C -0.18340 0.87970 -0.25507
 C328 C -0.17674 0.82788 -0.31653
 C329 C -0.13937 0.80663 -0.32744
 C330 C -0.11012 0.83367 -0.27280
 C331 C -0.11751 0.88214 -0.20453
 C332 C -0.15442 0.90570 -0.19908
 C333 C -0.17939 0.91270 -0.11168
 C334 C -0.21103 0.88488 -0.17289
 H335 H -0.13271 0.76898 -0.37835
 H336 H -0.08182 0.81544 -0.28283
 H337 H -0.18420 0.96303 -0.09171
 H338 H -0.17073 0.88170 -0.04992
 H339 H -0.23380 0.91946 -0.18909
 H340 H -0.22099 0.83792 -0.14628
 C341 C 0.35714 0.71227 0.29995
 C342 C 0.32091 0.68600 0.30227
 C343 C 0.31319 0.63522 0.23842
 C344 C 0.34244 0.60774 0.18258
 C345 C 0.38003 0.62928 0.19236
 C346 C 0.38600 0.68428 0.24727
 C347 C 0.41448 0.69853 0.32462
 C348 C 0.38278 0.72938 0.38233
 H349 H 0.28511 0.61502 0.23498
 H350 H 0.33597 0.56749 0.13661
 H351 H 0.43621 0.73286 0.29911
 H352 H 0.42575 0.65509 0.36007
 H353 H 0.38621 0.78149 0.38987
 H354 H 0.37570 0.70389 0.45121
 C355 C -0.18276 1.14341 0.24648
 C356 C -0.17526 1.19238 0.31300
 C357 C -0.13753 1.21262 0.32375
 C358 C -0.10836 1.18359 0.27110
 C359 C -0.11614 1.13555 0.20258
 C360 C -0.15378 1.11722 0.18998
 C361 C -0.17660 1.12067 0.09842
 C362 C -0.20843 1.14709 0.16000
 H363 H -0.13018 1.24907 0.37611
 H364 H -0.07966 1.19910 0.28424
 H365 H -0.18307 1.07358 0.06656
 H366 H -0.16500 1.15551 0.04512
 H367 H -0.23277 1.11407 0.16699
 H368 H -0.21611 1.19655 0.14040
 C369 C 0.64308 0.28616 0.29292
 C370 C 0.67844 0.31517 0.30206
 C371 C 0.68564 0.36915 0.24413
 C372 C 0.65655 0.39653 0.18778
 C373 C 0.61957 0.37132 0.19028
 C374 C 0.61433 0.31375 0.23931
 C375 C 0.58492 0.29392 0.31160
 C376 C 0.61646 0.26360 0.37031
 H377 H 0.71306 0.39186 0.24588
 H378 H 0.66247 0.43957 0.14762
 H379 H 0.56486 0.25885 0.28037
 H380 H 0.57158 0.33476 0.34951
 H381 H 0.61457 0.21107 0.37289
 H382 H 0.62138 0.28693 0.44204
 C383 C 0.13954 0.78647 0.31150
 C384 C 0.17674 0.80837 0.30583
 C385 C 0.18546 0.85327 0.23289
 C386 C 0.15649 0.88013 0.17558
 C387 C 0.11827 0.86457 0.19331
 C388 C 0.11099 0.81435 0.25761
 C389 C 0.08336 0.80879 0.33985
 C390 C 0.11467 0.77802 0.39886
 H391 H 0.21427 0.86927 0.22274
 H392 H 0.16386 0.91541 0.12146
 H393 H 0.05986 0.77573 0.32242
 H394 H 0.07452 0.85562 0.36911
 H395 H 0.10925 0.72724 0.41525
 H396 H 0.12394 0.80692 0.46243
   
