data_POSCAR
  _audit_creation_date              2014-09-24
  _audit_creation_method            'ToBaCCo'
  _symmetry_space_group_name_H-M    'P1'
  _symmetry_Int_Tables_number       1
  _symmetry_cell_setting            triclinic
  loop_
  _symmetry_equiv_pos_as_xyz
 x,y,z
_cell_length_a 38.1039
_cell_length_b 38.1018
_cell_length_c 38.1190
_cell_angle_alpha 103.526700
_cell_angle_beta 76.401900
_cell_angle_gamma 105.149200
loop_
  _atom_site_label
  _atom_site_type_symbol
  _atom_site_fract_x
  _atom_site_fract_y
  _atom_site_fract_z
O1 O 0.55517 0.52972 0.03434
 O2 O 0.45778 0.51592 0.02707
 O3 O 0.49927 0.47360 0.03357
 O4 O 0.51458 0.57141 0.02578
 O5 O 0.52958 0.55592 -0.03452
 O6 O 0.51404 0.45848 -0.02677
 O7 O 0.47263 0.50089 -0.03324
 O8 O 0.57037 0.51443 -0.02596
 Cu9 Cu 0.50513 0.52413 0.03623
 Cu10 Cu 0.52309 0.50582 -0.03617
 C11 C 0.57931 0.52428 0.00557
 C12 C 0.44861 0.50657 -0.00431
 C13 C 0.50452 0.44949 0.00469
 C14 C 0.52458 0.58021 -0.00582
 O15 O -0.04371 0.53402 0.52025
 O16 O -0.03575 0.43749 0.50745
 O17 O -0.03510 0.49249 0.56217
 O18 O -0.04256 0.47897 0.46486
 O19 O 0.01824 0.49615 0.45006
 O20 O 0.02564 0.51014 0.54689
 O21 O 0.02507 0.45490 0.49277
 O22 O 0.01700 0.55160 0.50523
 Cu23 Cu -0.04540 0.48413 0.51515
 Cu24 Cu 0.02756 0.50506 0.49716
 C25 C -0.01482 0.55927 0.51478
 C26 C -0.00397 0.42985 0.49850
 C27 C -0.00326 0.50299 0.57089
 C28 C -0.01333 0.48521 0.44092
 O29 O 0.49701 0.01848 0.55014
 O30 O 0.50945 0.02527 0.45324
 O31 O 0.45500 0.02529 0.50823
 O32 O 0.55170 0.01673 0.49415
 O33 O 0.53373 -0.04400 0.47959
 O34 O 0.43722 -0.03552 0.49412
 O35 O 0.49140 -0.03544 0.43851
 O36 O 0.47955 -0.04229 0.53587
 Cu37 Cu 0.50520 0.02751 0.50296
 Cu38 Cu 0.48381 -0.04543 0.48562
 C39 C 0.48621 -0.01298 0.55961
 C40 C 0.50184 -0.00371 0.42952
 C41 C 0.42976 -0.00367 0.50305
 C42 C 0.55911 -0.01518 0.48454
 C43 C 0.50333 -0.06703 -0.07977
 C44 C 0.49306 -0.03548 -0.08346
 C45 C 0.49069 -0.00629 -0.05321
 C46 C 0.50006 -0.00758 -0.01988
 C47 C 0.51166 -0.03914 -0.01762
 C48 C 0.51226 -0.06932 -0.04686
 C49 C 0.49770 0.02353 0.01254
 C50 C 0.49239 0.01693 0.04856
 C51 C 0.49250 0.04598 0.07899
 C52 C 0.49505 0.08178 0.07361
 C53 C 0.49867 0.08908 0.03834
 C54 C 0.50109 0.06006 0.00792
 H55 H 0.50445 -0.08995 -0.10268
 H56 H 0.48090 0.01703 -0.05573
 H57 H 0.52065 -0.04042 0.00681
 H58 H 0.48829 -0.01087 0.05325
 H59 H 0.49427 0.10416 0.09707
 H60 H 0.50592 0.06623 -0.01930
 C61 C -0.06754 0.50246 1.07883
 C62 C -0.06965 0.51171 1.04602
 C63 C -0.03911 0.51186 1.01704
 C64 C -0.00734 0.50070 1.01949
 C65 C -0.00628 0.49094 1.05269
 C66 C -0.03585 0.49255 1.08267
 C67 C 0.02419 0.49902 0.98737
 C68 C 0.06069 0.50277 0.99229
 C69 C 0.09001 0.50083 0.96203
 C70 C 0.08300 0.49737 0.92669
 C71 C 0.04721 0.49446 0.92107
 C72 C 0.01792 0.49384 0.95129
 H73 H -0.09073 0.50297 1.10154
 H74 H -0.04028 0.52109 0.99270
 H75 H 0.01718 0.48143 1.05529
 H76 H 0.06660 0.50744 1.01959
 H77 H 0.10556 0.49697 0.90335
 H78 H -0.00983 0.48943 0.94639
 C79 C -0.08467 -0.08591 0.49945
 C80 C -0.05191 -0.08876 0.50829
 C81 C -0.02231 -0.05773 0.50974
 C82 C -0.02403 -0.02466 0.50021
 C83 C -0.05692 -0.02312 0.49025
 C84 C -0.08767 -0.05304 0.49095
 C85 C 0.00826 0.00800 0.50059
 C86 C 0.00311 0.04429 0.50493
 C87 C 0.03332 0.07474 0.50391
 C88 C 0.06887 0.06914 0.50122
 C89 C 0.07477 0.03367 0.49820
 C90 C 0.04461 0.00322 0.49656
 H91 H -0.10793 -0.10940 0.49916
 H92 H 0.00187 -0.05958 0.51876
 H93 H -0.05883 0.00119 0.48149
 H94 H -0.02437 0.04921 0.50920
 H95 H 0.09215 0.09261 0.50146
 H96 H 0.04982 -0.02417 0.49201
 C97 C -0.31168 0.53405 1.01630
 N98 N -0.32087 0.52585 0.98252
 N99 N -0.35549 0.52322 0.97897
 C100 C -0.38215 0.52875 1.00909
 N101 N -0.37287 0.53723 1.04282
 N102 N -0.33831 0.53979 1.04636
 C103 C -0.27407 0.53508 1.02053
 N104 N -0.26616 0.54000 1.05450
 N105 N -0.23264 0.53911 1.05852
 C106 C -0.20572 0.53338 1.02874
 N107 N -0.21350 0.52880 0.99475
 N108 N -0.24709 0.52959 0.99071
 C109 C -0.16952 0.53020 1.03331
 N110 N -0.14216 0.52510 1.00380
 N111 N -0.11012 0.52013 1.00792
 C112 C -0.10421 0.51995 1.04169
 N113 N -0.13155 0.52541 1.07118
 N114 N -0.16353 0.53050 1.06710
 C115 C 0.34147 0.50045 0.98757
 N116 N 0.35154 0.50856 1.02092
 N117 N 0.38618 0.51002 1.02356
 C118 C 0.41204 0.50336 0.99297
 N119 N 0.40183 0.49491 0.95963
 N120 N 0.36722 0.49351 0.95700
 C121 C 0.30366 0.50013 0.98445
 N122 N 0.29445 0.49415 0.95092
 N123 N 0.26046 0.49462 0.94791
 C124 C 0.23437 0.50108 0.97830
 N125 N 0.24351 0.50697 1.01188
 N126 N 0.27757 0.50656 1.01489
 C127 C 0.19700 0.50166 0.97458
 N128 N 0.16997 0.50649 1.00452
 N129 N 0.13607 0.50657 1.00071
 C130 C 0.12793 0.50196 0.96682
 N131 N 0.15514 0.49727 0.93700
 N132 N 0.18894 0.49712 0.94078
 C133 C -0.02529 -0.33416 0.52422
 N134 N 0.00869 -0.34232 0.51576
 N135 N 0.01216 -0.37682 0.51305
 C136 C -0.01823 -0.40443 0.51877
 N137 N -0.05217 -0.39614 0.52755
 N138 N -0.05564 -0.36168 0.53015
 C139 C -0.02932 -0.29652 0.52558
 N140 N -0.06340 -0.28939 0.53031
 N141 N -0.06712 -0.25567 0.52998
 C142 C -0.03690 -0.22777 0.52505
 N143 N -0.00282 -0.23480 0.52062
 N144 N 0.00091 -0.26857 0.52083
 C145 C -0.04101 -0.19110 0.52285
 N146 N -0.01101 -0.16278 0.51910
 N147 N -0.01460 -0.13006 0.51530
 C148 C -0.04829 -0.12439 0.51498
 N149 N -0.07828 -0.15275 0.51901
 N150 N -0.07474 -0.18541 0.52294
 C151 C 0.00549 0.32236 0.49564
 N152 N 0.03613 0.34943 0.48908
 N153 N 0.03310 0.38352 0.48923
 C154 C -0.00069 0.39177 0.49593
 N155 N -0.03136 0.36465 0.50226
 N156 N -0.02832 0.33054 0.50205
 C157 C 0.00901 0.28523 0.49688
 N158 N -0.02146 0.25780 0.50289
 N159 N -0.01810 0.22434 0.50472
 C160 C 0.01586 0.21719 0.50075
 N161 N 0.04628 0.24461 0.49472
 N162 N 0.04292 0.27801 0.49282
 C163 C 0.01991 0.18043 0.50266
 N164 N 0.05399 0.17420 0.49984
 N165 N 0.05804 0.14082 0.50082
 C166 C 0.02823 0.11227 0.50470
 N167 N -0.00594 0.11863 0.50768
 N168 N -0.01004 0.15209 0.50676
 C169 C 0.47593 -0.01950 -0.33224
 N170 N 0.48577 0.01382 -0.34297
 N171 N 0.48880 0.01590 -0.37800
 C172 C 0.48207 -0.01526 -0.40365
 N173 N 0.47194 -0.04859 -0.39283
 N174 N 0.46902 -0.05067 -0.35780
 C175 C 0.47421 -0.02184 -0.29391
 N176 N 0.46820 -0.05520 -0.28400
 N177 N 0.46838 -0.05730 -0.24965
 C178 C 0.47441 -0.02616 -0.22389
 N179 N 0.48008 0.00720 -0.23370
 N180 N 0.48002 0.00932 -0.26810
 C181 C 0.47678 -0.02861 -0.18664
 N182 N 0.48174 0.00220 -0.16027
 N183 N 0.48599 -0.00002 -0.12717
 C184 C 0.48560 -0.03311 -0.11922
 N185 N 0.48026 -0.06388 -0.14558
 N186 N 0.47587 -0.06170 -0.17858
 C187 C 0.50283 0.00797 0.32295
 N188 N 0.51201 0.03800 0.34901
 N189 N 0.51252 0.03409 0.38267
 C190 C 0.50389 -0.00001 0.39157
 N191 N 0.49495 -0.03013 0.36544
 N192 N 0.49452 -0.02621 0.33169
 C193 C 0.50085 0.01280 0.28639
 N194 N 0.49283 -0.01684 0.25949
 N195 N 0.49046 -0.01209 0.22661
 C196 C 0.49584 0.02246 0.21956
 N197 N 0.50383 0.05202 0.24647
 N198 N 0.50629 0.04728 0.27925
 C199 C 0.49355 0.02808 0.18340
 N200 N 0.49736 0.06273 0.17744
 N201 N 0.49631 0.06824 0.14452
 C202 C 0.49140 0.03935 0.11616
 N203 N 0.48739 0.00462 0.12226
 N204 N 0.48836 -0.00093 0.15525
 C205 C 0.53583 -0.31069 -0.01706
 N206 N 0.54126 -0.33745 -0.04703
 N207 N 0.53828 -0.37206 -0.04333
 C208 C 0.52968 -0.38122 -0.00953
 N209 N 0.52448 -0.35443 0.02050
 N210 N 0.52753 -0.31977 0.01680
 C211 C 0.53708 -0.27309 -0.02143
 N212 N 0.53169 -0.24607 0.00833
 N213 N 0.53087 -0.21252 0.00421
 C214 C 0.53534 -0.20483 -0.02981
 N215 N 0.54103 -0.23177 -0.05955
 N216 N 0.54194 -0.26526 -0.05543
 C217 C 0.53193 -0.16874 -0.03441
 N218 N 0.53206 -0.16278 -0.06817
 N219 N 0.52660 -0.13093 -0.07220
 C220 C 0.52093 -0.10371 -0.04267
 N221 N 0.52129 -0.10960 -0.00894
 N222 N 0.52662 -0.14151 -0.00487
 C223 C 0.49741 0.34037 0.01327
 N224 N 0.50488 0.35023 -0.02015
 N225 N 0.50649 0.38487 -0.02288
 C226 C 0.50059 0.41088 0.00770
 N227 N 0.49286 0.40096 0.04111
 N228 N 0.49129 0.36633 0.04384
 C229 C 0.49706 0.30257 0.01643
 N230 N 0.49157 0.29347 0.04996
 N231 N 0.49210 0.25949 0.05296
 C232 C 0.49815 0.23334 0.02256
 N233 N 0.50354 0.24238 -0.01101
 N234 N 0.50306 0.27641 -0.01401
 C235 C 0.49888 0.19601 0.02622
 N236 N 0.50364 0.16908 -0.00379
 N237 N 0.50391 0.13520 -0.00009
 C238 C 0.49956 0.12698 0.03374
 N239 N 0.49492 0.15410 0.06362
 N240 N 0.49460 0.18789 0.05996
 C241 C -0.33246 -0.02646 0.47375
 N242 N -0.34023 0.00763 0.48114
 N243 N -0.37471 0.01130 0.48413
 C244 C -0.40263 -0.01900 0.47976
 N245 N -0.39480 -0.05305 0.47210
 N246 N -0.36036 -0.05672 0.46920
 C247 C -0.29487 -0.03063 0.47224
 N248 N -0.28804 -0.06470 0.46837
 N249 N -0.25436 -0.06850 0.46873
 C250 C -0.22623 -0.03837 0.47286
 N251 N -0.23297 -0.00431 0.47640
 N252 N -0.26669 -0.00051 0.47614
 C253 C -0.18965 -0.04247 0.47529
 N254 N -0.16129 -0.01250 0.47877
 N255 N -0.12869 -0.01600 0.48292
 C256 C -0.12317 -0.04957 0.48385
 N257 N -0.15156 -0.07957 0.48006
 N258 N -0.18413 -0.07610 0.47581
 C259 C 0.32221 0.00618 0.50709
 N260 N 0.34940 0.03675 0.51337
 N261 N 0.38352 0.03360 0.51290
 C262 C 0.39166 -0.00025 0.50616
 N263 N 0.36440 -0.03083 0.50015
 N264 N 0.33027 -0.02768 0.50067
 C265 C 0.28509 0.00978 0.50601
 N266 N 0.25769 -0.02066 0.49990
 N267 N 0.22426 -0.01727 0.49805
 C268 C 0.21712 0.01669 0.50210
 N269 N 0.24451 0.04710 0.50824
 N270 N 0.27788 0.04371 0.51015
 C271 C 0.18042 0.02070 0.50007
 N272 N 0.17403 0.05476 0.50311
 N273 N 0.14067 0.05871 0.50194
 C274 C 0.11230 0.02879 0.49766
 N275 N 0.11882 -0.00534 0.49446
 N276 N 0.15225 -0.00933 0.49557
 C277 C -0.02044 0.47363 1.33087
 N278 N -0.05158 0.46824 1.35682
 N279 N -0.04938 0.47144 1.39185
 C280 C -0.01593 0.48027 1.40220
 N281 N 0.01520 0.48548 1.37622
 N282 N 0.01299 0.48220 1.34120
 C283 C -0.02285 0.47185 1.29259
 N284 N 0.00827 0.47679 1.26653
 N285 N 0.00616 0.47700 1.23218
 C286 C -0.02715 0.47233 1.22266
 N287 N -0.05827 0.46712 1.24865
 N288 N -0.05616 0.46682 1.28296
 C289 C -0.02951 0.47502 1.18551
 N290 N -0.06248 0.47473 1.17761
 N291 N -0.06451 0.47952 1.14472
 C292 C -0.03369 0.48467 1.11832
 N293 N -0.00074 0.48445 1.12612
 N294 N 0.00133 0.47979 1.15911
 C295 C 0.00902 0.50506 0.67743
 N296 N 0.03894 0.51414 0.65118
 N297 N 0.03484 0.51437 0.61751
 C298 C 0.00065 0.50555 0.60883
 N299 N -0.02936 0.49674 0.63516
 N300 N -0.02525 0.49658 0.66890
 C301 C 0.01402 0.50320 0.71393
 N302 N -0.01556 0.49491 0.74085
 N303 N -0.01069 0.49253 0.77366
 C304 C 0.02392 0.49816 0.78063
 N305 N 0.05343 0.50644 0.75370
 N306 N 0.04857 0.50892 0.72097
 C307 C 0.02959 0.49580 0.81671
 N308 N 0.06428 0.50003 0.82275
 N309 N 0.06974 0.49888 0.85566
 C310 C 0.04076 0.49345 0.88389
 N311 N 0.00601 0.48901 0.87768
 N312 N 0.00051 0.49008 0.84472
   
