data_POSCAR
  _audit_creation_date              2014-09-24
  _audit_creation_method            'ToBaCCo'
  _symmetry_space_group_name_H-M    'P1'
  _symmetry_Int_Tables_number       1
  _symmetry_cell_setting            triclinic
  loop_
  _symmetry_equiv_pos_as_xyz
 x,y,z
_cell_length_a 22.4483
_cell_length_b 24.1720
_cell_length_c 22.1275
_cell_angle_alpha 86.918500
_cell_angle_beta 90.383700
_cell_angle_gamma 90.319500
loop_
  _atom_site_label
  _atom_site_type_symbol
  _atom_site_fract_x
  _atom_site_fract_y
  _atom_site_fract_z
C1 C 0.20721 0.27618 0.27993
 C2 C 0.24290 0.31245 0.23404
 C3 C 0.28239 0.28365 0.20139
 C4 C 0.28211 0.22107 0.21751
 C5 C 0.17800 0.23201 0.24251
 C6 C 0.21707 0.20288 0.21009
 C7 C 0.25399 0.24478 0.31881
 C8 C 0.29341 0.21584 0.28610
 H9 H 0.23936 0.35714 0.23074
 H10 H 0.31394 0.19738 0.19075
 H11 H 0.13022 0.22584 0.24030
 H12 H 0.25288 0.24301 0.36774
 C13 C 0.68467 0.78034 0.28852
 C14 C 0.72608 0.81458 0.24641
 C15 C 0.76655 0.78405 0.21693
 C16 C 0.76071 0.72131 0.23161
 C17 C 0.65539 0.73862 0.24778
 C18 C 0.69507 0.70752 0.21782
 C19 C 0.72587 0.74553 0.33036
 C20 C 0.76595 0.71471 0.30128
 H21 H 0.72127 0.85894 0.23938
 H22 H 0.79255 0.69646 0.20643
 H23 H 0.60765 0.73613 0.24116
 H24 H 0.72334 0.74547 0.37927
 C25 C 0.72399 0.28878 0.79754
 C26 C 0.75741 0.32211 0.75295
 C27 C 0.79226 0.29051 0.71331
 C28 C 0.78739 0.23092 0.72647
 C29 C 0.68691 0.24820 0.76120
 C30 C 0.72032 0.21782 0.72370
 C31 C 0.77037 0.25194 0.83091
 C32 C 0.80386 0.22138 0.79380
 H33 H 0.75746 0.36686 0.75242
 H34 H 0.81435 0.20568 0.69630
 H35 H 0.63884 0.24552 0.76361
 H36 H 0.77233 0.24725 0.87978
 C37 C 0.19091 0.77862 0.77679
 C38 C 0.22765 0.81803 0.73516
 C39 C 0.26737 0.79201 0.70000
 C40 C 0.26521 0.72850 0.70884
 C41 C 0.16098 0.73912 0.73429
 C42 C 0.19965 0.71252 0.69881
 C43 C 0.23672 0.74306 0.81251
 C44 C 0.27608 0.71697 0.77700
 H45 H 0.22208 0.86241 0.73478
 H46 H 0.29678 0.70686 0.67980
 H47 H 0.11309 0.73425 0.73129
 H48 H 0.23582 0.73755 0.86134
 C49 C 0.09529 0.06586 0.03897
 H50 H 0.09684 0.07405 -0.00955
 C51 C 0.12866 0.09844 0.07697
 H52 H 0.15522 0.13210 0.05712
 C53 C 0.05488 0.01436 0.12342
 H54 H 0.02567 -0.01813 0.14127
 C55 C 0.08704 0.04625 0.16308
 H56 H 0.08199 0.03837 0.21144
 N57 N 0.05863 0.02543 0.06268
 C58 C 0.02838 -0.08843 -0.08053
 H59 H -0.01953 -0.08791 -0.08595
 C60 C 0.06288 -0.12118 -0.11677
 H61 H 0.04053 -0.14424 -0.15079
 C62 C 0.11473 -0.05818 -0.02958
 H63 H 0.13500 -0.03408 0.00476
 C64 C 0.15081 -0.09033 -0.06458
 H65 H 0.19855 -0.09010 -0.05706
 Zn66 Zn 0.00811 -0.01110 0.00899
 N67 N 0.05474 -0.05705 -0.03863
 C68 C -0.04538 0.04116 -0.09868
 N69 N -0.03178 0.04521 -0.03902
 C70 C -0.04636 0.09118 -0.00965
 C71 C -0.07707 0.13452 -0.03948
 C72 C -0.07657 0.08370 -0.13043
 C73 C -0.04899 -0.10996 0.05754
 C74 C -0.08970 -0.13970 0.09464
 C75 C -0.12945 -0.05275 0.12461
 C76 C -0.08839 -0.02491 0.08707
 N77 N -0.04893 -0.05354 0.05468
 H78 H -0.03272 0.00491 -0.12180
 H79 H -0.03431 0.09424 0.03743
 H80 H -0.08882 0.17025 -0.01462
 H81 H -0.08732 0.07879 -0.17748
 H82 H -0.01660 -0.13201 0.03224
 H83 H -0.08776 -0.18442 0.09719
 H84 H -0.15992 -0.02890 0.15052
 H85 H -0.08721 0.01977 0.08491
 C86 C 0.12522 -0.12224 -0.10901
 C87 C 0.12387 0.08926 0.13999
 C88 C -0.13054 -0.11081 0.12907
 C89 C -0.09342 0.13107 -0.10039
 C90 C 0.08372 0.58100 0.51534
 H91 H 0.08808 0.58897 0.46699
 C92 C 0.11376 0.61457 0.55526
 H93 H 0.14052 0.64886 0.53714
 C94 C 0.04093 0.52814 0.59751
 H95 H 0.01266 0.49438 0.61394
 C96 C 0.06949 0.56092 0.63882
 H97 H 0.06239 0.55244 0.68682
 N98 N 0.04784 0.53903 0.53703
 C99 C 0.03437 0.41184 0.40540
 H100 H -0.01338 0.40757 0.40050
 C101 C 0.07215 0.37861 0.37330
 H102 H 0.05219 0.35039 0.34274
 C103 C 0.11700 0.45508 0.45074
 H104 H 0.13444 0.48480 0.48106
 C105 C 0.15644 0.42248 0.41980
 H106 H 0.20395 0.42771 0.42648
 Zn107 Zn 0.00427 0.49604 0.48279
 N108 N 0.05717 0.44982 0.44244
 C109 C -0.04778 0.53214 0.36837
 N110 N -0.03713 0.54477 0.42674
 C111 C -0.05788 0.59256 0.44836
 C112 C -0.09276 0.62856 0.41192
 C113 C -0.08273 0.56702 0.33030
 C114 C -0.04445 0.39751 0.54069
 C115 C -0.08353 0.36775 0.57950
 C116 C -0.13826 0.45218 0.59136
 C117 C -0.09833 0.48008 0.55246
 N118 N -0.05222 0.45275 0.52835
 H119 H -0.03032 0.49462 0.35131
 H120 H -0.04804 0.60242 0.49447
 H121 H -0.10822 0.66640 0.43043
 H122 H -0.09203 0.55572 0.28446
 H123 H -0.00673 0.37676 0.52216
 H124 H -0.07466 0.32434 0.58930
 H125 H -0.17394 0.47542 0.61065
 H126 H -0.10321 0.52409 0.54292
 C127 C 0.13434 0.38371 0.38033
 C128 C 0.10623 0.60478 0.61795
 C129 C -0.13113 0.39532 0.60618
 C130 C -0.10719 0.61507 0.35251
 C131 C 0.60044 0.08318 0.54588
 H132 H 0.60745 0.08860 0.49759
 C133 C 0.63031 0.11748 0.58508
 H134 H 0.66019 0.14903 0.56617
 C135 C 0.54885 0.03852 0.62803
 H136 H 0.51630 0.00839 0.64455
 C137 C 0.57737 0.07225 0.66874
 H138 H 0.56672 0.06752 0.71642
 N139 N 0.55994 0.04517 0.56769
 C140 C 0.52963 -0.07589 0.42905
 H141 H 0.48157 -0.07826 0.42931
 C142 C 0.56166 -0.11140 0.39371
 H143 H 0.53701 -0.13940 0.36639
 C144 C 0.61889 -0.03818 0.46720
 H145 H 0.64123 -0.01029 0.49648
 C146 C 0.65269 -0.07287 0.43254
 H147 H 0.70084 -0.07079 0.43532
 Zn148 Zn 0.51183 0.00699 0.51210
 N149 N 0.55838 -0.03973 0.46442
 C150 C 0.43975 0.04586 0.41237
 N151 N 0.47005 0.06072 0.46247
 C152 C 0.46639 0.11313 0.48176
 C153 C 0.43125 0.15271 0.45058
 C154 C 0.40420 0.08426 0.37964
 C155 C 0.46068 -0.09188 0.56538
 C156 C 0.41770 -0.12269 0.59814
 C157 C 0.36325 -0.03812 0.61053
 C158 C 0.40705 -0.00906 0.57748
 N159 N 0.45445 -0.03616 0.55556
 H160 H 0.44156 0.00387 0.39849
 H161 H 0.48872 0.12392 0.52288
 H162 H 0.42788 0.19381 0.46748
 H163 H 0.37894 0.07060 0.34137
 H164 H 0.49949 -0.11235 0.54872
 H165 H 0.42456 -0.16665 0.60667
 H166 H 0.32599 -0.01573 0.62800
 H167 H 0.40352 0.03534 0.56961
 C168 C 0.62430 -0.11008 0.39501
 C169 C 0.61826 0.11265 0.64745
 C170 C 0.36795 -0.09566 0.62097
 C171 C 0.39950 0.13854 0.39895
 C172 C 0.59140 0.57358 0.02797
 H173 H 0.60213 0.57911 -0.01958
 C174 C 0.62010 0.60611 0.07004
 H175 H 0.65275 0.63651 0.05415
 C176 C 0.53190 0.53072 0.10527
 H177 H 0.49593 0.50307 0.11882
 C178 C 0.55895 0.56261 0.14853
 H179 H 0.54406 0.55829 0.19503
 N180 N 0.54788 0.53701 0.04608
 C181 C 0.51720 0.43104 -0.10726
 H182 H 0.46951 0.43580 -0.11228
 C183 C 0.54796 0.39697 -0.14530
 H184 H 0.52381 0.37596 -0.17997
 C185 C 0.60647 0.45200 -0.05534
 H186 H 0.62900 0.47321 -0.01994
 C187 C 0.63885 0.41760 -0.09181
 H188 H 0.68646 0.41390 -0.08490
 Zn189 Zn 0.50072 0.50198 -0.01298
 N190 N 0.54676 0.45827 -0.06384
 C191 C 0.45817 0.56372 -0.11951
 N192 N 0.45981 0.55917 -0.05795
 C193 C 0.42969 0.59515 -0.02440
 C194 C 0.39344 0.63563 -0.05241
 C195 C 0.42212 0.60365 -0.14953
 C196 C 0.46359 0.41078 0.06225
 C197 C 0.42334 0.37762 0.09606
 C198 C 0.34291 0.43301 0.05280
 C199 C 0.38459 0.46491 0.01978
 N200 N 0.44381 0.45440 0.02634
 H201 H 0.48380 0.53587 -0.14551
 H202 H 0.43231 0.59106 0.02447
 H203 H 0.36845 0.66277 -0.02466
 H204 H 0.42127 0.60600 -0.19843
 H205 H 0.51092 0.40309 0.06633
 H206 H 0.44056 0.34502 0.12659
 H207 H 0.29606 0.44308 0.04840
 H208 H 0.36939 0.49871 -0.01015
 C209 C 0.60937 0.38934 -0.13736
 C210 C 0.60312 0.60134 0.13120
 C211 C 0.36203 0.38920 0.09210
 C212 C 0.38789 0.63938 -0.11562
 C213 C 0.14738 -0.19254 -0.18424
 C214 C 0.16551 -0.15390 -0.14699
 H215 H 0.10100 -0.20446 -0.18655
 H216 H 0.21283 -0.14495 -0.14429
 C217 C 0.16249 0.30694 0.31563
 C218 C 0.17748 0.35131 0.34620
 H219 H 0.11759 0.29070 0.31765
 H220 H 0.22372 0.36451 0.34616
 C221 C 0.64177 -0.18484 0.32230
 C222 C 0.66203 -0.14637 0.35912
 H223 H 0.59464 -0.19207 0.31633
 H224 H 0.70989 -0.14130 0.36338
 C225 C 0.68902 0.32307 -0.15995
 C226 C 0.64149 0.35307 -0.17803
 H227 H 0.70502 0.32505 -0.11383
 H228 H 0.62450 0.34970 -0.22365
 C229 C -0.15373 0.17789 -0.18429
 C230 C -0.12966 0.17691 -0.12858
 H231 H -0.14382 0.14590 -0.21486
 H232 H -0.13846 0.21116 -0.10043
 C233 C -0.19139 0.67955 0.33687
 C234 C -0.14787 0.64981 0.31345
 H235 H -0.19713 0.67782 0.38548
 H236 H -0.14326 0.64847 0.26497
 C237 C 0.33874 0.17762 0.31279
 C238 C 0.35831 0.17972 0.36993
 H239 H 0.35655 0.14722 0.28377
 H240 H 0.34417 0.21324 0.39694
 C241 C 0.32308 0.67869 -0.19955
 C242 C 0.34523 0.68024 -0.14318
 H243 H 0.33880 0.64850 -0.22990
 H244 H 0.32934 0.71160 -0.11419
 C245 C -0.18870 -0.19202 0.17377
 C246 C -0.17347 -0.13815 0.17187
 H247 H -0.16809 -0.21989 0.14368
 H248 H -0.19377 -0.11142 0.20341
 C249 C -0.17113 0.31317 0.66683
 C250 C -0.17049 0.36969 0.64857
 H251 H -0.14362 0.28464 0.64369
 H252 H -0.20305 0.39623 0.66789
 C253 C 0.31138 -0.17945 0.65936
 C254 C 0.32202 -0.12471 0.65870
 H255 H 0.33652 -0.20515 0.63035
 H256 H 0.29613 -0.09899 0.68695
 C257 C 0.32562 0.30959 0.15828
 C258 C 0.31738 0.35997 0.13132
 H259 H 0.36466 0.28582 0.14822
 H260 H 0.27565 0.38109 0.13765
 C261 C 0.19825 0.15946 0.16973
 C262 C 0.15054 0.12754 0.18245
 H263 H 0.22421 0.15385 0.12951
 H264 H 0.12893 0.13021 0.22586
 C265 C 0.18021 0.67307 0.65388
 C266 C 0.13109 0.64200 0.66262
 H267 H 0.20747 0.66877 0.61428
 H268 H 0.10795 0.64301 0.70537
 C269 C 0.69591 0.17788 0.68157
 C270 C 0.64386 0.15141 0.69053
 H271 H 0.72325 0.16864 0.64335
 H272 H 0.61950 0.15702 0.73182
 C273 C 0.67737 0.66679 0.17322
 C274 C 0.62520 0.63952 0.17675
 H275 H 0.70871 0.65837 0.13797
 H276 H 0.59703 0.64476 0.21558
   
