data_POSCAR
  _audit_creation_date              2014-09-24
  _audit_creation_method            'ToBaCCo'
  _symmetry_space_group_name_H-M    'P1'
  _symmetry_Int_Tables_number       1
  _symmetry_cell_setting            triclinic
  loop_
  _symmetry_equiv_pos_as_xyz
 x,y,z
_cell_length_a 52.4962
_cell_length_b 52.4903
_cell_length_c 48.6145
_cell_angle_alpha 89.974200
_cell_angle_beta 89.929500
_cell_angle_gamma 89.970700
loop_
  _atom_site_label
  _atom_site_type_symbol
  _atom_site_fract_x
  _atom_site_fract_y
  _atom_site_fract_z
O1 O -0.02405 0.27497 0.02401
 O2 O 0.02481 0.27471 -0.03047
 O3 O -0.02458 0.27403 -0.02962
 O4 O 0.02555 0.27599 0.02322
 O5 O 0.02702 0.23391 0.02344
 O6 O -0.02458 0.23198 -0.02769
 O7 O 0.02541 0.23265 -0.02944
 O8 O -0.02252 0.23294 0.02580
 Cu9 Cu 0.00033 0.27916 -0.00331
 Cu10 Cu 0.00131 0.22863 -0.00193
 C11 C -0.03149 0.25399 0.03426
 C12 C 0.03358 0.25360 -0.03909
 C13 C -0.03326 0.25268 -0.03745
 C14 C 0.03505 0.25528 0.03202
 O15 O 0.47562 0.76991 0.52826
 O16 O 0.52478 0.77117 0.47418
 O17 O 0.47513 0.77071 0.47475
 O18 O 0.52514 0.77068 0.52783
 O19 O 0.52661 0.72864 0.52619
 O20 O 0.47528 0.72862 0.47448
 O21 O 0.52470 0.72910 0.47288
 O22 O 0.47675 0.72784 0.52829
 Cu23 Cu 0.50011 0.77484 0.50131
 Cu24 Cu 0.50083 0.72432 0.50048
 C25 C 0.46791 0.74867 0.53758
 C26 C 0.53301 0.75036 0.46423
 C27 C 0.46667 0.74970 0.46561
 C28 C 0.53458 0.74967 0.53582
 O29 O 1.02546 0.72751 0.02820
 O30 O 0.97562 0.72844 -0.02511
 O31 O 1.02517 0.72706 -0.02559
 O32 O 0.97591 0.72877 0.02841
 O33 O 0.97725 0.77083 0.02831
 O34 O 1.02666 0.76910 -0.02553
 O35 O 0.97687 0.77050 -0.02565
 O36 O 1.02697 0.76955 0.02734
 Cu37 Cu 1.00041 0.72373 0.00151
 Cu38 Cu 1.00189 0.77423 0.00106
 C39 C 1.03490 0.74837 0.03667
 C40 C 0.96779 0.74962 -0.03448
 C41 C 1.03452 0.74779 -0.03456
 C42 C 0.96826 0.75007 0.03761
 O43 O 0.47499 0.22815 0.47054
 O44 O 0.52439 0.22649 0.52419
 O45 O 0.47487 0.22768 0.52404
 O46 O 0.52453 0.22694 0.47048
 O47 O 0.52585 0.26902 0.47128
 O48 O 0.47604 0.26975 0.52465
 O49 O 0.52574 0.26857 0.52416
 O50 O 0.47615 0.27022 0.47074
 Cu51 Cu 0.49957 0.22309 0.49727
 Cu52 Cu 0.50090 0.27364 0.49775
 C53 C 0.46722 0.24945 0.46146
 C54 C 0.53364 0.24726 0.53309
 C55 C 0.46706 0.24883 0.53351
 C56 C 0.53380 0.24786 0.46198
 O57 O 0.72644 0.02416 -0.02687
 O58 O 0.72656 -0.02427 0.02805
 O59 O 0.72698 0.02513 0.02675
 O60 O 0.72555 -0.02543 -0.02568
 O61 O 0.76762 -0.02676 -0.02561
 O62 O 0.76904 0.02530 0.02509
 O63 O 0.76862 -0.02469 0.02730
 O64 O 0.76849 0.02276 -0.02837
 Cu65 Cu 0.72215 -0.00003 0.00063
 Cu66 Cu 0.77268 -0.00082 -0.00041
 C67 C 0.74746 0.03159 -0.03705
 C68 C 0.74765 -0.03285 0.03692
 C69 C 0.74824 0.03398 0.03464
 C70 C 0.74634 -0.03490 -0.03430
 O71 O 0.22491 0.52520 0.47293
 O72 O 0.22502 0.47520 0.52618
 O73 O 0.22495 0.52474 0.52670
 O74 O 0.22502 0.47567 0.47243
 O75 O 0.26712 0.47554 0.47267
 O76 O 0.26705 0.52497 0.52631
 O77 O 0.26711 0.47505 0.52579
 O78 O 0.26700 0.52546 0.47318
 Cu79 Cu 0.22074 0.50020 0.49957
 Cu80 Cu 0.27129 0.50026 0.49948
 C81 C 0.24595 0.53397 0.46419
 C82 C 0.24610 0.46648 0.53485
 C83 C 0.24602 0.53333 0.53555
 C84 C 0.24611 0.46712 0.46351
 O85 O 0.26828 1.02628 0.02582
 O86 O 0.26833 0.97598 -0.02691
 O87 O 0.26823 1.02559 -0.02768
 O88 O 0.26830 0.97667 0.02660
 O89 O 0.22622 0.97669 0.02680
 O90 O 0.22617 1.02550 -0.02778
 O91 O 0.22625 0.97594 -0.02695
 O92 O 0.22622 1.02629 0.02599
 Cu93 Cu 0.27249 1.00113 -0.00054
 Cu94 Cu 0.22199 1.00110 -0.00047
 C95 C 0.24728 1.03485 0.03496
 C96 C 0.24733 0.96743 -0.03595
 C97 C 0.24721 1.03385 -0.03706
 C98 C 0.24729 0.96838 0.03598
 O99 O 0.77120 0.52369 0.52749
 O100 O 0.77027 0.47523 0.47279
 O101 O 0.77129 0.52470 0.47387
 O102 O 0.77068 0.47408 0.52627
 O103 O 0.72860 0.47435 0.52619
 O104 O 0.72924 0.52630 0.47513
 O105 O 0.72821 0.47649 0.47242
 O106 O 0.72912 0.52371 0.52840
 Cu107 Cu 0.77509 0.49935 0.50007
 Cu108 Cu 0.72455 0.50022 0.50047
 C109 C 0.75031 0.53184 0.53735
 C110 C 0.74909 0.46771 0.46320
 C111 C 0.75039 0.53430 0.46581
 C112 C 0.74957 0.46559 0.53513
 C113 C 0.25041 0.23214 0.22700
 C114 C 0.23197 0.25190 0.22630
 C115 C 0.23307 0.27122 0.24631
 C116 C 0.25225 0.27189 0.26647
 C117 C 0.27140 0.25279 0.26603
 C118 C 0.26997 0.23312 0.24658
 H119 H 0.28434 0.21826 0.24671
 H120 H 0.21870 0.28604 0.24616
 C121 C 0.75308 0.77267 0.23273
 C122 C 0.77226 0.75357 0.23347
 C123 C 0.77071 0.73400 0.25309
 C124 C 0.75096 0.73300 0.27261
 C125 C 0.73180 0.75206 0.27188
 C126 C 0.73336 0.77164 0.25231
 H127 H 0.71832 0.78579 0.25177
 H128 H 0.78568 0.71977 0.25364
 C129 C 0.77098 0.25191 0.22800
 C130 C 0.75197 0.23270 0.22757
 C131 C 0.73251 0.23346 0.24748
 C132 C 0.73112 0.25288 0.26737
 C133 C 0.74959 0.27261 0.26679
 C134 C 0.76928 0.27164 0.24732
 H135 H 0.78363 0.28651 0.24727
 H136 H 0.71819 0.21861 0.24757
 C137 C 0.23074 0.75266 0.23062
 C138 C 0.24929 0.77233 0.23159
 C139 C 0.26885 0.77109 0.25117
 C140 C 0.27026 0.75121 0.27039
 C141 C 0.25108 0.73216 0.27055
 C142 C 0.23188 0.73310 0.25040
 H143 H 0.21751 0.71831 0.25016
 H144 H 0.28327 0.78588 0.25144
 C145 C 0.73024 0.24839 0.72798
 C146 C 0.74939 0.26745 0.72844
 C147 C 0.76897 0.26596 0.74800
 C148 C 0.76983 0.24643 0.76779
 C149 C 0.75058 0.22746 0.76739
 C150 C 0.73105 0.22892 0.74779
 H151 H 0.71674 0.21403 0.74741
 H152 H 0.78326 0.28086 0.74836
 C153 C 0.27122 0.74767 0.73276
 C154 C 0.25192 0.72875 0.73236
 C155 C 0.23258 0.72970 0.75241
 C156 C 0.23140 0.74919 0.77225
 C157 C 0.25004 0.76879 0.77146
 C158 C 0.26977 0.76748 0.75205
 H159 H 0.28427 0.78220 0.75193
 H160 H 0.21811 0.71500 0.75251
 C161 C 0.25110 0.26796 0.72812
 C162 C 0.27031 0.24894 0.72850
 C163 C 0.26877 0.22909 0.74774
 C164 C 0.24902 0.22782 0.76713
 C165 C 0.23036 0.24741 0.76781
 C166 C 0.23167 0.26696 0.74803
 H167 H 0.21723 0.28171 0.74811
 H168 H 0.28326 0.21434 0.74765
 C169 C 0.75015 0.72807 0.73215
 C170 C 0.73108 0.74725 0.73147
 C171 C 0.73173 0.76662 0.75146
 C172 C 0.75095 0.76780 0.77158
 C173 C 0.77063 0.74926 0.77115
 C174 C 0.76972 0.72960 0.75167
 H175 H 0.78451 0.71515 0.75176
 H176 H 0.71695 0.78103 0.75140
 C177 C 0.24784 0.09073 0.09411
 N178 N 0.22547 0.08102 0.08485
 N179 N 0.22525 0.06291 0.06564
 C180 C 0.24741 0.05379 0.05501
 N181 N 0.26977 0.06349 0.06436
 N182 N 0.26998 0.08164 0.08349
 C183 C 0.24818 0.11095 0.11502
 N184 N 0.27049 0.12198 0.12254
 N185 N 0.27085 0.14060 0.14114
 C186 C 0.24892 0.14882 0.15301
 N187 N 0.22660 0.13772 0.14560
 N188 N 0.22623 0.11913 0.12692
 C189 C 0.24934 0.16986 0.17294
 N190 N 0.22771 0.17734 0.18600
 N191 N 0.22803 0.19697 0.20338
 C192 C 0.24993 0.21004 0.20810
 N193 N 0.27164 0.20219 0.19547
 N194 N 0.27134 0.18252 0.17818
 C195 C 0.75097 0.58690 0.59939
 N196 N 0.72871 0.57639 0.59090
 N197 N 0.72853 0.55878 0.57119
 C198 C 0.75061 0.55099 0.55930
 N199 N 0.77289 0.56141 0.56787
 N200 N 0.77306 0.57909 0.58753
 C201 C 0.75108 0.60679 0.62060
 N202 N 0.77304 0.61889 0.62737
 N203 N 0.77303 0.63745 0.64605
 C204 C 0.75107 0.64452 0.65871
 N205 N 0.72914 0.63232 0.65207
 N206 N 0.72914 0.61381 0.63333
 C207 C 0.75095 0.66559 0.67854
 N208 N 0.72927 0.67208 0.69209
 N209 N 0.72899 0.69181 0.70932
 C210 C 0.75032 0.70597 0.71335
 N211 N 0.77212 0.69913 0.70023
 N212 N 0.77241 0.67936 0.68308
 C213 C 0.74822 0.91053 0.09518
 N214 N 0.72609 0.92224 0.08821
 N215 N 0.72587 0.94067 0.06935
 C216 C 0.74784 0.94832 0.05707
 N217 N 0.77001 0.93678 0.06432
 N218 N 0.77017 0.91812 0.08289
 C219 C 0.74846 0.88978 0.11538
 N220 N 0.76777 0.87257 0.11557
 N221 N 0.76798 0.85359 0.13376
 C222 C 0.74905 0.85133 0.15264
 N223 N 0.72981 0.86862 0.15257
 N224 N 0.72941 0.88740 0.13412
 C225 C 0.74965 0.83074 0.17302
 N226 N 0.73679 0.83296 0.19711
 N227 N 0.73805 0.81459 0.21598
 C228 C 0.75208 0.79319 0.21149
 N229 N 0.76433 0.79080 0.18700
 N230 N 0.76339 0.80930 0.16826
 C231 C 0.24637 0.40719 0.59222
 N232 N 0.22537 0.42200 0.58898
 N233 N 0.22525 0.44093 0.57070
 C234 C 0.24625 0.44593 0.55529
 N235 N 0.26730 0.43125 0.55869
 N236 N 0.26732 0.41213 0.57672
 C237 C 0.24646 0.38612 0.61205
 N238 N 0.26390 0.36711 0.60993
 N239 N 0.26404 0.34796 0.62792
 C240 C 0.24692 0.34728 0.64886
 N241 N 0.22955 0.36634 0.65106
 N242 N 0.22921 0.38534 0.63286
 C243 C 0.24754 0.32652 0.66906
 N244 N 0.23633 0.32934 0.69403
 N245 N 0.23761 0.31079 0.71269
 C246 C 0.25004 0.28865 0.70713
 N247 N 0.26063 0.28568 0.68182
 N248 N 0.25965 0.30433 0.66325
 C249 C 0.91283 0.25391 0.09577
 N250 N 0.92409 0.23184 0.08776
 N251 N 0.94192 0.23189 0.06823
 C252 C 0.94916 0.25402 0.05605
 N253 N 0.93798 0.27611 0.06415
 N254 N 0.92010 0.27605 0.08362
 C255 C 0.89272 0.25379 0.11679
 N256 N 0.88004 0.27554 0.12315
 N257 N 0.86133 0.27533 0.14168
 C258 C 0.85467 0.25338 0.15458
 N259 N 0.86745 0.23164 0.14834
 N260 N 0.88612 0.23184 0.12975
 C261 C 0.83348 0.25307 0.17431
 N262 N 0.82736 0.23143 0.18814
 N263 N 0.80758 0.23103 0.20535
 C264 C 0.79304 0.25216 0.20910
 N265 N 0.79951 0.27391 0.19569
 N266 N 0.81931 0.27434 0.17855
 C267 C 0.41212 0.74793 0.59906
 N268 N 0.42285 0.72583 0.59028
 N269 N 0.44068 0.72602 0.57072
 C270 C 0.44845 0.74832 0.55930
 N271 N 0.43777 0.77041 0.56815
 N272 N 0.41991 0.77021 0.58764
 C273 C 0.39209 0.74783 0.62021
 N274 N 0.38014 0.76982 0.62728
 N275 N 0.36159 0.76978 0.64600
 C276 C 0.35437 0.74778 0.65844
 N277 N 0.36641 0.72579 0.65149
 N278 N 0.38492 0.72582 0.63268
 C279 C 0.33337 0.74777 0.67846
 N280 N 0.32672 0.72613 0.69198
 N281 N 0.30712 0.72607 0.70944
 C282 C 0.29326 0.74758 0.71375
 N283 N 0.30027 0.76932 0.70064
 N284 N 0.31991 0.76940 0.68327
 C285 C 0.09291 0.74774 0.09325
 N286 N 0.08558 0.76980 0.08105
 N287 N 0.06654 0.77002 0.06297
 C288 C 0.05432 0.74812 0.05613
 N289 N 0.06173 0.72601 0.06829
 N290 N 0.08056 0.72585 0.08666
 C291 C 0.11393 0.74763 0.11312
 N292 N 0.11616 0.72865 0.13195
 N293 N 0.13503 0.72888 0.15026
 C294 C 0.15256 0.74790 0.15012
 N295 N 0.15045 0.76674 0.13113
 N296 N 0.13139 0.76669 0.11308
 C297 C 0.17313 0.74847 0.17052
 N298 N 0.19457 0.76221 0.16577
 N299 N 0.21294 0.76332 0.18461
 C300 C 0.21042 0.75127 0.20920
 N301 N 0.18906 0.73720 0.21365
 N302 N 0.17081 0.73577 0.19469
 C303 C 0.59246 0.24567 0.59080
 N304 N 0.58817 0.26680 0.57539
 N305 N 0.56921 0.26736 0.55724
 C306 C 0.55402 0.24672 0.55364
 N307 N 0.55836 0.22553 0.56896
 N308 N 0.57715 0.22508 0.58737
 C309 C 0.61338 0.24518 0.61075
 N310 N 0.61359 0.22795 0.63158
 N311 N 0.63243 0.22787 0.64993
 C312 C 0.65188 0.24480 0.64786
 N313 N 0.65177 0.26188 0.62690
 N314 N 0.63279 0.26216 0.60876
 C315 C 0.67243 0.24508 0.66825
 N316 N 0.69485 0.25681 0.66261
 N317 N 0.71327 0.25767 0.68139
 C318 C 0.70984 0.24735 0.70675
 N319 N 0.68749 0.23525 0.71215
 N320 N 0.66915 0.23410 0.69327
 C321 C 0.74782 0.08671 0.90088
 N322 N 0.72563 0.07952 0.91297
 N323 N 0.72547 0.06182 0.93263
 C324 C 0.74752 0.05075 0.94097
 N325 N 0.76971 0.05792 0.92886
 N326 N 0.76985 0.07556 0.90915
 C327 C 0.74805 0.10662 0.87966
 N328 N 0.77007 0.11311 0.86676
 N329 N 0.77037 0.13161 0.84798
 C330 C 0.74867 0.14432 0.84147
 N331 N 0.72664 0.13777 0.85431
 N332 N 0.72633 0.11923 0.87303
 C333 C 0.74909 0.16533 0.82154
 N334 N 0.72786 0.17948 0.81705
 N335 N 0.72839 0.19915 0.79976
 C336 C 0.75022 0.20551 0.78643
 N337 N 0.77132 0.19098 0.79041
 N338 N 0.77081 0.17134 0.80779
 C339 C 0.24602 0.59316 0.40671
 N340 N 0.22510 0.57825 0.40995
 N341 N 0.22504 0.55936 0.42828
 C342 C 0.24603 0.55449 0.44372
 N343 N 0.26700 0.56928 0.44031
 N344 N 0.26694 0.58836 0.42224
 C345 C 0.24605 0.61421 0.38684
 N346 N 0.26331 0.63335 0.38903
 N347 N 0.26342 0.65247 0.37101
 C348 C 0.24647 0.65299 0.34996
 N349 N 0.22928 0.63380 0.34768
 N350 N 0.22896 0.61483 0.36591
 C351 C 0.24710 0.67372 0.32972
 N352 N 0.23625 0.67078 0.30462
 N353 N 0.23762 0.68929 0.28592
 C354 C 0.24982 0.71152 0.29158
 N355 N 0.26003 0.71462 0.31703
 N356 N 0.25895 0.69601 0.33563
 C357 C 0.24802 0.91059 0.90377
 N358 N 0.22569 0.92118 0.91210
 N359 N 0.22544 0.93927 0.93133
 C360 C 0.24750 0.94747 0.94288
 N361 N 0.26981 0.93692 0.93450
 N362 N 0.27006 0.91878 0.91535
 C363 C 0.24837 0.89038 0.88286
 N364 N 0.27048 0.87836 0.87639
 N365 N 0.27082 0.85971 0.85782
 C366 C 0.24909 0.85246 0.84491
 N367 N 0.22698 0.86457 0.85126
 N368 N 0.22662 0.88317 0.86992
 C369 C 0.24943 0.83136 0.82505
 N370 N 0.22812 0.82490 0.81089
 N371 N 0.22830 0.80518 0.79363
 C372 C 0.24973 0.79100 0.79016
 N373 N 0.27118 0.79784 0.80388
 N374 N 0.27102 0.81760 0.82104
 C375 C 0.74868 0.41265 0.40110
 N376 N 0.77090 0.42038 0.41264
 N377 N 0.77099 0.43802 0.43232
 C378 C 0.74886 0.44853 0.44126
 N379 N 0.72661 0.44084 0.42971
 N380 N 0.72653 0.42322 0.40996
 C381 C 0.74870 0.39283 0.37979
 N382 N 0.72672 0.38557 0.36736
 N383 N 0.72682 0.36718 0.34845
 C384 C 0.74889 0.35538 0.34135
 N385 N 0.77085 0.36271 0.35373
 N386 N 0.77077 0.38112 0.37257
 C387 C 0.74905 0.33449 0.32126
 N388 N 0.77082 0.32133 0.31627
 N389 N 0.77092 0.30177 0.29886
 C390 C 0.74923 0.29453 0.28586
 N391 N 0.72756 0.30808 0.29035
 N392 N 0.72743 0.32762 0.30786
 C393 C 0.09101 0.25301 0.90355
 N394 N 0.08338 0.23109 0.91586
 N395 N 0.06444 0.23124 0.93411
 C396 C 0.05265 0.25338 0.94102
 N397 N 0.06034 0.27533 0.92872
 N398 N 0.07905 0.27511 0.91017
 C399 C 0.11207 0.25279 0.88373
 N400 N 0.11452 0.27166 0.86481
 N401 N 0.13358 0.27127 0.84668
 C402 C 0.15107 0.25221 0.84712
 N403 N 0.14873 0.23346 0.86619
 N404 N 0.12948 0.23366 0.88406
 C405 C 0.17189 0.25155 0.82701
 N406 N 0.19342 0.23812 0.83225
 N407 N 0.21207 0.23702 0.81369
 C408 C 0.20974 0.24876 0.78891
 N409 N 0.18827 0.26252 0.78397
 N410 N 0.16974 0.26395 0.80265
 C411 C 0.58900 0.75151 0.40301
 N412 N 0.57835 0.72918 0.41115
 N413 N 0.56044 0.72884 0.43058
 C414 C 0.55249 0.75082 0.44255
 N415 N 0.56305 0.77317 0.43433
 N416 N 0.58102 0.77350 0.41495
 C417 C 0.60920 0.75182 0.38208
 N418 N 0.62136 0.77385 0.37565
 N419 N 0.64015 0.77402 0.35721
 C420 C 0.64741 0.75219 0.34444
 N421 N 0.63515 0.73018 0.35075
 N422 N 0.61640 0.72999 0.36926
 C423 C 0.66871 0.75227 0.32484
 N424 N 0.67539 0.73072 0.31117
 N425 N 0.69531 0.73063 0.29415
 C426 C 0.70946 0.75202 0.29044
 N427 N 0.70244 0.77369 0.30366
 N428 N 0.68248 0.77380 0.32060
 C429 C 0.91119 0.75006 0.90502
 N430 N 0.92201 0.77220 0.91351
 N431 N 0.94005 0.77211 0.93278
 C432 C 0.94796 0.74986 0.94423
 N433 N 0.93718 0.72774 0.93569
 N434 N 0.91911 0.72784 0.91648
 C435 C 0.89104 0.75005 0.88404
 N436 N 0.87922 0.72800 0.87703
 N437 N 0.86067 0.72792 0.85836
 C438 C 0.85329 0.74987 0.84593
 N439 N 0.86518 0.77193 0.85285
 N440 N 0.88371 0.77202 0.87158
 C441 C 0.83236 0.74973 0.82587
 N442 N 0.82548 0.77136 0.81245
 N443 N 0.80599 0.77125 0.79489
 C444 C 0.79250 0.74957 0.79034
 N445 N 0.79974 0.72786 0.80336
 N446 N 0.81925 0.72795 0.82084
 C447 C 0.41134 0.25074 0.40030
 N448 N 0.42221 0.27274 0.40912
 N449 N 0.44002 0.27237 0.42863
 C450 C 0.44763 0.24998 0.43997
 N451 N 0.43681 0.22800 0.43109
 N452 N 0.41896 0.22838 0.41166
 C453 C 0.39143 0.25107 0.37913
 N454 N 0.37930 0.22922 0.37200
 N455 N 0.36088 0.22947 0.35319
 C456 C 0.35397 0.25156 0.34073
 N457 N 0.36619 0.27341 0.34775
 N458 N 0.38457 0.27317 0.36663
 C459 C 0.33314 0.25184 0.32062
 N460 N 0.32686 0.27357 0.30706
 N461 N 0.30738 0.27389 0.28951
 C462 C 0.29328 0.25258 0.28515
 N463 N 0.29991 0.23074 0.29829
 N464 N 0.31944 0.23039 0.31575
 C465 C 0.74510 0.90537 0.90900
 N466 N 0.72444 0.92066 0.91219
 N467 N 0.72475 0.93968 0.93034
 C468 C 0.74587 0.94427 0.94566
 N469 N 0.76657 0.92908 0.94233
 N470 N 0.76614 0.90989 0.92444
 C471 C 0.74485 0.88434 0.88917
 N472 N 0.76203 0.86510 0.89125
 N473 N 0.76207 0.84610 0.87311
 C474 C 0.74513 0.84580 0.85205
 N475 N 0.72799 0.86508 0.84990
 N476 N 0.72775 0.88393 0.86825
 C477 C 0.74586 0.82530 0.83159
 N478 N 0.73499 0.82844 0.80652
 N479 N 0.73666 0.81020 0.78756
 C480 C 0.74921 0.78808 0.79291
 N481 N 0.75941 0.78476 0.81833
 N482 N 0.75802 0.80309 0.83720
 C483 C 0.24653 0.40888 0.40493
 N484 N 0.26744 0.41357 0.42051
 N485 N 0.26737 0.43235 0.43893
 C486 C 0.24629 0.44693 0.44266
 N487 N 0.22532 0.44218 0.42717
 N488 N 0.22550 0.42359 0.40850
 C489 C 0.24670 0.38815 0.38468
 N490 N 0.22954 0.38770 0.36382
 N491 N 0.22999 0.36902 0.34526
 C492 C 0.24740 0.34995 0.34712
 N493 N 0.26442 0.35031 0.36810
 N494 N 0.26417 0.36914 0.38646
 C495 C 0.24814 0.32952 0.32654
 N496 N 0.26029 0.30727 0.33200
 N497 N 0.26143 0.28893 0.31312
 C498 C 0.25099 0.29226 0.28781
 N499 N 0.23851 0.31445 0.28260
 N500 N 0.23707 0.33270 0.30158
 C501 C 0.24762 0.08807 0.90198
 N502 N 0.22528 0.07842 0.91147
 N503 N 0.22512 0.06084 0.93127
 C504 C 0.24730 0.05221 0.94226
 N505 N 0.26963 0.06184 0.93267
 N506 N 0.26978 0.07948 0.91296
 C507 C 0.24788 0.10778 0.88051
 N508 N 0.27005 0.11924 0.87319
 N509 N 0.27030 0.13753 0.85418
 C510 C 0.24841 0.14494 0.84167
 N511 N 0.22624 0.13337 0.84886
 N512 N 0.22598 0.11515 0.86796
 C513 C 0.24867 0.16573 0.82143
 N514 N 0.22725 0.17214 0.80741
 N515 N 0.22735 0.19168 0.78988
 C516 C 0.24879 0.20573 0.78603
 N517 N 0.27035 0.19892 0.79958
 N518 N 0.27027 0.17933 0.81699
 C519 C 0.75168 0.59388 0.40877
 N520 N 0.73066 0.58957 0.42439
 N521 N 0.73015 0.57041 0.44238
 C522 C 0.75074 0.55505 0.44559
 N523 N 0.77180 0.55942 0.43006
 N524 N 0.77221 0.57840 0.41185
 C525 C 0.75222 0.61494 0.38892
 N526 N 0.76964 0.61529 0.36826
 N527 N 0.76994 0.63429 0.35007
 C528 C 0.75304 0.65378 0.35210
 N529 N 0.73574 0.65353 0.37288
 N530 N 0.73525 0.63439 0.39088
 C531 C 0.75312 0.67456 0.33188
 N532 N 0.74122 0.69691 0.33745
 N533 N 0.74076 0.71554 0.31884
 C534 C 0.75169 0.71241 0.29372
 N535 N 0.76396 0.69012 0.28842
 N536 N 0.76470 0.67158 0.30713
 C537 C 0.09238 0.74623 0.90856
 N538 N 0.07999 0.72448 0.91558
 N539 N 0.06118 0.72494 0.93401
 C540 C 0.05382 0.74724 0.94580
 N541 N 0.06606 0.76902 0.93850
 N542 N 0.08509 0.76850 0.92037
 C543 C 0.11350 0.74577 0.88878
 N544 N 0.13113 0.76467 0.88875
 N545 N 0.15035 0.76437 0.87084
 C546 C 0.15245 0.74534 0.85209
 N547 N 0.13474 0.72649 0.85202
 N548 N 0.11570 0.72660 0.87019
 C549 C 0.17323 0.74555 0.83190
 N550 N 0.17098 0.73287 0.80772
 N551 N 0.18942 0.73408 0.78890
 C552 C 0.21091 0.74790 0.79353
 N553 N 0.21335 0.75989 0.81814
 N554 N 0.19480 0.75900 0.83682
 C555 C 0.59289 0.24730 0.40436
 N556 N 0.57772 0.22656 0.40754
 N557 N 0.55884 0.22669 0.42590
 C558 C 0.55428 0.24768 0.44146
 N559 N 0.56934 0.26846 0.43812
 N560 N 0.58838 0.26823 0.42001
 C561 C 0.61391 0.24718 0.38445
 N562 N 0.63307 0.26441 0.38656
 N563 N 0.65213 0.26449 0.36845
 C564 C 0.65257 0.24751 0.34741
 N565 N 0.63336 0.23032 0.34523
 N566 N 0.61444 0.23005 0.36354
 C567 C 0.67319 0.24819 0.32705
 N568 N 0.67026 0.23713 0.30204
 N569 N 0.68863 0.23869 0.28319
 C570 C 0.71069 0.25130 0.28859
 N571 N 0.71379 0.26170 0.31395
 N572 N 0.69533 0.26042 0.33270
 C573 C 0.90795 0.25113 0.90474
 N574 N 0.92270 0.27218 0.90765
 N575 N 0.94143 0.27266 0.92611
 C576 C 0.94628 0.25200 0.94206
 N577 N 0.93165 0.23087 0.93902
 N578 N 0.91272 0.23050 0.92078
 C579 C 0.88714 0.25074 0.88463
 N580 N 0.86813 0.23332 0.88668
 N581 N 0.84916 0.23309 0.86849
 C582 C 0.84868 0.25009 0.84744
 N583 N 0.86776 0.26742 0.84531
 N584 N 0.88657 0.26785 0.86369
 C585 C 0.82807 0.24950 0.82710
 N586 N 0.83102 0.26087 0.80224
 N587 N 0.81257 0.25975 0.78350
 C588 C 0.79039 0.24733 0.78887
 N589 N 0.78731 0.23656 0.81408
 N590 N 0.80585 0.23739 0.83273
 C591 C 0.41010 0.75015 0.40508
 N592 N 0.41817 0.77225 0.41666
 N593 N 0.43619 0.77208 0.43594
 C594 C 0.44673 0.74981 0.44443
 N595 N 0.43865 0.72770 0.43287
 N596 N 0.42067 0.72787 0.41353
 C597 C 0.39011 0.75039 0.38393
 N598 N 0.38301 0.72854 0.37111
 N599 N 0.36466 0.72876 0.35218
 C600 C 0.35271 0.75084 0.34543
 N601 N 0.35983 0.77268 0.35823
 N602 N 0.37823 0.77247 0.37708
 C603 C 0.33192 0.75104 0.32519
 N604 N 0.31842 0.77267 0.32051
 N605 N 0.29896 0.77270 0.30295
 C606 C 0.29218 0.75107 0.28951
 N607 N 0.30610 0.72958 0.29368
 N608 N 0.32552 0.72953 0.31132
 C609 C 0.24789 0.91288 0.09772
 N610 N 0.22558 0.92329 0.08913
 N611 N 0.22536 0.94098 0.06946
 C612 C 0.24745 0.94894 0.05771
 N613 N 0.26974 0.93859 0.06635
 N614 N 0.26995 0.92085 0.08595
 C615 C 0.24818 0.89303 0.11904
 N616 N 0.27028 0.88113 0.12577
 N617 N 0.27055 0.86273 0.14464
 C618 C 0.24876 0.85560 0.15757
 N619 N 0.22666 0.86759 0.15096
 N620 N 0.22638 0.88595 0.13201
 C621 C 0.24901 0.83469 0.17766
 N622 N 0.22760 0.82826 0.19174
 N623 N 0.22768 0.80863 0.20914
 C624 C 0.24911 0.79451 0.21282
 N625 N 0.27065 0.80131 0.19921
 N626 N 0.27059 0.82099 0.18191
 C627 C 0.74947 0.40848 0.59512
 N628 N 0.72727 0.41915 0.58660
 N629 N 0.72727 0.43729 0.56741
 C630 C 0.74948 0.44545 0.55608
 N631 N 0.77167 0.43480 0.56464
 N632 N 0.77166 0.41662 0.58376
 C633 C 0.74953 0.38833 0.61609
 N634 N 0.77156 0.37639 0.62301
 N635 N 0.77163 0.35784 0.64171
 C636 C 0.74969 0.35062 0.65429
 N637 N 0.72766 0.36263 0.64748
 N638 N 0.72759 0.38114 0.62870
 C639 C 0.74972 0.32966 0.67432
 N640 N 0.72809 0.32313 0.68795
 N641 N 0.72799 0.30352 0.70538
 C642 C 0.74943 0.28956 0.70957
 N643 N 0.77117 0.29646 0.69639
 N644 N 0.77130 0.31611 0.67904
 C645 C 0.74904 0.09336 0.09183
 N646 N 0.72812 0.07843 0.08894
 N647 N 0.72788 0.05951 0.07069
 C648 C 0.74868 0.05463 0.05493
 N649 N 0.76969 0.06944 0.05796
 N650 N 0.76982 0.08856 0.07599
 C651 C 0.74914 0.11437 0.11172
 N652 N 0.76643 0.13350 0.10959
 N653 N 0.76639 0.15265 0.12758
 C654 C 0.74924 0.15321 0.14850
 N655 N 0.73204 0.13402 0.15070
 N656 N 0.73189 0.11503 0.13253
 C657 C 0.74954 0.17400 0.16865
 N658 N 0.73805 0.17117 0.19347
 N659 N 0.73894 0.18977 0.21207
 C660 C 0.75125 0.21199 0.20660
 N661 N 0.76213 0.21496 0.18143
 N662 N 0.76154 0.19627 0.16292
 C663 C 0.24631 0.59153 0.59418
 N664 N 0.22531 0.57680 0.59066
 N665 N 0.22517 0.55823 0.57197
 C666 C 0.24615 0.55350 0.55642
 N667 N 0.26720 0.56810 0.56011
 N668 N 0.26723 0.58687 0.57854
 C669 C 0.24645 0.61227 0.61443
 N670 N 0.26389 0.63127 0.61259
 N671 N 0.26411 0.65012 0.63093
 C672 C 0.24708 0.65049 0.65195
 N673 N 0.22969 0.63143 0.65387
 N674 N 0.22928 0.61273 0.63533
 C675 C 0.24779 0.67097 0.67249
 N676 N 0.23670 0.66787 0.69748
 N677 N 0.23813 0.68616 0.71641
 C678 C 0.25063 0.70831 0.71110
 N679 N 0.26109 0.71157 0.68577
 N680 N 0.25995 0.69318 0.66694
 C681 C 0.91259 0.75132 0.09921
 N682 N 0.91990 0.72901 0.08751
 N683 N 0.93768 0.72865 0.06795
 C684 C 0.94874 0.75060 0.05926
 N685 N 0.94143 0.77294 0.07094
 N686 N 0.92369 0.77329 0.09059
 C687 C 0.89271 0.75162 0.12052
 N688 N 0.88631 0.77360 0.13356
 N689 N 0.86796 0.77382 0.15254
 C690 C 0.85531 0.75208 0.15911
 N691 N 0.86176 0.73012 0.14611
 N692 N 0.88015 0.72988 0.12722
 C693 C 0.83442 0.75237 0.17926
 N694 N 0.82006 0.73121 0.18338
 N695 N 0.80044 0.73163 0.20076
 C696 C 0.79436 0.75326 0.21459
 N697 N 0.80914 0.77425 0.21104
 N698 N 0.82872 0.77386 0.19355
 C699 C 0.41095 0.24908 0.59463
 N700 N 0.41864 0.22691 0.58288
 N701 N 0.43656 0.22686 0.56346
 C702 C 0.44738 0.24899 0.55499
 N703 N 0.43971 0.27119 0.56672
 N704 N 0.42182 0.27123 0.58620
 C705 C 0.39096 0.24904 0.61579
 N706 N 0.38400 0.27095 0.62862
 N707 N 0.36554 0.27087 0.64748
 C708 C 0.35336 0.24889 0.65414
 N709 N 0.36037 0.22700 0.64135
 N710 N 0.37886 0.22707 0.62256
 C711 C 0.33243 0.24883 0.67421
 N712 N 0.31878 0.22729 0.67876
 N713 N 0.29916 0.22736 0.69614
 C714 C 0.29236 0.24901 0.70954
 N715 N 0.30641 0.27042 0.70551
 N716 N 0.32600 0.27037 0.68804
 C717 C 0.09474 0.25703 0.08868
 N718 N 0.07936 0.27761 0.08543
 N719 N 0.06033 0.27714 0.06731
 C720 C 0.05582 0.25593 0.05210
 N721 N 0.07110 0.23531 0.05549
 N722 N 0.09030 0.23590 0.07335
 C723 C 0.11578 0.25746 0.10847
 N724 N 0.13512 0.24039 0.10638
 N725 N 0.15411 0.24047 0.12451
 C726 C 0.15430 0.25744 0.14556
 N727 N 0.13493 0.27448 0.14770
 N728 N 0.11608 0.27460 0.12937
 C729 C 0.17475 0.25681 0.16606
 N730 N 0.17144 0.26761 0.19115
 N731 N 0.18960 0.26600 0.21018
 C732 C 0.21180 0.25359 0.20487
 N733 N 0.21530 0.24347 0.17944
 N734 N 0.19704 0.24480 0.16050
 C735 C 0.59350 0.75008 0.59361
 N736 N 0.57816 0.77072 0.59055
 N737 N 0.55941 0.77060 0.57210
 C738 C 0.55511 0.74973 0.55629
 N739 N 0.57033 0.72902 0.55948
 N740 N 0.58927 0.72925 0.57771
 C741 C 0.61433 0.75027 0.61375
 N742 N 0.63370 0.73321 0.61185
 N743 N 0.65262 0.73338 0.63010
 C744 C 0.65272 0.75044 0.65108
 N745 N 0.63329 0.76743 0.65305
 N746 N 0.61452 0.76746 0.63461
 C747 C 0.67326 0.75017 0.67157
 N748 N 0.67005 0.76152 0.69640
 N749 N 0.68838 0.76051 0.71531
 C750 C 0.71069 0.74821 0.71015
 N751 N 0.71404 0.73751 0.68496
 N752 N 0.69563 0.73823 0.66614
   
