data_POSCAR
  _audit_creation_date              2014-09-24
  _audit_creation_method            'ToBaCCo'
  _symmetry_space_group_name_H-M    'P1'
  _symmetry_Int_Tables_number       1
  _symmetry_cell_setting            triclinic
  loop_
  _symmetry_equiv_pos_as_xyz
 x,y,z
_cell_length_a 29.3818
_cell_length_b 27.2555
_cell_length_c 25.1145
_cell_angle_alpha 94.306700
_cell_angle_beta 87.656300
_cell_angle_gamma 97.598400
loop_
  _atom_site_label
  _atom_site_type_symbol
  _atom_site_fract_x
  _atom_site_fract_y
  _atom_site_fract_z
C1 C 0.57244 0.69097 0.65560
 N2 N 0.57574 0.66371 0.69806
 C3 C 0.60905 0.63364 0.69859
 N4 N 0.63912 0.63108 0.65614
 C5 C 0.63593 0.65804 0.61341
 N6 N 0.60265 0.68813 0.61336
 C7 C 0.92928 0.31099 0.11257
 N8 N 0.92941 0.34183 0.15778
 C9 C 0.89929 0.37564 0.16466
 N10 N 0.86899 0.37882 0.12601
 C11 C 0.86881 0.34839 0.08059
 N12 N 0.89899 0.31460 0.07406
 C13 C 0.41852 0.20031 -0.12736
 N14 N 0.42568 0.16027 -0.16086
 C15 C 0.39147 0.12218 -0.16913
 N16 N 0.35050 0.12351 -0.14246
 C17 C 0.34326 0.16290 -0.10821
 N18 N 0.37712 0.20167 -0.10144
 C19 C 0.07820 0.82300 0.38123
 N20 N 0.12030 0.82461 0.40232
 C21 C 0.15405 0.86217 0.39220
 N22 N 0.14597 0.89720 0.35951
 C23 C 0.10430 0.89567 0.33745
 N24 N 0.07021 0.85905 0.34934
 N25 N 0.07111 0.18388 0.10103
 N26 N 0.05109 0.16002 0.14113
 C27 C 0.01764 0.18506 0.16314
 C28 C 0.01594 0.22588 0.13434
 C29 C 0.05016 0.22409 0.09515
 H30 H -0.00433 0.17401 0.19693
 H31 H 0.05960 0.25058 0.06535
 Cu32 Cu 0.06920 0.09773 0.16007
 Cu33 Cu 0.12382 0.16217 0.06072
 Cu34 Cu 0.15518 0.04998 0.09183
 N35 N 0.09958 0.04631 0.18812
 N36 N 0.13488 0.02978 0.16219
 C37 C 0.15124 -0.00329 0.19092
 C38 C 0.12430 -0.00837 0.23686
 C39 C 0.09162 0.02345 0.23403
 H40 H 0.18026 -0.02266 0.17893
 H41 H 0.06507 0.03043 0.26368
 N42 N 0.18521 0.08822 0.03425
 N43 N 0.17569 0.13262 0.02452
 C44 C 0.20590 0.15129 -0.01306
 C45 C 0.23522 0.11647 -0.02773
 C46 C 0.22092 0.07698 0.00264
 H47 H 0.20651 0.18730 -0.02865
 H48 H 0.23679 0.04343 0.00339
 H49 H 0.10306 0.08928 0.06902
 H50 H 0.14450 0.12076 0.11901
 N51 N 0.41807 0.79677 0.59390
 N52 N 0.44070 0.82765 0.62937
 C53 C 0.47854 0.80875 0.64230
 C54 C 0.47982 0.76401 0.61277
 C55 C 0.44116 0.75762 0.58230
 H56 H 0.50381 0.82662 0.67003
 H57 H 0.43029 0.72652 0.55436
 Cu58 Cu 0.41937 0.89043 0.65347
 Cu59 Cu 0.35889 0.80825 0.56816
 Cu60 Cu 0.33852 0.93069 0.58466
 N61 N 0.39166 0.94927 0.67907
 N62 N 0.35895 0.96394 0.65233
 C63 C 0.34457 1.00418 0.67854
 C64 C 0.36996 1.01574 0.72376
 C65 C 0.39972 0.98028 0.72304
 H66 H 0.31772 1.02369 0.66550
 H67 H 0.42439 0.97666 0.75283
 N68 N 0.30544 0.88172 0.53404
 N69 N 0.31077 0.83426 0.53015
 C70 C 0.27916 0.80954 0.49710
 C71 C 0.25328 0.84335 0.47897
 C72 C 0.27089 0.88872 0.50320
 H73 H 0.27493 0.76989 0.48739
 H74 H 0.25777 0.92376 0.50115
 H75 H 0.38577 0.87984 0.56508
 H76 H 0.34220 0.86719 0.62018
 N77 N 0.90060 0.69160 0.40043
 N78 N 0.93136 0.66220 0.38463
 C79 C 0.97219 0.68979 0.37655
 C80 C 0.96636 0.73914 0.38697
 C81 C 0.92050 0.73906 0.40147
 H82 H 1.00309 0.67530 0.36131
 H83 H 0.90294 0.77108 0.41195
 Cu84 Cu 0.91401 0.59164 0.36845
 Cu85 Cu 0.83720 0.66583 0.41859
 Cu86 Cu 0.81216 0.53823 0.41315
 N87 N 0.88537 0.52856 0.33599
 N88 N 0.84437 0.50861 0.35202
 C89 C 0.83069 0.46831 0.31946
 C90 C 0.86527 0.46243 0.28150
 C91 C 0.89958 0.50120 0.29318
 H92 H 0.79770 0.44561 0.32252
 H93 H 0.93125 0.51044 0.27049
 N94 N 0.77458 0.58214 0.45513
 N95 N 0.78264 0.63096 0.45517
 C96 C 0.75228 0.65079 0.48928
 C97 C 0.72425 0.61241 0.51190
 C98 C 0.73941 0.56950 0.48944
 H99 H 0.75272 0.69008 0.49969
 H100 H 0.72678 0.53192 0.49874
 H101 H 0.85761 0.60182 0.44052
 H102 H 0.83208 0.59910 0.37311
 N103 N 0.60509 0.32202 -0.11265
 N104 N 0.57595 0.35427 -0.11754
 C105 C 0.53337 0.32956 -0.12277
 C106 C 0.53613 0.27935 -0.12148
 C107 C 0.58202 0.27591 -0.11527
 H108 H 0.50311 0.34665 -0.12950
 H109 H 0.59744 0.24231 -0.11254
 Cu110 Cu 0.59594 0.42560 -0.12426
 Cu111 Cu 0.67080 0.34193 -0.10000
 Cu112 Cu 0.70813 0.46189 -0.10989
 N113 N 0.62704 0.48504 -0.15576
 N114 N 0.67173 0.49739 -0.15283
 C115 C 0.68529 0.53437 -0.18482
 C116 C 0.64688 0.54668 -0.20795
 C117 C 0.61037 0.51491 -0.18843
 H118 H 0.72058 0.55000 -0.19216
 H119 H 0.57507 0.51104 -0.20050
 N120 N 0.73789 0.42247 -0.06386
 N121 N 0.72492 0.37449 -0.06266
 C122 C 0.75200 0.35551 -0.02973
 C123 C 0.78299 0.39398 -0.00846
 C124 C 0.77292 0.43597 -0.03073
 H125 H 0.74796 0.31712 -0.02010
 H126 H 0.78979 0.47348 -0.02332
 H127 H 0.64488 0.40473 -0.07505
 H128 H 0.65315 0.39536 -0.14896
 C129 C -0.04007 0.27590 0.10485
 C130 C -0.01530 0.26357 0.14419
 H131 H -0.03785 0.25639 0.06575
 H132 H -0.02014 0.27853 0.18493
 C133 C 0.53687 0.72413 0.65626
 C134 C 0.51541 0.73083 0.61200
 H135 H 0.52654 0.74142 0.69432
 H136 H 0.52249 0.70976 0.57494
 C137 C 1.04432 0.78356 0.39139
 C138 C 1.00036 0.78271 0.37877
 H139 H 1.05417 0.75272 0.41119
 H140 H 0.98852 0.81483 0.36358
 C141 C 0.45502 0.24244 -0.11931
 C142 C 0.49935 0.23746 -0.12882
 H143 H 0.44525 0.27780 -0.10360
 H144 H 0.50933 0.20128 -0.14085
 C145 C 0.09673 -0.06989 0.30131
 C146 C 0.13135 -0.03994 0.27976
 H147 H 0.06223 -0.07015 0.28741
 H148 H 0.16660 -0.04246 0.28916
 C149 C 0.61116 0.60480 -0.25808
 C150 C 0.64663 0.57985 -0.25141
 H151 H 0.58319 0.60329 -0.22847
 H152 H 0.67682 0.58420 -0.27776
 C153 C 0.39862 1.08014 0.79260
 C154 C 0.36385 1.05608 0.76448
 H155 H 0.43320 1.07108 0.78484
 H156 H 0.33022 1.06842 0.76880
 C157 C 0.90099 0.40981 0.21285
 C158 C 0.86320 0.42626 0.23492
 H159 H 0.93382 0.42053 0.23139
 H160 H 0.82982 0.41214 0.21924
 C161 C 0.30009 0.16239 -0.07614
 C162 C 0.27485 0.11950 -0.06548
 H163 H 0.29127 0.19706 -0.05719
 H164 H 0.28601 0.08472 -0.08100
 C165 C 0.66866 0.65538 0.56765
 C166 C 0.69012 0.61541 0.55613
 H167 H 0.67417 0.68617 0.54225
 H168 H 0.68194 0.58323 0.57929
 C169 C 0.83550 0.35071 0.03899
 C170 C 0.81714 0.39210 0.03234
 H171 H 0.82705 0.31803 0.01217
 H172 H 0.82828 0.42594 0.05636
 C173 C 0.19800 0.86820 0.41939
 C174 C 0.21227 0.83272 0.44609
 H175 H 0.21884 0.90405 0.41843
 H176 H 0.19331 0.79578 0.44477
   
