data_POSCAR
  _audit_creation_date              2014-09-24
  _audit_creation_method            'ToBaCCo'
  _symmetry_space_group_name_H-M    'P1'
  _symmetry_Int_Tables_number       1
  _symmetry_cell_setting            triclinic
  loop_
  _symmetry_equiv_pos_as_xyz
 x,y,z
_cell_length_a 25.9942
_cell_length_b 9.8994
_cell_length_c 9.5825
_cell_angle_alpha 83.050500
_cell_angle_beta 90.780400
_cell_angle_gamma 82.306600
loop_
  _atom_site_label
  _atom_site_type_symbol
  _atom_site_fract_x
  _atom_site_fract_y
  _atom_site_fract_z
C1 C 0.69941 0.02885 0.60270
 C2 C 0.68846 -0.00146 0.46603
 C3 C 0.71641 0.05344 0.35298
 C4 C 0.75193 0.14503 0.37365
 C5 C 0.76314 0.17190 0.51129
 C6 C 0.73703 0.11306 0.62411
 H7 H 0.74484 0.13667 0.72940
 H8 H 0.71005 0.02673 0.24843
 C9 C 0.23503 0.92994 0.57057
 C10 C 0.23461 0.91821 0.42521
 C11 C 0.28084 0.88154 0.35894
 C12 C 0.32821 0.85408 0.43450
 C13 C 0.32958 0.87487 0.57609
 C14 C 0.28325 0.91182 0.64518
 H15 H 0.28474 0.92503 0.75567
 H16 H 0.27930 0.87080 0.24784
 C17 C 0.26747 0.25838 -0.58732
 C18 C 0.27822 0.27079 -0.44642
 C19 C 0.23783 0.31761 -0.36213
 C20 C 0.18771 0.35779 -0.41850
 C21 C 0.17615 0.34225 -0.55950
 C22 C 0.21643 0.29270 -0.64412
 H23 H 0.20877 0.28699 -0.75454
 H24 H 0.24623 0.33192 -0.25413
 C25 C -0.19951 0.73367 -0.56898
 C26 C -0.20022 0.75339 -0.42596
 C27 C -0.23297 0.68877 -0.33573
 C28 C -0.26292 0.59638 -0.38132
 C29 C -0.26790 0.58589 -0.52647
 C30 C -0.23548 0.65447 -0.62049
 H31 H -0.23594 0.63911 -0.73049
 H32 H -0.23044 0.69879 -0.22435
 O33 O 0.00662 1.36847 0.25148
 O34 O 0.08388 1.28280 0.16102
 C35 C 0.05703 1.35366 0.24725
 O36 O -0.07409 0.84290 0.20089
 O37 O -0.13327 0.95094 0.03005
 C38 C -0.12013 0.86359 0.14088
 O39 O 0.05983 0.91397 0.28692
 O40 O 0.10900 1.06477 0.16999
 C41 C 0.10214 0.96991 0.27113
 O42 O -0.13034 1.31782 0.16488
 O43 O -0.16033 1.17997 0.01432
 C44 C -0.16713 1.26299 0.10929
 Zr45 Zr -0.04921 1.28732 0.13339
 O46 O -0.06900 1.27877 0.34681
 O47 O -0.07163 1.50220 0.10012
 Zr48 Zr -0.00807 0.94415 0.15469
 O49 O -0.02019 0.89031 0.37066
 O50 O 0.02012 0.73671 0.13765
 O51 O 0.01208 1.13264 0.19619
 O52 O -0.07181 1.09456 0.14602
 O53 O -0.09654 1.36589 -0.33170
 O54 O -0.14304 1.20066 -0.23004
 C55 C -0.13692 1.30181 -0.32560
 O56 O 0.09422 0.96677 -0.23801
 O57 O 0.12580 1.09070 -0.07701
 C58 C 0.13172 1.01737 -0.18063
 O59 O -0.03968 0.88379 -0.29758
 O60 O -0.11637 0.97265 -0.20680
 C61 C -0.08988 0.89642 -0.28894
 O62 O 0.03786 1.42364 -0.25786
 O63 O 0.09844 1.31181 -0.09216
 C64 C 0.08392 1.40171 -0.20040
 Zr65 Zr -0.02676 1.32171 -0.20896
 O66 O -0.01600 1.36605 -0.42685
 O67 O -0.05428 1.52945 -0.19172
 Zr68 Zr 0.01482 0.97804 -0.18843
 O69 O 0.03057 0.97532 -0.40354
 O70 O 0.04077 0.76510 -0.14801
 Zr71 Zr 0.05545 1.16623 0.01366
 Zr72 Zr -0.08990 1.09946 -0.06966
 O73 O -0.04536 1.13302 -0.24936
 O74 O 0.03828 1.17253 -0.20258
 O75 O -0.08545 1.31002 -0.06496
 O76 O 0.04968 0.95677 0.00924
 O77 O 0.00258 1.34837 -0.01452
 O78 O -0.03772 0.91475 -0.04033
 H79 H -0.09802 1.07890 0.21804
 H80 H 0.08187 0.89031 0.02664
 H81 H -0.05966 1.13039 -0.34513
 H82 H 0.01590 1.43637 -0.00583
 H83 H 0.01907 0.68717 0.23352
 H84 H 0.05233 0.73637 -0.23930
 H85 H 0.02889 1.07210 -0.44523
 H86 H 0.01339 1.29945 -0.45072
 H87 H -0.05044 1.57996 -0.28587
 H88 H -0.08115 1.52971 0.19341
 H89 H -0.04764 1.19620 0.39586
 H90 H -0.04432 0.96624 0.40130
 O91 O 0.40403 0.23566 0.22171
 O92 O 0.37401 0.42638 0.06795
 C93 C 0.36728 0.32870 0.16545
 O94 O 0.59989 0.49797 0.31157
 O95 O 0.64340 0.31562 0.21543
 C96 C 0.64050 0.40804 0.30132
 O97 O 0.45926 0.65369 0.25093
 O98 O 0.40092 0.62623 0.07855
 C99 C 0.41349 0.67875 0.18869
 O100 O 0.53838 0.05071 0.29339
 O101 O 0.61561 0.10376 0.20593
 C102 C 0.58857 0.02804 0.28748
 Zr103 Zr 0.48446 0.21021 0.18647
 O104 O 0.46912 0.17580 0.40274
 O105 O 0.45924 0.02176 0.15409
 Zr106 Zr 0.52633 0.51786 0.20486
 O107 O 0.51489 0.49411 0.42311
 O108 O 0.54701 0.71657 0.21250
 O109 O 0.46086 0.41809 0.19849
 O110 O 0.54565 0.30688 0.24560
 O111 O 0.56691 0.08019 -0.18639
 O112 O 0.62970 0.11775 -0.03017
 C113 C 0.61322 0.05381 -0.12901
 O114 O 0.49488 0.70321 -0.24731
 O115 O 0.41760 0.65085 -0.15815
 C116 C 0.44495 0.72807 -0.23695
 O117 O 0.62900 0.51979 -0.17772
 O118 O 0.65869 0.32606 -0.02721
 C119 C 0.66530 0.42355 -0.12554
 O120 O 0.43130 0.26870 -0.27009
 O121 O 0.38867 0.44719 -0.16649
 C122 C 0.39047 0.35708 -0.25320
 Zr123 Zr 0.50534 0.23833 -0.16013
 O124 O 0.52351 0.27579 -0.37369
 O125 O 0.47754 0.05266 -0.19003
 Zr126 Zr 0.54862 0.54334 -0.14123
 O127 O 0.56266 0.57901 -0.35840
 O128 O 0.57522 0.72931 -0.10769
 Zr129 Zr 0.44447 0.47331 -0.01833
 Zr130 Zr 0.58870 0.28086 0.06378
 O131 O 0.57036 0.33573 -0.15220
 O132 O 0.48573 0.45080 -0.20360
 O133 O 0.53513 0.14314 0.03640
 O134 O 0.49833 0.60903 0.00957
 O135 O 0.44974 0.25838 -0.01053
 O136 O 0.58449 0.49583 0.05720
 H137 H 0.56184 0.27337 0.33977
 H138 H 0.48630 0.70888 0.00427
 H139 H 0.59651 0.30984 -0.22183
 H140 H 0.41844 0.21391 -0.02472
 H141 H 0.57908 0.72200 0.15887
 H142 H 0.58309 0.77285 -0.20211
 H143 H 0.58056 0.49242 -0.38683
 H144 H 0.53265 0.18523 -0.40716
 H145 H 0.48232 -0.00645 -0.09862
 H146 H 0.44748 -0.01743 0.24635
 H147 H 0.45260 0.26419 0.43033
 H148 H 0.47921 0.47254 0.43909
 N149 N 0.31097 0.24063 0.32593
 N150 N 0.31740 0.33074 0.22420
 N151 N -0.16153 0.79249 0.34440
 N152 N -0.16031 0.79854 0.21098
 N153 N 0.70504 0.49489 0.43071
 N154 N 0.68367 0.39890 0.39761
 N155 N 0.12887 1.38113 0.38736
 N156 N 0.08371 1.42076 0.34470
 N157 N 0.67316 -0.01399 -0.28891
 N158 N 0.64897 -0.04756 -0.18353
 N159 N 0.18655 0.95968 -0.36194
 N160 N 0.18226 0.99386 -0.23823
 N161 N 0.37492 0.86270 -0.36006
 N162 N 0.41952 0.85256 -0.31181
 N163 N -0.20488 1.25843 -0.46433
 N164 N -0.17479 1.33864 -0.43782
 N165 N 0.72368 0.50390 -0.28465
 N166 N 0.71479 0.41802 -0.18718
 N167 N 0.15329 1.41929 -0.34094
 N168 N 0.12156 1.47686 -0.26600
 N169 N 0.33112 0.26122 -0.39594
 N170 N 0.34210 0.35311 -0.32321
 N171 N -0.16733 0.83473 -0.36339
 N172 N -0.11825 0.82018 -0.37260
 N173 N 0.37410 0.79127 0.37296
 N174 N 0.37219 0.76000 0.24852
 N175 N -0.23161 1.21845 0.26417
 N176 N -0.21797 1.29058 0.16093
 N177 N 0.65593 -0.10499 0.44798
 N178 N 0.61404 -0.09232 0.37282
 N179 N 0.18893 0.95382 0.33694
 N180 N 0.14422 0.92449 0.37018
   
