data_POSCAR
  _audit_creation_date              2014-09-24
  _audit_creation_method            'ToBaCCo'
  _symmetry_space_group_name_H-M    'P1'
  _symmetry_Int_Tables_number       1
  _symmetry_cell_setting            triclinic
  loop_
  _symmetry_equiv_pos_as_xyz
 x,y,z
_cell_length_a 29.7922
_cell_length_b 20.3627
_cell_length_c 20.0273
_cell_angle_alpha 89.853700
_cell_angle_beta 90.097800
_cell_angle_gamma 89.895500
loop_
  _atom_site_label
  _atom_site_type_symbol
  _atom_site_fract_x
  _atom_site_fract_y
  _atom_site_fract_z
O1 O 0.06291 0.11303 0.12350
 O2 O 0.11230 0.05379 0.05977
 C3 C 0.10332 0.09614 0.10616
 O4 O -0.06224 -0.12436 0.11419
 O5 O -0.11183 -0.05952 0.05618
 C6 C -0.10272 -0.10679 0.09756
 O7 O 0.06330 -0.11733 0.12169
 O8 O 0.11241 -0.05694 0.05894
 C9 C 0.10385 -0.10034 0.10483
 O10 O -0.06249 0.12036 0.11612
 O11 O -0.11199 0.05678 0.05717
 C12 C -0.10295 0.10323 0.09927
 Zr13 Zr 0.00012 0.08038 0.08669
 O14 O -0.00137 0.06732 0.19136
 O15 O 0.00141 0.18359 0.09789
 Zr16 Zr 0.00033 -0.08394 0.08540
 O17 O -0.00117 -0.07305 0.19027
 O18 O 0.00182 -0.18736 0.09500
 O19 O 0.04073 -0.00192 0.09874
 O20 O -0.03960 -0.00189 0.09800
 O21 O -0.06280 0.12076 -0.11370
 O22 O -0.11209 0.05721 -0.05433
 C23 C -0.10317 0.10364 -0.09663
 O24 O 0.06299 -0.11407 -0.12160
 O25 O 0.11238 -0.05547 -0.05738
 C26 C 0.10339 -0.09734 -0.10416
 O27 O -0.06260 -0.12022 -0.11568
 O28 O -0.11201 -0.05784 -0.05532
 C29 C -0.10302 -0.10341 -0.09839
 O30 O 0.06281 0.11474 -0.11983
 O31 O 0.11230 0.05478 -0.05654
 C32 C 0.10326 0.09763 -0.10266
 Zr33 Zr 0.00003 0.08270 -0.08226
 O34 O -0.00512 0.08292 -0.18773
 O35 O 0.00442 0.18646 -0.08142
 Zr36 Zr 0.00016 -0.08285 -0.08353
 O37 O -0.00498 -0.08110 -0.18899
 O38 O 0.00475 -0.18663 -0.08417
 Zr39 Zr 0.06726 -0.00095 0.00118
 Zr40 Zr -0.06704 -0.00088 0.00123
 O41 O -0.03909 0.00007 -0.09517
 O42 O 0.04023 0.00003 -0.09616
 O43 O -0.03979 0.09467 0.00222
 O44 O 0.03927 -0.09570 0.00079
 O45 O 0.03906 0.09380 0.00227
 O46 O -0.03960 -0.09647 0.00076
 H47 H -0.06039 -0.00225 0.13660
 H48 H 0.05960 -0.13425 0.00032
 H49 H -0.05941 0.00047 -0.13439
 H50 H 0.05928 0.13236 0.00237
 H51 H 0.00841 -0.20524 0.05029
 H52 H -0.01993 -0.20375 -0.05608
 H53 H 0.02043 -0.05490 -0.20625
 H54 H 0.02046 0.05731 -0.20539
 H55 H -0.02026 0.20308 -0.05303
 H56 H 0.00780 0.20236 0.05342
 H57 H -0.00259 0.11202 0.21069
 H58 H -0.00224 -0.11815 0.20886
 O59 O 0.56278 0.61501 0.62082
 O60 O 0.61216 0.55619 0.55665
 C61 C 0.60322 0.59843 0.60316
 O62 O 0.43692 0.38039 0.61660
 O63 O 0.38748 0.44327 0.55624
 C64 C 0.39649 0.39742 0.59929
 O65 O 0.56243 0.38675 0.62339
 O66 O 0.61172 0.44544 0.55907
 C67 C 0.60280 0.40350 0.60598
 O68 O 0.43688 0.62166 0.61460
 O69 O 0.38746 0.55832 0.55523
 C70 C 0.39647 0.60457 0.59755
 Zr71 Zr 0.49965 0.58349 0.58358
 O72 O 0.49456 0.58269 0.68904
 O73 O 0.50470 0.68718 0.58367
 Zr74 Zr 0.49966 0.41794 0.58471
 O75 O 0.49447 0.41886 0.69013
 O76 O 0.50494 0.31422 0.58514
 O77 O 0.53983 0.50073 0.59743
 O78 O 0.46048 0.50084 0.59629
 O79 O 0.43659 0.62045 0.38292
 O80 O 0.38735 0.55763 0.44318
 C81 C 0.39620 0.60345 0.40014
 O82 O 0.56252 0.38549 0.37843
 O83 O 0.61177 0.44460 0.44235
 C84 C 0.60290 0.40230 0.39590
 O85 O 0.43692 0.37927 0.38491
 O86 O 0.38748 0.44267 0.44419
 C87 C 0.39650 0.39643 0.40189
 O88 O 0.56226 0.61372 0.37663
 O89 O 0.61160 0.55495 0.44130
 C90 C 0.60267 0.59681 0.39425
 Zr91 Zr 0.49946 0.58278 0.41503
 O92 O 0.49419 0.58177 0.30959
 O93 O 0.50459 0.68648 0.41449
 Zr94 Zr 0.49969 0.41726 0.41610
 O95 O 0.49441 0.41803 0.31064
 O96 O 0.50495 0.31356 0.41641
 Zr97 Zr 0.56670 0.50027 0.50008
 Zr98 Zr 0.43244 0.50043 0.49978
 O99 O 0.46038 0.49998 0.40332
 O100 O 0.53976 0.49993 0.40260
 O101 O 0.45945 0.59613 0.49917
 O102 O 0.53876 0.40544 0.50062
 O103 O 0.53858 0.59517 0.49924
 O104 O 0.45959 0.40469 0.50041
 H105 H 0.44017 0.50106 0.63543
 H106 H 0.55904 0.36683 0.50098
 H107 H 0.44004 0.49981 0.36413
 H108 H 0.55873 0.63383 0.49884
 H109 H 0.47979 0.29681 0.55824
 H110 H 0.48042 0.29633 0.44463
 H111 H 0.52018 0.44320 0.29299
 H112 H 0.51942 0.55524 0.29226
 H113 H 0.47944 0.70397 0.44131
 H114 H 0.48039 0.70447 0.55489
 H115 H 0.52070 0.55817 0.70675
 H116 H 0.51941 0.44589 0.70751
 C117 C 0.18603 0.11060 0.12460
 C118 C 0.22209 0.14113 0.15656
 C119 C 0.21451 0.18913 0.20506
 C120 C 0.17022 0.20620 0.22178
 C121 C 0.13409 0.17574 0.18992
 C122 C 0.14156 0.12773 0.14075
 N123 N 0.25225 0.22020 0.23596
 N124 N 0.24767 0.26452 0.28012
 C125 C 0.28540 0.29608 0.31053
 C126 C 0.27781 0.34462 0.35848
 C127 C 0.31384 0.37712 0.38840
 C128 C 0.35830 0.36149 0.37072
 C129 C 0.36579 0.31234 0.32274
 C130 C 0.32969 0.27994 0.29288
 H131 H 0.19305 0.07377 0.08711
 H132 H 0.25608 0.12756 0.14329
 H133 H 0.16350 0.24321 0.25918
 H134 H 0.10033 0.19011 0.20362
 H135 H 0.24382 0.35745 0.37249
 H136 H 0.30680 0.41456 0.42526
 H137 H 0.39954 0.29902 0.30798
 H138 H 0.33641 0.24253 0.25589
 C139 C 0.81467 0.87292 0.10918
 C140 C 0.77851 0.84044 0.13875
 C141 C 0.78589 0.79228 0.18743
 C142 C 0.83010 0.77630 0.20599
 C143 C 0.86635 0.80869 0.17644
 C144 C 0.85905 0.85766 0.12792
 N145 N 0.74798 0.76121 0.21784
 N146 N 0.75226 0.71747 0.26289
 C147 C 0.71432 0.68713 0.29398
 C148 C 0.72162 0.63969 0.34341
 C149 C 0.68540 0.61007 0.37577
 C150 C 0.64102 0.62753 0.35912
 C151 C 0.63380 0.67492 0.30898
 C152 C 0.67011 0.70449 0.27670
 H153 H 0.80776 0.91018 0.07185
 H154 H 0.74459 0.85313 0.12402
 H155 H 0.83665 0.73917 0.24355
 H156 H 0.90004 0.79570 0.19203
 H157 H 0.75554 0.62592 0.35714
 H158 H 0.69225 0.57368 0.41400
 H159 H 0.60011 0.68948 0.29486
 H160 H 0.66362 0.74109 0.23857
 C161 C 0.81413 0.12321 0.89016
 C162 C 0.77800 0.15584 0.86027
 C163 C 0.78544 0.20445 0.81213
 C164 C 0.82967 0.22056 0.79429
 C165 C 0.86588 0.18802 0.82412
 C166 C 0.85853 0.13877 0.87225
 N167 N 0.74761 0.23604 0.78166
 N168 N 0.75204 0.28040 0.73731
 C169 C 0.71421 0.31141 0.70624
 C170 C 0.72166 0.35933 0.65740
 C171 C 0.68552 0.38961 0.62507
 C172 C 0.64110 0.37232 0.64118
 C173 C 0.63375 0.32449 0.69076
 C174 C 0.66996 0.29426 0.72299
 H175 H 0.80720 0.08570 0.92714
 H176 H 0.74405 0.14303 0.87443
 H177 H 0.83628 0.25802 0.75715
 H178 H 0.89959 0.20129 0.80919
 H179 H 0.75561 0.37296 0.64410
 H180 H 0.69245 0.42633 0.58728
 H181 H 0.60003 0.31003 0.70445
 H182 H 0.66336 0.25732 0.76066
 C183 C 0.18608 0.88847 0.87707
 C184 C 0.22212 0.85832 0.84469
 C185 C 0.21452 0.81088 0.79562
 C186 C 0.17022 0.79404 0.77873
 C187 C 0.13412 0.82414 0.81100
 C188 C 0.14161 0.87153 0.86076
 N189 N 0.25224 0.78007 0.76440
 N190 N 0.24765 0.73616 0.71982
 C191 C 0.28537 0.70479 0.68917
 C192 C 0.27777 0.65655 0.64091
 C193 C 0.31380 0.62413 0.61085
 C194 C 0.35826 0.63954 0.62871
 C195 C 0.36576 0.68844 0.67695
 C196 C 0.32966 0.72076 0.70694
 H197 H 0.19313 0.92484 0.91502
 H198 H 0.25612 0.87170 0.85811
 H199 H 0.16349 0.75748 0.74089
 H200 H 0.10035 0.80995 0.79715
 H201 H 0.24377 0.64386 0.62679
 H202 H 0.30675 0.58689 0.57379
 H203 H 0.39952 0.70159 0.69185
 H204 H 0.33640 0.75794 0.74416
 C205 C 0.18599 0.11231 0.87889
 C206 C 0.22201 0.14293 0.84687
 C207 C 0.21438 0.19110 0.79822
 C208 C 0.17004 0.20823 0.78151
 C209 C 0.13395 0.17767 0.81345
 C210 C 0.14148 0.12946 0.86272
 N211 N 0.25212 0.22213 0.76713
 N212 N 0.24759 0.26646 0.72269
 C213 C 0.28534 0.29788 0.69204
 C214 C 0.27773 0.34627 0.64361
 C215 C 0.31376 0.37851 0.61328
 C216 C 0.35826 0.36281 0.63101
 C217 C 0.36576 0.31386 0.67951
 C218 C 0.32966 0.28170 0.70978
 H219 H 0.19310 0.07535 0.91645
 H220 H 0.25602 0.12927 0.86017
 H221 H 0.16326 0.24535 0.74402
 H222 H 0.10017 0.19208 0.79970
 H223 H 0.24373 0.35917 0.62949
 H224 H 0.30667 0.41580 0.57606
 H225 H 0.39953 0.30046 0.69435
 H226 H 0.33643 0.24442 0.74711
 C227 C 0.81426 0.87737 0.88779
 C228 C 0.77820 0.84527 0.85741
 C229 C 0.78573 0.79746 0.80867
 C230 C 0.83002 0.78169 0.79068
 C231 C 0.86617 0.81371 0.82101
 C232 C 0.85873 0.86210 0.86982
 N233 N 0.74793 0.76618 0.77797
 N234 N 0.75238 0.72242 0.73318
 C235 C 0.71458 0.69155 0.70208
 C236 C 0.72209 0.64405 0.65302
 C237 C 0.68600 0.61356 0.62102
 C238 C 0.64152 0.63020 0.63765
 C239 C 0.63411 0.67776 0.68731
 C240 C 0.67027 0.70819 0.71922
 H241 H 0.80723 0.91422 0.92527
 H242 H 0.74422 0.85784 0.87174
 H243 H 0.83673 0.74485 0.75310
 H244 H 0.89991 0.80065 0.80597
 H245 H 0.75607 0.63078 0.63938
 H246 H 0.69301 0.57710 0.58315
 H247 H 0.60035 0.69175 0.70142
 H248 H 0.66358 0.74479 0.75704
 C249 C 0.18373 0.88676 0.11962
 C250 C 0.21989 0.85608 0.15155
 C251 C 0.21261 0.80844 0.20062
 C252 C 0.16842 0.79174 0.21790
 C253 C 0.13206 0.82225 0.18617
 C254 C 0.13897 0.87032 0.13616
 N255 N 0.25058 0.77756 0.23165
 N256 N 0.24641 0.73366 0.27657
 C257 C 0.28440 0.70246 0.30721
 C258 C 0.27715 0.65445 0.35605
 C259 C 0.31339 0.62243 0.38642
 C260 C 0.35778 0.63796 0.36835
 C261 C 0.36495 0.68656 0.31944
 C262 C 0.32862 0.71850 0.28911
 H263 H 0.19119 0.92330 0.08181
 H264 H 0.25383 0.86939 0.13782
 H265 H 0.16192 0.75498 0.25581
 H266 H 0.09856 0.80769 0.20102
 H267 H 0.24325 0.64166 0.37047
 H268 H 0.30656 0.58542 0.42396
 H269 H 0.39863 0.69981 0.30433
 H270 H 0.33511 0.75551 0.25147
 C271 C 0.81435 0.12344 0.11197
 C272 C 0.77827 0.15592 0.14190
 C273 C 0.78577 0.20388 0.19050
 C274 C 0.83005 0.21951 0.20871
 C275 C 0.86622 0.18711 0.17882
 C276 C 0.85881 0.13847 0.13026
 N277 N 0.74793 0.23527 0.22099
 N278 N 0.75231 0.27908 0.26575
 C279 C 0.71444 0.30989 0.29674
 C280 C 0.72185 0.35752 0.34571
 C281 C 0.68570 0.38780 0.37774
 C282 C 0.64126 0.37083 0.36127
 C283 C 0.63394 0.32318 0.31166
 C284 C 0.67017 0.29296 0.27970
 H285 H 0.80734 0.08644 0.07465
 H286 H 0.74431 0.14347 0.12740
 H287 H 0.83672 0.25645 0.24619
 H288 H 0.89995 0.19995 0.19411
 H289 H 0.75581 0.37100 0.35927
 H290 H 0.69264 0.42434 0.41556
 H291 H 0.60022 0.30895 0.29766
 H292 H 0.66356 0.25625 0.24196
   
