data_POSCAR
  _audit_creation_date              2014-09-24
  _audit_creation_method            'ToBaCCo'
  _symmetry_space_group_name_H-M    'P1'
  _symmetry_Int_Tables_number       1
  _symmetry_cell_setting            triclinic
  loop_
  _symmetry_equiv_pos_as_xyz
 x,y,z
_cell_length_a 29.9433
_cell_length_b 29.2895
_cell_length_c 29.2988
_cell_angle_alpha 88.564300
_cell_angle_beta 88.926700
_cell_angle_gamma 90.131800
loop_
  _atom_site_label
  _atom_site_type_symbol
  _atom_site_fract_x
  _atom_site_fract_y
  _atom_site_fract_z
C1 C 0.22274 0.12437 0.18617
 C2 C 0.21251 0.09367 0.22235
 C3 C 0.17264 0.09799 0.24796
 C4 C 0.14172 0.13186 0.23492
 C5 C 0.15099 0.16180 0.19793
 C6 C 0.19194 0.15861 0.17387
 C7 C 0.26400 0.12217 0.16316
 C8 C 0.27550 0.15432 0.12833
 C9 C 0.24409 0.18788 0.11568
 C10 C 0.20238 0.19011 0.13806
 C11 C 0.17136 0.22398 0.12592
 C12 C 0.13019 0.22703 0.14957
 C13 C 0.12033 0.19567 0.18544
 H14 H 0.23668 0.06776 0.23182
 H15 H 0.11025 0.13522 0.25330
 H16 H 0.28733 0.09593 0.17356
 H17 H 0.25213 0.21269 0.08866
 H18 H 0.17967 0.24817 0.09852
 H19 H 0.08892 0.19800 0.20425
 C20 C -0.23235 0.85258 0.20659
 C21 C -0.22336 0.88188 0.24252
 C22 C -0.18518 0.87566 0.26946
 C23 C -0.15553 0.83992 0.25915
 C24 C -0.16351 0.81115 0.22263
 C25 C -0.20221 0.81720 0.19650
 C26 C -0.27119 0.85797 0.18084
 C27 C -0.28068 0.82805 0.14525
 C28 C -0.24991 0.79318 0.13524
 C29 C -0.21076 0.78779 0.16032
 C30 C -0.18009 0.75326 0.14981
 C31 C -0.14104 0.74748 0.17527
 C32 C -0.13325 0.77641 0.21185
 H33 H -0.24667 0.90912 0.24991
 H34 H -0.12565 0.83467 0.27882
 H35 H -0.29409 0.88516 0.18925
 H36 H -0.25627 0.77004 0.10777
 H37 H -0.18691 0.73091 0.12190
 H38 H -0.10343 0.77205 0.23190
 C39 C -0.17897 0.15557 -0.21281
 C40 C -0.14872 0.14816 -0.24883
 C41 C -0.11500 0.18024 -0.25972
 C42 C -0.11112 0.21949 -0.23378
 C43 C -0.14143 0.22752 -0.19798
 C44 C -0.17551 0.19550 -0.18732
 C45 C -0.21307 0.12401 -0.20255
 C46 C -0.24419 0.13169 -0.16702
 C47 C -0.24025 0.17167 -0.14140
 C48 C -0.20636 0.20370 -0.15159
 C49 C -0.20320 0.24419 -0.12715
 C50 C -0.16954 0.27645 -0.13807
 C51 C -0.13863 0.26758 -0.17335
 H52 H -0.15155 0.11738 -0.26832
 H53 H -0.08522 0.24440 -0.24225
 H54 H -0.21547 0.09357 -0.22269
 H55 H -0.26376 0.17865 -0.11399
 H56 H -0.22712 0.25071 -0.09987
 H57 H -0.11258 0.29200 -0.18236
 C58 C 0.15534 0.87451 -0.17723
 C59 C 0.12222 0.89233 -0.20546
 C60 C 0.09301 0.86322 -0.22811
 C61 C 0.09476 0.81577 -0.21876
 C62 C 0.12521 0.79782 -0.18693
 C63 C 0.15662 0.82725 -0.16737
 C64 C 0.18854 0.90311 -0.16059
 C65 C 0.22362 0.88511 -0.13465
 C66 C 0.22324 0.83836 -0.12246
 C67 C 0.18987 0.80941 -0.13858
 C68 C 0.18979 0.76276 -0.12710
 C69 C 0.15703 0.73347 -0.14394
 C70 C 0.12533 0.75104 -0.17466
 H71 H 0.12174 0.92883 -0.21272
 H72 H 0.07182 0.79306 -0.23529
 H73 H 0.18814 0.93923 -0.16964
 H74 H 0.24965 0.82404 -0.10187
 H75 H 0.21490 0.74939 -0.10421
 H76 H 0.10077 0.72847 -0.18887
 C77 C 0.16490 1.20555 0.77623
 C78 C 0.14773 1.17264 0.74662
 C79 C 0.17164 1.13193 0.73815
 C80 C 0.21175 1.12383 0.76145
 C81 C 0.23033 1.15699 0.78885
 C82 C 0.20751 1.19843 0.79523
 C83 C 0.14099 1.24578 0.78677
 C84 C 0.16163 1.28066 0.81148
 C85 C 0.20554 1.27425 0.82646
 C86 C 0.22759 1.23287 0.82051
 C87 C 0.26936 1.22543 0.84010
 C88 C 0.29148 1.18355 0.83550
 C89 C 0.27187 1.14952 0.80940
 H90 H 0.11600 1.17877 0.73043
 H91 H 0.23020 1.09249 0.75636
 H92 H 0.10765 1.25094 0.77384
 H93 H 0.22176 1.30060 0.84565
 H94 H 0.28424 1.25213 0.85985
 H95 H 0.28883 1.11730 0.80484
 C96 C 0.86373 0.84561 0.82166
 C97 C 0.87933 0.88012 0.79167
 C98 C 0.84932 0.90779 0.76725
 C99 C 0.80306 0.90317 0.77633
 C100 C 0.78722 0.87174 0.81016
 C101 C 0.81772 0.84179 0.83168
 C102 C 0.89347 0.81351 0.83995
 C103 C 0.87792 0.77686 0.86789
 C104 C 0.83231 0.77536 0.88075
 C105 C 0.80223 0.80754 0.86271
 C106 C 0.75676 0.80536 0.87455
 C107 C 0.72633 0.83678 0.85575
 C108 C 0.74161 0.86930 0.82270
 H109 H 0.91494 0.88271 0.78446
 H110 H 0.77967 0.92493 0.75827
 H111 H 0.92861 0.81605 0.83055
 H112 H 0.81956 0.74834 0.90329
 H113 H 0.74519 0.77957 0.89922
 H114 H 0.71823 0.89279 0.80701
 C115 C 0.13981 0.76872 1.20467
 C116 C 0.11017 0.77894 1.24061
 C117 C 0.11556 0.81875 1.26576
 C118 C 0.15089 0.84894 1.25410
 C119 C 0.18050 0.83954 1.21769
 C120 C 0.17503 0.79916 1.19308
 C121 C 0.13483 0.72837 1.18035
 C122 C 0.16484 0.71766 1.14455
 C123 C 0.19970 0.74854 1.13316
 C124 C 0.20484 0.78912 1.15692
 C125 C 0.23954 0.81969 1.14506
 C126 C 0.24521 0.86021 1.16904
 C127 C 0.21554 0.86977 1.20547
 H128 H 0.08313 0.75547 1.24943
 H129 H 0.15509 0.87998 1.27292
 H130 H 0.10770 0.70536 1.18986
 H131 H 0.22304 0.74117 1.10558
 H132 H 0.26223 0.81155 1.11726
 H133 H 0.21967 0.90080 1.22437
 C134 C 0.86832 1.19675 1.18762
 C135 C 0.89769 1.17900 1.22054
 C136 C 0.89942 1.13158 1.23000
 C137 C 0.87159 1.10224 1.20593
 C138 C 0.83970 1.11981 1.17607
 C139 C 0.83820 1.16709 1.16646
 C140 C 0.86794 1.24362 1.17595
 C141 C 0.83717 1.26110 1.14425
 C142 C 0.80571 1.23155 1.12551
 C143 C 0.80597 1.18475 1.13635
 C144 C 0.77387 1.15547 1.11838
 C145 C 0.77374 1.10859 1.13007
 C146 C 0.80782 1.09089 1.15756
 H147 H 0.91962 1.20194 1.23809
 H148 H 0.87214 1.06573 1.21309
 H149 H 0.89145 1.26638 1.19153
 H150 H 0.78138 1.24488 1.10173
 H151 H 0.74821 1.16959 1.09669
 H152 H 0.80837 1.05471 1.16635
 N153 N 0.46822 1.05772 0.91368
 N154 N 0.43536 1.07338 0.88818
 N155 N 0.56843 1.05793 0.94059
 N156 N 0.60771 1.07646 0.93090
 N157 N 0.55779 1.02797 0.90997
 N158 N 0.58986 1.02491 0.87862
 N159 N 0.47979 1.08805 0.94358
 N160 N 0.45549 1.12534 0.93911
 C161 C 0.42817 1.11564 0.90446
 C162 C 0.62064 1.05517 0.89252
 N163 N 0.56179 1.02768 1.07127
 N164 N 0.59676 1.02051 1.09715
 N165 N 0.48224 1.08816 1.04136
 N166 N 0.45370 1.12233 1.04148
 N167 N 0.47212 1.05794 1.07389
 N168 N 0.43606 1.07077 1.09682
 N169 N 0.57111 1.05807 1.03874
 N170 N 0.61259 1.07305 1.04193
 Mn171 Mn 0.52565 1.07344 0.99111
 C172 C 0.62787 1.04916 1.07854
 C173 C 0.42571 1.11135 1.07661
 N174 N 0.52815 0.93469 0.91389
 N175 N 0.56279 0.92177 0.88879
 N176 N 0.42949 0.93354 0.95006
 N177 N 0.38790 0.91876 0.94750
 N178 N 0.43834 0.96426 0.91765
 N179 N 0.40292 0.97176 0.89248
 N180 N 0.51896 0.90412 0.94637
 N181 N 0.54678 0.86932 0.94385
 Mn182 Mn 0.49803 0.99607 0.91321
 C183 C 0.57341 0.88065 0.90749
 C184 C 0.37206 0.94297 0.91136
 N185 N 0.44244 0.96426 1.07860
 N186 N 0.41128 0.96690 1.11085
 N187 N 0.52169 0.90425 1.04485
 N188 N 0.54976 0.86956 1.04653
 N189 N 0.53187 0.93458 1.07535
 N190 N 0.56713 0.92133 1.09860
 N191 N 0.43196 0.93332 1.04885
 N192 N 0.39331 0.91377 1.06029
 Mn193 Mn 0.50201 0.99621 1.07532
 Mn194 Mn 0.47529 0.91823 0.99751
 Cl195 Cl 0.50018 0.99593 0.99429
 C196 C 0.38082 0.93555 1.09877
 C197 C 0.57740 0.88054 1.08057
 N198 N -0.06611 0.47032 -0.07467
 N199 N -0.08008 0.43527 -0.09809
 N200 N -0.06656 0.57040 -0.04093
 N201 N -0.08191 0.61258 -0.04403
 N202 N -0.03775 0.56254 -0.07416
 N203 N -0.03202 0.59942 -0.10043
 N204 N -0.09463 0.47916 -0.04136
 N205 N -0.12881 0.45073 -0.04140
 C206 C -0.11949 0.42413 -0.07721
 C207 C -0.05994 0.62997 -0.08128
 N208 N -0.03223 0.55453 0.08681
 N209 N -0.03003 0.58507 0.11906
 N210 N -0.09123 0.47428 0.05659
 N211 N -0.12609 0.44681 0.06093
 N212 N -0.06028 0.46246 0.08577
 N213 N -0.07301 0.42612 0.11043
 N214 N -0.06309 0.56569 0.05730
 N215 N -0.08305 0.60400 0.06879
 Mn216 Mn -0.07930 0.52261 0.00784
 C217 C -0.06156 0.61578 0.10698
 C218 C -0.11435 0.41737 0.09481
 N219 N 0.05357 0.53371 -0.08082
 N220 N 0.06641 0.56968 -0.10594
 N221 N 0.05647 0.43016 -0.05216
 N222 N 0.08327 0.39839 -0.06815
 N223 N 0.02668 0.44160 -0.08288
 N224 N 0.03341 0.41798 -0.12041
 N225 N 0.08448 0.52202 -0.05153
 N226 N 0.11944 0.54937 -0.05623
 Mn227 Mn -0.00614 0.50204 -0.07863
 C228 C 0.10774 0.57851 -0.09045
 C229 C 0.06771 0.38971 -0.11006
 N230 N 0.03108 0.43408 0.07987
 N231 N 0.02800 0.39905 0.10883
 N232 N 0.08780 0.51759 0.04665
 N233 N 0.12164 0.54651 0.04677
 N234 N 0.05936 0.52598 0.08012
 N235 N 0.07300 0.56106 0.10377
 N236 N 0.05979 0.42575 0.04669
 N237 N 0.07764 0.38479 0.05248
 Mn238 Mn -0.00043 0.49422 0.08364
 Mn239 Mn 0.07247 0.47363 -0.00253
 Cl240 Cl -0.00331 0.49797 0.00251
 C241 C 0.05705 0.36875 0.09124
 C242 C 0.11217 0.57287 0.08285
 N243 N 0.94354 0.08320 0.54201
 N244 N 0.92136 0.10013 0.57693
 N245 N 0.98668 0.09081 0.44422
 N246 N 0.99664 0.10603 0.40234
 N247 N 0.94522 0.07583 0.44659
 N248 N 0.92614 0.08080 0.40662
 N249 N 0.98444 0.09937 0.53980
 N250 N 0.99142 0.12781 0.57314
 C251 C 0.95165 0.12803 0.59555
 C252 C 0.95798 0.10101 0.37983
 N253 N 1.08968 0.00884 0.45536
 N254 N 1.11682 -0.00110 0.42098
 N255 N 1.07078 0.05852 0.54631
 N256 N 1.08327 0.08359 0.58085
 N257 N 1.08582 0.01654 0.55096
 N258 N 1.10930 0.01200 0.58847
 N259 N 1.07393 0.05041 0.45035
 N260 N 1.08953 0.06994 0.41229
 Mn261 Mn 1.02920 0.07529 0.49502
 C262 C 1.11624 0.03744 0.39469
 C263 C 1.10734 0.05399 0.60664
 N264 N 0.90433 -0.01297 0.45576
 N265 N 0.87631 -0.00867 0.42172
 N266 N 0.91702 -0.04848 0.55425
 N267 N 0.90662 -0.06661 0.59472
 N268 N 0.90309 -0.00597 0.55149
 N269 N 0.88349 0.00576 0.59028
 N270 N 0.92035 -0.05466 0.45838
 N271 N 0.90395 -0.07991 0.42584
 Mn272 Mn 0.92360 0.03529 0.49908
 C273 C 0.87666 -0.05053 0.40342
 C274 C 0.88455 -0.03299 0.61632
 N275 N 1.04571 -0.07331 0.55859
 N276 N 1.06454 -0.07991 0.59850
 N277 N 1.00812 -0.09559 0.46326
 N278 N 1.00218 -0.12277 0.42851
 N279 N 1.04929 -0.07983 0.46290
 N280 N 1.07239 -0.09555 0.42785
 N281 N 1.00457 -0.08911 0.55970
 N282 N 0.99451 -0.10654 0.60075
 Mn283 Mn 1.06806 -0.03221 0.50705
 Mn284 Mn 0.96230 -0.07257 0.50878
 Cl285 Cl 0.99575 0.00139 0.50250
 C286 C 1.03280 -0.10188 0.62401
 C287 C 1.04267 -0.12250 0.40710
 N288 N 1.17401 0.01777 0.33887
 N289 N 1.19022 0.03369 0.29916
 C290 C 1.16491 0.07001 0.28688
 C291 C 1.13274 0.07581 0.32060
 N292 N 1.13977 0.04288 0.35219
 H293 H 1.10770 0.10224 0.32325
 N294 N 0.81654 -0.03772 0.35004
 N295 N 0.79892 -0.05696 0.31410
 C296 C 0.82293 -0.09494 0.30567
 C297 C 0.85589 -0.09840 0.33826
 N298 N 0.85058 -0.06218 0.36502
 H299 H 0.88123 -0.12437 0.34248
 N300 N 0.97184 0.18037 0.65513
 N301 N 0.95510 0.19490 0.69434
 C302 C 0.91537 0.17360 0.70103
 C303 C 0.90807 0.14600 0.66463
 N304 N 0.94387 0.15124 0.63697
 H305 H 0.87957 0.12435 0.65848
 N306 N 1.03606 -0.06543 0.69600
 N307 N 1.05420 -0.07314 0.73622
 C308 C 1.06500 -0.11783 0.73860
 C309 C 1.05219 -0.13741 0.69826
 N310 N 1.03449 -0.10342 0.67262
 H311 H 1.06092 -0.17092 0.68615
 N312 N 0.37273 1.17232 1.06180
 N313 N 0.33180 1.18430 1.07439
 C314 C 0.31775 1.15361 1.10678
 C315 C 0.35186 1.12249 1.11379
 N316 N 0.38523 1.13547 1.08519
 H317 H 0.35236 1.09255 1.13614
 N318 N 0.30872 0.97061 0.86841
 N319 N 0.26875 0.95659 0.85616
 C320 C 0.26202 0.91484 0.87575
 C321 C 0.29940 0.90387 0.90086
 N322 N 0.32755 0.93946 0.89514
 H323 H 0.30656 0.87250 0.91957
 N324 N 0.62964 0.81796 1.07051
 N325 N 0.66815 0.80338 1.08687
 C326 C 0.67993 0.83222 1.11993
 C327 C 0.64687 0.86513 1.12324
 N328 N 0.61638 0.85488 1.09195
 H329 H 0.64520 0.89416 1.14531
 N330 N 0.67668 1.04311 0.83272
 N331 N 0.71344 1.06310 0.81605
 C332 C 0.72094 1.10023 0.84141
 C333 C 0.68756 1.10197 0.87453
 N334 N 0.66086 1.06602 0.86776
 H335 H 0.68222 1.12712 0.90047
 N336 N 0.04097 0.30773 0.14638
 N337 N 0.05940 0.26988 0.16272
 C338 C 0.09785 0.26373 0.13888
 C339 C 0.10215 0.29915 0.10688
 N340 N 0.06607 0.32568 0.11291
 H341 H 0.12946 0.30627 0.08304
 N342 N -0.18225 0.37199 -0.06530
 N343 N -0.19638 0.33229 -0.08032
 C344 C -0.16688 0.31946 -0.11294
 C345 C -0.13428 0.35281 -0.11753
 N346 N -0.14517 0.38474 -0.08739
 H347 H -0.10484 0.35361 -0.13949
 N348 N 0.17548 0.62402 -0.09107
 N349 N 0.18977 0.66496 -0.10487
 C350 C 0.15620 0.68507 -0.12796
 C351 C 0.12067 0.65471 -0.12801
 N352 N 0.13416 0.61726 -0.10456
 H353 H 0.08747 0.66034 -0.14098
 N354 N -0.05197 0.66624 0.17075
 N355 N -0.07236 0.70118 0.18992
 C356 C -0.10840 0.71118 0.16450
 C357 C -0.10918 0.68119 0.12879
 N358 N -0.07356 0.65389 0.13406
 H359 H -0.13343 0.67867 0.10205
 N360 N 1.15882 0.03801 0.66747
 N361 N 1.17671 0.05793 0.70278
 C362 C 1.15780 0.09958 0.70636
 C363 C 1.12717 0.10438 0.67142
 N364 N 1.12937 0.06531 0.64790
 H365 H 1.10713 0.13388 0.66252
 N366 N 0.91654 -0.02945 0.69027
 N367 N 0.90888 -0.04713 0.73161
 C368 C 0.86645 -0.06279 0.73272
 C369 C 0.84821 -0.05370 0.69034
 N370 N 0.88071 -0.03303 0.66489
 H371 H 0.81721 -0.06683 0.67738
 N372 N 1.02513 -0.17577 0.34740
 N373 N 1.04354 -0.19210 0.30971
 C374 C 1.08387 -0.17177 0.30389
 C375 C 1.08959 -0.14244 0.33961
 N376 N 1.05231 -0.14607 0.36586
 H377 H 1.11809 -0.12097 0.34626
 N378 N 0.95316 0.06146 0.30958
 N379 N 0.93551 0.06808 0.26896
 C380 C 0.92600 0.11298 0.26470
 C381 C 0.93913 0.13382 0.30427
 N382 N 0.95574 0.10037 0.33132
 H383 H 0.93161 0.16815 0.31488
 N384 N 0.13631 0.39029 -0.15308
 N385 N 0.16333 0.36124 -0.17337
 C386 C 0.14043 0.32197 -0.17805
 C387 C 0.09773 0.32822 -0.15968
 N388 N 0.09684 0.37141 -0.14430
 H389 H 0.07259 0.30231 -0.15230
 N390 N -0.18171 0.37148 0.09386
 N391 N -0.19579 0.33012 0.10643
 C392 C -0.16231 0.30979 0.12944
 C393 C -0.12708 0.34041 0.13075
 N394 N -0.14063 0.37827 0.10807
 H395 H -0.09397 0.33471 0.14394
 N396 N -0.03483 0.69775 -0.12379
 N397 N -0.05053 0.73794 -0.13740
 C398 C -0.09268 0.74125 -0.12040
 C399 C -0.10195 0.70161 -0.09512
 N400 N -0.06521 0.67559 -0.09847
 H401 H -0.13278 0.69133 -0.07792
 N402 N 0.17427 0.62549 0.07073
 N403 N 0.18900 0.66471 0.08627
 C404 C 0.16063 0.67711 0.12016
 C405 C 0.12789 0.64363 0.12491
 N406 N 0.13775 0.61233 0.09351
 H407 H 0.09917 0.64232 0.14787
 N408 N 0.38980 1.18842 0.90280
 N409 N 0.35387 1.20754 0.88506
 C410 C 0.33438 1.17603 0.85904
 C411 C 0.35996 1.13668 0.86135
 N412 N 0.39403 1.14601 0.88897
 H413 H 0.35387 1.10413 0.84590
 N414 N 0.32825 0.94859 1.16132
 N415 N 0.29231 0.92958 1.18090
 C416 C 0.28238 0.89226 1.15690
 C417 C 0.31364 0.88929 1.12151
 N418 N 0.34150 0.92496 1.12565
 H419 H 0.31662 0.86348 1.09586
 N420 N 0.69068 1.02158 1.12224
 N421 N 0.72998 1.03605 1.13599
 C422 C 0.73642 1.07834 1.11756
 C423 C 0.69958 1.08917 1.09156
 N424 N 0.67201 1.05295 1.09564
 H425 H 0.69224 1.12088 1.07354
 N426 N 0.62118 0.81393 0.91174
 N427 N 0.66165 0.80110 0.89849
 C428 C 0.67919 0.83549 0.87226
 C429 C 0.64769 0.86997 0.86971
 N430 N 0.61220 0.85510 0.89487
 H431 H 0.65129 0.90362 0.85392
   
