data_POSCAR
  _audit_creation_date              2014-09-24
  _audit_creation_method            'ToBaCCo'
  _symmetry_space_group_name_H-M    'P1'
  _symmetry_Int_Tables_number       1
  _symmetry_cell_setting            triclinic
  loop_
  _symmetry_equiv_pos_as_xyz
 x,y,z
_cell_length_a 46.5427
_cell_length_b 34.2950
_cell_length_c 32.1686
_cell_angle_alpha 89.976000
_cell_angle_beta 90.028000
_cell_angle_gamma 90.043300
loop_
  _atom_site_label
  _atom_site_type_symbol
  _atom_site_fract_x
  _atom_site_fract_y
  _atom_site_fract_z
C1 C 0.22877 0.22783 0.22735
 C2 C 0.22876 0.26930 0.22813
 C3 C 0.24995 0.28912 0.25072
 C4 C 0.27115 0.26923 0.27321
 C5 C 0.27115 0.22774 0.27376
 C6 C 0.24995 0.20796 0.25051
 H7 H 0.24995 0.17638 0.25043
 H8 H 0.24995 0.32076 0.25080
 C9 C 0.77104 0.27112 0.22622
 C10 C 0.76928 0.22971 0.22312
 C11 C 0.74690 0.20979 0.24326
 C12 C 0.72652 0.22955 0.26734
 C13 C 0.72828 0.27053 0.27102
 C14 C 0.75061 0.29060 0.25105
 H15 H 0.75081 0.32216 0.25289
 H16 H 0.74607 0.17821 0.24168
 C17 C 0.72793 0.72945 0.73035
 C18 C 0.72893 0.77057 0.72834
 C19 C 0.75065 0.79067 0.74966
 C20 C 0.77158 0.77097 0.77344
 C21 C 0.77080 0.72941 0.77440
 C22 C 0.74895 0.70948 0.75308
 H23 H 0.74849 0.67786 0.75379
 H24 H 0.75046 0.82226 0.74870
 C25 C 0.27276 0.76975 0.73152
 C26 C 0.27174 0.72863 0.72948
 C27 C 0.25007 0.70852 0.75090
 C28 C 0.22919 0.72821 0.77476
 C29 C 0.22997 0.76976 0.77567
 C30 C 0.25178 0.78970 0.75430
 H31 H 0.25225 0.82132 0.75500
 H32 H 0.25025 0.67693 0.74994
 O33 O 0.97298 0.00622 0.05295
 O34 O 1.02785 -0.04920 -0.00443
 O35 O 1.02895 0.00609 0.05096
 O36 O 0.97195 -0.04902 -0.00244
 O37 O 0.97121 -0.00497 -0.05240
 O38 O 1.02823 0.05016 0.00103
 O39 O 1.02713 -0.00514 -0.05438
 O40 O 0.97225 0.05028 0.00300
 Cu41 Cu 1.00051 -0.02588 0.02928
 Cu42 Cu 0.99963 0.02702 -0.03067
 C43 C 0.96315 0.03770 0.03775
 C44 C 1.03689 -0.03669 -0.03923
 C45 C 1.03839 0.03754 0.03513
 C46 C 0.96181 -0.03644 -0.03658
 O47 O 0.47299 0.49570 0.44453
 O48 O 0.52769 0.55129 0.50237
 O49 O 0.52889 0.49622 0.44663
 O50 O 0.47175 0.55084 0.50017
 O51 O 0.47109 0.50656 0.54990
 O52 O 0.52821 0.45196 0.49638
 O53 O 0.52699 0.50701 0.55210
 O54 O 0.47234 0.45145 0.49430
 Cu55 Cu 0.50041 0.52796 0.46845
 Cu56 Cu 0.49959 0.47482 0.52816
 C57 C 0.46332 0.46401 0.45950
 C58 C 0.53671 0.53868 0.53715
 C59 C 0.53830 0.46469 0.46228
 C60 C 0.46163 0.53806 0.53423
 O61 O 0.02934 0.50528 -0.04994
 O62 O -0.02808 0.45099 0.00349
 O63 O -0.02659 0.50575 -0.05254
 O64 O 0.02779 0.45038 0.00596
 O65 O 0.02705 0.49482 0.05548
 O66 O -0.02736 0.55021 -0.00304
 O67 O -0.02884 0.49545 0.05300
 O68 O 0.02857 0.54973 -0.00043
 Cu69 Cu 0.00070 0.47365 -0.02823
 Cu70 Cu -0.00022 0.52702 0.03120
 C71 C 0.03880 0.53681 -0.03434
 C72 C -0.03829 0.46390 0.03742
 C73 C -0.03632 0.53746 -0.03779
 C74 C 0.03672 0.46307 0.04074
 O75 O 0.47174 1.04889 0.49870
 O76 O 0.52910 0.99387 0.55134
 O77 O 0.52768 1.04934 0.49613
 O78 O 0.47322 0.99342 0.55395
 O79 O 0.47230 0.94950 0.50391
 O80 O 0.52677 1.00543 0.44607
 O81 O 0.52818 0.94994 0.50129
 O82 O 0.47081 1.00498 0.44866
 Cu83 Cu 0.50053 1.02579 0.53003
 Cu84 Cu 0.49942 0.97308 0.46995
 C85 C 0.46142 1.03634 0.46466
 C86 C 0.53845 0.96247 0.53537
 C87 C 0.53659 1.03694 0.46122
 C88 C 0.46344 0.96185 0.53885
 C89 C 1.16734 0.16245 0.15905
 C90 C 1.17963 0.19582 0.14152
 C91 C 1.20017 0.21716 0.16365
 C92 C 1.20854 0.20579 0.20409
 C93 C 1.19649 0.17135 0.22075
 C94 C 1.17597 0.15011 0.19852
 C95 C 1.14562 0.14104 0.13682
 C96 C 1.12724 0.12304 0.11865
 C97 C 1.10512 0.10147 0.09745
 C98 C 1.09384 0.11529 0.05990
 C99 C 1.07213 0.09450 0.03956
 C100 C 1.06141 0.05958 0.05657
 C101 C 1.07294 0.04593 0.09432
 C102 C 1.09464 0.06676 0.11459
 H103 H 1.17340 0.20533 0.11068
 H104 H 1.20999 0.24199 0.14852
 H105 H 1.20190 0.16163 0.25181
 H106 H 1.16658 0.12429 0.21240
 H107 H 1.10178 0.14216 0.04639
 H108 H 1.06374 0.10580 0.01056
 H109 H 1.06518 0.01917 0.10825
 H110 H 1.10320 0.05584 0.14367
 C111 C 0.66233 0.66407 0.66753
 C112 C 0.65470 0.69250 0.69674
 C113 C 0.67602 0.71355 0.71760
 C114 C 0.70519 0.70656 0.70919
 C115 C 0.71269 0.67765 0.68025
 C116 C 0.69136 0.65659 0.65946
 C117 C 0.64043 0.64272 0.64561
 C118 C 0.62221 0.62480 0.62702
 C119 C 0.60059 0.60335 0.60463
 C120 C 0.59051 0.61716 0.56638
 C121 C 0.56969 0.59618 0.54440
 C122 C 0.55869 0.56102 0.56045
 C123 C 0.56894 0.54742 0.59898
 C124 C 0.58975 0.56847 0.62089
 H125 H 0.63230 0.69843 0.70331
 H126 H 0.66980 0.73537 0.74019
 H127 H 0.73506 0.67183 0.67335
 H128 H 0.69750 0.63464 0.63695
 H129 H 0.59878 0.64412 0.55350
 H130 H 0.56226 0.60746 0.51485
 H131 H 0.56092 0.52049 0.61221
 H132 H 0.59743 0.55749 0.65047
 C133 C -0.16659 0.33791 0.16134
 C134 C -0.17471 0.34835 0.20165
 C135 C -0.19543 0.32657 0.22288
 C136 C -0.20819 0.29347 0.20434
 C137 C -0.20023 0.28400 0.16321
 C138 C -0.17951 0.30586 0.14209
 C139 C -0.14491 0.35997 0.13979
 C140 C -0.12663 0.37829 0.12180
 C141 C -0.10468 0.39998 0.10042
 C142 C -0.09431 0.43488 0.11725
 C143 C -0.07276 0.45578 0.09672
 C144 C -0.06128 0.44198 0.05902
 C145 C -0.07192 0.40689 0.04231
 C146 C -0.09347 0.38606 0.06291
 H147 H -0.16483 0.37317 0.21685
 H148 H -0.20055 0.33485 0.25450
 H149 H -0.21060 0.26041 0.14667
 H150 H -0.17370 0.29786 0.11062
 H151 H -0.10284 0.44590 0.14629
 H152 H -0.06506 0.48266 0.11042
 H153 H -0.06355 0.39547 0.01337
 H154 H -0.10133 0.35905 0.04963
 C155 C 0.33827 0.83540 0.66886
 C156 C 0.30922 0.84290 0.66086
 C157 C 0.28792 0.82172 0.68156
 C158 C 0.29547 0.79267 0.71034
 C159 C 0.32465 0.78563 0.71867
 C160 C 0.34594 0.80682 0.69790
 C161 C 0.36013 0.85693 0.64708
 C162 C 0.37830 0.87501 0.62858
 C163 C 0.39985 0.89664 0.60626
 C164 C 0.40979 0.88312 0.56783
 C165 C 0.43052 0.90429 0.54589
 C166 C 0.44157 0.93932 0.56214
 C167 C 0.43147 0.95262 0.60085
 C168 C 0.41074 0.93139 0.62273
 H169 H 0.30305 0.86498 0.63847
 H170 H 0.26555 0.82757 0.67472
 H171 H 0.33090 0.76371 0.74115
 H172 H 0.36835 0.80087 0.70443
 H173 H 0.40148 0.85626 0.55479
 H174 H 0.43783 0.89324 0.51620
 H175 H 0.43953 0.97945 0.61423
 H176 H 0.40317 0.94213 0.65243
 C177 C -0.16299 0.66183 -0.16690
 C178 C -0.19185 0.65575 -0.15645
 C179 C -0.21341 0.67737 -0.17601
 C180 C -0.20630 0.70553 -0.20603
 C181 C -0.17734 0.71089 -0.21706
 C182 C -0.15579 0.68927 -0.19743
 C183 C -0.14081 0.64040 -0.14572
 C184 C -0.12236 0.62259 -0.12751
 C185 C -0.10050 0.60144 -0.10532
 C186 C -0.09033 0.61549 -0.06722
 C187 C -0.06937 0.59477 -0.04529
 C188 C -0.05831 0.55963 -0.06121
 C189 C -0.06862 0.54582 -0.09962
 C190 C -0.08958 0.56661 -0.12150
 H191 H -0.19765 0.63457 -0.13290
 H192 H -0.23560 0.67275 -0.16716
 H193 H -0.17146 0.73211 -0.24051
 H194 H -0.13354 0.69412 -0.20583
 H195 H -0.09866 0.64242 -0.05440
 H196 H -0.06190 0.60621 -0.01583
 H197 H -0.06056 0.51889 -0.11274
 H198 H -0.09734 0.55545 -0.15095
 C199 C 0.33252 1.16200 0.34170
 C200 C 0.32029 1.19530 0.35938
 C201 C 0.29980 1.21677 0.33736
 C202 C 0.29139 1.20561 0.29688
 C203 C 0.30339 1.17126 0.28004
 C204 C 0.32387 1.14988 0.30216
 C205 C 0.35418 1.14041 0.36382
 C206 C 0.37252 1.12227 0.38189
 C207 C 0.39460 1.10054 0.40296
 C208 C 0.40600 1.11420 0.44049
 C209 C 0.42771 1.09330 0.46066
 C210 C 0.43832 1.05842 0.44348
 C211 C 0.42666 1.04490 0.40577
 C212 C 0.40496 1.06585 0.38568
 H213 H 0.32654 1.20463 0.39027
 H214 H 0.29001 1.24153 0.35262
 H215 H 0.29796 1.16170 0.24894
 H216 H 0.33322 1.12411 0.28815
 H217 H 0.39816 1.14105 0.45411
 H218 H 0.43622 1.10450 0.48963
 H219 H 0.43433 1.01818 0.39172
 H220 H 0.39630 1.05504 0.35660
 C221 C 1.16377 -0.16231 -0.16623
 C222 C 1.19261 -0.15625 -0.15569
 C223 C 1.21417 -0.17804 -0.17500
 C224 C 1.20706 -0.20634 -0.20485
 C225 C 1.17811 -0.21173 -0.21592
 C226 C 1.15656 -0.18993 -0.19654
 C227 C 1.14159 -0.14062 -0.14539
 C228 C 1.12314 -0.12258 -0.12748
 C229 C 1.10128 -0.10119 -0.10562
 C230 C 1.09040 -0.06650 -0.12225
 C231 C 1.06939 -0.04551 -0.10073
 C232 C 1.05899 -0.05900 -0.06223
 C233 C 1.07002 -0.09398 -0.04586
 C234 C 1.09102 -0.11490 -0.06743
 H235 H 1.19842 -0.13492 -0.13230
 H236 H 1.23636 -0.17339 -0.16613
 H237 H 1.17223 -0.23305 -0.23926
 H238 H 1.13431 -0.19478 -0.20501
 H239 H 1.09821 -0.05561 -0.15178
 H240 H 1.06135 -0.01871 -0.11419
 H241 H 1.06248 -0.10517 -0.01632
 H242 H 1.09932 -0.14171 -0.05427
 C243 C 0.66474 0.33702 0.33671
 C244 C 0.65637 0.31132 0.30514
 C245 C 0.67704 0.28974 0.28365
 C246 C 0.70629 0.29345 0.29373
 C247 C 0.71457 0.31954 0.32520
 C248 C 0.69387 0.34114 0.34666
 C249 C 0.64342 0.35926 0.35872
 C250 C 0.62544 0.37782 0.37702
 C251 C 0.60385 0.39988 0.39870
 C252 C 0.59283 0.38624 0.43647
 C253 C 0.57159 0.40740 0.45729
 C254 C 0.56107 0.44252 0.44054
 C255 C 0.57238 0.45606 0.40261
 C256 C 0.59363 0.43484 0.38186
 H257 H 0.63389 0.30804 0.29708
 H258 H 0.67024 0.27025 0.25905
 H259 H 0.73702 0.32287 0.33337
 H260 H 0.70058 0.36100 0.37099
 H261 H 0.60059 0.35919 0.44976
 H262 H 0.56334 0.39616 0.48640
 H263 H 0.56476 0.48297 0.38888
 H264 H 0.60200 0.44565 0.35262
 C265 C 0.83347 -0.16275 -0.16015
 C266 C 0.82109 -0.19565 -0.14180
 C267 C 0.80048 -0.21734 -0.16336
 C268 C 0.79210 -0.20680 -0.20405
 C269 C 0.80428 -0.17283 -0.22160
 C270 C 0.82488 -0.15124 -0.19993
 C271 C 0.85514 -0.14089 -0.13832
 C272 C 0.87344 -0.12262 -0.12031
 C273 C 0.89543 -0.10084 -0.09909
 C274 C 0.90666 -0.11451 -0.06146
 C275 C 0.92824 -0.09355 -0.04104
 C276 C 0.93888 -0.05859 -0.05807
 C277 C 0.92740 -0.04507 -0.09590
 C278 C 0.90582 -0.06609 -0.11624
 H279 H 0.82727 -0.20449 -0.11072
 H280 H 0.79054 -0.24169 -0.14754
 H281 H 0.79884 -0.16372 -0.25286
 H282 H 0.83434 -0.12576 -0.21443
 H283 H 0.89879 -0.14141 -0.04793
 H284 H 0.93660 -0.10476 -0.01198
 H285 H 0.93510 -0.01828 -0.10984
 H286 H 0.89730 -0.05527 -0.14539
 C287 C 0.33740 0.33722 0.33138
 C288 C 0.34466 0.30895 0.30180
 C289 C 0.32312 0.28708 0.28240
 C290 C 0.29412 0.29306 0.29274
 C291 C 0.28696 0.32197 0.32186
 C292 C 0.30851 0.34382 0.34118
 C293 C 0.35952 0.35904 0.35226
 C294 C 0.37786 0.37724 0.37029
 C295 C 0.39954 0.39886 0.39236
 C296 C 0.41023 0.43377 0.37596
 C297 C 0.43103 0.45499 0.39773
 C298 C 0.44139 0.44153 0.43627
 C299 C 0.43053 0.40634 0.45243
 C300 C 0.40975 0.38519 0.43059
 H301 H 0.36695 0.30367 0.29392
 H302 H 0.32903 0.26526 0.25963
 H303 H 0.26473 0.32707 0.33015
 H304 H 0.30266 0.36564 0.36401
 H305 H 0.40245 0.44464 0.34640
 H306 H 0.43894 0.48195 0.38443
 H307 H 0.43804 0.39516 0.48198
 H308 H 0.40158 0.35822 0.44360
 C309 C 0.16745 0.66201 -0.15847
 C310 C 0.17598 0.65041 -0.19823
 C311 C 0.19654 0.67196 -0.22001
 C312 C 0.20874 0.70598 -0.20261
 C313 C 0.20043 0.71660 -0.16194
 C314 C 0.17986 0.69496 -0.14026
 C315 C 0.14579 0.64024 -0.13653
 C316 C 0.12748 0.62208 -0.11841
 C317 C 0.10546 0.60047 -0.09706
 C318 C 0.09506 0.56560 -0.11391
 C319 C 0.07341 0.54481 -0.09348
 C320 C 0.06187 0.55867 -0.05586
 C321 C 0.07254 0.59372 -0.03911
 C322 C 0.09418 0.61446 -0.05961
 H323 H 0.16650 0.62489 -0.21262
 H324 H 0.20193 0.66278 -0.25125
 H325 H 0.21039 0.74100 -0.14622
 H326 H 0.17372 0.70387 -0.10920
 H327 H 0.10362 0.55454 -0.14291
 H328 H 0.06569 0.51794 -0.10721
 H329 H 0.06412 0.60519 -0.01022
 H330 H 0.10207 0.64145 -0.04632
 C331 C 0.66240 1.16321 0.33224
 C332 C 0.66568 1.15897 0.28921
 C333 C 0.68669 1.18040 0.26811
 C334 C 0.70451 1.20645 0.28985
 C335 C 0.70134 1.21018 0.33311
 C336 C 0.68032 1.18877 0.35415
 C337 C 0.64066 1.14139 0.35395
 C338 C 0.62247 1.12323 0.37233
 C339 C 0.60080 1.10167 0.39448
 C340 C 0.58979 1.06705 0.37784
 C341 C 0.56884 1.04600 0.39948
 C342 C 0.55863 1.05934 0.43811
 C343 C 0.56981 1.09423 0.45453
 C344 C 0.59076 1.11522 0.43283
 H345 H 0.65196 1.13922 0.27197
 H346 H 0.68883 1.17706 0.23478
 H347 H 0.71515 1.22964 0.35055
 H348 H 0.67804 1.19215 0.38747
 H349 H 0.59743 1.05630 0.34817
 H350 H 0.56069 1.01926 0.38598
 H351 H 0.56243 1.10530 0.48418
 H352 H 0.59914 1.14199 0.44600
 C353 C 0.16251 0.33720 0.16996
 C354 C 0.15525 0.30885 0.19950
 C355 C 0.17679 0.28705 0.21894
 C356 C 0.20580 0.29318 0.20869
 C357 C 0.21296 0.32220 0.17965
 C358 C 0.19141 0.34399 0.16029
 C359 C 0.14038 0.35886 0.14894
 C360 C 0.12204 0.37691 0.13078
 C361 C 0.10036 0.39835 0.10854
 C362 C 0.09022 0.38447 0.07035
 C363 C 0.06947 0.40547 0.04832
 C364 C 0.05858 0.44071 0.06422
 C365 C 0.06886 0.45436 0.10272
 C366 C 0.08962 0.43329 0.12470
 H367 H 0.13295 0.30343 0.20728
 H368 H 0.17088 0.26514 0.24164
 H369 H 0.23520 0.32742 0.17142
 H370 H 0.19726 0.36586 0.13750
 H371 H 0.09842 0.35747 0.05754
 H372 H 0.06201 0.39414 0.01880
 H373 H 0.06092 0.48136 0.11583
 H374 H 0.09736 0.44432 0.15421
 C375 C 0.66626 0.83613 0.65983
 C376 C 0.68274 0.80775 0.63960
 C377 C 0.70337 0.78658 0.66173
 C378 C 0.70756 0.79344 0.70437
 C379 C 0.69118 0.82225 0.72433
 C380 C 0.67060 0.84342 0.70219
 C381 C 0.64477 0.85769 0.63736
 C382 C 0.62660 0.87590 0.61903
 C383 C 0.60474 0.89781 0.59768
 C384 C 0.59448 0.93260 0.61483
 C385 C 0.57298 0.95373 0.59451
 C386 C 0.56143 0.94028 0.55670
 C387 C 0.57196 0.90531 0.53963
 C388 C 0.59348 0.88423 0.56004
 H389 H 0.67960 0.80196 0.60681
 H390 H 0.71603 0.76480 0.64567
 H391 H 0.69407 0.82795 0.75719
 H392 H 0.65797 0.86532 0.71813
 H393 H 0.60304 0.94335 0.64399
 H394 H 0.56536 0.98051 0.60848
 H395 H 0.56354 0.89416 0.51059
 H396 H 0.60125 0.85730 0.54652
 C397 C 0.83515 0.16186 0.16409
 C398 C 0.84238 0.18836 0.19551
 C399 C 0.82092 0.21008 0.21515
 C400 C 0.79202 0.20578 0.20326
 C401 C 0.78486 0.17857 0.17230
 C402 C 0.80634 0.15684 0.15271
 C403 C 0.85732 0.14030 0.14308
 C404 C 0.87587 0.12245 0.12517
 C405 C 0.89796 0.10133 0.10348
 C406 C 0.90903 0.06680 0.12022
 C407 C 0.93033 0.04614 0.09895
 C408 C 0.94084 0.05979 0.06058
 C409 C 0.92963 0.09462 0.04409
 C410 C 0.90833 0.11521 0.06543
 H411 H 0.86459 0.19238 0.20464
 H412 H 0.82684 0.23050 0.23936
 H413 H 0.76271 0.17475 0.16280
 H414 H 0.80052 0.13638 0.12847
 H415 H 0.90115 0.05579 0.14967
 H416 H 0.93849 0.01944 0.11249
 H417 H 0.93723 0.10592 0.01465
 H418 H 0.89991 0.14192 0.05219
 C419 C 0.33415 0.66330 0.66037
 C420 C 0.32995 0.65583 0.70272
 C421 C 0.30944 0.67690 0.72507
 C422 C 0.29300 0.70581 0.70531
 C423 C 0.29704 0.71283 0.66266
 C424 C 0.31760 0.69176 0.64034
 C425 C 0.35560 0.64189 0.63768
 C426 C 0.37372 0.62382 0.61913
 C427 C 0.39552 0.60212 0.59749
 C428 C 0.40590 0.56723 0.61431
 C429 C 0.42734 0.54630 0.59368
 C430 C 0.43873 0.56005 0.55589
 C431 C 0.42808 0.59511 0.53915
 C432 C 0.40662 0.61599 0.55986
 H433 H 0.34264 0.63387 0.71851
 H434 H 0.30666 0.67108 0.75792
 H435 H 0.28433 0.73467 0.64675
 H436 H 0.32062 0.69769 0.60756
 H437 H 0.39747 0.55625 0.64345
 H438 H 0.43505 0.51943 0.60740
 H439 H 0.43637 0.60649 0.51013
 H440 H 0.39876 0.64300 0.54659
   
