data_POSCAR
  _audit_creation_date              2014-09-24
  _audit_creation_method            'ToBaCCo'
  _symmetry_space_group_name_H-M    'P1'
  _symmetry_Int_Tables_number       1
  _symmetry_cell_setting            triclinic
  loop_
  _symmetry_equiv_pos_as_xyz
 x,y,z
_cell_length_a 49.5620
_cell_length_b 38.3891
_cell_length_c 34.5451
_cell_angle_alpha 90.156300
_cell_angle_beta 90.031500
_cell_angle_gamma 90.111400
loop_
  _atom_site_label
  _atom_site_type_symbol
  _atom_site_fract_x
  _atom_site_fract_y
  _atom_site_fract_z
C1 C 0.24955 0.26862 0.24926
 C2 C 0.24952 0.23310 0.24916
 C3 C 0.22781 0.21272 0.22984
 C4 C 0.27118 0.21277 0.26838
 C5 C 0.26949 0.28892 0.27227
 C6 C 0.22965 0.28889 0.22638
 C7 C 0.20054 0.21814 0.23920
 C8 C 0.18031 0.19903 0.22050
 C9 C 0.18716 0.17403 0.19252
 C10 C 0.21436 0.16811 0.18360
 C11 C 0.23456 0.18726 0.20227
 C12 C 0.26438 0.18733 0.29584
 C13 C 0.28456 0.16829 0.31444
 C14 C 0.31172 0.17429 0.30556
 C15 C 0.31864 0.19920 0.27773
 C16 C 0.29847 0.21824 0.25906
 C17 C 0.28555 0.31418 0.25403
 C18 C 0.30492 0.33272 0.27513
 C19 C 0.30827 0.32641 0.31474
 C20 C 0.29192 0.30181 0.33330
 C21 C 0.27251 0.28328 0.31223
 C22 C 0.22659 0.28322 0.18638
 C23 C 0.20726 0.30177 0.16542
 C24 C 0.19101 0.32641 0.18412
 C25 C 0.19439 0.33273 0.22376
 C26 C 0.21369 0.31418 0.24476
 H27 H 0.19496 0.23719 0.26094
 H28 H 0.15938 0.20382 0.22791
 H29 H 0.22003 0.14882 0.16212
 H30 H 0.25547 0.18255 0.19485
 H31 H 0.24346 0.18258 0.30323
 H32 H 0.27899 0.14901 0.33586
 H33 H 0.30410 0.23727 0.23742
 H34 H 0.28341 0.31905 0.22331
 H35 H 0.31742 0.35176 0.26051
 H36 H 0.29425 0.29685 0.36398
 H37 H 0.25997 0.26438 0.32699
 H38 H 0.23906 0.26431 0.17152
 H39 H 0.20490 0.29680 0.13472
 H40 H 0.18197 0.35180 0.23849
 H41 H 0.21585 0.31907 0.27550
 H42 H 0.33960 0.20392 0.27051
 C43 C 0.75000 0.23449 0.24972
 C44 C 0.74997 0.27002 0.24969
 C45 C 0.76987 0.29031 0.22677
 C46 C 0.73003 0.29028 0.27261
 C47 C 0.72832 0.21411 0.26892
 C48 C 0.77173 0.21418 0.23055
 C49 C 0.78587 0.31569 0.24509
 C50 C 0.80522 0.33420 0.22407
 C51 C 0.80862 0.32774 0.18447
 C52 C 0.79232 0.30303 0.16582
 C53 C 0.77293 0.28452 0.18681
 C54 C 0.72699 0.28470 0.31258
 C55 C 0.70758 0.30317 0.33356
 C56 C 0.69123 0.32765 0.31490
 C57 C 0.69460 0.33390 0.27529
 C58 C 0.71397 0.31542 0.25427
 C59 C 0.70104 0.21943 0.25950
 C60 C 0.68085 0.20030 0.27813
 C61 C 0.68775 0.17547 0.30603
 C62 C 0.71490 0.16963 0.31502
 C63 C 0.73509 0.18874 0.29647
 C64 C 0.76502 0.18859 0.20304
 C65 C 0.78526 0.16952 0.18453
 C66 C 0.81240 0.17565 0.19353
 C67 C 0.81924 0.20072 0.22139
 C68 C 0.79900 0.21979 0.23998
 H69 H 0.78370 0.32067 0.27581
 H70 H 0.81769 0.35333 0.23875
 H71 H 0.79470 0.29795 0.13515
 H72 H 0.76044 0.26553 0.17199
 H73 H 0.73953 0.26590 0.32741
 H74 H 0.70523 0.29826 0.36424
 H75 H 0.71612 0.32024 0.22355
 H76 H 0.69543 0.23838 0.23779
 H77 H 0.65990 0.20490 0.27082
 H78 H 0.72045 0.15040 0.33650
 H79 H 0.75601 0.18411 0.30394
 H80 H 0.74412 0.18374 0.19556
 H81 H 0.77975 0.15012 0.16308
 H82 H 0.84017 0.20553 0.22871
 H83 H 0.80456 0.23892 0.26166
 H84 H 0.68210 0.35285 0.26060
 C85 C 0.75044 0.77124 0.75042
 C86 C 0.75037 0.73571 0.75040
 C87 C 0.72863 0.71533 0.73118
 C88 C 0.77204 0.71538 0.76960
 C89 C 0.77043 0.79154 0.77332
 C90 C 0.73053 0.79148 0.72753
 C91 C 0.70137 0.72079 0.74059
 C92 C 0.68113 0.70163 0.72198
 C93 C 0.68795 0.67661 0.69410
 C94 C 0.71509 0.67064 0.68510
 C95 C 0.73533 0.68980 0.70364
 C96 C 0.76526 0.68999 0.79712
 C97 C 0.78544 0.67088 0.81563
 C98 C 0.81259 0.67678 0.80661
 C99 C 0.81950 0.70166 0.77875
 C100 C 0.79932 0.72077 0.76017
 C101 C 0.78652 0.81670 0.75497
 C102 C 0.80599 0.83518 0.77594
 C103 C 0.80943 0.82891 0.81558
 C104 C 0.79301 0.80441 0.83425
 C105 C 0.77351 0.78595 0.81328
 C106 C 0.72742 0.78572 0.68756
 C107 C 0.70800 0.80414 0.66662
 C108 C 0.69172 0.82874 0.68531
 C109 C 0.69516 0.83518 0.72492
 C110 C 0.71455 0.81676 0.74590
 H111 H 0.69582 0.73988 0.76229
 H112 H 0.66019 0.70633 0.72929
 H113 H 0.72058 0.65128 0.66365
 H114 H 0.75623 0.68506 0.69617
 H115 H 0.74434 0.68530 0.80460
 H116 H 0.77987 0.65162 0.83708
 H117 H 0.80494 0.73976 0.73848
 H118 H 0.78434 0.82152 0.72425
 H119 H 0.81850 0.85412 0.76113
 H120 H 0.79534 0.79941 0.86493
 H121 H 0.76095 0.76713 0.82811
 H122 H 0.73990 0.76681 0.67271
 H123 H 0.70559 0.79908 0.63594
 H124 H 0.68271 0.85422 0.73964
 H125 H 0.71675 0.82171 0.77662
 H126 H 0.84045 0.70630 0.77142
 C127 C 0.24947 0.73448 0.75086
 C128 C 0.24945 0.77001 0.75079
 C129 C 0.26936 0.79026 0.72784
 C130 C 0.22952 0.79032 0.77366
 C131 C 0.22780 0.71413 0.77013
 C132 C 0.27115 0.71413 0.73164
 C133 C 0.28540 0.81561 0.74615
 C134 C 0.30477 0.83408 0.72511
 C135 C 0.30815 0.82760 0.68551
 C136 C 0.29181 0.80292 0.66688
 C137 C 0.27241 0.78446 0.68788
 C138 C 0.22647 0.78480 0.81364
 C139 C 0.20707 0.80333 0.83459
 C140 C 0.19072 0.82781 0.81589
 C141 C 0.19411 0.83399 0.77623
 C142 C 0.21348 0.81544 0.75527
 C143 C 0.20052 0.71943 0.76074
 C144 C 0.18034 0.70029 0.77938
 C145 C 0.18725 0.67544 0.80730
 C146 C 0.21444 0.66964 0.81627
 C147 C 0.23460 0.68879 0.79768
 C148 C 0.26438 0.68855 0.70415
 C149 C 0.28458 0.66945 0.68560
 C150 C 0.31174 0.67552 0.69454
 C151 C 0.31863 0.70058 0.72238
 C152 C 0.29844 0.71969 0.74101
 H153 H 0.28324 0.82060 0.77686
 H154 H 0.31726 0.85318 0.73978
 H155 H 0.29417 0.79783 0.63621
 H156 H 0.25989 0.76549 0.67308
 H157 H 0.23900 0.76601 0.82850
 H158 H 0.20478 0.79840 0.86530
 H159 H 0.21564 0.82020 0.72454
 H160 H 0.19489 0.73837 0.73903
 H161 H 0.15939 0.70493 0.77201
 H162 H 0.22009 0.65043 0.83772
 H163 H 0.25552 0.68417 0.80512
 H164 H 0.24347 0.68374 0.69672
 H165 H 0.27903 0.65005 0.66417
 H166 H 0.33958 0.70535 0.72965
 H167 H 0.30405 0.73882 0.76268
 H168 H 0.18166 0.85292 0.76139
 O169 O 1.02685 -0.04688 0.00190
 O170 O 0.97437 0.00170 0.05470
 O171 O 0.97417 -0.04679 0.00181
 O172 O 1.02684 0.00164 0.05478
 O173 O 1.02694 0.04191 0.00912
 O174 O 0.97430 -0.00649 -0.04381
 O175 O 0.97450 0.04198 0.00904
 O176 O 1.02695 -0.00658 -0.04372
 Cu177 Cu 1.00055 -0.02669 0.03286
 Cu178 Cu 1.00069 0.02173 -0.02199
 C179 C 1.03581 -0.03486 -0.02976
 C180 C 0.96563 0.03008 0.04082
 C181 C 0.96528 -0.03474 -0.02987
 C182 C 1.03571 0.03000 0.04094
 O183 O 0.47336 0.49327 0.45669
 O184 O 0.52590 0.54198 0.50945
 O185 O 0.52600 0.49346 0.45665
 O186 O 0.47347 0.54179 0.50949
 O187 O 0.47351 0.50155 0.55519
 O188 O 0.52607 0.45320 0.50232
 O189 O 0.52597 0.50174 0.55515
 O190 O 0.47340 0.45301 0.50235
 Cu191 Cu 0.49967 0.52164 0.47841
 Cu192 Cu 0.49974 0.47326 0.53332
 C193 C 0.46445 0.46498 0.47066
 C194 C 0.53475 0.53014 0.54125
 C195 C 0.53497 0.46523 0.47062
 C196 C 0.46468 0.52989 0.54131
 O197 O -0.02581 0.54235 -0.00919
 O198 O 0.02662 0.49365 0.04322
 O199 O 0.02662 0.54222 -0.00924
 O200 O -0.02601 0.49381 0.04329
 O201 O -0.02620 0.45357 -0.00265
 O202 O 0.02647 0.50201 -0.05522
 O203 O 0.02647 0.45342 -0.00272
 O204 O -0.02599 0.50214 -0.05516
 Cu205 Cu 0.00037 0.52202 0.02170
 Cu206 Cu 0.00017 0.47368 -0.03353
 C207 C -0.03469 0.53052 -0.04107
 C208 C 0.03545 0.46537 0.02905
 C209 C 0.03537 0.53035 -0.04115
 C210 C -0.03506 0.46558 0.02913
 O211 O 0.47352 1.04168 0.49097
 O212 O 0.52610 0.99366 0.54387
 O213 O 0.52595 1.04187 0.49101
 O214 O 0.47345 0.99348 0.54384
 O215 O 0.47345 0.95294 0.49823
 O216 O 0.52598 1.00135 0.44536
 O217 O 0.52613 0.95313 0.49826
 O218 O 0.47353 1.00117 0.44533
 Cu219 Cu 0.49975 1.02172 0.52207
 Cu220 Cu 0.49977 0.97301 0.46724
 C221 C 0.46471 1.02959 0.45917
 C222 C 0.53506 0.96536 0.52993
 C223 C 0.53477 1.02983 0.45922
 C224 C 0.46452 0.96511 0.52990
 C225 C 1.13031 0.12022 0.13704
 C226 C 1.10435 0.11457 0.16044
 C227 C 1.08511 0.09610 0.14099
 C228 C 1.09371 0.08510 0.10006
 C229 C 1.12021 0.06509 0.10565
 C230 C 1.13945 0.08355 0.12509
 C231 C 1.12109 0.13756 0.09931
 C232 C 1.10186 0.11909 0.07987
 C233 C 1.15107 0.14009 0.15784
 C234 C 1.16831 0.15640 0.17463
 C235 C 1.07302 0.06526 0.07907
 C236 C 1.05601 0.04907 0.06169
 H237 H 1.10135 0.12423 0.18968
 H238 H 1.06561 0.08993 0.15359
 H239 H 1.12356 0.03873 0.09526
 H240 H 1.15928 0.07302 0.13135
 H241 H 1.12898 0.16218 0.08878
 H242 H 1.09326 0.12790 0.05269
 C243 C 0.62923 0.62081 0.63706
 C244 C 0.63108 0.62423 0.59287
 C245 C 0.61186 0.60568 0.57350
 C246 C 0.59267 0.58552 0.60019
 C247 C 0.58105 0.61305 0.62782
 C248 C 0.60027 0.63161 0.64721
 C249 C 0.63033 0.58149 0.64487
 C250 C 0.61111 0.56294 0.62549
 C251 C 0.64997 0.64077 0.65779
 C252 C 0.66719 0.65714 0.67453
 C253 C 0.57201 0.56559 0.57926
 C254 C 0.55501 0.54932 0.56194
 H255 H 0.64616 0.63985 0.57810
 H256 H 0.61048 0.60541 0.54213
 H257 H 0.55961 0.61757 0.63182
 H258 H 0.59531 0.65202 0.66781
 H259 H 0.64491 0.56930 0.66396
 H260 H 0.60923 0.53485 0.62797
 C261 C -0.13229 0.38004 0.12451
 C262 C -0.13158 0.41931 0.13292
 C263 C -0.11177 0.43658 0.11343
 C264 C -0.09461 0.41288 0.08744
 C265 C -0.11492 0.39435 0.06083
 C266 C -0.13474 0.37708 0.08032
 C267 C -0.10375 0.36708 0.13392
 C268 C -0.08394 0.38434 0.11443
 C269 C -0.15357 0.36146 0.14559
 C270 C -0.17091 0.34614 0.16316
 C271 C -0.07327 0.43152 0.06652
 C272 C -0.05578 0.44698 0.04942
 H273 H -0.14542 0.43241 0.15245
 H274 H -0.10864 0.46446 0.11628
 H275 H -0.11383 0.39476 0.02945
 H276 H -0.15062 0.36270 0.06564
 H277 H -0.09948 0.34617 0.15410
 H278 H -0.06270 0.37822 0.11792
 C279 C 0.36728 0.87976 0.62549
 C280 C 0.39577 0.87232 0.64083
 C281 C 0.41559 0.88953 0.62132
 C282 C 0.40499 0.91252 0.58838
 C283 C 0.38430 0.93677 0.60751
 C284 C 0.36448 0.91955 0.62703
 C285 C 0.36843 0.87071 0.58221
 C286 C 0.38825 0.88793 0.56270
 C287 C 0.34599 0.86123 0.64660
 C288 C 0.32864 0.84595 0.66419
 C289 C 0.42633 0.93111 0.56742
 C290 C 0.44382 0.94654 0.55027
 H291 H 0.40000 0.85503 0.66490
 H292 H 0.43679 0.88700 0.62867
 H293 H 0.38514 0.96499 0.60588
 H294 H 0.34834 0.93302 0.64210
 H295 H 0.35486 0.85239 0.56814
 H296 H 0.39167 0.88437 0.53190
 C297 C -0.12888 0.62109 -0.13648
 C298 C -0.11624 0.59183 -0.16076
 C299 C -0.09708 0.57330 -0.14144
 C300 C -0.09245 0.58586 -0.09972
 C301 C -0.12038 0.58455 -0.08059
 C302 C -0.13953 0.60307 -0.09991
 C303 C -0.10496 0.64332 -0.12262
 C304 C -0.08580 0.62480 -0.10330
 C305 C -0.14955 0.64102 -0.15715
 C306 C -0.16671 0.65735 -0.17385
 C307 C -0.07185 0.56596 -0.07886
 C308 C -0.05491 0.54970 -0.06163
 H309 H -0.12184 0.58617 -0.19052
 H310 H -0.08627 0.55176 -0.15463
 H311 H -0.12473 0.57032 -0.05420
 H312 H -0.16029 0.60471 -0.09007
 H313 H -0.10321 0.67115 -0.12756
 H314 H -0.06765 0.63677 -0.09168
 C315 C 0.37031 1.11908 0.36293
 C316 C 0.37027 1.12576 0.40676
 C317 C 0.38946 1.10745 0.42624
 C318 C 0.40681 1.08424 0.39999
 C319 C 0.41841 1.10893 0.36929
 C320 C 0.39922 1.12725 0.34980
 C321 C 0.36741 1.07944 0.35857
 C322 C 0.38661 1.06112 0.37806
 C323 C 0.34960 1.13880 0.34208
 C324 C 0.33243 1.15499 0.32525
 C325 C 0.42746 1.06456 0.42103
 C326 C 0.44444 1.04851 0.43842
 H327 H 0.35639 1.14335 0.42122
 H328 H 0.39201 1.10934 0.45739
 H329 H 0.43982 1.11177 0.36338
 H330 H 0.40417 1.14579 0.32720
 H331 H 0.35168 1.06687 0.34167
 H332 H 0.38731 1.03285 0.37785
 C333 C 1.13281 -0.12070 -0.12530
 C334 C 1.13391 -0.08104 -0.13056
 C335 C 1.11414 -0.06371 -0.11106
 C336 C 1.09520 -0.08774 -0.08821
 C337 C 1.11384 -0.10904 -0.06184
 C338 C 1.13361 -0.12638 -0.08134
 C339 C 1.10416 -0.13125 -0.13760
 C340 C 1.08439 -0.11393 -0.11811
 C341 C 1.15405 -0.13935 -0.14639
 C342 C 1.17136 -0.15473 -0.16397
 C343 C 1.07392 -0.06903 -0.06726
 C344 C 1.05647 -0.05352 -0.05012
 H345 H 1.14890 -0.06773 -0.14805
 H346 H 1.11220 -0.03555 -0.11185
 H347 H 1.11169 -0.11040 -0.03060
 H348 H 1.14840 -0.14257 -0.06682
 H349 H 1.09979 -0.15064 -0.15969
 H350 H 1.06309 -0.11847 -0.12349
 C351 C 0.63213 0.37986 0.37493
 C352 C 0.63070 0.41884 0.36538
 C353 C 0.61090 0.43607 0.38492
 C354 C 0.59446 0.41264 0.41209
 C355 C 0.61541 0.39551 0.43865
 C356 C 0.63522 0.37827 0.41911
 C357 C 0.60368 0.36577 0.36674
 C358 C 0.58387 0.38301 0.38627
 C359 C 0.65341 0.36131 0.35381
 C360 C 0.67075 0.34602 0.33622
 C361 C 0.57314 0.43124 0.43307
 C362 C 0.55566 0.44667 0.45023
 H363 H 0.64407 0.43177 0.34508
 H364 H 0.60731 0.46376 0.38134
 H365 H 0.61474 0.39680 0.47003
 H366 H 0.65152 0.36480 0.43376
 H367 H 0.59946 0.34416 0.34731
 H368 H 0.56269 0.37615 0.38357
 C369 C 0.86771 -0.11997 -0.12557
 C370 C 0.89625 -0.13216 -0.13621
 C371 C 0.91615 -0.11497 -0.11668
 C372 C 0.90556 -0.08727 -0.08842
 C373 C 0.88584 -0.10680 -0.06191
 C374 C 0.86594 -0.12399 -0.08144
 C375 C 0.86786 -0.08051 -0.13262
 C376 C 0.88776 -0.06332 -0.11309
 C377 C 0.84634 -0.13847 -0.14669
 C378 C 0.82892 -0.15373 -0.16428
 C379 C 0.92698 -0.06871 -0.06744
 C380 C 0.94452 -0.05330 -0.05027
 H381 H 0.90046 -0.15251 -0.15723
 H382 H 0.93740 -0.12060 -0.12097
 H383 H 0.88738 -0.10710 -0.03056
 H384 H 0.85043 -0.13901 -0.06683
 H385 H 0.85360 -0.06723 -0.15131
 H386 H 0.89053 -0.03532 -0.11506
 C387 C 0.36732 0.37893 0.37494
 C388 C 0.35955 0.38855 0.41662
 C389 C 0.37935 0.40592 0.43617
 C390 C 0.40497 0.41196 0.41213
 C391 C 0.39532 0.43085 0.37556
 C392 C 0.37553 0.41349 0.35601
 C393 C 0.39367 0.35823 0.37864
 C394 C 0.41346 0.37559 0.39819
 C395 C 0.34606 0.36025 0.35378
 C396 C 0.32873 0.34486 0.33614
 C397 C 0.42628 0.43071 0.43312
 C398 C 0.44375 0.44626 0.45029
 H399 H 0.34022 0.38228 0.42963
 H400 H 0.37697 0.41452 0.46594
 H401 H 0.40332 0.45569 0.36588
 H402 H 0.36658 0.42346 0.32958
 H403 H 0.39652 0.33222 0.36695
 H404 H 0.43327 0.36446 0.40324
 C405 C 0.12976 0.62076 -0.13673
 C406 C 0.13152 0.58129 -0.14350
 C407 C 0.11233 0.56277 -0.12415
 C408 C 0.09327 0.58555 -0.09993
 C409 C 0.08160 0.61208 -0.12857
 C410 C 0.10079 0.63059 -0.14792
 C411 C 0.13102 0.62535 -0.09261
 C412 C 0.11184 0.60684 -0.07327
 C413 C 0.15047 0.64068 -0.15743
 C414 C 0.16765 0.65703 -0.17415
 C415 C 0.07263 0.56566 -0.07904
 C416 C 0.05564 0.54945 -0.06177
 H417 H 0.14651 0.56897 -0.16187
 H418 H 0.11088 0.53459 -0.12594
 H419 H 0.06015 0.61597 -0.13324
 H420 H 0.09579 0.65035 -0.16916
 H421 H 0.14569 0.64171 -0.07786
 H422 H 0.11007 0.60734 -0.04194
 C423 C 0.62913 1.11994 0.36321
 C424 C 0.61520 1.14084 0.39541
 C425 C 0.59601 1.12240 0.41483
 C426 C 0.59263 1.08486 0.40016
 C427 C 0.62092 1.06883 0.40270
 C428 C 0.64011 1.08727 0.38328
 C429 C 0.60613 1.10676 0.33722
 C430 C 0.58693 1.08831 0.35665
 C431 C 0.64985 1.13978 0.34243
 C432 C 0.66703 1.15607 0.32565
 C433 C 0.57199 1.06505 0.42114
 C434 C 0.55502 1.04889 0.43850
 H435 H 0.61997 1.16776 0.40233
 H436 H 0.58435 1.13353 0.43840
 H437 H 0.62548 1.04508 0.41838
 H438 H 0.66111 1.07931 0.38231
 H439 H 0.60501 1.11151 0.30629
 H440 H 0.56936 1.07725 0.34237
 C441 C 0.13221 0.37909 0.12423
 C442 C 0.13208 0.37190 0.08049
 C443 C 0.11237 0.38933 0.06104
 C444 C 0.09471 0.41223 0.08724
 C445 C 0.11460 0.43628 0.10855
 C446 C 0.13430 0.41885 0.12799
 C447 C 0.10356 0.37009 0.13788
 C448 C 0.08385 0.38751 0.11843
 C449 C 0.15338 0.36034 0.14527
 C450 C 0.17063 0.34491 0.16283
 C451 C 0.07349 0.43104 0.06636
 C452 C 0.05608 0.44663 0.04929
 H453 H 0.14623 0.35465 0.06608
 H454 H 0.10963 0.38700 0.02996
 H455 H 0.11331 0.46451 0.10837
 H456 H 0.14990 0.43216 0.14447
 H457 H 0.09915 0.35164 0.16080
 H458 H 0.06256 0.38399 0.12470
 C459 C 0.63248 0.88063 0.62544
 C460 C 0.61015 0.89490 0.65181
 C461 C 0.59028 0.91200 0.63234
 C462 C 0.59470 0.91316 0.58838
 C463 C 0.59790 0.87495 0.57604
 C464 C 0.61777 0.85784 0.59552
 C465 C 0.64266 0.91229 0.60261
 C466 C 0.62279 0.92939 0.58313
 C467 C 0.65382 0.86222 0.64650
 C468 C 0.67120 0.84702 0.66405
 C469 C 0.57331 0.93162 0.56746
 C470 C 0.55579 0.94693 0.55032
 H471 H 0.60995 0.89184 0.68305
 H472 H 0.57307 0.92358 0.64689
 H473 H 0.58565 0.86242 0.55394
 H474 H 0.62254 0.83067 0.59011
 H475 H 0.66361 0.92054 0.60181
 H476 H 0.62673 0.95230 0.56564
 C477 C 0.87113 0.12020 0.13652
 C478 C 0.86955 0.12407 0.09237
 C479 C 0.88877 0.10565 0.07301
 C480 C 0.90771 0.08515 0.09969
 C481 C 0.88902 0.06238 0.12447
 C482 C 0.86979 0.08081 0.14383
 C483 C 0.90009 0.13079 0.14719
 C484 C 0.91932 0.11236 0.12782
 C485 C 0.85038 0.14002 0.15724
 C486 C 0.83316 0.15629 0.17397
 C487 C 0.92839 0.06535 0.07878
 C488 C 0.94538 0.04917 0.06148
 H489 H 0.85463 0.13990 0.07760
 H490 H 0.89033 0.10570 0.04166
 H491 H 0.89074 0.03426 0.12661
 H492 H 0.85503 0.06848 0.16257
 H493 H 0.90504 0.15097 0.16810
 H494 H 0.94076 0.11676 0.13214
 C495 C 0.37034 0.61998 0.63735
 C496 C 0.37255 0.58190 0.65041
 C497 C 0.39174 0.56345 0.63097
 C498 C 0.40682 0.58490 0.60039
 C499 C 0.41809 0.61653 0.62243
 C500 C 0.39890 0.63497 0.64187
 C501 C 0.36551 0.61812 0.59350
 C502 C 0.38470 0.59968 0.57407
 C503 C 0.34963 0.63983 0.65814
 C504 C 0.33245 0.65612 0.67493
 C505 C 0.42746 0.56509 0.57940
 C506 C 0.44443 0.54893 0.56204
 H507 H 0.36014 0.57044 0.67294
 H508 H 0.39577 0.53619 0.63684
 H509 H 0.43927 0.62378 0.62276
 H510 H 0.40364 0.65803 0.65885
 H511 H 0.34852 0.63023 0.57898
 H512 H 0.38414 0.59599 0.54290
   
