data_POSCAR
  _audit_creation_date              2014-09-24
  _audit_creation_method            'ToBaCCo'
  _symmetry_space_group_name_H-M    'P1'
  _symmetry_Int_Tables_number       1
  _symmetry_cell_setting            triclinic
  loop_
  _symmetry_equiv_pos_as_xyz
 x,y,z
_cell_length_a 21.6767
_cell_length_b 22.0566
_cell_length_c 22.0211
_cell_angle_alpha 92.199300
_cell_angle_beta 88.917300
_cell_angle_gamma 89.257500
loop_
  _atom_site_label
  _atom_site_type_symbol
  _atom_site_fract_x
  _atom_site_fract_y
  _atom_site_fract_z
C1 C 0.06087 0.41231 0.17019
 H2 H 0.10304 0.43739 0.17585
 C3 C 0.06380 0.35149 0.14954
 H4 H 0.10824 0.33148 0.13698
 C5 C -0.04771 0.40740 0.18204
 H6 H -0.09110 0.42794 0.19654
 C7 C -0.04695 0.34698 0.16138
 H8 H -0.09010 0.32288 0.15827
 N9 N 0.00580 0.43857 0.18755
 C10 C -0.00788 0.63152 0.24271
 H11 H -0.01462 0.62370 0.29056
 C12 C -0.01092 0.69042 0.22237
 H13 H -0.01972 0.72801 0.25455
 C14 C 0.01289 0.59145 0.14272
 H15 H 0.02216 0.55260 0.11228
 C16 C 0.01095 0.64997 0.12048
 H17 H 0.01921 0.65636 0.07250
 Zn18 Zn 0.00612 0.50846 0.24075
 N19 N 0.00408 0.58365 0.20309
 C20 C 0.12348 0.54929 0.27494
 N21 N 0.08225 0.50415 0.28382
 C22 C 0.10018 0.45198 0.31006
 C23 C 0.16171 0.44358 0.32726
 C24 C 0.18491 0.54291 0.29183
 C25 C -0.11881 0.52903 0.25525
 C26 C -0.17851 0.52681 0.27971
 C27 C -0.13573 0.48441 0.36951
 C28 C -0.07658 0.48686 0.34302
 N29 N -0.06937 0.50844 0.28644
 H30 H 0.10989 0.58965 0.25223
 H31 H 0.06757 0.41567 0.31479
 H32 H 0.17543 0.40185 0.34793
 H33 H 0.21628 0.57965 0.28411
 H34 H -0.11206 0.54543 0.20998
 H35 H -0.21720 0.54253 0.25390
 H36 H -0.14133 0.46690 0.41453
 H37 H -0.03689 0.47058 0.36692
 C38 C -0.00104 0.69999 0.16076
 C39 C 0.00941 0.31751 0.14683
 C40 C -0.18744 0.50380 0.33717
 C41 C 0.20500 0.48934 0.31772
 C42 C 0.05071 0.59115 0.81497
 H43 H 0.09101 0.56224 0.80738
 C44 C 0.05821 0.65301 0.82982
 H45 H 0.10403 0.67069 0.83656
 C46 C -0.05773 0.60460 0.81255
 H47 H -0.10285 0.58685 0.80335
 C48 C -0.05228 0.66627 0.82805
 H49 H -0.09351 0.69437 0.83351
 N50 N -0.00660 0.56828 0.80530
 C51 C -0.01915 0.37195 0.75582
 H52 H -0.02196 0.38001 0.70779
 C53 C -0.02094 0.31273 0.77545
 H54 H -0.02496 0.27527 0.74260
 C55 C -0.01085 0.41170 0.85689
 H56 H -0.00746 0.45052 0.88813
 C57 C -0.01402 0.35294 0.87870
 H58 H -0.01313 0.34682 0.92721
 Zn59 Zn -0.01217 0.49470 0.75689
 N60 N -0.01278 0.41982 0.79616
 C61 C 0.10215 0.45022 0.71339
 N62 N 0.05836 0.49377 0.70481
 C63 C 0.07055 0.54218 0.67022
 C64 C 0.12921 0.54857 0.64376
 C65 C 0.16069 0.45449 0.68731
 C66 C -0.13644 0.48051 0.75551
 C67 C -0.19651 0.47852 0.73463
 C68 C -0.15755 0.50582 0.63586
 C69 C -0.09780 0.50692 0.65873
 N70 N -0.08874 0.49518 0.71798
 H71 H 0.09340 0.41363 0.74327
 H72 H 0.03587 0.57739 0.66595
 H73 H 0.13873 0.58756 0.61692
 H74 H 0.19511 0.41969 0.69494
 H75 H -0.12771 0.47105 0.80243
 H76 H -0.23341 0.46778 0.76598
 H77 H -0.16467 0.51638 0.58883
 H78 H -0.05908 0.51765 0.62960
 C79 C -0.01783 0.30268 0.83741
 C80 C 0.00628 0.69153 0.83469
 C81 C -0.20781 0.49171 0.67421
 C82 C 0.17507 0.50468 0.65336
 C83 C 0.15507 0.02071 0.40681
 H84 H 0.12584 0.03545 0.44505
 C85 C 0.13209 0.01978 0.34767
 H86 H 0.08502 0.03443 0.34034
 C87 C 0.25192 -0.01635 0.36859
 H88 H 0.29874 -0.03080 0.37700
 C89 C 0.23090 -0.01811 0.30923
 H90 H 0.26176 -0.03326 0.27236
 N91 N 0.21450 0.00352 0.41593
 C92 C 0.20943 -0.04458 0.60118
 H93 H 0.23652 -0.08417 0.58751
 C94 C 0.18773 -0.03956 0.66087
 H95 H 0.19576 -0.07644 0.69097
 C96 C 0.16826 0.05250 0.58084
 H97 H 0.16333 0.08928 0.55011
 C98 C 0.14630 0.05967 0.64103
 H99 H 0.12165 0.10081 0.65569
 Zn100 Zn 0.25338 0.00069 0.49244
 N101 N 0.20086 0.00156 0.56264
 C102 C 0.30826 0.09856 0.55746
 N103 N 0.30557 0.06899 0.50196
 C104 C 0.32738 0.09510 0.45109
 C105 C 0.34936 0.15409 0.45423
 C106 C 0.32936 0.15827 0.56251
 C107 C 0.25578 -0.12117 0.47372
 C108 C 0.27682 -0.18086 0.47302
 C109 C 0.37758 -0.14421 0.50082
 C110 C 0.35437 -0.08474 0.50139
 N111 N 0.29411 -0.07481 0.48882
 H112 H 0.29116 0.07709 0.59760
 H113 H 0.32486 0.07169 0.40739
 H114 H 0.36512 0.17474 0.41298
 H115 H 0.32947 0.18208 0.60643
 H116 H 0.20805 -0.11154 0.46376
 H117 H 0.24562 -0.21731 0.46154
 H118 H 0.42569 -0.15203 0.51067
 H119 H 0.38382 -0.04689 0.51267
 C120 C 0.15789 0.01376 0.68190
 C121 C 0.17059 0.00049 0.29826
 C122 C 0.33789 -0.19282 0.48784
 C123 C 0.34839 0.18697 0.51002
 C124 C 0.85920 -0.01677 0.58813
 H125 H 0.89178 -0.01747 0.55028
 C126 C 0.87975 -0.02317 0.64771
 H127 H 0.92868 -0.02776 0.65588
 C128 C 0.75572 -0.01003 0.62494
 H129 H 0.70713 -0.00508 0.61560
 C130 C 0.77411 -0.01617 0.68456
 H131 H 0.73973 -0.01516 0.72087
 N132 N 0.79786 -0.00991 0.57821
 C133 C 0.78753 -0.04919 0.38538
 H134 H 0.75683 -0.08542 0.39654
 C135 C 0.80907 -0.04574 0.32537
 H136 H 0.79548 -0.08069 0.29279
 C137 C 0.83731 0.04208 0.41349
 H138 H 0.84616 0.07748 0.44746
 C139 C 0.85956 0.04758 0.35355
 H140 H 0.88724 0.08636 0.34263
 Zn141 Zn 0.75554 -0.00436 0.50399
 N142 N 0.80187 -0.00588 0.42842
 C143 C 0.66894 0.08854 0.46993
 N144 N 0.71387 0.07285 0.50893
 C145 C 0.73956 0.11559 0.54678
 C146 C 0.71965 0.17605 0.54745
 C147 C 0.64751 0.14887 0.46926
 C148 C 0.74460 -0.12624 0.51124
 C149 C 0.71961 -0.18348 0.51851
 C150 C 0.61803 -0.13759 0.51668
 C151 C 0.64516 -0.08064 0.50974
 N152 N 0.70761 -0.07629 0.50624
 H153 H 0.65075 0.05466 0.43854
 H154 H 0.77737 0.10357 0.57535
 H155 H 0.74053 0.20888 0.57823
 H156 H 0.61124 0.16087 0.43858
 H157 H 0.79420 -0.12139 0.50976
 H158 H 0.75007 -0.22254 0.52134
 H159 H 0.56828 -0.14031 0.51897
 H160 H 0.61656 -0.04024 0.50776
 C161 C 0.84573 0.00314 0.30824
 C162 C 0.83666 -0.02259 0.69654
 C163 C 0.65565 -0.19005 0.52045
 C164 C 0.67329 0.19334 0.50830
 C165 C 0.57581 0.16169 1.03389
 H166 H 0.53678 0.14685 1.06052
 C167 C 0.63469 0.13783 1.04368
 H168 H 0.64007 0.10234 1.07577
 C169 C 0.61684 0.22807 0.96168
 H170 H 0.61044 0.26554 0.93218
 C171 C 0.67624 0.20563 0.97013
 H172 H 0.71464 0.22348 0.94453
 N173 N 0.56802 0.20586 0.99323
 C174 C 0.37187 0.25480 1.00338
 H175 H 0.38104 0.30274 1.00931
 C176 C 0.31144 0.23466 1.00663
 H177 H 0.27426 0.26748 1.01393
 C178 C 0.41057 0.15441 0.98577
 H179 H 0.44951 0.12378 0.97784
 C180 C 0.35052 0.13226 0.98748
 H181 H 0.34339 0.08408 0.97964
 Zn182 Zn 0.49576 0.25398 0.99615
 N183 N 0.41975 0.21482 0.99389
 C184 C 0.49619 0.26595 0.87589
 N185 N 0.49540 0.30178 0.92754
 C186 C 0.49073 0.36320 0.92585
 C187 C 0.48696 0.39069 0.86966
 C188 C 0.49325 0.29133 0.81934
 C189 C 0.47107 0.25959 1.11691
 C190 C 0.47928 0.27476 1.17780
 C191 C 0.54428 0.35709 1.14752
 C192 C 0.53531 0.33984 1.08669
 N193 N 0.49807 0.29250 1.07279
 H194 H 0.49906 0.21716 0.87895
 H195 H 0.48888 0.39057 0.96765
 H196 H 0.48332 0.43957 0.86847
 H197 H 0.49443 0.26214 0.77862
 H198 H 0.44483 0.21974 1.10508
 H199 H 0.45660 0.24868 1.21214
 H200 H 0.57270 0.39579 1.15882
 H201 H 0.55913 0.36293 1.05091
 C202 C 0.30012 0.17264 0.99898
 C203 C 0.68567 0.16053 1.01195
 C204 C 0.51628 0.32378 1.19342
 C205 C 0.48803 0.35418 0.81582
 C206 C 0.42600 0.84850 0.97913
 H207 H 0.46667 0.86781 0.95901
 C208 C 0.36871 0.87790 0.97434
 H209 H 0.36724 0.92002 0.95098
 C210 C 0.37866 0.76892 1.03112
 H211 H 0.38211 0.72522 1.05141
 C212 C 0.32077 0.79632 1.02701
 H213 H 0.28070 0.77418 1.04567
 N214 N 0.42999 0.79498 1.00743
 C215 C 0.62071 0.75832 1.05115
 H216 H 0.60692 0.72355 1.08146
 C217 C 0.68183 0.77696 1.05209
 H218 H 0.71308 0.75860 1.08469
 C219 C 0.59872 0.82217 0.96997
 H220 H 0.56709 0.83771 0.93641
 C221 C 0.65980 0.84172 0.96911
 H222 H 0.67424 0.87449 0.93649
 Zn223 Zn 0.50136 0.74372 1.00732
 N224 N 0.58001 0.78152 1.01115
 C225 C 0.55085 0.69416 0.89589
 N226 N 0.49965 0.69656 0.93290
 C227 C 0.44376 0.67974 0.91136
 C228 C 0.43717 0.66299 0.84997
 C229 C 0.54628 0.67751 0.83416
 C230 C 0.49221 0.74179 1.13023
 C231 C 0.49469 0.72023 1.18876
 C232 C 0.49790 0.61816 1.14442
 C233 C 0.49616 0.64173 1.08642
 N234 N 0.49430 0.70272 1.08065
 H235 H 0.59499 0.70776 0.91338
 H236 H 0.40345 0.68241 0.94096
 H237 H 0.39204 0.65061 0.83404
 H238 H 0.58717 0.67660 0.80509
 H239 H 0.49101 0.79019 1.12392
 H240 H 0.49443 0.75180 1.22764
 H241 H 0.50017 0.56948 1.14903
 H242 H 0.49804 0.61179 1.04634
 C243 C 0.70180 0.81899 1.01075
 C244 C 0.31487 0.85157 0.99839
 C245 C 0.49847 0.65789 1.19610
 C246 C 0.48858 0.66346 0.81021
 B247 B 0.99787 1.07054 0.03687
 B248 B 0.99102 1.06498 -0.04356
 B249 B 1.06275 1.04927 -0.00814
 B250 B 1.04642 1.01025 0.05928
 B251 B 0.96499 1.00468 0.06610
 B252 B 0.93146 1.03682 0.00273
 B253 B 1.00611 0.93688 -0.04307
 B254 B 1.00957 0.94009 0.03903
 B255 B 0.93954 0.95688 0.00433
 B256 B 0.95629 0.99461 -0.06339
 B257 B 1.03853 1.00457 -0.07033
 B258 B 1.07077 0.96871 -0.00671
 B259 B 0.56933 0.49507 0.46890
 B260 B 0.55703 0.50215 0.54924
 B261 B 0.53637 0.56323 0.50225
 B262 B 0.50564 0.53081 0.43305
 B263 B 0.50935 0.45051 0.43797
 B264 B 0.54061 0.43331 0.50919
 B265 B 0.42618 0.49902 0.53265
 B266 B 0.43905 0.49005 0.45239
 B267 B 0.45958 0.43100 0.49876
 B268 B 0.48920 0.46222 0.56788
 B269 B 0.48664 0.54338 0.56296
 B270 B 0.45474 0.56033 0.49145
 C271 C 1.02869 1.16233 0.14110
 C272 C 1.06204 1.21566 0.11251
 C273 C 1.00912 1.25533 0.12559
 C274 C 0.97524 1.20806 0.15553
 C275 C 0.98190 1.24116 0.06755
 C276 C 1.03486 1.19633 0.05120
 C277 C 0.99917 1.14210 0.07816
 C278 C 0.94520 1.18919 0.09491
 H279 H 1.05314 1.14512 0.17940
 H280 H 1.11031 1.22837 0.12212
 H281 H 0.95102 1.21538 0.20020
 H282 H 0.96398 1.27718 0.03830
 H283 H 1.06250 1.19837 0.01096
 H284 H 0.89554 1.19570 0.09465
 C285 C 1.02581 0.80581 0.05486
 C286 C 1.05948 0.78768 0.11249
 C287 C 1.00018 0.76302 0.13773
 C288 C 0.96589 0.78097 0.08202
 C289 C 0.98538 0.82417 0.16864
 C290 C 1.04535 0.84986 0.14295
 C291 C 1.01241 0.87162 0.08320
 C292 C 0.95202 0.84455 0.11156
 H293 H 1.05070 0.77922 0.02004
 H294 H 1.10490 0.76381 0.11367
 H295 H 0.93401 0.74757 0.06134
 H296 H 0.96756 0.83157 0.21601
 H297 H 1.07750 0.86082 0.17963
 H298 H 0.90869 0.86631 0.12402
 C299 C 0.94277 1.14810 -0.14652
 C300 C 0.92410 1.20983 -0.11546
 C301 C 0.98130 1.23897 -0.14044
 C302 C 1.00001 1.17901 -0.17302
 C303 C 1.01683 1.22228 -0.08489
 C304 C 0.95901 1.19159 -0.05872
 C305 C 0.97919 1.12913 -0.08830
 C306 C 1.03582 1.16096 -0.11654
 H307 H 0.90749 1.13137 -0.17719
 H308 H 0.87762 1.23171 -0.11563
 H309 H 1.01678 1.17392 -0.22087
 H310 H 1.04727 1.25605 -0.06248
 H311 H 0.92994 1.19749 -0.01809
 H312 H 1.08083 1.14095 -0.12559
 C313 C 1.05460 0.81714 -0.07956
 C314 C 0.99874 0.77400 -0.07957
 C315 C 1.01172 0.75754 -0.14586
 C316 C 1.06672 0.80005 -0.14706
 C317 C 0.96994 0.80926 -0.16405
 C318 C 0.95731 0.82728 -0.09718
 C319 C 1.01193 0.87173 -0.09379
 C320 C 1.02404 0.85323 -0.16386
 H321 H 1.09601 0.81255 -0.05385
 H322 H 0.98562 0.73970 -0.04627
 H323 H 1.11291 0.78984 -0.16790
 H324 H 0.93414 0.80241 -0.19877
 H325 H 0.90940 0.83836 -0.09467
 H326 H 1.03177 0.87368 -0.20821
 C327 C 1.06706 1.03187 0.18766
 C328 C 1.08932 0.97189 0.21319
 C329 C 1.14774 1.00254 0.23436
 C330 C 1.12656 1.06207 0.20955
 C331 C 1.17992 0.98601 0.17375
 C332 C 1.12062 0.95625 0.15036
 C333 C 1.09560 1.01575 0.12386
 C334 C 1.15764 1.04584 0.14815
 H335 H 1.02901 1.05968 0.20212
 H336 H 1.06277 0.94243 0.24356
 H337 H 1.13018 1.10648 0.23468
 H338 H 1.22723 0.96669 0.16758
 H339 H 1.12895 0.91508 0.12271
 H340 H 1.19645 1.07510 0.13672
 C341 C 1.05206 1.03926 -0.19961
 C342 C 1.11068 1.07249 -0.21621
 C343 C 1.13414 1.01770 -0.25377
 C344 C 1.07633 0.98363 -0.23888
 C345 C 1.16557 0.99324 -0.19826
 C346 C 1.14077 1.04762 -0.15920
 C347 C 1.08045 1.01278 -0.14094
 C348 C 1.10680 0.95841 -0.18179
 H349 H 1.00911 1.06415 -0.20542
 H350 H 1.11376 1.12015 -0.23030
 H351 H 1.04928 0.95760 -0.27315
 H352 H 1.21375 0.97560 -0.19765
 H353 H 1.17177 1.08127 -0.14333
 H354 H 1.11638 0.91084 -0.17250
 C355 C 0.94086 0.96688 0.18844
 C356 C 0.93639 1.01770 0.23814
 C357 C 0.87126 1.00634 0.24720
 C358 C 0.87211 0.95634 0.20169
 C359 C 0.85388 1.05093 0.20290
 C360 C 0.92196 1.06360 0.18866
 C361 C 0.92615 1.01155 0.13742
 C362 C 0.85608 1.00131 0.15159
 H363 H 0.97838 0.93451 0.19070
 H364 H 0.96850 1.02367 0.27666
 H365 H 0.85328 0.91062 0.20884
 H366 H 0.81653 1.08544 0.21088
 H367 H 0.93760 1.11021 0.19220
 H368 H 0.81647 1.00227 0.12160
 C369 C 0.86358 0.92982 -0.15366
 C370 C 0.82100 0.97960 -0.17894
 C371 C 0.85792 0.97566 -0.23887
 C372 C 0.89837 0.92607 -0.21442
 C373 C 0.90171 1.02359 -0.21541
 C374 C 0.86536 1.02867 -0.15436
 C375 C 0.90840 0.98030 -0.12690
 C376 C 0.94203 0.97358 -0.18890
 H377 H 0.84243 0.88728 -0.14135
 H378 H 0.77004 0.98137 -0.17303
 H379 H 0.91258 0.88600 -0.24329
 H380 H 0.91736 1.05936 -0.24601
 H381 H 0.84394 1.07013 -0.13556
 H382 H 0.98699 0.95598 -0.18727
 C383 C 1.15120 1.15918 -0.04362
 C384 C 1.18084 1.18108 0.01585
 C385 C 1.23852 1.15043 -0.00247
 C386 C 1.21434 1.13054 -0.06008
 C387 C 1.22203 1.09498 0.02650
 C388 C 1.15848 1.12313 0.04561
 C389 C 1.12840 1.09792 -0.01378
 C390 C 1.19318 1.07076 -0.03274
 H391 H 1.13526 1.19706 -0.07080
 H392 H 1.17731 1.22781 0.03622
 H393 H 1.24162 1.13657 -0.10272
 H394 H 1.25712 1.07273 0.05459
 H395 H 1.13527 1.13088 0.08933
 H396 H 1.20215 1.03182 -0.06331
 C397 C 0.83169 1.10846 0.06422
 C398 C 0.81134 1.16176 0.02460
 C399 C 0.74869 1.13236 0.01630
 C400 C 0.76717 1.08061 0.05609
 C401 C 0.77360 1.09723 -0.03943
 C402 C 0.83698 1.12521 -0.03136
 C403 C 0.85804 1.07151 0.00725
 C404 C 0.79152 1.04433 -0.00039
 H405 H 0.85072 1.11409 0.10959
 H406 H 0.81761 1.21120 0.03309
 H407 H 0.73826 1.06254 0.09318
 H408 H 0.74924 1.09293 -0.08337
 H409 H 0.85206 1.14400 -0.07291
 H410 H 0.75880 1.01130 -0.01750
 C411 C 1.15978 0.86687 0.01641
 C412 C 1.20389 0.85328 -0.03870
 C413 C 1.25488 0.87960 -0.00479
 C414 C 1.21637 0.89152 0.04937
 C415 C 1.24356 0.93968 -0.02694
 C416 C 1.18762 0.91612 -0.06296
 C417 C 1.14281 0.93128 -0.00738
 C418 C 1.20019 0.95481 0.02783
 H419 H 1.13550 0.83098 0.03848
 H420 H 1.20750 0.81006 -0.06622
 H421 H 1.23071 0.87989 0.09571
 H422 H 1.27962 0.97031 -0.04394
 H423 H 1.18873 0.92313 -0.11137
 H424 H 1.20552 0.99210 0.05980
 C425 C 0.86536 0.83728 0.00257
 C426 C 0.81900 0.83312 0.05567
 C427 C 0.76560 0.84413 0.01367
 C428 C 0.81012 0.84652 -0.03980
 C429 C 0.77051 0.91168 0.02581
 C430 C 0.82446 0.90213 0.06769
 C431 C 0.87294 0.90806 0.01311
 C432 C 0.81613 0.91540 -0.02854
 H433 H 0.89737 0.79946 -0.00711
 H434 H 0.82092 0.79843 0.09086
 H435 H 0.80238 0.82006 -0.08281
 H436 H 0.72959 0.94021 0.03941
 H437 H 0.81547 0.90737 0.11631
 H438 H 0.80618 0.94636 -0.06407
 C439 C 0.71315 0.47840 0.45317
 C440 C 0.72693 0.44335 0.39393
 C441 C 0.74902 0.50079 0.36543
 C442 C 0.73495 0.53645 0.42434
 C443 C 0.68365 0.51350 0.34323
 C444 C 0.66050 0.45560 0.37425
 C445 C 0.64427 0.49194 0.43453
 C446 C 0.66883 0.54936 0.40392
 H447 H 0.74303 0.46338 0.48904
 H448 H 0.75091 0.39848 0.38981
 H449 H 0.76537 0.57060 0.44636
 H450 H 0.67126 0.52761 0.29724
 H451 H 0.64417 0.41127 0.36134
 H452 H 0.65451 0.59573 0.41333
 C453 C 0.32439 0.52365 0.41306
 C454 C 0.31738 0.53499 0.34534
 C455 C 0.26980 0.48412 0.34176
 C456 C 0.27641 0.47301 0.40906
 C457 C 0.32133 0.43796 0.32725
 C458 C 0.37007 0.48887 0.33216
 C459 C 0.37814 0.47902 0.40173
 C460 C 0.32878 0.42787 0.39595
 H461 H 0.32832 0.55443 0.45022
 H462 H 0.31426 0.57962 0.32409
 H463 H 0.23635 0.46278 0.43887
 H464 H 0.32058 0.40161 0.29096
 H465 H 0.40063 0.49006 0.29292
 H466 H 0.32564 0.38117 0.40710
 C467 C 0.68467 0.51945 0.57313
 C468 C 0.70536 0.55093 0.63233
 C469 C 0.73082 0.49379 0.65176
 C470 C 0.71432 0.46076 0.59635
 C471 C 0.67360 0.47837 0.68248
 C472 C 0.64330 0.53708 0.66180
 C473 C 0.62052 0.50406 0.60022
 C474 C 0.65160 0.44503 0.62415
 H475 H 0.69516 0.54486 0.53390
 H476 H 0.72994 0.59468 0.63735
 H477 H 0.74608 0.42559 0.57560
 H478 H 0.66915 0.46044 0.72877
 H479 H 0.62893 0.56654 0.70121
 H480 H 0.63481 0.40135 0.63546
 C481 C 0.31976 0.45260 0.60337
 C482 C 0.29883 0.49675 0.65640
 C483 C 0.23827 0.50819 0.62527
 C484 C 0.25704 0.46432 0.57340
 C485 C 0.26669 0.56056 0.59285
 C486 C 0.32885 0.54855 0.62233
 C487 C 0.35060 0.50491 0.56786
 C488 C 0.28491 0.51718 0.53948
 H489 H 0.33671 0.40695 0.61307
 H490 H 0.29992 0.49233 0.70643
 H491 H 0.22588 0.42979 0.55320
 H492 H 0.24568 0.60640 0.58904
 H493 H 0.34579 0.58695 0.64801
 H494 H 0.25611 0.53573 0.50384
 C495 C 0.45918 0.61684 0.34576
 C496 C 0.50933 0.66008 0.32211
 C497 C 0.50286 0.63255 0.25809
 C498 C 0.45254 0.59217 0.28050
 C499 C 0.55074 0.58425 0.27052
 C500 C 0.55851 0.61039 0.33536
 C501 C 0.50783 0.56677 0.36048
 C502 C 0.49957 0.54300 0.29232
 H503 H 0.41257 0.62234 0.36177
 H504 H 0.51209 0.70929 0.33413
 H505 H 0.40819 0.58619 0.25663
 H506 H 0.58903 0.56958 0.23886
 H507 H 0.60700 0.62217 0.34055
 H508 H 0.49402 0.50790 0.25729
 C509 C 0.53539 0.61359 0.66284
 C510 C 0.50628 0.67393 0.68702
 C511 C 0.48342 0.64364 0.74405
 C512 C 0.51275 0.58396 0.72185
 C513 C 0.42403 0.62767 0.71256
 C514 C 0.44673 0.65653 0.65404
 C515 C 0.47645 0.59342 0.62900
 C516 C 0.45283 0.56674 0.68929
 H517 H 0.57928 0.61978 0.63910
 H518 H 0.52866 0.71889 0.68608
 H519 H 0.53929 0.55742 0.75446
 H520 H 0.37697 0.63432 0.73264
 H521 H 0.42112 0.69646 0.63898
 H522 H 0.41927 0.53159 0.69428
 C523 C 0.55413 0.34000 0.34910
 C524 C 0.49660 0.31733 0.31575
 C525 C 0.51955 0.34548 0.25810
 C526 C 0.57675 0.36691 0.28952
 C527 C 0.48607 0.40389 0.27567
 C528 C 0.46298 0.37733 0.33482
 C529 C 0.51992 0.40195 0.37041
 C530 C 0.54417 0.42686 0.30896
 H531 H 0.58428 0.30365 0.36313
 H532 H 0.47911 0.27033 0.31730
 H533 H 0.62417 0.36199 0.26972
 H534 H 0.45520 0.42269 0.24124
 H535 H 0.41456 0.37406 0.34585
 H536 H 0.57454 0.46522 0.30044
 C537 C 0.52474 0.44411 0.69308
 C538 C 0.47108 0.44539 0.73979
 C539 C 0.48477 0.38047 0.75421
 C540 C 0.53883 0.37832 0.70947
 C541 C 0.44160 0.35868 0.70453
 C542 C 0.42797 0.42425 0.68844
 C543 C 0.48220 0.42408 0.63968
 C544 C 0.49580 0.35610 0.65878
 H545 H 0.55789 0.47920 0.69645
 H546 H 0.46020 0.48149 0.77497
 H547 H 0.58513 0.35960 0.71961
 H548 H 0.40625 0.32306 0.70902
 H549 H 0.38065 0.43750 0.69592
 H550 H 0.50151 0.30774 0.64431
 C551 C 0.64388 0.65017 0.53312
 C552 C 0.65553 0.69384 0.48091
 C553 C 0.62892 0.74677 0.52011
 C554 C 0.61754 0.70448 0.57223
 C555 C 0.56536 0.73377 0.49650
 C556 C 0.59109 0.68032 0.45654
 C557 C 0.57758 0.63407 0.50789
 C558 C 0.55316 0.68978 0.54763
 H559 H 0.68628 0.63308 0.55234
 H560 H 0.69833 0.69426 0.45241
 H561 H 0.62838 0.71472 0.62058
 H562 H 0.53271 0.76898 0.48125
 H563 H 0.58372 0.68767 0.40897
 H564 H 0.51230 0.69460 0.57527
 C565 C 0.57148 0.30899 0.47636
 C566 C 0.64007 0.29820 0.45757
 C567 C 0.64781 0.25742 0.51111
 C568 C 0.58072 0.26710 0.52985
 C569 C 0.66554 0.31212 0.55096
 C570 C 0.65633 0.35431 0.49747
 C571 C 0.58683 0.36650 0.51616
 C572 C 0.59750 0.32232 0.57000
 H573 H 0.53181 0.30225 0.44777
 H574 H 0.66402 0.28774 0.41337
 H575 H 0.55015 0.23048 0.54510
 H576 H 0.70490 0.31467 0.58246
 H577 H 0.69712 0.37937 0.48722
 H578 H 0.59386 0.31851 0.61910
 C579 C 0.35139 0.65386 0.44524
 C580 C 0.32423 0.68651 0.50210
 C581 C 0.36065 0.74291 0.48743
 C582 C 0.38689 0.71109 0.43062
 C583 C 0.41454 0.72126 0.52386
 C584 C 0.37893 0.66300 0.53852
 C585 C 0.40844 0.62802 0.48234
 C586 C 0.44168 0.68738 0.46648
 H587 H 0.31908 0.63906 0.40967
 H588 H 0.27504 0.68546 0.51689
 H589 H 0.39019 0.73134 0.38527
 H590 H 0.43732 0.75325 0.55602
 H591 H 0.36308 0.64656 0.58117
 H592 H 0.48281 0.68887 0.43855
 C593 C 0.43953 0.31455 0.53936
 C594 C 0.37287 0.30221 0.56077
 C595 C 0.36965 0.25151 0.51135
 C596 C 0.43532 0.26301 0.49105
 C597 C 0.34685 0.29639 0.46624
 C598 C 0.35083 0.34893 0.51468
 C599 C 0.41881 0.36235 0.49465
 C600 C 0.41359 0.30886 0.44575
 H601 H 0.48296 0.32061 0.55836
 H602 H 0.35719 0.29943 0.60879
 H603 H 0.46905 0.22563 0.48062
 H604 H 0.30718 0.28728 0.43612
 H605 H 0.31010 0.37862 0.51478
 H606 H 0.42391 0.29625 0.39879
   
