data_POSCAR
  _audit_creation_date              2014-09-24
  _audit_creation_method            'ToBaCCo'
  _symmetry_space_group_name_H-M    'P1'
  _symmetry_Int_Tables_number       1
  _symmetry_cell_setting            triclinic
  loop_
  _symmetry_equiv_pos_as_xyz
 x,y,z
_cell_length_a 53.1721
_cell_length_b 52.9481
_cell_length_c 53.1602
_cell_angle_alpha 89.913300
_cell_angle_beta 89.998400
_cell_angle_gamma 90.071700
loop_
  _atom_site_label
  _atom_site_type_symbol
  _atom_site_fract_x
  _atom_site_fract_y
  _atom_site_fract_z
N1 N 0.59508 0.66515 0.61499
 N2 N 0.58523 0.65475 0.63523
 C3 C 0.56487 0.66815 0.64225
 C4 C 0.56197 0.68783 0.62550
 C5 C 0.58134 0.68547 0.60845
 H6 H 0.55302 0.66397 0.65826
 H7 H 0.58514 0.69763 0.59252
 Cu8 Cu 0.60009 0.62472 0.65024
 Cu9 Cu 0.62493 0.65156 0.59863
 Cu10 Cu 0.65156 0.59798 0.62538
 N11 N 0.61505 0.59469 0.66517
 N12 N 0.63524 0.58431 0.65530
 C13 C 0.64175 0.56395 0.66905
 C14 C 0.62470 0.56158 0.68845
 C15 C 0.60800 0.58127 0.68557
 H16 H 0.65765 0.55181 0.66523
 H17 H 0.59198 0.58543 0.69740
 N18 N 0.66530 0.61459 0.59508
 N19 N 0.65516 0.63497 0.58490
 C20 C 0.66874 0.64172 0.56455
 C21 C 0.68820 0.62480 0.56195
 C22 C 0.68560 0.60786 0.58146
 H23 H 0.66483 0.65770 0.55250
 H24 H 0.69762 0.59187 0.58537
 H25 H 0.61989 0.61464 0.61006
 H26 H 0.64017 0.63496 0.63026
 N27 N 0.90548 0.33414 0.11484
 N28 N 0.91536 0.34451 0.13505
 C29 C 0.93573 0.33111 0.14209
 C30 C 0.93855 0.31148 0.12535
 C31 C 0.91918 0.31381 0.10830
 H32 H 0.94758 0.33526 0.15810
 H33 H 0.91535 0.30168 0.09240
 Cu34 Cu 0.90046 0.37449 0.14996
 Cu35 Cu 0.87562 0.34773 0.09846
 Cu36 Cu 0.84901 0.40127 0.12510
 N37 N 0.88555 0.40446 0.16488
 N38 N 0.86535 0.41484 0.15500
 C39 C 0.85882 0.43515 0.16872
 C40 C 0.87583 0.43751 0.18813
 C41 C 0.89255 0.41785 0.18526
 H42 H 0.84292 0.44728 0.16490
 H43 H 0.90854 0.41369 0.19714
 N44 N 0.83528 0.38471 0.09485
 N45 N 0.84540 0.36433 0.08472
 C46 C 0.83179 0.35758 0.06442
 C47 C 0.81232 0.37450 0.06182
 C48 C 0.81495 0.39143 0.08127
 H49 H 0.83566 0.34159 0.05241
 H50 H 0.80292 0.40740 0.08517
 H51 H 0.88070 0.38467 0.10981
 H52 H 0.86042 0.36432 0.13010
 N53 N 0.40497 0.16534 -0.11476
 N54 N 0.41522 0.15456 -0.13456
 C55 C 0.43557 0.16800 -0.14165
 C56 C 0.43805 0.18806 -0.12534
 C57 C 0.41845 0.18593 -0.10854
 H58 H 0.44763 0.16363 -0.15743
 H59 H 0.41434 0.19841 -0.09298
 Cu60 Cu 0.40039 0.12430 -0.14894
 Cu61 Cu 0.37491 0.15196 -0.09847
 Cu62 Cu 0.34818 0.09834 -0.12513
 N63 N 0.38536 0.09466 -0.16434
 N64 N 0.36475 0.08466 -0.15488
 C65 C 0.35795 0.06462 -0.16890
 C66 C 0.37521 0.06209 -0.18805
 C67 C 0.39235 0.08135 -0.18477
 H68 H 0.34171 0.05280 -0.16543
 H69 H 0.40857 0.08532 -0.19640
 N70 N 0.33437 0.11506 -0.09499
 N71 N 0.34454 0.13544 -0.08486
 C72 C 0.33096 0.14218 -0.06455
 C73 C 0.31148 0.12525 -0.06194
 C74 C 0.31405 0.10831 -0.08138
 H75 H 0.33492 0.15814 -0.05251
 H76 H 0.30203 0.09229 -0.08523
 H77 H 0.37949 0.11491 -0.10924
 H78 H 0.36004 0.13522 -0.13027
 N79 N 0.09460 0.83446 0.38508
 N80 N 0.08474 0.84483 0.36485
 C81 C 0.06430 0.83146 0.35788
 C82 C 0.06142 0.81178 0.37465
 C83 C 0.08084 0.81411 0.39167
 H84 H 0.05243 0.83568 0.34190
 H85 H 0.08469 0.80195 0.40758
 Cu86 Cu 0.09971 0.87488 0.34994
 Cu87 Cu 0.12454 0.84811 0.40140
 Cu88 Cu 0.15117 0.90181 0.37479
 N89 N 0.11457 0.90498 0.33505
 N90 N 0.13474 0.91541 0.34496
 C91 C 0.14121 0.93584 0.33130
 C92 C 0.12416 0.93823 0.31195
 C93 C 0.10748 0.91849 0.31476
 H94 H 0.15710 0.94802 0.33513
 H95 H 0.09145 0.91438 0.30292
 N96 N 0.16495 0.88515 0.40497
 N97 N 0.15482 0.86472 0.41512
 C98 C 0.16845 0.85798 0.43543
 C99 C 0.18790 0.87496 0.43802
 C100 C 0.18526 0.89192 0.41855
 H101 H 0.16457 0.84197 0.44747
 H102 H 0.19725 0.90797 0.41466
 H103 H 0.11957 0.88515 0.38995
 H104 H 0.13989 0.86492 0.36973
 N105 N 0.09453 0.16584 0.11463
 N106 N 0.08462 0.15542 0.13483
 C107 C 0.06426 0.16882 0.14182
 C108 C 0.06144 0.18851 0.12510
 C109 C 0.08083 0.18619 0.10809
 H110 H 0.05243 0.16470 0.15786
 H111 H 0.08470 0.19839 0.09222
 Cu112 Cu 0.09957 0.12562 0.15007
 Cu113 Cu 0.12443 0.15232 0.09836
 Cu114 Cu 0.15101 0.09879 0.12502
 N115 N 0.11442 0.09544 0.16469
 N116 N 0.13463 0.08512 0.15482
 C117 C 0.14119 0.06479 0.16855
 C118 C 0.12418 0.06238 0.18794
 C119 C 0.10743 0.08200 0.18507
 H120 H 0.15713 0.05271 0.16477
 H121 H 0.09148 0.08614 0.19699
 N122 N 0.16478 0.11542 0.09484
 N123 N 0.15466 0.13581 0.08467
 C124 C 0.16825 0.14255 0.06434
 C125 C 0.18769 0.12560 0.06175
 C126 C 0.18507 0.10867 0.08124
 H127 H 0.16435 0.15853 0.05227
 H128 H 0.19706 0.09265 0.08514
 H129 H 0.11927 0.11545 0.10999
 H130 H 0.13966 0.13578 0.13019
 N131 N 0.40493 0.83470 0.61483
 N132 N 0.41479 0.84505 0.63506
 C133 C 0.43521 0.83169 0.64203
 C134 C 0.43809 0.81206 0.62529
 C135 C 0.41869 0.81441 0.60827
 H136 H 0.44707 0.83586 0.65802
 H137 H 0.41489 0.80229 0.59236
 Cu138 Cu 0.39984 0.87500 0.64997
 Cu139 Cu 0.37503 0.84828 0.59847
 Cu140 Cu 0.34839 0.90180 0.62510
 N141 N 0.38495 0.90498 0.66487
 N142 N 0.36476 0.91537 0.65497
 C143 C 0.35824 0.93570 0.66867
 C144 C 0.37526 0.93806 0.68806
 C145 C 0.39198 0.91841 0.68522
 H146 H 0.34235 0.94785 0.66484
 H147 H 0.40798 0.91427 0.69707
 N148 N 0.33464 0.88521 0.59488
 N149 N 0.34478 0.86484 0.58474
 C150 C 0.33119 0.85813 0.56441
 C151 C 0.31175 0.87507 0.56179
 C152 C 0.31435 0.89197 0.58127
 H153 H 0.33510 0.84217 0.55237
 H154 H 0.30234 0.90797 0.58515
 H155 H 0.38004 0.88521 0.60991
 H156 H 0.35973 0.86485 0.63015
 N157 N 0.90528 0.66543 0.38505
 N158 N 0.91516 0.65503 0.36488
 C159 C 0.93555 0.66847 0.35783
 C160 C 0.93843 0.68819 0.37450
 C161 C 0.91901 0.68580 0.39152
 H162 H 0.94740 0.66430 0.34185
 H163 H 0.91520 0.69797 0.40739
 Cu164 Cu 0.90032 0.62497 0.34993
 Cu165 Cu 0.87538 0.65174 0.40138
 Cu166 Cu 0.84876 0.59808 0.37483
 N167 N 0.88534 0.59490 0.33514
 N168 N 0.86513 0.58448 0.34500
 C169 C 0.85863 0.56412 0.33130
 C170 C 0.87568 0.56178 0.31193
 C171 C 0.89239 0.58149 0.31479
 H172 H 0.84273 0.55194 0.33511
 H173 H 0.90839 0.58567 0.30295
 N174 N 0.83499 0.61468 0.40503
 N175 N 0.84511 0.63510 0.41514
 C176 C 0.83148 0.64183 0.43542
 C177 C 0.81201 0.62486 0.43805
 C178 C 0.81466 0.60791 0.41862
 H179 H 0.83536 0.65784 0.44742
 H180 H 0.80264 0.59189 0.41475
 H181 H 0.88037 0.61474 0.39004
 H182 H 0.86012 0.63499 0.36972
 N183 N 0.59523 0.33473 -0.11478
 N184 N 0.58537 0.34516 -0.13497
 C185 C 0.56496 0.33178 -0.14196
 C186 C 0.56208 0.31209 -0.12523
 C187 C 0.58148 0.31439 -0.10823
 H188 H 0.55310 0.33597 -0.15795
 H189 H 0.58527 0.30220 -0.09233
 Cu190 Cu 0.60022 0.37516 -0.15001
 Cu191 Cu 0.62512 0.34824 -0.09847
 Cu192 Cu 0.65180 0.40186 -0.12520
 N193 N 0.61524 0.40518 -0.16490
 N194 N 0.63547 0.41556 -0.15508
 C195 C 0.64200 0.43590 -0.16886
 C196 C 0.62494 0.43829 -0.18823
 C197 C 0.60820 0.41861 -0.18529
 H198 H 0.65793 0.44805 -0.16509
 H199 H 0.59218 0.41443 -0.19710
 N200 N 0.66555 0.38520 -0.09495
 N201 N 0.65538 0.36480 -0.08480
 C202 C 0.66898 0.35800 -0.06450
 C203 C 0.68848 0.37491 -0.06190
 C204 C 0.68589 0.39189 -0.08136
 H205 H 0.66506 0.34198 -0.05248
 H206 H 0.69796 0.40788 -0.08527
 H207 H 0.62011 0.38513 -0.10984
 H208 H 0.64030 0.36484 -0.13014
 C209 C -0.04330 0.29344 0.12561
 C210 C -0.02724 0.27740 0.12576
 C211 C -0.00846 0.25860 0.12581
 C212 C 0.00755 0.24252 0.12577
 C213 C 0.02628 0.22368 0.12561
 C214 C 0.04231 0.20761 0.12541
 C215 C 0.54278 0.70691 0.62575
 C216 C 0.52674 0.72298 0.62588
 C217 C 0.50800 0.74186 0.62591
 C218 C 0.49203 0.75800 0.62586
 C219 C 0.47332 0.77690 0.62573
 C220 C 0.45728 0.79298 0.62556
 C221 C 1.04327 0.79363 0.37436
 C222 C 1.02723 0.77749 0.37416
 C223 C 1.00849 0.75853 0.37401
 C224 C 0.99250 0.74235 0.37397
 C225 C 0.97373 0.72342 0.37403
 C226 C 0.95766 0.70731 0.37419
 C227 C 0.45719 0.20717 -0.12564
 C228 C 0.47323 0.22325 -0.12573
 C229 C 0.49198 0.24210 -0.12574
 C230 C 0.50800 0.25820 -0.12570
 C231 C 0.52677 0.27703 -0.12560
 C232 C 0.54285 0.29306 -0.12547
 C233 C 0.12391 -0.04266 0.29278
 C234 C 0.12380 -0.02657 0.27674
 C235 C 0.12376 -0.00770 0.25800
 C236 C 0.12378 0.00843 0.24200
 C237 C 0.12386 0.02727 0.22323
 C238 C 0.12398 0.04333 0.20716
 C239 C 0.62445 0.54350 -0.29333
 C240 C 0.62432 0.52742 -0.27722
 C241 C 0.62427 0.50852 -0.25842
 C242 C 0.62431 0.49238 -0.24238
 C243 C 0.62445 0.47348 -0.22357
 C244 C 0.62463 0.45740 -0.20748
 C245 C 0.37540 1.04307 0.79273
 C246 C 0.37550 1.02700 0.77670
 C247 C 0.37557 1.00811 0.75801
 C248 C 0.37559 0.99198 0.74205
 C249 C 0.37557 0.97313 0.72332
 C250 C 0.37547 0.95710 0.70726
 C251 C 0.87607 0.45658 0.20732
 C252 C 0.87621 0.47266 0.22335
 C253 C 0.87629 0.49156 0.24206
 C254 C 0.87628 0.50770 0.25802
 C255 C 0.87616 0.52659 0.27674
 C256 C 0.87599 0.54267 0.29276
 C257 C 0.29240 0.12526 -0.04284
 C258 C 0.27639 0.12530 -0.02681
 C259 C 0.25762 0.12536 -0.00807
 C260 C 0.24158 0.12543 0.00793
 C261 C 0.22280 0.12552 0.02666
 C262 C 0.20677 0.12557 0.04266
 C263 C 0.70727 0.62479 0.54280
 C264 C 0.72327 0.62480 0.52674
 C265 C 0.74203 0.62481 0.50795
 C266 C 0.75805 0.62482 0.49192
 C267 C 0.77684 0.62483 0.47315
 C268 C 0.79288 0.62484 0.45713
 C269 C 0.79322 0.37450 0.04274
 C270 C 0.77718 0.37452 0.02672
 C271 C 0.75841 0.37457 0.00797
 C272 C 0.74238 0.37463 -0.00804
 C273 C 0.72362 0.37472 -0.02681
 C274 C 0.70759 0.37482 -0.04283
 C275 C 0.20701 0.87501 0.45711
 C276 C 0.22305 0.87506 0.47313
 C277 C 0.24183 0.87511 0.49187
 C278 C 0.25787 0.87513 0.50788
 C279 C 0.27665 0.87513 0.52664
 C280 C 0.29267 0.87511 0.54267
   
