data_POSCAR
  _audit_creation_date              2014-09-24
  _audit_creation_method            'ToBaCCo'
  _symmetry_space_group_name_H-M    'P1'
  _symmetry_Int_Tables_number       1
  _symmetry_cell_setting            triclinic
  loop_
  _symmetry_equiv_pos_as_xyz
 x,y,z
_cell_length_a 36.6819
_cell_length_b 43.8291
_cell_length_c 37.8185
_cell_angle_alpha 90.027800
_cell_angle_beta 90.107900
_cell_angle_gamma 85.408700
loop_
  _atom_site_label
  _atom_site_type_symbol
  _atom_site_fract_x
  _atom_site_fract_y
  _atom_site_fract_z
C1 C 1.22622 0.22780 0.20517
 C2 C 1.24982 0.24849 0.18395
 C3 C 1.27039 0.26601 0.20468
 C4 C 1.26561 0.26121 0.24475
 C5 C 1.25294 0.20909 0.22936
 C6 C 1.27346 0.22649 0.25011
 C7 C 1.20348 0.24939 0.22997
 C8 C 1.22411 0.26684 0.25066
 H9 H 1.24937 0.24994 0.15527
 H10 H 1.28247 0.27542 0.26158
 H11 H 1.25430 0.18427 0.23113
 H12 H 1.17380 0.25073 0.23112
 C13 C 0.72722 -0.27290 0.20379
 C14 C 0.75062 -0.25215 0.18250
 C15 C 0.77105 -0.23451 0.20319
 C16 C 0.76635 -0.23923 0.24323
 C17 C 0.75405 -0.29146 0.22802
 C18 C 0.77442 -0.27387 0.24871
 C19 C 0.70434 -0.25138 0.22855
 C20 C 0.72488 -0.23382 0.24916
 H21 H 0.75009 -0.25069 0.15382
 H22 H 0.78312 -0.22488 0.25999
 H23 H 0.75533 -0.31626 0.23014
 H24 H 0.67467 -0.25033 0.22992
 C25 C 0.72762 0.22791 -0.29586
 C26 C 0.74955 0.24788 -0.31626
 C27 C 0.77112 0.26630 -0.29437
 C28 C 0.76665 0.26122 -0.25636
 C29 C 0.75334 0.20990 -0.27331
 C30 C 0.77485 0.22825 -0.25148
 C31 C 0.70562 0.24800 -0.27205
 C32 C 0.72724 0.26638 -0.25025
 H33 H 0.74864 0.24976 -0.34493
 H34 H 0.78351 0.27546 -0.23944
 H35 H 0.75459 0.18506 -0.27125
 H36 H 0.67590 0.24931 -0.27094
 C37 C 1.22738 -0.27195 -0.29562
 C38 C 1.25108 -0.25130 -0.31673
 C39 C 1.27152 -0.23383 -0.29584
 C40 C 1.26650 -0.23855 -0.25585
 C41 C 1.25393 -0.29067 -0.27129
 C42 C 1.27430 -0.27322 -0.25046
 C43 C 1.20449 -0.25037 -0.27098
 C44 C 1.22502 -0.23295 -0.25020
 H45 H 1.25085 -0.24988 -0.34541
 H46 H 1.28325 -0.22433 -0.23893
 H47 H 1.25527 -0.31549 -0.26947
 H48 H 1.17480 -0.24909 -0.26990
 C49 C 0.22842 0.22769 0.79689
 C50 C 0.25131 0.24682 0.81714
 C51 C 0.27284 0.26515 0.79544
 C52 C 0.26764 0.26106 0.75751
 C53 C 0.20545 0.24959 0.77245
 C54 C 0.22607 0.26705 0.75179
 C55 C 0.25441 0.20887 0.77204
 C56 C 0.27490 0.22634 0.75135
 H57 H 0.25086 0.24833 0.84583
 H58 H 0.28446 0.27525 0.74065
 H59 H 0.17576 0.25097 0.77133
 H60 H 0.25538 0.18409 0.76991
 C61 C 0.72686 0.72746 0.79568
 C62 C 0.74877 0.74741 0.81626
 C63 C 0.77046 0.76581 0.79453
 C64 C 0.76609 0.76072 0.75648
 C65 C 0.70498 0.74758 0.77174
 C66 C 0.72670 0.76594 0.75011
 C67 C 0.75263 0.70942 0.77328
 C68 C 0.77425 0.72773 0.75161
 H69 H 0.74777 0.74928 0.84493
 H70 H 0.78303 0.77492 0.73968
 H71 H 0.67526 0.74898 0.77050
 H72 H 0.75388 0.68458 0.77123
 C73 C 0.72727 0.22734 0.29602
 C74 C 0.75072 0.24809 0.31737
 C75 C 0.77113 0.26570 0.29672
 C76 C 0.76636 0.26096 0.25667
 C77 C 0.70436 0.24885 0.27122
 C78 C 0.72489 0.26639 0.25066
 C79 C 0.75405 0.20875 0.27184
 C80 C 0.77439 0.22632 0.25121
 H81 H 0.75024 0.24956 0.34605
 H82 H 0.78311 0.27529 0.23995
 H83 H 0.67469 0.24991 0.26979
 H84 H 0.75530 0.18395 0.26973
 C85 C 0.22668 0.72718 0.29485
 C86 C 0.25040 0.74791 0.31600
 C87 C 0.27082 0.76544 0.29522
 C88 C 0.26579 0.76061 0.25516
 C89 C 0.20376 0.74876 0.27010
 C90 C 0.22424 0.76622 0.24935
 C91 C 0.25325 0.70848 0.27059
 C92 C 0.27362 0.72587 0.24976
 H93 H 0.25007 0.74943 0.34467
 H94 H 0.28253 0.77481 0.23828
 H95 H 0.17407 0.75012 0.26906
 H96 H 0.25458 0.68366 0.26878
 N97 N 1.06156 0.02529 0.03664
 N98 N 1.08536 0.04593 0.04157
 N99 N 1.03494 -0.03651 0.06160
 N100 N 1.04249 -0.05689 0.08682
 N101 N 1.06037 -0.03874 0.03710
 N102 N 1.08588 -0.06067 0.04501
 N103 N 1.03613 0.02759 0.06110
 N104 N 1.04192 0.04988 0.08342
 C105 C 1.07259 0.06109 0.07069
 C106 C 1.07395 -0.07205 0.07572
 N107 N 0.93059 -0.02808 0.03643
 N108 N 0.90617 -0.04805 0.04233
 N109 N 0.95749 0.03394 0.06068
 N110 N 0.95211 0.05631 0.08389
 N111 N 0.93201 0.03604 0.03616
 N112 N 0.90851 0.05994 0.04206
 N113 N 0.95603 -0.03006 0.06103
 N114 N 0.94966 -0.05141 0.08431
 Mn115 Mn 0.99611 -0.00128 0.06146
 C116 C 0.91867 -0.06246 0.07211
 C117 C 0.92178 0.07243 0.07167
 N118 N 1.06041 -0.03891 -0.03919
 N119 N 1.08578 -0.06108 -0.04651
 N120 N 1.03639 0.02721 -0.06391
 N121 N 1.04214 0.04959 -0.08609
 N122 N 1.06166 0.02503 -0.03920
 N123 N 1.08529 0.04582 -0.04379
 N124 N 1.03515 -0.03684 -0.06395
 N125 N 1.04266 -0.05756 -0.08877
 Mn126 Mn 1.06133 -0.00691 -0.00118
 C127 C 1.07391 -0.07274 -0.07712
 C128 C 1.07262 0.06093 -0.07298
 N129 N 0.93209 0.03585 -0.04015
 N130 N 0.90854 0.05966 -0.04643
 N131 N 0.95620 -0.03049 -0.06442
 N132 N 0.94966 -0.05176 -0.08783
 N133 N 0.93065 -0.02834 -0.04004
 N134 N 0.90602 -0.04812 -0.04621
 N135 N 0.95767 0.03363 -0.06448
 N136 N 0.95229 0.05582 -0.08793
 Mn137 Mn 0.93089 0.00389 -0.00189
 Mn138 Mn 0.99635 -0.00164 -0.06456
 Cl139 Cl 0.99614 -0.00157 -0.00155
 C140 C 0.92183 0.07198 -0.07608
 C141 C 0.91846 -0.06263 -0.07593
 N142 N 1.06227 0.52471 0.54004
 N143 N 1.08573 0.54565 0.54458
 N144 N 1.03564 0.46287 0.56453
 N145 N 1.04327 0.44229 0.58948
 N146 N 1.06091 0.46079 0.53986
 N147 N 1.08639 0.43875 0.54740
 N148 N 1.03699 0.52690 0.56465
 N149 N 1.04255 0.54942 0.58671
 C150 C 1.07294 0.56082 0.57365
 C151 C 1.07459 0.42716 0.57804
 N152 N 0.93112 0.47168 0.54020
 N153 N 0.90639 0.45198 0.54625
 N154 N 0.95830 0.53351 0.56498
 N155 N 0.95287 0.55558 0.58860
 N156 N 0.93273 0.53585 0.54056
 N157 N 0.90914 0.55960 0.54693
 N158 N 0.95668 0.46943 0.56467
 N159 N 0.95007 0.44816 0.58801
 Mn160 Mn 0.99689 0.49816 0.56507
 C161 C 0.91882 0.43741 0.57597
 C162 C 0.92239 0.57178 0.57675
 N163 N 1.06082 0.46113 0.46355
 N164 N 1.08627 0.43917 0.45566
 N165 N 1.03680 0.52755 0.43967
 N166 N 1.04274 0.54979 0.41736
 N167 N 1.06223 0.52515 0.46421
 N168 N 1.08620 0.54565 0.45934
 N169 N 1.03541 0.46347 0.43896
 N170 N 1.04290 0.44314 0.41368
 Mn171 Mn 1.06189 0.49287 0.50193
 C172 C 1.07430 0.42790 0.42485
 C173 C 1.07351 0.56085 0.43018
 N174 N 0.93266 0.53618 0.46423
 N175 N 0.90914 0.56006 0.45823
 N176 N 0.95651 0.47009 0.43924
 N177 N 0.95012 0.44876 0.41591
 N178 N 0.93107 0.47209 0.46374
 N179 N 0.90664 0.45213 0.45774
 N180 N 0.95815 0.53408 0.43980
 N181 N 0.95274 0.55642 0.41656
 Mn182 Mn 0.93145 0.50397 0.50217
 Mn183 Mn 0.99668 0.49879 0.43906
 Cl184 Cl 0.99670 0.49836 0.50206
 C185 C 0.92240 0.57254 0.42867
 C186 C 0.91912 0.43772 0.42798
 N187 N 0.56527 0.02453 0.53860
 N188 N 0.58900 0.04529 0.54310
 N189 N 0.53874 -0.03709 0.56426
 N190 N 0.54637 -0.05733 0.58961
 N191 N 0.56403 -0.03950 0.53964
 N192 N 0.58953 -0.06142 0.54758
 N193 N 0.53996 0.02702 0.56316
 N194 N 0.54575 0.04957 0.58512
 C195 C 0.57632 0.06072 0.57207
 C196 C 0.57775 -0.07260 0.57846
 N197 N 0.43426 -0.02870 0.53952
 N198 N 0.40991 -0.04867 0.54558
 N199 N 0.46128 0.03344 0.56315
 N200 N 0.45579 0.05581 0.58635
 N201 N 0.43570 0.03539 0.53871
 N202 N 0.41205 0.05918 0.54467
 N203 N 0.45979 -0.03057 0.56403
 N204 N 0.45353 -0.05184 0.58744
 Mn205 Mn 0.49991 -0.00181 0.56401
 C206 C 0.42251 -0.06296 0.57538
 C207 C 0.42531 0.07179 0.57421
 N208 N 0.56370 -0.04019 0.46331
 N209 N 0.58906 -0.06235 0.45590
 N210 N 0.53954 0.02578 0.43819
 N211 N 0.54498 0.04815 0.41592
 N212 N 0.56497 0.02376 0.46276
 N213 N 0.58842 0.04466 0.45796
 N214 N 0.53826 -0.03824 0.43871
 N215 N 0.54563 -0.05903 0.41395
 Mn216 Mn 0.56483 -0.00793 0.50106
 C217 C 0.57698 -0.07414 0.42543
 C218 C 0.57545 0.05964 0.42879
 N219 N 0.43542 0.03470 0.46240
 N220 N 0.41177 0.05840 0.45594
 N221 N 0.45936 -0.03179 0.43861
 N222 N 0.45262 -0.05308 0.41530
 N223 N 0.43391 -0.02947 0.46308
 N224 N 0.40912 -0.04915 0.45706
 N225 N 0.46088 0.03229 0.43796
 N226 N 0.45531 0.05424 0.41423
 Mn227 Mn 0.43439 0.00301 0.50094
 Mn228 Mn 0.49951 -0.00301 0.43801
 Cl229 Cl 0.49963 -0.00252 0.50101
 C230 C 0.42487 0.07046 0.42605
 C231 C 0.42140 -0.06379 0.42736
 N232 N 0.56426 0.52373 0.03637
 N233 N 0.58771 0.54465 0.04118
 N234 N 0.53799 0.46170 0.06069
 N235 N 0.54548 0.44095 0.08548
 N236 N 0.56334 0.45975 0.03610
 N237 N 0.58877 0.43764 0.04354
 N238 N 0.53893 0.52575 0.06093
 N239 N 0.54443 0.54813 0.08321
 C240 C 0.57483 0.55965 0.07034
 C241 C 0.57682 0.42588 0.07403
 N242 N 0.43356 0.46995 0.03629
 N243 N 0.40889 0.45023 0.04241
 N244 N 0.46026 0.53194 0.06115
 N245 N 0.45457 0.55390 0.08487
 N246 N 0.43469 0.53415 0.03672
 N247 N 0.41084 0.55771 0.04319
 N248 N 0.45909 0.46783 0.06078
 N249 N 0.45252 0.44664 0.08421
 Mn250 Mn 0.49906 0.49679 0.06124
 C251 C 0.42133 0.43576 0.07219
 C252 C 0.42395 0.56991 0.07306
 N253 N 0.56340 0.46013 -0.04021
 N254 N 0.58901 0.43829 -0.04805
 N255 N 0.53891 0.52646 -0.06407
 N256 N 0.54457 0.54892 -0.08619
 N257 N 0.56429 0.52419 -0.03949
 N258 N 0.58793 0.54500 -0.04412
 N259 N 0.53801 0.46232 -0.06484
 N260 N 0.54570 0.44200 -0.09009
 Mn261 Mn 0.56416 0.49187 -0.00179
 C262 C 0.57720 0.42693 -0.07887
 C263 C 0.57513 0.56023 -0.07320
 N264 N 0.43475 0.53450 -0.03957
 N265 N 0.41131 0.55848 -0.04528
 N266 N 0.45902 0.46849 -0.06467
 N267 N 0.45266 0.44719 -0.08809
 N268 N 0.43358 0.47037 -0.04017
 N269 N 0.40920 0.45039 -0.04625
 N270 N 0.46023 0.53254 -0.06402
 N271 N 0.45489 0.55510 -0.08699
 Mn272 Mn 0.43371 0.50226 -0.00170
 Mn273 Mn 0.49901 0.49743 -0.06477
 Cl274 Cl 0.49896 0.49701 -0.00176
 C275 C 0.42458 0.57116 -0.07470
 C276 C 0.42169 0.43605 -0.07604
 C277 C 1.14064 0.15669 0.09916
 C278 C 1.12728 0.17672 0.13115
 C279 C 1.16467 0.16951 0.14893
 C280 C 1.17836 0.14988 0.11726
 C281 C 1.12696 0.12859 0.11769
 C282 C 1.16435 0.12145 0.13549
 C283 C 1.11326 0.14822 0.14936
 C284 C 1.15095 0.14139 0.16739
 C285 C 1.18612 0.19140 0.16732
 C286 C 1.20411 0.20842 0.18366
 C287 C 1.10663 0.10514 0.10076
 C288 C 1.09066 0.08527 0.08704
 H289 H 1.13614 0.16271 0.07089
 H290 H 1.11233 0.19972 0.12956
 H291 H 1.20536 0.15082 0.10426
 H292 H 1.17936 0.09847 0.13713
 H293 H 1.08627 0.14727 0.16237
 H294 H 1.15544 0.13533 0.19565
 C295 C 1.13944 0.65744 0.60000
 C296 C 1.12720 0.67702 0.63270
 C297 C 1.16540 0.67002 0.64884
 C298 C 1.17799 0.65085 0.61647
 C299 C 1.12706 0.62900 0.61884
 C300 C 1.16526 0.62208 0.63501
 C301 C 1.11447 0.64817 0.65121
 C302 C 1.15298 0.64156 0.66760
 C303 C 1.18716 0.69185 0.66672
 C304 C 1.20531 0.70878 0.68287
 C305 C 1.10658 0.60541 0.60265
 C306 C 1.09067 0.58532 0.58948
 H307 H 1.13356 0.66364 0.57199
 H308 H 1.11188 0.69990 0.63195
 H309 H 1.20434 0.65225 0.60242
 H310 H 1.18064 0.59922 0.63581
 H311 H 1.08812 0.64676 0.66528
 H312 H 1.15883 0.63530 0.69560
 C313 C 0.61308 0.15621 0.63947
 C314 C 0.64266 0.14947 0.66831
 C315 C 0.66762 0.17040 0.64881
 C316 C 0.63837 0.17754 0.62023
 C317 C 0.63028 0.12903 0.61796
 C318 C 0.65522 0.14995 0.59840
 C319 C 0.65954 0.12198 0.64655
 C320 C 0.68478 0.14321 0.62729
 C321 C 0.68888 0.19247 0.66714
 C322 C 0.70676 0.20952 0.68360
 C323 C 0.61015 0.10529 0.60134
 C324 C 0.59430 0.08519 0.58795
 H325 H 0.58337 0.16126 0.64431
 H326 H 0.63773 0.14952 0.69726
 H327 H 0.62996 0.20065 0.60961
 H328 H 0.66014 0.14986 0.56945
 H329 H 0.66802 0.09891 0.65723
 H330 H 0.71448 0.13814 0.62246
 C331 C 0.64094 0.65622 0.09843
 C332 C 0.62801 0.67564 0.13103
 C333 C 0.66593 0.66872 0.14780
 C334 C 0.67920 0.64970 0.11554
 C335 C 0.62836 0.62765 0.11685
 C336 C 0.66628 0.62080 0.13364
 C337 C 0.61509 0.64666 0.14912
 C338 C 0.65332 0.64013 0.16615
 C339 C 0.68731 0.69063 0.16608
 C340 C 0.70524 0.70766 0.18237
 C341 C 0.60823 0.60407 0.10010
 C342 C 0.59250 0.58405 0.08653
 H343 H 0.63555 0.66252 0.07037
 H344 H 0.61259 0.69848 0.13017
 H345 H 0.70579 0.65124 0.10195
 H346 H 0.68177 0.59799 0.13456
 H347 H 0.58851 0.64511 0.16272
 H348 H 0.65868 0.63378 0.19420
 C349 C 0.83829 -0.14844 0.10588
 C350 C 0.85659 -0.17651 0.12581
 C351 C 0.83014 -0.16963 0.15679
 C352 C 0.81156 -0.14191 0.13710
 C353 C 0.86530 -0.12818 0.12364
 C354 C 0.83885 -0.12130 0.15462
 C355 C 0.88392 -0.15589 0.14332
 C356 C 0.85714 -0.14938 0.17459
 C357 C 0.80996 -0.19271 0.17456
 C358 C 0.79265 -0.21173 0.18821
 C359 C 0.88454 -0.10496 0.10503
 C360 C 0.90017 -0.08569 0.08984
 H361 H 0.83074 -0.14782 0.07743
 H362 H 0.86368 -0.19947 0.11419
 H363 H 0.78158 -0.13640 0.13477
 H364 H 0.83175 -0.09833 0.16623
 H365 H 0.91390 -0.16138 0.14563
 H366 H 0.86466 -0.15003 0.20304
 C367 C 0.83685 0.35235 0.60988
 C368 C 0.85488 0.32387 0.62924
 C369 C 0.82886 0.33067 0.66058
 C370 C 0.81055 0.35882 0.64147
 C371 C 0.86446 0.37207 0.62764
 C372 C 0.83845 0.37888 0.65899
 C373 C 0.88280 0.34392 0.64675
 C374 C 0.85647 0.35037 0.67838
 C375 C 0.80854 0.30748 0.67820
 C376 C 0.79129 0.28826 0.69166
 C377 C 0.88405 0.39521 0.60906
 C378 C 0.89996 0.41436 0.59384
 H379 H 0.82895 0.35337 0.58153
 H380 H 0.86146 0.30099 0.61719
 H381 H 0.78062 0.36474 0.63950
 H382 H 0.83186 0.40176 0.67103
 H383 H 0.91273 0.33801 0.64870
 H384 H 0.86433 0.34932 0.70674
 C385 C 0.34134 -0.14822 0.60827
 C386 C 0.35898 -0.17661 0.62808
 C387 C 0.33231 -0.16963 0.65885
 C388 C 0.31439 -0.14158 0.63929
 C389 C 0.36855 -0.12844 0.62652
 C390 C 0.34188 -0.12146 0.65729
 C391 C 0.38652 -0.15647 0.64608
 C392 C 0.35950 -0.14987 0.67715
 C393 C 0.31149 -0.19251 0.67615
 C394 C 0.29366 -0.21133 0.68947
 C395 C 0.38824 -0.10534 0.60827
 C396 C 0.40405 -0.08613 0.59319
 H397 H 0.33410 -0.14729 0.57975
 H398 H 0.36578 -0.19955 0.61629
 H399 H 0.28450 -0.13570 0.63671
 H400 H 0.33506 -0.09852 0.66908
 H401 H 0.41641 -0.16233 0.64863
 H402 H 0.36672 -0.15082 0.70567
 C403 C 0.33904 0.35118 0.10696
 C404 C 0.35682 0.32287 0.12683
 C405 C 0.33070 0.33018 0.15798
 C406 C 0.31264 0.35816 0.13835
 C407 C 0.36671 0.37099 0.12449
 C408 C 0.34059 0.37830 0.15564
 C409 C 0.38480 0.34302 0.14411
 C410 C 0.35835 0.34997 0.17555
 C411 C 0.31004 0.30740 0.17593
 C412 C 0.29238 0.28860 0.18968
 C413 C 0.38645 0.39386 0.10565
 C414 C 0.40244 0.41285 0.09023
 H415 H 0.33129 0.35189 0.07857
 H416 H 0.36331 0.29983 0.11518
 H417 H 0.28274 0.36418 0.13619
 H418 H 0.33408 0.40134 0.16728
 H419 H 0.41470 0.33701 0.14625
 H420 H 0.36608 0.34924 0.20395
 C421 C 0.83061 0.15552 -0.12896
 C422 C 0.84344 0.18729 -0.13892
 C423 C 0.83502 0.18085 -0.17791
 C424 C 0.82191 0.14946 -0.16826
 C425 C 0.86971 0.14116 -0.13489
 C426 C 0.86120 0.13485 -0.17389
 C427 C 0.88296 0.17252 -0.14444
 C428 C 0.87412 0.16647 -0.18384
 C429 C 0.81458 0.20096 -0.20327
 C430 C 0.79654 0.21508 -0.22539
 C431 C 0.88854 0.11767 -0.11229
 C432 C 0.90376 0.09728 -0.09505
 H433 H 0.81289 0.15076 -0.10618
 H434 H 0.83596 0.20912 -0.12484
 H435 H 0.79659 0.14014 -0.17830
 H436 H 0.86860 0.11306 -0.18809
 H437 H 0.90831 0.18173 -0.13436
 H438 H 0.89183 0.17120 -0.20663
 C439 C 0.87557 0.64017 0.32866
 C440 C 0.83364 0.64438 0.32389
 C441 C 0.83572 0.67927 0.32457
 C442 C 0.87745 0.67534 0.32902
 C443 C 0.87018 0.64074 0.36895
 C444 C 0.87239 0.67560 0.36978
 C445 C 0.82846 0.64470 0.36443
 C446 C 0.83024 0.67991 0.36484
 C447 C 0.81543 0.69872 0.29860
 C448 C 0.79746 0.71250 0.27623
 C449 C 0.88892 0.61780 0.39217
 C450 C 0.90417 0.59767 0.40970
 H451 H 0.89436 0.62357 0.31400
 H452 H 0.81753 0.63171 0.30474
 H453 H 0.89736 0.68818 0.31419
 H454 H 0.88855 0.68815 0.38900
 H455 H 0.80850 0.63187 0.37921
 H456 H 0.81141 0.69653 0.37941
 C457 C 0.37680 0.13930 0.32642
 C458 C 0.33479 0.14332 0.32217
 C459 C 0.33648 0.17823 0.32386
 C460 C 0.37829 0.17450 0.32780
 C461 C 0.37193 0.13889 0.36677
 C462 C 0.37375 0.17378 0.36861
 C463 C 0.33013 0.14266 0.36276
 C464 C 0.33154 0.17788 0.36420
 C465 C 0.31559 0.19825 0.29875
 C466 C 0.29711 0.21248 0.27703
 C467 C 0.39112 0.11566 0.38944
 C468 C 0.40658 0.09549 0.40682
 H469 H 0.39556 0.12318 0.31108
 H470 H 0.31858 0.13095 0.30281
 H471 H 0.39788 0.18784 0.31319
 H472 H 0.39000 0.18603 0.38802
 H473 H 0.31049 0.12933 0.37732
 H474 H 0.31274 0.19401 0.37947
 C475 C 0.33334 0.65506 -0.12632
 C476 C 0.34640 0.68643 -0.13757
 C477 C 0.33687 0.67927 -0.17610
 C478 C 0.32352 0.64829 -0.16519
 C479 C 0.37208 0.64020 -0.13288
 C480 C 0.36246 0.63318 -0.17143
 C481 C 0.38558 0.67115 -0.14370
 C482 C 0.37560 0.66439 -0.18264
 C483 C 0.31610 0.69901 -0.20144
 C484 C 0.29774 0.71297 -0.22337
 C485 C 0.39112 0.61694 -0.11030
 C486 C 0.40645 0.59656 -0.09324
 H487 H 0.31617 0.65094 -0.10293
 H488 H 0.33958 0.70861 -0.12399
 H489 H 0.29778 0.63906 -0.17429
 H490 H 0.36919 0.61104 -0.18513
 H491 H 0.41134 0.68026 -0.13453
 H492 H 0.39277 0.66848 -0.20605
 C493 C 1.16434 -0.15926 -0.12551
 C494 C 1.14820 -0.18304 -0.15020
 C495 C 1.17279 -0.17301 -0.18019
 C496 C 1.18929 -0.14961 -0.15592
 C497 C 1.13439 -0.13518 -0.13807
 C498 C 1.15899 -0.12517 -0.16807
 C499 C 1.11795 -0.15860 -0.16236
 C500 C 1.14283 -0.14891 -0.19267
 C501 C 1.19311 -0.19408 -0.20436
 C502 C 1.20848 -0.21162 -0.22494
 C503 C 1.11269 -0.11369 -0.11541
 C504 C 1.09482 -0.09539 -0.09753
 H505 H 1.17286 -0.16327 -0.09761
 H506 H 1.14405 -0.20709 -0.14314
 H507 H 1.21885 -0.14617 -0.15360
 H508 H 1.16314 -0.10112 -0.17515
 H509 H 1.08839 -0.16206 -0.16473
 H510 H 1.13427 -0.14487 -0.22056
 C511 C 1.16405 0.34125 0.37529
 C512 C 1.14758 0.31761 0.35066
 C513 C 1.17220 0.32743 0.32057
 C514 C 1.18901 0.35071 0.34479
 C515 C 1.13427 0.36556 0.36286
 C516 C 1.15890 0.37537 0.33277
 C517 C 1.11752 0.34226 0.33862
 C518 C 1.14242 0.35175 0.30820
 C519 C 1.19235 0.30613 0.29636
 C520 C 1.20763 0.28840 0.27583
 C521 C 1.11281 0.38714 0.38578
 C522 C 1.09512 0.40540 0.40396
 H523 H 1.17267 0.33716 0.40315
 H524 H 1.14319 0.29361 0.35776
 H525 H 1.21863 0.35396 0.34705
 H526 H 1.16329 0.39936 0.32564
 H527 H 1.08791 0.33899 0.33632
 H528 H 1.13377 0.35588 0.28035
 C529 C 0.66628 -0.16105 0.37536
 C530 C 0.64943 -0.18442 0.35064
 C531 C 0.67366 -0.17432 0.32040
 C532 C 0.69086 -0.15132 0.34470
 C533 C 0.63641 -0.13660 0.36355
 C534 C 0.66065 -0.12652 0.33330
 C535 C 0.61926 -0.15962 0.33923
 C536 C 0.64378 -0.14985 0.30865
 C537 C 0.69342 -0.19528 0.29568
 C538 C 0.70848 -0.21269 0.27473
 C539 C 0.61527 -0.11514 0.38672
 C540 C 0.59773 -0.09683 0.40489
 H541 H 0.67524 -0.16542 0.40308
 H542 H 0.64509 -0.20849 0.35747
 H543 H 0.72052 -0.14815 0.34663
 H544 H 0.66499 -0.10246 0.32644
 H545 H 0.58961 -0.16281 0.33725
 H546 H 0.63478 -0.14545 0.28095
 C547 C 0.66763 0.34044 -0.12762
 C548 C 0.65140 0.31652 -0.15204
 C549 C 0.67603 0.32621 -0.18219
 C550 C 0.69261 0.34978 -0.15817
 C551 C 0.63774 0.36453 -0.14036
 C552 C 0.66238 0.37421 -0.17051
 C553 C 0.62122 0.34095 -0.16439
 C554 C 0.64614 0.35031 -0.19486
 C555 C 0.69631 0.30478 -0.20616
 C556 C 0.71161 0.28692 -0.22655
 C557 C 0.61606 0.38618 -0.11768
 C558 C 0.59819 0.40445 -0.09965
 H559 H 0.67619 0.33660 -0.09970
 H560 H 0.64714 0.29255 -0.14469
 H561 H 0.72219 0.35317 -0.15589
 H562 H 0.66664 0.39818 -0.17788
 H563 H 0.59165 0.33752 -0.16672
 H564 H 0.63754 0.35418 -0.22276
 C565 C 1.16315 0.12106 -0.13875
 C566 C 1.14905 0.14368 -0.16801
 C567 C 1.16611 0.16957 -0.14804
 C568 C 1.18051 0.14725 -0.11901
 C569 C 1.12746 0.12868 -0.11827
 C570 C 1.14449 0.15455 -0.09823
 C571 C 1.11304 0.15099 -0.14730
 C572 C 1.13042 0.17727 -0.12758
 C573 C 1.18802 0.19140 -0.16575
 C574 C 1.20626 0.20836 -0.18175
 C575 C 1.10674 0.10519 -0.10212
 C576 C 1.09062 0.08525 -0.08893
 H577 H 1.17635 0.09769 -0.14321
 H578 H 1.15120 0.13946 -0.19691
 H579 H 1.20848 0.14599 -0.10757
 H580 H 1.14232 0.15872 -0.06933
 H581 H 1.08507 0.15223 -0.15875
 H582 H 1.11729 0.20066 -0.12317
 C583 C 1.16990 0.62836 0.38448
 C584 C 1.17023 0.63431 0.34416
 C585 C 1.16556 0.66890 0.35141
 C586 C 1.16554 0.66330 0.39150
 C587 C 1.12806 0.62807 0.38295
 C588 C 1.12333 0.66265 0.39027
 C589 C 1.12813 0.63370 0.34287
 C590 C 1.12373 0.66863 0.34986
 C591 C 1.18687 0.69077 0.33287
 C592 C 1.20472 0.70778 0.31644
 C593 C 1.10777 0.60469 0.40003
 C594 C 1.09175 0.58492 0.41382
 H595 H 1.18867 0.61154 0.39888
 H596 H 1.18976 0.62288 0.32502
 H597 H 1.18115 0.67572 0.41128
 H598 H 1.10378 0.67403 0.40942
 H599 H 1.11254 0.62130 0.32305
 H600 H 1.10499 0.68547 0.33543
 C601 C 0.67047 0.12833 0.38462
 C602 C 0.67124 0.13441 0.34435
 C603 C 0.66611 0.16894 0.35178
 C604 C 0.66566 0.16321 0.39182
 C605 C 0.62871 0.12777 0.38254
 C606 C 0.62350 0.16228 0.39005
 C607 C 0.62920 0.13353 0.34251
 C608 C 0.62434 0.16841 0.34968
 C609 C 0.68742 0.19089 0.33361
 C610 C 0.70532 0.20793 0.31739
 C611 C 0.60867 0.10414 0.39918
 C612 C 0.59303 0.08407 0.41267
 H613 H 0.68919 0.11155 0.39915
 H614 H 0.69113 0.12321 0.32538
 H615 H 0.68090 0.17570 0.41184
 H616 H 0.60359 0.17342 0.40903
 H617 H 0.61399 0.12106 0.32245
 H618 H 0.60567 0.18520 0.33512
 C619 C 0.67077 0.62923 -0.11677
 C620 C 0.67181 0.63538 -0.15703
 C621 C 0.66651 0.66992 -0.14959
 C622 C 0.66578 0.66412 -0.10956
 C623 C 0.62902 0.62852 -0.11910
 C624 C 0.62365 0.66305 -0.11160
 C625 C 0.62980 0.63435 -0.15913
 C626 C 0.62476 0.66924 -0.15195
 C627 C 0.68789 0.69201 -0.16769
 C628 C 0.70587 0.70907 -0.18396
 C629 C 0.60884 0.60478 -0.10259
 C630 C 0.59300 0.58468 -0.08921
 H631 H 0.68949 0.61251 -0.10216
 H632 H 0.69186 0.62422 -0.17588
 H633 H 0.68081 0.67662 -0.08939
 H634 H 0.60358 0.67415 -0.09273
 H635 H 0.61480 0.62187 -0.17934
 H636 H 0.60608 0.68597 -0.16659
 C637 C 0.83563 -0.12117 -0.15689
 C638 C 0.85351 -0.14832 -0.17872
 C639 C 0.82836 -0.16977 -0.16030
 C640 C 0.81019 -0.14297 -0.13875
 C641 C 0.86412 -0.12823 -0.12755
 C642 C 0.83896 -0.14969 -0.10916
 C643 C 0.88232 -0.15502 -0.14909
 C644 C 0.85685 -0.17682 -0.13096
 C645 C 0.80795 -0.19301 -0.17787
 C646 C 0.79065 -0.21225 -0.19137
 C647 C 0.88377 -0.10500 -0.10906
 C648 C 0.89969 -0.08578 -0.09385
 H649 H 0.82707 -0.09805 -0.16738
 H650 H 0.85929 -0.14799 -0.20752
 H651 H 0.78031 -0.13822 -0.13468
 H652 H 0.83315 -0.15005 -0.08037
 H653 H 0.91220 -0.15976 -0.15315
 H654 H 0.86540 -0.19994 -0.12047
 C655 C 0.83705 0.37915 0.34716
 C656 C 0.85519 0.35238 0.32493
 C657 C 0.83041 0.33054 0.34315
 C658 C 0.81198 0.35695 0.36509
 C659 C 0.86568 0.37200 0.37633
 C660 C 0.84090 0.35015 0.39451
 C661 C 0.88415 0.34560 0.35440
 C662 C 0.85904 0.32339 0.37232
 C663 C 0.81016 0.30746 0.32538
 C664 C 0.79279 0.28845 0.31172
 C665 C 0.88497 0.39522 0.39495
 C666 C 0.90061 0.41450 0.41019
 H667 H 0.82819 0.40234 0.33704
 H668 H 0.86083 0.35303 0.29613
 H669 H 0.78208 0.36138 0.36926
 H670 H 0.83522 0.34948 0.42331
 H671 H 0.91406 0.34120 0.35024
 H672 H 0.86788 0.30019 0.38244
 C673 C 0.33409 -0.14431 0.39077
 C674 C 0.31349 -0.13899 0.35525
 C675 C 0.33082 -0.16994 0.34186
 C676 C 0.35113 -0.17559 0.37714
 C677 C 0.36667 -0.12887 0.37531
 C678 C 0.38403 -0.15981 0.36194
 C679 C 0.34636 -0.12320 0.34003
 C680 C 0.36340 -0.15451 0.32637
 C681 C 0.31027 -0.19288 0.32393
 C682 C 0.29272 -0.21181 0.31019
 C683 C 0.38637 -0.10586 0.39411
 C684 C 0.40239 -0.08679 0.40945
 H685 H 0.32221 -0.13992 0.41744
 H686 H 0.28427 -0.13062 0.35229
 H687 H 0.35292 -0.19738 0.39223
 H688 H 0.41325 -0.16816 0.36491
 H689 H 0.34457 -0.10141 0.32496
 H690 H 0.37525 -0.15892 0.29969
 C691 C 0.33482 0.35542 -0.11143
 C692 C 0.31438 0.36018 -0.14711
 C693 C 0.33154 0.32891 -0.15964
 C694 C 0.35168 0.32382 -0.12421
 C695 C 0.36760 0.37035 -0.12725
 C696 C 0.38478 0.33909 -0.13977
 C697 C 0.34745 0.37546 -0.16269
 C698 C 0.36430 0.34382 -0.17550
 C699 C 0.31091 0.30582 -0.17702
 C700 C 0.29335 0.28677 -0.19043
 C701 C 0.38729 0.39356 -0.10896
 C702 C 0.40314 0.41283 -0.09388
 H703 H 0.32290 0.36041 -0.08490
 H704 H 0.28522 0.36863 -0.15034
 H705 H 0.35322 0.30232 -0.10858
 H706 H 0.41394 0.33065 -0.13653
 H707 H 0.34591 0.39696 -0.17831
 H708 H 0.37619 0.33880 -0.20205
 C709 C 1.13046 -0.13485 0.17806
 C710 C 1.13004 -0.17012 0.17696
 C711 C 1.17198 -0.17294 0.17974
 C712 C 1.17269 -0.13797 0.18117
 C713 C 1.13399 -0.13461 0.13758
 C714 C 1.17594 -0.13741 0.14033
 C715 C 1.13327 -0.16959 0.13614
 C716 C 1.17556 -0.17275 0.13926
 C717 C 1.19220 -0.19435 0.20385
 C718 C 1.20759 -0.21215 0.22429
 C719 C 1.11250 -0.11293 0.11473
 C720 C 1.09479 -0.09461 0.09658
 H721 H 1.11166 -0.11907 0.19379
 H722 H 1.11136 -0.18379 0.19230
 H723 H 1.18914 -0.12519 0.19992
 H724 H 1.19458 -0.12371 0.12498
 H725 H 1.11681 -0.18236 0.11740
 H726 H 1.19437 -0.18856 0.12358
 C727 C 1.13193 0.36497 0.67996
 C728 C 1.13192 0.32967 0.67908
 C729 C 1.17387 0.32724 0.68175
 C730 C 1.17417 0.36223 0.68297
 C731 C 1.13537 0.36502 0.63949
 C732 C 1.17731 0.36262 0.64212
 C733 C 1.13506 0.33002 0.63826
 C734 C 1.17735 0.32724 0.64128
 C735 C 1.19422 0.30613 0.70597
 C736 C 1.20960 0.28851 0.72656
 C737 C 1.11359 0.38644 0.61669
 C738 C 1.09564 0.40465 0.59866
 H739 H 1.11298 0.38068 0.69562
 H740 H 1.11349 0.31590 0.69458
 H741 H 1.19050 0.37523 0.70160
 H742 H 1.19571 0.37642 0.62661
 H743 H 1.11871 0.31703 0.61964
 H744 H 1.19632 0.31150 0.62568
 C745 C 0.66952 -0.15790 0.62788
 C746 C 0.69230 -0.14879 0.66026
 C747 C 0.67585 -0.17387 0.68204
 C748 C 0.65341 -0.18333 0.65007
 C749 C 0.63787 -0.13529 0.64015
 C750 C 0.62148 -0.16038 0.66195
 C751 C 0.66032 -0.12584 0.67213
 C752 C 0.64420 -0.15124 0.69425
 C753 C 0.69598 -0.19544 0.70604
 C754 C 0.71117 -0.21341 0.72643
 C755 C 0.61636 -0.11351 0.61741
 C756 C 0.59862 -0.09516 0.59932
 H757 H 0.67967 -0.16042 0.60032
 H758 H 0.72164 -0.14426 0.65983
 H759 H 0.65083 -0.20722 0.64123
 H760 H 0.59215 -0.16494 0.66242
 H761 H 0.66290 -0.10196 0.68099
 H762 H 0.63402 -0.14870 0.72180
 C763 C 0.67663 0.35179 0.13069
 C764 C 0.68398 0.35817 0.17028
 C765 C 0.67366 0.32581 0.17926
 C766 C 0.66664 0.31904 0.14008
 C767 C 0.63640 0.36349 0.13599
 C768 C 0.62609 0.33113 0.14497
 C769 C 0.64346 0.37021 0.17518
 C770 C 0.63344 0.33755 0.18450
 C771 C 0.69342 0.30487 0.20404
 C772 C 0.70847 0.28749 0.22503
 C773 C 0.61524 0.38493 0.11277
 C774 C 0.59766 0.40322 0.09458
 H775 H 0.69410 0.35788 0.10824
 H776 H 0.70800 0.36903 0.18098
 H777 H 0.67647 0.29775 0.12596
 H778 H 0.60206 0.32026 0.13431
 H779 H 0.63365 0.39148 0.18936
 H780 H 0.61593 0.33148 0.20693
 C781 C 0.82879 0.14158 0.13962
 C782 C 0.83797 0.14439 0.17932
 C783 C 0.83546 0.17940 0.17543
 C784 C 0.82599 0.17689 0.13600
 C785 C 0.86978 0.14079 0.13115
 C786 C 0.86739 0.17578 0.12710
 C787 C 0.87918 0.14336 0.17059
 C788 C 0.87647 0.17868 0.16704
 C789 C 0.81526 0.19888 0.20137
 C790 C 0.79735 0.21267 0.22372
 C791 C 0.88844 0.11780 0.10799
 C792 C 0.90362 0.09762 0.09053
 H793 H 0.80937 0.12610 0.12814
 H794 H 0.82572 0.13165 0.20107
 H795 H 0.80392 0.19096 0.12207
 H796 H 0.87971 0.18840 0.10528
 H797 H 0.90122 0.12930 0.18460
 H798 H 0.89582 0.19417 0.17859
 C799 C 0.82930 0.64041 0.64548
 C800 C 0.83937 0.64549 0.68461
 C801 C 0.83487 0.68028 0.67852
 C802 C 0.82451 0.67547 0.63963
 C803 C 0.86991 0.64065 0.63571
 C804 C 0.86551 0.67541 0.62945
 C805 C 0.88021 0.64549 0.67461
 C806 C 0.87549 0.68059 0.66883
 C807 C 0.81426 0.70037 0.70374
 C808 C 0.79609 0.71452 0.72571
 C809 C 0.88891 0.61725 0.61313
 C810 C 0.90423 0.59695 0.59585
 H811 H 0.81046 0.62367 0.63571
 H812 H 0.82846 0.63333 0.70755
 H813 H 0.80142 0.68807 0.62548
 H814 H 0.87647 0.68746 0.60646
 H815 H 0.90327 0.63290 0.68882
 H816 H 0.89426 0.69735 0.67866
 C817 C 0.38019 0.17390 0.63726
 C818 C 0.33838 0.18300 0.63630
 C819 C 0.33710 0.17898 0.67662
 C820 C 0.37847 0.17026 0.67804
 C821 C 0.37235 0.14015 0.63316
 C822 C 0.37097 0.13623 0.67349
 C823 C 0.33097 0.14888 0.63177
 C824 C 0.32940 0.14521 0.67239
 C825 C 0.31639 0.19864 0.70209
 C826 C 0.29814 0.21257 0.72411
 C827 C 0.39148 0.11709 0.61036
 C828 C 0.40695 0.09692 0.59307
 H829 H 0.40132 0.18542 0.62249
 H830 H 0.32479 0.20252 0.62131
 H831 H 0.39779 0.17929 0.69730
 H832 H 0.38450 0.11675 0.68858
 H833 H 0.31164 0.13984 0.61254
 H834 H 0.30831 0.13357 0.68710
 C835 C 0.32918 0.64398 0.13437
 C836 C 0.33162 0.64291 0.17517
 C837 C 0.33592 0.67752 0.17565
 C838 C 0.33319 0.67891 0.13512
 C839 C 0.37100 0.63819 0.13253
 C840 C 0.37542 0.67278 0.13287
 C841 C 0.37365 0.63688 0.17307
 C842 C 0.37774 0.67176 0.17386
 C843 C 0.31526 0.69756 0.20089
 C844 C 0.29701 0.71182 0.22271
 C845 C 0.39008 0.61499 0.10975
 C846 C 0.40553 0.59487 0.09231
 H847 H 0.30937 0.63232 0.11794
 H848 H 0.31343 0.63077 0.19282
 H849 H 0.31637 0.69646 0.11977
 H850 H 0.39366 0.68481 0.11517
 H851 H 0.39041 0.61934 0.18850
 H852 H 0.39751 0.68342 0.19033
   
