data_POSCAR
  _audit_creation_date              2014-09-24
  _audit_creation_method            'ToBaCCo'
  _symmetry_space_group_name_H-M    'P1'
  _symmetry_Int_Tables_number       1
  _symmetry_cell_setting            triclinic
  loop_
  _symmetry_equiv_pos_as_xyz
 x,y,z
_cell_length_a 35.2249
_cell_length_b 32.6435
_cell_length_c 37.1338
_cell_angle_alpha 100.793900
_cell_angle_beta 94.551400
_cell_angle_gamma 95.921100
loop_
  _atom_site_label
  _atom_site_type_symbol
  _atom_site_fract_x
  _atom_site_fract_y
  _atom_site_fract_z
N1 N 0.26007 0.20804 0.16634
 N2 N 0.24455 0.24317 0.16768
 C3 C 0.25727 0.26273 0.14135
 C4 C 0.28245 0.23870 0.12293
 C5 C 0.28366 0.20426 0.13943
 H6 H 0.24996 0.29291 0.13692
 H7 H 0.30066 0.17862 0.13266
 Cu8 Cu 0.21126 0.26146 0.20527
 Cu9 Cu 0.24819 0.17054 0.20003
 Cu10 Cu 0.22824 0.22628 0.28378
 N11 N 0.18853 0.28364 0.24961
 N12 N 0.19581 0.27049 0.28053
 C13 C 0.17693 0.29145 0.30685
 C14 C 0.15650 0.31883 0.29131
 C15 C 0.16453 0.31317 0.25504
 H16 H 0.17734 0.28634 0.33482
 H17 H 0.15346 0.32911 0.23414
 N18 N 0.24549 0.17003 0.27756
 N19 N 0.25047 0.14769 0.24514
 C20 C 0.25710 0.10885 0.24905
 C21 C 0.25652 0.10690 0.28581
 C22 C 0.24935 0.14614 0.30318
 H23 H 0.26171 0.08389 0.22680
 H24 H 0.24521 0.15581 0.33196
 H25 H 0.20658 0.19832 0.23154
 H26 H 0.25680 0.22507 0.23671
 N27 N 0.68822 -0.25411 0.22637
 N28 N 0.70154 -0.27928 0.19966
 C29 C 0.67589 -0.28695 0.16953
 C30 C 0.64499 -0.26528 0.17809
 C31 C 0.65376 -0.24492 0.21438
 H32 H 0.67958 -0.30642 0.14336
 H33 H 0.63681 -0.22417 0.23067
 Cu34 Cu 0.75105 -0.29929 0.20724
 Cu35 Cu 0.71722 -0.23259 0.27392
 Cu36 Cu 0.80428 -0.26995 0.28935
 N37 N 0.79173 -0.33070 0.22159
 N38 N 0.81235 -0.31940 0.25371
 C39 C 0.83837 -0.34646 0.25622
 C40 C 0.83358 -0.37638 0.22398
 C41 C 0.80372 -0.36546 0.20257
 H42 H 0.85911 -0.34454 0.27977
 H43 H 0.79152 -0.38154 0.17533
 N44 N 0.78403 -0.22833 0.32628
 N45 N 0.75079 -0.21423 0.32014
 C46 C 0.74496 -0.18583 0.34980
 C47 C 0.77573 -0.18213 0.37594
 C48 C 0.80006 -0.20954 0.36034
 H49 H 0.72020 -0.16888 0.35234
 H50 H 0.82742 -0.21510 0.37270
 H51 H 0.77102 -0.23828 0.25745
 H52 H 0.74702 -0.28444 0.27334
 N53 N 0.68446 0.27439 0.84807
 N54 N 0.71265 0.30065 0.86771
 C55 C 0.70348 0.31174 0.90239
 C56 C 0.66776 0.29101 0.90460
 C57 C 0.65647 0.26753 0.86968
 H58 H 0.72155 0.33308 0.92436
 H59 H 0.62992 0.24706 0.86070
 Cu60 Cu 0.75932 0.31672 0.84674
 Cu61 Cu 0.68734 0.25020 0.79643
 Cu62 Cu 0.75844 0.29974 0.75467
 N63 N 0.79919 0.34379 0.82306
 N64 N 0.79931 0.33684 0.78703
 C65 C 0.82934 0.36089 0.77834
 C66 C 0.84874 0.38427 0.81075
 C67 C 0.82888 0.37254 0.83858
 H68 H 0.83591 0.36218 0.75057
 H69 H 0.83497 0.38463 0.86787
 N70 N 0.71873 0.25545 0.72699
 N71 N 0.69044 0.23843 0.74278
 C72 C 0.66761 0.21004 0.71707
 C73 C 0.68275 0.20843 0.68376
 C74 C 0.71532 0.23724 0.69098
 H75 H 0.64307 0.19017 0.72249
 H76 H 0.73531 0.24388 0.67157
 H77 H 0.74595 0.26178 0.79119
 H78 H 0.71584 0.30554 0.79074
 N79 N 0.35583 -0.19669 0.76618
 N80 N 0.33643 -0.23043 0.77313
 C81 C 0.35910 -0.24773 0.79568
 C82 C 0.39466 -0.22376 0.80230
 C83 C 0.39150 -0.19170 0.78320
 H84 H 0.35059 -0.27589 0.80589
 H85 H 0.41339 -0.16634 0.78195
 Cu86 Cu 0.28375 -0.24876 0.75093
 Cu87 Cu 0.33335 -0.16181 0.73584
 Cu88 Cu 0.26006 -0.20663 0.67359
 N89 N 0.23917 -0.27223 0.71458
 N90 N 0.23152 -0.25757 0.68428
 C91 C 0.20019 -0.28068 0.66473
 C92 C 0.18719 -0.31091 0.68388
 C93 C 0.21254 -0.30476 0.71532
 H94 H 0.18688 -0.27483 0.63924
 H95 H 0.21153 -0.32245 0.73718
 N96 N 0.29170 -0.15550 0.66888
 N97 N 0.32009 -0.13762 0.69378
 C98 C 0.33803 -0.10422 0.68310
 C99 C 0.31970 -0.10082 0.64974
 C100 C 0.29031 -0.13366 0.64150
 H101 H 0.36326 -0.08479 0.69790
 H102 H 0.27034 -0.14186 0.61688
 H103 H 0.26740 -0.19733 0.72994
 H104 H 0.30111 -0.22989 0.70499
 N105 N 0.70421 -0.23912 0.80495
 N106 N 0.72590 -0.26797 0.81133
 C107 C 0.71992 -0.27707 0.84460
 C108 C 0.69360 -0.25195 0.85970
 C109 C 0.68439 -0.22822 0.83399
 H110 H 0.73437 -0.29925 0.85725
 H111 H 0.66486 -0.20459 0.83640
 Cu112 Cu 0.76149 -0.28922 0.77638
 Cu113 Cu 0.70399 -0.21757 0.75990
 Cu114 Cu 0.76112 -0.24902 0.69560
 N115 N 0.79476 -0.30646 0.73703
 N116 N 0.79329 -0.29232 0.70589
 C117 C 0.81872 -0.30992 0.68455
 C118 C 0.83747 -0.33604 0.70327
 C119 C 0.82162 -0.33315 0.73642
 H120 H 0.82416 -0.30299 0.65794
 H121 H 0.82934 -0.34908 0.75849
 N122 N 0.73811 -0.19683 0.69755
 N123 N 0.71549 -0.18469 0.72295
 C124 C 0.70222 -0.14901 0.71735
 C125 C 0.71723 -0.13820 0.68666
 C126 C 0.73994 -0.16921 0.67470
 H127 H 0.68263 -0.13256 0.73406
 H128 H 0.75586 -0.17198 0.65079
 H129 H 0.73053 -0.28070 0.73017
 H130 H 0.76794 -0.23674 0.75211
 N131 N 0.30133 0.22302 0.76926
 N132 N 0.29709 0.25630 0.79401
 C133 C 0.32217 0.25854 0.82387
 C134 C 0.34331 0.22497 0.81723
 C135 C 0.32925 0.20296 0.78240
 H136 H 0.32535 0.28312 0.84827
 H137 H 0.33883 0.17478 0.76748
 Cu138 Cu 0.25925 0.29336 0.78422
 Cu139 Cu 0.27052 0.20880 0.72170
 Cu140 Cu 0.23383 0.29454 0.69545
 N141 N 0.22525 0.33230 0.77023
 N142 N 0.21458 0.33208 0.73542
 C143 C 0.19089 0.36165 0.73352
 C144 C 0.18669 0.38145 0.76905
 C145 C 0.20894 0.36214 0.79166
 H146 H 0.17790 0.36840 0.70822
 H147 H 0.21260 0.36900 0.82145
 N148 N 0.24229 0.24405 0.65988
 N149 N 0.25381 0.21043 0.67027
 C150 C 0.25691 0.18127 0.64019
 C151 C 0.24742 0.19749 0.60939
 C152 C 0.23821 0.23734 0.62275
 H153 H 0.26777 0.15153 0.64065
 H154 H 0.23006 0.26004 0.60670
 H155 H 0.27858 0.27122 0.72270
 H156 H 0.22807 0.25003 0.72629
 N157 N 0.30126 -0.25788 0.15383
 N158 N 0.29356 -0.29622 0.13415
 C159 C 0.31159 -0.29876 0.10325
 C160 C 0.33092 -0.25961 0.10343
 C161 C 0.32351 -0.23438 0.13574
 H162 H 0.31099 -0.32695 0.08246
 H163 H 0.33531 -0.20205 0.14642
 Cu164 Cu 0.26003 -0.33845 0.15094
 Cu165 Cu 0.28609 -0.24289 0.20356
 Cu166 Cu 0.26269 -0.32902 0.24244
 N167 N 0.22335 -0.37258 0.17300
 N168 N 0.22468 -0.36907 0.20897
 C169 C 0.19477 -0.39364 0.21705
 C170 C 0.17354 -0.41342 0.18445
 C171 C 0.19256 -0.39961 0.15693
 H172 H 0.18815 -0.39572 0.24466
 H173 H 0.18379 -0.40716 0.12764
 N174 N 0.28376 -0.27393 0.27189
 N175 N 0.28863 -0.24010 0.25727
 C176 C 0.29963 -0.20641 0.28444
 C177 C 0.30259 -0.22004 0.31747
 C178 C 0.29247 -0.26299 0.30862
 H179 H 0.30650 -0.17463 0.28037
 H180 H 0.29046 -0.28445 0.32752
 H181 H 0.29769 -0.30118 0.20774
 H182 H 0.24612 -0.29273 0.20738
 N183 N 0.64205 0.25397 0.25273
 N184 N 0.65694 0.29353 0.25800
 C185 C 0.63713 0.31337 0.23559
 C186 C 0.60854 0.28472 0.21457
 C187 C 0.61257 0.24709 0.22586
 H188 H 0.64342 0.34614 0.23422
 H189 H 0.59495 0.21733 0.21592
 Cu190 Cu 0.70196 0.31546 0.29222
 Cu191 Cu 0.66263 0.21570 0.28231
 Cu192 Cu 0.72324 0.26578 0.36028
 N193 N 0.75071 0.32996 0.32248
 N194 N 0.75835 0.31172 0.35046
 C195 C 0.79345 0.32779 0.36720
 C196 C 0.80875 0.35711 0.34816
 C197 C 0.78093 0.35770 0.31994
 H198 H 0.80746 0.31737 0.39028
 H199 H 0.78281 0.37634 0.29879
 N200 N 0.69761 0.20829 0.35452
 N201 N 0.67628 0.18822 0.32423
 C202 C 0.66612 0.14828 0.32777
 C203 C 0.68189 0.14331 0.36187
 C204 C 0.70144 0.18196 0.37808
 H205 H 0.64878 0.12456 0.30705
 H206 H 0.71846 0.18990 0.40452
 H207 H 0.67235 0.26465 0.32551
 H208 H 0.71605 0.24772 0.30475
 C209 C 0.23762 0.09623 0.44728
 C210 C 0.23852 0.07684 0.41122
 C211 C 0.26528 0.04858 0.41132
 N212 N 0.28086 0.05022 0.44607
 C213 C 0.26421 0.07951 0.46812
 C214 C 0.27687 0.02345 0.37985
 C215 C 0.29745 -0.01095 0.38260
 C216 C 0.31921 -0.02990 0.35613
 C217 C 0.32979 -0.06536 0.36719
 C218 C 0.31462 -0.06673 0.40032
 N219 N 0.29546 -0.03314 0.40981
 C220 C 0.31562 -0.10013 0.41944
 C221 C 0.31153 -0.09379 0.45754
 C222 C 0.30586 -0.12479 0.47812
 C223 C 0.30759 -0.10459 0.51424
 C224 C 0.31300 -0.06187 0.51437
 N225 N 0.31557 -0.05544 0.47975
 C226 C 0.31931 -0.02945 0.54592
 C227 C 0.31586 0.01298 0.54421
 C228 C 0.32743 0.04723 0.57264
 C229 C 0.31509 0.08176 0.56128
 C230 C 0.29558 0.06770 0.52648
 N231 N 0.29652 0.02583 0.51618
 C232 C 0.27466 0.09239 0.50645
 H233 H 0.21907 0.11950 0.45690
 H234 H 0.22100 0.08249 0.38778
 H235 H 0.28061 0.00633 0.49341
 H236 H 0.32639 -0.01964 0.33119
 H237 H 0.34655 -0.08770 0.35242
 H238 H 0.30084 -0.15843 0.46848
 H239 H 0.30493 -0.11994 0.53744
 H240 H 0.31963 0.11347 0.57726
 H241 H 0.27774 -0.02870 0.43105
 H242 H 0.34230 0.04765 0.59931
 C243 C 0.66284 0.10367 0.48584
 C244 C 0.65980 0.11672 0.52278
 C245 C 0.68078 0.09178 0.54103
 N246 N 0.69717 0.06467 0.51662
 C247 C 0.68606 0.07160 0.48283
 C248 C 0.68618 0.09543 0.57962
 C249 C 0.70259 0.06525 0.59673
 C250 C 0.71354 0.07040 0.63423
 C251 C 0.72198 0.03206 0.64060
 C252 C 0.71577 0.00444 0.60693
 N253 N 0.70444 0.02496 0.58028
 C254 C 0.71688 -0.03941 0.60188
 C255 C 0.72468 -0.06298 0.56788
 C256 C 0.72529 -0.10613 0.55957
 C257 C 0.73601 -0.11540 0.52448
 C258 C 0.74074 -0.07779 0.51226
 N259 N 0.73418 -0.04581 0.53887
 C260 C 0.75163 -0.07335 0.47731
 C261 C 0.74485 -0.03839 0.46115
 C262 C 0.75862 -0.03090 0.42868
 C263 C 0.74287 0.00352 0.42046
 C264 C 0.72026 0.01651 0.44832
 N265 N 0.72156 -0.00921 0.47297
 C266 C 0.69811 0.05048 0.44966
 H267 H 0.64955 0.11653 0.46386
 H268 H 0.64391 0.14164 0.53476
 H269 H 0.70410 -0.00963 0.49421
 H270 H 0.71417 0.09836 0.65524
 H271 H 0.73077 0.02505 0.66715
 H272 H 0.71861 -0.12888 0.57654
 H273 H 0.73897 -0.14644 0.50934
 H274 H 0.74775 0.01756 0.39679
 H275 H 0.69284 0.01065 0.55374
 H276 H 0.77769 -0.04864 0.41228
 C277 C 0.45871 0.28396 0.12641
 C278 C 0.42134 0.27796 0.11100
 C279 C 0.42178 0.26063 0.07399
 N280 N 0.45811 0.25564 0.06637
 C281 C 0.48082 0.27055 0.09823
 C282 C 0.38898 0.24894 0.04813
 C283 C 0.39080 0.23479 0.01005
 C284 C 0.36051 0.21264 -0.01429
 C285 C 0.37303 0.20711 -0.04882
 C286 C 0.41052 0.22648 -0.04466
 N287 N 0.42112 0.24319 -0.00864
 C288 C 0.43280 0.23087 -0.07404
 C289 C 0.47221 0.24614 -0.06880
 C290 C 0.49257 0.26117 -0.09497
 C291 C 0.52956 0.27296 -0.07914
 C292 C 0.53079 0.26388 -0.04403
 N293 N 0.49562 0.24744 -0.03786
 C294 C 0.56396 0.26940 -0.01864
 C295 C 0.56240 0.26233 0.01771
 C296 C 0.59341 0.25535 0.04026
 C297 C 0.58119 0.25569 0.07459
 C298 C 0.54292 0.26243 0.07202
 N299 N 0.53165 0.26603 0.03715
 C300 C 0.52114 0.27119 0.10232
 H301 H 0.46838 0.29687 0.15506
 H302 H 0.39677 0.28570 0.12549
 H303 H 0.50655 0.27716 0.02862
 H304 H 0.33226 0.20173 -0.00782
 H305 H 0.35617 0.19121 -0.07414
 H306 H 0.48168 0.26432 -0.12227
 H307 H 0.55251 0.28703 -0.09219
 H308 H 0.59890 0.25260 0.09886
 H309 H 0.44575 0.26350 0.00205
 H310 H 0.62216 0.25149 0.03300
 C311 C 0.45705 0.70221 0.07125
 C312 C 0.49356 0.69840 0.08487
 C313 C 0.51795 0.71163 0.06070
 N314 N 0.49749 0.72248 0.03237
 C315 C 0.46024 0.71696 0.03883
 C316 C 0.55823 0.72037 0.06812
 C317 C 0.58265 0.72629 0.04054
 C318 C 0.62106 0.74266 0.04709
 C319 C 0.63410 0.74384 0.01336
 C320 C 0.60318 0.72900 -0.01303
 N321 N 0.57225 0.71712 0.00376
 C322 C 0.60412 0.72607 -0.05155
 C323 C 0.57032 0.71720 -0.07623
 C324 C 0.56890 0.70601 -0.11431
 C325 C 0.53222 0.70889 -0.12807
 C326 C 0.51247 0.72215 -0.09809
 N327 N 0.53563 0.72677 -0.06645
 C328 C 0.47605 0.73644 -0.10035
 C329 C 0.45390 0.74237 -0.07007
 C330 C 0.42232 0.76452 -0.06781
 C331 C 0.40933 0.76311 -0.03409
 C332 C 0.43367 0.74072 -0.01635
 N333 N 0.46017 0.72730 -0.03886
 C334 C 0.43059 0.73233 0.01939
 H335 H 0.43140 0.69610 0.08450
 H336 H 0.50143 0.68882 0.11054
 H337 H 0.47996 0.70679 -0.03419
 H338 H 0.63811 0.75336 0.07333
 H339 H 0.66315 0.75462 0.00909
 H340 H 0.59176 0.69747 -0.13088
 H341 H 0.52167 0.70348 -0.15695
 H342 H 0.38486 0.77730 -0.02390
 H343 H 0.54605 0.70152 -0.00920
 H344 H 0.41002 0.78071 -0.08794
 C345 C 0.11044 0.48452 0.25326
 C346 C 0.11087 0.45758 0.27744
 C347 C 0.07298 0.44625 0.28254
 N348 N 0.04946 0.46554 0.26245
 C349 C 0.07227 0.48921 0.24462
 C350 C 0.06059 0.41580 0.30284
 C351 C 0.02209 0.40757 0.31022
 C352 C 0.00677 0.37127 0.32073
 C353 C -0.03075 0.37571 0.32622
 C354 C -0.03746 0.41463 0.31893
 N355 N -0.00507 0.43392 0.30916
 C356 C -0.07266 0.43159 0.32236
 C357 C -0.08291 0.46389 0.30438
 C358 C -0.11596 0.48317 0.30860
 C359 C -0.11675 0.50984 0.28414
 C360 C -0.08395 0.50630 0.26597
 N361 N -0.06345 0.47800 0.27829
 C362 C -0.07521 0.52629 0.23648
 C363 C -0.03994 0.52563 0.22054
 C364 C -0.03238 0.54145 0.18935
 C365 C 0.00539 0.53761 0.18428
 C366 C 0.02013 0.51934 0.21239
 N367 N -0.00763 0.51276 0.23464
 C368 C 0.05896 0.51204 0.21831
 H369 H 0.13553 0.49825 0.24287
 H370 H 0.13623 0.44703 0.28938
 H371 H -0.00371 0.50428 0.26009
 H372 H 0.02092 0.34402 0.32366
 H373 H -0.05094 0.35248 0.33409
 H374 H -0.13759 0.47815 0.32696
 H375 H -0.13927 0.52913 0.27995
 H376 H 0.02027 0.54824 0.16273
 H377 H -0.00068 0.46486 0.30558
 H378 H -0.05164 0.55544 0.17238
 C379 C 0.13252 0.51041 0.72523
 C380 C 0.13010 0.54222 0.70595
 C381 C 0.09447 0.55577 0.71046
 N382 N 0.07514 0.53342 0.73182
 C383 C 0.09818 0.50543 0.74071
 C384 C 0.08121 0.58982 0.69686
 C385 C 0.04379 0.60121 0.70028
 C386 C 0.03310 0.64011 0.69674
 C387 C -0.00558 0.63810 0.69964
 C388 C -0.01761 0.59805 0.70493
 N389 N 0.01270 0.57573 0.70545
 C390 C -0.05618 0.58278 0.70745
 C391 C -0.06648 0.54839 0.72418
 C392 C -0.10372 0.53162 0.72661
 C393 C -0.10116 0.50111 0.74728
 C394 C -0.06237 0.49978 0.75634
 N395 N -0.04132 0.52897 0.74241
 C396 C -0.04721 0.47432 0.77947
 C397 C -0.00766 0.46955 0.78489
 C398 C 0.00782 0.44708 0.80952
 C399 C 0.04623 0.44792 0.80535
 C400 C 0.05358 0.47096 0.77831
 N401 N 0.02038 0.48337 0.76556
 C402 C 0.08988 0.47780 0.76491
 H403 H 0.15701 0.49334 0.72789
 H404 H 0.15224 0.55428 0.69076
 H405 H 0.01643 0.49696 0.74270
 H406 H 0.05130 0.66730 0.69262
 H407 H -0.02284 0.66344 0.69824
 H408 H -0.13006 0.54075 0.71521
 H409 H -0.12523 0.48241 0.75495
 H410 H 0.06614 0.43242 0.82021
 H411 H 0.01138 0.54364 0.70489
 H412 H -0.00697 0.43069 0.82805
 C413 C 0.30534 0.24909 0.09390
 C414 C 0.29589 0.27593 0.07094
 C415 C 0.32540 0.27801 0.04950
 C416 C 0.35074 0.25267 0.06137
 O417 O 0.33864 0.23497 0.08826
 H418 H 0.27071 0.29227 0.07022
 H419 H 0.32877 0.29675 0.02855
 C420 C 0.61261 0.73729 0.15488
 C421 C 0.58369 0.76108 0.16538
 C422 C 0.55917 0.75694 0.13447
 C423 C 0.57453 0.73051 0.10738
 O424 O 0.60715 0.71863 0.11968
 H425 H 0.58117 0.78015 0.19204
 H426 H 0.53364 0.77238 0.13168
 C427 C 0.64610 0.29372 -0.06299
 C428 C 0.65725 0.32083 -0.02980
 C429 C 0.62830 0.31475 -0.00845
 C430 C 0.60175 0.28408 -0.03007
 O431 O 0.61255 0.27133 -0.06325
 H432 H 0.68287 0.34313 -0.02238
 H433 H 0.62627 0.33147 0.01926
 C434 C 0.42886 0.77022 -0.17492
 C435 C 0.46476 0.79112 -0.17567
 C436 C 0.48745 0.77968 -0.14889
 C437 C 0.46379 0.75248 -0.13377
 O438 O 0.42807 0.74671 -0.14953
 H439 H 0.47320 0.81298 -0.19300
 H440 H 0.51735 0.79112 -0.14031
 C441 C 0.13004 0.34664 0.30842
 C442 C 0.12256 0.35218 0.34481
 C443 C 0.09555 0.37944 0.34806
 C444 C 0.08866 0.38822 0.31336
 O445 O 0.10962 0.36848 0.28937
 H446 H 0.13503 0.33788 0.36624
 H447 H 0.08225 0.39129 0.37258
 C448 C 0.15411 0.66038 0.67468
 C449 C 0.13012 0.65532 0.64248
 C450 C 0.10031 0.62671 0.64583
 C451 C 0.10822 0.61655 0.67983
 O452 O 0.14101 0.63663 0.69731
 H453 H 0.13342 0.67119 0.61961
 H454 H 0.07512 0.61557 0.62645
 C455 C -0.14557 0.58968 0.21532
 C456 C -0.15157 0.56030 0.18276
 C457 C -0.12555 0.53277 0.18616
 C458 C -0.10555 0.54757 0.22035
 O459 O -0.11770 0.58194 0.23821
 H460 H -0.17252 0.55883 0.15948
 H461 H -0.12173 0.50503 0.16634
 C462 C -0.11939 0.41442 0.81450
 C463 C -0.10260 0.43839 0.84770
 C464 C -0.07328 0.46402 0.83890
 C465 C -0.07407 0.45351 0.80111
 O466 O -0.10217 0.42364 0.78612
 H467 H -0.11090 0.43770 0.87504
 H468 H -0.05361 0.48762 0.85766
 C469 C 0.26009 0.07029 0.30282
 C470 C 0.25397 0.02921 0.28406
 C471 C 0.25870 0.00572 0.31043
 C472 C 0.26813 0.03435 0.34322
 O473 O 0.26852 0.07356 0.33860
 H474 H 0.24612 0.01778 0.25486
 H475 H 0.25543 -0.02821 0.30627
 C476 C 0.66971 0.17809 0.64948
 C477 C 0.63201 0.16154 0.63894
 C478 C 0.63304 0.13055 0.60896
 C479 C 0.67131 0.13035 0.60368
 O480 O 0.69368 0.15917 0.62825
 H481 H 0.60703 0.16981 0.65255
 H482 H 0.60915 0.10873 0.59426
 C483 C 0.33118 -0.07117 0.62627
 C484 C 0.36571 -0.04569 0.63158
 C485 C 0.36578 -0.02605 0.60229
 C486 C 0.33100 -0.04049 0.58173
 O487 O 0.31011 -0.06816 0.59606
 H488 H 0.38861 -0.04286 0.65342
 H489 H 0.38874 -0.00456 0.59613
 C490 C 0.78055 -0.15418 0.41227
 C491 C 0.80887 -0.15420 0.44012
 C492 C 0.80177 -0.12391 0.46867
 C493 C 0.76980 -0.10771 0.45589
 O494 O 0.75691 -0.12602 0.42173
 H495 H 0.83168 -0.17403 0.43973
 H496 H 0.81796 -0.11454 0.49550
 C497 C 0.67907 0.75150 -0.10408
 C498 C 0.68279 0.78885 -0.07903
 C499 C 0.65752 0.78273 -0.05415
 C500 C 0.64001 0.74199 -0.06581
 O501 O 0.65293 0.72313 -0.09643
 H502 H 0.69967 0.81803 -0.08048
 H503 H 0.65025 0.80632 -0.03202
 C504 C 0.37511 0.21576 -0.15856
 C505 C 0.39998 0.18688 -0.16945
 C506 C 0.42533 0.18906 -0.13927
 C507 C 0.41386 0.21890 -0.11221
 O508 O 0.38337 0.23519 -0.12379
 H509 H 0.39987 0.16694 -0.19625
 H510 H 0.44916 0.17093 -0.13703
 C511 C 0.35728 0.75216 0.07730
 C512 C 0.36911 0.79312 0.07509
 C513 C 0.39649 0.79065 0.05120
 C514 C 0.39928 0.74836 0.04043
 O515 O 0.37560 0.72484 0.05640
 H516 H 0.35993 0.82145 0.09021
 H517 H 0.41383 0.81663 0.04389
 C518 C 0.58017 0.29387 0.18670
 C519 C 0.57054 0.33370 0.18635
 C520 C 0.54587 0.32974 0.15552
 C521 C 0.54225 0.28783 0.13920
 O522 O 0.56315 0.26578 0.15795
 H523 H 0.58083 0.36239 0.20595
 H524 H 0.53293 0.35460 0.14537
 C525 C -0.13270 0.64121 0.69189
 C526 C -0.11879 0.63891 0.65791
 C527 C -0.08904 0.61552 0.65885
 C528 C -0.08679 0.60545 0.69335
 O529 O -0.11344 0.62072 0.71341
 H530 H -0.12873 0.65296 0.63527
 H531 H -0.07054 0.60748 0.63732
 C532 C -0.15232 0.37973 0.35404
 C533 C -0.12702 0.38243 0.38492
 C534 C -0.09390 0.40361 0.37783
 C535 C -0.10146 0.41193 0.34304
 O536 O -0.13698 0.39770 0.32866
 H537 H -0.13194 0.36989 0.40936
 H538 H -0.06712 0.41118 0.39542
 C539 C 0.16313 0.41537 0.78044
 C540 C 0.16519 0.43861 0.81577
 C541 C 0.13838 0.46568 0.81454
 C542 C 0.12168 0.45657 0.77866
 O543 O 0.13685 0.42632 0.75775
 H544 H 0.18398 0.43612 0.83957
 H545 H 0.13139 0.48892 0.83709
 C546 C 0.13692 0.55945 0.18074
 C547 C 0.11857 0.53605 0.14805
 C548 C 0.08640 0.51529 0.15756
 C549 C 0.08731 0.52815 0.19524
 O550 O 0.11809 0.55468 0.20936
 H551 H 0.12788 0.53380 0.12074
 H552 H 0.06506 0.49305 0.13938
 C553 C 0.70858 -0.10271 0.66937
 C554 C 0.68100 -0.07717 0.67998
 C555 C 0.68074 -0.05008 0.65632
 C556 C 0.70851 -0.06062 0.63312
 O557 O 0.72536 -0.09283 0.64095
 H558 H 0.66261 -0.07870 0.70180
 H559 H 0.66198 -0.02593 0.65559
 C560 C 0.31394 -0.19401 0.35414
 C561 C 0.33522 -0.20620 0.38214
 C562 C 0.33997 -0.17230 0.41054
 C563 C 0.32015 -0.14241 0.39803
 O564 O 0.30496 -0.15546 0.36351
 H565 H 0.34671 -0.23579 0.38152
 H566 H 0.35627 -0.16965 0.43698
 C567 C 0.68037 0.10495 0.37745
 C568 C 0.66563 0.06534 0.35846
 C569 C 0.67077 0.03942 0.38286
 C570 C 0.68813 0.06520 0.41495
 O571 O 0.69401 0.10499 0.41172
 H572 H 0.65292 0.05639 0.33020
 H573 H 0.66253 0.00584 0.37807
 C574 C 0.25159 0.17781 0.57118
 C575 C 0.25500 0.19887 0.54251
 C576 C 0.26350 0.16969 0.51375
 C577 C 0.26394 0.13275 0.52686
 O578 O 0.25687 0.13792 0.56178
 H579 H 0.25356 0.23193 0.54308
 H580 H 0.27020 0.17524 0.48701
   
