data_POSCAR
  _audit_creation_date              2014-09-24
  _audit_creation_method            'ToBaCCo'
  _symmetry_space_group_name_H-M    'P1'
  _symmetry_Int_Tables_number       1
  _symmetry_cell_setting            triclinic
  loop_
  _symmetry_equiv_pos_as_xyz
 x,y,z
_cell_length_a 65.3531
_cell_length_b 62.9134
_cell_length_c 65.0584
_cell_angle_alpha 90.139300
_cell_angle_beta 89.949400
_cell_angle_gamma 90.265000
loop_
  _atom_site_label
  _atom_site_type_symbol
  _atom_site_fract_x
  _atom_site_fract_y
  _atom_site_fract_z
N1 N 0.60089 0.65461 0.60884
 N2 N 0.59137 0.64406 0.62347
 C3 C 0.57451 0.65484 0.62912
 C4 C 0.57352 0.67299 0.61736
 C5 C 0.59040 0.67245 0.60465
 H6 H 0.56381 0.64987 0.64088
 H7 H 0.59470 0.68413 0.59325
 Cu8 Cu 0.60175 0.61725 0.63374
 Cu9 Cu 0.62608 0.64434 0.59635
 Cu10 Cu 0.64821 0.60022 0.61874
 N11 N 0.61600 0.59492 0.64838
 N12 N 0.63415 0.58828 0.64249
 C13 C 0.64039 0.57273 0.65519
 C14 C 0.62531 0.56962 0.66972
 C15 C 0.61005 0.58386 0.66508
 H16 H 0.65474 0.56433 0.65394
 H17 H 0.59574 0.58602 0.67318
 N18 N 0.65997 0.61461 0.59456
 N19 N 0.65152 0.63145 0.58601
 C20 C 0.66293 0.63748 0.56977
 C21 C 0.67923 0.62379 0.56814
 C22 C 0.67699 0.60948 0.58398
 H23 H 0.65961 0.65074 0.55978
 H24 H 0.68695 0.59628 0.58742
 H25 H 0.62317 0.61239 0.60335
 H26 H 0.63534 0.62984 0.62326
 N27 N 0.89509 0.33989 0.11346
 N28 N 0.90116 0.34667 0.13161
 C29 C 0.91769 0.33551 0.13750
 C30 C 0.92204 0.32105 0.12218
 C31 C 0.90751 0.32413 0.10715
 H32 H 0.92587 0.33774 0.15179
 H33 H 0.90606 0.31557 0.09278
 Cu34 Cu 0.88692 0.36929 0.14599
 Cu35 Cu 0.87148 0.35189 0.09951
 Cu36 Cu 0.84978 0.39642 0.12181
 N37 N 0.87699 0.39628 0.15644
 N38 N 0.86247 0.40684 0.14698
 C39 C 0.85847 0.42477 0.15755
 C40 C 0.87121 0.42537 0.17442
 C41 C 0.88278 0.40714 0.17335
 H42 H 0.84715 0.43646 0.15333
 H43 H 0.89447 0.40217 0.18404
 N44 N 0.83919 0.38336 0.09637
 N45 N 0.84748 0.36637 0.08786
 C46 C 0.83678 0.36115 0.07087
 C47 C 0.82113 0.37556 0.06871
 C48 C 0.82300 0.38941 0.08503
 H49 H 0.84000 0.34781 0.06088
 H50 H 0.81320 0.40278 0.08842
 H51 H 0.87636 0.38161 0.11230
 H52 H 0.85647 0.36445 0.12476
 N53 N 0.39976 0.15527 -0.10962
 N54 N 0.40935 0.14461 -0.12411
 C55 C 0.42620 0.15551 -0.12982
 C56 C 0.42712 0.17385 -0.11824
 C57 C 0.41021 0.17330 -0.10557
 H58 H 0.43695 0.15049 -0.14150
 H59 H 0.40585 0.18510 -0.09429
 Cu60 Cu 0.39907 0.11752 -0.13416
 Cu61 Cu 0.37457 0.14488 -0.09709
 Cu62 Cu 0.35263 0.10013 -0.11910
 N63 N 0.38492 0.09479 -0.14862
 N64 N 0.36678 0.08800 -0.14270
 C65 C 0.36063 0.07220 -0.15529
 C66 C 0.37572 0.06907 -0.16978
 C67 C 0.39092 0.08358 -0.16521
 H68 H 0.34629 0.06365 -0.15402
 H69 H 0.40522 0.08581 -0.17333
 N70 N 0.34077 0.11474 -0.09510
 N71 N 0.34914 0.13182 -0.08670
 C72 C 0.33766 0.13796 -0.07054
 C73 C 0.32140 0.12407 -0.06883
 C74 C 0.32374 0.10955 -0.08452
 H75 H 0.34091 0.15142 -0.06068
 H76 H 0.31383 0.09617 -0.08785
 H77 H 0.37759 0.11286 -0.10378
 H78 H 0.36542 0.12985 -0.12388
 N79 N 0.10112 0.84621 0.38984
 N80 N 0.09161 0.85680 0.37530
 C81 C 0.07478 0.84589 0.36953
 C82 C 0.07383 0.82761 0.38113
 C83 C 0.09066 0.82820 0.39386
 H84 H 0.06409 0.85087 0.35783
 H85 H 0.09495 0.81647 0.40518
 Cu86 Cu 0.10195 0.88385 0.36532
 Cu87 Cu 0.12623 0.85667 0.40247
 Cu88 Cu 0.14828 0.90135 0.38060
 N89 N 0.11617 0.90654 0.35095
 N90 N 0.13427 0.91337 0.35696
 C91 C 0.14048 0.92913 0.34442
 C92 C 0.12547 0.93220 0.32987
 C93 C 0.11026 0.91769 0.33435
 H94 H 0.15480 0.93771 0.34577
 H95 H 0.09601 0.91543 0.32618
 N96 N 0.16001 0.88684 0.40464
 N97 N 0.15159 0.86978 0.41299
 C98 C 0.16299 0.86370 0.42918
 C99 C 0.17923 0.87760 0.43098
 C100 C 0.17698 0.89206 0.41530
 H101 H 0.15969 0.85028 0.43900
 H102 H 0.18691 0.90543 0.41201
 H103 H 0.12323 0.88866 0.39580
 H104 H 0.13555 0.87160 0.37573
 C105 C 0.10795 0.12662 0.14078
 C106 C 0.09242 0.14192 0.14009
 C107 C 0.09211 0.15703 0.12432
 C108 C 0.10730 0.15698 0.10912
 C109 C 0.12295 0.14180 0.10957
 C110 C 0.12330 0.12653 0.12547
 C111 C 0.10842 0.11141 0.15651
 C112 C 0.12400 0.09621 0.15705
 C113 C 0.13924 0.09608 0.14189
 C114 C 0.13901 0.11117 0.12606
 C115 C 0.15418 0.11120 0.11080
 C116 C 0.15380 0.12635 0.09506
 C117 C 0.13825 0.14159 0.09444
 H118 H 0.08059 0.14209 0.15179
 H119 H 0.10691 0.16876 0.09697
 H120 H 0.09670 0.11137 0.16832
 H121 H 0.15124 0.08424 0.14246
 H122 H 0.16630 0.09948 0.11114
 H123 H 0.13810 0.15325 0.08218
 C124 C 0.39239 0.87410 0.64048
 C125 C 0.40766 0.85851 0.63975
 C126 C 0.40773 0.84333 0.62397
 C127 C 0.39254 0.84360 0.60879
 C128 C 0.37716 0.85907 0.60928
 C129 C 0.37705 0.87440 0.62519
 C130 C 0.39216 0.88936 0.65623
 C131 C 0.37682 0.90483 0.65682
 C132 C 0.36160 0.90517 0.64168
 C133 C 0.36159 0.89003 0.62582
 C134 C 0.34641 0.89019 0.61059
 C135 C 0.34655 0.87497 0.59484
 C136 C 0.36186 0.85947 0.59417
 H137 H 0.41949 0.85816 0.65144
 H138 H 0.39273 0.83176 0.59664
 H139 H 0.40387 0.88923 0.66804
 H140 H 0.34978 0.91721 0.64228
 H141 H 0.33449 0.90212 0.61097
 H142 H 0.36182 0.84775 0.58192
 C143 C 0.89283 0.62606 0.35866
 C144 C 0.90821 0.64168 0.35918
 C145 C 0.90836 0.65709 0.37477
 C146 C 0.89315 0.65701 0.38995
 C147 C 0.87766 0.64151 0.38967
 C148 C 0.87747 0.62595 0.37397
 C149 C 0.89251 0.61057 0.34312
 C150 C 0.87705 0.59507 0.34275
 C151 C 0.86181 0.59492 0.35790
 C152 C 0.86190 0.61029 0.37355
 C153 C 0.84669 0.61030 0.38879
 C154 C 0.84692 0.62575 0.40434
 C155 C 0.86233 0.64129 0.40479
 H156 H 0.92006 0.64190 0.34749
 H157 H 0.89340 0.66901 0.40195
 H158 H 0.90423 0.61054 0.33131
 H159 H 0.84991 0.58285 0.35746
 H160 H 0.83468 0.59835 0.38857
 H161 H 0.86236 0.65318 0.41689
 C162 C 0.60918 0.37575 -0.14205
 C163 C 0.59376 0.36017 -0.14135
 C164 C 0.59371 0.34487 -0.12574
 C165 C 0.60904 0.34503 -0.11070
 C166 C 0.62457 0.36049 -0.11117
 C167 C 0.62467 0.37594 -0.12690
 C168 C 0.60940 0.39113 -0.15762
 C169 C 0.62488 0.40659 -0.15819
 C170 C 0.64025 0.40682 -0.14319
 C171 C 0.64027 0.39156 -0.12750
 C172 C 0.65559 0.39162 -0.11241
 C173 C 0.65545 0.37628 -0.09683
 C174 C 0.64001 0.36078 -0.09620
 H175 H 0.58183 0.35990 -0.15292
 H176 H 0.60886 0.33311 -0.09868
 H177 H 0.59758 0.39109 -0.16931
 H178 H 0.65218 0.41886 -0.14377
 H179 H 0.66762 0.40354 -0.11276
 H180 H 0.64005 0.34898 -0.08408
 C181 C -0.06264 0.30652 0.12205
 C182 C -0.04908 0.29359 0.12197
 C183 C -0.03294 0.27811 0.12193
 C184 C -0.03715 0.25700 0.11650
 C185 C -0.02152 0.24190 0.11660
 C186 C -0.00145 0.24773 0.12212
 C187 C 0.00263 0.26902 0.12750
 C188 C -0.01302 0.28409 0.12741
 C189 C 0.01514 0.23167 0.12236
 C190 C 0.03483 0.23680 0.11507
 C191 C 0.05043 0.22167 0.11537
 C192 C 0.04658 0.20125 0.12296
 C193 C 0.02706 0.19599 0.13024
 C194 C 0.01143 0.21108 0.12994
 C195 C 0.06267 0.18571 0.12336
 C196 C 0.07610 0.17266 0.12376
 H197 H -0.05250 0.25222 0.11218
 H198 H -0.02509 0.22572 0.11212
 H199 H 0.01786 0.27394 0.13208
 H200 H -0.00961 0.30037 0.13170
 H201 H 0.03809 0.25242 0.10890
 H202 H 0.06548 0.22590 0.10965
 H203 H 0.02393 0.18024 0.13622
 H204 H -0.00348 0.20673 0.13592
 C205 C 0.55803 0.68909 0.61810
 C206 C 0.54500 0.70258 0.61870
 C207 C 0.52943 0.71866 0.61939
 C208 C 0.53341 0.73896 0.61156
 C209 C 0.51827 0.75457 0.61216
 C210 C 0.49889 0.75006 0.62060
 C211 C 0.49505 0.72959 0.62843
 C212 C 0.51022 0.71401 0.62783
 C213 C 0.48276 0.76660 0.62119
 C214 C 0.46227 0.76135 0.61677
 C215 C 0.44710 0.77693 0.61732
 C216 C 0.45218 0.79795 0.62231
 C217 C 0.47250 0.80334 0.62674
 C218 C 0.48771 0.78779 0.62618
 C219 C 0.43654 0.81396 0.62289
 C220 C 0.42342 0.82736 0.62338
 H221 H 0.54821 0.74270 0.60493
 H222 H 0.52161 0.77008 0.60577
 H223 H 0.48039 0.72571 0.63527
 H224 H 0.50699 0.69836 0.63398
 H225 H 0.45803 0.74525 0.61261
 H226 H 0.43142 0.77260 0.61381
 H227 H 0.47659 0.81956 0.63067
 H228 H 0.50328 0.79228 0.62991
 C229 C 1.05915 0.81225 0.38032
 C230 C 1.04611 0.79866 0.37965
 C231 C 1.03049 0.78248 0.37889
 C232 C 1.01046 0.78779 0.37340
 C233 C 0.99524 0.77211 0.37276
 C234 C 0.99987 0.75088 0.37761
 C235 C 1.02008 0.74570 0.38307
 C236 C 1.03527 0.76141 0.38371
 C237 C 0.98369 0.73424 0.37704
 C238 C 0.98788 0.71390 0.36906
 C239 C 0.97263 0.69825 0.36855
 C240 C 0.95302 0.70269 0.37602
 C241 C 0.94870 0.72285 0.38398
 C242 C 0.96391 0.73853 0.38449
 C243 C 0.93733 0.68657 0.37553
 C244 C 0.92415 0.67311 0.37516
 H245 H 1.00661 0.80404 0.36958
 H246 H 0.97991 0.77655 0.36824
 H247 H 1.02407 0.72957 0.38714
 H248 H 1.05071 0.75714 0.38804
 H249 H 1.00287 0.71019 0.36297
 H250 H 0.97612 0.68270 0.36230
 H251 H 0.93358 0.72644 0.38986
 H252 H 0.96028 0.75393 0.39098
 C253 C 0.44259 0.19011 -0.11908
 C254 C 0.45562 0.20371 -0.11978
 C255 C 0.47122 0.21990 -0.12061
 C256 C 0.47072 0.23704 -0.10687
 C257 C 0.48592 0.25273 -0.10759
 C258 C 0.50188 0.25145 -0.12209
 C259 C 0.50223 0.23417 -0.13585
 C260 C 0.48699 0.21851 -0.13511
 C261 C 0.51811 0.26804 -0.12280
 C262 C 0.53868 0.26241 -0.12599
 C263 C 0.55396 0.27802 -0.12661
 C264 C 0.54889 0.29946 -0.12407
 C265 C 0.52848 0.30523 -0.12091
 C266 C 0.51317 0.28964 -0.12027
 C267 C 0.56465 0.31550 -0.12467
 C268 C 0.57788 0.32890 -0.12516
 H269 H 0.45861 0.23824 -0.09554
 H270 H 0.48537 0.26568 -0.09662
 H271 H 0.51414 0.23288 -0.14736
 H272 H 0.48750 0.20534 -0.14585
 H273 H 0.54301 0.24591 -0.12772
 H274 H 0.56973 0.27337 -0.12900
 H275 H 0.52438 0.32179 -0.11898
 H276 H 0.49745 0.29451 -0.11806
 C277 C 0.12557 -0.05250 0.31353
 C278 C 0.12562 -0.03962 0.29984
 C279 C 0.12564 -0.02420 0.28353
 C280 C 0.13104 -0.00307 0.28762
 C281 C 0.13096 0.01196 0.27182
 C282 C 0.12548 0.00601 0.25169
 C283 C 0.12011 -0.01530 0.24773
 C284 C 0.12019 -0.03029 0.26356
 C285 C 0.12530 0.02198 0.23491
 C286 C 0.13261 0.01675 0.21519
 C287 C 0.13240 0.03179 0.19941
 C288 C 0.12488 0.05224 0.20311
 C289 C 0.11758 0.05761 0.22266
 C290 C 0.11779 0.04260 0.23847
 C291 C 0.12461 0.06770 0.18685
 C292 C 0.12435 0.08068 0.17326
 H293 H 0.13534 0.00180 0.30301
 H294 H 0.13542 0.02816 0.27530
 H295 H 0.11557 -0.02031 0.23246
 H296 H 0.11592 -0.04660 0.26024
 H297 H 0.13872 0.00111 0.21204
 H298 H 0.13813 0.02749 0.18434
 H299 H 0.11167 0.07337 0.22567
 H300 H 0.11181 0.04703 0.25340
 C301 C 0.62539 0.55529 -0.31469
 C302 C 0.62544 0.54254 -0.30088
 C303 C 0.62546 0.52727 -0.28445
 C304 C 0.60884 0.52605 -0.27092
 C305 C 0.60879 0.51113 -0.25503
 C306 C 0.62540 0.49722 -0.25246
 C307 C 0.64206 0.49862 -0.26612
 C308 C 0.64207 0.51354 -0.28201
 C309 C 0.62531 0.48128 -0.23565
 C310 C 0.64324 0.47711 -0.22443
 C311 C 0.64315 0.46205 -0.20866
 C312 C 0.62516 0.45094 -0.20392
 C313 C 0.60724 0.45498 -0.21497
 C314 C 0.60729 0.47005 -0.23073
 C315 C 0.62509 0.43536 -0.18776
 C316 C 0.62501 0.42227 -0.17426
 H317 H 0.59593 0.53664 -0.27264
 H318 H 0.59587 0.51063 -0.24461
 H319 H 0.65494 0.48796 -0.26471
 H320 H 0.65498 0.51431 -0.29244
 H321 H 0.65728 0.48568 -0.22767
 H322 H 0.65709 0.45908 -0.20017
 H323 H 0.59325 0.44642 -0.21146
 H324 H 0.59332 0.47269 -0.23926
 C325 C 0.37569 1.05374 0.81383
 C326 C 0.37569 1.04084 0.80010
 C327 C 0.37572 1.02540 0.78374
 C328 C 0.37122 1.00408 0.78792
 C329 C 0.37132 0.98904 0.77207
 C330 C 0.37592 0.99516 0.75178
 C331 C 0.38040 1.01665 0.74773
 C332 C 0.38031 1.03165 0.76362
 C333 C 0.37608 0.97918 0.73493
 C334 C 0.36793 0.98411 0.71551
 C335 C 0.36808 0.96905 0.69967
 C336 C 0.37639 0.94889 0.70301
 C337 C 0.38455 0.94384 0.72226
 C338 C 0.38440 0.95886 0.73812
 C339 C 0.37654 0.93340 0.68671
 C340 C 0.37666 0.92039 0.67307
 H341 H 0.36759 0.99908 0.80344
 H342 H 0.36754 0.97269 0.77563
 H343 H 0.38426 1.02180 0.73234
 H344 H 0.38388 1.04811 0.76023
 H345 H 0.36119 0.99951 0.71265
 H346 H 0.36167 0.97311 0.68485
 H347 H 0.39107 0.92829 0.72499
 H348 H 0.39103 0.95468 0.75281
 C349 C 0.87204 0.44152 0.19004
 C350 C 0.87267 0.45504 0.20318
 C351 C 0.87334 0.47117 0.21890
 C352 C 0.85722 0.48559 0.22089
 C353 C 0.85777 0.50117 0.23625
 C354 C 0.87448 0.50252 0.24983
 C355 C 0.89063 0.48797 0.24766
 C356 C 0.89004 0.47239 0.23230
 C357 C 0.87500 0.51898 0.26623
 C358 C 0.89333 0.52977 0.27094
 C359 C 0.89379 0.54524 0.28641
 C360 C 0.87599 0.55010 0.29738
 C361 C 0.85769 0.53945 0.29283
 C362 C 0.85719 0.52400 0.27736
 C363 C 0.87647 0.56598 0.31334
 C364 C 0.87678 0.57925 0.32673
 H365 H 0.84424 0.48482 0.21057
 H366 H 0.84523 0.51231 0.23735
 H367 H 0.90357 0.48842 0.25803
 H368 H 0.90257 0.46126 0.23093
 H369 H 0.90723 0.52646 0.26248
 H370 H 0.90802 0.55342 0.28978
 H371 H 0.84383 0.54305 0.30127
 H372 H 0.84292 0.51577 0.27429
 C373 C 0.30549 0.12444 -0.05360
 C374 C 0.29215 0.12470 -0.04079
 C375 C 0.27626 0.12495 -0.02546
 C376 C 0.27182 0.14375 -0.01485
 C377 C 0.25645 0.14398 0.00011
 C378 C 0.24532 0.12537 0.00467
 C379 C 0.24989 0.10656 -0.00612
 C380 C 0.26526 0.10637 -0.02108
 C381 C 0.22905 0.12556 0.02063
 C382 C 0.22689 0.10845 0.03437
 C383 C 0.21161 0.10866 0.04942
 C384 C 0.19829 0.12594 0.05094
 C385 C 0.20029 0.14303 0.03734
 C386 C 0.21557 0.14286 0.02229
 C387 C 0.18258 0.12613 0.06646
 C388 C 0.16945 0.12625 0.07948
 H389 H 0.28029 0.15821 -0.01808
 H390 H 0.25347 0.15863 0.00832
 H391 H 0.24142 0.09206 -0.00316
 H392 H 0.26854 0.09175 -0.02924
 H393 H 0.23720 0.09504 0.03367
 H394 H 0.21023 0.09538 0.05991
 H395 H 0.19002 0.15646 0.03835
 H396 H 0.21667 0.15614 0.01178
 C397 C 0.69510 0.62413 0.55287
 C398 C 0.70839 0.62439 0.54001
 C399 C 0.72422 0.62468 0.52461
 C400 C 0.71949 0.62999 0.50430
 C401 C 0.73483 0.63019 0.48930
 C402 C 0.75513 0.62507 0.49445
 C403 C 0.75972 0.61978 0.51493
 C404 C 0.74435 0.61958 0.52990
 C405 C 0.77142 0.62521 0.47851
 C406 C 0.79100 0.63338 0.48298
 C407 C 0.80632 0.63350 0.46796
 C408 C 0.80228 0.62546 0.44830
 C409 C 0.78286 0.61729 0.44370
 C410 C 0.76752 0.61717 0.45869
 C411 C 0.81804 0.62558 0.43284
 C412 C 0.83122 0.62567 0.41987
 H413 H 0.70396 0.63402 0.50005
 H414 H 0.73086 0.63460 0.47374
 H415 H 0.77514 0.61550 0.51932
 H416 H 0.74817 0.61538 0.54557
 H417 H 0.79440 0.63992 0.49801
 H418 H 0.82128 0.63991 0.47167
 H419 H 0.77959 0.61097 0.42854
 H420 H 0.75269 0.61052 0.45485
 C421 C 0.80579 0.37583 0.05293
 C422 C 0.79288 0.37602 0.03971
 C423 C 0.77742 0.37620 0.02398
 C424 C 0.77603 0.35938 0.00992
 C425 C 0.76093 0.35945 -0.00528
 C426 C 0.74699 0.37638 -0.00662
 C427 C 0.74855 0.39324 0.00756
 C428 C 0.76366 0.39312 0.02276
 C429 C 0.73085 0.37640 -0.02268
 C430 C 0.72582 0.39527 -0.03306
 C431 C 0.71058 0.39528 -0.04813
 C432 C 0.70017 0.37645 -0.05303
 C433 C 0.70506 0.35760 -0.04281
 C434 C 0.72030 0.35756 -0.02775
 C435 C 0.68444 0.37647 -0.06849
 C436 C 0.67124 0.37642 -0.08143
 H437 H 0.78664 0.34623 0.01070
 H438 H 0.76030 0.34639 -0.01613
 H439 H 0.73788 0.40635 0.00710
 H440 H 0.76455 0.40619 0.03360
 H441 H 0.73384 0.40997 -0.02969
 H442 H 0.70695 0.40995 -0.05599
 H443 H 0.69705 0.34295 -0.04644
 H444 H 0.72363 0.34284 -0.01985
 C445 C 0.19508 0.87726 0.44625
 C446 C 0.20835 0.87700 0.45910
 C447 C 0.22416 0.87670 0.47448
 C448 C 0.22310 0.86217 0.49070
 C449 C 0.23841 0.86192 0.50570
 C450 C 0.25500 0.87621 0.50465
 C451 C 0.25594 0.89074 0.48825
 C452 C 0.24060 0.89097 0.47328
 C453 C 0.27124 0.87600 0.52061
 C454 C 0.29194 0.87854 0.51513
 C455 C 0.30721 0.87834 0.53017
 C456 C 0.30200 0.87561 0.55087
 C457 C 0.28146 0.87307 0.55648
 C458 C 0.26617 0.87325 0.54147
 C459 C 0.31772 0.87540 0.56634
 C460 C 0.33087 0.87521 0.57932
 H461 H 0.21047 0.85101 0.49174
 H462 H 0.23739 0.85036 0.51797
 H463 H 0.26836 0.90212 0.48716
 H464 H 0.24154 0.90232 0.46082
 H465 H 0.29636 0.88041 0.49919
 H466 H 0.32307 0.88026 0.52565
 H467 H 0.27726 0.87101 0.57247
 H468 H 0.25037 0.87154 0.54620
   
