data_POSCAR
  _audit_creation_date              2014-09-24
  _audit_creation_method            'ToBaCCo'
  _symmetry_space_group_name_H-M    'P1'
  _symmetry_Int_Tables_number       1
  _symmetry_cell_setting            triclinic
  loop_
  _symmetry_equiv_pos_as_xyz
 x,y,z
_cell_length_a 44.1060
_cell_length_b 48.0746
_cell_length_c 29.4449
_cell_angle_alpha 89.986400
_cell_angle_beta 90.057900
_cell_angle_gamma 119.183400
loop_
  _atom_site_label
  _atom_site_type_symbol
  _atom_site_fract_x
  _atom_site_fract_y
  _atom_site_fract_z
C1 C 0.48477 0.91674 0.50342
 C2 C 0.49553 0.93355 0.54474
 C3 C 0.51063 0.96704 0.54332
 C4 C 0.51247 0.98347 0.50272
 C5 C 0.49937 0.96541 0.46265
 C6 C 0.48693 0.93244 0.46250
 C7 C 0.52898 1.01928 0.50213
 C8 C 0.54255 1.03672 0.46159
 C9 C 0.55894 1.07034 0.46068
 C10 C 0.56383 1.08649 0.50226
 C11 C 0.55102 1.06983 0.54297
 C12 C 0.53245 1.03648 0.54240
 H13 H 0.47271 0.89102 0.50276
 H14 H 0.52259 0.98033 0.57381
 H15 H 0.49929 0.97670 0.43097
 H16 H 0.54217 1.02438 0.43082
 H17 H 0.57589 1.11220 0.50332
 H18 H 0.52151 1.02429 0.57398
 C19 C 0.08943 0.57501 0.49804
 C20 C 0.07157 0.56733 0.53980
 C21 C 0.03531 0.54666 0.53909
 C22 C 0.01748 0.53156 0.49879
 C23 C 0.03686 0.53845 0.45828
 C24 C 0.07228 0.56094 0.45741
 C25 C -0.02111 0.50903 0.49897
 C26 C -0.04089 0.50227 0.45867
 C27 C -0.07695 0.48083 0.45797
 C28 C -0.09357 0.46767 0.49954
 C29 C -0.07475 0.47453 0.54019
 C30 C -0.03866 0.49429 0.53947
 H31 H 0.11726 0.59037 0.49680
 H32 H 0.02086 0.54353 0.56997
 H33 H 0.02471 0.52680 0.42683
 H34 H -0.02870 0.51495 0.42788
 H35 H -0.12116 0.45119 0.50068
 H36 H -0.02463 0.49754 0.57087
 C37 C 0.45046 0.53867 0.50378
 C38 C 0.45867 0.52911 0.54508
 C39 C 0.46796 0.50490 0.54372
 C40 C 0.46644 0.48856 0.50321
 C41 C 0.45644 0.49784 0.46298
 C42 C 0.44965 0.52348 0.46278
 C43 C 0.47635 0.46271 0.50314
 C44 C 0.48848 0.45492 0.46340
 C45 C 0.49867 0.43139 0.46383
 C46 C 0.49865 0.41673 0.50504
 C47 C 0.48766 0.42464 0.54527
 C48 C 0.47500 0.44633 0.54351
 H49 H 0.44266 0.55680 0.50326
 H50 H 0.47813 0.49998 0.57419
 H51 H 0.45441 0.48569 0.43133
 H52 H 0.49029 0.46708 0.43185
 H53 H 0.50869 0.40018 0.50608
 H54 H 0.46446 0.45046 0.57429
 O55 O 0.39738 0.66920 -0.03589
 O56 O 0.40125 0.72418 -0.04879
 C57 C 0.38713 0.74081 -0.05898
 O58 O 0.36093 0.73873 -0.03785
 O59 O 0.30198 0.68811 -0.05503
 C60 C 0.28443 0.65889 -0.06529
 O61 O 0.28624 0.63708 -0.04295
 O62 O 0.34287 0.63331 -0.05335
 C63 C 0.37529 0.64642 -0.06016
 O64 O 0.39318 0.67659 0.05463
 O65 O 0.40040 0.73302 0.04187
 C66 C 0.37933 0.73934 0.06298
 O67 O 0.34770 0.72751 0.05192
 O68 O 0.28757 0.67836 0.03496
 C69 C 0.28011 0.65289 0.05664
 O70 O 0.29375 0.63565 0.04779
 O71 O 0.34849 0.62907 0.03745
 C72 C 0.37441 0.64706 0.06220
 Cr73 Cr 0.39616 0.70001 0.00285
 Cr74 Cr 0.32535 0.70714 -0.00147
 Cr75 Cr 0.31892 0.63555 -0.00270
 O76 O 0.34680 0.68091 -0.00042
 O77 O 0.59281 0.31551 -0.03574
 O78 O 0.60620 0.26888 -0.04721
 C79 C 0.62729 0.25885 -0.05604
 O80 O 0.65546 0.26784 -0.03409
 O81 O 0.70460 0.32505 -0.05205
 C82 C 0.71498 0.35377 -0.06281
 O83 O 0.70626 0.37158 -0.04082
 O84 O 0.64230 0.35922 -0.05340
 C85 C 0.61039 0.34008 -0.06022
 O86 O 0.59926 0.31079 0.05521
 O87 O 0.60935 0.26216 0.04339
 C88 C 0.63462 0.26331 0.06583
 O89 O 0.66603 0.28197 0.05564
 O90 O 0.71734 0.33833 0.03762
 C91 C 0.71644 0.36073 0.05962
 O92 O 0.69567 0.37094 0.04986
 O93 O 0.63330 0.36174 0.03681
 C94 C 0.61061 0.34023 0.06215
 Cr95 Cr 0.60371 0.29045 0.00382
 Cr96 Cr 0.68464 0.30387 0.00176
 Cr97 Cr 0.66880 0.36419 -0.00183
 O98 O 0.65237 0.31948 0.00109
 C99 C 0.47472 0.88230 -0.33073
 C100 C 0.48157 0.87021 -0.37045
 C101 C 0.48912 0.88724 -0.41114
 C102 C 0.49047 0.91719 -0.41333
 C103 C 0.48500 0.92973 -0.37266
 C104 C 0.47695 0.91240 -0.33216
 C105 C 0.46412 0.86307 -0.28855
 N106 N 0.44880 0.87037 -0.25402
 N107 N 0.43782 0.85220 -0.21697
 C108 C 0.44186 0.82604 -0.21284
 N109 N 0.45746 0.81893 -0.24719
 N110 N 0.46827 0.83699 -0.28431
 C111 C 0.42877 0.80518 -0.17237
 C112 C 0.43891 0.78210 -0.16417
 C113 C 0.42578 0.76164 -0.12698
 C114 C 0.40193 0.76353 -0.09725
 C115 C 0.39193 0.78676 -0.10520
 C116 C 0.40538 0.80750 -0.14223
 H117 H 0.48042 0.84719 -0.37042
 H118 H 0.49463 0.87697 -0.44054
 H119 H 0.48477 0.95213 -0.37221
 H120 H 0.47192 0.92245 -0.30206
 H121 H 0.45697 0.77974 -0.18660
 H122 H 0.43393 0.74393 -0.12198
 H123 H 0.37364 0.78886 -0.08290
 H124 H 0.39697 0.82497 -0.14768
 C125 C 0.12915 0.59915 -0.33690
 C126 C 0.09705 0.57100 -0.33801
 C127 C 0.07752 0.56120 -0.37800
 C128 C 0.08977 0.57903 -0.41853
 C129 C 0.12158 0.60787 -0.41656
 C130 C 0.14082 0.61780 -0.37636
 C131 C 0.15092 0.60842 -0.29537
 N132 N 0.17915 0.63783 -0.29158
 N133 N 0.19943 0.64578 -0.25496
 C134 C 0.19250 0.62460 -0.22069
 N135 N 0.16422 0.59521 -0.22440
 N136 N 0.14383 0.58731 -0.26094
 C137 C 0.21562 0.63327 -0.18051
 C138 C 0.21312 0.60980 -0.14985
 C139 C 0.23551 0.61802 -0.11252
 C140 C 0.26064 0.64994 -0.10476
 C141 C 0.26293 0.67340 -0.13525
 C142 C 0.24081 0.66515 -0.17277
 H143 H 0.08723 0.55612 -0.30812
 H144 H 0.05385 0.53850 -0.37738
 H145 H 0.13162 0.62338 -0.44576
 H146 H 0.16528 0.63986 -0.37655
 H147 H 0.19408 0.58500 -0.15493
 H148 H 0.23302 0.59939 -0.08962
 H149 H 0.28206 0.69820 -0.13038
 H150 H 0.24341 0.68383 -0.19563
 C151 C 0.44692 0.56769 -0.33020
 C152 C 0.45706 0.58638 -0.36968
 C153 C 0.46157 0.57403 -0.41055
 C154 C 0.45662 0.54273 -0.41296
 C155 C 0.44795 0.52470 -0.37243
 C156 C 0.44283 0.53691 -0.33189
 C157 C 0.43898 0.57959 -0.28802
 N158 N 0.41768 0.55884 -0.25618
 N159 N 0.40896 0.56929 -0.21924
 C160 C 0.42138 0.60095 -0.21242
 N161 N 0.44303 0.62176 -0.24398
 N162 N 0.45153 0.61128 -0.28114
 C163 C 0.41045 0.61236 -0.17233
 C164 C 0.43059 0.64378 -0.15662
 C165 C 0.41958 0.65466 -0.11943
 C166 C 0.38790 0.63453 -0.09790
 C167 C 0.36783 0.60312 -0.11357
 C168 C 0.37916 0.59206 -0.15009
 H169 H 0.46065 0.61032 -0.36935
 H170 H 0.46966 0.58952 -0.43991
 H171 H 0.44288 0.50030 -0.37216
 H172 H 0.43510 0.52195 -0.30192
 H173 H 0.45486 0.65992 -0.17304
 H174 H 0.43545 0.67905 -0.10819
 H175 H 0.34335 0.58707 -0.09749
 H176 H 0.36300 0.56778 -0.16157
 C177 C 0.57259 0.12135 -0.33085
 C178 C 0.53872 0.09707 -0.34085
 C179 C 0.53159 0.08017 -0.38172
 C180 C 0.55809 0.08752 -0.41360
 C181 C 0.59188 0.11180 -0.40367
 C182 C 0.59910 0.12842 -0.36269
 C183 C 0.58031 0.13957 -0.28786
 N184 N 0.61366 0.15862 -0.27436
 N185 N 0.62073 0.17568 -0.23634
 C186 C 0.59475 0.17450 -0.21027
 N187 N 0.56139 0.15533 -0.22364
 N188 N 0.55431 0.13815 -0.26157
 C189 C 0.60270 0.19460 -0.16910
 C190 C 0.57681 0.19926 -0.14848
 C191 C 0.58472 0.21972 -0.11135
 C192 C 0.61862 0.23573 -0.09361
 C193 C 0.64432 0.23041 -0.11339
 C194 C 0.63649 0.21019 -0.15091
 H195 H 0.51774 0.09102 -0.31701
 H196 H 0.50529 0.06165 -0.38871
 H197 H 0.61284 0.11767 -0.42750
 H198 H 0.62543 0.14702 -0.35617
 H199 H 0.55055 0.18767 -0.16164
 H200 H 0.56429 0.22322 -0.09675
 H201 H 0.67070 0.24248 -0.10061
 H202 H 0.65700 0.20701 -0.16589
 C203 C 0.86820 0.43786 -0.33546
 C204 C 0.86238 0.41756 -0.37274
 C205 C 0.88139 0.42928 -0.41280
 C206 C 0.90685 0.46146 -0.41631
 C207 C 0.91342 0.48156 -0.37868
 C208 C 0.89417 0.46994 -0.33874
 C209 C 0.84665 0.42576 -0.29396
 N210 N 0.84701 0.44613 -0.26169
 N211 N 0.82687 0.43521 -0.22503
 C212 C 0.80559 0.40345 -0.21906
 N213 N 0.80539 0.38311 -0.25122
 N214 N 0.82541 0.39403 -0.28792
 C215 C 0.78282 0.39111 -0.17863
 C216 C 0.76536 0.35830 -0.16920
 C217 C 0.74359 0.34638 -0.13153
 C218 C 0.73847 0.36691 -0.10242
 C219 C 0.75585 0.39974 -0.11181
 C220 C 0.77794 0.41174 -0.14941
 H221 H 0.84262 0.39272 -0.37138
 H222 H 0.87605 0.41323 -0.44120
 H223 H 0.93276 0.50653 -0.38066
 H224 H 0.89943 0.48617 -0.31060
 H225 H 0.76855 0.34172 -0.19088
 H226 H 0.73052 0.32093 -0.12545
 H227 H 0.75249 0.41618 -0.09002
 H228 H 0.79092 0.43714 -0.15579
 C229 C 0.50921 0.39322 -0.32769
 C230 C 0.49412 0.37155 -0.36376
 C231 C 0.48606 0.38131 -0.40473
 C232 C 0.49263 0.41283 -0.41023
 C233 C 0.50653 0.43407 -0.37354
 C234 C 0.51474 0.42441 -0.33286
 C235 C 0.52111 0.38426 -0.28585
 N236 N 0.54284 0.40718 -0.25661
 N237 N 0.55524 0.39973 -0.22016
 C238 C 0.54636 0.36900 -0.21118
 N239 N 0.52427 0.34593 -0.24008
 N240 N 0.51198 0.35343 -0.27677
 C241 C 0.56175 0.36127 -0.17171
 C242 C 0.54712 0.33004 -0.15466
 C243 C 0.56245 0.32311 -0.11780
 C244 C 0.59302 0.34718 -0.09791
 C245 C 0.60751 0.37835 -0.11497
 C246 C 0.59193 0.38535 -0.15115
 H247 H 0.48950 0.34734 -0.36086
 H248 H 0.47512 0.36436 -0.43232
 H249 H 0.51237 0.45862 -0.37685
 H250 H 0.52617 0.44170 -0.30576
 H251 H 0.52382 0.31101 -0.16973
 H252 H 0.55080 0.29884 -0.10544
 H253 H 0.63094 0.39745 -0.10023
 H254 H 0.60397 0.40962 -0.16353
 C255 C 0.86546 0.45171 0.33442
 C256 C 0.84953 0.45316 0.37489
 C257 C 0.86842 0.46307 0.41531
 C258 C 0.90413 0.47233 0.41648
 C259 C 0.92018 0.47179 0.37520
 C260 C 0.90102 0.46132 0.33494
 C261 C 0.84480 0.43968 0.29222
 N262 N 0.85646 0.42931 0.25686
 N263 N 0.83726 0.41762 0.21949
 C264 C 0.80572 0.41599 0.21588
 N265 N 0.79422 0.42654 0.25113
 N266 N 0.81329 0.43804 0.28854
 C267 C 0.78394 0.40265 0.17481
 C268 C 0.75584 0.40807 0.16689
 C269 C 0.73448 0.39489 0.12909
 C270 C 0.74039 0.37564 0.09842
 C271 C 0.76861 0.37030 0.10609
 C272 C 0.79033 0.38388 0.14377
 H273 H 0.82218 0.44615 0.37557
 H274 H 0.85493 0.46426 0.44527
 H275 H 0.94721 0.47776 0.37403
 H276 H 0.91408 0.46054 0.30423
 H277 H 0.75027 0.42252 0.18998
 H278 H 0.71288 0.39938 0.12437
 H279 H 0.77385 0.35559 0.08307
 H280 H 0.81172 0.37918 0.14903
 C281 C 0.58681 0.12342 0.33737
 C282 C 0.60581 0.13666 0.37730
 C283 C 0.59724 0.11907 0.41753
 C284 C 0.56953 0.08744 0.41907
 C285 C 0.55157 0.07386 0.37816
 C286 C 0.55989 0.09171 0.33810
 C287 C 0.59439 0.14301 0.29573
 N288 N 0.57123 0.13369 0.26092
 N289 N 0.57749 0.15202 0.22433
 C290 C 0.60724 0.18038 0.22096
 N291 N 0.63050 0.18955 0.25562
 N292 N 0.62416 0.17131 0.29226
 C293 C 0.61410 0.20118 0.18079
 C294 C 0.64745 0.22703 0.17335
 C295 C 0.65403 0.24700 0.13594
 C296 C 0.62734 0.24182 0.10524
 C297 C 0.59393 0.21603 0.11268
 C298 C 0.58743 0.19580 0.14993
 H299 H 0.62700 0.16094 0.37782
 H300 H 0.61309 0.13035 0.44709
 H301 H 0.52957 0.05003 0.37726
 H302 H 0.54481 0.08076 0.30780
 H303 H 0.66860 0.23183 0.19638
 H304 H 0.68004 0.26671 0.13132
 H305 H 0.57285 0.21136 0.08958
 H306 H 0.56141 0.17616 0.15480
 C307 C 0.53066 0.40475 0.34043
 C308 C 0.54202 0.43700 0.35018
 C309 C 0.53173 0.44571 0.39019
 C310 C 0.50992 0.42240 0.42138
 C311 C 0.49865 0.39021 0.41170
 C312 C 0.50884 0.38147 0.37171
 C313 C 0.54152 0.39537 0.29806
 N314 N 0.52966 0.36416 0.28813
 N315 N 0.53958 0.35565 0.25033
 C316 C 0.56179 0.37797 0.22078
 N317 N 0.57361 0.40920 0.23064
 N318 N 0.56367 0.41771 0.26845
 C319 C 0.57332 0.36840 0.17916
 C320 C 0.59763 0.39147 0.14963
 C321 C 0.60931 0.38235 0.11125
 C322 C 0.59692 0.34995 0.10146
 C323 C 0.57221 0.32690 0.13063
 C324 C 0.56057 0.33601 0.16898
 H325 H 0.55893 0.45556 0.32695
 H326 H 0.54122 0.47075 0.39699
 H327 H 0.48152 0.37169 0.43487
 H328 H 0.49957 0.35642 0.36536
 H329 H 0.60799 0.41662 0.15639
 H330 H 0.62839 0.40074 0.08958
 H331 H 0.56212 0.30173 0.12418
 H332 H 0.54178 0.31758 0.19088
 C333 C 0.12854 0.58769 0.33102
 C334 C 0.10646 0.55538 0.34145
 C335 C 0.08807 0.54662 0.38237
 C336 C 0.09162 0.56995 0.41387
 C337 C 0.11365 0.60220 0.40349
 C338 C 0.13179 0.61099 0.36246
 C339 C 0.14853 0.59702 0.28803
 N340 N 0.16601 0.62803 0.27484
 N341 N 0.18475 0.63651 0.23683
 C342 C 0.18688 0.61435 0.21046
 N343 N 0.16924 0.58334 0.22353
 N344 N 0.15041 0.57484 0.26144
 C345 C 0.20905 0.62388 0.16935
 C346 C 0.21700 0.60210 0.14798
 C347 C 0.23957 0.61144 0.11094
 C348 C 0.25448 0.64270 0.09402
 C349 C 0.24577 0.66428 0.11447
 C350 C 0.22343 0.65501 0.15192
 H351 H 0.10335 0.53683 0.31800
 H352 H 0.07145 0.52157 0.38969
 H353 H 0.11655 0.62067 0.42701
 H354 H 0.14860 0.63606 0.35559
 H355 H 0.20641 0.57795 0.16046
 H356 H 0.24559 0.59418 0.09580
 H357 H 0.25693 0.68855 0.10229
 H358 H 0.21772 0.67233 0.16749
 C359 C 0.45756 0.87870 0.33787
 C360 C 0.44546 0.90026 0.34758
 C361 C 0.45514 0.91798 0.38786
 C362 C 0.47673 0.91416 0.41942
 C363 C 0.48881 0.89266 0.40970
 C364 C 0.47948 0.87525 0.36932
 C365 C 0.44712 0.85956 0.29557
 N366 N 0.46354 0.84325 0.28230
 N367 N 0.45375 0.82547 0.24484
 C368 C 0.42702 0.82312 0.21913
 N369 N 0.41067 0.83951 0.23231
 N370 N 0.42056 0.85742 0.26968
 C371 C 0.41544 0.80252 0.17825
 C372 C 0.38358 0.79467 0.15743
 C373 C 0.37200 0.77432 0.11991
 C374 C 0.39218 0.76158 0.10200
 C375 C 0.42432 0.76983 0.12233
 C376 C 0.43574 0.78995 0.16019
 H377 H 0.42858 0.90352 0.32402
 H378 H 0.44534 0.93429 0.39470
 H379 H 0.50578 0.88954 0.43328
 H380 H 0.48920 0.85882 0.36301
 H381 H 0.36726 0.80386 0.17052
 H382 H 0.34716 0.76852 0.10497
 H383 H 0.44041 0.76033 0.10944
 H384 H 0.46046 0.79559 0.17534
 C385 C 0.42835 0.55806 0.33832
 C386 C 0.45150 0.57926 0.37074
 C387 C 0.45831 0.56790 0.41090
 C388 C 0.44225 0.53506 0.41967
 C389 C 0.41935 0.51373 0.38720
 C390 C 0.41236 0.52512 0.34697
 C391 C 0.42090 0.57050 0.29611
 N392 N 0.39627 0.55075 0.26625
 N393 N 0.38939 0.56226 0.22879
 C394 C 0.40689 0.59398 0.21959
 N395 N 0.43159 0.61365 0.24937
 N396 N 0.43842 0.60217 0.28678
 C397 C 0.39901 0.60713 0.17845
 C398 C 0.41849 0.63983 0.16857
 C399 C 0.41073 0.65260 0.13062
 C400 C 0.38321 0.63305 0.10153
 C401 C 0.36388 0.60028 0.11109
 C402 C 0.37173 0.58745 0.14909
 H403 H 0.46433 0.60476 0.36529
 H404 H 0.47642 0.58487 0.43506
 H405 H 0.40641 0.48829 0.39325
 H406 H 0.39440 0.50813 0.32273
 H407 H 0.43972 0.65572 0.19033
 H408 H 0.42615 0.67795 0.12438
 H409 H 0.34251 0.58454 0.08939
 H410 H 0.35618 0.56218 0.15568
   
