data_POSCAR
  _audit_creation_date              2014-09-24
  _audit_creation_method            'ToBaCCo'
  _symmetry_space_group_name_H-M    'P1'
  _symmetry_Int_Tables_number       1
  _symmetry_cell_setting            triclinic
  loop_
  _symmetry_equiv_pos_as_xyz
 x,y,z
_cell_length_a 56.7547
_cell_length_b 56.5901
_cell_length_c 43.7727
_cell_angle_alpha 89.870200
_cell_angle_beta 89.864900
_cell_angle_gamma 90.764000
loop_
  _atom_site_label
  _atom_site_type_symbol
  _atom_site_fract_x
  _atom_site_fract_y
  _atom_site_fract_z
O1 O -0.02245 0.29737 0.02951
 O2 O 0.02433 0.29759 -0.02881
 O3 O -0.02184 0.29807 -0.02981
 O4 O 0.02365 0.29578 0.03044
 O5 O 0.02203 0.25683 0.02896
 O6 O -0.02301 0.25910 -0.03082
 O7 O 0.02288 0.25868 -0.03028
 O8 O -0.02359 0.25838 0.02867
 Cu9 Cu 0.00105 0.30112 0.00043
 Cu10 Cu -0.00058 0.25437 -0.00105
 C11 C -0.03104 0.27787 0.03905
 C12 C 0.03183 0.27819 -0.03940
 C13 C -0.03031 0.27887 -0.04044
 C14 C 0.03067 0.27580 0.03987
 O15 O 0.48404 0.80022 0.52208
 O16 O 0.52802 0.79283 0.46043
 O17 O 0.48224 0.79619 0.46270
 O18 O 0.53010 0.79865 0.51921
 O19 O 0.52831 0.75986 0.52412
 O20 O 0.47876 0.75766 0.46977
 O21 O 0.52448 0.75413 0.46532
 O22 O 0.48278 0.76154 0.52842
 Cu23 Cu 0.50632 0.80087 0.49056
 Cu24 Cu 0.50337 0.75443 0.49741
 C25 C 0.47598 0.78200 0.53587
 C26 C 0.53369 0.77209 0.45234
 C27 C 0.47210 0.77658 0.45690
 C28 C 0.53762 0.77969 0.53106
 O29 O 0.98286 0.72045 -0.04149
 O30 O 1.02590 0.71229 0.02048
 O31 O 0.97977 0.71386 0.01733
 O32 O 1.02849 0.71949 -0.03850
 O33 O 1.03043 0.75776 -0.02951
 O34 O 0.98044 0.75260 0.02338
 O35 O 1.02612 0.75070 0.02893
 O36 O 0.98446 0.75897 -0.03428
 Cu37 Cu 1.00420 0.71263 -0.01119
 Cu38 Cu 1.00563 0.75885 -0.00212
 C39 C 0.97607 0.74112 -0.04832
 C40 C 1.03335 0.73013 0.03534
 C41 C 0.97136 0.73246 0.02912
 C42 C 1.03795 0.73965 -0.04338
 O43 O 0.52241 0.21257 0.53020
 O44 O 0.47522 0.20984 0.47210
 O45 O 0.52131 0.20732 0.47100
 O46 O 0.47653 0.21388 0.53137
 O47 O 0.47805 0.25260 0.52523
 O48 O 0.52338 0.24607 0.46570
 O49 O 0.47813 0.24853 0.46623
 O50 O 0.52439 0.25131 0.52432
 Cu51 Cu 0.49866 0.20700 0.50173
 Cu52 Cu 0.50117 0.25352 0.49506
 C53 C 0.53164 0.23250 0.53680
 C54 C 0.46877 0.22882 0.45914
 C55 C 0.53006 0.22557 0.45809
 C56 C 0.46939 0.23435 0.53827
 O57 O 0.70467 -0.02977 0.02998
 O58 O 0.69874 0.01587 -0.02972
 O59 O 0.70253 -0.02989 -0.02903
 O60 O 0.70022 0.01623 0.03020
 O61 O 0.73892 0.02035 0.02786
 O62 O 0.74116 -0.02529 -0.03183
 O63 O 0.73736 0.02050 -0.03062
 O64 O 0.74335 -0.02544 0.02793
 Cu65 Cu 0.69764 -0.00724 0.00065
 Cu66 Cu 0.74408 -0.00220 -0.00184
 C67 C 0.72509 -0.03553 0.03892
 C68 C 0.71711 0.02620 -0.04020
 C69 C 0.72224 -0.03544 -0.04059
 C70 C 0.71917 0.02634 0.03890
 O71 O 0.19492 0.52047 0.48220
 O72 O 0.19797 0.47378 0.54072
 O73 O 0.19803 0.51991 0.54164
 O74 O 0.19525 0.47410 0.48178
 O75 O 0.23409 0.47443 0.47921
 O76 O 0.23672 0.52184 0.53625
 O77 O 0.23681 0.47548 0.53870
 O78 O 0.23364 0.52015 0.47739
 Cu79 Cu 0.19264 0.49704 0.51192
 Cu80 Cu 0.23922 0.49799 0.50769
 C81 C 0.21373 0.52821 0.46967
 C82 C 0.21790 0.46661 0.54968
 C83 C 0.21788 0.52903 0.54859
 C84 C 0.21427 0.46625 0.47057
 O85 O 0.28631 1.02330 0.03697
 O86 O 0.28901 0.97515 -0.01995
 O87 O 0.28623 1.02113 -0.02231
 O88 O 0.29035 0.97718 0.03963
 O89 O 0.25157 0.97442 0.04152
 O90 O 0.24756 1.01725 -0.02181
 O91 O 0.25030 0.97132 -0.01737
 O92 O 0.24759 1.01991 0.03748
 Cu93 Cu 0.29187 0.99951 0.00851
 Cu94 Cu 0.24540 0.99542 0.01000
 C95 C 0.26635 1.03002 0.04675
 C96 C 0.26999 0.96480 -0.02796
 C97 C 0.26619 1.02682 -0.03269
 C98 C 0.27168 0.96825 0.05117
 O99 O 0.78640 0.51956 0.53158
 O100 O 0.78410 0.47274 0.47306
 O101 O 0.78505 0.51886 0.47205
 O102 O 0.78564 0.47329 0.53236
 O103 O 0.74676 0.47351 0.53383
 O104 O 0.74624 0.52013 0.47548
 O105 O 0.74526 0.47377 0.47414
 O106 O 0.74756 0.51903 0.53415
 Cu107 Cu 0.78922 0.49607 0.50206
 Cu108 Cu 0.74254 0.49650 0.50438
 C109 C 0.76733 0.52726 0.54291
 C110 C 0.76422 0.46527 0.46358
 C111 C 0.76552 0.52763 0.46408
 C112 C 0.76625 0.46564 0.54337
 C113 C 0.29359 0.27852 0.32176
 C114 C 0.27768 0.29652 0.32086
 C115 C 0.26024 0.28972 0.30043
 N116 N 0.26487 0.26806 0.28911
 C117 C 0.28539 0.26128 0.30184
 C118 C 0.23970 0.30277 0.29425
 C119 C 0.22257 0.29592 0.27246
 C120 C 0.20023 0.30541 0.27026
 C121 C 0.18952 0.29495 0.24552
 C122 C 0.20570 0.27957 0.23297
 N123 N 0.22584 0.28037 0.24945
 C124 C 0.20201 0.26633 0.20598
 C125 C 0.21704 0.24806 0.19634
 C126 C 0.21606 0.23725 0.16798
 C127 C 0.23238 0.21960 0.16839
 C128 C 0.24275 0.22016 0.19703
 N129 N 0.23331 0.23755 0.21409
 C130 C 0.25954 0.20383 0.20758
 C131 C 0.27195 0.20656 0.23536
 C132 C 0.28510 0.18906 0.24918
 C133 C 0.29550 0.19905 0.27444
 C134 C 0.28825 0.22235 0.27557
 N135 N 0.27405 0.22682 0.25153
 C136 C 0.29608 0.23913 0.29729
 H137 H 0.30920 0.27806 0.33589
 H138 H 0.27867 0.31257 0.33421
 H139 H 0.26844 0.24335 0.24456
 H140 H 0.19241 0.31860 0.28482
 H141 H 0.17189 0.29851 0.23750
 H142 H 0.20473 0.24159 0.14898
 H143 H 0.23609 0.20766 0.14977
 H144 H 0.30723 0.19017 0.29002
 H145 H 0.24173 0.27284 0.24332
 H146 H 0.28720 0.17099 0.24169
 C147 C 0.71326 0.71836 0.31836
 C148 C 0.72954 0.70070 0.31785
 C149 C 0.74213 0.70328 0.29080
 N150 N 0.73367 0.72163 0.27453
 C151 C 0.71610 0.73095 0.29140
 C152 C 0.75996 0.68786 0.28067
 C153 C 0.77394 0.69211 0.25434
 C154 C 0.78845 0.67563 0.24068
 C155 C 0.80006 0.68701 0.21720
 C156 C 0.79264 0.71025 0.21735
 N157 N 0.77677 0.71321 0.24011
 C158 C 0.80161 0.72827 0.19790
 C159 C 0.79067 0.75044 0.19441
 C160 C 0.80019 0.76954 0.17853
 C161 C 0.78333 0.78665 0.17816
 C162 C 0.76419 0.77765 0.19434
 N163 N 0.76866 0.75546 0.20405
 C164 C 0.74242 0.78913 0.19786
 C165 C 0.72438 0.78105 0.21778
 C166 C 0.70164 0.78974 0.21846
 C167 C 0.69018 0.77866 0.24228
 C168 C 0.70624 0.76358 0.25564
 N169 N 0.72707 0.76523 0.24068
 C170 C 0.70173 0.74987 0.28209
 H171 H 0.70061 0.72135 0.33642
 H172 H 0.73157 0.68739 0.33537
 H173 H 0.74289 0.75817 0.24794
 H174 H 0.79078 0.65734 0.24706
 H175 H 0.81276 0.67908 0.20200
 H176 H 0.81741 0.77098 0.16795
 H177 H 0.78499 0.80369 0.16705
 H178 H 0.67212 0.78158 0.24917
 H179 H 0.77043 0.72927 0.24778
 H180 H 0.69410 0.80300 0.20370
 C181 C 0.78187 0.19683 0.19055
 C182 C 0.80034 0.21251 0.19341
 C183 C 0.79206 0.23145 0.21015
 N184 N 0.76907 0.22798 0.21724
 C185 C 0.76278 0.20682 0.20525
 C186 C 0.80501 0.25246 0.21605
 C187 C 0.79698 0.27045 0.23573
 C188 C 0.80675 0.29299 0.23772
 C189 C 0.79471 0.30456 0.26039
 C190 C 0.77808 0.28870 0.27188
 N191 N 0.77970 0.26791 0.25687
 C192 C 0.76278 0.29327 0.29667
 C193 C 0.74334 0.27849 0.30418
 C194 C 0.73019 0.28013 0.33080
 C195 C 0.71192 0.26420 0.32817
 C196 C 0.71451 0.25333 0.30003
 N197 N 0.73372 0.26210 0.28539
 C198 C 0.69816 0.23714 0.28728
 C199 C 0.70278 0.22389 0.26067
 C200 C 0.68587 0.21182 0.24380
 C201 C 0.69758 0.20065 0.22047
 C202 C 0.72133 0.20610 0.22385
 N203 N 0.72435 0.22016 0.24854
 C204 C 0.73958 0.19733 0.20512
 H205 H 0.78238 0.18015 0.17855
 H206 H 0.81773 0.21029 0.18377
 H207 H 0.74036 0.22496 0.25836
 H208 H 0.82116 0.30037 0.22442
 H209 H 0.79800 0.32255 0.26772
 H210 H 0.73332 0.29175 0.35002
 H211 H 0.69815 0.26115 0.34491
 H212 H 0.68947 0.18975 0.20303
 H213 H 0.77129 0.25215 0.26289
 H214 H 0.66705 0.21118 0.24782
 C215 C 0.20840 0.77148 0.18210
 C216 C 0.22531 0.78891 0.18406
 C217 C 0.23705 0.78537 0.21140
 N218 N 0.22790 0.76634 0.22617
 C219 C 0.21039 0.75781 0.20826
 C220 C 0.25449 0.80074 0.22343
 C221 C 0.26835 0.79501 0.24912
 C222 C 0.28187 0.81105 0.26559
 C223 C 0.29311 0.79840 0.28801
 C224 C 0.28624 0.77493 0.28452
 N225 N 0.27125 0.77302 0.26063
 C226 C 0.29463 0.75591 0.30234
 C227 C 0.28390 0.73317 0.30243
 C228 C 0.29331 0.71334 0.31618
 C229 C 0.27664 0.69570 0.31395
 C230 C 0.25767 0.70518 0.29848
 N231 N 0.26211 0.72813 0.29161
 C232 C 0.23594 0.69330 0.29344
 C233 C 0.21785 0.70251 0.27489
 C234 C 0.19491 0.69377 0.27374
 C235 C 0.18331 0.70676 0.25200
 C236 C 0.19952 0.72294 0.24025
 N237 N 0.22056 0.72008 0.25414
 C238 C 0.19495 0.73899 0.21626
 H239 H 0.19592 0.76925 0.16364
 H240 H 0.22842 0.80278 0.16741
 H241 H 0.23644 0.72793 0.24757
 H242 H 0.28343 0.82993 0.26191
 H243 H 0.30499 0.80569 0.30495
 H244 H 0.31029 0.71178 0.32714
 H245 H 0.27826 0.67803 0.32311
 H246 H 0.16506 0.70440 0.24542
 H247 H 0.26525 0.75736 0.25082
 H248 H 0.18730 0.67941 0.28699
 C249 C 0.76636 0.20910 0.83480
 C250 C 0.78506 0.22460 0.83303
 C251 C 0.78269 0.23685 0.80580
 N252 N 0.76313 0.22935 0.79090
 C253 C 0.75294 0.21253 0.80873
 C254 C 0.79921 0.25365 0.79446
 C255 C 0.79526 0.26777 0.76833
 C256 C 0.81244 0.28127 0.75365
 C257 C 0.80139 0.29336 0.73062
 C258 C 0.77778 0.28675 0.73164
 N259 N 0.77416 0.27132 0.75488
 C260 C 0.76004 0.29616 0.71274
 C261 C 0.73715 0.28621 0.71021
 C262 C 0.71878 0.29619 0.69405
 C263 C 0.70036 0.28032 0.69525
 C264 C 0.70812 0.26100 0.71174
 N265 N 0.73063 0.26464 0.72082
 C266 C 0.69505 0.23982 0.71624
 C267 C 0.70200 0.22187 0.73681
 C268 C 0.69190 0.19945 0.73832
 C269 C 0.70225 0.18804 0.76244
 C270 C 0.71880 0.20357 0.77469
 N271 N 0.71834 0.22425 0.75912
 C272 C 0.73273 0.19897 0.80076
 H273 H 0.76335 0.19651 0.85305
 H274 H 0.79895 0.22642 0.84979
 H275 H 0.72671 0.23987 0.76559
 H276 H 0.83100 0.28250 0.75914
 H277 H 0.80984 0.30578 0.71513
 H278 H 0.71866 0.31299 0.68224
 H279 H 0.68327 0.28268 0.68484
 H280 H 0.69785 0.17032 0.77002
 H281 H 0.75789 0.26572 0.76322
 H282 H 0.67826 0.19209 0.72382
 C283 C 0.20603 0.79152 0.79617
 C284 C 0.22428 0.80760 0.79766
 C285 C 0.24388 0.79656 0.78568
 N286 N 0.23823 0.77433 0.77687
 C287 C 0.21511 0.77119 0.78336
 C288 C 0.26699 0.80613 0.78565
 C289 C 0.28539 0.79641 0.76810
 C290 C 0.30913 0.80190 0.77145
 C291 C 0.32091 0.78984 0.74898
 C292 C 0.30406 0.77718 0.73271
 N293 N 0.28246 0.78137 0.74438
 C294 C 0.30879 0.76315 0.70684
 C295 C 0.29272 0.74612 0.69525
 C296 C 0.29576 0.73375 0.66827
 C297 C 0.27747 0.71777 0.66649
 C298 C 0.26365 0.72103 0.69228
 N299 N 0.27315 0.73825 0.70996
 C300 C 0.24378 0.70697 0.70034
 C301 C 0.22928 0.71182 0.72584
 C302 C 0.21319 0.69609 0.73885
 C303 C 0.20188 0.70800 0.76182
 C304 C 0.21094 0.73088 0.76181
 N305 N 0.22764 0.73304 0.73982
 C306 C 0.20273 0.74949 0.78041
 H307 H 0.18818 0.79438 0.80395
 H308 H 0.22329 0.82530 0.80685
 H309 H 0.23546 0.74875 0.73240
 H310 H 0.31715 0.81347 0.78823
 H311 H 0.33976 0.79032 0.74509
 H312 H 0.30988 0.73577 0.65177
 H313 H 0.27498 0.70495 0.64845
 H314 H 0.18828 0.70066 0.77652
 H315 H 0.26647 0.77630 0.73467
 H316 H 0.20973 0.67792 0.73249
 C317 C 0.21766 0.22574 0.83728
 C318 C 0.23479 0.20889 0.83692
 C319 C 0.24676 0.21153 0.80946
 N320 N 0.23760 0.22950 0.79312
 C321 C 0.21982 0.23821 0.81011
 C322 C 0.26457 0.19638 0.79882
 C323 C 0.27864 0.20181 0.77298
 C324 C 0.29223 0.18570 0.75722
 C325 C 0.30402 0.19817 0.73475
 C326 C 0.29744 0.22160 0.73754
 N327 N 0.28197 0.22364 0.76093
 C328 C 0.30667 0.24056 0.71983
 C329 C 0.29616 0.26310 0.71892
 C330 C 0.30625 0.28309 0.70568
 C331 C 0.28957 0.30037 0.70665
 C332 C 0.26993 0.29052 0.72092
 N333 N 0.27398 0.26770 0.72826
 C334 C 0.24801 0.30179 0.72431
 C335 C 0.22922 0.29212 0.74179
 C336 C 0.20613 0.29986 0.74105
 C337 C 0.19377 0.28678 0.76239
 C338 C 0.20968 0.27161 0.77589
 N339 N 0.23125 0.27507 0.76331
 C340 C 0.20441 0.25613 0.80046
 H341 H 0.20501 0.22845 0.85544
 H342 H 0.23792 0.19605 0.85476
 H343 H 0.24694 0.26808 0.77128
 H344 H 0.29352 0.16691 0.76146
 H345 H 0.31616 0.19080 0.71834
 H346 H 0.32369 0.28498 0.69586
 H347 H 0.29165 0.31802 0.69744
 H348 H 0.17522 0.28849 0.76760
 H349 H 0.27605 0.23937 0.77028
 H350 H 0.19889 0.31363 0.72685
 C351 C 0.72412 0.73338 0.65791
 C352 C 0.74153 0.71682 0.65857
 C353 C 0.75371 0.72025 0.68564
 N354 N 0.74438 0.73834 0.70150
 C355 C 0.72628 0.74639 0.68458
 C356 C 0.77181 0.70558 0.69651
 C357 C 0.78592 0.71154 0.72195
 C358 C 0.79977 0.69581 0.73795
 C359 C 0.81151 0.70870 0.75988
 C360 C 0.80462 0.73200 0.75652
 N361 N 0.78900 0.73356 0.73334
 C362 C 0.81369 0.75129 0.77355
 C363 C 0.80241 0.77343 0.77467
 C364 C 0.81186 0.79374 0.78769
 C365 C 0.79445 0.81029 0.78731
 C366 C 0.77505 0.79973 0.77349
 N367 N 0.77994 0.77717 0.76591
 C368 C 0.75262 0.81008 0.77080
 C369 C 0.73420 0.80018 0.75302
 C370 C 0.71091 0.80732 0.75380
 C371 C 0.69902 0.79428 0.73211
 C372 C 0.71539 0.77965 0.71851
 N373 N 0.73681 0.78351 0.73121
 C374 C 0.71056 0.76411 0.69399
 H375 H 0.71122 0.73547 0.63997
 H376 H 0.74468 0.70361 0.64125
 H377 H 0.75270 0.77696 0.72327
 H378 H 0.80127 0.67699 0.73422
 H379 H 0.82378 0.70168 0.77636
 H380 H 0.82934 0.79628 0.79705
 H381 H 0.79592 0.82795 0.79655
 H382 H 0.68047 0.79558 0.72682
 H383 H 0.78282 0.74910 0.72365
 H384 H 0.70325 0.82068 0.76824
 C385 C 0.24265 0.05564 0.07901
 C386 C 0.24077 0.07474 0.09890
 C387 C 0.26079 0.08759 0.10767
 C388 C 0.28301 0.08084 0.09679
 C389 C 0.28501 0.06153 0.07703
 C390 C 0.26478 0.04881 0.06758
 N391 N 0.25781 0.10760 0.12715
 N392 N 0.27463 0.12159 0.13428
 C393 C 0.27079 0.14167 0.15346
 C394 C 0.28932 0.15777 0.15851
 C395 C 0.28575 0.17796 0.17621
 C396 C 0.26357 0.18221 0.18921
 C397 C 0.24512 0.16589 0.18460
 C398 C 0.24864 0.14581 0.16678
 H399 H 0.22663 0.04634 0.07251
 H400 H 0.22357 0.07977 0.10720
 H401 H 0.29876 0.09053 0.10341
 H402 H 0.30235 0.05685 0.06884
 H403 H 0.30644 0.15479 0.14838
 H404 H 0.30019 0.19038 0.17960
 H405 H 0.22794 0.16882 0.19465
 H406 H 0.23404 0.13361 0.16334
 C407 C 0.74722 0.55203 0.58204
 C408 C 0.74712 0.57090 0.60249
 C409 C 0.76751 0.58451 0.60723
 C410 C 0.78839 0.57859 0.59188
 C411 C 0.78859 0.55952 0.57153
 C412 C 0.76788 0.54628 0.56606
 N413 N 0.76607 0.60476 0.62663
 N414 N 0.78315 0.61923 0.63046
 C415 C 0.78070 0.63988 0.64905
 C416 C 0.79929 0.65636 0.65044
 C417 C 0.79666 0.67754 0.66647
 C418 C 0.77535 0.68243 0.68136
 C419 C 0.75700 0.66556 0.68085
 C420 C 0.75961 0.64448 0.66476
 H421 H 0.73101 0.54211 0.57847
 H422 H 0.73093 0.57530 0.61420
 H423 H 0.80439 0.58887 0.59523
 H424 H 0.80476 0.55554 0.55953
 H425 H 0.81562 0.65304 0.63845
 H426 H 0.81100 0.69036 0.66668
 H427 H 0.74050 0.66898 0.69240
 H428 H 0.74499 0.63200 0.66417
 C429 C 0.74850 0.94392 0.07910
 C430 C 0.75144 0.92534 0.09977
 C431 C 0.73395 0.90787 0.10305
 C432 C 0.71300 0.90959 0.08617
 C433 C 0.70984 0.92841 0.06594
 C434 C 0.72772 0.94555 0.06186
 N435 N 0.73808 0.88833 0.12304
 N436 N 0.72567 0.86947 0.12178
 C437 C 0.72974 0.84979 0.14156
 C438 C 0.71926 0.82795 0.13456
 C439 C 0.72349 0.80819 0.15280
 C440 C 0.73788 0.81020 0.17870
 C441 C 0.74805 0.83216 0.18611
 C442 C 0.74418 0.85184 0.16752
 H443 H 0.76251 0.95696 0.07651
 H444 H 0.76762 0.92423 0.11273
 H445 H 0.69916 0.89635 0.08851
 H446 H 0.69368 0.92921 0.05288
 H447 H 0.70812 0.82618 0.11463
 H448 H 0.71553 0.79133 0.14683
 H449 H 0.75917 0.83394 0.20608
 H450 H 0.75235 0.86859 0.17344
 C451 C 0.19959 0.43185 0.57636
 C452 C 0.20086 0.41276 0.59654
 C453 C 0.22123 0.40907 0.61372
 C454 C 0.24049 0.42476 0.61047
 C455 C 0.23943 0.44363 0.58978
 C456 C 0.21896 0.44733 0.57248
 N457 N 0.22224 0.38871 0.63314
 N458 N 0.23772 0.38649 0.65391
 C459 C 0.23912 0.36545 0.67207
 C460 C 0.25240 0.36582 0.69900
 C461 C 0.25469 0.34530 0.71658
 C462 C 0.24414 0.32401 0.70701
 C463 C 0.23084 0.32361 0.68005
 C464 C 0.22813 0.34423 0.66283
 H465 H 0.18365 0.43414 0.56318
 H466 H 0.18596 0.40072 0.59872
 H467 H 0.25650 0.42212 0.62336
 H468 H 0.25460 0.45529 0.58725
 H469 H 0.26103 0.38202 0.70629
 H470 H 0.26513 0.34585 0.73725
 H471 H 0.22275 0.30727 0.67223
 H472 H 0.21797 0.34345 0.64195
 C473 C 0.93593 0.29799 0.06602
 C474 C 0.91717 0.29768 0.08676
 C475 C 0.91235 0.27753 0.10437
 C476 C 0.92654 0.25752 0.10100
 C477 C 0.94503 0.25765 0.07982
 C478 C 0.94988 0.27788 0.06209
 N479 N 0.89237 0.27742 0.12439
 N480 N 0.88937 0.26178 0.14502
 C481 C 0.86866 0.26101 0.16378
 C482 C 0.86824 0.24645 0.18969
 C483 C 0.84780 0.24431 0.20743
 C484 C 0.82737 0.25640 0.19905
 C485 C 0.82782 0.27116 0.17327
 C486 C 0.84838 0.27363 0.15587
 H487 H 0.93918 0.31378 0.05253
 H488 H 0.90628 0.31314 0.08904
 H489 H 0.92300 0.24167 0.11420
 H490 H 0.95554 0.24193 0.07731
 H491 H 0.88371 0.23656 0.19593
 H492 H 0.84765 0.23274 0.22718
 H493 H 0.81213 0.28046 0.16641
 H494 H 0.84822 0.28484 0.13581
 C495 C 0.44606 0.80548 0.56493
 C496 C 0.42779 0.80662 0.58645
 C497 C 0.42148 0.78669 0.60381
 C498 C 0.43410 0.76570 0.60002
 C499 C 0.45218 0.76450 0.57849
 C500 C 0.45814 0.78424 0.56036
 N501 N 0.40145 0.78762 0.62377
 N502 N 0.39522 0.76986 0.63991
 C503 C 0.37454 0.76955 0.65869
 C504 C 0.36907 0.74900 0.67523
 C505 C 0.34799 0.74715 0.69163
 C506 C 0.33206 0.76588 0.69160
 C507 C 0.33785 0.78681 0.67587
 C508 C 0.35897 0.78866 0.65944
 H509 H 0.45023 0.82096 0.55128
 H510 H 0.41818 0.82289 0.58910
 H511 H 0.42962 0.75003 0.61314
 H512 H 0.46124 0.74791 0.57568
 H513 H 0.38092 0.73416 0.67476
 H514 H 0.34381 0.73092 0.70376
 H515 H 0.32571 0.80142 0.67566
 H516 H 0.36283 0.80470 0.64678
 C517 C 0.06266 0.70555 0.06369
 C518 C 0.08041 0.70333 0.08562
 C519 C 0.08660 0.72248 0.10426
 C520 C 0.07453 0.74387 0.10108
 C521 C 0.05694 0.74618 0.07905
 C522 C 0.05096 0.72712 0.05989
 N523 N 0.10588 0.72024 0.12513
 N524 N 0.11139 0.73676 0.14356
 C525 C 0.13132 0.73565 0.16349
 C526 C 0.13559 0.75455 0.18335
 C527 C 0.15589 0.75518 0.20128
 C528 C 0.17232 0.73692 0.19945
 C529 C 0.16774 0.71757 0.18024
 C530 C 0.14733 0.71691 0.16233
 H531 H 0.05849 0.69057 0.04924
 H532 H 0.08961 0.68677 0.08777
 H533 H 0.07901 0.75897 0.11515
 H534 H 0.04822 0.76299 0.07678
 H535 H 0.12341 0.76909 0.18438
 H536 H 0.15916 0.77023 0.21600
 H537 H 0.18028 0.70337 0.17852
 H538 H 0.14441 0.70215 0.14706
 C539 C 0.56846 0.25208 0.55518
 C540 C 0.58789 0.25318 0.57461
 C541 C 0.59036 0.23666 0.59813
 C542 C 0.57327 0.21868 0.60188
 C543 C 0.55408 0.21717 0.58186
 C544 C 0.55148 0.23396 0.55844
 N545 N 0.61074 0.23825 0.61721
 N546 N 0.61169 0.22881 0.64357
 C547 C 0.63272 0.23048 0.66148
 C548 C 0.63124 0.22890 0.69335
 C549 C 0.65145 0.23190 0.71127
 C550 C 0.67352 0.23587 0.69741
 C551 C 0.67506 0.23651 0.66539
 C552 C 0.65481 0.23414 0.64758
 H553 H 0.56700 0.26510 0.53713
 H554 H 0.60103 0.26702 0.57144
 H555 H 0.57500 0.20562 0.61981
 H556 H 0.54121 0.20304 0.58479
 H557 H 0.61432 0.22602 0.70432
 H558 H 0.64989 0.23135 0.73593
 H559 H 0.69194 0.23925 0.65424
 H560 H 0.65640 0.23511 0.62295
 C561 C 0.69367 0.04868 0.92306
 C562 C 0.69213 0.06680 0.90133
 C563 C 0.71171 0.08131 0.89513
 C564 C 0.73310 0.07708 0.90986
 C565 C 0.73499 0.05849 0.93058
 C566 C 0.71521 0.04421 0.93788
 N567 N 0.71006 0.10028 0.87375
 N568 N 0.71723 0.12085 0.88120
 C569 C 0.71842 0.13987 0.85976
 C570 C 0.71436 0.16290 0.86983
 C571 C 0.71782 0.18204 0.85006
 C572 C 0.72639 0.17839 0.82036
 C573 C 0.73038 0.15526 0.81023
 C574 C 0.72602 0.13606 0.82966
 H575 H 0.67811 0.03801 0.92789
 H576 H 0.67555 0.06989 0.88990
 H577 H 0.74842 0.08807 0.90496
 H578 H 0.75187 0.05573 0.94144
 H579 H 0.70877 0.16601 0.89313
 H580 H 0.71478 0.19978 0.85827
 H581 H 0.73729 0.15217 0.78752
 H582 H 0.72969 0.11836 0.82177
 C583 C 0.19284 0.56186 0.44479
 C584 C 0.19244 0.58075 0.42412
 C585 C 0.21143 0.58491 0.40429
 C586 C 0.23090 0.56984 0.40521
 C587 C 0.23152 0.55122 0.42624
 C588 C 0.21254 0.54712 0.44636
 N589 N 0.21112 0.60521 0.38468
 N590 N 0.22569 0.60792 0.36275
 C591 C 0.22639 0.62891 0.34437
 C592 C 0.23990 0.62916 0.31755
 C593 C 0.24228 0.64988 0.30027
 C594 C 0.23151 0.67074 0.30998
 C595 C 0.21770 0.67045 0.33661
 C596 C 0.21499 0.64963 0.35360
 H597 H 0.17804 0.55922 0.46012
 H598 H 0.17740 0.59231 0.42375
 H599 H 0.24587 0.57282 0.39026
 H600 H 0.24690 0.54011 0.42689
 H601 H 0.24886 0.61336 0.31029
 H602 H 0.25309 0.64988 0.27984
 H603 H 0.20941 0.68646 0.34449
 H604 H 0.20462 0.64992 0.37438
 C605 C 0.25258 0.92736 0.95213
 C606 C 0.25270 0.90816 0.93224
 C607 C 0.27034 0.90618 0.91011
 C608 C 0.28834 0.92345 0.90843
 C609 C 0.28856 0.94247 0.92889
 C610 C 0.27050 0.94468 0.95070
 N611 N 0.26940 0.88638 0.88991
 N612 N 0.28093 0.88546 0.86499
 C613 C 0.27911 0.86507 0.84575
 C614 C 0.28509 0.86696 0.81476
 C615 C 0.28148 0.84775 0.79512
 C616 C 0.27227 0.82628 0.80645
 C617 C 0.26732 0.82414 0.83778
 C618 C 0.27049 0.84340 0.85721
 H619 H 0.23858 0.92851 0.96890
 H620 H 0.23882 0.89489 0.93380
 H621 H 0.30223 0.92211 0.89156
 H622 H 0.30255 0.95561 0.92736
 H623 H 0.29178 0.88354 0.80566
 H624 H 0.28543 0.84974 0.77102
 H625 H 0.26050 0.80764 0.84705
 H626 H 0.26602 0.84142 0.88115
 C627 C 0.74163 0.44033 0.42624
 C628 C 0.74038 0.42182 0.40520
 C629 C 0.76042 0.40876 0.39816
 C630 C 0.78201 0.41474 0.41198
 C631 C 0.78334 0.43341 0.43283
 C632 C 0.76310 0.44626 0.44042
 N633 N 0.75818 0.38926 0.37751
 N634 N 0.77493 0.37506 0.37235
 C635 C 0.77217 0.35539 0.35203
 C636 C 0.79005 0.33862 0.35022
 C637 C 0.78724 0.31856 0.33188
 C638 C 0.76652 0.31514 0.31490
 C639 C 0.74889 0.33229 0.31606
 C640 C 0.75161 0.35221 0.33457
 H641 H 0.72574 0.44992 0.43151
 H642 H 0.72366 0.41738 0.39467
 H643 H 0.79777 0.40492 0.40683
 H644 H 0.80013 0.43752 0.44340
 H645 H 0.80597 0.34088 0.36353
 H646 H 0.80101 0.30550 0.33129
 H647 H 0.73284 0.33002 0.30297
 H648 H 0.73759 0.36496 0.33542
 C649 C 0.06154 0.29969 0.93041
 C650 C 0.08089 0.29965 0.91060
 C651 C 0.08933 0.27842 0.89886
 C652 C 0.07797 0.25708 0.90686
 C653 C 0.05875 0.25701 0.92689
 C654 C 0.05038 0.27831 0.93923
 N655 N 0.10996 0.27889 0.87993
 N656 N 0.11738 0.26043 0.86665
 C657 C 0.13856 0.26041 0.84881
 C658 C 0.14440 0.23990 0.83288
 C659 C 0.16553 0.23875 0.81658
 C660 C 0.18130 0.25808 0.81627
 C661 C 0.17532 0.27881 0.83187
 C662 C 0.15404 0.28003 0.84797
 H663 H 0.05569 0.31648 0.93929
 H664 H 0.08952 0.31621 0.90463
 H665 H 0.08421 0.24040 0.89813
 H666 H 0.05067 0.24019 0.93295
 H667 H 0.13264 0.22467 0.83339
 H668 H 0.16981 0.22263 0.80459
 H669 H 0.18731 0.29387 0.83197
 H670 H 0.14995 0.29605 0.86024
 C671 C 0.55467 0.74610 0.41532
 C672 C 0.57238 0.74236 0.39375
 C673 C 0.58738 0.76091 0.38475
 C674 C 0.58402 0.78359 0.39693
 C675 C 0.56612 0.78743 0.41831
 C676 C 0.55149 0.76863 0.42807
 N677 N 0.60628 0.75598 0.36411
 N678 N 0.62217 0.77123 0.35748
 C679 C 0.64135 0.76587 0.33745
 C680 C 0.65953 0.78257 0.33358
 C681 C 0.67907 0.77742 0.31543
 C682 C 0.68061 0.75548 0.30072
 C683 C 0.66214 0.73891 0.30398
 C684 C 0.64268 0.74400 0.32233
 H685 H 0.54362 0.73128 0.42224
 H686 H 0.57478 0.72482 0.38449
 H687 H 0.59538 0.79823 0.39022
 H688 H 0.56412 0.80496 0.42777
 H689 H 0.65870 0.79946 0.34509
 H690 H 0.69315 0.79042 0.31308
 H691 H 0.66297 0.72198 0.29258
 H692 H 0.62881 0.73083 0.32486
 C693 C 0.94836 0.76647 0.92485
 C694 C 0.92968 0.76913 0.90447
 C695 C 0.92156 0.74996 0.88721
 C696 C 0.93237 0.72794 0.89040
 C697 C 0.95061 0.72502 0.91144
 C698 C 0.95876 0.74422 0.92917
 N699 N 0.90147 0.75296 0.86799
 N700 N 0.89727 0.73963 0.84523
 C701 C 0.87627 0.74228 0.82761
 C702 C 0.87638 0.73649 0.79654
 C703 C 0.85614 0.73959 0.77885
 C704 C 0.83528 0.74780 0.79231
 C705 C 0.83502 0.75272 0.82376
 C706 C 0.85544 0.75037 0.84116
 H707 H 0.95401 0.78170 0.93802
 H708 H 0.92139 0.78617 0.90224
 H709 H 0.92617 0.71285 0.87740
 H710 H 0.95817 0.70764 0.91395
 H711 H 0.89231 0.73010 0.78590
 H712 H 0.85674 0.73565 0.75467
 H713 H 0.81904 0.75864 0.83475
 H714 H 0.85491 0.75453 0.86528
 C715 C 0.44921 0.24658 0.41389
 C716 C 0.43090 0.24728 0.39274
 C717 C 0.41295 0.23016 0.39336
 C718 C 0.41393 0.21162 0.41475
 C719 C 0.43257 0.21062 0.43563
 C720 C 0.45012 0.22838 0.43572
 N721 N 0.39366 0.23262 0.37267
 N722 N 0.37459 0.22069 0.37509
 C723 C 0.35544 0.22423 0.35439
 C724 C 0.33330 0.21429 0.36120
 C725 C 0.31393 0.21889 0.34248
 C726 C 0.31665 0.23320 0.31647
 C727 C 0.33891 0.24264 0.30916
 C728 C 0.35817 0.23829 0.32804
 H729 H 0.46260 0.26039 0.41330
 H730 H 0.43033 0.26160 0.37630
 H731 H 0.40025 0.19811 0.41550
 H732 H 0.43286 0.19645 0.45228
 H733 H 0.33095 0.20348 0.38144
 H734 H 0.29680 0.21153 0.34839
 H735 H 0.34122 0.25373 0.28914
 H736 H 0.37511 0.24611 0.32221
 C737 C 0.70468 0.92923 0.93335
 C738 C 0.70575 0.91118 0.91169
 C739 C 0.72494 0.90980 0.89169
 C740 C 0.74326 0.92668 0.89369
 C741 C 0.74243 0.94450 0.91577
 C742 C 0.72311 0.94595 0.93580
 N743 N 0.72584 0.89058 0.87050
 N744 N 0.74002 0.89047 0.84794
 C745 C 0.74160 0.87059 0.82786
 C746 C 0.75405 0.87298 0.80034
 C747 C 0.75692 0.85351 0.78110
 C748 C 0.74774 0.83129 0.78953
 C749 C 0.73504 0.82892 0.81693
 C750 C 0.73181 0.84846 0.83587
 H751 H 0.68964 0.92983 0.94860
 H752 H 0.69160 0.89818 0.91049
 H753 H 0.75837 0.92583 0.87862
 H754 H 0.75685 0.95718 0.91711
 H755 H 0.76174 0.88990 0.79397
 H756 H 0.76686 0.85557 0.76009
 H757 H 0.72799 0.81184 0.82382
 H758 H 0.72226 0.84612 0.85712
 C759 C 0.19359 0.43230 0.44490
 C760 C 0.19365 0.41329 0.42451
 C761 C 0.21339 0.40910 0.40617
 C762 C 0.23313 0.42426 0.40830
 C763 C 0.23324 0.44300 0.42899
 C764 C 0.21354 0.44714 0.44763
 N765 N 0.21346 0.38887 0.38657
 N766 N 0.22930 0.38618 0.36629
 C767 C 0.23047 0.36552 0.34759
 C768 C 0.24594 0.36556 0.32264
 C769 C 0.24846 0.34530 0.30483
 C770 C 0.23576 0.32461 0.31208
 C771 C 0.22017 0.32452 0.33699
 C772 C 0.21738 0.34492 0.35455
 H773 H 0.17821 0.43501 0.45910
 H774 H 0.17837 0.40169 0.42316
 H775 H 0.24865 0.42131 0.39449
 H776 H 0.24883 0.45419 0.43052
 H777 H 0.25621 0.38128 0.31719
 H778 H 0.26066 0.34557 0.28576
 H779 H 0.21038 0.30860 0.34296
 H780 H 0.20548 0.34443 0.37390
 C781 C 0.24264 0.05046 0.93204
 C782 C 0.24110 0.06834 0.91006
 C783 C 0.26137 0.08029 0.89982
 C784 C 0.28343 0.07371 0.91125
 C785 C 0.28508 0.05570 0.93305
 C786 C 0.26466 0.04402 0.94413
 N787 N 0.25894 0.09953 0.87875
 N788 N 0.27628 0.11271 0.87087
 C789 C 0.27356 0.13243 0.85061
 C790 C 0.29254 0.14817 0.84633
 C791 C 0.28986 0.16866 0.82879
 C792 C 0.26813 0.17356 0.81506
 C793 C 0.24940 0.15724 0.81825
 C794 C 0.25202 0.13690 0.83603
 H795 H 0.22651 0.04190 0.93977
 H796 H 0.22399 0.07325 0.90140
 H797 H 0.29938 0.08264 0.90361
 H798 H 0.30237 0.05129 0.94160
 H799 H 0.30924 0.14491 0.85739
 H800 H 0.30451 0.18101 0.82660
 H801 H 0.23256 0.16062 0.80762
 H802 H 0.23714 0.12493 0.83879
 C803 C 0.75025 0.56647 0.44755
 C804 C 0.75034 0.58578 0.42768
 C805 C 0.76459 0.58583 0.40159
 C806 C 0.77927 0.56654 0.39580
 C807 C 0.77982 0.54753 0.41631
 C808 C 0.76513 0.54732 0.44216
 N809 N 0.76415 0.60588 0.38174
 N810 N 0.76826 0.60434 0.35325
 C811 C 0.76798 0.62498 0.33438
 C812 C 0.75888 0.62346 0.30475
 C813 C 0.75639 0.64388 0.28707
 C814 C 0.76387 0.66591 0.29847
 C815 C 0.77409 0.66720 0.32758
 C816 C 0.77578 0.64693 0.34564
 H817 H 0.73897 0.56673 0.46756
 H818 H 0.73906 0.60063 0.43239
 H819 H 0.79058 0.56643 0.37586
 H820 H 0.79146 0.53291 0.41186
 H821 H 0.75280 0.60661 0.29588
 H822 H 0.74839 0.64261 0.26469
 H823 H 0.78000 0.68405 0.33665
 H824 H 0.78305 0.64835 0.36841
 C825 C 0.06962 0.76351 0.93385
 C826 C 0.08900 0.76568 0.91431
 C827 C 0.09560 0.74681 0.89578
 C828 C 0.08281 0.72544 0.89726
 C829 C 0.06383 0.72294 0.91753
 C830 C 0.05691 0.74200 0.93607
 N831 N 0.11592 0.74952 0.87665
 N832 N 0.11883 0.73743 0.85249
 C833 C 0.13990 0.73998 0.83471
 C834 C 0.13926 0.73565 0.80324
 C835 C 0.15955 0.73891 0.78540
 C836 C 0.18097 0.74578 0.79907
 C837 C 0.18166 0.74935 0.83081
 C838 C 0.16126 0.74681 0.84842
 H839 H 0.06501 0.77858 0.94775
 H840 H 0.09886 0.78219 0.91345
 H841 H 0.08785 0.71057 0.88330
 H842 H 0.05451 0.70612 0.91847
 H843 H 0.12290 0.73031 0.79245
 H844 H 0.15858 0.73614 0.76096
 H845 H 0.19802 0.75435 0.84191
 H846 H 0.16219 0.74992 0.87278
 C847 C 0.55913 0.20121 0.42890
 C848 C 0.57735 0.19936 0.40746
 C849 C 0.58500 0.21921 0.39088
 C850 C 0.57396 0.24098 0.39567
 C851 C 0.55590 0.24290 0.41719
 C852 C 0.54842 0.22310 0.43426
 N853 N 0.60470 0.21720 0.37052
 N854 N 0.61169 0.23458 0.35421
 C855 C 0.63211 0.23368 0.33501
 C856 C 0.63853 0.25390 0.31837
 C857 C 0.65958 0.25466 0.30183
 C858 C 0.67455 0.23513 0.30176
 C859 C 0.66773 0.21447 0.31742
 C860 C 0.64662 0.21373 0.33402
 H861 H 0.55378 0.18565 0.44171
 H862 H 0.58576 0.18250 0.40407
 H863 H 0.57958 0.25663 0.38322
 H864 H 0.54796 0.25998 0.42067
 H865 H 0.62752 0.26938 0.31900
 H866 H 0.66461 0.27073 0.28985
 H867 H 0.67914 0.19928 0.31763
 H868 H 0.64201 0.19790 0.34674
 C869 C 0.93905 0.30038 0.92937
 C870 C 0.92009 0.30024 0.90897
 C871 C 0.91272 0.27919 0.89500
 C872 C 0.92483 0.25824 0.90123
 C873 C 0.94364 0.25831 0.92173
 C874 C 0.95081 0.27932 0.93630
 N875 N 0.89233 0.27924 0.87573
 N876 N 0.88546 0.26075 0.86164
 C877 C 0.86453 0.26002 0.84345
 C878 C 0.85886 0.23918 0.82777
 C879 C 0.83788 0.23727 0.81129
 C880 C 0.82216 0.25619 0.81049
 C881 C 0.82800 0.27727 0.82571
 C882 C 0.84908 0.27921 0.84208
 H883 H 0.94412 0.31683 0.94027
 H884 H 0.91088 0.31650 0.90440
 H885 H 0.91948 0.24171 0.89077
 H886 H 0.95237 0.24180 0.92648
 H887 H 0.87061 0.22427 0.82871
 H888 H 0.83367 0.22092 0.79958
 H889 H 0.81604 0.29202 0.82531
 H890 H 0.85305 0.29547 0.85410
 C891 C 0.45016 0.79305 0.41228
 C892 C 0.43095 0.79262 0.39231
 C893 C 0.41311 0.77550 0.39562
 C894 C 0.41502 0.75828 0.41866
 C895 C 0.43450 0.75833 0.43814
 C896 C 0.45212 0.77588 0.43535
 N897 N 0.39333 0.77578 0.37537
 N898 N 0.37396 0.76552 0.38235
 C899 C 0.35416 0.76479 0.36213
 C900 C 0.33213 0.75804 0.37386
 C901 C 0.31264 0.75602 0.35461
 C902 C 0.31502 0.76014 0.32308
 C903 C 0.33706 0.76727 0.31134
 C904 C 0.35650 0.76975 0.33077
 H905 H 0.46357 0.80670 0.40957
 H906 H 0.42974 0.80591 0.37456
 H907 H 0.40154 0.74473 0.42145
 H908 H 0.43554 0.74496 0.45581
 H909 H 0.33013 0.75419 0.39798
 H910 H 0.29576 0.75067 0.36415
 H911 H 0.33927 0.77048 0.28710
 H912 H 0.37342 0.77488 0.32120
 C913 C 0.29492 0.93955 0.08244
 C914 C 0.29606 0.92141 0.10417
 C915 C 0.27574 0.91377 0.11966
 C916 C 0.25420 0.92476 0.11347
 C917 C 0.25298 0.94272 0.09158
 C918 C 0.27329 0.95018 0.07561
 N919 N 0.27713 0.89411 0.14030
 N920 N 0.25953 0.88745 0.15639
 C921 C 0.25994 0.86700 0.17575
 C922 C 0.23981 0.86137 0.19294
 C923 C 0.23850 0.84032 0.20960
 C924 C 0.25732 0.82448 0.20915
 C925 C 0.27792 0.83051 0.19296
 C926 C 0.27925 0.85167 0.17631
 H927 H 0.31087 0.94485 0.07048
 H928 H 0.31276 0.91305 0.10862
 H929 H 0.23820 0.91913 0.12504
 H930 H 0.23607 0.95059 0.08693
 H931 H 0.22482 0.87301 0.19266
 H932 H 0.22248 0.83594 0.22198
 H933 H 0.29257 0.81845 0.19231
 H934 H 0.29499 0.85563 0.16315
 C935 C 0.74689 0.44505 0.58737
 C936 C 0.74641 0.42735 0.60963
 C937 C 0.76490 0.41137 0.61187
 C938 C 0.78439 0.41372 0.59219
 C939 C 0.78513 0.43176 0.57030
 C940 C 0.76621 0.44735 0.56742
 N941 N 0.76305 0.39259 0.63368
 N942 N 0.77614 0.37453 0.63260
 C943 C 0.77362 0.35565 0.65420
 C944 C 0.78310 0.33360 0.64722
 C945 C 0.77906 0.31428 0.66655
 C946 C 0.76593 0.31699 0.69348
 C947 C 0.75727 0.33930 0.70117
 C948 C 0.76090 0.35849 0.68153
 H949 H 0.73215 0.45696 0.58578
 H950 H 0.73132 0.42571 0.62473
 H951 H 0.79895 0.40159 0.59365
 H952 H 0.80021 0.43316 0.55515
 H953 H 0.79292 0.33122 0.62623
 H954 H 0.78578 0.29713 0.66031
 H955 H 0.74710 0.34161 0.72190
 H956 H 0.75354 0.37543 0.68748
 C957 C 0.69998 0.04695 0.08298
 C958 C 0.69946 0.06547 0.10416
 C959 C 0.71687 0.08324 0.10357
 C960 C 0.73520 0.08199 0.08202
 C961 C 0.73606 0.06324 0.06141
 C962 C 0.71838 0.04563 0.06152
 N963 N 0.71600 0.10222 0.12515
 N964 N 0.72664 0.12175 0.11986
 C965 C 0.72750 0.14078 0.14131
 C966 C 0.73496 0.16309 0.13108
 C967 C 0.73790 0.18169 0.15166
 C968 C 0.73401 0.17808 0.18303
 C969 C 0.72596 0.15583 0.19327
 C970 C 0.72258 0.13730 0.17250
 H971 H 0.68619 0.03354 0.08359
 H972 H 0.68531 0.06616 0.12076
 H973 H 0.74899 0.09539 0.08132
 H974 H 0.75037 0.06271 0.04503
 H975 H 0.73883 0.16596 0.10711
 H976 H 0.74392 0.19875 0.14327
 H977 H 0.72289 0.15270 0.21738
 H978 H 0.71695 0.12013 0.18091
 C979 C 0.20457 0.54896 0.59650
 C980 C 0.20605 0.56780 0.61714
 C981 C 0.22137 0.58691 0.61141
 C982 C 0.23578 0.58670 0.58530
 C983 C 0.23491 0.56755 0.56527
 C984 C 0.21914 0.54866 0.57054
 N985 N 0.22244 0.60625 0.63238
 N986 N 0.22719 0.62710 0.62306
 C987 C 0.22991 0.64661 0.64351
 C988 C 0.22567 0.66944 0.63272
 C989 C 0.22936 0.68898 0.65164
 C990 C 0.23816 0.68595 0.68130
 C991 C 0.24257 0.66305 0.69210
 C992 C 0.23812 0.64344 0.67347
 H993 H 0.19236 0.53450 0.60101
 H994 H 0.19494 0.56773 0.63729
 H995 H 0.24793 0.60119 0.58068
 H996 H 0.24623 0.56771 0.54530
 H997 H 0.21951 0.67208 0.60958
 H998 H 0.22598 0.70653 0.64292
 H999 H 0.24963 0.66043 0.71480
 H1000 H 0.24184 0.62592 0.68202
 C1001 C 0.93389 0.74945 0.04765
 C1002 C 0.91346 0.74835 0.06536
 C1003 C 0.90936 0.72932 0.08512
 C1004 C 0.92575 0.71093 0.08658
 C1005 C 0.94596 0.71167 0.06810
 C1006 C 0.95026 0.73109 0.04874
 N1007 N 0.88829 0.72915 0.10307
 N1008 N 0.88601 0.71732 0.12767
 C1009 C 0.86444 0.71796 0.14466
 C1010 C 0.86487 0.71461 0.17635
 C1011 C 0.84440 0.71765 0.19372
 C1012 C 0.82309 0.72345 0.17942
 C1013 C 0.82245 0.72546 0.14744
 C1014 C 0.84301 0.72307 0.13024
 H1015 H 0.93668 0.76448 0.03264
 H1016 H 0.90088 0.76254 0.06398
 H1017 H 0.92274 0.69596 0.10159
 H1018 H 0.95834 0.69730 0.06921
 H1019 H 0.88127 0.71062 0.18771
 H1020 H 0.84525 0.71595 0.21834
 H1021 H 0.80613 0.72956 0.13593
 H1022 H 0.84224 0.72542 0.10571
 C1023 C 0.43557 0.25659 0.56010
 C1024 C 0.41644 0.25818 0.58011
 C1025 C 0.41210 0.24048 0.60184
 C1026 C 0.42718 0.22103 0.60345
 C1027 C 0.44603 0.21914 0.58297
 C1028 C 0.45035 0.23688 0.56105
 N1029 N 0.39177 0.24223 0.62107
 N1030 N 0.38927 0.23025 0.64554
 C1031 C 0.36829 0.23184 0.66361
 C1032 C 0.36905 0.22622 0.69477
 C1033 C 0.34900 0.22882 0.71309
 C1034 C 0.32775 0.23648 0.70025
 C1035 C 0.32679 0.24105 0.66872
 C1036 C 0.34695 0.23907 0.65062
 H1037 H 0.43838 0.27041 0.54328
 H1038 H 0.40487 0.27320 0.57859
 H1039 H 0.42403 0.20706 0.61996
 H1040 H 0.45716 0.20377 0.58419
 H1041 H 0.38536 0.22049 0.70500
 H1042 H 0.35013 0.22518 0.73735
 H1043 H 0.31051 0.24666 0.65826
 H1044 H 0.34587 0.24313 0.62649
 C1045 C 0.05391 0.25263 0.07763
 C1046 C 0.07231 0.25070 0.09853
 C1047 C 0.08659 0.27027 0.10536
 C1048 C 0.08189 0.29218 0.09161
 C1049 C 0.06328 0.29422 0.07084
 C1050 C 0.04931 0.27436 0.06333
 N1051 N 0.10608 0.26708 0.12558
 N1052 N 0.12123 0.28327 0.13112
 C1053 C 0.14084 0.27915 0.15091
 C1054 C 0.15808 0.29687 0.15450
 C1055 C 0.17793 0.29286 0.17260
 C1056 C 0.18069 0.27106 0.18744
 C1057 C 0.16322 0.25346 0.18429
 C1058 C 0.14348 0.25743 0.16613
 H1059 H 0.04342 0.23703 0.07248
 H1060 H 0.07576 0.23375 0.10903
 H1061 H 0.09270 0.30758 0.09664
 H1062 H 0.06018 0.31117 0.06014
 H1063 H 0.15628 0.31366 0.14289
 H1064 H 0.19126 0.30662 0.17480
 H1065 H 0.16503 0.23658 0.19571
 H1066 H 0.13040 0.24345 0.16381
 C1067 C 0.57005 0.80204 0.55757
 C1068 C 0.58949 0.80281 0.57713
 C1069 C 0.59673 0.78243 0.59238
 C1070 C 0.58413 0.76114 0.58805
 C1071 C 0.56478 0.76029 0.56835
 C1072 C 0.55759 0.78071 0.55276
 N1073 N 0.61729 0.78362 0.61129
 N1074 N 0.62405 0.76601 0.62697
 C1075 C 0.64505 0.76668 0.64506
 C1076 C 0.65075 0.74677 0.66240
 C1077 C 0.67175 0.74621 0.67893
 C1078 C 0.68747 0.76557 0.67818
 C1079 C 0.68157 0.78578 0.66134
 C1080 C 0.66047 0.78636 0.64488
 H1081 H 0.56501 0.81807 0.54588
 H1082 H 0.59907 0.81931 0.58022
 H1083 H 0.58942 0.74510 0.59952
 H1084 H 0.55555 0.74361 0.56518
 H1085 H 0.63903 0.73151 0.66271
 H1086 H 0.67599 0.73051 0.69188
 H1087 H 0.69353 0.80084 0.66046
 H1088 H 0.65645 0.80195 0.63159
   
