data_POSCAR
  _audit_creation_date              2014-09-24
  _audit_creation_method            'ToBaCCo'
  _symmetry_space_group_name_H-M    'P1'
  _symmetry_Int_Tables_number       1
  _symmetry_cell_setting            triclinic
  loop_
  _symmetry_equiv_pos_as_xyz
 x,y,z
_cell_length_a 30.3402
_cell_length_b 36.1429
_cell_length_c 31.2533
_cell_angle_alpha 77.551200
_cell_angle_beta 83.182500
_cell_angle_gamma 94.163000
loop_
  _atom_site_label
  _atom_site_type_symbol
  _atom_site_fract_x
  _atom_site_fract_y
  _atom_site_fract_z
C1 C 0.60757 0.62304 0.59641
 C2 C 0.58953 0.64893 0.61943
 C3 C 0.58563 0.68641 0.59719
 C4 C 0.59997 0.69807 0.55155
 C5 C 0.61957 0.67285 0.52833
 C6 C 0.62273 0.63499 0.55072
 C7 C 0.61153 0.58565 0.61865
 C8 C 0.62929 0.55933 0.59577
 C9 C 0.64442 0.57158 0.55002
 C10 C 0.64218 0.60940 0.52770
 C11 C 0.66079 0.62245 0.48319
 C12 C 0.66037 0.66075 0.46133
 C13 C 0.63809 0.68540 0.48374
 H14 H 0.57841 0.63993 0.65470
 H15 H 0.59774 0.72727 0.53463
 H16 H 0.59994 0.57693 0.65387
 H17 H 0.65953 0.55236 0.53181
 H18 H 0.67736 0.60311 0.46608
 H19 H 0.63704 0.71488 0.46753
 C20 C 0.91303 0.37701 0.12859
 C21 C 0.92786 0.34260 0.12134
 C22 C 0.91168 0.32548 0.08902
 C23 C 0.87836 0.34229 0.06588
 C24 C 0.86227 0.37585 0.07390
 C25 C 0.88001 0.39368 0.10482
 C26 C 0.93159 0.39558 0.15831
 C27 C 0.91761 0.43057 0.16453
 C28 C 0.88373 0.44638 0.14169
 C29 C 0.86504 0.42838 0.11157
 C30 C 0.83225 0.44478 0.08745
 C31 C 0.81407 0.42662 0.05705
 C32 C 0.82913 0.39214 0.05073
 H33 H 0.95352 0.33015 0.13949
 H34 H 0.86420 0.32924 0.04186
 H35 H 0.95716 0.38286 0.17630
 H36 H 0.87284 0.47332 0.14640
 H37 H 0.82070 0.47135 0.09263
 H38 H 0.81559 0.37824 0.02696
 C39 C 0.42178 0.10922 -0.12572
 C40 C 0.44413 0.14044 -0.11454
 C41 C 0.42442 0.15657 -0.08089
 C42 C 0.38132 0.14224 -0.05947
 C43 C 0.35820 0.11164 -0.07099
 C44 C 0.37861 0.09476 -0.10392
 C45 C 0.44239 0.09177 -0.15764
 C46 C 0.42046 0.05989 -0.16840
 C47 C 0.37689 0.04626 -0.14703
 C48 C 0.35606 0.06317 -0.11463
 C49 C 0.31333 0.04859 -0.09220
 C50 C 0.29285 0.06547 -0.05946
 C51 C 0.31533 0.09720 -0.04945
 H52 H 0.47751 0.15140 -0.13093
 H53 H 0.36577 0.15493 -0.03384
 H54 H 0.47556 0.10332 -0.17379
 H55 H 0.35936 0.02182 -0.15478
 H56 H 0.29604 0.02427 -0.10034
 H57 H 0.29984 0.11013 -0.02398
 C58 C 0.08359 0.86396 0.41094
 C59 C 0.08158 0.83028 0.39558
 C60 C 0.10359 0.79908 0.41469
 C61 C 0.12870 0.80256 0.44916
 C62 C 0.12970 0.83562 0.46592
 C63 C 0.10657 0.86624 0.44708
 C64 C 0.06291 0.89544 0.39078
 C65 C 0.06370 0.92867 0.40725
 C66 C 0.08472 0.93003 0.44463
 C67 C 0.10639 0.89918 0.46440
 C68 C 0.12822 0.90093 0.50102
 C69 C 0.15129 0.87062 0.51997
 C70 C 0.15268 0.83834 0.50184
 H71 H 0.06288 0.82850 0.36847
 H72 H 0.14591 0.77913 0.46460
 H73 H 0.04623 0.89418 0.36222
 H74 H 0.08574 0.95563 0.45739
 H75 H 0.12785 0.92620 0.51443
 H76 H 0.17045 0.81493 0.51659
 N77 N 0.04159 0.17193 0.10155
 N78 N 0.01921 0.16628 0.14150
 C79 C -0.00935 0.19311 0.14211
 C80 C -0.00490 0.21622 0.10007
 C81 C 0.02755 0.20199 0.07516
 H82 H -0.03329 0.19436 0.17018
 H83 H 0.03940 0.21221 0.04024
 Cu84 Cu 0.02706 0.12221 0.18731
 Cu85 Cu 0.08672 0.13935 0.08689
 Cu86 Cu 0.06406 0.04759 0.15049
 N87 N 0.02997 0.07351 0.22757
 N88 N 0.04401 0.04432 0.21292
 C89 C 0.04425 0.01480 0.24747
 C90 C 0.02998 0.02623 0.28577
 C91 C 0.02099 0.06360 0.27200
 H92 H 0.05590 -0.01236 0.24502
 H93 H 0.01046 0.08258 0.29279
 N94 N 0.10220 0.06044 0.09255
 N95 N 0.11317 0.09588 0.06995
 C96 C 0.14440 0.09629 0.03550
 C97 C 0.15321 0.05928 0.03620
 C98 C 0.12583 0.03716 0.07263
 H99 H 0.16025 0.12171 0.01220
 H100 H 0.12537 0.00681 0.08536
 H101 H 0.03969 0.09784 0.12025
 H102 H 0.09101 0.10120 0.14740
 N103 N 0.45517 0.82822 0.62480
 N104 N 0.48088 0.84283 0.64931
 C105 C 0.51458 0.82127 0.65695
 C106 C 0.51024 0.79187 0.63549
 C107 C 0.47243 0.79721 0.61501
 H108 H 0.54001 0.82634 0.67711
 H109 H 0.45730 0.77881 0.59654
 Cu110 Cu 0.46802 0.88843 0.66958
 Cu111 Cu 0.39888 0.84889 0.61235
 Cu112 Cu 0.35950 0.89484 0.69400
 N113 N 0.44722 0.92583 0.70113
 N114 N 0.40434 0.92734 0.71222
 C115 C 0.39880 0.95412 0.73584
 C116 C 0.44049 0.97066 0.73884
 C117 C 0.47054 0.95205 0.71649
 H118 H 0.36685 0.96150 0.74902
 H119 H 0.50655 0.95687 0.71220
 N120 N 0.32103 0.87490 0.65577
 N121 N 0.33605 0.85920 0.62316
 C122 C 0.30250 0.85349 0.59986
 C123 C 0.26475 0.86642 0.61877
 C124 C 0.27769 0.87961 0.65415
 H125 H 0.30575 0.84221 0.57040
 H126 H 0.25784 0.89383 0.67550
 H127 H 0.40029 0.89963 0.63588
 H128 H 0.39534 0.85247 0.67561
 N129 N 0.97794 0.68793 0.32283
 N130 N 1.00221 0.65904 0.32488
 C131 C 1.04042 0.66758 0.34024
 C132 C 1.04007 0.70389 0.34788
 C133 C 1.00020 0.71611 0.33604
 H134 H 1.06573 0.64834 0.34689
 H135 H 0.98705 0.74251 0.33953
 Cu136 Cu 0.98037 0.61243 0.30924
 Cu137 Cu 0.91710 0.68468 0.30848
 Cu138 Cu 0.87008 0.59307 0.31566
 N139 N 0.95522 0.57103 0.28591
 N140 N 0.91183 0.56397 0.28752
 C141 C 0.90345 0.53468 0.26839
 C142 C 0.94377 0.52266 0.25438
 C143 C 0.97597 0.54624 0.26609
 H144 H 0.87052 0.52290 0.26516
 H145 H 1.01175 0.54583 0.25996
 N146 N 0.83433 0.63482 0.32376
 N147 N 0.85200 0.67041 0.31715
 C148 C 0.81974 0.69206 0.32722
 C149 C 0.78023 0.66877 0.34171
 C150 C 0.79065 0.63267 0.33918
 H151 H 0.82559 0.72158 0.32883
 H152 H 0.76871 0.60650 0.35020
 H153 H 0.91046 0.62944 0.34285
 H154 H 0.91347 0.63667 0.28155
 N155 N 0.58347 0.31228 -0.09144
 N156 N 0.57210 0.31535 -0.13126
 C157 C 0.53991 0.28731 -0.13011
 C158 C 0.53040 0.26603 -0.08710
 C159 C 0.55867 0.28257 -0.06344
 H160 H 0.52368 0.28343 -0.15807
 H161 H 0.56097 0.27381 -0.02849
 Cu162 Cu 0.59897 0.35706 -0.17996
 Cu163 Cu 0.62981 0.34715 -0.07950
 Cu164 Cu 0.63404 0.43647 -0.14814
 N165 N 0.61497 0.40547 -0.22218
 N166 N 0.62614 0.43680 -0.20931
 C167 C 0.63215 0.46645 -0.24460
 C168 C 0.62534 0.45273 -0.28152
 C169 C 0.61457 0.41393 -0.26623
 H170 H 0.64186 0.49562 -0.24365
 H171 H 0.60620 0.39358 -0.28553
 N172 N 0.65844 0.42728 -0.09112
 N173 N 0.65846 0.39274 -0.06632
 C174 C 0.68217 0.39449 -0.03307
 C175 C 0.69779 0.43196 -0.03684
 C176 C 0.68210 0.45219 -0.07389
 H177 H 0.68887 0.37010 -0.00875
 H178 H 0.68986 0.48222 -0.08883
 H179 H 0.59643 0.38574 -0.11586
 H180 H 0.65470 0.38364 -0.14186
 C181 C -0.07034 0.29288 0.07932
 C182 C -0.07499 0.27925 0.04168
 C183 C -0.05020 0.24918 0.04431
 C184 C -0.03301 0.24597 0.08355
 O185 O -0.04484 0.27237 0.10486
 H186 H -0.09267 0.29045 0.01442
 H187 H -0.04548 0.23143 0.02065
 C188 C 0.56901 0.71403 0.62208
 C189 C 0.58043 0.71662 0.66284
 C190 C 0.56035 0.74671 0.67292
 C191 C 0.53768 0.75985 0.63788
 O192 O 0.54298 0.74023 0.60679
 H193 H 0.60166 0.69917 0.68235
 H194 H 0.56166 0.75755 0.70249
 C195 C 1.09862 0.76492 0.40011
 C196 C 1.12213 0.73356 0.41136
 C197 C 1.10464 0.70683 0.39150
 C198 C 1.07156 0.72351 0.36999
 O199 O 1.06806 0.75864 0.37483
 H200 H 1.14873 0.73008 0.43159
 H201 H 1.11392 0.67820 0.39372
 C202 C 0.44972 0.18745 -0.06725
 C203 C 0.44706 0.19218 -0.02437
 C204 C 0.47754 0.22220 -0.02599
 C205 C 0.49611 0.23378 -0.06976
 O206 O 0.47949 0.21271 -0.09488
 H207 H 0.42623 0.17519 0.00475
 H208 H 0.48514 0.23435 0.00137
 C209 C 0.04499 -0.03737 0.38367
 C210 C 0.02846 -0.00928 0.40289
 C211 C 0.01885 0.01801 0.36873
 C212 C 0.03036 0.00460 0.33127
 O213 O 0.04595 -0.02902 0.34022
 H214 H 0.02462 -0.00843 0.43752
 H215 H 0.00625 0.04491 0.37080
 C216 C 0.63190 0.52180 -0.38084
 C217 C 0.64100 0.49109 -0.39927
 C218 C 0.63874 0.46063 -0.36432
 C219 C 0.62928 0.47498 -0.32726
 O220 O 0.62496 0.51181 -0.33705
 H221 H 0.64744 0.49034 -0.43383
 H222 H 0.64398 0.43158 -0.36566
 C223 C 0.44130 1.04108 0.80082
 C224 C 0.48539 1.04847 0.78093
 C225 C 0.49114 1.02270 0.75523
 C226 C 0.45034 1.00173 0.76082
 O227 O 0.42017 1.01267 0.78831
 H228 H 0.51095 1.06942 0.78489
 H229 H 0.52142 1.01971 0.73471
 C230 C 0.93929 0.45165 0.19343
 C231 C 0.98228 0.44844 0.20324
 C232 C 0.98979 0.47473 0.22762
 C233 C 0.95080 0.49181 0.23120
 O234 O 0.92016 0.47801 0.21045
 H235 H 1.00594 0.43008 0.19274
 H236 H 1.02012 0.48086 0.24096
 C237 C 0.24847 0.05013 -0.03450
 C238 C 0.23026 0.01268 -0.02617
 C239 C 0.19136 0.01083 0.00151
 C240 C 0.18861 0.04732 0.00747
 O241 O 0.22310 0.07109 -0.01416
 H242 H 0.24438 -0.01076 -0.03742
 H243 H 0.16812 -0.01411 0.01600
 C244 C 0.68760 0.67520 0.41729
 C245 C 0.69117 0.71216 0.39222
 C246 C 0.72534 0.71429 0.35894
 C247 C 0.73972 0.67850 0.36569
 O248 O 0.71694 0.65478 0.40079
 H249 H 0.67283 0.73549 0.39827
 H250 H 0.73926 0.73927 0.33379
 C251 C 0.77952 0.44277 0.03103
 C252 C 0.77277 0.48083 0.01917
 C253 C 0.74050 0.48240 -0.00814
 C254 C 0.72981 0.44519 -0.01031
 O255 O 0.75335 0.42131 0.01325
 H256 H 0.79031 0.50468 0.02792
 H257 H 0.72685 0.50756 -0.02478
 C258 C 0.17340 0.87285 0.55902
 C259 C 0.15609 0.88906 0.59264
 C260 C 0.18746 0.88743 0.62045
 C261 C 0.22179 0.87056 0.60166
 O262 O 0.21327 0.86140 0.56444
 H263 H 0.12453 0.90102 0.59615
 H264 H 0.18591 0.89824 0.65023
   
