data_POSCAR
  _audit_creation_date              2014-09-24
  _audit_creation_method            'ToBaCCo'
  _symmetry_space_group_name_H-M    'P1'
  _symmetry_Int_Tables_number       1
  _symmetry_cell_setting            triclinic
  loop_
  _symmetry_equiv_pos_as_xyz
 x,y,z
_cell_length_a 32.4814
_cell_length_b 29.0796
_cell_length_c 7.1557
_cell_angle_alpha 90.989900
_cell_angle_beta 90.838600
_cell_angle_gamma 89.914500
loop_
  _atom_site_label
  _atom_site_type_symbol
  _atom_site_fract_x
  _atom_site_fract_y
  _atom_site_fract_z
C1 C 0.33112 0.28893 0.23718
 C2 C 0.35267 0.24754 0.24992
 C3 C 0.33202 0.20538 0.25541
 C4 C 0.28852 0.20444 0.23245
 C5 C 0.26648 0.24629 0.21261
 C6 C 0.28790 0.28865 0.21417
 C7 C 0.26560 0.32990 0.19906
 C8 C 0.22287 0.32972 0.19032
 C9 C 0.20086 0.28821 0.19032
 C10 C 0.22281 0.24596 0.19872
 C11 C 0.26657 0.16282 0.22874
 C12 C 0.22382 0.16242 0.21656
 C13 C 0.20120 0.20352 0.19986
 C14 C 0.15751 0.20370 0.19458
 C15 C 0.13664 0.24585 0.18601
 C16 C 0.15741 0.28780 0.18629
 H17 H 0.28104 0.36285 0.19725
 H18 H 0.20730 0.36259 0.18545
 H19 H 0.28227 0.13008 0.23850
 H20 H 0.20875 0.12941 0.22450
 H21 H 0.38578 0.24856 0.27276
 H22 H 0.10325 0.24613 0.17526
 C23 C 0.65847 0.20455 0.30249
 C24 C 0.63639 0.24579 0.30531
 C25 C 0.65592 0.28829 0.28646
 C26 C 0.69919 0.28997 0.26749
 C27 C 0.72207 0.24838 0.26206
 C28 C 0.70159 0.20549 0.27718
 C29 C 0.72474 0.16471 0.26788
 C30 C 0.76724 0.16596 0.24770
 C31 C 0.78818 0.20802 0.23341
 C32 C 0.76550 0.24966 0.24118
 C33 C 0.72013 0.33199 0.25298
 C34 C 0.76276 0.33327 0.23612
 C35 C 0.78607 0.29249 0.22591
 C36 C 0.82954 0.29334 0.20466
 C37 C 0.85142 0.25173 0.20237
 C38 C 0.83125 0.20938 0.20893
 H39 H 0.71015 0.13138 0.27653
 H40 H 0.78363 0.13352 0.24386
 H41 H 0.70377 0.36442 0.25504
 H42 H 0.77730 0.36666 0.23029
 H43 H 0.60336 0.24487 0.32560
 H44 H 0.88445 0.25210 0.18127
 C45 C 0.66056 0.70472 0.64553
 C46 C 0.63940 0.74647 0.63627
 C47 C 0.66003 0.78853 0.64473
 C48 C 0.70349 0.78912 0.65341
 C49 C 0.72549 0.74690 0.66152
 C50 C 0.70395 0.70451 0.65774
 C51 C 0.72626 0.66321 0.66963
 C52 C 0.76895 0.66352 0.68818
 C53 C 0.79090 0.70518 0.69900
 C54 C 0.76904 0.74715 0.67959
 C55 C 0.72546 0.83067 0.65792
 C56 C 0.76819 0.83083 0.67073
 C57 C 0.79045 0.78951 0.68552
 C58 C 0.83358 0.78965 0.71232
 C59 C 0.85500 0.74817 0.72610
 C60 C 0.83423 0.70601 0.72782
 H61 H 0.71089 0.63021 0.66688
 H62 H 0.78464 0.63072 0.69568
 H63 H 0.70985 0.86352 0.65261
 H64 H 0.78363 0.86380 0.67218
 H65 H 0.60602 0.74624 0.62626
 H66 H 0.88798 0.74909 0.75283
 C67 C 0.15743 0.70433 0.82133
 C68 C 0.13550 0.74564 0.80614
 C69 C 0.15533 0.78842 0.79774
 C70 C 0.19906 0.78987 0.79774
 C71 C 0.22182 0.74812 0.79979
 C72 C 0.20105 0.70528 0.81151
 C73 C 0.22428 0.66440 0.80445
 C74 C 0.26686 0.66545 0.78782
 C75 C 0.28793 0.70735 0.77361
 C76 C 0.26543 0.74910 0.78334
 C77 C 0.22060 0.83168 0.78332
 C78 C 0.26332 0.83261 0.77322
 C79 C 0.28627 0.79171 0.76801
 C80 C 0.32941 0.79222 0.74100
 C81 C 0.35103 0.75068 0.73111
 C82 C 0.33083 0.70846 0.74267
 H83 H 0.20962 0.63105 0.80795
 H84 H 0.28311 0.63293 0.78317
 H85 H 0.20467 0.86426 0.77493
 H86 H 0.27814 0.86579 0.76364
 H87 H 0.10215 0.74479 0.81471
 H88 H 0.38377 0.75114 0.70328
 O89 O 1.03177 -0.05651 0.06922
 O90 O 0.95153 0.02846 0.18700
 O91 O 0.95218 -0.05403 0.04657
 O92 O 1.03166 0.02938 0.18902
 O93 O 1.03404 0.05192 -0.10353
 O94 O 0.95201 -0.02911 -0.24249
 O95 O 0.95417 0.05326 -0.10188
 O96 O 1.03187 -0.03402 -0.22368
 Cu97 Cu 0.99192 -0.01592 0.15058
 Cu98 Cu 0.99347 0.01325 -0.19505
 C99 C 1.04442 -0.06098 -0.09683
 C100 C 0.93879 0.05520 0.06005
 C101 C 0.93785 -0.05535 -0.11916
 C102 C 1.04581 0.05573 0.06554
 O103 O 0.53083 0.44385 0.56651
 O104 O 0.45171 0.52872 0.69625
 O105 O 0.45124 0.44631 0.55358
 O106 O 0.53204 0.52992 0.67977
 O107 O 0.53111 0.55240 0.38707
 O108 O 0.44898 0.47047 0.26345
 O109 O 0.45137 0.55280 0.40629
 O110 O 0.52897 0.46605 0.27336
 Cu111 Cu 0.49174 0.48462 0.65120
 Cu112 Cu 0.49019 0.51317 0.30561
 C113 C 0.54254 0.43928 0.39914
 C114 C 0.43756 0.55504 0.57109
 C115 C 0.43587 0.44442 0.38970
 C116 C 0.54492 0.55621 0.55303
 O117 O 0.03453 0.52771 -0.19401
 O118 O -0.04890 0.44696 -0.08267
 O119 O -0.04616 0.52965 -0.21282
 O120 O 0.03072 0.44233 -0.08857
 O121 O 0.03073 0.46557 0.20652
 O122 O -0.04615 0.55389 0.08048
 O123 O -0.04942 0.47105 0.21112
 O124 O 0.03423 0.55115 0.10041
 Cu125 Cu -0.00750 0.48426 -0.17144
 Cu126 Cu -0.00746 0.51342 0.17808
 C127 C 0.04899 0.55311 -0.06221
 C128 C -0.06359 0.44518 0.08049
 C129 C -0.05982 0.55632 -0.08617
 C130 C 0.04332 0.43817 0.07870
 O131 O 0.45452 1.05363 0.58966
 O132 O 0.53249 0.96561 0.70463
 O133 O 0.53484 1.05087 0.59762
 O134 O 0.45209 0.97079 0.71941
 O135 O 0.45088 0.94658 0.42604
 O136 O 0.53364 1.02718 0.30362
 O137 O 0.53031 0.94228 0.40968
 O138 O 0.45265 1.02950 0.29612
 Cu139 Cu 0.49382 1.01315 0.68132
 Cu140 Cu 0.49155 0.98398 0.33154
 C141 C 0.43976 1.05608 0.42492
 C142 C 0.54438 0.93840 0.57472
 C143 C 0.54894 1.05251 0.43373
 C144 C 0.43707 0.94493 0.59080
 C145 C 1.11044 0.09679 0.00462
 C146 C 1.13857 0.13211 0.03842
 C147 C 1.13344 0.16328 0.18847
 C148 C 1.09968 0.15727 0.31008
 C149 C 1.06986 0.12297 0.26918
 C150 C 1.07584 0.09192 0.11710
 C151 C 1.03416 0.12235 0.37800
 N152 N 1.03087 0.15076 0.52932
 N153 N 1.06061 0.18030 0.57730
 C154 C 1.09489 0.18447 0.47327
 H155 H 1.11510 0.07381 -0.11406
 H156 H 1.16331 0.13655 -0.05965
 H157 H 1.00850 0.10033 0.34224
 H158 H 1.11820 0.20883 0.51906
 C159 C 0.60637 0.59936 0.45994
 C160 C 0.63505 0.63454 0.48273
 C161 C 0.63540 0.66232 0.64413
 C162 C 0.60693 0.65384 0.78735
 C163 C 0.57605 0.61999 0.75935
 C164 C 0.57634 0.59182 0.59516
 C165 C 0.54473 0.61758 0.89240
 N166 N 0.54664 0.64407 1.05020
 N167 N 0.57736 0.67354 1.08232
 C168 C 0.60750 0.67945 0.95604
 H169 H 0.60687 0.57870 0.33247
 H170 H 0.65626 0.64116 0.37085
 H171 H 0.51808 0.59624 0.86983
 H172 H 0.63158 0.70411 0.98811
 C173 C -0.09208 0.38462 0.27931
 C174 C -0.11722 0.34661 0.30652
 C175 C -0.14804 0.33416 0.17562
 C176 C -0.15330 0.36097 0.01237
 C177 C -0.12800 0.40012 -0.01377
 C178 C -0.09614 0.41097 0.11805
 C179 C -0.13537 0.42702 -0.17271
 N180 N -0.16408 0.41376 -0.30198
 N181 N -0.18610 0.37562 -0.28299
 C182 C -0.18159 0.34870 -0.13126
 H183 H -0.06793 0.39218 0.38123
 H184 H -0.11238 0.32645 0.43102
 H185 H -0.11901 0.45874 -0.19486
 H186 H -0.20005 0.31790 -0.12518
 C187 C 0.40685 0.88807 0.80352
 C188 C 0.38141 0.85069 0.83834
 C189 C 0.35275 0.83502 0.70379
 C190 C 0.34877 0.85848 0.53240
 C191 C 0.37366 0.89752 0.49924
 C192 C 0.40444 0.91101 0.63276
 C193 C 0.36650 0.92188 0.33330
 N194 N 0.33828 0.90639 0.20574
 N195 N 0.31657 0.86835 0.23267
 C196 C 0.32093 0.84380 0.39100
 H197 H 0.42990 0.89778 0.90780
 H198 H 0.38493 0.83291 0.96948
 H199 H 0.38227 0.95360 0.30482
 H200 H 0.30241 0.81324 0.40503
 C201 C -0.08537 0.61605 -0.29908
 C202 C -0.11053 0.65319 -0.34276
 C203 C -0.14270 0.66666 -0.22513
 C204 C -0.14901 0.64230 -0.05697
 C205 C -0.12372 0.60390 -0.01423
 C206 C -0.09085 0.59165 -0.13421
 C207 C -0.13235 0.57907 0.14796
 N208 N -0.16215 0.59382 0.26540
 N209 N -0.18412 0.63150 0.23141
 C210 C -0.17849 0.65632 0.07528
 H211 H -0.06042 0.60730 -0.39217
 H212 H -0.10488 0.67160 -0.47035
 H213 H -0.11615 0.54780 0.18212
 H214 H -0.19697 0.68688 0.05705
 C215 C 0.41239 1.11567 0.21596
 C216 C 0.38681 1.15273 0.17635
 C217 C 0.35555 1.16613 0.29911
 C218 C 0.35066 1.14181 0.46837
 C219 C 0.37634 1.10346 0.50703
 C220 C 0.40827 1.09128 0.38174
 C221 C 0.36899 1.07859 0.67052
 N222 N 0.34007 1.09326 0.79257
 N223 N 0.31780 1.13091 0.76215
 C224 C 0.32221 1.15578 0.60527
 H225 H 0.43659 1.10696 0.11880
 H226 H 0.39140 1.17114 0.04781
 H227 H 0.38548 1.04734 0.70213
 H228 H 0.30356 1.18631 0.58992
 C229 C 1.10754 -0.10446 -0.01952
 C230 C 1.13521 -0.14048 -0.04679
 C231 C 1.13038 -0.17165 -0.19777
 C232 C 1.09692 -0.16533 -0.32553
 C233 C 1.06790 -0.12963 -0.29343
 C234 C 1.07376 -0.09848 -0.14058
 C235 C 1.03310 -0.12753 -0.41236
 N236 N 1.02967 -0.15644 -0.56245
 N237 N 1.05840 -0.18778 -0.60024
 C238 C 1.09187 -0.19320 -0.48740
 H239 H 1.11212 -0.08150 0.09985
 H240 H 1.15963 -0.14518 0.05599
 H241 H 1.00826 -0.10384 -0.38592
 H242 H 1.11432 -0.21907 -0.52568
 C243 C 0.60473 0.39456 0.48159
 C244 C 0.63256 0.35870 0.45394
 C245 C 0.62960 0.33008 0.29502
 C246 C 0.59792 0.33790 0.16111
 C247 C 0.56811 0.37265 0.19470
 C248 C 0.57229 0.40215 0.35408
 C249 C 0.53397 0.37480 0.07223
 N250 N 0.53209 0.34721 -0.08245
 N251 N 0.56162 0.31683 -0.12073
 C252 C 0.59438 0.31107 -0.00388
 H253 H 0.60808 0.41603 0.60617
 H254 H 0.65609 0.35255 0.55952
 H255 H 0.50818 0.39697 0.10099
 H256 H 0.61724 0.28548 -0.04042
 C257 C 0.90844 -0.11305 -0.34016
 C258 C 0.88418 -0.15158 -0.37853
 C259 C 0.85664 -0.16750 -0.24597
 C260 C 0.85224 -0.14331 -0.07376
 C261 C 0.87580 -0.10318 -0.03747
 C262 C 0.90575 -0.08952 -0.16807
 C263 C 0.86830 -0.07796 0.12858
 N264 N 0.84095 -0.09372 0.25360
 N265 N 0.82046 -0.13282 0.22386
 C266 C 0.82525 -0.15824 0.06511
 H267 H 0.93083 -0.10293 -0.44228
 H268 H 0.88766 -0.16986 -0.51061
 H269 H 0.88314 -0.04540 0.15885
 H270 H 0.80777 -0.18969 0.04899
 C271 C 0.40592 0.38581 0.17487
 C272 C 0.38148 0.34726 0.14011
 C273 C 0.35432 0.33186 0.27527
 C274 C 0.35059 0.35652 0.44681
 C275 C 0.37438 0.39664 0.47963
 C276 C 0.40380 0.40990 0.34593
 C277 C 0.36762 0.42228 0.64537
 N278 N 0.34069 0.40696 0.77313
 N279 N 0.31995 0.36790 0.74649
 C280 C 0.32409 0.34206 0.58841
 H281 H 0.42798 0.39558 0.07064
 H282 H 0.38451 0.32857 0.00869
 H283 H 0.38273 0.45479 0.67336
 H284 H 0.30647 0.31065 0.57497
 C285 C 0.07864 0.61345 -0.25904
 C286 C 0.10415 0.65126 -0.28431
 C287 C 0.13458 0.66362 -0.15099
 C288 C 0.13903 0.63671 0.01257
 C289 C 0.11351 0.59759 0.03611
 C290 C 0.08199 0.58702 -0.09781
 C291 C 0.12031 0.57045 0.19486
 N292 N 0.14848 0.58356 0.32680
 N293 N 0.17047 0.62182 0.31075
 C294 C 0.16656 0.64893 0.15934
 H295 H 0.05476 0.60613 -0.36256
 H296 H 0.09991 0.67135 -0.40938
 H297 H 0.10391 0.53866 0.21479
 H298 H 0.18489 0.67987 0.15615
 C299 C 0.58078 1.10945 0.22601
 C300 C 0.60673 1.14670 0.19600
 C301 C 0.63507 1.16146 0.33381
 C302 C 0.63843 1.13699 0.50289
 C303 C 0.61297 1.09814 0.53127
 C304 C 0.58233 1.08578 0.39511
 C305 C 0.61938 1.07285 0.69545
 N306 N 0.64746 1.08726 0.82568
 N307 N 0.66975 1.12508 0.80308
 C308 C 0.66610 1.15051 0.64677
 H309 H 0.55794 1.10054 0.11967
 H310 H 0.60376 1.16519 0.06629
 H311 H 0.60312 1.04123 0.72040
 H312 H 0.68508 1.18083 0.63625
 C313 C 0.10390 0.39158 -0.01097
 C314 C 0.13210 0.35608 0.01558
 C315 C 0.13178 0.33018 0.17867
 C316 C 0.10237 0.34045 0.31767
 C317 C 0.07166 0.37410 0.28409
 C318 C 0.07332 0.40111 0.12097
 C319 C 0.03908 0.37752 0.41049
 N320 N 0.03978 0.35270 0.56929
 N321 N 0.07053 0.32395 0.60828
 C322 C 0.10182 0.31691 0.48778
 H323 H 0.10539 0.41110 -0.13834
 H324 H 0.15377 0.34802 -0.09401
 H325 H 0.01237 0.39818 0.38090
 H326 H 0.12591 0.29294 0.52540
 C327 C 0.60472 0.89351 0.47157
 C328 C 0.63323 0.85800 0.48829
 C329 C 0.63430 0.83077 0.64740
 C330 C 0.60639 0.84000 0.79383
 C331 C 0.57573 0.87435 0.77216
 C332 C 0.57543 0.90204 0.61058
 C333 C 0.54521 0.87785 0.90895
 N334 N 0.54751 0.85167 1.06381
 N335 N 0.57792 0.82162 1.08978
 C336 C 0.60740 0.81484 0.96006
 H337 H 0.60486 0.91380 0.34595
 H338 H 0.65390 0.85086 0.37383
 H339 H 0.51889 0.89987 0.89166
 H340 H 0.63131 0.78985 0.98767
 C341 C 0.90894 0.11418 0.27213
 C342 C 0.88381 0.15222 0.30622
 C343 C 0.85576 0.16726 0.17004
 C344 C 0.85213 0.14281 -0.00249
 C345 C 0.87683 0.10333 -0.03532
 C346 C 0.90684 0.09022 0.10042
 C347 C 0.87013 0.07802 -0.20276
 N348 N 0.84238 0.09294 -0.33155
 N349 N 0.82069 0.13128 -0.30440
 C350 C 0.82468 0.15678 -0.14486
 H351 H 0.93130 0.10453 0.37821
 H352 H 0.88678 0.17064 0.43865
 H353 H 0.88589 0.04601 -0.23146
 H354 H 0.80619 0.18755 -0.13078
 C355 C 0.40899 0.61328 0.78986
 C356 C 0.38385 0.65094 0.83001
 C357 C 0.35485 0.66632 0.69866
 C358 C 0.35020 0.64252 0.52509
 C359 C 0.37482 0.60329 0.48641
 C360 C 0.40581 0.58989 0.61712
 C361 C 0.36709 0.57859 0.31832
 N362 N 0.33853 0.59396 0.19410
 N363 N 0.31694 0.63213 0.22653
 C364 C 0.32183 0.65697 0.38727
 H365 H 0.43224 0.60353 0.89183
 H366 H 0.38766 0.66893 0.96301
 H367 H 0.38266 0.54670 0.28551
 H368 H 0.30335 0.68761 0.40584
   
