data_POSCAR
  _audit_creation_date              2014-09-24
  _audit_creation_method            'ToBaCCo'
  _symmetry_space_group_name_H-M    'P1'
  _symmetry_Int_Tables_number       1
  _symmetry_cell_setting            triclinic
  loop_
  _symmetry_equiv_pos_as_xyz
 x,y,z
_cell_length_a 48.4256
_cell_length_b 48.4374
_cell_length_c 48.4489
_cell_angle_alpha 90.042400
_cell_angle_beta 89.940300
_cell_angle_gamma 89.958500
loop_
  _atom_site_label
  _atom_site_type_symbol
  _atom_site_fract_x
  _atom_site_fract_y
  _atom_site_fract_z
C1 C 0.18918 1.22996 0.18783
 C2 C 0.17869 1.21928 0.21278
 C3 C 0.19119 1.19650 0.22590
 C4 C 0.21498 1.18480 0.21388
 C5 C 0.22575 1.19497 0.18895
 C6 C 0.21274 1.21750 0.17615
 H7 H 0.16044 1.22851 0.22185
 H8 H 0.22485 1.16723 0.22356
 H9 H 0.22107 1.22530 0.15693
 C10 C 0.81143 0.77357 0.19490
 C11 C 0.78646 0.78474 0.18497
 C12 C 0.77480 0.80849 0.19696
 C13 C 0.78805 0.82079 0.21963
 C14 C 0.81283 0.80997 0.23007
 C15 C 0.82435 0.78644 0.21757
 H16 H 0.77633 0.77537 0.16739
 H17 H 0.77924 0.83912 0.22894
 H18 H 0.84354 0.77820 0.22556
 C19 C 0.80582 1.22560 -0.19117
 C20 C 0.81768 1.21383 -0.21503
 C21 C 0.80775 1.18881 -0.22609
 C22 C 0.78512 1.17591 -0.21317
 C23 C 0.77263 1.18746 -0.18967
 C24 C 0.78308 1.21225 -0.17888
 H25 H 0.83518 1.22387 -0.22467
 H26 H 0.77711 1.15671 -0.22136
 H27 H 0.77365 1.22092 -0.16054
 C28 C 0.19207 0.77128 -0.19382
 C29 C 0.18127 0.78392 -0.21759
 C30 C 0.19348 0.80783 -0.22878
 C31 C 0.21716 0.81873 -0.21585
 C32 C 0.22831 0.80634 -0.19212
 C33 C 0.21567 0.78258 -0.18135
 H34 H 0.16302 0.77523 -0.22713
 H35 H 0.22678 0.83718 -0.22399
 H36 H 0.22401 0.77306 -0.16294
 C37 C 0.52444 1.04514 -0.01584
 H38 H 0.51065 1.05577 -0.00188
 C39 C 0.54340 1.06031 -0.03141
 H40 H 0.54367 1.08258 -0.02949
 C41 C 0.54160 1.00325 -0.03443
 H42 H 0.54100 0.98093 -0.03511
 C43 C 0.56075 1.01758 -0.05049
 H44 H 0.57475 1.00605 -0.06358
 N45 N 0.52379 1.01713 -0.01773
 C46 C 0.45901 1.03573 0.01125
 H47 H 0.46003 1.03628 -0.01105
 C48 C 0.44007 1.05239 0.02522
 H49 H 0.42665 1.06580 0.01342
 C50 C 0.47490 1.01689 0.05347
 H51 H 0.48810 1.00260 0.06436
 C52 C 0.45611 1.03306 0.06828
 H53 H 0.45539 1.03127 0.09054
 Zn54 Zn 0.49982 0.99572 0.00447
 N55 N 0.47610 1.01862 0.02547
 C56 C 0.52314 0.94605 0.02577
 N57 N 0.52253 0.97407 0.02771
 C58 C 0.53964 0.98781 0.04518
 C59 C 0.55802 0.97333 0.06196
 C60 C 0.54138 0.93074 0.04203
 C61 C 0.47688 0.97519 -0.04562
 C62 C 0.45852 0.95948 -0.06136
 C63 C 0.44052 0.93980 -0.01921
 C64 C 0.45906 0.95603 -0.00430
 N65 N 0.47689 0.97311 -0.01763
 H66 H 0.50994 0.93554 0.01121
 H67 H 0.53911 1.01013 0.04588
 H68 H 0.57152 0.98476 0.07561
 H69 H 0.54170 0.90848 0.04003
 H70 H 0.49066 0.98945 -0.05581
 H71 H 0.45870 0.96159 -0.08360
 H72 H 0.42645 0.92644 -0.00812
 H73 H 0.45914 0.95521 0.01801
 C74 C 0.43835 1.05111 0.05414
 C75 C 0.56192 1.04652 -0.04902
 C76 C 0.43996 0.94152 -0.04815
 C77 C 0.55920 0.94439 0.06040
 C78 C -0.01224 0.54106 1.03653
 H79 H 0.01005 0.53980 1.03751
 C80 C -0.02634 0.55992 1.05315
 H81 H -0.01466 0.57307 1.06694
 C82 C -0.05426 0.52583 1.01669
 H83 H -0.06500 0.51291 1.00205
 C84 C -0.06919 0.54459 1.03278
 H85 H -0.09141 0.54558 1.03056
 N86 N -0.02630 0.52430 1.01897
 C87 C 0.03415 0.45917 1.00416
 H88 H 0.03530 0.46000 0.98188
 C89 C 0.05020 0.44013 1.01865
 H90 H 0.06373 0.42643 1.00727
 C91 C 0.01444 0.47566 1.04581
 H92 H 0.00006 0.48914 1.05628
 C93 C 0.02993 0.45675 1.06112
 H94 H 0.02755 0.45623 1.08334
 Zn95 Zn -0.00506 0.50060 0.99626
 N96 N 0.01695 0.47664 1.01786
 C97 C 0.04522 0.52378 0.97628
 N98 N 0.01723 0.52356 0.97387
 C99 C 0.00401 0.54118 0.95650
 C100 C 0.01901 0.55964 0.94026
 C101 C 0.06104 0.54208 0.96057
 C102 C -0.04602 0.46107 0.98784
 C103 C -0.06262 0.44269 0.97314
 C104 C -0.04150 0.45872 0.93089
 C105 C -0.02547 0.47700 0.94641
 N106 N -0.02807 0.47790 0.97435
 H107 H 0.05531 0.51020 0.99078
 H108 H -0.01831 0.54095 0.95541
 H109 H 0.00799 0.57352 0.92665
 H110 H 0.08327 0.54204 0.96293
 H111 H -0.04724 0.46180 1.01013
 H112 H -0.07666 0.42940 0.98436
 H113 H -0.03895 0.45816 0.90870
 H114 H -0.01053 0.48996 0.93612
 C115 C 0.04812 0.43866 1.04753
 C116 C -0.05521 0.56197 1.05132
 C117 C -0.06035 0.44120 0.94427
 C118 C 0.04794 0.56037 0.94228
 C119 C 1.04635 -0.00437 0.54121
 H120 H 1.04768 0.01792 0.54095
 C121 C 1.06252 -0.01953 0.55960
 H122 H 1.07634 -0.00866 0.57339
 C123 C 1.02595 -0.04537 0.52403
 H124 H 1.01124 -0.05532 0.51056
 C125 C 1.04154 -0.06133 0.54229
 H126 H 1.03890 -0.08353 0.54233
 N127 N 1.02869 -0.01743 0.52374
 C128 C 1.01436 0.04598 0.46151
 H129 H 0.99206 0.04711 0.46237
 C130 C 1.02890 0.06271 0.44312
 H131 H 1.01755 0.07674 0.42995
 C132 C 1.05596 0.02555 0.47714
 H133 H 1.06638 0.01061 0.48999
 C134 C 1.07133 0.04171 0.45884
 H135 H 1.09355 0.03927 0.45814
 Zn136 Zn 1.00622 0.00495 0.50096
 N137 N 1.02800 0.02804 0.47821
 C138 C 0.98585 0.05407 0.52633
 N139 N 0.98358 0.02612 0.52480
 C140 C 0.96609 0.01204 0.54163
 C141 C 0.94951 0.02612 0.56054
 C142 C 0.96981 0.06898 0.54514
 C143 C 0.95655 -0.01483 0.47634
 C144 C 0.94123 -0.03038 0.45748
 C145 C 0.98380 -0.05004 0.44033
 C146 C 0.99828 -0.03398 0.45936
 N147 N 0.98454 -0.01703 0.47705
 H148 H 1.00046 0.06483 0.51337
 H149 H 0.96512 -0.01024 0.54038
 H150 H 0.93576 0.01444 0.57373
 H151 H 0.97201 0.09121 0.54611
 H152 H 0.94604 -0.00066 0.49000
 H153 H 0.91898 -0.02824 0.45718
 H154 H 0.99522 -0.06336 0.42646
 H155 H 1.02059 -0.03492 0.46001
 C156 C 1.05778 0.06057 0.44147
 C157 C 1.06010 -0.04841 0.56044
 C158 C 0.95487 -0.04829 0.43914
 C159 C 0.95131 0.05500 0.56257
 C160 C 0.15015 0.29473 1.14838
 N161 N 0.17257 0.28244 1.13690
 N162 N 0.18528 0.26172 1.14974
 C163 C 0.17605 0.25230 1.17454
 N164 N 0.15360 0.26478 1.18597
 N165 N 0.14094 0.28558 1.17319
 C166 C 0.13577 0.31716 1.13391
 N167 N 0.11438 0.33064 1.14606
 N168 N 0.10100 0.35060 1.13268
 C169 C 0.10846 0.35773 1.10662
 N170 N 0.12988 0.34427 1.09449
 N171 N 0.14332 0.32439 1.10791
 C172 C 0.09326 0.37919 1.09155
 N173 N 0.09889 0.38426 1.06459
 N174 N 0.08468 0.40324 1.05069
 C175 C 0.06432 0.41799 1.06321
 N176 N 0.05884 0.41298 1.09026
 N177 N 0.07299 0.39392 1.10415
 C178 C -0.15204 0.70687 1.15614
 N179 N -0.13961 0.71926 1.17794
 N180 N -0.15155 0.74056 1.19062
 C181 C -0.17638 0.75047 1.18199
 N182 N -0.18880 0.73784 1.16020
 N183 N -0.17691 0.71647 1.14755
 C184 C -0.13838 0.68400 1.14160
 N185 N -0.15122 0.67075 1.12050
 N186 N -0.13845 0.65055 1.10682
 C187 C -0.11236 0.64292 1.11370
 N188 N -0.09958 0.65611 1.13485
 N189 N -0.11237 0.67625 1.14858
 C190 C -0.09787 0.62133 1.09805
 N191 N -0.07090 0.61575 1.10321
 N192 N -0.05746 0.59677 1.08851
 C193 C -0.07045 0.58255 1.06812
 N194 N -0.09751 0.58805 1.06313
 N195 N -0.11095 0.60711 1.07777
 C196 C -0.15998 0.29496 0.84479
 N197 N -0.18200 0.28221 0.85652
 N198 N -0.19329 0.26012 0.84467
 C199 C -0.18298 0.24972 0.82068
 N200 N -0.16104 0.26275 0.80892
 N201 N -0.14980 0.28491 0.82070
 C202 C -0.14672 0.31849 0.85856
 N203 N -0.12535 0.33195 0.84640
 N204 N -0.11259 0.35255 0.85942
 C205 C -0.12067 0.36036 0.88511
 N206 N -0.14213 0.34698 0.89720
 N207 N -0.15495 0.32646 0.88415
 C208 C -0.10579 0.38215 0.90003
 N209 N -0.11182 0.38764 0.92683
 N210 N -0.09759 0.40659 0.94076
 C211 C -0.07683 0.42087 0.92843
 N212 N -0.07100 0.41550 0.90151
 N213 N -0.08516 0.39647 0.88759
 C214 C 0.15175 0.70357 0.84238
 N215 N 0.13986 0.71762 0.82128
 N216 N 0.15283 0.73884 0.80956
 C217 C 0.17815 0.74693 0.81851
 N218 N 0.19005 0.73272 0.83957
 N219 N 0.17713 0.71144 0.85125
 C220 C 0.13699 0.68084 0.85597
 N221 N 0.14919 0.66611 0.87645
 N222 N 0.13545 0.64609 0.88937
 C223 C 0.10898 0.64013 0.88233
 N224 N 0.09683 0.65478 0.86178
 N225 N 0.11059 0.67474 0.84881
 C226 C 0.09345 0.61879 0.89724
 N227 N 0.06624 0.61475 0.89198
 N228 N 0.05188 0.59605 0.90611
 C229 C 0.06416 0.58058 0.92601
 N230 N 0.09147 0.58454 0.93110
 N231 N 0.10582 0.60331 0.91703
 C232 C 1.15593 0.16167 0.29531
 N233 N 1.14401 0.18371 0.28283
 N234 N 1.15562 0.19521 0.26072
 C235 C 1.17958 0.18509 0.25005
 N236 N 1.19155 0.16312 0.26282
 N237 N 1.17999 0.15166 0.28499
 C238 C 1.14240 0.14817 0.31884
 N239 N 1.15474 0.12674 0.33204
 N240 N 1.14192 0.11377 0.35263
 C241 C 1.11625 0.12169 0.36070
 N242 N 1.10398 0.14320 0.34760
 N243 N 1.11683 0.15623 0.32708
 C244 C 1.10152 0.10659 0.38248
 N245 N 1.07472 0.11248 0.38820
 N246 N 1.06096 0.09806 0.40714
 C247 C 1.07345 0.07724 0.42117
 N248 N 1.10037 0.07155 0.41556
 N249 N 1.11412 0.08589 0.39654
 C250 C 1.15830 -0.15270 0.70434
 N251 N 1.18095 -0.14204 0.71688
 N252 N 1.19249 -0.15495 0.73822
 C253 C 1.18181 -0.17900 0.74804
 N254 N 1.15919 -0.18965 0.73526
 N255 N 1.14770 -0.17681 0.71385
 C256 C 1.14497 -0.13796 0.68147
 N257 N 1.12330 -0.14938 0.66785
 N258 N 1.11064 -0.13562 0.64769
 C259 C 1.11911 -0.10990 0.64049
 N260 N 1.14083 -0.09852 0.65405
 N261 N 1.15357 -0.11232 0.67413
 C262 C 1.10447 -0.09428 0.61904
 N263 N 1.11081 -0.06744 0.61417
 N264 N 1.09690 -0.05297 0.59540
 C265 C 1.07616 -0.06478 0.58067
 N266 N 1.07000 -0.09173 0.58544
 N267 N 1.08384 -0.10618 0.60430
 C268 C 0.85355 -0.15056 0.29570
 N269 N 0.82759 -0.14294 0.28844
 N270 N 0.81462 -0.15556 0.26774
 C271 C 0.82705 -0.17635 0.25353
 N272 N 0.85299 -0.18401 0.26097
 N273 N 0.86600 -0.17135 0.28161
 C274 C 0.86817 -0.13619 0.31804
 N275 N 0.89489 -0.14240 0.32380
 N276 N 0.90839 -0.12894 0.34361
 C277 C 0.89565 -0.10884 0.35845
 N278 N 0.86888 -0.10271 0.35278
 N279 N 0.85540 -0.11612 0.33291
 C280 C 0.91078 -0.09359 0.37983
 N281 N 0.89784 -0.07428 0.39553
 N282 N 0.91176 -0.06008 0.41452
 C283 C 0.93918 -0.06456 0.41851
 N284 N 0.95204 -0.08395 0.40280
 N285 N 0.93812 -0.09821 0.38387
 C286 C 0.84647 0.15208 0.70728
 N287 N 0.82468 0.13967 0.71976
 N288 N 0.81201 0.15168 0.74102
 C289 C 0.82063 0.17656 0.75081
 N290 N 0.84240 0.18896 0.73809
 N291 N 0.85504 0.17700 0.71676
 C292 C 0.86101 0.13836 0.68445
 N293 N 0.88208 0.15118 0.67113
 N294 N 0.89577 0.13836 0.65096
 C295 C 0.88894 0.11223 0.64347
 N296 N 0.86781 0.09945 0.65674
 N297 N 0.85407 0.11230 0.67683
 C298 C 0.90459 0.09769 0.62191
 N299 N 0.89949 0.07070 0.61643
 N300 N 0.91419 0.05724 0.59746
 C301 C 0.93453 0.07023 0.58316
 N302 N 0.93947 0.09732 0.58857
 N303 N 0.92483 0.11078 0.60761
 C304 C 0.29338 1.15584 0.15103
 N305 N 0.27927 1.17605 0.13774
 N306 N 0.25805 1.18866 0.14990
 C307 C 0.25001 1.18153 0.17582
 N308 N 0.26427 1.16136 0.18912
 N309 N 0.28555 1.14877 0.17699
 C310 C 0.31619 1.14135 0.13723
 N311 N 0.33085 1.12160 0.15067
 N312 N 0.35103 1.10795 0.13783
 C313 C 0.35724 1.11351 0.11107
 N314 N 0.34265 1.13333 0.09767
 N315 N 0.32252 1.14702 0.11052
 C316 C 0.37884 1.09788 0.09658
 N317 N 0.38340 1.10197 0.06925
 N318 N 0.40243 1.08727 0.05587
 C319 C 0.41771 1.06795 0.06927
 N320 N 0.41322 1.06402 0.09668
 N321 N 0.39413 1.07867 0.11007
 C322 C 0.70668 1.14695 -0.15042
 N323 N 0.71389 1.17295 -0.14290
 N324 N 0.73471 1.18585 -0.15544
 C325 C 0.74910 1.17330 -0.17603
 N326 N 0.74171 1.14731 -0.18359
 N327 N 0.72096 1.13437 -0.17102
 C328 C 0.68418 1.13244 -0.13619
 N329 N 0.67845 1.10569 -0.14228
 N330 N 0.65845 1.09230 -0.12896
 C331 C 0.64340 1.10520 -0.10911
 N332 N 0.64904 1.13199 -0.10310
 N333 N 0.66909 1.14536 -0.11638
 C334 C 0.62180 1.09020 -0.09401
 N335 N 0.60589 1.10330 -0.07499
 N336 N 0.58670 1.08951 -0.06090
 C337 C 0.58273 1.06206 -0.06520
 N338 N 0.59865 1.04905 -0.08432
 N339 N 0.61777 1.06284 -0.09847
 C340 C 0.29592 0.84249 -0.15158
 N341 N 0.28167 0.82154 -0.13965
 N342 N 0.26045 0.80987 -0.15266
 C343 C 0.25257 0.81872 -0.17808
 N344 N 0.26697 0.83963 -0.19001
 N345 N 0.28824 0.85127 -0.17704
 C346 C 0.31871 0.85597 -0.13683
 N347 N 0.33371 0.87621 -0.14912
 N348 N 0.35383 0.88899 -0.13542
 C349 C 0.35963 0.88207 -0.10890
 N350 N 0.34470 0.86177 -0.09665
 N351 N 0.32463 0.84893 -0.11038
 C352 C 0.38111 0.89683 -0.09343
 N353 N 0.38501 0.89173 -0.06617
 N354 N 0.40386 0.90573 -0.05188
 C355 C 0.41962 0.92535 -0.06428
 N356 N 0.41580 0.93027 -0.09163
 N357 N 0.39689 0.91632 -0.10592
 C358 C 0.70470 0.84550 0.16175
 N359 N 0.71326 0.82021 0.15321
 N360 N 0.73526 0.80829 0.16465
 C361 C 0.74952 0.82113 0.18510
 N362 N 0.74071 0.84635 0.19375
 N363 N 0.71877 0.85831 0.18229
 C364 C 0.68133 0.85931 0.14825
 N365 N 0.67454 0.88565 0.15506
 N366 N 0.65414 0.89866 0.14201
 C367 C 0.63971 0.88580 0.12173
 N368 N 0.64635 0.85938 0.11506
 N369 N 0.66682 0.84638 0.12806
 C370 C 0.61804 0.90062 0.10658
 N371 N 0.60295 0.88766 0.08687
 N372 N 0.58400 0.90144 0.07246
 C373 C 0.57947 0.92875 0.07714
 N374 N 0.59453 0.94161 0.09699
 N375 N 0.61341 0.92783 0.11145
   
