data_POSCAR
  _audit_creation_date              2014-09-24
  _audit_creation_method            'ToBaCCo'
  _symmetry_space_group_name_H-M    'P1'
  _symmetry_Int_Tables_number       1
  _symmetry_cell_setting            triclinic
  loop_
  _symmetry_equiv_pos_as_xyz
 x,y,z
_cell_length_a 30.8129
_cell_length_b 32.7468
_cell_length_c 32.0442
_cell_angle_alpha 95.625300
_cell_angle_beta 91.572400
_cell_angle_gamma 89.961600
loop_
  _atom_site_label
  _atom_site_type_symbol
  _atom_site_fract_x
  _atom_site_fract_y
  _atom_site_fract_z
C1 C 0.25146 0.25287 0.24344
 C2 C 0.28188 0.25231 0.21173
 C3 C 0.31695 0.22477 0.21072
 C4 C 0.32036 0.19653 0.24083
 C5 C 0.29018 0.19681 0.27287
 C6 C 0.25566 0.22522 0.27434
 C7 C 0.21749 0.28135 0.24508
 C8 C 0.18741 0.28288 0.27743
 C9 C 0.19200 0.25545 0.30846
 C10 C 0.22576 0.22639 0.30699
 C11 C 0.23049 0.19884 0.33783
 C12 C 0.26461 0.16992 0.33616
 C13 C 0.29439 0.16953 0.30377
 H14 H 0.27803 0.27330 0.18778
 H15 H 0.34717 0.17502 0.23987
 H16 H 0.21570 0.30326 0.22190
 H17 H 0.16928 0.25683 0.33381
 H18 H 0.20799 0.20059 0.36329
 H19 H 0.32091 0.14767 0.30252
 C20 C 0.77549 -0.27702 0.19921
 C21 C 0.74295 -0.27138 0.16871
 C22 C 0.71348 -0.23833 0.17437
 C23 C 0.71755 -0.21099 0.21088
 C24 C 0.74903 -0.21699 0.24196
 C25 C 0.77830 -0.24998 0.23616
 C26 C 0.80534 -0.30925 0.19313
 C27 C 0.83801 -0.31538 0.22351
 C28 C 0.84022 -0.28811 0.26069
 C29 C 0.81058 -0.25559 0.26712
 C30 C 0.81272 -0.22845 0.30402
 C31 C 0.78276 -0.19620 0.31039
 C32 C 0.75152 -0.19031 0.27878
 H33 H 0.74189 -0.29222 0.14036
 H34 H 0.69534 -0.18532 0.21569
 H35 H 0.80295 -0.32981 0.16447
 H36 H 0.86478 -0.29129 0.28482
 H37 H 0.83744 -0.23256 0.32798
 H38 H 0.72949 -0.16449 0.28233
 C39 C 0.71869 0.29193 0.78770
 C40 C 0.69118 0.29025 0.82162
 C41 C 0.65646 0.26190 0.81952
 C42 C 0.65044 0.23486 0.78295
 C43 C 0.67750 0.23655 0.74874
 C44 C 0.71180 0.26519 0.75102
 C45 C 0.75314 0.31996 0.79019
 C46 C 0.78067 0.32261 0.75625
 C47 C 0.77345 0.29566 0.71940
 C48 C 0.73941 0.26683 0.71680
 C49 C 0.73273 0.23924 0.68072
 C50 C 0.69871 0.21030 0.67861
 C51 C 0.67091 0.20971 0.71240
 H52 H 0.69806 0.31058 0.84964
 H53 H 0.62417 0.21263 0.78082
 H54 H 0.75819 0.34028 0.81876
 H55 H 0.79443 0.29599 0.69296
 H56 H 0.75378 0.24050 0.65435
 H57 H 0.64466 0.18749 0.71075
 C58 C 0.24411 -0.29359 0.75640
 C59 C 0.27388 -0.29603 0.78988
 C60 C 0.31007 -0.26994 0.79499
 C61 C 0.31680 -0.24137 0.76572
 C62 C 0.28746 -0.23882 0.73178
 C63 C 0.25093 -0.26504 0.72709
 C64 C 0.20790 -0.31965 0.75175
 C65 C 0.17793 -0.31798 0.71777
 C66 C 0.18561 -0.28975 0.68823
 C67 C 0.22155 -0.26308 0.69285
 C68 C 0.22859 -0.23444 0.66383
 C69 C 0.26454 -0.20757 0.66879
 C70 C 0.29414 -0.21054 0.70242
 H71 H 0.26886 -0.31828 0.81225
 H72 H 0.34528 -0.22182 0.76860
 H73 H 0.20448 -0.34178 0.77432
 H74 H 0.16322 -0.28813 0.66172
 H75 H 0.20625 -0.23347 0.63725
 H76 H 0.32203 -0.19019 0.70615
 C77 C 0.75880 -0.25960 0.75627
 C78 C 0.72775 -0.25572 0.78774
 C79 C 0.70209 -0.22009 0.79380
 C80 C 0.70816 -0.18816 0.76826
 C81 C 0.73867 -0.19175 0.73641
 C82 C 0.76410 -0.22759 0.73043
 C83 C 0.78484 -0.29487 0.75045
 C84 C 0.81613 -0.29871 0.71877
 C85 C 0.82030 -0.26677 0.69287
 C86 C 0.79502 -0.23129 0.69871
 C87 C 0.80036 -0.19942 0.67319
 C88 C 0.77476 -0.16402 0.67836
 C89 C 0.74418 -0.16011 0.71040
 H90 H 0.72444 -0.28003 0.80803
 H91 H 0.68875 -0.16054 0.77302
 H92 H 0.77979 -0.31907 0.77043
 H93 H 0.84400 -0.26914 0.66830
 H94 H 0.82406 -0.20241 0.64866
 H95 H 0.72499 -0.13244 0.71546
 C96 C 0.23508 0.27579 0.81069
 C97 C 0.26943 0.27431 0.84006
 C98 C 0.29746 0.24021 0.83881
 C99 C 0.28971 0.20687 0.80829
 C100 C 0.25516 0.20776 0.77874
 C101 C 0.22789 0.24249 0.77991
 C102 C 0.20754 0.31001 0.81187
 C103 C 0.17344 0.31179 0.78219
 C104 C 0.16610 0.27834 0.75186
 C105 C 0.19297 0.24373 0.75068
 C106 C 0.18513 0.21023 0.72087
 C107 C 0.21210 0.17565 0.71907
 C108 C 0.24717 0.17449 0.74820
 H109 H 0.27349 0.29957 0.86426
 H110 H 0.31075 0.18027 0.80748
 H111 H 0.21283 0.33555 0.83568
 H112 H 0.13887 0.27869 0.72978
 H113 H 0.15811 0.21120 0.69856
 H114 H 0.26768 0.14760 0.74775
 C115 C 0.27129 -0.29839 0.21843
 C116 C 0.29952 -0.30162 0.18462
 C117 C 0.32729 -0.26903 0.17723
 C118 C 0.32638 -0.23267 0.20507
 C119 C 0.29841 -0.22911 0.23921
 C120 C 0.27076 -0.26206 0.24581
 C121 C 0.24358 -0.33107 0.22518
 C122 C 0.21509 -0.32798 0.25927
 C123 C 0.21572 -0.29174 0.28675
 C124 C 0.24284 -0.25882 0.28009
 C125 C 0.24245 -0.22273 0.30743
 C126 C 0.26966 -0.18958 0.30108
 C127 C 0.29785 -0.19318 0.26714
 H128 H 0.29969 -0.32979 0.16375
 H129 H 0.34737 -0.20702 0.20110
 H130 H 0.24511 -0.35864 0.20384
 H131 H 0.19431 -0.28873 0.31321
 H132 H 0.22173 -0.22107 0.33431
 H133 H 0.31934 -0.16790 0.26251
 C134 C 0.76670 0.27376 0.23956
 C135 C 0.73210 0.27384 0.21005
 C136 C 0.70282 0.24060 0.20410
 C137 C 0.70903 0.20691 0.22754
 C138 C 0.74313 0.20660 0.25745
 C139 C 0.77206 0.24016 0.26350
 C140 C 0.79618 0.30666 0.24518
 C141 C 0.83135 0.30650 0.27457
 C142 C 0.83547 0.27312 0.29891
 C143 C 0.80646 0.23999 0.29339
 C144 C 0.81142 0.20666 0.31739
 C145 C 0.78226 0.17357 0.31229
 C146 C 0.74858 0.17338 0.28160
 H147 H 0.72872 0.29940 0.19120
 H148 H 0.68681 0.18109 0.22285
 H149 H 0.79086 0.33205 0.22658
 H150 H 0.86200 0.27246 0.32183
 H151 H 0.83760 0.20677 0.34073
 H152 H 0.72665 0.14746 0.27624
 O153 O 0.18146 0.03486 0.48122
 O154 O 0.18196 -0.05047 0.54558
 O155 O 0.20182 0.02837 0.56149
 O156 O 0.18313 -0.04438 0.46639
 O157 O 0.25415 -0.05072 0.46083
 O158 O 0.27245 0.02003 0.55471
 O159 O 0.25301 -0.05730 0.54054
 O160 O 0.25248 0.03035 0.47466
 Cu161 Cu 0.18080 -0.00665 0.51491
 Cu162 Cu 0.26445 -0.01424 0.50675
 C163 C 0.21621 0.04715 0.46650
 C164 C 0.21675 -0.06885 0.55390
 C165 C 0.24078 0.03624 0.57435
 C166 C 0.21601 -0.06019 0.44760
 O167 O 0.77548 0.04909 0.52935
 O168 O 0.76323 -0.04396 0.45708
 O169 O 0.76213 0.03471 0.44847
 O170 O 0.76021 -0.02815 0.53845
 O171 O 0.68866 -0.02315 0.53807
 O172 O 0.69045 0.03758 0.44887
 O173 O 0.69184 -0.03861 0.45824
 O174 O 0.70428 0.05587 0.53085
 Cu175 Cu 0.77234 0.00233 0.49323
 Cu176 Cu 0.68751 0.00941 0.49502
 C177 C 0.74224 0.06854 0.54235
 C178 C 0.72586 -0.05718 0.44504
 C179 C 0.72608 0.04668 0.43336
 C180 C 0.72360 -0.03639 0.55337
 O181 O 0.45754 0.26479 0.06784
 O182 O 0.53838 0.27310 -0.01326
 O183 O 0.54223 0.26824 0.06750
 O184 O 0.45434 0.26704 -0.01341
 O185 O 0.45149 0.33470 -0.00395
 O186 O 0.53788 0.33577 0.07793
 O187 O 0.53567 0.34071 -0.00222
 O188 O 0.45336 0.33240 0.07706
 Cu189 Cu 0.49851 0.26146 0.02627
 Cu190 Cu 0.49412 0.34265 0.03826
 C191 C 0.44152 0.29734 0.08610
 C192 C 0.55082 0.30838 -0.02144
 C193 C 0.55510 0.30221 0.08637
 C194 C 0.43822 0.30082 -0.02267
 O195 O 0.56667 0.77193 0.02512
 O196 O 0.47961 0.79612 -0.04957
 O197 O 0.48560 0.79387 0.03196
 O198 O 0.56094 0.77624 -0.05523
 O199 O 0.54221 0.71080 -0.06362
 O200 O 0.46690 0.72844 0.02437
 O201 O 0.46081 0.73072 -0.05717
 O202 O 0.54820 0.70642 0.01643
 Cu203 Cu 0.52491 0.79114 -0.01095
 Cu204 Cu 0.50236 0.71260 -0.02073
 C205 C 0.57263 0.73500 0.03299
 C206 C 0.45574 0.76723 -0.06657
 C207 C 0.46365 0.76429 0.04328
 C208 C 0.56458 0.74053 -0.07420
 O209 O 0.04758 0.43939 0.19608
 O210 O -0.01738 0.53480 0.21229
 O211 O 0.06380 0.51588 0.19105
 O212 O -0.03465 0.45582 0.19648
 O213 O -0.02531 0.45583 0.26507
 O214 O 0.07370 0.51952 0.25987
 O215 O -0.00537 0.53521 0.28058
 O216 O 0.05940 0.44198 0.26457
 Cu217 Cu 0.01350 0.48706 0.19291
 Cu218 Cu 0.02585 0.48781 0.27377
 C219 C 0.06474 0.42457 0.22799
 C220 C -0.02243 0.55110 0.24967
 C221 C 0.08555 0.52821 0.22390
 C222 C -0.04677 0.44507 0.23114
 O223 O 0.02532 0.53239 0.78027
 O224 O -0.05812 0.45190 0.75830
 O225 O 0.02608 0.45315 0.76528
 O226 O -0.05944 0.53041 0.77968
 O227 O -0.05824 0.53949 0.71232
 O228 O 0.02746 0.46078 0.69762
 O229 O -0.05676 0.46040 0.69082
 O230 O 0.02648 0.54069 0.71274
 Cu231 Cu -0.01667 0.49118 0.77761
 Cu232 Cu -0.01516 0.50130 0.69662
 C233 C 0.04029 0.55008 0.75013
 C234 C -0.07155 0.44238 0.72070
 C235 C 0.04126 0.44352 0.72926
 C236 C -0.07346 0.54817 0.74865
 C237 C 0.35047 0.22510 0.17860
 C238 C 0.36224 0.25963 0.16287
 C239 C 0.39584 0.25975 0.13125
 C240 C 0.40862 0.29514 0.11804
 H241 H 0.34759 0.28860 0.17404
 H242 H 0.41003 0.23097 0.11874
 H243 H 0.36732 0.19673 0.16923
 H244 H 0.39446 0.32373 0.13116
 C245 C 0.68025 0.76907 0.14506
 C246 C 0.66649 0.74224 0.11324
 C247 C 0.63081 0.75337 0.08516
 C248 C 0.60847 0.72463 0.06120
 H249 H 0.67946 0.71149 0.10866
 H250 H 0.62203 0.78543 0.08489
 H251 H 0.66305 0.79805 0.14967
 H252 H 0.61619 0.69250 0.06282
 C253 C 0.62772 0.25906 -0.14747
 C254 C 0.62486 0.28664 -0.11390
 C255 C 0.59323 0.28115 -0.08145
 C256 C 0.58316 0.31238 -0.05350
 H257 H 0.64400 0.31445 -0.11057
 H258 H 0.57718 0.25172 -0.08115
 H259 H 0.60507 0.23349 -0.15009
 H260 H 0.59793 0.34222 -0.05509
 C261 C 0.34115 0.72494 -0.16994
 C262 C 0.36660 0.75503 -0.15182
 C263 C 0.39741 0.74672 -0.11783
 C264 C 0.42255 0.77626 -0.09825
 H265 H 0.36479 0.78565 -0.16180
 H266 H 0.40025 0.71554 -0.10939
 H267 H 0.34222 0.69519 -0.15773
 H268 H 0.41972 0.80745 -0.10661
 C269 C 0.15305 0.31479 0.28118
 C270 C 0.13714 0.33333 0.24851
 C271 C 0.10711 0.36834 0.25467
 C272 C 0.09160 0.38725 0.22215
 H273 H 0.14695 0.32347 0.21694
 H274 H 0.09885 0.37967 0.28639
 H275 H 0.14089 0.32376 0.31217
 H276 H 0.09947 0.37555 0.19045
 C277 C 0.14132 0.65589 0.71157
 C278 C 0.12703 0.63154 0.73974
 C279 C 0.09026 0.60314 0.72979
 C280 C 0.07466 0.58116 0.75916
 H281 H 0.14177 0.63211 0.77075
 H282 H 0.07661 0.59947 0.69810
 H283 H 0.12303 0.65581 0.68213
 H284 H 0.08812 0.58550 0.79090
 C285 C -0.13322 0.65134 0.21502
 C286 C -0.10194 0.63977 0.24133
 C287 C -0.07472 0.60352 0.22968
 C288 C -0.04829 0.58865 0.25824
 H289 H -0.09657 0.65566 0.27217
 H290 H -0.07740 0.58814 0.19817
 H291 H -0.13718 0.63307 0.18501
 H292 H -0.04697 0.60353 0.29002
 C293 C -0.18562 0.35193 0.76138
 C294 C -0.15951 0.36212 0.73124
 C295 C -0.12581 0.39377 0.74127
 C296 C -0.10460 0.41012 0.71113
 H297 H -0.16325 0.34871 0.69917
 H298 H -0.11895 0.40450 0.77388
 H299 H -0.18107 0.36854 0.79222
 H300 H -0.11232 0.40025 0.67849
 C301 C 0.27090 0.13993 0.36772
 C302 C 0.23897 0.12724 0.39076
 C303 C 0.24627 0.09497 0.41928
 C304 C 0.21295 0.08096 0.43953
 H305 H 0.20644 0.13919 0.38735
 H306 H 0.27837 0.08197 0.42279
 H307 H 0.30264 0.12590 0.37031
 H308 H 0.18101 0.09411 0.43523
 C309 C 0.69145 0.17962 0.64209
 C310 C 0.72390 0.16237 0.61995
 C311 C 0.71563 0.12739 0.58827
 C312 C 0.74860 0.10581 0.57135
 H313 H 0.75711 0.17197 0.62728
 H314 H 0.68243 0.11809 0.58022
 H315 H 0.65879 0.16772 0.63603
 H316 H 0.78167 0.11503 0.58007
 C317 C 0.27212 -0.17594 0.63961
 C318 C 0.23966 -0.15787 0.61991
 C319 C 0.24733 -0.12410 0.59367
 C320 C 0.21343 -0.10383 0.57914
 H321 H 0.20641 -0.16662 0.62474
 H322 H 0.28018 -0.11532 0.58713
 H323 H 0.30503 -0.16509 0.63666
 H324 H 0.18093 -0.11279 0.58683
 C325 C 0.78594 -0.16748 0.34907
 C326 C 0.75137 -0.14758 0.36540
 C327 C 0.75613 -0.11487 0.40010
 C328 C 0.72157 -0.09369 0.41455
 H329 H 0.71918 -0.15429 0.35207
 H330 H 0.78844 -0.10656 0.41228
 H331 H 0.81765 -0.16217 0.36413
 H332 H 0.68935 -0.10223 0.40229
 C333 C 0.66999 0.78573 -0.17243
 C334 C 0.64958 0.75484 -0.15659
 C335 C 0.61823 0.76319 -0.12281
 C336 C 0.59525 0.73298 -0.10867
 H337 H 0.65532 0.72336 -0.16882
 H338 H 0.61404 0.79455 -0.10924
 H339 H 0.66175 0.81699 -0.16108
 H340 H 0.59914 0.70172 -0.12263
 C341 C 0.33402 0.23793 -0.13014
 C342 C 0.35235 0.27114 -0.10889
 C343 C 0.38740 0.26781 -0.07706
 C344 C 0.40371 0.30164 -0.05536
 H345 H 0.34180 0.30157 -0.11493
 H346 H 0.39943 0.23778 -0.07103
 H347 H 0.34670 0.20787 -0.12506
 H348 H 0.39116 0.33143 -0.06167
 C349 C 0.35482 0.72525 0.14245
 C350 C 0.38172 0.75355 0.12966
 C351 C 0.40941 0.74374 0.09301
 C352 C 0.43466 0.77247 0.07907
 H353 H 0.38376 0.78420 0.14543
 H354 H 0.40925 0.71281 0.07745
 H355 H 0.35399 0.69550 0.12424
 H356 H 0.43434 0.80338 0.09467
 C357 C 0.66627 0.23936 0.17283
 C358 C 0.64707 0.27299 0.16040
 C359 C 0.61078 0.26986 0.12923
 C360 C 0.59064 0.30354 0.11823
 H361 H 0.65752 0.30317 0.17368
 H362 H 0.60073 0.23984 0.11497
 H363 H 0.65362 0.20950 0.16071
 H364 H 0.60086 0.33340 0.13279
 C365 C -0.15613 0.66720 0.71166
 C366 C -0.15155 0.63683 0.73656
 C367 C -0.11935 0.60423 0.72700
 C368 C -0.10760 0.57923 0.75574
 H369 H -0.16930 0.63653 0.76513
 H370 H -0.10379 0.60181 0.69691
 H371 H -0.13539 0.66625 0.68472
 H372 H -0.12223 0.58273 0.78628
 C373 C -0.13673 0.33764 0.28027
 C374 C -0.13293 0.36857 0.25614
 C375 C -0.09557 0.39686 0.26152
 C376 C -0.08607 0.41974 0.23077
 H377 H -0.15520 0.37200 0.23013
 H378 H -0.07437 0.39702 0.28910
 H379 H -0.11197 0.33529 0.30468
 H380 H -0.10643 0.41764 0.20248
 C381 C 0.14453 0.34794 0.78504
 C382 C 0.12415 0.36143 0.75164
 C383 C 0.09344 0.39579 0.75690
 C384 C 0.07469 0.41147 0.72390
 H385 H 0.12970 0.34694 0.72038
 H386 H 0.08528 0.40780 0.78846
 H387 H 0.14046 0.36444 0.81572
 H388 H 0.08347 0.40008 0.69235
 C389 C 0.18532 0.64100 0.26697
 C390 C 0.17663 0.60713 0.24110
 C391 C 0.14141 0.57901 0.24998
 C392 C 0.12447 0.55303 0.21914
 H393 H 0.19271 0.60101 0.21163
 H394 H 0.12723 0.58162 0.28072
 H395 H 0.16630 0.64586 0.29505
 H396 H 0.13738 0.55244 0.18794
 C397 C 0.78086 -0.13207 0.64942
 C398 C 0.74856 -0.10823 0.63749
 C399 C 0.75470 -0.08054 0.60460
 C400 C 0.72057 -0.06186 0.58846
 H401 H 0.71649 -0.11099 0.64996
 H402 H 0.78676 -0.07680 0.59237
 H403 H 0.81196 -0.13062 0.63457
 H404 H 0.68857 -0.06653 0.60048
 C405 C 0.27144 -0.15219 0.33121
 C406 C 0.23776 -0.13877 0.35436
 C407 C 0.24309 -0.10471 0.38771
 C408 C 0.20969 -0.09060 0.41084
 H409 H 0.20639 -0.15367 0.34974
 H410 H 0.27535 -0.09220 0.39463
 H411 H 0.30184 -0.13537 0.33476
 H412 H 0.17730 -0.10256 0.40350
 C413 C 0.78759 0.14028 0.34017
 C414 C 0.75427 0.11790 0.35109
 C415 C 0.75949 0.08898 0.38325
 C416 C 0.72445 0.07193 0.39796
 H417 H 0.72192 0.12293 0.33858
 H418 H 0.79148 0.08342 0.39644
 H419 H 0.81918 0.13650 0.35507
 H420 H 0.69261 0.07868 0.38509
 C421 C 0.20180 0.14144 0.68652
 C422 C 0.23163 0.11610 0.66901
 C423 C 0.21969 0.08580 0.63339
 C424 C 0.25031 0.06459 0.61205
 H425 H 0.26539 0.11921 0.67912
 H426 H 0.18586 0.08201 0.62356
 H427 H 0.16869 0.13909 0.67409
 H428 H 0.28410 0.06914 0.62176
   
