data_POSCAR
  _audit_creation_date              2014-09-24
  _audit_creation_method            'ToBaCCo'
  _symmetry_space_group_name_H-M    'P1'
  _symmetry_Int_Tables_number       1
  _symmetry_cell_setting            triclinic
  loop_
  _symmetry_equiv_pos_as_xyz
 x,y,z
_cell_length_a 30.4737
_cell_length_b 30.1478
_cell_length_c 30.3054
_cell_angle_alpha 80.274800
_cell_angle_beta 95.549200
_cell_angle_gamma 108.591300
loop_
  _atom_site_label
  _atom_site_type_symbol
  _atom_site_fract_x
  _atom_site_fract_y
  _atom_site_fract_z
C1 C 0.55729 0.55315 0.01327
 C2 C 0.56358 0.50820 0.02066
 C3 C 0.52405 0.46789 0.02180
 C4 C 0.47914 0.47231 0.01361
 C5 C 0.47426 0.51792 0.00525
 C6 C 0.51282 0.55871 0.00592
 C7 C 0.43733 0.42941 0.01349
 C8 C 0.39443 0.42936 0.02740
 C9 C 0.35494 0.38940 0.02657
 C10 C 0.35908 0.34839 0.01375
 C11 C 0.40142 0.34748 -0.00020
 C12 C 0.44002 0.38822 -0.00067
 H13 H 0.58786 0.58356 0.01306
 H14 H 0.52768 0.43297 0.02964
 H15 H 0.44010 0.52189 -0.00220
 H16 H 0.39211 0.45989 0.04012
 H17 H 0.32906 0.31717 0.01520
 H18 H 0.47218 0.38770 -0.01262
 C19 C 0.01069 0.63010 0.43802
 C20 C 0.02081 0.64439 0.48086
 C21 C 0.02608 0.61088 0.51765
 C22 C 0.01972 0.56372 0.51252
 C23 C 0.00826 0.55016 0.46958
 C24 C 0.00475 0.58334 0.43176
 C25 C 0.02557 0.52845 0.55172
 C26 C 0.04514 0.49343 0.54628
 C27 C 0.04854 0.45812 0.58197
 C28 C 0.03475 0.45979 0.62430
 C29 C 0.01588 0.49500 0.63084
 C30 C 0.01131 0.52905 0.59437
 H31 H 0.00845 0.65523 0.40866
 H32 H 0.03554 0.62168 0.55050
 H33 H 0.00201 0.51357 0.46632
 H34 H 0.05851 0.49449 0.51425
 H35 H 0.03922 0.43367 0.65210
 H36 H -0.00421 0.55549 0.59920
 C37 C 0.62641 0.00622 0.56058
 C38 C 0.58051 -0.00186 0.57144
 C39 C 0.54668 -0.00082 0.53667
 C40 C 0.55876 0.01073 0.49163
 C41 C 0.60505 0.01951 0.48156
 C42 C 0.63922 0.01663 0.51558
 C43 C 0.52319 0.01479 0.45523
 C44 C 0.52409 0.00021 0.41372
 C45 C 0.49046 0.00402 0.37954
 C46 C 0.45570 0.02304 0.38691
 C47 C 0.45447 0.03811 0.42808
 C48 C 0.48827 0.03384 0.46183
 H49 H 0.65169 0.00506 0.58788
 H50 H 0.51076 -0.00937 0.54416
 H51 H 0.61467 0.02923 0.44692
 H52 H 0.55047 -0.01501 0.40813
 H53 H 0.42994 0.02621 0.36057
 H54 H 0.48770 0.04623 0.49326
 O55 O 0.41691 -0.05157 -0.09798
 O56 O 0.40479 -0.06649 0.02392
 O57 O 0.40467 0.00052 -0.04236
 O58 O 0.41769 -0.11860 -0.03126
 O59 O 0.49340 -0.08743 -0.02134
 O60 O 0.48052 0.03122 -0.03289
 O61 O 0.48060 -0.03558 0.03350
 O62 O 0.49275 -0.02141 -0.08796
 Cu63 Cu 0.40338 -0.06214 -0.03797
 Cu64 Cu 0.49441 -0.02515 -0.02627
 C65 C 0.45699 -0.03440 -0.11363
 C66 C 0.44062 -0.05326 0.04940
 C67 C 0.44042 0.03607 -0.03906
 C68 C 0.45790 -0.12319 -0.02446
 O69 O -0.09211 0.48106 1.03876
 O70 O 0.03205 0.49087 1.04310
 O71 O -0.03395 0.48074 0.98101
 O72 O -0.02575 0.49244 1.10071
 O73 O -0.04317 0.41492 1.11867
 O74 O -0.05163 0.40315 0.99864
 O75 O 0.01433 0.41330 1.06077
 O76 O -0.10981 0.40349 1.05643
 Cu77 Cu -0.02822 0.49403 1.03919
 Cu78 Cu -0.04941 0.40095 1.06047
 C79 C -0.12211 0.44059 1.04692
 C80 C 0.04430 0.45371 1.05228
 C81 C -0.04380 0.43998 0.96944
 C82 C -0.03310 0.45576 1.13009
 O83 O 0.04194 0.02681 0.42285
 O84 O 0.06450 0.15181 0.43324
 O85 O 0.11276 0.10246 0.41012
 O86 O -0.00591 0.07577 0.44637
 O87 O 0.01823 0.06129 0.51687
 O88 O 0.13680 0.08937 0.48082
 O89 O 0.08773 0.13806 0.50413
 O90 O 0.06657 0.01279 0.49325
 Cu91 Cu 0.05097 0.09071 0.42102
 Cu92 Cu 0.07997 0.07412 0.50586
 C93 C 0.05043 -0.00146 0.45610
 C94 C 0.07920 0.16608 0.47055
 C95 C 0.14491 0.10000 0.43941
 C96 C -0.01401 0.06391 0.48777
 C97 C -0.39051 0.50610 1.02616
 C98 C -0.37704 0.46510 1.03157
 C99 C -0.32760 0.46774 1.03401
 N100 N -0.31527 0.42756 1.03972
 N101 N -0.27074 0.42971 1.04126
 C102 C -0.23687 0.47217 1.03705
 N103 N -0.24920 0.51226 1.03136
 N104 N -0.29365 0.51010 1.02988
 C105 C -0.18742 0.47566 1.03824
 C106 C -0.17180 0.43615 1.04557
 H107 H -0.40227 0.43039 1.03314
 H108 H -0.16246 0.51071 1.03345
 H109 H -0.36288 0.53946 1.02500
 H110 H -0.19653 0.40102 1.05103
 C111 C 0.30889 0.38864 1.03948
 C112 C 0.29518 0.42910 1.03683
 C113 C 0.24725 0.42634 1.04464
 N114 N 0.23464 0.46635 1.03853
 N115 N 0.19105 0.46423 1.04385
 C116 C 0.15839 0.42196 1.05553
 N117 N 0.17108 0.38200 1.06193
 N118 N 0.21464 0.38412 1.05659
 C119 C 0.10961 0.41856 1.05992
 C120 C 0.09385 0.45801 1.05209
 H121 H 0.31912 0.46367 1.02619
 H122 H 0.08510 0.38365 1.06812
 H123 H 0.28340 0.35436 1.04792
 H124 H 0.11824 0.49299 1.04396
 C125 C 0.02677 -0.30897 0.48821
 C126 C 0.01862 -0.27324 0.45558
 C127 C 0.02659 -0.22466 0.46420
 N128 N 0.01700 -0.19250 0.43088
 N129 N 0.02434 -0.14811 0.43740
 C130 C 0.04159 -0.13410 0.47754
 N131 N 0.05116 -0.16627 0.51099
 N132 N 0.04381 -0.21078 0.50445
 C133 C 0.05021 -0.08488 0.48471
 C134 C 0.04132 -0.05111 0.45060
 H135 H 0.00512 -0.28008 0.42234
 H136 H 0.06415 -0.07499 0.51715
 H137 H 0.03762 -0.30025 0.52165
 H138 H 0.02746 -0.06119 0.41820
 C139 C 0.06575 0.41872 0.57621
 C140 C 0.06559 0.40436 0.53470
 C141 C 0.07617 0.36115 0.53004
 N142 N 0.07259 0.34794 0.48891
 N143 N 0.07923 0.30752 0.48407
 C144 C 0.08974 0.27873 0.52022
 N145 N 0.09387 0.29218 0.56136
 N146 N 0.08722 0.33267 0.56620
 C147 C 0.09364 0.23235 0.51559
 C148 C 0.08471 0.21544 0.47453
 H149 H 0.05419 0.42313 0.50450
 H150 H 0.10022 0.20975 0.54559
 H151 H 0.07518 0.39777 0.60610
 H152 H 0.07774 0.23798 0.44466
 C153 C 0.56994 -0.01043 -0.38046
 C154 C 0.52866 -0.00972 -0.36453
 C155 C 0.52236 -0.01352 -0.31636
 N156 N 0.48053 -0.01666 -0.30194
 N157 N 0.47463 -0.01910 -0.25849
 C158 C 0.51047 -0.01819 -0.22793
 N159 N 0.55231 -0.01488 -0.24238
 N160 N 0.55814 -0.01265 -0.28576
 C161 C 0.50489 -0.02047 -0.17991
 C162 C 0.46180 -0.03015 -0.16206
 H163 H 0.50048 -0.00490 -0.38729
 H164 H 0.53563 -0.01581 -0.15777
 H165 H 0.59720 -0.01509 -0.35614
 H166 H 0.43070 -0.03684 -0.18376
 C167 C 0.49376 -0.01012 0.33583
 C168 C 0.45556 -0.02453 0.30640
 C169 C 0.46036 -0.03237 0.26078
 N170 N 0.42204 -0.04663 0.23360
 N171 N 0.42589 -0.05139 0.19136
 C172 C 0.46825 -0.04198 0.17475
 N173 N 0.50656 -0.02802 0.20201
 N174 N 0.50271 -0.02332 0.24426
 C175 C 0.47330 -0.04423 0.12751
 C176 C 0.43524 -0.05753 0.09774
 H177 H 0.42103 -0.02943 0.31651
 H178 H 0.50804 -0.03309 0.11544
 H179 H 0.52753 -0.00933 0.32668
 H180 H 0.40047 -0.06959 0.10982
 C181 C 0.50519 -0.39672 -0.00054
 C182 C 0.53998 -0.35318 0.00018
 C183 C 0.53010 -0.30786 -0.00438
 N184 N 0.48613 -0.30528 -0.00960
 N185 N 0.47837 -0.26369 -0.01302
 C186 C 0.51430 -0.22324 -0.01129
 N187 N 0.55811 -0.22593 -0.00613
 N188 N 0.56586 -0.26743 -0.00272
 C189 C 0.50700 -0.17684 -0.01478
 C190 C 0.46330 -0.17056 -0.02046
 H191 H 0.57610 -0.35089 0.00489
 H192 H 0.53750 -0.14636 -0.01299
 H193 H 0.46970 -0.39600 -0.00570
 H194 H 0.43257 -0.20073 -0.02253
 C195 C 0.40730 0.30417 -0.01257
 C196 C 0.37057 0.26587 -0.02440
 C197 C 0.37738 0.22153 -0.03190
 N198 N 0.42014 0.21590 -0.02803
 N199 N 0.42540 0.17487 -0.03316
 C200 C 0.38811 0.13791 -0.04232
 N201 N 0.34544 0.14365 -0.04642
 N202 N 0.34018 0.18470 -0.04134
 C203 C 0.39300 0.09162 -0.04593
 C204 C 0.43591 0.08356 -0.04120
 H205 H 0.33552 0.26766 -0.02777
 H206 H 0.36177 0.06269 -0.05067
 H207 H 0.44231 0.30243 -0.01227
 H208 H 0.46719 0.11256 -0.03687
 C209 C -0.31524 0.02486 0.50298
 C210 C -0.27776 0.02166 0.53251
 C211 C -0.23121 0.03067 0.51663
 N212 N -0.19616 0.02657 0.54658
 N213 N -0.15373 0.03467 0.53286
 C214 C -0.14481 0.04717 0.48867
 N215 N -0.17985 0.05126 0.45870
 N216 N -0.22230 0.04315 0.47242
 C217 C -0.09809 0.05655 0.47313
 C218 C -0.06106 0.05325 0.50283
 H219 H -0.28156 0.01193 0.56818
 H220 H -0.09270 0.06673 0.43756
 H221 H -0.30872 0.03384 0.46753
 H222 H -0.06643 0.04313 0.53841
 C223 C 0.41750 0.05648 0.43817
 C224 C 0.38788 0.07237 0.40590
 C225 C 0.34806 0.08412 0.41868
 N226 N 0.31708 0.09469 0.38673
 N227 N 0.27917 0.10218 0.39815
 C228 C 0.27101 0.09951 0.44196
 N229 N 0.30230 0.08963 0.47383
 N230 N 0.34012 0.08207 0.46241
 C231 C 0.22758 0.10332 0.45554
 C232 C 0.19166 0.10776 0.42479
 H233 H 0.39259 0.07486 0.37057
 H234 H 0.22230 0.09834 0.49111
 H235 H 0.41311 0.05695 0.47313
 H236 H 0.19683 0.11327 0.38917
 C237 C -0.00348 0.57238 1.38761
 C238 C -0.00810 0.52847 1.37486
 C239 C -0.01291 0.52185 1.32729
 N240 N -0.01811 0.47868 1.31602
 N241 N -0.02153 0.47254 1.27312
 C242 C -0.01975 0.50942 1.23990
 N243 N -0.01457 0.55253 1.25118
 N244 N -0.01123 0.55863 1.29402
 C245 C -0.02285 0.50378 1.19229
 C246 C -0.03012 0.46028 1.17799
 H247 H -0.00728 0.49818 1.39927
 H248 H -0.01952 0.53509 1.16766
 H249 H -0.00528 0.60074 1.36093
 H250 H -0.03432 0.42868 1.20238
 C251 C 0.00213 0.49796 0.67561
 C252 C -0.01053 0.45893 0.70920
 C253 C -0.01912 0.46305 0.75508
 N254 N -0.03104 0.42371 0.78619
 N255 N -0.03690 0.42687 0.82841
 C256 C -0.03102 0.46956 0.84113
 N257 N -0.01937 0.50890 0.80996
 N258 N -0.01351 0.50573 0.76771
 C259 C -0.03515 0.47395 0.88811
 C260 C -0.04525 0.43492 0.92182
 H261 H -0.01379 0.42399 0.70213
 H262 H -0.02817 0.50911 0.89660
 H263 H 0.00157 0.53201 0.68213
 H264 H -0.05250 0.39969 0.91338
   
