data_POSCAR
  _audit_creation_date              2014-09-24
  _audit_creation_method            'ToBaCCo'
  _symmetry_space_group_name_H-M    'P1'
  _symmetry_Int_Tables_number       1
  _symmetry_cell_setting            triclinic
  loop_
  _symmetry_equiv_pos_as_xyz
 x,y,z
_cell_length_a 28.0820
_cell_length_b 27.5272
_cell_length_c 26.4684
_cell_angle_alpha 91.346300
_cell_angle_beta 90.935200
_cell_angle_gamma 89.302700
loop_
  _atom_site_label
  _atom_site_type_symbol
  _atom_site_fract_x
  _atom_site_fract_y
  _atom_site_fract_z
Si1 Si 0.25689 0.48232 0.99101
 Si2 Si 0.74925 0.51135 0.02098
 Si3 Si -0.02240 0.25026 0.49834
 Si4 Si 1.02285 0.75943 0.50814
 Si5 Si 0.48821 -0.00297 0.24421
 Si6 Si 0.51051 -0.00677 0.73616
 C7 C 0.27301 0.06649 0.40436
 H8 H 0.24821 0.09565 0.41321
 C9 C 0.30630 0.07261 0.36644
 H10 H 0.30520 0.10576 0.34532
 C11 C 0.30695 -0.01014 0.42402
 H12 H 0.30865 -0.04101 0.44857
 C13 C 0.34073 -0.00563 0.38625
 H14 H 0.36746 -0.03393 0.38111
 N15 N 0.27487 0.02626 0.43322
 C16 C 0.21392 0.11840 0.53993
 H17 H 0.24465 0.11558 0.56480
 C18 C 0.18231 0.15765 0.54588
 H19 H 0.18949 0.18460 0.57529
 C20 C 0.16622 0.08534 0.47325
 H21 H 0.16008 0.05663 0.44538
 C22 C 0.13357 0.12373 0.47809
 H23 H 0.10233 0.12441 0.45357
 Zn24 Zn 0.24559 0.02797 0.49702
 N25 N 0.20545 0.08336 0.50393
 C26 C 0.32782 0.06835 0.53640
 N27 N 0.29717 0.03137 0.54333
 C28 C 0.30705 -0.00405 0.57704
 C29 C 0.34961 -0.00319 0.60514
 C30 C 0.37070 0.07051 0.56342
 C31 C 0.19894 -0.06260 0.47383
 C32 C 0.16874 -0.10092 0.48513
 C33 C 0.15829 -0.06518 0.56851
 C34 C 0.18791 -0.02740 0.55543
 N35 N 0.20799 -0.02699 0.50908
 H36 H 0.31945 0.09548 0.50860
 H37 H 0.28297 -0.03399 0.58086
 H38 H 0.35746 -0.03211 0.63116
 H39 H 0.39442 0.10025 0.55682
 H40 H 0.21455 -0.06097 0.43685
 H41 H 0.16155 -0.12897 0.45675
 H42 H 0.14253 -0.06429 0.60555
 H43 H 0.19493 0.00197 0.58231
 C44 C 0.14132 0.16050 0.51484
 C45 C 0.34193 0.03709 0.35838
 C46 C 0.14833 -0.10263 0.53317
 C47 C 0.38244 0.03392 0.59771
 C48 C 0.67960 0.00456 0.55290
 H49 H 0.66862 0.02572 0.52072
 C50 C 0.65300 0.00686 0.59669
 H51 H 0.62118 0.02950 0.59766
 C52 C 0.73457 -0.05050 0.59025
 H53 H 0.76615 -0.07309 0.58732
 C54 C 0.70910 -0.04880 0.63540
 H55 H 0.72109 -0.07062 0.66673
 N56 N 0.71962 -0.02356 0.55038
 C57 C 0.81310 0.05101 0.44952
 H58 H 0.81384 0.02770 0.41606
 C59 C 0.84698 0.08773 0.45625
 H60 H 0.87336 0.09306 0.42757
 C61 C 0.78146 0.06919 0.53038
 H62 H 0.75758 0.06084 0.56037
 C63 C 0.81472 0.10556 0.53876
 H64 H 0.81515 0.12536 0.57462
 Zn65 Zn 0.75138 -0.01924 0.48815
 N66 N 0.78242 0.04139 0.48725
 C67 C 0.69027 0.00818 0.40485
 N68 N 0.70366 -0.02719 0.43736
 C69 C 0.67971 -0.06974 0.43891
 C70 C 0.64082 -0.07841 0.40675
 C71 C 0.65101 0.00118 0.37218
 C72 C 0.83678 -0.06729 0.51421
 C73 C 0.87564 -0.09874 0.50704
 C74 C 0.83849 -0.12825 0.42949
 C75 C 0.80011 -0.09669 0.43844
 N76 N 0.79984 -0.06709 0.48032
 H77 H 0.70923 0.04215 0.40512
 H78 H 0.69049 -0.09671 0.46603
 H79 H 0.62212 -0.11235 0.40941
 H80 H 0.64042 0.02971 0.34669
 H81 H 0.83654 -0.04218 0.54626
 H82 H 0.90480 -0.09833 0.53433
 H83 H 0.83777 -0.15148 0.39596
 H84 H 0.77122 -0.09496 0.41108
 C85 C 0.84931 0.11359 0.50247
 C86 C 0.66770 -0.01975 0.63875
 C87 C 0.87706 -0.12928 0.46391
 C88 C 0.62579 -0.04262 0.37293
 C89 C 0.49343 0.17460 1.05865
 H90 H 0.46161 0.17708 1.03521
 C91 C 0.49746 0.13855 1.09457
 H92 H 0.46841 0.11353 1.09883
 C93 C 0.57040 0.20367 1.08023
 H94 H 0.59893 0.22870 1.07382
 C95 C 0.57617 0.16769 1.11638
 H96 H 0.60901 0.16613 1.13823
 N97 N 0.52944 0.20636 1.05232
 C98 C 0.45255 0.32178 0.97487
 H99 H 0.47217 0.32318 0.94011
 C100 C 0.41338 0.35270 0.98256
 H101 H 0.40302 0.37791 0.95345
 C102 C 0.44292 0.28777 1.05541
 H103 H 0.45498 0.26307 1.08414
 C104 C 0.40376 0.31813 1.06476
 H105 H 0.38580 0.31542 1.10038
 Zn106 Zn 0.52028 0.24970 0.99881
 N107 N 0.46617 0.28976 1.01086
 C108 C 0.46711 0.20755 0.91801
 N109 N 0.51069 0.20936 0.94098
 C110 C 0.54599 0.17726 0.92821
 C111 C 0.53768 0.14066 0.89174
 C112 C 0.45719 0.17139 0.88179
 C113 C 0.58367 0.32268 1.02990
 C114 C 0.61830 0.35806 1.02402
 C115 C 0.62991 0.32792 0.93862
 C116 C 0.59511 0.29314 0.94614
 N117 N 0.57263 0.29130 0.99114
 H118 H 0.43916 0.23248 0.92954
 H119 H 0.57997 0.17883 0.94800
 H120 H 0.56557 0.11438 0.88312
 H121 H 0.42191 0.17006 0.86478
 H122 H 0.56459 0.32100 1.06498
 H123 H 0.62604 0.38319 1.05507
 H124 H 0.64670 0.32875 0.90221
 H125 H 0.58503 0.26870 0.91539
 C126 C 0.38856 0.35126 1.02808
 C127 C 0.53940 0.13436 1.12358
 C128 C 0.64146 0.36150 0.97765
 C129 C 0.49233 0.13656 0.86933
 C130 C 0.44783 0.80013 -0.09121
 H131 H 0.41622 0.79311 -0.06984
 C132 C 0.44445 0.82813 -0.13418
 H133 H 0.41018 0.84295 -0.14578
 C134 C 0.53119 0.78995 -0.10125
 H135 H 0.56477 0.77503 -0.08790
 C136 C 0.52967 0.81959 -0.14361
 H137 H 0.56220 0.82753 -0.16307
 N138 N 0.49042 0.78080 -0.07627
 C139 C 0.42547 0.66859 0.01113
 H140 H 0.43877 0.67650 0.04899
 C141 C 0.39309 0.63094 0.00261
 H142 H 0.38110 0.61040 0.03431
 C143 C 0.42627 0.68449 -0.07638
 H144 H 0.44057 0.70406 -0.10746
 C145 C 0.39418 0.64728 -0.08659
 H146 H 0.38352 0.64013 -0.12543
 Zn147 Zn 0.48717 0.74367 -0.01753
 N148 N 0.44061 0.69512 -0.02810
 C149 C 0.42938 0.78813 0.05968
 N150 N 0.47149 0.78855 0.03507
 C151 C 0.50432 0.82351 0.04531
 C152 C 0.49615 0.85907 0.08266
 C153 C 0.41943 0.82351 0.09693
 C154 C 0.56305 0.67787 -0.03532
 C155 C 0.60028 0.64658 -0.02093
 C156 C 0.59960 0.68426 0.06238
 C157 C 0.56251 0.71459 0.04651
 N158 N 0.54463 0.71060 -0.00142
 H159 H 0.40319 0.76088 0.05004
 H160 H 0.53713 0.82352 0.02444
 H161 H 0.52288 0.88640 0.09045
 H162 H 0.38587 0.82232 0.11633
 H163 H 0.54746 0.67467 -0.07288
 H164 H 0.61364 0.61978 -0.04792
 H165 H 0.61243 0.68802 0.10096
 H166 H 0.54655 0.73961 0.07348
 C167 C 0.37699 0.61993 -0.04683
 C168 C 0.48569 0.83821 -0.16068
 C169 C 0.61819 0.64876 0.02891
 C170 C 0.45318 0.85955 0.10880
 C171 C 1.09444 0.46522 0.18819
 H172 H 1.08820 0.42887 0.20101
 C173 C 1.12887 0.47310 0.15169
 H174 H 1.14921 0.44254 0.13664
 C175 C 1.07541 0.54936 0.19173
 H176 H 1.05392 0.57883 0.20720
 C177 C 1.10946 0.55888 0.15580
 H178 H 1.11359 0.59586 0.14386
 N179 N 1.06834 0.50322 0.20696
 C180 C 1.02910 0.43476 0.33707
 H181 H 1.04022 0.46706 0.35766
 C182 C 1.02053 0.39272 0.36359
 H183 H 1.02607 0.39327 0.40419
 C184 C 1.00551 0.39583 0.26008
 H185 H 0.99821 0.39797 0.21992
 C186 C 0.99602 0.35293 0.28532
 H187 H 0.98242 0.32203 0.26390
 Zn188 Zn 1.01965 0.49696 0.25451
 N189 N 1.02072 0.43595 0.28637
 C190 C 0.92029 0.48899 0.24511
 N191 N 0.96005 0.50227 0.22053
 C192 C 0.95851 0.51209 0.17036
 C193 C 0.91606 0.50757 0.14268
 C194 C 0.87716 0.48332 0.21864
 C195 C 1.07454 0.55102 0.32202
 C196 C 1.08624 0.58722 0.35757
 C197 C 1.00414 0.61453 0.35563
 C198 C 0.99403 0.57783 0.31964
 N199 N 1.02917 0.54692 0.30385
 H200 H 0.92263 0.48063 0.28482
 H201 H 0.99052 0.52163 0.15110
 H202 H 0.91582 0.51450 0.10256
 H203 H 0.84618 0.47181 0.23874
 H204 H 1.10178 0.52595 0.30867
 H205 H 1.12256 0.58924 0.37159
 H206 H 0.97589 0.63897 0.36791
 H207 H 0.95828 0.57406 0.30437
 C208 C 1.00239 0.35153 0.33807
 C209 C 1.13665 0.52047 0.13512
 C210 C 1.05086 0.61972 0.37475
 C211 C 0.87504 0.49172 0.16646
 C212 C -0.07409 0.48170 0.83670
 H213 H -0.06153 0.44480 0.83025
 C214 C -0.10691 0.49209 0.87487
 H215 H -0.11982 0.46280 0.89736
 C216 C -0.07185 0.56481 0.81589
 H217 H -0.05725 0.59339 0.79380
 C218 C -0.10430 0.57680 0.85358
 H219 H -0.11470 0.61447 0.85875
 N220 N -0.05783 0.51787 0.80763
 C221 C 0.00546 0.44068 0.67850
 H222 H 0.03989 0.45788 0.68038
 C223 C -0.00431 0.40624 0.64049
 H224 H 0.02295 0.39663 0.61341
 C225 C -0.07243 0.43381 0.71066
 H226 H -0.09907 0.44557 0.73746
 C227 C -0.08413 0.39993 0.67234
 H228 H -0.11957 0.38489 0.67069
 Zn229 Zn -0.01123 0.50497 0.75771
 N230 N -0.02820 0.45342 0.71288
 C231 C 0.06154 0.44215 0.79179
 N232 N 0.04650 0.48934 0.79200
 C233 C 0.06859 0.52362 0.82146
 C234 C 0.10743 0.51080 0.85237
 C235 C 0.10011 0.42779 0.82200
 C236 C -0.05060 0.56837 0.69246
 C237 C -0.05595 0.60639 0.65924
 C238 C 0.02725 0.62508 0.67238
 C239 C 0.03092 0.58658 0.70626
 N240 N -0.00804 0.55949 0.71576
 H241 H 0.04244 0.41497 0.76979
 H242 H 0.05516 0.56062 0.82206
 H243 H 0.12410 0.53847 0.87618
 H244 H 0.11062 0.38989 0.82143
 H245 H -0.08071 0.54564 0.70000
 H246 H -0.09031 0.61209 0.64113
 H247 H 0.05827 0.64659 0.66490
 H248 H 0.06469 0.57819 0.72443
 C249 C -0.04976 0.38606 0.63658
 C250 C -0.12248 0.54023 0.88370
 C251 C -0.01689 0.63560 0.64895
 C252 C 0.12324 0.46217 0.85345
 C253 C 0.04043 0.23779 0.51572
 C254 C 0.06863 0.26623 0.54714
 C255 C 0.11100 0.24170 0.55090
 C256 C 0.10544 0.19998 0.52140
 O257 O 0.06264 0.19786 0.49994
 H258 H 0.05968 0.30061 0.56532
 H259 H 0.14196 0.25314 0.57267
 C260 C 0.70561 0.55690 0.04457
 C261 C 0.70126 0.56989 0.09478
 C262 C 0.66801 0.60613 0.09598
 C263 C 0.65449 0.61294 0.04614
 O264 O 0.67731 0.58279 0.01487
 H265 H 0.72047 0.55522 0.12683
 H266 H 0.65530 0.62487 0.12957
 C267 C 0.97804 -0.20597 0.47142
 C268 C 0.96916 -0.21273 0.42048
 C269 C 0.93039 -0.18422 0.41010
 C270 C 0.91850 -0.16209 0.45566
 O271 O 0.94775 -0.17501 0.49277
 H272 H 0.98791 -0.23650 0.39424
 H273 H 0.91286 -0.18050 0.37369
 C274 C 0.29464 0.43717 1.02358
 C275 C 0.29208 0.42777 1.07426
 C276 C 0.32648 0.39364 1.08309
 C277 C 0.34773 0.38481 1.03696
 O278 O 0.32833 0.41138 1.00081
 H279 H 0.26838 0.44421 1.10174
 H280 H 0.33536 0.37812 1.11923
 C281 C 0.94379 0.19608 0.51441
 C282 C 0.94692 0.17724 0.56199
 C283 C 0.91240 0.14334 0.56324
 C284 C 0.89054 0.14404 0.51620
 O285 O 0.90963 0.17605 0.48614
 H286 H 0.97052 0.18836 0.59277
 H287 H 0.90362 0.12118 0.59494
 C288 C 0.29468 0.52465 -0.04264
 C289 C 0.29435 0.52897 -0.09426
 C290 C 0.32556 0.56498 -0.10337
 C291 C 0.34269 0.58013 -0.05634
 O292 O 0.32396 0.55536 -0.01945
 H293 H 0.27358 0.50854 -0.12202
 H294 H 0.33416 0.57837 -0.14013
 C295 C 0.06591 -0.19798 0.53749
 C296 C 0.07322 -0.19238 0.58876
 C297 C 0.10571 -0.15625 0.59433
 C298 C 0.11586 -0.14243 0.54583
 O299 O 0.09177 -0.16799 0.51123
 H300 H 0.05644 -0.21193 0.61854
 H301 H 0.12015 -0.14184 0.62965
 C302 C 0.71914 0.46131 0.98599
 C303 C 0.72623 0.44987 0.93580
 C304 C 0.69841 0.41059 0.92548
 C305 C 0.67622 0.40084 0.97034
 O306 O 0.68883 0.43185 1.00706
 H307 H 0.74886 0.46799 0.90966
 H308 H 0.69482 0.39191 0.88927
 C309 C 0.52508 0.03884 1.20803
 C310 C 0.57383 0.04236 1.21295
 C311 C 0.58622 0.07889 1.18213
 C312 C 0.54401 0.09495 1.16046
 O313 O 0.50692 0.07040 1.17600
 H314 H 0.59771 0.02102 1.23624
 H315 H 0.62187 0.09169 1.17599
 C316 C -0.00838 0.72574 0.55703
 C317 C -0.05636 0.73072 0.56577
 C318 C -0.06569 0.69865 0.60240
 C319 C -0.02267 0.67601 0.61329
 O320 O 0.01238 0.69274 0.58592
 H321 H -0.08185 0.75437 0.54729
 H322 H -0.10003 0.69241 0.61884
 C323 C 0.49101 0.93223 -0.24704
 C324 C 0.45499 0.90667 -0.27099
 C325 C 0.44915 0.86653 -0.24261
 C326 C 0.48260 0.87047 -0.20405
 O327 O 0.50797 0.91033 -0.20658
 H328 H 0.43419 0.91684 -0.30388
 H329 H 0.42285 0.83845 -0.24840
 C330 C 0.97582 0.26769 0.43163
 C331 C 0.95603 0.24164 0.39176
 C332 C 0.96399 0.26874 0.35011
 C333 C 0.98812 0.30934 0.36798
 O334 O 0.99522 0.30842 0.41741
 H335 H 0.93800 0.20719 0.39287
 H336 H 0.95274 0.26006 0.31173
 C337 C 0.45671 0.95372 0.20125
 C338 C 0.40805 0.94802 0.19979
 C339 C 0.39983 0.91163 0.16515
 C340 C 0.44419 0.89785 0.14778
 O341 O 0.47876 0.92354 0.16963
 H342 H 0.38157 0.96784 0.22148
 H343 H 0.36547 0.89746 0.15362
 C344 C -0.05012 0.29911 0.53720
 C345 C -0.09814 0.30975 0.53581
 C346 C -0.10506 0.34370 0.57339
 C347 C -0.06052 0.35136 0.59471
 O348 O -0.02719 0.32431 0.57271
 H349 H -0.12501 0.29365 0.51112
 H350 H -0.13846 0.36094 0.58369
 C351 C 0.48799 0.03577 0.78503
 C352 C 0.44029 0.03838 0.79575
 C353 C 0.43551 0.07648 0.82874
 C354 C 0.48085 0.09459 0.83569
 O355 O 0.51304 0.06966 0.80924
 H356 H 0.41215 0.01565 0.78034
 H357 H 0.40279 0.08924 0.84581
 C358 C 1.05272 0.71515 0.46577
 C359 C 1.10111 0.71196 0.45921
 C360 C 1.10747 0.67530 0.42437
 C361 C 1.06223 0.65891 0.41220
 O362 O 1.02902 0.68322 0.43744
 H363 H 1.12841 0.73395 0.47737
 H364 H 1.14111 0.66289 0.40919
 C365 C 1.22068 0.51568 0.03790
 C366 C 1.22162 0.56514 0.04624
 C367 C 1.19017 0.57413 0.08404
 C368 C 1.17233 0.52925 0.09592
 O369 O 1.19096 0.49379 0.06780
 H370 H 1.24279 0.59149 0.02722
 H371 H 1.18192 0.60927 0.10104
 C372 C 0.57508 -0.01064 0.72579
 C373 C 0.60907 -0.02728 0.75946
 C374 C 0.64987 -0.03241 0.73204
 C375 C 0.63729 -0.01846 0.68376
 O376 O 0.59209 -0.00538 0.68027
 H377 H 0.60412 -0.03670 0.79847
 H378 H 0.68413 -0.04566 0.74542
 C379 C -0.20890 0.54158 0.97911
 C380 C -0.20821 0.59088 0.97218
 C381 C -0.17498 0.59761 0.93623
 C382 C -0.15781 0.55164 0.92357
 O383 O -0.17834 0.51764 0.94999
 H384 H -0.22988 0.61860 0.99057
 H385 H -0.16536 0.63212 0.92092
 C386 C 0.44234 0.03132 0.27996
 C387 C 0.43360 0.08037 0.27614
 C388 C 0.39432 0.08953 0.30458
 C389 C 0.38191 0.04518 0.32371
 O390 O 0.41133 0.00991 0.30890
 H391 H 0.45301 0.10626 0.25456
 H392 H 0.37729 0.12455 0.31079
 C393 C 0.21577 0.45398 0.94454
 C394 C 0.21435 0.40529 0.93213
 C395 C 0.17960 0.40113 0.89569
 C396 C 0.16239 0.44790 0.88864
 O397 O 0.18449 0.47986 0.91846
 H398 H 0.23614 0.37639 0.94763
 H399 H 0.16839 0.36776 0.87700
 C400 C 0.52784 -0.03626 0.28810
 C401 C 0.52893 -0.08595 0.29227
 C402 C 0.56527 -0.09537 0.32551
 C403 C 0.58394 -0.05054 0.33897
 O404 O 0.56102 -0.01465 0.31629
 H405 H 0.50656 -0.11221 0.27261
 H406 H 0.57744 -0.13088 0.33713
 C407 C 0.78120 0.48764 0.07673
 C408 C 0.76070 0.45850 0.11165
 C409 C 0.79315 0.45552 0.15033
 C410 C 0.83106 0.48339 0.13611
 O411 O 0.82379 0.50278 0.09130
 H412 H 0.72558 0.44275 0.10984
 H413 H 0.78929 0.43566 0.18476
 C414 C 0.48198 0.01551 0.67777
 C415 C 0.50166 0.05036 0.64838
 C416 C 0.46742 0.06171 0.61360
 C417 C 0.42884 0.03347 0.62494
 O418 O 0.43766 0.00559 0.66412
 H419 H 0.53633 0.06678 0.65273
 H420 H 0.47046 0.08789 0.58405
   
