data_POSCAR
  _audit_creation_date              2014-09-24
  _audit_creation_method            'ToBaCCo'
  _symmetry_space_group_name_H-M    'P1'
  _symmetry_Int_Tables_number       1
  _symmetry_cell_setting            triclinic
  loop_
  _symmetry_equiv_pos_as_xyz
 x,y,z
_cell_length_a 33.6350
_cell_length_b 30.8794
_cell_length_c 35.6113
_cell_angle_alpha 91.212900
_cell_angle_beta 91.557600
_cell_angle_gamma 88.357400
loop_
  _atom_site_label
  _atom_site_type_symbol
  _atom_site_fract_x
  _atom_site_fract_y
  _atom_site_fract_z
C1 C 0.60460 0.64751 0.62562
 N2 N 0.60707 0.62112 0.65567
 C3 C 0.63707 0.59079 0.65912
 N4 N 0.66355 0.58657 0.63113
 C5 C 0.66095 0.61186 0.60045
 N6 N 0.63158 0.64284 0.59805
 C7 C 0.90663 0.35321 0.12196
 N8 N 0.87779 0.35671 0.09458
 C9 C 0.84627 0.38471 0.09840
 N10 N 0.84262 0.40822 0.13070
 C11 C 0.87017 0.40427 0.15899
 N12 N 0.90223 0.37707 0.15434
 C13 C 0.40086 0.15047 -0.11944
 N14 N 0.37820 0.14811 -0.08867
 C15 C 0.34889 0.11883 -0.08767
 N16 N 0.34164 0.09272 -0.11816
 C17 C 0.36343 0.09575 -0.14956
 N18 N 0.39336 0.12438 -0.14978
 C19 C 0.08483 0.86016 0.37930
 N20 N 0.09310 0.88035 0.34710
 C21 C 0.12864 0.89875 0.34182
 N22 N 0.15670 0.89692 0.37012
 C23 C 0.14959 0.87582 0.40228
 N24 N 0.11365 0.85795 0.40674
 N25 N 0.08916 0.18778 0.10806
 N26 N 0.07359 0.17068 0.13757
 C27 C 0.03907 0.19196 0.14509
 C28 C 0.03252 0.22368 0.11859
 C29 C 0.06526 0.22053 0.09591
 H30 H 0.02003 0.18508 0.16808
 H31 H 0.07138 0.24092 0.07255
 Cu32 Cu 0.10035 0.12268 0.16335
 Cu33 Cu 0.13887 0.16599 0.08718
 Cu34 Cu 0.18685 0.07985 0.13212
 N35 N 0.12701 0.07368 0.18772
 N36 N 0.16129 0.05768 0.17604
 C37 C 0.17261 0.02371 0.19735
 C38 C 0.14364 0.01802 0.22340
 C39 C 0.11519 0.05019 0.21660
 H40 H 0.19905 0.00358 0.19331
 H41 H 0.08756 0.05524 0.23111
 N42 N 0.20776 0.10683 0.08718
 N43 N 0.18935 0.13957 0.07013
 C44 C 0.20995 0.14972 0.03980
 C45 C 0.24310 0.12247 0.03783
 C46 C 0.24058 0.09533 0.06804
 H47 H 0.20132 0.17470 0.02013
 H48 H 0.26065 0.06848 0.07484
 H49 H 0.13522 0.10314 0.10603
 H50 H 0.16337 0.14202 0.13672
 N51 N 0.41835 0.80825 0.60527
 N52 N 0.43139 0.82447 0.63758
 C53 C 0.46592 0.80410 0.64744
 C54 C 0.47480 0.77354 0.61986
 C55 C 0.44386 0.77661 0.59370
 H56 H 0.48333 0.81069 0.67278
 H57 H 0.44054 0.75766 0.56797
 Cu58 Cu 0.40196 0.87027 0.66392
 Cu59 Cu 0.37018 0.83062 0.58015
 Cu60 Cu 0.31948 0.91611 0.62419
 N61 N 0.37290 0.91768 0.68847
 N62 N 0.34146 0.93649 0.67245
 C63 C 0.32847 0.96935 0.69486
 C64 C 0.35264 0.97060 0.72701
 C65 C 0.38074 0.93765 0.72167
 H66 H 0.30382 0.99126 0.68795
 H67 H 0.40541 0.92937 0.74053
 N68 N 0.30191 0.89053 0.57543
 N69 N 0.32105 0.85766 0.55902
 C70 C 0.30106 0.84629 0.52723
 C71 C 0.26744 0.87276 0.52374
 C72 C 0.26916 0.90087 0.55443
 H73 H 0.30993 0.82035 0.50810
 H74 H 0.24753 0.92618 0.56131
 H75 H 0.37289 0.89249 0.60365
 H76 H 0.34151 0.85328 0.62781
 N77 N 0.91302 0.69729 0.40394
 N78 N 0.92323 0.68504 0.36984
 C79 C 0.95019 0.71244 0.35745
 C80 C 0.95706 0.74340 0.38524
 C81 C 0.93338 0.73262 0.41451
 H82 H 0.96443 0.70977 0.33061
 H83 H 0.93113 0.74935 0.44139
 Cu84 Cu 0.90163 0.63324 0.34602
 Cu85 Cu 0.87330 0.66725 0.43171
 Cu86 Cu 0.83409 0.57535 0.38881
 N87 N 0.87978 0.58154 0.32220
 N88 N 0.85416 0.55842 0.33977
 C89 C 0.84433 0.52402 0.31805
 C90 C 0.86411 0.52613 0.28464
 C91 C 0.88687 0.56269 0.28847
 H92 H 0.82435 0.49917 0.32600
 H93 H 0.90694 0.57456 0.26808
 N94 N 0.81749 0.59771 0.43827
 N95 N 0.83258 0.63240 0.45487
 C96 C 0.81385 0.64023 0.48740
 C97 C 0.78595 0.60875 0.49158
 C98 C 0.78872 0.58277 0.45965
 H99 H 0.81921 0.66748 0.50625
 H100 H 0.76994 0.55599 0.45196
 H101 H 0.88438 0.60718 0.40744
 H102 H 0.84371 0.64116 0.38540
 N103 N 0.57611 0.31516 -0.10021
 N104 N 0.55846 0.33459 -0.12892
 C105 C 0.52665 0.31183 -0.14045
 C106 C 0.52477 0.27597 -0.11811
 C107 C 0.55633 0.27923 -0.09267
 H108 H 0.50675 0.32028 -0.16369
 H109 H 0.56412 0.25716 -0.07029
 Cu110 Cu 0.57921 0.38685 -0.14959
 Cu111 Cu 0.62285 0.33828 -0.07430
 Cu112 Cu 0.66786 0.42224 -0.11751
 N113 N 0.60929 0.42767 -0.17748
 N114 N 0.64396 0.44112 -0.16480
 C115 C 0.65841 0.46871 -0.18936
 C116 C 0.63172 0.47226 -0.21938
 C117 C 0.60052 0.44631 -0.21069
 H118 H 0.68617 0.48529 -0.18561
 H119 H 0.57366 0.44119 -0.22740
 N120 N 0.68741 0.39866 -0.06947
 N121 N 0.67030 0.36660 -0.05278
 C122 C 0.69034 0.35821 -0.02034
 C123 C 0.72112 0.38682 -0.01630
 C124 C 0.71876 0.41147 -0.04822
 H125 H 0.68303 0.33341 -0.00089
 H126 H 0.73865 0.43672 -0.05543
 H127 H 0.61720 0.40158 -0.09168
 H128 H 0.64303 0.36169 -0.12387
 C129 C -0.04861 0.30418 0.08305
 C130 C -0.06051 0.32360 0.11810
 C131 C -0.03983 0.31058 0.15111
 C132 C -0.01059 0.27790 0.15052
 C133 C -0.00054 0.25649 0.11705
 C134 C -0.02031 0.26868 0.08304
 C135 C -0.06228 0.32002 0.04777
 C136 C -0.05289 0.29823 0.01436
 C137 C -0.02913 0.26074 0.01503
 C138 C -0.01272 0.24615 0.04891
 H139 H -0.07883 0.35021 0.04496
 H140 H -0.06411 0.31058 -0.01223
 H141 H -0.02259 0.24345 -0.01094
 H142 H 0.00568 0.21692 0.04800
 H143 H -0.04700 0.32471 0.17828
 H144 H 0.00451 0.26933 0.17671
 C145 C 0.58115 0.72605 0.62184
 C146 C 0.57287 0.68134 0.62322
 C147 C 0.53336 0.66828 0.62254
 C148 C 0.50203 0.69864 0.62030
 C149 C 0.50931 0.74298 0.61940
 C150 C 0.54905 0.75714 0.61970
 C151 C 0.62058 0.74070 0.62336
 C152 C 0.62819 0.78475 0.62159
 C153 C 0.59687 0.81499 0.61842
 C154 C 0.55764 0.80150 0.61748
 H155 H 0.64585 0.71846 0.62617
 H156 H 0.65856 0.79547 0.62263
 H157 H 0.60299 0.84911 0.61677
 H158 H 0.53426 0.82608 0.61470
 H159 H 0.52671 0.63420 0.62361
 H160 H 0.47177 0.68748 0.62013
 C161 C 1.01511 0.84238 0.35740
 C162 C 1.04861 0.83818 0.38301
 C163 C 1.04673 0.80769 0.41181
 C164 C 1.01602 0.77862 0.41275
 C165 C 0.98612 0.77834 0.38485
 C166 C 0.98472 0.81091 0.35743
 C167 C 1.00963 0.87787 0.33302
 C168 C 0.97788 0.87985 0.30708
 C169 C 0.94990 0.84763 0.30566
 C170 C 0.95275 0.81385 0.33095
 H171 H 1.02830 0.90567 0.33461
 H172 H 0.97459 0.90703 0.28843
 H173 H 0.92512 0.84956 0.28566
 H174 H 0.92916 0.79078 0.33007
 H175 H 1.07037 0.80419 0.43288
 H176 H 1.01679 0.75453 0.43448
 C177 C 0.47395 0.16656 -0.12431
 C178 C 0.43389 0.18081 -0.11963
 C179 C 0.42484 0.22509 -0.11516
 C180 C 0.45465 0.25541 -0.11567
 C181 C 0.49447 0.24228 -0.11997
 C182 C 0.50448 0.19761 -0.12479
 C183 C 0.48450 0.12207 -0.12784
 C184 C 0.52393 0.10863 -0.13302
 C185 C 0.55354 0.13903 -0.13471
 C186 C 0.54407 0.18311 -0.13067
 H187 H 0.46258 0.09726 -0.12638
 H188 H 0.53154 0.07444 -0.13584
 H189 H 0.58404 0.12840 -0.13909
 H190 H 0.56799 0.20555 -0.13255
 H191 H 0.39434 0.23631 -0.11154
 H192 H 0.44665 0.28945 -0.11196
 C193 C 0.11093 -0.08183 0.27508
 C194 C 0.13529 -0.07812 0.30862
 C195 C 0.16551 -0.04737 0.30956
 C196 C 0.16858 -0.01760 0.28103
 C197 C 0.14153 -0.01714 0.25063
 C198 C 0.11303 -0.04988 0.24683
 C199 C 0.08609 -0.11751 0.26764
 C200 C 0.06119 -0.11913 0.23575
 C201 C 0.06142 -0.08632 0.20969
 C202 C 0.08750 -0.05236 0.21472
 H203 H 0.08667 -0.14562 0.28513
 H204 H 0.04208 -0.14643 0.23093
 H205 H 0.04221 -0.08791 0.18485
 H206 H 0.08802 -0.02869 0.19280
 H207 H 0.18569 -0.04425 0.33363
 H208 H 0.19115 0.00671 0.28364
 C209 C 0.67353 0.53647 -0.29965
 C210 C 0.63915 0.56275 -0.30974
 C211 C 0.60444 0.55851 -0.28894
 C212 C 0.60240 0.52825 -0.26078
 C213 C 0.63477 0.50068 -0.25208
 C214 C 0.67025 0.50357 -0.27235
 C215 C 0.71171 0.54298 -0.31422
 C216 C 0.74362 0.51452 -0.30641
 C217 C 0.73881 0.47957 -0.28324
 C218 C 0.70266 0.47423 -0.26606
 H219 H 0.71836 0.57083 -0.33037
 H220 H 0.77233 0.51974 -0.31832
 H221 H 0.76349 0.45711 -0.27780
 H222 H 0.70038 0.44674 -0.24804
 H223 H 0.57780 0.57795 -0.29498
 H224 H 0.57519 0.52669 -0.24530
 C225 C 0.31950 1.05105 0.80511
 C226 C 0.35741 1.06558 0.81784
 C227 C 0.39153 1.04945 0.79999
 C228 C 0.38900 1.01900 0.77086
 C229 C 0.35230 1.00290 0.75853
 C230 C 0.31708 1.01824 0.77623
 C231 C 0.28384 1.06875 0.81982
 C232 C 0.24710 1.05231 0.80872
 C233 C 0.24504 1.01811 0.78278
 C234 C 0.27957 1.00112 0.76665
 H235 H 0.28368 1.09589 0.83943
 H236 H 0.22008 1.06600 0.82051
 H237 H 0.21648 1.00488 0.77487
 H238 H 0.27642 0.97412 0.74716
 H239 H 0.42078 1.06000 0.80906
 H240 H 0.41626 1.00792 0.75774
 C241 C 0.82953 0.44340 0.20945
 C242 C 0.86671 0.43204 0.19332
 C243 C 0.90133 0.45090 0.20804
 C244 C 0.89964 0.48144 0.23727
 C245 C 0.86325 0.49462 0.25264
 C246 C 0.82757 0.47637 0.23808
 C247 C 0.79420 0.42246 0.19813
 C248 C 0.75756 0.43616 0.21214
 C249 C 0.75528 0.47078 0.23764
 C250 C 0.78981 0.49081 0.25053
 H251 H 0.79445 0.39488 0.17897
 H252 H 0.73074 0.42006 0.20289
 H253 H 0.72663 0.48197 0.24774
 H254 H 0.78633 0.51808 0.26974
 H255 H 0.92998 0.44276 0.19618
 H256 H 0.92718 0.49493 0.24803
 C257 C 0.34007 0.11592 -0.01695
 C258 C 0.32391 0.11668 -0.05422
 C259 C 0.28258 0.11780 -0.05998
 C260 C 0.25721 0.11969 -0.02977
 C261 C 0.27222 0.12024 0.00732
 C262 C 0.31403 0.11869 0.01408
 C263 C 0.38151 0.11185 -0.00974
 C264 C 0.39703 0.11291 0.02695
 C265 C 0.37177 0.11798 0.05710
 C266 C 0.33069 0.12091 0.05089
 H267 H 0.40230 0.10721 -0.03217
 H268 H 0.42887 0.11000 0.03200
 H269 H 0.38406 0.11945 0.08549
 H270 H 0.31239 0.12537 0.07519
 H271 H 0.26974 0.11830 -0.08822
 H272 H 0.22538 0.12073 -0.03545
 C273 C 0.71047 0.56792 0.56064
 C274 C 0.69181 0.60807 0.57146
 C275 C 0.70487 0.64649 0.55622
 C276 C 0.73592 0.64599 0.53123
 C277 C 0.75545 0.60712 0.52078
 C278 C 0.74363 0.56774 0.53645
 C279 C 0.69663 0.52779 0.57262
 C280 C 0.71696 0.48908 0.56390
 C281 C 0.75117 0.48936 0.54290
 C282 C 0.76445 0.52818 0.52920
 H283 H 0.66966 0.52551 0.58811
 H284 H 0.70620 0.45870 0.57366
 H285 H 0.76729 0.45929 0.53684
 H286 H 0.79147 0.52680 0.51344
 H287 H 0.69124 0.67746 0.56411
 H288 H 0.74441 0.67638 0.51953
 C289 C 0.79693 0.42811 0.05748
 C290 C 0.81512 0.38801 0.06832
 C291 C 0.80184 0.34942 0.05154
 C292 C 0.77079 0.34976 0.02494
 C293 C 0.75184 0.38868 0.01422
 C294 C 0.76410 0.42828 0.03125
 C295 C 0.81099 0.46821 0.07146
 C296 C 0.79142 0.50707 0.06217
 C297 C 0.75768 0.50691 0.03876
 C298 C 0.74405 0.46803 0.02339
 H299 H 0.83752 0.47024 0.08911
 H300 H 0.80238 0.53746 0.07339
 H301 H 0.74215 0.53712 0.03222
 H302 H 0.71738 0.46954 0.00581
 H303 H 0.81532 0.31853 0.05945
 H304 H 0.76182 0.31927 0.01219
 C305 C 0.19043 0.83278 0.45049
 C306 C 0.18057 0.87244 0.43248
 C307 C 0.19920 0.91037 0.44475
 C308 C 0.22660 0.90987 0.47479
 C309 C 0.23642 0.87140 0.49345
 C310 C 0.21768 0.83252 0.48189
 C311 C 0.17438 0.79315 0.43765
 C312 C 0.18285 0.75486 0.45668
 C313 C 0.20745 0.75514 0.48868
 C314 C 0.22473 0.79346 0.50128
 H315 H 0.15563 0.79104 0.41260
 H316 H 0.17006 0.72485 0.44664
 H317 H 0.21338 0.72544 0.50371
 H318 H 0.24314 0.79209 0.52659
 H319 H 0.19200 0.94087 0.43131
 H320 H 0.24064 0.93980 0.48331
   
