data_POSCAR
  _audit_creation_date              2014-09-24
  _audit_creation_method            'ToBaCCo'
  _symmetry_space_group_name_H-M    'P1'
  _symmetry_Int_Tables_number       1
  _symmetry_cell_setting            triclinic
  loop_
  _symmetry_equiv_pos_as_xyz
 x,y,z
_cell_length_a 39.5925
_cell_length_b 39.7729
_cell_length_c 23.7556
_cell_angle_alpha 89.927500
_cell_angle_beta 90.071000
_cell_angle_gamma 120.237700
loop_
  _atom_site_label
  _atom_site_type_symbol
  _atom_site_fract_x
  _atom_site_fract_y
  _atom_site_fract_z
C1 C 0.44901 0.89591 0.49955
 C2 C 0.46355 0.91613 0.55000
 C3 C 0.48467 0.95692 0.55002
 C4 C 0.48967 0.97822 0.49990
 C5 C 0.47365 0.95698 0.44963
 C6 C 0.45451 0.91627 0.44934
 C7 C 0.51131 1.02205 0.50004
 C8 C 0.52738 1.04351 0.44991
 C9 C 0.54650 1.08426 0.44988
 C10 C 0.55190 1.10437 0.50030
 C11 C 0.53729 1.08389 0.55053
 C12 C 0.51623 1.04314 0.55028
 H13 H 0.43338 0.86432 0.49925
 H14 H 0.49712 0.97154 0.58942
 H15 H 0.47557 0.97150 0.41030
 H16 H 0.52548 1.02905 0.41055
 H17 H 0.56747 1.13596 0.50057
 H18 H 0.50379 1.02846 0.58962
 C19 C 0.10492 0.55293 0.49720
 C20 C 0.08474 0.53872 0.54781
 C21 C 0.04376 0.51709 0.54794
 C22 C 0.02219 0.51124 0.49771
 C23 C 0.04344 0.52707 0.44732
 C24 C 0.08434 0.54665 0.44695
 C25 C -0.02189 0.48892 0.49777
 C26 C -0.04327 0.47298 0.44747
 C27 C -0.08422 0.45340 0.44725
 C28 C -0.10462 0.44729 0.49763
 C29 C -0.08425 0.46165 0.54804
 C30 C -0.04332 0.48322 0.54803
 H31 H 0.13666 0.56889 0.49681
 H32 H 0.02927 0.50490 0.58750
 H33 H 0.02881 0.52466 0.40786
 H34 H -0.02864 0.47534 0.40806
 H35 H -0.13636 0.43137 0.49772
 H36 H -0.02883 0.49542 0.58756
 C37 C 0.44790 0.55283 0.50272
 C38 C 0.46192 0.54653 0.55323
 C39 C 0.48292 0.52681 0.55318
 C40 C 0.48824 0.51093 0.50293
 C41 C 0.47278 0.51683 0.45254
 C42 C 0.45381 0.53853 0.45235
 C43 C 0.50961 0.48849 0.50317
 C44 C 0.52530 0.48265 0.45305
 C45 C 0.54432 0.46099 0.45336
 C46 C 0.54998 0.44665 0.50393
 C47 C 0.53570 0.45287 0.55410
 C48 C 0.51471 0.47256 0.55361
 H49 H 0.43236 0.56884 0.50250
 H50 H 0.49502 0.52431 0.59270
 H51 H 0.47499 0.50468 0.41302
 H52 H 0.52327 0.49483 0.41340
 H53 H 0.56553 0.43067 0.50425
 H54 H 0.50254 0.47499 0.59301
 O55 O 0.39343 0.66974 -0.06182
 O56 O 0.39488 0.73527 -0.04720
 C57 C 0.37115 0.73984 -0.07777
 O58 O 0.33468 0.72251 -0.06919
 O59 O 0.26801 0.65877 -0.05445
 C60 C 0.26324 0.62899 -0.08093
 O61 O 0.28015 0.61031 -0.06784
 O62 O 0.34402 0.60911 -0.04753
 C63 C 0.37443 0.63390 -0.07382
 O64 O 0.39211 0.65898 0.05068
 O65 O 0.38973 0.72261 0.06525
 C66 C 0.37068 0.73982 0.07382
 O67 O 0.34232 0.73519 0.04322
 O68 O 0.27760 0.66959 0.05801
 C69 C 0.26041 0.63375 0.07013
 O70 O 0.26580 0.60900 0.04390
 O71 O 0.33100 0.61043 0.06420
 C72 C 0.36679 0.62918 0.07725
 Cr73 Cr 0.39039 0.69558 0.00161
 Cr74 Cr 0.30672 0.69545 -0.00548
 Cr75 Cr 0.30633 0.61187 -0.00182
 O76 O 0.33445 0.66758 -0.00190
 O77 O 0.60573 0.34089 -0.04135
 O78 O 0.60665 0.27696 -0.05984
 C79 C 0.62547 0.26032 -0.07367
 O80 O 0.65612 0.26567 -0.04856
 O81 O 0.71979 0.33155 -0.06720
 C82 C 0.73692 0.36760 -0.07764
 O83 O 0.73262 0.39180 -0.04828
 O84 O 0.66605 0.38927 -0.06127
 C85 C 0.62963 0.37004 -0.07053
 O86 O 0.61065 0.33090 0.07057
 O87 O 0.60848 0.26539 0.05212
 C88 C 0.63395 0.26038 0.07723
 O89 O 0.66961 0.27737 0.06337
 O90 O 0.73481 0.34171 0.04472
 C91 C 0.74002 0.37072 0.07385
 O92 O 0.72275 0.38965 0.06445
 O93 O 0.65831 0.39136 0.05143
 C94 C 0.62964 0.36698 0.08085
 Cr95 Cr 0.61003 0.30461 0.00525
 Cr96 Cr 0.69400 0.30514 -0.00180
 Cr97 Cr 0.69387 0.38839 0.00159
 O98 O 0.66594 0.33266 0.00168
 C99 C 0.43488 0.85370 -0.30631
 C100 C 0.39267 0.84077 -0.28933
 C101 C 0.38062 0.81849 -0.24195
 C102 C 0.41194 0.81126 -0.21609
 C103 C 0.44751 0.85197 -0.20662
 C104 C 0.45959 0.87431 -0.25412
 C105 C 0.43611 0.81586 -0.31128
 C106 C 0.42406 0.79356 -0.26385
 C107 C 0.44717 0.87733 -0.35774
 C108 C 0.45569 0.89595 -0.40076
 C109 C 0.39844 0.78684 -0.16546
 C110 C 0.38640 0.76587 -0.12483
 H111 H 0.37388 0.84850 -0.31247
 H112 H 0.35153 0.80714 -0.22451
 H113 H 0.46193 0.86231 -0.16624
 H114 H 0.48435 0.90379 -0.25444
 H115 H 0.44569 0.80737 -0.34870
 H116 H 0.42331 0.76595 -0.26067
 C117 C 0.14815 0.56843 -0.30905
 C118 C 0.14326 0.59807 -0.27388
 C119 C 0.16599 0.61010 -0.22676
 C120 C 0.19139 0.59133 -0.21941
 C121 C 0.21483 0.60028 -0.27427
 C122 C 0.19212 0.58826 -0.32135
 C123 C 0.13981 0.53523 -0.26812
 C124 C 0.16256 0.54728 -0.22095
 C125 C 0.12408 0.55600 -0.36017
 C126 C 0.10517 0.54713 -0.40301
 C127 C 0.21621 0.60454 -0.16904
 C128 C 0.23732 0.61568 -0.12839
 H129 H 0.12362 0.60863 -0.28498
 H130 H 0.16582 0.63097 -0.19750
 H131 H 0.24651 0.61478 -0.27599
 H132 H 0.20435 0.59247 -0.36339
 H133 H 0.11797 0.50498 -0.27549
 H134 H 0.16021 0.52733 -0.18790
 C135 C 0.43348 0.57960 -0.30248
 C136 C 0.39170 0.57259 -0.30562
 C137 C 0.38015 0.58297 -0.25798
 C138 C 0.41150 0.59936 -0.21176
 C139 C 0.44758 0.63320 -0.23976
 C140 C 0.45914 0.62281 -0.28747
 C141 C 0.43400 0.55744 -0.24978
 C142 C 0.42243 0.56784 -0.20204
 C143 C 0.44539 0.56829 -0.35420
 C144 C 0.45386 0.55845 -0.39741
 C145 C 0.39875 0.61075 -0.16093
 C146 C 0.38780 0.62081 -0.12039
 H147 H 0.37281 0.56053 -0.34212
 H148 H 0.35138 0.57978 -0.25366
 H149 H 0.46274 0.66272 -0.22351
 H150 H 0.48419 0.64341 -0.31208
 H151 H 0.44272 0.53557 -0.24995
 H152 H 0.42122 0.55488 -0.16130
 C153 C 0.56554 0.14695 -0.30272
 C154 C 0.60407 0.18562 -0.30954
 C155 C 0.61562 0.20776 -0.26205
 C156 C 0.58754 0.18911 -0.21229
 C157 C 0.58379 0.14904 -0.20462
 C158 C 0.57223 0.12686 -0.25220
 C159 C 0.53594 0.15834 -0.28206
 C160 C 0.54751 0.18052 -0.23448
 C161 C 0.55368 0.12347 -0.35426
 C162 C 0.54536 0.10498 -0.39733
 C163 C 0.60037 0.21341 -0.16154
 C164 C 0.61157 0.23431 -0.12083
 H165 H 0.62084 0.19482 -0.34832
 H166 H 0.64227 0.23591 -0.26016
 H167 H 0.58965 0.13896 -0.16532
 H168 H 0.56817 0.09777 -0.25364
 H169 H 0.50833 0.14970 -0.30289
 H170 H 0.52980 0.19088 -0.21455
 C171 C 0.85141 0.43104 -0.30601
 C172 C 0.87300 0.42867 -0.25379
 C173 C 0.85032 0.41624 -0.20664
 C174 C 0.80829 0.40741 -0.21638
 C175 C 0.79267 0.37787 -0.26476
 C176 C 0.81531 0.39028 -0.31183
 C177 C 0.83525 0.45740 -0.28862
 C178 C 0.81257 0.44497 -0.24147
 C179 C 0.87543 0.44381 -0.35712
 C180 C 0.89431 0.45284 -0.39994
 C181 C 0.78356 0.39370 -0.16599
 C182 C 0.76260 0.38193 -0.12528
 H183 H 0.90343 0.43616 -0.25382
 H184 H 0.86132 0.41307 -0.16627
 H185 H 0.76613 0.34966 -0.26229
 H186 H 0.80815 0.37269 -0.34967
 H187 H 0.84114 0.48353 -0.31127
 H188 H 0.79902 0.46046 -0.22373
 C189 C 0.56553 0.41994 -0.29874
 C190 C 0.58154 0.39251 -0.30949
 C191 C 0.59381 0.38266 -0.26197
 C192 C 0.58890 0.40119 -0.20827
 C193 C 0.54545 0.38914 -0.20706
 C194 C 0.53315 0.39901 -0.25469
 C195 C 0.59849 0.45495 -0.26764
 C196 C 0.61077 0.44509 -0.22009
 C197 C 0.55297 0.43078 -0.35035
 C198 C 0.54419 0.44038 -0.39357
 C199 C 0.60258 0.39054 -0.15758
 C200 C 0.61460 0.38146 -0.11711
 H201 H 0.58305 0.38172 -0.35082
 H202 H 0.60585 0.36344 -0.26261
 H203 H 0.52609 0.37420 -0.17193
 H204 H 0.50325 0.39253 -0.26040
 H205 H 0.61104 0.48488 -0.28169
 H206 H 0.63384 0.46656 -0.19342
 C207 C 0.85383 0.42100 0.30283
 C208 C 0.84105 0.37983 0.28174
 C209 C 0.81895 0.36992 0.23397
 C210 C 0.81183 0.40219 0.21205
 C211 C 0.85275 0.43796 0.20489
 C212 C 0.87484 0.44786 0.25265
 C213 C 0.81575 0.42192 0.30951
 C214 C 0.79370 0.41204 0.26184
 C215 C 0.87721 0.43190 0.35458
 C216 C 0.89567 0.44157 0.39782
 C217 C 0.78757 0.39148 0.16119
 C218 C 0.76649 0.38232 0.12057
 H219 H 0.84871 0.36022 0.30243
 H220 H 0.80768 0.34182 0.21372
 H221 H 0.86344 0.45405 0.16577
 H222 H 0.90447 0.47245 0.25446
 H223 H 0.80687 0.42964 0.34833
 H224 H 0.76594 0.41131 0.25984
 C225 C 0.58047 0.14666 0.30611
 C226 C 0.58688 0.18764 0.31550
 C227 C 0.59745 0.20988 0.26807
 C228 C 0.60060 0.18900 0.21578
 C229 C 0.56070 0.15156 0.21108
 C230 C 0.55012 0.12928 0.25859
 C231 C 0.61873 0.15314 0.27996
 C232 C 0.62933 0.17542 0.23243
 C233 C 0.56888 0.12308 0.35760
 C234 C 0.55875 0.10449 0.40064
 C235 C 0.61204 0.21339 0.16509
 C236 C 0.62177 0.23434 0.12439
 H237 H 0.58344 0.19829 0.35591
 H238 H 0.60305 0.23956 0.26786
 H239 H 0.54242 0.14324 0.17373
 H240 H 0.52276 0.10187 0.26193
 H241 H 0.63595 0.14126 0.29717
 H242 H 0.65563 0.18263 0.20893
 C243 C 0.57819 0.43023 0.30810
 C244 C 0.61381 0.42520 0.31687
 C245 C 0.62412 0.41276 0.27003
 C246 C 0.59781 0.40655 0.21897
 C247 C 0.59920 0.44556 0.21086
 C248 C 0.58887 0.45802 0.25777
 C249 C 0.54584 0.39066 0.28623
 C250 C 0.55615 0.37822 0.23940
 C251 C 0.56687 0.44303 0.35893
 C252 C 0.55697 0.45211 0.40155
 C253 C 0.60890 0.39284 0.16886
 C254 C 0.61818 0.38115 0.12833
 H255 H 0.62959 0.43096 0.35638
 H256 H 0.64874 0.40787 0.26943
 H257 H 0.60756 0.46193 0.17175
 H258 H 0.58838 0.48505 0.25887
 H259 H 0.51730 0.37389 0.30578
 H260 H 0.53646 0.35082 0.21885
 C261 C 0.14698 0.58000 0.29947
 C262 C 0.16606 0.62342 0.28508
 C263 C 0.18800 0.63363 0.23723
 C264 C 0.18870 0.59943 0.20847
 C265 C 0.14557 0.56883 0.19879
 C266 C 0.12361 0.55860 0.24669
 C267 C 0.18091 0.57180 0.30188
 C268 C 0.20283 0.58201 0.25409
 C269 C 0.12375 0.56886 0.35133
 C270 C 0.10542 0.55916 0.39463
 C271 C 0.21284 0.61066 0.15748
 C272 C 0.23387 0.62066 0.11681
 H273 H 0.16261 0.64428 0.31019
 H274 H 0.20336 0.66327 0.22136
 H275 H 0.13336 0.55633 0.15799
 H276 H 0.09257 0.53735 0.24690
 H277 H 0.18720 0.55909 0.33801
 H278 H 0.22787 0.57803 0.24928
 C279 C 0.42062 0.85312 0.30258
 C280 C 0.45357 0.84752 0.27913
 C281 C 0.44346 0.82536 0.23167
 C282 C 0.40138 0.81094 0.21224
 C283 C 0.39856 0.84788 0.20590
 C284 C 0.40869 0.87009 0.25346
 C285 C 0.38591 0.81178 0.31085
 C286 C 0.37579 0.78962 0.26338
 C287 C 0.43179 0.87662 0.35409
 C288 C 0.44169 0.89512 0.39717
 C289 C 0.39056 0.78664 0.16156
 C290 C 0.38161 0.76576 0.12090
 H291 H 0.48237 0.85994 0.29810
 H292 H 0.46359 0.81880 0.21001
 H293 H 0.38942 0.85588 0.16750
 H294 H 0.40822 0.89711 0.25583
 H295 H 0.37055 0.80089 0.35049
 H296 H 0.35178 0.75974 0.26237
 C297 C 0.42028 0.56880 0.30601
 C298 C 0.39434 0.58648 0.31776
 C299 C 0.38393 0.59851 0.27053
 C300 C 0.40046 0.59170 0.21609
 C301 C 0.38673 0.54805 0.21621
 C302 C 0.39717 0.53600 0.26352
 C303 C 0.45523 0.60018 0.27274
 C304 C 0.44481 0.61222 0.22547
 C305 C 0.43161 0.55634 0.35728
 C306 C 0.44138 0.54740 0.40023
 C307 C 0.38910 0.60489 0.16556
 C308 C 0.37928 0.61597 0.12481
 H309 H 0.38494 0.58927 0.35954
 H310 H 0.36562 0.61161 0.27187
 H311 H 0.37031 0.52836 0.18213
 H312 H 0.38969 0.50600 0.27000
 H313 H 0.48551 0.61188 0.28518
 H314 H 0.46614 0.63423 0.19743
   
