data_POSCAR
  _audit_creation_date              2014-09-24
  _audit_creation_method            'ToBaCCo'
  _symmetry_space_group_name_H-M    'P1'
  _symmetry_Int_Tables_number       1
  _symmetry_cell_setting            triclinic
  loop_
  _symmetry_equiv_pos_as_xyz
 x,y,z
_cell_length_a 36.4881
_cell_length_b 32.2905
_cell_length_c 32.5364
_cell_angle_alpha 99.633600
_cell_angle_beta 89.650300
_cell_angle_gamma 89.669300
loop_
  _atom_site_label
  _atom_site_type_symbol
  _atom_site_fract_x
  _atom_site_fract_y
  _atom_site_fract_z
C1 C 0.24966 0.52547 1.04701
 H2 H 0.27181 0.54391 1.03756
 C3 C 0.23154 0.53911 1.08486
 H4 H 0.24015 0.56777 1.10460
 C5 C 0.21075 0.46633 1.03288
 H6 H 0.20267 0.43810 1.01220
 C7 C 0.19221 0.47853 1.07078
 H8 H 0.17031 0.45917 1.07940
 N9 N 0.23938 0.48931 1.02212
 C10 C 0.29939 0.53106 0.92913
 H11 H 0.27616 0.52767 0.90844
 C12 C 0.32784 0.55815 0.92265
 H13 H 0.32625 0.57594 0.89730
 C14 C 0.33039 0.51195 0.98706
 H15 H 0.33120 0.49357 1.01196
 C16 C 0.35942 0.53856 0.98163
 H17 H 0.38242 0.54082 1.00273
 Zn18 Zn 0.26361 0.47080 0.97023
 N19 N 0.30100 0.50895 0.96122
 C20 C 0.20609 0.50205 0.92975
 N21 N 0.22766 0.46745 0.92859
 C22 C 0.22149 0.43165 0.90096
 C23 C 0.19228 0.42979 0.87306
 C24 C 0.17655 0.50143 0.90279
 C25 C 0.28295 0.39830 1.00343
 C26 C 0.30378 0.36262 1.00610
 C27 C 0.33137 0.36743 0.93940
 C28 C 0.30955 0.40288 0.93767
 N29 N 0.28652 0.41804 0.96986
 H30 H 0.21145 0.52987 0.95240
 H31 H 0.23868 0.40431 0.90106
 H32 H 0.18712 0.40112 0.85146
 H33 H 0.15941 0.52915 0.90460
 H34 H 0.26534 0.41117 1.02918
 H35 H 0.30196 0.34821 1.03380
 H36 H 0.35096 0.35688 0.91470
 H37 H 0.31227 0.41957 0.91164
 C38 C 0.35819 0.56212 0.94907
 C39 C 0.20266 0.51538 1.09702
 C40 C 0.32895 0.34764 0.97455
 C41 C 0.16920 0.46474 0.87430
 C42 C 0.75605 0.56630 -0.04473
 H43 H 0.73933 0.59392 -0.03472
 C44 C 0.77896 0.56442 -0.07961
 H45 H 0.78001 0.59069 -0.09635
 C46 C 0.77675 0.49905 -0.03439
 H47 H 0.77639 0.47421 -0.01582
 C48 C 0.79977 0.49578 -0.06908
 H49 H 0.81697 0.46818 -0.07724
 N50 N 0.75614 0.53426 -0.02239
 C51 C 0.73401 0.62571 0.05024
 H52 H 0.76256 0.62139 0.04189
 C53 C 0.72081 0.66601 0.06510
 H54 H 0.73951 0.69229 0.06913
 C55 C 0.67506 0.59714 0.05694
 H56 H 0.65741 0.57008 0.05428
 C57 C 0.66070 0.63725 0.07216
 H58 H 0.63234 0.64081 0.08213
 Zn59 Zn 0.73267 0.53764 0.02992
 N60 N 0.71136 0.59203 0.04700
 C61 C 0.80287 0.54922 0.06357
 N62 N 0.77113 0.52803 0.06716
 C63 C 0.76909 0.49879 0.09282
 C64 C 0.79938 0.49066 0.11650
 C65 C 0.83381 0.54179 0.08636
 C66 C 0.68830 0.47369 -0.01276
 C67 C 0.66393 0.44014 -0.01736
 C68 C 0.65559 0.45148 0.05737
 C69 C 0.67926 0.48578 0.06047
 N70 N 0.69626 0.49513 0.02582
 H71 H 0.80481 0.57074 0.04161
 H72 H 0.74450 0.48088 0.09445
 H73 H 0.79755 0.46720 0.13661
 H74 H 0.85883 0.55864 0.08256
 H75 H 0.70105 0.48232 -0.04012
 H76 H 0.65816 0.42292 -0.04811
 H77 H 0.64304 0.44352 0.08523
 H78 H 0.68473 0.50433 0.09065
 C79 C 0.68394 0.67215 0.07621
 C80 C 0.80166 0.52931 -0.09141
 C81 C 0.64828 0.42799 0.01798
 C82 C 0.83221 0.51200 0.11309
 C83 C -0.00777 0.29067 0.39921
 H84 H -0.03124 0.30357 0.41758
 C85 C -0.00277 0.29961 0.35895
 H86 H -0.02298 0.31849 0.34620
 C87 C 0.04777 0.25168 0.39406
 H88 H 0.06797 0.23398 0.40811
 C89 C 0.05403 0.26029 0.35392
 H90 H 0.07878 0.24869 0.33716
 N91 N 0.01721 0.26682 0.41589
 C92 C -0.03612 0.21492 0.51642
 H93 H -0.01408 0.21929 0.53878
 C94 C -0.06738 0.19298 0.52475
 H95 H -0.06947 0.18036 0.55348
 C96 C -0.05997 0.22482 0.45114
 H97 H -0.05681 0.23644 0.42213
 C98 C -0.09191 0.20342 0.45845
 H99 H -0.11304 0.19891 0.43495
 Zn100 Zn 0.01110 0.25938 0.47258
 N101 N -0.03305 0.23066 0.48027
 C102 C -0.01520 0.32189 0.53772
 N103 N 0.00916 0.31358 0.50550
 C104 C 0.02515 0.34518 0.48914
 C105 C 0.01397 0.38670 0.50228
 C106 C -0.02672 0.36309 0.55220
 C107 C 0.04960 0.18581 0.46657
 C108 C 0.07533 0.15676 0.47548
 C109 C 0.10022 0.20981 0.52914
 C110 C 0.07393 0.23830 0.51890
 N111 N 0.04948 0.22574 0.48789
 H112 H -0.02824 0.29648 0.54979
 H113 H 0.04396 0.33784 0.46308
 H114 H 0.02423 0.41119 0.48633
 H115 H -0.04877 0.36862 0.57488
 H116 H 0.02949 0.17660 0.44253
 H117 H 0.07535 0.12510 0.45804
 H118 H 0.11972 0.21982 0.55367
 H119 H 0.07286 0.27013 0.53578
 C120 C -0.09571 0.18730 0.49576
 C121 C 0.02869 0.28470 0.33624
 C122 C 0.10082 0.16852 0.50699
 C123 C -0.01314 0.39573 0.53305
 C124 C 0.94747 0.70794 0.54140
 H125 H 0.92631 0.70697 0.51814
 C126 C 0.94272 0.68635 0.57456
 H127 H 0.91797 0.66850 0.57685
 C128 C 1.00630 0.73077 0.56595
 H129 H 1.03144 0.74710 0.56173
 C130 C 1.00278 0.70910 0.59953
 H131 H 1.02515 0.70914 0.62123
 N132 N 0.97879 0.72966 0.53770
 C133 C 0.93607 0.80529 0.45006
 H134 H 0.95371 0.79650 0.42313
 C135 C 0.90640 0.83264 0.44832
 H136 H 0.90119 0.84502 0.41997
 C137 C 0.92156 0.80059 0.52028
 H138 H 0.92807 0.78925 0.54876
 C139 C 0.89167 0.82737 0.51975
 H140 H 0.87495 0.83597 0.54753
 Zn141 Zn 0.98321 0.75328 0.48867
 N142 N 0.94279 0.78958 0.48561
 C143 C 0.94802 0.69367 0.43188
 N144 N 0.98202 0.70606 0.44565
 C145 C 1.01030 0.67805 0.44334
 C146 C 1.00405 0.63520 0.43018
 C147 C 0.94041 0.65105 0.42000
 C148 C 1.02586 0.81773 0.52444
 C149 C 1.05623 0.84338 0.53307
 C150 C 1.08687 0.80396 0.47276
 C151 C 1.05567 0.77868 0.46525
 N152 N 1.02628 0.78564 0.49157
 H153 H 0.92553 0.71593 0.43591
 H154 H 1.03643 0.68796 0.45692
 H155 H 1.02576 0.61279 0.43273
 H156 H 0.91237 0.64106 0.41424
 H157 H 1.00201 0.82270 0.54462
 H158 H 1.05580 0.86840 0.55979
 H159 H 1.11037 0.79807 0.45211
 H160 H 1.05511 0.75353 0.43878
 C161 C 0.88390 0.84364 0.48368
 C162 C 0.97069 0.68633 0.60357
 C163 C 1.08717 0.83641 0.50747
 C164 C 0.96826 0.62137 0.42098
 C165 C 0.43845 -0.02120 0.28269
 H166 H 0.45651 -0.04474 0.26558
 C167 C 0.41871 -0.03010 0.31712
 H168 H 0.42115 -0.06070 0.32633
 C169 C 0.41427 0.04807 0.29289
 H170 H 0.41374 0.07911 0.28484
 C171 C 0.39415 0.04053 0.32733
 H172 H 0.37758 0.06564 0.34441
 N173 N 0.43554 0.01724 0.27094
 C174 C 0.48056 -0.00780 0.14376
 H175 H 0.50253 0.01480 0.14588
 C176 C 0.47401 -0.03456 0.10604
 H177 H 0.49109 -0.03282 0.07903
 C178 C 0.43061 -0.03698 0.17588
 H179 H 0.41307 -0.03707 0.20270
 C180 C 0.42316 -0.06419 0.13895
 H181 H 0.40028 -0.08561 0.13772
 Zn182 Zn 0.46624 0.02935 0.22723
 N183 N 0.45900 -0.00961 0.17772
 C184 C 0.53988 -0.00196 0.23317
 N185 N 0.51395 0.02721 0.24829
 C186 C 0.51900 0.05449 0.28433
 C187 C 0.55084 0.05296 0.30715
 C188 C 0.57235 -0.00480 0.25541
 C189 C 0.41999 0.09271 0.20829
 C190 C 0.40884 0.13407 0.20810
 C191 C 0.47171 0.15603 0.21925
 C192 C 0.48155 0.11437 0.22038
 N193 N 0.45546 0.08400 0.21650
 H194 H 0.53478 -0.02407 0.20500
 H195 H 0.49752 0.07664 0.29606
 H196 H 0.55376 0.07450 0.33623
 H197 H 0.59250 -0.02883 0.24412
 H198 H 0.39991 0.06786 0.20486
 H199 H 0.38019 0.14124 0.20415
 H200 H 0.49224 0.18039 0.22420
 H201 H 0.50975 0.10665 0.22587
 C202 C 0.44490 -0.06287 0.10370
 C203 C 0.39636 0.00102 0.33981
 C204 C 0.43482 0.16609 0.21406
 C205 C 0.57769 0.02246 0.29316
 C206 C 0.58216 -0.04249 0.73099
 H207 H 0.57864 -0.07551 0.73132
 C208 C 0.60596 -0.03023 0.70167
 H209 H 0.62025 -0.05406 0.67996
 C210 C 0.56790 0.02848 0.75800
 H211 H 0.55304 0.05140 0.77996
 C212 C 0.59204 0.04218 0.72945
 H213 H 0.59525 0.07544 0.72920
 N214 N 0.56258 -0.01338 0.75756
 C215 C 0.54918 -0.10778 0.81825
 H216 H 0.55717 -0.08625 0.84578
 C217 C 0.55981 -0.15001 0.81396
 H218 H 0.57630 -0.16005 0.83802
 C219 C 0.52288 -0.11946 0.75098
 H220 H 0.51031 -0.10705 0.72554
 C221 C 0.53273 -0.16188 0.74561
 H222 H 0.52735 -0.18201 0.71620
 Zn223 Zn 0.52487 -0.03364 0.79044
 N224 N 0.53146 -0.09313 0.78676
 C225 C 0.45242 -0.05095 0.75874
 N226 N 0.47817 -0.02069 0.76921
 C227 C 0.47222 0.01922 0.76224
 C228 C 0.44116 0.02900 0.74080
 C229 C 0.42090 -0.04249 0.73722
 C230 C 0.55521 0.01644 0.86355
 C231 C 0.55931 0.02695 0.90679
 C232 C 0.50643 -0.01535 0.91581
 C233 C 0.50269 -0.02412 0.87262
 N234 N 0.52765 -0.00947 0.84746
 H235 H 0.45660 -0.08200 0.76612
 H236 H 0.49214 0.04329 0.77200
 H237 H 0.43762 0.06036 0.73371
 H238 H 0.40149 -0.06740 0.72757
 H239 H 0.57533 0.02686 0.84312
 H240 H 0.58255 0.04542 0.91943
 H241 H 0.48807 -0.02967 0.93554
 H242 H 0.48141 -0.04514 0.85897
 C243 C 0.55163 -0.17756 0.77707
 C244 C 0.61036 0.01257 0.70000
 C245 C 0.53520 0.00993 0.93316
 C246 C 0.41571 -0.00230 0.72698
 C247 C 0.29021 0.04113 0.48432
 H248 H 0.27203 0.06621 0.49804
 C249 C 0.31193 0.04664 0.45041
 H250 H 0.31010 0.07562 0.43791
 C251 C 0.31572 -0.02663 0.48401
 H252 H 0.31702 -0.05503 0.49750
 C253 C 0.33781 -0.02253 0.44959
 H254 H 0.35617 -0.04785 0.43654
 N255 N 0.29177 0.00458 0.49985
 C256 C 0.22464 0.07782 0.58224
 H257 H 0.24344 0.07950 0.60801
 C258 C 0.19945 0.11066 0.58079
 H259 H 0.19876 0.13760 0.60557
 C260 C 0.20261 0.04137 0.51790
 H261 H 0.20439 0.01459 0.49306
 C262 C 0.17716 0.07290 0.51540
 H263 H 0.15934 0.06976 0.48860
 Zn264 Zn 0.25945 -0.00138 0.54423
 N265 N 0.22593 0.04433 0.55062
 C266 C 0.31067 0.02785 0.60696
 N267 N 0.28754 -0.00414 0.59257
 C268 C 0.28710 -0.03993 0.60952
 C269 C 0.31110 -0.04492 0.64163
 C270 C 0.33516 0.02413 0.63912
 C271 C 0.23217 -0.07581 0.49281
 C272 C 0.20572 -0.10685 0.48182
 C273 C 0.17614 -0.08439 0.54852
 C274 C 0.20316 -0.05414 0.55835
 N275 N 0.23016 -0.04995 0.53042
 H276 H 0.31103 0.05562 0.59240
 H277 H 0.26922 -0.06544 0.59707
 H278 H 0.31135 -0.07404 0.65399
 H279 H 0.35416 0.04932 0.64937
 H280 H 0.25310 -0.07125 0.47046
 H281 H 0.20678 -0.12648 0.45139
 H282 H 0.15433 -0.08639 0.57079
 H283 H 0.20181 -0.03265 0.58765
 C284 C 0.17551 0.10837 0.54689
 C285 C 0.33549 0.01447 0.43235
 C286 C 0.17686 -0.11058 0.50940
 C287 C 0.33583 -0.01305 0.65624
 C288 C 0.70275 0.05249 0.56837
 H289 H 0.72036 0.07958 0.57059
 C290 C 0.68161 0.04606 0.60292
 H291 H 0.68312 0.06814 0.63181
 C292 C 0.67898 -0.00950 0.52821
 H293 H 0.67810 -0.03100 0.49892
 C294 C 0.65806 -0.01741 0.56191
 H295 H 0.64098 -0.04507 0.55868
 N296 N 0.70133 0.02444 0.53214
 C297 C 0.75740 0.10287 0.46136
 H298 H 0.73607 0.09935 0.43822
 C299 C 0.78475 0.13256 0.45971
 H300 H 0.78400 0.15221 0.43582
 C301 C 0.78670 0.07924 0.51815
 H302 H 0.78798 0.05711 0.53967
 C303 C 0.81467 0.10852 0.51753
 H304 H 0.83719 0.10920 0.53913
 Zn305 Zn 0.72906 0.02851 0.48355
 N306 N 0.75924 0.07640 0.48975
 C307 C 0.67014 0.06198 0.44790
 N308 N 0.69528 0.03039 0.44029
 C309 C 0.69476 0.00178 0.40442
 C310 C 0.66817 0.00478 0.37420
 C311 C 0.64327 0.06610 0.41868
 C312 C 0.76441 -0.04492 0.49919
 C313 C 0.79134 -0.07609 0.49376
 C314 C 0.81072 -0.05254 0.43043
 C315 C 0.78341 -0.02152 0.43717
 N316 N 0.76105 -0.01821 0.47124
 H317 H 0.67101 0.08393 0.47690
 H318 H 0.71456 -0.02359 0.39941
 H319 H 0.66766 -0.01825 0.34592
 H320 H 0.62318 0.09120 0.42511
 H321 H 0.74737 -0.04103 0.52680
 H322 H 0.79409 -0.09634 0.51694
 H323 H 0.82903 -0.05438 0.40386
 H324 H 0.78080 0.00084 0.41602
 C325 C 0.81422 0.13473 0.48715
 C326 C 0.65930 0.01034 0.59967
 C327 C 0.81530 -0.07960 0.45939
 C328 C 0.64209 0.03736 0.38156
 C329 C 0.49993 0.26095 1.11765
 H330 H 0.51399 0.28824 1.11047
 C331 C 0.48139 0.26350 1.15566
 H332 H 0.48200 0.29243 1.17795
 C333 C 0.47802 0.19185 1.09579
 H334 H 0.47514 0.16496 1.07133
 C335 C 0.45833 0.19356 1.13290
 H336 H 0.44013 0.16798 1.13594
 N337 N 0.49755 0.22564 1.08843
 C338 C 0.46828 0.24277 0.96289
 H339 H 0.49216 0.23316 0.94371
 C340 C 0.43832 0.26145 0.94601
 H341 H 0.43929 0.26659 0.91398
 C342 C 0.43854 0.25080 1.02864
 H343 H 0.43855 0.24827 1.06120
 C344 C 0.40802 0.26847 1.01296
 H345 H 0.38539 0.27882 1.03391
 Zn346 Zn 0.51169 0.22607 1.03242
 N347 N 0.46861 0.23985 1.00421
 C348 C 0.50798 0.14384 0.98544
 N349 N 0.52934 0.17141 1.01087
 C350 C 0.56014 0.15835 1.02834
 C351 C 0.56931 0.11580 1.02258
 C352 C 0.51612 0.10079 0.97904
 C353 C 0.57512 0.27211 1.06059
 C354 C 0.59952 0.30572 1.06422
 C355 C 0.56980 0.32909 1.00604
 C356 C 0.54548 0.29563 1.00408
 N357 N 0.54830 0.26795 1.03125
 H358 H 0.48291 0.15468 0.97309
 H359 H 0.57613 0.18049 1.04933
 H360 H 0.59244 0.10548 1.03906
 H361 H 0.49691 0.07905 0.96209
 H362 H 0.57651 0.25051 1.08258
 H363 H 0.62007 0.30946 1.08841
 H364 H 0.56675 0.35108 0.98455
 H365 H 0.52395 0.29262 0.98135
 C366 C 0.40834 0.27582 0.97170
 C367 C 0.45991 0.22987 1.16342
 C368 C 0.59683 0.33467 1.03688
 C369 C 0.54678 0.08641 0.99866
 C370 C 0.51758 0.76087 -0.11289
 H371 H 0.48935 0.76648 -0.10321
 C372 C 0.52830 0.76617 -0.15305
 H373 H 0.50804 0.77428 -0.17459
 C374 C 0.57826 0.74283 -0.09715
 H375 H 0.59804 0.73469 -0.07543
 C376 C 0.58995 0.74706 -0.13719
 H377 H 0.61829 0.74069 -0.14630
 N378 N 0.54223 0.74800 -0.08623
 C379 C 0.49671 0.66347 -0.01107
 H380 H 0.51750 0.66924 0.01266
 C381 C 0.47162 0.63115 -0.01003
 H382 H 0.47344 0.61195 0.01417
 C383 C 0.46738 0.68254 -0.07000
 H384 H 0.46512 0.70321 -0.09270
 C385 C 0.44153 0.65073 -0.06986
 H386 H 0.41991 0.64701 -0.09279
 Zn387 Zn 0.52360 0.73811 -0.03358
 N388 N 0.49373 0.68909 -0.04016
 C389 C 0.45708 0.78138 -0.00859
 N390 N 0.49403 0.78555 -0.01193
 C391 C 0.51042 0.82348 -0.00038
 C392 C 0.48963 0.85866 0.01703
 C393 C 0.43518 0.81609 0.00692
 C394 C 0.59090 0.70563 -0.00385
 C395 C 0.61921 0.70452 0.02501
 C396 C 0.58403 0.75257 0.07497
 C397 C 0.55731 0.75409 0.04489
 N398 N 0.56156 0.73194 0.00575
 H399 H 0.44439 0.75122 -0.01793
 H400 H 0.53979 0.82611 -0.00381
 H401 H 0.50289 0.88854 0.02697
 H402 H 0.40579 0.81256 0.00934
 H403 H 0.59291 0.68620 -0.03424
 H404 H 0.64361 0.68653 0.01502
 H405 H 0.58064 0.77149 0.10556
 H406 H 0.53310 0.77312 0.05305
 C407 C 0.44314 0.62529 -0.03888
 C408 C 0.56485 0.75860 -0.16558
 C409 C 0.61568 0.72825 0.06526
 C410 C 0.45155 0.85485 0.02065
 C411 C 1.08279 0.48628 0.17090
 H412 H 1.06479 0.46514 0.15126
 C413 C 1.11586 0.49864 0.15469
 H414 H 1.12294 0.48711 0.12255
 C415 C 1.09483 0.52807 0.23643
 H416 H 1.08659 0.53956 0.26827
 C417 C 1.12812 0.54093 0.22157
 H418 H 1.14542 0.56227 0.24202
 N419 N 1.07302 0.50092 0.21122
 C420 C 1.00891 0.41335 0.26899
 H421 H 0.98956 0.43526 0.28615
 C422 C 1.01207 0.37300 0.27866
 H423 H 0.99482 0.36418 0.30279
 C424 C 1.05547 0.39861 0.21748
 H425 H 1.07291 0.40887 0.19427
 C426 C 1.05875 0.35746 0.22541
 H427 H 1.07852 0.33613 0.20806
 Zn428 Zn 1.02837 0.48352 0.23347
 N429 N 1.03096 0.42578 0.23944
 C430 C 0.95511 0.47533 0.20760
 N431 N 0.98792 0.49214 0.19929
 C432 C 0.99110 0.51663 0.16924
 C433 C 0.96047 0.52499 0.14624
 C434 C 0.92388 0.48278 0.18527
 C435 C 1.03576 0.50149 0.32043
 C436 C 1.02202 0.51462 0.36064
 C437 C 0.97886 0.55951 0.33283
 C438 C 0.99265 0.54460 0.29291
 N439 N 1.01954 0.51478 0.28736
 H440 H 0.95301 0.45658 0.23203
 H441 H 1.01716 0.53054 0.16374
 H442 H 0.96311 0.54483 0.12267
 H443 H 0.89800 0.46936 0.19251
 H444 H 1.05698 0.47762 0.31514
 H445 H 1.03250 0.50068 0.38628
 H446 H 0.95533 0.58042 0.33652
 H447 H 0.98003 0.55454 0.26617
 C448 C 1.03753 0.34469 0.25697
 C449 C 1.13908 0.52601 0.18048
 C450 C 0.99259 0.54291 0.36683
 C451 C 0.92645 0.50811 0.15429
 C452 C -0.07122 0.46597 0.79363
 H453 H -0.05492 0.43816 0.78273
 C454 C -0.10092 0.46397 0.82051
 H455 H -0.10754 0.43459 0.83062
 C456 C -0.08186 0.53874 0.79515
 H457 H -0.07370 0.56813 0.78632
 C458 C -0.11190 0.53804 0.82168
 H459 H -0.12680 0.56688 0.83271
 N460 N -0.06236 0.50298 0.78149
 C461 C 0.00332 0.46256 0.66936
 H462 H 0.03040 0.47160 0.68067
 C463 C -0.00249 0.45318 0.62640
 H464 H 0.02034 0.45389 0.60512
 C465 C -0.06047 0.45895 0.68250
 H466 H -0.08323 0.46451 0.70418
 C467 C -0.06751 0.45099 0.63980
 H468 H -0.09555 0.44957 0.62896
 Zn469 Zn -0.02082 0.50446 0.74689
 N470 N -0.02566 0.46668 0.69632
 C471 C 0.04495 0.46269 0.76767
 N472 N 0.02108 0.49543 0.77780
 C473 C 0.02601 0.52508 0.81217
 C474 C 0.05669 0.52366 0.83705
 C475 C 0.07613 0.45995 0.79200
 C476 C -0.04737 0.56780 0.70827
 C477 C -0.04573 0.60169 0.68711
 C478 C 0.01653 0.61406 0.71080
 C479 C 0.01366 0.57980 0.73182
 N480 N -0.01782 0.55712 0.72955
 H481 H 0.03996 0.43885 0.74082
 H482 H 0.00630 0.55042 0.81970
 H483 H 0.06074 0.54788 0.86394
 H484 H 0.09528 0.43417 0.78354
 H485 H -0.07174 0.54870 0.70620
 H486 H -0.06917 0.60863 0.66913
 H487 H 0.04217 0.63079 0.71091
 H488 H 0.03726 0.56992 0.74768
 C489 C -0.03844 0.44966 0.61146
 C490 C -0.12150 0.50026 0.83474
 C491 C -0.01304 0.62442 0.68721
 C492 C 0.08219 0.49116 0.82688
 N493 N 0.12705 0.13762 0.51440
 N494 N 0.15013 0.14196 0.54398
 N495 N 0.67329 0.71224 0.09916
 N496 N 0.64455 0.73417 0.09559
 N497 N 0.85358 -0.12803 0.48476
 N498 N 0.84563 -0.10841 0.45518
 N499 N 0.35478 0.31656 0.98239
 N500 N 0.38103 0.30249 0.95795
 N501 N 0.87294 0.16339 0.50390
 N502 N 0.84470 0.16076 0.48090
 N503 N 0.38673 0.59089 -0.05706
 N504 N 0.41517 0.59536 -0.03430
 N505 N 0.11808 -0.13704 0.51801
 N506 N 0.14746 -0.13900 0.49652
 N507 N 0.62507 0.39198 1.01303
 N508 N 0.62085 0.37007 1.04176
 N509 N 0.42289 0.20897 1.21880
 N510 N 0.43532 0.23668 1.19865
 N511 N -0.03324 0.65985 0.63425
 N512 N -0.00821 0.65438 0.65986
 N513 N 0.56821 0.78147 -0.23305
 N514 N 0.57577 0.75570 -0.20840
 N515 N 1.03508 0.29429 0.30101
 N516 N 1.04261 0.30326 0.26654
 N517 N 0.43753 0.91353 0.07015
 N518 N 0.42900 0.88982 0.03799
 N519 N -0.03264 0.43483 0.53648
 N520 N -0.04594 0.45616 0.56985
 N521 N 0.54383 0.01073 0.97615
 N522 N 0.55100 0.04314 1.00308
 N523 N 0.95840 0.57953 0.42560
 N524 N 0.97126 0.54579 0.40427
 N525 N 1.18722 0.52684 0.13174
 N526 N 1.17371 0.53947 0.16646
 N527 N 0.63173 0.02591 0.66746
 N528 N 0.63821 0.00039 0.63390
 N529 N -0.17151 0.52986 0.87644
 N530 N -0.15026 0.49871 0.86451
 N531 N 0.37660 -0.00752 0.37563
 N532 N 0.35623 0.02058 0.39651
 N533 N 0.13800 0.46225 0.84750
 N534 N 0.11390 0.49130 0.85243
 N535 N 0.60894 0.01730 0.31839
 N536 N 0.61297 0.04125 0.35330
 N537 N 0.86356 0.50224 0.13616
 N538 N 0.89504 0.51762 0.13119
 N539 N 0.38670 0.00665 0.70016
 N540 N 0.36312 -0.02075 0.68564
   
