data_POSCAR
  _audit_creation_date              2014-09-24
  _audit_creation_method            'ToBaCCo'
  _symmetry_space_group_name_H-M    'P1'
  _symmetry_Int_Tables_number       1
  _symmetry_cell_setting            triclinic
  loop_
  _symmetry_equiv_pos_as_xyz
 x,y,z
_cell_length_a 47.2701
_cell_length_b 47.5008
_cell_length_c 47.5520
_cell_angle_alpha 90.026000
_cell_angle_beta 90.024200
_cell_angle_gamma 90.009600
loop_
  _atom_site_label
  _atom_site_type_symbol
  _atom_site_fract_x
  _atom_site_fract_y
  _atom_site_fract_z
N1 N 0.29485 0.24087 0.21746
 N2 N 0.28056 0.25937 0.20259
 C3 C 0.29559 0.26624 0.17955
 C4 C 0.32052 0.25123 0.18017
 C5 C 0.31947 0.23525 0.20434
 H6 H 0.28864 0.28051 0.16324
 H7 H 0.33505 0.22015 0.21141
 Cu8 Cu 0.24305 0.27173 0.21368
 Cu9 Cu 0.27966 0.22442 0.25179
 Cu10 Cu 0.21676 0.25227 0.27659
 N11 N 0.21075 0.29068 0.23029
 N12 N 0.20042 0.28299 0.25480
 C13 C 0.17781 0.29914 0.26086
 C14 C 0.17400 0.31785 0.23902
 C15 C 0.19515 0.31202 0.21995
 H16 H 0.16494 0.29724 0.27956
 H17 H 0.19873 0.32234 0.19999
 N18 N 0.23672 0.22107 0.29547
 N19 N 0.26082 0.21060 0.28606
 C20 C 0.26861 0.18892 0.30259
 C21 C 0.24851 0.18575 0.32330
 C22 C 0.22853 0.20628 0.31826
 H23 H 0.28701 0.17581 0.29933
 H24 H 0.20911 0.20959 0.32981
 H25 H 0.23686 0.23091 0.24432
 H26 H 0.25682 0.26031 0.26147
 N27 N 0.70524 -0.23102 0.21653
 N28 N 0.71551 -0.25336 0.20377
 C29 C 0.70085 -0.25781 0.17987
 C30 C 0.68053 -0.23711 0.17773
 C31 C 0.68378 -0.22039 0.20119
 H32 H 0.70495 -0.27446 0.16490
 H33 H 0.67181 -0.20171 0.20645
 Cu34 Cu 0.74825 -0.27351 0.21837
 Cu35 Cu 0.72088 -0.21711 0.25167
 Cu36 Cu 0.78090 -0.25027 0.27712
 N37 N 0.78277 -0.29090 0.23240
 N38 N 0.79578 -0.28139 0.25496
 C39 C 0.81959 -0.29639 0.25915
 C40 C 0.82139 -0.31629 0.23812
 C41 C 0.79785 -0.31237 0.22148
 H42 H 0.83458 -0.29291 0.27600
 H43 H 0.79238 -0.32399 0.20269
 N44 N 0.76259 -0.21845 0.29664
 N45 N 0.73960 -0.20596 0.28695
 C46 C 0.73278 -0.18448 0.30415
 C47 C 0.75232 -0.18356 0.32560
 C48 C 0.77101 -0.20519 0.32030
 H49 H 0.71545 -0.16998 0.30092
 H50 H 0.78973 -0.21030 0.33233
 H51 H 0.76202 -0.23036 0.24313
 H52 H 0.73946 -0.25403 0.26501
 N53 N 0.70509 0.24152 0.78203
 N54 N 0.71940 0.26016 0.79675
 C55 C 0.70455 0.26699 0.81992
 C56 C 0.67971 0.25182 0.81956
 C57 C 0.68062 0.23578 0.79540
 H58 H 0.71157 0.28131 0.83617
 H59 H 0.66509 0.22055 0.78851
 Cu60 Cu 0.75677 0.27263 0.78533
 Cu61 Cu 0.72022 0.22485 0.74773
 Cu62 Cu 0.78308 0.25264 0.72264
 N63 N 0.78911 0.29146 0.76864
 N64 N 0.79944 0.28359 0.74418
 C65 C 0.82209 0.29967 0.73801
 C66 C 0.82588 0.31853 0.75976
 C67 C 0.80475 0.31285 0.77889
 H68 H 0.83498 0.29759 0.71934
 H69 H 0.80121 0.32324 0.79883
 N70 N 0.76311 0.22127 0.70398
 N71 N 0.73904 0.21082 0.71349
 C72 C 0.73129 0.18898 0.69711
 C73 C 0.75139 0.18570 0.67641
 C74 C 0.77131 0.20632 0.68128
 H75 H 0.71293 0.17584 0.70048
 H76 H 0.79069 0.20960 0.66967
 H77 H 0.76283 0.23158 0.75501
 H78 H 0.74283 0.26074 0.73760
 N79 N 0.29413 -0.23176 0.78289
 N80 N 0.28271 -0.25290 0.79670
 C81 C 0.29773 -0.25756 0.82034
 C82 C 0.31956 -0.23835 0.82119
 C83 C 0.31676 -0.22225 0.79726
 H84 H 0.29299 -0.27341 0.83596
 H85 H 0.32994 -0.20472 0.79100
 Cu86 Cu 0.24888 -0.27163 0.78280
 Cu87 Cu 0.27809 -0.21745 0.74799
 Cu88 Cu 0.21791 -0.25071 0.72261
 N89 N 0.21550 -0.29060 0.76812
 N90 N 0.20348 -0.28230 0.74456
 C91 C 0.18063 -0.29848 0.73947
 C92 C 0.17843 -0.31784 0.76096
 C93 C 0.20071 -0.31236 0.77883
 H94 H 0.16656 -0.29616 0.72168
 H95 H 0.20553 -0.32320 0.79826
 N96 N 0.23582 -0.21841 0.70345
 N97 N 0.25886 -0.20594 0.71309
 C98 C 0.26542 -0.18421 0.69613
 C99 C 0.24566 -0.18307 0.67491
 C100 C 0.22712 -0.20487 0.68006
 H101 H 0.28278 -0.16974 0.69935
 H102 H 0.20837 -0.20997 0.66806
 H103 H 0.23674 -0.22971 0.75569
 H104 H 0.25929 -0.25482 0.73549
 N105 N 0.70673 -0.23814 0.78301
 N106 N 0.71651 -0.26197 0.79325
 C107 C 0.70067 -0.26956 0.81554
 C108 C 0.67999 -0.24947 0.81925
 C109 C 0.68435 -0.22978 0.79842
 H110 H 0.70415 -0.28798 0.82845
 H111 H 0.67246 -0.21062 0.79504
 Cu112 Cu 0.74963 -0.27998 0.77697
 Cu113 Cu 0.72426 -0.21931 0.75100
 Cu114 Cu 0.78319 -0.25162 0.72175
 N115 N 0.78274 -0.29799 0.76063
 N116 N 0.79569 -0.28668 0.73890
 C117 C 0.81841 -0.30238 0.73223
 C118 C 0.81961 -0.32463 0.75073
 C119 C 0.79687 -0.32134 0.76859
 H120 H 0.83336 -0.29754 0.71570
 H121 H 0.79153 -0.33447 0.78639
 N122 N 0.76737 -0.21609 0.70736
 N123 N 0.74498 -0.20372 0.71851
 C124 C 0.73972 -0.17972 0.70433
 C125 C 0.75972 -0.17707 0.68344
 C126 C 0.77693 -0.20030 0.68583
 H127 H 0.72279 -0.16512 0.70894
 H128 H 0.79518 -0.20512 0.67301
 H129 H 0.74111 -0.25499 0.73305
 H130 H 0.76453 -0.23489 0.75745
 N131 N 0.29240 0.22864 0.78410
 N132 N 0.28349 0.25229 0.79548
 C133 C 0.29934 0.25800 0.81835
 C134 C 0.31906 0.23682 0.82122
 C135 C 0.31418 0.21851 0.79929
 H136 H 0.29658 0.27594 0.83208
 H137 H 0.32538 0.19914 0.79494
 Cu138 Cu 0.25158 0.27279 0.77963
 Cu139 Cu 0.27477 0.21237 0.75083
 Cu140 Cu 0.21895 0.24938 0.72139
 N141 N 0.22024 0.29342 0.76286
 N142 N 0.20787 0.28420 0.73984
 C143 C 0.18635 0.30146 0.73314
 C144 C 0.18525 0.32253 0.75298
 C145 C 0.20687 0.31692 0.77165
 H146 H 0.17195 0.29839 0.71573
 H147 H 0.21184 0.32855 0.79057
 N148 N 0.23312 0.21372 0.70577
 N149 N 0.25422 0.19946 0.71714
 C150 C 0.25823 0.17560 0.70234
 C151 C 0.23877 0.17501 0.68079
 C152 C 0.22317 0.19932 0.68344
 H153 H 0.27381 0.15962 0.70708
 H154 H 0.20561 0.20573 0.67034
 H155 H 0.26072 0.25013 0.73452
 H156 H 0.23526 0.22987 0.75669
 N157 N 0.29456 -0.23787 0.21746
 N158 N 0.28461 -0.26156 0.20707
 C159 C 0.30032 -0.26909 0.18465
 C160 C 0.32112 -0.24907 0.18105
 C161 C 0.31693 -0.22951 0.20205
 H162 H 0.29663 -0.28734 0.17157
 H163 H 0.32892 -0.21043 0.20553
 Cu164 Cu 0.25131 -0.27932 0.22323
 Cu165 Cu 0.27729 -0.21914 0.24968
 Cu166 Cu 0.21805 -0.25107 0.27872
 N167 N 0.21799 -0.29708 0.23940
 N168 N 0.20514 -0.28577 0.26118
 C169 C 0.18223 -0.30125 0.26768
 C170 C 0.18078 -0.32335 0.24901
 C171 C 0.20360 -0.32020 0.23125
 H172 H 0.16734 -0.29642 0.28426
 H173 H 0.20883 -0.33331 0.21340
 N174 N 0.23433 -0.21592 0.29346
 N175 N 0.25680 -0.20364 0.28237
 C176 C 0.26221 -0.17972 0.29666
 C177 C 0.24221 -0.17705 0.31756
 C178 C 0.22487 -0.20016 0.31505
 H179 H 0.27913 -0.16512 0.29204
 H180 H 0.20651 -0.20486 0.32777
 H181 H 0.26002 -0.25474 0.26734
 H182 H 0.23680 -0.23425 0.24312
 N183 N 0.70780 0.22797 0.21617
 N184 N 0.71663 0.25169 0.20490
 C185 C 0.70086 0.25736 0.18199
 C186 C 0.68128 0.23608 0.17894
 C187 C 0.68616 0.21774 0.20083
 H188 H 0.70356 0.27537 0.16834
 H189 H 0.67504 0.19830 0.20507
 Cu190 Cu 0.74830 0.27240 0.22093
 Cu191 Cu 0.72538 0.21179 0.24949
 Cu192 Cu 0.78093 0.24908 0.27920
 N193 N 0.77938 0.29324 0.23790
 N194 N 0.79182 0.28405 0.26089
 C195 C 0.81321 0.30147 0.26763
 C196 C 0.81413 0.32261 0.24786
 C197 C 0.79255 0.31687 0.22920
 H198 H 0.82768 0.29844 0.28500
 H199 H 0.78749 0.32848 0.21030
 N200 N 0.76692 0.21328 0.29464
 N201 N 0.74588 0.19896 0.28322
 C202 C 0.74194 0.17506 0.29795
 C203 C 0.76137 0.17452 0.31953
 C204 C 0.77689 0.19888 0.31695
 H205 H 0.72642 0.15903 0.29316
 H206 H 0.79440 0.20534 0.33009
 H207 H 0.73928 0.24957 0.26592
 H208 H 0.76489 0.22950 0.24375
 C209 C 0.23430 0.00392 0.42263
 C210 C 0.23722 0.02841 0.43856
 C211 C 0.23661 0.02699 0.46800
 C212 C 0.23159 0.00112 0.48198
 C213 C 0.22788 -0.02324 0.46522
 C214 C 0.23002 -0.02189 0.43589
 C215 C 0.23056 -0.00055 0.51362
 C216 C 0.23465 -0.02644 0.52786
 C217 C 0.23346 -0.02788 0.55726
 C218 C 0.22958 -0.00343 0.57301
 C219 C 0.22618 0.02241 0.55956
 C220 C 0.22585 0.02380 0.53015
 H221 H 0.23552 0.00494 0.39987
 H222 H 0.24038 0.04621 0.47956
 H223 H 0.22331 -0.04348 0.47452
 H224 H 0.23918 -0.04564 0.51655
 H225 H 0.22952 -0.00448 0.59581
 H226 H 0.22196 0.04406 0.52060
 C227 C 0.76635 0.00330 0.57754
 C228 C 0.76329 0.02781 0.56168
 C229 C 0.76371 0.02645 0.53225
 C230 C 0.76874 0.00062 0.51818
 C231 C 0.77254 -0.02378 0.53484
 C232 C 0.77055 -0.02250 0.56419
 C233 C 0.76973 -0.00094 0.48655
 C234 C 0.76540 -0.02676 0.47225
 C235 C 0.76662 -0.02818 0.44285
 C236 C 0.77081 -0.00374 0.42715
 C237 C 0.77436 0.02207 0.44069
 C238 C 0.77463 0.02341 0.47011
 H239 H 0.76529 0.00429 0.60031
 H240 H 0.75979 0.04566 0.52074
 H241 H 0.77708 -0.04398 0.52543
 H242 H 0.76064 -0.04592 0.48351
 H243 H 0.77092 -0.00474 0.40436
 H244 H 0.77859 0.04363 0.47975
 C245 C 0.42462 0.23489 0.00072
 C246 C 0.43963 0.23909 0.02563
 C247 C 0.46924 0.23950 0.02532
 C248 C 0.48437 0.23426 0.00019
 C249 C 0.46866 0.22930 -0.02467
 C250 C 0.43906 0.23037 -0.02447
 C251 C 0.51617 0.23424 -0.00013
 C252 C 0.53130 0.23955 -0.02525
 C253 C 0.56091 0.23907 -0.02558
 C254 C 0.57591 0.23464 -0.00071
 C255 C 0.56148 0.23009 0.02447
 C256 C 0.53187 0.22918 0.02470
 H257 H 0.40167 0.23531 0.00089
 H258 H 0.48012 0.24422 0.04475
 H259 H 0.47910 0.22455 -0.04434
 H260 H 0.52042 0.24440 -0.04465
 H261 H 0.59886 0.23492 -0.00090
 H262 H 0.52144 0.22448 0.04438
 C263 C 0.57625 0.76669 -0.00096
 C264 C 0.56199 0.77129 0.02429
 C265 C 0.53236 0.77242 0.02468
 C266 C 0.51647 0.76755 -0.00012
 C267 C 0.53150 0.76235 -0.02535
 C268 C 0.56112 0.76258 -0.02579
 C269 C 0.48462 0.76757 0.00034
 C270 C 0.46879 0.77207 -0.02455
 C271 C 0.43918 0.77095 -0.02425
 C272 C 0.42483 0.76683 0.00103
 C273 C 0.43989 0.76303 0.02596
 C274 C 0.46953 0.76271 0.02559
 H275 H 0.59920 0.76616 -0.00126
 H276 H 0.52210 0.77714 0.04442
 H277 H 0.52058 0.75777 -0.04479
 H278 H 0.47908 0.77648 -0.04435
 H279 H 0.40188 0.76638 0.00127
 H280 H 0.48043 0.75832 0.04508
 C281 C -0.00533 0.42545 0.23125
 C282 C 0.02039 0.43941 0.22794
 C283 C 0.02109 0.46887 0.22673
 C284 C -0.00388 0.48497 0.23048
 C285 C -0.02960 0.47022 0.23449
 C286 C -0.03032 0.44075 0.23418
 C287 C -0.00303 0.51671 0.23075
 C288 C -0.02783 0.53295 0.22643
 C289 C -0.02699 0.56243 0.22772
 C290 C -0.00133 0.57622 0.23204
 C291 C 0.02345 0.56078 0.23567
 C292 C 0.02260 0.53133 0.23570
 H293 H -0.00587 0.40262 0.23179
 H294 H 0.04128 0.47877 0.22288
 H295 H -0.04924 0.48119 0.23828
 H296 H -0.04796 0.52314 0.22200
 H297 H -0.00066 0.59905 0.23271
 H298 H 0.04210 0.52027 0.23993
 C299 C 0.00044 0.57565 0.76808
 C300 C 0.02606 0.56178 0.77245
 C301 C 0.02675 0.53232 0.77393
 C302 C 0.00197 0.51615 0.76929
 C303 C -0.02359 0.53081 0.76411
 C304 C -0.02439 0.56027 0.76430
 C305 C 0.00284 0.48441 0.76928
 C306 C -0.02213 0.46823 0.77265
 C307 C -0.02136 0.43877 0.77120
 C308 C 0.00443 0.42490 0.76797
 C309 C 0.02940 0.44029 0.76540
 C310 C 0.02863 0.46976 0.76537
 H311 H -0.00013 0.59848 0.76740
 H312 H 0.04678 0.52247 0.77867
 H313 H -0.04303 0.51977 0.75955
 H314 H -0.04237 0.47808 0.77638
 H315 H 0.00503 0.40208 0.76722
 H316 H 0.04828 0.48080 0.76185
 C317 C 0.34167 0.25034 0.15852
 C318 C 0.35876 0.24946 0.13975
 C319 C 0.37790 0.24819 0.11702
 C320 C 0.39342 0.24683 0.09698
 C321 C 0.41057 0.24479 0.07278
 C322 C 0.42432 0.24255 0.05156
 C323 C 0.66190 0.76659 0.15625
 C324 C 0.64556 0.76947 0.13699
 C325 C 0.62666 0.77209 0.11414
 C326 C 0.61082 0.77351 0.09431
 C327 C 0.59281 0.77407 0.07063
 C328 C 0.57819 0.77346 0.04986
 C329 C 0.65879 0.25083 -0.15856
 C330 C 0.64187 0.24990 -0.13963
 C331 C 0.62284 0.24860 -0.11680
 C332 C 0.60732 0.24719 -0.09675
 C333 C 0.59009 0.24507 -0.07262
 C334 C 0.57626 0.24270 -0.05146
 C335 C 0.33997 0.76510 -0.15668
 C336 C 0.35666 0.76774 -0.13769
 C337 C 0.37566 0.77032 -0.11492
 C338 C 0.39134 0.77188 -0.09499
 C339 C 0.40894 0.77280 -0.07101
 C340 C 0.42321 0.77259 -0.04999
 C341 C 0.15177 0.33828 0.23612
 C342 C 0.13287 0.35514 0.23373
 C343 C 0.11032 0.37447 0.23116
 C344 C 0.09064 0.39050 0.22933
 C345 C 0.06696 0.40855 0.22781
 C346 C 0.04611 0.42316 0.22730
 C347 C 0.15760 0.66271 0.76451
 C348 C 0.13879 0.64580 0.76746
 C349 C 0.11624 0.62649 0.77043
 C350 C 0.09648 0.61054 0.77235
 C351 C 0.07267 0.59261 0.77367
 C352 C 0.05175 0.57806 0.77379
 C353 C -0.15751 0.66462 0.23424
 C354 C -0.13860 0.64785 0.23114
 C355 C -0.11614 0.62845 0.22820
 C356 C -0.09659 0.61224 0.22649
 C357 C -0.07313 0.59385 0.22560
 C358 C -0.05249 0.57894 0.22592
 C359 C -0.15301 0.33781 0.76246
 C360 C -0.13405 0.35465 0.76485
 C361 C -0.11144 0.37393 0.76747
 C362 C -0.09169 0.38989 0.76936
 C363 C -0.06793 0.40787 0.77099
 C364 C -0.04706 0.42246 0.77163
 C365 C 0.24726 0.16361 0.34387
 C366 C 0.24631 0.14447 0.36050
 C367 C 0.24518 0.12138 0.37918
 C368 C 0.24405 0.10107 0.39434
 C369 C 0.24234 0.07654 0.41105
 C370 C 0.24038 0.05496 0.42426
 C371 C 0.75275 0.16337 0.65601
 C372 C 0.75384 0.14411 0.63951
 C373 C 0.75515 0.12091 0.62096
 C374 C 0.75641 0.10053 0.60589
 C375 C 0.75819 0.07594 0.58925
 C376 C 0.76017 0.05434 0.57606
 C377 C 0.24352 -0.16168 0.65366
 C378 C 0.24208 -0.14300 0.63656
 C379 C 0.24064 -0.12031 0.61745
 C380 C 0.23944 -0.10023 0.60201
 C381 C 0.23785 -0.07589 0.58507
 C382 C 0.23614 -0.05439 0.57171
 C383 C 0.75438 -0.16229 0.34701
 C384 C 0.75591 -0.14368 0.36419
 C385 C 0.75762 -0.12096 0.38327
 C386 C 0.75918 -0.10077 0.39858
 C387 C 0.76129 -0.07626 0.41526
 C388 C 0.76346 -0.05467 0.42842
 C389 C 0.65941 0.75159 -0.15855
 C390 C 0.64258 0.75246 -0.13954
 C391 C 0.62348 0.75361 -0.11676
 C392 C 0.60782 0.75487 -0.09681
 C393 C 0.59038 0.75683 -0.07281
 C394 C 0.57643 0.75906 -0.05172
 C395 C 0.33954 0.23382 -0.15666
 C396 C 0.35636 0.23154 -0.13774
 C397 C 0.37552 0.22937 -0.11508
 C398 C 0.39130 0.22816 -0.09520
 C399 C 0.40894 0.22769 -0.07125
 C400 C 0.42318 0.22828 -0.05023
 C401 C 0.34163 0.75211 0.15881
 C402 C 0.35843 0.75315 0.13978
 C403 C 0.37751 0.75448 0.11699
 C404 C 0.39316 0.75581 0.09703
 C405 C 0.41058 0.75771 0.07301
 C406 C 0.42453 0.75980 0.05190
 C407 C 0.66092 0.23306 0.15672
 C408 C 0.64418 0.23080 0.13773
 C409 C 0.62509 0.22868 0.11500
 C410 C 0.60933 0.22752 0.09511
 C411 C 0.59166 0.22714 0.07118
 C412 C 0.57739 0.22784 0.05019
 C413 C -0.15943 0.65587 0.75248
 C414 C -0.14028 0.63919 0.75384
 C415 C -0.11715 0.62048 0.75536
 C416 C -0.09680 0.60528 0.75678
 C417 C -0.07226 0.58849 0.75877
 C418 C -0.05074 0.57508 0.76094
 C419 C -0.16444 0.34388 0.24547
 C420 C -0.14566 0.36095 0.24375
 C421 C -0.12280 0.37996 0.24197
 C422 C -0.10258 0.39533 0.24049
 C423 C -0.07815 0.41229 0.23867
 C424 C -0.05667 0.42582 0.23685
 C425 C 0.16376 0.34374 0.75525
 C426 C 0.14494 0.36076 0.75678
 C427 C 0.12205 0.37975 0.75831
 C428 C 0.10182 0.39510 0.75958
 C429 C 0.07736 0.41201 0.76120
 C430 C 0.05583 0.42548 0.76287
 C431 C 0.15858 0.65614 0.24717
 C432 C 0.13937 0.63955 0.24582
 C433 C 0.11621 0.62090 0.24432
 C434 C 0.09586 0.60573 0.24292
 C435 C 0.07135 0.58894 0.24099
 C436 C 0.04982 0.57553 0.23891
 C437 C 0.76267 -0.15427 0.66383
 C438 C 0.76514 -0.13498 0.64757
 C439 C 0.76782 -0.11211 0.62884
 C440 C 0.76967 -0.09223 0.61321
 C441 C 0.77110 -0.06850 0.59544
 C442 C 0.77144 -0.04779 0.58083
 C443 C 0.23911 -0.15416 0.33701
 C444 C 0.23641 -0.13477 0.35312
 C445 C 0.23344 -0.11177 0.37165
 C446 C 0.23135 -0.09179 0.38711
 C447 C 0.22972 -0.06794 0.40470
 C448 C 0.22924 -0.04717 0.41923
 C449 C 0.76542 0.15244 0.33972
 C450 C 0.76862 0.13364 0.35641
 C451 C 0.77191 0.11121 0.37556
 C452 C 0.77406 0.09159 0.39146
 C453 C 0.77557 0.06803 0.40944
 C454 C 0.77574 0.04736 0.42411
 C455 C 0.23476 0.15290 0.66059
 C456 C 0.23162 0.13404 0.64393
 C457 C 0.22844 0.11153 0.62484
 C458 C 0.22639 0.09187 0.60896
 C459 C 0.22498 0.06830 0.59097
 C460 C 0.22484 0.04766 0.57624
   
