data_POSCAR
  _audit_creation_date              2014-09-24
  _audit_creation_method            'ToBaCCo'
  _symmetry_space_group_name_H-M    'P1'
  _symmetry_Int_Tables_number       1
  _symmetry_cell_setting            triclinic
  loop_
  _symmetry_equiv_pos_as_xyz
 x,y,z
_cell_length_a 59.9564
_cell_length_b 60.2946
_cell_length_c 35.7799
_cell_angle_alpha 90.583100
_cell_angle_beta 89.740300
_cell_angle_gamma 90.894300
loop_
  _atom_site_label
  _atom_site_type_symbol
  _atom_site_fract_x
  _atom_site_fract_y
  _atom_site_fract_z
C1 C 0.00289 0.28471 -0.00563
 C2 C 0.00259 0.28547 0.03244
 C3 C -0.01857 0.28660 0.05409
 C4 C 0.02357 0.28428 0.05404
 C5 C 0.02425 0.28450 -0.02675
 C6 C -0.01796 0.28336 -0.02780
 C7 C -0.03413 0.30318 0.04733
 C8 C -0.05466 0.30309 0.06599
 C9 C -0.06010 0.28657 0.09230
 C10 C -0.04391 0.27040 0.09988
 C11 C -0.02344 0.27054 0.08104
 C12 C 0.03104 0.30284 0.07437
 C13 C 0.05138 0.30286 0.09304
 C14 C 0.06609 0.28294 0.09306
 C15 C 0.05630 0.26352 0.07159
 C16 C 0.03598 0.26484 0.05313
 C17 C 0.02951 0.26615 -0.04925
 C18 C 0.05012 0.26515 -0.06756
 C19 C 0.06576 0.28276 -0.06420
 C20 C 0.06022 0.30125 -0.04199
 C21 C 0.03964 0.30216 -0.02356
 C22 C -0.03346 0.26598 -0.02248
 C23 C -0.05343 0.26531 -0.04251
 C24 C -0.05813 0.28194 -0.06855
 C25 C -0.04247 0.29917 -0.07400
 C26 C -0.02246 0.29976 -0.05410
 H27 H -0.03053 0.31601 0.02711
 H28 H -0.06641 0.31596 0.05941
 H29 H -0.04678 0.25713 0.11939
 H30 H -0.01161 0.25761 0.08672
 H31 H 0.02120 0.31776 0.07493
 H32 H 0.05679 0.31775 0.10779
 H33 H 0.02990 0.25051 0.03751
 H34 H 0.01787 0.25230 -0.05178
 H35 H 0.05377 0.25030 -0.08341
 H36 H 0.07190 0.31501 -0.03875
 H37 H 0.03578 0.31656 -0.00651
 H38 H -0.03019 0.25308 -0.00247
 H39 H -0.06531 0.25207 -0.03688
 H40 H -0.04573 0.31221 -0.09376
 H41 H -0.01067 0.31327 -0.05861
 H42 H 0.06548 0.24824 0.06968
 C43 C 0.49421 0.75525 0.48563
 C44 C 0.49443 0.75650 0.52367
 C45 C 0.47341 0.75683 0.54581
 C46 C 0.51552 0.75696 0.54537
 C47 C 0.51501 0.75644 0.46300
 C48 C 0.47307 0.75224 0.46464
 C49 C 0.45715 0.77286 0.53949
 C50 C 0.43746 0.77291 0.56055
 C51 C 0.43380 0.75698 0.58850
 C52 C 0.45036 0.74138 0.59537
 C53 C 0.46996 0.74127 0.57420
 C54 C 0.51888 0.77331 0.57303
 C55 C 0.53791 0.77318 0.59537
 C56 C 0.55401 0.75676 0.59043
 C57 C 0.55062 0.74029 0.56276
 C58 C 0.53149 0.74036 0.54054
 C59 C 0.51941 0.73973 0.43658
 C60 C 0.53892 0.74049 0.41520
 C61 C 0.55436 0.75807 0.41943
 C62 C 0.54979 0.77500 0.44571
 C63 C 0.53021 0.77422 0.46710
 C64 C 0.45910 0.73372 0.47076
 C65 C 0.43928 0.73104 0.45069
 C66 C 0.43303 0.74688 0.42437
 C67 C 0.44729 0.76519 0.41778
 C68 C 0.46716 0.76778 0.43769
 H69 H 0.45978 0.78541 0.51840
 H70 H 0.42541 0.78566 0.55533
 H71 H 0.44803 0.72909 0.61697
 H72 H 0.48239 0.72889 0.57974
 H73 H 0.50665 0.78611 0.57750
 H74 H 0.54001 0.78591 0.61671
 H75 H 0.52889 0.72719 0.52016
 H76 H 0.50785 0.72591 0.43287
 H77 H 0.54198 0.72722 0.39528
 H78 H 0.56125 0.78871 0.45045
 H79 H 0.52695 0.78746 0.48696
 H80 H 0.46361 0.72133 0.49096
 H81 H 0.42872 0.71665 0.45589
 H82 H 0.44338 0.77733 0.39683
 H83 H 0.47791 0.78201 0.43226
 H84 H 0.56227 0.72694 0.55896
 C85 C 0.99371 0.73949 -0.01374
 C86 C 0.99233 0.74115 0.02418
 C87 C 1.01258 0.74196 0.04793
 C88 C 0.97048 0.74258 0.04361
 C89 C 0.97356 0.73710 -0.03755
 C90 C 1.01543 0.74103 -0.03349
 C91 C 1.02873 0.72540 0.04513
 C92 C 1.04797 0.72661 0.06700
 C93 C 1.05134 0.74440 0.09223
 C94 C 1.03478 0.76049 0.09589
 C95 C 1.01559 0.75930 0.07392
 C96 C 0.96456 0.72682 0.07056
 C97 C 0.94366 0.72743 0.08791
 C98 C 0.92844 0.74412 0.07902
 C99 C 0.93458 0.76003 0.05233
 C100 C 0.95547 0.75937 0.03496
 C101 C 0.97035 0.75191 -0.06694
 C102 C 0.95117 0.75038 -0.08881
 C103 C 0.93477 0.73411 -0.08160
 C104 C 0.93833 0.71877 -0.05296
 C105 C 0.95764 0.72020 -0.03125
 C106 C 1.02855 0.76042 -0.03116
 C107 C 1.04855 0.76210 -0.05117
 C108 C 1.05600 0.74433 -0.07352
 C109 C 1.04264 0.72486 -0.07568
 C110 C 1.02249 0.72337 -0.05607
 H111 H 1.02639 0.71150 0.02607
 H112 H 1.05993 0.71344 0.06442
 H113 H 1.03684 0.77419 0.11545
 H114 H 1.00323 0.77212 0.07679
 H115 H 0.97593 0.71370 0.07743
 H116 H 0.93941 0.71450 0.10751
 H117 H 0.95987 0.77184 0.01452
 H118 H 0.98251 0.76495 -0.07251
 H119 H 0.94893 0.76222 -0.11101
 H120 H 0.92643 0.70551 -0.04752
 H121 H 0.96013 0.70818 -0.00942
 H122 H 1.02312 0.77435 -0.01426
 H123 H 1.05824 0.77739 -0.04904
 H124 H 1.04708 0.71094 -0.09325
 H125 H 1.01234 0.70841 -0.05851
 H126 H 0.92318 0.77301 0.04490
 C127 C 0.50301 0.23377 0.49645
 C128 C 0.50400 0.23827 0.53387
 C129 C 0.52563 0.24060 0.55371
 C130 C 0.48352 0.24084 0.55703
 C131 C 0.48142 0.22986 0.47709
 C132 C 0.52348 0.23257 0.47295
 C133 C 0.54130 0.22356 0.55260
 C134 C 0.56166 0.22605 0.57115
 C135 C 0.56658 0.24556 0.59173
 C136 C 0.55074 0.26247 0.59295
 C137 C 0.53042 0.25997 0.57435
 C138 C 0.48041 0.22771 0.58883
 C139 C 0.46099 0.22943 0.61032
 C140 C 0.44426 0.24428 0.60044
 C141 C 0.44774 0.25802 0.56927
 C142 C 0.46723 0.25633 0.54785
 C143 C 0.47592 0.24290 0.44634
 C144 C 0.45527 0.24018 0.42883
 C145 C 0.43980 0.22412 0.44154
 C146 C 0.44551 0.21084 0.47194
 C147 C 0.46623 0.21350 0.48933
 C148 C 0.53854 0.25058 0.47082
 C149 C 0.55798 0.24900 0.44925
 C150 C 0.56259 0.22939 0.42913
 C151 C 0.54736 0.21151 0.43111
 C152 C 0.52790 0.21315 0.45252
 H153 H 0.53778 0.20836 0.53719
 H154 H 0.57348 0.21278 0.56862
 H155 H 0.55409 0.27769 0.60842
 H156 H 0.51850 0.27327 0.57565
 H157 H 0.49287 0.21582 0.59663
 H158 H 0.45887 0.21886 0.63442
 H159 H 0.46959 0.26707 0.52403
 H160 H 0.48741 0.25563 0.43653
 H161 H 0.45130 0.25116 0.40618
 H162 H 0.43389 0.19840 0.48235
 H163 H 0.47030 0.20302 0.51265
 H164 H 0.53531 0.26579 0.48614
 H165 H 0.56954 0.26294 0.44915
 H166 H 0.55056 0.19619 0.41606
 H167 H 0.51646 0.19909 0.45374
 H168 H 0.43565 0.27026 0.56156
 C169 C 0.74623 -0.00332 -0.02374
 C170 C 0.74318 -0.00210 0.01399
 C171 C 0.74117 -0.02245 0.03689
 C172 C 0.74169 0.01940 0.03464
 C173 C 0.74742 0.01675 -0.04736
 C174 C 0.74833 -0.02496 -0.04363
 C175 C 0.72417 -0.03809 0.02982
 C176 C 0.72208 -0.05740 0.05062
 C177 C 0.73774 -0.06255 0.08228
 C178 C 0.75528 -0.04422 0.08829
 C179 C 0.75623 -0.02547 0.06604
 C180 C 0.72375 0.02287 0.05923
 C181 C 0.72249 0.04240 0.08037
 C182 C 0.73905 0.05897 0.07730
 C183 C 0.75711 0.05552 0.05271
 C184 C 0.75845 0.03584 0.03172
 C185 C 0.76603 0.01991 -0.07053
 C186 C 0.76813 0.03823 -0.09360
 C187 C 0.75056 0.05581 -0.09525
 C188 C 0.73077 0.05076 -0.06936
 C189 C 0.72996 0.03189 -0.04728
 C190 C 0.76568 -0.03945 -0.03548
 C191 C 0.76737 -0.05973 -0.05456
 C192 C 0.75167 -0.06607 -0.08200
 C193 C 0.73454 -0.05114 -0.09051
 C194 C 0.73302 -0.03082 -0.07161
 H195 H 0.71233 -0.03529 0.00767
 H196 H 0.70880 -0.06912 0.04384
 H197 H 0.76750 -0.04579 0.11020
 H198 H 0.76918 -0.01312 0.07138
 H199 H 0.71072 0.01035 0.06219
 H200 H 0.70852 0.04453 0.09931
 H201 H 0.77278 0.03327 0.01375
 H202 H 0.77935 0.00798 -0.07050
 H203 H 0.78293 0.03997 -0.11083
 H204 H 0.71693 0.06206 -0.06812
 H205 H 0.71542 0.02901 -0.02980
 H206 H 0.77791 -0.03502 -0.01440
 H207 H 0.78091 -0.07060 -0.04746
 H208 H 0.72242 -0.05458 -0.11210
 H209 H 0.71971 -0.01968 -0.07863
 H210 H 0.77055 0.06761 0.05043
 C211 C 0.22916 0.49818 0.46411
 C212 C 0.22824 0.49927 0.50218
 C213 C 0.22500 0.47887 0.52466
 C214 C 0.23097 0.52059 0.52291
 C215 C 0.23035 0.51837 0.44061
 C216 C 0.22987 0.47648 0.44435
 C217 C 0.20623 0.46505 0.51919
 C218 C 0.20432 0.44484 0.53778
 C219 C 0.22099 0.43815 0.56252
 C220 C 0.23950 0.45237 0.56878
 C221 C 0.24136 0.47262 0.55020
 C222 C 0.21500 0.52688 0.54958
 C223 C 0.21672 0.54747 0.56771
 C224 C 0.23462 0.56205 0.55965
 C225 C 0.25087 0.55547 0.53365
 C226 C 0.24924 0.53481 0.51582
 C227 C 0.24756 0.52078 0.41424
 C228 C 0.24955 0.54009 0.39320
 C229 C 0.23426 0.55734 0.39771
 C230 C 0.21669 0.55470 0.42368
 C231 C 0.21470 0.53532 0.44471
 C232 C 0.24740 0.46189 0.45078
 C233 C 0.24744 0.44095 0.43379
 C234 C 0.22998 0.43432 0.40982
 C235 C 0.21258 0.44907 0.40316
 C236 C 0.21265 0.47010 0.41997
 H237 H 0.19331 0.46972 0.49986
 H238 H 0.18991 0.43425 0.53238
 H239 H 0.25298 0.44771 0.58688
 H240 H 0.25601 0.48305 0.55462
 H241 H 0.20081 0.51611 0.55552
 H242 H 0.20363 0.55217 0.58699
 H243 H 0.26204 0.53006 0.49597
 H244 H 0.25980 0.50791 0.41058
 H245 H 0.26325 0.54163 0.37350
 H246 H 0.20468 0.56756 0.42863
 H247 H 0.20113 0.53368 0.46461
 H248 H 0.26086 0.46662 0.46948
 H249 H 0.26082 0.42981 0.44032
 H250 H 0.19889 0.44427 0.38499
 H251 H 0.19899 0.48119 0.41477
 H252 H 0.26481 0.56639 0.52700
 C253 C 0.26905 0.99922 -0.03710
 C254 C 0.26714 0.99963 0.00081
 C255 C 0.26836 1.02073 0.02241
 C256 C 0.26316 0.97901 0.02233
 C257 C 0.27029 0.97798 -0.05826
 C258 C 0.26907 1.01996 -0.05906
 C259 C 0.28688 1.03506 0.01902
 C260 C 0.28782 1.05498 0.03923
 C261 C 0.27039 1.06098 0.06362
 C262 C 0.25192 1.04629 0.06724
 C263 C 0.25105 1.02638 0.04696
 C264 C 0.27880 0.97253 0.04877
 C265 C 0.27576 0.95321 0.06931
 C266 C 0.25530 0.93857 0.06480
 C267 C 0.23935 0.94707 0.03638
 C268 C 0.24368 0.96639 0.01644
 C269 C 0.25489 0.97319 -0.08665
 C270 C 0.25507 0.95270 -0.10523
 C271 C 0.27089 0.93655 -0.09593
 C272 C 0.28665 0.94179 -0.06803
 C273 C 0.28645 0.96230 -0.04961
 C274 C 0.25002 1.03305 -0.05941
 C275 C 0.24935 1.05261 -0.07971
 C276 C 0.26942 1.06109 -0.10215
 C277 C 0.28902 1.04568 -0.09977
 C278 C 0.28809 1.02611 -0.07941
 H279 H 0.30064 1.03078 0.00076
 H280 H 0.30233 1.06572 0.03572
 H281 H 0.23786 1.04991 0.08507
 H282 H 0.23664 1.01547 0.05000
 H283 H 0.29377 0.98248 0.05320
 H284 H 0.28837 0.94876 0.08932
 H285 H 0.23157 0.97171 -0.00385
 H286 H 0.24229 0.98511 -0.09371
 H287 H 0.24235 0.94971 -0.12599
 H288 H 0.29912 0.92991 -0.06014
 H289 H 0.29875 0.96585 -0.02820
 H290 H 0.23536 1.02794 -0.04370
 H291 H 0.23422 1.06215 -0.07893
 H292 H 0.30426 1.04991 -0.11459
 H293 H 0.30266 1.01572 -0.07893
 H294 H 0.22404 0.93784 0.03101
 C295 C 0.77585 0.50162 0.47504
 C296 C 0.77688 0.50016 0.51296
 C297 C 0.77912 0.52027 0.53709
 C298 C 0.77400 0.47866 0.53213
 C299 C 0.77438 0.48159 0.45052
 C300 C 0.77504 0.52349 0.45662
 C301 C 0.79701 0.53530 0.53246
 C302 C 0.79779 0.55515 0.55300
 C303 C 0.78090 0.56022 0.57891
 C304 C 0.76328 0.54481 0.58414
 C305 C 0.76253 0.52498 0.56360
 C306 C 0.79138 0.47059 0.55376
 C307 C 0.78941 0.45035 0.57194
 C308 C 0.76833 0.43640 0.56999
 C309 C 0.75053 0.44662 0.54680
 C310 C 0.75385 0.46680 0.52892
 C311 C 0.75742 0.47976 0.42372
 C312 C 0.75537 0.46073 0.40132
 C313 C 0.77016 0.44312 0.40539
 C314 C 0.78762 0.44524 0.43139
 C315 C 0.78975 0.46436 0.45363
 C316 C 0.75760 0.53807 0.46454
 C317 C 0.75766 0.55926 0.44919
 C318 C 0.77506 0.56611 0.42522
 C319 C 0.79226 0.55129 0.41683
 C320 C 0.79214 0.53005 0.43213
 H321 H 0.81009 0.53187 0.51234
 H322 H 0.81150 0.56671 0.54829
 H323 H 0.74956 0.54818 0.60290
 H324 H 0.74849 0.51369 0.56732
 H325 H 0.80684 0.48003 0.55619
 H326 H 0.80331 0.44466 0.58826
 H327 H 0.74042 0.47339 0.51242
 H328 H 0.74550 0.49292 0.42058
 H329 H 0.74195 0.45961 0.38119
 H330 H 0.79983 0.43236 0.43430
 H331 H 0.80339 0.46571 0.47328
 H332 H 0.74420 0.53318 0.48326
 H333 H 0.74442 0.57037 0.45709
 H334 H 0.80589 0.55622 0.39859
 H335 H 0.80570 0.51896 0.42574
 H336 H 0.73466 0.43801 0.54372
 O337 O 0.25049 0.20769 0.26401
 O338 O 0.24948 0.26519 0.29980
 O339 O 0.22116 0.23889 0.26535
 O340 O 0.27876 0.23362 0.29912
 O341 O 0.29161 0.24517 0.24463
 O342 O 0.23398 0.25187 0.21175
 O343 O 0.26312 0.27713 0.24605
 O344 O 0.26270 0.21994 0.20955
 Cu345 Cu 0.24870 0.23516 0.28757
 Cu346 Cu 0.26414 0.24972 0.22254
 C347 C 0.25657 0.20408 0.23050
 C348 C 0.25628 0.28092 0.27905
 C349 C 0.21777 0.24632 0.23285
 C350 C 0.29499 0.23843 0.27759
 O351 O 0.71681 0.75966 0.28048
 O352 O 0.77130 0.74892 0.23613
 O353 O 0.74273 0.72562 0.27517
 O354 O 0.74454 0.78237 0.23932
 O355 O 0.76174 0.79408 0.29045
 O356 O 0.76004 0.73693 0.32648
 O357 O 0.78829 0.76042 0.28760
 O358 O 0.73406 0.77115 0.33171
 Cu359 Cu 0.74213 0.75297 0.25262
 Cu360 Cu 0.76273 0.76680 0.31426
 C361 C 0.71623 0.76726 0.31373
 C362 C 0.78908 0.75294 0.25440
 C363 C 0.75107 0.72157 0.30682
 C364 C 0.75342 0.79789 0.25861
 O365 O 0.78400 0.23938 0.25697
 O366 O 0.72545 0.23647 0.28837
 O367 O 0.75006 0.21364 0.24124
 O368 O 0.75966 0.26208 0.30321
 O369 O 0.75007 0.28434 0.25756
 O370 O 0.74067 0.23596 0.19557
 O371 O 0.71592 0.25870 0.24267
 O372 O 0.77459 0.26183 0.21146
 Cu373 Cu 0.75563 0.23558 0.27698
 Cu374 Cu 0.74426 0.26235 0.22217
 C375 C 0.78930 0.25122 0.22908
 C376 C 0.71076 0.24736 0.27124
 C377 C 0.74408 0.21659 0.20765
 C378 C 0.75662 0.28147 0.29085
 O379 O 0.26385 0.76611 0.19831
 O380 O 0.24962 0.71567 0.25123
 O381 O 0.23186 0.73628 0.19541
 O382 O 0.28163 0.74521 0.25389
 O383 O 0.26202 0.76584 0.29293
 O384 O 0.21192 0.75574 0.23568
 O385 O 0.23035 0.73576 0.29154
 O386 O 0.24330 0.78594 0.23717
 Cu387 Cu 0.25874 0.73883 0.22070
 Cu388 Cu 0.23493 0.76284 0.26833
 C389 C 0.25581 0.78457 0.20852
 C390 C 0.23767 0.71715 0.28054
 C391 C 0.21339 0.74437 0.20571
 C392 C 0.28031 0.75706 0.28334
 O393 O 0.72959 0.25157 0.73165
 O394 O 0.78325 0.25773 0.78141
 O395 O 0.76272 0.27990 0.72968
 O396 O 0.74927 0.23035 0.78452
 O397 O 0.76526 0.20936 0.74145
 O398 O 0.77951 0.25928 0.68700
 O399 O 0.79922 0.23655 0.73861
 O400 O 0.74608 0.23106 0.68847
 Cu401 Cu 0.75464 0.25706 0.76111
 Cu402 Cu 0.77418 0.23201 0.70954
 C403 C 0.72876 0.24015 0.70160
 C404 C 0.80032 0.24793 0.76856
 C405 C 0.77328 0.27809 0.69900
 C406 C 0.75484 0.21141 0.77229
 O407 O 0.27353 0.74838 0.73211
 O408 O 0.22453 0.73804 0.79199
 O409 O 0.24786 0.71422 0.74585
 O410 O 0.25017 0.77239 0.77813
 O411 O 0.22821 0.78187 0.73174
 O412 O 0.22594 0.72378 0.69945
 O413 O 0.20251 0.74785 0.74587
 O414 O 0.25156 0.75789 0.68574
 Cu415 Cu 0.25124 0.74233 0.76671
 Cu416 Cu 0.22479 0.75377 0.71107
 C417 C 0.27092 0.75486 0.69876
 C418 C 0.20518 0.74124 0.77914
 C419 C 0.23658 0.70914 0.71700
 C420 C 0.23963 0.78703 0.76036
 O421 O 0.20657 0.24794 0.72863
 O422 O 0.26062 0.24151 0.68159
 O423 O 0.23462 0.21576 0.72185
 O424 O 0.23303 0.27404 0.69105
 O425 O 0.24994 0.28462 0.74311
 O426 O 0.25267 0.22646 0.77274
 O427 O 0.27811 0.25279 0.73271
 O428 O 0.22361 0.25805 0.78083
 Cu429 Cu 0.23204 0.24370 0.70060
 Cu430 Cu 0.25282 0.25649 0.76256
 C431 C 0.20580 0.25397 0.76264
 C432 C 0.27853 0.24634 0.69876
 C433 C 0.24391 0.21123 0.75263
 C434 C 0.24118 0.28926 0.71200
 O435 O 0.77574 0.74237 0.77674
 O436 O 0.72819 0.75156 0.71476
 O437 O 0.74868 0.77506 0.76673
 O438 O 0.75508 0.71887 0.72620
 O439 O 0.73255 0.70542 0.76971
 O440 O 0.72526 0.76146 0.80878
 O441 O 0.70533 0.73759 0.75730
 O442 O 0.75299 0.72929 0.82022
 Cu443 Cu 0.75418 0.74841 0.74178
 Cu444 Cu 0.72671 0.73214 0.79334
 C445 C 0.77254 0.73421 0.80892
 C446 C 0.70870 0.74587 0.72521
 C447 C 0.73587 0.77775 0.79476
 C448 C 0.74497 0.70257 0.74132
 C449 C 0.27211 0.08146 0.08277
 C450 C 0.25669 0.08935 0.10908
 C451 C 0.25869 0.11153 0.12704
 C452 C 0.24792 0.11521 0.16138
 C453 C 0.24893 0.13603 0.17885
 C454 C 0.26078 0.15370 0.16217
 C455 C 0.27124 0.15010 0.12753
 C456 C 0.27021 0.12928 0.11006
 C457 C 0.26188 0.17626 0.17895
 C458 C 0.25622 0.18118 0.21599
 H459 H 0.24308 0.07887 0.11853
 H460 H 0.23861 0.10191 0.17474
 H461 H 0.24002 0.13817 0.20491
 H462 H 0.28015 0.16350 0.11374
 H463 H 0.27800 0.12741 0.08293
 H464 H 0.26768 0.18967 0.16126
 H465 H 0.28669 0.09171 0.07709
 H466 H 0.25134 0.16818 0.23505
 C467 C 0.78156 0.58219 0.59806
 C468 C 0.76891 0.58727 0.62987
 C469 C 0.76746 0.60983 0.64653
 C470 C 0.74902 0.61467 0.66930
 C471 C 0.74658 0.63575 0.68520
 C472 C 0.76281 0.65245 0.67918
 C473 C 0.78131 0.64762 0.65649
 C474 C 0.78372 0.62651 0.64048
 C475 C 0.76072 0.67511 0.69526
 C476 C 0.74731 0.67996 0.72619
 H477 H 0.75867 0.57446 0.64251
 H478 H 0.73619 0.60218 0.67430
 H479 H 0.73171 0.63888 0.70148
 H480 H 0.79404 0.66018 0.65137
 H481 H 0.79848 0.62337 0.62391
 H482 H 0.77062 0.68835 0.68292
 H483 H 0.79209 0.59489 0.58575
 H484 H 0.73839 0.66682 0.74051
 C485 C 0.73541 0.91514 0.10545
 C486 C 0.74933 0.91007 0.13503
 C487 C 0.74742 0.88876 0.15492
 C488 C 0.76233 0.88436 0.18393
 C489 C 0.76143 0.86406 0.20246
 C490 C 0.74545 0.84777 0.19234
 C491 C 0.73048 0.85225 0.16343
 C492 C 0.73137 0.87253 0.14496
 C493 C 0.74444 0.82563 0.20978
 C494 C 0.75428 0.82056 0.24388
 H495 H 0.76229 0.92177 0.14351
 H496 H 0.77493 0.89655 0.19194
 H497 H 0.77363 0.86110 0.22391
 H498 H 0.71810 0.83995 0.15495
 H499 H 0.71962 0.87535 0.12268
 H500 H 0.73511 0.81269 0.19516
 H501 H 0.73734 0.92680 0.09450
 H502 H 0.76258 0.83329 0.26043
 C503 C 0.21905 0.41579 0.57931
 C504 C 0.23150 0.40896 0.60997
 C505 C 0.23063 0.38602 0.62456
 C506 C 0.23743 0.38227 0.66140
 C507 C 0.23745 0.36080 0.67591
 C508 C 0.23096 0.34247 0.65353
 C509 C 0.22415 0.34627 0.61668
 C510 C 0.22407 0.36773 0.60224
 C511 C 0.23099 0.31925 0.66714
 C512 C 0.24083 0.31263 0.70046
 H513 H 0.24172 0.42098 0.62495
 H514 H 0.24266 0.39604 0.67914
 H515 H 0.24243 0.35889 0.70464
 H516 H 0.21913 0.33252 0.59873
 H517 H 0.21936 0.36978 0.57336
 H518 H 0.22343 0.30658 0.64938
 H519 H 0.20686 0.40441 0.56730
 H520 H 0.24905 0.32460 0.71859
 C521 C 0.91932 0.28664 0.10820
 C522 C 0.91157 0.27174 0.13542
 C523 C 0.88818 0.27116 0.14901
 C524 C 0.88357 0.26244 0.18447
 C525 C 0.86165 0.26079 0.19775
 C526 C 0.84374 0.26751 0.17544
 C527 C 0.84838 0.27636 0.14005
 C528 C 0.87031 0.27806 0.12683
 C529 C 0.82016 0.26581 0.18802
 C530 C 0.81285 0.25247 0.21748
 H531 H 0.92280 0.26050 0.14875
 H532 H 0.89703 0.25696 0.20208
 H533 H 0.85900 0.25446 0.22557
 H534 H 0.83492 0.28165 0.12228
 H535 H 0.87309 0.28425 0.09890
 H536 H 0.80787 0.27494 0.17256
 H537 H 0.90784 0.29925 0.09941
 H538 H 0.82447 0.24235 0.23245
 C539 C 0.41331 0.75647 0.61163
 C540 C 0.39300 0.76490 0.59980
 C541 C 0.37240 0.76323 0.62256
 C542 C 0.35168 0.76267 0.60452
 C543 C 0.33190 0.76049 0.62508
 C544 C 0.33248 0.75918 0.66434
 C545 C 0.35322 0.76018 0.68235
 C546 C 0.37297 0.76228 0.66178
 C547 C 0.31213 0.75610 0.68750
 C548 C 0.29042 0.75884 0.67457
 H549 H 0.39162 0.77125 0.57174
 H550 H 0.35083 0.76344 0.57432
 H551 H 0.31640 0.75940 0.60988
 H552 H 0.35416 0.75934 0.71254
 H553 H 0.38860 0.76336 0.67676
 H554 H 0.31441 0.75169 0.71651
 H555 H 0.41392 0.74759 0.63775
 H556 H 0.28737 0.76420 0.64635
 C557 C 0.07157 0.74648 0.11564
 C558 C 0.09194 0.73701 0.10585
 C559 C 0.11241 0.73980 0.12855
 C560 C 0.13323 0.73704 0.11122
 C561 C 0.15295 0.73968 0.13160
 C562 C 0.15221 0.74486 0.17002
 C563 C 0.13137 0.74747 0.18738
 C564 C 0.11166 0.74482 0.16701
 C565 C 0.17262 0.74825 0.19270
 C566 C 0.19358 0.74045 0.18232
 H567 H 0.09347 0.72851 0.07919
 H568 H 0.13427 0.73316 0.08164
 H569 H 0.16863 0.73806 0.11687
 H570 H 0.13032 0.75141 0.21694
 H571 H 0.09595 0.74643 0.18169
 H572 H 0.17089 0.75669 0.21942
 H573 H 0.07072 0.75724 0.13997
 H574 H 0.19567 0.73084 0.15691
 C575 C 0.58805 0.24926 0.61146
 C576 C 0.60282 0.23237 0.62014
 C577 C 0.62442 0.23638 0.63922
 C578 C 0.64124 0.22063 0.63492
 C579 C 0.66188 0.22370 0.65237
 C580 C 0.66611 0.24263 0.67469
 C581 C 0.64908 0.25807 0.67986
 C582 C 0.62845 0.25505 0.66229
 C583 C 0.68770 0.24636 0.69389
 C584 C 0.70759 0.23700 0.68152
 H585 H 0.59892 0.21547 0.61191
 H586 H 0.63843 0.20591 0.61786
 H587 H 0.67424 0.21097 0.64879
 H588 H 0.65177 0.27258 0.69749
 H589 H 0.61567 0.26717 0.66750
 H590 H 0.68808 0.25745 0.71792
 H591 H 0.59223 0.26615 0.61952
 H592 H 0.70789 0.22712 0.65613
 C593 C 0.75371 0.07666 0.87829
 C594 C 0.73856 0.09376 0.87598
 C595 C 0.74275 0.11304 0.85162
 C596 C 0.72822 0.13103 0.85336
 C597 C 0.73211 0.14976 0.83145
 C598 C 0.75071 0.15085 0.80737
 C599 C 0.76488 0.13261 0.80485
 C600 C 0.76105 0.11393 0.82688
 C601 C 0.75571 0.17057 0.78438
 C602 C 0.74900 0.19183 0.79455
 H603 H 0.72361 0.09340 0.89313
 H604 H 0.71388 0.13064 0.87189
 H605 H 0.72039 0.16319 0.83321
 H606 H 0.77918 0.13296 0.78623
 H607 H 0.77248 0.10026 0.82456
 H608 H 0.76621 0.16849 0.75991
 H609 H 0.75089 0.06650 0.89250
 H610 H 0.73986 0.19451 0.82029
 C611 C 0.23786 0.57784 0.37567
 C612 C 0.22238 0.59485 0.37254
 C613 C 0.22684 0.61548 0.35133
 C614 C 0.21439 0.63440 0.35990
 C615 C 0.21814 0.65425 0.34079
 C616 C 0.23449 0.65557 0.31250
 C617 C 0.24654 0.63649 0.30333
 C618 C 0.24279 0.61666 0.32241
 C619 C 0.23919 0.67617 0.29130
 C620 C 0.23216 0.69723 0.30236
 H621 H 0.20658 0.59360 0.38704
 H622 H 0.20177 0.63387 0.38165
 H623 H 0.20797 0.66828 0.34811
 H624 H 0.25898 0.63692 0.28127
 H625 H 0.25218 0.60231 0.31385
 H626 H 0.24930 0.67474 0.26623
 H627 H 0.25379 0.57959 0.36164
 H628 H 0.22277 0.69952 0.32792
 C629 C 0.27128 0.91524 0.88761
 C630 C 0.25743 0.90791 0.85842
 C631 C 0.25713 0.88473 0.84437
 C632 C 0.24992 0.88039 0.80775
 C633 C 0.24871 0.85867 0.79386
 C634 C 0.25436 0.84074 0.81666
 C635 C 0.26169 0.84511 0.85322
 C636 C 0.26294 0.86683 0.86709
 C637 C 0.25311 0.81740 0.80337
 C638 C 0.24053 0.81035 0.77264
 H639 H 0.24699 0.91941 0.84394
 H640 H 0.24534 0.89390 0.78971
 H641 H 0.24360 0.85616 0.76519
 H642 H 0.26614 0.83161 0.87137
 H643 H 0.26793 0.86943 0.89583
 H644 H 0.26184 0.80510 0.81936
 H645 H 0.28335 0.90371 0.89814
 H646 H 0.23069 0.82199 0.75722
 C647 C 0.76710 0.42306 0.38165
 C648 C 0.77418 0.40206 0.39216
 C649 C 0.77015 0.38183 0.36917
 C650 C 0.76951 0.36112 0.38670
 C651 C 0.76561 0.34166 0.36599
 C652 C 0.76257 0.34250 0.32703
 C653 C 0.76341 0.36323 0.30952
 C654 C 0.76726 0.38268 0.33024
 C655 C 0.75816 0.32244 0.30364
 C656 C 0.76088 0.30067 0.31569
 H657 H 0.78149 0.40000 0.41949
 H658 H 0.77172 0.36002 0.41665
 H659 H 0.76472 0.32618 0.38089
 H660 H 0.76122 0.36441 0.27957
 H661 H 0.76829 0.39825 0.31553
 H662 H 0.75304 0.32499 0.27501
 H663 H 0.75733 0.42468 0.35649
 H664 H 0.76673 0.29734 0.34355
 C665 C 0.08814 0.28226 0.91782
 C666 C 0.09394 0.26736 0.88929
 C667 C 0.11639 0.26633 0.87170
 C668 C 0.11876 0.25399 0.83850
 C669 C 0.13951 0.25222 0.82093
 C670 C 0.15850 0.26292 0.83607
 C671 C 0.15628 0.27484 0.86974
 C672 C 0.13549 0.27655 0.88745
 C673 C 0.18081 0.26151 0.81808
 C674 C 0.18375 0.25600 0.78041
 H675 H 0.08125 0.25636 0.87786
 H676 H 0.10447 0.24559 0.82607
 H677 H 0.14052 0.24210 0.79590
 H678 H 0.17069 0.28291 0.88238
 H679 H 0.13468 0.28561 0.91361
 H680 H 0.19537 0.26558 0.83477
 H681 H 0.10016 0.29474 0.92675
 H682 H 0.16943 0.25316 0.76267
 C683 C 0.57508 0.75756 0.39666
 C684 C 0.59023 0.77530 0.39326
 C685 C 0.61135 0.77356 0.37189
 C686 C 0.62947 0.78730 0.38198
 C687 C 0.64998 0.78545 0.36358
 C688 C 0.65271 0.76984 0.33449
 C689 C 0.63428 0.75687 0.32319
 C690 C 0.61380 0.75865 0.34168
 C691 C 0.67438 0.76674 0.31529
 C692 C 0.69480 0.77165 0.33223
 H693 H 0.58736 0.79067 0.40814
 H694 H 0.62787 0.79925 0.40461
 H695 H 0.66354 0.79638 0.37211
 H696 H 0.63583 0.74506 0.30034
 H697 H 0.59996 0.74844 0.33200
 H698 H 0.67429 0.75890 0.28789
 H699 H 0.57866 0.74213 0.38231
 H700 H 0.69530 0.77809 0.36054
 C701 C 0.91444 0.73355 0.89519
 C702 C 0.89399 0.72488 0.90752
 C703 C 0.87340 0.72621 0.88507
 C704 C 0.85266 0.72661 0.90338
 C705 C 0.83295 0.72884 0.88306
 C706 C 0.83366 0.73042 0.84385
 C707 C 0.85438 0.72947 0.82557
 C708 C 0.87403 0.72725 0.84585
 C709 C 0.81351 0.73383 0.82097
 C710 C 0.79165 0.73034 0.83349
 H711 H 0.89250 0.71878 0.93578
 H712 H 0.85175 0.72575 0.93358
 H713 H 0.81742 0.72985 0.89835
 H714 H 0.85539 0.73050 0.79539
 H715 H 0.88962 0.72624 0.83065
 H716 H 0.81610 0.73891 0.79228
 H717 H 0.91521 0.74214 0.86878
 H718 H 0.78831 0.72409 0.86120
 C719 C 0.41726 0.22159 0.42508
 C720 C 0.41206 0.22852 0.38903
 C721 C 0.38917 0.22779 0.37357
 C722 C 0.38642 0.22830 0.33467
 C723 C 0.36512 0.22862 0.31898
 C724 C 0.34603 0.22877 0.34203
 C725 C 0.34880 0.22803 0.38094
 C726 C 0.37010 0.22767 0.39661
 C727 C 0.32308 0.22970 0.32688
 C728 C 0.31810 0.23645 0.29067
 H729 H 0.42537 0.23407 0.37070
 H730 H 0.40084 0.22842 0.31631
 H731 H 0.36383 0.22858 0.28887
 H732 H 0.33441 0.22814 0.39936
 H733 H 0.37148 0.22789 0.42674
 H734 H 0.30938 0.22599 0.34579
 H735 H 0.40455 0.21336 0.44169
 H736 H 0.33126 0.24125 0.27152
 C737 C 0.75388 0.91314 0.90002
 C738 C 0.73790 0.90342 0.87624
 C739 C 0.74080 0.88146 0.85810
 C740 C 0.72180 0.86845 0.84997
 C741 C 0.72381 0.84768 0.83270
 C742 C 0.74492 0.83960 0.82279
 C743 C 0.76389 0.85290 0.82985
 C744 C 0.76190 0.87359 0.84757
 C745 C 0.74751 0.81762 0.80455
 C746 C 0.73296 0.79986 0.81163
 H747 H 0.72183 0.91098 0.87286
 H748 H 0.70534 0.87431 0.85725
 H749 H 0.70878 0.83817 0.82661
 H750 H 0.78030 0.84716 0.82197
 H751 H 0.77682 0.88352 0.85235
 H752 H 0.76207 0.81492 0.78714
 H753 H 0.76851 0.90355 0.90631
 H754 H 0.71967 0.80176 0.83193
 C755 C 0.22898 0.41187 0.39287
 C756 C 0.24803 0.39959 0.38513
 C757 C 0.24708 0.37677 0.36972
 C758 C 0.26511 0.36907 0.34843
 C759 C 0.26494 0.34746 0.33398
 C760 C 0.24676 0.33304 0.34097
 C761 C 0.22900 0.34054 0.36311
 C762 C 0.22905 0.36226 0.37718
 C763 C 0.24626 0.30998 0.32655
 C764 C 0.25657 0.30389 0.29308
 H765 H 0.26431 0.40736 0.38856
 H766 H 0.27935 0.37983 0.34288
 H767 H 0.27924 0.34196 0.31804
 H768 H 0.21500 0.32960 0.36934
 H769 H 0.21521 0.36745 0.39452
 H770 H 0.23653 0.29771 0.34170
 H771 H 0.21281 0.40527 0.38469
 H772 H 0.26458 0.31640 0.27592
 C773 C 0.27070 0.08341 0.87445
 C774 C 0.25214 0.09617 0.86697
 C775 C 0.25398 0.11741 0.84678
 C776 C 0.23485 0.12637 0.83069
 C777 C 0.23593 0.14685 0.81268
 C778 C 0.25615 0.15893 0.81097
 C779 C 0.27525 0.15003 0.82720
 C780 C 0.27428 0.12935 0.84457
 C781 C 0.25741 0.18141 0.79483
 C782 C 0.24396 0.18809 0.76540
 H783 H 0.23570 0.09023 0.87520
 H784 H 0.21900 0.11756 0.83229
 H785 H 0.22078 0.15351 0.80125
 H786 H 0.29096 0.15915 0.82653
 H787 H 0.28927 0.12301 0.85707
 H788 H 0.26970 0.19299 0.80612
 H789 H 0.26915 0.07218 0.88681
 H790 H 0.23320 0.17611 0.75131
 C791 C 0.77630 0.58882 0.41006
 C792 C 0.75756 0.60195 0.40546
 C793 C 0.75893 0.62497 0.39177
 C794 C 0.74049 0.63373 0.37340
 C795 C 0.74112 0.65548 0.36034
 C796 C 0.76021 0.66897 0.36575
 C797 C 0.77839 0.66044 0.38516
 C798 C 0.77785 0.63860 0.39791
 C799 C 0.76135 0.69203 0.35221
 C800 C 0.74998 0.69870 0.32046
 H801 H 0.74111 0.59478 0.40996
 H802 H 0.72559 0.62367 0.36897
 H803 H 0.72651 0.66177 0.34662
 H804 H 0.79312 0.67066 0.39018
 H805 H 0.79206 0.63261 0.41312
 H806 H 0.77240 0.70374 0.36634
 H807 H 0.79242 0.59502 0.40077
 H808 H 0.74054 0.68665 0.30412
 C809 C 0.07603 0.74701 0.90629
 C810 C 0.08700 0.72993 0.88731
 C811 C 0.10705 0.73413 0.86419
 C812 C 0.12352 0.71792 0.86174
 C813 C 0.14249 0.72135 0.83957
 C814 C 0.14507 0.74095 0.81892
 C815 C 0.12830 0.75688 0.82057
 C816 C 0.10952 0.75362 0.84324
 C817 C 0.16467 0.74484 0.79463
 C818 C 0.18577 0.73706 0.80333
 H819 H 0.08195 0.71282 0.89117
 H820 H 0.12176 0.70262 0.87719
 H821 H 0.15484 0.70847 0.83801
 H822 H 0.12981 0.77195 0.80446
 H823 H 0.09675 0.76611 0.84370
 H824 H 0.16274 0.75531 0.77045
 H825 H 0.08388 0.76334 0.90620
 H826 H 0.18838 0.72848 0.82936
 C827 C 0.58343 0.22661 0.40725
 C828 C 0.59593 0.24435 0.39286
 C829 C 0.61726 0.24148 0.37236
 C830 C 0.62460 0.25816 0.34794
 C831 C 0.64501 0.25641 0.32910
 C832 C 0.65861 0.23791 0.33454
 C833 C 0.65137 0.22137 0.35930
 C834 C 0.63092 0.22306 0.37797
 C835 C 0.68095 0.23601 0.31695
 C836 C 0.68757 0.24752 0.28498
 H837 H 0.58942 0.26095 0.39511
 H838 H 0.61457 0.27269 0.34360
 H839 H 0.65028 0.26989 0.31125
 H840 H 0.66170 0.20715 0.36451
 H841 H 0.62623 0.21022 0.39751
 H842 H 0.69274 0.22505 0.32988
 H843 H 0.58849 0.20984 0.40084
 H844 H 0.67574 0.25745 0.27005
 C845 C 0.92060 0.28223 0.91056
 C846 C 0.90797 0.26311 0.90267
 C847 C 0.88680 0.26335 0.88155
 C848 C 0.87997 0.24411 0.86215
 C849 C 0.86005 0.24362 0.84202
 C850 C 0.84641 0.26238 0.84114
 C851 C 0.85289 0.28142 0.86144
 C852 C 0.87295 0.28198 0.88132
 C853 C 0.82511 0.26223 0.82033
 C854 C 0.82172 0.24916 0.78840
 H855 H 0.91453 0.24710 0.90998
 H856 H 0.89014 0.22942 0.86242
 H857 H 0.85520 0.22838 0.82782
 H858 H 0.84247 0.29594 0.86171
 H859 H 0.87731 0.29686 0.89698
 H860 H 0.81208 0.27329 0.82957
 H861 H 0.91548 0.29789 0.89911
 H862 H 0.83529 0.23948 0.77715
 C863 C 0.41205 0.74343 0.40334
 C864 C 0.40007 0.76089 0.38833
 C865 C 0.37938 0.75749 0.36650
 C866 C 0.36391 0.77468 0.36506
 C867 C 0.34438 0.77221 0.34413
 C868 C 0.34004 0.75248 0.32392
 C869 C 0.35576 0.73550 0.32473
 C870 C 0.37520 0.73790 0.34588
 C871 C 0.31985 0.74937 0.30067
 C872 C 0.30008 0.76079 0.30689
 H873 H 0.40531 0.77780 0.39445
 H874 H 0.36694 0.79007 0.38022
 H875 H 0.33303 0.78596 0.34326
 H876 H 0.35298 0.72029 0.30893
 H877 H 0.38711 0.72461 0.34530
 H878 H 0.32026 0.73682 0.27879
 H879 H 0.40523 0.72673 0.40150
 H880 H 0.29864 0.77215 0.33035
 C881 C 0.25009 0.91526 0.08876
 C882 C 0.26689 0.90339 0.10565
 C883 C 0.26210 0.88301 0.12710
 C884 C 0.27965 0.86884 0.13576
 C885 C 0.27564 0.84949 0.15610
 C886 C 0.25397 0.84408 0.16854
 C887 C 0.23649 0.85846 0.16050
 C888 C 0.24044 0.87763 0.13967
 C889 C 0.24922 0.82402 0.19084
 C890 C 0.26120 0.80449 0.18666
 H891 H 0.28410 0.90874 0.10200
 H892 H 0.29651 0.87273 0.12667
 H893 H 0.28958 0.83906 0.16268
 H894 H 0.21970 0.85473 0.17010
 H895 H 0.22658 0.88834 0.13383
 H896 H 0.23493 0.82419 0.20949
 H897 H 0.25331 0.92709 0.07717
 H898 H 0.27415 0.80334 0.16557
 C899 C 0.76429 0.41212 0.59157
 C900 C 0.78184 0.39899 0.60261
 C901 C 0.77793 0.37801 0.62276
 C902 C 0.79536 0.36289 0.62601
 C903 C 0.79213 0.34308 0.64546
 C904 C 0.77144 0.33822 0.66235
 C905 C 0.75412 0.35346 0.65948
 C906 C 0.75723 0.37307 0.63959
 C907 C 0.76760 0.31794 0.68437
 C908 C 0.77828 0.29798 0.67691
 H909 H 0.79880 0.40393 0.59561
 H910 H 0.81150 0.36643 0.61352
 H911 H 0.80598 0.33190 0.64798
 H912 H 0.73810 0.35012 0.67253
 H913 H 0.74350 0.38447 0.63792
 H914 H 0.75482 0.31839 0.70586
 H915 H 0.76698 0.42440 0.58106
 H916 H 0.78959 0.29656 0.65336
 C917 C 0.73748 0.07894 0.10163
 C918 C 0.74808 0.09919 0.09392
 C919 C 0.74674 0.11871 0.11933
 C920 C 0.74973 0.14006 0.10467
 C921 C 0.74902 0.15880 0.12802
 C922 C 0.74545 0.15654 0.16672
 C923 C 0.74286 0.13516 0.18143
 C924 C 0.74343 0.11645 0.15807
 C925 C 0.74563 0.17584 0.19277
 C926 C 0.74154 0.19756 0.18178
 H927 H 0.75668 0.10127 0.06750
 H928 H 0.75267 0.14223 0.07502
 H929 H 0.75184 0.17491 0.11571
 H930 H 0.74050 0.13292 0.21120
 H931 H 0.74183 0.10025 0.17063
 H932 H 0.74895 0.17275 0.22199
 H933 H 0.72658 0.07785 0.12578
 H934 H 0.73677 0.20094 0.15330
 C935 C 0.23617 0.58460 0.57613
 C936 C 0.22627 0.59042 0.61015
 C937 C 0.22685 0.61339 0.62499
 C938 C 0.22601 0.61697 0.66376
 C939 C 0.22634 0.63852 0.67855
 C940 C 0.22726 0.65690 0.65467
 C941 C 0.22746 0.65331 0.61589
 C942 C 0.22737 0.63178 0.60113
 C943 C 0.22736 0.67994 0.66916
 C944 C 0.23602 0.68596 0.70398
 H945 H 0.21886 0.57764 0.62745
 H946 H 0.22520 0.60305 0.68265
 H947 H 0.22545 0.64070 0.70856
 H948 H 0.22780 0.66722 0.59694
 H949 H 0.22725 0.62960 0.57107
 H950 H 0.22167 0.69284 0.65077
 H951 H 0.24616 0.59687 0.56146
 H952 H 0.24357 0.67363 0.72147
 C953 C 0.90591 0.74517 0.09607
 C954 C 0.90011 0.73478 0.12953
 C955 C 0.87772 0.73640 0.14684
 C956 C 0.87553 0.73302 0.18541
 C957 C 0.85479 0.73484 0.20301
 C958 C 0.83574 0.74004 0.18224
 C959 C 0.83776 0.74256 0.14344
 C960 C 0.85853 0.74080 0.12584
 C961 C 0.81361 0.74275 0.20005
 C962 C 0.81103 0.74911 0.23739
 H963 H 0.91280 0.72647 0.14529
 H964 H 0.88998 0.72917 0.20209
 H965 H 0.85378 0.73191 0.23274
 H966 H 0.82325 0.74617 0.12674
 H967 H 0.85938 0.74266 0.09583
 H968 H 0.79893 0.74110 0.18261
 H969 H 0.89387 0.75563 0.08270
 H970 H 0.82553 0.75241 0.25456
 C971 C 0.42367 0.24513 0.62352
 C972 C 0.40331 0.25263 0.61004
 C973 C 0.38231 0.25225 0.63211
 C974 C 0.36196 0.25308 0.61303
 C975 C 0.34172 0.25271 0.63254
 C976 C 0.34137 0.25148 0.67180
 C977 C 0.36173 0.25124 0.69099
 C978 C 0.38201 0.25159 0.67144
 C979 C 0.32020 0.25132 0.69349
 C980 C 0.29975 0.24471 0.67819
 H981 H 0.40221 0.25752 0.58110
 H982 H 0.36170 0.25399 0.58281
 H983 H 0.32648 0.25382 0.61668
 H984 H 0.36195 0.25074 0.72124
 H985 H 0.39730 0.25170 0.68732
 H986 H 0.32082 0.25627 0.72267
 H987 H 0.42428 0.23789 0.65103
 H988 H 0.29897 0.23842 0.64980
 C989 C 0.09096 0.28288 0.11435
 C990 C 0.10089 0.26329 0.12503
 C991 C 0.12331 0.26297 0.14198
 C992 C 0.13007 0.24393 0.16078
 C993 C 0.15136 0.24293 0.17636
 C994 C 0.16642 0.26092 0.17297
 C995 C 0.15978 0.27984 0.15373
 C996 C 0.13835 0.28100 0.13869
 C997 C 0.18937 0.25994 0.18769
 C998 C 0.19470 0.24809 0.21962
 H999 H 0.09177 0.24774 0.12159
 H1000 H 0.11885 0.22976 0.16334
 H1001 H 0.15618 0.22786 0.19017
 H1002 H 0.17120 0.29380 0.15046
 H1003 H 0.13373 0.29581 0.12394
 H1004 H 0.20232 0.26957 0.17382
 H1005 H 0.07845 0.28257 0.10345
 H1006 H 0.18157 0.24022 0.23588
 C1007 C 0.57339 0.75667 0.61588
 C1008 C 0.59351 0.74643 0.60712
 C1009 C 0.61248 0.74595 0.63340
 C1010 C 0.63417 0.74377 0.61913
 C1011 C 0.65245 0.74301 0.64320
 C1012 C 0.64932 0.74424 0.68217
 C1013 C 0.62758 0.74586 0.69644
 C1014 C 0.60933 0.74678 0.67237
 C1015 C 0.66815 0.74289 0.70863
 C1016 C 0.69007 0.74867 0.69919
 H1017 H 0.59599 0.73960 0.57935
 H1018 H 0.63699 0.74269 0.58924
 H1019 H 0.66886 0.74095 0.63113
 H1020 H 0.62469 0.74643 0.72634
 H1021 H 0.59278 0.74765 0.68444
 H1022 H 0.66451 0.73766 0.73693
 H1023 H 0.57205 0.76596 0.64182
 H1024 H 0.69387 0.75540 0.67194
   
