data_POSCAR
  _audit_creation_date              2014-09-24
  _audit_creation_method            'ToBaCCo'
  _symmetry_space_group_name_H-M    'P1'
  _symmetry_Int_Tables_number       1
  _symmetry_cell_setting            triclinic
  loop_
  _symmetry_equiv_pos_as_xyz
 x,y,z
_cell_length_a 33.4715
_cell_length_b 38.6882
_cell_length_c 34.0759
_cell_angle_alpha 90.022600
_cell_angle_beta 89.936400
_cell_angle_gamma 89.772300
loop_
  _atom_site_label
  _atom_site_type_symbol
  _atom_site_fract_x
  _atom_site_fract_y
  _atom_site_fract_z
C1 C 1.18685 0.26651 0.30111
 H2 H 1.17969 0.23931 0.29958
 C3 C 1.16392 0.28852 0.32472
 H4 H 1.13891 0.27829 0.34116
 C5 C 1.22857 0.31305 0.28232
 H6 H 1.25397 0.32255 0.26605
 C7 C 1.20709 0.33572 0.30625
 H8 H 1.21577 0.36263 0.30785
 N9 N 1.21808 0.27917 0.27992
 C10 C 1.23464 0.19965 0.18940
 H11 H 1.26673 0.19782 0.18857
 C12 C 1.21213 0.17784 0.16560
 H13 H 1.22740 0.15872 0.14781
 C14 C 1.17598 0.22679 0.21322
 H15 H 1.16187 0.24645 0.23094
 C16 C 1.15224 0.20551 0.18977
 H17 H 1.12012 0.20887 0.19018
 Zn18 Zn 1.24942 0.24957 0.24749
 N19 N 1.21642 0.22282 0.21361
 C20 C 1.30969 0.19983 0.26299
 N21 N 1.28089 0.21976 0.27974
 C22 C 1.27461 0.21882 0.31911
 C23 C 1.29696 0.19670 0.34302
 C24 C 1.33297 0.17755 0.28566
 C25 C 1.26453 0.29659 0.18760
 C26 C 1.28677 0.31909 0.16429
 C27 C 1.34632 0.30073 0.19858
 C28 C 1.32285 0.27893 0.22159
 N29 N 1.28273 0.27727 0.21573
 H30 H 1.31526 0.20147 0.23187
 H31 H 1.25237 0.23541 0.33232
 H32 H 1.29143 0.19830 0.37419
 H33 H 1.35386 0.16135 0.26990
 H34 H 1.23249 0.29503 0.18390
 H35 H 1.27137 0.33507 0.14304
 H36 H 1.37824 0.30138 0.20354
 H37 H 1.33669 0.26392 0.24460
 C38 C 1.17029 0.18019 0.16604
 C39 C 1.17420 0.32352 0.32749
 C40 C 1.32829 0.32154 0.16972
 C41 C 1.32702 0.17509 0.32675
 C42 C 0.69428 -0.23426 0.30999
 H43 H 0.69467 -0.26177 0.31562
 C44 C 0.67027 -0.21254 0.33290
 H45 H 0.65236 -0.22331 0.35636
 C46 C 0.71664 -0.18657 0.27236
 H47 H 0.73454 -0.17647 0.24864
 C48 C 0.69233 -0.16412 0.29386
 H49 H 0.69202 -0.13681 0.28684
 N50 N 0.71765 -0.22091 0.28100
 C51 C 0.73860 -0.30394 0.19592
 H52 H 0.77068 -0.30462 0.19382
 C53 C 0.71628 -0.32640 0.17272
 H54 H 0.73177 -0.34490 0.15427
 C55 C 0.67959 -0.27880 0.22173
 H56 H 0.66526 -0.25987 0.24036
 C57 C 0.65606 -0.30073 0.19886
 H58 H 0.62385 -0.29833 0.20025
 Zn59 Zn 0.75183 -0.25038 0.25114
 N60 N 0.72017 -0.28091 0.22018
 C61 C 0.81472 -0.29668 0.26779
 N62 N 0.78651 -0.27614 0.28477
 C63 C 0.78345 -0.27406 0.32456
 C64 C 0.80711 -0.29501 0.34860
 C65 C 0.83879 -0.31822 0.29064
 C66 C 0.77795 -0.22266 0.17837
 C67 C 0.80053 -0.20091 0.15443
 C68 C 0.83466 -0.18007 0.21218
 C69 C 0.81170 -0.20244 0.23495
 N70 N 0.78375 -0.22288 0.21786
 H71 H 0.81864 -0.29652 0.23640
 H72 H 0.76267 -0.25629 0.33798
 H73 H 0.80381 -0.29318 0.38014
 H74 H 0.85970 -0.33542 0.27616
 H75 H 0.75531 -0.23886 0.16540
 H76 H 0.79554 -0.20124 0.12305
 H77 H 0.85575 -0.16318 0.22662
 H78 H 0.81544 -0.20299 0.26648
 C79 C 0.67440 -0.32506 0.17400
 C80 C 0.66927 -0.17705 0.32482
 C81 C 0.82907 -0.17890 0.17131
 C82 C 0.83462 -0.31811 0.33165
 C83 C 0.68747 0.26741 -0.19937
 H84 H 0.68131 0.23998 -0.19958
 C85 C 0.66457 0.28950 -0.17580
 H86 H 0.64054 0.27910 -0.15814
 C87 C 0.72681 0.31444 -0.22126
 H88 H 0.75126 0.32412 -0.23873
 C89 C 0.70534 0.33723 -0.19742
 H90 H 0.71312 0.36438 -0.19705
 N91 N 0.71756 0.28021 -0.22201
 C92 C 0.73507 0.20108 -0.31328
 H93 H 0.76716 0.20089 -0.31553
 C94 C 0.71293 0.17884 -0.33698
 H95 H 0.72862 0.16088 -0.35593
 C96 C 0.67591 0.22499 -0.28648
 H97 H 0.66135 0.24352 -0.26758
 C98 C 0.65255 0.20332 -0.30986
 H99 H 0.62033 0.20540 -0.30825
 Zn100 Zn 0.74923 0.25023 -0.25394
 N101 N 0.71650 0.22278 -0.28759
 C102 C 0.80806 0.19924 -0.23771
 N103 N 0.78100 0.22110 -0.22102
 C104 C 0.77671 0.22258 -0.18131
 C105 C 0.79928 0.20095 -0.15698
 C106 C 0.83104 0.17707 -0.21456
 C107 C 0.76524 0.29512 -0.31590
 C108 C 0.78770 0.31724 -0.33948
 C109 C 0.84601 0.30239 -0.30136
 C110 C 0.82228 0.28057 -0.27859
 N111 N 0.78265 0.27755 -0.28602
 H112 H 0.81240 0.19919 -0.26904
 H113 H 0.75588 0.24059 -0.16827
 H114 H 0.79550 0.20277 -0.12549
 H115 H 0.85157 0.15936 -0.22878
 H116 H 0.73346 0.29256 -0.32082
 H117 H 0.77132 0.33185 -0.36117
 H118 H 0.87754 0.30249 -0.29479
 H119 H 0.83556 0.26636 -0.25459
 C120 C 0.67104 0.17931 -0.33501
 C121 C 0.67368 0.32482 -0.17458
 C122 C 0.82912 0.32197 -0.33249
 C123 C 0.82671 0.17755 -0.17357
 C124 C 1.18807 -0.23295 -0.19634
 H125 H 1.18348 -0.26060 -0.19556
 C126 C 1.16401 -0.21120 -0.17350
 H127 H 1.14092 -0.22209 -0.15503
 C128 C 1.22367 -0.18483 -0.22121
 H129 H 1.24650 -0.17442 -0.24012
 C130 C 1.20099 -0.16231 -0.19820
 H131 H 1.20670 -0.13478 -0.19938
 N132 N 1.21735 -0.21953 -0.21954
 C133 C 1.23656 -0.30465 -0.30222
 H134 H 1.26850 -0.30780 -0.30080
 C135 C 1.21439 -0.32707 -0.32554
 H136 H 1.22963 -0.34775 -0.34098
 C137 C 1.17799 -0.27406 -0.28404
 H138 H 1.16393 -0.25290 -0.26858
 C139 C 1.15459 -0.29600 -0.30702
 H140 H 1.12267 -0.29163 -0.30871
 Zn141 Zn 1.25036 -0.24961 -0.24990
 N142 N 1.21821 -0.27900 -0.28156
 C143 C 1.31410 -0.29465 -0.23279
 N144 N 1.28329 -0.27674 -0.21638
 C145 C 1.27643 -0.27805 -0.17704
 C146 C 1.29969 -0.29935 -0.15301
 C147 C 1.33774 -0.31659 -0.21000
 C148 C 1.27673 -0.22190 -0.32208
 C149 C 1.29961 -0.20057 -0.34621
 C150 C 1.33698 -0.18252 -0.28920
 C151 C 1.31371 -0.20452 -0.26625
 N152 N 1.28375 -0.22308 -0.28282
 H153 H 1.32042 -0.29198 -0.26373
 H154 H 1.25277 -0.26283 -0.16412
 H155 H 1.29360 -0.29995 -0.12182
 H156 H 1.36091 -0.33164 -0.22423
 H157 H 1.25280 -0.23693 -0.33466
 H158 H 1.29345 -0.20000 -0.37738
 H159 H 1.35945 -0.16682 -0.27503
 H160 H 1.31861 -0.20598 -0.23491
 C161 C 1.17280 -0.32305 -0.32801
 C162 C 1.17086 -0.17552 -0.17404
 C163 C 1.32976 -0.17998 -0.32975
 C164 C 1.33038 -0.31958 -0.16953
 C165 C 0.26541 0.19791 0.69857
 H166 H 0.23342 0.19467 0.70104
 C167 C 0.28751 0.17605 0.67423
 H168 H 0.27228 0.15571 0.65843
 C169 C 0.32399 0.22795 0.71710
 H170 H 0.33798 0.24870 0.73313
 C171 C 0.34731 0.20658 0.69309
 H172 H 0.37919 0.21093 0.69121
 N173 N 0.28391 0.22276 0.72002
 C174 C 0.18579 0.23046 0.80287
 H175 H 0.17579 0.25682 0.79873
 C176 C 0.16279 0.20771 0.82530
 H177 H 0.13542 0.21730 0.83835
 C178 C 0.23472 0.18716 0.79241
 H179 H 0.26280 0.17922 0.77948
 C180 C 0.21356 0.16398 0.81583
 H181 H 0.22551 0.13813 0.81923
 Zn182 Zn 0.25015 0.24946 0.75287
 N183 N 0.22026 0.21948 0.78571
 C184 C 0.17702 0.26985 0.71482
 N185 N 0.21691 0.27557 0.71880
 C186 C 0.23561 0.30040 0.69743
 C187 C 0.21378 0.32213 0.67276
 C188 C 0.15398 0.29103 0.69044
 C189 C 0.31219 0.26737 0.80542
 C190 C 0.33547 0.28964 0.82816
 C191 C 0.28991 0.33614 0.81225
 C192 C 0.26808 0.31322 0.78913
 N193 N 0.27992 0.27969 0.78547
 H194 H 0.16294 0.24883 0.73029
 H195 H 0.26752 0.30389 0.70044
 H196 H 0.22911 0.34263 0.65733
 H197 H 0.12221 0.28637 0.68793
 H198 H 0.32028 0.24035 0.80308
 H199 H 0.36158 0.27975 0.84324
 H200 H 0.28037 0.36285 0.81453
 H201 H 0.24153 0.32226 0.77426
 C202 C 0.17642 0.17369 0.83216
 C203 C 0.32910 0.18000 0.67154
 C204 C 0.32437 0.32450 0.83157
 C205 C 0.17228 0.31795 0.66949
 C206 C 0.76473 0.70178 0.69053
 H207 H 0.73256 0.70244 0.68758
 C208 C 0.78736 0.67944 0.66721
 H209 H 0.77217 0.66268 0.64668
 C210 C 0.82306 0.72169 0.72259
 H211 H 0.83677 0.73768 0.74475
 C212 C 0.84692 0.69994 0.69960
 H213 H 0.87896 0.70014 0.70378
 N214 N 0.78274 0.72214 0.71771
 C215 C 0.68602 0.73124 0.80242
 H216 H 0.67745 0.75817 0.80055
 C217 C 0.66335 0.70854 0.82524
 H218 H 0.63761 0.71866 0.84076
 C219 C 0.73124 0.68637 0.78604
 H220 H 0.75770 0.67770 0.77068
 C221 C 0.71054 0.66317 0.80979
 H222 H 0.72109 0.63672 0.81101
 Zn223 Zn 0.74878 0.74962 0.74939
 N224 N 0.71855 0.71962 0.78233
 C225 C 0.67447 0.77207 0.71529
 N226 N 0.71495 0.77560 0.71503
 C227 C 0.73290 0.79768 0.68951
 C228 C 0.71016 0.81910 0.66528
 C229 C 0.65050 0.79299 0.69145
 C230 C 0.77501 0.77961 0.82103
 C231 C 0.79728 0.80178 0.84486
 C232 C 0.82914 0.82434 0.78678
 C233 C 0.80650 0.80166 0.76415
 N234 N 0.77967 0.78006 0.78133
 H235 H 0.66045 0.75303 0.73374
 H236 H 0.76498 0.79883 0.68780
 H237 H 0.72530 0.83741 0.64647
 H238 H 0.61836 0.79004 0.69246
 H239 H 0.75412 0.76197 0.83441
 H240 H 0.79335 0.80068 0.87636
 H241 H 0.84962 0.84169 0.77217
 H242 H 0.81113 0.80096 0.73288
 C243 C 0.67548 0.67378 0.82944
 C244 C 0.82909 0.67815 0.67166
 C245 C 0.82472 0.82470 0.82775
 C246 C 0.66832 0.81741 0.66655
 C247 C 0.80590 0.19748 0.23900
 H248 H 0.80866 0.19638 0.27044
 C249 C 0.82892 0.17512 0.21607
 H250 H 0.84795 0.15634 0.23047
 C251 C 0.77841 0.22337 0.18216
 H252 H 0.75914 0.24249 0.16888
 C253 C 0.80105 0.20155 0.15807
 H254 H 0.79887 0.20426 0.12652
 N255 N 0.78081 0.22079 0.22194
 C256 C 0.67498 0.22557 0.28535
 H257 H 0.66078 0.24354 0.26559
 C258 C 0.65115 0.20392 0.30831
 H259 H 0.61898 0.20547 0.30552
 C260 C 0.73351 0.20304 0.31471
 H261 H 0.76550 0.20349 0.31817
 C262 C 0.71092 0.18083 0.33803
 H263 H 0.72623 0.16343 0.35788
 Zn264 Zn 0.74918 0.25060 0.25424
 N265 N 0.71555 0.22391 0.28783
 C266 C 0.68868 0.26744 0.19862
 N267 N 0.71834 0.28047 0.22156
 C268 C 0.72752 0.31471 0.22067
 C269 C 0.70608 0.33735 0.19670
 C270 C 0.66581 0.28937 0.17491
 C271 C 0.82300 0.27810 0.28116
 C272 C 0.84691 0.29974 0.30395
 C273 C 0.78749 0.32037 0.33694
 C274 C 0.76479 0.29809 0.31381
 N275 N 0.78270 0.27785 0.28630
 H276 H 0.68273 0.23998 0.19880
 H277 H 0.75182 0.32454 0.23820
 H278 H 0.71367 0.36454 0.19635
 H279 H 0.64198 0.27882 0.15715
 H280 H 0.83663 0.26201 0.25891
 H281 H 0.87893 0.29943 0.29948
 H282 H 0.77235 0.33714 0.35763
 H283 H 0.73265 0.29750 0.31707
 C284 C 0.66913 0.18055 0.33449
 C285 C 0.82660 0.17684 0.17499
 C286 C 0.82917 0.32162 0.33201
 C287 C 0.67461 0.32473 0.17383
 C288 C 0.26512 0.69874 0.19580
 H289 H 0.23321 0.69517 0.19870
 C290 C 0.28726 0.67666 0.17170
 H291 H 0.27214 0.65589 0.15654
 C292 C 0.32344 0.72971 0.21295
 H293 H 0.33733 0.75101 0.22807
 C294 C 0.34680 0.70813 0.18919
 H295 H 0.37858 0.71281 0.18682
 N296 N 0.28353 0.72396 0.21679
 C297 C 0.18807 0.73241 0.30357
 H298 H 0.17957 0.75929 0.30071
 C299 C 0.16550 0.71036 0.32728
 H300 H 0.13943 0.72028 0.34248
 C301 C 0.23275 0.68676 0.28788
 H302 H 0.25931 0.67775 0.27296
 C303 C 0.21161 0.66409 0.31196
 H304 H 0.22161 0.63755 0.31478
 Zn305 Zn 0.24984 0.75023 0.25055
 N306 N 0.22031 0.72008 0.28351
 C307 C 0.17587 0.77151 0.21481
 N308 N 0.21594 0.77680 0.21761
 C309 C 0.23425 0.80190 0.19635
 C310 C 0.21199 0.82389 0.17234
 C311 C 0.15239 0.79300 0.19113
 C312 C 0.31385 0.77002 0.30048
 C313 C 0.33604 0.79285 0.32351
 C314 C 0.28385 0.83546 0.31526
 C315 C 0.26361 0.81224 0.29112
 N316 N 0.27916 0.78048 0.28351
 H317 H 0.16201 0.75065 0.23078
 H318 H 0.26622 0.80529 0.19879
 H319 H 0.22709 0.84442 0.15675
 H320 H 0.12052 0.78856 0.18938
 H321 H 0.32452 0.74390 0.29597
 H322 H 0.36324 0.78306 0.33659
 H323 H 0.27081 0.86089 0.31867
 H324 H 0.23533 0.81972 0.27833
 C325 C 0.17724 0.67573 0.33153
 C326 C 0.32879 0.68085 0.16864
 C327 C 0.32146 0.82656 0.33146
 C328 C 0.17039 0.81985 0.16980
 N329 N 1.06972 0.03525 0.04266
 N330 N 1.09591 0.06005 0.04889
 N331 N 1.04113 -0.03716 0.06964
 N332 N 1.04791 -0.06167 0.09578
 N333 N 1.06881 -0.03749 0.04234
 N334 N 1.09517 -0.06223 0.04916
 N335 N 1.04199 0.03552 0.06991
 N336 N 1.04860 0.06044 0.09551
 C337 C 1.08224 0.07567 0.08189
 C338 C 1.08159 -0.07731 0.08246
 N339 N 0.92725 -0.03556 0.04258
 N340 N 0.90053 -0.05983 0.04947
 N341 N 0.95592 0.03665 0.07001
 N342 N 0.94891 0.06072 0.09663
 N343 N 0.92805 0.03702 0.04293
 N344 N 0.90127 0.06127 0.05047
 N345 N 0.95522 -0.03604 0.06956
 N346 N 0.94847 -0.06075 0.09534
 Mn347 Mn 0.99856 -0.00024 0.07020
 C348 C 0.91437 -0.07552 0.08234
 C349 C 0.91487 0.07607 0.08389
 N350 N 1.06893 -0.03696 -0.04225
 N351 N 1.09579 -0.06110 -0.04979
 N352 N 1.04216 0.03642 -0.06877
 N353 N 1.05012 0.06063 -0.09497
 N354 N 1.07014 0.03535 -0.04181
 N355 N 1.09812 0.05835 -0.04920
 N356 N 1.04110 -0.03658 -0.06937
 N357 N 1.04807 -0.06077 -0.09589
 Mn358 Mn 1.06978 -0.00099 0.00027
 C359 C 1.08217 -0.07601 -0.08310
 C360 C 1.08502 0.07423 -0.08214
 N361 N 0.92797 0.03744 -0.04173
 N362 N 0.90107 0.06162 -0.04909
 N363 N 0.95500 -0.03537 -0.06934
 N364 N 0.94764 -0.05949 -0.09574
 N365 N 0.92717 -0.03512 -0.04215
 N366 N 0.90002 -0.05892 -0.04945
 N367 N 0.95594 0.03739 -0.06878
 N368 N 0.94891 0.06163 -0.09515
 Mn369 Mn 0.92719 0.00094 0.00041
 Mn370 Mn 0.99855 0.00049 -0.06951
 Cl371 Cl 0.99850 0.00005 0.00031
 C372 C 0.91473 0.07675 -0.08232
 C373 C 0.91335 -0.07414 -0.08281
 N374 N 1.07268 0.53469 0.54435
 N375 N 1.09899 0.55923 0.55136
 N376 N 1.04435 0.46194 0.57034
 N377 N 1.05087 0.43703 0.59601
 N378 N 1.07226 0.46201 0.54325
 N379 N 1.09853 0.43714 0.54977
 N380 N 1.04478 0.53458 0.57145
 N381 N 1.05136 0.55902 0.59765
 C382 C 1.08517 0.57434 0.58460
 C383 C 1.08464 0.42159 0.58266
 N384 N 0.93069 0.46323 0.54277
 N385 N 0.90380 0.43903 0.54936
 N386 N 0.95873 0.53525 0.57118
 N387 N 0.95167 0.55930 0.59780
 N388 N 0.93128 0.53596 0.54371
 N389 N 0.90490 0.56064 0.55079
 N390 N 0.95835 0.46268 0.57004
 N391 N 0.95103 0.43814 0.59592
 Mn392 Mn 1.00157 0.49861 0.57117
 C393 C 0.91705 0.42339 0.58249
 C394 C 0.91816 0.57514 0.58453
 N395 N 1.07293 0.46313 0.45868
 N396 N 1.09981 0.43896 0.45128
 N397 N 1.04577 0.53631 0.43256
 N398 N 1.05334 0.56079 0.40663
 N399 N 1.07351 0.53556 0.45975
 N400 N 1.10091 0.55924 0.45284
 N401 N 1.04515 0.46341 0.43151
 N402 N 1.05218 0.43917 0.40507
 Mn403 Mn 1.07326 0.49885 0.50154
 C404 C 1.08626 0.42399 0.41796
 C405 C 1.08772 0.57504 0.41983
 N406 N 0.93170 0.53682 0.45912
 N407 N 0.90549 0.56174 0.45256
 N408 N 0.95902 0.46436 0.43097
 N409 N 0.95207 0.44017 0.40453
 N410 N 0.93130 0.46413 0.45825
 N411 N 0.90486 0.43969 0.45124
 N412 N 0.95979 0.53700 0.43221
 N413 N 0.95357 0.56211 0.40672
 Mn414 Mn 0.93079 0.50004 0.50095
 Mn415 Mn 1.00243 0.50027 0.43137
 Cl416 Cl 1.00200 0.49944 0.50124
 C417 C 0.91971 0.57748 0.41991
 C418 C 0.91832 0.42481 0.41773
 N419 N 0.56960 0.03441 0.54100
 N420 N 0.59628 0.05886 0.54725
 N421 N 0.54046 -0.03773 0.56855
 N422 N 0.54689 -0.06248 0.59445
 N423 N 0.56790 -0.03839 0.54101
 N424 N 0.59368 -0.06367 0.54736
 N425 N 0.54213 0.03487 0.56851
 N426 N 0.54938 0.05953 0.59425
 C427 C 0.58313 0.07446 0.58051
 C428 C 0.58005 -0.07864 0.58071
 N429 N 0.42624 -0.03508 0.54256
 N430 N 0.39958 -0.05941 0.54943
 N431 N 0.45618 0.03681 0.56935
 N432 N 0.45001 0.06135 0.59561
 N433 N 0.42827 0.03753 0.54233
 N434 N 0.40237 0.06255 0.54948
 N435 N 0.45454 -0.03586 0.56920
 N436 N 0.44808 -0.06083 0.59474
 Mn437 Mn 0.49832 -0.00049 0.56931
 C438 C 0.41379 -0.07541 0.58196
 C439 C 0.41648 0.07739 0.58267
 N440 N 0.56710 -0.03863 0.45653
 N441 N 0.59349 -0.06319 0.44881
 N442 N 0.54083 0.03461 0.42935
 N443 N 0.54749 0.05954 0.40375
 N444 N 0.56870 0.03421 0.45643
 N445 N 0.59496 0.05895 0.45010
 N446 N 0.53920 -0.03788 0.42949
 N447 N 0.54604 -0.06161 0.40248
 Mn448 Mn 0.56879 -0.00210 0.49873
 C449 C 0.57974 -0.07748 0.41513
 C450 C 0.58127 0.07464 0.41720
 N451 N 0.42735 0.03733 0.45774
 N452 N 0.40082 0.06182 0.45035
 N453 N 0.45309 -0.03643 0.43076
 N454 N 0.44509 -0.06080 0.40481
 N455 N 0.42515 -0.03509 0.45783
 N456 N 0.39708 -0.05809 0.45068
 N457 N 0.45479 0.03637 0.43020
 N458 N 0.44770 0.06020 0.40339
 Mn459 Mn 0.42633 0.00120 0.50015
 Mn460 Mn 0.49696 -0.00085 0.42955
 Cl461 Cl 0.49761 -0.00057 0.49941
 C462 C 0.41414 0.07609 0.41650
 C463 C 0.41018 -0.07422 0.41781
 N464 N 0.57165 0.53604 0.04292
 N465 N 0.59851 0.56006 0.05039
 N466 N 0.54369 0.46316 0.06973
 N467 N 0.55102 0.43892 0.09606
 N468 N 0.57171 0.46345 0.04273
 N469 N 0.59903 0.43967 0.05016
 N470 N 0.54392 0.53585 0.07020
 N471 N 0.55116 0.55967 0.09694
 C472 C 0.58512 0.57479 0.08406
 C473 C 0.58551 0.42430 0.08327
 N474 N 0.42996 0.46401 0.04276
 N475 N 0.40332 0.43967 0.04968
 N476 N 0.45789 0.53655 0.07025
 N477 N 0.45113 0.56123 0.09623
 N478 N 0.43021 0.53675 0.04300
 N479 N 0.40389 0.56155 0.04968
 N480 N 0.45764 0.46394 0.07001
 N481 N 0.45049 0.43974 0.09631
 Mn482 Mn 0.50079 0.49986 0.07045
 C483 C 0.41669 0.42461 0.08309
 C484 C 0.41744 0.57679 0.08286
 N485 N 0.57178 0.46357 -0.04203
 N486 N 0.59906 0.43978 -0.04974
 N487 N 0.54394 0.53651 -0.06877
 N488 N 0.55144 0.56069 -0.09512
 N489 N 0.57195 0.53592 -0.04182
 N490 N 0.59959 0.55919 -0.04944
 N491 N 0.54376 0.46349 -0.06898
 N492 N 0.55101 0.43936 -0.09550
 Mn493 Mn 0.57216 0.49975 0.00046
 C494 C 0.58547 0.42460 -0.08294
 C495 C 0.58612 0.57476 -0.08244
 N496 N 0.43004 0.53683 -0.04153
 N497 N 0.40341 0.56133 -0.04836
 N498 N 0.45752 0.46391 -0.06889
 N499 N 0.44993 0.43967 -0.09516
 N500 N 0.42971 0.46439 -0.04169
 N501 N 0.40236 0.44079 -0.04882
 N502 N 0.45788 0.53683 -0.06869
 N503 N 0.45112 0.56154 -0.09458
 Mn504 Mn 0.42959 0.50050 0.00065
 Mn505 Mn 0.50078 0.50017 -0.06930
 Cl506 Cl 0.50084 0.50006 0.00053
 C507 C 0.41714 0.57675 -0.08138
 C508 C 0.41551 0.42530 -0.08204
 C509 C 1.15849 0.14441 0.10563
 C510 C 1.14584 0.15553 0.14295
 C511 C 1.11074 0.14148 0.15894
 C512 C 1.08947 0.11614 0.13862
 C513 C 1.10296 0.10425 0.10198
 C514 C 1.13732 0.11898 0.08540
 H515 H 1.18499 0.15517 0.09218
 H516 H 1.10043 0.14917 0.18779
 H517 H 1.06305 0.10524 0.15208
 H518 H 1.14818 0.11050 0.05703
 C519 C 1.11226 0.63985 0.66251
 C520 C 1.14876 0.65257 0.64822
 C521 C 1.16299 0.64065 0.61180
 C522 C 1.14183 0.61580 0.59069
 C523 C 1.10600 0.60236 0.60557
 C524 C 1.09108 0.61497 0.64138
 H525 H 1.10072 0.64830 0.69063
 H526 H 1.19068 0.65041 0.59972
 H527 H 1.15387 0.60672 0.56302
 H528 H 1.06349 0.60507 0.65351
 C529 C 0.61265 0.13914 0.65844
 C530 C 0.64702 0.15413 0.64200
 C531 C 0.65912 0.14367 0.60422
 C532 C 0.63803 0.11817 0.58391
 C533 C 0.60425 0.10275 0.60083
 C534 C 0.59145 0.11384 0.63803
 H535 H 0.60278 0.14615 0.68765
 H536 H 0.68500 0.15511 0.59036
 H537 H 0.64837 0.11031 0.55512
 H538 H 0.56553 0.10237 0.65183
 C539 C 0.66268 0.64127 0.11196
 C540 C 0.65021 0.65078 0.14993
 C541 C 0.61509 0.63615 0.16518
 C542 C 0.59346 0.61206 0.14335
 C543 C 0.60660 0.60193 0.10590
 C544 C 0.64116 0.61702 0.09023
 H545 H 0.68915 0.65255 0.09902
 H546 H 0.60489 0.64256 0.19446
 H547 H 0.56693 0.60079 0.15620
 H548 H 0.65179 0.60985 0.06131
 C549 C 0.83343 -0.13712 0.11496
 C550 C 0.85183 -0.15400 0.14679
 C551 C 0.89170 -0.14592 0.15585
 C552 C 0.91221 -0.12083 0.13443
 C553 C 0.89346 -0.10354 0.10323
 C554 C 0.85412 -0.11228 0.09328
 H555 H 0.80260 -0.14230 0.10749
 H556 H 0.90706 -0.15888 0.17963
 H557 H 0.94268 -0.11479 0.14249
 H558 H 0.83892 -0.09924 0.06944
 C559 C 0.83804 0.35772 0.60907
 C560 C 0.85141 0.34495 0.64590
 C561 C 0.88854 0.35775 0.65973
 C562 C 0.90999 0.38256 0.63878
 C563 C 0.89551 0.39554 0.60319
 C564 C 0.85967 0.38255 0.58828
 H565 H 0.81153 0.34805 0.59486
 H566 H 0.90063 0.35076 0.68799
 H567 H 0.93759 0.39225 0.65109
 H568 H 0.84812 0.39168 0.56046
 C569 C 0.33302 -0.13682 0.61520
 C570 C 0.35223 -0.15485 0.64575
 C571 C 0.39257 -0.14756 0.65367
 C572 C 0.41274 -0.12211 0.63248
 C573 C 0.39320 -0.10373 0.60259
 C574 C 0.35338 -0.11169 0.59369
 H575 H 0.30183 -0.14129 0.60866
 H576 H 0.40855 -0.16139 0.67641
 H577 H 0.44360 -0.11667 0.63967
 H578 H 0.33757 -0.09777 0.57088
 C579 C 0.38443 0.36419 0.16407
 C580 C 0.35227 0.34666 0.14660
 C581 C 0.34252 0.35421 0.10735
 C582 C 0.36373 0.37928 0.08648
 C583 C 0.39543 0.39697 0.10426
 C584 C 0.40592 0.38887 0.14304
 H585 H 0.39238 0.35960 0.19441
 H586 H 0.31847 0.34078 0.09269
 H587 H 0.35524 0.38489 0.05648
 H588 H 0.43013 0.40227 0.15753
 C589 C 0.83289 0.13800 -0.11526
 C590 C 0.85021 0.15338 -0.14855
 C591 C 0.88976 0.14453 -0.15853
 C592 C 0.91095 0.12012 -0.13655
 C593 C 0.89324 0.10421 -0.10391
 C594 C 0.85424 0.11377 -0.09309
 H595 H 0.80238 0.14386 -0.10697
 H596 H 0.90436 0.15640 -0.18345
 H597 H 0.94112 0.11346 -0.14535
 H598 H 0.83981 0.10185 -0.06809
 C599 C 0.89713 0.64793 0.34620
 C600 C 0.85776 0.65721 0.35628
 C601 C 0.83990 0.64135 0.38902
 C602 C 0.86048 0.61615 0.41043
 C603 C 0.89921 0.60608 0.39937
 C604 C 0.91756 0.62253 0.36742
 H605 H 0.91210 0.66010 0.32168
 H606 H 0.80946 0.64750 0.39733
 H607 H 0.84560 0.60384 0.43492
 H608 H 0.94758 0.61549 0.35850
 C609 C 0.33565 0.14179 0.38702
 C610 C 0.34900 0.15265 0.34943
 C611 C 0.38590 0.13872 0.33608
 C612 C 0.40724 0.11462 0.35826
 C613 C 0.39278 0.10340 0.39459
 C614 C 0.35713 0.11753 0.40900
 H615 H 0.30733 0.14994 0.39914
 H616 H 0.39986 0.14704 0.30913
 H617 H 0.43513 0.10459 0.34669
 H618 H 0.34519 0.10921 0.43699
 C619 C 0.39403 0.64841 -0.15347
 C620 C 0.35362 0.65553 -0.14514
 C621 C 0.33506 0.63752 -0.11425
 C622 C 0.35610 0.61264 -0.09282
 C623 C 0.39596 0.60482 -0.10214
 C624 C 0.41487 0.62314 -0.13239
 H625 H 0.40961 0.66225 -0.17641
 H626 H 0.30387 0.64181 -0.10735
 H627 H 0.34074 0.59878 -0.06972
 H628 H 0.44575 0.61783 -0.13989
 C629 C 1.10611 -0.14786 -0.15494
 C630 C 1.14735 -0.15190 -0.14910
 C631 C 1.16661 -0.13201 -0.12046
 C632 C 1.14503 -0.10812 -0.09813
 C633 C 1.10401 -0.10314 -0.10477
 C634 C 1.08463 -0.12333 -0.13320
 H635 H 1.09087 -0.16296 -0.17708
 H636 H 1.19844 -0.13486 -0.11561
 H637 H 1.16069 -0.09281 -0.07647
 H638 H 1.05300 -0.12000 -0.13874
 C639 C 1.10979 0.35191 0.34638
 C640 C 1.15095 0.34745 0.35241
 C641 C 1.17028 0.36715 0.38120
 C642 C 1.14887 0.39127 0.40339
 C643 C 1.10796 0.39664 0.39650
 C644 C 1.08851 0.37663 0.36798
 H645 H 1.09443 0.33701 0.32414
 H646 H 1.20202 0.36397 0.38632
 H647 H 1.16458 0.40643 0.42515
 H648 H 1.05695 0.38026 0.36225
 C649 C 0.61580 -0.13229 0.33039
 C650 C 0.64452 -0.15332 0.34857
 C651 C 0.65077 -0.15037 0.38915
 C652 C 0.62946 -0.12585 0.41105
 C653 C 0.60096 -0.10456 0.39277
 C654 C 0.59384 -0.10840 0.35239
 H655 H 0.61057 -0.13427 0.29910
 H656 H 0.67299 -0.16631 0.40361
 H657 H 0.63537 -0.12341 0.44217
 H658 H 0.57211 -0.09222 0.33758
 C659 C 0.67017 0.36936 -0.12167
 C660 C 0.65055 0.34880 -0.14951
 C661 C 0.60909 0.35226 -0.15429
 C662 C 0.58775 0.37678 -0.13240
 C663 C 0.60743 0.39757 -0.10475
 C664 C 0.64871 0.39325 -0.09913
 H665 H 0.70214 0.36697 -0.11751
 H666 H 0.59348 0.33670 -0.17575
 H667 H 0.55591 0.37958 -0.13717
 H668 H 0.66461 0.40903 -0.07810
 C669 C 1.11134 0.15114 -0.14563
 C670 C 1.15357 0.14990 -0.14558
 C671 C 1.17239 0.12376 -0.12328
 C672 C 1.14995 0.09989 -0.10198
 C673 C 1.10814 0.10065 -0.10334
 C674 C 1.08896 0.12635 -0.12539
 H675 H 1.09530 0.17009 -0.16293
 H676 H 1.20459 0.12228 -0.12096
 H677 H 1.16540 0.08033 -0.08498
 H678 H 1.05665 0.12736 -0.12681
 C679 C 1.11257 0.64752 0.34936
 C680 C 1.15370 0.65159 0.35588
 C681 C 1.17257 0.63138 0.38466
 C682 C 1.15078 0.60723 0.40630
 C683 C 1.10992 0.60233 0.39892
 C684 C 1.09093 0.62282 0.37043
 H685 H 1.09749 0.66273 0.32714
 H686 H 1.20424 0.63422 0.39026
 H687 H 1.16616 0.59173 0.42806
 H688 H 1.05942 0.61959 0.36429
 C689 C 0.65576 0.14536 0.39520
 C690 C 0.64476 0.15524 0.35696
 C691 C 0.61134 0.13948 0.33961
 C692 C 0.59008 0.11391 0.35959
 C693 C 0.60198 0.10333 0.39722
 C694 C 0.63471 0.11957 0.41503
 H695 H 0.68082 0.15741 0.40979
 H696 H 0.60232 0.14607 0.31004
 H697 H 0.56498 0.10178 0.34514
 H698 H 0.64428 0.11214 0.44419
 C699 C 0.67244 0.62275 -0.12764
 C700 C 0.65323 0.65012 -0.14759
 C701 C 0.61120 0.65275 -0.14458
 C702 C 0.58924 0.62804 -0.12379
 C703 C 0.60882 0.60112 -0.10408
 C704 C 0.65055 0.59900 -0.10563
 H705 H 0.70465 0.62017 -0.12775
 H706 H 0.59486 0.67277 -0.15997
 H707 H 0.55696 0.63006 -0.12291
 H708 H 0.66626 0.57844 -0.09047
 C709 C 0.83109 -0.13483 -0.11477
 C710 C 0.84829 -0.15086 -0.14780
 C711 C 0.88784 -0.14250 -0.15804
 C712 C 0.90918 -0.11797 -0.13655
 C713 C 0.89161 -0.10149 -0.10411
 C714 C 0.85259 -0.11051 -0.09307
 H715 H 0.80059 -0.14030 -0.10629
 H716 H 0.90236 -0.15488 -0.18276
 H717 H 0.93936 -0.11174 -0.14550
 H718 H 0.83828 -0.09813 -0.06822
 C719 C 0.84362 0.35476 0.39394
 C720 C 0.85364 0.34653 0.35492
 C721 C 0.88639 0.36331 0.33747
 C722 C 0.90805 0.38810 0.35825
 C723 C 0.89719 0.39695 0.39676
 C724 C 0.86503 0.37983 0.41455
 H725 H 0.81912 0.34189 0.40859
 H726 H 0.89462 0.35808 0.30731
 H727 H 0.93265 0.40100 0.34377
 H728 H 0.85624 0.38595 0.44436
 C729 C 0.32371 -0.12290 0.37382
 C730 C 0.34282 -0.15037 0.35350
 C731 C 0.38505 -0.15254 0.35639
 C732 C 0.40690 -0.12768 0.37696
 C733 C 0.38733 -0.10084 0.39676
 C734 C 0.34562 -0.09900 0.39562
 H735 H 0.29155 -0.12042 0.37484
 H736 H 0.40202 -0.17195 0.34066
 H737 H 0.43921 -0.12945 0.37744
 H738 H 0.32989 -0.07854 0.41099
 C739 C 0.38944 0.35290 -0.15235
 C740 C 0.34845 0.34883 -0.14491
 C741 C 0.33011 0.36915 -0.11590
 C742 C 0.35228 0.39335 -0.09482
 C743 C 0.39303 0.39822 -0.10297
 C744 C 0.41150 0.37770 -0.13182
 H745 H 0.40408 0.33756 -0.17479
 H746 H 0.29856 0.36631 -0.10962
 H747 H 0.33728 0.40886 -0.07277
 H748 H 0.44290 0.38090 -0.13854
 C749 C 1.10936 -0.14310 0.16018
 C750 C 1.14606 -0.15575 0.14596
 C751 C 1.16021 -0.14367 0.10961
 C752 C 1.13877 -0.11878 0.08855
 C753 C 1.10272 -0.10542 0.10337
 C754 C 1.08792 -0.11817 0.13910
 H755 H 1.09784 -0.15161 0.18825
 H756 H 1.18805 -0.15331 0.09756
 H757 H 1.15077 -0.10960 0.06095
 H758 H 1.06019 -0.10835 0.15122
 C759 C 1.11136 0.35488 0.65950
 C760 C 1.14823 0.34240 0.64553
 C761 C 1.16284 0.35484 0.60953
 C762 C 1.14166 0.37997 0.58858
 C763 C 1.10547 0.39318 0.60322
 C764 C 1.09020 0.38001 0.63856
 H765 H 1.09951 0.34610 0.68733
 H766 H 1.19084 0.34534 0.59770
 H767 H 1.15400 0.38949 0.56127
 H768 H 1.06234 0.38971 0.65051
 C769 C 0.65581 -0.14813 0.60520
 C770 C 0.64366 -0.15820 0.64302
 C771 C 0.60891 -0.14330 0.65908
 C772 C 0.58758 -0.11812 0.63834
 C773 C 0.60064 -0.10722 0.60120
 C774 C 0.63458 -0.12285 0.58455
 H775 H 0.68199 -0.15956 0.59167
 H776 H 0.59897 -0.15017 0.68829
 H777 H 0.56149 -0.10652 0.65187
 H778 H 0.64510 -0.11516 0.55580
 C779 C 0.67061 0.36924 0.12104
 C780 C 0.65124 0.34859 0.14897
 C781 C 0.60980 0.35191 0.15413
 C782 C 0.58822 0.37639 0.13252
 C783 C 0.60766 0.39728 0.10479
 C784 C 0.64892 0.39310 0.09878
 H785 H 0.70256 0.36695 0.11662
 H786 H 0.59441 0.33627 0.17570
 H787 H 0.55641 0.37911 0.13758
 H788 H 0.66462 0.40897 0.07767
 C789 C 0.83370 0.13837 0.11591
 C790 C 0.85025 0.15264 0.15017
 C791 C 0.88910 0.14268 0.16124
 C792 C 0.91039 0.11829 0.13926
 C793 C 0.89341 0.10349 0.10561
 C794 C 0.85511 0.11411 0.09381
 H795 H 0.80370 0.14515 0.10679
 H796 H 0.90306 0.15367 0.18701
 H797 H 0.94001 0.11077 0.14886
 H798 H 0.84126 0.10307 0.06801
 C799 C 0.88643 0.63632 0.66543
 C800 C 0.85350 0.65329 0.64837
 C801 C 0.84325 0.64531 0.60937
 C802 C 0.86464 0.62029 0.58840
 C803 C 0.89699 0.60297 0.60581
 C804 C 0.90805 0.61157 0.64430
 H805 H 0.89484 0.64137 0.69555
 H806 H 0.81858 0.65833 0.59504
 H807 H 0.85569 0.61434 0.55863
 H808 H 0.93280 0.59852 0.65850
 C809 C 0.33892 0.14431 0.61075
 C810 C 0.35320 0.15581 0.64726
 C811 C 0.38975 0.14271 0.66123
 C812 C 0.41087 0.11783 0.63976
 C813 C 0.39588 0.10559 0.60390
 C814 C 0.36004 0.11946 0.58930
 H815 H 0.31120 0.15433 0.59891
 H816 H 0.40134 0.15081 0.68941
 H817 H 0.43846 0.10760 0.65169
 H818 H 0.34792 0.11068 0.56160
 C819 C 0.33889 0.64353 0.10910
 C820 C 0.35310 0.65616 0.14515
 C821 C 0.38982 0.64372 0.15949
 C822 C 0.41122 0.61845 0.13883
 C823 C 0.39636 0.60517 0.10340
 C824 C 0.36031 0.61833 0.08844
 H825 H 0.31102 0.65298 0.09699
 H826 H 0.40137 0.65267 0.18735
 H827 H 0.43896 0.60880 0.15103
 H828 H 0.34826 0.60874 0.06106
   
