data_POSCAR
  _audit_creation_date              2014-09-24
  _audit_creation_method            'ToBaCCo'
  _symmetry_space_group_name_H-M    'P1'
  _symmetry_Int_Tables_number       1
  _symmetry_cell_setting            triclinic
  loop_
  _symmetry_equiv_pos_as_xyz
 x,y,z
_cell_length_a 16.6282
_cell_length_b 16.5936
_cell_length_c 29.5183
_cell_angle_alpha 89.972600
_cell_angle_beta 90.017700
_cell_angle_gamma 120.034800
loop_
  _atom_site_label
  _atom_site_type_symbol
  _atom_site_fract_x
  _atom_site_fract_y
  _atom_site_fract_z
Zn1 Zn 0.94160 0.06218 1.02017
 Zn2 Zn 1.11987 0.05784 1.02042
 Zn3 Zn 0.93701 -0.12096 1.01953
 Zn4 Zn 1.00071 0.00137 0.93810
 O5 O 0.99980 0.00009 0.99971
 O6 O 1.01549 0.15940 1.05530
 O7 O 1.14241 -0.01712 1.05518
 O8 O 0.83959 -0.14462 1.05449
 O9 O 1.14795 0.15766 1.05474
 O10 O 0.84162 -0.00999 1.05415
 O11 O 1.00824 -0.15002 1.05357
 O12 O 0.94176 -0.11216 0.91414
 O13 O 1.20470 0.09770 0.97574
 O14 O 0.89234 -0.20457 0.97415
 O15 O 1.11485 0.05634 0.91488
 O16 O 0.94629 0.06091 0.91466
 O17 O 0.90242 0.10753 0.97532
 C18 C 1.09939 0.19290 1.06750
 C19 C 1.09178 -0.10160 1.06673
 C20 C 0.80629 -0.09402 1.06679
 C21 C 0.89906 -0.19265 0.93158
 C22 C 1.19444 0.09341 0.93307
 C23 C 0.90806 0.10250 0.93268
 Zn24 Zn 0.06224 0.94154 0.52010
 Zn25 Zn -0.12041 0.93769 0.52011
 Zn26 Zn 0.05851 1.12071 0.52019
 Zn27 Zn 0.00015 1.00017 0.43842
 O28 O 0.00012 1.00002 0.49991
 O29 O -0.00985 0.84126 0.55407
 O30 O -0.14819 1.00960 0.55442
 O31 O 0.15813 1.14850 0.55442
 O32 O -0.14401 0.83968 0.55479
 O33 O 0.15954 1.01555 0.55515
 O34 O -0.01546 1.14402 0.55512
 O35 O 0.05537 1.11390 0.41491
 O36 O -0.20473 0.89336 0.47506
 O37 O 0.09834 1.20541 0.47519
 O38 O -0.11328 0.94190 0.41482
 O39 O 0.05848 0.94505 0.41481
 O40 O 0.10707 0.90206 0.47504
 C41 C -0.09370 0.80586 0.56673
 C42 C -0.09943 1.09350 0.56725
 C43 C 0.19314 1.09970 0.56725
 C44 C 0.09342 1.19413 0.43258
 C45 C -0.19338 0.89986 0.43246
 C46 C 0.10066 0.90707 0.43244
 O47 O 0.19809 0.53586 0.30193
 O48 O 0.19384 0.68898 0.28717
 C49 C 0.25129 0.76031 0.30935
 O50 O 0.33794 0.80318 0.30211
 O51 O 0.49519 0.80782 0.28750
 C52 C 0.50901 0.75016 0.30953
 O53 O 0.46514 0.66340 0.30215
 O54 O 0.31236 0.50597 0.28746
 C55 C 0.24091 0.49206 0.30942
 O56 O 0.19427 0.50576 0.21198
 O57 O 0.19763 0.66310 0.19759
 C58 C 0.24045 0.74995 0.19023
 O59 O 0.31223 0.80763 0.21211
 O60 O 0.46604 0.80460 0.19793
 C61 C 0.50987 0.76174 0.19050
 O62 O 0.49539 0.68949 0.21216
 O63 O 0.33855 0.53533 0.19789
 C64 C 0.25193 0.49121 0.19045
 Cr65 Cr 0.20116 0.60096 0.24966
 Cr66 Cr 0.40017 0.80060 0.24990
 Cr67 Cr 0.40034 0.60124 0.24990
 O68 O 0.33390 0.66759 0.24960
 O69 O 0.80542 0.49551 0.78641
 O70 O 0.80334 0.33939 0.80158
 C71 C 0.76152 0.25280 0.80945
 O72 O 0.69014 0.19393 0.78778
 O73 O 0.53650 0.19634 0.80288
 C74 C 0.49186 0.23829 0.81032
 O75 O 0.50436 0.30919 0.78813
 O76 O 0.66110 0.46360 0.80207
 C77 C 0.74791 0.50871 0.80885
 O78 O 0.80029 0.46428 0.69696
 O79 O 0.80602 0.31169 0.71172
 C80 C 0.74851 0.23877 0.69048
 O81 O 0.66203 0.19539 0.69824
 O82 O 0.50456 0.19053 0.71298
 C83 C 0.48927 0.24756 0.69116
 O84 O 0.53225 0.33443 0.69844
 O85 O 0.68526 0.49293 0.71196
 C86 C 0.75689 0.50765 0.68982
 Cr87 Cr 0.79858 0.39998 0.74918
 Cr88 Cr 0.60076 0.19924 0.75044
 Cr89 Cr 0.59844 0.39755 0.75013
 O90 O 0.66591 0.33223 0.74972
 C91 C 0.16539 0.41366 0.11186
 C92 C 0.21965 0.37317 0.08706
 C93 C 0.14136 0.27442 0.09883
 C94 C 0.08664 0.31383 0.12314
 C95 C 0.19031 0.27578 0.14326
 C96 C 0.26916 0.37556 0.13196
 C97 C 0.21432 0.41484 0.15624
 C98 C 0.13609 0.31596 0.16788
 H99 H 0.15572 0.47132 0.09931
 H100 H 0.25353 0.39580 0.05343
 H101 H 0.01114 0.28782 0.11935
 H102 H 0.20009 0.21825 0.15593
 H103 H 0.34466 0.40167 0.13587
 H104 H 0.10214 0.29313 0.20150
 C105 C 0.62497 0.89417 0.13164
 C106 C 0.72452 0.91465 0.14266
 C107 C 0.72511 0.86656 0.09824
 C108 C 0.62659 0.84655 0.08675
 C109 C 0.68574 0.77240 0.12271
 C110 C 0.68437 0.82021 0.16744
 C111 C 0.58571 0.80000 0.15608
 C112 C 0.58612 0.75176 0.11172
 H113 H 0.59929 0.94396 0.13560
 H114 H 0.78225 0.98199 0.15514
 H115 H 0.60371 0.85775 0.05318
 H116 H 0.71134 0.72251 0.11887
 H117 H 0.70746 0.80914 0.20101
 H118 H 0.52825 0.68437 0.09936
 C119 C 0.17545 0.75403 0.10661
 C120 C 0.08273 0.75372 0.11318
 C121 C 0.13110 0.85611 0.09794
 C122 C 0.22315 0.85698 0.09086
 C123 C 0.15782 0.88927 0.14711
 C124 C 0.10999 0.78657 0.16274
 C125 C 0.20205 0.78744 0.15577
 C126 C 0.25029 0.88980 0.14048
 H127 H 0.18320 0.69799 0.09035
 H128 H 0.01339 0.69802 0.10168
 H129 H 0.26929 0.88639 0.06094
 H130 H 0.15015 0.94523 0.16353
 H131 H 0.06388 0.75729 0.19269
 H132 H 0.31964 0.94564 0.15190
 C133 C 0.74664 0.63773 0.64007
 C134 C 0.83903 0.72997 0.64693
 C135 C 0.86627 0.72394 0.59782
 C136 C 0.77430 0.63250 0.59050
 C137 C 0.91452 0.67001 0.61315
 C138 C 0.88677 0.67521 0.66262
 C139 C 0.79481 0.58374 0.65542
 C140 C 0.82192 0.57736 0.60633
 H141 H 0.67716 0.62382 0.65135
 H142 H 0.84653 0.79352 0.66340
 H143 H 0.72847 0.61580 0.56046
 H144 H 0.98399 0.68398 0.60182
 H145 H 0.93259 0.69203 0.69268
 H146 H 0.81435 0.51365 0.59002
 C147 C 0.35991 0.10735 0.64112
 C148 C 0.26764 0.10729 0.64774
 C149 C 0.27431 0.14122 0.59868
 C150 C 0.36577 0.14090 0.59161
 C151 C 0.32772 0.24336 0.61429
 C152 C 0.32189 0.20976 0.66372
 C153 C 0.41337 0.20947 0.65675
 C154 C 0.42036 0.24359 0.60771
 H155 H 0.37376 0.05159 0.65238
 H156 H 0.20404 0.05089 0.66396
 H157 H 0.38296 0.11215 0.56158
 H158 H 0.31382 0.29905 0.60299
 H159 H 0.30460 0.23837 0.69378
 H160 H 0.48409 0.30007 0.59163
 C161 C 0.83442 0.24792 0.61168
 C162 C 0.91354 0.22751 0.62277
 C163 C 0.85878 0.13301 0.59863
 C164 C 0.78013 0.15280 0.58705
 C165 C 0.81045 0.08549 0.64321
 C166 C 0.86471 0.18026 0.66766
 C167 C 0.78612 0.20025 0.65621
 C168 C 0.73124 0.10574 0.63210
 H169 H 0.84372 0.31512 0.59909
 H170 H 0.98894 0.27740 0.61877
 H171 H 0.74584 0.14110 0.55351
 H172 H 0.80105 0.01833 0.65593
 H173 H 0.89907 0.19183 0.70119
 H174 H 0.65585 0.05595 0.63621
 C175 C 0.31440 0.15865 0.83180
 C176 C 0.28873 0.07651 0.86452
 C177 C 0.27735 0.13278 0.90283
 C178 C 0.30231 0.21451 0.87042
 C179 C 0.37987 0.17422 0.91642
 C180 C 0.39226 0.11837 0.87756
 C181 C 0.41697 0.20015 0.84516
 C182 C 0.40587 0.25655 0.88349
 H183 H 0.28821 0.15255 0.79663
 H184 H 0.23970 0.00205 0.85699
 H185 H 0.26453 0.25370 0.86777
 H186 H 0.40597 0.18025 0.95159
 H187 H 0.43008 0.07923 0.88018
 H188 H 0.45501 0.33104 0.89089
 C189 C 0.89029 0.65224 0.84994
 C190 C 0.87166 0.73455 0.84905
 C191 C 0.85660 0.72518 0.90066
 C192 C 0.87556 0.64355 0.90187
 C193 C 0.75203 0.65783 0.89410
 C194 C 0.76681 0.66641 0.84210
 C195 C 0.78571 0.58476 0.84323
 C196 C 0.77031 0.57485 0.89476
 H197 H 0.94720 0.64965 0.83157
 H198 H 0.91365 0.80066 0.83022
 H199 H 0.92074 0.63497 0.92679
 H200 H 0.69562 0.66105 0.91262
 H201 H 0.72169 0.67507 0.81717
 H202 H 0.72814 0.50821 0.91312
 C203 C 0.88171 0.27451 0.87666
 C204 C 0.82636 0.20626 0.91563
 C205 C 0.86851 0.14564 0.90226
 C206 C 0.92431 0.21331 0.86383
 C207 C 0.78713 0.08809 0.86989
 C208 C 0.74437 0.14914 0.88275
 C209 C 0.80028 0.21667 0.84431
 C210 C 0.84249 0.15606 0.83115
 H211 H 0.92022 0.35162 0.87911
 H212 H 0.82012 0.22647 0.95074
 H213 H 0.99874 0.23927 0.85634
 H214 H 0.74857 0.01098 0.86740
 H215 H 0.66991 0.12325 0.89012
 H216 H 0.84882 0.13586 0.79605
 C217 C 0.57447 0.77105 0.39555
 C218 C 0.65755 0.75317 0.39459
 C219 C 0.72439 0.85786 0.40168
 C220 C 0.64268 0.87644 0.40320
 C221 C 0.73386 0.87418 0.35015
 C222 C 0.66626 0.76924 0.34268
 C223 C 0.58451 0.78773 0.34410
 C224 C 0.65147 0.89242 0.35134
 H225 H 0.50793 0.72815 0.41377
 H226 H 0.66097 0.69636 0.41274
 H227 H 0.63382 0.92096 0.42844
 H228 H 0.79983 0.91689 0.33143
 H229 H 0.67524 0.72480 0.31743
 H230 H 0.64865 0.94971 0.33334
 C231 C 0.19646 0.42671 0.39551
 C232 C 0.09558 0.34321 0.39462
 C233 C 0.13350 0.27654 0.40180
 C234 C 0.23372 0.35867 0.40325
 C235 C 0.14025 0.26695 0.35027
 C236 C 0.10282 0.33437 0.34272
 C237 C 0.20299 0.41653 0.34408
 C238 C 0.24080 0.34974 0.35140
 H239 H 0.22009 0.49342 0.41368
 H240 H 0.03540 0.33961 0.41276
 H241 H 0.28715 0.36783 0.42849
 H242 H 0.11702 0.20083 0.33160
 H243 H 0.04936 0.32508 0.31746
 H244 H 0.30085 0.35272 0.33341
 C245 C 0.23200 0.89848 0.34280
 C246 C 0.12719 0.86102 0.35007
 C247 C 0.14297 0.86719 0.40164
 C248 C 0.24752 0.90513 0.39474
 C249 C 0.12446 0.76669 0.40290
 C250 C 0.10902 0.76020 0.35102
 C251 C 0.21357 0.79803 0.34397
 C252 C 0.22971 0.80398 0.39545
 H253 H 0.27659 0.95231 0.31772
 H254 H 0.08474 0.88459 0.33135
 H255 H 0.30402 0.96519 0.41308
 H256 H 0.07980 0.71290 0.42798
 H257 H 0.05203 0.70027 0.33282
 H258 H 0.27236 0.78002 0.41367
   
