data_POSCAR
  _audit_creation_date              2014-09-24
  _audit_creation_method            'ToBaCCo'
  _symmetry_space_group_name_H-M    'P1'
  _symmetry_Int_Tables_number       1
  _symmetry_cell_setting            triclinic
  loop_
  _symmetry_equiv_pos_as_xyz
 x,y,z
_cell_length_a 56.1773
_cell_length_b 56.2804
_cell_length_c 56.4146
_cell_angle_alpha 89.999100
_cell_angle_beta 89.994400
_cell_angle_gamma 90.001000
loop_
  _atom_site_label
  _atom_site_type_symbol
  _atom_site_fract_x
  _atom_site_fract_y
  _atom_site_fract_z
N1 N 0.28794 0.24024 0.22172
 N2 N 0.27818 0.25927 0.21238
 C3 C 0.29078 0.26578 0.19313
 C4 C 0.30956 0.25001 0.19023
 C5 C 0.30708 0.23403 0.20879
 H6 H 0.28660 0.28090 0.18211
 H7 H 0.31836 0.21900 0.21276
 Cu8 Cu 0.25006 0.27372 0.22652
 Cu9 Cu 0.27518 0.22488 0.24996
 Cu10 Cu 0.22476 0.25003 0.27504
 N11 N 0.22156 0.28752 0.24054
 N12 N 0.21184 0.27819 0.25957
 C13 C 0.19265 0.29110 0.26572
 C14 C 0.19007 0.30961 0.24969
 C15 C 0.20881 0.30667 0.23392
 H16 H 0.18150 0.28724 0.28084
 H17 H 0.21293 0.31767 0.21877
 N18 N 0.24045 0.22154 0.28807
 N19 N 0.25963 0.21197 0.27854
 C20 C 0.26598 0.19281 0.29137
 C21 C 0.25004 0.19010 0.30994
 C22 C 0.23411 0.20871 0.30720
 H23 H 0.28111 0.18167 0.28740
 H24 H 0.21894 0.21267 0.31828
 H25 H 0.24043 0.23585 0.24507
 H26 H 0.25961 0.25491 0.26429
 N27 N 0.71172 -0.24065 0.22137
 N28 N 0.72148 -0.25967 0.21201
 C29 C 0.70876 -0.26626 0.19286
 C30 C 0.68992 -0.25049 0.18993
 C31 C 0.69252 -0.23447 0.20852
 H32 H 0.71303 -0.28142 0.18191
 H33 H 0.68139 -0.21937 0.21256
 Cu34 Cu 0.74997 -0.27374 0.22580
 Cu35 Cu 0.72459 -0.22520 0.24953
 Cu36 Cu 0.77500 -0.25033 0.27462
 N37 N 0.77811 -0.28791 0.24019
 N38 N 0.78781 -0.27860 0.25923
 C39 C 0.80694 -0.29154 0.26546
 C40 C 0.80955 -0.31015 0.24946
 C41 C 0.79077 -0.30716 0.23367
 H42 H 0.81805 -0.28753 0.28056
 H43 H 0.78655 -0.31809 0.21851
 N44 N 0.75940 -0.22175 0.28755
 N45 N 0.74022 -0.21219 0.27801
 C46 C 0.73387 -0.19302 0.29083
 C47 C 0.74979 -0.19029 0.30941
 C48 C 0.76574 -0.20890 0.30668
 H49 H 0.71871 -0.18191 0.28688
 H50 H 0.78087 -0.21288 0.31779
 H51 H 0.75945 -0.23596 0.24472
 H52 H 0.74027 -0.25529 0.26366
 N53 N 0.71205 0.24080 0.77799
 N54 N 0.72151 0.26012 0.78703
 C55 C 0.70880 0.26672 0.80619
 C56 C 0.69032 0.25064 0.80938
 C57 C 0.69304 0.23445 0.79104
 H58 H 0.71278 0.28203 0.81703
 H59 H 0.68210 0.21910 0.78739
 Cu60 Cu 0.74983 0.27426 0.77294
 Cu61 Cu 0.72503 0.22518 0.74995
 Cu62 Cu 0.77548 0.25035 0.72483
 N63 N 0.77816 0.28839 0.75884
 N64 N 0.78816 0.27880 0.74010
 C65 C 0.80748 0.29158 0.73408
 C66 C 0.80991 0.31036 0.74992
 C67 C 0.79081 0.30764 0.76540
 H68 H 0.81886 0.28731 0.71925
 H69 H 0.78639 0.31873 0.78038
 N70 N 0.75996 0.22161 0.71201
 N71 N 0.74078 0.21206 0.72156
 C72 C 0.73442 0.19288 0.70876
 C73 C 0.75033 0.19014 0.69017
 C74 C 0.76629 0.20875 0.69288
 H75 H 0.71924 0.18179 0.71270
 H76 H 0.78139 0.21273 0.68173
 H77 H 0.75979 0.23619 0.75481
 H78 H 0.74063 0.25497 0.73538
 N79 N 0.28824 -0.24084 0.77842
 N80 N 0.27877 -0.26016 0.78747
 C81 C 0.29149 -0.26676 0.80663
 C82 C 0.30997 -0.25069 0.80981
 C83 C 0.30725 -0.23449 0.79147
 H84 H 0.28750 -0.28206 0.81747
 H85 H 0.31819 -0.21914 0.78781
 Cu86 Cu 0.25044 -0.27429 0.77339
 Cu87 Cu 0.27526 -0.22522 0.75039
 Cu88 Cu 0.22481 -0.25039 0.72527
 N89 N 0.22211 -0.28843 0.75928
 N90 N 0.21213 -0.27883 0.74054
 C91 C 0.19281 -0.29160 0.73450
 C92 C 0.19037 -0.31038 0.75034
 C93 C 0.20946 -0.30768 0.76583
 H94 H 0.18144 -0.28732 0.71967
 H95 H 0.21386 -0.31878 0.78081
 N96 N 0.24032 -0.22166 0.71245
 N97 N 0.25950 -0.21210 0.72200
 C98 C 0.26586 -0.19292 0.70919
 C99 C 0.24994 -0.19019 0.69060
 C100 C 0.23399 -0.20880 0.69333
 H101 H 0.28104 -0.18183 0.71311
 H102 H 0.21889 -0.21279 0.68218
 H103 H 0.24050 -0.23623 0.75526
 H104 H 0.25967 -0.25502 0.73583
 N105 N 0.71209 -0.24072 0.77818
 N106 N 0.72157 -0.26004 0.78722
 C107 C 0.70889 -0.26664 0.80639
 C108 C 0.69042 -0.25057 0.80960
 C109 C 0.69310 -0.23438 0.79125
 H110 H 0.71289 -0.28194 0.81723
 H111 H 0.68215 -0.21903 0.78762
 Cu112 Cu 0.74986 -0.27416 0.77312
 Cu113 Cu 0.72503 -0.22511 0.75013
 Cu114 Cu 0.77546 -0.25028 0.72496
 N115 N 0.77814 -0.28828 0.75899
 N116 N 0.78812 -0.27869 0.74024
 C117 C 0.80743 -0.29146 0.73420
 C118 C 0.80986 -0.31022 0.75005
 C119 C 0.79079 -0.30752 0.76555
 H120 H 0.81879 -0.28720 0.71936
 H121 H 0.78640 -0.31860 0.78055
 N122 N 0.75993 -0.22157 0.71216
 N123 N 0.74076 -0.21201 0.72172
 C124 C 0.73439 -0.19285 0.70891
 C125 C 0.75029 -0.19014 0.69030
 C126 C 0.76624 -0.20873 0.69302
 H127 H 0.71922 -0.18176 0.71285
 H128 H 0.78134 -0.21273 0.68186
 H129 H 0.74064 -0.25493 0.73555
 H130 H 0.75982 -0.23613 0.75495
 N131 N 0.28813 0.24036 0.77820
 N132 N 0.27837 0.25940 0.78753
 C133 C 0.29106 0.26599 0.80669
 C134 C 0.30983 0.25023 0.80958
 C135 C 0.30731 0.23420 0.79107
 H136 H 0.28687 0.28112 0.81770
 H137 H 0.31854 0.21912 0.78717
 Cu138 Cu 0.24988 0.27346 0.77380
 Cu139 Cu 0.27527 0.22489 0.75008
 Cu140 Cu 0.22487 0.25004 0.72500
 N141 N 0.22179 0.28764 0.75936
 N142 N 0.21208 0.27831 0.74034
 C143 C 0.19294 0.29127 0.73414
 C144 C 0.19040 0.30982 0.75012
 C145 C 0.20913 0.30689 0.76590
 H146 H 0.18174 0.28736 0.71907
 H147 H 0.21326 0.31788 0.78104
 N148 N 0.24045 0.22146 0.71209
 N149 N 0.25962 0.21189 0.72162
 C150 C 0.26597 0.19273 0.70880
 C151 C 0.25003 0.19002 0.69023
 C152 C 0.23410 0.20863 0.69296
 H153 H 0.28112 0.18160 0.71274
 H154 H 0.21897 0.21262 0.68185
 H155 H 0.25961 0.25495 0.73597
 H156 H 0.24043 0.23564 0.75492
 N157 N 0.28813 -0.24028 0.22180
 N158 N 0.27836 -0.25930 0.21244
 C159 C 0.29104 -0.26587 0.19326
 C160 C 0.30984 -0.25013 0.19041
 C161 C 0.30734 -0.23413 0.20895
 H162 H 0.28689 -0.28102 0.18228
 H163 H 0.31864 -0.21913 0.21294
 Cu164 Cu 0.25022 -0.27368 0.22653
 Cu165 Cu 0.27537 -0.22493 0.25004
 Cu166 Cu 0.22492 -0.25004 0.27506
 N167 N 0.22174 -0.28748 0.24053
 N168 N 0.21202 -0.27816 0.25956
 C169 C 0.19287 -0.29109 0.26575
 C170 C 0.19032 -0.30960 0.24973
 C171 C 0.20905 -0.30668 0.23396
 H172 H 0.18173 -0.28724 0.28087
 H173 H 0.21321 -0.31771 0.21885
 N174 N 0.24060 -0.22158 0.28809
 N175 N 0.25979 -0.21202 0.27858
 C176 C 0.26611 -0.19286 0.29140
 C177 C 0.25014 -0.19014 0.30995
 C178 C 0.23421 -0.20875 0.30719
 H179 H 0.28124 -0.18170 0.28745
 H180 H 0.21902 -0.21269 0.31825
 H181 H 0.25981 -0.25507 0.26437
 H182 H 0.24065 -0.23592 0.24519
 N183 N 0.71180 0.24029 0.22176
 N184 N 0.72124 0.25962 0.21272
 C185 C 0.70859 0.26616 0.19353
 C186 C 0.69015 0.25009 0.19032
 C187 C 0.69284 0.23390 0.20867
 H188 H 0.71255 0.28151 0.18273
 H189 H 0.68186 0.21858 0.21234
 Cu190 Cu 0.74911 0.27439 0.22694
 Cu191 Cu 0.72468 0.22485 0.24986
 Cu192 Cu 0.77502 0.24996 0.27491
 N193 N 0.77778 0.28784 0.24088
 N194 N 0.78779 0.27820 0.25960
 C195 C 0.80715 0.29092 0.26559
 C196 C 0.80952 0.30964 0.24978
 C197 C 0.79049 0.30703 0.23432
 H198 H 0.81857 0.28677 0.28042
 H199 H 0.78615 0.31825 0.21940
 N200 N 0.75947 0.22140 0.28783
 N201 N 0.74030 0.21183 0.27830
 C202 C 0.73396 0.19266 0.29112
 C203 C 0.74990 0.18996 0.30969
 C204 C 0.76583 0.20857 0.30696
 H205 H 0.71881 0.18153 0.28718
 H206 H 0.78097 0.21257 0.31806
 H207 H 0.74011 0.25482 0.26447
 H208 H 0.75931 0.23628 0.24474
 O209 O 0.23039 0.02296 0.47709
 O210 O 0.23045 -0.02326 0.52324
 O211 O 0.23040 0.02297 0.52320
 O212 O 0.23041 -0.02326 0.47711
 O213 O 0.26968 -0.02323 0.47709
 O214 O 0.26967 0.02300 0.52318
 O215 O 0.26971 -0.02323 0.52322
 O216 O 0.26966 0.02299 0.47707
 Cu217 Cu 0.22647 -0.00015 0.50017
 Cu218 Cu 0.27362 -0.00012 0.50014
 C219 C 0.25002 0.03090 0.46916
 C220 C 0.25009 -0.03116 0.53115
 C221 C 0.25003 0.03091 0.53109
 C222 C 0.25004 -0.03116 0.46919
 O223 O 0.76950 0.02295 0.52295
 O224 O 0.76943 -0.02330 0.47679
 O225 O 0.76950 0.02294 0.47682
 O226 O 0.76949 -0.02329 0.52294
 O227 O 0.73023 -0.02326 0.52297
 O228 O 0.73024 0.02297 0.47685
 O229 O 0.73017 -0.02326 0.47682
 O230 O 0.73024 0.02298 0.52298
 Cu231 Cu 0.77342 -0.00018 0.49987
 Cu232 Cu 0.72629 -0.00014 0.49991
 C233 C 0.74988 0.03090 0.53088
 C234 C 0.74979 -0.03119 0.46887
 C235 C 0.74987 0.03088 0.46893
 C236 C 0.74986 -0.03119 0.53087
 O237 O 0.47684 0.23106 0.02301
 O238 O 0.52317 0.23103 -0.02314
 O239 O 0.52315 0.23106 0.02300
 O240 O 0.47685 0.23107 -0.02311
 O241 O 0.47687 0.27027 -0.02311
 O242 O 0.52316 0.27025 0.02299
 O243 O 0.52318 0.27022 -0.02314
 O244 O 0.47687 0.27025 0.02300
 Cu245 Cu 0.50000 0.22712 -0.00006
 Cu246 Cu 0.50003 0.27418 -0.00007
 C247 C 0.46891 0.25067 0.03091
 C248 C 0.53111 0.25063 -0.03106
 C249 C 0.53108 0.25065 0.03090
 C250 C 0.46892 0.25068 -0.03101
 O251 O 0.52355 0.72973 0.02337
 O252 O 0.47722 0.72975 -0.02278
 O253 O 0.52354 0.72977 -0.02277
 O254 O 0.47724 0.72971 0.02335
 O255 O 0.47722 0.76890 0.02338
 O256 O 0.52354 0.76896 -0.02275
 O257 O 0.47720 0.76894 -0.02276
 O258 O 0.52354 0.76892 0.02340
 Cu259 Cu 0.50039 0.72581 0.00029
 Cu260 Cu 0.50038 0.77286 0.00032
 C261 C 0.53148 0.74931 0.03131
 C262 C 0.46927 0.74935 -0.03068
 C263 C 0.53147 0.74936 -0.03068
 C264 C 0.46929 0.74929 0.03127
 O265 O 0.02273 0.47723 0.22965
 O266 O -0.02359 0.52345 0.22958
 O267 O 0.02272 0.52341 0.22964
 O268 O -0.02353 0.47723 0.22964
 O269 O -0.02357 0.47726 0.26874
 O270 O 0.02270 0.52345 0.26874
 O271 O -0.02364 0.52350 0.26867
 O272 O 0.02272 0.47725 0.26875
 Cu273 Cu -0.00042 0.50034 0.22570
 Cu274 Cu -0.00046 0.50038 0.27266
 C275 C 0.03067 0.46932 0.24920
 C276 C -0.03157 0.53139 0.24910
 C277 C 0.03067 0.53132 0.24918
 C278 C -0.03145 0.46930 0.24919
 O279 O 0.02304 0.52345 0.73116
 O280 O -0.02335 0.47716 0.73110
 O281 O -0.02334 0.52345 0.73112
 O282 O 0.02298 0.47721 0.73115
 O283 O 0.02293 0.47720 0.77025
 O284 O -0.02336 0.52342 0.77022
 O285 O -0.02337 0.47716 0.77020
 O286 O 0.02299 0.52342 0.77025
 Cu287 Cu -0.00018 0.50033 0.72721
 Cu288 Cu -0.00021 0.50031 0.77414
 C289 C 0.03099 0.53134 0.75072
 C290 C -0.03129 0.46920 0.75065
 C291 C -0.03129 0.53136 0.75068
 C292 C 0.03089 0.46928 0.75070
 C293 C 0.36362 0.25064 0.13608
 C294 C 0.36374 0.23301 0.15355
 C295 C 0.34622 0.23280 0.17114
 C296 C 0.32824 0.25025 0.17153
 C297 C 0.32837 0.26794 0.15385
 C298 C 0.34593 0.26810 0.13628
 C299 C 0.38165 0.25076 0.11796
 C300 C 0.39677 0.25079 0.10280
 C301 C 0.41485 0.25077 0.08474
 C302 C 0.42367 0.22924 0.07598
 C303 C 0.44127 0.22918 0.05847
 C304 C 0.45028 0.25070 0.04947
 C305 C 0.44130 0.27226 0.05841
 C306 C 0.42370 0.27227 0.07592
 H307 H 0.37738 0.21940 0.15356
 H308 H 0.34688 0.21891 0.18435
 H309 H 0.31497 0.28172 0.15346
 H310 H 0.34568 0.28185 0.12283
 H311 H 0.41695 0.21250 0.08270
 H312 H 0.44782 0.21228 0.05198
 H313 H 0.44786 0.28912 0.05187
 H314 H 0.41699 0.28904 0.08259
 C315 C 0.63683 0.74929 0.13648
 C316 C 0.65448 0.73179 0.13665
 C317 C 0.67202 0.73180 0.15425
 C318 C 0.67223 0.74940 0.17211
 C319 C 0.65424 0.76694 0.17163
 C320 C 0.63677 0.76685 0.15399
 C321 C 0.61877 0.74923 0.11838
 C322 C 0.60362 0.74921 0.10324
 C323 C 0.58552 0.74922 0.08518
 C324 C 0.57669 0.72773 0.07635
 C325 C 0.55910 0.72773 0.05882
 C326 C 0.55010 0.74929 0.04989
 C327 C 0.55909 0.77081 0.05890
 C328 C 0.57669 0.77075 0.07643
 H329 H 0.65469 0.71810 0.12314
 H330 H 0.68528 0.71791 0.15365
 H331 H 0.65343 0.78087 0.18478
 H332 H 0.62317 0.78051 0.15403
 H333 H 0.58340 0.71096 0.08301
 H334 H 0.55254 0.71086 0.05229
 H335 H 0.55253 0.78770 0.05243
 H336 H 0.58339 0.78750 0.08315
 C337 C 0.63659 0.25069 -0.13609
 C338 C 0.63674 0.23290 -0.15339
 C339 C 0.65418 0.23285 -0.17107
 C340 C 0.67181 0.25066 -0.17174
 C341 C 0.67150 0.26844 -0.15416
 C342 C 0.65402 0.26844 -0.13650
 C343 C 0.61852 0.25075 -0.11801
 C344 C 0.60333 0.25074 -0.10291
 C345 C 0.58517 0.25071 -0.08491
 C346 C 0.57631 0.22918 -0.07617
 C347 C 0.55871 0.22912 -0.05865
 C348 C 0.54972 0.25064 -0.04964
 C349 C 0.55871 0.27220 -0.05858
 C350 C 0.57631 0.27220 -0.07610
 H351 H 0.62333 0.21905 -0.15323
 H352 H 0.65370 0.21883 -0.18414
 H353 H 0.68468 0.28243 -0.15393
 H354 H 0.65408 0.28229 -0.12316
 H355 H 0.58302 0.21243 -0.08289
 H356 H 0.55216 0.21223 -0.05216
 H357 H 0.55216 0.28906 -0.05204
 H358 H 0.58302 0.28897 -0.08276
 C359 C 0.36371 0.74927 -0.13568
 C360 C 0.34628 0.73153 -0.13607
 C361 C 0.32880 0.73152 -0.15373
 C362 C 0.32849 0.74930 -0.17132
 C363 C 0.34612 0.76710 -0.17065
 C364 C 0.36357 0.76706 -0.15298
 C365 C 0.38179 0.74922 -0.11759
 C366 C 0.39699 0.74922 -0.10249
 C367 C 0.41516 0.74926 -0.08450
 C368 C 0.42403 0.72777 -0.07570
 C369 C 0.44165 0.72777 -0.05819
 C370 C 0.45063 0.74933 -0.04925
 C371 C 0.44162 0.77085 -0.05824
 C372 C 0.42400 0.77079 -0.07575
 H373 H 0.34622 0.71767 -0.12274
 H374 H 0.31562 0.71753 -0.15350
 H375 H 0.34660 0.78112 -0.18373
 H376 H 0.37697 0.78091 -0.15283
 H377 H 0.41733 0.71099 -0.08237
 H378 H 0.44821 0.71091 -0.05167
 H379 H 0.44816 0.78774 -0.05175
 H380 H 0.41728 0.78753 -0.08245
 C381 C 0.13618 0.36409 0.24935
 C382 C 0.13612 0.34659 0.26695
 C383 C 0.15360 0.32892 0.26708
 C384 C 0.17147 0.32845 0.24956
 C385 C 0.17137 0.34622 0.23197
 C386 C 0.15385 0.36388 0.23188
 C387 C 0.11810 0.38221 0.24922
 C388 C 0.10293 0.39736 0.24916
 C389 C 0.08480 0.41542 0.24916
 C390 C 0.07594 0.42420 0.27063
 C391 C 0.05832 0.44174 0.27068
 C392 C 0.04931 0.45073 0.24920
 C393 C 0.05833 0.44177 0.22770
 C394 C 0.07595 0.42424 0.22771
 H395 H 0.12252 0.34659 0.28057
 H396 H 0.15298 0.31569 0.28095
 H397 H 0.18474 0.34661 0.21820
 H398 H 0.15407 0.37736 0.21817
 H399 H 0.08266 0.41748 0.28734
 H400 H 0.05176 0.44824 0.28752
 H401 H 0.05177 0.44831 0.21087
 H402 H 0.08267 0.41756 0.21098
 C403 C 0.13688 0.63638 0.75100
 C404 C 0.15478 0.63633 0.76821
 C405 C 0.17243 0.65388 0.76806
 C406 C 0.17251 0.67190 0.75062
 C407 C 0.15422 0.67168 0.73343
 C408 C 0.13664 0.65410 0.73366
 C409 C 0.11879 0.61824 0.75107
 C410 C 0.10359 0.60309 0.75103
 C411 C 0.08541 0.58504 0.75094
 C412 C 0.07656 0.57633 0.72944
 C413 C 0.05884 0.55886 0.72934
 C414 C 0.04974 0.54987 0.75078
 C415 C 0.05878 0.55874 0.77231
 C416 C 0.07649 0.57620 0.77236
 H417 H 0.15513 0.62270 0.78177
 H418 H 0.18590 0.65311 0.78171
 H419 H 0.15327 0.68499 0.71965
 H420 H 0.12283 0.65434 0.72025
 H421 H 0.08334 0.58304 0.71275
 H422 H 0.05229 0.55241 0.71247
 H423 H 0.05217 0.55220 0.78912
 H424 H 0.08321 0.58281 0.78911
 C425 C -0.13717 0.63650 0.24898
 C426 C -0.15483 0.63665 0.23155
 C427 C -0.17244 0.65422 0.23165
 C428 C -0.17271 0.67204 0.24928
 C429 C -0.15470 0.67158 0.26675
 C430 C -0.13714 0.65398 0.26656
 C431 C -0.11907 0.61840 0.24887
 C432 C -0.10390 0.60326 0.24884
 C433 C -0.08577 0.58521 0.24889
 C434 C -0.07694 0.57648 0.27039
 C435 C -0.05929 0.55897 0.27049
 C436 C -0.05024 0.54995 0.24904
 C437 C -0.05924 0.55885 0.22751
 C438 C -0.07689 0.57636 0.22746
 H439 H -0.15499 0.62316 0.21784
 H440 H -0.18571 0.65361 0.21780
 H441 H -0.15392 0.68471 0.28070
 H442 H -0.12353 0.65402 0.28017
 H443 H -0.08370 0.58321 0.28708
 H444 H -0.05274 0.55252 0.28735
 H445 H -0.05264 0.55229 0.21070
 H446 H -0.08360 0.58299 0.21072
 C447 C -0.13662 0.36360 0.75067
 C448 C -0.15454 0.36363 0.76786
 C449 C -0.17219 0.34609 0.76768
 C450 C -0.17225 0.32809 0.75022
 C451 C -0.15394 0.32832 0.73305
 C452 C -0.13636 0.34590 0.73331
 C453 C -0.11853 0.38174 0.75078
 C454 C -0.10336 0.39692 0.75078
 C455 C -0.08524 0.41503 0.75074
 C456 C -0.07641 0.42383 0.72926
 C457 C -0.05885 0.44145 0.72920
 C458 C -0.04988 0.45052 0.75066
 C459 C -0.05885 0.44152 0.77216
 C460 C -0.07641 0.42391 0.77218
 H461 H -0.15490 0.37726 0.78143
 H462 H -0.18567 0.34685 0.78132
 H463 H -0.15298 0.31503 0.71926
 H464 H -0.12253 0.34568 0.71991
 H465 H -0.08310 0.41708 0.71255
 H466 H -0.05231 0.44796 0.71235
 H467 H -0.05231 0.44809 0.78899
 H468 H -0.08310 0.41722 0.78891
 C469 C 0.24996 0.13600 0.36398
 C470 C 0.26756 0.13602 0.34645
 C471 C 0.26760 0.15355 0.32888
 C472 C 0.25000 0.17139 0.32859
 C473 C 0.23236 0.17113 0.34635
 C474 C 0.23237 0.15358 0.36388
 C475 C 0.24995 0.11796 0.38206
 C476 C 0.24995 0.10284 0.39720
 C477 C 0.24996 0.08479 0.41526
 C478 C 0.27152 0.07599 0.42404
 C479 C 0.27157 0.05845 0.44159
 C480 C 0.25000 0.04948 0.45059
 C481 C 0.22841 0.05845 0.44164
 C482 C 0.22842 0.07599 0.42409
 H483 H 0.28128 0.12249 0.34636
 H484 H 0.28148 0.15301 0.31562
 H485 H 0.21849 0.18443 0.34684
 H486 H 0.21865 0.15373 0.37739
 H487 H 0.28831 0.08268 0.41733
 H488 H 0.28848 0.05192 0.44810
 H489 H 0.21151 0.05192 0.44818
 H490 H 0.21162 0.08268 0.41741
 C491 C 0.75003 0.13615 0.63598
 C492 C 0.76765 0.15370 0.63603
 C493 C 0.76777 0.17124 0.65360
 C494 C 0.75022 0.17150 0.67144
 C495 C 0.73254 0.15373 0.67115
 C496 C 0.73247 0.13622 0.65356
 C497 C 0.74997 0.11808 0.61793
 C498 C 0.74994 0.10293 0.60281
 C499 C 0.74993 0.08485 0.58476
 C500 C 0.77147 0.07603 0.57594
 C501 C 0.77148 0.05848 0.55840
 C502 C 0.74990 0.04950 0.54945
 C503 C 0.72833 0.05847 0.55844
 C504 C 0.72837 0.07603 0.57598
 H505 H 0.78133 0.15382 0.62249
 H506 H 0.78167 0.18450 0.65307
 H507 H 0.71870 0.15322 0.68444
 H508 H 0.71872 0.12272 0.65368
 H509 H 0.78826 0.08273 0.58261
 H510 H 0.78839 0.05195 0.55186
 H511 H 0.71142 0.05194 0.55193
 H512 H 0.71158 0.08272 0.58269
 C513 C 0.25017 -0.13624 0.63639
 C514 C 0.23256 -0.15380 0.63647
 C515 C 0.23246 -0.17132 0.65404
 C516 C 0.25003 -0.17156 0.67187
 C517 C 0.26770 -0.15378 0.67155
 C518 C 0.26774 -0.13629 0.65395
 C519 C 0.25020 -0.11819 0.61832
 C520 C 0.25020 -0.10306 0.60319
 C521 C 0.25017 -0.08501 0.58512
 C522 C 0.22861 -0.07624 0.57631
 C523 C 0.22855 -0.05872 0.55873
 C524 C 0.25012 -0.04973 0.54974
 C525 C 0.27171 -0.05866 0.55873
 C526 C 0.27171 -0.07618 0.57630
 H527 H 0.21887 -0.15394 0.62294
 H528 H 0.21857 -0.18460 0.65353
 H529 H 0.28155 -0.15325 0.68483
 H530 H 0.28148 -0.12278 0.65405
 H531 H 0.21183 -0.08295 0.58301
 H532 H 0.21164 -0.05223 0.55220
 H533 H 0.28861 -0.05211 0.55219
 H534 H 0.28851 -0.08283 0.58300
 C535 C 0.74967 -0.13623 0.36352
 C536 C 0.73210 -0.13629 0.34597
 C537 C 0.73211 -0.15382 0.32840
 C538 C 0.74975 -0.17162 0.32811
 C539 C 0.76734 -0.17135 0.34591
 C540 C 0.76728 -0.15379 0.36345
 C541 C 0.74964 -0.11816 0.38159
 C542 C 0.74964 -0.10303 0.39673
 C543 C 0.74967 -0.08498 0.41482
 C544 C 0.72814 -0.07616 0.42366
 C545 C 0.72815 -0.05866 0.44126
 C546 C 0.74975 -0.04974 0.45025
 C547 C 0.77131 -0.05873 0.44124
 C548 C 0.77124 -0.07623 0.42365
 H549 H 0.71836 -0.12277 0.34585
 H550 H 0.71825 -0.15330 0.31512
 H551 H 0.78123 -0.18463 0.34642
 H552 H 0.78098 -0.15392 0.37697
 H553 H 0.71134 -0.08280 0.41696
 H554 H 0.71126 -0.05211 0.44781
 H555 H 0.78823 -0.05225 0.44777
 H556 H 0.78802 -0.08294 0.41693
 C557 C 0.63679 0.74936 -0.13581
 C558 C 0.63689 0.76715 -0.15310
 C559 C 0.65430 0.76720 -0.17081
 C560 C 0.67194 0.74941 -0.17150
 C561 C 0.67167 0.73163 -0.15392
 C562 C 0.65422 0.73163 -0.13623
 C563 C 0.61876 0.74930 -0.11770
 C564 C 0.60360 0.74929 -0.10258
 C565 C 0.58547 0.74931 -0.08456
 C566 C 0.57664 0.77084 -0.07580
 C567 C 0.55905 0.77089 -0.05826
 C568 C 0.55007 0.74936 -0.04926
 C569 C 0.55905 0.72781 -0.05822
 C570 C 0.57663 0.72781 -0.07575
 H571 H 0.62348 0.78099 -0.15293
 H572 H 0.65380 0.78122 -0.18388
 H573 H 0.68486 0.71764 -0.15371
 H574 H 0.65432 0.71777 -0.12289
 H575 H 0.58334 0.78759 -0.08252
 H576 H 0.55250 0.78777 -0.05176
 H577 H 0.55250 0.71094 -0.05169
 H578 H 0.58333 0.71105 -0.08243
 C579 C 0.36365 0.25062 -0.13607
 C580 C 0.36378 0.23300 -0.15354
 C581 C 0.34633 0.23287 -0.17120
 C582 C 0.32842 0.25039 -0.17164
 C583 C 0.32849 0.26803 -0.15392
 C584 C 0.34598 0.26811 -0.13629
 C585 C 0.38166 0.25073 -0.11796
 C586 C 0.39678 0.25077 -0.10281
 C587 C 0.41486 0.25076 -0.08477
 C588 C 0.42369 0.22923 -0.07602
 C589 C 0.44129 0.22918 -0.05852
 C590 C 0.45029 0.25070 -0.04954
 C591 C 0.44130 0.27226 -0.05846
 C592 C 0.42370 0.27226 -0.07597
 H593 H 0.37739 0.21936 -0.15353
 H594 H 0.34700 0.21898 -0.18441
 H595 H 0.31512 0.28182 -0.15354
 H596 H 0.34572 0.28183 -0.12281
 H597 H 0.41697 0.21249 -0.08273
 H598 H 0.44784 0.21229 -0.05203
 H599 H 0.44786 0.28913 -0.05193
 H600 H 0.41699 0.28903 -0.08263
 C601 C 0.36388 0.74926 0.13627
 C602 C 0.36400 0.76687 0.15374
 C603 C 0.34650 0.76707 0.17134
 C604 C 0.32853 0.74961 0.17173
 C605 C 0.32863 0.73194 0.15404
 C606 C 0.34617 0.73179 0.13645
 C607 C 0.38192 0.74914 0.11818
 C608 C 0.39708 0.74912 0.10306
 C609 C 0.41520 0.74916 0.08505
 C610 C 0.42404 0.77070 0.07632
 C611 C 0.44166 0.77077 0.05882
 C612 C 0.45066 0.74925 0.04982
 C613 C 0.44167 0.72769 0.05874
 C614 C 0.42406 0.72767 0.07624
 H615 H 0.37764 0.78049 0.15375
 H616 H 0.34716 0.78095 0.18456
 H617 H 0.31523 0.71816 0.15364
 H618 H 0.34591 0.71806 0.12299
 H619 H 0.41732 0.78744 0.08305
 H620 H 0.44821 0.78766 0.05235
 H621 H 0.44824 0.71082 0.05220
 H622 H 0.41735 0.71089 0.08289
 C623 C 0.63631 0.25049 0.13600
 C624 C 0.65377 0.26819 0.13642
 C625 C 0.67128 0.26808 0.15403
 C626 C 0.67158 0.25022 0.17153
 C627 C 0.65389 0.23248 0.17087
 C628 C 0.63641 0.23265 0.15324
 C629 C 0.61828 0.25062 0.11791
 C630 C 0.60314 0.25068 0.10278
 C631 C 0.58506 0.25069 0.08475
 C632 C 0.57623 0.22917 0.07599
 C633 C 0.55865 0.22913 0.05846
 C634 C 0.54968 0.25066 0.04947
 C635 C 0.55867 0.27221 0.05842
 C636 C 0.57625 0.27220 0.07594
 H637 H 0.65384 0.28209 0.12314
 H638 H 0.68448 0.28205 0.15382
 H639 H 0.65340 0.21843 0.18391
 H640 H 0.62297 0.21884 0.15306
 H641 H 0.58292 0.21241 0.08270
 H642 H 0.55209 0.21224 0.05196
 H643 H 0.55213 0.28909 0.05188
 H644 H 0.58296 0.28896 0.08262
 C645 C -0.13672 0.63659 0.75078
 C646 C -0.13645 0.65427 0.73341
 C647 C -0.15402 0.67184 0.73315
 C648 C -0.17230 0.67207 0.75035
 C649 C -0.17224 0.65409 0.76783
 C650 C -0.15460 0.63655 0.76799
 C651 C -0.11866 0.61847 0.75088
 C652 C -0.10350 0.60332 0.75087
 C653 C -0.08539 0.58525 0.75081
 C654 C -0.07655 0.57651 0.72932
 C655 C -0.05893 0.55897 0.72924
 C656 C -0.04992 0.54995 0.75071
 C657 C -0.05892 0.55887 0.77222
 C658 C -0.07654 0.57641 0.77224
 H659 H -0.12264 0.65447 0.71999
 H660 H -0.15307 0.68512 0.71936
 H661 H -0.18570 0.65333 0.78148
 H662 H -0.15494 0.62293 0.78157
 H663 H -0.08328 0.58325 0.71262
 H664 H -0.05238 0.55249 0.71238
 H665 H -0.05236 0.55231 0.78904
 H666 H -0.08326 0.58306 0.78898
 C667 C -0.13643 0.36382 0.24927
 C668 C -0.15430 0.36388 0.23203
 C669 C -0.17186 0.34628 0.23215
 C670 C -0.17180 0.32834 0.24956
 C671 C -0.15367 0.32852 0.26682
 C672 C -0.13615 0.34613 0.26665
 C673 C -0.11839 0.38193 0.24917
 C674 C -0.10327 0.39709 0.24913
 C675 C -0.08522 0.41518 0.24915
 C676 C -0.07642 0.42401 0.22769
 C677 C -0.05890 0.44163 0.22768
 C678 C -0.04998 0.45064 0.24918
 C679 C -0.05893 0.44162 0.27067
 C680 C -0.07645 0.42400 0.27062
 H681 H -0.15467 0.37753 0.21849
 H682 H -0.18541 0.34687 0.21856
 H683 H -0.15290 0.31513 0.28054
 H684 H -0.12237 0.34595 0.28009
 H685 H -0.08310 0.41728 0.21097
 H686 H -0.05236 0.44819 0.21084
 H687 H -0.05242 0.44817 0.28751
 H688 H -0.08315 0.41726 0.28733
 C689 C 0.13631 0.36405 0.75065
 C690 C 0.15398 0.36388 0.76810
 C691 C 0.17157 0.34629 0.76796
 C692 C 0.17173 0.32857 0.75032
 C693 C 0.15381 0.32897 0.73285
 C694 C 0.13626 0.34657 0.73304
 C695 C 0.11824 0.38216 0.75077
 C696 C 0.10308 0.39731 0.75081
 C697 C 0.08497 0.41538 0.75080
 C698 C 0.07612 0.42420 0.77224
 C699 C 0.05851 0.44175 0.77224
 C700 C 0.04953 0.45070 0.75073
 C701 C 0.05855 0.44171 0.72926
 C702 C 0.07616 0.42416 0.72932
 H703 H 0.15417 0.37735 0.78183
 H704 H 0.18495 0.34671 0.78172
 H705 H 0.15321 0.31575 0.71897
 H706 H 0.12264 0.34654 0.71944
 H707 H 0.08283 0.41752 0.78897
 H708 H 0.05194 0.44829 0.78907
 H709 H 0.05201 0.44822 0.71241
 H710 H 0.08289 0.41745 0.71261
 C711 C 0.13641 0.63606 0.24926
 C712 C 0.13631 0.65353 0.26687
 C713 C 0.15382 0.67116 0.26706
 C714 C 0.17173 0.67159 0.24958
 C715 C 0.17163 0.65385 0.23195
 C716 C 0.15408 0.63624 0.23182
 C717 C 0.11834 0.61798 0.24912
 C718 C 0.10316 0.60287 0.24908
 C719 C 0.08501 0.58488 0.24910
 C720 C 0.07613 0.57618 0.27059
 C721 C 0.05842 0.55874 0.27064
 C722 C 0.04938 0.54979 0.24916
 C723 C 0.05845 0.55865 0.22765
 C724 C 0.07615 0.57609 0.22765
 H725 H 0.12268 0.65354 0.28046
 H726 H 0.15320 0.68438 0.28094
 H727 H 0.18502 0.65345 0.21820
 H728 H 0.15430 0.62277 0.21809
 H729 H 0.08288 0.58287 0.28729
 H730 H 0.05183 0.55228 0.28749
 H731 H 0.05187 0.55212 0.21083
 H732 H 0.08292 0.58271 0.21093
 C733 C 0.74997 -0.13624 0.63608
 C734 C 0.73242 -0.13627 0.65367
 C735 C 0.73250 -0.15376 0.67127
 C736 C 0.75017 -0.17153 0.67156
 C737 C 0.76772 -0.17129 0.65371
 C738 C 0.76759 -0.15378 0.63614
 C739 C 0.74990 -0.11819 0.61802
 C740 C 0.74987 -0.10307 0.60288
 C741 C 0.74986 -0.08502 0.58482
 C742 C 0.72831 -0.07620 0.57604
 C743 C 0.72828 -0.05868 0.55848
 C744 C 0.74986 -0.04975 0.54946
 C745 C 0.77144 -0.05874 0.55841
 C746 C 0.77142 -0.07626 0.57598
 H747 H 0.71868 -0.12277 0.65378
 H748 H 0.71866 -0.15322 0.68457
 H749 H 0.78161 -0.18456 0.65319
 H750 H 0.78126 -0.15392 0.62258
 H751 H 0.71152 -0.08286 0.58277
 H752 H 0.71137 -0.05214 0.55197
 H753 H 0.78835 -0.05224 0.55186
 H754 H 0.78820 -0.08296 0.58266
 C755 C 0.25007 -0.13614 0.36402
 C756 C 0.23247 -0.15370 0.36391
 C757 C 0.23246 -0.17124 0.34636
 C758 C 0.25011 -0.17148 0.32861
 C759 C 0.26774 -0.15367 0.32894
 C760 C 0.26769 -0.13616 0.34652
 C761 C 0.25004 -0.11811 0.38208
 C762 C 0.25003 -0.10300 0.39721
 C763 C 0.25004 -0.08497 0.41527
 C764 C 0.22848 -0.07621 0.42410
 C765 C 0.22846 -0.05869 0.44166
 C766 C 0.25004 -0.04971 0.45061
 C767 C 0.27162 -0.05864 0.44161
 C768 C 0.27159 -0.07616 0.42405
 H769 H 0.21874 -0.15385 0.37740
 H770 H 0.21858 -0.18453 0.34684
 H771 H 0.28163 -0.15313 0.31570
 H772 H 0.28142 -0.12263 0.34645
 H773 H 0.21169 -0.08291 0.41742
 H774 H 0.21155 -0.05218 0.44821
 H775 H 0.28853 -0.05211 0.44811
 H776 H 0.28838 -0.08283 0.41732
 C777 C 0.74987 0.13600 0.36382
 C778 C 0.73229 0.13600 0.34629
 C779 C 0.73227 0.15350 0.32870
 C780 C 0.74990 0.17131 0.32838
 C781 C 0.76750 0.17109 0.34617
 C782 C 0.76747 0.15357 0.36373
 C783 C 0.74987 0.11796 0.38189
 C784 C 0.74988 0.10284 0.39702
 C785 C 0.74988 0.08478 0.41506
 C786 C 0.72833 0.07598 0.42386
 C787 C 0.72830 0.05844 0.44140
 C788 C 0.74988 0.04946 0.45036
 C789 C 0.77146 0.05843 0.44140
 C790 C 0.77143 0.07598 0.42386
 H791 H 0.71856 0.12247 0.34620
 H792 H 0.71841 0.15295 0.31543
 H793 H 0.78138 0.18439 0.34666
 H794 H 0.78117 0.15373 0.37724
 H795 H 0.71154 0.08267 0.41716
 H796 H 0.71139 0.05191 0.44792
 H797 H 0.78837 0.05190 0.44792
 H798 H 0.78822 0.08267 0.41716
 C799 C 0.25003 0.13604 0.63614
 C800 C 0.23244 0.15361 0.63623
 C801 C 0.23242 0.17114 0.65377
 C802 C 0.25004 0.17137 0.67155
 C803 C 0.26766 0.15355 0.67124
 C804 C 0.26763 0.13604 0.65366
 C805 C 0.25001 0.11800 0.61808
 C806 C 0.25001 0.10288 0.60296
 C807 C 0.25001 0.08483 0.58491
 C808 C 0.22846 0.07603 0.57611
 C809 C 0.22844 0.05848 0.55858
 C810 C 0.25003 0.04950 0.54963
 C811 C 0.27160 0.05848 0.55860
 C812 C 0.27157 0.07603 0.57613
 H813 H 0.21873 0.15376 0.62272
 H814 H 0.21855 0.18444 0.65328
 H815 H 0.28153 0.15301 0.68450
 H816 H 0.28134 0.12250 0.65375
 H817 H 0.21167 0.08272 0.58280
 H818 H 0.21154 0.05195 0.55206
 H819 H 0.28852 0.05195 0.55208
 H820 H 0.28836 0.08272 0.58282
   
