data_POSCAR
  _audit_creation_date              2014-09-24
  _audit_creation_method            'ToBaCCo'
  _symmetry_space_group_name_H-M    'P1'
  _symmetry_Int_Tables_number       1
  _symmetry_cell_setting            triclinic
  loop_
  _symmetry_equiv_pos_as_xyz
 x,y,z
_cell_length_a 27.8975
_cell_length_b 27.5810
_cell_length_c 21.7607
_cell_angle_alpha 90.056600
_cell_angle_beta 90.040900
_cell_angle_gamma 88.298700
loop_
  _atom_site_label
  _atom_site_type_symbol
  _atom_site_fract_x
  _atom_site_fract_y
  _atom_site_fract_z
C1 C 1.21133 0.22070 0.19297
 C2 C 1.23869 0.26080 0.16154
 C3 C 1.26653 0.28743 0.20050
 C4 C 1.26393 0.26957 0.26947
 C5 C 1.24926 0.18970 0.22570
 C6 C 1.27648 0.21369 0.26725
 C7 C 1.18383 0.24596 0.24370
 C8 C 1.20954 0.27110 0.28452
 H9 H 1.23764 0.26646 0.11217
 H10 H 1.28567 0.29001 0.30251
 H11 H 1.25124 0.15047 0.22070
 H12 H 1.14475 0.24723 0.24422
 C13 C 0.72482 -0.28677 0.20687
 C14 C 0.76616 -0.26575 0.17009
 C15 C 0.79416 -0.23500 0.20295
 C16 C 0.77672 -0.22680 0.26996
 C17 C 0.74838 -0.30862 0.26396
 C18 C 0.77654 -0.27823 0.29675
 C19 C 0.69663 -0.24226 0.23129
 C20 C 0.72313 -0.21061 0.26515
 H21 H 0.77078 -0.27207 0.12118
 H22 H 0.79817 -0.20165 0.29728
 H23 H 0.74981 -0.34765 0.27115
 H24 H 0.65784 -0.23880 0.22769
 C25 C 0.72525 0.21351 -0.29080
 C26 C 0.76491 0.23348 -0.32574
 C27 C 0.79426 0.26613 -0.29105
 C28 C 0.77670 0.27359 -0.22752
 C29 C 0.74721 0.19283 -0.23582
 C30 C 0.77676 0.22473 -0.20113
 C31 C 0.69817 0.25609 -0.26837
 C32 C 0.72574 0.28965 -0.23267
 H33 H 0.76926 0.22783 -0.37485
 H34 H 0.79785 0.29880 -0.19998
 H35 H 0.74905 0.15379 -0.22836
 H36 H 0.65938 0.25970 -0.27230
 C37 C 1.21268 -0.27883 -0.30740
 C38 C 1.23780 -0.23689 -0.33805
 C39 C 1.26576 -0.21057 -0.29891
 C40 C 1.26531 -0.23030 -0.23085
 C41 C 1.25238 -0.30941 -0.27791
 C42 C 1.27940 -0.28569 -0.23589
 C43 C 1.18582 -0.25617 -0.25423
 C44 C 1.21150 -0.23076 -0.21373
 H45 H 1.23618 -0.23054 -0.38726
 H46 H 1.28721 -0.21012 -0.19772
 H47 H 1.25487 -0.34853 -0.28402
 H48 H 1.14673 -0.25544 -0.25298
 C49 C 0.21331 0.22220 0.80863
 C50 C 0.23628 0.26233 0.83821
 C51 C 0.26574 0.29049 0.79771
 C52 C 0.26608 0.27122 0.73336
 C53 C 0.18662 0.24409 0.75464
 C54 C 0.21240 0.26998 0.71472
 C55 C 0.25357 0.19181 0.77987
 C56 C 0.28077 0.21576 0.73826
 H57 H 0.23497 0.26787 0.88761
 H58 H 0.28806 0.29114 0.70020
 H59 H 0.14756 0.24421 0.75262
 H60 H 0.25605 0.15267 0.78564
 C61 C 0.72435 0.71337 0.79015
 C62 C 0.76390 0.73355 0.82527
 C63 C 0.79333 0.76610 0.79065
 C64 C 0.77595 0.77326 0.72698
 C65 C 0.69728 0.75584 0.76735
 C66 C 0.72495 0.78931 0.73171
 C67 C 0.74652 0.69251 0.73540
 C68 C 0.77613 0.72429 0.70077
 H69 H 0.76815 0.72807 0.87442
 H70 H 0.79717 0.79834 0.69947
 H71 H 0.65850 0.75957 0.77128
 H72 H 0.74837 0.65344 0.72801
 C73 C 0.72481 0.21324 0.29193
 C74 C 0.76633 0.23401 0.32870
 C75 C 0.79432 0.26473 0.29597
 C76 C 0.77670 0.27318 0.22909
 C77 C 0.69666 0.25790 0.26790
 C78 C 0.72319 0.28955 0.23414
 C79 C 0.74808 0.19147 0.23459
 C80 C 0.77629 0.22185 0.20197
 H81 H 0.77104 0.22761 0.37758
 H82 H 0.79816 0.29831 0.20187
 H83 H 0.65789 0.26147 0.27161
 H84 H 0.74942 0.15245 0.22721
 C85 C 0.21096 0.72059 0.30690
 C86 C 0.23826 0.76084 0.33831
 C87 C 0.26618 0.78735 0.29943
 C88 C 0.26367 0.76921 0.23048
 C89 C 0.18352 0.74558 0.25591
 C90 C 0.20927 0.77072 0.21521
 C91 C 0.24896 0.68946 0.27441
 C92 C 0.27624 0.71327 0.23285
 H93 H 0.23709 0.76671 0.38765
 H94 H 0.28547 0.78953 0.19746
 H95 H 0.14444 0.74678 0.25522
 H96 H 0.25084 0.65025 0.27948
 O97 O 1.08657 -0.06713 0.10306
 O98 O 1.04602 -0.12379 0.04738
 C99 C 1.07909 -0.11096 0.08632
 O100 O 0.90610 0.06433 0.09874
 O101 O 0.95016 0.12039 0.04725
 C102 C 0.91577 0.10841 0.08371
 O103 O 0.91503 -0.06873 0.10776
 O104 O 0.95663 -0.12463 0.04813
 C105 C 0.92480 -0.11269 0.08984
 O106 O 1.08794 0.06157 0.09356
 O107 O 1.03977 0.11891 0.04585
 C108 C 1.07642 0.10563 0.07934
 Zr109 Zr 1.05540 -0.00272 0.07376
 O110 O 1.04560 -0.00059 0.16999
 O111 O 1.13065 -0.00522 0.08630
 Zr112 Zr 0.93833 -0.00231 0.07474
 O113 O 0.94775 0.00005 0.17103
 O114 O 0.86327 -0.00445 0.08699
 O115 O 0.99826 -0.04768 0.08592
 O116 O 0.99597 0.04176 0.08598
 O117 O 1.08923 0.06215 -0.09577
 O118 O 1.03929 0.11947 -0.05114
 C119 C 1.07687 0.10633 -0.08285
 O120 O 0.91311 -0.06794 -0.11440
 O121 O 0.95558 -0.12423 -0.05647
 C122 C 0.92299 -0.11208 -0.09731
 O123 O 0.90622 0.06573 -0.10552
 O124 O 0.94991 0.12104 -0.05201
 C125 C 0.91564 0.10965 -0.08912
 O126 O 1.08644 -0.06690 -0.10965
 O127 O 1.04543 -0.12380 -0.05535
 C128 C 1.07888 -0.11076 -0.09327
 Zr129 Zr 1.05471 -0.00209 -0.08163
 O130 O 1.04424 0.00456 -0.17768
 O131 O 1.12901 -0.00499 -0.10103
 Zr132 Zr 0.93734 -0.00165 -0.08108
 O133 O 0.94170 0.00440 -0.17796
 O134 O 0.86185 -0.00542 -0.08735
 Zr135 Zr 0.99882 -0.07641 -0.00411
 Zr136 Zr 0.99490 0.07152 -0.00296
 O137 O 0.99516 0.04235 -0.09236
 O138 O 0.99738 -0.04702 -0.09383
 O139 O 1.06413 0.03924 -0.00356
 O140 O 0.92952 -0.04368 -0.00336
 O141 O 1.06592 -0.04358 -0.00419
 O142 O 0.92659 0.04058 -0.00279
 H143 H 0.99604 0.06464 0.12118
 H144 H 0.90062 -0.06369 -0.00319
 H145 H 0.99511 0.06581 -0.12688
 H146 H 1.09702 -0.06183 -0.00387
 H147 H 0.84889 -0.00425 0.04553
 H148 H 0.84803 0.01498 -0.05401
 H149 H 0.95580 -0.02642 -0.19407
 H150 H 1.04430 -0.02865 -0.19495
 H151 H 1.14577 -0.00635 -0.06090
 H152 H 1.14503 -0.00149 0.04508
 H153 H 1.07795 0.00311 0.18786
 H154 H 0.91512 0.00262 0.18885
 O155 O 1.08654 0.43359 0.61040
 O156 O 1.04640 0.37658 0.55483
 C157 C 1.07951 0.38973 0.59340
 O158 O 0.90564 0.56510 0.60466
 O159 O 0.94964 0.62067 0.55226
 C160 C 0.91517 0.60912 0.58891
 O161 O 0.91422 0.43188 0.61496
 O162 O 0.95616 0.37565 0.55621
 C163 C 0.92391 0.38777 0.59748
 O164 O 1.08846 0.56230 0.59687
 O165 O 1.03908 0.61941 0.55078
 C166 C 1.07633 0.60633 0.58314
 Zr167 Zr 1.05521 0.49785 0.58052
 O168 O 1.04511 0.50139 0.67664
 O169 O 1.13023 0.49544 0.59523
 Zr170 Zr 0.93810 0.49808 0.58142
 O171 O 0.94756 0.50096 0.67767
 O172 O 0.86298 0.49643 0.59349
 O173 O 0.99815 0.45280 0.59319
 O174 O 0.99570 0.54236 0.59217
 O175 O 1.08834 0.56150 0.40787
 O176 O 1.03922 0.61893 0.45382
 C177 C 1.07629 0.60567 0.42111
 O178 O 0.91443 0.43078 0.39272
 O179 O 0.95678 0.37497 0.45154
 C180 C 0.92463 0.38684 0.41021
 O181 O 0.90637 0.56428 0.40009
 O182 O 0.94975 0.62026 0.45289
 C183 C 0.91571 0.60832 0.41579
 O184 O 1.08675 0.43257 0.39750
 O185 O 1.04584 0.37577 0.45210
 C186 C 1.07910 0.38869 0.41366
 Zr187 Zr 1.05477 0.49729 0.42512
 O188 O 1.04455 0.50276 0.32889
 O189 O 1.12938 0.49457 0.40775
 Zr190 Zr 0.93747 0.49743 0.42566
 O191 O 0.94117 0.50301 0.32868
 O192 O 0.86198 0.49312 0.42001
 Zr193 Zr 0.99901 0.42343 0.50346
 Zr194 Zr 0.99467 0.57138 0.50279
 O195 O 0.99512 0.54145 0.41383
 O196 O 0.99759 0.45221 0.41344
 O197 O 1.06397 0.53923 0.50258
 O198 O 0.92961 0.45597 0.50375
 O199 O 1.06599 0.45644 0.50303
 O200 O 0.92644 0.54031 0.50332
 H201 H 0.99573 0.56563 0.62695
 H202 H 0.90083 0.43581 0.50376
 H203 H 0.99503 0.56449 0.37886
 H204 H 1.09713 0.43825 0.50327
 H205 H 0.84880 0.49359 0.55211
 H206 H 0.84815 0.51421 0.45266
 H207 H 0.95616 0.47256 0.31272
 H208 H 1.04358 0.46936 0.31234
 H209 H 1.14545 0.49526 0.44831
 H210 H 1.14538 0.49667 0.55417
 H211 H 1.07726 0.50642 0.69446
 H212 H 0.91493 0.50384 0.69546
 O213 O 0.56465 0.08811 0.60864
 O214 O 0.62092 0.04284 0.55477
 C215 C 0.60847 0.07724 0.59375
 O216 O 0.43486 -0.08688 0.60839
 O217 O 0.37875 -0.04144 0.55403
 C218 C 0.39100 -0.07605 0.59284
 O219 O 0.56552 -0.08691 0.61328
 O220 O 0.62137 -0.04596 0.55735
 C221 C 0.60944 -0.07805 0.59865
 O222 O 0.43690 0.09749 0.60140
 O223 O 0.37956 0.05218 0.55435
 C224 C 0.39291 0.08795 0.58982
 Zr225 Zr 0.50023 0.06097 0.57760
 O226 O 0.49847 0.05198 0.67399
 O227 O 0.50338 0.13714 0.58719
 Zr228 Zr 0.50000 -0.05802 0.57994
 O229 O 0.49928 -0.04715 0.67608
 O230 O 0.49964 -0.13427 0.59093
 O231 O 0.54462 0.00033 0.59075
 O232 O 0.45630 0.00313 0.59013
 O233 O 0.43636 0.09736 0.40239
 O234 O 0.37923 0.05162 0.44893
 C235 C 0.39233 0.08749 0.41360
 O236 O 0.56483 -0.08816 0.39137
 O237 O 0.62109 -0.04637 0.44576
 C238 C 0.60877 -0.07862 0.40494
 O239 O 0.43455 -0.08856 0.39583
 O240 O 0.37866 -0.04242 0.44958
 C241 C 0.39072 -0.07748 0.41104
 O242 O 0.56471 0.08590 0.39267
 O243 O 0.62114 0.04186 0.44781
 C244 C 0.60849 0.07532 0.40795
 Zr245 Zr 0.49971 0.05924 0.42312
 O246 O 0.49359 0.04812 0.32709
 O247 O 0.50282 0.13440 0.40513
 Zr248 Zr 0.49950 -0.06004 0.42549
 O249 O 0.49427 -0.05777 0.32836
 O250 O 0.50336 -0.13683 0.42580
 Zr251 Zr 0.57400 -0.00137 0.50119
 Zr252 Zr 0.42567 0.00327 0.50167
 O253 O 0.45595 0.00110 0.41316
 O254 O 0.54398 -0.00175 0.41185
 O255 O 0.45758 0.07162 0.50044
 O256 O 0.54193 -0.06955 0.50261
 O257 O 0.54144 0.06852 0.50013
 O258 O 0.45684 -0.06744 0.50299
 H259 H 0.43417 0.00445 0.62577
 H260 H 0.56281 -0.09921 0.50257
 H261 H 0.43338 0.00183 0.37794
 H262 H 0.56057 0.09818 0.50005
 H263 H 0.51377 -0.14906 0.55350
 H264 H 0.48086 -0.14796 0.45759
 H265 H 0.52333 -0.04245 0.31228
 H266 H 0.52640 0.04476 0.31003
 H267 H 0.50533 0.15077 0.44538
 H268 H 0.49439 0.15131 0.54694
 H269 H 0.49688 0.08511 0.69164
 H270 H 0.49782 -0.07983 0.69471
 O271 O 0.56398 0.58614 0.10648
 O272 O 0.62036 0.54169 0.05159
 C273 C 0.60774 0.57547 0.09116
 O274 O 0.43498 0.41125 0.10419
 O275 O 0.37867 0.45687 0.05050
 C276 C 0.39104 0.42210 0.08917
 O277 O 0.56517 0.41285 0.10932
 O278 O 0.62111 0.45387 0.05360
 C279 C 0.60901 0.42208 0.09506
 O280 O 0.43579 0.59580 0.09875
 O281 O 0.37889 0.55077 0.05030
 C282 C 0.39185 0.58633 0.08643
 Zr283 Zr 0.49948 0.55980 0.07443
 O284 O 0.49747 0.55067 0.17080
 O285 O 0.50251 0.63601 0.08367
 Zr286 Zr 0.49973 0.44080 0.07565
 O287 O 0.49873 0.45128 0.17186
 O288 O 0.49990 0.36448 0.08599
 O289 O 0.54407 0.49926 0.08695
 O290 O 0.45582 0.50169 0.08636
 O291 O 0.43615 0.59672 -0.09999
 O292 O 0.37894 0.55029 -0.05478
 C293 C 0.39216 0.58651 -0.08936
 O294 O 0.56540 0.41096 -0.11249
 O295 O 0.62120 0.45328 -0.05799
 C296 C 0.60932 0.42061 -0.09859
 O297 O 0.43465 0.41101 -0.10874
 O298 O 0.37865 0.45621 -0.05391
 C299 C 0.39077 0.42151 -0.09288
 O300 O 0.56422 0.58684 -0.10953
 O301 O 0.62081 0.54248 -0.05524
 C302 C 0.60815 0.57650 -0.09455
 Zr303 Zr 0.49948 0.55874 -0.08007
 O304 O 0.49380 0.54779 -0.17616
 O305 O 0.50200 0.63394 -0.09806
 Zr306 Zr 0.49971 0.43942 -0.07890
 O307 O 0.49486 0.44261 -0.17601
 O308 O 0.50364 0.36265 -0.07966
 Zr309 Zr 0.57372 0.49812 -0.00253
 Zr310 Zr 0.42542 0.50203 -0.00211
 O311 O 0.45588 0.50046 -0.09063
 O312 O 0.54404 0.49800 -0.09197
 O313 O 0.45705 0.57053 -0.00280
 O314 O 0.54193 0.42979 -0.00159
 O315 O 0.54089 0.56787 -0.00280
 O316 O 0.45688 0.43146 -0.00152
 H317 H 0.43361 0.50276 0.12193
 H318 H 0.56295 0.40023 -0.00155
 H319 H 0.43334 0.50127 -0.12588
 H320 H 0.55989 0.59763 -0.00230
 H321 H 0.51422 0.34996 0.04852
 H322 H 0.48154 0.35127 -0.04755
 H323 H 0.52442 0.45722 -0.19171
 H324 H 0.52672 0.54539 -0.19306
 H325 H 0.50481 0.65031 -0.05783
 H326 H 0.49241 0.65008 0.04378
 H327 H 0.49586 0.58377 0.18853
 H328 H 0.49759 0.41852 0.19033
 C329 C 1.17547 0.19130 0.15618
 C330 C 1.19627 0.15611 0.10839
 C331 C 1.16229 0.12870 0.08185
 C332 C 1.11056 0.14021 0.10439
 C333 C 1.11273 0.13368 0.17387
 C334 C 1.14731 0.15874 0.20063
 C335 C 1.13661 0.22170 0.12122
 C336 C 1.10239 0.19465 0.09385
 H337 H 1.23432 0.15074 0.09941
 H338 H 1.17189 0.09830 0.05245
 H339 H 1.08992 0.10992 0.19992
 H340 H 1.15439 0.15539 0.24959
 H341 H 1.13660 0.26095 0.11774
 H342 H 1.07307 0.21046 0.06707
 C343 C 1.17656 0.69183 0.65645
 C344 C 1.13583 0.72238 0.62522
 C345 C 1.10107 0.69541 0.59903
 C346 C 1.11070 0.64095 0.60687
 C347 C 1.16159 0.63104 0.58048
 C348 C 1.19613 0.65840 0.60597
 C349 C 1.15095 0.65737 0.70121
 C350 C 1.11569 0.63266 0.67582
 H351 H 1.13502 0.76172 0.62326
 H352 H 1.07045 0.71130 0.57479
 H353 H 1.17035 0.60185 0.54891
 H354 H 1.23383 0.65415 0.59428
 H355 H 1.16016 0.65261 0.74941
 H356 H 1.09432 0.60790 0.70241
 C357 C 0.69605 0.17672 0.67600
 C358 C 0.66817 0.19562 0.62391
 C359 C 0.63944 0.15992 0.59489
 C360 C 0.64391 0.11152 0.62256
 C361 C 0.69500 0.09907 0.62067
 C362 C 0.72390 0.13492 0.65030
 C363 C 0.66052 0.15484 0.71643
 C364 C 0.63300 0.11879 0.68765
 H365 H 0.66909 0.23284 0.60782
 H366 H 0.61677 0.16849 0.55561
 H367 H 0.71006 0.06636 0.59957
 H368 H 0.76270 0.13104 0.65292
 H369 H 0.65522 0.16440 0.76446
 H370 H 0.60682 0.09838 0.71306
 C371 C 0.69478 0.67492 0.17272
 C372 C 0.66417 0.69475 0.11940
 C373 C 0.63706 0.66068 0.09195
 C374 C 0.64295 0.60935 0.11964
 C375 C 0.69690 0.59755 0.11620
 C376 C 0.72412 0.63179 0.14420
 C377 C 0.65883 0.65079 0.21577
 C378 C 0.63264 0.61631 0.18855
 H379 H 0.66382 0.73230 0.10452
 H380 H 0.61334 0.66946 0.05377
 H381 H 0.71233 0.56538 0.09425
 H382 H 0.76297 0.62866 0.14591
 H383 H 0.65458 0.65985 0.26407
 H384 H 0.60668 0.59572 0.21401
 C385 C 0.83195 -0.20504 0.17234
 C386 C 0.86906 -0.18341 0.21613
 C387 C 0.90061 -0.15415 0.18784
 C388 C 0.89295 -0.14948 0.11820
 C389 C 0.89502 -0.20190 0.09419
 C390 C 0.86300 -0.23118 0.12270
 C391 C 0.80850 -0.16167 0.13917
 C392 C 0.84002 -0.13309 0.11050
 H393 H 0.87307 -0.19302 0.26418
 H394 H 0.93027 -0.13824 0.21220
 H395 H 0.91968 -0.21505 0.05898
 H396 H 0.86072 -0.26946 0.11191
 H397 H 0.77002 -0.15464 0.13711
 H398 H 0.82817 -0.10189 0.08348
 C399 C 0.83015 0.29513 0.67999
 C400 C 0.80702 0.33960 0.64870
 C401 C 0.83865 0.36825 0.62014
 C402 C 0.89153 0.35096 0.62587
 C403 C 0.90014 0.34472 0.69511
 C404 C 0.86862 0.31530 0.72332
 C405 C 0.86018 0.26964 0.62870
 C406 C 0.89226 0.29899 0.60030
 H407 H 0.76861 0.34739 0.64774
 H408 H 0.82686 0.40015 0.59442
 H409 H 0.93054 0.35951 0.71914
 H410 H 0.87365 0.30447 0.77081
 H411 H 0.85748 0.23158 0.61686
 H412 H 0.91625 0.28610 0.56420
 C413 C 0.29829 -0.17183 0.67436
 C414 C 0.32542 -0.14007 0.72003
 C415 C 0.35459 -0.10751 0.69259
 C416 C 0.35436 -0.10908 0.62169
 C417 C 0.36629 -0.16250 0.60591
 C418 C 0.33758 -0.19489 0.63351
 C419 C 0.27203 -0.13458 0.63183
 C420 C 0.30131 -0.10199 0.60423
 H421 H 0.32114 -0.14141 0.76947
 H422 H 0.37505 -0.08186 0.71897
 H423 H 0.39501 -0.17396 0.57499
 H424 H 0.34219 -0.23373 0.62642
 H425 H 0.23350 -0.13366 0.62467
 H426 H 0.28778 -0.07374 0.57357
 C427 C 0.29903 0.32622 0.17312
 C428 C 0.33753 0.30321 0.13096
 C429 C 0.36591 0.33558 0.10261
 C430 C 0.35454 0.38903 0.11889
 C431 C 0.30120 0.39636 0.10311
 C432 C 0.27226 0.36379 0.13148
 C433 C 0.32720 0.35767 0.21805
 C434 C 0.35600 0.39025 0.18985
 H435 H 0.34192 0.26438 0.12361
 H436 H 0.39405 0.32409 0.07086
 H437 H 0.28724 0.42473 0.07294
 H438 H 0.23362 0.36488 0.12540
 H439 H 0.32415 0.35585 0.26762
 H440 H 0.37723 0.41554 0.21578
 C441 C 0.81572 0.20137 -0.16813
 C442 C 0.79635 0.16373 -0.12314
 C443 C 0.83054 0.13552 -0.09622
 C444 C 0.88179 0.14722 -0.11534
 C445 C 0.88267 0.14468 -0.18552
 C446 C 0.84870 0.17285 -0.21298
 C447 C 0.85076 0.23049 -0.12825
 C448 C 0.88585 0.20175 -0.10039
 H449 H 0.75869 0.16095 -0.11128
 H450 H 0.82193 0.10870 -0.06174
 H451 H 0.90922 0.12376 -0.21170
 H452 H 0.84648 0.17577 -0.26269
 H453 H 0.84795 0.26939 -0.12119
 H454 H 0.91288 0.21623 -0.07017
 C455 C 0.81668 0.69797 0.33320
 C456 C 0.85110 0.72798 0.37275
 C457 C 0.88592 0.69994 0.40204
 C458 C 0.88214 0.64523 0.38837
 C459 C 0.83071 0.63356 0.40689
 C460 C 0.79674 0.66104 0.37845
 C461 C 0.85008 0.66903 0.28956
 C462 C 0.88389 0.64154 0.31826
 H463 H 0.84816 0.76705 0.37812
 H464 H 0.91269 0.71506 0.43212
 H465 H 0.82180 0.60725 0.44187
 H466 H 0.75892 0.65825 0.38928
 H467 H 0.84825 0.67134 0.23977
 H468 H 0.91087 0.62041 0.29306
 C469 C 0.30680 0.18237 0.31153
 C470 C 0.27686 0.14715 0.35060
 C471 C 0.30342 0.11509 0.38586
 C472 C 0.35753 0.12123 0.37951
 C473 C 0.36722 0.11707 0.31017
 C474 C 0.34162 0.14902 0.27524
 C475 C 0.33862 0.20736 0.35868
 C476 C 0.36493 0.17548 0.39433
 H477 H 0.23793 0.14800 0.35098
 H478 H 0.28732 0.08877 0.41593
 H479 H 0.39265 0.09106 0.29001
 H480 H 0.34584 0.15046 0.22566
 H481 H 0.34020 0.24632 0.36443
 H482 H 0.38854 0.18767 0.43052
 C483 C 0.30872 0.68246 -0.19151
 C484 C 0.27787 0.64740 -0.15334
 C485 C 0.30365 0.61483 -0.11795
 C486 C 0.35785 0.62047 -0.12335
 C487 C 0.36828 0.61654 -0.19253
 C488 C 0.34354 0.64901 -0.22755
 C489 C 0.34024 0.70687 -0.14359
 C490 C 0.36570 0.67452 -0.10776
 H491 H 0.23893 0.64875 -0.15366
 H492 H 0.28696 0.58853 -0.08841
 H493 H 0.39358 0.59031 -0.21250
 H494 H 0.34838 0.65071 -0.27702
 H495 H 0.34223 0.74576 -0.13747
 H496 H 0.38900 0.68622 -0.07097
 C497 C 1.18067 -0.19742 -0.17466
 C498 C 1.20176 -0.16331 -0.12726
 C499 C 1.16703 -0.13560 -0.09813
 C500 C 1.11490 -0.14523 -0.11978
 C501 C 1.11589 -0.13819 -0.18946
 C502 C 1.15100 -0.16376 -0.21759
 C503 C 1.14353 -0.22665 -0.13758
 C504 C 1.10876 -0.19919 -0.10951
 H505 H 1.23969 -0.16125 -0.11699
 H506 H 1.17554 -0.10974 -0.06240
 H507 H 1.09178 -0.11374 -0.21465
 H508 H 1.15737 -0.16035 -0.26666
 H509 H 1.14553 -0.26585 -0.13273
 H510 H 1.08103 -0.21446 -0.08114
 C511 C 1.17912 0.30327 0.32585
 C512 C 1.14841 0.33764 0.28519
 C513 C 1.11393 0.36257 0.31548
 C514 C 1.11446 0.35421 0.38504
 C515 C 1.10862 0.29999 0.39358
 C516 C 1.14275 0.27316 0.36308
 C517 C 1.20112 0.33642 0.37368
 C518 C 1.16705 0.36339 0.40503
 H519 H 1.15346 0.34189 0.23598
 H520 H 1.08906 0.38723 0.29185
 H521 H 1.08145 0.28407 0.42226
 H522 H 1.14473 0.23385 0.36616
 H523 H 1.23925 0.33831 0.38277
 H524 H 1.17636 0.38838 0.44141
 C525 C 0.69740 -0.17209 0.30501
 C526 C 0.72689 -0.13532 0.34224
 C527 C 0.69929 -0.10310 0.37668
 C528 C 0.64501 -0.11046 0.37031
 C529 C 0.63586 -0.10788 0.30062
 C530 C 0.66289 -0.13981 0.26690
 C531 C 0.66582 -0.19581 0.35352
 C532 C 0.63873 -0.16399 0.38721
 H533 H 0.76563 -0.13377 0.34108
 H534 H 0.71463 -0.07487 0.40462
 H535 H 0.61103 -0.08191 0.27929
 H536 H 0.66097 -0.14090 0.21708
 H537 H 0.66570 -0.23464 0.36174
 H538 H 0.61566 -0.17587 0.42411
 C539 C 0.70054 0.32637 -0.19545
 C540 C 0.72897 0.36427 -0.15847
 C541 C 0.70045 0.39653 -0.12520
 C542 C 0.64629 0.38839 -0.13223
 C543 C 0.63796 0.38982 -0.20209
 C544 C 0.66591 0.35787 -0.23469
 C545 C 0.66864 0.30298 -0.14685
 C546 C 0.64063 0.33495 -0.11440
 H547 H 0.76763 0.36691 -0.15917
 H548 H 0.71506 0.42552 -0.09787
 H549 H 0.61301 0.41514 -0.22440
 H550 H 0.66457 0.35634 -0.28454
 H551 H 0.66889 0.26426 -0.13764
 H552 H 0.61725 0.32325 -0.07773
 C553 C 1.17709 0.19256 -0.15543
 C554 C 1.15228 0.15745 -0.20027
 C555 C 1.11713 0.13235 -0.17520
 C556 C 1.11133 0.14108 -0.10642
 C557 C 1.16207 0.13200 -0.07918
 C558 C 1.19652 0.15963 -0.10434
 C559 C 1.13566 0.22278 -0.12517
 C560 C 1.10102 0.19553 -0.09930
 H561 H 1.16198 0.15245 -0.24827
 H562 H 1.09640 0.10703 -0.20189
 H563 H 1.17090 0.10303 -0.04739
 H564 H 1.23416 0.15584 -0.09208
 H565 H 1.13427 0.26213 -0.12363
 H566 H 1.06998 0.21124 -0.07576
 C567 C 1.17510 0.69132 0.34382
 C568 C 1.14717 0.65831 0.29961
 C569 C 1.11271 0.63322 0.32653
 C570 C 1.11036 0.64030 0.39595
 C571 C 1.16210 0.62928 0.41885
 C572 C 1.19598 0.65662 0.39208
 C573 C 1.13603 0.72180 0.37831
 C574 C 1.10190 0.69480 0.40583
 H575 H 1.15425 0.65472 0.25069
 H576 H 1.09004 0.60916 0.30063
 H577 H 1.17179 0.59933 0.44884
 H578 H 1.23403 0.65159 0.40137
 H579 H 1.13581 0.76109 0.38137
 H580 H 1.07245 0.71067 0.43232
 C581 C 0.69495 0.17490 0.32612
 C582 C 0.65889 0.15069 0.28322
 C583 C 0.63293 0.11613 0.31052
 C584 C 0.64353 0.10924 0.37939
 C585 C 0.69750 0.09756 0.38254
 C586 C 0.72451 0.13184 0.35442
 C587 C 0.66453 0.19469 0.37962
 C588 C 0.63763 0.16058 0.40717
 H589 H 0.65442 0.15970 0.23495
 H590 H 0.60697 0.09542 0.28513
 H591 H 0.71310 0.06543 0.40434
 H592 H 0.76335 0.12877 0.35246
 H593 H 0.66412 0.23227 0.39452
 H594 H 0.61403 0.16933 0.44545
 C595 C 0.69519 0.67654 -0.17666
 C596 C 0.65983 0.65435 -0.21717
 C597 C 0.63247 0.61818 -0.18843
 C598 C 0.64334 0.61111 -0.12328
 C599 C 0.69449 0.59899 -0.12121
 C600 C 0.72321 0.63495 -0.15077
 C601 C 0.66712 0.69540 -0.12471
 C602 C 0.63854 0.65957 -0.09573
 H603 H 0.65452 0.66378 -0.26522
 H604 H 0.60644 0.59757 -0.21391
 H605 H 0.70973 0.56643 -0.10000
 H606 H 0.76203 0.63128 -0.15321
 H607 H 0.66774 0.73269 -0.10874
 H608 H 0.61573 0.66811 -0.05659
 C609 C 0.82922 -0.20482 -0.18025
 C610 C 0.86760 -0.18450 -0.22347
 C611 C 0.89909 -0.15505 -0.19511
 C612 C 0.89057 -0.14893 -0.12583
 C613 C 0.83766 -0.13176 -0.12002
 C614 C 0.80604 -0.16044 -0.14873
 C615 C 0.85936 -0.23032 -0.12908
 C616 C 0.89143 -0.20095 -0.10054
 H617 H 0.87266 -0.19527 -0.27099
 H618 H 0.92945 -0.14016 -0.21906
 H619 H 0.82583 -0.09995 -0.09411
 H620 H 0.76763 -0.15273 -0.14772
 H621 H 0.85672 -0.26840 -0.11741
 H622 H 0.91548 -0.21385 -0.06450
 C623 C 0.83208 0.29460 0.32683
 C624 C 0.86890 0.31677 0.28324
 C625 C 0.90037 0.34596 0.31187
 C626 C 0.89295 0.35001 0.38161
 C627 C 0.83997 0.36603 0.38980
 C628 C 0.80852 0.33755 0.36077
 C629 C 0.86344 0.26820 0.37595
 C630 C 0.89541 0.29741 0.40481
 H631 H 0.87284 0.30753 0.23505
 H632 H 0.92989 0.36220 0.28766
 H633 H 0.82804 0.39689 0.41745
 H634 H 0.77001 0.34433 0.36314
 H635 H 0.86138 0.22981 0.38617
 H636 H 0.92025 0.28413 0.43975
 C637 C 0.29861 -0.17367 0.32693
 C638 C 0.33695 -0.19649 0.36950
 C639 C 0.36525 -0.16400 0.39791
 C640 C 0.35405 -0.11060 0.38131
 C641 C 0.35569 -0.10975 0.31034
 C642 C 0.32697 -0.14245 0.28208
 C643 C 0.27176 -0.13586 0.36824
 C644 C 0.30065 -0.10315 0.39667
 H645 H 0.34123 -0.23528 0.37716
 H646 H 0.39316 -0.17540 0.43006
 H647 H 0.37699 -0.08458 0.28441
 H648 H 0.32408 -0.14450 0.23251
 H649 H 0.23311 -0.13471 0.37407
 H650 H 0.28664 -0.07464 0.42663
 C651 C 0.29724 0.32682 -0.17601
 C652 C 0.32138 0.35876 -0.21910
 C653 C 0.35258 0.39234 -0.18954
 C654 C 0.35384 0.38835 -0.12238
 C655 C 0.30388 0.39431 -0.10333
 C656 C 0.27264 0.36061 -0.13301
 C657 C 0.33574 0.30383 -0.13991
 C658 C 0.36627 0.33733 -0.11022
 H659 H 0.31300 0.36189 -0.26759
 H660 H 0.37007 0.42076 -0.21484
 H661 H 0.29085 0.42201 -0.07151
 H662 H 0.23412 0.36184 -0.12558
 H663 H 0.34088 0.26482 -0.13479
 H664 H 0.39539 0.32523 -0.08025
 C665 C 1.17886 -0.19690 0.17405
 C666 C 1.14819 -0.16255 0.21484
 C667 C 1.11383 -0.13739 0.18459
 C668 C 1.11437 -0.14558 0.11497
 C669 C 1.16700 -0.13651 0.09524
 C670 C 1.20097 -0.16367 0.12650
 C671 C 1.14243 -0.22679 0.13651
 C672 C 1.10840 -0.19977 0.10606
 H673 H 1.15326 -0.15842 0.26408
 H674 H 1.08909 -0.11258 0.20825
 H675 H 1.17643 -0.11140 0.05913
 H676 H 1.23913 -0.16183 0.11758
 H677 H 1.14428 -0.26609 0.13320
 H678 H 1.08120 -0.21554 0.07721
 C679 C 1.18144 0.30332 0.67558
 C680 C 1.15113 0.33651 0.71842
 C681 C 1.11607 0.36202 0.69000
 C682 C 1.11565 0.35535 0.62022
 C683 C 1.16787 0.36548 0.59951
 C684 C 1.20258 0.33789 0.62888
 C685 C 1.14482 0.27401 0.63762
 C686 C 1.11006 0.30136 0.60930
 H687 H 1.15707 0.33968 0.76762
 H688 H 1.09163 0.38624 0.71506
 H689 H 1.17647 0.39159 0.56419
 H690 H 1.24057 0.34032 0.61921
 H691 H 1.14714 0.23484 0.63239
 H692 H 1.08268 0.28600 0.58036
 C693 C 0.69999 -0.17358 0.69477
 C694 C 0.66749 -0.19647 0.64632
 C695 C 0.63974 -0.16410 0.61414
 C696 C 0.64623 -0.11074 0.63205
 C697 C 0.63829 -0.10927 0.70199
 C698 C 0.66597 -0.14164 0.73431
 C699 C 0.72872 -0.13605 0.65767
 C700 C 0.70046 -0.10338 0.62467
 H701 H 0.66715 -0.23516 0.63701
 H702 H 0.61599 -0.17545 0.57762
 H703 H 0.61374 -0.08367 0.72454
 H704 H 0.66480 -0.14325 0.78416
 H705 H 0.76743 -0.13392 0.65804
 H706 H 0.71533 -0.07461 0.59732
 C707 C 0.69754 0.32823 0.19448
 C708 C 0.72712 0.36481 0.15718
 C709 C 0.69959 0.39719 0.12289
 C710 C 0.64529 0.39016 0.12949
 C711 C 0.63863 0.33666 0.11253
 C712 C 0.66565 0.30469 0.14606
 C713 C 0.66336 0.36071 0.23279
 C714 C 0.63642 0.39281 0.19924
 H715 H 0.76588 0.36615 0.15819
 H716 H 0.71500 0.42531 0.09495
 H717 H 0.61536 0.32491 0.07570
 H718 H 0.66525 0.26587 0.13776
 H719 H 0.66158 0.35960 0.28261
 H720 H 0.61177 0.41890 0.22071
 C721 C 0.81648 0.19800 0.16572
 C722 C 0.85101 0.22801 0.12649
 C723 C 0.88592 0.19997 0.09739
 C724 C 0.88209 0.14527 0.11091
 C725 C 0.88363 0.14156 0.18101
 C726 C 0.84974 0.16906 0.20953
 C727 C 0.79666 0.16106 0.12026
 C728 C 0.83073 0.13356 0.09201
 H729 H 0.84807 0.26707 0.12114
 H730 H 0.91278 0.21508 0.06751
 H731 H 0.91050 0.12040 0.20634
 H732 H 0.84774 0.17134 0.25931
 H733 H 0.75886 0.15819 0.10927
 H734 H 0.82193 0.10709 0.05708
 C735 C 0.81510 0.70083 0.66786
 C736 C 0.79574 0.66315 0.62276
 C737 C 0.82996 0.63490 0.59589
 C738 C 0.88119 0.64661 0.61515
 C739 C 0.88527 0.70114 0.60033
 C740 C 0.85018 0.72990 0.62812
 C741 C 0.84804 0.67231 0.71275
 C742 C 0.88201 0.64409 0.68533
 H743 H 0.75809 0.66030 0.61090
 H744 H 0.82137 0.60794 0.56148
 H745 H 0.91231 0.71560 0.57020
 H746 H 0.84740 0.76880 0.62110
 H747 H 0.84575 0.67524 0.76246
 H748 H 0.90849 0.62311 0.71154
 C749 C 0.30994 0.18391 0.69340
 C750 C 0.34189 0.20837 0.64614
 C751 C 0.36713 0.17608 0.60988
 C752 C 0.35870 0.12195 0.62435
 C753 C 0.36885 0.11729 0.69355
 C754 C 0.34434 0.14970 0.72901
 C755 C 0.27886 0.14953 0.65437
 C756 C 0.30441 0.11701 0.61853
 H757 H 0.34435 0.24729 0.64080
 H758 H 0.39070 0.18790 0.57350
 H759 H 0.39383 0.09061 0.71323
 H760 H 0.34910 0.15089 0.77853
 H761 H 0.23993 0.15127 0.65447
 H762 H 0.28752 0.09118 0.58843
 C763 C 0.30645 0.68166 0.18856
 C764 C 0.34091 0.64796 0.22488
 C765 C 0.36637 0.61584 0.18997
 C766 C 0.35697 0.62015 0.12056
 C767 C 0.30281 0.61448 0.11380
 C768 C 0.27637 0.64670 0.14908
 C769 C 0.33862 0.70642 0.14175
 C770 C 0.36480 0.67439 0.10612
 H771 H 0.34500 0.64928 0.27449
 H772 H 0.39152 0.58958 0.21019
 H773 H 0.28660 0.58832 0.08352
 H774 H 0.23744 0.64784 0.14848
 H775 H 0.34052 0.74537 0.13622
 H776 H 0.38862 0.68646 0.07017
   
