data_POSCAR
  _audit_creation_date              2014-09-24
  _audit_creation_method            'ToBaCCo'
  _symmetry_space_group_name_H-M    'P1'
  _symmetry_Int_Tables_number       1
  _symmetry_cell_setting            triclinic
  loop_
  _symmetry_equiv_pos_as_xyz
 x,y,z
_cell_length_a 26.9172
_cell_length_b 26.0843
_cell_length_c 28.6244
_cell_angle_alpha 91.091900
_cell_angle_beta 91.690400
_cell_angle_gamma 90.691100
loop_
  _atom_site_label
  _atom_site_type_symbol
  _atom_site_fract_x
  _atom_site_fract_y
  _atom_site_fract_z
C1 C 1.29336 0.20007 0.28963
 C2 C 1.26550 0.22953 0.25845
 C3 C 1.23412 0.20583 0.22471
 C4 C 1.22916 0.15237 0.22207
 C5 C 1.25748 0.12254 0.25364
 C6 C 1.29045 0.14597 0.28745
 C7 C 1.26887 0.28572 0.26116
 C8 C 1.30050 0.31203 0.23176
 C9 C 1.30246 0.36621 0.23263
 C10 C 1.27262 0.39284 0.26413
 C11 C 1.23996 0.36669 0.29266
 C12 C 1.23885 0.31286 0.29164
 H13 H 1.31632 0.22044 0.31555
 H14 H 1.21297 0.22941 0.20069
 H15 H 1.32260 0.28931 0.20853
 H16 H 1.21483 0.29178 0.31435
 H17 H 1.25516 0.08113 0.25121
 H18 H 1.27316 0.43446 0.26522
 C19 C 0.78193 -0.31858 0.28113
 C20 C 0.75407 -0.28845 0.25036
 C21 C 0.72202 -0.31208 0.21664
 C22 C 0.71764 -0.36589 0.21419
 C23 C 0.74556 -0.39556 0.24542
 C24 C 0.77848 -0.37253 0.27869
 C25 C 0.76109 -0.23228 0.25295
 C26 C 0.78859 -0.20775 0.21901
 C27 C 0.80187 -0.15560 0.22434
 C28 C 0.78439 -0.12762 0.26299
 C29 C 0.75606 -0.15150 0.29732
 C30 C 0.74559 -0.20448 0.29220
 H31 H 0.80541 -0.29910 0.30734
 H32 H 0.70160 -0.28879 0.19190
 H33 H 0.80027 -0.22995 0.18904
 H34 H 0.72614 -0.22515 0.31855
 H35 H 0.74244 -0.43705 0.24290
 H36 H 0.79361 -0.08715 0.26673
 C37 C 0.78535 0.21608 -0.20379
 C38 C 0.75405 0.23887 -0.23713
 C39 C 0.72730 0.20824 -0.27005
 C40 C 0.73012 0.15454 -0.26885
 C41 C 0.76099 0.13192 -0.23455
 C42 C 0.79019 0.16240 -0.20275
 C43 C 0.75299 0.29513 -0.24026
 C44 C 0.78330 0.31896 -0.27235
 C45 C 0.78507 0.37286 -0.27546
 C46 C 0.75537 0.40209 -0.24573
 C47 C 0.72404 0.37868 -0.21402
 C48 C 0.72342 0.32481 -0.21098
 H49 H 0.80561 0.24067 -0.17884
 H50 H 0.70346 0.22636 -0.29588
 H51 H 0.80524 0.29436 -0.29410
 H52 H 0.70088 0.30585 -0.18561
 H53 H 0.76312 0.09049 -0.23334
 H54 H 0.75604 0.44361 -0.24757
 C55 C 1.26533 -0.29964 -0.21854
 C56 C 1.24651 -0.26975 -0.25499
 C57 C 1.22221 -0.29359 -0.29357
 C58 C 1.21345 -0.34660 -0.29440
 C59 C 1.23077 -0.37628 -0.25701
 C60 C 1.25916 -0.35357 -0.21991
 C61 C 1.25159 -0.21339 -0.25257
 C62 C 1.28068 -0.18776 -0.28480
 C63 C 1.28555 -0.13398 -0.28289
 C64 C 1.25895 -0.10627 -0.24926
 C65 C 1.22856 -0.13138 -0.21740
 C66 C 1.22618 -0.18533 -0.21872
 H67 H 1.28391 -0.28026 -0.18903
 H68 H 1.20878 -0.27060 -0.32236
 H69 H 1.29892 -0.21016 -0.31129
 H70 H 1.20460 -0.20602 -0.19377
 H71 H 1.22517 -0.41753 -0.25860
 H72 H 1.26168 -0.06476 -0.24806
 C73 C 0.18493 0.25453 0.70328
 C74 C 0.21166 0.23351 0.74060
 C75 C 0.18658 0.20993 0.77670
 C76 C 0.13410 0.20641 0.77540
 C77 C 0.10784 0.22923 0.73817
 C78 C 0.13280 0.25382 0.70242
 C79 C 0.26623 0.23606 0.74144
 C80 C 0.29190 0.26806 0.77395
 C81 C 0.34424 0.27219 0.77371
 C82 C 0.36998 0.24191 0.74132
 C83 C 0.34427 0.20942 0.70885
 C84 C 0.29232 0.20756 0.70869
 H85 H 0.20526 0.27129 0.67518
 H86 H 0.20886 0.19471 0.80505
 H87 H 0.27031 0.28923 0.79881
 H88 H 0.27199 0.18328 0.68338
 H89 H 0.06751 0.22792 0.73685
 H90 H 0.41008 0.24521 0.74037
 C91 C 0.69730 0.78474 0.72132
 C92 C 0.73055 0.75435 0.74627
 C93 C 0.71317 0.72114 0.77995
 C94 C 0.66249 0.71867 0.79010
 C95 C 0.62879 0.74943 0.76424
 C96 C 0.64596 0.78304 0.72979
 C97 C 0.78422 0.76055 0.73946
 C98 C 0.81431 0.78047 0.77616
 C99 C 0.86482 0.79129 0.76959
 C100 C 0.88562 0.77850 0.72665
 C101 C 0.85620 0.75654 0.69005
 C102 C 0.80491 0.74928 0.69621
 H103 H 0.71226 0.80847 0.69440
 H104 H 0.73979 0.69821 0.79931
 H105 H 0.79769 0.78790 0.80955
 H106 H 0.78099 0.73459 0.66784
 H107 H 0.58930 0.74693 0.77015
 H108 H 0.92498 0.78510 0.72189
 C109 C 0.67027 0.27294 0.20673
 C110 C 0.69642 0.24399 0.23967
 C111 C 0.67092 0.21872 0.27458
 C112 C 0.61898 0.22198 0.27681
 C113 C 0.59317 0.25263 0.24445
 C114 C 0.61852 0.27848 0.20922
 C115 C 0.75092 0.24185 0.23846
 C116 C 0.77987 0.26709 0.27348
 C117 C 0.83195 0.26786 0.27133
 C118 C 0.85455 0.24120 0.23482
 C119 C 0.82603 0.21485 0.20008
 C120 C 0.77389 0.21627 0.20159
 H121 H 0.69082 0.29099 0.17948
 H122 H 0.69183 0.19719 0.30033
 H123 H 0.76142 0.28606 0.30197
 H124 H 0.75086 0.19812 0.17425
 H125 H 0.55320 0.25611 0.24654
 H126 H 0.89477 0.24094 0.23342
 C127 C 0.18754 0.77024 0.22581
 C128 C 0.21623 0.74524 0.25960
 C129 C 0.19289 0.71704 0.29414
 C130 C 0.14068 0.71078 0.29274
 C131 C 0.11259 0.73522 0.25761
 C132 C 0.13526 0.76708 0.22527
 C133 C 0.27088 0.74907 0.25765
 C134 C 0.29835 0.77202 0.29473
 C135 C 0.34916 0.78268 0.29057
 C136 C 0.37309 0.76696 0.24961
 C137 C 0.34630 0.74269 0.21237
 C138 C 0.29474 0.73494 0.21647
 H139 H 0.20721 0.79125 0.19985
 H140 H 0.21587 0.69750 0.31965
 H141 H 0.27945 0.78424 0.32590
 H142 H 0.27233 0.71894 0.18770
 H143 H 0.07241 0.73091 0.25655
 H144 H 0.41271 0.77282 0.24659
 O145 O 1.09424 0.01861 0.06592
 O146 O 0.92103 -0.01569 0.06757
 O147 O 0.98033 0.08940 0.06153
 O148 O 1.03351 -0.08693 0.06434
 O149 O 0.91217 0.06727 0.03019
 O150 O 1.09943 -0.06736 0.03164
 O151 O 0.94824 -0.09041 0.04935
 O152 O 1.06461 0.09171 0.04607
 C153 C 1.08924 0.06497 0.07470
 C154 C 0.92602 -0.06138 0.07745
 C155 C 0.93493 0.08955 0.06295
 C156 C 1.07906 -0.08684 0.06516
 O157 O 1.08778 -0.02931 -0.05283
 O158 O 0.91896 0.02128 -0.05265
 O159 O 1.03925 0.08230 -0.05025
 O160 O 0.96746 -0.08809 -0.04711
 O161 O 0.90392 -0.06051 -0.01553
 O162 O 1.10481 0.05618 -0.01816
 O163 O 1.05124 -0.09880 -0.03189
 O164 O 0.95525 0.09339 -0.03513
 Co165 Co 1.08706 -0.00499 0.00663
 Co166 Co 0.92351 0.00264 0.00738
 Co167 Co 1.00941 0.08121 0.00566
 Co168 Co 1.00051 -0.08309 0.00856
 O169 O 1.00515 -0.00104 0.00704
 C170 C 1.07717 -0.07520 -0.06075
 C171 C 0.92765 0.06637 -0.06266
 C172 C 1.08455 0.07810 -0.05133
 C173 C 0.92224 -0.08373 -0.04870
 O174 O 1.08386 0.52844 0.54113
 O175 O 0.91662 0.46059 0.55692
 O176 O 0.95902 0.61883 0.52399
 O177 O 1.02879 0.38808 0.53730
 O178 O 0.92373 0.54982 0.54808
 O179 O 1.09124 0.43777 0.51814
 O180 O 0.93612 0.38991 0.52297
 O181 O 1.01308 0.55510 0.56684
 C182 C 1.05808 0.54557 0.57431
 C183 C 0.91814 0.41316 0.55681
 C184 C 0.92162 0.59793 0.54414
 C185 C 1.07339 0.40213 0.54223
 O186 O 1.07033 0.46266 0.42795
 O187 O 0.90494 0.53814 0.45400
 O188 O 1.04904 0.60223 0.49815
 O189 O 0.95067 0.40200 0.43394
 O190 O 0.89153 0.44636 0.46495
 O191 O 1.06426 0.54825 0.44661
 O192 O 1.04129 0.39020 0.44882
 O193 O 0.97525 0.57589 0.44605
 Co194 Co 1.07102 0.49408 0.48447
 Co195 Co 0.91642 0.49788 0.50464
 Co196 Co 0.99275 0.56268 0.50605
 Co197 Co 0.98949 0.40153 0.48645
 O198 O 0.99449 0.48566 0.49357
 C199 C 1.06567 0.41592 0.42142
 C200 C 0.93233 0.56681 0.43111
 C201 C 1.07206 0.59206 0.46255
 C202 C 0.90663 0.41632 0.43347
 O203 O 0.62768 0.05127 0.51160
 O204 O 0.42595 -0.03605 0.55701
 O205 O 0.49038 0.08078 0.56892
 O206 O 0.55810 -0.09283 0.55126
 O207 O 0.42072 0.05690 0.53815
 O208 O 0.59821 -0.02197 0.56047
 O209 O 0.46884 -0.10190 0.53351
 O210 O 0.57387 0.07180 0.55861
 C211 C 0.61770 0.07605 0.54727
 C212 C 0.43787 -0.08196 0.56085
 C213 C 0.44470 0.07852 0.57072
 C214 C 0.58651 -0.06447 0.57574
 O215 O 0.64211 -0.04381 0.48478
 O216 O 0.42426 0.03519 0.45002
 O217 O 0.56030 0.08780 0.46169
 O218 O 0.48865 -0.08543 0.44172
 O219 O 0.41938 -0.05938 0.46780
 O220 O 0.58488 0.01241 0.43839
 O221 O 0.57446 -0.08127 0.45714
 O222 O 0.47183 0.09935 0.47560
 Co223 Co 0.58850 -0.00627 0.49941
 Co224 Co 0.43137 -0.00098 0.50351
 Co225 Co 0.52373 0.07842 0.51519
 Co226 Co 0.52204 -0.08256 0.49713
 O227 O 0.51347 -0.00054 0.50534
 C228 C 0.62141 -0.08229 0.46190
 C229 C 0.43899 0.08072 0.44700
 C230 C 0.57729 0.05877 0.42994
 C231 C 0.44298 -0.08266 0.43725
 O232 O 0.57250 0.55688 0.03949
 O233 O 0.40854 0.46962 0.05746
 O234 O 0.42859 0.62058 0.01385
 O235 O 0.52112 0.41319 0.04128
 O236 O 0.41146 0.55627 0.05245
 O237 O 0.58202 0.46483 0.02098
 O238 O 0.42993 0.40322 0.02034
 O239 O 0.50212 0.58605 0.05857
 C240 C 0.54656 0.57960 0.06872
 C241 C 0.41388 0.42282 0.05626
 C242 C 0.40399 0.60212 0.04542
 C243 C 0.56500 0.42960 0.04679
 O244 O 0.56060 0.48740 -0.07147
 O245 O 0.38988 0.55192 -0.04316
 O246 O 0.51789 0.63977 -0.01405
 O247 O 0.44753 0.41693 -0.06582
 O248 O 0.38439 0.45827 -0.03709
 O249 O 0.55285 0.57720 -0.05273
 O250 O 0.53936 0.41429 -0.04584
 O251 O 0.46023 0.58559 -0.06289
 Co252 Co 0.55941 0.52022 -0.01474
 Co253 Co 0.40471 0.50891 0.00618
 Co254 Co 0.48273 0.58258 -0.00262
 Co255 Co 0.48418 0.42090 -0.01175
 O256 O 0.48101 0.50511 -0.00504
 C257 C 0.55888 0.44012 -0.07633
 C258 C 0.41523 0.57683 -0.07184
 C259 C 0.54955 0.62537 -0.04460
 C260 C 0.40252 0.42873 -0.06779
 C261 C 1.19549 0.13029 0.18444
 C262 C 1.17555 0.08292 0.18444
 C263 C 1.14359 0.06127 0.14556
 C264 C 1.11651 0.08915 0.11518
 H265 H 1.18454 0.05743 0.21271
 H266 H 1.14231 0.01982 0.14239
 H267 H 1.18656 0.15496 0.15547
 H268 H 1.11496 0.13042 0.11916
 C269 C 1.18942 0.62942 0.66369
 C270 C 1.15289 0.59453 0.66583
 C271 C 1.12958 0.57384 0.62233
 C272 C 1.08189 0.55908 0.61978
 H273 H 1.13871 0.58344 0.69927
 H274 H 1.15091 0.57474 0.59077
 H275 H 1.20004 0.64345 0.62993
 H276 H 1.05917 0.56208 0.65032
 C277 C 0.69864 0.12194 0.69872
 C278 C 0.69074 0.13297 0.65347
 C279 C 0.65443 0.10331 0.62362
 C280 C 0.65596 0.10312 0.57680
 H281 H 0.71057 0.16476 0.63841
 H282 H 0.62570 0.08138 0.64034
 H283 H 0.68156 0.08782 0.71257
 H284 H 0.68661 0.12175 0.55991
 C285 C 0.68813 0.60738 0.17672
 C286 C 0.64260 0.62155 0.16284
 C287 C 0.61700 0.59391 0.12358
 C288 C 0.56904 0.60116 0.11246
 H289 H 0.62471 0.65351 0.17995
 H290 H 0.63864 0.56827 0.10217
 H291 H 0.70402 0.57331 0.16115
 H292 H 0.54688 0.62591 0.13416
 C293 C 0.83321 -0.12943 0.18976
 C294 C 0.86714 -0.15431 0.16442
 C295 C 0.89718 -0.13145 0.12720
 C296 C 0.90034 -0.08127 0.11837
 H297 H 0.87290 -0.19475 0.16982
 H298 H 0.91696 -0.15821 0.10535
 H299 H 0.82815 -0.08867 0.18597
 H300 H 0.88181 -0.05356 0.14010
 C301 C 0.81455 0.39894 0.69262
 C302 C 0.84448 0.37637 0.66209
 C303 C 0.87066 0.40696 0.62793
 C304 C 0.89566 0.38401 0.59406
 H305 H 0.84921 0.33539 0.66037
 H306 H 0.86764 0.44839 0.62923
 H307 H 0.81224 0.44047 0.69211
 H308 H 0.89790 0.34254 0.59242
 C309 C 0.31603 -0.10520 0.68352
 C310 C 0.35174 -0.12583 0.65746
 C311 C 0.37864 -0.09418 0.62389
 C312 C 0.41358 -0.11356 0.59626
 H313 H 0.36141 -0.16577 0.66051
 H314 H 0.36865 -0.05418 0.62105
 H315 H 0.30898 -0.06452 0.68052
 H316 H 0.42355 -0.15355 0.59880
 C317 C 0.33067 0.39528 0.20190
 C318 C 0.35741 0.37580 0.16733
 C319 C 0.37872 0.40982 0.13284
 C320 C 0.39780 0.39028 0.09411
 H321 H 0.36127 0.33504 0.16171
 H322 H 0.37606 0.45103 0.13770
 H323 H 0.32854 0.43677 0.20483
 H324 H 0.40009 0.34906 0.08916
 C325 C 0.82413 0.13722 -0.16820
 C326 C 0.86411 0.16086 -0.14744
 C327 C 0.89671 0.13813 -0.11062
 C328 C 0.90008 0.08777 -0.10307
 H329 H 0.87306 0.20001 -0.15598
 H330 H 0.91862 0.16464 -0.08864
 H331 H 0.81541 0.09791 -0.15995
 H332 H 0.87958 0.06069 -0.12554
 C333 C 0.80579 0.59594 0.30904
 C334 C 0.84648 0.61158 0.33358
 C335 C 0.86936 0.57897 0.36917
 C336 C 0.91352 0.59158 0.38876
 H337 H 0.86329 0.64882 0.32822
 H338 H 0.84848 0.54638 0.38159
 H339 H 0.79394 0.55623 0.31194
 H340 H 0.93492 0.62326 0.37535
 C341 C 0.31854 0.11464 0.31806
 C342 C 0.35463 0.13164 0.34842
 C343 C 0.38003 0.09671 0.38114
 C344 C 0.41602 0.11382 0.41125
 H345 H 0.36628 0.17138 0.35007
 H346 H 0.36806 0.05689 0.38154
 H347 H 0.31067 0.07374 0.31677
 H348 H 0.42791 0.15365 0.41068
 C349 C 0.28112 0.61465 -0.18606
 C350 C 0.32142 0.62861 -0.16008
 C351 C 0.34415 0.59449 -0.12536
 C352 C 0.39189 0.60136 -0.11250
 H353 H 0.34010 0.66487 -0.16572
 H354 H 0.32153 0.56558 -0.10909
 H355 H 0.26746 0.57552 -0.18350
 H356 H 0.41419 0.62923 -0.13052
 C357 C 1.20113 -0.10018 -0.18259
 C358 C 1.16085 -0.11700 -0.16052
 C359 C 1.13642 -0.08493 -0.12488
 C360 C 1.09891 -0.10366 -0.10020
 H361 H 1.14558 -0.15487 -0.16826
 H362 H 1.15070 -0.04652 -0.11734
 H363 H 1.21424 -0.06126 -0.17546
 H364 H 1.08580 -0.14261 -0.10706
 C365 C 1.20721 0.39684 0.32267
 C366 C 1.16224 0.38010 0.33404
 C367 C 1.13166 0.41058 0.36525
 C368 C 1.09173 0.38967 0.38403
 H369 H 1.14813 0.34325 0.32116
 H370 H 1.14393 0.44898 0.37573
 H371 H 1.21974 0.43477 0.33434
 H372 H 1.08110 0.35033 0.37529
 C373 C 0.73900 -0.11996 0.33791
 C374 C 0.70685 -0.13647 0.36957
 C375 C 0.68784 -0.10218 0.40666
 C376 C 0.64935 -0.11737 0.43183
 H377 H 0.69158 -0.17491 0.36715
 H378 H 0.70244 -0.06339 0.41078
 H379 H 0.75212 -0.08053 0.34084
 H380 H 0.63297 -0.15504 0.42499
 C381 C 0.69395 0.41205 -0.18379
 C382 C 0.65018 0.39748 -0.16743
 C383 C 0.62245 0.43124 -0.13592
 C384 C 0.58282 0.41284 -0.11469
 H385 H 0.63492 0.35985 -0.17651
 H386 H 0.63650 0.46952 -0.12732
 H387 H 0.70763 0.45064 -0.17595
 H388 H 0.57086 0.37353 -0.12183
 C389 C 1.10657 0.18140 -0.19044
 C390 C 1.12624 0.15392 -0.15559
 C391 C 1.09430 0.12936 -0.12154
 C392 C 1.11436 0.10151 -0.08743
 H393 H 1.16580 0.14832 -0.15167
 H394 H 1.05440 0.13464 -0.12390
 H395 H 1.06633 0.18362 -0.19302
 H396 H 1.15429 0.09651 -0.08517
 C397 C 1.11540 0.67903 0.32348
 C398 C 1.13346 0.66387 0.36498
 C399 C 1.10470 0.62691 0.39158
 C400 C 1.10156 0.63017 0.43799
 H401 H 1.16804 0.67915 0.38003
 H402 H 1.08369 0.59738 0.37212
 H403 H 1.07764 0.66722 0.31357
 H404 H 1.11885 0.66194 0.45752
 C405 C 0.59185 0.19603 0.31436
 C406 C 0.60539 0.15027 0.33081
 C407 C 0.58225 0.12780 0.37205
 C408 C 0.59281 0.07994 0.38508
 H409 H 0.63516 0.12955 0.31449
 H410 H 0.55838 0.15144 0.39314
 H411 H 0.56001 0.21508 0.32876
 H412 H 0.61561 0.05612 0.36311
 C413 C 0.64820 0.68496 -0.17460
 C414 C 0.60633 0.68832 -0.15065
 C415 C 0.59571 0.65095 -0.11393
 C416 C 0.56751 0.66343 -0.07788
 H417 H 0.58092 0.71967 -0.15608
 H418 H 0.61063 0.61263 -0.11689
 H419 H 0.67466 0.65615 -0.16363
 H420 H 0.55426 0.70236 -0.07436
 C421 C 0.89671 -0.18504 -0.19281
 C422 C 0.87842 -0.15538 -0.15901
 C423 C 0.91068 -0.13315 -0.12164
 C424 C 0.89116 -0.10646 -0.08660
 H425 H 0.83922 -0.14667 -0.15879
 H426 H 0.95047 -0.13901 -0.12252
 H427 H 0.93649 -0.19095 -0.19371
 H428 H 0.85132 -0.10104 -0.08566
 C429 C 0.86425 0.29475 0.30687
 C430 C 0.84948 0.33363 0.33409
 C431 C 0.88479 0.35784 0.36813
 C432 C 0.87132 0.39512 0.39770
 H433 H 0.81199 0.34801 0.33125
 H434 H 0.92256 0.34379 0.36974
 H435 H 0.90273 0.28297 0.30964
 H436 H 0.83345 0.40880 0.39680
 C437 C 0.37522 -0.18888 0.32949
 C438 C 0.41690 -0.16117 0.32447
 C439 C 0.44137 -0.13180 0.36333
 C440 C 0.41664 -0.10974 0.39825
 H441 H 0.43516 -0.16061 0.29137
 H442 H 0.48130 -0.12673 0.36188
 H443 H 0.35810 -0.18930 0.36326
 H444 H 0.37643 -0.11140 0.39838
 C445 C 0.37218 0.30491 -0.19555
 C446 C 0.35334 0.34005 -0.16637
 C447 C 0.38673 0.36974 -0.13420
 C448 C 0.36956 0.40459 -0.10402
 H449 H 0.31396 0.34722 -0.16524
 H450 H 0.42606 0.36114 -0.13383
 H451 H 0.41237 0.30185 -0.19589
 H452 H 0.33027 0.41321 -0.10410
 C453 C 1.10492 -0.20584 0.19353
 C454 C 1.12175 -0.16911 0.16577
 C455 C 1.08887 -0.14315 0.13232
 C456 C 1.10865 -0.11164 0.10159
 H457 H 1.16020 -0.15684 0.16712
 H458 H 1.04920 -0.15101 0.13161
 H459 H 1.06530 -0.21424 0.19222
 H460 H 1.14858 -0.10542 0.10170
 C461 C 1.10323 0.27767 0.66453
 C462 C 1.12066 0.31560 0.63861
 C463 C 1.08877 0.33900 0.60278
 C464 C 1.10567 0.37706 0.57681
 H465 H 1.15791 0.33087 0.64454
 H466 H 1.05073 0.32525 0.59801
 H467 H 1.06488 0.26510 0.65917
 H468 H 1.14375 0.39064 0.58152
 C469 C 0.61191 -0.18831 0.70260
 C470 C 0.62537 -0.14687 0.67841
 C471 C 0.59359 -0.12478 0.64125
 C472 C 0.60804 -0.08159 0.62060
 H473 H 0.66180 -0.12951 0.68424
 H474 H 0.56137 -0.14629 0.62781
 H475 H 0.57322 -0.20048 0.70085
 H476 H 0.63963 -0.05988 0.63517
 C477 C 0.58974 0.30911 0.17469
 C478 C 0.60967 0.34497 0.14744
 C479 C 0.57858 0.37111 0.11213
 C480 C 0.59698 0.40629 0.08333
 H481 H 0.64869 0.35516 0.15060
 H482 H 0.53957 0.36030 0.10910
 H483 H 0.55001 0.30178 0.17168
 H484 H 0.63582 0.41762 0.08634
 C485 C 0.85236 0.18759 0.16251
 C486 C 0.83286 0.14758 0.13785
 C487 C 0.85992 0.11932 0.10151
 C488 C 0.90961 0.11807 0.09979
 H489 H 0.79526 0.13469 0.14363
 H490 H 0.83757 0.09708 0.07618
 H491 H 0.88987 0.20047 0.15621
 H492 H 0.93280 0.13755 0.12621
 C493 C 0.88065 0.73979 0.64685
 C494 C 0.86447 0.69908 0.62153
 C495 C 0.89538 0.67582 0.58557
 C496 C 0.88669 0.62731 0.57193
 H497 H 0.83091 0.67889 0.63090
 H498 H 0.92798 0.69624 0.57400
 H499 H 0.91621 0.75715 0.63908
 H500 H 0.85540 0.60648 0.58567
 C501 C 0.36989 0.17878 0.67308
 C502 C 0.41664 0.16214 0.67846
 C503 C 0.44219 0.13232 0.64213
 C504 C 0.41833 0.10452 0.60838
 H505 H 0.43821 0.17176 0.70993
 H506 H 0.48246 0.13316 0.64386
 H507 H 0.34863 0.16935 0.64136
 H508 H 0.37824 0.10098 0.60742
 C509 C 0.37341 0.72682 0.16987
 C510 C 0.35529 0.69301 0.13771
 C511 C 0.38578 0.67354 0.09930
 C512 C 0.37100 0.63124 0.07556
 H513 H 0.31890 0.67586 0.14137
 H514 H 0.42202 0.69043 0.09349
 H515 H 0.41107 0.74119 0.16640
 H516 H 0.33655 0.61237 0.08449
   
