data_POSCAR
  _audit_creation_date              2014-09-24
  _audit_creation_method            'ToBaCCo'
  _symmetry_space_group_name_H-M    'P1'
  _symmetry_Int_Tables_number       1
  _symmetry_cell_setting            triclinic
  loop_
  _symmetry_equiv_pos_as_xyz
 x,y,z
_cell_length_a 40.8835
_cell_length_b 41.4259
_cell_length_c 40.8838
_cell_angle_alpha 89.942500
_cell_angle_beta 89.994200
_cell_angle_gamma 89.887100
loop_
  _atom_site_label
  _atom_site_type_symbol
  _atom_site_fract_x
  _atom_site_fract_y
  _atom_site_fract_z
C1 C 0.19289 0.15520 0.18957
 C2 C 0.17785 0.14155 0.21708
 C3 C 0.15322 0.15833 0.23428
 C4 C 0.14342 0.18903 0.22290
 C5 C 0.15729 0.20233 0.19449
 C6 C 0.18248 0.18555 0.17806
 C7 C 0.21830 0.13887 0.17350
 C8 C 0.23447 0.15297 0.14659
 C9 C 0.22335 0.18307 0.13484
 C10 C 0.19701 0.19898 0.14988
 C11 C 0.18464 0.22787 0.13693
 C12 C 0.15863 0.24400 0.15234
 C13 C 0.14581 0.23173 0.18172
 H14 H 0.18601 0.11804 0.22546
 H15 H 0.12421 0.20221 0.23541
 H16 H 0.22619 0.11562 0.18284
 H17 H 0.23476 0.19400 0.11361
 H18 H 0.19499 0.23769 0.11462
 H19 H 0.12584 0.24424 0.19373
 C20 C -0.18867 0.84907 0.19535
 C21 C -0.17200 0.86468 0.22083
 C22 C -0.14553 0.84955 0.23687
 C23 C -0.13481 0.81916 0.22558
 C24 C -0.15042 0.80394 0.19926
 C25 C -0.17816 0.81839 0.18484
 C26 C -0.21579 0.86368 0.18036
 C27 C -0.23359 0.84749 0.15581
 C28 C -0.22316 0.81650 0.14595
 C29 C -0.19518 0.80226 0.15970
 C30 C -0.18344 0.77251 0.14813
 C31 C -0.15447 0.75921 0.16083
 C32 C -0.13845 0.77470 0.18680
 H33 H -0.18054 0.88817 0.22884
 H34 H -0.11392 0.80745 0.23687
 H35 H -0.22345 0.88741 0.18854
 H36 H -0.23613 0.80375 0.12679
 H37 H -0.19592 0.76049 0.12818
 H38 H -0.11645 0.76410 0.19705
 C39 C -0.19507 0.15009 -0.19256
 C40 C -0.17857 0.13486 -0.21842
 C41 C -0.15191 0.14996 -0.23369
 C42 C -0.14075 0.17980 -0.22195
 C43 C -0.15635 0.19481 -0.19546
 C44 C -0.18426 0.18043 -0.18135
 C45 C -0.22223 0.13548 -0.17783
 C46 C -0.23976 0.15126 -0.15277
 C47 C -0.22917 0.18199 -0.14233
 C48 C -0.20114 0.19626 -0.15587
 C49 C -0.18920 0.22572 -0.14380
 C50 C -0.16018 0.23898 -0.15636
 C51 C -0.14424 0.22373 -0.18256
 H52 H -0.18707 0.11170 -0.22733
 H53 H -0.11968 0.19112 -0.23324
 H54 H -0.23005 0.11201 -0.18652
 H55 H -0.24199 0.19443 -0.12283
 H56 H -0.20159 0.23753 -0.12363
 H57 H -0.12220 0.23428 -0.19271
 C58 C 0.19573 0.84431 -0.19400
 C59 C 0.18229 0.85987 -0.22135
 C60 C 0.15454 0.84726 -0.23730
 C61 C 0.14013 0.81881 -0.22495
 C62 C 0.15261 0.80370 -0.19684
 C63 C 0.18069 0.81631 -0.18145
 C64 C 0.22392 0.85644 -0.17889
 C65 C 0.23674 0.84150 -0.15085
 C66 C 0.22139 0.81396 -0.13804
 C67 C 0.19366 0.80101 -0.15340
 C68 C 0.17855 0.77316 -0.14108
 C69 C 0.15017 0.76093 -0.15590
 C70 C 0.13728 0.77631 -0.18370
 H71 H 0.19399 0.88153 -0.23053
 H72 H 0.11861 0.80880 -0.23661
 H73 H 0.23557 0.87793 -0.18856
 H74 H 0.23133 0.80239 -0.11640
 H75 H 0.18839 0.76141 -0.11950
 H76 H 0.11550 0.76673 -0.19525
 C77 C 0.15660 1.19941 0.80516
 C78 C 0.14538 1.18722 0.77509
 C79 C 0.15767 1.15784 0.76258
 C80 C 0.18315 1.14214 0.77957
 C81 C 0.19535 1.15468 0.80890
 C82 C 0.18128 1.18274 0.82239
 C83 C 0.14305 1.22764 0.81857
 C84 C 0.15271 1.23869 0.84978
 C85 C 0.17711 1.22142 0.86690
 C86 C 0.19189 1.19404 0.85315
 C87 C 0.21732 1.17789 0.86955
 C88 C 0.23272 1.15112 0.85514
 C89 C 0.22136 1.13941 0.82505
 H90 H 0.12601 1.19993 0.76230
 H91 H 0.19371 1.12005 0.77000
 H92 H 0.12415 1.24032 0.80508
 H93 H 0.18527 1.22962 0.89071
 H94 H 0.22594 1.18681 0.89294
 H95 H 0.23272 1.11826 0.81428
 C96 C 0.84829 0.80519 0.80049
 C97 C 0.86298 0.82009 0.77337
 C98 C 0.85083 0.84957 0.76097
 C99 C 0.82316 0.86359 0.77593
 C100 C 0.80753 0.84832 0.80226
 C101 C 0.82024 0.81911 0.81473
 C102 C 0.86147 0.77673 0.81375
 C103 C 0.84639 0.76123 0.84053
 C104 C 0.81772 0.77489 0.85387
 C105 C 0.80500 0.80395 0.84161
 C106 C 0.77750 0.81834 0.85611
 C107 C 0.76462 0.84726 0.84359
 C108 C 0.77951 0.86197 0.81649
 H109 H 0.88444 0.80903 0.76253
 H110 H 0.81323 0.88613 0.76675
 H111 H 0.88333 0.76652 0.80284
 H112 H 0.80577 0.76357 0.87458
 H113 H 0.76591 0.80694 0.87698
 H114 H 0.76971 0.88445 0.80702
 C115 C 0.14984 0.80148 1.19363
 C116 C 0.13630 0.81654 1.22126
 C117 C 0.15127 0.84387 1.23492
 C118 C 0.18023 0.85591 1.22113
 C119 C 0.19452 0.84064 1.19409
 C120 C 0.17923 0.81338 1.18018
 C121 C 0.13434 0.77491 1.17911
 C122 C 0.14837 0.75920 1.15189
 C123 C 0.17814 0.77094 1.13916
 C124 C 0.19322 0.79820 1.15266
 C125 C 0.22189 0.81078 1.13880
 C126 C 0.23715 0.83786 1.15259
 C127 C 0.22363 0.85243 1.18047
 H128 H 0.11375 0.80746 1.23174
 H129 H 0.19182 0.87697 1.23174
 H130 H 0.11161 0.76619 1.18950
 H131 H 0.18926 0.75949 1.11806
 H132 H 0.23246 0.79945 1.11735
 H133 H 0.23527 0.87351 1.19097
 C134 C 0.84376 1.19910 1.19844
 C135 C 0.85916 1.18463 1.22539
 C136 C 0.84848 1.15454 1.23745
 C137 C 0.82203 1.13910 1.22182
 C138 C 0.80560 1.15398 1.19573
 C139 C 0.81625 1.18426 1.18417
 C140 C 0.85584 1.22790 1.18513
 C141 C 0.84025 1.24251 1.15832
 C142 C 0.81156 1.22880 1.14555
 C143 C 0.79967 1.19950 1.15805
 C144 C 0.77204 1.18471 1.14430
 C145 C 0.76165 1.15432 1.15546
 C146 C 0.77867 1.13900 1.18097
 H147 H 0.87996 1.19660 1.23644
 H148 H 0.81347 1.11587 1.23050
 H149 H 0.87764 1.23880 1.19537
 H150 H 0.79945 1.24010 1.12490
 H151 H 0.75922 1.19633 1.12427
 H152 H 0.77056 1.11562 1.18969
 O153 O 0.45312 1.05525 1.05786
 O154 O 0.41802 1.02116 1.03103
 C155 C 0.42402 1.04499 1.05059
 O156 O 0.54469 1.05431 0.94394
 O157 O 0.58128 1.02398 0.97366
 C158 C 0.57421 1.04563 0.95185
 O159 O 0.45239 1.05412 0.94622
 O160 O 0.41749 1.02285 0.97678
 C161 C 0.42334 1.04537 0.95556
 O162 O 0.54509 1.05363 1.06140
 O163 O 0.58141 1.02448 1.03033
 C164 C 0.57455 1.04556 1.05271
 Zr165 Zr 0.49938 1.03617 1.04435
 O166 O 0.50152 1.08697 1.04842
 O167 O 0.49575 1.03255 1.09591
 Zr168 Zr 0.49901 1.03709 0.96143
 O169 O 0.50098 1.08816 0.96137
 O170 O 0.49558 1.03663 0.90975
 O171 O 0.47005 1.04236 1.00304
 O172 O 0.52732 1.04310 1.00280
 O173 O 0.54774 0.93929 1.06086
 O174 O 0.58273 0.97098 1.03082
 C175 C 0.57679 0.94908 1.05269
 O176 O 0.45520 0.93711 0.94465
 O177 O 0.41889 0.96619 0.97581
 C178 C 0.42577 0.94450 0.95404
 O179 O 0.54704 0.94221 0.94109
 O180 O 0.58234 0.97030 0.97412
 C181 C 0.57621 0.95031 0.95056
 O182 O 0.45575 0.93561 1.05933
 O183 O 0.41915 0.96535 1.02904
 C184 C 0.42624 0.94319 1.05030
 Zr185 Zr 0.50129 0.95461 1.04358
 O186 O 0.50548 0.90368 1.04344
 O187 O 0.49843 0.95484 1.09529
 Zr188 Zr 0.50090 0.95553 0.96066
 O189 O 0.50580 0.90463 0.96118
 O190 O 0.49706 0.95511 0.90905
 Zr191 Zr 0.45167 0.99481 1.00273
 Zr192 Zr 0.54869 0.99680 1.00235
 O193 O 0.52955 0.94970 1.00192
 O194 O 0.47220 0.94811 1.00217
 O195 O 0.52960 0.99596 1.05025
 O196 O 0.47149 0.99579 0.95525
 O197 O 0.47188 0.99478 1.05005
 O198 O 0.52913 0.99699 0.95460
 H199 H 0.54146 1.06249 1.00280
 H200 H 0.45648 0.99573 0.93623
 H201 H 0.54481 0.93110 1.00157
 H202 H 0.45688 0.99441 1.06909
 H203 H 0.51560 1.02620 0.90117
 H204 H 0.51288 0.97106 0.90054
 H205 H 0.48664 0.89574 0.97286
 H206 H 0.48800 0.89522 1.02911
 H207 H 0.51694 0.96786 1.10351
 H208 H 0.51694 1.02434 1.10417
 H209 H 0.49048 1.09586 1.02889
 H210 H 0.48211 1.09613 0.97422
 O211 O -0.06509 0.45468 0.05451
 O212 O -0.03204 0.41933 0.02655
 C213 C -0.05541 0.42577 0.04698
 O214 O -0.06381 0.54449 -0.06161
 O215 O -0.03298 0.58030 -0.03186
 C216 C -0.05465 0.57352 -0.05392
 O217 O -0.06588 0.45368 -0.05760
 O218 O -0.03247 0.41885 -0.02933
 C219 C -0.05609 0.42491 -0.04960
 O220 O -0.06291 0.54534 0.05681
 O221 O -0.03299 0.58077 0.02563
 C222 C -0.05420 0.57428 0.04828
 Zr223 Zr -0.04654 0.49997 0.03918
 O224 O -0.09821 0.50326 0.04024
 O225 O -0.04519 0.49674 0.09086
 Zr226 Zr -0.04714 0.49928 -0.04346
 O227 O -0.09881 0.50250 -0.04400
 O228 O -0.04635 0.49521 -0.09508
 O229 O -0.05281 0.47071 -0.00181
 O230 O -0.05310 0.52762 -0.00237
 O231 O 0.05202 0.54641 0.05583
 O232 O 0.02054 0.58128 0.02539
 C233 C 0.04246 0.57517 0.04747
 O234 O 0.05382 0.45452 -0.06002
 O235 O 0.02419 0.41917 -0.02845
 C236 C 0.04610 0.42560 -0.05041
 O237 O 0.05116 0.54538 -0.06251
 O238 O 0.02047 0.58075 -0.03193
 C239 C 0.04199 0.57431 -0.05431
 O240 O 0.05481 0.45573 0.05503
 O241 O 0.02450 0.41965 0.02507
 C242 C 0.04687 0.42661 0.04642
 Zr243 Zr 0.03629 0.50076 0.03861
 O244 O 0.08794 0.50427 0.03798
 O245 O 0.03641 0.49823 0.09033
 Zr246 Zr 0.03572 0.49999 -0.04410
 O247 O 0.08738 0.50346 -0.04411
 O248 O 0.03522 0.49661 -0.09576
 Zr249 Zr -0.00475 0.45202 -0.00193
 Zr250 Zr -0.00595 0.54788 -0.00288
 O251 O 0.04162 0.52844 -0.00306
 O252 O 0.04277 0.47167 -0.00249
 O253 O -0.00542 0.52914 0.04506
 O254 O -0.00545 0.47158 -0.04946
 O255 O -0.00476 0.47243 0.04518
 O256 O -0.00607 0.52832 -0.05047
 H257 H -0.07240 0.54212 -0.00238
 H258 H -0.00549 0.45677 -0.06848
 H259 H 0.06062 0.54325 -0.00332
 H260 H -0.00452 0.45797 0.06450
 H261 H -0.03489 0.51439 -0.10379
 H262 H 0.02150 0.51449 -0.10411
 H263 H 0.09598 0.48502 -0.03133
 H264 H 0.09639 0.48600 0.02489
 H265 H 0.02308 0.51645 0.09853
 H266 H -0.03326 0.51584 0.09905
 H267 H -0.10687 0.48596 0.02605
 H268 H -0.10726 0.48559 -0.02918
 O269 O 1.06593 -0.05225 0.54501
 O270 O 1.03570 -0.02204 0.58117
 C271 C 1.05785 -0.04342 0.57439
 O272 O 1.05953 0.06540 0.45317
 O273 O 1.03187 0.03229 0.41772
 C274 C 1.05169 0.05584 0.42396
 O275 O 1.06355 0.06252 0.54513
 O276 O 1.03452 0.03113 0.58125
 C277 C 1.05589 0.05325 0.57450
 O278 O 1.06191 -0.05495 0.45315
 O279 O 1.03314 -0.02265 0.41766
 C280 C 1.05367 -0.04570 0.42393
 Zr281 Zr 1.04796 -0.03583 0.49922
 O282 O 1.09948 -0.03240 0.49510
 O283 O 1.05171 -0.08666 0.50254
 Zr284 Zr 1.04608 0.04586 0.49930
 O285 O 1.09771 0.04511 0.49521
 O286 O 1.04667 0.09681 0.50284
 O287 O 1.05376 0.00507 0.52840
 O288 O 1.05270 0.00516 0.47076
 O289 O 0.95047 -0.05655 0.45408
 O290 O 0.97772 -0.02355 0.41814
 C291 C 0.95780 -0.04692 0.42473
 O292 O 0.94560 0.05942 0.54652
 O293 O 0.97732 0.02970 0.58188
 C294 C 0.95441 0.05047 0.57571
 O295 O 0.94780 0.06282 0.45434
 O296 O 0.97639 0.03103 0.41827
 C297 C 0.95550 0.05360 0.42497
 O298 O 0.94852 -0.05410 0.54626
 O299 O 0.97844 -0.02301 0.58183
 C300 C 0.95675 -0.04491 0.57548
 Zr301 Zr 0.96527 -0.03761 0.50005
 O302 O 0.91356 -0.03753 0.49708
 O303 O 0.96545 -0.08860 0.50361
 Zr304 Zr 0.96344 0.04424 0.50022
 O305 O 0.91178 0.04246 0.49711
 O306 O 0.96165 0.09517 0.50413
 Zr307 Zr 1.00618 0.00403 0.54822
 Zr308 Zr 1.00511 0.00423 0.45113
 O309 O 0.95800 0.00326 0.47191
 O310 O 0.95823 0.00310 0.52929
 O311 O 1.00643 -0.04298 0.47050
 O312 O 1.00490 0.05082 0.52815
 O313 O 1.00702 -0.04266 0.52796
 O314 O 1.00428 0.05138 0.47058
 H315 H 1.07160 0.00553 0.45558
 H316 H 1.00451 0.06976 0.54292
 H317 H 0.93867 0.00291 0.45730
 H318 H 1.00752 -0.06173 0.54259
 H319 H 1.03038 0.10520 0.48711
 H320 H 0.97519 0.10416 0.48628
 H321 H 0.90386 0.02975 0.51600
 H322 H 0.90515 -0.02611 0.51660
 H323 H 0.97956 -0.09695 0.48588
 H324 H 1.03457 -0.09579 0.48826
 H325 H 1.10773 -0.02237 0.51543
 H326 H 1.10642 0.03423 0.51494
 C327 C 1.11020 0.11676 0.31534
 N328 N 1.12965 0.09914 0.29528
 N329 N 1.14377 0.11272 0.26938
 C330 C 1.13857 0.14434 0.26206
 N331 N 1.11882 0.16188 0.28216
 N332 N 1.10512 0.14843 0.30844
 C333 C 1.09460 0.10140 0.34361
 N334 N 1.08829 0.11833 0.37135
 N335 N 1.07481 0.10384 0.39718
 C336 C 1.06669 0.07209 0.39591
 N337 N 1.07271 0.05532 0.36806
 N338 N 1.08669 0.06964 0.34249
 C339 C 0.89820 -0.10731 0.31657
 N340 N 0.90456 -0.13861 0.30923
 N341 N 0.89079 -0.15240 0.28323
 C342 C 0.86969 -0.13562 0.26384
 N343 N 0.86327 -0.10431 0.27151
 N344 N 0.87748 -0.09034 0.29715
 C345 C 0.91366 -0.09185 0.34482
 N346 N 0.92068 -0.05987 0.34408
 N347 N 0.93494 -0.04571 0.36956
 C348 C 0.94213 -0.06287 0.39693
 N349 N 0.93483 -0.09481 0.39785
 N350 N 0.92108 -0.10912 0.37210
 C351 C 0.89241 0.10718 0.68480
 N352 N 0.88187 0.08875 0.71016
 N353 N 0.86767 0.10232 0.73608
 C354 C 0.86397 0.13485 0.73780
 N355 N 0.87473 0.15328 0.71251
 N356 N 0.88851 0.13968 0.68640
 C357 C 0.90800 0.09226 0.65626
 N358 N 0.90871 0.10785 0.62704
 N359 N 0.92309 0.09436 0.60117
 C360 C 0.93764 0.06499 0.60376
 N361 N 0.93705 0.04948 0.63302
 N362 N 0.92228 0.06276 0.65875
 C363 C 1.11575 -0.10653 0.68204
 N364 N 1.10639 -0.13700 0.68974
 N365 N 1.11873 -0.15184 0.71591
 C366 C 1.14138 -0.13706 0.73509
 N367 N 1.15090 -0.10663 0.72699
 N368 N 1.13810 -0.09154 0.70119
 C369 C 1.10157 -0.08993 0.65374
 N370 N 1.09512 -0.05780 0.65493
 N371 N 1.08128 -0.04288 0.62955
 C372 C 1.07408 -0.05947 0.60187
 N373 N 1.08090 -0.09151 0.60053
 N374 N 1.09415 -0.10655 0.62614
 C375 C 0.31439 1.10763 1.10533
 N376 N 0.30728 1.13874 1.09771
 N377 N 0.28115 1.15322 1.11060
 C378 C 0.26143 1.13737 1.13205
 N379 N 0.26883 1.10624 1.13967
 N380 N 0.29459 1.09156 1.12635
 C381 C 0.34297 1.09150 1.09113
 N382 N 0.34242 1.05927 1.08534
 N383 N 0.36829 1.04450 1.07233
 C384 C 0.39586 1.06133 1.06530
 N385 N 0.39655 1.09353 1.07137
 N386 N 0.37044 1.10842 1.08384
 C387 C 0.31885 0.88178 0.89453
 N388 N 0.31689 0.88024 0.86143
 N389 N 0.29080 0.86732 0.84701
 C390 C 0.26594 0.85504 0.86516
 N391 N 0.26808 0.85624 0.89829
 N392 N 0.29396 0.86959 0.91270
 C393 C 0.34695 0.89722 0.91032
 N394 N 0.34409 0.90992 0.94078
 N395 N 0.36925 0.92498 0.95469
 C396 C 0.39831 0.92748 0.93884
 N397 N 0.40130 0.91447 0.90852
 N398 N 0.37599 0.89982 0.89441
 C399 C 0.68577 0.89043 1.11318
 N400 N 0.70633 0.90787 1.13223
 N401 N 0.73216 0.89392 1.14625
 C402 C 0.73885 0.86211 1.14131
 N403 N 0.71826 0.84483 1.12194
 N404 N 0.69210 0.85863 1.10839
 C405 C 0.65731 0.90576 1.09783
 N406 N 0.62962 0.88861 1.09218
 N407 N 0.60375 0.90257 1.07823
 C408 C 0.60487 0.93401 1.06891
 N409 N 0.63264 0.95109 1.07432
 N410 N 0.65830 0.93729 1.08882
 C411 C 0.68055 1.10721 0.89014
 N412 N 0.70092 1.09029 0.87036
 N413 N 0.72637 1.10465 0.85621
 C414 C 0.73290 1.13637 0.86173
 N415 N 0.71249 1.15316 0.88180
 N416 N 0.68667 1.13894 0.89550
 C417 C 0.65272 1.09124 0.90586
 N418 N 0.62472 1.10776 0.91220
 N419 N 0.59945 1.09309 0.92643
 C420 C 0.60154 1.06157 0.93532
 N421 N 0.62963 1.04515 0.92922
 N422 N 0.65467 1.05965 0.91445
 C423 C 0.11328 0.32316 0.10735
 N424 N 0.11679 0.32220 0.14037
 N425 N 0.13143 0.29717 0.15477
 C426 C 0.14358 0.27245 0.13663
 N427 N 0.14035 0.27363 0.10359
 N428 N 0.12531 0.29842 0.08923
 C429 C 0.09623 0.35014 0.09147
 N430 N 0.08233 0.34628 0.06156
 N431 N 0.06640 0.37059 0.04728
 C432 C 0.06421 0.39977 0.06219
 N433 N 0.07832 0.40371 0.09198
 N434 N 0.09384 0.37926 0.10648
 C435 C -0.11720 0.31900 -0.11104
 N436 N -0.09848 0.29490 -0.12349
 N437 N -0.11225 0.26978 -0.13834
 C438 C -0.14528 0.26760 -0.14098
 N439 N -0.16405 0.29166 -0.12836
 N440 N -0.15024 0.31704 -0.11388
 C441 C -0.10175 0.34649 -0.09460
 N442 N -0.11751 0.37525 -0.09195
 N443 N -0.10298 0.40030 -0.07760
 C444 C -0.07239 0.39733 -0.06498
 N445 N -0.05679 0.36848 -0.06736
 N446 N -0.07113 0.34359 -0.08209
 C447 C 0.10341 0.68044 -0.11531
 N448 N 0.08568 0.70549 -0.12740
 N449 N 0.10056 0.73089 -0.14073
 C450 C 0.13372 0.73239 -0.14200
 N451 N 0.15143 0.70739 -0.12975
 N452 N 0.13654 0.68178 -0.11686
 C453 C 0.08708 0.65264 -0.10024
 N454 N 0.10244 0.62361 -0.09836
 N455 N 0.08782 0.59850 -0.08421
 C456 C 0.05751 0.60163 -0.07101
 N457 N 0.04219 0.63069 -0.07277
 N458 N 0.05662 0.65568 -0.08735
 C459 C -0.11222 0.67902 0.11493
 N460 N -0.09329 0.70317 0.12681
 N461 N -0.10678 0.72827 0.14205
 C462 C -0.13973 0.73037 0.14564
 N463 N -0.15870 0.70624 0.13364
 N464 N -0.14516 0.68088 0.11879
 C465 C -0.09725 0.65173 0.09763
 N466 N -0.11291 0.62294 0.09553
 N467 N -0.09912 0.59818 0.07993
 C468 C -0.06943 0.60150 0.06542
 N469 N -0.05390 0.63036 0.06730
 N470 N -0.06747 0.65496 0.08331
 C471 C 1.11663 0.11509 0.68122
 N472 N 1.13766 0.09848 0.70059
 N473 N 1.15138 0.11260 0.72638
 C474 C 1.14423 0.14371 0.73429
 N475 N 1.12302 0.16025 0.71480
 N476 N 1.10972 0.14630 0.68861
 C477 C 1.10105 0.09912 0.65332
 N478 N 1.09371 0.11587 0.62572
 N479 N 1.07972 0.10112 0.60037
 C480 C 1.07207 0.06927 0.60199
 N481 N 1.07915 0.05261 0.62969
 N482 N 1.09368 0.06722 0.65479
 C483 C 0.89555 -0.10577 0.68259
 N484 N 0.90289 -0.13679 0.69033
 N485 N 0.88868 -0.15111 0.71582
 C486 C 0.86610 -0.13521 0.73422
 N487 N 0.85864 -0.10419 0.72611
 N488 N 0.87330 -0.08966 0.70100
 C489 C 0.91138 -0.08992 0.65474
 N490 N 0.91862 -0.05797 0.65583
 N491 N 0.93333 -0.04365 0.63063
 C492 C 0.94071 -0.06064 0.60322
 N493 N 0.93318 -0.09251 0.60201
 N494 N 0.91904 -0.10697 0.62746
 C495 C 1.10982 -0.10954 0.31574
 N496 N 1.11003 -0.14226 0.31391
 N497 N 1.12295 -0.15713 0.28805
 C498 C 1.13653 -0.13981 0.26333
 N499 N 1.13649 -0.10710 0.26530
 N500 N 1.12316 -0.09223 0.29092
 C501 C 1.09532 -0.09305 0.34396
 N502 N 1.08435 -0.06223 0.34112
 N503 N 1.07096 -0.04722 0.36663
 C504 C 1.06855 -0.06230 0.39601
 N505 N 1.07975 -0.09304 0.39894
 N506 N 1.09271 -0.10823 0.37328
 C507 C 0.89324 0.11257 0.31736
 N508 N 0.89926 0.14381 0.30954
 N509 N 0.88508 0.15726 0.28353
 C510 C 0.86389 0.14019 0.26462
 N511 N 0.85776 0.10895 0.27280
 N512 N 0.87239 0.09532 0.29845
 C513 C 0.90931 0.09745 0.34548
 N514 N 0.91713 0.06562 0.34473
 N515 N 0.93206 0.05179 0.37008
 C516 C 0.93912 0.06914 0.39730
 N517 N 0.93101 0.10091 0.39822
 N518 N 0.91661 0.11490 0.37260
 C519 C 0.10928 0.31889 -0.10868
 N520 N 0.10475 0.31210 -0.14082
 N521 N 0.11864 0.28614 -0.15422
 C522 C 0.13808 0.26623 -0.13618
 N523 N 0.14279 0.27342 -0.10407
 N524 N 0.12845 0.29903 -0.09052
 C525 C 0.09324 0.34686 -0.09357
 N526 N 0.08407 0.34587 -0.06168
 N527 N 0.06896 0.37097 -0.04799
 C528 C 0.06304 0.39820 -0.06553
 N529 N 0.07251 0.39934 -0.09734
 N530 N 0.08711 0.37400 -0.11120
 C531 C -0.11647 0.32143 0.11127
 N532 N -0.14952 0.31954 0.11397
 N533 N -0.16343 0.29453 0.12905
 C534 C -0.14473 0.27081 0.14244
 N535 N -0.11169 0.27292 0.13996
 N536 N -0.09783 0.29766 0.12451
 C537 C -0.10097 0.34848 0.09413
 N538 N -0.07037 0.34525 0.08164
 N539 N -0.05605 0.36977 0.06621
 C540 C -0.07164 0.39855 0.06311
 N541 N -0.10219 0.40186 0.07572
 N542 N -0.11671 0.37718 0.09075
 C543 C -0.11276 0.67963 -0.11813
 N544 N -0.09563 0.69756 -0.13996
 N545 N -0.10906 0.72353 -0.15379
 C546 C -0.13993 0.73303 -0.14584
 N547 N -0.15692 0.71498 -0.12384
 N548 N -0.14373 0.68866 -0.11048
 C549 C -0.09763 0.65164 -0.10221
 N550 N -0.11575 0.62536 -0.09418
 N551 N -0.10196 0.60015 -0.07925
 C552 C -0.06974 0.60066 -0.07126
 N553 N -0.05171 0.62703 -0.07908
 N554 N -0.06534 0.65196 -0.09456
 C555 C 0.10302 0.68106 0.10900
 N556 N 0.08670 0.69973 0.13085
 N557 N 0.10146 0.72472 0.14502
 C558 C 0.13291 0.73243 0.13746
 N559 N 0.14900 0.71372 0.11534
 N560 N 0.13448 0.68838 0.10164
 C561 C 0.08704 0.65343 0.09349
 N562 N 0.10448 0.62647 0.08623
 N563 N 0.09011 0.60136 0.07191
 C564 C 0.05796 0.60258 0.06378
 N565 N 0.04055 0.62965 0.07079
 N566 N 0.05478 0.65454 0.08568
 C567 C 0.31416 1.10754 0.89900
 N568 N 0.31262 1.11133 0.86608
 N569 N 0.28659 1.12502 0.85223
 C570 C 0.26129 1.13580 0.87079
 N571 N 0.26295 1.13228 0.90378
 N572 N 0.28882 1.11816 0.91762
 C573 C 0.34266 1.09191 0.91403
 N574 N 0.34025 1.07760 0.94380
 N575 N 0.36598 1.06268 0.95699
 C576 C 0.39512 1.06192 0.94107
 N577 N 0.39761 1.07651 0.91144
 N578 N 0.37177 1.09103 0.89805
 C579 C 0.31964 0.87901 1.10875
 N580 N 0.29506 0.86689 1.09017
 N581 N 0.26911 0.85324 1.10415
 C582 C 0.26658 0.85163 1.13723
 N583 N 0.29114 0.86385 1.15581
 N584 N 0.31732 0.87708 1.14181
 C585 C 0.34770 0.89488 1.09333
 N586 N 0.37668 0.89739 1.10933
 N587 N 0.40195 0.91237 1.09543
 C588 C 0.39892 0.92577 1.06526
 N589 N 0.36991 0.92335 1.04934
 N590 N 0.34482 0.90797 1.06303
 C591 C 0.68138 1.10824 1.11247
 N592 N 0.68143 1.14077 1.11648
 N593 N 0.70707 1.15552 1.12992
 C594 C 0.73338 1.13821 1.14022
 N595 N 0.73318 1.10565 1.13637
 N596 N 0.70776 1.09097 1.12254
 C597 C 0.65345 1.09193 1.09726
 N598 N 0.65727 1.06241 1.08341
 N599 N 0.63208 1.04767 1.06921
 C600 C 0.60206 1.06170 1.06879
 N601 N 0.59815 1.09111 1.08289
 N602 N 0.62346 1.10606 1.09671
 C603 C 0.68396 0.89117 0.88837
 N604 N 0.68655 0.89050 0.85528
 N605 N 0.71227 0.87661 0.84099
 C606 C 0.73605 0.86246 0.85928
 N607 N 0.73329 0.86292 0.89237
 N608 N 0.70782 0.87721 0.90665
 C609 C 0.65597 0.90686 0.90424
 N610 N 0.65862 0.91815 0.93527
 N611 N 0.63327 0.93237 0.94982
 C612 C 0.60422 0.93539 0.93404
 N613 N 0.60148 0.92394 0.90306
 N614 N 0.62701 0.91014 0.88832
   
