data_POSCAR
  _audit_creation_date              2014-09-24
  _audit_creation_method            'ToBaCCo'
  _symmetry_space_group_name_H-M    'P1'
  _symmetry_Int_Tables_number       1
  _symmetry_cell_setting            triclinic
  loop_
  _symmetry_equiv_pos_as_xyz
 x,y,z
_cell_length_a 37.7002
_cell_length_b 37.9972
_cell_length_c 47.5502
_cell_angle_alpha 89.985000
_cell_angle_beta 89.842200
_cell_angle_gamma 89.965800
loop_
  _atom_site_label
  _atom_site_type_symbol
  _atom_site_fract_x
  _atom_site_fract_y
  _atom_site_fract_z
B1 B 0.27388 0.23374 0.27759
 B2 B 0.23249 0.21950 0.27202
 B3 B 0.23973 0.26191 0.27937
 B4 B 0.27799 0.27428 0.26385
 B5 B 0.29427 0.23841 0.24645
 B6 B 0.26578 0.20414 0.25186
 B7 B 0.22993 0.25557 0.22355
 B8 B 0.27138 0.26962 0.22924
 B9 B 0.26404 0.22725 0.22182
 B10 B 0.22580 0.21485 0.23728
 B11 B 0.20946 0.25082 0.25475
 B12 B 0.23791 0.28503 0.24935
 B13 B 0.73945 0.76992 0.22159
 B14 B 0.73096 0.72796 0.22960
 B15 B 0.77267 0.74064 0.22313
 B16 B 0.77843 0.78129 0.23623
 B17 B 0.73909 0.79365 0.25128
 B18 B 0.70936 0.76029 0.24684
 B19 B 0.76379 0.73553 0.27909
 B20 B 0.77237 0.77753 0.27109
 B21 B 0.73067 0.76488 0.27751
 B22 B 0.72486 0.72420 0.26441
 B23 B 0.76417 0.71180 0.24938
 B24 B 0.79398 0.74521 0.25386
 B25 B 0.73813 0.23701 -0.27431
 B26 B 0.78068 0.22990 -0.26629
 B27 B 0.76637 0.27094 -0.27206
 B28 B 0.72505 0.27491 -0.25899
 B29 B 0.71397 0.23503 -0.24475
 B30 B 0.74874 0.20688 -0.24954
 B31 B 0.77124 0.26100 -0.21617
 B32 B 0.72866 0.26827 -0.22433
 B33 B 0.74290 0.22717 -0.21841
 B34 B 0.78427 0.22314 -0.23149
 B35 B 0.79545 0.26289 -0.24582
 B36 B 0.76074 0.29113 -0.24104
 B37 B 0.25858 0.77177 -0.22854
 B38 B 0.27235 0.73030 -0.23300
 B39 B 0.22957 0.73849 -0.22610
 B40 B 0.21788 0.77592 -0.24267
 B41 B 0.25459 0.79071 -0.26029
 B42 B 0.28860 0.76218 -0.25390
 B43 B 0.23674 0.72609 -0.28155
 B44 B 0.22288 0.76761 -0.27716
 B45 B 0.26566 0.75943 -0.28402
 B46 B 0.27737 0.72198 -0.26740
 B47 B 0.24066 0.70724 -0.24977
 B48 B 0.20666 0.73571 -0.25622
 B49 B 1.23841 1.26792 0.72006
 B50 B 1.22952 1.22592 0.72774
 B51 B 1.27150 1.23866 0.72278
 B52 B 1.27651 1.27927 0.73606
 B53 B 1.23641 1.29163 0.74975
 B54 B 1.20693 1.25831 0.74423
 B55 B 1.25950 1.23354 0.77839
 B56 B 1.26847 1.27554 0.77067
 B57 B 1.22645 1.26278 0.77568
 B58 B 1.22138 1.22211 0.76228
 B59 B 1.26159 1.20983 0.74872
 B60 B 1.29101 1.24324 0.75425
 B61 B 0.77372 0.73572 0.77757
 B62 B 0.73277 0.72089 0.77120
 B63 B 0.73907 0.76326 0.77938
 B64 B 0.77741 0.77672 0.76452
 B65 B 0.79469 0.74159 0.74675
 B66 B 0.76675 0.70670 0.75116
 B67 B 0.73043 0.75809 0.72337
 B68 B 0.77147 0.77286 0.72974
 B69 B 0.76505 0.73053 0.72156
 B70 B 0.72680 0.71702 0.73640
 B71 B 0.70950 0.75225 0.75422
 B72 B 0.73737 0.78710 0.74972
 B73 B 1.24218 0.72874 0.28181
 B74 B 1.22670 0.76943 0.27590
 B75 B 1.26951 0.76337 0.28386
 B76 B 1.28350 0.72587 0.26855
 B77 B 1.24829 0.70860 0.25067
 B78 B 1.21279 0.73575 0.25562
 B79 B 1.26401 0.77304 0.22799
 B80 B 1.27944 0.73242 0.23378
 B81 B 1.23664 0.73838 0.22592
 B82 B 1.22265 0.77590 0.24123
 B83 B 1.25796 0.79316 0.25900
 B84 B 1.29346 0.76588 0.25413
 B85 B 0.76703 1.25826 0.21665
 B86 B 0.72428 1.26622 0.22377
 B87 B 0.73830 1.22476 0.21940
 B88 B 0.77914 1.22096 0.23331
 B89 B 0.79023 1.26132 0.24661
 B90 B 0.75598 1.28958 0.24034
 B91 B 0.73164 1.23742 0.27485
 B92 B 0.77439 1.22948 0.26775
 B93 B 0.76036 1.27090 0.27209
 B94 B 0.71953 1.27467 0.25821
 B95 B 0.70845 1.23431 0.24490
 B96 B 0.74271 1.20607 0.25124
 O97 O 0.44714 1.06736 0.04103
 O98 O 0.40612 1.03184 0.01938
 C99 C 0.41481 1.05842 0.03527
 O100 O 0.54666 1.04846 -0.05783
 O101 O 0.58605 1.02192 -0.02777
 C102 C 0.57857 1.04131 -0.04958
 O103 O 0.44944 1.05716 -0.05500
 O104 O 0.40716 1.02864 -0.02859
 C105 C 0.41682 1.05103 -0.04794
 O106 O 0.54444 1.06117 0.04610
 O107 O 0.58486 1.02573 0.02337
 C108 C 0.57658 1.05095 0.04086
 Zr109 Zr 0.49564 1.04320 0.03056
 O110 O 0.50020 1.09869 0.02920
 O111 O 0.49262 1.04275 0.07495
 Zr112 Zr 0.49732 1.03690 -0.03946
 O113 O 0.50105 1.09237 -0.03812
 O114 O 0.49611 1.03825 -0.08391
 O115 O 0.46470 1.04778 -0.00537
 O116 O 0.52815 1.04579 -0.00451
 O117 O 0.54132 0.93818 0.05308
 O118 O 0.58340 0.96531 0.02556
 C119 C 0.57393 0.94467 0.04616
 O120 O 0.44565 0.92859 -0.04756
 O121 O 0.40543 0.96535 -0.02614
 C122 C 0.41356 0.93899 -0.04247
 O123 O 0.54317 0.92790 -0.04828
 O124 O 0.58423 0.96089 -0.02431
 C125 C 0.57549 0.93618 -0.04202
 O126 O 0.44405 0.93440 0.04732
 O127 O 0.40462 0.96881 0.02288
 C128 C 0.41215 0.94395 0.04082
 Zr129 Zr 0.49320 0.95598 0.03592
 O130 O 0.49443 0.90135 0.04419
 O131 O 0.48799 0.96502 0.07973
 Zr132 Zr 0.49472 0.94892 -0.03441
 O133 O 0.49639 0.89334 -0.03110
 O134 O 0.49248 0.94573 -0.07885
 Zr135 Zr 0.44114 0.99751 -0.00280
 Zr136 Zr 0.54934 0.99474 -0.00134
 O137 O 0.52488 0.94501 0.00155
 O138 O 0.46200 0.94611 0.00068
 O139 O 0.52655 0.99925 0.03910
 O140 O 0.46493 0.99331 -0.04274
 O141 O 0.46261 1.00084 0.03795
 O142 O 0.52799 0.99145 -0.04226
 H143 H 0.54475 1.06595 -0.00565
 H144 H 0.44948 0.99240 -0.05954
 H145 H 0.53982 0.92364 0.00302
 H146 H 0.44598 1.00257 0.05408
 H147 H 0.49370 1.01369 -0.09036
 H148 H 0.51384 0.95752 -0.08649
 H149 H 0.47617 0.88588 -0.01921
 H150 H 0.49512 0.88938 0.02577
 H151 H 0.50994 0.97670 0.08625
 H152 H 0.49211 1.06774 0.08089
 H153 H 0.48658 1.10686 0.01269
 H154 H 0.50248 1.10030 -0.05794
 O155 O 1.04621 0.55872 0.54733
 O156 O 1.08633 0.52507 0.52270
 C157 C 1.07829 0.54937 0.54105
 O158 O 0.94577 0.43159 0.54596
 O159 O 0.90599 0.46720 0.52301
 C160 C 0.91380 0.44152 0.54011
 O161 O 1.04294 0.43411 0.55031
 O162 O 1.08470 0.46333 0.52386
 C163 C 1.07545 0.44113 0.54347
 O164 O 0.94924 0.56526 0.54335
 O165 O 0.90759 0.53045 0.52177
 C166 C 0.91675 0.55664 0.53790
 Zr167 Zr 0.99721 0.54055 0.53251
 O168 O 0.99543 0.53512 0.57672
 O169 O 0.99932 0.59598 0.53632
 Zr170 Zr 0.99481 0.45336 0.53443
 O171 O 0.99291 0.46159 0.57836
 O172 O 0.99470 0.39823 0.54061
 O173 O 1.02838 0.49626 0.53904
 O174 O 0.96411 0.49799 0.53860
 O175 O 0.94956 0.56106 0.44908
 O176 O 0.90761 0.52986 0.47384
 C177 C 0.91705 0.55415 0.45595
 O178 O 1.04320 0.43153 0.44790
 O179 O 1.08483 0.46176 0.47357
 C180 C 1.07567 0.43883 0.45449
 O181 O 0.94592 0.43060 0.45092
 O182 O 0.90603 0.46633 0.47382
 C183 C 0.91391 0.44057 0.45679
 O184 O 1.04678 0.55313 0.44491
 O185 O 1.08668 0.52307 0.47237
 C186 C 1.07880 0.54465 0.45197
 Zr187 Zr 0.99765 0.53835 0.46196
 O188 O 0.99529 0.53304 0.41775
 O189 O 1.00288 0.59374 0.45943
 Zr190 Zr 0.99508 0.45074 0.46388
 O191 O 0.99174 0.45056 0.41942
 O192 O 0.99707 0.39505 0.46499
 Zr193 Zr 1.05042 0.49427 0.49817
 Zr194 Zr 0.94205 0.49725 0.49799
 O195 O 0.96488 0.49537 0.45761
 O196 O 1.02852 0.49346 0.45742
 O197 O 0.96599 0.54744 0.49701
 O198 O 1.02593 0.44452 0.49929
 O199 O 1.02878 0.54528 0.49706
 O200 O 0.96300 0.44577 0.49921
 H201 H 0.94774 0.49893 0.55494
 H202 H 1.04101 0.42317 0.49957
 H203 H 0.94897 0.49552 0.44105
 H204 H 1.04502 0.56574 0.49628
 H205 H 1.00067 0.38732 0.52235
 H206 H 0.97821 0.38693 0.47798
 H207 H 1.01019 0.46676 0.41220
 H208 H 0.99614 0.55724 0.40999
 H209 H 0.98669 0.60402 0.47364
 H210 H 1.00819 0.60531 0.51824
 H211 H 0.99431 0.55934 0.58437
 H212 H 0.99083 0.43793 0.58697
 O213 O 0.94092 0.55315 -0.04659
 O214 O 0.97502 0.59316 -0.02251
 C215 C 0.94992 0.58504 -0.04018
 O216 O 0.93996 0.45695 0.05242
 O217 O 0.97107 0.41582 0.02691
 C218 C 0.94769 0.42475 0.04587
 O219 O 0.93791 0.55388 0.04832
 O220 O 0.97419 0.59336 0.02559
 C221 C 0.94784 0.58561 0.04227
 O222 O 0.94432 0.45649 -0.05066
 O223 O 0.97298 0.41557 -0.02329
 C224 C 0.95135 0.42436 -0.04350
 Zr225 Zr 0.96202 0.50443 -0.03402
 O226 O 0.90610 0.50232 -0.03723
 O227 O 0.96834 0.50641 -0.07818
 Zr228 Zr 0.95883 0.50484 0.03624
 O229 O 0.90298 0.50466 0.03220
 O230 O 0.95596 0.50376 0.08079
 O231 O 0.95413 0.53642 0.00086
 O232 O 0.95324 0.47368 0.00108
 O233 O 1.06787 0.45388 -0.04730
 O234 O 1.03378 0.41427 -0.02258
 C235 C 1.05813 0.42213 -0.04107
 O236 O 1.06994 0.55093 0.05146
 O237 O 1.03766 0.59191 0.02691
 C238 C 1.06230 0.58304 0.04476
 O239 O 1.06298 0.45488 0.05576
 O240 O 1.03305 0.41476 0.02858
 C241 C 1.05482 0.42296 0.04884
 O242 O 1.07276 0.55067 -0.04523
 O243 O 1.03890 0.59179 -0.02203
 C244 C 1.06425 0.58285 -0.03930
 Zr245 Zr 1.05048 0.50273 -0.03194
 O246 O 1.10641 0.49763 -0.03085
 O247 O 1.05116 0.50571 -0.07641
 Zr248 Zr 1.04740 0.50321 0.03851
 O249 O 1.10317 0.49750 0.04097
 O250 O 1.04361 0.50746 0.08283
 Zr251 Zr 1.00589 0.55747 0.00195
 Zr252 Zr 1.00369 0.45009 0.00245
 O253 O 1.05500 0.47184 0.00359
 O254 O 1.05682 0.53447 0.00330
 O255 O 1.00581 0.47170 -0.03837
 O256 O 1.00357 0.53531 0.04246
 O257 O 1.00695 0.53477 -0.03839
 O258 O 1.00229 0.47229 0.04305
 H259 H 0.93179 0.45863 0.00058
 H260 H 1.00355 0.55156 0.05873
 H261 H 1.07572 0.45580 0.00420
 H262 H 1.00757 0.55058 -0.05497
 H263 H 0.96699 0.52539 0.08829
 H264 H 1.02531 0.49056 0.08919
 H265 H 1.11388 0.51441 0.02763
 H266 H 1.11588 0.51721 -0.01942
 H267 H 1.03435 0.48785 -0.08356
 H268 H 0.94410 0.50760 -0.08613
 H269 H 0.89639 0.51431 -0.02042
 H270 H 0.89319 0.50444 0.05157
 O271 O 0.44324 0.95673 0.45030
 O272 O 0.47282 0.91559 0.47680
 C273 C 0.45048 0.92454 0.45714
 O274 O 0.57415 1.05058 0.45568
 O275 O 0.53937 1.09173 0.47797
 C276 C 0.56531 1.08278 0.46126
 O277 O 0.56853 0.95407 0.45263
 O278 O 0.53493 0.91434 0.47762
 C279 C 0.55921 0.92228 0.45910
 O280 O 0.43980 1.05308 0.45477
 O281 O 0.47567 1.09293 0.47727
 C282 C 0.44959 1.08492 0.46051
 Zr283 Zr 0.46220 1.00461 0.46616
 O284 O 0.47028 1.00626 0.42218
 O285 O 0.40660 1.00437 0.46034
 Zr286 Zr 0.55012 1.00286 0.46731
 O287 O 0.54435 1.00401 0.42313
 O288 O 0.60601 1.00125 0.46326
 O289 O 0.50564 0.97159 0.46126
 O290 O 0.50689 1.03533 0.46154
 O291 O 0.43916 1.05379 0.54878
 O292 O 0.47441 1.09347 0.52523
 C293 C 0.44856 1.08558 0.54233
 O294 O 0.56443 0.95441 0.55464
 O295 O 0.53357 0.91445 0.52794
 C296 C 0.55588 0.92255 0.54784
 O297 O 0.57091 1.05062 0.55106
 O298 O 0.53825 1.09181 0.52704
 C299 C 0.56312 1.08279 0.54464
 O300 O 0.44114 0.95690 0.55283
 O301 O 0.47176 0.91575 0.52696
 C302 C 0.44866 0.92471 0.54614
 Zr303 Zr 0.46017 1.00475 0.53675
 O304 O 0.46323 1.00692 0.58109
 O305 O 0.40405 1.00256 0.53762
 Zr306 Zr 0.54854 1.00292 0.53789
 O307 O 0.54624 1.00687 0.58228
 O308 O 0.60448 0.99810 0.53900
 Zr309 Zr 0.50405 0.95001 0.50220
 Zr310 Zr 0.50640 1.05748 0.50210
 O311 O 0.50484 1.03512 0.54256
 O312 O 0.50351 0.97195 0.54293
 O313 O 0.45468 1.03621 0.50136
 O314 O 0.55537 0.97182 0.50280
 O315 O 0.45376 0.97394 0.50142
 O316 O 0.55723 1.03423 0.50270
 H317 H 0.50749 1.05146 0.44515
 H318 H 0.57611 0.95582 0.50341
 H319 H 0.50471 1.05105 0.55906
 H320 H 0.43232 0.95889 0.50129
 H321 H 0.61556 0.99199 0.48111
 H322 H 0.61436 1.01525 0.52541
 H323 H 0.52892 0.98922 0.58905
 H324 H 0.43842 1.00760 0.58802
 H325 H 0.39524 1.01918 0.52322
 H326 H 0.39576 0.99817 0.47861
 H327 H 0.44641 1.00845 0.41369
 H328 H 0.56872 1.00483 0.41531
 O329 O 0.91308 0.97229 0.46144
 O330 O 0.95686 0.98698 0.42985
 C331 C 0.92538 0.97566 0.43611
 O332 O 0.96860 1.08629 0.53931
 O333 O 0.98295 1.04238 0.57047
 C334 C 0.97221 1.07392 0.56456
 O335 O 0.96262 1.08453 0.46135
 O336 O 0.97952 1.04170 0.42995
 C337 C 0.96615 1.07219 0.43609
 O338 O 0.91571 0.96673 0.53950
 O339 O 0.95861 0.98479 0.57048
 C340 C 0.92830 0.97054 0.56463
 Zr341 Zr 0.93826 0.98026 0.50042
 O342 O 0.88945 1.00763 0.50219
 O343 O 0.91216 0.93113 0.49789
 Zr344 Zr 0.97398 1.06068 0.50026
 O345 O 0.92037 1.07692 0.50159
 O346 O 0.99126 1.11361 0.49974
 O347 O 0.94971 1.02314 0.47503
 O348 O 0.95044 1.02297 0.52534
 O349 O 1.02790 0.91944 0.53917
 O350 O 1.01331 0.96305 0.57057
 C351 C 1.02452 0.93172 0.56445
 O352 O 1.08086 1.03226 0.46000
 O353 O 1.03662 1.01733 0.42918
 C354 C 1.06829 1.02835 0.43486
 O355 O 1.08000 1.03718 0.53810
 O356 O 1.03739 1.01987 0.56978
 C357 C 1.06788 1.03345 0.56343
 O358 O 1.03158 0.92047 0.46098
 O359 O 1.01405 0.96309 0.42972
 C360 C 1.02768 0.93270 0.43574
 Zr361 Zr 1.02000 0.94404 0.49997
 O362 O 1.07113 0.92120 0.50279
 O363 O 0.99674 0.89341 0.49711
 Zr364 Zr 1.05605 1.02508 0.49936
 O365 O 1.10720 1.00234 0.50238
 O366 O 1.07837 1.07610 0.49629
 Zr367 Zr 0.99692 1.00235 0.45793
 Zr368 Zr 0.99770 1.00247 0.54207
 O369 O 1.04441 0.98204 0.52413
 O370 O 1.04433 0.98166 0.47453
 O371 O 0.97656 0.95568 0.52521
 O372 O 1.01743 1.04894 0.47528
 O373 O 0.97634 0.95602 0.47578
 O374 O 1.01815 1.04933 0.52474
 H375 H 0.93157 1.03093 0.53845
 H376 H 1.02559 1.06779 0.46242
 H377 H 1.06381 0.97399 0.53661
 H378 H 0.96807 0.93688 0.46327
 H379 H 1.01578 1.11370 0.49236
 H380 H 1.06720 1.09081 0.51105
 H381 H 1.11008 0.98599 0.48636
 H382 H 1.08576 0.93135 0.48753
 H383 H 0.98160 0.88998 0.51391
 H384 H 0.92709 0.91387 0.50795
 H385 H 0.87071 0.98936 0.50251
 H386 H 0.92078 1.10297 0.50240
 O387 O 0.41600 0.46422 -0.03754
 O388 O 0.45775 0.48215 -0.06975
 C389 C 0.42742 0.46846 -0.06304
 O390 O 0.46217 0.58355 0.03877
 O391 O 0.48077 0.54162 0.07028
 C392 C 0.46735 0.57209 0.06409
 O393 O 0.45559 0.58029 -0.03906
 O394 O 0.47538 0.53861 -0.07037
 C395 C 0.45992 0.56812 -0.06428
 O396 O 0.41999 0.46062 0.04049
 O397 O 0.46191 0.48189 0.07100
 C398 C 0.43269 0.46539 0.06545
 Zr399 Zr 0.44113 0.47448 0.00106
 O400 O 0.38961 0.49635 0.00294
 O401 O 0.42098 0.42255 -0.00084
 Zr402 Zr 0.46902 0.55788 -0.00007
 O403 O 0.41410 0.56895 0.00161
 O404 O 0.48114 0.61223 -0.00107
 O405 O 0.44795 0.51799 -0.02475
 O406 O 0.44958 0.51850 0.02551
 O407 O 0.53366 0.42137 0.03895
 O408 O 0.51807 0.46461 0.07035
 C409 C 0.53038 0.43367 0.06421
 O410 O 0.57784 0.53844 -0.04089
 O411 O 0.53449 0.51987 -0.07131
 C412 C 0.56533 0.53323 -0.06590
 O413 O 0.57717 0.54495 0.03698
 O414 O 0.53703 0.52393 0.06926
 C415 C 0.56595 0.54029 0.06246
 O416 O 0.53839 0.42307 -0.03892
 O417 O 0.51673 0.46354 -0.07036
 C418 C 0.53287 0.43442 -0.06421
 Zr419 Zr 0.52619 0.44639 -0.00003
 O420 O 0.58089 0.43427 0.00116
 O421 O 0.51424 0.39210 -0.00139
 Zr422 Zr 0.55404 0.53005 -0.00137
 O423 O 0.60723 0.51240 0.00091
 O424 O 0.57122 0.58288 -0.00518
 Zr425 Zr 0.49663 0.50149 -0.04222
 Zr426 Zr 0.49869 0.50269 0.04204
 O427 O 0.54697 0.48648 0.02402
 O428 O 0.54609 0.48561 -0.02602
 O429 O 0.48196 0.45397 0.02547
 O430 O 0.51306 0.54989 -0.02530
 O431 O 0.48099 0.45363 -0.02377
 O432 O 0.51438 0.55100 0.02412
 H433 H 0.43030 0.52511 0.03872
 H434 H 0.51945 0.56919 -0.03836
 H435 H 0.56683 0.48022 0.03668
 H436 H 0.47418 0.43355 -0.03591
 H437 H 0.50547 0.61456 -0.00858
 H438 H 0.55920 0.59667 0.00973
 H439 H 0.61023 0.49369 -0.01337
 H440 H 0.58243 0.40828 0.00237
 H441 H 0.48825 0.39006 0.00042
 H442 H 0.43397 0.40848 0.01329
 H443 H 0.37303 0.47614 0.00353
 H444 H 0.41204 0.59492 0.00249
 N445 N 0.26766 1.19112 0.14714
 C446 C 0.29773 1.17142 0.14778
 N447 N 0.31720 1.17067 0.17168
 N448 N 0.30689 1.18867 0.19429
 C449 C 0.27681 1.20832 0.19387
 N450 N 0.25728 1.20911 0.16987
 C451 C 0.31000 1.15222 0.12345
 C452 C 0.32332 1.13614 0.10416
 C453 C 0.34325 1.11787 0.08273
 N454 N 0.37482 1.13133 0.07449
 N455 N 0.39644 1.11283 0.05801
 C456 C 0.38737 1.08018 0.04895
 N457 N 0.35532 1.06686 0.05670
 N458 N 0.33366 1.08540 0.07341
 N459 N 0.76650 0.68632 0.64983
 C460 C 0.80051 0.67472 0.64813
 N461 N 0.82326 0.68254 0.66925
 N462 N 0.81238 0.70091 0.69150
 C463 C 0.77837 0.71243 0.69344
 N464 N 0.75559 0.70473 0.67218
 C465 C 0.81283 0.65400 0.62464
 C466 C 0.82616 0.63684 0.60596
 C467 C 0.84616 0.61762 0.58513
 N468 N 0.87818 0.63025 0.57716
 N469 N 0.89954 0.61117 0.56092
 C470 C 0.88980 0.57873 0.55184
 N471 N 0.85734 0.56619 0.55936
 N472 N 0.83590 0.58532 0.57584
 N473 N 0.73416 0.83335 0.16018
 C474 C 0.70170 0.82623 0.14938
 N475 N 0.68222 0.79982 0.16082
 N476 N 0.69460 0.78130 0.18248
 C477 C 0.72699 0.78844 0.19348
 N478 N 0.74658 0.81477 0.18184
 C479 C 0.68606 0.84869 0.12837
 C480 C 0.66997 0.86722 0.11213
 C481 C 0.64672 0.88809 0.09487
 N482 N 0.61162 0.88772 0.10070
 N483 N 0.58909 0.90623 0.08518
 C484 C 0.60062 0.92600 0.06321
 N485 N 0.63596 0.92661 0.05732
 N486 N 0.65869 0.90793 0.07297
 N487 N 1.18849 0.29279 0.65389
 C488 C 1.20416 0.32358 0.64643
 N489 N 1.23191 0.33550 0.66177
 N490 N 1.24344 0.31731 0.68392
 C491 C 1.22757 0.28665 0.69163
 N492 N 1.19999 0.27463 0.67606
 C493 C 1.18839 0.34532 0.62501
 C494 C 1.17224 0.36323 0.60838
 C495 C 1.14880 0.38322 0.59063
 N496 N 1.16074 0.40741 0.57172
 N497 N 1.13781 0.42610 0.55628
 C498 C 1.10227 0.42120 0.55944
 N499 N 1.09075 0.39696 0.57834
 N500 N 1.11349 0.37840 0.59362
 N501 N 0.68559 1.18726 -0.16115
 C502 C 0.70687 1.16207 -0.15007
 N503 N 0.74039 1.15854 -0.16019
 N504 N 0.75209 1.17951 -0.18077
 C505 C 0.73069 1.20468 -0.19199
 N506 N 0.69726 1.20811 -0.18170
 C507 C 0.69236 1.13758 -0.12989
 C508 C 0.67687 1.11756 -0.11433
 C509 C 0.65403 1.09492 -0.09800
 N510 N 0.66320 1.08249 -0.07216
 N511 N 0.63998 1.06395 -0.05680
 C512 C 0.60685 1.05738 -0.06683
 N513 N 0.59818 1.06962 -0.09273
 N514 N 0.62127 1.08790 -0.10802
 N515 N 1.23567 0.65356 0.33416
 C516 C 1.20882 0.66409 0.35125
 N517 N 1.19356 0.69592 0.34669
 N518 N 1.20461 0.71648 0.32572
 C519 C 1.23126 0.70595 0.30840
 N520 N 1.24675 0.67417 0.31318
 C521 C 1.19343 0.64027 0.37151
 C522 C 1.17739 0.62088 0.38721
 C523 C 1.15392 0.59919 0.40376
 N524 N 1.11966 0.59673 0.39573
 N525 N 1.09656 0.57852 0.41100
 C526 C 1.10662 0.56183 0.43493
 N527 N 1.14118 0.56391 0.44299
 N528 N 1.16448 0.58237 0.42761
 N529 N 0.30099 0.84313 -0.18422
 C530 C 0.29193 0.83377 -0.15764
 N531 N 0.27182 0.80455 -0.15368
 N532 N 0.26101 0.78549 -0.17562
 C533 C 0.27010 0.79480 -0.20229
 N534 N 0.29021 0.82408 -0.20612
 C535 C 0.30630 0.85286 -0.13402
 C536 C 0.32070 0.86824 -0.11491
 C537 C 0.34137 0.88513 -0.09327
 N538 N 0.33249 0.91721 -0.08263
 N539 N 0.35437 0.93402 -0.06504
 C540 C 0.38587 0.91925 -0.05763
 N541 N 0.39421 0.88701 -0.06806
 N542 N 0.37241 0.87026 -0.08543
 N543 N 0.80471 0.34141 0.31603
 C544 C 0.79257 0.33459 0.34234
 N545 N 0.76984 0.30733 0.34624
 N546 N 0.75947 0.28770 0.32449
 C547 C 0.77167 0.29445 0.29810
 N548 N 0.79437 0.32179 0.29432
 C549 C 0.80638 0.35407 0.36593
 C550 C 0.82056 0.36965 0.38503
 C551 C 0.84124 0.38659 0.40661
 N552 N 0.83252 0.41880 0.41709
 N553 N 0.85454 0.43566 0.43453
 C554 C 0.88602 0.42084 0.44191
 N555 N 0.89418 0.38847 0.43166
 N556 N 0.87224 0.37166 0.41444
 N557 N 1.15298 0.26996 0.17343
 C558 C 1.16737 0.29113 0.15345
 N559 N 1.20215 0.29994 0.15544
 N560 N 1.22185 0.28810 0.17669
 C561 C 1.20750 0.26711 0.19685
 N562 N 1.17272 0.25809 0.19467
 C563 C 1.14529 0.30771 0.13250
 C564 C 1.12760 0.32444 0.11600
 C565 C 1.10823 0.34837 0.09815
 N566 N 1.11233 0.38330 0.10234
 N567 N 1.09502 0.40638 0.08650
 C568 C 1.07281 0.39565 0.06577
 N569 N 1.06857 0.36050 0.06145
 N570 N 1.08603 0.33721 0.07744
 N571 N 0.70335 0.80095 0.65457
 C572 C 0.66871 0.79170 0.65235
 N573 N 0.65417 0.77092 0.67250
 N574 N 0.67365 0.75979 0.69413
 C575 C 0.70829 0.76925 0.69653
 N576 N 0.72281 0.78983 0.67619
 C577 C 0.64679 0.80766 0.63108
 C578 C 0.62911 0.82404 0.61441
 C579 C 0.60976 0.84787 0.59655
 N580 N 0.58669 0.83672 0.57644
 N581 N 0.56910 0.86004 0.56058
 C582 C 0.57407 0.89518 0.56448
 N583 N 0.59712 0.90587 0.58462
 N584 N 0.61456 0.88277 0.60031
 N585 N 1.15947 0.72816 -0.16934
 C586 C 1.17500 0.70550 -0.15109
 N587 N 1.20850 0.69420 -0.15644
 N588 N 1.22588 0.70509 -0.17930
 C589 C 1.21037 0.72765 -0.19770
 N590 N 1.17688 0.73909 -0.19218
 C591 C 1.15508 0.69065 -0.12802
 C592 C 1.13894 0.67575 -0.10950
 C593 C 1.12110 0.65441 -0.08876
 N594 N 1.13371 0.62174 -0.08351
 N595 N 1.11603 0.59990 -0.06674
 C596 C 1.08508 0.60978 -0.05439
 N597 N 1.07259 0.64282 -0.05924
 N598 N 1.09033 0.66477 -0.07622
 N599 N 0.66206 1.22745 0.33198
 C600 C 0.67762 1.20474 0.35015
 N601 N 0.71105 1.19330 0.34466
 N602 N 0.72831 1.20410 0.32170
 C603 C 0.71272 1.22668 0.30336
 N604 N 0.67934 1.23828 0.30905
 C605 C 0.65773 1.18998 0.37326
 C606 C 0.64144 1.17523 0.39177
 C607 C 0.62329 1.15412 0.41248
 N608 N 0.63598 1.12164 0.41827
 N609 N 0.61796 1.09989 0.43489
 C610 C 0.58655 1.10970 0.44654
 N611 N 0.57398 1.14258 0.44117
 N612 N 0.59207 1.16443 0.42434
 N613 N 0.81890 0.68229 0.17001
 C614 C 0.83354 0.70576 0.15191
 N615 N 0.82801 0.74064 0.15619
 N616 N 0.80861 0.75160 0.17804
 C617 C 0.79400 0.72807 0.19626
 N618 N 0.79958 0.69323 0.19180
 C619 C 0.85477 0.69313 0.12879
 C620 C 0.87176 0.67934 0.11022
 C621 C 0.89014 0.65859 0.08946
 N622 N 0.92308 0.66723 0.07992
 N623 N 0.94124 0.64502 0.06345
 C624 C 0.92704 0.61341 0.05620
 N625 N 0.89398 0.60530 0.06551
 N626 N 0.87588 0.62743 0.08174
 N627 N 0.33612 1.18748 0.67757
 C628 C 0.33607 1.20566 0.65304
 N629 N 0.31494 1.23442 0.65062
 N630 N 0.29475 1.24476 0.67220
 C631 C 0.29476 1.22652 0.69681
 N632 N 0.31595 1.19778 0.69908
 C633 C 0.35641 1.19274 0.62954
 C634 C 0.37286 1.17891 0.61071
 C635 C 0.39092 1.15828 0.58972
 N636 N 0.42361 1.16716 0.57983
 N637 N 0.44170 1.14503 0.56324
 C638 C 0.42766 1.11327 0.55624
 N639 N 0.39481 1.10493 0.56589
 N640 N 0.37677 1.12698 0.58223
 N641 N 0.83379 0.26448 -0.15387
 C642 C 0.82841 0.29748 -0.14385
 N643 N 0.80317 0.31788 -0.15596
 N644 N 0.78419 0.30591 -0.17754
 C645 C 0.78958 0.27300 -0.18777
 N646 N 0.81471 0.25247 -0.17543
 C647 C 0.85173 0.31256 -0.12308
 C648 C 0.87103 0.32832 -0.10717
 C649 C 0.89276 0.35146 -0.09047
 N650 N 0.89235 0.38620 -0.09654
 N651 N 0.91154 0.40869 -0.08160
 C652 C 0.93210 0.39753 -0.05996
 N653 N 0.93281 0.36253 -0.05385
 N654 N 0.91343 0.33983 -0.06892
 N655 N 0.32769 0.76533 0.34881
 C656 C 0.32674 0.79986 0.35606
 N657 N 0.30568 0.82204 0.34124
 N658 N 0.28653 0.81031 0.31969
 C659 C 0.28753 0.77587 0.31220
 N660 N 0.30842 0.75358 0.32725
 C661 C 0.35011 0.81400 0.37719
 C662 C 0.36940 0.82928 0.39339
 C663 C 0.39098 0.85220 0.41038
 N664 N 0.38954 0.88712 0.40521
 N665 N 0.40889 0.90944 0.42018
 C666 C 0.43062 0.89791 0.44095
 N667 N 0.43228 0.86273 0.44621
 N668 N 0.41275 0.84019 0.43110
 N669 N 1.16100 1.16492 0.30568
 C670 C 1.18002 1.14241 0.32178
 N671 N 1.21570 1.14591 0.32319
 N672 N 1.23205 1.17083 0.30841
 C673 C 1.21315 1.19330 0.29210
 N674 N 1.17736 1.18986 0.29093
 C675 C 1.16257 1.11614 0.33799
 C676 C 1.14779 1.09509 0.35264
 C677 C 1.12974 1.07238 0.37164
 N678 N 1.14364 1.06652 0.39741
 N679 N 1.12452 1.05049 0.41713
 C680 C 1.09089 1.03985 0.41171
 N681 N 1.07721 1.04522 0.38568
 N682 N 1.09635 1.06134 0.36595
 N683 N 0.66017 0.67163 -0.19154
 C684 C 0.67787 0.64362 -0.18094
 N685 N 0.71344 0.64134 -0.18441
 N686 N 0.73079 0.66613 -0.19860
 C687 C 0.71316 0.69418 -0.20936
 N688 N 0.67752 0.69641 -0.20574
 C689 C 0.65944 0.61792 -0.16484
 C690 C 0.64387 0.59763 -0.15001
 C691 C 0.62568 0.57598 -0.13033
 N692 N 0.63956 0.57178 -0.10436
 N693 N 0.62069 0.55652 -0.08415
 C694 C 0.58730 0.54502 -0.08926
 N695 N 0.57365 0.54849 -0.11551
 N696 N 0.59256 0.56391 -0.13576
 N697 N 0.83182 1.20219 0.66909
 C698 C 0.85794 1.18215 0.68035
 N699 N 0.85854 1.17652 0.70843
 N700 N 0.83393 1.19093 0.72487
 C701 C 0.80782 1.21119 0.71376
 N702 N 0.80719 1.21661 0.68556
 C703 C 0.88388 1.16614 0.66268
 C704 C 0.90475 1.15205 0.64728
 C705 C 0.92746 1.13450 0.62785
 N706 N 0.94030 1.10203 0.63380
 N707 N 0.95667 1.08328 0.61398
 C708 C 0.96055 1.09645 0.58761
 N709 N 0.94825 1.12926 0.58194
 N710 N 0.93195 1.14798 0.60175
 N711 N 0.35745 0.67947 0.20836
 C712 C 0.35541 0.68331 0.18013
 N713 N 0.32868 0.70257 0.16891
 N714 N 0.30470 0.71779 0.18552
 C715 C 0.30669 0.71403 0.21383
 N716 N 0.33350 0.69468 0.22494
 C717 C 0.38042 0.66616 0.16232
 C718 C 0.40047 0.65128 0.14674
 C719 C 0.42232 0.63319 0.12702
 N720 N 0.42554 0.64590 0.10057
 N721 N 0.44163 0.62694 0.08082
 C722 C 0.45501 0.59467 0.08689
 N723 N 0.45237 0.58225 0.11357
 N724 N 0.43619 0.60123 0.13335
 N725 N 1.17053 0.83859 0.68681
 C726 C 1.14595 0.81981 0.67255
 N727 N 1.14740 0.78419 0.67295
 N728 N 1.17239 0.76780 0.68770
 C729 C 1.19694 0.78652 0.70220
 N730 N 1.19553 0.82220 0.70153
 C731 C 1.11905 0.83747 0.65700
 C732 C 1.09720 0.85258 0.64325
 C733 C 1.07307 0.87072 0.62539
 N734 N 1.06497 0.85679 0.60003
 N735 N 1.04737 0.87575 0.58117
 C736 C 1.03724 0.90922 0.58708
 N737 N 1.04465 0.92286 0.61278
 N738 N 1.06239 0.90389 0.63165
 N739 N 0.64714 0.28390 0.17585
 C740 C 0.64790 0.31945 0.17377
 N741 N 0.67445 0.33762 0.18620
 N742 N 0.69917 0.32077 0.20085
 C743 C 0.69836 0.28519 0.20323
 N744 N 0.67188 0.26704 0.19053
 C745 C 0.62157 0.33763 0.15805
 C746 C 0.60049 0.35331 0.14398
 C747 C 0.57754 0.37207 0.12559
 N748 N 0.57046 0.35857 0.09991
 N749 N 0.55366 0.37785 0.08082
 C750 C 0.54339 0.41125 0.08679
 N751 N 0.54988 0.42455 0.11276
 N752 N 0.56682 0.40523 0.13188
 N753 N 0.82398 0.85629 0.29519
 C754 C 0.82219 0.85350 0.32349
 N755 N 0.80573 0.82537 0.33525
 N756 N 0.79094 0.80090 0.31904
 C757 C 0.79240 0.80382 0.29062
 N758 N 0.80923 0.83187 0.27903
 C759 C 0.83745 0.88009 0.34066
 C760 C 0.85060 0.90200 0.35543
 C761 C 0.86688 0.92627 0.37413
 N762 N 0.85274 0.93138 0.39999
 N763 N 0.87062 0.94925 0.41934
 C764 C 0.90317 0.96261 0.41339
 N765 N 0.91691 0.95813 0.38723
 N766 N 0.89904 0.94017 0.36788
 N767 N 0.32855 0.34710 -0.20319
 C768 C 0.31933 0.34947 -0.17576
 N769 N 0.29466 0.32722 -0.16508
 N770 N 0.27920 0.30348 -0.18156
 C771 C 0.28815 0.30124 -0.20914
 N772 N 0.31311 0.32340 -0.21964
 C773 C 0.33586 0.37487 -0.15823
 C774 C 0.35017 0.39564 -0.14312
 C775 C 0.36764 0.41868 -0.12415
 N776 N 0.35467 0.42277 -0.09782
 N777 N 0.37316 0.44035 -0.07869
 C778 C 0.40517 0.45441 -0.08531
 N779 N 0.41787 0.45084 -0.11189
 N780 N 0.39935 0.43316 -0.13104
 N781 N 1.17264 0.26396 -0.15652
 C782 C 1.16413 0.29855 -0.15412
 N783 N 1.17584 0.32139 -0.17397
 N784 N 1.19524 0.31015 -0.19560
 C785 C 1.20384 0.27561 -0.19817
 N786 N 1.19211 0.25268 -0.17824
 C787 C 1.14379 0.31174 -0.13068
 C788 C 1.12783 0.32632 -0.11192
 C789 C 1.11100 0.34827 -0.09110
 N790 N 1.12467 0.38061 -0.08643
 N791 N 1.10809 0.40320 -0.06962
 C792 C 1.07720 0.39445 -0.05667
 N793 N 1.06361 0.36173 -0.06094
 N794 N 1.08024 0.33901 -0.07800
 N795 N 0.67070 0.76506 0.34179
 C796 C 0.67053 0.79958 0.34907
 N797 N 0.69015 0.82262 0.33380
 N798 N 0.70922 0.81167 0.31189
 C799 C 0.70950 0.77719 0.30448
 N800 N 0.68987 0.75407 0.31984
 C801 C 0.64918 0.81247 0.37199
 C802 C 0.63235 0.82682 0.39034
 C803 C 0.61457 0.84867 0.41066
 N804 N 0.62749 0.88132 0.41520
 N805 N 0.61008 0.90385 0.43150
 C806 C 0.57906 0.89471 0.44405
 N807 N 0.56619 0.86167 0.43993
 N808 N 0.58367 0.83900 0.42337
 N809 N 0.82231 0.73582 -0.15234
 C810 C 0.83643 0.70295 -0.15167
 N811 N 0.82994 0.68071 -0.17332
 N812 N 0.81022 0.69093 -0.19504
 C813 C 0.79599 0.72374 -0.19587
 N814 N 0.80252 0.74607 -0.17413
 C815 C 0.85722 0.69084 -0.12815
 C816 C 0.87398 0.67743 -0.10932
 C817 C 0.89224 0.65702 -0.08829
 N818 N 0.87839 0.62558 -0.08075
 N819 N 0.89647 0.60378 -0.06430
 C820 C 0.92911 0.61249 -0.05454
 N821 N 0.94290 0.64437 -0.06162
 N822 N 0.92476 0.66625 -0.07834
 N823 N 0.30736 1.22286 0.35252
 C824 C 0.33715 1.20333 0.34867
 N825 N 0.34629 1.19347 0.32223
 N826 N 0.32655 1.20305 0.30034
 C827 C 0.29677 1.22265 0.30403
 N828 N 0.28760 1.23249 0.33056
 C829 C 0.35723 1.19038 0.37225
 C830 C 0.37367 1.17681 0.39118
 C831 C 0.39184 1.15670 0.41240
 N832 N 0.37754 1.12579 0.42077
 N833 N 0.39563 1.10412 0.43733
 C834 C 0.42871 1.11245 0.44635
 N835 N 0.44292 1.14385 0.43848
 N836 N 0.42477 1.16559 0.42167
 N837 N 1.17589 0.73562 0.16253
 C838 C 1.18136 0.70271 0.15239
 N839 N 1.20585 0.68185 0.16502
 N840 N 1.22406 0.69335 0.18719
 C841 C 1.21856 0.72622 0.19749
 N842 N 1.19414 0.74712 0.18469
 C843 C 1.15979 0.68882 0.12999
 C844 C 1.14217 0.67459 0.11206
 C845 C 1.12274 0.65369 0.09203
 N846 N 1.13439 0.62079 0.08643
 N847 N 1.11543 0.59928 0.07039
 C848 C 1.08408 0.60973 0.05915
 N849 N 1.07250 0.64303 0.06433
 N850 N 1.09154 0.66465 0.08061
 N851 N 0.67632 1.23445 0.66296
 C852 C 0.68292 1.20224 0.65187
 N853 N 0.70846 1.18184 0.66365
 N854 N 0.72661 1.19311 0.68593
 C855 C 0.71996 1.22528 0.69720
 N856 N 0.69450 1.24572 0.68523
 C857 C 0.66131 1.18838 0.62950
 C858 C 0.64359 1.17417 0.61163
 C859 C 0.62400 1.15326 0.59174
 N860 N 0.63536 1.12021 0.58633
 N861 N 0.61623 1.09873 0.57040
 C862 C 0.58498 1.10935 0.55908
 N863 N 0.57367 1.14278 0.56409
 N864 N 0.59288 1.16437 0.58026
 N865 N 0.79377 0.30921 0.15144
 C866 C 0.82528 0.29419 0.14449
 N867 N 0.83691 0.26628 0.15965
 N868 N 0.81782 0.25404 0.18118
 C869 C 0.78645 0.26929 0.18842
 N870 N 0.77470 0.29700 0.17300
 C871 C 0.84800 0.31077 0.12395
 C872 C 0.86674 0.32739 0.10810
 C873 C 0.88769 0.35107 0.09118
 N874 N 0.91294 0.33961 0.07280
 N875 N 0.93237 0.36266 0.05805
 C876 C 0.92719 0.39787 0.06136
 N877 N 0.90194 0.40892 0.07976
 N878 N 0.88263 0.38606 0.09436
 N879 N 0.29365 0.81050 0.65119
 C880 C 0.32481 0.79485 0.64415
 N881 N 0.33582 0.76654 0.65913
 N882 N 0.31644 0.75451 0.68058
 C883 C 0.28541 0.77038 0.68789
 N884 N 0.27429 0.79850 0.67266
 C885 C 0.34790 0.81120 0.62376
 C886 C 0.36695 0.82773 0.60809
 C887 C 0.38832 0.85133 0.59144
 N888 N 0.41217 0.83976 0.57198
 N889 N 0.43183 0.86270 0.55730
 C890 C 0.42826 0.89790 0.56177
 N891 N 0.40441 0.90907 0.58128
 N892 N 0.38490 0.88632 0.59581
 N893 N 0.26130 1.16851 -0.16123
 C894 C 0.29254 1.17605 -0.14855
 N895 N 0.31220 1.20337 -0.15835
 N896 N 0.30120 1.22234 -0.18024
 C897 C 0.27006 1.21472 -0.19314
 N898 N 0.25027 1.18754 -0.18311
 C899 C 0.30708 1.15297 -0.12747
 C900 C 0.32240 1.13385 -0.11119
 C901 C 0.34515 1.11241 -0.09396
 N902 N 0.38057 1.11551 -0.09746
 N903 N 0.40272 1.09575 -0.08262
 C904 C 0.39049 1.07196 -0.06364
 N905 N 0.35482 1.06873 -0.05997
 N906 N 0.33247 1.08865 -0.07499
 N907 N 0.82069 0.70012 0.33814
 C908 C 0.79803 0.67841 0.35198
 N909 N 0.76386 0.67641 0.34331
 N910 N 0.75288 0.69532 0.32135
 C911 C 0.77560 0.71693 0.30732
 N912 N 0.80973 0.71898 0.31618
 C913 C 0.81120 0.65597 0.37403
 C914 C 0.82525 0.63756 0.39150
 C915 C 0.84639 0.61717 0.41071
 N916 N 0.83450 0.58677 0.42262
 N917 N 0.85625 0.56681 0.43812
 C918 C 0.89060 0.57663 0.44196
 N919 N 0.90199 0.60717 0.43021
 N920 N 0.88038 0.62703 0.41495
 N921 N 0.69759 1.15063 0.17717
 C922 C 0.70394 1.16034 0.15019
 N923 N 0.72170 1.19083 0.14522
 N924 N 0.73288 1.21076 0.16656
 C925 C 0.72646 1.20105 0.19363
 N926 N 0.70873 1.17052 0.19845
 C927 C 0.68865 1.14029 0.12747
 C928 C 0.67306 1.12396 0.10947
 C929 C 0.65055 1.10606 0.08957
 N930 N 0.66064 1.07591 0.07627
 N931 N 0.63783 1.05845 0.05985
 C932 C 0.60414 1.07056 0.05639
 N933 N 0.59453 1.10081 0.06957
 N934 N 0.61720 1.11820 0.08577
 N935 N 1.19831 0.65100 0.67601
 C936 C 1.20474 0.66082 0.64908
 N937 N 1.22163 0.69181 0.64419
 N938 N 1.23195 0.71210 0.66558
 C939 C 1.22543 0.70228 0.69261
 N940 N 1.20857 0.67125 0.69735
 C941 C 1.19018 0.64037 0.62632
 C942 C 1.17495 0.62369 0.60837
 C943 C 1.15247 0.60550 0.58868
 N944 N 1.16291 0.57578 0.57493
 N945 N 1.14002 0.55798 0.55879
 C946 C 1.10595 0.56931 0.55612
 N947 N 1.09602 0.59916 0.56973
 N948 N 1.11874 0.61687 0.58563
 N949 N 0.68193 0.79084 -0.15865
 C950 C 0.70063 0.81802 -0.14759
 N951 N 0.73245 0.82643 -0.15911
 N952 N 0.74496 0.80842 -0.18108
 C953 C 0.72620 0.78131 -0.19233
 N954 N 0.69444 0.77285 -0.18062
 C955 C 0.68527 0.83937 -0.12560
 C956 C 0.66998 0.85688 -0.10810
 C957 C 0.64801 0.87630 -0.08865
 N958 N 0.65896 0.90676 -0.07632
 N959 N 0.63664 0.92567 -0.06039
 C960 C 0.60263 0.91472 -0.05646
 N961 N 0.59216 0.88413 -0.06864
 N962 N 0.61434 0.86530 -0.08434
 N963 N 1.18653 0.28883 0.34368
 C964 C 1.20347 0.31851 0.35214
 N965 N 1.23290 0.32902 0.33804
 N966 N 1.24484 0.31055 0.31613
 C967 C 1.22775 0.28099 0.30743
 N968 N 1.19845 0.27038 0.32175
 C969 C 1.18775 0.34065 0.37341
 C970 C 1.17177 0.35899 0.38993
 C971 C 1.14857 0.37952 0.40761
 N972 N 1.16076 0.40379 0.42631
 N973 N 1.13803 0.42296 0.44167
 C974 C 1.10243 0.41845 0.43866
 N975 N 1.09069 0.39413 0.41996
 N976 N 1.11321 0.37511 0.40477
 N977 N 0.26117 0.82860 0.16143
 C978 C 0.29610 0.83480 0.15651
 N979 N 0.32048 0.82089 0.17424
 N980 N 0.31040 0.80157 0.19623
 C981 C 0.27553 0.79526 0.20128
 N982 N 0.25107 0.80922 0.18348
 C983 C 0.30783 0.85539 0.13274
 C984 C 0.32071 0.87169 0.11337
 C985 C 0.34023 0.88918 0.09129
 N986 N 0.36982 0.87351 0.08111
 N987 N 0.39129 0.89067 0.06365
 C988 C 0.38403 0.92412 0.05542
 N989 N 0.35391 0.93972 0.06513
 N990 N 0.33238 0.92251 0.08285
 N991 N 0.76433 0.32463 0.66048
 C992 C 0.79913 0.33221 0.65642
 N993 N 0.82329 0.31985 0.67506
 N994 N 0.81308 0.30068 0.69710
 C995 C 0.77829 0.29301 0.70128
 N996 N 0.75410 0.30542 0.68257
 C997 C 0.81090 0.35252 0.63254
 C998 C 0.82357 0.36869 0.61304
 C999 C 0.84267 0.38624 0.59079
 N1000 N 0.87198 0.37058 0.58012
 N1001 N 0.89319 0.38788 0.56255
 C1002 C 0.88589 0.42147 0.55471
 N1003 N 0.85603 0.43706 0.56491
 N1004 N 0.83479 0.41970 0.58273
 N1005 N 1.15775 1.17498 0.69126
 C1006 C 1.17670 1.15095 0.67650
 N1007 N 1.21256 1.15205 0.67704
 N1008 N 1.22910 1.17620 0.69240
 C1009 C 1.21026 1.20018 0.70739
 N1010 N 1.17430 1.19913 0.70661
 C1011 C 1.15908 1.12541 0.65980
 C1012 C 1.14432 1.10477 0.64487
 C1013 C 1.12684 1.08213 0.62563
 N1014 N 1.14043 1.07789 0.59950
 N1015 N 1.12216 1.06072 0.58001
 C1016 C 1.08971 1.04727 0.58605
 N1017 N 1.07638 1.05098 0.61243
 N1018 N 1.09468 1.06825 0.63195
 N1019 N 0.69914 0.67909 0.16562
 C1020 C 0.67480 0.65695 0.17690
 N1021 N 0.66804 0.65804 0.20483
 N1022 N 0.68542 0.68056 0.22111
 C1023 C 0.70998 0.70267 0.20997
 N1024 N 0.71653 0.70163 0.18193
 C1025 C 0.65640 0.63284 0.15946
 C1026 C 0.64117 0.61319 0.14400
 C1027 C 0.62356 0.59139 0.12426
 N1028 N 0.59282 0.57495 0.13107
 N1029 N 0.57485 0.55734 0.11155
 C1030 C 0.58713 0.55584 0.08472
 N1031 N 0.61810 0.57204 0.07814
 N1032 N 0.63605 0.58954 0.09762
 N1033 N 1.14018 0.79412 0.31008
 C1034 C 1.14892 0.82345 0.32461
 N1035 N 1.18298 0.83483 0.32445
 N1036 N 1.20762 0.81752 0.30987
 C1037 C 1.19898 0.78808 0.29531
 N1038 N 1.16480 0.77684 0.29553
 C1039 C 1.12271 0.84153 0.34067
 C1040 C 1.10138 0.85653 0.35509
 C1041 C 1.07779 0.87411 0.37384
 N1042 N 1.06500 0.90656 0.36766
 N1043 N 1.04708 0.92480 0.38697
 C1044 C 1.04160 0.91108 0.41299
 N1045 N 1.05386 0.87835 0.41882
 N1046 N 1.07166 0.86014 0.39955
 N1047 N 0.68521 0.33720 -0.17892
 C1048 C 0.65161 0.32482 -0.17680
 N1049 N 0.64321 0.29365 -0.18877
 N1050 N 0.66767 0.27556 -0.20285
 C1051 C 0.70140 0.28775 -0.20500
 N1052 N 0.70967 0.31907 -0.19302
 C1053 C 0.62581 0.34354 -0.16087
 C1054 C 0.60496 0.35879 -0.14624
 C1055 C 0.58220 0.37623 -0.12686
 N1056 N 0.57858 0.36298 -0.10062
 N1057 N 0.56140 0.38110 -0.08098
 C1058 C 0.54725 0.41305 -0.08695
 N1059 N 0.55032 0.42606 -0.11344
 N1060 N 0.56766 0.40792 -0.13312
 N1061 N 0.84731 1.21483 0.32032
 C1062 C 0.84987 1.17929 0.32070
 N1063 N 0.82723 1.15982 0.30506
 N1064 N 0.80299 1.17551 0.28911
 C1065 C 0.80045 1.21113 0.28855
 N1066 N 0.82310 1.23052 0.30435
 C1067 C 0.87553 1.16248 0.33801
 C1068 C 0.89616 1.14816 0.35335
 C1069 C 0.91864 1.13087 0.37299
 N1070 N 0.92246 1.14447 0.39910
 N1071 N 0.93911 1.12624 0.41893
 C1072 C 0.95246 1.09383 0.41328
 N1073 N 0.94909 1.08047 0.38695
 N1074 N 0.93233 1.09871 0.36710
 N1075 N 0.34673 0.71245 -0.18238
 C1076 C 0.34593 0.67690 -0.18045
 N1077 N 0.32063 0.65866 -0.19435
 N1078 N 0.29706 0.67552 -0.21015
 C1079 C 0.29782 0.71112 -0.21225
 N1080 N 0.32315 0.72931 -0.19820
 C1081 C 0.37049 0.65892 -0.16299
 C1082 C 0.39013 0.64376 -0.14739
 C1083 C 0.41158 0.62600 -0.12739
 N1084 N 0.41408 0.63906 -0.10103
 N1085 N 0.43073 0.62093 -0.08118
 C1086 C 0.44536 0.58916 -0.08705
 N1087 N 0.44327 0.57627 -0.11362
 N1088 N 0.42650 0.59444 -0.13352
 N1089 N 0.80325 0.85851 0.69951
 C1090 C 0.82541 0.84786 0.67878
 N1091 N 0.82999 0.81299 0.67396
 N1092 N 0.81301 0.78933 0.68964
 C1093 C 0.79077 0.79994 0.71043
 N1094 N 0.78627 0.83489 0.71513
 C1095 C 0.84280 0.87320 0.66161
 C1096 C 0.85694 0.89415 0.64647
 C1097 C 0.87325 0.91770 0.62714
 N1098 N 0.90511 0.93246 0.63295
 N1099 N 0.92205 0.95116 0.61341
 C1100 C 0.90758 0.95556 0.58753
 N1101 N 0.87538 0.94125 0.58204
 N1102 N 0.85846 0.92265 0.60156
 N1103 N 0.33562 0.30665 0.17631
 C1104 C 0.33013 0.34171 0.17924
 N1105 N 0.30497 0.35341 0.19726
 N1106 N 0.28607 0.33066 0.21229
 C1107 C 0.29150 0.29553 0.20954
 N1108 N 0.31671 0.28385 0.19140
 C1109 C 0.34927 0.36614 0.16248
 C1110 C 0.36420 0.38666 0.14748
 C1111 C 0.38038 0.41001 0.12800
 N1112 N 0.36525 0.41467 0.10254
 N1113 N 0.38142 0.43387 0.08305
 C1114 C 0.41316 0.44916 0.08843
 N1115 N 0.42810 0.44493 0.11416
 N1116 N 0.41189 0.42559 0.13372
   
