data_POSCAR
  _audit_creation_date              2014-09-24
  _audit_creation_method            'ToBaCCo'
  _symmetry_space_group_name_H-M    'P1'
  _symmetry_Int_Tables_number       1
  _symmetry_cell_setting            triclinic
  loop_
  _symmetry_equiv_pos_as_xyz
 x,y,z
_cell_length_a 38.6755
_cell_length_b 38.6789
_cell_length_c 38.6755
_cell_angle_alpha 90.128600
_cell_angle_beta 88.384700
_cell_angle_gamma 90.128500
loop_
  _atom_site_label
  _atom_site_type_symbol
  _atom_site_fract_x
  _atom_site_fract_y
  _atom_site_fract_z
O1 O 0.54611 0.49949 0.02869
 O2 O 0.45085 0.49970 0.02816
 O3 O 0.49827 0.45202 0.02846
 O4 O 0.49863 0.54714 0.02839
 O5 O 0.50038 0.54697 -0.02866
 O6 O 0.50045 0.45186 -0.02859
 O7 O 0.45275 0.49925 -0.02883
 O8 O 0.54802 0.49959 -0.02836
 Cu9 Cu 0.49828 0.49960 0.03413
 Cu10 Cu 0.50058 0.49940 -0.03432
 C11 C 0.56340 0.49956 0.00025
 C12 C 0.43537 0.49948 -0.00042
 C13 C 0.49934 0.43564 -0.00006
 C14 C 0.49953 0.56336 -0.00015
 O15 O -0.02852 0.54847 0.50126
 O16 O -0.02854 0.45321 0.50104
 O17 O -0.02812 0.50081 0.54866
 O18 O -0.02895 0.50086 0.45356
 O19 O 0.02810 0.50076 0.45146
 O20 O 0.02893 0.50116 0.54655
 O21 O 0.02850 0.45333 0.49904
 O22 O 0.02846 0.54861 0.49890
 Cu23 Cu -0.03424 0.50083 0.50133
 Cu24 Cu 0.03421 0.50098 0.49879
 C25 C -0.00003 0.56497 0.50009
 C26 C -0.00002 0.43694 0.50004
 C27 C 0.00055 0.50099 0.56391
 C28 C -0.00057 0.50077 0.43621
 O29 O 0.49959 0.02810 0.54823
 O30 O 0.50020 0.02814 0.45294
 O31 O 0.45231 0.02817 0.50159
 O32 O 0.54748 0.02807 0.49958
 O33 O 0.54728 -0.02895 0.49986
 O34 O 0.45214 -0.02885 0.50105
 O35 O 0.50043 -0.02887 0.45280
 O36 O 0.49896 -0.02886 0.54811
 Cu37 Cu 0.49991 0.03383 0.50060
 Cu38 Cu 0.49969 -0.03459 0.50044
 C39 C 0.49912 -0.00038 0.56461
 C40 C 0.50047 -0.00036 0.43653
 C41 C 0.43591 -0.00032 0.50156
 C42 C 0.56369 -0.00046 0.49947
 O43 O 0.47088 -0.00076 -0.04702
 O44 O 0.47137 -0.00043 0.04825
 O45 O 0.47107 0.04697 0.00062
 O46 O 0.47114 -0.04814 0.00068
 O47 O 0.52819 -0.04798 -0.00150
 O48 O 0.52812 0.04714 -0.00113
 O49 O 0.52841 -0.00052 0.04634
 O50 O 0.52792 -0.00031 -0.04892
 Cu51 Cu 0.46540 -0.00061 0.00081
 Cu52 Cu 0.53388 -0.00041 -0.00149
 C53 C 0.49932 -0.00054 -0.06430
 C54 C 0.49997 -0.00047 0.06363
 C55 C 0.49958 0.06335 -0.00023
 C56 C 0.49967 -0.06437 -0.00042
 O57 O -0.04729 0.52854 1.00045
 O58 O 0.04801 0.52853 0.99984
 O59 O 0.00136 0.52860 0.95256
 O60 O -0.00065 0.52849 1.04772
 O61 O -0.00037 0.47147 1.04753
 O62 O 0.00082 0.47158 0.95238
 O63 O 0.04789 0.47151 0.99921
 O64 O -0.04743 0.47152 1.00068
 Cu65 Cu 0.00037 0.53425 1.00016
 Cu66 Cu 0.00022 0.46581 0.99993
 C67 C -0.06370 0.50003 1.00072
 C68 C 0.06428 0.50002 0.99937
 C69 C 0.00133 0.50011 0.93616
 C70 C -0.00077 0.49996 1.06394
 O71 O 0.00082 -0.04765 0.47172
 O72 O 0.00098 0.04762 0.47172
 O73 O 0.04840 -0.00002 0.47214
 O74 O -0.04670 -0.00002 0.47133
 O75 O -0.04878 -0.00007 0.52838
 O76 O 0.04631 0.00028 0.52919
 O77 O -0.00132 0.04775 0.52876
 O78 O -0.00123 -0.04753 0.52877
 Cu79 Cu 0.00108 -0.00003 0.46601
 Cu80 Cu -0.00146 0.00012 0.53449
 C81 C -0.00021 -0.06392 0.50025
 C82 C -0.00016 0.06401 0.50023
 C83 C 0.06366 0.00015 0.50080
 C84 C -0.06404 -0.00008 0.49972
 C85 C -0.32515 0.49978 1.00079
 C86 C -0.34261 0.50154 0.96946
 C87 C -0.37875 0.50140 0.96928
 C88 C -0.39828 0.49961 1.00044
 C89 C -0.38081 0.49790 1.03178
 C90 C -0.34466 0.49792 1.03195
 C91 C -0.28673 0.49989 1.00096
 C92 C -0.26894 0.47787 1.02318
 C93 C -0.23279 0.47788 1.02324
 C94 C -0.21360 0.50001 1.00118
 C95 C -0.23139 0.52210 0.97904
 C96 C -0.26754 0.52199 0.97888
 C97 C -0.17518 0.50003 1.00122
 C98 C -0.15657 0.53125 0.99933
 C99 C -0.12042 0.53127 0.99929
 C100 C -0.10203 0.50003 1.00101
 C101 C -0.12065 0.46880 1.00289
 C102 C -0.15680 0.46881 1.00306
 H103 H -0.32830 0.50257 0.94502
 H104 H -0.39139 0.50269 0.94468
 H105 H -0.39507 0.49656 1.05625
 H106 H -0.33196 0.49695 1.05652
 H107 H -0.28299 0.46032 1.04026
 H108 H -0.21984 0.46081 1.04082
 H109 H -0.21734 0.53920 0.96151
 H110 H -0.28050 0.53948 0.96171
 H111 H -0.17001 0.55575 0.99832
 H112 H -0.10689 0.55578 0.99788
 H113 H -0.10728 0.44428 1.00418
 H114 H -0.17039 0.44431 1.00412
 C115 C 0.32571 0.49967 0.99909
 C116 C 0.34318 0.50045 1.03044
 C117 C 0.37931 0.50030 1.03063
 C118 C 0.39899 0.49950 0.99941
 C119 C 0.38135 0.49877 0.96801
 C120 C 0.34520 0.49877 0.96790
 C121 C 0.28730 0.49980 0.99894
 C122 C 0.26941 0.47834 0.97610
 C123 C 0.23326 0.47836 0.97609
 C124 C 0.21418 0.49996 0.99878
 C125 C 0.23207 0.52150 1.02153
 C126 C 0.26822 0.52136 1.02167
 C127 C 0.17576 0.49998 0.99877
 C128 C 0.15729 0.53118 1.00139
 C129 C 0.12114 0.53120 1.00146
 C130 C 0.10262 0.50001 0.99906
 C131 C 0.12110 0.46881 0.99645
 C132 C 0.15726 0.46881 0.99624
 H133 H 0.32885 0.50073 1.05490
 H134 H 0.39176 0.50080 1.05538
 H135 H 0.39540 0.49821 0.94339
 H136 H 0.33247 0.49856 0.94332
 H137 H 0.28339 0.46122 0.95851
 H138 H 0.22022 0.46171 0.95803
 H139 H 0.21809 0.53818 1.03954
 H140 H 0.28127 0.53842 1.03933
 H141 H 0.17084 0.55564 1.00296
 H142 H 0.10771 0.55569 1.00344
 H143 H 0.10763 0.44433 0.99461
 H144 H 0.17075 0.44433 0.99459
 C145 C -0.00006 -0.32536 0.50017
 C146 C 0.03121 -0.34376 0.49842
 C147 C 0.03126 -0.37991 0.49845
 C148 C -0.00004 -0.39864 0.50012
 C149 C -0.03135 -0.38006 0.50181
 C150 C -0.03132 -0.34392 0.50189
 C151 C -0.00008 -0.28694 0.50020
 C152 C -0.02295 -0.26847 0.52223
 C153 C -0.02292 -0.23232 0.52229
 C154 C -0.00012 -0.21381 0.50023
 C155 C 0.02270 -0.23227 0.47815
 C156 C 0.02277 -0.26842 0.47819
 C157 C -0.00015 -0.17539 0.50023
 C158 C 0.00272 -0.15696 0.46900
 C159 C 0.00263 -0.12081 0.46900
 C160 C -0.00020 -0.10225 0.50024
 C161 C -0.00301 -0.12069 0.53149
 C162 C -0.00305 -0.15684 0.53147
 H163 H 0.05573 -0.33018 0.49750
 H164 H 0.05595 -0.39310 0.49720
 H165 H -0.05603 -0.39337 0.50304
 H166 H -0.05585 -0.33046 0.50284
 H167 H -0.04062 -0.28199 0.53972
 H168 H -0.04103 -0.21884 0.53936
 H169 H 0.04080 -0.21875 0.46110
 H170 H 0.04047 -0.28191 0.46068
 H171 H 0.00457 -0.17051 0.44449
 H172 H 0.00478 -0.10741 0.44447
 H173 H -0.00518 -0.10720 0.55601
 H174 H -0.00488 -0.17030 0.55598
 C175 C -0.00003 0.32547 0.50010
 C176 C 0.03123 0.34402 0.49767
 C177 C 0.03125 0.38017 0.49769
 C178 C -0.00002 0.39861 0.50005
 C179 C -0.03129 0.38005 0.50242
 C180 C -0.03129 0.34390 0.50249
 C181 C -0.00004 0.28704 0.50013
 C182 C -0.02255 0.26857 0.52252
 C183 C -0.02252 0.23242 0.52259
 C184 C -0.00006 0.21391 0.50018
 C185 C 0.02241 0.23238 0.47774
 C186 C 0.02246 0.26853 0.47776
 C187 C -0.00008 0.17548 0.50020
 C188 C 0.00243 0.15691 0.46895
 C189 C 0.00236 0.12076 0.46895
 C190 C -0.00014 0.10234 0.50022
 C191 C -0.00260 0.12092 0.53148
 C192 C -0.00263 0.15707 0.53146
 H193 H 0.05576 0.33057 0.49622
 H194 H 0.05579 0.39367 0.49590
 H195 H -0.05584 0.39345 0.50420
 H196 H -0.05581 0.33035 0.50396
 H197 H -0.03994 0.28209 0.54030
 H198 H -0.04037 0.21894 0.53994
 H199 H 0.04025 0.21887 0.46042
 H200 H 0.03987 0.28201 0.45997
 H201 H 0.00399 0.17035 0.44442
 H202 H 0.00423 0.10726 0.44442
 H203 H -0.00449 0.10753 0.55603
 H204 H -0.00417 0.17063 0.55597
 C205 C 0.49854 -0.00036 -0.32570
 C206 C 0.49950 0.03089 -0.34414
 C207 C 0.49957 0.03092 -0.38029
 C208 C 0.49883 -0.00038 -0.39900
 C209 C 0.49787 -0.03166 -0.38038
 C210 C 0.49766 -0.03161 -0.34422
 C211 C 0.49855 -0.00035 -0.28728
 C212 C 0.47701 -0.02308 -0.26822
 C213 C 0.47702 -0.02304 -0.23206
 C214 C 0.49870 -0.00040 -0.21416
 C215 C 0.52028 0.02228 -0.23324
 C216 C 0.52014 0.02237 -0.26938
 C217 C 0.49884 -0.00047 -0.17575
 C218 C 0.53012 0.00201 -0.15827
 C219 C 0.53028 0.00190 -0.12212
 C220 C 0.49914 -0.00054 -0.10262
 C221 C 0.46785 -0.00296 -0.12012
 C222 C 0.46771 -0.00301 -0.15627
 H223 H 0.49977 0.05541 -0.33057
 H224 H 0.50023 0.05559 -0.39351
 H225 H 0.49734 -0.05634 -0.39366
 H226 H 0.49731 -0.05612 -0.33073
 H227 H 0.45985 -0.04065 -0.28127
 H228 H 0.46034 -0.04104 -0.21810
 H229 H 0.53702 0.04026 -0.22018
 H230 H 0.53727 0.03995 -0.28336
 H231 H 0.55455 0.00358 -0.17256
 H232 H 0.55484 0.00375 -0.10946
 H233 H 0.44340 -0.00483 -0.10588
 H234 H 0.44317 -0.00455 -0.16900
 C235 C 0.50094 -0.00030 0.32505
 C236 C 0.49907 0.03091 0.34367
 C237 C 0.49903 0.03090 0.37983
 C238 C 0.50075 -0.00034 0.39820
 C239 C 0.50262 -0.03157 0.37957
 C240 C 0.50278 -0.03154 0.34341
 C241 C 0.50089 -0.00029 0.28663
 C242 C 0.52293 -0.02240 0.26741
 C243 C 0.52288 -0.02237 0.23126
 C244 C 0.50066 -0.00033 0.21350
 C245 C 0.47858 0.02175 0.23272
 C246 C 0.47874 0.02182 0.26886
 C247 C 0.50050 -0.00038 0.17508
 C248 C 0.46917 0.00142 0.15762
 C249 C 0.46900 0.00132 0.12147
 C250 C 0.50016 -0.00044 0.10195
 C251 C 0.53150 -0.00219 0.11942
 C252 C 0.53166 -0.00222 0.15557
 H253 H 0.49805 0.05542 0.33026
 H254 H 0.49763 0.05541 0.39337
 H255 H 0.50391 -0.05609 0.39291
 H256 H 0.50383 -0.05603 0.32980
 H257 H 0.54052 -0.03950 0.28034
 H258 H 0.53995 -0.03991 0.21719
 H259 H 0.46141 0.03927 0.21978
 H260 H 0.46121 0.03891 0.28294
 H261 H 0.44472 0.00243 0.17193
 H262 H 0.44440 0.00263 0.10884
 H263 H 0.55597 -0.00351 0.10516
 H264 H 0.55623 -0.00321 0.16827
 C265 C 0.49968 -0.32536 -0.00024
 C266 C 0.50178 -0.34390 -0.03151
 C267 C 0.50169 -0.38002 -0.03149
 C268 C 0.49959 -0.39839 -0.00018
 C269 C 0.49754 -0.37983 0.03110
 C270 C 0.49754 -0.34371 0.03106
 C271 C 0.49970 -0.28701 -0.00027
 C272 C 0.47734 -0.26853 0.02224
 C273 C 0.47730 -0.23242 0.02216
 C274 C 0.49972 -0.21400 -0.00036
 C275 C 0.52213 -0.23247 -0.02283
 C276 C 0.52208 -0.26859 -0.02282
 C277 C 0.49971 -0.17565 -0.00041
 C278 C 0.53098 -0.15713 -0.00272
 C279 C 0.53098 -0.12101 -0.00270
 C280 C 0.49969 -0.10262 -0.00045
 C281 C 0.46841 -0.12116 0.00181
 C282 C 0.46843 -0.15728 0.00187
 H283 H 0.50303 -0.33045 -0.05604
 H284 H 0.50323 -0.39354 -0.05603
 H285 H 0.49596 -0.39320 0.05566
 H286 H 0.49632 -0.33012 0.05557
 H287 H 0.45957 -0.28202 0.03967
 H288 H 0.45999 -0.21888 0.04000
 H289 H 0.53945 -0.21899 -0.04070
 H290 H 0.53984 -0.28213 -0.04022
 H291 H 0.55551 -0.17059 -0.00408
 H292 H 0.55553 -0.10750 -0.00440
 H293 H 0.44386 -0.10777 0.00350
 H294 H 0.44391 -0.17085 0.00326
 C295 C 0.49934 0.32435 -0.00002
 C296 C 0.50163 0.34273 -0.03130
 C297 C 0.50157 0.37884 -0.03132
 C298 C 0.49931 0.39738 -0.00004
 C299 C 0.49705 0.37899 0.03125
 C300 C 0.49702 0.34287 0.03125
 C301 C 0.49938 0.28600 -0.00002
 C302 C 0.47691 0.26753 0.02239
 C303 C 0.47691 0.23141 0.02234
 C304 C 0.49946 0.21299 -0.00004
 C305 C 0.52198 0.23147 -0.02240
 C306 C 0.52190 0.26758 -0.02243
 C307 C 0.49949 0.17464 -0.00006
 C308 C 0.53079 0.15628 -0.00221
 C309 C 0.53083 0.12017 -0.00221
 C310 C 0.49955 0.10161 -0.00016
 C311 C 0.46824 0.11998 0.00195
 C312 C 0.46822 0.15610 0.00204
 H313 H 0.50301 0.32915 -0.05582
 H314 H 0.50327 0.39223 -0.05587
 H315 H 0.49535 0.39250 0.05579
 H316 H 0.49565 0.32941 0.05577
 H317 H 0.45904 0.28102 0.03971
 H318 H 0.45951 0.21787 0.04010
 H319 H 0.53940 0.21797 -0.04017
 H320 H 0.53974 0.28112 -0.03974
 H321 H 0.55531 0.16987 -0.00343
 H322 H 0.55540 0.10679 -0.00379
 H323 H 0.44370 0.10646 0.00349
 H324 H 0.44369 0.16955 0.00329
 C325 C -0.32500 -0.00062 0.49846
 C326 C -0.34330 0.03065 0.49689
 C327 C -0.37943 0.03071 0.49720
 C328 C -0.39804 -0.00052 0.49897
 C329 C -0.37972 -0.03180 0.50039
 C330 C -0.34359 -0.03184 0.50019
 C331 C -0.28665 -0.00066 0.49844
 C332 C -0.26891 -0.02276 0.52061
 C333 C -0.23280 -0.02266 0.52076
 C334 C -0.21365 -0.00056 0.49867
 C335 C -0.23137 0.02145 0.47642
 C336 C -0.26750 0.02145 0.47636
 C337 C -0.17530 -0.00041 0.49891
 C338 C -0.15577 0.00122 0.46777
 C339 C -0.11965 0.00128 0.46801
 C340 C -0.10229 -0.00018 0.49942
 C341 C -0.12185 -0.00174 0.53057
 C342 C -0.15796 -0.00191 0.53031
 H343 H -0.32967 0.05513 0.49595
 H344 H -0.39277 0.05526 0.49613
 H345 H -0.39328 -0.05631 0.50170
 H346 H -0.33018 -0.05636 0.50100
 H347 H -0.28299 -0.03983 0.53815
 H348 H -0.21984 -0.04014 0.53794
 H349 H -0.21730 0.03899 0.45935
 H350 H -0.28046 0.03852 0.45877
 H351 H -0.16843 0.00199 0.44317
 H352 H -0.10534 0.00244 0.44357
 H353 H -0.10927 -0.00281 0.55520
 H354 H -0.17234 -0.00275 0.55472
 C355 C 0.32460 -0.00026 0.50238
 C356 C 0.34310 0.03098 0.50408
 C357 C 0.37923 0.03097 0.50385
 C358 C 0.39764 -0.00030 0.50203
 C359 C 0.37913 -0.03155 0.50049
 C360 C 0.34301 -0.03152 0.50061
 C361 C 0.28626 -0.00024 0.50230
 C362 C 0.26845 -0.02235 0.48005
 C363 C 0.23234 -0.02223 0.47983
 C364 C 0.21326 -0.00007 0.50194
 C365 C 0.23106 0.02198 0.52426
 C366 C 0.26718 0.02195 0.52439
 C367 C 0.17492 0.00007 0.50167
 C368 C 0.15537 0.00176 0.53280
 C369 C 0.11925 0.00176 0.53253
 C370 C 0.10191 0.00017 0.50111
 C371 C 0.12148 -0.00143 0.46997
 C372 C 0.15759 -0.00154 0.47026
 H373 H 0.32962 0.05549 0.50506
 H374 H 0.39272 0.05549 0.50501
 H375 H 0.39254 -0.05609 0.49914
 H376 H 0.32944 -0.05601 0.49971
 H377 H 0.28246 -0.03948 0.46250
 H378 H 0.21932 -0.03974 0.46259
 H379 H 0.21705 0.03957 0.54135
 H380 H 0.28020 0.03904 0.54205
 H381 H 0.16802 0.00261 0.55741
 H382 H 0.10493 0.00296 0.55697
 H383 H 0.10891 -0.00261 0.44533
 H384 H 0.17198 -0.00243 0.44585
 C385 C -0.00140 0.50028 1.32495
 C386 C -0.03253 0.50196 1.34449
 C387 C -0.03228 0.50208 1.38061
 C388 C -0.00087 0.50064 1.39796
 C389 C 0.03027 0.49903 1.37839
 C390 C 0.03000 0.49881 1.34229
 C391 C -0.00165 0.50007 1.28661
 C392 C 0.02043 0.47793 1.26748
 C393 C 0.02027 0.47778 1.23137
 C394 C -0.00188 0.49986 1.21360
 C395 C -0.02396 0.52200 1.23272
 C396 C -0.02390 0.52205 1.26885
 C397 C -0.00184 0.49987 1.17525
 C398 C -0.00339 0.53113 1.15693
 C399 C -0.00306 0.53117 1.12080
 C400 C -0.00129 0.49992 1.10221
 C401 C 0.00012 0.46865 1.12055
 C402 C -0.00010 0.46863 1.15668
 H403 H -0.05714 0.50271 1.33183
 H404 H -0.05672 0.50327 1.39493
 H405 H 0.05491 0.49797 1.39097
 H406 H 0.05441 0.49793 1.32790
 H407 H 0.03761 0.46046 1.28047
 H408 H 0.03781 0.46068 1.21731
 H409 H -0.04154 0.53906 1.21974
 H410 H -0.04097 0.53962 1.28289
 H411 H -0.00433 0.55562 1.17055
 H412 H -0.00412 0.55570 1.10745
 H413 H 0.00143 0.44414 1.10700
 H414 H 0.00069 0.44413 1.17011
 C415 C 0.00144 0.50076 0.67517
 C416 C 0.03257 0.50250 0.65561
 C417 C 0.03229 0.50256 0.61949
 C418 C 0.00087 0.50098 0.60216
 C419 C -0.03026 0.49934 0.62174
 C420 C -0.02997 0.49918 0.65784
 C421 C 0.00173 0.50057 0.71351
 C422 C -0.02037 0.47837 0.73256
 C423 C -0.02015 0.47819 0.76867
 C424 C 0.00210 0.50030 0.78651
 C425 C 0.02418 0.52251 0.76746
 C426 C 0.02405 0.52259 0.73134
 C427 C 0.00217 0.50024 0.82485
 C428 C 0.00385 0.53147 0.84337
 C429 C 0.00362 0.53143 0.87950
 C430 C 0.00180 0.50015 0.89789
 C431 C 0.00026 0.46891 0.87936
 C432 C 0.00040 0.46896 0.84323
 H433 H 0.05718 0.50334 0.66825
 H434 H 0.05673 0.50379 0.60517
 H435 H -0.05491 0.49817 0.60917
 H436 H -0.05438 0.49825 0.67224
 H437 H -0.03761 0.46087 0.71951
 H438 H -0.03769 0.46104 0.78266
 H439 H 0.04183 0.53959 0.78050
 H440 H 0.04113 0.54020 0.71735
 H441 H 0.00482 0.55598 0.82991
 H442 H 0.00476 0.55594 0.89300
 H443 H -0.00108 0.44437 0.89275
 H444 H -0.00049 0.44448 0.82965
   
