data_POSCAR
  _audit_creation_date              2014-09-24
  _audit_creation_method            'ToBaCCo'
  _symmetry_space_group_name_H-M    'P1'
  _symmetry_Int_Tables_number       1
  _symmetry_cell_setting            triclinic
  loop_
  _symmetry_equiv_pos_as_xyz
 x,y,z
_cell_length_a 35.9930
_cell_length_b 37.8300
_cell_length_c 35.9934
_cell_angle_alpha 90.001100
_cell_angle_beta 90.001300
_cell_angle_gamma 90.000000
loop_
  _atom_site_label
  _atom_site_type_symbol
  _atom_site_fract_x
  _atom_site_fract_y
  _atom_site_fract_z
Si1 Si 0.25000 0.24993 0.25008
 Si2 Si 0.75000 0.74999 0.25008
 Si3 Si 0.74999 0.25008 0.75008
 Si4 Si 0.25000 0.75001 0.75008
 C5 C 0.05244 0.05289 0.01283
 H6 H 0.05317 0.05441 -0.01717
 C7 C 0.07428 0.07576 0.03407
 H8 H 0.09205 0.09489 0.02044
 C9 C 0.02808 0.02641 0.06739
 H10 H 0.00964 0.00756 0.08031
 C11 C 0.04946 0.04879 0.08965
 H12 H 0.04770 0.04683 0.11963
 N13 N 0.03028 0.02854 0.02969
 C14 C 0.01490 -0.05498 -0.05257
 H15 H -0.01512 -0.05645 -0.05324
 C16 C 0.03605 -0.07780 -0.07455
 H17 H 0.02234 -0.09686 -0.09235
 C18 C 0.06955 -0.02864 -0.02825
 H19 H 0.08254 -0.00985 -0.00979
 C20 C 0.09173 -0.05099 -0.04977
 H21 H 0.12171 -0.04906 -0.04809
 Zn22 Zn 0.00111 -0.00107 -0.00114
 N23 N 0.03184 -0.03072 -0.03037
 C24 C -0.02609 0.02666 -0.06950
 N25 N -0.02804 0.02871 -0.03178
 C26 C -0.05006 0.05305 -0.01473
 C27 C -0.07205 0.07595 -0.03576
 C28 C -0.04762 0.04909 -0.09157
 C29 C -0.01281 -0.05511 0.05011
 C30 C -0.03403 -0.07784 0.07212
 C31 C -0.08963 -0.05079 0.04744
 C32 C -0.06738 -0.02854 0.02589
 N33 N -0.02968 -0.03075 0.02797
 H34 H -0.00777 0.00780 -0.08258
 H35 H -0.05060 0.05449 0.01529
 H36 H -0.08973 0.09505 -0.02196
 H37 H -0.04610 0.04717 -0.12156
 H38 H 0.01719 -0.05668 0.05076
 H39 H -0.02039 -0.09695 0.08991
 H40 H -0.11961 -0.04873 0.04583
 H41 H -0.08032 -0.00968 0.00748
 C42 C 0.07481 -0.07568 -0.07321
 C43 C 0.07285 0.07358 0.07282
 C44 C -0.07278 -0.07553 0.07086
 C45 C -0.07090 0.07384 -0.07452
 C46 C 0.05265 0.55498 0.51499
 H47 H 0.05332 0.55645 0.48498
 C48 C 0.07463 0.57781 0.53614
 H49 H 0.09243 0.59686 0.52243
 C50 C 0.02833 0.52865 0.56964
 H51 H 0.00988 0.50986 0.58263
 C52 C 0.04985 0.55100 0.59182
 H53 H 0.04817 0.54908 0.62181
 N54 N 0.03045 0.53072 0.53193
 C55 C 0.01481 0.44694 0.45005
 H56 H -0.01520 0.44550 0.44950
 C57 C 0.03585 0.42404 0.42806
 H58 H 0.02205 0.40494 0.41038
 C59 C 0.06959 0.47334 0.47402
 H60 H 0.08267 0.49220 0.49234
 C61 C 0.09165 0.45091 0.45248
 H62 H 0.12165 0.45283 0.45401
 Zn63 Zn 0.00122 0.50106 0.50121
 N64 N 0.03187 0.47128 0.47207
 C65 C -0.02581 0.52853 0.43272
 N66 N -0.02789 0.53074 0.47042
 C67 C -0.05003 0.55510 0.48728
 C68 C -0.07204 0.57783 0.46606
 C69 C -0.04736 0.55077 0.41047
 C70 C -0.01275 0.44711 0.55254
 C71 C -0.03398 0.42425 0.57439
 C72 C -0.08957 0.45121 0.54956
 C73 C -0.06730 0.47359 0.52817
 N74 N -0.02960 0.47146 0.53038
 H75 H -0.00739 0.50967 0.41978
 H76 H -0.05068 0.55668 0.51729
 H77 H -0.08984 0.59694 0.47970
 H78 H -0.04575 0.54871 0.38049
 H79 H 0.01726 0.44560 0.55328
 H80 H -0.02035 0.40512 0.59216
 H81 H -0.11954 0.45316 0.54780
 H82 H -0.08022 0.49243 0.50973
 C83 C 0.07461 0.42616 0.42920
 C84 C 0.07329 0.57569 0.57490
 C85 C -0.07274 0.42642 0.57295
 C86 C -0.07078 0.57552 0.42731
 C87 C 0.55004 0.05305 0.51489
 H88 H 0.55059 0.05450 0.48487
 C89 C 0.57203 0.07596 0.53592
 H90 H 0.58971 0.09506 0.52212
 C91 C 0.52607 0.02666 0.56966
 H92 H 0.50776 0.00780 0.58274
 C93 C 0.54761 0.04909 0.59173
 H94 H 0.54609 0.04717 0.62172
 N95 N 0.52802 0.02871 0.53194
 C96 C 0.51281 -0.05511 0.45005
 H97 H 0.48280 -0.05669 0.44940
 C98 C 0.53403 -0.07785 0.42804
 H99 H 0.52039 -0.09695 0.41024
 C100 C 0.56737 -0.02854 0.47427
 H101 H 0.58031 -0.00967 0.49268
 C102 C 0.58962 -0.05079 0.45272
 H103 H 0.61960 -0.04872 0.45433
 Zn104 Zn 0.49888 -0.00107 0.50130
 N105 N 0.52967 -0.03075 0.47219
 C106 C 0.47191 0.02641 0.43277
 N107 N 0.46971 0.02854 0.47047
 C108 C 0.44755 0.05288 0.48732
 C109 C 0.42570 0.07575 0.46609
 C110 C 0.45053 0.04879 0.41051
 C111 C 0.48510 -0.05498 0.55272
 C112 C 0.46395 -0.07781 0.57470
 C113 C 0.40827 -0.05100 0.54992
 C114 C 0.43045 -0.02865 0.52841
 N115 N 0.46815 -0.03072 0.53053
 H116 H 0.49035 0.00756 0.41985
 H117 H 0.44682 0.05441 0.51733
 H118 H 0.40794 0.09489 0.47972
 H119 H 0.45228 0.04683 0.38053
 H120 H 0.51511 -0.05645 0.55340
 H121 H 0.47765 -0.09686 0.59251
 H122 H 0.37828 -0.04908 0.54825
 H123 H 0.41746 -0.00986 0.50995
 C124 C 0.57278 -0.07553 0.42930
 C125 C 0.57089 0.07384 0.57468
 C126 C 0.42519 -0.07568 0.57337
 C127 C 0.42714 0.07358 0.42734
 C128 C 0.55001 0.55510 0.01288
 H129 H 0.55066 0.55668 -0.01712
 C130 C 0.57203 0.57784 0.03410
 H131 H 0.58982 0.59694 0.02046
 C132 C 0.52580 0.52853 0.06745
 H133 H 0.50738 0.50967 0.08038
 C134 C 0.54734 0.55078 0.08970
 H135 H 0.54573 0.54872 0.11968
 N136 N 0.52787 0.53075 0.02975
 C137 C 0.51273 0.44711 -0.05238
 H138 H 0.48273 0.44559 -0.05311
 C139 C 0.53397 0.42425 -0.07423
 H140 H 0.52034 0.40511 -0.09199
 C141 C 0.56729 0.47359 -0.02801
 H142 H 0.58021 0.49243 -0.00957
 C143 C 0.58955 0.45121 -0.04939
 H144 H 0.61953 0.45316 -0.04763
 Zn145 Zn 0.49876 0.50107 -0.00105
 N146 N 0.52959 0.47146 -0.03021
 C147 C 0.47165 0.52865 -0.06948
 N148 N 0.46953 0.53072 -0.03177
 C149 C 0.44733 0.55498 -0.01482
 C150 C 0.42535 0.57781 -0.03597
 C151 C 0.45014 0.55100 -0.09165
 C152 C 0.48517 0.44695 0.05011
 C153 C 0.46414 0.42404 0.07211
 C154 C 0.40833 0.45091 0.04768
 C155 C 0.43040 0.47334 0.02615
 N156 N 0.46812 0.47128 0.02810
 H157 H 0.49011 0.50986 -0.08247
 H158 H 0.44666 0.55645 0.01519
 H159 H 0.40755 0.59686 -0.02227
 H160 H 0.45181 0.54908 -0.12164
 H161 H 0.51519 0.44550 0.05066
 H162 H 0.47794 0.40494 0.08978
 H163 H 0.37834 0.45283 0.04616
 H164 H 0.41732 0.49220 0.00783
 C165 C 0.57272 0.42642 -0.07278
 C166 C 0.57077 0.57553 0.07285
 C167 C 0.42538 0.42616 0.07096
 C168 C 0.42669 0.57569 -0.07473
 C169 C 0.13803 -0.14150 -0.18067
 C170 C 0.18106 -0.14172 -0.18110
 C171 C 0.18036 -0.18231 -0.17975
 C172 C 0.13768 -0.18244 -0.17968
 C173 C 0.13895 -0.14103 -0.13800
 C174 C 0.13824 -0.18162 -0.13664
 C175 C 0.18164 -0.14090 -0.13808
 C176 C 0.18129 -0.18184 -0.13708
 C177 C 0.20350 -0.20513 -0.20307
 C178 C 0.22262 -0.22374 -0.22234
 C179 C 0.11598 -0.11790 -0.11482
 C180 C 0.09717 -0.09873 -0.09582
 H181 H 0.11999 -0.12465 -0.19834
 H182 H 0.19894 -0.12558 -0.19965
 H183 H 0.11987 -0.19979 -0.19705
 H184 H 0.12037 -0.19776 -0.11810
 H185 H 0.19946 -0.12356 -0.12071
 H186 H 0.19934 -0.19870 -0.11943
 C187 C 0.13676 0.35990 0.32147
 C188 C 0.17979 0.35981 0.32048
 C189 C 0.17924 0.31923 0.32211
 C190 C 0.13656 0.31896 0.32274
 C191 C 0.13824 0.36063 0.36412
 C192 C 0.13769 0.32005 0.36576
 C193 C 0.18092 0.36089 0.36348
 C194 C 0.18073 0.31996 0.36476
 C195 C 0.20217 0.29634 0.29865
 C196 C 0.22116 0.27769 0.27930
 C197 C 0.11549 0.38383 0.38744
 C198 C 0.09683 0.40305 0.40653
 H199 H 0.11843 0.37659 0.30393
 H200 H 0.19736 0.37590 0.30159
 H201 H 0.11859 0.30146 0.30572
 H202 H 0.12012 0.30397 0.38465
 H203 H 0.19891 0.37839 0.38050
 H204 H 0.19907 0.30327 0.38228
 C205 C 0.63623 -0.14051 0.32144
 C206 C 0.67927 -0.14056 0.32100
 C207 C 0.67874 -0.18115 0.32209
 C208 C 0.63606 -0.18146 0.32217
 C209 C 0.63717 -0.14030 0.36412
 C210 C 0.63663 -0.18089 0.36521
 C211 C 0.67985 -0.14000 0.36403
 C212 C 0.67968 -0.18094 0.36476
 C213 C 0.70195 -0.20379 0.29863
 C214 C 0.72109 -0.22230 0.27928
 C215 C 0.61410 -0.11740 0.38745
 C216 C 0.59521 -0.09840 0.40657
 H217 H 0.61811 -0.12363 0.30389
 H218 H 0.69707 -0.12424 0.30255
 H219 H 0.61832 -0.19877 0.30468
 H220 H 0.61883 -0.19722 0.38365
 H221 H 0.69760 -0.12269 0.38150
 H222 H 0.69781 -0.19783 0.38229
 C223 C 0.63644 0.36024 -0.17969
 C224 C 0.67948 0.35999 -0.17990
 C225 C 0.67873 0.31941 -0.17842
 C226 C 0.63605 0.31930 -0.17856
 C227 C 0.63715 0.36084 -0.13701
 C228 C 0.63640 0.32025 -0.13552
 C229 C 0.67984 0.36093 -0.13688
 C230 C 0.67945 0.31999 -0.13575
 C231 C 0.70194 0.29651 -0.20159
 C232 C 0.72109 0.27785 -0.22077
 C233 C 0.61407 0.38405 -0.11404
 C234 C 0.59518 0.40330 -0.09520
 H235 H 0.61850 0.37705 -0.19750
 H236 H 0.69745 0.37606 -0.19841
 H237 H 0.61831 0.30192 -0.19597
 H238 H 0.61842 0.30418 -0.11702
 H239 H 0.69758 0.37831 -0.11948
 H240 H 0.69740 0.30318 -0.11795
 C241 C -0.13634 0.13936 -0.18084
 C242 C -0.17936 0.14019 -0.17998
 C243 C -0.17799 0.18077 -0.17915
 C244 C -0.13533 0.18030 -0.18037
 C245 C -0.13598 0.13937 -0.13816
 C246 C -0.13460 0.17995 -0.13733
 C247 C -0.17865 0.13985 -0.13695
 C248 C -0.17763 0.18079 -0.13647
 C249 C -0.20144 0.20366 -0.20209
 C250 C -0.22079 0.22232 -0.22108
 C251 C -0.11267 0.11617 -0.11540
 C252 C -0.09358 0.09694 -0.09675
 H253 H -0.11911 0.12206 -0.19883
 H254 H -0.19804 0.12410 -0.19777
 H255 H -0.11779 0.19719 -0.19849
 H256 H -0.11592 0.19604 -0.11953
 H257 H -0.19620 0.12296 -0.11884
 H258 H -0.19488 0.19809 -0.11849
 C259 C -0.13630 0.63976 0.32024
 C260 C -0.17932 0.64055 0.32106
 C261 C -0.17799 0.68114 0.32135
 C262 C -0.13533 0.68070 0.32017
 C263 C -0.13597 0.64028 0.36292
 C264 C -0.13463 0.68087 0.36321
 C265 C -0.17863 0.64073 0.36409
 C266 C -0.17767 0.68168 0.36402
 C267 C -0.20145 0.70378 0.29814
 C268 C -0.22079 0.72229 0.27899
 C269 C -0.11263 0.61738 0.38599
 C270 C -0.09351 0.59839 0.40487
 H271 H -0.11903 0.62226 0.30249
 H272 H -0.19796 0.62423 0.30347
 H273 H -0.11780 0.69739 0.30184
 H274 H -0.11599 0.69719 0.38081
 H275 H -0.19618 0.62404 0.38241
 H276 H -0.19494 0.69917 0.38176
 C277 C 0.36274 0.13879 0.32023
 C278 C 0.31972 0.14002 0.32089
 C279 C 0.32150 0.18059 0.32134
 C280 C 0.36416 0.17973 0.32032
 C281 C 0.36291 0.13917 0.36291
 C282 C 0.36470 0.17974 0.36337
 C283 C 0.32025 0.14004 0.36392
 C284 C 0.32167 0.18097 0.36402
 C285 C 0.29833 0.20350 0.29813
 C286 C 0.27915 0.22216 0.27898
 C287 C 0.38589 0.11595 0.38599
 C288 C 0.40472 0.09670 0.40488
 H289 H 0.37988 0.12119 0.30248
 H290 H 0.30097 0.12395 0.30316
 H291 H 0.38195 0.19631 0.30212
 H292 H 0.38345 0.19581 0.38110
 H293 H 0.30244 0.12347 0.38211
 H294 H 0.30452 0.19858 0.38175
 C295 C 0.36228 0.64133 -0.18156
 C296 C 0.31924 0.64174 -0.18143
 C297 C 0.32017 0.68233 -0.18028
 C298 C 0.36285 0.68228 -0.18077
 C299 C 0.36191 0.64105 -0.13887
 C300 C 0.36284 0.68164 -0.13772
 C301 C 0.31923 0.64111 -0.13840
 C302 C 0.31979 0.68206 -0.13760
 C303 C 0.29685 0.70516 -0.20342
 C304 C 0.27758 0.72377 -0.22255
 C305 C 0.38509 0.61791 -0.11590
 C306 C 0.40409 0.59874 -0.09709
 H307 H 0.38001 0.62433 -0.19938
 H308 H 0.30105 0.62560 -0.19966
 H309 H 0.38051 0.69946 -0.19846
 H310 H 0.38103 0.69778 -0.11949
 H311 H 0.30155 0.62393 -0.12072
 H312 H 0.30206 0.69907 -0.11980
 C313 C -0.17984 -0.14068 0.13541
 C314 C -0.17895 -0.18163 0.13539
 C315 C -0.17873 -0.18116 0.17807
 C316 C -0.17999 -0.14057 0.17844
 C317 C -0.13717 -0.14030 0.13604
 C318 C -0.13696 -0.13984 0.17872
 C319 C -0.13590 -0.18089 0.13566
 C320 C -0.13606 -0.18078 0.17871
 C321 C -0.20194 -0.20379 0.20153
 C322 C -0.22109 -0.22231 0.22087
 C323 C -0.11410 -0.11740 0.11271
 C324 C -0.09522 -0.09840 0.09359
 H325 H -0.19759 -0.12393 0.11734
 H326 H -0.19648 -0.19907 0.11785
 H327 H -0.19838 -0.12425 0.19630
 H328 H -0.11943 -0.12240 0.19628
 H329 H -0.11751 -0.19721 0.11781
 H330 H -0.11832 -0.19753 0.19679
 C331 C -0.17980 0.35963 0.63564
 C332 C -0.17804 0.31870 0.63591
 C333 C -0.17874 0.31941 0.67858
 C334 C -0.18086 0.35997 0.67867
 C335 C -0.13716 0.36084 0.63718
 C336 C -0.13787 0.36153 0.67985
 C337 C -0.13503 0.32027 0.63709
 C338 C -0.13610 0.32061 0.68013
 C339 C -0.20195 0.29651 0.70175
 C340 C -0.22110 0.27784 0.72094
 C341 C -0.11409 0.38405 0.61421
 C342 C -0.09519 0.40330 0.59537
 H343 H -0.19751 0.37593 0.61710
 H344 H -0.19482 0.30083 0.61811
 H345 H -0.19997 0.37603 0.69602
 H346 H -0.12110 0.37940 0.69767
 H347 H -0.11592 0.30421 0.61973
 H348 H -0.11841 0.30430 0.69868
 C349 C 0.31836 -0.14095 0.63819
 C350 C 0.31875 -0.18189 0.63724
 C351 C 0.31964 -0.18231 0.67991
 C352 C 0.31889 -0.14172 0.68122
 C353 C 0.36105 -0.14104 0.63816
 C354 C 0.36193 -0.14146 0.68083
 C355 C 0.36180 -0.18163 0.63684
 C356 C 0.36232 -0.18241 0.67988
 C357 C 0.29650 -0.20513 0.70323
 C358 C 0.27738 -0.22374 0.72250
 C359 C 0.38402 -0.11791 0.61497
 C360 C 0.40283 -0.09873 0.59597
 H361 H 0.30054 -0.12364 0.62079
 H362 H 0.30073 -0.19878 0.61959
 H363 H 0.30099 -0.12558 0.69973
 H364 H 0.37994 -0.12458 0.69850
 H365 H 0.37971 -0.19777 0.61833
 H366 H 0.38013 -0.19972 0.69729
 C367 C 0.36231 0.36076 0.17873
 C368 C 0.31928 0.35981 0.17879
 C369 C 0.32076 0.31923 0.17806
 C370 C 0.36344 0.31982 0.17836
 C371 C 0.36175 0.36063 0.13604
 C372 C 0.36323 0.32005 0.13530
 C373 C 0.31907 0.36004 0.13576
 C374 C 0.32019 0.31910 0.13538
 C375 C 0.29783 0.29634 0.20152
 C376 C 0.27884 0.27769 0.22087
 C377 C 0.38450 0.38383 0.11273
 C378 C 0.40316 0.40305 0.09364
 H379 H 0.37988 0.37814 0.19629
 H380 H 0.30096 0.37590 0.19694
 H381 H 0.38141 0.30301 0.19614
 H382 H 0.38156 0.30396 0.11715
 H383 H 0.30108 0.37684 0.11798
 H384 H 0.30261 0.30171 0.11783
 C385 C 0.13605 0.17976 0.13603
 C386 C 0.13581 0.18045 0.17908
 C387 C 0.17849 0.18060 0.17882
 C388 C 0.17910 0.18027 0.13615
 C389 C 0.13708 0.13917 0.13725
 C390 C 0.17976 0.13933 0.13700
 C391 C 0.13647 0.13951 0.17993
 C392 C 0.17951 0.14002 0.18003
 C393 C 0.20166 0.20350 0.20203
 C394 C 0.22085 0.22216 0.22118
 C395 C 0.11410 0.11595 0.11417
 C396 C 0.09527 0.09671 0.09528
 H397 H 0.11792 0.19583 0.11767
 H398 H 0.11800 0.19762 0.19664
 H399 H 0.19689 0.19730 0.11841
 H400 H 0.19758 0.12216 0.11945
 H401 H 0.11869 0.12248 0.19767
 H402 H 0.19764 0.12394 0.19839
 C403 C 0.13777 0.64128 0.68172
 C404 C 0.18080 0.64175 0.68153
 C405 C 0.17982 0.68233 0.68044
 C406 C 0.13715 0.68223 0.68099
 C407 C 0.13808 0.64105 0.63904
 C408 C 0.13709 0.68164 0.63794
 C409 C 0.18076 0.64117 0.63850
 C410 C 0.18014 0.68211 0.63776
 C411 C 0.20315 0.70516 0.70358
 C412 C 0.22242 0.72377 0.72270
 C413 C 0.11489 0.61792 0.61607
 C414 C 0.09589 0.59874 0.59726
 H415 H 0.12009 0.62424 0.69954
 H416 H 0.19904 0.62560 0.69972
 H417 H 0.11949 0.69938 0.69872
 H418 H 0.11885 0.69779 0.61975
 H419 H 0.19844 0.62403 0.62077
 H420 H 0.19783 0.69916 0.61995
 C421 C 0.63535 0.17995 0.63671
 C422 C 0.63530 0.18102 0.67974
 C423 C 0.67798 0.18077 0.67931
 C424 C 0.67840 0.18007 0.63664
 C425 C 0.63596 0.13937 0.63832
 C426 C 0.67865 0.13913 0.63789
 C427 C 0.63555 0.14008 0.68099
 C428 C 0.67858 0.14019 0.68091
 C429 C 0.70143 0.20366 0.70225
 C430 C 0.72078 0.22232 0.72124
 C431 C 0.61265 0.11617 0.61556
 C432 C 0.59356 0.09695 0.59690
 H433 H 0.61731 0.19604 0.61827
 H434 H 0.61775 0.19851 0.69722
 H435 H 0.69630 0.19677 0.61867
 H436 H 0.69621 0.12164 0.62043
 H437 H 0.61766 0.12339 0.69898
 H438 H 0.69663 0.12411 0.69935
 C439 C 0.63535 0.68088 0.13621
 C440 C 0.63531 0.68140 0.17926
 C441 C 0.67799 0.68114 0.17881
 C442 C 0.67840 0.68099 0.13613
 C443 C 0.63596 0.64029 0.13724
 C444 C 0.67864 0.64004 0.13680
 C445 C 0.63555 0.64045 0.17992
 C446 C 0.67859 0.64055 0.17984
 C447 C 0.70145 0.70378 0.20202
 C448 C 0.72079 0.72229 0.22117
 C449 C 0.61262 0.61739 0.11417
 C450 C 0.59350 0.59840 0.09529
 H451 H 0.61731 0.69721 0.11801
 H452 H 0.61776 0.69866 0.19698
 H453 H 0.69629 0.69792 0.11840
 H454 H 0.69620 0.62278 0.11908
 H455 H 0.61767 0.62352 0.19767
 H456 H 0.69664 0.62423 0.19804
   
