data_POSCAR
  _audit_creation_date              2014-09-24
  _audit_creation_method            'ToBaCCo'
  _symmetry_space_group_name_H-M    'P1'
  _symmetry_Int_Tables_number       1
  _symmetry_cell_setting            triclinic
  loop_
  _symmetry_equiv_pos_as_xyz
 x,y,z
_cell_length_a 23.0859
_cell_length_b 23.3833
_cell_length_c 22.4868
_cell_angle_alpha 86.239900
_cell_angle_beta 75.278400
_cell_angle_gamma 110.380300
loop_
  _atom_site_label
  _atom_site_type_symbol
  _atom_site_fract_x
  _atom_site_fract_y
  _atom_site_fract_z
C1 C 0.13246 0.21359 0.23867
 C2 C 0.08269 0.23336 0.26715
 C3 C 0.04189 0.20593 0.32779
 C4 C 0.04977 0.15625 0.35906
 C5 C 0.09936 0.13624 0.33128
 C6 C 0.14077 0.16525 0.27151
 H7 H 0.07603 0.27086 0.24271
 H8 H 0.01930 0.13430 0.40585
 H9 H 0.17957 0.15012 0.25078
 C10 C 0.74755 -0.30130 0.20886
 C11 C 0.75068 -0.24252 0.22220
 C12 C 0.77648 -0.21808 0.26877
 C13 C 0.80043 -0.25182 0.30252
 C14 C 0.80149 -0.30936 0.28825
 C15 C 0.77505 -0.33372 0.24087
 H16 H 0.73106 -0.21583 0.19774
 H17 H 0.82058 -0.23119 0.33799
 H18 H 0.77430 -0.37847 0.23047
 C19 C 0.71085 0.27718 0.76727
 C20 C 0.76900 0.32263 0.72937
 C21 C 0.80203 0.31285 0.67160
 C22 C 0.77543 0.25583 0.65224
 C23 C 0.71781 0.20915 0.69060
 C24 C 0.68514 0.22093 0.74735
 H25 H 0.78810 0.36648 0.74464
 H26 H 0.80051 0.24640 0.60874
 H27 H 0.64018 0.18622 0.77689
 C28 C 0.45618 -0.15865 0.76201
 C29 C 0.46486 -0.11208 0.71394
 C30 C 0.42271 -0.12275 0.67700
 C31 C 0.37230 -0.18079 0.68787
 C32 C 0.36150 -0.22732 0.73684
 C33 C 0.40463 -0.21595 0.77307
 H34 H 0.50330 -0.06730 0.70623
 H35 H 0.33937 -0.18859 0.65971
 H36 H 0.39813 -0.25114 0.81058
 C37 C 0.88222 -0.18549 0.72776
 C38 C 0.87315 -0.14543 0.68544
 C39 C 0.91198 -0.12890 0.62356
 C40 C 0.95771 -0.15546 0.60270
 C41 C 0.96417 -0.19990 0.64354
 C42 C 0.92732 -0.21295 0.70694
 H43 H 0.83811 -0.12443 0.70148
 H44 H 0.98599 -0.14260 0.55411
 H45 H 0.93270 -0.24508 0.74012
 C46 C 0.30150 0.31343 0.74417
 C47 C 0.25914 0.34388 0.74149
 C48 C 0.20402 0.31555 0.72271
 C49 C 0.19290 0.25809 0.70324
 C50 C 0.23682 0.22895 0.70184
 C51 C 0.29071 0.25625 0.72313
 H52 H 0.26565 0.38694 0.75930
 H53 H 0.14975 0.23582 0.68947
 H54 H 0.32255 0.23195 0.72569
 C55 C 0.31028 -0.30531 0.24386
 C56 C 0.33386 -0.24549 0.25855
 C57 C 0.29824 -0.22831 0.31007
 C58 C 0.23939 -0.27274 0.34879
 C59 C 0.21490 -0.33260 0.33502
 C60 C 0.25013 -0.34820 0.28244
 H61 H 0.37965 -0.21205 0.22907
 H62 H 0.21130 -0.25999 0.38823
 H63 H 0.23013 -0.39448 0.27267
 C64 C 0.51069 0.18184 0.27090
 C65 C 0.56075 0.23907 0.26588
 C66 C 0.60532 0.24487 0.29991
 C67 C 0.59831 0.19319 0.34023
 C68 C 0.54950 0.13544 0.34517
 C69 C 0.50527 0.13015 0.31112
 H70 H 0.56575 0.27864 0.23433
 H71 H 0.63336 0.19719 0.36552
 H72 H 0.46913 0.08519 0.31358
 O73 O 0.17839 -0.01924 0.48335
 O74 O 0.29228 -0.04729 0.55821
 O75 O 0.21061 0.00756 0.58449
 O76 O 0.25534 -0.07899 0.46236
 O77 O 0.33330 0.00727 0.40622
 O78 O 0.28916 0.09435 0.53058
 O79 O 0.37061 0.03921 0.50306
 O80 O 0.25541 0.06824 0.42890
 Cu81 Cu 0.22633 -0.04277 0.52778
 Cu82 Cu 0.31962 0.06114 0.46138
 C83 C 0.19757 0.02928 0.44313
 C84 C 0.35067 -0.00950 0.54316
 C85 C 0.24232 0.06511 0.57914
 C86 C 0.30237 -0.05094 0.41390
 O87 O 0.67124 -0.01190 0.57037
 O88 O 0.71003 -0.08990 0.43770
 O89 O 0.75176 -0.06605 0.53343
 O90 O 0.62477 -0.03965 0.47735
 O91 O 0.69700 0.05125 0.42527
 O92 O 0.82457 0.02208 0.47558
 O93 O 0.77893 0.00039 0.38118
 O94 O 0.74579 0.07698 0.51573
 Cu95 Cu 0.68201 -0.06108 0.51025
 Cu96 Cu 0.76872 0.04649 0.44365
 C97 C 0.70242 0.04577 0.56564
 C98 C 0.75103 -0.05777 0.38680
 C99 C 0.80958 -0.02688 0.51377
 C100 C 0.63955 0.01140 0.44259
 O101 O 0.32527 0.22303 0.03576
 O102 O 0.48699 0.23329 -0.05825
 O103 O 0.41300 0.18811 0.05771
 O104 O 0.39065 0.25369 -0.08278
 O105 O 0.43752 0.34832 -0.06539
 O106 O 0.45486 0.28133 0.08058
 O107 O 0.52974 0.32535 -0.03337
 O108 O 0.37021 0.31899 0.05102
 Cu109 Cu 0.39988 0.21517 -0.01413
 Cu110 Cu 0.45272 0.32776 0.00999
 C111 C 0.32087 0.27009 0.05896
 C112 C 0.53599 0.28156 -0.06107
 C113 C 0.43565 0.22268 0.09404
 C114 C 0.40959 0.31175 -0.09805
 O115 O 0.61069 0.66638 0.02081
 O116 O 0.55144 0.74451 -0.08592
 O117 O 0.65917 0.72941 -0.09092
 O118 O 0.49962 0.67601 0.02609
 O119 O 0.52813 0.76283 0.06424
 O120 O 0.69240 0.81123 -0.04607
 O121 O 0.58753 0.83068 -0.04843
 O122 O 0.63538 0.75083 0.06348
 Cu123 Cu 0.57636 0.69548 -0.03647
 Cu124 Cu 0.61324 0.79781 0.01202
 C125 C 0.63413 0.69662 0.05984
 C126 C 0.56132 0.80156 -0.08627
 C127 C 0.70371 0.77786 -0.08646
 C128 C 0.48660 0.70980 0.06522
 O129 O -0.04835 0.38432 0.31373
 O130 O -0.08926 0.52374 0.30021
 O131 O 0.00633 0.50092 0.32212
 O132 O -0.13621 0.41394 0.27742
 O133 O -0.19594 0.38756 0.37612
 O134 O -0.05043 0.47725 0.42171
 O135 O -0.14548 0.49760 0.40019
 O136 O -0.10718 0.35936 0.41262
 Cu137 Cu -0.06092 0.45762 0.29351
 Cu138 Cu -0.13039 0.42673 0.41257
 C139 C -0.07084 0.34834 0.36616
 C140 C -0.12407 0.53420 0.34870
 C141 C 0.00228 0.50640 0.37848
 C142 C -0.19069 0.38837 0.31824
 O143 O 0.18220 0.61555 0.65879
 O144 O 0.05524 0.51101 0.60046
 O145 O 0.10001 0.63086 0.60334
 O146 O 0.13651 0.49806 0.65528
 O147 O 0.05899 0.47772 0.74426
 O148 O 0.03327 0.61873 0.69720
 O149 O -0.01667 0.50017 0.69096
 O150 O 0.11195 0.59174 0.75278
 Cu151 Cu 0.12573 0.56633 0.61991
 Cu152 Cu 0.03964 0.54698 0.73035
 C153 C 0.16911 0.61851 0.71658
 C154 C -0.00218 0.48646 0.63696
 C155 C 0.06097 0.64783 0.64167
 C156 C 0.10233 0.46414 0.70778
 C157 C 0.17836 0.24506 0.17637
 C158 C 0.18600 0.30184 0.14603
 C159 C 0.23879 0.31700 0.09530
 C160 C 0.25879 0.26814 0.09771
 O161 O 0.22263 0.22462 0.14674
 H162 H 0.15927 0.33089 0.16063
 H163 H 0.26193 0.35985 0.06216
 C164 C 0.71557 0.67465 0.16515
 C165 C 0.70561 0.61790 0.14552
 C166 C 0.67158 0.61649 0.10319
 C167 C 0.66331 0.67210 0.10072
 O168 O 0.68973 0.70675 0.13777
 H169 H 0.72119 0.58195 0.15959
 H170 H 0.65575 0.58001 0.07686
 C171 C 0.67651 0.28869 -0.17259
 C172 C 0.70575 0.33026 -0.13813
 C173 C 0.65662 0.33064 -0.08996
 C174 C 0.60108 0.28895 -0.09809
 O175 O 0.61284 0.26303 -0.14794
 H176 H 0.75663 0.35799 -0.14751
 H177 H 0.66050 0.35931 -0.05414
 C178 C 0.49851 0.85245 -0.19693
 C179 C 0.53258 0.90983 -0.18507
 C180 C 0.56104 0.89827 -0.14202
 C181 C 0.54246 0.83482 -0.13089
 O182 O 0.50446 0.80686 -0.16394
 H183 H 0.53467 0.95459 -0.20365
 H184 H 0.59117 0.93198 -0.12072
 C185 C -0.00578 0.23229 0.35849
 C186 C -0.04783 0.21102 0.41836
 C187 C -0.07900 0.25097 0.42844
 C188 C -0.05386 0.29381 0.37427
 O189 O -0.00953 0.28270 0.33181
 H190 H -0.05493 0.17172 0.45145
 H191 H -0.11511 0.24954 0.47064
 C192 C 0.30640 0.71763 0.75026
 C193 C 0.28098 0.67450 0.80474
 C194 C 0.22502 0.63225 0.79976
 C195 C 0.22100 0.65174 0.74241
 O196 O 0.26991 0.70322 0.71229
 H197 H 0.29899 0.67450 0.84467
 H198 H 0.19142 0.59172 0.83357
 C199 C -0.17225 0.65761 0.32092
 C200 C -0.15627 0.67078 0.37533
 C201 C -0.13567 0.62616 0.39218
 C202 C -0.13912 0.58983 0.34661
 O203 O -0.16150 0.60820 0.30349
 H204 H -0.16110 0.70676 0.40165
 H205 H -0.12037 0.62039 0.43310
 C206 C -0.13801 0.35905 0.63719
 C207 C -0.09936 0.35903 0.57882
 C208 C -0.04369 0.41032 0.56790
 C209 C -0.05250 0.43762 0.62021
 O210 O -0.10936 0.40711 0.66150
 H211 H -0.10907 0.32527 0.54837
 H212 H -0.00072 0.42410 0.52831
 C213 C 0.10931 0.08649 0.36581
 C214 C 0.06212 0.02866 0.39096
 C215 C 0.08981 -0.00140 0.42180
 C216 C 0.15165 0.04062 0.41360
 O217 O 0.16393 0.09392 0.37904
 H218 H 0.01333 0.01088 0.38748
 H219 H 0.06726 -0.04795 0.44819
 C220 C 0.69396 0.14760 0.67200
 C221 C 0.64654 0.09436 0.71023
 C222 C 0.64314 0.04867 0.67512
 C223 C 0.68836 0.07722 0.61836
 O224 O 0.71935 0.13693 0.61625
 H225 H 0.61881 0.08854 0.75838
 H226 H 0.61248 0.00020 0.68937
 C227 C 0.42616 -0.07281 0.63064
 C228 C 0.47832 -0.01777 0.60438
 C229 C 0.45759 0.01426 0.56687
 C230 C 0.39459 -0.02366 0.57325
 O231 O 0.37568 -0.07613 0.61159
 H232 H 0.52564 -0.00265 0.61146
 H233 H 0.48490 0.05968 0.53858
 C234 C 0.77721 -0.15749 0.28311
 C235 C 0.79670 -0.10538 0.23902
 C236 C 0.79050 -0.06007 0.27229
 C237 C 0.76662 -0.08849 0.33390
 O238 O 0.75881 -0.14746 0.34071
 H239 H 0.81403 -0.10095 0.18882
 H240 H 0.80119 -0.01236 0.25398
 C241 C 0.84565 0.80420 -0.20611
 C242 C 0.87371 0.81771 -0.15885
 C243 C 0.82396 0.81148 -0.10742
 C244 C 0.76950 0.79391 -0.12731
 O245 O 0.78242 0.78965 -0.18713
 H246 H 0.92456 0.83272 -0.16222
 H247 H 0.82677 0.81812 -0.06090
 C248 C 0.35009 0.33640 -0.22211
 C249 C 0.38205 0.39792 -0.21954
 C250 C 0.41214 0.39747 -0.17455
 C251 C 0.39600 0.33577 -0.15285
 O252 O 0.35877 0.29877 -0.18179
 H253 H 0.38110 0.43815 -0.24533
 H254 H 0.43972 0.43711 -0.15751
 C255 C 0.34650 0.67908 0.19123
 C256 C 0.32700 0.62336 0.16950
 C257 C 0.37654 0.62828 0.11877
 C258 C 0.42293 0.68624 0.11280
 O259 O 0.40502 0.71725 0.15638
 H260 H 0.28234 0.58339 0.18756
 H261 H 0.37891 0.59339 0.08993
 C262 C 0.46865 0.17546 0.22953
 C263 C 0.41526 0.12311 0.23281
 C264 C 0.39581 0.13459 0.18264
 C265 C 0.43784 0.19328 0.15277
 O266 O 0.48189 0.21848 0.18111
 H267 H 0.39324 0.08101 0.26682
 H268 H 0.35586 0.10371 0.16912
 C269 C 0.00459 0.76766 0.62196
 C270 C 0.04379 0.77651 0.56133
 C271 C 0.07132 0.73360 0.56115
 C272 C 0.04695 0.70128 0.62118
 O273 O 0.00677 0.72176 0.65817
 H274 H 0.05185 0.80968 0.52134
 H275 H 0.10444 0.72617 0.52167
 C276 C -0.33655 0.30209 0.28931
 C277 C -0.31013 0.34657 0.23611
 C278 C -0.25236 0.38512 0.24084
 C279 C -0.24788 0.36192 0.29670
 O280 O -0.29875 0.31164 0.32636
 H281 H -0.32867 0.34897 0.19681
 H282 H -0.21695 0.42481 0.20699
 C283 C 0.15477 0.34292 0.72980
 C284 C 0.09100 0.31234 0.76473
 C285 C 0.06309 0.35474 0.76262
 C286 C 0.11179 0.40752 0.72577
 O287 O 0.16766 0.40071 0.70593
 H288 H 0.06814 0.26518 0.78962
 H289 H 0.01303 0.34779 0.78424
 C290 C 0.15041 0.62167 0.37205
 C291 C 0.11984 0.61847 0.43431
 C292 C 0.06042 0.57160 0.44706
 C293 C 0.05925 0.55012 0.39153
 O294 O 0.11364 0.58020 0.34636
 H295 H 0.13819 0.64732 0.46624
 H296 H 0.02176 0.55684 0.49061
 C297 C 0.90399 -0.08385 0.58103
 C298 C 0.95354 -0.03127 0.54497
 C299 C 0.92458 -0.00184 0.51510
 C300 C 0.85971 -0.03904 0.53513
 O301 O 0.84695 -0.08851 0.57565
 H302 H 1.00421 -0.01564 0.54238
 H303 H 0.94771 0.04152 0.48286
 C304 C 0.32029 -0.16383 0.32296
 C305 C 0.37286 -0.11378 0.28528
 C306 C 0.37321 -0.06414 0.31407
 C307 C 0.32104 -0.08725 0.36703
 O308 O 0.28898 -0.14745 0.37256
 H309 H 0.40678 -0.11272 0.24169
 H310 H 0.40747 -0.01694 0.29834
 C311 C 0.55138 0.08072 0.38023
 C312 C 0.50259 0.02263 0.40052
 C313 C 0.52837 -0.01258 0.42805
 C314 C 0.59081 0.02674 0.42185
 O315 O 0.60456 0.08281 0.39319
 H316 H 0.45425 0.00761 0.39609
 H317 H 0.50477 -0.06083 0.44959
 C318 C 0.22227 0.16746 0.68337
 C319 C 0.16748 0.11664 0.71459
 C320 C 0.16871 0.07108 0.68020
 C321 C 0.22373 0.09776 0.63000
 O322 O 0.25657 0.15645 0.63174
 H323 H 0.13057 0.11370 0.75680
 H324 H 0.13296 0.02437 0.68971
   
