data_POSCAR
  _audit_creation_date              2014-09-24
  _audit_creation_method            'ToBaCCo'
  _symmetry_space_group_name_H-M    'P1'
  _symmetry_Int_Tables_number       1
  _symmetry_cell_setting            triclinic
  loop_
  _symmetry_equiv_pos_as_xyz
 x,y,z
_cell_length_a 40.2306
_cell_length_b 38.6793
_cell_length_c 44.5121
_cell_angle_alpha 90.925500
_cell_angle_beta 90.227700
_cell_angle_gamma 89.202400
loop_
  _atom_site_label
  _atom_site_type_symbol
  _atom_site_fract_x
  _atom_site_fract_y
  _atom_site_fract_z
C1 C 1.21633 0.28945 0.30425
 H2 H 1.22219 0.26246 0.30791
 C3 C 1.19504 0.30729 0.32390
 H4 H 1.18495 0.29397 0.34296
 C5 C 1.22234 0.33946 0.27481
 H6 H 1.23285 0.35188 0.25557
 C7 C 1.20129 0.35838 0.29404
 H8 H 1.19559 0.38516 0.28920
 N9 N 1.22868 0.30537 0.27975
 C10 C 1.23610 0.22858 0.20759
 H11 H 1.26125 0.23256 0.20000
 C12 C 1.21574 0.20508 0.19235
 H13 H 1.22532 0.19158 0.17267
 C14 C 1.19287 0.24240 0.24187
 H15 H 1.18378 0.25706 0.26100
 C16 C 1.17186 0.21891 0.22759
 H17 H 1.14711 0.21555 0.23642
 Zn18 Zn 1.25341 0.27767 0.25204
 N19 N 1.22447 0.24658 0.23194
 C20 C 1.28743 0.21722 0.27085
 N21 N 1.28587 0.25218 0.27378
 C22 C 1.30628 0.26921 0.29311
 C23 C 1.32949 0.25103 0.31044
 C24 C 1.31032 0.19797 0.28751
 C25 C 1.25403 0.32236 0.20273
 C26 C 1.26807 0.34260 0.18047
 C27 C 1.32251 0.32736 0.19957
 C28 C 1.30745 0.30743 0.22142
 N29 N 1.27376 0.30552 0.22279
 H30 H 1.27044 0.20395 0.25597
 H31 H 1.30452 0.29709 0.29509
 H32 H 1.34584 0.26631 0.32442
 H33 H 1.30891 0.17021 0.28509
 H34 H 1.22731 0.32004 0.20404
 H35 H 1.25192 0.35614 0.16496
 H36 H 1.34938 0.32807 0.19864
 H37 H 1.32277 0.29328 0.23709
 C38 C 1.18308 0.19996 0.20233
 C39 C 1.18676 0.34204 0.31858
 C40 C 1.30279 0.34536 0.17872
 C41 C 1.33207 0.21444 0.30822
 C42 C 0.69498 -0.26555 0.28271
 H43 H 0.70010 -0.29282 0.28524
 C44 C 0.67105 -0.24929 0.30100
 H45 H 0.65815 -0.26441 0.31742
 C46 C 0.70764 -0.21232 0.26024
 H47 H 0.72234 -0.19756 0.24502
 C48 C 0.68347 -0.19526 0.27746
 H49 H 0.67949 -0.16783 0.27430
 N50 N 0.71335 -0.24681 0.26334
 C51 C 0.73613 -0.29897 0.18458
 H52 H 0.74853 -0.27700 0.17547
 C53 C 0.72219 -0.32326 0.16490
 H54 H 0.72309 -0.31866 0.14100
 C55 C 0.71923 -0.33106 0.22653
 H56 H 0.71851 -0.33420 0.25058
 C57 C 0.70547 -0.35630 0.20766
 H58 H 0.69420 -0.37862 0.21759
 Zn59 Zn 0.74943 -0.26828 0.24212
 N60 N 0.73339 -0.30256 0.21483
 C61 C 0.80228 -0.31167 0.25847
 N62 N 0.77824 -0.29015 0.26971
 C63 C 0.77585 -0.28334 0.29969
 C64 C 0.79799 -0.29884 0.31973
 C65 C 0.82524 -0.32734 0.27766
 C66 C 0.76006 -0.21552 0.19916
 C67 C 0.77847 -0.19062 0.18439
 C68 C 0.82515 -0.20396 0.21665
 C69 C 0.80592 -0.22852 0.23076
 N70 N 0.77409 -0.23421 0.22169
 H71 H 0.80389 -0.31618 0.23446
 H72 H 0.75702 -0.26558 0.30812
 H73 H 0.79509 -0.29366 0.34355
 H74 H 0.84459 -0.34379 0.26812
 H75 H 0.73452 -0.21995 0.19264
 H76 H 0.76713 -0.17656 0.16608
 H77 H 0.85036 -0.19978 0.22436
 H78 H 0.81652 -0.24282 0.24916
 C79 C 0.70593 -0.35210 0.17635
 C80 C 0.66552 -0.21344 0.29898
 C81 C 0.81156 -0.18480 0.19300
 C82 C 0.82319 -0.32116 0.30882
 C83 C 0.72727 0.25481 -0.20198
 H84 H 0.74805 0.24163 -0.19161
 C85 C 0.70239 0.26940 -0.18384
 H86 H 0.70484 0.26787 -0.15966
 C87 C 0.69908 0.27311 -0.24587
 H88 H 0.69781 0.27406 -0.27013
 C89 C 0.67361 0.28814 -0.22853
 H90 H 0.65282 0.30064 -0.23966
 N91 N 0.72541 0.25712 -0.23242
 C92 C 0.74387 0.20764 -0.31447
 H93 H 0.76091 0.22655 -0.32282
 C94 C 0.72699 0.18606 -0.33473
 H95 H 0.73092 0.18907 -0.35858
 C96 C 0.71667 0.18223 -0.27339
 H97 H 0.71249 0.18123 -0.24942
 C98 C 0.69971 0.15987 -0.29274
 H99 H 0.68296 0.14133 -0.28327
 Zn100 Zn 0.75910 0.23577 -0.25658
 N101 N 0.73832 0.20544 -0.28443
 C102 C 0.78789 0.17572 -0.23010
 N103 N 0.78877 0.21078 -0.23162
 C104 C 0.81053 0.22937 -0.21468
 C105 C 0.83175 0.21282 -0.19447
 C106 C 0.80825 0.15816 -0.20979
 C107 C 0.77390 0.30272 -0.27849
 C108 C 0.79312 0.32698 -0.29325
 C109 C 0.83372 0.28204 -0.30384
 C110 C 0.81337 0.25866 -0.28933
 N111 N 0.78410 0.26922 -0.27705
 H112 H 0.77087 0.16125 -0.24402
 H113 H 0.81099 0.25722 -0.21657
 H114 H 0.84891 0.22823 -0.18133
 H115 H 0.80589 0.13044 -0.20801
 H116 H 0.75059 0.31075 -0.26846
 H117 H 0.78240 0.35258 -0.29481
 H118 H 0.85729 0.27182 -0.31156
 H119 H 0.82127 0.23193 -0.28733
 C120 C 0.70423 0.16199 -0.32396
 C121 C 0.67509 0.28644 -0.19702
 C122 C 0.82403 0.31734 -0.30654
 C123 C 0.83029 0.17675 -0.19128
 C124 C 1.21318 -0.21560 -0.20233
 H125 H 1.21631 -0.24322 -0.20080
 C126 C 1.19140 -0.19840 -0.18273
 H127 H 1.17781 -0.21314 -0.16648
 C128 C 1.22848 -0.16261 -0.22389
 H129 H 1.24339 -0.14855 -0.23950
 C130 C 1.20703 -0.14433 -0.20462
 H131 H 1.20514 -0.11646 -0.20618
 N132 N 1.23065 -0.19775 -0.22291
 C133 C 1.22931 -0.25267 -0.30237
 H134 H 1.24234 -0.23291 -0.31413
 C135 C 1.20828 -0.27446 -0.31855
 H136 H 1.20531 -0.27088 -0.34250
 C137 C 1.21828 -0.28241 -0.25754
 H138 H 1.22286 -0.28604 -0.23390
 C139 C 1.19699 -0.30492 -0.27291
 H140 H 1.18453 -0.32492 -0.26069
 Zn141 Zn 1.25859 -0.22294 -0.25014
 N142 N 1.23295 -0.25599 -0.27215
 C143 C 1.30734 -0.27448 -0.24105
 N144 N 1.29172 -0.24665 -0.22816
 C145 C 1.29867 -0.23637 -0.19949
 C146 C 1.32166 -0.25490 -0.18231
 C147 C 1.33040 -0.29387 -0.22462
 C148 C 1.25846 -0.17159 -0.29449
 C149 C 1.27212 -0.14968 -0.31559
 C150 C 1.32686 -0.16891 -0.30010
 C151 C 1.31212 -0.19057 -0.27933
 N152 N 1.27846 -0.19186 -0.27717
 H153 H 1.30141 -0.28193 -0.26396
 H154 H 1.28606 -0.21401 -0.18980
 H155 H 1.32618 -0.24688 -0.15925
 H156 H 1.34240 -0.31614 -0.23515
 H157 H 1.23174 -0.17290 -0.29220
 H158 H 1.25576 -0.13395 -0.32928
 H159 H 1.35367 -0.16898 -0.30210
 H160 H 1.32759 -0.20674 -0.26529
 C161 C 1.19106 -0.30037 -0.30368
 C162 C 1.18782 -0.16233 -0.18398
 C163 C 1.30676 -0.14840 -0.31881
 C164 C 1.33755 -0.28436 -0.19471
 C165 C 0.25172 0.17113 0.70069
 H166 H 0.22554 0.17776 0.69944
 C167 C 0.26539 0.14704 0.68043
 H168 H 0.24960 0.13503 0.66363
 C169 C 0.30420 0.17911 0.72404
 H170 H 0.31928 0.19205 0.74078
 C171 C 0.31882 0.15486 0.70445
 H172 H 0.34524 0.14948 0.70615
 N173 N 0.27119 0.18663 0.72187
 C174 C 0.20651 0.21679 0.79598
 H175 H 0.20938 0.24456 0.79660
 C176 C 0.18614 0.20098 0.81690
 H177 H 0.17441 0.21728 0.83385
 C178 C 0.22046 0.16253 0.77385
 H179 H 0.23386 0.14758 0.75704
 C180 C 0.20067 0.14559 0.79444
 H181 H 0.19863 0.11785 0.79198
 Zn182 Zn 0.25046 0.21994 0.74722
 N183 N 0.22288 0.19750 0.77485
 C184 C 0.19113 0.25135 0.72557
 N185 N 0.22468 0.24902 0.72214
 C186 C 0.24016 0.26496 0.69915
 C187 C 0.22184 0.28473 0.67880
 C188 C 0.17185 0.27057 0.70559
 C189 C 0.29901 0.22908 0.79198
 C190 C 0.32202 0.24689 0.80979
 C191 C 0.31106 0.29791 0.78063
 C192 C 0.28796 0.27927 0.76367
 N193 N 0.28252 0.24541 0.76943
 H194 H 0.17910 0.23772 0.74338
 H195 H 0.26674 0.26183 0.69638
 H196 H 0.23448 0.29692 0.66042
 H197 H 0.14518 0.27215 0.70866
 H198 H 0.29387 0.20226 0.79640
 H199 H 0.33413 0.23354 0.82809
 H200 H 0.31534 0.32462 0.77513
 H201 H 0.27434 0.29206 0.74602
 C202 C 0.18295 0.16464 0.81664
 C203 C 0.29935 0.13868 0.68219
 C204 C 0.32829 0.28191 0.80432
 C205 C 0.18719 0.28746 0.68179
 C206 C 0.74692 0.71413 0.71538
 H207 H 0.72035 0.71679 0.71306
 C208 C 0.76386 0.68936 0.69783
 H209 H 0.74990 0.67272 0.68278
 C210 C 0.79754 0.73330 0.73670
 H211 H 0.81088 0.75119 0.75098
 C212 C 0.81542 0.70892 0.71964
 H213 H 0.84228 0.70841 0.72124
 N214 N 0.76383 0.73551 0.73444
 C215 C 0.70552 0.75465 0.80939
 H216 H 0.72513 0.76813 0.82100
 C217 C 0.68122 0.73845 0.82625
 H218 H 0.68426 0.73896 0.85037
 C219 C 0.67925 0.73760 0.76416
 H220 H 0.67784 0.73841 0.73996
 C221 C 0.65437 0.72099 0.78008
 H222 H 0.63428 0.70968 0.76728
 Zn223 Zn 0.74072 0.77141 0.75611
 N224 N 0.70503 0.75275 0.77886
 C225 C 0.69918 0.82628 0.73700
 N226 N 0.72305 0.80313 0.72811
 C227 C 0.73388 0.80168 0.69920
 C228 C 0.72003 0.82352 0.67772
 C229 C 0.68456 0.84860 0.71619
 C230 C 0.78665 0.77502 0.80388
 C231 C 0.80813 0.79064 0.82450
 C232 C 0.79910 0.84502 0.79959
 C233 C 0.77736 0.82842 0.77963
 N234 N 0.77117 0.79411 0.78239
 H235 H 0.69113 0.82699 0.76016
 H236 H 0.75308 0.78329 0.69265
 H237 H 0.72835 0.82119 0.65467
 H238 H 0.66541 0.86670 0.72362
 H239 H 0.78183 0.74764 0.80526
 H240 H 0.81975 0.77517 0.84179
 H241 H 0.80321 0.87249 0.79760
 H242 H 0.76519 0.84303 0.76215
 C243 C 0.65544 0.72003 0.81182
 C244 C 0.79862 0.68662 0.69974
 C245 C 0.81428 0.82614 0.82269
 C246 C 0.69474 0.84714 0.68600
 C247 C 0.75309 0.21402 0.22166
 H248 H 0.72759 0.20715 0.22552
 C249 C 0.77352 0.19179 0.20458
 H250 H 0.76349 0.16796 0.19552
 C251 C 0.79741 0.25306 0.22863
 H252 H 0.80654 0.27717 0.23785
 C253 C 0.81875 0.23145 0.21209
 H254 H 0.84415 0.23927 0.20853
 N255 N 0.76527 0.24409 0.23321
 C256 C 0.70342 0.25371 0.30670
 H257 H 0.72264 0.26668 0.31929
 C258 C 0.67861 0.23677 0.32222
 H259 H 0.67991 0.23613 0.34649
 C260 C 0.67890 0.23822 0.26005
 H261 H 0.67884 0.23944 0.23579
 C262 C 0.65339 0.22110 0.27472
 H263 H 0.63402 0.20898 0.26149
 Zn264 Zn 0.73910 0.27590 0.25626
 N265 N 0.70368 0.25351 0.27613
 C266 C 0.68897 0.31850 0.23073
 N267 N 0.72193 0.31026 0.23027
 C268 C 0.74262 0.32445 0.20991
 C269 C 0.73005 0.34666 0.18801
 C270 C 0.67535 0.34048 0.20923
 C271 C 0.78616 0.27335 0.30225
 C272 C 0.80706 0.28588 0.32486
 C273 C 0.78941 0.34397 0.31257
 C274 C 0.76878 0.33030 0.29017
 N275 N 0.76743 0.29554 0.28562
 H276 H 0.67297 0.30737 0.24730
 H277 H 0.76878 0.31774 0.21008
 H278 H 0.74686 0.35718 0.17169
 H279 H 0.64878 0.34531 0.20925
 H280 H 0.78462 0.24579 0.29803
 H281 H 0.82194 0.26782 0.33771
 H282 H 0.78973 0.37169 0.31629
 H283 H 0.75354 0.34735 0.27670
 C284 C 0.65334 0.21973 0.30627
 C285 C 0.80686 0.20039 0.19975
 C286 C 0.80880 0.32162 0.33034
 C287 C 0.69583 0.35441 0.18709
 C288 C 0.25348 0.67556 0.20235
 H289 H 0.22708 0.68126 0.20215
 C290 C 0.26702 0.65216 0.18131
 H291 H 0.25092 0.63972 0.16499
 C292 C 0.30669 0.68521 0.22366
 H293 H 0.32223 0.69856 0.23975
 C294 C 0.32114 0.66157 0.20342
 H295 H 0.34775 0.65699 0.20418
 N296 N 0.27335 0.69146 0.22302
 C297 C 0.21320 0.71910 0.30114
 H298 H 0.21603 0.74688 0.30164
 C299 C 0.19550 0.70306 0.32381
 H300 H 0.18486 0.71875 0.34179
 C301 C 0.22501 0.66491 0.27766
 H302 H 0.23694 0.65013 0.25984
 C303 C 0.20756 0.64779 0.29993
 H304 H 0.20568 0.61991 0.29865
 Zn305 Zn 0.25321 0.72356 0.25027
 N306 N 0.22741 0.69996 0.27863
 C307 C 0.19254 0.75602 0.23157
 N308 N 0.22601 0.75398 0.22739
 C309 C 0.24093 0.77221 0.20549
 C310 C 0.22223 0.79412 0.18718
 C311 C 0.17278 0.77735 0.21349
 C312 C 0.30501 0.73047 0.29223
 C313 C 0.32875 0.74726 0.30998
 C314 C 0.31293 0.80092 0.28670
 C315 C 0.28943 0.78300 0.26955
 N316 N 0.28607 0.74834 0.27234
 H317 H 0.18098 0.74060 0.24854
 H318 H 0.26750 0.76969 0.20226
 H319 H 0.23493 0.80890 0.17040
 H320 H 0.14614 0.77791 0.21679
 H321 H 0.30169 0.70289 0.29428
 H322 H 0.34389 0.73111 0.32426
 H323 H 0.31304 0.82863 0.28427
 H324 H 0.27338 0.79713 0.25447
 C325 C 0.19259 0.66689 0.32347
 C326 C 0.30125 0.64476 0.18189
 C327 C 0.33339 0.78344 0.30782
 C328 C 0.18756 0.79679 0.19083
 O329 O 1.05746 0.02193 0.05652
 O330 O 0.94300 -0.00811 0.05522
 O331 O 0.98000 0.06488 0.05461
 O332 O 1.02119 -0.05308 0.05343
 O333 O 0.93534 0.04903 0.03463
 O334 O 1.06546 -0.03581 0.03429
 O335 O 0.96453 -0.05691 0.04150
 O336 O 1.03599 0.06997 0.04239
 C337 C 1.05151 0.05299 0.06178
 C338 C 0.94789 -0.03922 0.06015
 C339 C 0.94952 0.06366 0.05601
 C340 C 1.05171 -0.05174 0.05462
 O341 O 1.05817 -0.00998 -0.02019
 O342 O 0.94355 0.02217 -0.02105
 O343 O 1.01980 0.06448 -0.01828
 O344 O 0.98010 -0.05261 -0.01949
 O345 O 0.93579 -0.03482 0.00036
 O346 O 1.06440 0.04750 0.00141
 O347 O 1.03674 -0.05802 -0.00740
 O348 O 0.96365 0.07022 -0.00597
 Co349 Co 1.05516 0.00600 0.01805
 Co350 Co 0.94572 0.00708 0.01725
 Co351 Co 0.99991 0.06186 0.01816
 Co352 Co 1.00057 -0.04950 0.01706
 O353 O 1.00038 0.00634 0.01766
 C354 C 1.05284 -0.04087 -0.02598
 C355 C 0.94909 0.05299 -0.02597
 C356 C 1.05017 0.06118 -0.02016
 C357 C 0.94962 -0.05032 -0.02080
 O358 O 1.04874 0.52501 0.56164
 O359 O 0.93885 0.47743 0.53922
 O360 O 0.97181 0.57135 0.54996
 O361 O 1.02651 0.42004 0.52577
 O362 O 0.93165 0.53981 0.53126
 O363 O 1.04649 0.46443 0.54983
 O364 O 0.98607 0.45677 0.55531
 O365 O 1.03348 0.57345 0.54288
 C366 C 1.04629 0.55693 0.56390
 C367 C 0.95564 0.46225 0.55934
 C368 C 0.94243 0.56119 0.55077
 C369 C 1.04903 0.43230 0.54363
 O370 O 1.06129 0.47794 0.49138
 O371 O 0.94984 0.52854 0.47246
 O372 O 1.02535 0.57099 0.48505
 O373 O 0.96619 0.43021 0.50605
 O374 O 0.95552 0.47141 0.47851
 O375 O 1.06590 0.53954 0.50389
 O376 O 1.01568 0.45417 0.47837
 O377 O 0.96338 0.57649 0.49249
 Co378 Co 1.05068 0.50233 0.52567
 Co379 Co 0.94801 0.50452 0.50639
 Co380 Co 0.99851 0.56706 0.51741
 Co381 Co 1.00164 0.45762 0.51700
 O382 O 0.99838 0.51011 0.51607
 C383 C 1.04500 0.46084 0.47248
 C384 C 0.95128 0.56015 0.47091
 C385 C 1.05509 0.56088 0.48465
 C386 C 0.95068 0.44074 0.48391
 O387 O 0.56858 0.02649 0.50229
 O388 O 0.43224 -0.03666 0.49435
 O389 O 0.46697 0.04453 0.52635
 O390 O 0.52906 -0.04529 0.52820
 O391 O 0.42874 0.02547 0.49612
 O392 O 0.56824 -0.03745 0.49772
 O393 O 0.47077 -0.04213 0.52654
 O394 O 0.52829 0.05712 0.52294
 C395 C 0.55809 0.04777 0.52199
 C396 C 0.44078 -0.04222 0.52087
 C397 C 0.43767 0.03577 0.52200
 C398 C 0.55918 -0.04399 0.52373
 O399 O 0.54621 -0.03317 0.44154
 O400 O 0.45514 0.02670 0.43879
 O401 O 0.52120 0.07140 0.46583
 O402 O 0.47063 -0.07388 0.47101
 O403 O 0.46190 -0.03443 0.43920
 O404 O 0.55353 0.03157 0.44508
 O405 O 0.53043 -0.07372 0.47097
 O406 O 0.46028 0.06693 0.47096
 Co407 Co 0.55331 -0.00323 0.47264
 Co408 Co 0.44908 -0.00448 0.46851
 Co409 Co 0.49455 0.05392 0.49537
 Co410 Co 0.50013 -0.05406 0.49779
 O411 O 0.49979 -0.00149 0.48345
 C412 C 0.54131 -0.06437 0.44583
 C413 C 0.45434 0.05798 0.44460
 C414 C 0.54177 0.06170 0.44594
 C415 C 0.46311 -0.06560 0.44477
 O416 O 0.56811 0.52117 0.00056
 O417 O 0.43063 0.46056 -0.00610
 O418 O 0.46706 0.53968 0.02713
 O419 O 0.52814 0.44884 0.02637
 O420 O 0.42812 0.52300 -0.00331
 O421 O 0.56663 0.45755 -0.00475
 O422 O 0.46946 0.45300 0.02557
 O423 O 0.52878 0.55030 0.02421
 C424 C 0.55839 0.54041 0.02207
 C425 C 0.43937 0.45379 0.02015
 C426 C 0.43733 0.53277 0.02262
 C427 C 0.55816 0.45108 0.02145
 O428 O 0.54358 0.46279 -0.06067
 O429 O 0.45412 0.52472 -0.06055
 O430 O 0.52226 0.56753 -0.03231
 O431 O 0.46813 0.42294 -0.03057
 O432 O 0.45962 0.46354 -0.06135
 O433 O 0.55169 0.52777 -0.05639
 O434 O 0.52813 0.42206 -0.03123
 O435 O 0.46105 0.56431 -0.02790
 Co436 Co 0.55173 0.49230 -0.02923
 Co437 Co 0.44768 0.49305 -0.03147
 Co438 Co 0.49493 0.54949 -0.00355
 Co439 Co 0.49840 0.44145 -0.00379
 O440 O 0.49858 0.49446 -0.01709
 C441 C 0.53904 0.43149 -0.05636
 C442 C 0.45442 0.55589 -0.05435
 C443 C 0.54150 0.55836 -0.05344
 C444 C 0.46031 0.43220 -0.05648
 C445 C 1.11879 0.13276 0.15222
 C446 C 1.10553 0.16227 0.16684
 C447 C 1.12640 0.18390 0.18332
 C448 C 1.16045 0.17604 0.18595
 C449 C 1.17245 0.14542 0.17214
 N450 N 1.15168 0.12500 0.15573
 C451 C 1.09850 0.11103 0.13170
 N452 N 1.10898 0.07819 0.12472
 C453 C 1.09323 0.05808 0.10384
 C454 C 1.06586 0.07138 0.08795
 C455 C 1.05414 0.10470 0.09538
 C456 C 1.07029 0.12455 0.11709
 H457 H 1.11590 0.20725 0.19335
 H458 H 1.19833 0.13780 0.17416
 H459 H 1.10305 0.03248 0.09869
 H460 H 1.03311 0.11596 0.08361
 H461 H 1.07940 0.16899 0.16547
 H462 H 1.06158 0.15078 0.12103
 C463 C 1.12005 0.63896 0.64777
 C464 C 1.12179 0.67472 0.64304
 C465 C 1.14471 0.69432 0.65911
 C466 C 1.16619 0.67860 0.67984
 C467 C 1.16358 0.64285 0.68416
 N468 N 1.14112 0.62412 0.66800
 C469 C 1.09770 0.61686 0.62953
 N470 N 1.10640 0.58315 0.62414
 C471 C 1.08893 0.56251 0.60490
 C472 C 1.06156 0.57605 0.58916
 C473 C 1.05104 0.61001 0.59571
 C474 C 1.06877 0.63035 0.61606
 H475 H 1.14566 0.72187 0.65528
 H476 H 1.17988 0.62968 0.69977
 H477 H 1.09761 0.53628 0.60061
 H478 H 1.02959 0.62113 0.58446
 H479 H 1.10643 0.68748 0.62647
 H480 H 1.06019 0.65654 0.62057
 C481 C 0.64321 0.10577 0.61359
 C482 C 0.63041 0.11612 0.64167
 C483 C 0.65044 0.13391 0.66201
 C484 C 0.68361 0.14094 0.65496
 C485 C 0.69598 0.12867 0.62717
 N486 N 0.67571 0.11180 0.60737
 C487 C 0.62134 0.09037 0.59028
 N488 N 0.63376 0.06731 0.56953
 C489 C 0.61435 0.05302 0.54751
 C490 C 0.58050 0.06217 0.54542
 C491 C 0.56762 0.08627 0.56641
 C492 C 0.58779 0.10037 0.58861
 H493 H 0.63950 0.14305 0.68289
 H494 H 0.72159 0.13279 0.62102
 H495 H 0.62534 0.03468 0.53170
 H496 H 0.54181 0.09461 0.56563
 H497 H 0.60499 0.11095 0.64783
 H498 H 0.57720 0.11956 0.60387
 C499 C 0.64721 0.58780 0.11512
 C500 C 0.63729 0.59169 0.14519
 C501 C 0.65702 0.61016 0.16534
 C502 C 0.68719 0.62417 0.15598
 C503 C 0.69747 0.61733 0.12624
 N504 N 0.67732 0.59995 0.10672
 C505 C 0.62429 0.57363 0.09207
 N506 N 0.63646 0.55782 0.06671
 C507 C 0.61616 0.54623 0.04418
 C508 C 0.58157 0.55118 0.04626
 C509 C 0.56877 0.56736 0.07226
 C510 C 0.58986 0.57862 0.09499
 H511 H 0.64775 0.61476 0.18785
 H512 H 0.72101 0.62664 0.11822
 H513 H 0.62703 0.53378 0.02454
 H514 H 0.54229 0.57174 0.07502
 H515 H 0.61401 0.58149 0.15300
 H516 H 0.57917 0.59219 0.11416
 C517 C 0.87148 -0.11372 0.14527
 C518 C 0.83842 -0.10457 0.15225
 C519 C 0.81888 -0.12756 0.16808
 C520 C 0.83215 -0.15952 0.17705
 C521 C 0.86539 -0.16741 0.17001
 N522 N 0.88378 -0.14482 0.15430
 C523 C 0.89254 -0.09228 0.12604
 N524 N 0.91785 -0.10815 0.11073
 C525 C 0.93690 -0.09126 0.09078
 C526 C 0.93063 -0.05625 0.08493
 C527 C 0.90573 -0.03885 0.10146
 C528 C 0.88666 -0.05673 0.12209
 H529 H 0.79339 -0.12040 0.17323
 H530 H 0.87650 -0.19195 0.17616
 H531 H 0.95618 -0.10553 0.07883
 H532 H 0.90029 -0.01173 0.09778
 H533 H 0.82727 -0.08059 0.14480
 H534 H 0.86746 -0.04284 0.13443
 C535 C 0.88203 0.38804 0.64619
 C536 C 0.85624 0.40035 0.66455
 C537 C 0.83729 0.37704 0.68065
 C538 C 0.84334 0.34079 0.67859
 C539 C 0.87041 0.33016 0.66004
 N540 N 0.88840 0.35353 0.64479
 C541 C 0.90201 0.41110 0.62742
 N542 N 0.93345 0.40099 0.61979
 C543 C 0.95207 0.41863 0.59993
 C544 C 0.93858 0.44757 0.58542
 C545 C 0.90660 0.45912 0.59355
 C546 C 0.88833 0.44115 0.61472
 H547 H 0.81879 0.38843 0.69535
 H548 H 0.87687 0.30340 0.65596
 H549 H 0.97656 0.40875 0.59414
 H550 H 0.89528 0.48128 0.58275
 H551 H 0.85100 0.42777 0.66691
 H552 H 0.86317 0.44959 0.61968
 C553 C 0.35355 -0.09059 0.61231
 C554 C 0.32348 -0.10739 0.60607
 C555 C 0.30776 -0.12544 0.62876
 C556 C 0.32182 -0.12695 0.65764
 C557 C 0.35133 -0.10902 0.66317
 N558 N 0.36632 -0.09185 0.64067
 C559 C 0.37377 -0.07462 0.58864
 N560 N 0.40654 -0.06944 0.59455
 C561 C 0.42789 -0.05788 0.57360
 C562 C 0.41674 -0.05132 0.54432
 C563 C 0.38280 -0.05489 0.53791
 C564 C 0.36117 -0.06639 0.56003
 H565 H 0.28529 -0.13938 0.62339
 H566 H 0.36277 -0.10903 0.68521
 H567 H 0.45377 -0.05482 0.57968
 H568 H 0.37314 -0.04945 0.51572
 H569 H 0.31278 -0.10808 0.58378
 H570 H 0.33514 -0.06903 0.55449
 C571 C 0.35154 0.40192 0.10990
 C572 C 0.32235 0.38384 0.10291
 C573 C 0.30598 0.36607 0.12546
 C574 C 0.31855 0.36612 0.15494
 C575 C 0.34729 0.38520 0.16109
 N576 N 0.36291 0.40204 0.13875
 C577 C 0.37214 0.41827 0.08664
 N578 N 0.40474 0.42396 0.09304
 C579 C 0.42618 0.43649 0.07256
 C580 C 0.41528 0.44375 0.04332
 C581 C 0.38150 0.43956 0.03647
 C582 C 0.35982 0.42690 0.05805
 H583 H 0.28421 0.35125 0.11956
 H584 H 0.35758 0.38646 0.18356
 H585 H 0.45193 0.43989 0.07896
 H586 H 0.37202 0.44533 0.01427
 H587 H 0.31285 0.38206 0.08020
 H588 H 0.33392 0.42381 0.05217
 C589 C 0.88685 0.12466 -0.12343
 C590 C 0.87543 0.15864 -0.11822
 C591 C 0.85725 0.17556 -0.14035
 C592 C 0.85049 0.15894 -0.16793
 C593 C 0.86236 0.12480 -0.17222
 N594 N 0.87979 0.10866 -0.15010
 C595 C 0.90536 0.10582 -0.09997
 N596 N 0.90029 0.07138 -0.09627
 C597 C 0.91483 0.05347 -0.07350
 C598 C 0.93555 0.07049 -0.05271
 C599 C 0.94216 0.10557 -0.05704
 C600 C 0.92722 0.12323 -0.08058
 H601 H 0.84779 0.20136 -0.13546
 H602 H 0.85803 0.11099 -0.19316
 H603 H 0.90947 0.02629 -0.07118
 H604 H 0.95845 0.11959 -0.04189
 H605 H 0.87966 0.17174 -0.09690
 H606 H 0.93255 0.15034 -0.08341
 C607 C 0.88650 0.62721 0.37193
 C608 C 0.87810 0.61055 0.34470
 C609 C 0.85790 0.62752 0.32402
 C610 C 0.84649 0.66139 0.32990
 C611 C 0.85691 0.67780 0.35667
 N612 N 0.87612 0.66047 0.37678
 C613 C 0.90511 0.60931 0.39604
 N614 N 0.91947 0.62838 0.41850
 C615 C 0.93514 0.61355 0.44232
 C616 C 0.93651 0.57744 0.44462
 C617 C 0.92216 0.55740 0.42159
 C618 C 0.90637 0.57309 0.39749
 H619 H 0.85054 0.61367 0.30380
 H620 H 0.84959 0.70424 0.36180
 H621 H 0.94593 0.62993 0.45961
 H622 H 0.92244 0.52942 0.42248
 H623 H 0.88666 0.58461 0.33924
 H624 H 0.89439 0.55669 0.38096
 C625 C 0.39507 0.15515 0.36335
 C626 C 0.38788 0.18969 0.37120
 C627 C 0.36771 0.20972 0.35253
 C628 C 0.35380 0.19574 0.32575
 C629 C 0.36283 0.16101 0.31855
 N630 N 0.38252 0.14220 0.33720
 C631 C 0.41370 0.13135 0.38341
 N632 N 0.41201 0.09668 0.37774
 C633 C 0.42610 0.07281 0.39611
 C634 C 0.44256 0.08340 0.42243
 C635 C 0.44581 0.11894 0.42818
 C636 C 0.43173 0.14297 0.40867
 H637 H 0.36151 0.23539 0.36078
 H638 H 0.35535 0.14857 0.29779
 H639 H 0.42328 0.04562 0.39072
 H640 H 0.45885 0.12816 0.44802
 H641 H 0.39632 0.20114 0.39211
 H642 H 0.43484 0.17013 0.41377
 C643 C 0.39860 0.65273 -0.13785
 C644 C 0.40167 0.68889 -0.13652
 C645 C 0.38229 0.70943 -0.15548
 C646 C 0.36016 0.69416 -0.17603
 C647 C 0.35886 0.65793 -0.17751
 N648 N 0.37763 0.63850 -0.15856
 C649 C 0.41630 0.62937 -0.11684
 N650 N 0.41799 0.59497 -0.12380
 C651 C 0.43124 0.57131 -0.10477
 C652 C 0.44317 0.58173 -0.07642
 C653 C 0.44238 0.61708 -0.06896
 C654 C 0.42897 0.64096 -0.08901
 H655 H 0.38459 0.73727 -0.15405
 H656 H 0.34206 0.64503 -0.19292
 H657 H 0.43147 0.54429 -0.11149
 H658 H 0.45132 0.62619 -0.04729
 H659 H 0.41872 0.70142 -0.12115
 H660 H 0.42745 0.66782 -0.08203
 C661 C 1.12201 -0.11011 -0.12263
 C662 C 1.11180 -0.14070 -0.13717
 C663 C 1.13312 -0.15748 -0.15743
 C664 C 1.16442 -0.14376 -0.16356
 C665 C 1.17316 -0.11245 -0.14948
 N666 N 1.15212 -0.09677 -0.12954
 C667 C 1.10160 -0.09241 -0.09931
 N668 N 1.10745 -0.05853 -0.09267
 C669 C 1.09135 -0.04115 -0.07015
 C670 C 1.06828 -0.05822 -0.05230
 C671 C 1.06153 -0.09297 -0.05898
 C672 C 1.07810 -0.11015 -0.08236
 H673 H 1.12508 -0.18112 -0.16842
 H674 H 1.19707 -0.10099 -0.15357
 H675 H 1.09733 -0.01434 -0.06571
 H676 H 1.04400 -0.10715 -0.04568
 H677 H 1.08765 -0.15163 -0.13318
 H678 H 1.07336 -0.13732 -0.08615
 C679 C 1.11779 0.39606 0.37608
 C680 C 1.11137 0.36186 0.36694
 C681 C 1.13375 0.34439 0.34804
 C682 C 1.16253 0.36078 0.33815
 C683 C 1.16782 0.39511 0.34745
 N684 N 1.14584 0.41148 0.36615
 C685 C 1.09659 0.41481 0.39825
 N686 N 1.11051 0.44026 0.41538
 C687 C 1.09381 0.45670 0.43802
 C688 C 1.06115 0.44738 0.44487
 C689 C 1.04562 0.42253 0.42654
 C690 C 1.06320 0.40624 0.40317
 H691 H 1.12856 0.31802 0.34118
 H692 H 1.18982 0.40861 0.34055
 H693 H 1.10656 0.47612 0.45133
 H694 H 1.02034 0.41482 0.43092
 H695 H 1.08998 0.34817 0.37494
 H696 H 1.05082 0.38692 0.38952
 C697 C 0.60247 -0.15728 0.36071
 C698 C 0.59405 -0.19119 0.35237
 C699 C 0.61432 -0.20967 0.33202
 C700 C 0.64304 -0.19453 0.32032
 C701 C 0.65060 -0.16073 0.32982
 N702 N 0.63034 -0.14327 0.34916
 C703 C 0.58219 -0.13541 0.38119
 N704 N 0.58335 -0.10065 0.37760
 C705 C 0.56868 -0.07793 0.39699
 C706 C 0.55249 -0.08973 0.42266
 C707 C 0.54986 -0.12558 0.42644
 C708 C 0.56459 -0.14860 0.40560
 H709 H 0.60721 -0.23550 0.32515
 H710 H 0.67286 -0.14815 0.32233
 H711 H 0.57105 -0.05056 0.39290
 H712 H 0.53743 -0.13571 0.44589
 H713 H 0.57179 -0.20297 0.36085
 H714 H 0.56362 -0.17614 0.40938
 C715 C 0.60383 0.33817 -0.13984
 C716 C 0.61599 0.30519 -0.13214
 C717 C 0.63846 0.28788 -0.15118
 C718 C 0.64900 0.30317 -0.17786
 C719 C 0.63550 0.33562 -0.18515
 N720 N 0.61395 0.35211 -0.16613
 C721 C 0.58300 0.35997 -0.11927
 N722 N 0.58019 0.39433 -0.12508
 C723 C 0.56449 0.41712 -0.10626
 C724 C 0.55093 0.40591 -0.07914
 C725 C 0.55187 0.37037 -0.07330
 C726 C 0.56773 0.34729 -0.09331
 H727 H 0.64790 0.26268 -0.14481
 H728 H 0.64310 0.34859 -0.20530
 H729 H 0.56389 0.44421 -0.11198
 H730 H 0.54132 0.36057 -0.05283
 H731 H 0.60941 0.29314 -0.11131
 H732 H 0.56837 0.32015 -0.08799
 C733 C 1.12539 0.11575 -0.11747
 C734 C 1.15126 0.09736 -0.13169
 C735 C 1.16996 0.11328 -0.15364
 C736 C 1.16321 0.14780 -0.16177
 C737 C 1.13628 0.16488 -0.14727
 N738 N 1.11837 0.14864 -0.12599
 C739 C 1.10613 0.10047 -0.09296
 N740 N 1.07369 0.11000 -0.08896
 C741 C 1.05503 0.09745 -0.06624
 C742 C 1.06926 0.07449 -0.04559
 C743 C 1.10266 0.06457 -0.04925
 C744 C 1.12110 0.07736 -0.07287
 H745 H 1.19067 0.09869 -0.16298
 H746 H 1.12866 0.19079 -0.15324
 H747 H 1.02934 0.10582 -0.06406
 H748 H 1.11460 0.04696 -0.03377
 H749 H 1.15717 0.07091 -0.12589
 H750 H 1.14705 0.06993 -0.07482
 C751 C 1.13911 0.61740 0.39361
 C752 C 1.16841 0.60187 0.38235
 C753 C 1.18584 0.61791 0.35946
 C754 C 1.17423 0.64932 0.34765
 C755 C 1.14476 0.66379 0.35938
 N756 N 1.12821 0.64767 0.38158
 C757 C 1.11884 0.60174 0.41748
 N758 N 1.08689 0.61309 0.42091
 C759 C 1.06637 0.60056 0.44214
 C760 C 1.07771 0.57497 0.46187
 C761 C 1.11065 0.56296 0.45902
 C762 C 1.13131 0.57629 0.43694
 H763 H 1.20858 0.60591 0.35122
 H764 H 1.13456 0.68765 0.35065
 H765 H 1.04118 0.61066 0.44351
 H766 H 1.12043 0.54329 0.47380
 H767 H 1.17768 0.57743 0.39059
 H768 H 1.15673 0.56701 0.43564
 C769 C 0.59091 0.15468 0.35758
 C770 C 0.59947 0.14481 0.32806
 C771 C 0.61854 0.16673 0.31078
 C772 C 0.62876 0.19872 0.32257
 C773 C 0.61745 0.20873 0.35133
 N774 N 0.59943 0.18663 0.36799
 C775 C 0.57552 0.13021 0.37846
 N776 N 0.55789 0.14252 0.40257
 C777 C 0.54576 0.12129 0.42395
 C778 C 0.55211 0.08554 0.42216
 C779 C 0.56987 0.07244 0.39728
 C780 C 0.58155 0.09452 0.37554
 H781 H 0.62656 0.15783 0.28876
 H782 H 0.62383 0.23362 0.36099
 H783 H 0.53207 0.13244 0.44271
 H784 H 0.57534 0.04504 0.39483
 H785 H 0.59235 0.12007 0.31857
 H786 H 0.59642 0.08366 0.35743
 C787 C 0.59394 0.65575 -0.13659
 C788 C 0.59674 0.64984 -0.16762
 C789 C 0.61592 0.67174 -0.18485
 C790 C 0.63262 0.70001 -0.17149
 C791 C 0.62700 0.70615 -0.14047
 N792 N 0.60842 0.68415 -0.12417
 C793 C 0.57759 0.63072 -0.11678
 N794 N 0.56424 0.64175 -0.09013
 C795 C 0.55127 0.61947 -0.06999
 C796 C 0.55233 0.58369 -0.07585
 C797 C 0.56564 0.57192 -0.10331
 C798 C 0.57816 0.59520 -0.12375
 H799 H 0.61903 0.66474 -0.20827
 H800 H 0.63711 0.72840 -0.12888
 H801 H 0.54123 0.62960 -0.04906
 H802 H 0.56693 0.54456 -0.10882
 H803 H 0.58487 0.62804 -0.17853
 H804 H 0.58945 0.58517 -0.14418
 C805 C 0.87268 -0.12221 -0.11042
 C806 C 0.84813 -0.14542 -0.10177
 C807 C 0.82948 -0.16255 -0.12366
 C808 C 0.83496 -0.15643 -0.15418
 C809 C 0.85993 -0.13322 -0.16198
 N810 N 0.87813 -0.11705 -0.14019
 C811 C 0.89215 -0.10304 -0.08760
 N812 N 0.92527 -0.09796 -0.09173
 C813 C 0.94431 -0.08121 -0.07086
 C814 C 0.92987 -0.06812 -0.04426
 C815 C 0.89567 -0.07248 -0.04002
 C816 C 0.87683 -0.09000 -0.06148
 H817 H 0.81034 -0.18012 -0.11675
 H818 H 0.86503 -0.12811 -0.18534
 H819 H 0.97059 -0.07812 -0.07503
 H820 H 0.88350 -0.06269 -0.01990
 H821 H 0.84352 -0.15044 -0.07831
 H822 H 0.85045 -0.09303 -0.05780
 C823 C 0.87148 0.36368 0.39937
 C824 C 0.85415 0.33316 0.40481
 C825 C 0.83390 0.31916 0.38222
 C826 C 0.83075 0.33555 0.35437
 C827 C 0.84868 0.36581 0.34987
 N828 N 0.86811 0.37890 0.37214
 C829 C 0.89204 0.38140 0.42239
 N830 N 0.89914 0.41512 0.41778
 C831 C 0.91773 0.43402 0.43718
 C832 C 0.93075 0.41909 0.46329
 C833 C 0.92424 0.38421 0.46864
 C834 C 0.90481 0.36519 0.44820
 H835 H 0.82007 0.29602 0.38679
 H836 H 0.84742 0.37904 0.32865
 H837 H 0.92229 0.46079 0.43205
 H838 H 0.93409 0.37178 0.48846
 H839 H 0.85531 0.32067 0.42634
 H840 H 0.90039 0.33821 0.45245
 C841 C 0.39950 -0.16122 0.36353
 C842 C 0.39029 -0.19474 0.37123
 C843 C 0.36898 -0.21349 0.35244
 C844 C 0.35590 -0.19917 0.32567
 C845 C 0.36683 -0.16554 0.31871
 N846 N 0.38761 -0.14800 0.33745
 C847 C 0.41968 -0.13849 0.38358
 N848 N 0.42063 -0.10414 0.37741
 C849 C 0.43602 -0.08079 0.39567
 C850 C 0.45116 -0.09144 0.42249
 C851 C 0.45196 -0.12687 0.42870
 C852 C 0.43647 -0.15049 0.40929
 H853 H 0.36143 -0.23830 0.36056
 H854 H 0.36003 -0.15305 0.29804
 H855 H 0.43512 -0.05375 0.38978
 H856 H 0.46385 -0.13621 0.44893
 H857 H 0.39815 -0.20628 0.39206
 H858 H 0.43742 -0.17755 0.41486
 C859 C 0.39413 0.34062 -0.13904
 C860 C 0.40139 0.30557 -0.14499
 C861 C 0.38020 0.28641 -0.16365
 C862 C 0.35170 0.30197 -0.17630
 C863 C 0.34563 0.33717 -0.16983
 N864 N 0.36667 0.35523 -0.15180
 C865 C 0.41498 0.36248 -0.11916
 N866 N 0.41443 0.39725 -0.12332
 C867 C 0.43038 0.41963 -0.10461
 C868 C 0.44741 0.40745 -0.07922
 C869 C 0.44905 0.37163 -0.07478
 C870 C 0.43300 0.34902 -0.09477
 H871 H 0.38638 0.25956 -0.16844
 H872 H 0.32379 0.35029 -0.17851
 H873 H 0.42844 0.44705 -0.10891
 H874 H 0.46188 0.36122 -0.05542
 H875 H 0.42336 0.29319 -0.13578
 H876 H 0.43345 0.32160 -0.09030
 C877 C 1.12962 -0.13739 0.13338
 C878 C 1.15759 -0.15513 0.12193
 C879 C 1.17609 -0.17679 0.14051
 C880 C 1.16711 -0.18084 0.17069
 C881 C 1.13845 -0.16315 0.18111
 N882 N 1.12065 -0.14224 0.16245
 C883 C 1.10994 -0.11371 0.11424
 N884 N 1.07623 -0.11164 0.11711
 C885 C 1.05699 -0.09143 0.09896
 C886 C 1.07171 -0.07179 0.07643
 C887 C 1.10647 -0.07272 0.07394
 C888 C 1.12557 -0.09357 0.09268
 H889 H 1.19723 -0.19066 0.13105
 H890 H 1.13056 -0.16531 0.20419
 H891 H 1.03027 -0.09120 0.10177
 H892 H 1.11895 -0.05780 0.05709
 H893 H 1.16486 -0.15272 0.09868
 H894 H 1.15234 -0.09388 0.09028
 C895 C 1.12905 0.34472 0.61866
 C896 C 1.11825 0.31220 0.62787
 C897 C 1.13725 0.29352 0.64842
 C898 C 1.16701 0.30705 0.65979
 C899 C 1.17700 0.33958 0.64998
 N900 N 1.15789 0.35748 0.63016
 C901 C 1.10912 0.36624 0.59797
 N902 N 1.11145 0.40127 0.60010
 C903 C 1.09304 0.42278 0.58260
 C904 C 1.07063 0.40919 0.56142
 C905 C 1.06854 0.37317 0.55819
 C906 C 1.08772 0.35162 0.57639
 H907 H 1.12876 0.26842 0.65531
 H908 H 1.19961 0.35105 0.65849
 H909 H 1.09559 0.45044 0.58561
 H910 H 1.05184 0.36163 0.54187
 H911 H 1.09504 0.30154 0.61993
 H912 H 1.08586 0.32390 0.57340
 C913 C 0.64473 -0.09543 0.61725
 C914 C 0.67957 -0.09885 0.61655
 C915 C 0.69602 -0.11692 0.63930
 C916 C 0.67803 -0.13128 0.66292
 C917 C 0.64345 -0.12614 0.66334
 N918 N 0.62800 -0.10886 0.64081
 C919 C 0.62497 -0.07889 0.59299
 N920 N 0.59212 -0.07246 0.59817
 C921 C 0.57120 -0.06010 0.57678
 C922 C 0.58284 -0.05395 0.54770
 C923 C 0.61675 -0.05941 0.54187
 C924 C 0.63790 -0.07197 0.56437
 H925 H 0.72282 -0.11968 0.63841
 H926 H 0.62850 -0.13690 0.68095
 H927 H 0.54527 -0.05597 0.58237
 H928 H 0.62669 -0.05503 0.51970
 H929 H 0.69419 -0.08794 0.59885
 H930 H 0.66360 -0.07724 0.55881
 C931 C 0.64786 0.40772 0.11484
 C932 C 0.67617 0.38708 0.10893
 C933 C 0.69262 0.37078 0.13263
 C934 C 0.68107 0.37495 0.16223
 C935 C 0.65351 0.39695 0.16725
 N936 N 0.63763 0.41212 0.14379
 C937 C 0.62667 0.42181 0.09048
 N938 N 0.59392 0.42786 0.09635
 C939 C 0.57202 0.43818 0.07490
 C940 C 0.58262 0.44275 0.04524
 C941 C 0.61652 0.43811 0.03883
 C942 C 0.63864 0.42763 0.06136
 H943 H 0.71339 0.35361 0.12754
 H944 H 0.64408 0.40150 0.18972
 H945 H 0.54619 0.44210 0.08096
 H946 H 0.62577 0.44184 0.01632
 H947 H 0.68462 0.38197 0.08624
 H948 H 0.66464 0.42402 0.05590
 C949 C 0.87156 0.13761 0.14481
 C950 C 0.88332 0.15118 0.17229
 C951 C 0.86210 0.17129 0.19039
 C952 C 0.82911 0.17761 0.18148
 C953 C 0.81801 0.16266 0.15441
 N954 N 0.83922 0.14351 0.13699
 C955 C 0.89301 0.11740 0.12371
 N956 N 0.87811 0.09841 0.10158
 C957 C 0.89565 0.08052 0.08030
 C958 C 0.93050 0.08143 0.08018
 C959 C 0.94654 0.10051 0.10289
 C960 C 0.92796 0.11859 0.12462
 H961 H 0.87142 0.18176 0.21146
 H962 H 0.79279 0.16701 0.14664
 H963 H 0.88227 0.06607 0.06322
 H964 H 0.97339 0.10199 0.10352
 H965 H 0.90842 0.14630 0.18003
 H966 H 0.94102 0.13400 0.14120
 C967 C 0.85722 0.62186 0.64117
 C968 C 0.86601 0.62502 0.67163
 C969 C 0.84627 0.64513 0.69096
 C970 C 0.81765 0.66203 0.68015
 C971 C 0.80872 0.65660 0.64989
 N972 N 0.82858 0.63716 0.63137
 C973 C 0.87941 0.60423 0.61918
 N974 N 0.86628 0.58875 0.59418
 C975 C 0.88570 0.57394 0.57237
 C976 C 0.92047 0.57516 0.57471
 C977 C 0.93440 0.59099 0.60031
 C978 C 0.91406 0.60538 0.62254
 H979 H 0.85360 0.64777 0.71431
 H980 H 0.78684 0.66905 0.64057
 H981 H 0.87400 0.56209 0.55292
 H982 H 0.96111 0.59254 0.60305
 H983 H 0.88808 0.61240 0.68043
 H984 H 0.92547 0.61836 0.64158
 C985 C 0.34955 0.07473 0.61732
 C986 C 0.35534 0.06939 0.64809
 C987 C 0.33826 0.08958 0.66935
 C988 C 0.31489 0.11447 0.66012
 C989 C 0.30801 0.11720 0.62931
 N990 N 0.32561 0.09790 0.60896
 C991 C 0.37101 0.05880 0.59381
 N992 N 0.35993 0.05744 0.56481
 C993 C 0.38004 0.04784 0.54151
 C994 C 0.41376 0.04049 0.54675
 C995 C 0.42535 0.04049 0.57647
 C996 C 0.40416 0.04946 0.59999
 H997 H 0.34362 0.08611 0.69298
 H998 H 0.28996 0.13593 0.62131
 H999 H 0.37018 0.04792 0.51885
 H1000 H 0.45119 0.03464 0.58144
 H1001 H 0.37329 0.05042 0.65580
 H1002 H 0.41445 0.05109 0.62243
 C1003 C 0.35087 0.57957 0.11731
 C1004 C 0.35662 0.57466 0.14816
 C1005 C 0.33978 0.59534 0.16923
 C1006 C 0.31660 0.62032 0.15983
 C1007 C 0.30977 0.62276 0.12899
 N1008 N 0.32717 0.60297 0.10877
 C1009 C 0.37179 0.56233 0.09390
 N1010 N 0.36076 0.56092 0.06487
 C1011 C 0.38033 0.54929 0.04178
 C1012 C 0.41348 0.53953 0.04725
 C1013 C 0.42494 0.53969 0.07701
 C1014 C 0.40433 0.55095 0.10030
 H1015 H 0.34511 0.59210 0.19290
 H1016 H 0.29183 0.64156 0.12088
 H1017 H 0.37059 0.54955 0.01909
 H1018 H 0.45036 0.53222 0.08220
 H1019 H 0.37424 0.55552 0.15613
 H1020 H 0.41472 0.55251 0.12270
   
