data_POSCAR
  _audit_creation_date              2014-09-24
  _audit_creation_method            'ToBaCCo'
  _symmetry_space_group_name_H-M    'P1'
  _symmetry_Int_Tables_number       1
  _symmetry_cell_setting            triclinic
  loop_
  _symmetry_equiv_pos_as_xyz
 x,y,z
_cell_length_a 19.9785
_cell_length_b 22.0060
_cell_length_c 12.1986
_cell_angle_alpha 88.884700
_cell_angle_beta 88.185100
_cell_angle_gamma 115.175800
loop_
  _atom_site_label
  _atom_site_type_symbol
  _atom_site_fract_x
  _atom_site_fract_y
  _atom_site_fract_z
O1 O 0.33484 0.94020 0.58948
 O2 O 0.37790 1.06979 0.37771
 O3 O 0.35820 0.94362 0.37651
 O4 O 0.39466 1.07236 0.59068
 O5 O 0.51107 1.08713 0.58350
 O6 O 0.47547 0.96139 0.38094
 O7 O 0.49576 1.08836 0.36975
 O8 O 0.45198 0.95676 0.59148
 Cu9 Cu 0.35632 1.00502 0.48330
 Cu10 Cu 0.49477 1.02567 0.48014
 C11 C 0.38459 0.92572 0.62700
 C12 C 0.44284 1.10116 0.33711
 C13 C 0.41200 0.93055 0.34416
 C14 C 0.46060 1.10125 0.62384
 O15 O -0.05577 0.34849 0.42292
 O16 O 0.08502 0.46763 0.60065
 O17 O -0.02727 0.35115 0.63074
 O18 O 0.08183 0.43886 0.39086
 O19 O 0.02777 0.50788 0.38364
 O20 O -0.08956 0.41351 0.63091
 O21 O 0.02405 0.53093 0.59775
 O22 O -0.11124 0.41640 0.42015
 Cu23 Cu 0.02635 0.39615 0.51066
 Cu24 Cu -0.04192 0.47391 0.50664
 C25 C -0.10827 0.36268 0.39262
 C26 C 0.07667 0.51938 0.63128
 C27 C -0.07703 0.36547 0.67213
 C28 C 0.07497 0.48758 0.34557
 O29 O 0.57823 0.62167 0.63046
 O30 O 0.67413 0.58251 0.39387
 O31 O 0.59209 0.64950 0.41709
 O32 O 0.67935 0.57709 0.60481
 O33 O 0.58824 0.47589 0.59128
 O34 O 0.49530 0.55130 0.41087
 O35 O 0.57518 0.48617 0.38291
 O36 O 0.48651 0.52044 0.62241
 Cu37 Cu 0.63985 0.61775 0.51237
 Cu38 Cu 0.52671 0.49907 0.50185
 C39 C 0.51610 0.57635 0.66726
 C40 C 0.63974 0.52644 0.34877
 C41 C 0.52954 0.61318 0.38073
 C42 C 0.65086 0.51463 0.62688
 O43 O 0.46944 0.71425 -0.08740
 O44 O 0.42665 0.81030 -0.07780
 C45 C 0.38268 0.80958 -0.15129
 O46 O 0.31592 0.76585 -0.15188
 O47 O 0.20949 0.64223 -0.13134
 C48 C 0.22236 0.59481 -0.17051
 O49 O 0.27030 0.57806 -0.13353
 O50 O 0.40016 0.60343 -0.06671
 C51 C 0.45416 0.65436 -0.11198
 O52 O 0.44675 0.69007 0.13085
 O53 O 0.39492 0.78211 0.13856
 C54 C 0.34502 0.80336 0.13436
 O55 O 0.29642 0.78558 0.06208
 O56 O 0.19731 0.66161 0.08460
 C57 C 0.18226 0.60199 0.11632
 O58 O 0.21499 0.56793 0.07646
 O59 O 0.34531 0.59398 0.14362
 C60 C 0.40758 0.63279 0.17664
 Cr61 Cr 0.43062 0.74675 0.02553
 Cr62 Cr 0.25768 0.71267 -0.03339
 Cr63 Cr 0.30856 0.58944 0.00478
 O64 O 0.33224 0.68276 -0.00102
 O65 O 0.64025 0.37885 -0.16944
 O66 O 0.54831 0.25128 -0.13536
 C67 C 0.57148 0.20754 -0.16012
 O68 O 0.62152 0.19989 -0.10964
 O69 O 0.75329 0.24740 -0.03685
 C70 C 0.80032 0.29847 -0.09170
 O71 O 0.80635 0.35770 -0.08008
 O72 O 0.74570 0.44055 -0.09020
 C73 C 0.70340 0.42814 -0.17021
 O74 O 0.61140 0.40561 0.03741
 O75 O 0.52642 0.27872 0.07288
 C76 C 0.51959 0.22411 0.11830
 O77 O 0.56199 0.19569 0.09569
 O78 O 0.69409 0.24390 0.16737
 C79 C 0.75329 0.29032 0.19647
 O80 O 0.78585 0.34561 0.14154
 O81 O 0.71350 0.42230 0.12739
 C82 C 0.65434 0.42977 0.11597
 Cr83 Cr 0.58486 0.32819 -0.04695
 Cr84 Cr 0.65795 0.22501 0.02809
 Cr85 Cr 0.75944 0.38883 0.02428
 O86 O 0.66704 0.31359 0.00243
 N87 N 0.36299 0.87362 -0.29016
 N88 N 0.40907 0.86223 -0.23390
 N89 N 0.12436 0.56371 -0.29179
 N90 N 0.17853 0.55504 -0.25521
 N91 N 0.47676 0.58787 -0.24201
 N92 N 0.49852 0.64435 -0.19746
 N93 N 0.47903 0.14810 -0.28963
 N94 N 0.54188 0.16393 -0.24863
 N95 N 0.88325 0.32794 -0.24438
 N96 N 0.84852 0.28750 -0.16902
 N97 N 0.68865 0.49046 -0.31610
 N98 N 0.72931 0.47266 -0.26387
 N99 N 0.83755 0.31956 0.33848
 N100 N 0.78419 0.27723 0.29355
 N101 N 0.45478 0.14873 0.26351
 N102 N 0.46022 0.19394 0.19794
 N103 N 0.67360 0.50632 0.26059
 N104 N 0.63078 0.46277 0.19742
 N105 N 0.12311 0.51943 0.25259
 N106 N 0.12793 0.57271 0.20403
 N107 N 0.40306 0.88070 0.26616
 N108 N 0.34577 0.85184 0.21109
 N109 N 0.49953 0.64189 0.30090
 N110 N 0.43584 0.60808 0.26452
   
