data_POSCAR
  _audit_creation_date              2014-09-24
  _audit_creation_method            'ToBaCCo'
  _symmetry_space_group_name_H-M    'P1'
  _symmetry_Int_Tables_number       1
  _symmetry_cell_setting            triclinic
  loop_
  _symmetry_equiv_pos_as_xyz
 x,y,z
_cell_length_a 44.9800
_cell_length_b 43.7704
_cell_length_c 25.7910
_cell_angle_alpha 90.004500
_cell_angle_beta 89.983700
_cell_angle_gamma 119.718000
loop_
  _atom_site_label
  _atom_site_type_symbol
  _atom_site_fract_x
  _atom_site_fract_y
  _atom_site_fract_z
C1 C 0.47583 0.92595 0.54848
 C2 C 0.46673 0.90860 0.50033
 C3 C 0.47588 0.92677 0.45333
 C4 C 0.49560 0.96389 0.45339
 C5 C 0.50560 0.98242 0.50107
 C6 C 0.49707 0.96340 0.54865
 C7 C 0.51302 0.98221 0.59400
 C8 C 0.53257 1.01862 0.59402
 C9 C 0.53725 1.03846 0.54877
 C10 C 0.52559 1.02002 0.50104
 C11 C 0.50775 0.98275 0.40702
 C12 C 0.52745 1.01914 0.40697
 C13 C 0.53516 1.03879 0.45320
 C14 C 0.55483 1.07631 0.45338
 C15 C 0.56592 1.09364 0.50131
 C16 C 0.55626 1.07594 0.54910
 H17 H 0.51265 0.96925 0.62972
 H18 H 0.54562 1.03058 0.62975
 H19 H 0.50341 0.96956 0.37006
 H20 H 0.53788 1.03103 0.36998
 H21 H 0.45068 0.88022 0.49884
 H22 H 0.58012 1.12214 0.50152
 C23 C -0.07473 0.46006 0.45258
 C24 C -0.09245 0.44954 0.49953
 C25 C -0.07567 0.45876 0.54782
 C26 C -0.03903 0.47719 0.54826
 C27 C -0.02065 0.48831 0.50057
 C28 C -0.03858 0.47950 0.45271
 C29 C -0.01985 0.48870 0.40616
 C30 C 0.01569 0.50725 0.40627
 C31 C 0.03417 0.51739 0.45294
 C32 C 0.01588 0.50723 0.50057
 C33 C -0.02002 0.48240 0.59411
 C34 C 0.01553 0.50121 0.59414
 C35 C 0.03405 0.51486 0.54812
 C36 C 0.07032 0.53393 0.54798
 C37 C 0.08781 0.54358 0.50071
 C38 C 0.07045 0.53581 0.45338
 H39 H -0.03236 0.48085 0.36889
 H40 H 0.02840 0.51262 0.36911
 H41 H -0.03188 0.47062 0.63052
 H42 H 0.02829 0.50362 0.63067
 H43 H -0.12019 0.43551 0.49791
 H44 H 0.11559 0.55815 0.50077
 C45 C 0.44741 0.52434 0.54801
 C46 C 0.43509 0.52840 0.49984
 C47 C 0.44722 0.52299 0.45289
 C48 C 0.47065 0.51032 0.45304
 C49 C 0.48207 0.50370 0.50085
 C50 C 0.47053 0.51068 0.54850
 C51 C 0.48141 0.50224 0.59476
 C52 C 0.50478 0.49028 0.59479
 C53 C 0.51617 0.48244 0.54850
 C54 C 0.50497 0.48983 0.50085
 C55 C 0.48231 0.50332 0.40645
 C56 C 0.50545 0.49109 0.40645
 C57 C 0.51680 0.48372 0.45302
 C58 C 0.54035 0.47121 0.45288
 C59 C 0.55218 0.46544 0.49983
 C60 C 0.53948 0.46901 0.54798
 H61 H 0.47178 0.50382 0.63225
 H62 H 0.51399 0.48825 0.63237
 H63 H 0.47359 0.50699 0.36916
 H64 H 0.51443 0.48775 0.36917
 H65 H 0.41773 0.53887 0.49822
 H66 H 0.56968 0.45514 0.49818
 O67 O 0.37680 0.65335 -0.04370
 O68 O 0.37818 0.71279 -0.05956
 C69 C 0.36314 0.73007 -0.06952
 O70 O 0.33767 0.72692 -0.04368
 O71 O 0.27983 0.66917 -0.05898
 C72 C 0.26312 0.63653 -0.06866
 O73 O 0.26653 0.61374 -0.04280
 O74 O 0.32280 0.61209 -0.05962
 C75 C 0.35450 0.62748 -0.06984
 O76 O 0.37603 0.66359 0.05962
 O77 O 0.38051 0.72447 0.04350
 C78 C 0.36000 0.73061 0.06944
 O79 O 0.32828 0.71619 0.05977
 O80 O 0.26910 0.66002 0.04447
 C81 C 0.26351 0.63289 0.07022
 O82 O 0.27776 0.61485 0.06012
 O83 O 0.33236 0.60988 0.04357
 C84 C 0.35861 0.63103 0.06955
 Cr85 Cr 0.37600 0.68766 -0.00002
 Cr86 Cr 0.30458 0.69203 0.00039
 Cr87 Cr 0.30088 0.61456 0.00032
 O88 O 0.32715 0.66477 0.00025
 O89 O 0.61685 0.34541 -0.04359
 O90 O 0.61870 0.28751 -0.05833
 C91 C 0.63518 0.27166 -0.06800
 O92 O 0.66124 0.27654 -0.04218
 O93 O 0.71703 0.33584 -0.05974
 C94 C 0.73234 0.36838 -0.07021
 O95 O 0.72796 0.39066 -0.04456
 O96 O 0.66987 0.38880 -0.06019
 C97 C 0.63812 0.37178 -0.07004
 O98 O 0.61897 0.33670 0.05994
 O99 O 0.61789 0.27726 0.04529
 C100 C 0.63971 0.27306 0.07108
 O101 O 0.67139 0.28896 0.06062
 O102 O 0.72881 0.34663 0.04311
 C103 C 0.73320 0.37335 0.06877
 O104 O 0.71748 0.38995 0.05885
 O105 O 0.66090 0.39127 0.04308
 C106 C 0.63519 0.36939 0.06940
 Cr107 Cr 0.61997 0.31269 0.00082
 Cr108 Cr 0.69367 0.31295 0.00045
 Cr109 Cr 0.69312 0.38825 -0.00067
 O110 O 0.66891 0.33796 0.00021
 N111 N 0.43739 0.84968 -0.36616
 C112 C 0.43496 0.86390 -0.32087
 N113 N 0.44579 0.89879 -0.31881
 N114 N 0.45897 0.91886 -0.36075
 C115 C 0.46230 0.90506 -0.40621
 N116 N 0.45058 0.86980 -0.40796
 C117 C 0.42188 0.84226 -0.27553
 C118 C 0.41134 0.82341 -0.23803
 C119 C 0.39932 0.80024 -0.19415
 N120 N 0.41467 0.78137 -0.18111
 N121 N 0.40322 0.75919 -0.14116
 C122 C 0.37602 0.75510 -0.11288
 N123 N 0.36070 0.77408 -0.12598
 N124 N 0.37216 0.79628 -0.16599
 N125 N 0.10355 0.57157 -0.32242
 C126 C 0.13146 0.56752 -0.31858
 N127 N 0.13910 0.55220 -0.35814
 N128 N 0.11936 0.54115 -0.40021
 C129 C 0.09116 0.54479 -0.40404
 N130 N 0.08380 0.56051 -0.36452
 C131 C 0.15304 0.57972 -0.27364
 C132 C 0.17163 0.58986 -0.23636
 C133 C 0.19422 0.60176 -0.19252
 N134 N 0.19846 0.57846 -0.16329
 N135 N 0.22022 0.58955 -0.12352
 C136 C 0.23849 0.62432 -0.11167
 N137 N 0.23413 0.64759 -0.14097
 N138 N 0.21236 0.63649 -0.18076
 N139 N 0.39826 0.54911 -0.36670
 C140 C 0.41789 0.55961 -0.32345
 N141 N 0.44755 0.55872 -0.32284
 N142 N 0.45704 0.54725 -0.36403
 C143 C 0.43718 0.53578 -0.40726
 N144 N 0.40783 0.53765 -0.40781
 C145 C 0.40731 0.57137 -0.27882
 C146 C 0.39821 0.58109 -0.24137
 C147 C 0.38715 0.59257 -0.19696
 N148 N 0.35351 0.57653 -0.18411
 N149 N 0.34314 0.58747 -0.14330
 C150 C 0.36606 0.61478 -0.11392
 N151 N 0.39975 0.63074 -0.12685
 N152 N 0.41012 0.61980 -0.16767
 N153 N 0.59710 0.15111 -0.36364
 C154 C 0.57885 0.13802 -0.31950
 N155 N 0.55302 0.10422 -0.31874
 N156 N 0.54588 0.08410 -0.36082
 C157 C 0.56443 0.09672 -0.40516
 N158 N 0.58991 0.13095 -0.40562
 C159 C 0.58694 0.15977 -0.27423
 C160 C 0.59436 0.17851 -0.23664
 C161 C 0.60395 0.20136 -0.19242
 N162 N 0.58667 0.21850 -0.18056
 N163 N 0.59637 0.24064 -0.14052
 C164 C 0.62370 0.24639 -0.11106
 N165 N 0.64087 0.22909 -0.12299
 N166 N 0.63117 0.20696 -0.16301
 N167 N 0.89538 0.46002 -0.32017
 C168 C 0.86239 0.43378 -0.32225
 N169 N 0.84998 0.41617 -0.36733
 N170 N 0.87006 0.42430 -0.40890
 C171 C 0.90351 0.45008 -0.40708
 N172 N 0.91542 0.46811 -0.36186
 C173 C 0.84093 0.42415 -0.27716
 C174 C 0.82246 0.41519 -0.23972
 C175 C 0.79998 0.40353 -0.19572
 N176 N 0.79475 0.42660 -0.16754
 N177 N 0.77334 0.41547 -0.12728
 C178 C 0.75646 0.38090 -0.11390
 N179 N 0.76182 0.35791 -0.14219
 N180 N 0.78322 0.36903 -0.18241
 N181 N 0.58912 0.44489 -0.36679
 C182 C 0.56942 0.43405 -0.32362
 N183 N 0.53949 0.43441 -0.32307
 N184 N 0.52982 0.44571 -0.36424
 C185 C 0.54976 0.45755 -0.40737
 N186 N 0.57937 0.45618 -0.40787
 C187 C 0.58039 0.42278 -0.27888
 C188 C 0.59006 0.41370 -0.24141
 C189 C 0.60214 0.40325 -0.19705
 N190 N 0.58018 0.37544 -0.16767
 N191 N 0.59158 0.36556 -0.12689
 C192 C 0.62531 0.38318 -0.11411
 N193 N 0.64720 0.41105 -0.14358
 N194 N 0.63580 0.42093 -0.18434
 N195 N 0.85886 0.40920 0.35503
 C196 C 0.86433 0.43409 0.31917
 N197 N 0.89002 0.46753 0.32671
 N198 N 0.90973 0.47578 0.36877
 C199 C 0.90459 0.45081 0.40450
 N200 N 0.87856 0.41744 0.39707
 C201 C 0.84279 0.42511 0.27426
 C202 C 0.82428 0.41700 0.23693
 C203 C 0.80181 0.40662 0.19297
 N204 N 0.79662 0.37863 0.16381
 N205 N 0.77498 0.36826 0.12391
 C206 C 0.75778 0.38551 0.11184
 N207 N 0.76311 0.41360 0.14107
 N208 N 0.78476 0.42397 0.18099
 N209 N 0.55040 0.10704 0.32335
 C210 C 0.57778 0.13997 0.32369
 N211 N 0.59722 0.15178 0.36698
 N212 N 0.58974 0.13114 0.40846
 C213 C 0.56276 0.09767 0.40829
 N214 N 0.54296 0.08645 0.36494
 C215 C 0.58663 0.16196 0.27858
 C216 C 0.59503 0.18089 0.24109
 C217 C 0.60612 0.20392 0.19702
 N218 N 0.58347 0.20896 0.16882
 N219 N 0.59409 0.23085 0.12842
 C220 C 0.62772 0.24842 0.11494
 N221 N 0.65029 0.24324 0.14327
 N222 N 0.63967 0.22137 0.18361
 N223 N 0.53896 0.42938 0.32776
 C224 C 0.57267 0.44102 0.31967
 N225 N 0.59583 0.46288 0.35490
 N226 N 0.58559 0.47294 0.39683
 C227 C 0.55185 0.46169 0.40475
 N228 N 0.52871 0.43943 0.36967
 C229 C 0.58358 0.42945 0.27517
 C230 C 0.59257 0.41931 0.23807
 C231 C 0.60311 0.40674 0.19430
 N232 N 0.63027 0.42926 0.16506
 N233 N 0.64036 0.41741 0.12497
 C234 C 0.62361 0.38264 0.11278
 N235 N 0.59637 0.36018 0.14212
 N236 N 0.58630 0.37204 0.18218
 N237 N 0.10629 0.57695 0.32638
 C238 C 0.13211 0.56968 0.32051
 N239 N 0.13755 0.55129 0.35795
 N240 N 0.11770 0.54034 0.39989
 C241 C 0.09153 0.54714 0.40569
 N242 N 0.08641 0.56599 0.36838
 C243 C 0.15367 0.58134 0.27548
 C244 C 0.17231 0.59068 0.23823
 C245 C 0.19504 0.60123 0.19457
 N246 N 0.21078 0.58273 0.18165
 N247 N 0.23246 0.59275 0.14182
 C248 C 0.23915 0.62165 0.11355
 N249 N 0.22330 0.64012 0.12655
 N250 N 0.20161 0.63009 0.16643
 N251 N 0.45388 0.85641 0.35695
 C252 C 0.43780 0.86472 0.31977
 N253 N 0.43441 0.89360 0.32602
 N254 N 0.44687 0.91365 0.36815
 C255 C 0.46335 0.90562 0.40524
 N256 N 0.46633 0.87644 0.39904
 C257 C 0.42413 0.84281 0.27481
 C258 C 0.41275 0.82391 0.23749
 C259 C 0.39937 0.80090 0.19358
 N260 N 0.36559 0.78516 0.18182
 N261 N 0.35304 0.76296 0.14194
 C262 C 0.37388 0.75575 0.11255
 N263 N 0.40772 0.77163 0.12441
 N264 N 0.42025 0.79382 0.16427
 N265 N 0.45032 0.56649 0.32864
 C266 C 0.41675 0.55532 0.31993
 N267 N 0.39313 0.53322 0.35446
 N268 N 0.40277 0.52248 0.39631
 C269 C 0.43635 0.53326 0.40483
 N270 N 0.45996 0.55577 0.37047
 C271 C 0.40651 0.56759 0.27549
 C272 C 0.39813 0.57833 0.23842
 C273 C 0.38834 0.59160 0.19463
 N274 N 0.36063 0.56986 0.16574
 N275 N 0.35129 0.58237 0.12560
 C276 C 0.36935 0.61704 0.11301
 N277 N 0.39712 0.63872 0.14201
 N278 N 0.40645 0.62620 0.18213
   
