data_POSCAR
  _audit_creation_date              2014-09-24
  _audit_creation_method            'ToBaCCo'
  _symmetry_space_group_name_H-M    'P1'
  _symmetry_Int_Tables_number       1
  _symmetry_cell_setting            triclinic
  loop_
  _symmetry_equiv_pos_as_xyz
 x,y,z
_cell_length_a 32.0463
_cell_length_b 32.0440
_cell_length_c 32.0441
_cell_angle_alpha 90.000000
_cell_angle_beta 90.000000
_cell_angle_gamma 90.000000
loop_
  _atom_site_label
  _atom_site_type_symbol
  _atom_site_fract_x
  _atom_site_fract_y
  _atom_site_fract_z
C1 C 0.25000 0.50000 1.00000
 C2 C 0.75000 0.50000 -0.00000
 C3 C 0.00000 0.25001 0.50001
 C4 C 1.00000 0.74999 0.49999
 C5 C 0.50000 0.00001 0.24999
 C6 C 0.50000 -0.00001 0.75000
 C7 C 0.31363 0.03216 0.45017
 H8 H 0.31427 0.05601 0.47406
 C9 C 0.34243 0.03329 0.41752
 H10 H 0.36531 0.05815 0.41614
 C11 C 0.28409 -0.03032 0.42360
 H12 H 0.26197 -0.05556 0.42662
 C13 C 0.31241 -0.03038 0.39042
 H14 H 0.31180 -0.05549 0.36779
 N15 N 0.28517 0.00074 0.45259
 C16 C 0.18638 0.04983 0.53216
 H17 H 0.18574 0.02594 0.55601
 C18 C 0.15757 0.08248 0.53329
 H19 H 0.13470 0.08386 0.55815
 C20 C 0.21591 0.07640 0.46968
 H21 H 0.23804 0.07338 0.44444
 C22 C 0.18759 0.10958 0.46962
 H23 H 0.18820 0.13221 0.44451
 Zn24 Zn 0.25000 -0.00000 0.50000
 N25 N 0.21483 0.04741 0.50074
 C26 C 0.28409 0.03032 0.57640
 N27 N 0.28517 -0.00074 0.54741
 C28 C 0.31363 -0.03216 0.54983
 C29 C 0.34243 -0.03329 0.58248
 C30 C 0.31241 0.03038 0.60958
 C31 C 0.18638 -0.04983 0.46784
 C32 C 0.15757 -0.08248 0.46671
 C33 C 0.18759 -0.10958 0.53038
 C34 C 0.21591 -0.07640 0.53032
 N35 N 0.21483 -0.04741 0.49926
 H36 H 0.26197 0.05556 0.57338
 H37 H 0.31427 -0.05601 0.52594
 H38 H 0.36531 -0.05815 0.58386
 H39 H 0.31180 0.05549 0.63221
 H40 H 0.18574 -0.02594 0.44399
 H41 H 0.13470 -0.08386 0.44185
 H42 H 0.18820 -0.13221 0.55549
 H43 H 0.23804 -0.07338 0.55556
 C44 C 0.15806 0.11250 0.50163
 C45 C 0.34194 0.00163 0.38750
 C46 C 0.15806 -0.11250 0.49837
 C47 C 0.34194 -0.00163 0.61250
 C48 C 0.68638 0.03215 0.54983
 H49 H 0.68574 0.05601 0.52595
 C50 C 0.65757 0.03328 0.58248
 H51 H 0.63470 0.05814 0.58387
 C52 C 0.71591 -0.03033 0.57640
 H53 H 0.73804 -0.05557 0.57338
 C54 C 0.68759 -0.03039 0.60958
 H55 H 0.68820 -0.05550 0.63220
 N56 N 0.71483 0.00074 0.54741
 C57 C 0.81363 0.04983 0.46785
 H58 H 0.81427 0.02595 0.44399
 C59 C 0.84243 0.08248 0.46672
 H60 H 0.86531 0.08387 0.44186
 C61 C 0.78409 0.07640 0.53033
 H62 H 0.76197 0.07338 0.55557
 C63 C 0.81241 0.10958 0.53039
 H64 H 0.81180 0.13220 0.55550
 Zn65 Zn 0.75000 0.00000 0.50000
 N66 N 0.78517 0.04741 0.49926
 C67 C 0.71591 0.03033 0.42360
 N68 N 0.71483 -0.00074 0.45258
 C69 C 0.68638 -0.03215 0.45016
 C70 C 0.65757 -0.03328 0.41752
 C71 C 0.68759 0.03039 0.39042
 C72 C 0.81363 -0.04983 0.53215
 C73 C 0.84243 -0.08248 0.53328
 C74 C 0.81241 -0.10958 0.46961
 C75 C 0.78409 -0.07640 0.46967
 N76 N 0.78517 -0.04741 0.50073
 H77 H 0.73804 0.05557 0.42662
 H78 H 0.68574 -0.05601 0.47405
 H79 H 0.63470 -0.05814 0.41613
 H80 H 0.68820 0.05550 0.36779
 H81 H 0.81427 -0.02595 0.55601
 H82 H 0.86531 -0.08387 0.55814
 H83 H 0.81180 -0.13220 0.44450
 H84 H 0.76197 -0.07338 0.44443
 C85 C 0.84194 0.11250 0.49838
 C86 C 0.65806 0.00162 0.61250
 C87 C 0.84194 -0.11250 0.50162
 C88 C 0.65806 -0.00162 0.38750
 C89 C 0.46769 0.18638 1.04976
 H90 H 0.44390 0.18572 1.02581
 C91 C 0.46651 0.15757 1.08240
 H92 H 0.44167 0.13467 1.08373
 C93 C 0.53008 0.21596 1.07647
 H94 H 0.55532 0.23810 1.07351
 C95 C 0.53008 0.18764 1.10966
 H96 H 0.55514 0.18827 1.13234
 N97 N 0.49910 0.21485 1.04741
 C98 C 0.45034 0.31367 0.96763
 H99 H 0.47436 0.31433 0.94391
 C100 C 0.41769 0.34246 0.96633
 H101 H 0.41644 0.36535 0.94148
 C102 C 0.42344 0.28408 1.02994
 H103 H 0.42632 0.26193 1.05518
 C104 C 0.39024 0.31238 1.02982
 H105 H 0.36748 0.31175 1.05481
 Zn106 Zn 0.50000 0.25002 0.99999
 N107 N 0.45259 0.28520 0.99905
 C108 C 0.46992 0.21596 0.92351
 N109 N 0.50090 0.21485 0.95257
 C110 C 0.53230 0.18638 0.95023
 C111 C 0.53349 0.15756 0.91759
 C112 C 0.46992 0.18764 0.89033
 C113 C 0.54965 0.31367 1.03235
 C114 C 0.58231 0.34246 1.03365
 C115 C 0.60976 0.31238 0.97016
 C116 C 0.57656 0.28408 0.97005
 N117 N 0.54740 0.28520 1.00094
 H118 H 0.44468 0.23809 0.92647
 H119 H 0.55609 0.18572 0.97418
 H120 H 0.55833 0.13467 0.91627
 H121 H 0.44486 0.18826 0.86765
 H122 H 0.52563 0.31433 1.05607
 H123 H 0.58355 0.36536 1.05850
 H124 H 0.63252 0.31175 0.94518
 H125 H 0.57368 0.26193 0.94481
 C126 C 0.38749 0.34193 0.99781
 C127 C 0.49809 0.15808 1.11250
 C128 C 0.61251 0.34193 1.00217
 C129 C 0.50191 0.15808 0.88749
 C130 C 0.46769 0.81362 -0.04976
 H131 H 0.44390 0.81428 -0.02581
 C132 C 0.46651 0.84243 -0.08241
 H133 H 0.44167 0.86533 -0.08373
 C134 C 0.53008 0.78404 -0.07647
 H135 H 0.55532 0.76190 -0.07352
 C136 C 0.53008 0.81236 -0.10966
 H137 H 0.55514 0.81173 -0.13234
 N138 N 0.49910 0.78515 -0.04741
 C139 C 0.45034 0.68633 0.03237
 H140 H 0.47436 0.68567 0.05609
 C141 C 0.41769 0.65754 0.03367
 H142 H 0.41644 0.63465 0.05852
 C143 C 0.42344 0.71592 -0.02994
 H144 H 0.42632 0.73807 -0.05518
 C145 C 0.39024 0.68762 -0.02982
 H146 H 0.36748 0.68825 -0.05481
 Zn147 Zn 0.50000 0.74998 0.00001
 N148 N 0.45259 0.71480 0.00095
 C149 C 0.46992 0.78404 0.07649
 N150 N 0.50090 0.78515 0.04742
 C151 C 0.53230 0.81362 0.04977
 C152 C 0.53349 0.84244 0.08241
 C153 C 0.46992 0.81236 0.10967
 C154 C 0.54965 0.68633 -0.03235
 C155 C 0.58231 0.65754 -0.03366
 C156 C 0.60976 0.68762 0.02984
 C157 C 0.57656 0.71592 0.02995
 N158 N 0.54740 0.71480 -0.00094
 H159 H 0.44468 0.76191 0.07353
 H160 H 0.55609 0.81428 0.02582
 H161 H 0.55833 0.86533 0.08373
 H162 H 0.44486 0.81174 0.13235
 H163 H 0.52563 0.68567 -0.05607
 H164 H 0.58355 0.63464 -0.05850
 H165 H 0.63252 0.68825 0.05482
 H166 H 0.57368 0.73807 0.05519
 C167 C 0.38749 0.65807 0.00219
 C168 C 0.49809 0.84192 -0.11250
 C169 C 0.61251 0.65807 -0.00217
 C170 C 0.50191 0.84192 0.11251
 C171 C 1.04965 0.46763 0.18633
 H172 H 1.02564 0.44391 0.18567
 C173 C 1.08231 0.46633 0.15754
 H174 H 1.08356 0.44148 0.13465
 C175 C 1.07656 0.52994 0.21592
 H176 H 1.07368 0.55518 0.23807
 C177 C 1.10976 0.52983 0.18762
 H178 H 1.13252 0.55481 0.18825
 N179 N 1.04740 0.49905 0.21480
 C180 C 0.96769 0.45023 0.31362
 H181 H 0.94390 0.47418 0.31428
 C182 C 0.96651 0.41759 0.34243
 H183 H 0.94167 0.41627 0.36533
 C184 C 1.03008 0.42351 0.28404
 H185 H 1.05532 0.42647 0.26190
 C186 C 1.03008 0.39033 0.31236
 H187 H 1.05514 0.36765 0.31174
 Zn188 Zn 1.00000 0.49999 0.24998
 N189 N 0.99910 0.45258 0.28515
 C190 C 0.92343 0.47005 0.21592
 N191 N 0.95259 0.50094 0.21480
 C192 C 0.95034 0.53235 0.18633
 C193 C 0.91769 0.53366 0.15754
 C194 C 0.89024 0.47016 0.18762
 C195 C 1.03230 0.54976 0.31362
 C196 C 1.03349 0.58240 0.34243
 C197 C 0.96991 0.60966 0.31236
 C198 C 0.96991 0.57647 0.28404
 N199 N 1.00090 0.54741 0.28515
 H200 H 0.92631 0.44481 0.23807
 H201 H 0.97436 0.55607 0.18567
 H202 H 0.91644 0.55850 0.13465
 H203 H 0.86747 0.44518 0.18825
 H204 H 1.05609 0.52581 0.31428
 H205 H 1.05833 0.58373 0.36533
 H206 H 0.94485 0.63234 0.31173
 H207 H 0.94468 0.57352 0.26190
 C208 C 0.99809 0.38749 0.34192
 C209 C 1.11251 0.49781 0.15806
 C210 C 1.00190 0.61250 0.34192
 C211 C 0.88749 0.50217 0.15807
 C212 C -0.04966 0.46765 0.81367
 H213 H -0.02564 0.44393 0.81433
 C214 C -0.08231 0.46634 0.84246
 H215 H -0.08356 0.44150 0.86535
 C216 C -0.07657 0.52995 0.78408
 H217 H -0.07369 0.55519 0.76193
 C218 C -0.10976 0.52984 0.81238
 H219 H -0.13253 0.55482 0.81175
 N220 N -0.04741 0.49906 0.78520
 C221 C 0.03230 0.45024 0.68638
 H222 H 0.05609 0.47419 0.68572
 C223 C 0.03349 0.41760 0.65757
 H224 H 0.05833 0.41627 0.63467
 C225 C -0.03009 0.42353 0.71596
 H226 H -0.05532 0.42648 0.73810
 C227 C -0.03009 0.39034 0.68764
 H228 H -0.05515 0.36766 0.68827
 Zn229 Zn -0.00000 0.50001 0.75002
 N230 N 0.00090 0.45259 0.71485
 C231 C 0.07656 0.47006 0.78408
 N232 N 0.04740 0.50095 0.78520
 C233 C 0.04965 0.53237 0.81367
 C234 C 0.08231 0.53367 0.84246
 C235 C 0.10975 0.47017 0.81238
 C236 C -0.03231 0.54977 0.68637
 C237 C -0.03349 0.58241 0.65756
 C238 C 0.03008 0.60967 0.68764
 C239 C 0.03008 0.57649 0.71596
 N240 N -0.00090 0.54743 0.71485
 H241 H 0.07368 0.44482 0.76193
 H242 H 0.02564 0.55609 0.81433
 H243 H 0.08356 0.55852 0.86535
 H244 H 0.13252 0.44519 0.81175
 H245 H -0.05610 0.52582 0.68571
 H246 H -0.05833 0.58373 0.63467
 H247 H 0.05514 0.63235 0.68826
 H248 H 0.05532 0.57353 0.73810
 C249 C 0.00190 0.38750 0.65808
 C250 C -0.11251 0.49783 0.84193
 C251 C -0.00191 0.61251 0.65808
 C252 C 0.11251 0.50219 0.84193
 C253 C 0.03711 0.22326 0.49999
 C254 C 0.06651 0.19976 0.50015
 C255 C 0.09962 0.17073 0.50052
 C256 C 0.12683 0.14477 0.50097
 C257 C 0.72325 0.53711 -0.00044
 C258 C 0.69976 0.56651 -0.00080
 C259 C 0.67073 0.59962 -0.00124
 C260 C 0.64477 0.62683 -0.00165
 C261 C 0.96289 -0.22326 0.49997
 C262 C 0.93349 -0.19976 0.50014
 C263 C 0.90039 -0.17073 0.50050
 C264 C 0.87317 -0.14477 0.50095
 C265 C 0.27674 0.46289 0.99956
 C266 C 0.30024 0.43349 0.99919
 C267 C 0.32927 0.40038 0.99875
 C268 C 0.35523 0.37317 0.99834
 C269 C 0.96289 0.22326 0.50002
 C270 C 0.93349 0.19976 0.49986
 C271 C 0.90039 0.17073 0.49949
 C272 C 0.87317 0.14477 0.49905
 C273 C 0.27674 0.53711 0.00044
 C274 C 0.30024 0.56651 0.00081
 C275 C 0.32927 0.59962 0.00125
 C276 C 0.35523 0.62683 0.00166
 C277 C 0.03711 -0.22326 0.50001
 C278 C 0.06651 -0.19976 0.49985
 C279 C 0.09962 -0.17073 0.49948
 C280 C 0.12683 -0.14477 0.49903
 C281 C 0.72325 0.46289 1.00044
 C282 C 0.69976 0.43349 1.00080
 C283 C 0.67073 0.40038 1.00124
 C284 C 0.64477 0.37317 1.00164
 C285 C 0.49990 0.03712 1.22325
 C286 C 0.49966 0.06651 1.19974
 C287 C 0.49922 0.09962 1.17071
 C288 C 0.49874 0.12684 1.14475
 C289 C -0.00010 0.72325 0.53711
 C290 C -0.00034 0.69975 0.56650
 C291 C -0.00078 0.67071 0.59961
 C292 C -0.00126 0.64476 0.62683
 C293 C 0.49990 0.96288 -0.22325
 C294 C 0.49966 0.93349 -0.19974
 C295 C 0.49922 0.90038 -0.17071
 C296 C 0.49874 0.87316 -0.14475
 C297 C 0.99990 0.27675 0.46289
 C298 C 0.99966 0.30025 0.43350
 C299 C 0.99922 0.32929 0.40039
 C300 C 0.99874 0.35524 0.37317
 C301 C 0.50010 0.96289 0.22325
 C302 C 0.50035 0.93350 0.19974
 C303 C 0.50079 0.90039 0.17071
 C304 C 0.50126 0.87317 0.14476
 C305 C 0.00010 0.27675 0.53712
 C306 C 0.00035 0.30026 0.56651
 C307 C 0.00078 0.32929 0.59962
 C308 C 0.00126 0.35525 0.62684
 C309 C 0.50010 0.03711 0.77675
 C310 C 0.50035 0.06650 0.80025
 C311 C 0.50079 0.09961 0.82929
 C312 C 0.50126 0.12683 0.85524
 C313 C 1.00010 0.72325 0.46288
 C314 C 1.00035 0.69974 0.43349
 C315 C 1.00078 0.67071 0.40038
 C316 C 1.00126 0.64475 0.37316
 C317 C 1.22325 0.49956 0.03711
 C318 C 1.19976 0.49919 0.06651
 C319 C 1.17073 0.49875 0.09962
 C320 C 1.14477 0.49834 0.12683
 C321 C 0.53711 -0.00003 0.72326
 C322 C 0.56651 0.00014 0.69976
 C323 C 0.59962 0.00050 0.67073
 C324 C 0.62683 0.00095 0.64477
 C325 C -0.22326 0.49956 0.96289
 C326 C -0.19976 0.49920 0.93349
 C327 C -0.17073 0.49876 0.90038
 C328 C -0.14477 0.49836 0.87317
 C329 C 0.46289 -0.00001 0.27674
 C330 C 0.43349 0.00015 0.30024
 C331 C 0.40039 0.00052 0.32927
 C332 C 0.37318 0.00097 0.35524
 C333 C 0.22325 0.50044 0.96289
 C334 C 0.19976 0.50081 0.93349
 C335 C 0.17073 0.50125 0.90038
 C336 C 0.14477 0.50166 0.87317
 C337 C 0.53711 0.00003 0.27674
 C338 C 0.56651 -0.00014 0.30024
 C339 C 0.59962 -0.00050 0.32927
 C340 C 0.62683 -0.00095 0.35523
 C341 C 0.77674 0.50044 0.03711
 C342 C 0.80024 0.50080 0.06651
 C343 C 0.82927 0.50124 0.09962
 C344 C 0.85523 0.50164 0.12683
 C345 C 0.46289 0.00001 0.72326
 C346 C 0.43349 -0.00015 0.69976
 C347 C 0.40039 -0.00052 0.67073
 C348 C 0.37318 -0.00097 0.64476
   
