data_POSCAR
  _audit_creation_date              2014-09-24
  _audit_creation_method            'ToBaCCo'
  _symmetry_space_group_name_H-M    'P1'
  _symmetry_Int_Tables_number       1
  _symmetry_cell_setting            triclinic
  loop_
  _symmetry_equiv_pos_as_xyz
 x,y,z
_cell_length_a 56.9076
_cell_length_b 56.8619
_cell_length_c 20.0603
_cell_angle_alpha 89.965200
_cell_angle_beta 90.016500
_cell_angle_gamma 119.957200
loop_
  _atom_site_label
  _atom_site_type_symbol
  _atom_site_fract_x
  _atom_site_fract_y
  _atom_site_fract_z
O1 O 0.26108 0.47655 0.56190
 O2 O 0.21461 0.47605 0.43323
 O3 O 0.26082 0.47660 0.43272
 O4 O 0.21491 0.47599 0.56278
 O5 O 0.23689 0.52088 0.56285
 O6 O 0.28281 0.52149 0.43277
 O7 O 0.23659 0.52093 0.43326
 O8 O 0.28307 0.52144 0.56196
 Cu9 Cu 0.23560 0.47176 0.49762
 Cu10 Cu 0.26203 0.52571 0.49769
 C11 C 0.28010 0.49909 0.58311
 C12 C 0.21762 0.49839 0.41188
 C13 C 0.27977 0.49914 0.41142
 C14 C 0.21804 0.49832 0.58446
 O15 O 0.52221 -0.26267 0.43495
 O16 O 0.52217 -0.21644 0.56350
 O17 O 0.52220 -0.26240 0.56423
 O18 O 0.52215 -0.21672 0.43426
 O19 O 0.47729 -0.23917 0.43429
 O20 O 0.47735 -0.28485 0.56426
 O21 O 0.47731 -0.23889 0.56352
 O22 O 0.47736 -0.28512 0.43496
 Cu23 Cu 0.52671 -0.23729 0.49923
 Cu24 Cu 0.47281 -0.26427 0.49926
 C25 C 0.49979 -0.28188 0.41377
 C26 C 0.49973 -0.21967 0.58466
 C27 C 0.49978 -0.28152 0.58567
 C28 C 0.49971 -0.22005 0.41290
 O29 O 1.26127 0.78447 0.43679
 O30 O 1.21477 0.73851 0.56542
 O31 O 1.26094 0.78414 0.56599
 O32 O 1.21508 0.73887 0.43583
 O33 O 1.23707 0.71596 0.43581
 O34 O 1.28296 0.76126 0.56602
 O35 O 1.23676 0.71560 0.56546
 O36 O 1.28328 0.76157 0.43677
 Cu37 Cu 1.23577 0.76377 0.50102
 Cu38 Cu 1.26220 0.73625 0.50103
 C39 C 1.28031 0.78096 0.41561
 C40 C 1.21779 0.71918 0.58684
 C41 C 1.27989 0.78055 0.58738
 C42 C 1.21822 0.71967 0.41415
 O43 O 0.78448 0.52328 0.43638
 O44 O 0.73846 0.52393 0.56465
 O45 O 0.78407 0.52330 0.56555
 O46 O 0.73890 0.52392 0.43512
 O47 O 0.71603 0.47903 0.43516
 O48 O 0.76122 0.47841 0.56564
 O49 O 0.71561 0.47905 0.56473
 O50 O 0.76162 0.47839 0.43645
 Cu51 Cu 0.76375 0.52814 0.50044
 Cu52 Cu 0.73628 0.47419 0.50052
 C53 C 0.78100 0.50072 0.41531
 C54 C 0.71914 0.50160 0.58600
 C55 C 0.78047 0.50075 0.58699
 C56 C 0.71973 0.50159 0.41346
 O57 O 0.47497 0.26032 0.43642
 O58 O 0.47494 0.21406 0.56519
 O59 O 0.47494 0.26000 0.56586
 O60 O 0.47513 0.21451 0.43575
 O61 O 0.51999 0.23695 0.43589
 O62 O 0.51979 0.28247 0.56610
 O63 O 0.51979 0.23652 0.56543
 O64 O 0.51982 0.28281 0.43662
 Cu65 Cu 0.47048 0.23496 0.50080
 Cu66 Cu 0.52438 0.26195 0.50105
 C67 C 0.49739 0.27949 0.41513
 C68 C 0.49736 0.21734 0.58667
 C69 C 0.49733 0.27905 0.58753
 C70 C 0.49757 0.21792 0.41422
 O71 O 0.78549 0.26204 0.56536
 O72 O 0.73942 0.21546 0.43703
 O73 O 0.78502 0.26163 0.43619
 O74 O 0.73990 0.21582 0.56665
 O75 O 0.71703 0.23785 0.56683
 O76 O 0.76218 0.28370 0.43632
 O77 O 0.71657 0.23751 0.43719
 O78 O 0.76265 0.28410 0.56555
 Cu79 Cu 0.76472 0.23648 0.50131
 Cu80 Cu 0.73727 0.26298 0.50151
 C81 C 0.78206 0.28114 0.58654
 C82 C 0.72013 0.21853 0.41570
 C83 C 0.78141 0.28059 0.41479
 C84 C 0.72073 0.21897 0.58842
 O85 O 0.96238 0.44088 0.12311
 O86 O 0.93235 0.44673 0.05856
 C87 C 0.93807 0.43486 0.10574
 O88 O 1.03829 0.56174 0.11631
 O89 O 1.06823 0.55460 0.05495
 C90 C 1.06260 0.56768 0.09900
 O91 O 0.96251 0.52136 0.12370
 O92 O 0.93238 0.48590 0.05833
 C93 C 0.93815 0.50329 0.10601
 O94 O 1.03817 0.47673 0.11743
 O95 O 1.06812 0.51410 0.05679
 C96 C 1.06249 0.49528 0.10067
 Zr97 Zr 1.00026 0.47066 0.08381
 O98 O 1.00269 0.47057 0.18913
 O99 O 0.99915 0.43306 0.07599
 Zr100 Zr 1.00023 0.53032 0.08183
 O101 O 1.00218 0.53532 0.18639
 O102 O 0.99708 0.56576 0.07198
 O103 O 0.97625 0.48851 0.09621
 O104 O 1.02363 0.51221 0.09538
 O105 O 1.03829 0.47637 -0.11691
 O106 O 1.06824 0.51374 -0.05639
 C107 C 1.06261 0.49485 -0.09993
 O108 O 0.96230 0.52158 -0.12443
 O109 O 0.93232 0.48569 -0.05985
 C110 C 0.93800 0.50328 -0.10699
 O111 O 1.03823 0.56141 -0.11904
 O112 O 1.06822 0.55423 -0.05780
 C113 C 1.06256 0.56729 -0.10198
 O114 O 0.96253 0.44109 -0.12476
 O115 O 0.93239 0.44655 -0.05968
 C116 C 0.93816 0.43485 -0.10718
 Zr117 Zr 1.00024 0.46999 -0.08319
 O118 O 1.00219 0.46709 -0.18781
 O119 O 0.99745 0.43155 -0.07381
 Zr120 Zr 1.00020 0.52963 -0.08543
 O121 O 1.00296 0.53143 -0.19077
 O122 O 0.99728 0.56532 -0.08343
 Zr123 Zr 0.95955 0.47981 -0.00070
 Zr124 Zr 1.04075 0.52045 -0.00076
 O125 O 1.02362 0.51147 -0.09692
 O126 O 0.97620 0.48777 -0.09769
 O127 O 1.02474 0.47809 0.00047
 O128 O 0.97630 0.52223 -0.00177
 O129 O 0.97625 0.45411 0.00038
 O130 O 1.02467 0.54679 -0.00190
 H131 H 1.03553 0.51820 0.13516
 H132 H 0.96375 0.52957 -0.00180
 H133 H 1.03561 0.51735 -0.13654
 H134 H 0.96374 0.43422 0.00044
 H135 H 1.01495 0.58073 0.05742
 H136 H 1.01335 0.57941 -0.05940
 H137 H 0.98815 0.51406 -0.20835
 H138 H 1.00011 0.48195 -0.20690
 H139 H 1.01410 0.43432 -0.05115
 H140 H 0.99908 0.42697 0.12232
 H141 H 0.98885 0.47459 0.20689
 H142 H 0.99999 0.51836 0.20564
 O143 O 0.44108 0.47890 0.12280
 O144 O 0.44688 0.51477 0.05818
 C145 C 0.43505 0.49721 0.10540
 O146 O 0.56190 0.52374 0.11551
 O147 O 0.55475 0.48664 0.05422
 C148 C 0.56785 0.50537 0.09819
 O149 O 0.52144 0.55914 0.12313
 O150 O 0.48597 0.55384 0.05779
 C151 C 0.50335 0.56545 0.10547
 O152 O 0.47702 0.43891 0.11715
 O153 O 0.51430 0.44624 0.05637
 C154 C 0.49555 0.43311 0.10037
 Zr155 Zr 0.47085 0.47074 0.08352
 O156 O 0.47090 0.46833 0.18884
 O157 O 0.43330 0.43428 0.07603
 Zr158 Zr 0.53042 0.53039 0.08119
 O159 O 0.53549 0.53340 0.18577
 O160 O 0.56580 0.56896 0.07135
 O161 O 0.48867 0.51261 0.09575
 O162 O 0.51239 0.48889 0.09494
 O163 O 0.47633 0.43827 -0.11722
 O164 O 0.51380 0.44577 -0.05704
 C165 C 0.49486 0.43246 -0.10036
 O166 O 0.52149 0.55948 -0.12508
 O167 O 0.48568 0.55366 -0.06040
 C168 C 0.50320 0.56552 -0.10763
 O169 O 0.56132 0.52326 -0.11977
 O170 O 0.55424 0.48616 -0.05834
 C171 C 0.56723 0.50481 -0.10267
 O172 O 0.44109 0.47884 -0.12497
 O173 O 0.44660 0.51449 -0.05997
 C174 C 0.43486 0.49700 -0.10740
 Zr175 Zr 0.47004 0.47002 -0.08353
 O176 O 0.46722 0.46523 -0.18816
 O177 O 0.43164 0.43443 -0.07422
 Zr178 Zr 0.52962 0.52964 -0.08601
 O179 O 0.53143 0.52869 -0.19137
 O180 O 0.56528 0.56821 -0.08400
 Zr181 Zr 0.47989 0.52058 -0.00116
 Zr182 Zr 0.52054 0.47993 -0.00120
 O183 O 0.51148 0.48806 -0.09736
 O184 O 0.48777 0.51182 -0.09816
 O185 O 0.47822 0.45364 0.00017
 O186 O 0.52227 0.54620 -0.00239
 O187 O 0.45424 0.47819 0.00010
 O188 O 0.54683 0.52234 -0.00254
 H189 H 0.51843 0.48301 0.13471
 H190 H 0.52958 0.56610 -0.00249
 H191 H 0.51730 0.48192 -0.13704
 H192 H 0.43436 0.47082 0.00020
 H193 H 0.58072 0.56607 0.05627
 H194 H 0.57944 0.56616 -0.06049
 H195 H 0.51412 0.52626 -0.20903
 H196 H 0.48173 0.48236 -0.20721
 H197 H 0.43437 0.42062 -0.05095
 H198 H 0.42728 0.42831 0.12241
 H199 H 0.47474 0.48614 0.20652
 H200 H 0.51845 0.51880 0.20502
 O201 O 0.52141 -0.03768 0.12376
 O202 O 0.48560 -0.06768 0.05910
 C203 C 0.50313 -0.06200 0.10634
 O204 O 0.47658 0.03838 0.11666
 O205 O 0.51370 0.06835 0.05555
 C206 C 0.49494 0.06270 0.09944
 O207 O 0.44118 -0.03743 0.12405
 O208 O 0.44651 -0.06759 0.05870
 C209 C 0.43487 -0.06182 0.10635
 O210 O 0.56134 0.03829 0.11798
 O211 O 0.55406 0.06835 0.05709
 C212 C 0.56716 0.06266 0.10114
 Zr213 Zr 0.52956 0.00027 0.08446
 O214 O 0.53204 0.00262 0.18979
 O215 O 0.56601 -0.00087 0.07678
 Zr216 Zr 0.46997 0.00031 0.08224
 O217 O 0.46691 0.00229 0.18678
 O218 O 0.43141 -0.00285 0.07259
 O219 O 0.48773 -0.02374 0.09671
 O220 O 0.51142 0.02369 0.09590
 O221 O 0.56203 0.03829 -0.11633
 O222 O 0.55461 0.06828 -0.05590
 C223 C 0.56786 0.06262 -0.09940
 O224 O 0.44094 -0.03757 -0.12417
 O225 O 0.44672 -0.06763 -0.05941
 C226 C 0.43488 -0.06191 -0.10666
 O227 O 0.47695 0.03835 -0.11887
 O228 O 0.51398 0.06830 -0.05738
 C229 C 0.49533 0.06268 -0.10165
 O230 O 0.52154 -0.03747 -0.12408
 O231 O 0.48589 -0.06760 -0.05913
 C232 C 0.50338 -0.06185 -0.10656
 Zr233 Zr 0.53031 0.00027 -0.08257
 O234 O 0.53519 0.00231 -0.18716
 O235 O 0.56590 -0.00259 -0.07308
 Zr236 Zr 0.47075 0.00034 -0.08508
 O237 O 0.47175 0.00314 -0.19042
 O238 O 0.43217 -0.00257 -0.08283
 Zr239 Zr 0.47978 -0.04042 -0.00022
 Zr240 Zr 0.52039 0.04087 -0.00021
 O241 O 0.51229 0.02375 -0.09638
 O242 O 0.48856 -0.02373 -0.09721
 O243 O 0.54667 0.02477 0.00114
 O244 O 0.45417 -0.02360 -0.00143
 O245 O 0.52214 -0.02374 0.00104
 O246 O 0.47801 0.02480 -0.00151
 H247 H 0.51732 0.03564 0.13560
 H248 H 0.43429 -0.03612 -0.00152
 H249 H 0.51842 0.03576 -0.13599
 H250 H 0.52949 -0.03629 0.00114
 H251 H 0.43430 0.01494 0.05727
 H252 H 0.43422 0.01368 -0.05951
 H253 H 0.47424 -0.01172 -0.20803
 H254 H 0.51818 -0.00002 -0.20625
 H255 H 0.57976 0.01403 -0.05026
 H256 H 0.57198 -0.00099 0.12312
 H257 H 0.51420 -0.01121 0.20754
 H258 H 0.48161 0.00001 0.20606
 C259 C 1.14859 0.49380 0.18163
 C260 C 1.16782 0.51775 0.22738
 C261 C 1.16263 0.49743 0.28380
 C262 C 1.14376 0.47349 0.23881
 C263 C 1.12455 0.49639 0.20731
 C264 C 1.11940 0.47609 0.26375
 C265 C 1.14343 0.52031 0.25232
 C266 C 1.13856 0.50002 0.30931
 C267 C 1.18329 0.49789 0.32833
 C268 C 1.19971 0.49817 0.36679
 C269 C 1.10290 0.49586 0.16663
 C270 C 1.08466 0.49552 0.13530
 H271 H 1.15244 0.49122 0.12863
 H272 H 1.18795 0.53490 0.21287
 H273 H 1.14414 0.45425 0.23373
 H274 H 1.09927 0.45895 0.27832
 H275 H 1.14304 0.53956 0.25744
 H276 H 1.13464 0.50259 0.36226
 C277 C 0.52008 0.63947 0.27282
 C278 C 0.52460 0.66710 0.24705
 C279 C 0.50012 0.66302 0.28839
 C280 C 0.49560 0.63568 0.31473
 C281 C 0.50084 0.62530 0.21399
 C282 C 0.47635 0.62121 0.25533
 C283 C 0.50535 0.65262 0.18752
 C284 C 0.48084 0.64887 0.22959
 C285 C 0.49989 0.68365 0.33173
 C286 C 0.49981 0.70013 0.36935
 C287 C 0.50156 0.60415 0.17386
 C288 C 0.50233 0.58658 0.14205
 H289 H 0.53620 0.63534 0.29021
 H290 H 0.54444 0.68618 0.24400
 H291 H 0.49160 0.62895 0.36751
 H292 H 0.45651 0.60212 0.25835
 H293 H 0.50933 0.65929 0.13469
 H294 H 0.46472 0.65300 0.21227
 C295 C 0.34759 -0.14701 0.18733
 C296 C 0.35123 -0.16776 0.22986
 C297 C 0.33679 -0.16270 0.28811
 C298 C 0.33281 -0.14230 0.24630
 C299 C 0.37473 -0.12418 0.21431
 C300 C 0.36027 -0.11917 0.27259
 C301 C 0.37872 -0.14458 0.25613
 C302 C 0.36395 -0.13985 0.31496
 C303 C 0.31604 -0.18357 0.33120
 C304 C 0.29944 -0.20011 0.36865
 C305 C 0.39601 -0.10230 0.17444
 C306 C 0.41367 -0.08397 0.14278
 H307 H 0.34113 -0.14968 0.13434
 H308 H 0.34726 -0.18798 0.21271
 H309 H 0.31371 -0.14159 0.24262
 H310 H 0.36422 -0.09897 0.28982
 H311 H 0.39782 -0.14529 0.25982
 H312 H 0.37045 -0.13714 0.36793
 C313 C 0.85558 0.47674 0.25608
 C314 C 0.86029 0.49625 0.31487
 C315 C 0.83737 0.50049 0.28812
 C316 C 0.83231 0.48096 0.22992
 C317 C 0.87584 0.50110 0.21412
 C318 C 0.85293 0.50534 0.18724
 C319 C 0.88085 0.52060 0.27234
 C320 C 0.85763 0.52485 0.24616
 C321 C 0.81650 0.50039 0.33118
 C322 C 0.79995 0.50048 0.36852
 C323 C 0.89770 0.50169 0.17417
 C324 C 0.91602 0.50236 0.14248
 H325 H 0.85498 0.45696 0.25976
 H326 H 0.86309 0.49250 0.36781
 H327 H 0.81212 0.46467 0.21290
 H328 H 0.85017 0.50908 0.13427
 H329 H 0.90102 0.53689 0.28945
 H330 H 0.85824 0.54462 0.24248
 C331 C 0.47933 0.36050 0.27050
 C332 C 0.47187 0.33158 0.24774
 C333 C 0.49710 0.33482 0.28409
 C334 C 0.50454 0.36346 0.30742
 C335 C 0.49660 0.37211 0.20728
 C336 C 0.52182 0.37535 0.24365
 C337 C 0.48915 0.34349 0.18380
 C338 C 0.51439 0.34640 0.22090
 C339 C 0.49729 0.31450 0.32877
 C340 C 0.49737 0.29826 0.36729
 C341 C 0.49620 0.39330 0.16649
 C342 C 0.49586 0.41120 0.13508
 H343 H 0.46492 0.36653 0.29049
 H344 H 0.45133 0.31336 0.24987
 H345 H 0.51086 0.37146 0.35872
 H346 H 0.54237 0.39357 0.24157
 H347 H 0.48282 0.33554 0.13247
 H348 H 0.52880 0.34035 0.20101
 C349 C 0.62349 0.14453 0.25059
 C350 C 0.63790 0.13942 0.30962
 C351 C 0.66517 0.16271 0.28457
 C352 C 0.65107 0.16815 0.22610
 C353 C 0.62807 0.12472 0.20800
 C354 C 0.65532 0.14798 0.18276
 C355 C 0.64219 0.11933 0.26648
 C356 C 0.66976 0.14290 0.24198
 C357 C 0.68536 0.18331 0.32925
 C358 C 0.70149 0.19968 0.36782
 C359 C 0.60694 0.10308 0.16728
 C360 C 0.58906 0.08484 0.13588
 H361 H 0.60425 0.14498 0.25376
 H362 H 0.63093 0.13610 0.36224
 H363 H 0.65493 0.18845 0.20992
 H364 H 0.66221 0.15123 0.13009
 H365 H 0.63832 0.09903 0.28269
 H366 H 0.68900 0.14243 0.23881
 C367 C 0.48993 0.14662 -0.18416
 C368 C 0.51497 0.16829 -0.22318
 C369 C 0.49698 0.16264 -0.28502
 C370 C 0.47196 0.14134 -0.24675
 C371 C 0.49632 0.12478 -0.20822
 C372 C 0.47837 0.11919 -0.27008
 C373 C 0.52135 0.14609 -0.24649
 C374 C 0.50338 0.14077 -0.30891
 C375 C 0.49723 0.18318 -0.32967
 C376 C 0.49733 0.19952 -0.36820
 C377 C 0.49587 0.10315 -0.16746
 C378 C 0.49555 0.08489 -0.13617
 H379 H 0.48441 0.14877 -0.13236
 H380 H 0.53002 0.18872 -0.20438
 H381 H 0.45164 0.13959 -0.24727
 H382 H 0.46331 0.09877 -0.28897
 H383 H 0.54168 0.14784 -0.24598
 H384 H 0.50891 0.13858 -0.36067
 C385 C 0.64144 0.52234 -0.26932
 C386 C 0.66938 0.52722 -0.24518
 C387 C 0.66507 0.50253 -0.28607
 C388 C 0.63743 0.49766 -0.31077
 C389 C 0.62798 0.50341 -0.20948
 C390 C 0.62368 0.47873 -0.25039
 C391 C 0.65560 0.50829 -0.18462
 C392 C 0.65164 0.48358 -0.22627
 C393 C 0.68529 0.50212 -0.33059
 C394 C 0.70145 0.50185 -0.36900
 C395 C 0.60690 0.50400 -0.16878
 C396 C 0.58907 0.50445 -0.13740
 H397 H 0.63701 0.53827 -0.28661
 H398 H 0.68838 0.54717 -0.24348
 H399 H 0.63016 0.49329 -0.36311
 H400 H 0.60467 0.45878 -0.25212
 H401 H 0.66281 0.51265 -0.13224
 H402 H 0.65607 0.46764 -0.20907
 C403 C 0.85511 0.37841 -0.25548
 C404 C 0.85988 0.36411 -0.31531
 C405 C 0.83742 0.33665 -0.28874
 C406 C 0.83231 0.35063 -0.22949
 C407 C 0.87588 0.37460 -0.21491
 C408 C 0.85344 0.34717 -0.18819
 C409 C 0.88094 0.36060 -0.27418
 C410 C 0.85819 0.33285 -0.24816
 C411 C 0.81657 0.31589 -0.33182
 C412 C 0.80003 0.29929 -0.36925
 C413 C 0.89772 0.39591 -0.17509
 C414 C 0.91604 0.41360 -0.14351
 H415 H 0.85409 0.39739 -0.25811
 H416 H 0.86231 0.37086 -0.36806
 H417 H 0.81209 0.34630 -0.21150
 H418 H 0.85107 0.34048 -0.13541
 H419 H 0.90116 0.36493 -0.29221
 H420 H 0.85924 0.31389 -0.24551
 C421 C 0.50519 -0.14729 -0.18739
 C422 C 0.48072 -0.16793 -0.22974
 C423 C 0.50010 -0.16300 -0.28816
 C424 C 0.52455 -0.14273 -0.24654
 C425 C 0.50100 -0.12434 -0.21429
 C426 C 0.52036 -0.11946 -0.27275
 C427 C 0.47655 -0.14461 -0.25592
 C428 C 0.49591 -0.14003 -0.31493
 C429 C 0.49981 -0.18398 -0.33115
 C430 C 0.49973 -0.20062 -0.36849
 C431 C 0.50172 -0.10240 -0.17445
 C432 C 0.50245 -0.08401 -0.14288
 H433 H 0.50900 -0.15001 -0.13445
 H434 H 0.46442 -0.18809 -0.21248
 H435 H 0.54428 -0.14219 -0.24308
 H436 H 0.53665 -0.09931 -0.29009
 H437 H 0.45682 -0.14514 -0.25937
 H438 H 0.49208 -0.13727 -0.36785
 C439 C 0.36608 0.52077 -0.21109
 C440 C 0.36639 0.52212 -0.28828
 C441 C 0.33657 0.49936 -0.28917
 C442 C 0.33590 0.49800 -0.21265
 C443 C 0.37456 0.49903 -0.21503
 C444 C 0.34474 0.47627 -0.21589
 C445 C 0.37518 0.50041 -0.29154
 C446 C 0.34509 0.47766 -0.29301
 C447 C 0.31581 0.49938 -0.33238
 C448 C 0.29921 0.49929 -0.36989
 C449 C 0.39589 0.49854 -0.17516
 C450 C 0.41360 0.49790 -0.14363
 H451 H 0.37498 0.53851 -0.17699
 H452 H 0.37506 0.54099 -0.31851
 H453 H 0.31951 0.49700 -0.18065
 H454 H 0.33610 0.45742 -0.18563
 H455 H 0.39156 0.50141 -0.32361
 H456 H 0.33624 0.45992 -0.32709
 C457 C 1.14389 0.62331 -0.25258
 C458 C 1.13902 0.63844 -0.31032
 C459 C 1.16282 0.66528 -0.28485
 C460 C 1.16802 0.65046 -0.22767
 C461 C 1.12468 0.62824 -0.20851
 C462 C 1.14845 0.65505 -0.18286
 C463 C 1.11952 0.64308 -0.26571
 C464 C 1.14361 0.67022 -0.24080
 C465 C 1.18349 0.68544 -0.32941
 C466 C 1.19990 0.70154 -0.36796
 C467 C 1.10299 0.60711 -0.16791
 C468 C 1.08473 0.58922 -0.13661
 H469 H 1.14376 0.60379 -0.25700
 H470 H 1.13535 0.63180 -0.36319
 H471 H 1.18818 0.65371 -0.21246
 H472 H 1.15205 0.66162 -0.12994
 H473 H 1.09937 0.63984 -0.28097
 H474 H 1.14374 0.68974 -0.23639
 C475 C 0.85511 0.50953 -0.18748
 C476 C 0.85957 0.52607 -0.25235
 C477 C 0.83668 0.50059 -0.28569
 C478 C 0.83184 0.48401 -0.22154
 C479 C 0.87542 0.50125 -0.21285
 C480 C 0.85253 0.47575 -0.24618
 C481 C 0.88019 0.51779 -0.27702
 C482 C 0.85702 0.49231 -0.31092
 C483 C 0.81576 0.50045 -0.32837
 C484 C 0.79925 0.50052 -0.36578
 C485 C 0.89740 0.50184 -0.17369
 C486 C 0.91581 0.50247 -0.14268
 H487 H 0.85462 0.51661 -0.13622
 H488 H 0.86221 0.54675 -0.25530
 H489 H 0.81172 0.47014 -0.19919
 H490 H 0.84992 0.45508 -0.24325
 H491 H 0.90030 0.53166 -0.29946
 H492 H 0.85755 0.48522 -0.36216
 C493 C 0.49255 0.34427 -0.17961
 C494 C 0.47258 0.32927 -0.23762
 C495 C 0.49668 0.33400 -0.28149
 C496 C 0.51667 0.34865 -0.22425
 C497 C 0.49585 0.37120 -0.20538
 C498 C 0.51994 0.37592 -0.24927
 C499 C 0.47590 0.35654 -0.26266
 C500 C 0.49998 0.36096 -0.30708
 C501 C 0.49703 0.31377 -0.32590
 C502 C 0.49722 0.29763 -0.36443
 C503 C 0.49534 0.39241 -0.16519
 C504 C 0.49500 0.41040 -0.13437
 H505 H 0.48948 0.33768 -0.12669
 H506 H 0.45311 0.30985 -0.23336
 H507 H 0.53344 0.34517 -0.20899
 H508 H 0.53941 0.39534 -0.25357
 H509 H 0.45912 0.36000 -0.27803
 H510 H 0.50306 0.36762 -0.35996
 C511 C 0.65673 0.12773 -0.22044
 C512 C 0.65283 0.13263 -0.29454
 C513 C 0.66617 0.16319 -0.28024
 C514 C 0.67041 0.15864 -0.20673
 C515 C 0.62904 0.12492 -0.20449
 C516 C 0.64233 0.15546 -0.19005
 C517 C 0.62487 0.12952 -0.27799
 C518 C 0.63847 0.16036 -0.26427
 C519 C 0.68631 0.18388 -0.32464
 C520 C 0.70233 0.20025 -0.36329
 C521 C 0.60786 0.10314 -0.16438
 C522 C 0.58990 0.08481 -0.13352
 H523 H 0.66397 0.11404 -0.20198
 H524 H 0.65736 0.12346 -0.33798
 H525 H 0.68935 0.17085 -0.17788
 H526 H 0.63773 0.16454 -0.14657
 H527 H 0.60594 0.11731 -0.30690
 H528 H 0.63117 0.17400 -0.28273
 C529 C 1.14029 0.51776 -0.25918
 C530 C 1.16704 0.51982 -0.23437
 C531 C 1.16259 0.49716 -0.28324
 C532 C 1.13616 0.49514 -0.30863
 C533 C 1.12466 0.49596 -0.20605
 C534 C 1.12025 0.47334 -0.25496
 C535 C 1.15107 0.49800 -0.18047
 C536 C 1.14698 0.47535 -0.23014
 C537 C 1.18310 0.49771 -0.32824
 C538 C 1.19938 0.49804 -0.36716
 C539 C 1.10303 0.49536 -0.16531
 C540 C 1.08478 0.49501 -0.13416
 H541 H 1.13730 0.53519 -0.27065
 H542 H 1.18651 0.53894 -0.22644
 H543 H 1.13025 0.49398 -0.36179
 H544 H 1.10079 0.45421 -0.26298
 H545 H 1.15692 0.49916 -0.12728
 H546 H 1.15000 0.45794 -0.21874
 C547 C 0.52019 0.64013 -0.27301
 C548 C 0.49575 0.63636 -0.31506
 C549 C 0.50013 0.66360 -0.28844
 C550 C 0.52458 0.66766 -0.24695
 C551 C 0.50086 0.62579 -0.21443
 C552 C 0.50524 0.65300 -0.18765
 C553 C 0.47641 0.62172 -0.25592
 C554 C 0.48077 0.64928 -0.22989
 C555 C 0.49990 0.68420 -0.33174
 C556 C 0.49981 0.70062 -0.36954
 C557 C 0.50155 0.60453 -0.17478
 C558 C 0.50229 0.58683 -0.14350
 H559 H 0.53637 0.63611 -0.29033
 H560 H 0.49185 0.62975 -0.36794
 H561 H 0.54437 0.68678 -0.24367
 H562 H 0.50913 0.65955 -0.13474
 H563 H 0.45662 0.60259 -0.25919
 H564 H 0.46458 0.65331 -0.21265
 C565 C 0.35971 -0.11964 -0.27079
 C566 C 0.36329 -0.14046 -0.31272
 C567 C 0.33620 -0.16320 -0.28524
 C568 C 0.33231 -0.14267 -0.24387
 C569 C 0.37430 -0.12447 -0.21251
 C570 C 0.34724 -0.14718 -0.18487
 C571 C 0.37819 -0.14500 -0.25388
 C572 C 0.35078 -0.16809 -0.22698
 C573 C 0.31543 -0.18414 -0.32796
 C574 C 0.29887 -0.20066 -0.36539
 C575 C 0.39571 -0.10250 -0.17339
 C576 C 0.41351 -0.08409 -0.14237
 H577 H 0.36362 -0.09949 -0.28845
 H578 H 0.36965 -0.13794 -0.36578
 H579 H 0.31322 -0.14196 -0.24013
 H580 H 0.34093 -0.14965 -0.13179
 H581 H 0.39730 -0.14570 -0.25763
 H582 H 0.34684 -0.18825 -0.20939
 C583 C 0.50518 -0.14749 0.18515
 C584 C 0.52452 -0.14307 0.24426
 C585 C 0.50006 -0.16350 0.28559
 C586 C 0.48069 -0.16829 0.22721
 C587 C 0.50092 -0.12467 0.21256
 C588 C 0.47645 -0.14510 0.25390
 C589 C 0.52025 -0.11993 0.27098
 C590 C 0.49579 -0.14066 0.31287
 C591 C 0.49978 -0.18451 0.32833
 C592 C 0.49969 -0.20112 0.36573
 C593 C 0.50159 -0.10265 0.17328
 C594 C 0.50227 -0.08421 0.14216
 H595 H 0.50906 -0.14999 0.13211
 H596 H 0.54427 -0.14249 0.24072
 H597 H 0.46444 -0.18841 0.20964
 H598 H 0.45671 -0.14565 0.25744
 H599 H 0.53650 -0.09982 0.28862
 H600 H 0.49191 -0.13810 0.36587
 C601 C 0.36003 0.47968 0.26973
 C602 C 0.36346 0.50402 0.31168
 C603 C 0.33627 0.49947 0.28430
 C604 C 0.33255 0.47512 0.24290
 C605 C 0.37449 0.49913 0.21141
 C606 C 0.34734 0.49459 0.18388
 C607 C 0.37822 0.52349 0.25281
 C608 C 0.35072 0.51896 0.22601
 C609 C 0.31543 0.49948 0.32698
 C610 C 0.29881 0.49937 0.36432
 C611 C 0.39592 0.49865 0.17223
 C612 C 0.41371 0.49804 0.14118
 H613 H 0.36414 0.46356 0.28729
 H614 H 0.36985 0.50789 0.36471
 H615 H 0.31355 0.45524 0.23921
 H616 H 0.34102 0.49073 0.13081
 H617 H 0.39725 0.54336 0.25647
 H618 H 0.34661 0.53508 0.20850
 C619 C 1.13692 0.62208 0.26622
 C620 C 1.16561 0.64375 0.24258
 C621 C 1.16273 0.66533 0.28199
 C622 C 1.13436 0.64394 0.30621
 C623 C 1.12472 0.62847 0.20526
 C624 C 1.12187 0.65006 0.24470
 C625 C 1.15307 0.64982 0.18086
 C626 C 1.15056 0.67177 0.22105
 C627 C 1.18328 0.68535 0.32685
 C628 C 1.19957 0.70129 0.36574
 C629 C 1.10306 0.60744 0.16462
 C630 C 1.08478 0.58959 0.13342
 H631 H 1.13109 0.60142 0.28438
 H632 H 1.18382 0.64138 0.24218
 H633 H 1.12689 0.64174 0.35823
 H634 H 1.10365 0.65242 0.24513
 H635 H 1.16048 0.65196 0.12879
 H636 H 1.15642 0.69244 0.20293
 C637 C 0.47650 0.11934 0.26389
 C638 C 0.50092 0.13927 0.30704
 C639 C 0.49702 0.16267 0.28226
 C640 C 0.47260 0.14303 0.23968
 C641 C 0.49594 0.12473 0.20533
 C642 C 0.49204 0.14811 0.18035
 C643 C 0.52036 0.14439 0.24793
 C644 C 0.51650 0.16813 0.22372
 C645 C 0.49740 0.18314 0.32712
 C646 C 0.49755 0.19935 0.36595
 C647 C 0.49539 0.10310 0.16478
 C648 C 0.49510 0.08485 0.13370
 H649 H 0.46002 0.09906 0.27989
 H650 H 0.50456 0.13584 0.35960
 H651 H 0.45297 0.14273 0.23687
 H652 H 0.48833 0.15145 0.12779
 H653 H 0.53999 0.14467 0.25082
 H654 H 0.53295 0.18843 0.20775
 C655 C 0.65616 0.50851 0.17960
 C656 C 0.66998 0.52745 0.24007
 C657 C 0.66541 0.50273 0.28123
 C658 C 0.65193 0.48375 0.22154
 C659 C 0.62861 0.50389 0.20423
 C660 C 0.62405 0.47916 0.24539
 C661 C 0.64211 0.52282 0.26394
 C662 C 0.63783 0.49810 0.30566
 C663 C 0.68540 0.50220 0.32617
 C664 C 0.70135 0.50187 0.36507
 C665 C 0.60761 0.50460 0.16361
 C666 C 0.58977 0.50508 0.13248
 H667 H 0.66343 0.51278 0.12726
 H668 H 0.68910 0.54730 0.23841
 H669 H 0.65624 0.46769 0.20469
 H670 H 0.60493 0.45930 0.24708
 H671 H 0.63783 0.53890 0.28088
 H672 H 0.63049 0.49382 0.35795
 C673 C 0.85291 0.34734 0.18547
 C674 C 0.85760 0.33257 0.24454
 C675 C 0.83725 0.33661 0.28622
 C676 C 0.83219 0.35104 0.22788
 C677 C 0.87571 0.37449 0.21244
 C678 C 0.85537 0.37854 0.25412
 C679 C 0.88072 0.36004 0.27079
 C680 C 0.86008 0.36379 0.31303
 C681 C 0.81648 0.31596 0.32947
 C682 C 0.80008 0.29949 0.36726
 C683 C 0.89757 0.39579 0.17286
 C684 C 0.91592 0.41353 0.14160
 H685 H 0.85026 0.34088 0.13248
 H686 H 0.85828 0.31343 0.24101
 H687 H 0.81199 0.34707 0.21069
 H688 H 0.85471 0.39769 0.25764
 H689 H 0.90091 0.36400 0.28805
 H690 H 0.86279 0.37031 0.36597
   
