data_POSCAR
  _audit_creation_date              2014-09-24
  _audit_creation_method            'ToBaCCo'
  _symmetry_space_group_name_H-M    'P1'
  _symmetry_Int_Tables_number       1
  _symmetry_cell_setting            triclinic
  loop_
  _symmetry_equiv_pos_as_xyz
 x,y,z
_cell_length_a 40.8096
_cell_length_b 41.6859
_cell_length_c 15.9159
_cell_angle_alpha 89.685100
_cell_angle_beta 90.253600
_cell_angle_gamma 119.355600
loop_
  _atom_site_label
  _atom_site_type_symbol
  _atom_site_fract_x
  _atom_site_fract_y
  _atom_site_fract_z
C1 C 0.17303 0.51030 0.54248
 C2 C 0.17374 0.51068 0.45622
 C3 C 0.18684 0.48706 0.43205
 N4 N 0.19465 0.47272 0.50079
 C5 C 0.18610 0.48680 0.56827
 C6 C 0.19100 0.47829 0.34823
 C7 C 0.21254 0.46086 0.33001
 C8 C 0.20853 0.44019 0.25870
 C9 C 0.23690 0.43158 0.26032
 C10 C 0.25666 0.44580 0.33433
 N11 N 0.24151 0.46344 0.37687
 C12 C 0.28941 0.44457 0.35793
 C13 C 0.30206 0.44855 0.44180
 C14 C 0.33351 0.44678 0.46799
 C15 C 0.33283 0.44621 0.55383
 C16 C 0.30112 0.44812 0.57822
 N17 N 0.28221 0.44903 0.50905
 C18 C 0.28688 0.44332 0.66147
 C19 C 0.25311 0.44397 0.68043
 C20 C 0.23361 0.43293 0.75604
 C21 C 0.20542 0.44180 0.75229
 C22 C 0.20892 0.45926 0.67597
 N23 N 0.23767 0.46008 0.63211
 C24 C 0.18859 0.47738 0.65252
 H25 H 0.16454 0.52608 0.58158
 H26 H 0.16628 0.52720 0.41630
 H27 H 0.24920 0.47550 0.57784
 H28 H 0.18745 0.43215 0.20988
 H29 H 0.24205 0.41652 0.21197
 H30 H 0.35375 0.44386 0.42991
 H31 H 0.35241 0.44222 0.59221
 H32 H 0.18543 0.43697 0.80183
 H33 H 0.25297 0.48000 0.42959
 H34 H 0.23938 0.42105 0.81060
 C35 C 0.48858 -0.35015 0.45403
 C36 C 0.48618 -0.35257 0.53995
 C37 C 0.47047 -0.33130 0.56559
 N38 N 0.46175 -0.31746 0.49747
 C39 C 0.47244 -0.32911 0.42901
 C40 C 0.46093 -0.32722 0.64894
 C41 C 0.45380 -0.29829 0.67145
 C42 C 0.44042 -0.29451 0.74888
 C43 C 0.44537 -0.25940 0.75177
 C44 C 0.46180 -0.24251 0.67644
 N45 N 0.46630 -0.26651 0.62749
 C46 C 0.47680 -0.20459 0.65860
 C47 C 0.48479 -0.19077 0.57564
 C48 C 0.50689 -0.15416 0.55255
 C49 C 0.50668 -0.15306 0.46626
 C50 C 0.48457 -0.18903 0.43982
 N51 N 0.47116 -0.21195 0.50662
 C52 C 0.47656 -0.20103 0.35597
 C53 C 0.46180 -0.23846 0.33599
 C54 C 0.44250 -0.25495 0.26285
 C55 C 0.43955 -0.28924 0.26015
 C56 C 0.45784 -0.29233 0.33097
 N57 N 0.47023 -0.26171 0.37821
 C58 C 0.46740 -0.32030 0.34545
 H59 H 0.50202 -0.36172 0.41608
 H60 H 0.49571 -0.36795 0.57777
 H61 H 0.48885 -0.25461 0.42869
 H62 H 0.43027 -0.31399 0.80037
 H63 H 0.43917 -0.24716 0.80485
 H64 H 0.52255 -0.13072 0.59302
 H65 H 0.52208 -0.12870 0.42795
 H66 H 0.42705 -0.30896 0.20975
 H67 H 0.48251 -0.25952 0.57322
 H68 H 0.43295 -0.24287 0.21495
 C69 C 1.13338 0.66920 0.53487
 C70 C 1.13572 0.66806 0.44897
 C71 C 1.17269 0.69239 0.42791
 N72 N 1.19317 0.70742 0.49801
 C73 C 1.16938 0.69310 0.56377
 C74 C 1.18810 0.69832 0.34650
 C75 C 1.22360 0.72839 0.32649
 C76 C 1.24318 0.73165 0.25306
 C77 C 1.27377 0.76640 0.25262
 C78 C 1.27180 0.78366 0.32521
 N79 N 1.24148 0.76009 0.37072
 C80 C 1.29591 0.82118 0.34467
 C81 C 1.30138 0.83373 0.42884
 C82 C 1.31659 0.87011 0.45381
 C83 C 1.31616 0.86999 0.53993
 C84 C 1.30059 0.83354 0.56509
 N85 N 1.29131 0.81139 0.49707
 C86 C 1.29408 0.82072 0.64917
 C87 C 1.26847 0.78346 0.66793
 C88 C 1.26948 0.76521 0.74021
 C89 C 1.23733 0.73163 0.74030
 C90 C 1.21754 0.73021 0.66802
 N91 N 1.23725 0.76153 0.62281
 C92 C 1.18090 0.70158 0.64860
 H93 H 1.10776 0.65453 0.57065
 H94 H 1.11258 0.65158 0.40723
 H95 H 1.22758 0.76948 0.57026
 H96 H 1.23579 0.71152 0.20365
 H97 H 1.29471 0.77793 0.20350
 H98 H 1.32543 0.89422 0.41461
 H99 H 1.32462 0.89394 0.57896
 H100 H 1.22908 0.71077 0.78875
 H101 H 1.23111 0.76692 0.42331
 H102 H 1.29086 0.77540 0.78870
 C103 C 0.67483 0.55787 0.45170
 C104 C 0.67465 0.55851 0.53754
 C105 C 0.70570 0.55593 0.56472
 N106 N 0.72488 0.55417 0.49754
 C107 C 0.70593 0.55493 0.42838
 C108 C 0.71947 0.56145 0.64835
 C109 C 0.75288 0.56066 0.67015
 C110 C 0.77385 0.57517 0.74295
 C111 C 0.80114 0.56512 0.74426
 C112 C 0.79531 0.54310 0.67468
 N113 N 0.76643 0.54126 0.62864
 C114 C 0.81483 0.52345 0.65814
 C115 C 0.81751 0.51276 0.57518
 C116 C 0.82913 0.48777 0.55288
 C117 C 0.82866 0.48647 0.46667
 C118 C 0.81629 0.51029 0.43910
 N119 N 0.80940 0.52625 0.50538
 C120 C 0.81319 0.51843 0.35416
 C121 C 0.79324 0.53669 0.32922
 C122 C 0.79662 0.55348 0.25183
 C123 C 0.76941 0.56375 0.24849
 C124 C 0.75063 0.55382 0.32477
 N125 N 0.76540 0.53732 0.37365
 C126 C 0.71894 0.55752 0.34511
 H127 H 0.65526 0.56133 0.41193
 H128 H 0.65512 0.56303 0.57431
 H129 H 0.75421 0.52314 0.42955
 H130 H 0.77007 0.59071 0.79213
 H131 H 0.82241 0.57269 0.79249
 H132 H 0.83638 0.47145 0.59401
 H133 H 0.83592 0.46940 0.42879
 H134 H 0.76398 0.57656 0.19503
 H135 H 0.75357 0.52364 0.57816
 H136 H 0.81624 0.55748 0.20203
 C137 C 0.56728 0.37621 0.55101
 C138 C 0.56914 0.37728 0.46476
 C139 C 0.54945 0.34111 0.43753
 N140 N 0.53564 0.31806 0.50391
 C141 C 0.54620 0.33943 0.57333
 C142 C 0.54197 0.32982 0.35291
 C143 C 0.52725 0.29256 0.32844
 C144 C 0.51001 0.27811 0.25201
 C145 C 0.50192 0.24201 0.25057
 C146 C 0.51383 0.23490 0.32678
 N147 N 0.52957 0.26608 0.37360
 C148 C 0.51255 0.20120 0.34879
 C149 C 0.52127 0.19458 0.43073
 C150 C 0.53164 0.16869 0.45373
 C151 C 0.53427 0.16955 0.53982
 C152 C 0.52359 0.19461 0.56694
 N153 N 0.51640 0.21031 0.50001
 C154 C 0.51791 0.20168 0.65097
 C155 C 0.51218 0.23173 0.66833
 C156 C 0.48925 0.23248 0.73148
 C157 C 0.49433 0.26748 0.73280
 C158 C 0.52019 0.28712 0.67037
 N159 N 0.52998 0.26479 0.62918
 C160 C 0.53571 0.32527 0.65560
 H161 H 0.58043 0.39980 0.59210
 H162 H 0.58355 0.40187 0.42659
 H163 H 0.55091 0.27274 0.58362
 H164 H 0.50388 0.29204 0.20194
 H165 H 0.48949 0.22360 0.19799
 H166 H 0.53764 0.15141 0.41381
 H167 H 0.54349 0.15372 0.57717
 H168 H 0.48063 0.27742 0.77514
 H169 H 0.54419 0.27016 0.42987
 H170 H 0.47088 0.21011 0.77257
 C171 C 0.67929 0.12921 0.54391
 C172 C 0.67922 0.12916 0.45777
 C173 C 0.69681 0.16566 0.43249
 N174 N 0.70740 0.18803 0.50018
 C175 C 0.69660 0.16579 0.56861
 C176 C 0.70248 0.17793 0.34824
 C177 C 0.72697 0.21479 0.32527
 C178 C 0.72685 0.23018 0.24794
 C179 C 0.75804 0.26457 0.24614
 C180 C 0.77635 0.26926 0.32256
 N181 N 0.75702 0.23879 0.37059
 C182 C 0.81198 0.29925 0.34258
 C183 C 0.82691 0.30580 0.42487
 C184 C 0.86352 0.33101 0.44711
 C185 C 0.86548 0.32981 0.53316
 C186 C 0.82971 0.30472 0.56078
 N187 N 0.80630 0.29017 0.49453
 C188 C 0.81814 0.29665 0.64533
 C189 C 0.78177 0.26858 0.66761
 C190 C 0.76425 0.26705 0.74305
 C191 C 0.73159 0.23381 0.74497
 C192 C 0.73035 0.21556 0.67127
 N193 N 0.76069 0.23739 0.62346
 C194 C 0.70333 0.17859 0.65262
 H195 H 0.66921 0.10498 0.58320
 H196 H 0.66852 0.10497 0.41855
 H197 H 0.76918 0.22938 0.56962
 H198 H 0.70695 0.21748 0.19710
 H199 H 0.76685 0.28331 0.19318
 H200 H 0.88661 0.34848 0.40629
 H201 H 0.89047 0.34579 0.57035
 H202 H 0.71139 0.22390 0.79573
 H203 H 0.76637 0.23246 0.42581
 H204 H 0.77428 0.28761 0.79208
 N205 N 0.95883 0.53182 0.09912
 N206 N 0.92803 0.53435 0.10756
 N207 N 1.03944 0.55054 0.15579
 N208 N 1.07012 0.56701 0.20171
 N209 N 1.03846 0.57313 0.09926
 N210 N 1.06867 0.60603 0.10620
 N211 N 0.96082 0.51070 0.15802
 N212 N 0.93186 0.49893 0.20947
 C213 C 0.91180 0.51399 0.17705
 C214 C 1.08775 0.60160 0.17120
 N215 N 1.04430 0.46328 0.09344
 N216 N 1.07514 0.46065 0.09963
 N217 N 0.96410 0.44364 0.15450
 N218 N 0.93340 0.42675 0.20012
 N219 N 0.96463 0.42181 0.09597
 N220 N 0.93400 0.38911 0.10087
 N221 N 1.04273 0.48358 0.15426
 N222 N 1.07205 0.49468 0.20477
 Mn223 Mn 1.00177 0.49711 0.15634
 C224 C 1.09190 0.48010 0.16971
 C225 C 0.91529 0.39270 0.16719
 N226 N 1.03704 0.57397 -0.08239
 N227 N 1.06336 0.60845 -0.09279
 N228 N 0.95914 0.51218 -0.14195
 N229 N 0.93027 0.50204 -0.19353
 N230 N 0.95794 0.53279 -0.08118
 N231 N 0.92778 0.53654 -0.08870
 N232 N 1.03804 0.55326 -0.14320
 N233 N 1.06514 0.57340 -0.19715
 Mn234 Mn 0.99807 0.55335 0.00871
 C235 C 1.08070 0.60776 -0.16427
 C236 C 0.91103 0.51746 -0.15923
 N237 N 0.96444 0.42292 -0.08525
 N238 N 0.93825 0.38848 -0.09632
 N239 N 1.04144 0.48535 -0.14621
 N240 N 1.07000 0.49650 -0.19871
 N241 N 1.04350 0.46429 -0.08701
 N242 N 1.07394 0.46119 -0.09665
 N243 N 0.96247 0.44423 -0.14390
 N244 N 0.93471 0.42457 -0.19685
 Mn245 Mn 1.00426 0.44268 0.00428
 Mn246 Mn 1.00025 0.49874 -0.14501
 Cl247 Cl 1.00109 0.49798 0.00584
 C248 C 0.91984 0.38985 -0.16569
 C249 C 1.08989 0.48112 -0.16690
 N250 N 0.49195 0.43454 0.09714
 N251 N 0.50027 0.40795 0.10717
 N252 N 0.44878 0.47610 0.14924
 N253 N 0.42411 0.47744 0.20040
 N254 N 0.43181 0.44945 0.09442
 N255 N 0.39518 0.43172 0.10718
 N256 N 0.50816 0.45980 0.15525
 N257 N 0.52754 0.45064 0.20756
 C258 C 0.52219 0.41821 0.17645
 C259 C 0.39084 0.44960 0.17309
 N260 N 0.51952 0.57728 0.08003
 N261 N 0.51553 0.60658 0.08646
 N262 N 0.56163 0.53722 0.14636
 N263 N 0.58637 0.53494 0.19608
 N264 N 0.57869 0.56113 0.08567
 N265 N 0.61556 0.57619 0.09326
 N266 N 0.50250 0.55415 0.14199
 N267 N 0.48663 0.56756 0.19315
 Mn268 Mn 0.50519 0.50688 0.14950
 C269 C 0.49492 0.60024 0.15672
 C270 C 0.61981 0.55953 0.16242
 N271 N 0.43064 0.44616 -0.08589
 N272 N 0.39373 0.43019 -0.09262
 N273 N 0.50657 0.45444 -0.14498
 N274 N 0.52368 0.44263 -0.19651
 N275 N 0.49081 0.43118 -0.08261
 N276 N 0.49729 0.40328 -0.08894
 N277 N 0.44699 0.47032 -0.14643
 N278 N 0.42159 0.47167 -0.19573
 Mn279 Mn 0.46108 0.43994 0.00580
 C280 C 0.38856 0.44636 -0.16139
 C281 C 0.51769 0.41076 -0.16020
 N282 N 0.57747 0.55794 -0.09515
 N283 N 0.61411 0.57498 -0.10672
 N284 N 0.50016 0.54770 -0.15425
 N285 N 0.47915 0.55583 -0.20358
 N286 N 0.51836 0.57401 -0.09936
 N287 N 0.51056 0.60098 -0.11039
 N288 N 0.56016 0.53203 -0.15141
 N289 N 0.58478 0.53048 -0.20252
 Mn290 Mn 0.54882 0.56793 -0.00718
 Mn291 Mn 0.50348 0.50114 -0.15047
 Cl292 Cl 0.50463 0.50395 -0.00055
 C293 C 0.61825 0.55752 -0.17356
 C294 C 0.48622 0.58919 -0.17570
 N295 N 0.42107 -0.03031 0.08697
 N296 N 0.38584 -0.05649 0.09523
 N297 N 0.48889 0.04483 0.14255
 N298 N 0.49959 0.07246 0.19582
 N299 N 0.46709 0.04656 0.08386
 N300 N 0.46181 0.07497 0.09639
 N301 N 0.44200 -0.03234 0.14740
 N302 N 0.42142 -0.05986 0.19901
 C303 C 0.38646 -0.07450 0.16558
 C304 C 0.48265 0.09115 0.16564
 N305 N 0.57482 0.03175 0.08722
 N306 N 0.61045 0.05675 0.09661
 N307 N 0.50755 -0.04177 0.14966
 N308 N 0.49422 -0.07030 0.20153
 N309 N 0.52842 -0.04499 0.09136
 N310 N 0.52978 -0.07569 0.10156
 N311 N 0.55409 0.03520 0.14543
 N312 N 0.57508 0.06266 0.19631
 Mn313 Mn 0.49814 0.00150 0.14742
 C314 C 0.61012 0.07576 0.16477
 C315 C 0.50847 -0.09112 0.17041
 N316 N 0.46766 0.04509 -0.09705
 N317 N 0.46901 0.07725 -0.10400
 N318 N 0.44163 -0.03535 -0.15210
 N319 N 0.42074 -0.06306 -0.20261
 N320 N 0.42089 -0.03205 -0.09361
 N321 N 0.38541 -0.05770 -0.10203
 N322 N 0.48775 0.04117 -0.15628
 N323 N 0.50262 0.07024 -0.20628
 Mn324 Mn 0.44383 0.00737 -0.00511
 C325 C 0.49038 0.09224 -0.17306
 C326 C 0.38576 -0.07665 -0.17040
 N327 N 0.52818 -0.04681 -0.08866
 N328 N 0.52916 -0.07788 -0.09364
 N329 N 0.55382 0.03249 -0.15341
 N330 N 0.57456 0.06040 -0.20411
 N331 N 0.57459 0.03020 -0.09297
 N332 N 0.60981 0.05653 -0.10031
 N333 N 0.50712 -0.04472 -0.14867
 N334 N 0.49322 -0.07441 -0.19639
 Mn335 Mn 0.55183 -0.00749 -0.00081
 Mn336 Mn 0.49759 -0.00162 -0.15378
 Cl337 Cl 0.49782 -0.00004 -0.00302
 C338 C 0.50735 -0.09474 -0.16107
 C339 C 0.60945 0.07498 -0.17006
 N340 N 1.15694 0.49194 0.15063
 N341 N 1.18501 0.49215 0.20107
 C342 C 1.17241 0.48542 0.28117
 C343 C 1.13683 0.48240 0.28354
 C344 C 1.12819 0.48602 0.20092
 H345 H 1.11795 0.47476 0.33666
 H346 H 1.15811 0.49478 0.08530
 H347 H 1.21111 0.49706 0.17887
 N348 N 0.49568 0.65953 0.14910
 N349 N 0.48830 0.68169 0.20174
 C350 C 0.47436 0.66332 0.27468
 C351 C 0.47178 0.62862 0.26850
 C352 C 0.48606 0.62787 0.18997
 H353 H 0.46129 0.60671 0.31465
 H354 H 0.50875 0.66766 0.09056
 H355 H 0.49671 0.70924 0.18879
 N356 N 0.32192 -0.12702 0.15263
 N357 N 0.29704 -0.15656 0.20215
 C358 C 0.31353 -0.15386 0.27753
 C359 C 0.34934 -0.12304 0.27689
 C360 C 0.35333 -0.10727 0.19797
 H361 H 0.37019 -0.11369 0.32650
 H362 H 0.31672 -0.12193 0.09105
 H363 H 0.26967 -0.17568 0.18422
 N364 N 0.84432 0.49551 0.16416
 N365 N 0.81793 0.49568 0.21151
 C366 C 0.83244 0.50860 0.28827
 C367 C 0.86948 0.51600 0.29041
 C368 C 0.87579 0.50755 0.21038
 H369 H 0.88971 0.52836 0.34079
 H370 H 0.84092 0.48783 0.10098
 H371 H 0.79081 0.48810 0.19052
 N372 N 0.55559 0.38238 0.16384
 N373 N 0.56108 0.35910 0.21038
 C374 C 0.54702 0.35758 0.28770
 C375 C 0.53283 0.38179 0.29097
 C376 C 0.53872 0.39674 0.21104
 H377 H 0.51716 0.38522 0.34149
 H378 H 0.56199 0.38720 0.09994
 H379 H 0.57275 0.34337 0.18821
 N380 N 0.67825 0.12097 0.16496
 N381 N 0.70251 0.14786 0.21321
 C382 C 0.68403 0.15099 0.27984
 C383 C 0.64625 0.12516 0.27357
 C384 C 0.64394 0.10668 0.19995
 H385 H 0.62384 0.12032 0.31672
 H386 H 0.68525 0.11254 0.10940
 H387 H 0.73130 0.16339 0.20115
 N388 N 0.51348 0.15842 -0.15063
 N389 N 0.52207 0.18909 -0.20039
 C390 C 0.51527 0.17816 -0.28155
 C391 C 0.50308 0.14053 -0.28473
 C392 C 0.50231 0.12957 -0.20221
 H393 H 0.49290 0.12244 -0.33845
 H394 H 0.51580 0.15848 -0.08525
 H395 H 0.53298 0.21578 -0.17712
 N396 N 0.68678 0.59862 -0.19135
 N397 N 0.71529 0.59981 -0.24138
 C398 C 0.70006 0.56924 -0.28918
 C399 C 0.66188 0.54837 -0.27153
 C400 C 0.65483 0.56767 -0.21055
 H401 H 0.64176 0.52257 -0.29999
 H402 H 0.68991 0.61915 -0.14949
 H403 H 0.74212 0.62264 -0.24686
 N404 N 0.87565 0.32292 -0.16911
 N405 N 0.84928 0.29861 -0.21860
 C406 C 0.84490 0.31629 -0.28512
 C407 C 0.86950 0.35388 -0.27698
 C408 C 0.88865 0.35669 -0.20274
 H409 H 0.87332 0.37584 -0.31933
 H410 H 0.88494 0.31625 -0.11388
 H411 H 0.83514 0.27024 -0.20769
 N412 N 0.51437 -0.15056 -0.15464
 N413 N 0.50614 -0.17952 -0.20172
 C414 C 0.48696 -0.17857 -0.26998
 C415 C 0.48235 -0.14774 -0.26543
 C416 C 0.50058 -0.13059 -0.19187
 H417 H 0.46924 -0.13823 -0.31103
 H418 H 0.53015 -0.14411 -0.09928
 H419 H 0.51497 -0.19870 -0.18886
 N420 N 0.31917 0.40746 -0.17224
 N421 N 0.29059 0.40664 -0.22218
 C422 C 0.30618 0.43634 -0.27335
 C423 C 0.34457 0.45645 -0.25709
 C424 C 0.35150 0.43736 -0.19463
 H425 H 0.36507 0.48144 -0.28812
 H426 H 0.31585 0.38710 -0.12914
 H427 H 0.26330 0.38438 -0.22537
 N428 N 1.12938 0.67318 -0.15842
 N429 N 1.15727 0.69905 -0.21020
 C430 C 1.15654 0.68253 -0.28351
 C431 C 1.12850 0.64556 -0.27897
 C432 C 1.11232 0.64110 -0.20002
 H433 H 1.12131 0.62431 -0.32552
 H434 H 1.12307 0.67849 -0.09830
 H435 H 1.17376 0.72687 -0.19523
 N436 N 0.84723 0.50933 -0.14236
 N437 N 0.82010 0.51044 -0.19371
 C438 C 0.83265 0.51578 -0.27382
 C439 C 0.86730 0.51663 -0.27515
 C440 C 0.87545 0.51312 -0.19192
 H441 H 0.88603 0.52283 -0.32812
 H442 H 0.84593 0.50717 -0.07691
 H443 H 0.79456 0.50729 -0.17204
 N444 N 0.53807 0.36437 -0.14351
 N445 N 0.54315 0.34042 -0.19535
 C446 C 0.53866 0.34806 -0.27584
 C447 C 0.53205 0.37790 -0.27685
 C448 C 0.53113 0.38655 -0.19301
 H449 H 0.52417 0.38885 -0.33026
 H450 H 0.53739 0.36322 -0.07792
 H451 H 0.54867 0.31985 -0.17365
 N452 N 0.67468 0.12626 -0.15597
 N453 N 0.70055 0.15548 -0.20484
 C454 C 0.68436 0.15415 -0.27992
 C455 C 0.64769 0.12448 -0.27949
 C456 C 0.64297 0.10790 -0.20126
 H457 H 0.62698 0.11608 -0.32925
 H458 H 0.67971 0.12005 -0.09525
 H459 H 0.72842 0.17301 -0.18725
 N460 N 1.15720 0.49868 -0.15529
 N461 N 1.18350 0.49869 -0.20332
 C462 C 1.16897 0.48628 -0.28035
 C463 C 1.13191 0.47901 -0.28183
 C464 C 1.12568 0.48705 -0.20114
 H465 H 1.11170 0.46723 -0.33242
 H466 H 1.16075 0.50613 -0.09196
 H467 H 1.21066 0.50622 -0.18274
 N468 N 0.43246 0.60014 -0.20081
 N469 N 0.42574 0.62433 -0.24925
 C470 C 0.45801 0.64734 -0.28911
 C471 C 0.48594 0.63920 -0.26537
 C472 C 0.46880 0.60964 -0.21089
 H473 H 0.51486 0.65252 -0.28634
 H474 H 0.41229 0.57804 -0.16586
 H475 H 0.39945 0.62241 -0.25788
 N476 N 0.32064 -0.12837 -0.15827
 N477 N 0.29545 -0.15747 -0.20817
 C478 C 0.31196 -0.15482 -0.28324
 C479 C 0.34808 -0.12449 -0.28194
 C480 C 0.35226 -0.10895 -0.20303
 H481 H 0.36899 -0.11525 -0.33122
 H482 H 0.31550 -0.12333 -0.09686
 H483 H 0.26789 -0.17622 -0.19074
 N484 N 0.51425 -0.14745 0.16821
 N485 N 0.50574 -0.17627 0.21652
 C486 C 0.48787 -0.17419 0.28555
 C487 C 0.48452 -0.14261 0.28046
 C488 C 0.50191 -0.12642 0.20522
 H489 H 0.47215 -0.13244 0.32576
 H490 H 0.52885 -0.14209 0.11151
 H491 H 0.51315 -0.19641 0.20333
 N492 N 0.32347 0.40597 0.20226
 N493 N 0.29675 0.40439 0.25156
 C494 C 0.31022 0.43656 0.29278
 C495 C 0.34724 0.45947 0.26956
 C496 C 0.35452 0.43893 0.21240
 H497 H 0.36643 0.48670 0.29302
 H498 H 0.32078 0.38433 0.16470
 H499 H 0.27026 0.38121 0.25868
 N500 N 1.15297 0.62036 0.21083
 N501 N 1.17915 0.64541 0.25948
 C502 C 1.16832 0.66987 0.28179
 C503 C 1.13399 0.66042 0.24436
 C504 C 1.12524 0.62869 0.20013
 H505 H 1.11621 0.67251 0.25528
 H506 H 1.15298 0.59664 0.18998
 H507 H 1.20283 0.64441 0.28114
 N508 N 0.45343 0.12874 0.20620
 N509 N 0.46105 0.15705 0.25507
 C510 C 0.49573 0.16998 0.28814
 C511 C 0.51066 0.14834 0.25939
 C512 C 0.48274 0.12245 0.20806
 H513 H 0.53794 0.15109 0.27255
 H514 H 0.42801 0.11330 0.17439
 H515 H 0.44229 0.16675 0.26704
 N516 N 0.68901 0.59803 0.18280
 N517 N 0.71515 0.59766 0.23154
 C518 C 0.69952 0.56625 0.27695
 C519 C 0.66178 0.54582 0.25634
 C520 C 0.65623 0.56713 0.19730
 H521 H 0.64093 0.52000 0.28366
 H522 H 0.69330 0.61984 0.14332
 H523 H 0.74275 0.61928 0.23604
 N524 N 0.84910 0.37393 0.19546
 N525 N 0.82216 0.34992 0.24452
 C526 C 0.83288 0.32643 0.27570
 C527 C 0.86797 0.33543 0.24378
 C528 C 0.87724 0.36584 0.19329
 H529 H 0.88575 0.32400 0.26178
 H530 H 0.84929 0.39696 0.16869
 H531 H 0.79795 0.35108 0.26039
   
