data_POSCAR
  _audit_creation_date              2014-09-24
  _audit_creation_method            'ToBaCCo'
  _symmetry_space_group_name_H-M    'P1'
  _symmetry_Int_Tables_number       1
  _symmetry_cell_setting            triclinic
  loop_
  _symmetry_equiv_pos_as_xyz
 x,y,z
_cell_length_a 22.2386
_cell_length_b 21.9693
_cell_length_c 22.4347
_cell_angle_alpha 90.107300
_cell_angle_beta 89.911100
_cell_angle_gamma 90.126500
loop_
  _atom_site_label
  _atom_site_type_symbol
  _atom_site_fract_x
  _atom_site_fract_y
  _atom_site_fract_z
N1 N 0.36399 0.36693 1.35954
 N2 N 1.14059 0.63438 0.86389
 N3 N 0.63609 -0.13488 0.14294
 N4 N -0.13890 1.13453 -0.36258
 N5 N 0.63694 0.63425 0.63376
 N6 N 0.86685 0.36935 0.13860
 N7 N 0.36273 0.13351 0.86507
 N8 N 0.13398 0.86808 0.36059
 Zn9 Zn 0.03488 0.98547 -0.07264
 Zn10 Zn 0.04457 1.04867 0.04629
 Zn11 Zn -0.07447 1.03609 -0.01564
 Zn12 Zn -0.01644 0.92657 0.03424
 O13 O -0.00257 0.99948 -0.00171
 O14 O 0.10731 1.01945 -0.07521
 O15 O 0.00824 1.12023 0.06475
 O16 O -0.08857 1.04924 -0.09295
 O17 O 0.11545 1.06811 0.01108
 O18 O -0.00562 1.01465 -0.13538
 O19 O -0.07873 1.10878 0.01831
 O20 O -0.09406 0.91267 0.04985
 O21 O 0.06356 1.01178 0.11625
 O22 O -0.13747 0.99489 0.01348
 O23 O 0.01982 0.92199 0.10398
 O24 O 0.01080 0.86253 -0.00693
 O25 O 0.04806 0.90661 -0.08725
 C26 C 0.13696 1.05237 -0.03922
 C27 C -0.04344 1.14017 0.05038
 C28 C -0.05665 1.04013 -0.13903
 C29 C -0.14070 0.94440 0.04063
 C30 C 0.05137 0.95835 0.13475
 C31 C 0.03758 0.85921 -0.05674
 Zn32 Zn 0.48279 -0.07099 0.46189
 Zn33 Zn 0.53344 -0.01568 0.57191
 Zn34 Zn 0.54441 0.05099 0.45584
 Zn35 Zn 0.42463 0.03665 0.51697
 O36 O 0.49654 0.00040 0.50137
 O37 O 0.50986 -0.13699 0.50115
 O38 O 0.60628 0.01748 0.57608
 O39 O 0.56477 0.01673 0.38514
 O40 O 0.54515 -0.09487 0.58360
 O41 O 0.51788 -0.07225 0.39085
 O42 O 0.61440 0.06993 0.49221
 O43 O 0.42009 0.10949 0.48369
 O44 O 0.49327 0.01231 0.63573
 O45 O 0.50777 0.12231 0.43859
 O46 O 0.41101 0.04924 0.59448
 O47 O 0.36127 -0.00422 0.48827
 O48 O 0.40513 -0.08340 0.44571
 C49 C 0.53522 -0.14152 0.55167
 C50 C 0.63581 0.05224 0.54173
 C51 C 0.55044 -0.03454 0.36280
 C52 C 0.45555 0.14138 0.45228
 C53 C 0.44279 0.03877 0.64020
 C54 C 0.35840 -0.05273 0.45773
 Zn55 Zn 1.01623 0.42728 0.46543
 Zn56 Zn 1.07462 0.53638 0.51694
 Zn57 Zn 0.95547 0.54885 0.45484
 Zn58 Zn 0.96525 0.48545 0.57334
 O59 O 1.00261 0.49974 0.50244
 O60 O 1.09355 0.41523 0.44737
 O61 O 1.07907 0.60903 0.48307
 O62 O 0.93578 0.51232 0.38471
 O63 O 1.13770 0.49547 0.48788
 O64 O 0.97866 0.42235 0.39641
 O65 O 0.99210 0.62017 0.43659
 O66 O 0.89263 0.51894 0.57617
 O67 O 1.08867 0.54953 0.59422
 O68 O 0.88499 0.56829 0.49041
 O69 O 1.00569 0.51467 0.63644
 O70 O 0.95278 0.40644 0.58731
 O71 O 0.99051 0.36261 0.50689
 C72 C 1.14032 0.44653 0.45800
 C73 C 1.04387 0.64015 0.45089
 C74 C 0.94726 0.45882 0.36597
 C75 C 0.86327 0.55222 0.54047
 C76 C 1.05680 0.54024 0.64026
 C77 C 0.96390 0.35909 0.55682
 Zn78 Zn 0.46712 0.48482 0.92713
 Zn79 Zn 0.45616 0.54697 1.04625
 Zn80 Zn 0.51938 0.42738 1.03432
 Zn81 Zn 0.57553 0.53876 0.98315
 O82 O 0.50440 0.49975 0.99788
 O83 O 0.39445 0.51793 0.92445
 O84 O 0.43588 0.50918 1.11506
 O85 O 0.49450 0.36233 0.99271
 O86 O 0.38601 0.56700 1.01048
 O87 O 0.45507 0.40568 0.91315
 O88 O 0.48200 0.42089 1.10369
 O89 O 0.63969 0.49883 1.01189
 O90 O 0.49210 0.61737 1.06739
 O91 O 0.59698 0.41719 1.05141
 O92 O 0.57810 0.61203 1.01744
 O93 O 0.58905 0.55213 0.90553
 O94 O 0.50706 0.51434 0.86392
 C95 C 0.36479 0.55116 0.96013
 C96 C 0.44883 0.45623 1.13381
 C97 C 0.46707 0.35848 0.94331
 C98 C 0.64317 0.44952 1.04109
 C99 C 0.54241 0.64004 1.05204
 C100 C 0.55733 0.54147 0.85968
 C101 C 1.25451 0.37833 0.35302
 C102 C 1.30855 0.39086 0.38263
 C103 C 1.30753 0.42197 0.43720
 C104 C 1.25276 0.44076 0.46182
 C105 C 1.19839 0.42679 0.43296
 C106 C 1.19977 0.39546 0.37833
 H107 H 1.25490 0.35360 0.31122
 H108 H 1.34909 0.43124 0.46061
 H109 H 1.25274 0.46504 0.50387
 H110 H 1.15851 0.38483 0.35489
 C111 C 0.21414 0.55221 0.88342
 C112 C 0.19430 0.61216 0.89334
 C113 C 0.22929 0.65040 0.93026
 C114 C 0.28350 0.62980 0.95464
 C115 C 0.30444 0.57115 0.94149
 C116 C 0.26889 0.53233 0.90641
 H117 H 0.18798 0.52097 0.85653
 H118 H 0.21594 0.69692 0.93886
 H119 H 0.31038 0.66059 0.98140
 H120 H 0.28384 0.48656 0.89624
 C121 C -0.30246 0.94424 0.09397
 C122 C -0.30842 0.88481 0.11581
 C123 C -0.25992 0.84441 0.11097
 C124 C -0.20576 0.86342 0.08550
 C125 C -0.19933 0.92310 0.06389
 C126 C -0.24846 0.96319 0.06788
 H127 H -0.33969 0.97576 0.09725
 H128 H -0.26393 0.79840 0.12776
 H129 H -0.16877 0.83151 0.08316
 H130 H -0.24475 1.00957 0.05201
 C131 C 0.77195 0.15112 0.57206
 C132 C 0.80698 0.11259 0.60831
 C133 C 0.78675 0.05269 0.61803
 C134 C 0.73166 0.03305 0.59537
 C135 C 0.69616 0.07211 0.56082
 C136 C 0.71741 0.13078 0.54800
 H137 H 0.78557 0.19764 0.56372
 H138 H 0.81294 0.02127 0.64446
 H139 H 0.71650 -0.01274 0.60524
 H140 H 0.69060 0.16176 0.52162
 C141 C 0.35019 0.26988 0.41396
 C142 C 0.38841 0.31207 0.38582
 C143 C 0.45026 0.29881 0.38218
 C144 C 0.47274 0.24354 0.40390
 C145 C 0.43391 0.20109 0.43073
 C146 C 0.37261 0.21542 0.43619
 H147 H 0.30238 0.27806 0.41763
 H148 H 0.48097 0.33086 0.36168
 H149 H 0.52030 0.23399 0.39955
 H150 H 0.34133 0.18382 0.45657
 C151 C 0.91284 0.19440 0.55960
 C152 C 0.89075 0.18933 0.61795
 C153 C 0.89651 0.23881 0.65714
 C154 C 0.92199 0.29337 0.63774
 C155 C 0.94278 0.29932 0.57885
 C156 C 0.93893 0.24891 0.54021
 H157 H 0.90896 0.15641 0.52903
 H158 H 0.87963 0.23562 0.70232
 H159 H 0.92438 0.33128 0.66858
 H160 H 0.95430 0.25220 0.49451
 C161 C 0.08847 0.69469 -0.05892
 C162 C 0.11151 0.68950 -0.11688
 C163 C 0.10688 0.73897 -0.15602
 C164 C 0.08136 0.79362 -0.13696
 C165 C 0.05940 0.79961 -0.07848
 C166 C 0.06236 0.74925 -0.03989
 H167 H 0.09146 0.65669 -0.02841
 H168 H 0.12450 0.73564 -0.20092
 H169 H 0.07971 0.83149 -0.16775
 H170 H 0.04607 0.75255 0.00552
 C171 C 0.58085 0.76760 1.15854
 C172 C 0.60751 0.81050 1.12002
 C173 C 0.60946 0.79753 1.05859
 C174 C 0.58728 0.74247 1.03651
 C175 C 0.56090 0.69994 1.07505
 C176 C 0.55670 0.71332 1.13606
 H177 H 0.58010 0.77523 1.20620
 H178 H 0.62948 0.82959 1.02776
 H179 H 0.59099 0.73288 0.98926
 H180 H 0.53734 0.68054 1.16660
 C181 C 0.38449 0.45249 1.29062
 C182 C 0.38556 0.38972 1.30301
 C183 C 0.40543 0.34943 1.25855
 C184 C 0.42568 0.37138 1.20384
 C185 C 0.42547 0.43413 1.19163
 C186 C 0.40408 0.47453 1.23533
 H187 H 0.36884 0.48443 1.32398
 H188 H 0.40483 0.30076 1.26592
 H189 H 0.44108 0.33897 1.17077
 H190 H 0.40341 0.52309 1.22713
 C191 C 0.55198 -0.10295 0.20876
 C192 C 0.61378 -0.10350 0.19543
 C193 C 0.65375 -0.07448 0.23524
 C194 C 0.63272 -0.04840 0.28827
 C195 C 0.57164 -0.05209 0.30307
 C196 C 0.53133 -0.07871 0.26260
 H197 H 0.51981 -0.12305 0.17834
 H198 H 0.70161 -0.07380 0.22647
 H199 H 0.66455 -0.02840 0.31917
 H200 H 0.48385 -0.08157 0.27316
 C201 C -0.15852 1.10389 -0.25865
 C202 C -0.11914 1.10790 -0.30738
 C203 C -0.05963 1.08809 -0.30117
 C204 C -0.03966 1.06445 -0.24690
 C205 C -0.07876 1.06115 -0.19765
 C206 C -0.13851 1.08085 -0.20422
 H207 H -0.20442 1.11971 -0.26263
 H208 H -0.02873 1.09127 -0.33839
 H209 H 0.00671 1.05004 -0.24315
 H210 H -0.16968 1.07903 -0.16713
 C211 C 1.06069 0.58817 0.80262
 C212 C 1.12048 0.60752 0.80877
 C213 C 1.15970 0.60310 0.75996
 C214 C 1.13926 0.58021 0.70551
 C215 C 1.07923 0.56104 0.69897
 C216 C 1.04029 0.56465 0.74831
 H217 H 1.02990 0.59168 0.83990
 H218 H 1.20578 0.61857 0.76389
 H219 H 1.17034 0.57810 0.66835
 H220 H 0.99373 0.55064 0.74458
 C221 C 0.71111 0.55246 0.61478
 C222 C 0.69123 0.61235 0.60489
 C223 C 0.72693 0.65095 0.56906
 C224 C 0.78175 0.63066 0.54556
 C225 C 0.80262 0.57202 0.55861
 C226 C 0.76648 0.53290 0.59273
 H227 H 0.68447 0.52105 0.64098
 H228 H 0.71365 0.69750 0.56073
 H229 H 0.80909 0.66168 0.51954
 H230 H 0.78139 0.48715 0.60280
 C231 C 0.75734 0.38035 1.14482
 C232 C 0.81148 0.39320 1.11543
 C233 C 0.81064 0.42525 1.06147
 C234 C 0.75590 0.44457 1.03723
 C235 C 0.70144 0.43020 1.06588
 C236 C 0.70272 0.39801 1.11991
 H237 H 0.75757 0.35504 1.18619
 H238 H 0.85229 0.43492 1.03826
 H239 H 0.75597 0.46946 0.99562
 H240 H 0.66141 0.38699 1.14321
 C241 C 0.28852 1.05187 -0.11453
 C242 C 0.30879 1.11183 -0.10517
 C243 C 0.27383 1.15065 -0.06886
 C244 C 0.21913 1.13059 -0.04467
 C245 C 0.19775 1.07192 -0.05742
 C246 C 0.23334 1.03252 -0.09175
 H247 H 0.31465 1.02022 -0.14095
 H248 H 0.28755 1.19720 -0.06072
 H249 H 0.19224 1.16181 -0.01845
 H250 H 0.21807 0.98673 -0.10157
 C251 C 0.19100 -0.07788 0.43855
 C252 C 0.18955 -0.10808 0.38350
 C253 C 0.24337 -0.11990 0.35314
 C254 C 0.29829 -0.10292 0.37811
 C255 C 0.30011 -0.07249 0.43320
 C256 C 0.24597 -0.05926 0.46288
 H257 H 0.14962 -0.06919 0.46255
 H258 H 0.24266 -0.14394 0.31097
 H259 H 0.33936 -0.11294 0.35402
 H260 H 0.24633 -0.03563 0.50530
 C261 C 0.58736 -0.30592 0.55450
 C262 C 0.60718 -0.31132 0.61363
 C263 C 0.59936 -0.26226 0.65293
 C264 C 0.57425 -0.20788 0.63307
 C265 C 0.55592 -0.20148 0.57346
 C266 C 0.56168 -0.25146 0.53457
 H267 H 0.59277 -0.34355 0.52374
 H268 H 0.61446 -0.26551 0.69867
 H269 H 0.57026 -0.17039 0.66422
 H270 H 0.54815 -0.24783 0.48837
 C271 C 1.04829 0.79815 0.38172
 C272 C 1.10994 0.81242 0.38600
 C273 C 1.14835 0.77043 0.41385
 C274 C 1.12631 0.71535 0.43532
 C275 C 1.06522 0.70014 0.42939
 C276 C 1.02621 0.74227 0.40269
 H277 H 1.01742 0.82995 0.36138
 H278 H 1.19603 0.77928 0.41797
 H279 H 1.15772 0.68402 0.45562
 H280 H 0.97879 0.73205 0.39801
 C281 C -0.14719 1.27180 0.08441
 C282 C -0.10910 1.31351 0.11347
 C283 C -0.04778 1.29862 0.11948
 C284 C -0.02584 1.24242 0.09915
 C285 C -0.06460 1.20049 0.07140
 C286 C -0.12528 1.21636 0.06366
 H287 H -0.19458 1.28110 0.07882
 H288 H -0.01708 1.33017 0.14075
 H289 H 0.02128 1.23179 0.10520
 H290 H -0.15652 1.18530 0.04243
 C291 C 0.41530 0.19397 0.94200
 C292 C 0.39262 0.18845 0.88397
 C293 C 0.39832 0.23752 0.84442
 C294 C 0.42433 0.29212 0.86317
 C295 C 0.44576 0.29852 0.92175
 C296 C 0.44195 0.24851 0.96072
 H297 H 0.41151 0.15630 0.97284
 H298 H 0.38102 0.23400 0.79946
 H299 H 0.42661 0.32974 0.83211
 H300 H 0.45775 0.25217 1.00623
 C301 C 0.65751 0.60562 0.73810
 C302 C 0.61773 0.60839 0.68970
 C303 C 0.55845 0.58788 0.69690
 C304 C 0.53917 0.56464 0.75171
 C305 C 0.57869 0.56248 0.80060
 C306 C 0.63815 0.58307 0.79310
 H307 H 0.70323 0.62198 0.73340
 H308 H 0.52723 0.59007 0.65998
 H309 H 0.49299 0.54955 0.75616
 H310 H 0.66964 0.58215 0.82986
 C311 C 0.34210 0.10257 0.76134
 C312 C 0.38189 0.10651 0.80964
 C313 C 0.44125 0.08633 0.80271
 C314 C 0.46066 0.06251 0.74815
 C315 C 0.42118 0.05944 0.69930
 C316 C 0.36156 0.07941 0.70662
 H317 H 0.29632 0.11865 0.76587
 H318 H 0.47247 0.08943 0.83959
 H319 H 0.50694 0.04792 0.74380
 H320 H 0.33010 0.07777 0.66985
 C321 C 0.09413 0.85121 0.25907
 C322 C 0.11259 0.89130 0.30426
 C323 C 0.11292 0.95426 0.29263
 C324 C 0.09395 0.97665 0.23730
 C325 C 0.07400 0.93637 0.19283
 C326 C 0.07458 0.87345 0.20436
 H327 H 0.09540 0.80246 0.26583
 H328 H 0.12761 0.98604 0.32658
 H329 H 0.09404 1.02530 0.22964
 H330 H 0.06037 0.84106 0.17072
 C331 C 0.88802 0.45533 0.20720
 C332 C 0.88737 0.39235 0.19545
 C333 C 0.90385 0.35207 0.24101
 C334 C 0.92267 0.37411 0.29618
 C335 C 0.92444 0.43704 0.30777
 C336 C 0.90625 0.47754 0.26297
 H337 H 0.87477 0.48725 0.17296
 H338 H 0.90170 0.30334 0.23414
 H339 H 0.93553 0.34160 0.33006
 H340 H 0.90717 0.52621 0.27065
   
