data_POSCAR
  _audit_creation_date              2014-09-24
  _audit_creation_method            'ToBaCCo'
  _symmetry_space_group_name_H-M    'P1'
  _symmetry_Int_Tables_number       1
  _symmetry_cell_setting            triclinic
  loop_
  _symmetry_equiv_pos_as_xyz
 x,y,z
_cell_length_a 46.9802
_cell_length_b 47.3634
_cell_length_c 47.2006
_cell_angle_alpha 89.920900
_cell_angle_beta 89.923500
_cell_angle_gamma 89.895100
loop_
  _atom_site_label
  _atom_site_type_symbol
  _atom_site_fract_x
  _atom_site_fract_y
  _atom_site_fract_z
C1 C 0.27775 0.38404 -0.00272
 C2 C 0.28521 0.37128 0.02284
 C3 C 0.30577 0.34984 0.02334
 C4 C 0.32024 0.34179 -0.00176
 C5 C 0.31286 0.35579 -0.02733
 C6 C 0.29117 0.37611 -0.02785
 C7 C 0.34238 0.31874 -0.00144
 C8 C 0.34989 0.30437 -0.02669
 C9 C 0.37090 0.28340 -0.02661
 C10 C 0.38363 0.27528 -0.00121
 C11 C 0.37602 0.28839 0.02413
 C12 C 0.35611 0.31048 0.02402
 H13 H 0.26118 0.40005 -0.00304
 H14 H 0.30986 0.33947 0.04332
 H15 H 0.32366 0.35117 -0.04700
 H16 H 0.33944 0.30896 -0.04655
 H17 H 0.39944 0.25852 -0.00107
 H18 H 0.35171 0.32094 0.04387
 C19 C 0.72184 0.61597 0.00073
 C20 C 0.70879 0.62374 0.02607
 C21 C 0.68741 0.64431 0.02612
 C22 C 0.67989 0.65877 0.00090
 C23 C 0.69397 0.65089 -0.02452
 C24 C 0.71427 0.62916 -0.02459
 C25 C 0.65792 0.68199 0.00131
 C26 C 0.64411 0.69089 -0.02388
 C27 C 0.62428 0.71303 -0.02336
 C28 C 0.61681 0.72556 0.00232
 C29 C 0.62958 0.71682 0.02746
 C30 C 0.65052 0.69579 0.02696
 H31 H 0.73819 0.59975 0.00075
 H32 H 0.67697 0.64870 0.04603
 H33 H 0.68979 0.66159 -0.04430
 H34 H 0.64842 0.68084 -0.04397
 H35 H 0.60107 0.74239 0.00278
 H36 H 0.66094 0.69075 0.04671
 C37 C 0.71996 0.38633 1.00092
 C38 C 0.71283 0.37422 0.97501
 C39 C 0.69248 0.35268 0.97383
 C40 C 0.67794 0.34386 0.99863
 C41 C 0.68501 0.35722 1.02458
 C42 C 0.70645 0.37766 1.02572
 C43 C 0.65608 0.32064 0.99763
 C44 C 0.64863 0.30557 1.02250
 C45 C 0.62786 0.28446 1.02183
 C46 C 0.61532 0.27692 0.99621
 C47 C 0.62287 0.29073 0.97122
 C48 C 0.64256 0.31294 0.97190
 H49 H 0.73636 0.40242 1.00183
 H50 H 0.68861 0.34283 0.95358
 H51 H 0.67420 0.35204 1.04410
 H52 H 0.65892 0.30973 1.04252
 H53 H 0.59967 0.26008 0.99563
 H54 H 0.64696 0.32392 0.95232
 C55 C 0.27937 0.61452 1.00137
 C56 C 0.29264 0.62274 0.97631
 C57 C 0.31387 0.64336 0.97677
 C58 C 0.32098 0.65740 1.00229
 C59 C 0.30668 0.64907 1.02744
 C60 C 0.28653 0.62730 1.02694
 C61 C 0.34272 0.68072 1.00243
 C62 C 0.35643 0.68902 1.02782
 C63 C 0.37611 0.71123 1.02778
 C64 C 0.38348 0.72442 1.00239
 C65 C 0.37076 0.71628 0.97709
 C66 C 0.34999 0.69517 0.97710
 H67 H 0.26310 0.59828 1.00092
 H68 H 0.32448 0.64816 0.95704
 H69 H 0.31057 0.65947 1.04741
 H70 H 0.35217 0.67845 1.04768
 H71 H 0.39911 0.74130 1.00230
 H72 H 0.33960 0.69058 0.95724
 C73 C -0.00370 0.27673 0.38488
 C74 C 0.02168 0.28949 0.37656
 C75 C 0.02138 0.31113 0.35630
 C76 C -0.00439 0.31927 0.34290
 C77 C -0.02973 0.30525 0.35118
 C78 C -0.02938 0.28473 0.37252
 C79 C -0.00487 0.34186 0.32037
 C80 C -0.03063 0.35563 0.31292
 C81 C -0.03133 0.37559 0.29102
 C82 C -0.00620 0.38340 0.27740
 C83 C 0.01957 0.37087 0.28488
 C84 C 0.02025 0.34976 0.30568
 H85 H -0.00343 0.26026 0.40089
 H86 H 0.04133 0.32129 0.35133
 H87 H -0.04988 0.30967 0.34113
 H88 H -0.05034 0.35116 0.32384
 H89 H -0.00669 0.39918 0.26068
 H90 H 0.04041 0.33957 0.30981
 C91 C 0.00246 0.72118 0.61359
 C92 C 0.02789 0.70806 0.62121
 C93 C 0.02793 0.68686 0.64186
 C94 C 0.00261 0.67959 0.65652
 C95 C -0.02286 0.69377 0.64880
 C96 C -0.02293 0.71389 0.62700
 C97 C 0.00293 0.65779 0.67982
 C98 C -0.02247 0.64440 0.68895
 C99 C -0.02204 0.62479 0.71122
 C100 C 0.00376 0.61712 0.72364
 C101 C 0.02909 0.62946 0.71465
 C102 C 0.02871 0.65017 0.69350
 H103 H 0.00248 0.73740 0.59731
 H104 H 0.04789 0.67638 0.64618
 H105 H -0.04270 0.68981 0.65966
 H106 H -0.04268 0.64886 0.67898
 H107 H 0.00416 0.60156 0.74056
 H108 H 0.04864 0.66022 0.68827
 C109 C 1.00344 0.72111 0.38294
 C110 C 0.97721 0.71358 0.37157
 C111 C 0.97567 0.69273 0.35065
 C112 C 1.00041 0.67796 0.34179
 C113 C 1.02676 0.68555 0.35433
 C114 C 1.02826 0.70753 0.37413
 C115 C 0.99877 0.65523 0.31951
 C116 C 1.02341 0.64648 0.30448
 C117 C 1.02190 0.62510 0.28407
 C118 C 0.99570 0.61317 0.27723
 C119 C 0.97101 0.62190 0.29106
 C120 C 0.97251 0.64216 0.31259
 H121 H 1.00452 0.73784 0.39863
 H122 H 0.95509 0.68863 0.34138
 H123 H 1.04627 0.67466 0.34905
 H124 H 1.04385 0.65624 0.30804
 H125 H 0.99443 0.59715 0.26084
 H126 H 0.95305 0.64737 0.32361
 C127 C 1.00238 0.27853 0.61804
 C128 C 0.97711 0.29191 0.62570
 C129 C 0.97746 0.31389 0.64548
 C130 C 1.00312 0.32175 0.65913
 C131 C 1.02841 0.30723 0.65145
 C132 C 1.02801 0.28630 0.63055
 C133 C 1.00343 0.34456 0.68133
 C134 C 1.02907 0.35843 0.68880
 C135 C 1.02939 0.37882 0.71027
 C136 C 1.00406 0.38682 0.72346
 C137 C 0.97846 0.37404 0.71602
 C138 C 0.97815 0.35258 0.69567
 H139 H 1.00205 0.26176 0.60239
 H140 H 0.95759 0.32454 0.64989
 H141 H 1.04849 0.31160 0.66165
 H142 H 1.04890 0.35367 0.67820
 H143 H 1.00425 0.40290 0.73984
 H144 H 0.95811 0.34220 0.69162
 C145 C 0.38508 0.00151 0.27515
 C146 C 0.37697 0.02666 0.28821
 C147 C 0.35659 0.02637 0.30991
 C148 C 0.34286 0.00090 0.31782
 C149 C 0.35089 -0.02420 0.30350
 C150 C 0.37238 -0.02393 0.28292
 C151 C 0.32025 0.00043 0.34052
 C152 C 0.31258 -0.02516 0.35413
 C153 C 0.29062 -0.02586 0.37415
 C154 C 0.27710 -0.00094 0.38223
 C155 C 0.28479 0.02470 0.36991
 C156 C 0.30569 0.02540 0.34870
 H157 H 0.40122 0.00183 0.25866
 H158 H 0.35179 0.04611 0.32031
 H159 H 0.34049 -0.04407 0.30779
 H160 H 0.32337 -0.04477 0.34951
 H161 H 0.26033 -0.00152 0.39807
 H162 H 0.31001 0.04545 0.33867
 C163 C 0.61338 0.00024 0.72360
 C164 C 0.62162 0.02542 0.71072
 C165 C 0.64245 0.02523 0.68954
 C166 C 0.65674 -0.00008 0.68209
 C167 C 0.64840 -0.02534 0.69595
 C168 C 0.62637 -0.02518 0.71606
 C169 C 0.68036 0.00011 0.66047
 C170 C 0.68903 -0.02499 0.64652
 C171 C 0.71150 -0.02460 0.62696
 C172 C 0.72462 0.00083 0.61994
 C173 C 0.71614 0.02587 0.63289
 C174 C 0.69477 0.02550 0.65355
 H175 H 0.59696 0.00054 0.73982
 H176 H 0.64722 0.04503 0.67923
 H177 H 0.65902 -0.04515 0.69172
 H178 H 0.67858 -0.04490 0.65047
 H179 H 0.74167 0.00112 0.60440
 H180 H 0.68993 0.04514 0.66410
 C181 C 0.38182 1.00020 0.72128
 C182 C 0.36993 0.97448 0.71346
 C183 C 0.34912 0.97350 0.69231
 C184 C 0.34092 0.99832 0.67755
 C185 C 0.35397 1.02413 0.68547
 C186 C 0.37365 1.02503 0.70770
 C187 C 0.31880 0.99731 0.65446
 C188 C 0.30422 1.02208 0.64577
 C189 C 0.28395 1.02112 0.62406
 C190 C 0.27680 0.99537 0.61174
 C191 C 0.29022 0.97057 0.62040
 C192 C 0.31162 0.97152 0.64099
 H193 H 0.39744 1.00092 0.73819
 H194 H 0.33943 0.95332 0.68796
 H195 H 0.34922 1.04369 0.67468
 H196 H 0.30803 1.04219 0.65583
 H197 H 0.26050 0.99452 0.59547
 H198 H 0.32234 0.95200 0.64615
 C199 C 0.61695 1.00255 0.27793
 C200 C 0.62419 0.97716 0.29098
 C201 C 0.64408 0.97679 0.31300
 C202 C 0.65825 1.00184 0.32127
 C203 C 0.65100 1.02732 0.30716
 C204 C 0.62997 1.02765 0.28613
 C205 C 0.68054 1.00132 0.34411
 C206 C 0.68810 1.02623 0.35888
 C207 C 0.70956 1.02575 0.37941
 C208 C 0.72271 1.00036 0.38660
 C209 C 0.71524 0.97544 0.37289
 C210 C 0.69484 0.97591 0.35131
 H211 H 0.60118 1.00269 0.26112
 H212 H 0.64818 0.95686 0.32340
 H213 H 0.66169 1.04691 0.31198
 H214 H 0.67759 1.04612 0.35475
 H215 H 0.73910 1.00003 0.40279
 H216 H 0.69070 0.95642 0.34020
 O217 O 0.82495 0.86468 0.52704
 O218 O 0.86623 0.82599 0.47376
 O219 O 0.82709 0.86434 0.47224
 O220 O 0.86474 0.82655 0.52870
 O221 O 0.83232 0.79293 0.52808
 O222 O 0.79388 0.83146 0.47150
 O223 O 0.83362 0.79256 0.47284
 O224 O 0.79188 0.83168 0.52652
 Cu225 Cu 0.84901 0.84867 0.50058
 Cu226 Cu 0.80963 0.80875 0.49974
 C227 C 0.80121 0.85515 0.53562
 C228 C 0.85713 0.80267 0.46416
 C229 C 0.80400 0.85464 0.46232
 C230 C 0.85532 0.80315 0.53785
 O231 O 0.17292 0.13403 0.52551
 O232 O 0.13444 0.17603 0.47278
 O233 O 0.17224 0.13598 0.47063
 O234 O 0.13535 0.17386 0.52760
 O235 O 0.16930 0.20596 0.52837
 O236 O 0.20666 0.16758 0.47106
 O237 O 0.16823 0.20830 0.47337
 O238 O 0.20743 0.16555 0.52625
 Cu239 Cu 0.15035 0.15182 0.49899
 Cu240 Cu 0.19140 0.19005 0.49974
 C241 C 0.19675 0.14243 0.53489
 C242 C 0.14436 0.19949 0.46434
 C243 C 0.19591 0.14497 0.46131
 C244 C 0.14580 0.19641 0.53767
 O245 O 0.14405 0.81544 0.52238
 O246 O 0.18279 0.85465 0.46791
 O247 O 0.14445 0.81531 0.46768
 O248 O 0.18287 0.85423 0.52257
 O249 O 0.21675 0.82190 0.52278
 O250 O 0.17767 0.78231 0.46757
 O251 O 0.21685 0.82250 0.46787
 O252 O 0.17714 0.78232 0.52252
 Cu253 Cu 0.16022 0.83812 0.49511
 Cu254 Cu 0.20051 0.79893 0.49516
 C255 C 0.15353 0.79204 0.53148
 C256 C 0.20664 0.84577 0.45896
 C257 C 0.15407 0.79195 0.45857
 C258 C 0.20656 0.84511 0.53177
 O259 O 0.82076 0.13825 0.47961
 O260 O 0.86225 0.17978 0.53021
 O261 O 0.82449 0.14017 0.53424
 O262 O 0.85989 0.17641 0.47555
 O263 O 0.82689 0.20962 0.47575
 O264 O 0.79040 0.17227 0.53450
 O265 O 0.82888 0.21261 0.53073
 O266 O 0.78708 0.17076 0.47954
 Cu267 Cu 0.84517 0.15543 0.50490
 Cu268 Cu 0.80491 0.19463 0.50518
 C269 C 0.79677 0.14718 0.47103
 C270 C 0.85292 0.20341 0.53894
 C271 C 0.80124 0.14958 0.54417
 C272 C 0.84983 0.19930 0.46577
 O273 O 0.47215 0.86523 0.82651
 O274 O 0.52597 0.82493 0.86563
 O275 O 0.52740 0.86434 0.82731
 O276 O 0.47095 0.82682 0.86533
 O277 O 0.47050 0.79366 0.83254
 O278 O 0.52708 0.83204 0.79369
 O279 O 0.52577 0.79197 0.83266
 O280 O 0.47155 0.83266 0.79315
 Cu281 Cu 0.49924 0.84860 0.84945
 Cu282 Cu 0.49878 0.80930 0.80960
 C283 C 0.46258 0.85593 0.80318
 C284 C 0.53477 0.80138 0.85620
 C285 C 0.53671 0.85497 0.80388
 C286 C 0.46117 0.80378 0.85572
 O287 O 0.53041 0.17554 0.13613
 O288 O 0.47541 0.13900 0.17698
 O289 O 0.47543 0.17749 0.13758
 O290 O 0.53055 0.13787 0.17565
 O291 O 0.53237 0.17103 0.20838
 O292 O 0.47688 0.21114 0.16981
 O293 O 0.47702 0.17191 0.20997
 O294 O 0.53217 0.20930 0.16825
 Cu295 Cu 0.50267 0.15416 0.15340
 Cu296 Cu 0.50465 0.19423 0.19241
 C297 C 0.54061 0.19870 0.14496
 C298 C 0.46713 0.14874 0.20063
 C299 C 0.46709 0.20130 0.14674
 C300 C 0.54088 0.14752 0.19851
 O301 O 0.52550 0.14151 0.81907
 O302 O 0.46868 0.17720 0.85800
 O303 O 0.47064 0.13983 0.81812
 O304 O 0.52371 0.18036 0.85779
 O305 O 0.52276 0.21381 0.82526
 O306 O 0.46905 0.17302 0.78531
 O307 O 0.46736 0.21108 0.82589
 O308 O 0.52410 0.17416 0.78569
 Cu309 Cu 0.49731 0.15647 0.84151
 Cu310 Cu 0.49576 0.19647 0.80228
 C311 C 0.53406 0.15113 0.79547
 C312 C 0.45844 0.20030 0.84896
 C313 C 0.46102 0.14919 0.79478
 C314 C 0.53212 0.20414 0.84860
 O315 O 0.47453 0.82244 0.13838
 O316 O 0.52620 0.86369 0.17900
 O317 O 0.52955 0.82543 0.13998
 O318 O 0.47131 0.86247 0.17557
 O319 O 0.47105 0.83059 0.20970
 O320 O 0.52929 0.79232 0.17290
 O321 O 0.52626 0.83128 0.21261
 O322 O 0.47397 0.78984 0.17180
 Cu323 Cu 0.50043 0.84670 0.15490
 Cu324 Cu 0.50011 0.80770 0.19514
 C325 C 0.46554 0.79901 0.14793
 C326 C 0.53487 0.85479 0.20287
 C327 C 0.53920 0.80245 0.14993
 C328 C 0.46148 0.85333 0.19887
 O329 O 0.86621 0.52885 0.82462
 O330 O 0.82694 0.47571 0.86542
 O331 O 0.86611 0.47430 0.82694
 O332 O 0.82762 0.53051 0.86408
 O333 O 0.79393 0.52984 0.83159
 O334 O 0.83325 0.47350 0.79361
 O335 O 0.79351 0.47476 0.83266
 O336 O 0.83316 0.52828 0.79148
 Cu337 Cu 0.84998 0.50249 0.84855
 Cu338 Cu 0.81005 0.50160 0.80904
 C339 C 0.85677 0.53734 0.80089
 C340 C 0.80352 0.46612 0.85613
 C341 C 0.85657 0.46443 0.80385
 C342 C 0.80408 0.53961 0.85454
 O343 O 0.17064 0.47039 0.13282
 O344 O 0.13136 0.52509 0.17137
 O345 O 0.17111 0.52521 0.13336
 O346 O 0.13120 0.47036 0.17127
 O347 O 0.16369 0.46973 0.20496
 O348 O 0.20402 0.52489 0.16664
 O349 O 0.16372 0.52471 0.20519
 O350 O 0.20369 0.46984 0.16596
 Cu351 Cu 0.14786 0.49779 0.14887
 Cu352 Cu 0.18710 0.49722 0.18907
 C353 C 0.19394 0.46086 0.14253
 C354 C 0.14057 0.53417 0.19491
 C355 C 0.19440 0.53441 0.14334
 C356 C 0.14038 0.46080 0.19469
 O357 O 0.85323 0.47110 0.18368
 O358 O 0.81548 0.52605 0.14426
 O359 O 0.85383 0.52565 0.18369
 O360 O 0.81472 0.47162 0.14441
 O361 O 0.78068 0.47195 0.17666
 O362 O 0.82053 0.52628 0.21670
 O363 O 0.78138 0.52665 0.17645
 O364 O 0.82002 0.47150 0.21679
 Cu365 Cu 0.83766 0.49855 0.16081
 Cu366 Cu 0.79723 0.49913 0.19998
 C367 C 0.84352 0.46220 0.20714
 C368 C 0.79178 0.53540 0.15315
 C369 C 0.84426 0.53493 0.20705
 C370 C 0.79082 0.46289 0.15338
 O371 O 0.18382 0.52705 0.85948
 O372 O 0.14421 0.47436 0.81904
 O373 O 0.18323 0.47265 0.85785
 O374 O 0.14426 0.52897 0.82155
 O375 O 0.17682 0.53019 0.78784
 O376 O 0.21673 0.47366 0.82505
 O377 O 0.17685 0.47523 0.78540
 O378 O 0.21712 0.52826 0.82648
 Cu379 Cu 0.16059 0.50060 0.84273
 Cu380 Cu 0.20017 0.50187 0.80273
 C381 C 0.20738 0.53641 0.85024
 C382 C 0.15341 0.46600 0.79518
 C383 C 0.20688 0.46394 0.84821
 C384 C 0.15359 0.53914 0.79846
 C385 C 0.24167 0.40470 0.08939
 C386 C 0.25464 0.41674 0.11318
 C387 C 0.23883 0.43408 0.13140
 C388 C 0.27122 0.38076 0.04827
 C389 C 0.19695 0.42665 0.10243
 C390 C 0.21269 0.40925 0.08443
 C391 C 0.25834 0.39072 0.06798
 C392 C 0.20998 0.43979 0.12575
 H393 H 0.27715 0.41361 0.11704
 H394 H 0.24945 0.44396 0.14915
 H395 H 0.17474 0.43048 0.09758
 H396 H 0.20248 0.40025 0.06596
 C397 C 0.74509 0.58742 0.09533
 C398 C 0.77470 0.58526 0.09319
 C399 C 0.78999 0.56946 0.11292
 C400 C 0.71898 0.61145 0.05205
 C401 C 0.74626 0.55894 0.13811
 C402 C 0.73089 0.57470 0.11812
 C403 C 0.72974 0.60079 0.07262
 C404 C 0.77589 0.55557 0.13521
 H405 H 0.78590 0.59499 0.07563
 H406 H 0.81279 0.56736 0.11019
 H407 H 0.73484 0.54832 0.15497
 H408 H 0.70794 0.57615 0.11990
 C409 C 0.75641 0.40966 0.90956
 C410 C 0.78503 0.41538 0.91523
 C411 C 0.80056 0.43302 0.89729
 C412 C 0.72692 0.38447 0.94995
 C413 C 0.75919 0.43851 0.86712
 C414 C 0.74359 0.42091 0.88526
 C415 C 0.73982 0.39503 0.93058
 C416 C 0.78768 0.44524 0.87334
 H417 H 0.79510 0.40699 0.93410
 H418 H 0.82248 0.43765 0.90260
 H419 H 0.74868 0.44763 0.84887
 H420 H 0.72135 0.41686 0.88084
 C421 C 0.25567 0.58746 0.90727
 C422 C 0.22617 0.58513 0.91040
 C423 C 0.21035 0.56952 0.89104
 C424 C 0.28258 0.61096 0.95013
 C425 C 0.25330 0.55953 0.86430
 C426 C 0.26922 0.57507 0.88393
 C427 C 0.27158 0.60058 0.92962
 C428 C 0.22380 0.55604 0.86814
 H429 H 0.21549 0.59458 0.92842
 H430 H 0.18766 0.56733 0.89448
 H431 H 0.26422 0.54923 0.84693
 H432 H 0.29208 0.57665 0.88142
 C433 C 0.08968 0.25028 0.41241
 C434 C 0.11317 0.26271 0.42570
 C435 C 0.13198 0.24601 0.44161
 C436 C 0.04782 0.27872 0.38828
 C437 C 0.10413 0.20450 0.43030
 C438 C 0.08560 0.22110 0.41432
 C439 C 0.06800 0.26703 0.39888
 C440 C 0.12719 0.21682 0.44461
 H441 H 0.11643 0.28531 0.42451
 H442 H 0.14949 0.25608 0.45252
 H443 H 0.09994 0.18209 0.43206
 H444 H 0.06745 0.21126 0.40422
 C445 C 0.09686 0.74444 0.58409
 C446 C 0.09433 0.77380 0.58227
 C447 C 0.11367 0.78936 0.56621
 C448 C 0.05394 0.71808 0.60868
 C449 C 0.13928 0.74639 0.55472
 C450 C 0.11966 0.73074 0.57072
 C451 C 0.07443 0.72888 0.59776
 C452 C 0.13597 0.77578 0.55173
 H453 H 0.07675 0.78462 0.59248
 H454 H 0.11062 0.81197 0.56444
 H455 H 0.15617 0.73538 0.54364
 H456 H 0.12174 0.70799 0.57189
 C457 C 0.91137 0.75643 0.40759
 C458 C 0.91675 0.78487 0.41333
 C459 C 0.89854 0.80011 0.43101
 C460 C 0.95211 0.72753 0.38212
 C461 C 0.86867 0.75877 0.43651
 C462 C 0.88708 0.74347 0.41887
 C463 C 0.93262 0.74019 0.39284
 C464 C 0.87460 0.78709 0.44325
 H465 H 0.93560 0.79505 0.40492
 H466 H 0.90363 0.82191 0.43564
 H467 H 0.85043 0.74817 0.44565
 H468 H 0.88288 0.72137 0.41479
 C469 C 0.90910 0.25338 0.58969
 C470 C 0.88493 0.26591 0.57769
 C471 C 0.86578 0.24947 0.56206
 C472 C 0.95100 0.28143 0.61385
 C473 C 0.89475 0.20800 0.57103
 C474 C 0.91364 0.22435 0.58672
 C475 C 0.93081 0.26993 0.60321
 C476 C 0.87089 0.22043 0.55809
 H477 H 0.88131 0.28841 0.57974
 H478 H 0.84763 0.25962 0.55223
 H479 H 0.89921 0.18570 0.56850
 H480 H 0.93232 0.21445 0.59584
 C481 C 0.41367 0.09461 0.25026
 C482 C 0.42800 0.11695 0.26340
 C483 C 0.44431 0.13574 0.24710
 C484 C 0.38905 0.05261 0.27778
 C485 C 0.43125 0.11022 0.20460
 C486 C 0.41487 0.09172 0.22080
 C487 C 0.39989 0.07278 0.26649
 C488 C 0.44668 0.13204 0.21760
 H489 H 0.42737 0.11928 0.28622
 H490 H 0.45611 0.15226 0.25769
 H491 H 0.43252 0.10689 0.18193
 H492 H 0.40397 0.07446 0.21040
 C493 C 0.58642 0.09496 0.74732
 C494 C 0.57176 0.11674 0.73346
 C495 C 0.55605 0.13644 0.74924
 C496 C 0.60968 0.05150 0.72096
 C497 C 0.57058 0.11307 0.79261
 C498 C 0.58636 0.09366 0.77691
 C499 C 0.59936 0.07216 0.73180
 C500 C 0.55464 0.13420 0.77894
 H501 H 0.57155 0.11785 0.71054
 H502 H 0.54379 0.15238 0.73817
 H503 H 0.56999 0.11087 0.81545
 H504 H 0.59758 0.07687 0.78785
 C505 C 0.40516 0.90884 0.75655
 C506 C 0.41057 0.91418 0.78516
 C507 C 0.42851 0.89638 0.80053
 C508 C 0.37997 0.94934 0.72739
 C509 C 0.43486 0.86695 0.75901
 C510 C 0.41698 0.88496 0.74357
 C511 C 0.39048 0.92990 0.74014
 C512 C 0.44134 0.87290 0.78748
 H513 H 0.40176 0.93274 0.79535
 H514 H 0.43292 0.90145 0.82246
 H515 H 0.44446 0.84905 0.74839
 H516 H 0.41318 0.88082 0.72132
 C517 C 0.58673 0.91043 0.25218
 C518 C 0.58328 0.91496 0.22311
 C519 C 0.56722 0.89626 0.20695
 C520 C 0.61178 0.95162 0.28019
 C521 C 0.55881 0.86756 0.24869
 C522 C 0.57483 0.88650 0.26494
 C523 C 0.60072 0.93182 0.26862
 C524 C 0.55438 0.87262 0.21962
 H525 H 0.59233 0.93347 0.21305
 H526 H 0.56432 0.90069 0.18462
 H527 H 0.54907 0.84958 0.25904
 H528 H 0.57726 0.88288 0.28748
 C529 C 0.40231 0.24406 0.90535
 C530 C 0.40614 0.21490 0.90790
 C531 C 0.42328 0.20046 0.88859
 C532 C 0.37964 0.27092 0.94888
 C533 C 0.43164 0.24406 0.86296
 C534 C 0.41457 0.25856 0.88251
 C535 C 0.38903 0.25917 0.92824
 C536 C 0.43685 0.21500 0.86637
 H537 H 0.39694 0.20350 0.92560
 H538 H 0.42674 0.17805 0.89169
 H539 H 0.44191 0.25581 0.84613
 H540 H 0.41196 0.28121 0.88050
 C541 C 0.58775 0.75186 0.91101
 C542 C 0.58473 0.78091 0.91537
 C543 C 0.56840 0.79716 0.89684
 C544 C 0.61269 0.72366 0.95241
 C545 C 0.55891 0.75556 0.86854
 C546 C 0.57519 0.73923 0.88732
 C547 C 0.60174 0.73533 0.93249
 C548 C 0.55483 0.78459 0.87353
 H549 H 0.59427 0.79090 0.93369
 H550 H 0.56578 0.81945 0.90121
 H551 H 0.54861 0.74529 0.85083
 H552 H 0.57726 0.71671 0.88384
 C553 C 0.41280 0.74938 0.09335
 C554 C 0.41628 0.77829 0.08844
 C555 C 0.43265 0.79455 0.10679
 C556 C 0.38766 0.72135 0.05217
 C557 C 0.44132 0.75325 0.13596
 C558 C 0.42500 0.73689 0.11735
 C559 C 0.39869 0.73283 0.07209
 C560 C 0.44579 0.78214 0.13047
 H561 H 0.40702 0.78814 0.06986
 H562 H 0.43555 0.81674 0.10205
 H563 H 0.45128 0.74312 0.15399
 H564 H 0.42259 0.71448 0.12124
 C565 C 0.59617 0.24333 0.08864
 C566 C 0.58485 0.25718 0.11233
 C567 C 0.56782 0.24236 0.13164
 C568 C 0.61909 0.27131 0.04597
 C569 C 0.57425 0.19971 0.10401
 C570 C 0.59133 0.21446 0.08490
 C571 C 0.60960 0.25900 0.06623
 C572 C 0.56171 0.21364 0.12719
 H573 H 0.58823 0.27960 0.11525
 H574 H 0.55839 0.25365 0.14926
 H575 H 0.57010 0.17757 0.10008
 H576 H 0.59980 0.20359 0.06653
 C577 C 0.24260 0.08666 0.59011
 C578 C 0.21360 0.08246 0.58507
 C579 C 0.19852 0.10121 0.56789
 C580 C 0.27091 0.04498 0.61443
 C581 C 0.24115 0.12930 0.56156
 C582 C 0.25629 0.11034 0.57869
 C583 C 0.25853 0.06484 0.60423
 C584 C 0.21225 0.12452 0.55545
 H585 H 0.20285 0.06409 0.59361
 H586 H 0.17626 0.09701 0.56375
 H587 H 0.25230 0.14702 0.55224
 H588 H 0.27882 0.11363 0.58223
 C589 C 0.74747 0.09192 0.41867
 C590 C 0.73459 0.11581 0.43059
 C591 C 0.75079 0.13455 0.44690
 C592 C 0.71984 0.05117 0.39248
 C593 C 0.79271 0.10571 0.43883
 C594 C 0.77659 0.08721 0.42249
 C595 C 0.73115 0.07081 0.40409
 C596 C 0.77993 0.12935 0.45160
 H597 H 0.71201 0.11957 0.42787
 H598 H 0.74037 0.15255 0.45656
 H599 H 0.81509 0.10116 0.44190
 H600 H 0.78676 0.06874 0.41343
 C601 C 0.75100 0.90914 0.58883
 C602 C 0.78024 0.91370 0.58575
 C603 C 0.79668 0.89548 0.56929
 C604 C 0.72249 0.94991 0.61442
 C605 C 0.75491 0.86710 0.55971
 C606 C 0.73837 0.88558 0.57613
 C607 C 0.73427 0.93027 0.60314
 C608 C 0.78414 0.87227 0.55564
 H609 H 0.79023 0.93191 0.59540
 H610 H 0.81913 0.89998 0.56669
 H611 H 0.74465 0.84946 0.54935
 H612 H 0.71571 0.88194 0.57823
 C613 C 0.25419 0.90399 0.40827
 C614 C 0.26829 0.88150 0.42154
 C615 C 0.25270 0.86131 0.43677
 C616 C 0.28043 0.94784 0.38562
 C617 C 0.20897 0.88570 0.42462
 C618 C 0.22449 0.90561 0.40932
 C619 C 0.26963 0.92702 0.39564
 C620 C 0.22292 0.86373 0.43910
 H621 H 0.29130 0.88012 0.42096
 H622 H 0.26400 0.84471 0.44788
 H623 H 0.18606 0.88807 0.42592
 H624 H 0.21335 0.92295 0.39918
 C625 C 0.09711 0.41415 0.74660
 C626 C 0.11984 0.42777 0.73309
 C627 C 0.13926 0.44361 0.74903
 C628 C 0.05421 0.39014 0.71988
 C629 C 0.11356 0.43153 0.79192
 C630 C 0.09442 0.41562 0.77607
 C631 C 0.07477 0.40074 0.73076
 C632 C 0.13582 0.44620 0.77854
 H633 H 0.12201 0.42691 0.71025
 H634 H 0.15614 0.45482 0.73816
 H635 H 0.11042 0.43299 0.81461
 H636 H 0.07687 0.40526 0.78674
 C637 C 0.08680 0.59069 0.24159
 C638 C 0.08210 0.58611 0.21272
 C639 C 0.10028 0.56856 0.19734
 C640 C 0.04564 0.61536 0.27063
 C641 C 0.12889 0.56098 0.23938
 C642 C 0.11050 0.57848 0.25483
 C643 C 0.06531 0.60502 0.25790
 C644 C 0.12352 0.55529 0.21062
 H645 H 0.06370 0.59525 0.20232
 H646 H 0.09564 0.56475 0.17520
 H647 H 0.14658 0.55101 0.25019
 H648 H 0.11417 0.58165 0.27725
 C649 C 0.89995 0.40991 0.25521
 C650 C 0.90185 0.41073 0.22566
 C651 C 0.88247 0.42660 0.20996
 C652 C 0.94364 0.38663 0.28151
 C653 C 0.85795 0.43977 0.25321
 C654 C 0.87763 0.42398 0.26899
 C655 C 0.92276 0.39689 0.27079
 C656 C 0.86075 0.44187 0.22359
 H657 H 0.91907 0.40000 0.21478
 H658 H 0.88509 0.42772 0.18718
 H659 H 0.84153 0.45149 0.26425
 H660 H 0.87607 0.42362 0.29189
 C661 C 0.91190 0.58934 0.75069
 C662 C 0.88806 0.57681 0.73814
 C663 C 0.86918 0.56086 0.75469
 C664 C 0.95356 0.61359 0.72207
 C665 C 0.89764 0.57062 0.79633
 C666 C 0.91628 0.58663 0.77987
 C667 C 0.93351 0.60296 0.73394
 C668 C 0.87420 0.55708 0.78386
 H669 H 0.88456 0.57863 0.71554
 H670 H 0.85137 0.55057 0.74449
 H671 H 0.90204 0.56823 0.81873
 H672 H 0.93471 0.59614 0.78979
 C673 C 0.75677 0.59602 0.90792
 C674 C 0.74334 0.58316 0.88481
 C675 C 0.75899 0.56584 0.86638
 C676 C 0.72787 0.61979 0.94968
 C677 C 0.80162 0.57498 0.89371
 C678 C 0.78604 0.59235 0.91190
 C679 C 0.74043 0.60991 0.92969
 C680 C 0.78815 0.56096 0.87115
 H681 H 0.72063 0.58559 0.88168
 H682 H 0.74802 0.55526 0.84927
 H683 H 0.82406 0.57179 0.89789
 H684 H 0.79664 0.60198 0.92982
 C685 C 0.25511 0.41106 0.90401
 C686 C 0.26898 0.42531 0.88193
 C687 C 0.25315 0.44127 0.86244
 C688 C 0.28157 0.38736 0.94732
 C689 C 0.20966 0.42793 0.88665
 C690 C 0.22541 0.41189 0.90584
 C691 C 0.27077 0.39781 0.92663
 C692 C 0.22337 0.44337 0.86517
 H693 H 0.29198 0.42496 0.88040
 H694 H 0.26427 0.45313 0.84623
 H695 H 0.18677 0.42904 0.88924
 H696 H 0.21445 0.40102 0.92287
 C697 C 0.24254 0.59222 0.09228
 C698 C 0.25515 0.57975 0.11610
 C699 C 0.23920 0.56177 0.13356
 C700 C 0.27252 0.61744 0.05223
 C701 C 0.19791 0.56932 0.10375
 C702 C 0.21378 0.58736 0.08650
 C703 C 0.25947 0.60695 0.07157
 C704 C 0.21058 0.55583 0.12712
 H705 H 0.27750 0.58308 0.12058
 H706 H 0.24956 0.55165 0.15138
 H707 H 0.17589 0.56533 0.09829
 H708 H 0.20386 0.59666 0.06798
 C709 C 0.74283 0.41186 0.09587
 C710 C 0.77249 0.41317 0.09378
 C711 C 0.78817 0.42866 0.11339
 C712 C 0.71635 0.38896 0.05225
 C713 C 0.74470 0.44055 0.13843
 C714 C 0.72894 0.42513 0.11853
 C715 C 0.72718 0.39903 0.07307
 C716 C 0.77442 0.44308 0.13555
 H717 H 0.78347 0.40306 0.07630
 H718 H 0.81102 0.43010 0.11066
 H719 H 0.73354 0.45159 0.15518
 H720 H 0.70597 0.42440 0.12027
 C721 C 0.90922 0.75636 0.59426
 C722 C 0.88588 0.74305 0.58159
 C723 C 0.86729 0.75854 0.56429
 C724 C 0.95126 0.72757 0.61780
 C725 C 0.89491 0.80079 0.57308
 C726 C 0.91328 0.78536 0.59044
 C727 C 0.93116 0.74012 0.60804
 C728 C 0.87212 0.78744 0.55924
 H729 H 0.88270 0.72054 0.58414
 H730 H 0.84999 0.74766 0.55385
 H731 H 0.89915 0.82302 0.56976
 H732 H 0.93139 0.79585 0.59992
 C733 C 0.90263 0.24410 0.40701
 C734 C 0.90601 0.21500 0.41075
 C735 C 0.88783 0.20020 0.42880
 C736 C 0.94484 0.27161 0.38245
 C737 C 0.86161 0.24328 0.43836
 C738 C 0.88003 0.25815 0.42036
 C739 C 0.92467 0.25964 0.39269
 C740 C 0.86593 0.21431 0.44342
 H741 H 0.92354 0.20395 0.40071
 H742 H 0.89160 0.17788 0.43212
 H743 H 0.84500 0.25471 0.44942
 H744 H 0.87741 0.28074 0.41786
 C745 C 0.09443 0.24303 0.59641
 C746 C 0.08898 0.21445 0.59142
 C747 C 0.10646 0.19901 0.57321
 C748 C 0.05357 0.27242 0.62108
 C749 C 0.13598 0.24031 0.56592
 C750 C 0.11827 0.25584 0.58406
 C751 C 0.07326 0.25960 0.61090
 C752 C 0.12974 0.21194 0.55970
 H753 H 0.07044 0.20439 0.60063
 H754 H 0.10118 0.17716 0.56900
 H755 H 0.15372 0.25085 0.55577
 H756 H 0.12249 0.27804 0.58751
 C757 C 0.09746 0.74376 0.40671
 C758 C 0.12033 0.73026 0.42014
 C759 C 0.13999 0.74612 0.43577
 C760 C 0.05363 0.71708 0.38427
 C761 C 0.11433 0.78893 0.42376
 C762 C 0.09496 0.77315 0.40803
 C763 C 0.07464 0.72796 0.39402
 C764 C 0.13665 0.77555 0.43838
 H765 H 0.12235 0.70748 0.41943
 H766 H 0.15687 0.73524 0.44698
 H767 H 0.11126 0.81155 0.42527
 H768 H 0.07730 0.78382 0.39784
 C769 C 0.59332 0.90872 0.75721
 C770 C 0.58051 0.88570 0.74368
 C771 C 0.56314 0.86716 0.75912
 C772 C 0.61719 0.95060 0.72878
 C773 C 0.57212 0.89421 0.80172
 C774 C 0.58954 0.91252 0.78635
 C775 C 0.60725 0.93057 0.74111
 C776 C 0.55815 0.87173 0.78816
 H777 H 0.58302 0.88272 0.72107
 H778 H 0.55259 0.85010 0.74809
 H779 H 0.56885 0.89823 0.82407
 H780 H 0.59913 0.93037 0.79701
 C781 C 0.40478 0.90872 0.24325
 C782 C 0.41756 0.88616 0.25770
 C783 C 0.43479 0.86691 0.24300
 C784 C 0.38150 0.95176 0.27037
 C785 C 0.42558 0.89224 0.19930
 C786 C 0.40829 0.91127 0.21394
 C787 C 0.39120 0.93134 0.25852
 C788 C 0.43966 0.87032 0.21378
 H789 H 0.41520 0.88414 0.28044
 H790 H 0.44546 0.85032 0.25472
 H791 H 0.42878 0.89536 0.17679
 H792 H 0.39869 0.92874 0.20257
 C793 C 0.59796 0.09386 0.24465
 C794 C 0.59290 0.08911 0.21586
 C795 C 0.57523 0.10729 0.20061
 C796 C 0.62147 0.05206 0.27337
 C797 C 0.56861 0.13604 0.24256
 C798 C 0.58621 0.11763 0.25789
 C799 C 0.61184 0.07214 0.26091
 C800 C 0.56233 0.13056 0.21395
 H801 H 0.60164 0.07064 0.20546
 H802 H 0.57096 0.10259 0.17857
 H803 H 0.55892 0.15376 0.25341
 H804 H 0.58970 0.12131 0.28026
 C805 C 0.40902 0.09325 0.74590
 C806 C 0.42072 0.11724 0.73304
 C807 C 0.43663 0.13638 0.74919
 C808 C 0.38507 0.05121 0.71812
 C809 C 0.42849 0.10781 0.79107
 C810 C 0.41251 0.08893 0.77501
 C811 C 0.39552 0.07144 0.72954
 C812 C 0.44121 0.13144 0.77826
 H813 H 0.41830 0.12069 0.71048
 H814 H 0.44630 0.15433 0.73873
 H815 H 0.43151 0.10347 0.81340
 H816 H 0.40365 0.07038 0.78517
 C817 C 0.59691 0.75703 0.09640
 C818 C 0.58325 0.74297 0.11874
 C819 C 0.56567 0.75799 0.13744
 C820 C 0.62038 0.72965 0.05357
 C821 C 0.57625 0.80123 0.11204
 C822 C 0.59391 0.78627 0.09359
 C823 C 0.61066 0.74150 0.07402
 C824 C 0.56130 0.78715 0.13367
 H825 H 0.58517 0.72027 0.12093
 H826 H 0.55432 0.74659 0.15383
 H827 H 0.57346 0.82369 0.10868
 H828 H 0.60417 0.79736 0.07627
 C829 C 0.41348 0.25017 0.09179
 C830 C 0.42686 0.26325 0.11480
 C831 C 0.44328 0.24717 0.13371
 C832 C 0.38830 0.27777 0.05002
 C833 C 0.43230 0.20494 0.10695
 C834 C 0.41583 0.22094 0.08830
 C835 C 0.39938 0.26637 0.07007
 C836 C 0.44670 0.21792 0.12953
 H837 H 0.42534 0.28590 0.11762
 H838 H 0.45424 0.25777 0.15082
 H839 H 0.43440 0.18248 0.10320
 H840 H 0.40568 0.21059 0.07053
 C841 C 0.58538 0.25316 0.90350
 C842 C 0.58267 0.22401 0.90746
 C843 C 0.56620 0.20799 0.88893
 C844 C 0.61069 0.28061 0.94513
 C845 C 0.55589 0.25000 0.86140
 C846 C 0.57230 0.26612 0.88019
 C847 C 0.59958 0.26938 0.92506
 C848 C 0.55217 0.22084 0.86599
 H849 H 0.59257 0.21376 0.92548
 H850 H 0.56389 0.18560 0.89301
 H851 H 0.54523 0.26050 0.84399
 H852 H 0.57409 0.28870 0.87701
 C853 C 0.40374 0.75805 0.90930
 C854 C 0.40796 0.78698 0.91334
 C855 C 0.42568 0.80208 0.89508
 C856 C 0.37995 0.72975 0.95131
 C857 C 0.43399 0.75965 0.86759
 C858 C 0.41634 0.74449 0.88608
 C859 C 0.38978 0.74209 0.93121
 C860 C 0.43948 0.78844 0.87244
 H861 H 0.39854 0.79765 0.93137
 H862 H 0.42933 0.82425 0.89928
 H863 H 0.44439 0.74859 0.85038
 H864 H 0.41348 0.72202 0.88295
 C865 C 0.75771 0.90783 0.40508
 C866 C 0.78681 0.91211 0.40948
 C867 C 0.80212 0.89399 0.42713
 C868 C 0.72888 0.94967 0.38171
 C869 C 0.75959 0.86613 0.43499
 C870 C 0.74421 0.88449 0.41741
 C871 C 0.74145 0.92962 0.39130
 C872 C 0.78852 0.87122 0.44067
 H873 H 0.79742 0.93025 0.40028
 H874 H 0.82440 0.89838 0.43093
 H875 H 0.74855 0.84882 0.44518
 H876 H 0.72160 0.88116 0.41442
 C877 C 0.25392 0.90139 0.58469
 C878 C 0.26783 0.87864 0.57167
 C879 C 0.25222 0.85920 0.55558
 C880 C 0.28037 0.94426 0.60874
 C881 C 0.20884 0.88488 0.56625
 C882 C 0.22436 0.90405 0.58242
 C883 C 0.26955 0.92374 0.59820
 C884 C 0.22265 0.86262 0.55212
 H885 H 0.29073 0.87648 0.57315
 H886 H 0.26344 0.84235 0.54479
 H887 H 0.18611 0.88802 0.56410
 H888 H 0.21339 0.92161 0.59231
 C889 C 0.24208 0.09135 0.40418
 C890 C 0.25562 0.11469 0.41636
 C891 C 0.24031 0.13312 0.43392
 C892 C 0.27090 0.05002 0.37973
 C893 C 0.19773 0.10532 0.42643
 C894 C 0.21299 0.08709 0.40881
 C895 C 0.25827 0.06975 0.38994
 C896 C 0.21135 0.12815 0.43974
 H897 H 0.27821 0.11804 0.41317
 H898 H 0.25141 0.15045 0.44393
 H899 H 0.17544 0.10096 0.43035
 H900 H 0.20232 0.06898 0.39971
 C901 C 0.75673 0.09496 0.60130
 C902 C 0.78617 0.09230 0.59778
 C903 C 0.80088 0.11113 0.58037
 C904 C 0.72937 0.05184 0.62406
 C905 C 0.75703 0.13653 0.57113
 C906 C 0.74226 0.11748 0.58847
 C907 C 0.74133 0.07234 0.61469
 C908 C 0.78635 0.13295 0.56619
 H909 H 0.79756 0.07485 0.60740
 H910 H 0.82348 0.10789 0.57712
 H911 H 0.74526 0.15305 0.56039
 H912 H 0.71941 0.11956 0.59082
 C913 C 0.90084 0.58715 0.25498
 C914 C 0.90356 0.58522 0.22554
 C915 C 0.88429 0.56928 0.20987
 C916 C 0.94424 0.61062 0.28147
 C917 C 0.85831 0.55816 0.25284
 C918 C 0.87788 0.57401 0.26861
 C919 C 0.92342 0.60036 0.27071
 C920 C 0.86182 0.55504 0.22338
 H921 H 0.92129 0.59519 0.21477
 H922 H 0.88750 0.56739 0.18722
 H923 H 0.84130 0.54727 0.26383
 H924 H 0.87567 0.57521 0.29143
 C925 C 0.91080 0.40760 0.75812
 C926 C 0.91508 0.41222 0.78705
 C927 C 0.89664 0.42975 0.80217
 C928 C 0.95277 0.38360 0.72965
 C929 C 0.86852 0.43712 0.75977
 C930 C 0.88718 0.41964 0.74458
 C931 C 0.93272 0.39358 0.74209
 C932 C 0.87356 0.44296 0.78855
 H933 H 0.93340 0.40322 0.79770
 H934 H 0.90102 0.43369 0.82433
 H935 H 0.85098 0.44706 0.74870
 H936 H 0.88383 0.41645 0.72211
 C937 C 0.09833 0.59621 0.75434
 C938 C 0.12133 0.58388 0.74001
 C939 C 0.14043 0.56638 0.75463
 C940 C 0.05530 0.62003 0.72735
 C941 C 0.11398 0.57432 0.79803
 C942 C 0.09513 0.59188 0.78348
 C943 C 0.07583 0.61014 0.73905
 C944 C 0.13641 0.56079 0.78364
 H945 H 0.12383 0.58684 0.71738
 H946 H 0.15744 0.55617 0.74298
 H947 H 0.11041 0.57058 0.82039
 H948 H 0.07729 0.60111 0.79475
 C949 C 0.08624 0.40462 0.24145
 C950 C 0.08107 0.40995 0.21276
 C951 C 0.09933 0.42737 0.19731
 C952 C 0.04502 0.38041 0.27080
 C953 C 0.12892 0.43334 0.23889
 C954 C 0.11046 0.41597 0.25440
 C955 C 0.06475 0.39048 0.25794
 C956 C 0.12313 0.43977 0.21034
 H957 H 0.06226 0.40150 0.20257
 H958 H 0.09433 0.43178 0.17535
 H959 H 0.14703 0.44262 0.24953
 H960 H 0.11452 0.41224 0.27668
   
