data_POSCAR
  _audit_creation_date              2014-09-24
  _audit_creation_method            'ToBaCCo'
  _symmetry_space_group_name_H-M    'P1'
  _symmetry_Int_Tables_number       1
  _symmetry_cell_setting            triclinic
  loop_
  _symmetry_equiv_pos_as_xyz
 x,y,z
_cell_length_a 40.9197
_cell_length_b 54.0211
_cell_length_c 39.0147
_cell_angle_alpha 90.007900
_cell_angle_beta 89.999400
_cell_angle_gamma 90.000600
loop_
  _atom_site_label
  _atom_site_type_symbol
  _atom_site_fract_x
  _atom_site_fract_y
  _atom_site_fract_z
O1 O 0.24866 0.27393 0.20397
 O2 O 0.29219 0.22510 0.25140
 O3 O 0.24855 0.22578 0.20284
 O4 O 0.29209 0.27333 0.25287
 O5 O 0.25267 0.27277 0.29156
 O6 O 0.20920 0.22528 0.24158
 O7 O 0.25281 0.22456 0.29013
 O8 O 0.20925 0.27341 0.24268
 Cu9 Cu 0.27435 0.24961 0.22391
 Cu10 Cu 0.22705 0.24897 0.27039
 C11 C 0.22150 0.28191 0.21518
 C12 C 0.27989 0.21650 0.27880
 C13 C 0.22141 0.21744 0.21367
 C14 C 0.27978 0.28112 0.28074
 O15 O 0.79243 0.27404 0.24784
 O16 O 0.74808 0.22643 0.29679
 O17 O 0.79235 0.22576 0.24879
 O18 O 0.74796 0.27462 0.29549
 O19 O 0.70927 0.27410 0.25599
 O20 O 0.75361 0.22531 0.20935
 O21 O 0.70937 0.22594 0.25735
 O22 O 0.75373 0.27358 0.20836
 Cu23 Cu 0.77411 0.25025 0.27617
 Cu24 Cu 0.72763 0.24966 0.22878
 C25 C 0.78057 0.28198 0.21985
 C26 C 0.72114 0.21808 0.28547
 C27 C 0.78048 0.21721 0.22114
 C28 C 0.72107 0.28267 0.28365
 O29 O 0.75418 0.77395 0.79127
 O30 O 0.70984 0.72516 0.74463
 O31 O 0.75432 0.72568 0.79225
 O32 O 0.70994 0.77332 0.74327
 O33 O 0.74867 0.77282 0.70382
 O34 O 0.79300 0.72522 0.75279
 O35 O 0.74854 0.72464 0.70513
 O36 O 0.79292 0.77350 0.75184
 Cu37 Cu 0.72821 0.74959 0.77184
 Cu38 Cu 0.77469 0.74901 0.72445
 C39 C 0.78105 0.78205 0.77949
 C40 C 0.72164 0.71659 0.71697
 C41 C 0.78117 0.71724 0.78080
 C42 C 0.72175 0.78115 0.71518
 O43 O 0.29245 0.77513 0.74833
 O44 O 0.24893 0.72630 0.79577
 O45 O 0.29236 0.72690 0.74687
 O46 O 0.24883 0.77444 0.79691
 O47 O 0.20947 0.77494 0.75818
 O48 O 0.25294 0.72745 0.70819
 O49 O 0.20952 0.72681 0.75707
 O50 O 0.25306 0.77567 0.70961
 Cu51 Cu 0.27462 0.75062 0.77583
 Cu52 Cu 0.22731 0.75125 0.72935
 C53 C 0.28014 0.78373 0.72094
 C54 C 0.22177 0.71832 0.78457
 C55 C 0.28005 0.71910 0.71900
 C56 C 0.22168 0.78277 0.78608
 C57 C 0.98278 -0.00012 0.00014
 C58 C 1.01612 -0.00008 0.00011
 C59 C 1.03518 0.01966 0.01753
 C60 C 1.03523 -0.01978 -0.01736
 C61 C 0.96377 -0.01821 -0.02051
 C62 C 0.96373 0.01791 0.02083
 C63 C 1.03000 0.04474 0.00980
 C64 C 1.04781 0.06313 0.02672
 C65 C 1.07140 0.05678 0.05145
 C66 C 1.07694 0.03160 0.05857
 C67 C 1.05909 0.01325 0.04169
 C68 C 1.05906 -0.01331 -0.04158
 C69 C 1.07695 -0.03162 -0.05851
 C70 C 1.07152 -0.05681 -0.05137
 C71 C 1.04802 -0.06322 -0.02657
 C72 C 1.03017 -0.04487 -0.00961
 C73 C 0.94012 -0.03306 -0.00460
 C74 C 0.92273 -0.05064 -0.02352
 C75 C 0.92850 -0.05360 -0.05883
 C76 C 0.95171 -0.03825 -0.07486
 C77 C 0.96904 -0.02065 -0.05591
 C78 C 0.96905 0.02037 0.05621
 C79 C 0.95166 0.03791 0.07520
 C80 C 0.92834 0.05319 0.05923
 C81 C 0.92252 0.05021 0.02392
 C82 C 0.93996 0.03269 0.00497
 H83 H 1.01211 0.05005 -0.00928
 H84 H 1.04303 0.08231 0.02042
 H85 H 1.09498 0.02602 0.07735
 H86 H 1.06361 -0.00601 0.04782
 H87 H 1.06347 0.00595 -0.04773
 H88 H 1.09491 -0.02600 -0.07734
 H89 H 1.01235 -0.05022 0.00952
 H90 H 0.93554 -0.03134 0.02264
 H91 H 0.90496 -0.06203 -0.01035
 H92 H 0.95662 -0.03988 -0.10203
 H93 H 0.98674 -0.00901 -0.06881
 H94 H 0.98684 0.00878 0.06908
 H95 H 0.95661 0.03956 0.10236
 H96 H 0.90466 0.06155 0.01079
 H97 H 0.93534 0.03095 -0.02226
 H98 H 1.04334 -0.08241 -0.02026
 C99 C 0.48089 0.49993 0.50008
 C100 C 0.51422 0.49989 0.50011
 C101 C 0.53334 0.51819 0.52026
 C102 C 0.53329 0.48154 0.48000
 C103 C 0.46181 0.48021 0.48264
 C104 C 0.46186 0.51971 0.51748
 C105 C 0.55702 0.53274 0.50388
 C106 C 0.57486 0.55030 0.52233
 C107 C 0.56952 0.55354 0.55767
 C108 C 0.54618 0.53857 0.57416
 C109 C 0.52839 0.52098 0.55566
 C110 C 0.52840 0.47877 0.44459
 C111 C 0.54613 0.46112 0.42613
 C112 C 0.56936 0.44608 0.44267
 C113 C 0.57464 0.44931 0.47802
 C114 C 0.55687 0.46692 0.49644
 C115 C 0.46682 0.45513 0.49049
 C116 C 0.44944 0.43673 0.47311
 C117 C 0.42645 0.44307 0.44775
 C118 C 0.42093 0.46825 0.44063
 C119 C 0.43836 0.48662 0.45799
 C120 C 0.43832 0.51335 0.54206
 C121 C 0.42092 0.53175 0.55938
 C122 C 0.42657 0.55693 0.55227
 C123 C 0.44965 0.56321 0.52699
 C124 C 0.46700 0.54477 0.50964
 H125 H 0.56135 0.53074 0.47662
 H126 H 0.59270 0.56141 0.50881
 H127 H 0.54158 0.54044 0.60136
 H128 H 0.51067 0.50957 0.56891
 H129 H 0.51076 0.49023 0.43130
 H130 H 0.54157 0.45926 0.39892
 H131 H 0.56115 0.46891 0.52370
 H132 H 0.48436 0.44982 0.50994
 H133 H 0.45416 0.41755 0.47944
 H134 H 0.40333 0.47383 0.42140
 H135 H 0.43398 0.50587 0.45174
 H136 H 0.43385 0.49411 0.54829
 H137 H 0.40325 0.52621 0.57855
 H138 H 0.45447 0.58238 0.52067
 H139 H 0.48461 0.55004 0.49025
 H140 H 0.59240 0.43814 0.49158
 C141 C 0.01549 0.50020 -0.00009
 C142 C -0.01784 0.50021 -0.00008
 C143 C -0.03690 0.48200 0.02028
 C144 C -0.03689 0.51843 -0.02044
 C145 C 0.03459 0.51981 -0.01776
 C146 C 0.03457 0.48058 0.01756
 C147 C -0.06039 0.46718 0.00405
 C148 C -0.07784 0.44948 0.02266
 C149 C -0.07230 0.44636 0.05798
 C150 C -0.04926 0.46168 0.07434
 C151 C -0.03185 0.47941 0.05569
 C152 C -0.03186 0.52102 -0.05585
 C153 C -0.04928 0.53874 -0.07450
 C154 C -0.07232 0.55405 -0.05814
 C155 C -0.07784 0.55095 -0.02281
 C156 C -0.06038 0.53325 -0.00421
 C157 C 0.02966 0.54493 -0.01015
 C158 C 0.04735 0.56319 -0.02748
 C159 C 0.07055 0.55665 -0.05253
 C160 C 0.07589 0.53142 -0.05949
 C161 C 0.05817 0.51321 -0.04218
 C162 C 0.05816 0.48715 0.04198
 C163 C 0.07585 0.46892 0.05929
 C164 C 0.07048 0.44370 0.05231
 C165 C 0.04727 0.43718 0.02727
 C166 C 0.02961 0.45546 0.00994
 H167 H -0.06479 0.46903 -0.02321
 H168 H -0.09548 0.43812 0.00924
 H169 H -0.04452 0.45992 0.10153
 H170 H -0.01428 0.49101 0.06883
 H171 H -0.01430 0.50941 -0.06899
 H172 H -0.04456 0.54049 -0.10169
 H173 H -0.06476 0.53141 0.02306
 H174 H 0.01203 0.55038 0.00912
 H175 H 0.04275 0.58241 -0.02130
 H176 H 0.09364 0.52569 -0.07848
 H177 H 0.06248 0.49391 -0.04824
 H178 H 0.06249 0.50645 0.04804
 H179 H 0.09360 0.47463 0.07828
 H180 H 0.04265 0.41796 0.02107
 H181 H 0.01197 0.45002 -0.00934
 H182 H -0.09548 0.56231 -0.00939
 C183 C 0.51717 1.00016 0.49983
 C184 C 0.48384 1.00017 0.49985
 C185 C 0.46477 0.98206 0.52039
 C186 C 0.46477 1.01829 0.47932
 C187 C 0.53624 1.01989 0.48238
 C188 C 0.53623 0.98042 0.51726
 C189 C 0.44103 0.96735 0.50438
 C190 C 0.42339 0.94988 0.52321
 C191 C 0.42899 0.94691 0.55855
 C192 C 0.45234 0.96208 0.57467
 C193 C 0.46994 0.97957 0.55579
 C194 C 0.46991 1.02078 0.44391
 C195 C 0.45230 1.03826 0.42505
 C196 C 0.42895 1.05343 0.44118
 C197 C 0.42338 1.05046 0.47653
 C198 C 0.44104 1.03301 0.49535
 C199 C 0.53108 1.04497 0.49012
 C200 C 0.54863 1.06337 0.47294
 C201 C 0.57194 1.05704 0.44792
 C202 C 0.57755 1.03185 0.44084
 C203 C 0.55995 1.01349 0.45800
 C204 C 0.55995 0.98681 0.54164
 C205 C 0.57753 0.96843 0.55879
 C206 C 0.57189 0.94325 0.55171
 C207 C 0.54857 0.93693 0.52669
 C208 C 0.53104 0.95534 0.50951
 H209 H 0.43653 0.96912 0.47713
 H210 H 0.40552 0.93861 0.50997
 H211 H 0.45714 0.96042 0.60186
 H212 H 0.48770 0.99111 0.56876
 H213 H 0.48766 1.00924 0.43093
 H214 H 0.45707 1.03992 0.39785
 H215 H 0.43657 1.03124 0.52260
 H216 H 0.51334 1.05028 0.50937
 H217 H 0.54384 1.08255 0.47922
 H218 H 0.59539 1.02628 0.42186
 H219 H 0.56444 0.99423 0.45184
 H220 H 0.56446 1.00606 0.54779
 H221 H 0.59538 0.97399 0.57777
 H222 H 0.54375 0.91775 0.52040
 H223 H 0.51329 0.95005 0.49027
 H224 H 0.40552 1.06173 0.48977
 N225 N 1.15983 0.17335 0.18792
 C226 C 1.17240 0.16475 0.15806
 N227 N 1.20140 0.17376 0.14679
 N228 N 1.21734 0.19088 0.16483
 C229 C 1.20483 0.19956 0.19479
 N230 N 1.17575 0.19046 0.20597
 C231 C 1.15528 0.14622 0.13878
 C232 C 1.14078 0.13057 0.12286
 C233 C 1.12342 0.11181 0.10426
 N234 N 1.12910 0.08754 0.11073
 N235 N 1.11267 0.07009 0.09384
 C236 C 1.08995 0.07625 0.06988
 N237 N 1.08442 0.10063 0.06350
 N238 N 1.10085 0.11810 0.08039
 N239 N 0.69994 0.66993 0.65205
 C240 C 0.67121 0.66113 0.66436
 N241 N 0.65906 0.67056 0.69394
 N242 N 0.67516 0.68824 0.71072
 C243 C 0.70395 0.69710 0.69847
 N244 N 0.71605 0.68762 0.66883
 C245 C 0.65377 0.64220 0.64618
 C246 C 0.63907 0.62636 0.63081
 C247 C 0.62156 0.60763 0.61231
 N248 N 0.62698 0.60426 0.57837
 N249 N 0.61053 0.58702 0.56108
 C250 C 0.58806 0.57253 0.57707
 N251 N 0.58277 0.57600 0.61114
 N252 N 0.59922 0.59324 0.62845
 N253 N -0.19864 0.32787 0.15357
 C254 C -0.17011 0.33721 0.16563
 N255 N -0.15771 0.32831 0.19540
 N256 N -0.17338 0.31063 0.21263
 C257 C -0.20198 0.30125 0.20065
 N258 N -0.21432 0.31018 0.17080
 C259 C -0.15329 0.35631 0.14714
 C260 C -0.13917 0.37235 0.13158
 C261 C -0.12235 0.39137 0.11294
 N262 N -0.10038 0.40618 0.12894
 N263 N -0.08460 0.42371 0.11154
 C264 C -0.09020 0.42709 0.07750
 N265 N -0.11230 0.41219 0.06165
 N266 N -0.12809 0.39465 0.07904
 N267 N 0.30051 0.83047 0.65568
 C268 C 0.32945 0.83930 0.66739
 N269 N 0.34218 0.82987 0.69670
 N270 N 0.32644 0.81215 0.71379
 C271 C 0.29746 0.80326 0.70213
 N272 N 0.28477 0.81275 0.67277
 C273 C 0.34650 0.85826 0.64887
 C274 C 0.36085 0.87412 0.63318
 C275 C 0.37796 0.89286 0.61430
 N276 N 0.40028 0.90750 0.63006
 N277 N 0.41638 0.92473 0.61241
 C278 C 0.41077 0.92796 0.57835
 N279 N 0.38832 0.91323 0.56274
 N280 N 0.37221 0.89600 0.58038
 N281 N -0.15793 0.67195 -0.19565
 C282 C -0.17032 0.66307 -0.16587
 N283 N -0.19886 0.67240 -0.15383
 N284 N -0.21457 0.69005 -0.17108
 C285 C -0.20227 0.69898 -0.20098
 N286 N -0.17363 0.68960 -0.21292
 C287 C -0.15347 0.64400 -0.14735
 C288 C -0.13931 0.62799 -0.13177
 C289 C -0.12245 0.60899 -0.11312
 N290 N -0.10049 0.59418 -0.12912
 N291 N -0.08467 0.57667 -0.11171
 C292 C -0.09024 0.57331 -0.07767
 N293 N -0.11234 0.58821 -0.06181
 N294 N -0.12816 0.60572 -0.07921
 N295 N 0.30030 1.16978 0.34407
 C296 C 0.32924 1.16096 0.33235
 N297 N 0.34196 1.17038 0.30304
 N298 N 0.32620 1.18809 0.28595
 C299 C 0.29721 1.19697 0.29761
 N300 N 0.28454 1.18749 0.32698
 C301 C 0.34631 1.14201 0.35088
 C302 C 0.36068 1.12617 0.36658
 C303 C 0.37783 1.10744 0.38545
 N304 N 0.40014 1.09281 0.36967
 N305 N 0.41628 1.07559 0.38732
 C306 C 0.41070 1.07237 0.42139
 N307 N 0.38826 1.08710 0.43702
 N308 N 0.37212 1.10432 0.41938
 N309 N 1.16008 -0.17316 -0.18811
 C310 C 1.17265 -0.16458 -0.15825
 N311 N 1.20166 -0.17358 -0.14699
 N312 N 1.21761 -0.19068 -0.16506
 C313 C 1.20509 -0.19935 -0.19502
 N314 N 1.17602 -0.19026 -0.20618
 C315 C 1.15552 -0.14607 -0.13894
 C316 C 1.14100 -0.13044 -0.12299
 C317 C 1.12362 -0.11172 -0.10434
 N318 N 1.10113 -0.11806 -0.08040
 N319 N 1.08468 -0.10064 -0.06346
 C320 C 1.09010 -0.07624 -0.06986
 N321 N 1.11273 -0.07003 -0.09388
 N322 N 1.12918 -0.08745 -0.11082
 N323 N 0.65854 0.32876 0.30664
 C324 C 0.67071 0.33819 0.33621
 N325 N 0.69942 0.32937 0.34853
 N326 N 0.71551 0.31166 0.33177
 C327 C 0.70339 0.30217 0.30215
 N328 N 0.67462 0.31105 0.28988
 C329 C 0.65331 0.35717 0.35435
 C330 C 0.63866 0.37304 0.36969
 C331 C 0.62120 0.39182 0.38815
 N332 N 0.62657 0.39518 0.42210
 N333 N 0.61019 0.41247 0.43935
 C334 C 0.58782 0.42703 0.42331
 N335 N 0.58258 0.42357 0.38923
 N336 N 0.59897 0.40628 0.37196
 N337 N 0.80196 -0.17120 -0.15546
 C338 C 0.83065 -0.16220 -0.16757
 N339 N 0.84309 -0.17154 -0.19708
 N340 N 0.82730 -0.18934 -0.21398
 C341 C 0.79855 -0.19839 -0.20191
 N342 N 0.78617 -0.18899 -0.17235
 C343 C 0.84767 -0.14310 -0.14926
 C344 C 0.86185 -0.12712 -0.13363
 C345 C 0.87863 -0.10821 -0.11471
 N346 N 0.90077 -0.09338 -0.13040
 N347 N 0.91650 -0.07597 -0.11271
 C348 C 0.91067 -0.07273 -0.07869
 N349 N 0.88840 -0.08766 -0.06315
 N350 N 0.87267 -0.10507 -0.08083
 N351 N 0.34182 0.32641 0.30796
 C352 C 0.32901 0.33491 0.33778
 N353 N 0.30002 0.32575 0.34884
 N354 N 0.28433 0.30858 0.33064
 C355 C 0.29710 0.30002 0.30077
 N356 N 0.32614 0.30925 0.28976
 C357 C 0.34581 0.35350 0.35728
 C358 C 0.35988 0.36919 0.37356
 C359 C 0.37661 0.38798 0.39276
 N360 N 0.37086 0.41224 0.38634
 N361 N 0.38657 0.42971 0.40392
 C362 C 0.40861 0.42358 0.42858
 N363 N 0.41422 0.39920 0.43492
 N364 N 0.39850 0.38171 0.41733
 N365 N 0.15890 0.67318 -0.18992
 C366 C 0.17148 0.66405 -0.16036
 N367 N 0.20065 0.67266 -0.14899
 N368 N 0.21675 0.68991 -0.16662
 C369 C 0.20421 0.69912 -0.19622
 N370 N 0.17499 0.69044 -0.20755
 C371 C 0.15412 0.64551 -0.14134
 C372 C 0.13951 0.62991 -0.12543
 C373 C 0.12211 0.61128 -0.10662
 N374 N 0.12755 0.58697 -0.11299
 N375 N 0.11125 0.56964 -0.09572
 C376 C 0.08892 0.57598 -0.07145
 N377 N 0.08362 0.60041 -0.06517
 N378 N 0.09992 0.61774 -0.08244
 N379 N 0.65942 1.17378 0.31028
 C380 C 0.67166 1.16522 0.34032
 N381 N 0.70044 1.17434 0.35200
 N382 N 0.71651 1.19151 0.33420
 C383 C 0.70434 1.20015 0.30407
 N384 N 0.67548 1.19095 0.29247
 C385 C 0.65446 1.14662 0.35939
 C386 C 0.64003 1.13092 0.37531
 C387 C 0.62288 1.11213 0.39407
 N388 N 0.62861 1.08787 0.38761
 N389 N 0.61253 1.07040 0.40481
 C390 C 0.59012 1.07653 0.42910
 N391 N 0.58452 1.10091 0.43547
 N392 N 0.60060 1.11839 0.41827
 N393 N 0.15866 0.32706 0.18968
 C394 C 0.17124 0.33620 0.16013
 N395 N 0.20041 0.32759 0.14875
 N396 N 0.21649 0.31032 0.16637
 C397 C 0.20394 0.30111 0.19597
 N398 N 0.17473 0.30980 0.20731
 C399 C 0.15390 0.35476 0.14112
 C400 C 0.13931 0.37037 0.12521
 C401 C 0.12194 0.38902 0.10641
 N402 N 0.09975 0.38258 0.08222
 N403 N 0.08348 0.39993 0.06495
 C404 C 0.08882 0.42435 0.07123
 N405 N 0.11115 0.43066 0.09552
 N406 N 0.12741 0.41333 0.11279
 N407 N 0.70021 0.82586 0.64766
 C408 C 0.67143 0.83499 0.65934
 N409 N 0.65917 0.82643 0.68937
 N410 N 0.67521 0.80924 0.70719
 C411 C 0.70405 0.80006 0.69556
 N412 N 0.71626 0.80867 0.66547
 C413 C 0.65425 0.85360 0.64026
 C414 C 0.63985 0.86931 0.62434
 C415 C 0.62273 0.88811 0.60558
 N416 N 0.62850 0.91237 0.61203
 N417 N 0.61245 0.92985 0.59483
 C418 C 0.59004 0.92374 0.57053
 N419 N 0.58440 0.89937 0.56416
 N420 N 0.60045 0.88187 0.58137
 N421 N 0.84258 0.17085 0.19768
 C422 C 0.83015 0.16151 0.16816
 N423 N 0.80145 0.17050 0.15606
 N424 N 0.78563 0.18827 0.17296
 C425 C 0.79799 0.19766 0.20253
 N426 N 0.82675 0.18862 0.21460
 C427 C 0.84721 0.14245 0.14982
 C428 C 0.86144 0.12651 0.13416
 C429 C 0.87828 0.10764 0.11521
 N430 N 0.90053 0.09289 0.13086
 N431 N 0.91632 0.07552 0.11313
 C432 C 0.91044 0.07227 0.07912
 N433 N 0.88805 0.08712 0.06363
 N434 N 0.87226 0.10449 0.08134
 N435 N 0.30028 0.67445 0.65094
 C436 C 0.32925 0.66527 0.66201
 N437 N 0.34207 0.67379 0.69181
 N438 N 0.32640 0.69097 0.71000
 C439 C 0.29736 0.70019 0.69899
 N440 N 0.28459 0.69162 0.66912
 C441 C 0.34604 0.64666 0.64254
 C442 C 0.36009 0.63095 0.62628
 C443 C 0.37679 0.61212 0.60713
 N444 N 0.39879 0.61834 0.58262
 N445 N 0.41448 0.60083 0.56508
 C446 C 0.40875 0.57645 0.57140
 N447 N 0.38663 0.57037 0.59599
 N448 N 0.37093 0.58788 0.61353
   
