data_POSCAR
  _audit_creation_date              2014-09-24
  _audit_creation_method            'ToBaCCo'
  _symmetry_space_group_name_H-M    'P1'
  _symmetry_Int_Tables_number       1
  _symmetry_cell_setting            triclinic
  loop_
  _symmetry_equiv_pos_as_xyz
 x,y,z
_cell_length_a 46.1459
_cell_length_b 45.5485
_cell_length_c 42.5658
_cell_angle_alpha 90.182300
_cell_angle_beta 90.068300
_cell_angle_gamma 90.504500
loop_
  _atom_site_label
  _atom_site_type_symbol
  _atom_site_fract_x
  _atom_site_fract_y
  _atom_site_fract_z
C1 C 0.60372 0.65637 0.62699
 N2 N 0.60077 0.63373 0.64752
 C3 C 0.62187 0.61322 0.64995
 N4 N 0.64549 0.61506 0.63105
 C5 C 0.64833 0.63725 0.61006
 N6 N 0.62758 0.65813 0.60836
 C7 C 0.89657 0.34353 0.12820
 N8 N 0.89832 0.36379 0.15166
 C9 C 0.87858 0.38563 0.15368
 N10 N 0.85687 0.38712 0.13221
 C11 C 0.85489 0.36695 0.10873
 N12 N 0.87479 0.34522 0.10674
 C13 C 0.39415 0.15564 -0.12826
 N14 N 0.39632 0.13500 -0.15122
 C15 C 0.37639 0.11298 -0.15342
 N16 N 0.35416 0.11171 -0.13258
 C17 C 0.35182 0.13229 -0.10959
 N18 N 0.37187 0.15423 -0.10747
 C19 C 0.10316 0.84390 0.37280
 N20 N 0.12752 0.84188 0.39068
 C21 C 0.14850 0.86290 0.38894
 N22 N 0.14542 0.88552 0.36859
 C23 C 0.12135 0.88767 0.35043
 N24 N 0.10001 0.86705 0.35298
 N25 N 0.07830 0.16218 0.10217
 N26 N 0.06743 0.15005 0.12762
 C27 C 0.04437 0.16566 0.13714
 C28 C 0.04033 0.18832 0.11618
 C29 C 0.06210 0.18545 0.09419
 H30 H 0.03136 0.16091 0.15765
 H31 H 0.06640 0.19983 0.07453
 Cu32 Cu 0.08425 0.11482 0.14549
 Cu33 Cu 0.11402 0.14843 0.08291
 Cu34 Cu 0.14531 0.08663 0.11552
 N35 N 0.10150 0.07961 0.16293
 N36 N 0.12605 0.06946 0.15183
 C37 C 0.13424 0.04625 0.16907
 C38 C 0.11349 0.04133 0.19182
 C39 C 0.09292 0.06276 0.18725
 H40 H 0.15374 0.03373 0.16525
 H41 H 0.07364 0.06619 0.20114
 N42 N 0.16154 0.10705 0.07873
 N43 N 0.15019 0.13115 0.06692
 C44 C 0.16711 0.14073 0.04321
 C45 C 0.18982 0.12147 0.03970
 C46 C 0.18560 0.10034 0.06242
 H47 H 0.16319 0.16015 0.02935
 H48 H 0.19945 0.08183 0.06709
 H49 H 0.10878 0.10509 0.09587
 H50 H 0.13075 0.12899 0.12269
 N51 N 0.41424 0.83307 0.61067
 N52 N 0.43300 0.85193 0.62267
 C53 C 0.45845 0.83839 0.62727
 C54 C 0.45525 0.80940 0.61812
 C55 C 0.42691 0.80669 0.60789
 H56 H 0.47763 0.84864 0.63717
 H57 H 0.41646 0.78717 0.59856
 Cu58 Cu 0.42191 0.89175 0.63334
 Cu59 Cu 0.37513 0.84445 0.59866
 Cu60 Cu 0.36189 0.91898 0.60128
 N61 N 0.40376 0.92682 0.65035
 N62 N 0.37967 0.93698 0.63816
 C63 C 0.37081 0.96020 0.65508
 C64 C 0.39053 0.96494 0.67903
 C65 C 0.41130 0.94348 0.67530
 H66 H 0.35137 0.97257 0.65041
 H67 H 0.42990 0.93970 0.69018
 N68 N 0.33864 0.89169 0.57599
 N69 N 0.34258 0.86302 0.57612
 C70 C 0.32312 0.85038 0.55652
 C71 C 0.30647 0.87231 0.54342
 C72 C 0.31689 0.89816 0.55629
 H73 H 0.32195 0.82716 0.55118
 H74 H 0.30934 0.92012 0.55148
 H75 H 0.39057 0.88506 0.58770
 H76 H 0.37024 0.88219 0.62554
 N77 N 0.91364 0.66622 0.38854
 N78 N 0.93270 0.64733 0.37788
 C79 C 0.95831 0.66113 0.37381
 C80 C 0.95490 0.69032 0.38181
 C81 C 0.92628 0.69289 0.39085
 H82 H 0.97775 0.65092 0.36495
 H83 H 0.91562 0.71250 0.39914
 Cu84 Cu 0.92176 0.60711 0.36789
 Cu85 Cu 0.87426 0.65449 0.39976
 Cu86 Cu 0.86070 0.57977 0.39837
 N87 N 0.90379 0.57160 0.35090
 N88 N 0.87930 0.56140 0.36243
 C89 C 0.87063 0.53791 0.34553
 C90 C 0.89090 0.53307 0.32228
 C91 C 0.91178 0.55472 0.32641
 H92 H 0.85091 0.52550 0.34968
 H93 H 0.93076 0.55853 0.31204
 N94 N 0.83706 0.60720 0.42245
 N95 N 0.84118 0.63591 0.42189
 C96 C 0.82158 0.64863 0.44094
 C97 C 0.80463 0.62671 0.45415
 C98 C 0.81502 0.60078 0.44189
 H99 H 0.82058 0.67189 0.44595
 H100 H 0.80737 0.57881 0.44706
 H101 H 0.88922 0.61432 0.41221
 H102 H 0.86996 0.61620 0.37360
 N103 N 0.57987 0.33845 -0.10160
 N104 N 0.56784 0.35181 -0.12559
 C105 C 0.54419 0.33647 -0.13473
 C106 C 0.54103 0.31262 -0.11506
 C107 C 0.56392 0.31456 -0.09422
 H108 H 0.53024 0.34217 -0.15417
 H109 H 0.56905 0.29922 -0.07573
 Cu110 Cu 0.58391 0.38806 -0.14256
 Cu111 Cu 0.61637 0.35181 -0.08332
 Cu112 Cu 0.64760 0.41431 -0.11528
 N113 N 0.60214 0.42292 -0.16034
 N114 N 0.62759 0.43229 -0.15043
 C115 C 0.63608 0.45534 -0.16796
 C116 C 0.61461 0.46094 -0.18969
 C117 C 0.59332 0.44009 -0.18419
 H118 H 0.65630 0.46724 -0.16509
 H119 H 0.57336 0.43719 -0.19722
 N120 N 0.66461 0.39315 -0.07960
 N121 N 0.65326 0.36875 -0.06809
 C122 C 0.67058 0.35881 -0.04499
 C123 C 0.69357 0.37816 -0.04157
 C124 C 0.68910 0.39971 -0.06371
 H125 H 0.66665 0.33918 -0.03136
 H126 H 0.70297 0.41848 -0.06817
 H127 H 0.61153 0.39563 -0.09420
 H128 H 0.63116 0.37248 -0.12346
 C129 C -0.04338 0.27770 0.12273
 N130 N -0.06255 0.28190 0.09899
 N131 N -0.08221 0.30309 0.10086
 C132 C -0.08308 0.32118 0.12628
 N133 N -0.06370 0.31708 0.14987
 N134 N -0.04437 0.29557 0.14825
 C135 C -0.02188 0.25425 0.12090
 N136 N -0.01205 0.24126 0.14747
 N137 N 0.00753 0.21999 0.14590
 C138 C 0.01834 0.21132 0.11776
 N139 N 0.00867 0.22446 0.09119
 N140 N -0.01129 0.24538 0.09272
 C141 C 0.54026 0.72111 0.62235
 N142 N 0.53368 0.69396 0.63347
 N143 N 0.55392 0.67333 0.63505
 C144 C 0.58136 0.67900 0.62514
 N145 N 0.58787 0.70607 0.61378
 N146 N 0.56773 0.72682 0.61261
 C147 C 0.51813 0.74400 0.62112
 N148 N 0.52596 0.77279 0.62056
 N149 N 0.50590 0.79363 0.61980
 C150 C 0.47730 0.78642 0.61913
 N151 N 0.46947 0.75762 0.61945
 N152 N 0.48953 0.73678 0.62066
 C153 C 1.04022 0.77976 0.37756
 N154 N 1.06601 0.77631 0.39238
 N155 N 1.08627 0.79728 0.39116
 C156 C 1.08169 0.82228 0.37462
 N157 N 1.05591 0.82562 0.35965
 N158 N 1.03546 0.80485 0.36130
 C159 C 1.01800 0.75659 0.37882
 N160 N 0.98951 0.76318 0.37573
 N161 N 0.96935 0.74209 0.37698
 C162 C 0.97702 0.71362 0.38082
 N163 N 1.00552 0.70701 0.38367
 N164 N 1.02564 0.72815 0.38293
 C165 C 0.45595 0.22302 -0.12222
 N166 N 0.45045 0.20945 -0.15005
 N167 N 0.43086 0.18786 -0.15191
 C168 C 0.41574 0.17938 -0.12610
 N169 N 0.42107 0.19311 -0.09830
 N170 N 0.44099 0.21441 -0.09635
 C171 C 0.47782 0.24651 -0.12019
 N172 N 0.49151 0.25247 -0.09262
 N173 N 0.51176 0.27347 -0.09099
 C174 C 0.51870 0.28953 -0.11676
 N175 N 0.50483 0.28374 -0.14425
 N176 N 0.48490 0.26246 -0.14599
 C177 C 0.11614 -0.04619 0.28536
 N178 N 0.09292 -0.06397 0.29081
 N179 N 0.09446 -0.08540 0.31202
 C180 C 0.11914 -0.08952 0.32884
 N181 N 0.14216 -0.07141 0.32362
 N182 N 0.14076 -0.05030 0.30214
 C183 C 0.11515 -0.02338 0.26115
 N184 N 0.14004 -0.01376 0.24752
 N185 N 0.13941 0.00672 0.22529
 C186 C 0.11392 0.01864 0.21620
 N187 N 0.08901 0.00921 0.22999
 N188 N 0.08959 -0.01161 0.25192
 C189 C 0.61710 0.54806 -0.28372
 N190 N 0.64139 0.55192 -0.30119
 N191 N 0.64266 0.57274 -0.32302
 C192 C 0.61985 0.59080 -0.32794
 N193 N 0.59552 0.58697 -0.31040
 N194 N 0.59410 0.56583 -0.28883
 C195 C 0.61618 0.52544 -0.25928
 N196 N 0.59056 0.51412 -0.24909
 N197 N 0.59000 0.49340 -0.22704
 C198 C 0.61502 0.48362 -0.21410
 N199 N 0.64060 0.49510 -0.22413
 N200 N 0.64117 0.51549 -0.24647
 C201 C 0.38297 1.04988 0.77552
 N202 N 0.40666 1.06547 0.78490
 N203 N 0.40455 1.08571 0.80745
 C204 C 0.37875 1.09077 0.82170
 N205 N 0.35512 1.07501 0.81248
 N206 N 0.35715 1.05507 0.78964
 C207 C 0.38511 1.02789 0.75039
 N208 N 0.36116 1.01950 0.73402
 N209 N 0.36300 0.99963 0.71111
 C210 C 0.38878 0.98714 0.70400
 N211 N 0.41272 0.99538 0.72049
 N212 N 0.41095 1.01556 0.74314
 C213 C 0.88436 0.44800 0.22570
 N214 N 0.85879 0.44279 0.21082
 N215 N 0.85700 0.42304 0.18773
 C216 C 0.88063 0.40750 0.17899
 N217 N 0.90618 0.41256 0.19401
 N218 N 0.90806 0.43260 0.21682
 C219 C 0.88626 0.46990 0.25098
 N220 N 0.91209 0.48237 0.25893
 N221 N 0.91363 0.50258 0.28160
 C222 C 0.88944 0.51072 0.29740
 N223 N 0.86367 0.49807 0.28961
 N224 N 0.86207 0.47817 0.26668
 C225 C 0.28271 0.12800 -0.04633
 N226 N 0.29154 0.10361 -0.06187
 N227 N 0.31347 0.10503 -0.08214
 C228 C 0.32765 0.13081 -0.08726
 N229 N 0.31896 0.15518 -0.07155
 N230 N 0.29675 0.15384 -0.05159
 C231 C 0.25846 0.12638 -0.02411
 N232 N 0.24328 0.15078 -0.01646
 N233 N 0.22119 0.14919 0.00363
 C234 C 0.21376 0.12321 0.01708
 N235 N 0.22904 0.09886 0.00957
 N236 N 0.25086 0.10037 -0.01084
 C237 C 0.71676 0.63579 0.54584
 N238 N 0.69995 0.66001 0.54847
 N239 N 0.67832 0.66077 0.56923
 C240 C 0.67296 0.63745 0.58825
 N241 N 0.68999 0.61343 0.58580
 N242 N 0.71141 0.61258 0.56493
 C243 C 0.73974 0.63397 0.52212
 N244 N 0.75171 0.60761 0.51530
 N245 N 0.77225 0.60544 0.49354
 C246 C 0.78178 0.62956 0.47792
 N247 N 0.76995 0.65602 0.48480
 N248 N 0.74916 0.65816 0.50643
 C249 C 0.78673 0.37145 0.04421
 N250 N 0.80054 0.34570 0.04927
 N251 N 0.82250 0.34431 0.06957
 C252 C 0.83116 0.36854 0.08583
 N253 N 0.81724 0.39425 0.08088
 N254 N 0.79555 0.39573 0.06028
 C255 C 0.76258 0.37309 0.02184
 N256 N 0.75513 0.39918 0.00896
 N257 N 0.73325 0.40074 -0.01139
 C258 C 0.71775 0.37633 -0.01923
 N259 N 0.72506 0.35025 -0.00620
 N260 N 0.74721 0.34863 0.01383
 C261 C 0.21812 0.86367 0.45184
 N262 N 0.21283 0.88708 0.43314
 N263 N 0.19105 0.88643 0.41263
 C264 C 0.17360 0.86241 0.41016
 N265 N 0.17892 0.83887 0.42876
 N266 N 0.20090 0.83944 0.44916
 C267 C 0.24137 0.86534 0.47535
 N268 N 0.25054 0.84105 0.49077
 N269 N 0.27144 0.84309 0.51237
 C270 C 0.28365 0.86953 0.51950
 N271 N 0.27439 0.89375 0.50413
 N272 N 0.25374 0.89168 0.48239
   
