data_POSCAR
  _audit_creation_date              2014-09-24
  _audit_creation_method            'ToBaCCo'
  _symmetry_space_group_name_H-M    'P1'
  _symmetry_Int_Tables_number       1
  _symmetry_cell_setting            triclinic
  loop_
  _symmetry_equiv_pos_as_xyz
 x,y,z
_cell_length_a 29.3019
_cell_length_b 29.3204
_cell_length_c 29.3723
_cell_angle_alpha 90.133900
_cell_angle_beta 90.107600
_cell_angle_gamma 89.963300
loop_
  _atom_site_label
  _atom_site_type_symbol
  _atom_site_fract_x
  _atom_site_fract_y
  _atom_site_fract_z
O1 O 0.46085 0.95972 -0.54641
 O2 O 0.54334 0.96375 -0.45142
 O3 O 0.45547 0.96016 -0.45727
 O4 O 0.54982 0.96223 -0.53975
 O5 O 0.54450 1.03729 -0.54373
 O6 O 0.45380 1.03551 -0.45697
 O7 O 0.54332 1.03898 -0.45494
 O8 O 0.45589 1.03490 -0.54486
 Cu9 Cu 0.50257 0.95387 -0.49877
 Cu10 Cu 0.49924 1.04425 -0.50011
 C11 C 0.44384 0.99670 -0.56127
 C12 C 0.55781 1.00213 -0.43738
 C13 C 0.43892 0.99746 -0.44273
 C14 C 0.56288 1.00005 -0.55612
 O15 O -0.54242 1.45139 -0.03834
 O16 O -0.45692 1.54352 -0.03571
 O17 O -0.45368 1.45580 -0.03465
 O18 O -0.54559 1.54118 -0.04045
 O19 O -0.55033 1.54155 0.03458
 O20 O -0.45816 1.45618 0.04044
 O21 O -0.46161 1.54577 0.03934
 O22 O -0.54697 1.45382 0.03666
 Cu23 Cu -0.49955 1.49781 -0.04487
 Cu24 Cu -0.50444 1.49948 0.04532
 C25 C -0.55931 1.43692 -0.00123
 C26 C -0.44468 1.56021 0.00231
 C27 C -0.44020 1.44157 0.00385
 C28 C -0.56362 1.55598 -0.00397
 O29 O 0.04047 0.45415 0.45923
 O30 O 0.03533 0.54674 0.54390
 O31 O 0.03699 0.45812 0.54799
 O32 O 0.03780 0.54351 0.45609
 O33 O -0.03760 0.54261 0.45465
 O34 O -0.03807 0.45329 0.54243
 O35 O -0.03990 0.54228 0.54403
 O36 O -0.03477 0.45458 0.45408
 Cu37 Cu 0.04524 0.50070 0.50200
 Cu38 Cu -0.04518 0.49810 0.49866
 C39 C 0.00376 0.43910 0.44176
 C40 C -0.00312 0.55994 0.55884
 C41 C -0.00069 0.44081 0.56044
 C42 C 0.00017 0.55787 0.44006
 O43 O -0.12014 1.00327 -0.05725
 O44 O 0.11430 0.99312 -0.06700
 O45 O -0.00541 1.06198 -0.11653
 O46 O -0.00428 0.93839 -0.11841
 O47 O -0.00534 0.88203 -0.06361
 O48 O 0.00064 1.11685 -0.06037
 O49 O 0.05654 0.99797 -0.12032
 O50 O -0.06668 1.00423 -0.11492
 Zr51 Zr -0.00348 0.99972 -0.08056
 O52 O 0.03810 0.95641 -0.04402
 O53 O -0.04209 1.04167 -0.03953
 C54 C -0.10825 1.00506 -0.09976
 C55 C 0.09911 0.99455 -0.10848
 C56 C -0.00316 1.10392 -0.10249
 C57 C -0.00499 0.89609 -0.10548
 H58 H 0.05989 1.05811 -0.06256
 O59 O 0.04062 1.03898 -0.04269
 H60 H -0.06507 0.94059 -0.05945
 O61 O -0.04425 0.95920 -0.04050
 O62 O 0.12009 0.99481 0.05616
 O63 O -0.11477 1.00062 0.06582
 O64 O 0.06524 1.11361 0.00161
 O65 O 0.05762 0.87913 -0.00496
 O66 O -0.06527 0.88306 0.00110
 O67 O -0.05856 1.11759 0.00072
 O68 O 0.00845 1.05908 0.11724
 O69 O 0.00276 0.93580 0.11596
 O70 O 0.00597 1.11525 0.06234
 O71 O -0.00391 0.88085 0.05991
 O72 O 0.11926 1.05647 -0.00392
 O73 O -0.11573 1.06355 0.00411
 O74 O -0.11924 0.94019 0.00607
 O75 O 0.11493 0.93298 -0.00871
 O76 O 0.06666 0.99809 0.11377
 O77 O -0.05689 0.99688 0.11913
 Zr78 Zr 0.08012 0.99593 -0.00388
 Zr79 Zr -0.08038 1.00084 0.00281
 Zr80 Zr 0.00224 1.07872 0.00050
 Zr81 Zr -0.00270 0.91838 -0.00147
 Zr82 Zr 0.00333 0.99774 0.07954
 O83 O -0.04103 0.95796 0.04207
 O84 O 0.04429 1.03814 0.03950
 C85 C 0.10823 0.99672 0.09870
 C86 C -0.09958 0.99844 0.10727
 C87 C 0.10696 1.09891 -0.00071
 C88 C 0.10005 0.89131 -0.00827
 C89 C -0.10689 0.89769 0.00454
 C90 C -0.10107 1.10526 0.00251
 C91 C 0.00863 1.10135 0.10416
 C92 C -0.00106 0.89393 0.10208
 H93 H -0.05642 1.06023 0.06314
 O94 O -0.03833 1.04043 0.04272
 H95 H 0.06121 0.93539 0.05674
 O96 O 0.04150 0.95565 0.03837
 C97 C 0.34596 0.99513 0.33508
 N98 N 0.35024 1.03172 0.36311
 N99 N 0.38164 1.03215 0.39592
 C100 C 0.40951 0.99574 0.40234
 N101 N 0.40510 0.95896 0.37449
 N102 N 0.37403 0.95877 0.34125
 C103 C 0.31112 0.99507 0.29912
 N104 N 0.31442 0.96660 0.26272
 N105 N 0.28277 0.96717 0.23004
 C106 C 0.24646 0.99584 0.23291
 N107 N 0.24308 1.02407 0.26943
 N108 N 0.27498 1.02391 0.30176
 C109 C 0.21092 0.99613 0.19764
 N110 N 0.16895 1.01324 0.20707
 N111 N 0.13633 1.01332 0.17547
 C112 C 0.14464 0.99690 0.13305
 N113 N 0.18675 0.98009 0.12344
 N114 N 0.21926 0.97946 0.15528
 C115 C -0.33318 1.00141 0.34672
 N116 N -0.33841 0.96511 0.37482
 N117 N -0.37162 0.96464 0.40575
 C118 C -0.40040 1.00069 0.41005
 N119 N -0.39492 1.03715 0.38221
 N120 N -0.36209 1.03738 0.35090
 C121 C -0.29744 1.00148 0.31181
 N122 N -0.30067 1.02960 0.27532
 N123 N -0.26880 1.02907 0.24305
 C124 C -0.23224 1.00082 0.24639
 N125 N -0.22877 0.97295 0.28309
 N126 N -0.26096 0.97307 0.31509
 C127 C -0.19752 1.00008 0.21048
 N128 N -0.15512 0.98317 0.21861
 N129 N -0.12370 0.98281 0.18584
 C130 C -0.13380 0.99879 0.14364
 N131 N -0.17627 1.01540 0.13550
 N132 N -0.20747 1.01630 0.16839
 C133 C -0.34701 1.00663 -0.33470
 N134 N -0.36732 0.96668 -0.34634
 N135 N -0.39802 0.96520 -0.37982
 C136 C -0.41006 1.00374 -0.40245
 N137 N -0.39001 1.04380 -0.39046
 N138 N -0.35878 1.04514 -0.35745
 C139 C -0.31248 1.00797 -0.29851
 N140 N -0.27980 1.04077 -0.29821
 N141 N -0.24770 1.04122 -0.26601
 C142 C -0.24759 1.00934 -0.23257
 N143 N -0.28055 0.97683 -0.23261
 N144 N -0.31223 0.97596 -0.26520
 C145 C -0.21183 1.00933 -0.19757
 N146 N -0.21934 0.98990 -0.15635
 N147 N -0.18655 0.98921 -0.12486
 C148 C -0.14488 1.00730 -0.13375
 N149 N -0.13732 1.02655 -0.17504
 N150 N -0.17032 1.02786 -0.20627
 C151 C 0.33464 0.99438 -0.34597
 N152 N 0.36242 0.95781 -0.35198
 N153 N 0.39542 0.95871 -0.38310
 C154 C 0.40223 0.99644 -0.40888
 N155 N 0.37461 1.03313 -0.40272
 N156 N 0.34122 1.03201 -0.37199
 C157 C 0.29852 0.99338 -0.31146
 N158 N 0.26263 1.02261 -0.31379
 N159 N 0.23002 1.02175 -0.28223
 C160 C 0.23245 0.99202 -0.24693
 N161 N 0.26844 0.96295 -0.24452
 N162 N 0.30072 0.96341 -0.27637
 C163 C 0.19733 0.99190 -0.21140
 N164 N 0.20658 0.97424 -0.16972
 N165 N 0.17520 0.97504 -0.13698
 C166 C 0.13321 0.99296 -0.14493
 N167 N 0.12378 1.01023 -0.18676
 N168 N 0.15540 1.00997 -0.21934
 C169 C 0.34437 1.33526 -0.00213
 N170 N 0.35487 1.35770 0.03694
 N171 N 0.38641 1.39035 0.03718
 C172 C 0.40819 1.40233 -0.00178
 N173 N 0.39748 1.38003 -0.04098
 N174 N 0.36635 1.34686 -0.04109
 C175 C 0.30940 1.29949 -0.00207
 N176 N 0.30915 1.26630 -0.03440
 N177 N 0.27747 1.23369 -0.03383
 C178 C 0.24459 1.23351 -0.00130
 N179 N 0.24470 1.26687 0.03079
 N180 N 0.27674 1.29906 0.03062
 C181 C 0.20913 1.19823 -0.00097
 N182 N 0.16834 1.20643 0.01929
 N183 N 0.13580 1.17475 0.01928
 C184 C 0.14312 1.13344 -0.00034
 N185 N 0.18407 1.12506 -0.02027
 N186 N 0.21640 1.15702 -0.02085
 C187 C 0.33460 0.65211 -0.00966
 N188 N 0.34559 0.63175 0.03032
 N189 N 0.37877 0.60074 0.03215
 C190 C 0.40174 0.58841 -0.00608
 N191 N 0.39043 0.60851 -0.04618
 N192 N 0.35770 0.64006 -0.04788
 C193 C 0.29861 0.68684 -0.01127
 N194 N 0.29866 0.71942 -0.04404
 N195 N 0.26661 0.75170 -0.04459
 C196 C 0.23302 0.75209 -0.01282
 N197 N 0.23273 0.71923 0.01965
 N198 N 0.26515 0.68739 0.02061
 C199 C 0.19805 0.78789 -0.01288
 N200 N 0.15692 0.78056 0.00697
 N201 N 0.12542 0.81333 0.00776
 C202 C 0.13418 0.85482 -0.01065
 N203 N 0.17539 0.86222 -0.03035
 N204 N 0.20665 0.82921 -0.03175
 C205 C -0.34592 0.66291 0.00465
 N206 N -0.37424 0.65696 0.04069
 N207 N -0.40567 0.62410 0.04012
 C208 C -0.41022 0.59644 0.00324
 N209 N -0.38214 0.60264 -0.03289
 N210 N -0.35037 0.63508 -0.03208
 C211 C -0.31063 0.69837 0.00536
 N212 N -0.27422 0.69540 -0.02298
 N213 N -0.24187 0.72726 -0.02236
 C214 C -0.24502 0.76357 0.00619
 N215 N -0.28160 0.76676 0.03435
 N216 N -0.31370 0.73455 0.03414
 C217 C -0.20923 0.79853 0.00649
 N218 N -0.21745 0.84097 0.02321
 N219 N -0.18493 0.87276 0.02256
 C220 C -0.14290 0.86299 0.00570
 N221 N -0.13466 0.82046 -0.01066
 N222 N -0.16730 0.78891 -0.01053
 C223 C -0.33578 1.34456 0.00793
 N224 N -0.34139 1.37169 -0.02903
 N225 N -0.37472 1.40256 -0.03022
 C226 C -0.40330 1.40783 0.00573
 N227 N -0.39747 1.38100 0.04290
 N228 N -0.36448 1.34969 0.04385
 C229 C -0.29981 1.30975 0.00850
 N230 N -0.30269 1.27333 0.03680
 N231 N -0.27071 1.24100 0.03621
 C232 C -0.23443 1.24423 0.00771
 N233 N -0.23132 1.28087 -0.02026
 N234 N -0.26360 1.31289 -0.02009
 C235 C -0.19957 1.20831 0.00661
 N236 N -0.15749 1.21669 -0.01074
 N237 N -0.12593 1.18394 -0.01185
 C238 C -0.13559 1.14148 0.00374
 N239 N -0.17776 1.13306 0.02084
 N240 N -0.20909 1.16595 0.02249
 C241 C 0.00864 1.33783 0.34158
 N242 N -0.02849 1.36521 0.34572
 N243 N -0.03009 1.39725 0.37788
 C244 C 0.00565 1.40350 0.40668
 N245 N 0.04294 1.37632 0.40239
 N246 N 0.04429 1.34384 0.37059
 C247 C 0.01006 1.30255 0.30611
 N248 N 0.03861 1.26623 0.30977
 N249 N 0.03920 1.23397 0.27770
 C250 C 0.01171 1.23726 0.24058
 N251 N -0.01655 1.27375 0.23681
 N252 N -0.01758 1.30565 0.26913
 C253 C 0.01211 1.20200 0.20507
 N254 N -0.00407 1.21145 0.16282
 N255 N -0.00452 1.17947 0.13058
 C256 C 0.01065 1.13667 0.13955
 N257 N 0.02671 1.12711 0.18188
 N258 N 0.02770 1.15931 0.21400
 C259 C -0.00227 1.34109 -0.33820
 N260 N 0.03412 1.36936 -0.34267
 N261 N 0.03479 1.40100 -0.37516
 C262 C -0.00116 1.40584 -0.40397
 N263 N -0.03766 1.37776 -0.39932
 N264 N -0.03809 1.34577 -0.36720
 C265 C -0.00289 1.30596 -0.30273
 N266 N -0.03156 1.26975 -0.30609
 N267 N -0.03189 1.23762 -0.27409
 C268 C -0.00399 1.24087 -0.23728
 N269 N 0.02447 1.27723 -0.23376
 N270 N 0.02521 1.30907 -0.26605
 C271 C -0.00432 1.20547 -0.20207
 N272 N 0.01284 1.21410 -0.15997
 N273 N 0.01271 1.18188 -0.12806
 C274 C -0.00408 1.13971 -0.13728
 N275 N -0.02108 1.13102 -0.17944
 N276 N -0.02146 1.16341 -0.21118
 C277 C -0.00694 0.66052 -0.34374
 N278 N 0.03279 0.64950 -0.36469
 N279 N 0.03398 0.61667 -0.39607
 C280 C -0.00466 0.59409 -0.40821
 N281 N -0.04453 0.60542 -0.38748
 N282 N -0.04558 0.63780 -0.35555
 C283 C -0.00782 0.69627 -0.30875
 N284 N -0.04009 0.69613 -0.27564
 N285 N -0.04001 0.72805 -0.24325
 C286 C -0.00808 0.76160 -0.24324
 N287 N 0.02389 0.76197 -0.27660
 N288 N 0.02424 0.72967 -0.30857
 C289 C -0.00775 0.79667 -0.20756
 N290 N 0.01143 0.83804 -0.21538
 N291 N 0.01196 0.86988 -0.18295
 C292 C -0.00600 0.86120 -0.14129
 N293 N -0.02490 0.81971 -0.13336
 N294 N -0.02606 0.78811 -0.16603
 C295 C 0.00023 0.65695 0.33805
 N296 N -0.03679 0.62992 0.34446
 N297 N -0.03688 0.59848 0.37714
 C298 C 0.00027 0.59256 0.40419
 N299 N 0.03741 0.61936 0.39757
 N300 N 0.03728 0.65120 0.36527
 C301 C 0.00008 0.69203 0.30251
 N302 N 0.02947 0.72773 0.30472
 N303 N 0.02898 0.75991 0.27277
 C304 C -0.00049 0.75723 0.23716
 N305 N -0.02966 0.72135 0.23475
 N306 N -0.02958 0.68947 0.26702
 C307 C -0.00089 0.79270 0.20201
 N308 N -0.01901 0.78430 0.16024
 N309 N -0.01893 0.81647 0.12826
 C310 C -0.00128 0.85838 0.13713
 N311 N 0.01654 0.86684 0.17900
 N312 N 0.01699 0.83450 0.21077
   
