data_POSCAR
  _audit_creation_date              2014-09-24
  _audit_creation_method            'ToBaCCo'
  _symmetry_space_group_name_H-M    'P1'
  _symmetry_Int_Tables_number       1
  _symmetry_cell_setting            triclinic
  loop_
  _symmetry_equiv_pos_as_xyz
 x,y,z
_cell_length_a 31.8789
_cell_length_b 31.8731
_cell_length_c 31.9095
_cell_angle_alpha 81.677500
_cell_angle_beta 99.018400
_cell_angle_gamma 98.443100
loop_
  _atom_site_label
  _atom_site_type_symbol
  _atom_site_fract_x
  _atom_site_fract_y
  _atom_site_fract_z
C1 C 0.60117 0.60084 -0.00027
 C2 C 0.60987 0.55855 0.00407
 C3 C 0.57629 0.52485 0.00547
 C4 C 0.53327 0.53295 0.00035
 C5 C 0.52515 0.57595 -0.00508
 C6 C 0.55888 0.60954 -0.00430
 C7 C 0.49718 0.49691 0.00066
 C8 C 0.45738 0.50213 0.01223
 C9 C 0.42349 0.46874 0.01147
 C10 C 0.42934 0.42914 0.00115
 C11 C 0.46862 0.42294 -0.00941
 C12 C 0.50202 0.45676 -0.01065
 H13 H 0.62725 0.62691 -0.00050
 H14 H 0.58416 0.49244 0.01083
 H15 H 0.49268 0.58377 -0.01022
 H16 H 0.45229 0.53183 0.02209
 H17 H 0.40326 0.40310 0.00133
 H18 H 0.53143 0.45136 -0.02071
 C19 C -0.00038 0.57190 0.42802
 C20 C -0.01054 0.57828 0.46742
 C21 C -0.01149 0.54456 0.50088
 C22 C -0.00022 0.50442 0.49600
 C23 C 0.01097 0.49903 0.45610
 C24 C 0.00987 0.53225 0.42212
 C25 C -0.00018 0.46854 0.53216
 C26 C -0.00549 0.42547 0.52420
 C27 C -0.00441 0.39208 0.55797
 C28 C -0.00016 0.40099 0.60015
 C29 C 0.00408 0.44329 0.60873
 C30 C 0.00514 0.47684 0.57513
 H31 H -0.00043 0.59786 0.40188
 H32 H -0.02129 0.54996 0.53041
 H33 H 0.02082 0.46927 0.45110
 H34 H -0.01078 0.41732 0.49188
 H35 H -0.00015 0.37506 0.62623
 H36 H 0.01041 0.50924 0.58303
 C37 C 0.57265 -0.00005 0.57084
 C38 C 0.53317 0.01026 0.57688
 C39 C 0.49942 0.01107 0.54304
 C40 C 0.50410 -0.00046 0.50302
 C41 C 0.54411 -0.01179 0.49792
 C42 C 0.57836 -0.01057 0.53132
 C43 C 0.46763 -0.00064 0.46699
 C44 C 0.47522 0.00444 0.42399
 C45 C 0.44115 0.00323 0.39046
 C46 C 0.39901 -0.00091 0.39914
 C47 C 0.39081 -0.00491 0.44138
 C48 C 0.42472 -0.00585 0.47508
 H49 H 0.59891 0.00013 0.59699
 H50 H 0.46984 0.02094 0.54834
 H51 H 0.54899 -0.02183 0.46826
 H52 H 0.50748 0.00963 0.41601
 H53 H 0.37268 -0.00101 0.37309
 H54 H 0.41712 -0.01092 0.50743
 O55 O 0.46935 0.01225 -0.07963
 O56 O 0.46018 0.00195 0.03492
 O57 O 0.46145 0.06466 -0.02703
 O58 O 0.47006 -0.05058 -0.01786
 O59 O 0.54043 -0.03675 -0.00286
 O60 O 0.53188 0.07812 -0.01217
 O61 O 0.53055 0.01572 0.04999
 O62 O 0.53978 0.02588 -0.06493
 Cu63 Cu 0.45815 0.00557 -0.02375
 Cu64 Cu 0.54277 0.02197 -0.00586
 C65 C 0.50604 0.02088 -0.09165
 C66 C 0.49367 0.00762 0.06176
 C67 C 0.49529 0.09082 -0.02124
 C68 C 0.50684 -0.06302 -0.00930
 O69 O -0.03631 0.54040 1.00375
 O70 O 0.07883 0.53221 1.01447
 O71 O 0.01652 0.53134 0.95133
 O72 O 0.02619 0.53919 1.06679
 O73 O 0.01267 0.46881 1.07968
 O74 O 0.00283 0.46102 0.96458
 O75 O 0.06546 0.46182 1.02752
 O76 O -0.05006 0.47008 1.01694
 Cu77 Cu 0.02252 0.54288 1.00765
 Cu78 Cu 0.00624 0.45834 1.02335
 C79 C -0.06259 0.50678 1.00908
 C80 C 0.09162 0.49570 1.02285
 C81 C 0.00856 0.49471 0.93856
 C82 C 0.02113 0.50525 1.09270
 O83 O -0.02727 -0.06575 0.46058
 O84 O -0.01764 0.04956 0.46925
 O85 O 0.03507 -0.00322 0.45981
 O86 O -0.07981 -0.01310 0.46800
 O87 O -0.06567 -0.02664 0.53839
 O88 O 0.04959 -0.01691 0.53013
 O89 O -0.00320 0.03580 0.53956
 O90 O -0.01297 -0.07914 0.53097
 Cu91 Cu -0.02371 -0.00663 0.45731
 Cu92 Cu -0.00650 -0.02294 0.54186
 C93 C -0.02183 -0.09188 0.49439
 C94 C -0.00929 0.06205 0.50600
 C95 C 0.06169 -0.00893 0.49343
 C96 C -0.09217 -0.02161 0.50451
 C97 C -0.26974 0.53482 1.00661
 N98 N -0.25347 0.53831 0.96926
 N99 N -0.21324 0.53143 0.96919
 C100 C -0.18806 0.52077 1.00648
 N101 N -0.20435 0.51723 1.04383
 N102 N -0.24458 0.52411 1.04390
 C103 C -0.31285 0.54301 1.00660
 C104 C -0.34908 0.55021 1.00589
 C105 C -0.14426 0.51481 1.00658
 C106 C -0.10716 0.51063 1.00725
 C107 C 0.30275 0.48330 1.02863
 N108 N 0.27678 0.44892 1.04425
 N109 N 0.23558 0.45153 1.04503
 C110 C 0.21909 0.48858 1.03011
 N111 N 0.24509 0.52300 1.01461
 N112 N 0.28629 0.52039 1.01382
 C113 C 0.34614 0.47941 1.02458
 C114 C 0.38189 0.47518 1.01954
 C115 C 0.17427 0.49076 1.02868
 C116 C 0.13652 0.49277 1.02647
 C117 C -0.02693 -0.30282 0.48141
 N118 N -0.04260 -0.27669 0.44690
 N119 N -0.04343 -0.23549 0.44959
 C120 C -0.02852 -0.21918 0.48685
 N121 N -0.01296 -0.24534 0.52138
 N122 N -0.01213 -0.28653 0.51869
 C123 C -0.02291 -0.34626 0.47750
 C124 C -0.01792 -0.38210 0.47330
 C125 C -0.02722 -0.17440 0.48917
 C126 C -0.02519 -0.13671 0.49132
 C127 C -0.00731 0.26918 0.53417
 N128 N 0.03017 0.25311 0.53617
 N129 N 0.03024 0.21284 0.52934
 C130 C -0.00718 0.18743 0.52023
 N131 N -0.04466 0.20351 0.51819
 N132 N -0.04474 0.24378 0.52501
 C133 C -0.00726 0.31235 0.54225
 C134 C -0.00650 0.34864 0.54932
 C135 C -0.00719 0.14363 0.51424
 C136 C -0.00772 0.10656 0.50999
 C137 C 0.51942 0.02714 -0.30217
 N138 N 0.55437 0.04082 -0.27517
 N139 N 0.55169 0.04148 -0.23402
 C140 C 0.51399 0.02836 -0.21863
 N141 N 0.47900 0.01480 -0.24566
 N142 N 0.48169 0.01414 -0.28681
 C143 C 0.52318 0.02321 -0.34556
 C144 C 0.52718 0.01825 -0.38138
 C145 C 0.51158 0.02679 -0.17394
 C146 C 0.50932 0.02452 -0.13634
 C147 C 0.46441 0.00548 0.26794
 N148 N 0.48152 0.04167 0.24550
 N149 N 0.48853 0.04147 0.20544
 C150 C 0.47875 0.00505 0.18665
 N151 N 0.46168 -0.03114 0.20911
 N152 N 0.45467 -0.03093 0.24916
 C153 C 0.45641 0.00566 0.31094
 C154 C 0.44949 0.00509 0.34712
 C155 C 0.48500 0.00520 0.14304
 C156 C 0.48945 0.00587 0.10611
 C157 C 0.53514 -0.27000 -0.00753
 N158 N 0.53218 -0.25528 0.02958
 N159 N 0.52531 -0.21502 0.02959
 C160 C 0.52114 -0.18828 -0.00753
 N161 N 0.52405 -0.20302 -0.04465
 N162 N 0.53092 -0.24327 -0.04466
 C163 C 0.54338 -0.31313 -0.00731
 C164 C 0.55058 -0.34939 -0.00639
 C165 C 0.51510 -0.14453 -0.00745
 C166 C 0.51083 -0.10749 -0.00788
 C167 C 0.48257 0.30175 -0.02624
 N168 N 0.51997 0.28558 -0.01180
 N169 N 0.52258 0.24437 -0.01261
 C170 C 0.48785 0.21807 -0.02778
 N171 N 0.45048 0.23426 -0.04233
 N172 N 0.44787 0.27548 -0.04152
 C173 C 0.47880 0.34522 -0.02226
 C174 C 0.47474 0.38110 -0.01731
 C175 C 0.49012 0.17330 -0.02650
 C176 C 0.49224 0.13562 -0.02451
 C177 C -0.30304 -0.02705 0.51703
 N178 N -0.27662 -0.04301 0.55130
 N179 N -0.23544 -0.04379 0.54865
 C180 C -0.21944 -0.02853 0.51168
 N181 N -0.24588 -0.01268 0.47737
 N182 N -0.28705 -0.01190 0.48002
 C183 C -0.34640 -0.02302 0.52099
 C184 C -0.38215 -0.01801 0.52529
 C185 C -0.17467 -0.02715 0.50947
 C186 C -0.13698 -0.02504 0.50743
 C187 C 0.26840 -0.00741 0.46548
 N188 N 0.24320 -0.04468 0.47490
 N189 N 0.20304 -0.04448 0.48175
 C190 C 0.18689 -0.00701 0.47946
 N191 N 0.21210 0.03027 0.47009
 N192 N 0.25225 0.03006 0.46324
 C193 C 0.31140 -0.00751 0.45732
 C194 C 0.34755 -0.00687 0.45016
 C195 C 0.14318 -0.00692 0.48540
 C196 C 0.10616 -0.00738 0.48957
 C197 C 0.02612 0.51742 1.30365
 N198 N 0.04354 0.55122 1.27821
 N199 N 0.04437 0.54858 1.23706
 C200 C 0.02769 0.51209 1.22007
 N201 N 0.01039 0.47826 1.24554
 N202 N 0.00955 0.48090 1.28670
 C203 C 0.02213 0.52150 1.34698
 C204 C 0.01719 0.52595 1.38269
 C205 C 0.02645 0.50996 1.17529
 C206 C 0.02446 0.50803 1.13758
 C207 C 0.00710 0.46765 0.73139
 N208 N -0.03007 0.47128 0.74546
 N209 N -0.03019 0.47794 0.78573
 C210 C 0.00687 0.48122 0.81316
 N211 N 0.04405 0.47764 0.79908
 N212 N 0.04417 0.47098 0.75881
 C213 C 0.00699 0.45949 0.68827
 C214 C 0.00619 0.45226 0.65205
 C215 C 0.00667 0.48699 0.85695
 C216 C 0.00707 0.49102 0.89403
   
