data_POSCAR
  _audit_creation_date              2014-09-24
  _audit_creation_method            'ToBaCCo'
  _symmetry_space_group_name_H-M    'P1'
  _symmetry_Int_Tables_number       1
  _symmetry_cell_setting            triclinic
  loop_
  _symmetry_equiv_pos_as_xyz
 x,y,z
_cell_length_a 31.4879
_cell_length_b 31.2249
_cell_length_c 39.5360
_cell_angle_alpha 90.000000
_cell_angle_beta 90.000000
_cell_angle_gamma 90.000000
loop_
  _atom_site_label
  _atom_site_type_symbol
  _atom_site_fract_x
  _atom_site_fract_y
  _atom_site_fract_z
B1 B 0.27060 0.23283 0.21934
 B2 B 0.28286 0.28326 0.22903
 B3 B 0.23296 0.27051 0.21928
 B4 B 0.22200 0.22144 0.23499
 B5 B 0.26712 0.20436 0.25518
 B6 B 0.30517 0.24305 0.25091
 B7 B 0.23940 0.27708 0.28652
 B8 B 0.22707 0.22666 0.27712
 B9 B 0.27692 0.23953 0.28658
 B10 B 0.28782 0.28842 0.27097
 B11 B 0.24276 0.30552 0.25081
 B12 B 0.20469 0.26684 0.25509
 B13 B 0.72311 0.76047 0.28658
 B14 B 0.77295 0.77334 0.27712
 B15 B 0.76063 0.72292 0.28652
 B16 B 0.71220 0.71158 0.27097
 B17 B 0.69486 0.75695 0.25091
 B18 B 0.73291 0.79564 0.25518
 B19 B 0.76707 0.72949 0.21928
 B20 B 0.71717 0.71674 0.22903
 B21 B 0.72942 0.76717 0.21934
 B22 B 0.77802 0.77856 0.23499
 B23 B 0.79534 0.73316 0.25509
 B24 B 0.75726 0.69448 0.25081
 B25 B 0.72311 0.23953 -0.28659
 B26 B 0.77295 0.22666 -0.27713
 B27 B 0.76063 0.27708 -0.28653
 B28 B 0.71220 0.28842 -0.27097
 B29 B 0.69486 0.24305 -0.25091
 B30 B 0.73291 0.20436 -0.25519
 B31 B 0.76707 0.27051 -0.21929
 B32 B 0.71717 0.28326 -0.22904
 B33 B 0.72942 0.23283 -0.21935
 B34 B 0.77802 0.22144 -0.23500
 B35 B 0.79534 0.26684 -0.25510
 B36 B 0.75726 0.30552 -0.25081
 B37 B 0.27692 0.76047 -0.28659
 B38 B 0.22707 0.77334 -0.27713
 B39 B 0.23940 0.72292 -0.28653
 B40 B 0.28782 0.71158 -0.27097
 B41 B 0.30517 0.75695 -0.25091
 B42 B 0.26712 0.79564 -0.25519
 B43 B 0.23296 0.72949 -0.21929
 B44 B 0.28286 0.71674 -0.22904
 B45 B 0.27060 0.76717 -0.21935
 B46 B 0.22200 0.77856 -0.23500
 B47 B 0.20469 0.73316 -0.25510
 B48 B 0.24276 0.69448 -0.25081
 B49 B 1.23940 1.27708 0.71347
 B50 B 1.22707 1.22666 0.72287
 B51 B 1.27692 1.23953 0.71341
 B52 B 1.28782 1.28842 0.72903
 B53 B 1.24276 1.30552 0.74919
 B54 B 1.20469 1.26684 0.74490
 B55 B 1.27060 1.23283 0.78065
 B56 B 1.28286 1.28326 0.77096
 B57 B 1.23296 1.27051 0.78071
 B58 B 1.22200 1.22144 0.76500
 B59 B 1.26712 1.20436 0.74481
 B60 B 1.30517 1.24305 0.74909
 B61 B 0.76707 0.72949 0.78071
 B62 B 0.71717 0.71674 0.77096
 B63 B 0.72942 0.76717 0.78065
 B64 B 0.77802 0.77856 0.76500
 B65 B 0.79534 0.73316 0.74490
 B66 B 0.75726 0.69448 0.74919
 B67 B 0.72311 0.76047 0.71341
 B68 B 0.77295 0.77334 0.72287
 B69 B 0.76063 0.72292 0.71347
 B70 B 0.71220 0.71158 0.72903
 B71 B 0.69486 0.75695 0.74909
 B72 B 0.73291 0.79564 0.74481
 B73 B 1.23940 0.72292 0.28652
 B74 B 1.22707 0.77334 0.27712
 B75 B 1.27692 0.76047 0.28658
 B76 B 1.28782 0.71158 0.27097
 B77 B 1.24276 0.69448 0.25081
 B78 B 1.20469 0.73316 0.25509
 B79 B 1.27060 0.76717 0.21934
 B80 B 1.28286 0.71674 0.22903
 B81 B 1.23296 0.72949 0.21928
 B82 B 1.22200 0.77856 0.23499
 B83 B 1.26712 0.79564 0.25518
 B84 B 1.30517 0.75695 0.25091
 B85 B 0.76063 1.27708 0.28652
 B86 B 0.77295 1.22666 0.27712
 B87 B 0.72311 1.23953 0.28658
 B88 B 0.71220 1.28842 0.27097
 B89 B 0.75726 1.30552 0.25081
 B90 B 0.79534 1.26684 0.25509
 B91 B 0.72942 1.23283 0.21934
 B92 B 0.71717 1.28326 0.22903
 B93 B 0.76707 1.27051 0.21928
 B94 B 0.77802 1.22144 0.23499
 B95 B 0.73291 1.20436 0.25518
 B96 B 0.69486 1.24305 0.25091
 N97 N 0.57598 1.04500 0.03675
 N98 N 0.60664 1.07197 0.04513
 N99 N 0.54597 0.95490 0.05986
 N100 N 0.55538 0.92775 0.08432
 N101 N 0.57598 0.95500 0.03675
 N102 N 0.60664 0.92804 0.04513
 N103 N 0.54597 1.04510 0.05986
 N104 N 0.55538 1.07226 0.08432
 C105 C 0.59303 1.08929 0.07466
 C106 C 0.59303 0.91071 0.07466
 N107 N 0.42405 0.95500 0.03675
 N108 N 0.39338 0.92804 0.04513
 N109 N 0.45405 1.04510 0.05986
 N110 N 0.44464 1.07226 0.08432
 N111 N 0.42405 1.04500 0.03675
 N112 N 0.39338 1.07197 0.04513
 N113 N 0.45405 0.95490 0.05986
 N114 N 0.44464 0.92775 0.08432
 Mn115 Mn 0.50001 1.00000 0.06003
 C116 C 0.40699 0.91071 0.07466
 C117 C 0.40699 1.08929 0.07466
 N118 N 0.57598 0.95500 -0.03676
 N119 N 0.60664 0.92804 -0.04514
 N120 N 0.54597 1.04510 -0.05987
 N121 N 0.55538 1.07226 -0.08433
 N122 N 0.57598 1.04500 -0.03676
 N123 N 0.60664 1.07197 -0.04514
 N124 N 0.54597 0.95490 -0.05987
 N125 N 0.55538 0.92775 -0.08433
 Mn126 Mn 0.57629 1.00000 -0.00000
 C127 C 0.59303 0.91071 -0.07467
 C128 C 0.59303 1.08929 -0.07467
 N129 N 0.42405 1.04500 -0.03676
 N130 N 0.39338 1.07197 -0.04514
 N131 N 0.45405 0.95490 -0.05987
 N132 N 0.44464 0.92775 -0.08433
 N133 N 0.42405 0.95500 -0.03676
 N134 N 0.39338 0.92804 -0.04514
 N135 N 0.45405 1.04510 -0.05987
 N136 N 0.44464 1.07226 -0.08433
 Mn137 Mn 0.42374 1.00000 -0.00000
 Mn138 Mn 0.50001 1.00000 -0.06004
 Cl139 Cl 0.50001 1.00000 -0.00000
 C140 C 0.40699 1.08929 -0.07467
 C141 C 0.40699 0.91071 -0.07467
 N142 N 1.04471 0.54604 0.55957
 N143 N 1.07434 0.55329 0.58242
 N144 N 0.95537 0.57636 0.53656
 N145 N 0.92590 0.60527 0.54334
 N146 N 0.95531 0.54604 0.55957
 N147 N 0.92569 0.55329 0.58242
 N148 N 1.04465 0.57636 0.53656
 N149 N 1.07412 0.60527 0.54334
 C150 C 1.09272 0.59014 0.57188
 C151 C 0.90731 0.59014 0.57189
 N152 N 0.95531 0.54604 0.44042
 N153 N 0.92569 0.55329 0.41757
 N154 N 1.04465 0.57636 0.46343
 N155 N 1.07412 0.60527 0.45665
 N156 N 1.04471 0.54604 0.44042
 N157 N 1.07434 0.55329 0.41757
 N158 N 0.95537 0.57636 0.46343
 N159 N 0.92590 0.60527 0.45665
 Mn160 Mn 1.00001 0.57687 0.50000
 C161 C 0.90731 0.59014 0.42811
 C162 C 1.09272 0.59014 0.42811
 N163 N 0.95531 0.45396 0.55957
 N164 N 0.92569 0.44671 0.58242
 N165 N 1.04465 0.42364 0.53656
 N166 N 1.07412 0.39474 0.54334
 N167 N 1.04471 0.45396 0.55957
 N168 N 1.07434 0.44671 0.58242
 N169 N 0.95537 0.42364 0.53656
 N170 N 0.92590 0.39474 0.54334
 Mn171 Mn 1.00001 0.50000 0.55987
 C172 C 0.90731 0.40987 0.57188
 C173 C 1.09272 0.40987 0.57188
 N174 N 1.04471 0.45396 0.44042
 N175 N 1.07434 0.44671 0.41757
 N176 N 0.95537 0.42364 0.46343
 N177 N 0.92590 0.39474 0.45665
 N178 N 0.95531 0.45396 0.44042
 N179 N 0.92569 0.44671 0.41757
 N180 N 1.04465 0.42364 0.46343
 N181 N 1.07412 0.39474 0.45665
 Mn182 Mn 1.00001 0.50000 0.44013
 Mn183 Mn 1.00001 0.42313 0.50000
 Cl184 Cl 1.00001 0.50000 0.50000
 C185 C 1.09272 0.40987 0.42811
 C186 C 0.90731 0.40987 0.42811
 N187 N 0.95536 0.57665 0.03678
 N188 N 0.92848 0.60747 0.04515
 N189 N 1.04474 0.54634 0.05985
 N190 N 1.07180 0.55568 0.08426
 N191 N 1.04466 0.57665 0.03678
 N192 N 1.07154 0.60747 0.04515
 N193 N 0.95528 0.54634 0.05985
 N194 N 0.92822 0.55568 0.08426
 C195 C 0.91124 0.59361 0.07463
 C196 C 1.08879 0.59361 0.07463
 N197 N 1.04466 0.42335 0.03678
 N198 N 1.07154 0.39253 0.04515
 N199 N 0.95528 0.45366 0.05985
 N200 N 0.92822 0.44432 0.08426
 N201 N 0.95536 0.42335 0.03678
 N202 N 0.92848 0.39253 0.04515
 N203 N 1.04474 0.45366 0.05985
 N204 N 1.07180 0.44432 0.08426
 Mn205 Mn 1.00001 0.50000 0.06001
 C206 C 1.08879 0.40639 0.07463
 C207 C 0.91124 0.40639 0.07463
 N208 N 1.04466 0.57665 -0.03679
 N209 N 1.07154 0.60747 -0.04516
 N210 N 0.95528 0.54634 -0.05986
 N211 N 0.92822 0.55568 -0.08427
 N212 N 0.95536 0.57665 -0.03679
 N213 N 0.92848 0.60747 -0.04516
 N214 N 1.04474 0.54634 -0.05986
 N215 N 1.07180 0.55568 -0.08427
 Mn216 Mn 1.00001 0.57698 -0.00000
 C217 C 1.08879 0.59361 -0.07464
 C218 C 0.91124 0.59361 -0.07464
 N219 N 0.95536 0.42335 -0.03679
 N220 N 0.92848 0.39253 -0.04516
 N221 N 1.04474 0.45366 -0.05986
 N222 N 1.07180 0.44432 -0.08427
 N223 N 1.04466 0.42335 -0.03679
 N224 N 1.07154 0.39253 -0.04516
 N225 N 0.95528 0.45366 -0.05986
 N226 N 0.92822 0.44432 -0.08427
 Mn227 Mn 1.00001 0.42302 -0.00000
 Mn228 Mn 1.00001 0.50000 -0.06002
 Cl229 Cl 1.00001 0.50000 -0.00000
 C230 C 0.91124 0.40639 -0.07464
 C231 C 1.08879 0.40639 -0.07464
 N232 N 0.57569 1.04501 0.53654
 N233 N 0.60444 1.07464 0.54333
 N234 N 0.54568 0.95493 0.55959
 N235 N 0.55302 0.92518 0.58251
 N236 N 0.57569 0.95499 0.53654
 N237 N 0.60444 0.92536 0.54333
 N238 N 0.54568 1.04507 0.55959
 N239 N 0.55302 1.07482 0.58251
 C240 C 0.58956 1.09332 0.57194
 C241 C 0.58956 0.90668 0.57194
 N242 N 0.42433 0.95499 0.53654
 N243 N 0.39559 0.92536 0.54333
 N244 N 0.45434 1.04507 0.55959
 N245 N 0.44700 1.07482 0.58251
 N246 N 0.42433 1.04501 0.53654
 N247 N 0.39559 1.07464 0.54333
 N248 N 0.45434 0.95493 0.55959
 N249 N 0.44700 0.92518 0.58251
 Mn250 Mn 0.50001 1.00000 0.55989
 C251 C 0.41046 0.90668 0.57194
 C252 C 0.41046 1.09332 0.57194
 N253 N 0.57569 0.95499 0.46346
 N254 N 0.60444 0.92536 0.45667
 N255 N 0.54568 1.04507 0.44040
 N256 N 0.55302 1.07482 0.41749
 N257 N 0.57569 1.04501 0.46346
 N258 N 0.60444 1.07464 0.45667
 N259 N 0.54568 0.95493 0.44040
 N260 N 0.55302 0.92518 0.41749
 Mn261 Mn 0.57619 1.00000 0.50000
 C262 C 0.58956 0.90668 0.42806
 C263 C 0.58956 1.09332 0.42806
 N264 N 0.42433 1.04501 0.46346
 N265 N 0.39559 1.07464 0.45667
 N266 N 0.45434 0.95493 0.44040
 N267 N 0.44700 0.92518 0.41749
 N268 N 0.42433 0.95499 0.46346
 N269 N 0.39559 0.92536 0.45667
 N270 N 0.45434 1.04507 0.44040
 N271 N 0.44700 1.07482 0.41749
 Mn272 Mn 0.42384 1.00000 0.50000
 Mn273 Mn 0.50001 1.00000 0.44010
 Cl274 Cl 0.50001 1.00000 0.50000
 C275 C 0.41046 1.09332 0.42806
 C276 C 0.41046 0.90668 0.42806
 N277 N 1.07618 1.04483 0.53679
 N278 N 1.10649 1.07168 0.54623
 N279 N 1.04519 0.95510 0.55900
 N280 N 1.05310 0.92801 0.58363
 N281 N 1.07618 0.95517 0.53679
 N282 N 1.10649 0.92832 0.54623
 N283 N 1.04519 1.04490 0.55900
 N284 N 1.05310 1.07199 0.58363
 C285 C 1.09103 1.08895 0.57525
 C286 C 1.09103 0.91105 0.57525
 N287 N 0.92385 0.95517 0.53679
 N288 N 0.89354 0.92832 0.54623
 N289 N 0.95483 1.04490 0.55900
 N290 N 0.94692 1.07199 0.58363
 N291 N 0.92385 1.04483 0.53679
 N292 N 0.89354 1.07168 0.54623
 N293 N 0.95483 0.95510 0.55900
 N294 N 0.94692 0.92801 0.58363
 Mn295 Mn 1.00001 1.00000 0.55908
 C296 C 0.90899 0.91105 0.57525
 C297 C 0.90899 1.08895 0.57525
 N298 N 1.07618 0.95517 0.46320
 N299 N 1.10649 0.92832 0.45377
 N300 N 1.04519 1.04490 0.44099
 N301 N 1.05310 1.07199 0.41636
 N302 N 1.07618 1.04483 0.46320
 N303 N 1.10649 1.07168 0.45377
 N304 N 1.04519 0.95510 0.44099
 N305 N 1.05310 0.92801 0.41636
 Mn306 Mn 1.07679 1.00000 0.50000
 C307 C 1.09103 0.91105 0.42474
 C308 C 1.09103 1.08895 0.42474
 N309 N 0.92385 1.04483 0.46320
 N310 N 0.89354 1.07168 0.45377
 N311 N 0.95483 0.95510 0.44099
 N312 N 0.94692 0.92801 0.41636
 N313 N 0.92385 0.95517 0.46320
 N314 N 0.89354 0.92832 0.45377
 N315 N 0.95483 1.04490 0.44099
 N316 N 0.94692 1.07199 0.41636
 Mn317 Mn 0.92323 1.00000 0.50000
 Mn318 Mn 1.00001 1.00000 0.44091
 Cl319 Cl 1.00001 1.00000 0.50000
 C320 C 0.90899 1.08895 0.42474
 C321 C 0.90899 0.91105 0.42474
 N322 N 0.57489 0.54582 -0.03540
 N323 N 0.60118 0.55112 -0.06096
 N324 N 0.54550 0.57558 0.03541
 N325 N 0.55092 0.60204 0.06101
 N326 N 0.57489 0.54582 0.03539
 N327 N 0.60118 0.55112 0.06096
 N328 N 0.54550 0.57558 -0.03542
 N329 N 0.55092 0.60204 -0.06102
 C330 C 0.58575 0.58627 -0.07672
 C331 C 0.58575 0.58627 0.07671
 N332 N 0.42513 0.54582 0.03539
 N333 N 0.39885 0.55112 0.06096
 N334 N 0.45452 0.57558 -0.03542
 N335 N 0.44910 0.60204 -0.06102
 N336 N 0.42513 0.54582 -0.03540
 N337 N 0.39885 0.55112 -0.06096
 N338 N 0.45452 0.57558 0.03541
 N339 N 0.44910 0.60204 0.06101
 Mn340 Mn 0.50001 0.57618 -0.00000
 C341 C 0.41427 0.58627 0.07671
 C342 C 0.41427 0.58627 -0.07672
 N343 N 0.57489 0.45418 0.03539
 N344 N 0.60118 0.44888 0.06096
 N345 N 0.54550 0.42442 -0.03542
 N346 N 0.55092 0.39796 -0.06102
 N347 N 0.57489 0.45418 -0.03540
 N348 N 0.60118 0.44888 -0.06096
 N349 N 0.54550 0.42442 0.03541
 N350 N 0.55092 0.39796 0.06101
 Mn351 Mn 0.57545 0.50000 -0.00000
 C352 C 0.58575 0.41373 0.07672
 C353 C 0.58575 0.41373 -0.07672
 N354 N 0.42513 0.45418 -0.03540
 N355 N 0.39885 0.44888 -0.06096
 N356 N 0.45452 0.42442 0.03541
 N357 N 0.44910 0.39796 0.06101
 N358 N 0.42513 0.45418 0.03539
 N359 N 0.39885 0.44888 0.06096
 N360 N 0.45452 0.42442 -0.03542
 N361 N 0.44910 0.39796 -0.06102
 Mn362 Mn 0.42457 0.50000 -0.00000
 Mn363 Mn 0.50001 0.42382 -0.00000
 Cl364 Cl 0.50001 0.50000 -0.00000
 C365 C 0.41427 0.41373 -0.07672
 C366 C 0.41427 0.41373 0.07672
 C367 C 0.33249 1.16957 0.14032
 C368 C 0.31477 1.15401 0.11021
 C369 C 0.33931 1.12890 0.08814
 C370 C 0.28883 1.21103 0.18739
 C371 C 0.39946 1.13554 0.12596
 C372 C 0.37504 1.16066 0.14783
 C373 C 0.30725 1.19266 0.16482
 C374 C 0.38175 1.11887 0.09609
 H375 H 0.28186 1.16053 0.10412
 H376 H 0.32478 1.11646 0.06534
 H377 H 0.43203 1.12850 0.13278
 H378 H 0.38917 1.17241 0.17104
 C379 C 0.81819 0.65813 0.63372
 C380 C 0.82702 0.61497 0.64003
 C381 C 0.85483 0.59247 0.61906
 C382 C 0.77784 0.70106 0.68144
 C383 C 0.86385 0.65575 0.58427
 C384 C 0.83613 0.67837 0.60550
 C385 C 0.79489 0.68223 0.65856
 C386 C 0.87423 0.61287 0.59140
 H387 H 0.81363 0.59909 0.66195
 H388 H 0.86209 0.55944 0.62509
 H389 H 0.87844 0.67224 0.56316
 H390 H 0.82989 0.71192 0.60059
 C391 C 0.66753 0.83043 0.14032
 C392 C 0.68525 0.84600 0.11021
 C393 C 0.66072 0.87110 0.08814
 C394 C 0.71120 0.78897 0.18739
 C395 C 0.60057 0.86446 0.12596
 C396 C 0.62498 0.83934 0.14783
 C397 C 0.69277 0.80734 0.16482
 C398 C 0.61827 0.88113 0.09609
 H399 H 0.71816 0.83947 0.10412
 H400 H 0.67524 0.88354 0.06534
 H401 H 0.56800 0.87150 0.13278
 H402 H 0.61086 0.82759 0.17104
 C403 C 1.18183 0.34187 0.63372
 C404 C 1.16389 0.32163 0.60550
 C405 C 1.13617 0.34425 0.58427
 C406 C 1.22219 0.29894 0.68144
 C407 C 1.14519 0.40753 0.61906
 C408 C 1.17300 0.38504 0.64003
 C409 C 1.20514 0.31777 0.65856
 C410 C 1.12579 0.38713 0.59140
 H411 H 1.17013 0.28808 0.60059
 H412 H 1.12158 0.32776 0.56316
 H413 H 1.13793 0.44056 0.62509
 H414 H 1.18639 0.40091 0.66195
 C415 C 0.66753 1.16957 -0.14033
 C416 C 0.62498 1.16066 -0.14783
 C417 C 0.60057 1.13554 -0.12597
 C418 C 0.71120 1.21103 -0.18740
 C419 C 0.66072 1.12890 -0.08814
 C420 C 0.68525 1.15401 -0.11022
 C421 C 0.69277 1.19266 -0.16483
 C422 C 0.61827 1.11887 -0.09610
 H423 H 0.61086 1.17241 -0.17104
 H424 H 0.56800 1.12850 -0.13279
 H425 H 0.67524 1.11646 -0.06535
 H426 H 0.71816 1.16053 -0.10413
 C427 C 1.18183 0.65813 0.36628
 C428 C 1.17300 0.61497 0.35996
 C429 C 1.14519 0.59247 0.38093
 C430 C 1.22219 0.70106 0.31855
 C431 C 1.13617 0.65575 0.41572
 C432 C 1.16389 0.67837 0.39450
 C433 C 1.20514 0.68223 0.34143
 C434 C 1.12579 0.61287 0.40859
 H435 H 1.18639 0.59909 0.33804
 H436 H 1.13793 0.55944 0.37491
 H437 H 1.12158 0.67224 0.43683
 H438 H 1.17013 0.71192 0.39940
 C439 C 0.33249 0.83043 -0.14033
 C440 C 0.37504 0.83934 -0.14783
 C441 C 0.39946 0.86446 -0.12597
 C442 C 0.28883 0.78897 -0.18740
 C443 C 0.33931 0.87110 -0.08814
 C444 C 0.31477 0.84600 -0.11022
 C445 C 0.30725 0.80734 -0.16483
 C446 C 0.38175 0.88113 -0.09610
 H447 H 0.38917 0.82759 -0.17104
 H448 H 0.43203 0.87150 -0.13279
 H449 H 0.32478 0.88354 -0.06535
 H450 H 0.28186 0.83947 -0.10413
 C451 C 0.81819 0.34187 0.36628
 C452 C 0.83613 0.32163 0.39450
 C453 C 0.86385 0.34425 0.41572
 C454 C 0.77784 0.29894 0.31855
 C455 C 0.85483 0.40753 0.38093
 C456 C 0.82702 0.38504 0.35996
 C457 C 0.79489 0.31777 0.34143
 C458 C 0.87423 0.38713 0.40859
 H459 H 0.82989 0.28808 0.39940
 H460 H 0.87844 0.32776 0.43683
 H461 H 0.86209 0.44056 0.37491
 H462 H 0.81363 0.40091 0.33804
 C463 C 1.16941 0.33211 0.14020
 C464 C 1.15381 0.31394 0.11023
 C465 C 1.12857 0.33839 0.08819
 C466 C 1.21117 0.28863 0.18727
 C467 C 1.13509 0.39932 0.12574
 C468 C 1.16035 0.37500 0.14757
 C469 C 1.19269 0.30696 0.16469
 C470 C 1.11842 0.38119 0.09602
 H471 H 1.16044 0.28076 0.10425
 H472 H 1.11612 0.32353 0.06552
 H473 H 1.12797 0.43217 0.13247
 H474 H 1.17211 0.38947 0.17066
 C475 C 0.65792 0.81756 0.63376
 C476 C 0.67727 0.83467 0.60486
 C477 C 0.65450 0.86240 0.58369
 C478 C 0.70128 0.77750 0.68135
 C479 C 0.59277 0.85488 0.61984
 C480 C 0.61543 0.82711 0.64080
 C481 C 0.68231 0.79440 0.65850
 C482 C 0.61234 0.87355 0.59151
 H483 H 0.71025 0.82776 0.59932
 H484 H 0.67034 0.87637 0.56202
 H485 H 0.56030 0.86272 0.62641
 H486 H 0.60025 0.81434 0.66323
 C487 C 1.16941 0.66789 -0.14020
 C488 C 1.16035 0.62500 -0.14757
 C489 C 1.13509 0.60068 -0.12574
 C490 C 1.21117 0.71137 -0.18728
 C491 C 1.12857 0.66161 -0.08819
 C492 C 1.15381 0.68606 -0.11024
 C493 C 1.19269 0.69304 -0.16470
 C494 C 1.11842 0.61881 -0.09603
 H495 H 1.17211 0.61053 -0.17066
 H496 H 1.12797 0.56783 -0.13248
 H497 H 1.11612 0.67648 -0.06552
 H498 H 1.16044 0.71924 -0.10425
 C499 C 0.65792 1.18244 0.36623
 C500 C 0.61543 1.17289 0.35920
 C501 C 0.59277 1.14513 0.38015
 C502 C 0.70128 1.22250 0.31864
 C503 C 0.65450 1.13760 0.41631
 C504 C 0.67727 1.16533 0.39514
 C505 C 0.68231 1.20560 0.34149
 C506 C 0.61234 1.12645 0.40849
 H507 H 0.60025 1.18566 0.33676
 H508 H 0.56030 1.13728 0.37358
 H509 H 0.67034 1.12363 0.43797
 H510 H 0.71025 1.17224 0.40067
 C511 C 0.83061 0.66790 0.14019
 C512 C 0.84621 0.68606 0.11023
 C513 C 0.87146 0.66161 0.08819
 C514 C 0.78886 0.71137 0.18727
 C515 C 0.86494 0.60068 0.12574
 C516 C 0.83968 0.62500 0.14757
 C517 C 0.80733 0.69304 0.16469
 C518 C 0.88161 0.61881 0.09602
 H519 H 0.83958 0.71924 0.10425
 H520 H 0.88390 0.67648 0.06552
 H521 H 0.87205 0.56783 0.13247
 H522 H 0.82792 0.61053 0.17066
 C523 C 0.34210 1.18244 0.63376
 C524 C 0.32276 1.16533 0.60486
 C525 C 0.34552 1.13760 0.58369
 C526 C 0.29874 1.22250 0.68135
 C527 C 0.40725 1.14513 0.61984
 C528 C 0.38459 1.17289 0.64080
 C529 C 0.31772 1.20560 0.65850
 C530 C 0.38769 1.12645 0.59151
 H531 H 0.28977 1.17224 0.59932
 H532 H 0.32968 1.12363 0.56202
 H533 H 0.43973 1.13728 0.62641
 H534 H 0.39978 1.18566 0.66323
 C535 C 0.83061 0.33211 -0.14020
 C536 C 0.84621 0.31394 -0.11024
 C537 C 0.87146 0.33839 -0.08819
 C538 C 0.78886 0.28863 -0.18728
 C539 C 0.86494 0.39932 -0.12574
 C540 C 0.83968 0.37500 -0.14757
 C541 C 0.80733 0.30696 -0.16470
 C542 C 0.88161 0.38119 -0.09603
 H543 H 0.83958 0.28076 -0.10425
 H544 H 0.88390 0.32353 -0.06552
 H545 H 0.87205 0.43217 -0.13248
 H546 H 0.82792 0.38947 -0.17066
 C547 C 0.34210 0.81756 0.36623
 C548 C 0.38459 0.82711 0.35920
 C549 C 0.40725 0.85488 0.38015
 C550 C 0.29874 0.77750 0.31864
 C551 C 0.34552 0.86240 0.41631
 C552 C 0.32276 0.83467 0.39514
 C553 C 0.31772 0.79440 0.34149
 C554 C 0.38769 0.87355 0.40849
 H555 H 0.39978 0.81434 0.33676
 H556 H 0.43973 0.86272 0.37358
 H557 H 0.32968 0.87637 0.43797
 H558 H 0.28977 0.82776 0.40067
 C559 C 1.15951 1.16122 0.35122
 C560 C 1.11548 1.15718 0.34884
 C561 C 1.09315 1.13524 0.37381
 C562 C 1.20134 1.20074 0.30273
 C563 C 1.15870 1.12265 0.40450
 C564 C 1.18110 1.14463 0.37932
 C565 C 1.18227 1.18229 0.32464
 C566 C 1.11461 1.11707 0.40151
 H567 H 1.09850 1.17029 0.32736
 H568 H 1.05913 1.13157 0.37097
 H569 H 1.17593 1.10878 0.42551
 H570 H 1.21525 1.14795 0.38140
 C571 C 0.64685 0.64677 -0.16001
 C572 C 0.60946 0.66422 -0.14687
 C573 C 0.58879 0.64385 -0.12017
 C574 C 0.69048 0.68991 -0.20505
 C575 C 0.64257 0.58811 -0.12039
 C576 C 0.66317 0.60852 -0.14708
 C577 C 0.67015 0.66975 -0.18502
 C578 C 0.60561 0.60602 -0.10641
 H579 H 0.59689 0.69403 -0.15671
 H580 H 0.56029 0.65819 -0.10984
 H581 H 0.65606 0.55891 -0.11024
 H582 H 0.69231 0.59507 -0.15709
 C583 C 0.84052 1.16122 0.64877
 C584 C 0.81892 1.14463 0.62067
 C585 C 0.84132 1.12265 0.59550
 C586 C 0.79868 1.20074 0.69726
 C587 C 0.90688 1.13524 0.62619
 C588 C 0.88454 1.15718 0.65115
 C589 C 0.81775 1.18229 0.67535
 C590 C 0.88541 1.11707 0.59848
 H591 H 0.78478 1.14795 0.61860
 H592 H 0.82409 1.10878 0.57448
 H593 H 0.94090 1.13157 0.62903
 H594 H 0.90152 1.17029 0.67263
 C595 C 0.35317 0.64677 0.16001
 C596 C 0.39056 0.66422 0.14686
 C597 C 0.41123 0.64385 0.12017
 C598 C 0.30955 0.68991 0.20504
 C599 C 0.35745 0.58811 0.12039
 C600 C 0.33685 0.60852 0.14708
 C601 C 0.32987 0.66975 0.18502
 C602 C 0.39442 0.60602 0.10641
 H603 H 0.40314 0.69403 0.15670
 H604 H 0.43974 0.65819 0.10983
 H605 H 0.34396 0.55891 0.11024
 H606 H 0.30772 0.59507 0.15708
 C607 C 1.15951 0.83878 0.64877
 C608 C 1.18110 0.85537 0.62067
 C609 C 1.15870 0.87735 0.59550
 C610 C 1.20134 0.79926 0.69726
 C611 C 1.09315 0.86476 0.62619
 C612 C 1.11548 0.84282 0.65115
 C613 C 1.18227 0.81771 0.67535
 C614 C 1.11461 0.88293 0.59848
 H615 H 1.21525 0.85205 0.61860
 H616 H 1.17593 0.89122 0.57448
 H617 H 1.05913 0.86844 0.62903
 H618 H 1.09850 0.82971 0.67263
 C619 C 0.64685 0.35323 0.16001
 C620 C 0.66317 0.39148 0.14708
 C621 C 0.64257 0.41189 0.12039
 C622 C 0.69048 0.31009 0.20504
 C623 C 0.58879 0.35615 0.12017
 C624 C 0.60946 0.33578 0.14686
 C625 C 0.67015 0.33025 0.18502
 C626 C 0.60561 0.39399 0.10641
 H627 H 0.69231 0.40493 0.15708
 H628 H 0.65606 0.44110 0.11024
 H629 H 0.56029 0.34181 0.10983
 H630 H 0.59689 0.30597 0.15670
 C631 C 0.84052 0.83878 0.35122
 C632 C 0.88454 0.84282 0.34884
 C633 C 0.90688 0.86476 0.37381
 C634 C 0.79868 0.79926 0.30273
 C635 C 0.84132 0.87735 0.40450
 C636 C 0.81892 0.85537 0.37932
 C637 C 0.81775 0.81771 0.32464
 C638 C 0.88541 0.88293 0.40151
 H639 H 0.90152 0.82971 0.32736
 H640 H 0.94090 0.86843 0.37097
 H641 H 0.82409 0.89122 0.42551
 H642 H 0.78478 0.85205 0.38140
 C643 C 0.35317 0.35323 -0.16001
 C644 C 0.33685 0.39148 -0.14708
 C645 C 0.35745 0.41189 -0.12039
 C646 C 0.30955 0.31009 -0.20505
 C647 C 0.41123 0.35615 -0.12017
 C648 C 0.39056 0.33578 -0.14687
 C649 C 0.32987 0.33025 -0.18502
 C650 C 0.39442 0.39399 -0.10641
 H651 H 0.30772 0.40493 -0.15709
 H652 H 0.34396 0.44110 -0.11024
 H653 H 0.43974 0.34181 -0.10984
 H654 H 0.40314 0.30597 -0.15671
 C655 C 1.16941 0.33211 -0.14020
 C656 C 1.15381 0.31394 -0.11024
 C657 C 1.12857 0.33839 -0.08819
 C658 C 1.21117 0.28863 -0.18728
 C659 C 1.13509 0.39932 -0.12574
 C660 C 1.16035 0.37500 -0.14757
 C661 C 1.19269 0.30696 -0.16470
 C662 C 1.11842 0.38119 -0.09603
 H663 H 1.16044 0.28076 -0.10425
 H664 H 1.11612 0.32353 -0.06552
 H665 H 1.12797 0.43217 -0.13248
 H666 H 1.17211 0.38947 -0.17066
 C667 C 0.65792 0.81756 0.36623
 C668 C 0.67727 0.83467 0.39514
 C669 C 0.65450 0.86240 0.41631
 C670 C 0.70128 0.77750 0.31864
 C671 C 0.59277 0.85488 0.38015
 C672 C 0.61543 0.82711 0.35920
 C673 C 0.68231 0.79440 0.34149
 C674 C 0.61234 0.87355 0.40849
 H675 H 0.71025 0.82776 0.40067
 H676 H 0.67034 0.87637 0.43797
 H677 H 0.56030 0.86272 0.37358
 H678 H 0.60025 0.81434 0.33676
 C679 C 0.83061 0.66789 -0.14020
 C680 C 0.84621 0.68606 -0.11024
 C681 C 0.87146 0.66161 -0.08819
 C682 C 0.78886 0.71137 -0.18728
 C683 C 0.86494 0.60068 -0.12574
 C684 C 0.83968 0.62500 -0.14757
 C685 C 0.80733 0.69304 -0.16470
 C686 C 0.88161 0.61881 -0.09603
 H687 H 0.83958 0.71924 -0.10425
 H688 H 0.88390 0.67648 -0.06552
 H689 H 0.87205 0.56783 -0.13248
 H690 H 0.82792 0.61053 -0.17066
 C691 C 0.34210 1.18244 0.36623
 C692 C 0.32276 1.16533 0.39514
 C693 C 0.34552 1.13760 0.41631
 C694 C 0.29874 1.22250 0.31864
 C695 C 0.40725 1.14513 0.38015
 C696 C 0.38459 1.17289 0.35920
 C697 C 0.31772 1.20560 0.34149
 C698 C 0.38769 1.12645 0.40849
 H699 H 0.28977 1.17224 0.40067
 H700 H 0.32968 1.12363 0.43797
 H701 H 0.43973 1.13728 0.37358
 H702 H 0.39978 1.18566 0.33676
 C703 C 1.16941 0.66790 0.14019
 C704 C 1.16035 0.62500 0.14757
 C705 C 1.13509 0.60068 0.12574
 C706 C 1.21117 0.71137 0.18727
 C707 C 1.12857 0.66161 0.08819
 C708 C 1.15381 0.68606 0.11023
 C709 C 1.19269 0.69304 0.16469
 C710 C 1.11842 0.61881 0.09602
 H711 H 1.17211 0.61053 0.17066
 H712 H 1.12797 0.56783 0.13247
 H713 H 1.11612 0.67648 0.06552
 H714 H 1.16044 0.71924 0.10425
 C715 C 0.65792 1.18244 0.63376
 C716 C 0.61543 1.17289 0.64080
 C717 C 0.59277 1.14513 0.61984
 C718 C 0.70128 1.22250 0.68135
 C719 C 0.65450 1.13760 0.58369
 C720 C 0.67727 1.16533 0.60486
 C721 C 0.68231 1.20560 0.65850
 C722 C 0.61234 1.12645 0.59151
 H723 H 0.60025 1.18566 0.66323
 H724 H 0.56030 1.13728 0.62641
 H725 H 0.67034 1.12363 0.56202
 H726 H 0.71025 1.17224 0.59932
 C727 C 0.83061 0.33211 0.14020
 C728 C 0.83968 0.37500 0.14757
 C729 C 0.86494 0.39932 0.12574
 C730 C 0.78886 0.28863 0.18727
 C731 C 0.87146 0.33839 0.08819
 C732 C 0.84621 0.31394 0.11023
 C733 C 0.80733 0.30696 0.16469
 C734 C 0.88161 0.38119 0.09602
 H735 H 0.82792 0.38947 0.17066
 H736 H 0.87205 0.43217 0.13247
 H737 H 0.88390 0.32353 0.06552
 H738 H 0.83958 0.28076 0.10425
 C739 C 0.34210 0.81756 0.63376
 C740 C 0.38459 0.82711 0.64080
 C741 C 0.40725 0.85488 0.61984
 C742 C 0.29874 0.77750 0.68135
 C743 C 0.34552 0.86240 0.58369
 C744 C 0.32276 0.83467 0.60486
 C745 C 0.31772 0.79440 0.65850
 C746 C 0.38769 0.87355 0.59151
 H747 H 0.39978 0.81434 0.66323
 H748 H 0.43973 0.86272 0.62641
 H749 H 0.32968 0.87637 0.56202
 H750 H 0.28977 0.82776 0.59932
 C751 C 0.33249 1.16957 -0.14033
 C752 C 0.31477 1.15401 -0.11022
 C753 C 0.33931 1.12891 -0.08814
 C754 C 0.28883 1.21103 -0.18740
 C755 C 0.39946 1.13554 -0.12597
 C756 C 0.37504 1.16066 -0.14783
 C757 C 0.30725 1.19266 -0.16483
 C758 C 0.38175 1.11887 -0.09610
 H759 H 0.28186 1.16053 -0.10413
 H760 H 0.32478 1.11646 -0.06535
 H761 H 0.43203 1.12850 -0.13279
 H762 H 0.38917 1.17241 -0.17104
 C763 C 0.81819 0.65813 0.36628
 C764 C 0.82702 0.61497 0.35996
 C765 C 0.85483 0.59247 0.38093
 C766 C 0.77784 0.70106 0.31855
 C767 C 0.86385 0.65575 0.41572
 C768 C 0.83613 0.67837 0.39450
 C769 C 0.79489 0.68223 0.34143
 C770 C 0.87423 0.61287 0.40859
 H771 H 0.81363 0.59909 0.33804
 H772 H 0.86209 0.55944 0.37491
 H773 H 0.87844 0.67224 0.43683
 H774 H 0.82989 0.71192 0.39940
 C775 C 0.66753 1.16957 0.14032
 C776 C 0.62498 1.16066 0.14783
 C777 C 0.60057 1.13554 0.12596
 C778 C 0.71120 1.21103 0.18739
 C779 C 0.66072 1.12890 0.08814
 C780 C 0.68525 1.15401 0.11021
 C781 C 0.69277 1.19266 0.16482
 C782 C 0.61827 1.11887 0.09609
 H783 H 0.61086 1.17241 0.17104
 H784 H 0.56800 1.12850 0.13278
 H785 H 0.67524 1.11646 0.06534
 H786 H 0.71816 1.16053 0.10412
 C787 C 1.18183 0.65813 0.63372
 C788 C 1.16389 0.67837 0.60550
 C789 C 1.13617 0.65575 0.58427
 C790 C 1.22219 0.70106 0.68144
 C791 C 1.14519 0.59247 0.61906
 C792 C 1.17300 0.61497 0.64003
 C793 C 1.20514 0.68223 0.65856
 C794 C 1.12579 0.61287 0.59140
 H795 H 1.17013 0.71192 0.60059
 H796 H 1.12158 0.67224 0.56316
 H797 H 1.13793 0.55944 0.62509
 H798 H 1.18639 0.59909 0.66195
 C799 C 0.66753 0.83043 -0.14033
 C800 C 0.68525 0.84600 -0.11022
 C801 C 0.66072 0.87110 -0.08814
 C802 C 0.71120 0.78897 -0.18740
 C803 C 0.60057 0.86446 -0.12597
 C804 C 0.62498 0.83934 -0.14783
 C805 C 0.69277 0.80734 -0.16483
 C806 C 0.61827 0.88113 -0.09610
 H807 H 0.71816 0.83947 -0.10413
 H808 H 0.67524 0.88354 -0.06535
 H809 H 0.56800 0.87150 -0.13279
 H810 H 0.61086 0.82759 -0.17104
 C811 C 1.18183 0.34187 0.36628
 C812 C 1.16389 0.32163 0.39450
 C813 C 1.13617 0.34425 0.41572
 C814 C 1.22219 0.29894 0.31855
 C815 C 1.14519 0.40753 0.38093
 C816 C 1.17300 0.38504 0.35996
 C817 C 1.20514 0.31777 0.34143
 C818 C 1.12579 0.38713 0.40859
 H819 H 1.17013 0.28808 0.39940
 H820 H 1.12158 0.32776 0.43683
 H821 H 1.13793 0.44056 0.37491
 H822 H 1.18639 0.40091 0.33804
 C823 C 0.33249 0.83043 0.14032
 C824 C 0.31477 0.84600 0.11021
 C825 C 0.33931 0.87110 0.08814
 C826 C 0.28883 0.78897 0.18739
 C827 C 0.39946 0.86446 0.12596
 C828 C 0.37504 0.83934 0.14783
 C829 C 0.30725 0.80734 0.16482
 C830 C 0.38175 0.88113 0.09609
 H831 H 0.28186 0.83947 0.10412
 H832 H 0.32478 0.88354 0.06534
 H833 H 0.43203 0.87150 0.13278
 H834 H 0.38917 0.82759 0.17104
 C835 C 0.81819 0.34187 0.63372
 C836 C 0.83613 0.32163 0.60550
 C837 C 0.86385 0.34425 0.58427
 C838 C 0.77784 0.29894 0.68144
 C839 C 0.85483 0.40753 0.61906
 C840 C 0.82702 0.38504 0.64003
 C841 C 0.79489 0.31777 0.65856
 C842 C 0.87423 0.38713 0.59140
 H843 H 0.82989 0.28808 0.60059
 H844 H 0.87844 0.32776 0.56316
 H845 H 0.86209 0.44056 0.62509
 H846 H 0.81363 0.40091 0.66195
 C847 C 1.15951 1.16122 0.64877
 C848 C 1.11548 1.15718 0.65115
 C849 C 1.09315 1.13524 0.62619
 C850 C 1.20134 1.20074 0.69726
 C851 C 1.15870 1.12265 0.59550
 C852 C 1.18110 1.14463 0.62067
 C853 C 1.18227 1.18229 0.67535
 C854 C 1.11461 1.11707 0.59848
 H855 H 1.09850 1.17029 0.67263
 H856 H 1.05913 1.13157 0.62903
 H857 H 1.17593 1.10878 0.57448
 H858 H 1.21525 1.14795 0.61860
 C859 C 0.64685 0.64677 0.16001
 C860 C 0.60946 0.66422 0.14686
 C861 C 0.58879 0.64385 0.12017
 C862 C 0.69048 0.68991 0.20504
 C863 C 0.64257 0.58811 0.12039
 C864 C 0.66317 0.60852 0.14708
 C865 C 0.67015 0.66975 0.18502
 C866 C 0.60561 0.60602 0.10641
 H867 H 0.59689 0.69403 0.15670
 H868 H 0.56029 0.65819 0.10983
 H869 H 0.65606 0.55891 0.11024
 H870 H 0.69231 0.59507 0.15708
 C871 C 1.15951 0.83878 0.35122
 C872 C 1.18110 0.85537 0.37932
 C873 C 1.15870 0.87735 0.40450
 C874 C 1.20134 0.79926 0.30273
 C875 C 1.09315 0.86476 0.37381
 C876 C 1.11548 0.84282 0.34884
 C877 C 1.18227 0.81771 0.32464
 C878 C 1.11461 0.88293 0.40151
 H879 H 1.21525 0.85205 0.38140
 H880 H 1.17593 0.89122 0.42551
 H881 H 1.05913 0.86843 0.37097
 H882 H 1.09850 0.82971 0.32736
 C883 C 0.64685 0.35323 -0.16001
 C884 C 0.66317 0.39148 -0.14708
 C885 C 0.64257 0.41189 -0.12039
 C886 C 0.69048 0.31009 -0.20505
 C887 C 0.58879 0.35615 -0.12017
 C888 C 0.60946 0.33578 -0.14687
 C889 C 0.67015 0.33025 -0.18502
 C890 C 0.60561 0.39399 -0.10641
 H891 H 0.69231 0.40493 -0.15709
 H892 H 0.65606 0.44110 -0.11024
 H893 H 0.56029 0.34181 -0.10984
 H894 H 0.59689 0.30597 -0.15671
 C895 C 0.84052 1.16122 0.35122
 C896 C 0.81892 1.14463 0.37932
 C897 C 0.84132 1.12265 0.40450
 C898 C 0.79868 1.20074 0.30273
 C899 C 0.90688 1.13524 0.37381
 C900 C 0.88454 1.15718 0.34884
 C901 C 0.81775 1.18229 0.32464
 C902 C 0.88541 1.11707 0.40151
 H903 H 0.78478 1.14795 0.38140
 H904 H 0.82409 1.10878 0.42551
 H905 H 0.94090 1.13157 0.37097
 H906 H 0.90152 1.17029 0.32736
 C907 C 0.35317 0.64677 -0.16001
 C908 C 0.39056 0.66422 -0.14687
 C909 C 0.41123 0.64385 -0.12017
 C910 C 0.30955 0.68991 -0.20505
 C911 C 0.35745 0.58811 -0.12039
 C912 C 0.33685 0.60852 -0.14708
 C913 C 0.32987 0.66975 -0.18502
 C914 C 0.39442 0.60602 -0.10641
 H915 H 0.40314 0.69403 -0.15671
 H916 H 0.43974 0.65819 -0.10984
 H917 H 0.34396 0.55891 -0.11024
 H918 H 0.30772 0.59507 -0.15709
 C919 C 0.84052 0.83878 0.64877
 C920 C 0.88454 0.84282 0.65115
 C921 C 0.90688 0.86476 0.62619
 C922 C 0.79868 0.79926 0.69726
 C923 C 0.84132 0.87735 0.59550
 C924 C 0.81892 0.85537 0.62067
 C925 C 0.81775 0.81771 0.67535
 C926 C 0.88541 0.88293 0.59848
 H927 H 0.90152 0.82971 0.67263
 H928 H 0.94090 0.86844 0.62903
 H929 H 0.82409 0.89122 0.57448
 H930 H 0.78478 0.85205 0.61860
 C931 C 0.35317 0.35323 0.16001
 C932 C 0.33685 0.39148 0.14708
 C933 C 0.35745 0.41189 0.12039
 C934 C 0.30955 0.31009 0.20504
 C935 C 0.41123 0.35615 0.12017
 C936 C 0.39056 0.33578 0.14686
 C937 C 0.32987 0.33025 0.18502
 C938 C 0.39442 0.39399 0.10641
 H939 H 0.30772 0.40493 0.15708
 H940 H 0.34396 0.44110 0.11024
 H941 H 0.43974 0.34181 0.10983
 H942 H 0.40314 0.30597 0.15670
   
