data_POSCAR
  _audit_creation_date              2014-09-24
  _audit_creation_method            'ToBaCCo'
  _symmetry_space_group_name_H-M    'P1'
  _symmetry_Int_Tables_number       1
  _symmetry_cell_setting            triclinic
  loop_
  _symmetry_equiv_pos_as_xyz
 x,y,z
_cell_length_a 36.0040
_cell_length_b 39.1299
_cell_length_c 36.4530
_cell_angle_alpha 89.983000
_cell_angle_beta 89.895700
_cell_angle_gamma 90.104400
loop_
  _atom_site_label
  _atom_site_type_symbol
  _atom_site_fract_x
  _atom_site_fract_y
  _atom_site_fract_z
Si1 Si 1.24927 0.24972 0.25125
 Si2 Si 0.75034 -0.25040 0.25104
 Si3 Si 0.75039 0.24970 -0.25004
 Si4 Si 1.24959 -0.25060 -0.25012
 Si5 Si 0.24971 0.25061 0.74892
 Si6 Si 0.75042 0.75029 0.74896
 Si7 Si 0.75074 0.25027 0.25008
 Si8 Si 0.24963 0.75038 0.25012
 N9 N 1.06672 0.03502 0.04020
 N10 N 1.09228 0.05828 0.04744
 N11 N 1.04067 -0.03690 0.06546
 N12 N 1.04827 -0.05977 0.09104
 N13 N 1.06654 -0.03684 0.03999
 N14 N 1.09242 -0.05967 0.04758
 N15 N 1.04086 0.03496 0.06567
 N16 N 1.04811 0.05817 0.09094
 C17 C 1.07992 0.07273 0.07884
 C18 C 1.08028 -0.07406 0.07915
 N19 N 0.93470 -0.03646 0.03981
 N20 N 0.90899 -0.05963 0.04694
 N21 N 0.96075 0.03515 0.06567
 N22 N 0.95342 0.05822 0.09110
 N23 N 0.93500 0.03536 0.04017
 N24 N 0.90948 0.05856 0.04756
 N25 N 0.96048 -0.03666 0.06527
 N26 N 0.95302 -0.05997 0.09041
 Mn27 Mn 1.00068 -0.00087 0.06585
 C28 C 0.92118 -0.07433 0.07824
 C29 C 0.92171 0.07285 0.07907
 N30 N 1.06648 -0.03642 -0.03922
 N31 N 1.09189 -0.05973 -0.04651
 N32 N 1.04106 0.03560 -0.06440
 N33 N 1.04859 0.05881 -0.08964
 N34 N 1.06687 0.03540 -0.03896
 N35 N 1.09266 0.05849 -0.04623
 N36 N 1.04072 -0.03621 -0.06470
 N37 N 1.04790 -0.05940 -0.09002
 Mn38 Mn 1.06700 -0.00071 0.00049
 C39 C 1.07954 -0.07408 -0.07793
 C40 C 1.08050 0.07313 -0.07758
 N41 N 0.93503 0.03576 -0.03901
 N42 N 0.90928 0.05872 -0.04645
 N43 N 0.96060 -0.03604 -0.06480
 N44 N 0.95312 -0.05900 -0.09029
 N45 N 0.93474 -0.03610 -0.03933
 N46 N 0.90897 -0.05910 -0.04680
 N47 N 0.96089 0.03582 -0.06449
 N48 N 0.95341 0.05882 -0.08994
 Mn49 Mn 0.93453 -0.00036 0.00042
 Mn50 Mn 1.00083 -0.00021 -0.06493
 Cl51 Cl 1.00076 -0.00054 0.00046
 C52 C 0.92149 0.07318 -0.07794
 C53 C 0.92118 -0.07343 -0.07832
 N54 N 1.06605 0.53672 0.53895
 N55 N 1.09119 0.56039 0.54603
 N56 N 1.04065 0.46462 0.56414
 N57 N 1.04786 0.44115 0.58913
 N58 N 1.06653 0.46493 0.53869
 N59 N 1.09207 0.44166 0.54568
 N60 N 1.04021 0.53639 0.56444
 N61 N 1.04704 0.55983 0.58957
 C62 C 1.07856 0.57480 0.57734
 C63 C 1.07967 0.42682 0.57689
 N64 N 0.93480 0.46399 0.53892
 N65 N 0.90929 0.44064 0.54619
 N66 N 0.96024 0.53587 0.56464
 N67 N 0.95304 0.55918 0.58982
 N68 N 0.93442 0.53582 0.53923
 N69 N 0.90894 0.55910 0.54641
 N70 N 0.96062 0.46405 0.56434
 N71 N 0.95339 0.44076 0.58958
 Mn72 Mn 1.00044 0.50023 0.56474
 C73 C 0.92165 0.42612 0.57752
 C74 C 0.92129 0.57368 0.57773
 N75 N 1.06655 0.46530 0.45963
 N76 N 1.09176 0.44171 0.45273
 N77 N 1.04048 0.53708 0.43441
 N78 N 1.04788 0.56021 0.40901
 N79 N 1.06631 0.53714 0.45982
 N80 N 1.09197 0.56032 0.45239
 N81 N 1.04074 0.46526 0.43422
 N82 N 1.04765 0.44164 0.40931
 Mn83 Mn 1.06673 0.50103 0.49928
 C84 C 1.07923 0.42698 0.42158
 C85 C 1.07972 0.57477 0.42096
 N86 N 0.93457 0.53618 0.46019
 N87 N 0.90917 0.55961 0.45340
 N88 N 0.96076 0.46472 0.43430
 N89 N 0.95376 0.44142 0.40905
 N90 N 0.93495 0.46439 0.45981
 N91 N 0.90967 0.44086 0.45262
 N92 N 0.96042 0.53650 0.43472
 N93 N 0.95335 0.56014 0.40990
 Mn94 Mn 0.93431 0.50009 0.49953
 Mn95 Mn 1.00060 0.50089 0.43406
 Cl96 Cl 1.00052 0.50056 0.49940
 C97 C 0.92165 0.57455 0.42229
 C98 C 0.92215 0.42653 0.42121
 N99 N 0.56508 0.03613 0.53883
 N100 N 0.59083 0.05916 0.54631
 N101 N 0.53962 -0.03578 0.56463
 N102 N 0.54708 -0.05878 0.59006
 N103 N 0.56547 -0.03572 0.53914
 N104 N 0.59122 -0.05868 0.54655
 N105 N 0.53923 0.03605 0.56431
 N106 N 0.54669 0.05902 0.58979
 C107 C 0.57860 0.07351 0.57782
 C108 C 0.57900 -0.07310 0.57805
 N109 N 0.43376 -0.03665 0.53921
 N110 N 0.40839 -0.06006 0.54661
 N111 N 0.45911 0.03546 0.56431
 N112 N 0.45168 0.05870 0.58950
 N113 N 0.43326 0.03515 0.53893
 N114 N 0.40751 0.05820 0.54618
 N115 N 0.45958 -0.03632 0.56464
 N116 N 0.45248 -0.05950 0.59002
 Mn117 Mn 0.49937 -0.00014 0.56480
 C118 C 0.42083 -0.07433 0.57803
 C119 C 0.41976 0.07292 0.57747
 N120 N 0.56541 -0.03603 0.46001
 N121 N 0.59107 -0.05916 0.45288
 N122 N 0.53920 0.03545 0.43419
 N123 N 0.54647 0.05850 0.40870
 N124 N 0.56501 0.03577 0.45964
 N125 N 0.59052 0.05903 0.45213
 N126 N 0.53957 -0.03634 0.43460
 N127 N 0.54694 -0.05967 0.40950
 Mn128 Mn 0.56559 0.00004 0.49939
 C129 C 0.57878 -0.07392 0.42164
 C130 C 0.57821 0.07325 0.42063
 N131 N 0.43329 0.03480 0.45979
 N132 N 0.40774 0.05800 0.45261
 N133 N 0.45944 -0.03696 0.43451
 N134 N 0.45186 -0.05981 0.40892
 N135 N 0.43359 -0.03704 0.46000
 N136 N 0.40773 -0.05996 0.45239
 N137 N 0.45914 0.03488 0.43431
 N138 N 0.45189 0.05812 0.40908
 Mn139 Mn 0.43312 -0.00094 0.49949
 Mn140 Mn 0.49935 -0.00074 0.43407
 Cl141 Cl 0.49936 -0.00045 0.49944
 C142 C 0.42010 0.07254 0.42123
 C143 C 0.41988 -0.07425 0.42080
 N144 N 0.45937 0.56097 -0.03745
 N145 N 0.45155 0.58517 -0.06141
 N146 N 0.43356 0.53761 0.03981
 N147 N 0.40694 0.54587 0.06320
 N148 N 0.45966 0.56114 0.03959
 N149 N 0.45150 0.58592 0.06282
 N150 N 0.43331 0.53742 -0.03728
 N151 N 0.40701 0.54503 -0.06112
 C152 C 0.41924 0.57450 -0.07632
 C153 C 0.41898 0.57568 0.07779
 N154 N 0.45947 0.44004 0.03954
 N155 N 0.45164 0.41571 0.06341
 N156 N 0.43306 0.46356 -0.03726
 N157 N 0.40660 0.45585 -0.06094
 N158 N 0.45902 0.44000 -0.03746
 N159 N 0.45096 0.41571 -0.06126
 N160 N 0.43355 0.46364 0.03980
 N161 N 0.40736 0.45592 0.06384
 Mn162 Mn 0.43304 0.50055 0.00128
 C163 C 0.41951 0.42635 0.07873
 C164 C 0.41861 0.42630 -0.07608
 N165 N 0.53974 0.56083 0.03896
 N166 N 0.54773 0.58502 0.06290
 N167 N 0.56528 0.53730 -0.03829
 N168 N 0.59161 0.54514 -0.06217
 N169 N 0.53937 0.56091 -0.03804
 N170 N 0.54734 0.58535 -0.06174
 N171 N 0.56567 0.53724 0.03876
 N172 N 0.59204 0.54481 0.06257
 Mn173 Mn 0.49955 0.56119 0.00077
 C174 C 0.57999 0.57430 0.07778
 C175 C 0.57956 0.57480 -0.07698
 N176 N 0.53907 0.43981 -0.03809
 N177 N 0.54708 0.41520 -0.06155
 N178 N 0.56555 0.46339 0.03876
 N179 N 0.59211 0.45550 0.06223
 N180 N 0.53947 0.43985 0.03895
 N181 N 0.54756 0.41540 0.06254
 N182 N 0.56515 0.46336 -0.03832
 N183 N 0.59160 0.45530 -0.06194
 Mn184 Mn 0.49924 0.43970 0.00073
 Mn185 Mn 0.56574 0.50033 0.00022
 Cl186 Cl 0.49939 0.50044 0.00075
 C187 C 0.57948 0.42558 -0.07665
 C188 C 0.58004 0.42588 0.07726
 C189 C 1.17995 0.18199 0.17970
 C190 C 1.18663 0.18640 0.13836
 C191 C 1.16586 0.16490 0.11726
 C192 C 1.14049 0.14113 0.13961
 C193 C 1.11716 0.16501 0.16379
 C194 C 1.13792 0.18651 0.18488
 C195 C 1.18725 0.14404 0.18734
 C196 C 1.16651 0.12256 0.16628
 C197 C 1.20238 0.20483 0.20258
 C198 C 1.22101 0.22308 0.22177
 C199 C 1.11834 0.11765 0.11718
 C200 C 1.10054 0.09757 0.09933
 H201 H 1.20592 0.20481 0.12669
 H202 H 1.16735 0.16487 0.08751
 H203 H 1.08701 0.16506 0.16427
 H204 H 1.12556 0.20499 0.20344
 H205 H 1.20697 0.13483 0.20754
 H206 H 1.16849 0.09495 0.16843
 C207 C 1.17829 0.68356 0.67861
 C208 C 1.18537 0.64553 0.68600
 C209 C 1.16453 0.62431 0.66478
 C210 C 1.13865 0.64318 0.63824
 C211 C 1.16415 0.66695 0.61605
 C212 C 1.18503 0.68821 0.63731
 C213 C 1.13629 0.68828 0.68383
 C214 C 1.11542 0.66702 0.66257
 C215 C 1.20093 0.70601 0.70159
 C216 C 1.22005 0.72379 0.72076
 C217 C 1.11650 0.61991 0.61569
 C218 C 1.09886 0.59981 0.59779
 H219 H 1.20502 0.63609 0.70614
 H220 H 1.16633 0.59667 0.66674
 H221 H 1.16564 0.66710 0.58631
 H222 H 1.20442 0.70660 0.62579
 H223 H 1.12405 0.70671 0.70251
 H224 H 1.08527 0.66721 0.66302
 C225 C 0.67954 0.18170 0.67969
 C226 C 0.68631 0.18612 0.63836
 C227 C 0.66542 0.16480 0.61716
 C228 C 0.63979 0.14115 0.63937
 C229 C 0.61663 0.16516 0.66357
 C230 C 0.63752 0.18649 0.68477
 C231 C 0.68649 0.14367 0.68724
 C232 C 0.66562 0.12237 0.66607
 C233 C 0.70221 0.20444 0.70260
 C234 C 0.72118 0.22274 0.72151
 C235 C 0.61746 0.11787 0.61673
 C236 C 0.59950 0.09804 0.59864
 H237 H 0.70578 0.20441 0.62676
 H238 H 0.66699 0.16483 0.58742
 H239 H 0.58648 0.16542 0.66400
 H240 H 0.62527 0.20500 0.70336
 H241 H 0.70608 0.13428 0.70747
 H242 H 0.66735 0.09474 0.66817
 C243 C 0.68115 0.67819 0.18370
 C244 C 0.63917 0.68127 0.19031
 C245 C 0.61857 0.65928 0.16968
 C246 C 0.64198 0.63639 0.14449
 C247 C 0.66956 0.61840 0.17005
 C248 C 0.69017 0.64040 0.19069
 C249 C 0.68626 0.68316 0.14226
 C250 C 0.66567 0.66119 0.12164
 C251 C 0.70338 0.70186 0.20573
 C252 C 0.72192 0.72119 0.22375
 C253 C 0.61985 0.61306 0.12191
 C254 C 0.60165 0.59477 0.10235
 H255 H 0.62674 0.69912 0.20952
 H256 H 0.58847 0.65827 0.17120
 H257 H 0.67260 0.59085 0.17181
 H258 H 0.71089 0.63169 0.21016
 H259 H 0.70445 0.70226 0.13017
 H260 H 0.66624 0.66147 0.09186
 C261 C 0.82003 -0.18293 0.17926
 C262 C 0.81915 -0.14558 0.19201
 C263 C 0.84008 -0.12426 0.17088
 C264 C 0.85988 -0.14235 0.13904
 C265 C 0.82888 -0.16058 0.11775
 C266 C 0.80792 -0.18194 0.13891
 C267 C 0.86137 -0.19246 0.17823
 C268 C 0.88234 -0.17110 0.15707
 C269 C 0.79741 -0.20562 0.20221
 C270 C 0.77868 -0.22379 0.22147
 C271 C 0.88226 -0.11904 0.11655
 C272 C 0.90027 -0.09907 0.09869
 H273 H 0.80345 -0.13666 0.21559
 H274 H 0.84232 -0.09706 0.17636
 H275 H 0.82388 -0.15706 0.08864
 H276 H 0.78494 -0.19672 0.12794
 H277 H 0.87313 -0.21408 0.19281
 H278 H 0.91206 -0.17442 0.15350
 C279 C 0.82149 0.31669 0.67879
 C280 C 0.80639 0.35331 0.67730
 C281 C 0.82716 0.37477 0.65617
 C282 C 0.86106 0.35756 0.63855
 C283 C 0.84526 0.32691 0.61738
 C284 C 0.82445 0.30541 0.63855
 C285 C 0.86180 0.32040 0.69188
 C286 C 0.88260 0.34189 0.67072
 C287 C 0.79888 0.29389 0.70172
 C288 C 0.77986 0.27580 0.72083
 C289 C 0.88324 0.38107 0.61602
 C290 C 0.90103 0.40119 0.59809
 H291 H 0.78152 0.36165 0.69159
 H292 H 0.82008 0.40150 0.65237
 H293 H 0.85003 0.32247 0.58835
 H294 H 0.81138 0.28254 0.62765
 H295 H 0.87302 0.30727 0.71563
 H296 H 0.91165 0.34717 0.67636
 C297 C 0.32058 -0.18286 0.67981
 C298 C 0.31395 -0.18739 0.63850
 C299 C 0.33485 -0.16606 0.61727
 C300 C 0.36029 -0.14233 0.63946
 C301 C 0.38347 -0.16622 0.66370
 C302 C 0.36257 -0.18756 0.68494
 C303 C 0.31345 -0.14486 0.68730
 C304 C 0.33432 -0.12355 0.66609
 C305 C 0.29793 -0.20554 0.70270
 C306 C 0.27890 -0.22377 0.72158
 C307 C 0.38252 -0.11904 0.61684
 C308 C 0.40030 -0.09908 0.59878
 H309 H 0.29459 -0.20575 0.62695
 H310 H 0.33340 -0.16613 0.58752
 H311 H 0.41362 -0.16638 0.66412
 H312 H 0.37480 -0.20601 0.70357
 H313 H 0.29374 -0.13550 0.70749
 H314 H 0.33249 -0.09592 0.66812
 C315 C 0.31857 0.32142 0.18408
 C316 C 0.36061 0.31741 0.18947
 C317 C 0.38120 0.33961 0.16898
 C318 C 0.35771 0.36360 0.14515
 C319 C 0.33113 0.38135 0.17199
 C320 C 0.31053 0.35915 0.19248
 C321 C 0.31239 0.31769 0.14265
 C322 C 0.33297 0.33987 0.12218
 C323 C 0.29634 0.29755 0.20597
 C324 C 0.27778 0.27813 0.22393
 C325 C 0.37981 0.38716 0.12272
 C326 C 0.39795 0.40565 0.10326
 H327 H 0.37309 0.29881 0.20777
 H328 H 0.41134 0.34004 0.16974
 H329 H 0.32872 0.40889 0.17469
 H330 H 0.29045 0.36766 0.21275
 H331 H 0.29352 0.29926 0.13046
 H332 H 0.33171 0.34044 0.09243
 C333 C 0.82032 0.18176 -0.17891
 C334 C 0.84464 0.15727 -0.20135
 C335 C 0.86557 0.13588 -0.18038
 C336 C 0.86017 0.14103 -0.13897
 C337 C 0.81820 0.13719 -0.13262
 C338 C 0.79727 0.15858 -0.15360
 C339 C 0.84742 0.20046 -0.15332
 C340 C 0.86837 0.17905 -0.13232
 C341 C 0.79766 0.20458 -0.20169
 C342 C 0.77889 0.22288 -0.22075
 C343 C 0.88258 0.11765 -0.11656
 C344 C 0.90059 0.09776 -0.09865
 H345 H 0.84539 0.15678 -0.23113
 H346 H 0.88423 0.11709 -0.19221
 H347 H 0.80598 0.11925 -0.11331
 H348 H 0.76714 0.15896 -0.15225
 H349 H 0.84993 0.22808 -0.15183
 H350 H 0.88882 0.18832 -0.11285
 C351 C 0.82156 0.68363 0.32208
 C352 C 0.81546 0.68850 0.36344
 C353 C 0.83634 0.66715 0.38453
 C354 C 0.86121 0.64309 0.36213
 C355 C 0.88442 0.66665 0.33736
 C356 C 0.86354 0.68799 0.31628
 C357 C 0.81387 0.64564 0.31500
 C358 C 0.83471 0.62433 0.33605
 C359 C 0.79892 0.70618 0.29925
 C360 C 0.77983 0.72400 0.28016
 C361 C 0.88339 0.61974 0.38448
 C362 C 0.90114 0.59959 0.40216
 H363 H 0.79647 0.70709 0.37512
 H364 H 0.83525 0.66743 0.41430
 H365 H 0.91456 0.66660 0.33650
 H366 H 0.87578 0.70625 0.29733
 H367 H 0.79381 0.63628 0.29517
 H368 H 0.83250 0.59670 0.33426
 C369 C 0.31990 0.18166 0.32084
 C370 C 0.36051 0.17909 0.30828
 C371 C 0.38135 0.15761 0.32924
 C372 C 0.35950 0.14083 0.36067
 C373 C 0.32634 0.12327 0.34212
 C374 C 0.30552 0.14472 0.32118
 C375 C 0.32182 0.19216 0.36137
 C376 C 0.34267 0.17067 0.38234
 C377 C 0.29732 0.20449 0.29822
 C378 C 0.27838 0.22282 0.27949
 C379 C 0.38169 0.11740 0.38298
 C380 C 0.39949 0.09735 0.40079
 H381 H 0.37190 0.19295 0.28502
 H382 H 0.41061 0.15305 0.32394
 H383 H 0.31977 0.09632 0.34516
 H384 H 0.28113 0.13617 0.30629
 H385 H 0.30806 0.21451 0.37260
 H386 H 0.34678 0.17460 0.41153
 C387 C 0.31851 0.67819 -0.18252
 C388 C 0.35254 0.66384 -0.20270
 C389 C 0.37310 0.64191 -0.18199
 C390 C 0.35756 0.63652 -0.14317
 C391 C 0.31729 0.62474 -0.14877
 C392 C 0.29674 0.64666 -0.16948
 C393 C 0.33400 0.69445 -0.14744
 C394 C 0.35453 0.67254 -0.12675
 C395 C 0.29634 0.70179 -0.20462
 C396 C 0.27787 0.72106 -0.22271
 C397 C 0.37962 0.61326 -0.12053
 C398 C 0.39773 0.59499 -0.10093
 H399 H 0.35983 0.67031 -0.23077
 H400 H 0.39800 0.62957 -0.19230
 H401 H 0.30593 0.60124 -0.13752
 H402 H 0.26776 0.64195 -0.17596
 H403 H 0.32927 0.72084 -0.13954
 H404 H 0.36740 0.68018 -0.10112
 C405 C 1.18000 -0.18295 -0.17876
 C406 C 1.18760 -0.14497 -0.18611
 C407 C 1.16672 -0.12358 -0.16510
 C408 C 1.14027 -0.14226 -0.13876
 C409 C 1.16524 -0.16617 -0.11634
 C410 C 1.18615 -0.18759 -0.13739
 C411 C 1.13801 -0.18740 -0.18432
 C412 C 1.11711 -0.16598 -0.16328
 C413 C 1.20258 -0.20571 -0.20158
 C414 C 1.22129 -0.22393 -0.22071
 C415 C 1.11799 -0.11888 -0.11637
 C416 C 1.10014 -0.09887 -0.09851
 H417 H 1.20762 -0.13568 -0.20609
 H418 H 1.16887 -0.09596 -0.16706
 H419 H 1.16637 -0.16630 -0.08658
 H420 H 1.20520 -0.20607 -0.12568
 H421 H 1.12579 -0.20575 -0.20310
 H422 H 1.08697 -0.16599 -0.16401
 C423 C 1.17827 0.31637 0.32197
 C424 C 1.18606 0.35425 0.31423
 C425 C 1.16540 0.37590 0.33511
 C426 C 1.13895 0.35756 0.36170
 C427 C 1.16385 0.33371 0.38427
 C428 C 1.18455 0.31202 0.36336
 C429 C 1.13625 0.31206 0.31658
 C430 C 1.11554 0.33375 0.33749
 C431 C 1.20075 0.29348 0.29932
 C432 C 1.21977 0.27545 0.28032
 C433 C 1.11698 0.38128 0.38388
 C434 C 1.09945 0.40168 0.40148
 H435 H 1.20606 0.36328 0.29410
 H436 H 1.16769 0.40349 0.33287
 H437 H 1.16506 0.33382 0.41403
 H438 H 1.20352 0.29353 0.37518
 H439 H 1.12386 0.29360 0.29802
 H440 H 1.08540 0.33389 0.33688
 C441 C 0.67951 -0.18253 0.32085
 C442 C 0.68724 -0.14453 0.31371
 C443 C 0.66635 -0.12319 0.33477
 C444 C 0.63976 -0.14192 0.36091
 C445 C 0.66456 -0.16599 0.38330
 C446 C 0.68548 -0.18736 0.36222
 C447 C 0.63753 -0.18685 0.31511
 C448 C 0.61661 -0.16548 0.33619
 C449 C 0.70216 -0.20525 0.29810
 C450 C 0.72115 -0.22352 0.27930
 C451 C 0.61747 -0.11861 0.38335
 C452 C 0.59957 -0.09865 0.40121
 H453 H 0.70736 -0.13521 0.29386
 H454 H 0.66858 -0.09557 0.33295
 H455 H 0.66558 -0.16626 0.41307
 H456 H 0.70444 -0.20595 0.37391
 H457 H 0.62533 -0.20510 0.29619
 H458 H 0.58647 -0.16541 0.33535
 C459 C 0.68089 0.32081 -0.18204
 C460 C 0.65106 0.33987 -0.20405
 C461 C 0.63041 0.36188 -0.18343
 C462 C 0.64161 0.36266 -0.14282
 C463 C 0.68329 0.37099 -0.14295
 C464 C 0.70393 0.34900 -0.16356
 C465 C 0.65972 0.30335 -0.15062
 C466 C 0.63908 0.32533 -0.13002
 C467 C 0.70322 0.29712 -0.20415
 C468 C 0.72182 0.27789 -0.22232
 C469 C 0.61939 0.38611 -0.12028
 C470 C 0.60117 0.40465 -0.10091
 H471 H 0.64657 0.33640 -0.23325
 H472 H 0.60824 0.37725 -0.19497
 H473 H 0.69551 0.39230 -0.12819
 H474 H 0.73383 0.35148 -0.16643
 H475 H 0.66082 0.27611 -0.14505
 H476 H 0.62251 0.31689 -0.10680
 C477 C 1.18049 0.18250 -0.17920
 C478 C 1.18595 0.18805 -0.13786
 C479 C 1.16533 0.16649 -0.11658
 C480 C 1.14129 0.14150 -0.13875
 C481 C 1.16857 0.12305 -0.16434
 C482 C 1.18916 0.14458 -0.18559
 C483 C 1.13847 0.18573 -0.18537
 C484 C 1.11786 0.16418 -0.16410
 C485 C 1.20280 0.20545 -0.20228
 C486 C 1.22136 0.22380 -0.22157
 C487 C 1.11922 0.11797 -0.11611
 C488 C 1.10137 0.09791 -0.09814
 H489 H 1.20435 0.20723 -0.12632
 H490 H 1.16606 0.16720 -0.08682
 H491 H 1.17148 0.09546 -0.16566
 H492 H 1.20969 0.13544 -0.20509
 H493 H 1.12601 0.20341 -0.20470
 H494 H 1.08774 0.16339 -0.16521
 C495 C 1.18010 0.68435 0.31959
 C496 C 1.18780 0.64640 0.31229
 C497 C 1.16704 0.62485 0.33336
 C498 C 1.14053 0.64330 0.35975
 C499 C 1.11727 0.66690 0.33522
 C500 C 1.13807 0.68848 0.31412
 C501 C 1.18625 0.68899 0.36097
 C502 C 1.16545 0.66742 0.38208
 C503 C 1.20271 0.70729 0.29671
 C504 C 1.22175 0.72548 0.27764
 C505 C 1.11832 0.61971 0.38228
 C506 C 1.10048 0.59960 0.40026
 H507 H 1.20783 0.63723 0.29229
 H508 H 1.16930 0.59725 0.33140
 H509 H 1.08713 0.66671 0.33452
 H510 H 1.12573 0.70675 0.29534
 H511 H 1.20523 0.70761 0.37266
 H512 H 1.16664 0.66756 0.41183
 C513 C 0.67933 0.18218 0.31972
 C514 C 0.68666 0.14420 0.31222
 C515 C 0.66562 0.12276 0.33314
 C516 C 0.63927 0.14137 0.35954
 C517 C 0.61629 0.16526 0.33509
 C518 C 0.63736 0.18673 0.31414
 C519 C 0.68544 0.18661 0.36112
 C520 C 0.66438 0.16515 0.38206
 C521 C 0.70218 0.20502 0.29709
 C522 C 0.72132 0.22336 0.27838
 C523 C 0.61682 0.11795 0.38191
 C524 C 0.59889 0.09797 0.39986
 H525 H 0.70664 0.13495 0.29222
 H526 H 0.66758 0.09515 0.33105
 H527 H 0.58615 0.16534 0.33433
 H528 H 0.62528 0.20519 0.29543
 H529 H 0.70460 0.20500 0.37294
 H530 H 0.66548 0.16516 0.41182
 C531 C 0.68087 0.67917 -0.18306
 C532 C 0.68891 0.64134 -0.19096
 C533 C 0.66826 0.61935 -0.17024
 C534 C 0.64160 0.63736 -0.14367
 C535 C 0.61819 0.66112 -0.16786
 C536 C 0.63883 0.68310 -0.18858
 C537 C 0.68693 0.68332 -0.14165
 C538 C 0.66630 0.66136 -0.12095
 C539 C 0.70319 0.70283 -0.20524
 C540 C 0.72180 0.72207 -0.22341
 C541 C 0.61941 0.61398 -0.12101
 C542 C 0.60121 0.59554 -0.10148
 H543 H 0.70903 0.63260 -0.21108
 H544 H 0.67068 0.59179 -0.17260
 H545 H 0.58805 0.66069 -0.16867
 H546 H 0.62639 0.70151 -0.20713
 H547 H 0.70577 0.70187 -0.12964
 H548 H 0.66749 0.66111 -0.09119
 C549 C 0.82023 -0.18194 -0.17965
 C550 C 0.86223 -0.18614 -0.18542
 C551 C 0.88313 -0.16475 -0.16432
 C552 C 0.85998 -0.14127 -0.13951
 C553 C 0.83506 -0.16545 -0.11716
 C554 C 0.81416 -0.18684 -0.13827
 C555 C 0.81259 -0.14394 -0.18668
 C556 C 0.83347 -0.12257 -0.16560
 C557 C 0.79763 -0.20472 -0.20254
 C558 C 0.77888 -0.22297 -0.22168
 C559 C 0.88233 -0.11792 -0.11701
 C560 C 0.90030 -0.09802 -0.09905
 H561 H 0.87446 -0.20432 -0.20438
 H562 H 0.91327 -0.16462 -0.16520
 H563 H 0.83396 -0.16576 -0.08740
 H564 H 0.79514 -0.20548 -0.12659
 H565 H 0.79252 -0.13461 -0.20649
 H566 H 0.83127 -0.09495 -0.16736
 C567 C 0.82201 0.31698 0.32083
 C568 C 0.86400 0.31269 0.31507
 C569 C 0.88492 0.33419 0.33602
 C570 C 0.86178 0.35783 0.36065
 C571 C 0.83684 0.33383 0.38318
 C572 C 0.81592 0.31233 0.36223
 C573 C 0.81441 0.35494 0.31352
 C574 C 0.83530 0.37640 0.33443
 C575 C 0.79930 0.29422 0.29814
 C576 C 0.78020 0.27620 0.27915
 C577 C 0.88402 0.38134 0.38294
 C578 C 0.90174 0.40152 0.40073
 H579 H 0.87620 0.29436 0.29624
 H580 H 0.91507 0.33429 0.33515
 H581 H 0.83576 0.33369 0.41295
 H582 H 0.79690 0.29377 0.37404
 H583 H 0.79437 0.36416 0.29363
 H584 H 0.83315 0.40402 0.33246
 C585 C 0.31891 -0.18280 0.31890
 C586 C 0.36095 -0.18723 0.31354
 C587 C 0.38180 -0.16580 0.33469
 C588 C 0.35860 -0.14202 0.35915
 C589 C 0.33333 -0.16595 0.38141
 C590 C 0.31248 -0.18738 0.36027
 C591 C 0.31160 -0.14479 0.31155
 C592 C 0.33242 -0.12338 0.33267
 C593 C 0.29626 -0.20568 0.29601
 C594 C 0.27729 -0.22405 0.27712
 C595 C 0.38093 -0.11862 0.38178
 C596 C 0.39890 -0.09876 0.39989
 H597 H 0.37324 -0.20559 0.29482
 H598 H 0.41195 -0.16583 0.33406
 H599 H 0.33195 -0.16608 0.41117
 H600 H 0.29325 -0.20584 0.37193
 H601 H 0.29178 -0.13548 0.29149
 H602 H 0.33042 -0.09576 0.33068
 C603 C 0.31845 0.32202 -0.18291
 C604 C 0.36056 0.31832 -0.18817
 C605 C 0.38087 0.34035 -0.16728
 C606 C 0.35707 0.36393 -0.14318
 C607 C 0.33230 0.33976 -0.12067
 C608 C 0.31201 0.31774 -0.14154
 C609 C 0.31026 0.35982 -0.19077
 C610 C 0.33057 0.38187 -0.16988
 C611 C 0.29649 0.29828 -0.20525
 C612 C 0.27812 0.27896 -0.22350
 C613 C 0.37894 0.38735 -0.12034
 C614 C 0.39698 0.40573 -0.10068
 H615 H 0.37330 0.30002 -0.20669
 H616 H 0.41101 0.34094 -0.16792
 H617 H 0.33081 0.33993 -0.09092
 H618 H 0.29316 0.29906 -0.12968
 H619 H 0.29028 0.36851 -0.21099
 H620 H 0.32801 0.40942 -0.17218
 C621 C 1.18126 -0.18285 0.18052
 C622 C 1.18734 -0.18750 0.13911
 C623 C 1.16651 -0.16602 0.11808
 C624 C 1.14160 -0.14195 0.14048
 C625 C 1.16815 -0.12339 0.16673
 C626 C 1.18896 -0.14485 0.18773
 C627 C 1.13923 -0.18710 0.18619
 C628 C 1.11840 -0.16562 0.16516
 C629 C 1.20385 -0.20579 0.20337
 C630 C 1.22260 -0.22415 0.22244
 C631 C 1.11926 -0.11848 0.11799
 C632 C 1.10126 -0.09858 0.09999
 H633 H 1.20631 -0.20606 0.12735
 H634 H 1.16765 -0.16619 0.08832
 H635 H 1.17041 -0.09578 0.16864
 H636 H 1.20902 -0.13560 0.20761
 H637 H 1.12692 -0.20539 0.20505
 H638 H 1.08826 -0.16553 0.16603
 C639 C 1.17901 0.31726 0.67773
 C640 C 1.13696 0.31287 0.68294
 C641 C 1.11635 0.33438 0.66176
 C642 C 1.13985 0.35813 0.63747
 C643 C 1.16504 0.33422 0.61521
 C644 C 1.18564 0.31272 0.63639
 C645 C 1.18658 0.35522 0.68521
 C646 C 1.16601 0.37669 0.66406
 C647 C 1.20140 0.29450 0.70067
 C648 C 1.22031 0.27649 0.71980
 C649 C 1.11789 0.38165 0.61498
 C650 C 1.10023 0.40182 0.59717
 H651 H 1.12447 0.29448 0.70157
 H652 H 1.08620 0.33441 0.66224
 H653 H 1.16652 0.33416 0.58546
 H654 H 1.20479 0.29422 0.62479
 H655 H 1.20638 0.36444 0.70536
 H656 H 1.16819 0.40430 0.66611
 C657 C 0.67974 -0.18164 0.67908
 C658 C 0.68606 -0.18615 0.63769
 C659 C 0.66517 -0.16474 0.61666
 C660 C 0.64002 -0.14094 0.63909
 C661 C 0.66630 -0.12226 0.66549
 C662 C 0.68716 -0.14364 0.68649
 C663 C 0.63773 -0.18620 0.68459
 C664 C 0.61685 -0.16479 0.66356
 C665 C 0.70237 -0.20443 0.70180
 C666 C 0.72131 -0.22276 0.72059
 C667 C 0.61773 -0.11758 0.61666
 C668 C 0.59982 -0.09768 0.59872
 H669 H 0.70522 -0.20455 0.62595
 H670 H 0.66644 -0.16480 0.58691
 H671 H 0.66834 -0.09463 0.66751
 H672 H 0.70706 -0.13433 0.70650
 H673 H 0.62548 -0.20463 0.70333
 H674 H 0.58670 -0.16488 0.66429
 C675 C 0.68158 0.32146 0.18231
 C676 C 0.63955 0.31739 0.18799
 C677 C 0.61890 0.33938 0.16746
 C678 C 0.64231 0.36329 0.14326
 C679 C 0.66697 0.33945 0.12034
 C680 C 0.68761 0.31747 0.14086
 C681 C 0.68965 0.35928 0.19033
 C682 C 0.66899 0.38128 0.16979
 C683 C 0.70387 0.29778 0.20432
 C684 C 0.72239 0.27852 0.22243
 C685 C 0.62009 0.38669 0.12081
 C686 C 0.60181 0.40513 0.10148
 H687 H 0.62710 0.29889 0.20653
 H688 H 0.58876 0.33973 0.16841
 H689 H 0.66814 0.33981 0.09058
 H690 H 0.70644 0.29901 0.12869
 H691 H 0.70980 0.36801 0.21039
 H692 H 0.67143 0.40884 0.17224
 C693 C 0.82076 0.18217 0.17930
 C694 C 0.81501 0.18673 0.13786
 C695 C 0.83600 0.16518 0.11703
 C696 C 0.86067 0.14119 0.13969
 C697 C 0.83390 0.12269 0.16586
 C698 C 0.81294 0.14421 0.18666
 C699 C 0.86273 0.18643 0.18518
 C700 C 0.88372 0.16489 0.16435
 C701 C 0.79806 0.20510 0.20190
 C702 C 0.77925 0.22345 0.22085
 C703 C 0.88308 0.11767 0.11748
 C704 C 0.90101 0.09762 0.09968
 H705 H 0.79615 0.20526 0.12594
 H706 H 0.83512 0.16525 0.08726
 H707 H 0.83161 0.09508 0.16788
 H708 H 0.79270 0.13504 0.20648
 H709 H 0.87489 0.20478 0.20402
 H710 H 0.91385 0.16478 0.16535
 C711 C 0.82141 0.68338 0.67815
 C712 C 0.81378 0.64544 0.68574
 C713 C 0.83453 0.62391 0.66477
 C714 C 0.86092 0.64240 0.63824
 C715 C 0.88422 0.66621 0.66254
 C716 C 0.86343 0.68778 0.68354
 C717 C 0.81513 0.68781 0.63677
 C718 C 0.83592 0.66625 0.61577
 C719 C 0.79885 0.70621 0.70090
 C720 C 0.77984 0.72429 0.71991
 C721 C 0.88305 0.61883 0.61590
 C722 C 0.90077 0.59865 0.59813
 H723 H 0.79381 0.63627 0.70583
 H724 H 0.83233 0.59630 0.66691
 H725 H 0.91436 0.66618 0.66316
 H726 H 0.87576 0.70621 0.70217
 H727 H 0.79608 0.70628 0.62502
 H728 H 0.83469 0.66624 0.58601
 C729 C 0.32003 0.18229 0.67874
 C730 C 0.31247 0.14435 0.68640
 C731 C 0.33305 0.12281 0.66525
 C732 C 0.35922 0.14129 0.63848
 C733 C 0.38271 0.16512 0.66259
 C734 C 0.36210 0.18669 0.68376
 C735 C 0.31341 0.18670 0.63740
 C736 C 0.33402 0.16513 0.61623
 C737 C 0.29767 0.20525 0.70161
 C738 C 0.27886 0.22365 0.72050
 C739 C 0.38123 0.11775 0.61592
 C740 C 0.39900 0.09769 0.59799
 H741 H 0.29268 0.13519 0.70667
 H742 H 0.33088 0.09520 0.66742
 H743 H 0.41286 0.16509 0.66297
 H744 H 0.37459 0.20513 0.70228
 H745 H 0.29425 0.20515 0.62579
 H746 H 0.33252 0.16510 0.58649
 C747 C 0.31761 0.68092 0.18315
 C748 C 0.31161 0.68498 0.14171
 C749 C 0.33217 0.66296 0.12105
 C750 C 0.35677 0.63897 0.14380
 C751 C 0.33000 0.62105 0.17043
 C752 C 0.30943 0.64309 0.19110
 C753 C 0.35968 0.68481 0.18864
 C754 C 0.38024 0.66277 0.16797
 C755 C 0.29533 0.70464 0.20538
 C756 C 0.27673 0.72383 0.22368
 C757 C 0.37894 0.61542 0.12121
 C758 C 0.39718 0.59678 0.10190
 H759 H 0.29286 0.70353 0.12964
 H760 H 0.33098 0.66267 0.09130
 H761 H 0.32743 0.59349 0.17285
 H762 H 0.28925 0.63438 0.21122
 H763 H 0.37221 0.70323 0.20715
 H764 H 0.41038 0.66234 0.16881
   
