data_POSCAR
  _audit_creation_date              2014-09-24
  _audit_creation_method            'ToBaCCo'
  _symmetry_space_group_name_H-M    'P1'
  _symmetry_Int_Tables_number       1
  _symmetry_cell_setting            triclinic
  loop_
  _symmetry_equiv_pos_as_xyz
 x,y,z
_cell_length_a 25.2125
_cell_length_b 25.4354
_cell_length_c 32.0040
_cell_angle_alpha 92.135100
_cell_angle_beta 98.469200
_cell_angle_gamma 95.064400
loop_
  _atom_site_label
  _atom_site_type_symbol
  _atom_site_fract_x
  _atom_site_fract_y
  _atom_site_fract_z
C1 C 0.00309 0.49159 0.97968
 C2 C -0.01795 0.49105 1.01647
 C3 C -0.02634 0.54078 1.03926
 C4 C -0.02813 0.44084 1.03760
 C5 C 0.01834 0.44270 0.95999
 C6 C 0.01130 0.54071 0.95730
 C7 C 0.01695 0.57899 1.05229
 C8 C 0.00986 0.62443 1.07577
 C9 C -0.04052 0.63248 1.08821
 C10 C -0.08432 0.59432 1.07346
 C11 C -0.07699 0.54875 1.04995
 C12 C -0.00254 0.43541 1.07898
 C13 C -0.00529 0.38633 1.09704
 C14 C -0.03289 0.34168 1.07376
 C15 C -0.06155 0.34780 1.03349
 C16 C -0.05963 0.39716 1.01570
 C17 C -0.01075 0.42190 0.92134
 C18 C -0.00175 0.37220 0.90535
 C19 C 0.03685 0.34291 0.92758
 C20 C 0.06832 0.36525 0.96494
 C21 C 0.05885 0.41471 0.98122
 C22 C -0.03289 0.56434 0.93684
 C23 C -0.02472 0.60999 0.91471
 C24 C 0.02773 0.63292 0.91317
 C25 C 0.07177 0.60997 0.93493
 C26 C 0.06364 0.56352 0.95600
 H27 H 0.05656 0.57345 1.04459
 H28 H 0.04392 0.65403 1.08306
 H29 H -0.12382 0.59768 1.08218
 H30 H -0.11082 0.51936 1.04040
 H31 H 0.02142 0.46865 1.09665
 H32 H 0.01569 0.38271 1.12872
 H33 H -0.08095 0.40087 0.98417
 H34 H -0.04205 0.44309 0.90458
 H35 H -0.02588 0.35591 0.87617
 H36 H 0.09918 0.34377 0.98197
 H37 H 0.08196 0.43056 1.01094
 H38 H -0.07353 0.54703 0.93762
 H39 H -0.05931 0.62732 0.89859
 H40 H 0.11246 0.62782 0.93530
 H41 H 0.09808 0.54581 0.97195
 H42 H -0.08403 0.31409 1.01537
 C43 C 0.49889 0.01743 0.47866
 C44 C 0.50628 0.01377 0.52146
 C45 C 0.46102 0.01448 0.54630
 C46 C 0.56049 0.00888 0.54536
 C47 C 0.54531 0.02139 0.45485
 C48 C 0.44436 0.01596 0.45352
 C49 C 0.42685 0.05537 0.54293
 C50 C 0.38409 0.05517 0.56619
 C51 C 0.37549 0.01462 0.59369
 C52 C 0.40977 -0.02601 0.59728
 C53 C 0.45244 -0.02590 0.57397
 C54 C 0.58354 0.04761 0.57669
 C55 C 0.63634 0.04570 0.59684
 C56 C 0.66658 0.00491 0.58600
 C57 C 0.64263 -0.03520 0.55611
 C58 C 0.58993 -0.03321 0.53587
 C59 C 0.54797 -0.01651 0.42242
 C60 C 0.59277 -0.01493 0.40135
 C61 C 0.63522 0.02496 0.41207
 C62 C 0.63242 0.06329 0.44413
 C63 C 0.58752 0.06181 0.46513
 C64 C 0.40519 -0.02622 0.45592
 C65 C 0.35409 -0.02732 0.43188
 C66 C 0.34169 0.01335 0.40471
 C67 C 0.38072 0.05561 0.40243
 C68 C 0.43186 0.05664 0.42636
 H69 H 0.43330 0.08734 0.52229
 H70 H 0.35773 0.08665 0.56288
 H71 H 0.40352 -0.05769 0.61825
 H72 H 0.47842 -0.05769 0.57708
 H73 H 0.56120 0.08013 0.58455
 H74 H 0.65403 0.07654 0.62028
 H75 H 0.57235 -0.06391 0.51227
 H76 H 0.51584 -0.04796 0.41406
 H77 H 0.59444 -0.04480 0.37668
 H78 H 0.66500 0.09421 0.45282
 H79 H 0.58591 0.09177 0.48973
 H80 H 0.41433 -0.05836 0.47623
 H81 H 0.32437 -0.06015 0.43408
 H82 H 0.37158 0.08758 0.38193
 H83 H 0.46158 0.08944 0.42406
 H84 H 0.66507 -0.06756 0.54807
 C85 C 0.05180 -0.04291 0.26645
 H86 H 0.03637 -0.07744 0.24625
 C87 C 0.10449 -0.03973 0.28766
 H88 H 0.12882 -0.07223 0.28431
 C89 C 0.04037 0.04229 0.29442
 H90 H 0.01522 0.07437 0.29631
 C91 C 0.09304 0.04716 0.31615
 H92 H 0.10845 0.08294 0.33506
 N93 N 0.02078 -0.00232 0.27026
 C94 C -0.06779 -0.07623 0.16450
 H95 H -0.06724 -0.04175 0.14589
 C96 C -0.06884 -0.12626 0.14457
 H97 H -0.06822 -0.12997 0.11082
 C98 C -0.06780 -0.11412 0.23107
 H99 H -0.06591 -0.10886 0.26498
 C100 C -0.06926 -0.16475 0.21244
 H101 H -0.06880 -0.19862 0.23198
 Zn102 Zn -0.04909 -0.00506 0.23834
 N103 N -0.06453 -0.07102 0.20733
 C104 C -0.01709 0.05522 0.17208
 N105 N -0.04888 0.05313 0.20296
 C106 C -0.07665 0.09463 0.21187
 C107 C -0.07282 0.14050 0.18952
 C108 C -0.01364 0.09971 0.14792
 C109 C -0.08992 0.00681 0.31668
 C110 C -0.13058 0.01312 0.34132
 C111 C -0.19583 0.00427 0.27745
 C112 C -0.15408 -0.00191 0.25410
 N113 N -0.10228 0.00043 0.27382
 H114 H 0.00621 0.02263 0.16656
 H115 H -0.10026 0.09312 0.23742
 H116 H -0.09406 0.17367 0.19778
 H117 H 0.01095 0.10043 0.12287
 H118 H -0.04861 0.00746 0.33178
 H119 H -0.12047 0.01891 0.37535
 H120 H -0.23689 0.00295 0.26137
 H121 H -0.16273 -0.00767 0.22003
 C122 C -0.06726 -0.17079 0.16904
 C123 C 0.12579 0.00603 0.31230
 C124 C -0.18402 0.01289 0.32147
 C125 C -0.04038 0.14374 0.15752
 C126 C 0.09904 0.08385 0.80259
 H127 H 0.13158 0.07839 0.78490
 C128 C 0.10129 0.12948 0.82866
 H129 H 0.13584 0.15854 0.83112
 C130 C 0.01332 0.05438 0.81960
 H131 H -0.02125 0.02526 0.81518
 C132 C 0.01353 0.09988 0.84543
 H133 H -0.02128 0.10594 0.86058
 N134 N 0.05546 0.04743 0.79854
 C135 C 0.09735 -0.00203 0.68549
 H136 H 0.05703 -0.00049 0.66897
 C137 C 0.14089 0.00292 0.66304
 H138 H 0.13396 0.00871 0.62939
 C139 C 0.15607 -0.01216 0.74913
 H140 H 0.16150 -0.01811 0.78273
 C141 C 0.20067 -0.00741 0.72793
 H142 H 0.24063 -0.00987 0.74518
 Zn143 Zn 0.04835 -0.01197 0.76003
 N144 N 0.10580 -0.00821 0.72795
 C145 C -0.02819 0.03263 0.70262
 N146 N -0.01892 -0.01128 0.72459
 C147 C -0.05785 -0.05222 0.72325
 C148 C -0.10781 -0.05057 0.69819
 C149 C -0.07773 0.03598 0.67724
 C150 C 0.05932 -0.07389 0.83235
 C151 C 0.06093 -0.12096 0.85347
 C152 C 0.04433 -0.16947 0.78574
 C153 C 0.04448 -0.12155 0.76595
 N154 N 0.05069 -0.07509 0.78934
 H155 H 0.00287 0.06527 0.70516
 H156 H -0.05081 -0.08586 0.74213
 H157 H -0.13852 -0.08332 0.69748
 H158 H -0.08490 0.07130 0.66021
 H159 H 0.06507 -0.03648 0.85032
 H160 H 0.06775 -0.11954 0.88773
 H161 H 0.03700 -0.20617 0.76664
 H162 H 0.03829 -0.12129 0.73178
 C163 C 0.19325 0.00130 0.68457
 C164 C 0.05802 0.13804 0.85025
 C165 C 0.05341 -0.16954 0.83007
 C166 C -0.11793 -0.00628 0.67460
 C167 C -0.00582 -0.29862 0.14423
 C168 C -0.04704 -0.32329 0.11198
 C169 C -0.09524 -0.29856 0.10306
 C170 C -0.10080 -0.24935 0.12159
 C171 C -0.05897 -0.22285 0.15012
 C172 C -0.01085 -0.24713 0.16157
 C173 C 0.03808 -0.32556 0.16253
 C174 C 0.07920 -0.30005 0.19219
 C175 C 0.07697 -0.24773 0.20532
 C176 C 0.03228 -0.22149 0.19055
 H177 H 0.04054 -0.36695 0.15494
 H178 H 0.11288 -0.32107 0.20514
 H179 H 0.10932 -0.22782 0.22795
 H180 H 0.03171 -0.18120 0.20242
 H181 H -0.12790 -0.31501 0.07906
 H182 H -0.13795 -0.23127 0.11298
 C183 C 0.01684 0.26750 0.10742
 C184 C -0.03197 0.28886 0.09188
 C185 C -0.08113 0.26089 0.09591
 C186 C -0.08268 0.21364 0.11642
 C187 C -0.03516 0.19315 0.13440
 C188 C 0.01538 0.22057 0.13044
 C189 C 0.06715 0.29159 0.10027
 C190 C 0.11500 0.27225 0.11792
 C191 C 0.11374 0.22895 0.14315
 C192 C 0.06459 0.20340 0.14961
 H193 H 0.07001 0.32517 0.08068
 H194 H 0.15326 0.29135 0.11239
 H195 H 0.15106 0.21488 0.15762
 H196 H 0.06588 0.17059 0.17007
 H197 H -0.11877 0.27642 0.08392
 H198 H -0.12158 0.19322 0.11890
 C199 C 0.32635 0.05336 0.64969
 C200 C 0.32990 0.01385 0.61803
 C201 C 0.28892 -0.02760 0.60884
 C202 C 0.24467 -0.03045 0.63028
 C203 C 0.24013 0.00795 0.66170
 C204 C 0.28069 0.05080 0.67130
 C205 C 0.36753 0.09498 0.66083
 C206 C 0.36290 0.13416 0.69137
 C207 C 0.31744 0.13267 0.71140
 C208 C 0.27662 0.09151 0.70157
 H209 H 0.40370 0.09754 0.64629
 H210 H 0.39468 0.16596 0.69944
 H211 H 0.31387 0.16348 0.73480
 H212 H 0.24186 0.09217 0.71769
 H213 H 0.29118 -0.05799 0.58469
 H214 H 0.21393 -0.06333 0.62265
 C215 C -0.23298 0.00623 0.58358
 C216 C -0.27706 0.00368 0.60661
 C217 C -0.26778 -0.00128 0.65041
 C218 C -0.21603 -0.00458 0.67157
 C219 C -0.17180 -0.00297 0.64966
 C220 C -0.17997 0.00203 0.60520
 C221 C -0.24029 0.01346 0.53961
 C222 C -0.19682 0.01435 0.51722
 C223 C -0.14541 0.00824 0.53806
 C224 C -0.13686 0.00211 0.58160
 H225 H -0.27941 0.01882 0.52218
 H226 H -0.20309 0.01963 0.48349
 H227 H -0.11192 0.00846 0.52041
 H228 H -0.09633 -0.00286 0.59641
 H229 H -0.30110 -0.00320 0.66835
 H230 H -0.21037 -0.00828 0.70553
 C231 C 0.07174 -0.31255 0.85984
 C232 C 0.03623 -0.31788 0.89038
 C233 C 0.00904 -0.27464 0.90076
 C234 C 0.01606 -0.22693 0.88152
 C235 C 0.05144 -0.22020 0.85182
 C236 C 0.08112 -0.26272 0.84182
 C237 C 0.09746 -0.35579 0.84614
 C238 C 0.13459 -0.34919 0.81807
 C239 C 0.14673 -0.29967 0.80300
 C240 C 0.12040 -0.25675 0.81467
 H241 H 0.08888 -0.39515 0.85655
 H242 H 0.15436 -0.38261 0.80821
 H243 H 0.17636 -0.29456 0.78185
 H244 H 0.13155 -0.21891 0.80254
 H245 H -0.01804 -0.27783 0.92406
 H246 H -0.00705 -0.19507 0.88954
 C247 C 0.03764 0.24335 0.93426
 C248 C 0.04448 0.28935 0.91101
 C249 C 0.05783 0.28457 0.87021
 C250 C 0.06356 0.23546 0.85186
 C251 C 0.05669 0.18927 0.87377
 C252 C 0.04523 0.19308 0.91587
 C253 C 0.02218 0.24584 0.97494
 C254 C 0.01729 0.20052 0.99780
 C255 C 0.02760 0.15201 0.98076
 C256 C 0.04145 0.14812 0.94023
 H257 H 0.01333 0.28249 0.98939
 H258 H 0.00563 0.20302 1.02897
 H259 H 0.02448 0.11713 0.99894
 H260 H 0.04954 0.10973 0.92838
 H261 H 0.06316 0.31929 0.85209
 H262 H 0.07210 0.23340 0.81966
 C263 C -0.30564 0.06591 0.36192
 C264 C -0.31729 0.02596 0.38984
 C265 C -0.28369 -0.01489 0.39634
 C266 C -0.23959 -0.01740 0.37503
 C267 C -0.22791 0.02076 0.34647
 C268 C -0.26015 0.06366 0.34047
 C269 C -0.33875 0.10755 0.35420
 C270 C -0.32627 0.14698 0.32714
 C271 C -0.28086 0.14570 0.30725
 C272 C -0.24799 0.10456 0.31375
 H273 H -0.37454 0.11001 0.36883
 H274 H -0.35187 0.17880 0.32168
 H275 H -0.27113 0.17669 0.28657
 H276 H -0.21287 0.10537 0.29794
 H277 H -0.29209 -0.04547 0.41778
 H278 H -0.21518 -0.05026 0.37999
 C279 C 0.27961 0.00884 0.33423
 C280 C 0.28759 0.01193 0.37911
 C281 C 0.24314 0.01432 0.40047
 C282 C 0.19127 0.01367 0.37827
 C283 C 0.18221 0.01051 0.33399
 C284 C 0.22659 0.00909 0.31150
 C285 C 0.32302 0.00459 0.31137
 C286 C 0.31472 0.00291 0.26728
 C287 C 0.26326 0.00529 0.24513
 C288 C 0.21951 0.00837 0.26686
 H289 H 0.36362 0.00218 0.32722
 H290 H 0.34843 -0.00007 0.25021
 H291 H 0.25716 0.00453 0.21091
 H292 H 0.18031 0.01054 0.24837
 H293 H 0.24873 0.01676 0.43474
 H294 H 0.15771 0.01473 0.39580
   
