data_POSCAR
  _audit_creation_date              2014-09-24
  _audit_creation_method            'ToBaCCo'
  _symmetry_space_group_name_H-M    'P1'
  _symmetry_Int_Tables_number       1
  _symmetry_cell_setting            triclinic
  loop_
  _symmetry_equiv_pos_as_xyz
 x,y,z
_cell_length_a 31.7431
_cell_length_b 32.1733
_cell_length_c 32.0497
_cell_angle_alpha 90.421200
_cell_angle_beta 90.255800
_cell_angle_gamma 90.089600
loop_
  _atom_site_label
  _atom_site_type_symbol
  _atom_site_fract_x
  _atom_site_fract_y
  _atom_site_fract_z
C1 C 0.16558 1.22595 0.22579
 C2 C 0.14933 1.26237 0.20809
 C3 C 0.16591 1.27877 0.17069
 C4 C 0.20144 1.25875 0.15315
 C5 C 0.21849 1.22282 0.17103
 C6 C 0.19998 1.20592 0.20702
 C7 C 0.14718 1.20890 0.26159
 C8 C 0.16132 1.17073 0.27837
 C9 C 0.19609 1.15122 0.25882
 C10 C 0.21549 1.16861 0.22381
 C11 C 0.24953 1.14848 0.20461
 C12 C 0.26849 1.16539 0.16904
 C13 C 0.25291 1.20265 0.15250
 H14 H 0.12382 1.27787 0.22413
 H15 H 0.21474 1.26912 0.12402
 H16 H 0.12211 1.22623 0.27633
 H17 H 0.20726 1.12123 0.26899
 H18 H 0.26151 1.11970 0.21743
 H19 H 0.26695 1.21531 0.12454
 C20 C 0.83518 0.77476 0.21791
 C21 C 0.85313 0.73971 0.19862
 C22 C 0.83655 0.72310 0.16090
 C23 C 0.80020 0.74222 0.14400
 C24 C 0.78232 0.77749 0.16275
 C25 C 0.79991 0.79388 0.19979
 C26 C 0.85302 0.79160 0.25448
 C27 C 0.83722 0.82853 0.27297
 C28 C 0.80132 0.84693 0.25426
 C29 C 0.78263 0.82984 0.21828
 C30 C 0.74774 0.84914 0.19959
 C31 C 0.73035 0.83321 0.16241
 C32 C 0.74758 0.79719 0.14436
 H33 H 0.88171 0.72737 0.21215
 H34 H 0.78480 0.72957 0.11655
 H35 H 0.87887 0.77489 0.26854
 H36 H 0.78872 0.87596 0.26583
 H37 H 0.73485 0.87728 0.21324
 H38 H 0.73413 0.78480 0.11569
 C39 C 0.83157 1.21877 -0.22290
 C40 C 0.85184 1.25360 -0.20525
 C41 C 0.83775 1.27113 -0.16740
 C42 C 0.80268 1.25334 -0.14753
 C43 C 0.78170 1.21906 -0.16517
 C44 C 0.79610 1.20179 -0.20308
 C45 C 0.84719 1.19996 -0.25934
 C46 C 0.82784 1.16410 -0.27692
 C47 C 0.79086 1.14904 -0.25756
 C48 C 0.77544 1.16706 -0.22072
 C49 C 0.74032 1.15001 -0.20055
 C50 C 0.72643 1.16648 -0.16231
 C51 C 0.74714 1.20117 -0.14493
 H52 H 0.87858 1.26706 -0.22114
 H53 H 0.79214 1.26552 -0.11776
 H54 H 0.87611 1.21226 -0.27199
 H55 H 0.77326 1.12342 -0.27101
 H56 H 0.72481 1.12283 -0.21369
 H57 H 0.73634 1.21413 -0.11555
 C58 C 0.17031 0.77661 -0.22592
 C59 C 0.15493 0.73881 -0.21050
 C60 C 0.16951 0.72233 -0.17213
 C61 C 0.20281 0.74378 -0.15157
 C62 C 0.21947 0.78080 -0.16747
 C63 C 0.20243 0.79785 -0.20417
 C64 C 0.15317 0.79401 -0.26230
 C65 C 0.16643 0.83333 -0.27630
 C66 C 0.19875 0.85414 -0.25429
 C67 C 0.21709 0.83650 -0.21874
 C68 C 0.24930 0.85737 -0.19702
 C69 C 0.26725 0.83999 -0.16104
 C70 C 0.25211 0.80178 -0.14636
 H71 H 0.13158 0.72261 -0.22911
 H72 H 0.21476 0.73366 -0.12175
 H73 H 0.12891 0.77716 -0.27927
 H74 H 0.20892 0.88472 -0.26397
 H75 H 0.26081 0.88694 -0.20835
 H76 H 0.26529 0.78882 -0.11803
 C77 C 0.55682 1.06686 -0.00846
 H78 H 0.55206 1.07245 0.02451
 C79 C 0.58612 1.09054 -0.03026
 H80 H 0.60300 1.11499 -0.01388
 C81 C 0.54063 1.02776 -0.06938
 H82 H 0.52379 1.00234 -0.08411
 C83 C 0.57007 1.05035 -0.09230
 H84 H 0.57540 1.04200 -0.12462
 N85 N 0.53457 1.03639 -0.02824
 C86 C 0.44338 1.01595 0.07044
 H87 H 0.44929 0.98338 0.07623
 C88 C 0.41350 1.03723 0.09411
 H89 H 0.39743 1.02095 0.11884
 C90 C 0.45685 1.07615 0.03050
 H91 H 0.47273 1.09071 0.00466
 C92 C 0.42677 1.09851 0.05306
 H93 H 0.42008 1.13026 0.04431
 Zn94 Zn 0.49941 1.00282 0.00498
 N95 N 0.46450 1.03562 0.03952
 C96 C 0.54398 0.97741 0.07768
 N97 N 0.53572 0.96890 0.03683
 C98 C 0.55649 0.93821 0.01614
 C99 C 0.58641 0.91408 0.03672
 C100 C 0.57420 0.95441 0.09936
 C101 C 0.44025 0.99027 -0.05839
 C102 C 0.40969 0.96907 -0.08163
 C103 C 0.42452 0.90739 -0.04165
 C104 C 0.45523 0.92969 -0.01951
 N105 N 0.46255 0.97034 -0.02831
 H106 H 0.52829 1.00301 0.09310
 H107 H 0.55001 0.93273 -0.01661
 H108 H 0.60195 0.88938 0.01965
 H109 H 0.58127 0.96264 0.13144
 H110 H 0.44595 1.02291 -0.06401
 H111 H 0.39287 0.98550 -0.10586
 H112 H 0.41831 0.87546 -0.03321
 H113 H 0.47206 0.91490 0.00571
 C114 C 0.40427 1.07894 0.08513
 C115 C 0.59359 1.08207 -0.07268
 C116 C 0.40104 0.92713 -0.07308
 C117 C 0.59615 0.92236 0.07880
 C118 C -0.00869 0.56121 1.05624
 H119 H 0.02518 0.55959 1.05969
 C120 C -0.03163 0.58992 1.07975
 H121 H -0.01525 0.61044 1.10133
 C122 C -0.07102 0.53756 1.02261
 H123 H -0.08614 0.51777 0.99966
 C124 C -0.09509 0.56635 1.04497
 H125 H -0.12875 0.56799 1.03958
 N126 N -0.02863 0.53537 1.02876
 C127 C 0.06487 0.43707 1.01229
 H128 H 0.06742 0.43647 0.97864
 C129 C 0.08817 0.40910 1.03615
 H130 H 0.10878 0.38711 1.02070
 C131 C 0.03297 0.46473 1.07314
 H132 H 0.01060 0.48561 1.08741
 C133 C 0.05521 0.43690 1.09813
 H134 H 0.05039 0.43723 1.13156
 Zn135 Zn 0.00530 0.49918 0.99629
 N136 N 0.03833 0.46453 1.03102
 C137 C 0.08161 0.52972 0.95909
 N138 N 0.03905 0.53337 0.96202
 C139 C 0.01799 0.56370 0.94139
 C140 C 0.03973 0.59235 0.91713
 C141 C 0.10456 0.55708 0.93418
 C142 C -0.05680 0.43894 0.98258
 C143 C -0.08048 0.40990 0.95996
 C144 C -0.04419 0.43093 0.89740
 C145 C -0.02181 0.46026 0.92109
 N146 N -0.02838 0.46356 0.96291
 H147 H 0.09800 0.50585 0.97615
 H148 H -0.01582 0.56623 0.94466
 H149 H 0.02209 0.61717 0.90271
 H150 H 0.13826 0.55287 0.93171
 H151 H -0.06067 0.44160 1.01601
 H152 H -0.10275 0.39024 0.97607
 H153 H -0.03828 0.42806 0.86425
 H154 H 0.00161 0.47954 0.90628
 C155 C 0.08319 0.40862 1.07962
 C156 C -0.07534 0.59289 1.07400
 C157 C -0.07389 0.40537 0.91694
 C158 C 0.08375 0.58940 0.91307
 C159 C 1.05784 -0.01244 0.56447
 H160 H 1.05707 0.02111 0.56669
 C161 C 1.08212 -0.03516 0.59266
 H162 H 1.10040 -0.01899 0.61635
 C163 C 1.03313 -0.07459 0.53247
 H164 H 1.01346 -0.08985 0.50939
 C165 C 1.05616 -0.09851 0.56069
 H166 H 1.05441 -0.13211 0.55899
 N167 N 1.03421 -0.03235 0.53494
 C168 C 1.00858 0.05227 0.43255
 H169 H 0.97558 0.04515 0.42777
 C170 C 1.02986 0.07676 0.40371
 H171 H 1.01283 0.08776 0.37665
 C172 C 1.07104 0.04366 0.47216
 H173 H 1.08732 0.03004 0.49830
 C174 C 1.09338 0.06875 0.44455
 H175 H 1.12636 0.07486 0.45072
 Zn176 Zn 0.99826 -0.00063 0.50022
 N177 N 1.02934 0.03600 0.46581
 C178 C 0.95027 0.06953 0.52638
 N179 N 0.96132 0.02970 0.53511
 C180 C 0.94812 0.01089 0.57056
 C181 C 0.92361 0.03253 0.59943
 C182 C 0.92520 0.09217 0.55413
 C183 C 0.98805 -0.05184 0.43070
 C184 C 0.96682 -0.07619 0.40124
 C185 C 0.90385 -0.07051 0.44295
 C186 C 0.92617 -0.04548 0.47128
 N187 N 0.96746 -0.03660 0.46456
 H188 H 0.96117 0.08398 0.49809
 H189 H 0.95760 -0.02073 0.57692
 H190 H 0.91504 0.01728 0.62816
 H191 H 0.91648 0.12369 0.54633
 H192 H 1.02085 -0.04406 0.42605
 H193 H 0.98365 -0.08626 0.37369
 H194 H 0.87117 -0.07764 0.44923
 H195 H 0.91049 -0.03306 0.49851
 C196 C 1.07300 0.08526 0.40931
 C197 C 1.08092 -0.07870 0.59121
 C198 C 0.92400 -0.08585 0.40694
 C199 C 0.91194 0.07392 0.59161
 C200 C 0.16854 0.33787 1.12145
 C201 C 0.14633 0.31303 1.15030
 C202 C 0.10326 0.32240 1.15679
 C203 C 0.08329 0.35407 1.13470
 C204 C 0.10538 0.37725 1.10514
 C205 C 0.14825 0.36916 1.09902
 H206 H 0.20196 0.33417 1.11641
 H207 H 0.08365 0.30396 1.17700
 H208 H 0.04996 0.35930 1.13954
 H209 H 0.16619 0.38727 1.07693
 C210 C -0.11614 0.66172 1.16123
 C211 C -0.14334 0.68928 1.13987
 C212 C -0.14877 0.68273 1.09640
 C213 C -0.12756 0.65088 1.07545
 C214 C -0.09980 0.62479 1.09689
 C215 C -0.09447 0.63032 1.13997
 H216 H -0.11197 0.66324 1.19468
 H217 H -0.16751 0.70333 1.07744
 H218 H -0.13167 0.64762 1.04201
 H219 H -0.07371 0.61001 1.15732
 C220 C -0.09565 0.31092 0.84918
 C221 C -0.13974 0.30711 0.85216
 C222 C -0.16201 0.33732 0.87517
 C223 C -0.14066 0.36951 0.89581
 C224 C -0.09670 0.37280 0.89313
 C225 C -0.07444 0.34364 0.86914
 H226 H -0.07726 0.28796 0.83248
 H227 H -0.19600 0.33610 0.87740
 H228 H -0.15846 0.39194 0.91388
 H229 H -0.04043 0.34536 0.86706
 C230 C 0.16984 0.66417 0.87865
 C231 C 0.15003 0.68670 0.84624
 C232 C 0.10911 0.67357 0.83419
 C233 C 0.08867 0.64106 0.85452
 C234 C 0.10759 0.62088 0.88846
 C235 C 0.14879 0.63246 0.89971
 H236 H 0.20192 0.67023 0.88822
 H237 H 0.09104 0.68933 0.81053
 H238 H 0.05746 0.63239 0.84388
 H239 H 0.16476 0.61785 0.92562
 C240 C 1.16058 0.12129 0.33743
 C241 C 1.14041 0.15174 0.31276
 C242 C 1.09816 0.16154 0.32275
 C243 C 1.07698 0.14108 0.35475
 C244 C 1.09676 0.10954 0.37764
 C245 C 1.13902 0.10033 0.36884
 H246 H 1.19342 0.11358 0.33346
 H247 H 1.07997 0.18347 0.30483
 H248 H 1.04469 0.14974 0.36108
 H249 H 1.15550 0.07615 0.38556
 C250 C 1.16758 -0.11938 0.66118
 C251 C 1.14520 -0.14633 0.68758
 C252 C 1.10175 -0.15206 0.68038
 C253 C 1.08125 -0.13106 0.64816
 C254 C 1.10347 -0.10320 0.62301
 C255 C 1.14679 -0.09764 0.62959
 H256 H 1.20116 -0.11482 0.66500
 H257 H 1.08313 -0.17171 0.70044
 H258 H 1.04767 -0.13542 0.64381
 H259 H 1.16452 -0.07647 0.61024
 C260 C 0.83670 -0.12338 0.33402
 C261 C 0.85767 -0.15255 0.30818
 C262 C 0.90032 -0.16115 0.31789
 C263 C 0.92105 -0.14081 0.35070
 C264 C 0.90049 -0.11039 0.37469
 C265 C 0.85784 -0.10242 0.36626
 H266 H 0.80359 -0.11663 0.33028
 H267 H 0.91919 -0.18197 0.29920
 H268 H 0.95365 -0.14863 0.35673
 H269 H 0.84076 -0.07919 0.38392
 C270 C 0.83765 0.10016 0.68060
 C271 C 0.84608 0.14277 0.68831
 C272 C 0.87467 0.16271 0.66120
 C273 C 0.89527 0.14070 0.62954
 C274 C 0.88761 0.09813 0.62317
 C275 C 0.85779 0.07847 0.64852
 H276 H 0.81729 0.08218 0.70047
 H277 H 0.88117 0.19561 0.66354
 H278 H 0.91806 0.15705 0.61072
 H279 H 0.85038 0.04587 0.64410
 C280 C 0.34011 1.16490 0.13637
 C281 C 0.30368 1.14335 0.14836
 C282 C 0.30071 1.10058 0.14001
 C283 C 0.33335 1.07977 0.11966
 C284 C 0.37001 1.10115 0.10764
 C285 C 0.37305 1.14398 0.11644
 H286 H 0.34326 1.19785 0.14285
 H287 H 0.27266 1.08341 0.14839
 H288 H 0.32937 1.04706 0.11255
 H289 H 0.40102 1.16132 0.10822
 C290 C 0.65435 1.13439 -0.15996
 C291 C 0.69172 1.14612 -0.13940
 C292 C 0.69637 1.13729 -0.09682
 C293 C 0.66452 1.11671 -0.07527
 C294 C 0.62698 1.10488 -0.09567
 C295 C 0.62220 1.11420 -0.13827
 H296 H 0.64992 1.14117 -0.19274
 H297 H 0.72518 1.14537 -0.08042
 H298 H 0.66984 1.10921 -0.04281
 H299 H 0.59351 1.10613 -0.15484
 C300 C 0.29764 0.90458 -0.12904
 C301 C 0.30145 0.86211 -0.13847
 C302 C 0.33812 0.84098 -0.12635
 C303 C 0.37060 0.86206 -0.10548
 C304 C 0.36684 0.90464 -0.09583
 C305 C 0.32981 0.92555 -0.10773
 H306 H 0.26939 0.92141 -0.13758
 H307 H 0.34193 0.80829 -0.13368
 H308 H 0.39886 0.84509 -0.09740
 H309 H 0.32530 0.95804 -0.09999
 C310 C 0.65988 0.86842 0.16347
 C311 C 0.69552 0.85533 0.14122
 C312 C 0.69824 0.86412 0.09852
 C313 C 0.66611 0.88587 0.07843
 C314 C 0.63012 0.89885 0.10043
 C315 C 0.62736 0.88972 0.14324
 H316 H 0.65699 0.86172 0.19641
 H317 H 0.72576 0.85495 0.08085
 H318 H 0.66996 0.89320 0.04576
 H319 H 0.59991 0.89866 0.16106
   
