data_POSCAR
  _audit_creation_date              2014-09-24
  _audit_creation_method            'ToBaCCo'
  _symmetry_space_group_name_H-M    'P1'
  _symmetry_Int_Tables_number       1
  _symmetry_cell_setting            triclinic
  loop_
  _symmetry_equiv_pos_as_xyz
 x,y,z
_cell_length_a 48.2171
_cell_length_b 48.4463
_cell_length_c 48.3104
_cell_angle_alpha 89.993200
_cell_angle_beta 89.956300
_cell_angle_gamma 89.966600
loop_
  _atom_site_label
  _atom_site_type_symbol
  _atom_site_fract_x
  _atom_site_fract_y
  _atom_site_fract_z
N1 N 0.14216 0.16172 0.21917
 N2 N 0.16161 0.14262 0.21893
 C3 C 0.15745 0.12525 0.24036
 C4 C 0.13427 0.13409 0.25454
 C5 C 0.12501 0.15720 0.24071
 H6 H 0.17021 0.10754 0.24526
 H7 H 0.10720 0.16976 0.24592
 Cu8 Cu 0.19018 0.14253 0.19039
 Cu9 Cu 0.14041 0.19101 0.19153
 Cu10 Cu 0.19135 0.19082 0.14065
 N11 N 0.21876 0.14241 0.16184
 N12 N 0.21903 0.16143 0.14238
 C13 C 0.24059 0.15678 0.12524
 C14 C 0.25442 0.13365 0.13453
 C15 C 0.24018 0.12495 0.15772
 H16 H 0.24582 0.16927 0.10743
 H17 H 0.24505 0.10727 0.17051
 N18 N 0.16160 0.21881 0.14241
 N19 N 0.14222 0.21887 0.16178
 C20 C 0.12505 0.24040 0.15741
 C21 C 0.13411 0.25438 0.13429
 C22 C 0.15723 0.24031 0.12523
 H23 H 0.10728 0.24559 0.17005
 H24 H 0.16987 0.24542 0.10745
 H25 H 0.15985 0.16937 0.16028
 H26 H 0.18218 0.19162 0.18248
 N27 N -0.14227 0.83844 0.21900
 N28 N -0.16164 0.85759 0.21873
 C29 C -0.15752 0.87490 0.24019
 C30 C -0.13441 0.86599 0.25441
 C31 C -0.12518 0.84289 0.24057
 H32 H -0.17029 0.89257 0.24516
 H33 H -0.10741 0.83030 0.24579
 Cu34 Cu -0.19024 0.85765 0.19031
 Cu35 Cu -0.14056 0.80911 0.19146
 Cu36 Cu -0.19158 0.80919 0.14075
 N37 N -0.21886 0.85770 0.16188
 N38 N -0.21923 0.83858 0.14253
 C39 C -0.24091 0.84311 0.12555
 C40 C -0.25471 0.86625 0.13486
 C41 C -0.24035 0.87508 0.15789
 H42 H -0.24622 0.83055 0.10782
 H43 H -0.24522 0.89275 0.17070
 N44 N -0.16183 0.78125 0.14248
 N45 N -0.14242 0.78124 0.16179
 C46 C -0.12523 0.75974 0.15743
 C47 C -0.13432 0.74572 0.13438
 C48 C -0.15746 0.75973 0.12533
 H49 H -0.10744 0.75459 0.17003
 H50 H -0.17012 0.75457 0.10761
 H51 H -0.16006 0.83062 0.16021
 H52 H -0.18242 0.80852 0.18260
 N53 N -0.14268 0.16157 -0.21886
 N54 N -0.16206 0.14245 -0.21858
 C55 C -0.15786 0.12507 -0.23997
 C56 C -0.13473 0.13392 -0.25421
 C57 C -0.12554 0.15705 -0.24041
 H58 H -0.17057 0.10735 -0.24486
 H59 H -0.10776 0.16961 -0.24565
 Cu60 Cu -0.19061 0.14233 -0.19006
 Cu61 Cu -0.14101 0.19090 -0.19129
 Cu62 Cu -0.19193 0.19066 -0.14040
 N63 N -0.21916 0.14217 -0.16152
 N64 N -0.21950 0.16121 -0.14209
 C65 C -0.24105 0.15652 -0.12495
 C66 C -0.25478 0.13336 -0.13423
 C67 C -0.24051 0.12466 -0.15739
 H68 H -0.24631 0.16900 -0.10714
 H69 H -0.24532 0.10698 -0.17019
 N70 N -0.16230 0.21871 -0.14222
 N71 N -0.14292 0.21879 -0.16159
 C72 C -0.12583 0.24037 -0.15727
 C73 C -0.13494 0.25435 -0.13417
 C74 C -0.15801 0.24024 -0.12508
 H75 H -0.10808 0.24558 -0.16992
 H76 H -0.17066 0.24535 -0.10731
 H77 H -0.16036 0.16925 -0.16000
 H78 H -0.18278 0.19143 -0.18223
 N79 N 0.14280 0.83863 -0.21886
 N80 N 0.16221 0.85771 -0.21842
 C81 C 0.15827 0.87507 -0.23988
 C82 C 0.13519 0.86633 -0.25424
 C83 C 0.12582 0.84324 -0.24049
 H84 H 0.17114 0.89268 -0.24475
 H85 H 0.10801 0.83078 -0.24583
 Cu86 Cu 0.19090 0.85758 -0.19004
 Cu87 Cu 0.14089 0.80927 -0.19137
 Cu88 Cu 0.19159 0.80908 -0.14038
 N89 N 0.21913 0.85751 -0.16119
 N90 N 0.21934 0.83834 -0.14187
 C91 C 0.24091 0.84281 -0.12473
 C92 C 0.25483 0.86591 -0.13391
 C93 C 0.24065 0.87479 -0.15704
 H94 H 0.24606 0.83024 -0.10695
 H95 H 0.24566 0.89243 -0.16982
 N96 N 0.16178 0.78122 -0.14231
 N97 N 0.14249 0.78131 -0.16173
 C98 C 0.12522 0.75986 -0.15749
 C99 C 0.13413 0.74578 -0.13439
 C100 C 0.15727 0.75969 -0.12521
 H101 H 0.10748 0.75480 -0.17020
 H102 H 0.16981 0.75447 -0.10742
 H103 H 0.16030 0.83074 -0.16007
 H104 H 0.18263 0.80847 -0.18225
 N105 N 0.16176 1.14254 0.78138
 N106 N 0.14230 1.16160 0.78190
 C107 C 0.12498 1.15758 0.76038
 C108 C 0.13419 1.13483 0.74588
 C109 C 0.15748 1.12574 0.75961
 H110 H 0.10711 1.17018 0.75555
 H111 H 0.17035 1.10826 0.75416
 Cu112 Cu 0.14222 1.18978 0.81061
 Cu113 Cu 0.19123 1.14079 0.80889
 Cu114 Cu 0.19115 1.19152 0.85975
 N115 N 0.14221 1.21843 0.83886
 N116 N 0.16163 1.21897 0.85798
 C117 C 0.15730 1.24069 0.87481
 C118 C 0.13400 1.25439 0.86567
 C119 C 0.12485 1.23990 0.84287
 H120 H 0.17013 1.24615 0.89232
 H121 H 0.10700 1.24470 0.83021
 N122 N 0.21914 1.16192 0.85792
 N123 N 0.21916 1.14263 0.83857
 C124 C 0.24066 1.12542 0.84302
 C125 C 0.25460 1.13441 0.86614
 C126 C 0.24062 1.15748 0.87517
 H127 H 0.24580 1.10766 0.83046
 H128 H 0.24573 1.17000 0.89297
 H129 H 0.16987 1.16003 0.84045
 H130 H 0.19168 1.18250 0.81791
 N131 N 0.83873 0.85756 0.78081
 N132 N 0.85786 0.83818 0.78097
 C133 C 0.87526 0.84229 0.75952
 C134 C 0.86643 0.86540 0.74540
 C135 C 0.84328 0.87465 0.75931
 H136 H 0.89300 0.82956 0.75454
 H137 H 0.83073 0.89243 0.75416
 Cu138 Cu 0.85813 0.80981 0.80948
 Cu139 Cu 0.80939 0.85931 0.80845
 Cu140 Cu 0.80931 0.80856 0.85914
 N141 N 0.85778 0.78126 0.83779
 N142 N 0.83864 0.78101 0.85722
 C143 C 0.84315 0.75948 0.87424
 C144 C 0.86628 0.74565 0.86490
 C145 C 0.87514 0.75983 0.84181
 H146 H 0.83058 0.75426 0.89204
 H147 H 0.89289 0.75491 0.82904
 N148 N 0.78144 0.83822 0.85746
 N149 N 0.78146 0.85755 0.83816
 C150 C 0.75990 0.87469 0.84256
 C151 C 0.74586 0.86561 0.86563
 C152 C 0.75986 0.84255 0.87465
 H153 H 0.75474 0.89242 0.82998
 H154 H 0.75465 0.82993 0.89237
 H155 H 0.83109 0.83976 0.83983
 H156 H 0.80881 0.81755 0.81744
 N157 N 0.16121 0.85685 1.21848
 N158 N 0.14210 0.83748 1.21830
 C159 C 0.12462 0.84162 1.23969
 C160 C 0.13347 0.86466 1.25388
 C161 C 0.15666 0.87388 1.24003
 H162 H 0.10685 0.82893 1.24462
 H163 H 0.16926 0.89157 1.24527
 Cu164 Cu 0.14169 0.80919 1.18975
 Cu165 Cu 0.19053 0.85855 1.19086
 Cu166 Cu 0.19052 0.80784 1.14010
 N167 N 0.14208 0.78065 1.16146
 N168 N 0.16117 0.78038 1.14199
 C169 C 0.15660 0.75884 1.12500
 C170 C 0.13342 0.74511 1.13435
 C171 C 0.12459 0.75935 1.15742
 H172 H 0.16918 0.75353 1.10724
 H173 H 0.10683 0.75450 1.17020
 N174 N 0.21845 0.83743 1.14183
 N175 N 0.21845 0.85673 1.16115
 C176 C 0.23999 0.87388 1.15672
 C177 C 0.25398 0.86483 1.13362
 C178 C 0.23999 0.84179 1.12460
 H179 H 0.24515 0.89160 1.16930
 H180 H 0.24516 0.82921 1.10684
 H181 H 0.16895 0.83905 1.15952
 H182 H 0.19113 0.81680 1.18184
 N183 N 0.83887 1.14309 1.21860
 N184 N 0.85798 1.16247 1.21820
 C185 C 0.87544 1.15855 1.23963
 C186 C 0.86668 1.13554 1.25395
 C187 C 0.84351 1.12617 1.24021
 H188 H 0.89309 1.17141 1.24451
 H189 H 0.83102 1.10842 1.24552
 Cu190 Cu 0.85774 1.19087 1.18976
 Cu191 Cu 0.80938 1.14119 1.19113
 Cu192 Cu 0.80895 1.19183 1.14025
 N193 N 0.85750 1.21918 1.16125
 N194 N 0.83825 1.21941 1.14196
 C195 C 0.84259 1.24098 1.12495
 C196 C 0.86571 1.25485 1.13417
 C197 C 0.87476 1.24067 1.15717
 H198 H 0.82992 1.24618 1.10723
 H199 H 0.89248 1.24570 1.16992
 N200 N 0.78118 1.16209 1.14216
 N201 N 0.78134 1.14281 1.16152
 C202 C 0.75987 1.12555 1.15721
 C203 C 0.74575 1.13450 1.13415
 C204 C 0.75961 1.15760 1.12504
 H205 H 0.75484 1.10782 1.16984
 H206 H 0.75433 1.17013 1.10728
 H207 H 0.83077 1.16077 1.15962
 H208 H 0.80844 1.18295 1.18201
 O209 O 0.46082 1.04956 1.04929
 O210 O 0.43060 1.02371 1.02333
 C211 C 0.43603 1.04239 1.04167
 O212 O 0.53926 1.04771 0.94975
 O213 O 0.56950 1.02239 0.97632
 C214 C 0.56405 1.04033 0.95722
 O215 O 0.46110 1.04996 0.95199
 O216 O 0.43074 1.02350 0.97730
 C217 C 0.43632 1.04249 0.95933
 O218 O 0.53888 1.04722 1.05146
 O219 O 0.56928 1.02312 1.02391
 C220 C 0.56369 1.04049 1.04347
 Zr221 Zr 0.49997 1.03493 1.03513
 O222 O 0.50278 1.07847 1.03195
 O223 O 0.49872 1.03875 1.07869
 Zr224 Zr 0.50012 1.03454 0.96522
 O225 O 0.50303 1.07814 0.96513
 O226 O 0.49724 1.03410 0.92150
 O227 O 0.47523 1.04008 1.00017
 O228 O 0.52419 1.03969 1.00021
 O229 O 0.53912 0.95153 1.05097
 O230 O 0.56941 0.97694 1.02459
 C231 C 0.56392 0.95894 1.04360
 O232 O 0.46102 0.94924 0.95208
 O233 O 0.43072 0.97566 0.97746
 C234 C 0.43620 0.95666 0.95944
 O235 O 0.53912 0.95148 0.95004
 O236 O 0.56943 0.97662 0.97669
 C237 C 0.56389 0.95874 0.95759
 O238 O 0.46100 0.94954 1.04883
 O239 O 0.43068 0.97595 1.02344
 C240 C 0.43622 0.95697 1.04143
 Zr241 Zr 0.50004 0.96488 1.03554
 O242 O 0.50291 0.92127 1.03543
 O243 O 0.49732 0.96503 1.07929
 Zr244 Zr 0.50005 0.96472 0.96543
 O245 O 0.50298 0.92112 0.96577
 O246 O 0.49719 0.96476 0.92170
 Zr247 Zr 0.45883 0.99972 1.00040
 Zr248 Zr 0.54123 0.99967 1.00044
 O249 O 0.52409 0.95973 1.00051
 O250 O 0.47533 0.95941 1.00051
 O251 O 0.52461 0.99991 1.04087
 O252 O 0.47601 0.99963 0.96032
 O253 O 0.47601 0.99989 1.04045
 O254 O 0.52484 0.99958 0.95997
 H255 H 0.53682 1.05581 1.00015
 H256 H 0.46350 0.99957 0.94405
 H257 H 0.53662 0.94352 1.00057
 H258 H 0.46347 0.99983 1.05671
 H259 H 0.51305 1.02317 0.91439
 H260 H 0.51278 0.97592 0.91452
 H261 H 0.48728 0.91402 0.97687
 H262 H 0.48727 0.91414 1.02429
 H263 H 0.51330 0.97569 1.08641
 H264 H 0.49704 1.01989 1.08623
 H265 H 0.48492 1.08539 1.02464
 H266 H 0.48768 1.08531 0.97667
 O267 O -0.05055 0.46123 0.04861
 O268 O -0.02446 0.43110 0.02272
 C269 C -0.04326 0.43658 0.04101
 O270 O -0.04863 0.53898 -0.05095
 O271 O -0.02378 0.56909 -0.02389
 C272 C -0.04148 0.56364 -0.04323
 O273 O -0.05086 0.46115 -0.04869
 O274 O -0.02433 0.43101 -0.02323
 C275 C -0.04338 0.43647 -0.04128
 O276 O -0.04813 0.53892 0.05084
 O277 O -0.02349 0.56910 0.02361
 C278 C -0.04110 0.56361 0.04306
 Zr279 Zr -0.03590 0.50010 0.03447
 O280 O -0.07964 0.50292 0.03128
 O281 O -0.03987 0.49904 0.07803
 Zr282 Zr -0.03542 0.50008 -0.03547
 O283 O -0.07923 0.50298 -0.03552
 O284 O -0.03502 0.49714 -0.07919
 O285 O -0.04100 0.47540 -0.00048
 O286 O -0.04068 0.52411 -0.00049
 O287 O 0.04767 0.53892 0.05034
 O288 O 0.02229 0.56904 0.02377
 C289 C 0.04026 0.56357 0.04285
 O290 O 0.05031 0.46116 -0.04839
 O291 O 0.02332 0.43102 -0.02343
 C292 C 0.04262 0.43648 -0.04121
 O293 O 0.04818 0.53902 -0.05050
 O294 O 0.02314 0.56912 -0.02355
 C295 C 0.04100 0.56369 -0.04278
 O296 O 0.04983 0.46115 0.04842
 O297 O 0.02354 0.43102 0.02281
 C298 C 0.04246 0.43647 0.04096
 Zr299 Zr 0.03441 0.50002 0.03498
 O300 O 0.07822 0.50284 0.03501
 O301 O 0.03408 0.49746 0.07874
 Zr302 Zr 0.03480 0.50007 -0.03517
 O303 O 0.07860 0.50295 -0.03490
 O304 O 0.03480 0.49719 -0.07890
 Zr305 Zr -0.00042 0.45907 -0.00022
 Zr306 Zr -0.00048 0.54102 -0.00032
 O307 O 0.03966 0.52392 -0.00007
 O308 O 0.04007 0.47545 -0.00007
 O309 O -0.00076 0.52455 0.04015
 O310 O -0.00028 0.47614 -0.04031
 O311 O -0.00073 0.47616 0.03985
 O312 O -0.00029 0.52471 -0.04077
 H313 H -0.05687 0.53672 -0.00043
 H314 H -0.00025 0.46370 -0.05659
 H315 H 0.05599 0.53633 0.00004
 H316 H -0.00065 0.46370 0.05610
 H317 H -0.02390 0.51275 -0.08631
 H318 H 0.02368 0.51278 -0.08608
 H319 H 0.08572 0.48746 -0.02361
 H320 H 0.08543 0.48730 0.02384
 H321 H 0.02321 0.51332 0.08577
 H322 H -0.02104 0.49654 0.08562
 H323 H -0.08660 0.48513 0.02401
 H324 H -0.08642 0.48771 -0.02398
 O325 O 1.05067 -0.04827 0.53868
 O326 O 1.02461 -0.02244 0.56890
 C327 C 1.04340 -0.04070 0.56342
 O328 O 1.04889 0.05099 0.46058
 O329 O 1.02353 0.02446 0.43041
 C330 C 1.04151 0.04352 0.43584
 O331 O 1.05110 0.04882 0.53862
 O332 O 1.02457 0.02347 0.56889
 C333 C 1.04360 0.04147 0.56337
 O334 O 1.04813 -0.05059 0.46076
 O335 O 1.02355 -0.02343 0.43047
 C336 C 1.04108 -0.04287 0.43600
 Zr337 Zr 1.03603 -0.03413 0.49967
 O338 O 1.07977 -0.03096 0.49675
 O339 O 1.03990 -0.07757 0.50085
 Zr340 Zr 1.03571 0.03552 0.49962
 O341 O 1.07952 0.03525 0.49667
 O342 O 1.03556 0.07913 0.50249
 O343 O 1.04119 0.00069 0.52444
 O344 O 1.04085 0.00065 0.47548
 O345 O 0.95223 -0.04982 0.46081
 O346 O 0.97768 -0.02347 0.43054
 C347 C 0.95965 -0.04244 0.43607
 O348 O 0.94997 0.04866 0.53869
 O349 O 0.97688 0.02373 0.56893
 C350 C 0.95762 0.04150 0.56343
 O351 O 0.95222 0.05082 0.46067
 O352 O 0.97760 0.02430 0.43044
 C353 C 0.95961 0.04335 0.43593
 O354 O 0.95025 -0.04789 0.53871
 O355 O 0.97664 -0.02244 0.56892
 C356 C 0.95769 -0.04052 0.56344
 Zr357 Zr 0.96559 -0.03443 0.49975
 O358 O 0.92176 -0.03401 0.49696
 O359 O 0.96554 -0.07806 0.50233
 Zr360 Zr 0.96547 0.03543 0.49968
 O361 O 0.92167 0.03527 0.49677
 O362 O 0.96559 0.07903 0.50260
 Zr363 Zr 1.00061 0.00052 0.54081
 Zr364 Zr 1.00063 0.00050 0.45860
 O365 O 0.96048 0.00048 0.47571
 O366 O 0.96009 0.00050 0.52443
 O367 O 1.00079 -0.03979 0.47520
 O368 O 1.00058 0.04048 0.52364
 O369 O 1.00079 -0.03941 0.52363
 O370 O 1.00057 0.04084 0.47499
 H371 H 1.05697 0.00059 0.46275
 H372 H 1.00056 0.05672 0.53610
 H373 H 0.94419 0.00047 0.46320
 H374 H 1.00071 -0.05562 0.53612
 H375 H 1.02423 0.08625 0.48699
 H376 H 0.97675 0.08618 0.48697
 H377 H 0.91450 0.02404 0.51231
 H378 H 0.91463 -0.02329 0.51288
 H379 H 0.97663 -0.08515 0.48661
 H380 H 1.02100 -0.08509 0.50304
 H381 H 1.08674 -0.02377 0.51460
 H382 H 1.08666 0.02415 0.51231
 C383 C 1.06238 0.09777 0.34714
 C384 C 1.08773 0.11741 0.34678
 C385 C 1.10022 0.10045 0.32295
 C386 C 1.07506 0.08100 0.32294
 C387 C 1.07777 0.07909 0.36775
 C388 C 1.09024 0.06211 0.34392
 C389 C 1.10292 0.09852 0.36776
 C390 C 1.11560 0.08174 0.34354
 C391 C 1.11271 0.11249 0.29804
 C392 C 1.12289 0.12255 0.27758
 C393 C 1.06512 0.06708 0.39257
 C394 C 1.05449 0.05673 0.41263
 H395 H 1.04035 0.10421 0.34889
 H396 H 1.08680 0.14028 0.34770
 H397 H 1.06375 0.07390 0.30425
 H398 H 1.09114 0.03923 0.34300
 H399 H 1.11424 0.10558 0.38646
 H400 H 1.13761 0.07524 0.34177
 C401 C 0.89948 -0.06477 0.35190
 C402 C 0.91510 -0.07147 0.32467
 C403 C 0.90054 -0.09965 0.32377
 C404 C 0.88473 -0.09314 0.35061
 C405 C 0.92319 -0.07819 0.36834
 C406 C 0.90865 -0.10636 0.36743
 C407 C 0.93901 -0.08467 0.34150
 C408 C 0.92427 -0.11305 0.34021
 C409 C 0.88795 -0.11173 0.29900
 C410 C 0.87767 -0.12180 0.27865
 C411 C 0.93594 -0.06609 0.39301
 C412 C 0.94663 -0.05568 0.41296
 H413 H 0.88943 -0.04478 0.35697
 H414 H 0.91763 -0.05725 0.30683
 H415 H 0.86225 -0.09673 0.35404
 H416 H 0.90614 -0.12056 0.38529
 H417 H 0.96148 -0.08103 0.33805
 H418 H 0.93437 -0.13300 0.33511
 C419 C 0.89911 0.06346 0.64924
 C420 C 0.91545 0.07174 0.67556
 C421 C 0.89965 0.09928 0.67616
 C422 C 0.88313 0.09119 0.65022
 C423 C 0.92152 0.07731 0.63140
 C424 C 0.90575 0.10486 0.63200
 C425 C 0.93806 0.08539 0.65734
 C426 C 0.92208 0.11313 0.65834
 C427 C 0.88739 0.11153 0.70106
 C428 C 0.87729 0.12169 0.72149
 C429 C 0.93379 0.06490 0.60662
 C430 C 0.94430 0.05441 0.58659
 H431 H 0.88984 0.04288 0.64521
 H432 H 0.91932 0.05826 0.69373
 H433 H 0.86041 0.09369 0.64755
 H434 H 0.90194 0.11833 0.61382
 H435 H 0.96079 0.08288 0.66000
 H436 H 0.93143 0.13367 0.66238
 C437 C 1.06837 -0.07209 0.66088
 C438 C 1.07100 -0.10346 0.66653
 C439 C 1.10104 -0.09889 0.67608
 C440 C 1.09858 -0.06771 0.67082
 C441 C 1.07923 -0.07685 0.63134
 C442 C 1.10925 -0.07227 0.64090
 C443 C 1.08165 -0.10803 0.63661
 C444 C 1.11187 -0.10365 0.64655
 C445 C 1.11328 -0.11117 0.70098
 C446 C 1.12333 -0.12135 0.72142
 C447 C 1.06701 -0.06435 0.60658
 C448 C 1.05657 -0.05376 0.58657
 H449 H 1.05032 -0.05900 0.66650
 H450 H 1.05539 -0.11639 0.67736
 H451 H 1.10564 -0.05125 0.68516
 H452 H 1.12481 -0.05930 0.63007
 H453 H 1.07452 -0.12446 0.62227
 H454 H 1.12989 -0.11676 0.64091
 C455 C 0.33794 1.07040 1.06997
 C456 C 0.33017 1.06872 1.10105
 C457 C 0.32293 1.09962 1.10057
 C458 C 0.33032 1.10147 1.06967
 C459 C 0.36778 1.07806 1.07813
 C460 C 0.36052 1.10894 1.07764
 C461 C 0.36038 1.07618 1.10902
 C462 C 0.35276 1.10726 1.10873
 C463 C 0.29797 1.11180 1.11303
 C464 C 0.27749 1.12198 1.12319
 C465 C 0.39264 1.06592 1.06546
 C466 C 0.41274 1.05553 1.05478
 H467 H 0.33208 1.05511 1.05389
 H468 H 0.31742 1.05229 1.11078
 H469 H 0.31769 1.11196 1.05360
 H470 H 0.37325 1.12536 1.06788
 H471 H 0.37298 1.06565 1.12508
 H472 H 0.35860 1.12254 1.12481
 C473 C 0.36432 0.89026 0.91621
 C474 C 0.33478 0.89151 0.92878
 C475 C 0.32330 0.89966 0.90025
 C476 C 0.35247 0.89824 0.88749
 C477 C 0.36810 0.92104 0.92286
 C478 C 0.35661 0.92922 0.89434
 C479 C 0.33891 0.92247 0.93562
 C480 C 0.32706 0.93045 0.90691
 C481 C 0.29837 0.88757 0.88771
 C482 C 0.27790 0.87747 0.87749
 C483 C 0.39291 0.93310 0.93565
 C484 C 0.41296 0.94346 0.94638
 H485 H 0.37990 0.87385 0.92016
 H486 H 0.32552 0.87591 0.94285
 H487 H 0.35780 0.88818 0.86754
 H488 H 0.36583 0.94486 0.88029
 H489 H 0.33356 0.93257 0.95555
 H490 H 0.31148 0.94686 0.90296
 C491 C 0.63735 0.89167 1.08187
 C492 C 0.66736 0.89624 1.07133
 C493 C 0.67689 0.90066 1.10135
 C494 C 0.64726 0.89590 1.11208
 C495 C 0.63208 0.92287 1.07959
 C496 C 0.64163 0.92730 1.10959
 C497 C 0.66171 0.92763 1.06884
 C498 C 0.67163 0.93186 1.09903
 C499 C 0.70180 0.88823 1.11355
 C500 C 0.72224 0.87794 1.12359
 C501 C 0.60724 0.93543 1.06737
 C502 C 0.58716 0.94600 1.05691
 H503 H 0.62303 0.87524 1.07467
 H504 H 0.67823 0.88337 1.05570
 H505 H 0.64159 0.88271 1.13000
 H506 H 0.63079 0.94020 1.12520
 H507 H 0.66741 0.94079 1.05090
 H508 H 0.68600 0.94828 1.10617
 C509 C 0.66181 1.07178 0.93187
 C510 C 0.67169 1.06762 0.90164
 C511 C 0.67690 1.09883 0.89939
 C512 C 0.66739 1.10318 0.92945
 C513 C 0.63215 1.07654 0.92121
 C514 C 0.63736 1.10775 0.91900
 C515 C 0.64167 1.07219 0.89117
 C516 C 0.64725 1.10360 0.88875
 C517 C 0.70179 1.11129 0.88716
 C518 C 0.72222 1.12161 0.87710
 C519 C 0.60736 1.06390 0.93346
 C520 C 0.58731 1.05328 0.94394
 H521 H 0.66756 1.05859 0.94977
 H522 H 0.68607 1.05123 0.89442
 H523 H 0.67826 1.11603 0.94506
 H524 H 0.62301 1.12415 0.92628
 H525 H 0.63082 1.05932 0.87558
 H526 H 0.64151 1.11683 0.87088
 C527 C 0.06165 0.34739 0.09447
 C528 C 0.07602 0.32378 0.07825
 C529 C 0.09962 0.32386 0.09960
 C530 C 0.08544 0.34708 0.11603
 C531 C 0.07804 0.36854 0.07729
 C532 C 0.10163 0.36861 0.09865
 C533 C 0.09219 0.34530 0.06087
 C534 C 0.11598 0.34501 0.08240
 C535 C 0.11183 0.29902 0.11199
 C536 C 0.12196 0.27865 0.12216
 C537 C 0.06598 0.39331 0.06468
 C538 C 0.05564 0.41333 0.05403
 H539 H 0.03917 0.34862 0.09930
 H540 H 0.06559 0.30509 0.06999
 H541 H 0.08274 0.34753 0.13884
 H542 H 0.11200 0.38732 0.10691
 H543 H 0.09481 0.34482 0.03804
 H544 H 0.13845 0.34376 0.07753
 C545 C -0.10683 0.36778 -0.09298
 C546 C -0.09294 0.35006 -0.11582
 C547 C -0.10066 0.32389 -0.09958
 C548 C -0.11472 0.34123 -0.07693
 C549 C -0.07912 0.36857 -0.07734
 C550 C -0.08681 0.34239 -0.06111
 C551 C -0.06503 0.35123 -0.09998
 C552 C -0.07293 0.32468 -0.08394
 C553 C -0.11281 0.29905 -0.11194
 C554 C -0.12288 0.27865 -0.12208
 C555 C -0.06702 0.39333 -0.06480
 C556 C -0.05662 0.41334 -0.05424
 H557 H -0.12062 0.38578 -0.09656
 H558 H -0.09555 0.35294 -0.13846
 H559 H -0.13527 0.33683 -0.06754
 H560 H -0.08414 0.33951 -0.03847
 H561 H -0.04445 0.35561 -0.10932
 H562 H -0.05911 0.30670 -0.08036
 C563 C 0.06312 0.64947 -0.10108
 C564 C 0.07127 0.67575 -0.08472
 C565 C 0.09909 0.67636 -0.10024
 C566 C 0.09113 0.65047 -0.11679
 C567 C 0.07687 0.63171 -0.07859
 C568 C 0.10468 0.63234 -0.09409
 C569 C 0.08480 0.65761 -0.06202
 C570 C 0.11281 0.65862 -0.07772
 C571 C 0.11156 0.70117 -0.11238
 C572 C 0.12185 0.72153 -0.12239
 C573 C 0.06443 0.60691 -0.06642
 C574 C 0.05396 0.58685 -0.05600
 H575 H 0.04253 0.64545 -0.11051
 H576 H 0.05767 0.69387 -0.08099
 H577 H 0.09384 0.64778 -0.13945
 H578 H 0.11828 0.61421 -0.09778
 H579 H 0.08206 0.66031 -0.03936
 H580 H 0.13336 0.66267 -0.06822
 C581 C -0.10847 0.63596 0.08271
 C582 C -0.10297 0.64694 0.11232
 C583 C -0.09952 0.67614 0.10040
 C584 C -0.10521 0.66556 0.07098
 C585 C -0.07715 0.63144 0.07899
 C586 C -0.07370 0.66065 0.06706
 C587 C -0.07145 0.64205 0.10840
 C588 C -0.06820 0.67163 0.09666
 C589 C -0.11198 0.70100 0.11241
 C590 C -0.12220 0.72142 0.12237
 C591 C -0.06455 0.60670 0.06692
 C592 C -0.05397 0.58671 0.05647
 H593 H -0.12490 0.62104 0.07681
 H594 H -0.11515 0.64157 0.13107
 H595 H -0.11921 0.67553 0.05572
 H596 H -0.06155 0.66604 0.04829
 H597 H -0.05741 0.63210 0.12363
 H598 H -0.05177 0.68658 0.10249
 C599 C 1.10938 0.08674 0.63430
 C600 C 1.09952 0.11416 0.64757
 C601 C 1.10022 0.10025 0.67614
 C602 C 1.11026 0.07302 0.66326
 C603 C 1.07898 0.07779 0.63137
 C604 C 1.07966 0.06387 0.65995
 C605 C 1.06892 0.10500 0.64426
 C606 C 1.06981 0.09129 0.67322
 C607 C 1.11215 0.11275 0.70103
 C608 C 1.12210 0.12292 0.72149
 C609 C 1.06705 0.06515 0.60656
 C610 C 1.05676 0.05450 0.58652
 H611 H 1.12550 0.08472 0.61800
 H612 H 1.10781 0.13500 0.64278
 H613 H 1.12735 0.05995 0.67134
 H614 H 1.07133 0.04305 0.66474
 H615 H 1.05177 0.11803 0.63621
 H616 H 1.05368 0.09327 0.68951
 C617 C 0.93008 -0.06916 0.66105
 C618 C 0.89890 -0.06900 0.66877
 C619 C 0.90093 -0.09982 0.67598
 C620 C 0.93194 -0.10017 0.66865
 C621 C 0.92229 -0.07722 0.63129
 C622 C 0.92435 -0.10804 0.63851
 C623 C 0.89130 -0.07687 0.63864
 C624 C 0.89315 -0.10789 0.64623
 C625 C 0.88884 -0.11237 0.70079
 C626 C 0.87871 -0.12259 0.72115
 C627 C 0.93428 -0.06442 0.60657
 C628 C 0.94457 -0.05364 0.58659
 H629 H 0.94542 -0.05310 0.66688
 H630 H 0.88834 -0.05307 0.68150
 H631 H 0.94851 -0.10987 0.68130
 H632 H 0.93496 -0.12396 0.62581
 H633 H 0.87474 -0.06714 0.62601
 H634 H 0.87784 -0.12397 0.64042
 C635 C 1.06724 -0.07266 0.33838
 C636 C 1.09804 -0.06992 0.32964
 C637 C 1.09865 -0.10100 0.32333
 C638 C 1.06804 -0.10392 0.33167
 C639 C 1.07664 -0.07916 0.36806
 C640 C 1.07725 -0.11021 0.36174
 C641 C 1.10724 -0.07620 0.35971
 C642 C 1.10805 -0.10746 0.35301
 C643 C 1.11096 -0.11328 0.29852
 C644 C 1.12117 -0.12339 0.27814
 C645 C 1.06424 -0.06691 0.39284
 C646 C 1.05382 -0.05636 0.41288
 H647 H 1.05034 -0.05819 0.33264
 H648 H 1.10670 -0.05351 0.31614
 H649 H 1.05205 -0.11540 0.31983
 H650 H 1.06855 -0.12662 0.37523
 H651 H 1.12321 -0.06463 0.37149
 H652 H 1.12499 -0.12189 0.35873
 C653 C 0.93590 0.07655 0.33869
 C654 C 0.90643 0.07026 0.32762
 C655 C 0.90175 0.10134 0.32334
 C656 C 0.93103 0.10781 0.33403
 C657 C 0.92381 0.07943 0.36800
 C658 C 0.91914 0.11049 0.36371
 C659 C 0.89454 0.07292 0.35730
 C660 C 0.88966 0.10419 0.35264
 C661 C 0.88939 0.11360 0.29854
 C662 C 0.87911 0.12367 0.27819
 C663 C 0.93623 0.06715 0.39275
 C664 C 0.94672 0.05665 0.41278
 H665 H 0.95504 0.06501 0.33325
 H666 H 0.90109 0.05386 0.31249
 H667 H 0.94592 0.12225 0.32415
 H668 H 0.92450 0.12689 0.37883
 H669 H 0.87967 0.05843 0.36712
 H670 H 0.87049 0.11568 0.35806
 C671 C 0.07140 0.35803 -0.10645
 C672 C 0.10272 0.35318 -0.11173
 C673 C 0.09981 0.32395 -0.09973
 C674 C 0.06867 0.32842 -0.09464
 C675 C 0.07836 0.36859 -0.07729
 C676 C 0.07542 0.33935 -0.06528
 C677 C 0.10948 0.36410 -0.08235
 C678 C 0.10674 0.33449 -0.07055
 C679 C 0.11184 0.29913 -0.11224
 C680 C 0.12186 0.27872 -0.12242
 C681 C 0.06628 0.39334 -0.06472
 C682 C 0.05589 0.41336 -0.05416
 H683 H 0.05670 0.36795 -0.12107
 H684 H 0.11407 0.35861 -0.13097
 H685 H 0.05205 0.31344 -0.09982
 H686 H 0.06405 0.33393 -0.04605
 H687 H 0.12608 0.37908 -0.07712
 H688 H 0.12137 0.32454 -0.05588
 C689 C -0.09707 0.34815 0.06182
 C690 C -0.08020 0.32416 0.07471
 C691 C -0.10001 0.32420 0.09962
 C692 C -0.11707 0.34780 0.08692
 C693 C -0.07860 0.36883 0.07730
 C694 C -0.09839 0.36886 0.10221
 C695 C -0.06151 0.34523 0.08998
 C696 C -0.08151 0.34487 0.11509
 C697 C -0.11207 0.29943 0.11203
 C698 C -0.12214 0.27908 0.12219
 C699 C -0.06663 0.39355 0.06473
 C700 C -0.05634 0.41352 0.05410
 H701 H -0.10327 0.34981 0.03975
 H702 H -0.07284 0.30551 0.06355
 H703 H -0.14005 0.34856 0.08576
 H704 H -0.10570 0.38753 0.11335
 H705 H -0.03853 0.34446 0.09108
 H706 H -0.07523 0.34318 0.13713
 C707 C -0.06049 0.65412 -0.09421
 C708 C -0.08276 0.65444 -0.11731
 C709 C -0.09899 0.67628 -0.10089
 C710 C -0.07691 0.67635 -0.07799
 C711 C -0.07706 0.63157 -0.07916
 C712 C -0.09327 0.65343 -0.06271
 C713 C -0.09914 0.63152 -0.10204
 C714 C -0.11555 0.65375 -0.08580
 C715 C -0.11127 0.70108 -0.11311
 C716 C -0.12145 0.72143 -0.12318
 C717 C -0.06474 0.60679 -0.06698
 C718 C -0.05433 0.58675 -0.05652
 H719 H -0.03770 0.65399 -0.09750
 H720 H -0.07855 0.65515 -0.13989
 H721 H -0.06794 0.69507 -0.06824
 H722 H -0.09745 0.65275 -0.04012
 H723 H -0.10813 0.61279 -0.11175
 H724 H -0.13833 0.65392 -0.08244
 C725 C 0.07448 0.66025 0.06570
 C726 C 0.06730 0.67223 0.09456
 C727 C 0.09842 0.67587 0.10029
 C728 C 0.10579 0.66428 0.07161
 C729 C 0.07619 0.63132 0.07864
 C730 C 0.10730 0.63496 0.08433
 C731 C 0.06881 0.64292 0.10729
 C732 C 0.10013 0.64694 0.11319
 C733 C 0.11082 0.70060 0.11246
 C734 C 0.12108 0.72092 0.12249
 C735 C 0.06368 0.60662 0.06652
 C736 C 0.05315 0.58665 0.05611
 H737 H 0.06380 0.66544 0.04602
 H738 H 0.05101 0.68786 0.09886
 H739 H 0.12110 0.67339 0.05707
 H740 H 0.12359 0.61936 0.07994
 H741 H 0.05345 0.63385 0.12178
 H742 H 0.11082 0.64175 0.13286
 C743 C 0.34697 1.09531 0.93912
 C744 C 0.34686 1.11658 0.91518
 C745 C 0.32388 1.09988 0.90092
 C746 C 0.32360 1.07880 0.92466
 C747 C 0.36855 1.07823 0.92318
 C748 C 0.34557 1.06151 0.90893
 C749 C 0.36882 1.09928 0.89943
 C750 C 0.34544 1.08277 0.88498
 C751 C 0.29911 1.11209 0.88853
 C752 C 0.27877 1.12224 0.87832
 C753 C 0.39325 1.06610 0.93574
 C754 C 0.41323 1.05569 0.94635
 H755 H 0.34792 1.10028 0.96153
 H756 H 0.34708 1.13936 0.91762
 H757 H 0.30472 1.07052 0.93487
 H758 H 0.34535 1.03872 0.90652
 H759 H 0.38772 1.10751 0.88923
 H760 H 0.34447 1.07773 0.86259
 C761 C 0.36707 0.89214 1.09033
 C762 C 0.35062 0.90449 1.11496
 C763 C 0.32353 0.89918 1.09913
 C764 C 0.33958 0.88666 1.07470
 C765 C 0.36831 0.92096 1.07716
 C766 C 0.34121 0.91567 1.06133
 C767 C 0.35225 0.93351 1.10158
 C768 C 0.32476 0.92801 1.08596
 C769 C 0.29867 0.88698 1.11138
 C770 C 0.27826 0.87688 1.12151
 C771 C 0.39307 0.93319 1.06478
 C772 C 0.41309 0.94369 1.05430
 H773 H 0.38477 0.87758 1.09198
 H774 H 0.35416 0.89977 1.13716
 H775 H 0.33405 0.86728 1.06376
 H776 H 0.33765 0.92044 1.03914
 H777 H 0.35774 0.95292 1.11248
 H778 H 0.30707 0.94259 1.08430
 C779 C 0.64840 1.09999 1.06494
 C780 C 0.64963 1.11542 1.09300
 C781 C 0.67626 1.09953 1.10016
 C782 C 0.67543 1.08431 1.07228
 C783 C 0.63154 1.07696 1.07891
 C784 C 0.65818 1.06108 1.08602
 C785 C 0.63238 1.09218 1.10676
 C786 C 0.65940 1.07649 1.11408
 C787 C 0.70109 1.11204 1.11216
 C788 C 0.72148 1.12230 1.12215
 C789 C 0.60680 1.06421 1.06699
 C790 C 0.58680 1.05350 1.05668
 H791 H 0.64361 1.10950 1.04459
 H792 H 0.64644 1.13792 1.09598
 H793 H 0.69341 1.08124 1.05826
 H794 H 0.66141 1.03859 1.08298
 H795 H 0.61438 1.09527 1.12076
 H796 H 0.66423 1.06694 1.13440
 C797 C 0.64449 0.89515 0.93130
 C798 C 0.64768 0.88640 0.90061
 C799 C 0.67634 0.90022 0.90000
 C800 C 0.67354 0.90876 0.93049
 C801 C 0.63167 0.92255 0.92168
 C802 C 0.66033 0.93636 0.92110
 C803 C 0.63447 0.91401 0.89121
 C804 C 0.66352 0.92763 0.89042
 C805 C 0.70116 0.88784 0.88783
 C806 C 0.72157 0.87768 0.87773
 C807 C 0.60698 0.93515 0.93388
 C808 C 0.58701 0.94577 0.94434
 H809 H 0.63638 0.88196 0.94825
 H810 H 0.64281 0.86570 0.89207
 H811 H 0.68990 0.90647 0.94649
 H812 H 0.66521 0.95705 0.92969
 H813 H 0.61810 0.91632 0.87523
 H814 H 0.67166 0.94087 0.87351
   
