data_POSCAR
  _audit_creation_date              2014-09-24
  _audit_creation_method            'ToBaCCo'
  _symmetry_space_group_name_H-M    'P1'
  _symmetry_Int_Tables_number       1
  _symmetry_cell_setting            triclinic
  loop_
  _symmetry_equiv_pos_as_xyz
 x,y,z
_cell_length_a 21.2076
_cell_length_b 22.6060
_cell_length_c 21.2076
_cell_angle_alpha 90.000000
_cell_angle_beta 90.000000
_cell_angle_gamma 90.000000
loop_
  _atom_site_label
  _atom_site_type_symbol
  _atom_site_fract_x
  _atom_site_fract_y
  _atom_site_fract_z
Si1 Si 1.25007 0.25000 0.24999
 Si2 Si 0.75007 -0.25000 0.24999
 Si3 Si 0.75007 0.25000 -0.25001
 Si4 Si 1.25007 -0.25000 -0.25001
 Si5 Si 0.25007 0.25000 0.74999
 Si6 Si 0.75007 0.75000 0.74999
 Si7 Si 0.75007 0.25000 0.24999
 Si8 Si 0.25007 0.75000 0.24999
 N9 N 1.11296 0.06070 0.06908
 N10 N 1.15615 0.10114 0.08125
 N11 N 1.06912 -0.06379 0.11285
 N12 N 1.08208 -0.10353 0.15673
 N13 N 1.11294 -0.06379 0.06904
 N14 N 1.15681 -0.10353 0.08200
 N15 N 1.06916 0.06070 0.11288
 N16 N 1.08134 0.10114 0.15607
 C17 C 1.13512 0.12640 0.13503
 C18 C 1.13632 -0.12853 0.13624
 N19 N 0.88917 -0.06266 0.06847
 N20 N 0.84548 -0.10258 0.08079
 N21 N 0.93316 0.06126 0.11281
 N22 N 0.92051 0.10128 0.15641
 N23 N 0.88951 0.06155 0.06884
 N24 N 0.84608 0.10171 0.08128
 N25 N 0.93297 -0.06303 0.11229
 N26 N 0.92026 -0.10319 0.15561
 Mn27 Mn 1.00109 -0.00122 0.11332
 C28 C 0.86622 -0.12793 0.13461
 C29 C 0.86668 0.12661 0.13540
 N30 N 1.11237 -0.06303 -0.06712
 N31 N 1.15570 -0.10319 -0.07982
 N32 N 1.06892 0.06155 -0.11057
 N33 N 1.08136 0.10171 -0.15400
 N34 N 1.11290 0.06126 -0.06693
 N35 N 1.15649 0.10128 -0.07957
 N36 N 1.06855 -0.06266 -0.11091
 N37 N 1.08087 -0.10258 -0.15461
 Mn38 Mn 1.11341 -0.00122 0.00101
 C39 C 1.13469 -0.12793 -0.13387
 C40 C 1.13548 0.12661 -0.13340
 N41 N 0.88924 0.06206 -0.06705
 N42 N 0.84548 0.10187 -0.07983
 N43 N 0.93274 -0.06235 -0.11114
 N44 N 0.92003 -0.10219 -0.15484
 N45 N 0.88895 -0.06235 -0.06735
 N46 N 0.84524 -0.10219 -0.08005
 N47 N 0.93303 0.06206 -0.11085
 N48 N 0.92025 0.10187 -0.15460
 Mn49 Mn 0.88865 -0.00035 0.00076
 Mn50 Mn 1.00084 -0.00035 -0.11144
 Cl51 Cl 1.00101 -0.00080 0.00093
 C52 C 0.86613 0.12686 -0.13395
 C53 C 0.86594 -0.12716 -0.13414
 N54 N 1.11237 0.56303 0.56709
 N55 N 1.15570 0.60318 0.57979
 N56 N 1.06892 0.43845 0.61055
 N57 N 1.08136 0.39829 0.65397
 N58 N 1.11290 0.43874 0.56690
 N59 N 1.15649 0.39872 0.57954
 N60 N 1.06855 0.56266 0.61089
 N61 N 1.08087 0.60257 0.65458
 C62 C 1.13469 0.62793 0.63384
 C63 C 1.13548 0.37339 0.63337
 N64 N 0.88924 0.43794 0.56702
 N65 N 0.84548 0.39813 0.57980
 N66 N 0.93274 0.56235 0.61111
 N67 N 0.92003 0.60219 0.65481
 N68 N 0.88895 0.56235 0.56732
 N69 N 0.84524 0.60219 0.58002
 N70 N 0.93303 0.43794 0.61082
 N71 N 0.92025 0.39813 0.65457
 Mn72 Mn 1.00084 0.50035 0.61141
 C73 C 0.86613 0.37314 0.63392
 C74 C 0.86594 0.62716 0.63411
 N75 N 1.11296 0.43930 0.43089
 N76 N 1.15615 0.39886 0.41872
 N77 N 1.06912 0.56379 0.38712
 N78 N 1.08208 0.60353 0.34324
 N79 N 1.11294 0.56379 0.43093
 N80 N 1.15681 0.60353 0.41797
 N81 N 1.06916 0.43930 0.38709
 N82 N 1.08134 0.39886 0.34390
 Mn83 Mn 1.11341 0.50122 0.49897
 C84 C 1.13512 0.37360 0.36494
 C85 C 1.13632 0.62853 0.36373
 N86 N 0.88917 0.56266 0.43150
 N87 N 0.84548 0.60257 0.41918
 N88 N 0.93316 0.43874 0.38716
 N89 N 0.92051 0.39872 0.34356
 N90 N 0.88951 0.43845 0.43113
 N91 N 0.84608 0.39829 0.41870
 N92 N 0.93297 0.56303 0.38768
 N93 N 0.92026 0.60318 0.34436
 Mn94 Mn 0.88865 0.50035 0.49921
 Mn95 Mn 1.00109 0.50122 0.38665
 Cl96 Cl 1.00101 0.50080 0.49904
 C97 C 0.86622 0.62793 0.36536
 C98 C 0.86668 0.37339 0.36457
 N99 N 0.61090 0.06206 0.56702
 N100 N 0.65465 0.10187 0.57980
 N101 N 0.56740 -0.06235 0.61111
 N102 N 0.58010 -0.10219 0.65481
 N103 N 0.61119 -0.06235 0.56732
 N104 N 0.65490 -0.10219 0.58002
 N105 N 0.56710 0.06206 0.61082
 N106 N 0.57988 0.10187 0.65457
 C107 C 0.63400 0.12686 0.63392
 C108 C 0.63419 -0.12716 0.63411
 N109 N 0.38776 -0.06303 0.56709
 N110 N 0.34444 -0.10319 0.57979
 N111 N 0.43121 0.06155 0.61055
 N112 N 0.41878 0.10171 0.65397
 N113 N 0.38724 0.06126 0.56690
 N114 N 0.34364 0.10128 0.57954
 N115 N 0.43158 -0.06266 0.61089
 N116 N 0.41927 -0.10258 0.65458
 Mn117 Mn 0.49929 -0.00035 0.61141
 C118 C 0.36544 -0.12793 0.63384
 C119 C 0.36466 0.12661 0.63337
 N120 N 0.61097 -0.06266 0.43150
 N121 N 0.65466 -0.10258 0.41918
 N122 N 0.56698 0.06126 0.38716
 N123 N 0.57962 0.10128 0.34356
 N124 N 0.61063 0.06155 0.43113
 N125 N 0.65406 0.10171 0.41870
 N126 N 0.56717 -0.06303 0.38768
 N127 N 0.57987 -0.10318 0.34436
 Mn128 Mn 0.61149 -0.00035 0.49921
 C129 C 0.63392 -0.12793 0.36536
 C130 C 0.63345 0.12661 0.36457
 N131 N 0.38718 0.06070 0.43089
 N132 N 0.34398 0.10114 0.41872
 N133 N 0.43101 -0.06379 0.38712
 N134 N 0.41805 -0.10353 0.34324
 N135 N 0.38720 -0.06379 0.43093
 N136 N 0.34332 -0.10353 0.41797
 N137 N 0.43097 0.06070 0.38709
 N138 N 0.41880 0.10114 0.34390
 Mn139 Mn 0.38673 -0.00122 0.49897
 Mn140 Mn 0.49905 -0.00122 0.38665
 Cl141 Cl 0.49912 -0.00080 0.49904
 C142 C 0.36502 0.12640 0.36494
 C143 C 0.36381 -0.12853 0.36373
 N144 N 0.61097 0.56266 0.06847
 N145 N 0.65466 0.60257 0.08079
 N146 N 0.56698 0.43874 0.11281
 N147 N 0.57962 0.39872 0.15641
 N148 N 0.61063 0.43845 0.06884
 N149 N 0.65406 0.39829 0.08128
 N150 N 0.56717 0.56303 0.11229
 N151 N 0.57987 0.60318 0.15561
 C152 C 0.63392 0.62793 0.13461
 C153 C 0.63345 0.37339 0.13540
 N154 N 0.38718 0.43930 0.06908
 N155 N 0.34398 0.39886 0.08126
 N156 N 0.43101 0.56379 0.11285
 N157 N 0.41805 0.60353 0.15673
 N158 N 0.38720 0.56379 0.06904
 N159 N 0.34332 0.60353 0.08200
 N160 N 0.43097 0.43930 0.11288
 N161 N 0.41880 0.39886 0.15607
 Mn162 Mn 0.49905 0.50122 0.11332
 C163 C 0.36502 0.37360 0.13503
 C164 C 0.36381 0.62853 0.13624
 N165 N 0.61090 0.43794 -0.06705
 N166 N 0.65465 0.39813 -0.07983
 N167 N 0.56740 0.56235 -0.11114
 N168 N 0.58010 0.60219 -0.15484
 N169 N 0.61119 0.56235 -0.06735
 N170 N 0.65490 0.60219 -0.08005
 N171 N 0.56710 0.43794 -0.11085
 N172 N 0.57988 0.39813 -0.15460
 Mn173 Mn 0.61149 0.50035 0.00076
 C174 C 0.63400 0.37314 -0.13395
 C175 C 0.63419 0.62716 -0.13414
 N176 N 0.38776 0.56303 -0.06712
 N177 N 0.34444 0.60318 -0.07982
 N178 N 0.43121 0.43845 -0.11057
 N179 N 0.41878 0.39829 -0.15400
 N180 N 0.38724 0.43874 -0.06693
 N181 N 0.34364 0.39872 -0.07957
 N182 N 0.43158 0.56266 -0.11091
 N183 N 0.41927 0.60257 -0.15461
 Mn184 Mn 0.38673 0.50122 0.00101
 Mn185 Mn 0.49929 0.50035 -0.11144
 Cl186 Cl 0.49912 0.50080 0.00093
 C187 C 0.36544 0.62793 -0.13387
 C188 C 0.36466 0.37339 -0.13340
 C189 C 1.20140 0.20279 0.20132
 C190 C 1.17047 0.16893 0.17039
 C191 C 1.20136 0.70311 0.70116
 C192 C 1.17027 0.66975 0.66982
 C193 C 0.70112 0.20259 0.70104
 C194 C 0.66991 0.16894 0.66983
 C195 C 0.70124 0.70311 0.20128
 C196 C 0.66990 0.66975 0.17019
 C197 C 0.79889 -0.20311 0.20128
 C198 C 0.83023 -0.16975 0.17019
 C199 C 0.79901 0.29741 0.70104
 C200 C 0.83022 0.33106 0.66983
 C201 C 0.29877 -0.20311 0.70116
 C202 C 0.32986 -0.16975 0.66982
 C203 C 0.29873 0.29721 0.20132
 C204 C 0.32966 0.33107 0.17039
 C205 C 0.79901 0.20259 -0.20107
 C206 C 0.83022 0.16894 -0.16986
 C207 C 0.79889 0.70311 0.29869
 C208 C 0.83023 0.66975 0.32978
 C209 C 0.29873 0.20279 0.29865
 C210 C 0.32966 0.16893 0.32958
 C211 C 0.29877 0.70311 -0.20119
 C212 C 0.32986 0.66975 -0.16985
 C213 C 1.20136 -0.20311 -0.20119
 C214 C 1.17027 -0.16975 -0.16985
 C215 C 1.20140 0.29721 0.29865
 C216 C 1.17047 0.33107 0.32958
 C217 C 0.70124 -0.20311 0.29869
 C218 C 0.66990 -0.16975 0.32978
 C219 C 0.70112 0.29741 -0.20107
 C220 C 0.66991 0.33106 -0.16986
 C221 C 1.20161 0.20264 -0.20081
 C222 C 1.17093 0.16889 -0.16931
 C223 C 1.20358 0.70478 0.29647
 C224 C 1.17233 0.67092 0.32773
 C225 C 0.70086 0.20264 0.29845
 C226 C 0.66936 0.16889 0.32912
 C227 C 0.70121 0.70276 -0.20116
 C228 C 0.67003 0.66918 -0.16997
 C229 C 0.79892 -0.20276 -0.20116
 C230 C 0.83011 -0.16918 -0.16997
 C231 C 0.79927 0.29736 0.29845
 C232 C 0.83077 0.33111 0.32912
 C233 C 0.29655 -0.20478 0.29647
 C234 C 0.32781 -0.17092 0.32772
 C235 C 0.29853 0.29736 -0.20081
 C236 C 0.32920 0.33111 -0.16931
 C237 C 1.20358 -0.20478 0.20350
 C238 C 1.17233 -0.17092 0.17225
 C239 C 1.20161 0.29736 0.70078
 C240 C 1.17093 0.33111 0.66928
 C241 C 0.70121 -0.20276 0.70113
 C242 C 0.67003 -0.16918 0.66995
 C243 C 0.70086 0.29736 0.20153
 C244 C 0.66936 0.33111 0.17085
 C245 C 0.79927 0.20264 0.20153
 C246 C 0.83077 0.16889 0.17085
 C247 C 0.79892 0.70276 0.70113
 C248 C 0.83011 0.66918 0.66995
 C249 C 0.29853 0.20264 0.70078
 C250 C 0.32920 0.16889 0.66928
 C251 C 0.29655 0.70478 0.20350
 C252 C 0.32781 0.67092 0.17225
   
