data_POSCAR
  _audit_creation_date              2014-09-24
  _audit_creation_method            'ToBaCCo'
  _symmetry_space_group_name_H-M    'P1'
  _symmetry_Int_Tables_number       1
  _symmetry_cell_setting            triclinic
  loop_
  _symmetry_equiv_pos_as_xyz
 x,y,z
_cell_length_a 26.6853
_cell_length_b 25.7459
_cell_length_c 64.7229
_cell_angle_alpha 90.841500
_cell_angle_beta 87.049600
_cell_angle_gamma 119.019800
loop_
  _atom_site_label
  _atom_site_type_symbol
  _atom_site_fract_x
  _atom_site_fract_y
  _atom_site_fract_z
Si1 Si -0.02713 -0.02890 0.49530
 Si2 Si 0.99441 0.01351 0.16638
 Si3 Si 0.03461 1.01855 0.83900
 O4 O 0.48072 0.05854 0.02211
 O5 O 0.58577 0.05930 -0.01757
 O6 O 0.49017 0.06425 -0.01804
 O7 O 0.58095 0.06373 0.02250
 O8 O 0.53764 -0.03417 0.02205
 O9 O 0.44201 -0.03367 -0.01718
 O10 O 0.53732 -0.03866 -0.01819
 O11 O 0.43762 -0.03944 0.02312
 Cu12 Cu 0.53894 0.07122 0.00222
 Cu13 Cu 0.48407 -0.04623 0.00246
 C14 C 0.44135 0.00908 0.02947
 C15 C 0.57918 0.01013 -0.02467
 C16 C 0.45001 0.01570 -0.02436
 C17 C 0.57568 0.01503 0.02902
 O18 O -0.03090 0.42388 0.69091
 O19 O -0.04318 0.51562 0.65001
 O20 O -0.04789 0.41170 0.65131
 O21 O -0.03693 0.52159 0.68987
 O22 O 0.05728 0.56940 0.68490
 O23 O 0.04600 0.45932 0.64534
 O24 O 0.05102 0.56275 0.64501
 O25 O 0.06300 0.47071 0.68495
 Cu26 Cu -0.04907 0.46329 0.67101
 Cu27 Cu 0.06367 0.52005 0.66456
 C28 C 0.01858 0.43186 0.69486
 C29 C 0.00226 0.55555 0.64071
 C30 C -0.00331 0.41654 0.64161
 C31 C 0.01163 0.56446 0.69397
 O32 O 0.50825 0.57194 0.31311
 O33 O 0.40449 0.46463 0.35195
 O34 O 0.50036 0.56493 0.35321
 O35 O 0.40661 0.47782 0.31223
 O36 O 0.45041 0.42395 0.30933
 O37 O 0.54670 0.51361 0.35025
 O38 O 0.45118 0.41353 0.34941
 O39 O 0.55173 0.51781 0.31013
 Cu40 Cu 0.45046 0.52504 0.33287
 Cu41 Cu 0.50434 0.46186 0.32948
 C42 C 0.54819 0.56329 0.30513
 C43 C 0.41057 0.42073 0.35732
 C44 C 0.53990 0.55495 0.35866
 C45 C 0.41171 0.43566 0.30390
 C46 C -0.04525 0.11373 0.53569
 C47 C -0.08109 0.05294 0.54012
 C48 C -0.07900 0.00983 0.52722
 C49 C -0.04091 0.02671 0.50977
 C50 C -0.00847 0.08724 0.50451
 C51 C -0.01034 0.13028 0.51737
 C52 C -0.04143 0.15960 0.55060
 N53 N 0.00301 0.21599 0.54894
 N54 N 0.00868 0.25657 0.56299
 C55 C -0.02994 0.24253 0.57929
 N56 N -0.07472 0.18630 0.58084
 N57 N -0.08023 0.14562 0.56685
 C58 C -0.02284 0.28722 0.59521
 C59 C -0.06826 0.27701 0.60947
 C60 C -0.06171 0.31898 0.62452
 C61 C -0.00938 0.37193 0.62582
 C62 C 0.03630 0.38198 0.61171
 C63 C 0.02954 0.34022 0.59649
 H64 H -0.10898 0.03861 0.55400
 H65 H -0.10560 -0.03638 0.53143
 H66 H 0.01985 0.10196 0.49078
 H67 H 0.01681 0.17666 0.51323
 H68 H -0.10915 0.23672 0.60892
 H69 H -0.09769 0.30977 0.63522
 H70 H 0.07710 0.42237 0.61231
 H71 H 0.06552 0.34927 0.58582
 C72 C 0.86129 0.87091 0.21335
 C73 C 0.86198 0.92497 0.20991
 C74 C 0.90343 0.96766 0.19646
 C75 C 0.94571 0.95791 0.18628
 C76 C 0.94573 0.90428 0.18970
 C77 C 0.90403 0.86120 0.20325
 C78 C 0.81483 0.82463 0.22681
 N79 N 0.81265 0.77167 0.23032
 N80 N 0.77005 0.73003 0.24213
 C81 C 0.72777 0.73950 0.25086
 N82 N 0.73005 0.79246 0.24735
 N83 N 0.77260 0.83404 0.23558
 C84 C 0.68044 0.69341 0.26409
 C85 C 0.63584 0.70279 0.27254
 C86 C 0.59214 0.66006 0.28551
 C87 C 0.59209 0.60705 0.29034
 C88 C 0.63612 0.59725 0.28162
 C89 C 0.67972 0.63987 0.26864
 H90 H 0.82958 0.93393 0.21720
 H91 H 0.90066 1.00735 0.19338
 H92 H 0.97675 0.89484 0.18158
 H93 H 0.90454 0.81987 0.20545
 H94 H 0.63488 0.74343 0.26931
 H95 H 0.55888 0.66897 0.29200
 H96 H 0.63742 0.55687 0.28502
 H97 H 0.71326 0.63107 0.26240
 C98 C 0.17322 0.02486 -0.12051
 C99 C 0.12268 -0.02834 -0.12388
 C100 C 0.08108 -0.02896 -0.13613
 C101 C 0.08882 0.02352 -0.14537
 C102 C 0.13908 0.07700 -0.14215
 C103 C 0.18101 0.07769 -0.12974
 C104 C 0.21675 0.02431 -0.10729
 N105 N 0.26388 0.07541 -0.10219
 N106 N 0.30198 0.07419 -0.08994
 C107 C 0.29462 0.02187 -0.08230
 N108 N 0.24770 -0.02912 -0.08752
 N109 N 0.20966 -0.02790 -0.09972
 C110 C 0.33588 0.02023 -0.06817
 C111 C 0.32792 -0.03430 -0.06052
 C112 C 0.36544 -0.03590 -0.04657
 C113 C 0.41176 0.01698 -0.03991
 C114 C 0.42029 0.07144 -0.04780
 C115 C 0.38283 0.07305 -0.06178
 H116 H 0.11495 -0.06983 -0.11700
 H117 H 0.04260 -0.07088 -0.13837
 H118 H 0.14606 0.11808 -0.14914
 H119 H 0.21949 0.11944 -0.12744
 H120 H 0.29230 -0.07590 -0.06514
 H121 H 0.35769 -0.07857 -0.04080
 H122 H 0.45561 0.11303 -0.04301
 H123 H 0.39032 0.11579 -0.06736
 C124 C -0.01277 0.83991 0.54098
 C125 C 0.03662 0.88208 0.52970
 C126 C 0.03348 0.92232 0.51616
 C127 C -0.01885 0.92156 0.51393
 C128 C -0.06806 0.87916 0.52499
 C129 C -0.06511 0.83903 0.53840
 C130 C -0.01048 0.79652 0.55520
 N131 N -0.05897 0.75508 0.56547
 N132 N -0.05735 0.71619 0.57837
 C133 C -0.00713 0.71698 0.58159
 N134 N 0.04141 0.75834 0.57129
 N135 N 0.03978 0.79726 0.55836
 C136 C -0.00525 0.67426 0.59624
 C137 C 0.04721 0.67700 0.60025
 C138 C 0.04932 0.63787 0.61444
 C139 C -0.00098 0.59494 0.62500
 C140 C -0.05360 0.59154 0.62081
 C141 C -0.05572 0.63082 0.60661
 H142 H 0.07756 0.88363 0.53115
 H143 H 0.07175 0.95319 0.50735
 H144 H -0.10949 0.87577 0.52287
 H145 H -0.10418 0.80686 0.54659
 H146 H 0.08690 0.70980 0.59257
 H147 H 0.09062 0.64173 0.61729
 H148 H -0.09309 0.55902 0.62870
 H149 H -0.09691 0.62737 0.60389
 C150 C 0.12847 0.17678 0.20242
 C151 C 0.06950 0.15310 0.20752
 C152 C 0.02878 0.10703 0.19589
 C153 C 0.04626 0.08385 0.17901
 C154 C 0.10487 0.11064 0.17301
 C155 C 0.14555 0.15624 0.18466
 C156 C 0.17202 0.21971 0.21618
 N157 N 0.22698 0.22973 0.21452
 N158 N 0.26548 0.26529 0.22767
 C159 C 0.25072 0.29254 0.24304
 N160 N 0.19591 0.28306 0.24457
 N161 N 0.15732 0.24722 0.23148
 C162 C 0.29291 0.33030 0.25817
 C163 C 0.28196 0.36839 0.27106
 C164 C 0.32092 0.40294 0.28570
 C165 C 0.37148 0.39973 0.28798
 C166 C 0.38255 0.36169 0.27511
 C167 C 0.34386 0.32766 0.26024
 H168 H 0.05483 0.16831 0.22101
 H169 H -0.01595 0.08834 0.20071
 H170 H 0.11994 0.09543 0.15968
 H171 H 0.19055 0.17434 0.18003
 H172 H 0.24323 0.37162 0.26984
 H173 H 0.31098 0.43160 0.29546
 H174 H 0.42115 0.35833 0.27650
 H175 H 0.35346 0.29858 0.25060
 C176 C 0.87543 -0.01355 -0.11825
 C177 C 0.92658 -0.00362 -0.10970
 C178 C 0.97251 0.00122 -0.12240
 C179 C 0.96843 -0.00353 -0.14394
 C180 C 0.91659 -0.01566 -0.15249
 C181 C 0.87018 -0.02128 -0.13972
 C182 C 0.82999 -0.01105 -0.10492
 N183 N 0.77450 -0.03842 -0.11034
 N184 N 0.73429 -0.03439 -0.09841
 C185 C 0.74817 -0.00212 -0.08077
 N186 N 0.80365 0.02535 -0.07542
 N187 N 0.84366 0.02082 -0.08722
 C188 C 0.70400 0.00270 -0.06743
 C189 C 0.71940 0.05185 -0.05444
 C190 C 0.67831 0.05537 -0.04110
 C191 C 0.62131 0.00920 -0.04016
 C192 C 0.60569 -0.03957 -0.05335
 C193 C 0.64653 -0.04246 -0.06703
 H194 H 0.93173 0.00217 -0.09320
 H195 H 1.01210 0.01188 -0.11529
 H196 H 0.91305 -0.01742 -0.16910
 H197 H 0.83144 -0.02835 -0.14675
 H198 H 0.76335 0.08750 -0.05453
 H199 H 0.69153 0.09327 -0.03102
 H200 H 0.56194 -0.07570 -0.05296
 H201 H 0.63352 -0.08090 -0.07683
 C202 C 0.12133 -0.02051 0.12373
 C203 C 0.11721 -0.03183 0.14511
 C204 C 0.07593 -0.02651 0.15788
 C205 C 0.03766 -0.01086 0.14939
 C206 C 0.03963 -0.00321 0.12791
 C207 C 0.08102 -0.00792 0.11522
 C208 C 0.16984 -0.01677 0.11047
 N209 N 0.18719 0.01723 0.09298
 N210 N 0.23192 0.02280 0.08121
 C211 C 0.26108 -0.00565 0.08636
 N212 N 0.24368 -0.03993 0.10382
 N213 N 0.19917 -0.04505 0.11574
 C214 C 0.31001 -0.00003 0.07291
 C215 C 0.32504 -0.04529 0.07241
 C216 C 0.36843 -0.04186 0.05849
 C217 C 0.39847 0.00753 0.04516
 C218 C 0.38494 0.05383 0.04622
 C219 C 0.34071 0.04980 0.05981
 H220 H 0.14796 -0.04126 0.15211
 H221 H 0.07625 -0.03097 0.17447
 H222 H 0.01162 0.01001 0.12087
 H223 H 0.08277 0.00047 0.09878
 H224 H 0.30208 -0.08422 0.08231
 H225 H 0.37822 -0.07807 0.05804
 H226 H 0.40728 0.09228 0.03607
 H227 H 0.33029 0.08555 0.05997
 C228 C 0.82491 0.83484 0.45570
 C229 C 0.81907 0.88078 0.46571
 C230 C 0.86285 0.92222 0.47774
 C231 C 0.91291 0.91830 0.47974
 C232 C 0.91872 0.87268 0.46986
 C233 C 0.87525 0.83133 0.45802
 C234 C 0.77974 0.79101 0.44263
 N235 N 0.78532 0.74549 0.43407
 N236 N 0.74600 0.70674 0.42184
 C237 C 0.69923 0.71174 0.41762
 N238 N 0.69335 0.75708 0.42628
 N239 N 0.73275 0.79589 0.43854
 C240 C 0.65670 0.66966 0.40336
 C241 C 0.61001 0.67670 0.39795
 C242 C 0.57158 0.63873 0.38374
 C243 C 0.57888 0.59279 0.37459
 C244 C 0.62484 0.58492 0.38030
 C245 C 0.66331 0.62292 0.39452
 H246 H 0.78082 0.88471 0.46425
 H247 H 0.85774 0.95722 0.48533
 H248 H 0.95720 0.86905 0.47126
 H249 H 0.88144 0.79679 0.45057
 H250 H 0.60352 0.71208 0.40447
 H251 H 0.53654 0.64597 0.37971
 H252 H 0.63162 0.54994 0.37356
 H253 H 0.69867 0.61604 0.39838
 C254 C 0.05891 0.17829 0.80081
 C255 C 0.09214 0.15064 0.79577
 C256 C 0.08819 0.10471 0.80823
 C257 C 0.05099 0.08556 0.82598
 C258 C 0.02178 0.11688 0.83195
 C259 C 0.02527 0.16230 0.81941
 C260 C 0.05603 0.22033 0.78615
 N261 N 0.01244 0.23341 0.78807
 N262 N 0.00717 0.26777 0.77413
 C263 C 0.04539 0.29066 0.75768
 N264 N 0.08938 0.27815 0.75588
 N265 N 0.09446 0.24349 0.76977
 C266 C 0.03850 0.32732 0.74181
 C267 C 0.08392 0.36155 0.72753
 C268 C 0.07738 0.39566 0.71241
 C269 C 0.02502 0.39577 0.71104
 C270 C -0.02054 0.36141 0.72525
 C271 C -0.01376 0.32779 0.74056
 H272 H 0.11916 0.16247 0.78167
 H273 H 0.11260 0.08300 0.80335
 H274 H -0.00552 0.10542 0.84593
 H275 H 0.00021 0.18371 0.82403
 H276 H 0.12474 0.36226 0.72808
 H277 H 0.11332 0.42162 0.70167
 H278 H -0.06131 0.36078 0.72463
 H279 H -0.04971 0.30162 0.75126
 C280 C 0.85991 0.02212 0.12518
 C281 C 0.85998 -0.03139 0.12904
 C282 C 0.90090 -0.03239 0.14124
 C283 C 0.94270 0.01990 0.14992
 C284 C 0.94326 0.07366 0.14629
 C285 C 0.90208 0.07483 0.13393
 C286 C 0.81604 0.02196 0.11196
 N287 N 0.81698 0.07321 0.10654
 N288 N 0.77791 0.07229 0.09427
 C289 C 0.73627 0.02013 0.08695
 N290 N 0.73524 -0.03100 0.09250
 N291 N 0.77424 -0.03008 0.10472
 C292 C 0.69364 0.01877 0.07281
 C293 C 0.65081 -0.03561 0.06539
 C294 C 0.61191 -0.03698 0.05145
 C295 C 0.61496 0.01600 0.04457
 C296 C 0.65715 0.07030 0.05224
 C297 C 0.69602 0.07168 0.06620
 H298 H 0.82846 -0.07281 0.12258
 H299 H 0.89984 -0.07436 0.14392
 H300 H 0.97524 0.11442 0.15297
 H301 H 0.90316 0.11678 0.13127
 H302 H 0.64759 -0.07729 0.07019
 H303 H 0.57991 -0.07953 0.04586
 H304 H 0.66063 0.11197 0.04728
 H305 H 0.72835 0.11431 0.07160
 C306 C 0.12536 0.09667 0.45057
 C307 C 0.07230 0.05612 0.44282
 C308 C 0.02834 0.01483 0.45597
 C309 C 0.03639 0.01355 0.47717
 C310 C 0.09016 0.05229 0.48481
 C311 C 0.13461 0.09311 0.47156
 C312 C 0.16876 0.14517 0.43713
 N313 N 0.22519 0.17281 0.44132
 N314 N 0.26370 0.21767 0.42941
 C315 C 0.24717 0.23720 0.41306
 N316 N 0.19073 0.20974 0.40895
 N317 N 0.15235 0.16457 0.42072
 C318 C 0.28971 0.28653 0.39970
 C319 C 0.27314 0.32117 0.38824
 C320 C 0.31295 0.36633 0.37497
 C321 C 0.36966 0.37674 0.37261
 C322 C 0.38637 0.34261 0.38426
 C323 C 0.34692 0.29834 0.39784
 H324 H 0.06412 0.05759 0.42668
 H325 H -0.01285 -0.01353 0.44964
 H326 H 0.09676 0.05357 0.50122
 H327 H 0.17498 0.12415 0.47798
 H328 H 0.22935 0.31323 0.38948
 H329 H 0.29897 0.39187 0.36608
 H330 H 0.42995 0.34994 0.38277
 H331 H 0.36080 0.27223 0.40644
 C332 C 0.02267 0.87323 0.79190
 C333 C 0.07546 0.92275 0.79612
 C334 C 0.07783 0.96581 0.80992
 C335 C 0.02759 0.96107 0.81967
 C336 C -0.02525 0.91144 0.81575
 C337 C -0.02777 0.86802 0.80187
 C338 C 0.02096 0.82708 0.77753
 N339 N -0.02951 0.77854 0.77333
 N340 N -0.03059 0.73702 0.76054
 C341 C 0.01869 0.74222 0.75141
 N342 N 0.06910 0.79080 0.75559
 N343 N 0.07019 0.83227 0.76837
 C344 C 0.01745 0.69612 0.73710
 C345 C 0.06839 0.70181 0.72745
 C346 C 0.06682 0.65878 0.71363
 C347 C 0.01430 0.60915 0.70919
 C348 C -0.03647 0.60316 0.71905
 C349 C -0.03492 0.64607 0.73282
 H350 H 0.11527 0.92801 0.78898
 H351 H 0.11947 1.00222 0.81334
 H352 H -0.06449 0.90549 0.82352
 H353 H -0.06914 0.83012 0.79913
 H354 H 0.10952 0.73973 0.73043
 H355 H 0.10666 0.66467 0.70629
 H356 H -0.07771 0.56544 0.71600
 H357 H -0.07495 0.64010 0.74000
   
