data_POSCAR
  _audit_creation_date              2014-09-24
  _audit_creation_method            'ToBaCCo'
  _symmetry_space_group_name_H-M    'P1'
  _symmetry_Int_Tables_number       1
  _symmetry_cell_setting            triclinic
  loop_
  _symmetry_equiv_pos_as_xyz
 x,y,z
_cell_length_a 20.6400
_cell_length_b 26.8108
_cell_length_c 20.6893
_cell_angle_alpha 89.958800
_cell_angle_beta 88.270500
_cell_angle_gamma 90.021100
loop_
  _atom_site_label
  _atom_site_type_symbol
  _atom_site_fract_x
  _atom_site_fract_y
  _atom_site_fract_z
Si1 Si 1.24914 0.23372 0.23853
 Si2 Si 0.75921 -0.25504 0.25973
 Si3 Si 0.75541 0.25410 -0.24902
 Si4 Si 1.25701 -0.25598 -0.24404
 Si5 Si 0.25662 0.23358 0.75553
 Si6 Si 0.75594 0.72837 0.74373
 Si7 Si 0.75832 0.27014 0.24790
 Si8 Si 0.25353 0.77455 0.24972
 N9 N 1.08100 0.05858 0.06221
 N10 N 1.12058 0.09708 0.06730
 N11 N 1.02903 -0.04136 0.12478
 N12 N 1.03380 -0.07284 0.17375
 N13 N 1.08031 -0.04481 0.08587
 N14 N 1.12088 -0.07893 0.10688
 N15 N 1.03127 0.06293 0.10297
 N16 N 1.03433 0.10522 0.13513
 C17 C 1.09013 0.12605 0.11243
 C18 C 1.09133 -0.09621 0.16170
 N19 N 0.84745 -0.03981 0.06220
 N20 N 0.80825 -0.07822 0.06645
 N21 N 0.89436 0.06474 0.09080
 N22 N 0.87991 0.10456 0.12591
 N23 N 0.85777 0.06259 0.04011
 N24 N 0.81686 0.10044 0.03970
 N25 N 0.88815 -0.03980 0.10982
 N26 N 0.87732 -0.07890 0.14793
 Mn27 Mn 0.96060 0.01119 0.10817
 C28 C 0.82666 -0.10201 0.11996
 C29 C 0.83183 0.12654 0.09320
 N30 N 1.09554 -0.06408 -0.04890
 N31 N 1.14287 -0.09684 -0.04821
 N32 N 1.05879 0.02813 -0.12500
 N33 N 1.06642 0.06035 -0.17232
 N34 N 1.09658 0.03887 -0.07695
 N35 N 1.13177 0.07901 -0.09120
 N36 N 1.05617 -0.07334 -0.09629
 N37 N 1.07760 -0.11209 -0.13050
 Mn38 Mn 1.08918 -0.00232 0.00545
 C39 C 1.13104 -0.12676 -0.09872
 C40 C 1.11198 0.09156 -0.15117
 N41 N 0.87501 0.04294 -0.09691
 N42 N 0.84589 0.08460 -0.11395
 N43 N 0.91396 -0.07098 -0.10908
 N44 N 0.90388 -0.11378 -0.13916
 N45 N 0.86396 -0.05972 -0.07117
 N46 N 0.81949 -0.09475 -0.07294
 N47 N 0.92267 0.03191 -0.13788
 N48 N 0.92756 0.06620 -0.18362
 Mn49 Mn 0.86065 0.00206 -0.01665
 Mn50 Mn 0.98788 -0.02193 -0.11764
 Cl51 Cl 0.97476 -0.00289 -0.00504
 C52 C 0.87912 0.09846 -0.16838
 C53 C 0.84478 -0.12815 -0.11520
 N54 N 1.13939 0.54093 0.58235
 N55 N 1.16992 0.58128 0.60220
 N56 N 1.09827 0.42729 0.59407
 N57 N 1.10935 0.38601 0.62720
 N58 N 1.14873 0.43832 0.55658
 N59 N 1.19436 0.40453 0.56151
 N60 N 1.09136 0.52943 0.62271
 N61 N 1.08747 0.56170 0.67054
 C62 C 1.13671 0.59351 0.65751
 C63 C 1.16930 0.37210 0.60512
 N64 N 0.91551 0.43690 0.53503
 N65 N 0.86476 0.40698 0.53862
 N66 N 0.95564 0.52847 0.60963
 N67 N 0.94758 0.55960 0.65803
 N68 N 0.91804 0.54017 0.56177
 N69 N 0.88228 0.57976 0.57742
 N70 N 0.95568 0.42687 0.58155
 N71 N 0.93175 0.39071 0.61897
 Mn72 Mn 1.02526 0.47713 0.60229
 C73 C 0.87571 0.37798 0.59058
 C74 C 0.90186 0.59112 0.63793
 N75 N 1.16594 0.45674 0.42305
 N76 N 1.19873 0.41466 0.42161
 N77 N 1.12189 0.56311 0.39377
 N78 N 1.13479 0.60414 0.36028
 N79 N 1.15821 0.56060 0.44458
 N80 N 1.19740 0.59954 0.44674
 N81 N 1.12549 0.45831 0.37523
 N82 N 1.13056 0.41732 0.33973
 Mn83 Mn 1.15364 0.49985 0.50174
 C84 C 1.17730 0.39092 0.36911
 C85 C 1.18191 0.62655 0.39395
 N86 N 0.93513 0.55965 0.42120
 N87 N 0.89400 0.59629 0.40918
 N88 N 0.98526 0.45864 0.36109
 N89 N 0.98152 0.42559 0.31394
 N90 N 0.93357 0.45608 0.39967
 N91 N 0.89377 0.42097 0.38032
 N92 N 0.98561 0.56226 0.38105
 N93 N 0.98143 0.60099 0.34250
 Mn94 Mn 0.92466 0.49886 0.47944
 Mn95 Mn 1.05470 0.51014 0.37696
 Cl96 Cl 1.03931 0.49639 0.49009
 C97 C 0.92457 0.62210 0.36054
 C98 C 0.92418 0.40237 0.32684
 N99 N 0.63043 0.04658 0.59554
 N100 N 0.65906 0.08847 0.61240
 N101 N 0.59690 -0.06825 0.60714
 N102 N 0.60903 -0.11134 0.63557
 N103 N 0.64519 -0.05551 0.56785
 N104 N 0.69086 -0.08974 0.56749
 N105 N 0.58446 0.03426 0.63779
 N106 N 0.58013 0.06802 0.68425
 C107 C 0.62727 0.10127 0.66801
 C108 C 0.66775 -0.12427 0.60957
 N109 N 0.41455 -0.06705 0.55297
 N110 N 0.36828 -0.10075 0.55373
 N111 N 0.44811 0.02569 0.62999
 N112 N 0.44086 0.05719 0.67800
 N113 N 0.40825 0.03584 0.58348
 N114 N 0.37226 0.07525 0.59943
 N115 N 0.45514 -0.07507 0.59961
 N116 N 0.43558 -0.11391 0.63488
 Mn117 Mn 0.52128 -0.02159 0.61913
 C118 C 0.38204 -0.13001 0.60435
 C119 C 0.39353 0.08762 0.65900
 N120 N 0.65601 -0.03350 0.43411
 N121 N 0.69205 -0.07379 0.43118
 N122 N 0.60327 0.07105 0.40972
 N123 N 0.61885 0.11011 0.37322
 N124 N 0.64179 0.06824 0.45901
 N125 N 0.68438 0.10489 0.45733
 N126 N 0.61378 -0.03338 0.38774
 N127 N 0.62043 -0.07442 0.35235
 Mn128 Mn 0.64366 0.00696 0.51422
 C129 C 0.67051 -0.09854 0.37985
 C130 C 0.66907 0.13110 0.40419
 N131 N 0.41666 0.05709 0.44456
 N132 N 0.36412 0.08171 0.42909
 N133 N 0.47301 -0.03905 0.37726
 N134 N 0.46751 -0.06876 0.32667
 N135 N 0.42380 -0.04550 0.41819
 N136 N 0.38386 -0.07994 0.39677
 N137 N 0.46313 0.06423 0.40037
 N138 N 0.44257 0.09430 0.35443
 Mn139 Mn 0.41534 -0.00447 0.50007
 Mn140 Mn 0.53863 0.01561 0.39286
 Cl141 Cl 0.52946 -0.00081 0.50631
 C142 C 0.38125 0.10594 0.37411
 C143 C 0.41181 -0.09429 0.33973
 N144 N 0.58483 0.56634 0.07640
 N145 N 0.63037 0.59739 0.09640
 N146 N 0.54071 0.46715 0.14105
 N147 N 0.54558 0.43451 0.18843
 N148 N 0.59075 0.46364 0.10055
 N149 N 0.63062 0.42817 0.11887
 N150 N 0.53332 0.56963 0.11529
 N151 N 0.54143 0.60328 0.16008
 C152 C 0.60128 0.62085 0.14790
 C153 C 0.60185 0.41058 0.17391
 N154 N 0.35837 0.45542 0.08879
 N155 N 0.33138 0.41081 0.09450
 N156 N 0.39681 0.56543 0.10916
 N157 N 0.38286 0.60704 0.14099
 N158 N 0.35754 0.55930 0.06127
 N159 N 0.31541 0.59640 0.05925
 N160 N 0.40187 0.46137 0.13321
 N161 N 0.40611 0.42099 0.16923
 Mn162 Mn 0.46802 0.51566 0.12507
 C163 C 0.36103 0.39027 0.14539
 C164 C 0.33204 0.62608 0.10920
 N165 N 0.60408 0.44152 -0.03476
 N166 N 0.65502 0.41177 -0.03874
 N167 N 0.55659 0.53062 -0.11046
 N168 N 0.56456 0.55867 -0.16209
 N169 N 0.59623 0.54409 -0.06501
 N170 N 0.63307 0.58184 -0.08562
 N171 N 0.56214 0.42963 -0.07891
 N172 N 0.58470 0.39237 -0.11506
 Mn173 Mn 0.59486 0.50452 0.01911
 C174 C 0.64207 0.38099 -0.08848
 C175 C 0.61201 0.59038 -0.14643
 N176 N 0.37216 0.53680 -0.07552
 N177 N 0.34261 0.57862 -0.09175
 N178 N 0.41965 0.42511 -0.08524
 N179 N 0.40894 0.38348 -0.11769
 N180 N 0.37074 0.43444 -0.04502
 N181 N 0.32674 0.39915 -0.04736
 N182 N 0.41981 0.52682 -0.11711
 N183 N 0.42411 0.56144 -0.16206
 Mn184 Mn 0.36396 0.49698 0.00722
 Mn185 Mn 0.48947 0.47727 -0.09824
 Cl186 Cl 0.47942 0.49868 0.01320
 C187 C 0.37559 0.59305 -0.14628
 C188 C 0.35116 0.36752 -0.09222
 C189 C 1.17991 0.21845 0.18782
 C190 C 1.11994 0.24062 0.19515
 C191 C 1.07852 0.21032 0.16345
 C192 C 1.11650 0.17218 0.13879
 O193 O 1.17800 0.17692 0.15351
 H194 H 1.10695 0.27270 0.22445
 H195 H 1.02634 0.21382 0.16199
 C196 C 1.19247 0.70044 0.73557
 C197 C 1.13840 0.69227 0.77459
 C198 C 1.11019 0.65094 0.74993
 C199 C 1.14882 0.63746 0.69733
 O200 O 1.19925 0.66720 0.68868
 H201 H 1.12367 0.71205 0.81816
 H202 H 1.06825 0.63154 0.76971
 C203 C 0.68745 0.21120 0.73631
 C204 C 0.63403 0.20577 0.77719
 C205 C 0.60342 0.16389 0.75648
 C206 C 0.64033 0.14711 0.70434
 O207 O 0.69143 0.17567 0.69204
 H208 H 0.62109 0.22788 0.81936
 H209 H 0.56086 0.14662 0.77831
 C210 C 0.69398 0.70061 0.24340
 C211 C 0.63978 0.69700 0.28333
 C212 C 0.59916 0.66651 0.25212
 C213 C 0.63142 0.65360 0.19517
 O214 O 0.68957 0.67410 0.18954
 H215 H 0.62994 0.71558 0.32894
 H216 H 0.55099 0.65543 0.26861
 C217 C 0.77226 -0.21363 0.19051
 C218 C 0.73573 -0.21529 0.13611
 C219 C 0.75238 -0.17360 0.10252
 C220 C 0.79804 -0.14988 0.13882
 O221 O 0.81028 -0.17396 0.19258
 H222 H 0.69875 -0.24199 0.12402
 H223 H 0.73184 -0.16084 0.05805
 C224 C 0.77701 0.29312 0.67938
 C225 C 0.74148 0.29463 0.62423
 C226 C 0.77433 0.32631 0.58341
 C227 C 0.82790 0.34154 0.61650
 O228 O 0.82969 0.32147 0.67496
 H229 H 0.69694 0.27494 0.61493
 H230 H 0.76085 0.33714 0.53524
 C231 C 0.28436 -0.21879 0.68547
 C232 C 0.25595 -0.22129 0.62631
 C233 C 0.29058 -0.18932 0.58775
 C234 C 0.33791 -0.16998 0.62622
 O235 O 0.33434 -0.18776 0.68582
 H236 H 0.21465 -0.24350 0.61302
 H237 H 0.28182 -0.18049 0.53770
 C238 C 0.31150 0.27173 0.19710
 C239 C 0.37707 0.26501 0.20400
 C240 C 0.40490 0.30853 0.18339
 C241 C 0.35409 0.33809 0.16492
 O242 O 0.29741 0.31598 0.17312
 H243 H 0.40128 0.23391 0.22618
 H244 H 0.45575 0.31837 0.18412
 C245 C 0.82182 0.20983 -0.23507
 C246 C 0.87461 0.20360 -0.27654
 C247 C 0.90387 0.16098 -0.25653
 C248 C 0.86690 0.14465 -0.20416
 O249 O 0.81691 0.17410 -0.19109
 H250 H 0.88788 0.22563 -0.31872
 H251 H 0.94536 0.14282 -0.27915
 C252 C 0.83440 0.71388 0.28253
 C253 C 0.89383 0.72436 0.25395
 C254 C 0.93573 0.69249 0.28192
 C255 C 0.89863 0.66495 0.32558
 O256 O 0.83684 0.67789 0.32630
 H257 H 0.90506 0.75136 0.21636
 H258 H 0.98704 0.68872 0.27057
 C259 C 0.27946 0.17531 0.27463
 C260 C 0.24024 0.13426 0.28416
 C261 C 0.27449 0.10265 0.32134
 C262 C 0.33229 0.12659 0.33164
 O263 O 0.33552 0.17105 0.30388
 H264 H 0.19108 0.12905 0.26873
 H265 H 0.25868 0.06686 0.34024
 C266 C 0.32201 0.70232 -0.21995
 C267 C 0.38202 0.70005 -0.25046
 C268 C 0.41065 0.65910 -0.22522
 C269 C 0.36590 0.63973 -0.18122
 O270 O 0.31194 0.66592 -0.17769
 H271 H 0.40134 0.72383 -0.28866
 H272 H 0.45770 0.64418 -0.23861
 C273 C 1.22979 -0.21672 -0.17564
 C274 C 1.25891 -0.21684 -0.11674
 C275 C 1.22423 -0.18391 -0.07977
 C276 C 1.17620 -0.16645 -0.11884
 O277 O 1.17932 -0.18630 -0.17730
 H278 H 1.30065 -0.23820 -0.10258
 H279 H 1.23327 -0.17334 -0.03036
 C280 C 1.22152 0.27446 0.30524
 C281 C 1.22866 0.26319 0.36953
 C282 C 1.21128 0.30542 0.40192
 C283 C 1.19440 0.33904 0.35491
 O284 O 1.20042 0.32045 0.29602
 H285 H 1.24684 0.22905 0.39018
 H286 H 1.21180 0.31143 0.45358
 C287 C 0.72937 -0.21305 0.32347
 C288 C 0.72542 -0.22501 0.38805
 C289 C 0.69987 -0.18375 0.41724
 C290 C 0.68973 -0.15019 0.36800
 O291 O 0.70759 -0.16778 0.31087
 H292 H 0.73969 -0.25947 0.41085
 H293 H 0.69001 -0.17839 0.46836
 C294 C 0.73616 0.29343 -0.17719
 C295 C 0.77321 0.29508 -0.12304
 C296 C 0.74241 0.32793 -0.08224
 C297 C 0.68843 0.34356 -0.11432
 O298 O 0.68448 0.32272 -0.17211
 H299 H 0.81756 0.27492 -0.11452
 H300 H 0.75750 0.33923 -0.03479
 C301 C 1.18699 0.19352 -0.22747
 C302 C 1.13423 0.19055 -0.26614
 C303 C 1.09853 0.15225 -0.24114
 C304 C 1.13206 0.13530 -0.18881
 O305 O 1.18609 0.16018 -0.18034
 H306 H 1.12453 0.21211 -0.30901
 H307 H 1.05447 0.13717 -0.26005
 C308 C 1.24369 0.73489 0.31741
 C309 C 1.28000 0.73724 0.37221
 C310 C 1.26061 0.69740 0.40912
 C311 C 1.21408 0.67353 0.37407
 O312 O 1.20360 0.69622 0.31844
 H313 H 1.31725 0.76397 0.38348
 H314 H 1.27909 0.68646 0.45543
 C315 C 0.74583 0.22930 0.31908
 C316 C 0.78356 0.23028 0.37276
 C317 C 0.75862 0.19414 0.41260
 C318 C 0.70752 0.17382 0.38012
 O319 O 0.69953 0.19512 0.32327
 H320 H 0.82458 0.25421 0.38155
 H321 H 0.77614 0.18334 0.45937
 C322 C 0.68866 0.68592 -0.23655
 C323 C 0.63927 0.67647 -0.27777
 C324 C 0.60426 0.63939 -0.24877
 C325 C 0.63447 0.62952 -0.19151
 O326 O 0.68633 0.65747 -0.18409
 H327 H 0.63139 0.69318 -0.32452
 H328 H 0.56269 0.62063 -0.26802
 C329 C 0.77262 -0.23161 -0.18696
 C330 C 0.73404 -0.23005 -0.13168
 C331 C 0.75796 -0.19188 -0.09656
 C332 C 0.80972 -0.17339 -0.13280
 O333 O 0.81881 -0.19736 -0.18801
 H334 H 0.69169 -0.25241 -0.11979
 H335 H 0.73839 -0.17782 -0.05118
 C336 C 0.83258 0.30829 0.25489
 C337 C 0.88577 0.30570 0.21314
 C338 C 0.92808 0.34069 0.23466
 C339 C 0.89732 0.36195 0.28787
 O340 O 0.83943 0.34236 0.30031
 H341 H 0.89271 0.28143 0.17174
 H342 H 0.97542 0.34976 0.21398
 C343 C 0.32137 -0.18596 0.25872
 C344 C 0.37414 -0.18441 0.21630
 C345 C 0.41500 -0.14963 0.24088
 C346 C 0.38438 -0.13247 0.29667
 O347 O 0.32738 -0.15437 0.30759
 H348 H 0.38204 -0.20604 0.17263
 H349 H 0.46171 -0.13828 0.22074
 C350 C 0.27351 0.27125 -0.17312
 C351 C 0.23662 0.26965 -0.11668
 C352 C 0.26323 0.30435 -0.07777
 C353 C 0.31455 0.32418 -0.11345
 O354 O 0.32111 0.30418 -0.17151
 H355 H 0.19443 0.24686 -0.10577
 H356 H 0.24617 0.31507 -0.02978
 C357 C 1.18368 -0.18807 0.24033
 C358 C 1.12987 -0.18917 0.28148
 C359 C 1.08796 -0.15486 0.25749
 C360 C 1.11909 -0.13523 0.20336
 O361 O 1.17728 -0.15530 0.19279
 H362 H 1.12201 -0.21215 0.32402
 H363 H 1.04036 -0.14531 0.27708
 C364 C 1.24354 0.27382 0.68567
 C365 C 1.28442 0.27498 0.63200
 C366 C 1.26035 0.31130 0.59385
 C367 C 1.20618 0.32908 0.62698
 O368 O 1.19574 0.30651 0.68301
 H369 H 1.32769 0.25305 0.62269
 H370 H 1.28086 0.32431 0.54813
 C371 C 0.73951 -0.23003 0.67584
 C372 C 0.77975 -0.22578 0.62189
 C373 C 0.75680 -0.18601 0.58894
 C374 C 0.70382 -0.16947 0.62501
 O375 O 0.69318 -0.19600 0.67802
 H376 H 0.82273 -0.24734 0.60979
 H377 H 0.77761 -0.16985 0.54510
 C378 C 0.68798 0.31225 0.24270
 C379 C 0.63589 0.31209 0.28592
 C380 C 0.59621 0.34922 0.26578
 C381 C 0.62730 0.36920 0.21189
 O382 O 0.68301 0.34687 0.19763
 H383 H 0.62792 0.28798 0.32735
 H384 H 0.55021 0.36043 0.28769
 C385 C 0.76590 0.22952 0.17614
 C386 C 0.72759 0.23239 0.12291
 C387 C 0.74801 0.19439 0.08343
 C388 C 0.79715 0.17132 0.11583
 O389 O 0.80817 0.19259 0.17201
 H390 H 0.68893 0.25860 0.11434
 H391 H 0.72884 0.18424 0.03713
 C392 C 0.82526 0.68892 0.72229
 C393 C 0.88001 0.68631 0.75813
 C394 C 0.91630 0.64998 0.72942
 C395 C 0.88123 0.63363 0.67784
 O396 O 0.82551 0.65715 0.67329
 H397 H 0.89100 0.70704 0.80130
 H398 H 0.96201 0.63578 0.74535
 C399 C 0.32318 0.19071 0.73758
 C400 C 0.37528 0.18503 0.77660
 C401 C 0.40857 0.14583 0.75105
 C402 C 0.37453 0.13098 0.69799
 O403 O 0.32225 0.15809 0.68961
 H404 H 0.38609 0.20553 0.82000
 H405 H 0.45149 0.12885 0.77000
 C406 C 0.26537 0.73407 0.18302
 C407 C 0.22802 0.73387 0.12888
 C408 C 0.24901 0.69387 0.09316
 C409 C 0.29758 0.67245 0.12810
 O410 O 0.30771 0.69681 0.18265
 H411 H 0.18896 0.75897 0.11744
 H412 H 0.23029 0.68122 0.04770
   
