data_POSCAR
  _audit_creation_date              2014-09-24
  _audit_creation_method            'ToBaCCo'
  _symmetry_space_group_name_H-M    'P1'
  _symmetry_Int_Tables_number       1
  _symmetry_cell_setting            triclinic
  loop_
  _symmetry_equiv_pos_as_xyz
 x,y,z
_cell_length_a 42.5127
_cell_length_b 50.0500
_cell_length_c 43.2170
_cell_angle_alpha 90.181600
_cell_angle_beta 89.823700
_cell_angle_gamma 89.976300
loop_
  _atom_site_label
  _atom_site_type_symbol
  _atom_site_fract_x
  _atom_site_fract_y
  _atom_site_fract_z
Si1 Si 1.25155 0.24948 0.25284
 Si2 Si 0.75152 -0.25103 0.24553
 Si3 Si 0.75047 0.25089 -0.25272
 Si4 Si 1.24897 -0.24862 -0.24919
 Si5 Si 0.24847 0.24994 0.74532
 Si6 Si 0.75037 0.75056 0.75386
 Si7 Si 0.74709 0.25275 0.25144
 Si8 Si 0.24827 0.75187 0.24783
 N9 N 1.05499 0.03069 0.03467
 N10 N 1.07527 0.05007 0.04011
 N11 N 1.03370 -0.02612 0.05442
 N12 N 1.03936 -0.04536 0.07445
 N13 N 1.05562 -0.02548 0.03298
 N14 N 1.07684 -0.04426 0.03790
 N15 N 1.03323 0.03007 0.05627
 N16 N 1.03812 0.04902 0.07701
 C17 C 1.06437 0.06144 0.06653
 C18 C 1.06625 -0.05666 0.06375
 N19 N 0.94396 -0.02589 0.03335
 N20 N 0.92338 -0.04522 0.03794
 N21 N 0.96551 0.02964 0.05656
 N22 N 0.96004 0.04804 0.07783
 N23 N 0.94379 0.03028 0.03505
 N24 N 0.92301 0.04923 0.04104
 N25 N 0.96601 -0.02648 0.05453
 N26 N 0.96113 -0.04630 0.07402
 Mn27 Mn 0.99961 0.00176 0.05578
 C28 C 0.93451 -0.05790 0.06330
 C29 C 0.93357 0.06025 0.06774
 N30 N 1.05548 -0.02400 -0.03367
 N31 N 1.07626 -0.04299 -0.03926
 N32 N 1.03325 0.03237 -0.05342
 N33 N 1.03865 0.05168 -0.07347
 N34 N 1.05502 0.03210 -0.03195
 N35 N 1.07583 0.05120 -0.03682
 N36 N 1.03359 -0.02385 -0.05504
 N37 N 1.03887 -0.04283 -0.07572
 Mn38 Mn 1.05561 0.00334 0.00050
 C39 C 1.06553 -0.05469 -0.06546
 C40 C 1.06519 0.06340 -0.06270
 N41 N 0.94362 0.03161 -0.03165
 N42 N 0.92247 0.05044 -0.03648
 N43 N 0.96572 -0.02398 -0.05492
 N44 N 0.96073 -0.04290 -0.07566
 N45 N 0.94404 -0.02460 -0.03324
 N46 N 0.92382 -0.04408 -0.03852
 N47 N 0.96545 0.03216 -0.05320
 N48 N 0.95975 0.05143 -0.07322
 Mn49 Mn 0.94350 0.00287 0.00087
 Mn50 Mn 0.99951 0.00418 -0.05450
 Cl51 Cl 0.99956 0.00304 0.00065
 C52 C 0.93295 0.06280 -0.06237
 C53 C 0.93460 -0.05539 -0.06502
 N54 N 1.05694 0.52977 0.53210
 N55 N 1.07776 0.54892 0.53664
 N56 N 1.03446 0.47424 0.55423
 N57 N 1.03919 0.45496 0.57444
 N58 N 1.05587 0.47350 0.53230
 N59 N 1.07559 0.45351 0.53682
 N60 N 1.03515 0.53037 0.55367
 N61 N 1.04055 0.54995 0.57349
 C62 C 1.06716 0.56145 0.56247
 C63 C 1.06482 0.44210 0.56318
 N64 N 0.94476 0.47475 0.53331
 N65 N 0.92393 0.45577 0.53870
 N66 N 0.96732 0.53094 0.55427
 N67 N 0.96199 0.54997 0.57485
 N68 N 0.94534 0.53087 0.53300
 N69 N 0.92448 0.54982 0.53853
 N70 N 0.96673 0.47470 0.55460
 N71 N 0.96154 0.45555 0.57493
 Mn72 Mn 1.00092 0.50259 0.55454
 C73 C 0.93481 0.44382 0.56465
 C74 C 0.93528 0.56172 0.56460
 N75 N 1.05567 0.47327 0.46575
 N76 N 1.07573 0.45358 0.46092
 N77 N 1.03474 0.52976 0.44425
 N78 N 1.04046 0.54860 0.42366
 N79 N 1.05678 0.52940 0.46546
 N80 N 1.07812 0.54791 0.45982
 N81 N 1.03391 0.47349 0.44429
 N82 N 1.03858 0.45392 0.42424
 Mn83 Mn 1.05666 0.50146 0.49892
 C84 C 1.06470 0.44157 0.43502
 C85 C 1.06753 0.55989 0.43378
 N86 N 0.94507 0.53052 0.46641
 N87 N 0.92429 0.54956 0.46126
 N88 N 0.96622 0.47423 0.44484
 N89 N 0.96058 0.45522 0.42437
 N90 N 0.94448 0.47440 0.46648
 N91 N 0.92339 0.45559 0.46124
 N92 N 0.96685 0.53041 0.44481
 N93 N 0.96145 0.54941 0.42436
 Mn94 Mn 0.94458 0.50261 0.49980
 Mn95 Mn 1.00043 0.50200 0.44419
 Cl96 Cl 1.00064 0.50218 0.49936
 C97 C 0.93491 0.56132 0.43506
 C98 C 0.93388 0.44364 0.43499
 N99 N 0.55735 0.02607 0.53215
 N100 N 0.57844 0.04486 0.53740
 N101 N 0.53500 -0.02978 0.55407
 N102 N 0.54050 -0.04834 0.57502
 N103 N 0.55702 -0.02998 0.53272
 N104 N 0.57815 -0.04857 0.53861
 N105 N 0.53534 0.02650 0.55352
 N106 N 0.54079 0.04574 0.57380
 C107 C 0.56769 0.05713 0.56333
 C108 C 0.56740 -0.06004 0.56492
 N109 N 0.44544 -0.02946 0.53226
 N110 N 0.42471 -0.04857 0.53752
 N111 N 0.46753 0.02667 0.55335
 N112 N 0.46225 0.04589 0.57367
 N113 N 0.44605 0.02686 0.53159
 N114 N 0.42575 0.04643 0.53634
 N115 N 0.46724 -0.02940 0.55372
 N116 N 0.46195 -0.04842 0.57413
 Mn117 Mn 0.50126 -0.00151 0.55400
 C118 C 0.43543 -0.06034 0.56366
 C119 C 0.43625 0.05819 0.56264
 N120 N 0.55746 -0.03078 0.46616
 N121 N 0.57829 -0.04987 0.46122
 N122 N 0.53614 0.02525 0.44393
 N123 N 0.54149 0.04440 0.42365
 N124 N 0.55781 0.02531 0.46550
 N125 N 0.57857 0.04438 0.46041
 N126 N 0.53579 -0.03101 0.44459
 N127 N 0.54130 -0.05031 0.42438
 Mn128 Mn 0.55772 -0.00234 0.49912
 C129 C 0.56780 -0.06203 0.43519
 C130 C 0.56800 0.05625 0.43431
 N131 N 0.44650 0.02607 0.46493
 N132 N 0.42620 0.04546 0.45951
 N133 N 0.46797 -0.03062 0.44419
 N134 N 0.46230 -0.04946 0.42352
 N135 N 0.44582 -0.03015 0.46543
 N136 N 0.42446 -0.04867 0.45971
 N137 N 0.46843 0.02552 0.44350
 N138 N 0.46361 0.04443 0.42286
 Mn139 Mn 0.44558 -0.00167 0.49857
 Mn140 Mn 0.50209 -0.00274 0.44371
 Cl141 Cl 0.50164 -0.00207 0.49885
 C142 C 0.43728 0.05683 0.43324
 C143 C 0.43519 -0.06073 0.43361
 N144 N 0.55243 0.52852 0.03110
 N145 N 0.57340 0.54745 0.03602
 N146 N 0.53153 0.47261 0.05363
 N147 N 0.53708 0.45372 0.07414
 N148 N 0.55315 0.47245 0.03189
 N149 N 0.57407 0.45350 0.03706
 N150 N 0.53070 0.52884 0.05274
 N151 N 0.53627 0.54811 0.07295
 C152 C 0.56291 0.55967 0.06206
 C153 C 0.56363 0.44186 0.06342
 N154 N 0.44192 0.47116 0.03318
 N155 N 0.42171 0.45176 0.03901
 N156 N 0.46285 0.52794 0.05364
 N157 N 0.45710 0.54680 0.07428
 N158 N 0.44082 0.52747 0.03241
 N159 N 0.41960 0.54620 0.03795
 N160 N 0.46390 0.47193 0.05443
 N161 N 0.45924 0.45317 0.07530
 Mn162 Mn 0.49725 0.50036 0.05393
 C163 C 0.43295 0.44061 0.06530
 C164 C 0.43019 0.55820 0.06409
 N165 N 0.55269 0.47160 -0.03476
 N166 N 0.57389 0.45286 -0.04005
 N167 N 0.52988 0.52732 -0.05666
 N168 N 0.53465 0.54636 -0.07720
 N169 N 0.55186 0.52775 -0.03541
 N170 N 0.57218 0.54710 -0.04089
 N171 N 0.53077 0.47111 -0.05608
 N172 N 0.53646 0.45196 -0.07644
 Mn173 Mn 0.55285 0.50006 -0.00180
 C174 C 0.56337 0.44061 -0.06601
 C175 C 0.56105 0.55865 -0.06696
 N176 N 0.44027 0.52645 -0.03432
 N177 N 0.41924 0.54532 -0.03940
 N178 N 0.46301 0.47048 -0.05535
 N179 N 0.45766 0.45154 -0.07594
 N180 N 0.44133 0.47028 -0.03364
 N181 N 0.42063 0.45114 -0.03893
 N182 N 0.46209 0.52665 -0.05588
 N183 N 0.45655 0.54574 -0.07616
 Mn184 Mn 0.44071 0.49881 -0.00059
 Mn185 Mn 0.49642 0.49890 -0.05633
 Cl186 Cl 0.49679 0.49954 -0.00120
 C187 C 0.42980 0.55731 -0.06550
 C188 C 0.43129 0.43946 -0.06530
 C189 C 1.18734 0.19437 0.19254
 C190 C 1.21109 0.18334 0.21109
 C191 C 1.22993 0.19973 0.22946
 C192 C 1.22556 0.22747 0.22947
 C193 C 1.20132 0.23855 0.21172
 C194 C 1.18234 0.22213 0.19334
 C195 C 1.16830 0.17684 0.17218
 C196 C 1.13560 0.18027 0.16974
 C197 C 1.11774 0.16300 0.15131
 C198 C 1.13230 0.14211 0.13481
 C199 C 1.16506 0.13901 0.13690
 C200 C 1.18284 0.15616 0.15537
 C201 C 1.11349 0.12301 0.11618
 C202 C 1.12466 0.11392 0.08737
 C203 C 1.10826 0.09436 0.07090
 C204 C 1.08038 0.08347 0.08292
 C205 C 1.06865 0.09310 0.11125
 C206 C 1.08504 0.11271 0.12772
 H207 H 1.21503 0.16197 0.21147
 H208 H 1.24799 0.19055 0.24339
 H209 H 1.19738 0.25993 0.21175
 H210 H 1.16426 0.23119 0.17923
 H211 H 1.12376 0.19595 0.18258
 H212 H 1.09255 0.16599 0.14994
 H213 H 1.17692 0.12293 0.12476
 H214 H 1.20806 0.15325 0.15649
 H215 H 1.14625 0.12179 0.07767
 H216 H 1.11773 0.08745 0.04900
 H217 H 1.04717 0.08507 0.12102
 H218 H 1.07601 0.11914 0.14998
 C219 C 1.19047 0.69669 0.68454
 C220 C 1.18834 0.72465 0.68239
 C221 C 1.20592 0.74099 0.70218
 C222 C 1.22536 0.72964 0.72474
 C223 C 1.22766 0.70176 0.72677
 C224 C 1.21037 0.68545 0.70688
 C225 C 1.17207 0.67910 0.66372
 C226 C 1.18620 0.65654 0.65016
 C227 C 1.16859 0.63905 0.63193
 C228 C 1.13640 0.64366 0.62695
 C229 C 1.12235 0.66649 0.64006
 C230 C 1.14006 0.68413 0.65815
 C231 C 1.11750 0.62409 0.60911
 C232 C 1.08786 0.61584 0.61996
 C233 C 1.07117 0.59582 0.60447
 C234 C 1.08374 0.58377 0.57776
 C235 C 1.11290 0.59259 0.56637
 C236 C 1.12964 0.61250 0.58194
 H237 H 1.17346 0.73383 0.66512
 H238 H 1.20432 0.76249 0.69990
 H239 H 1.24284 0.69241 0.74357
 H240 H 1.21229 0.66397 0.70922
 H241 H 1.21090 0.65234 0.65383
 H242 H 1.17999 0.62150 0.62238
 H243 H 1.09764 0.67062 0.63640
 H244 H 1.12856 0.70130 0.66847
 H245 H 1.07806 0.62425 0.64100
 H246 H 1.04870 0.58943 0.61372
 H247 H 1.12307 0.58377 0.54574
 H248 H 1.15224 0.61871 0.57284
 C249 C 0.69013 0.19552 0.68317
 C250 C 0.72293 0.19762 0.67932
 C251 C 0.74056 0.21457 0.69824
 C252 C 0.72582 0.22996 0.72119
 C253 C 0.69305 0.22880 0.72440
 C254 C 0.67537 0.21159 0.70574
 C255 C 0.67163 0.17614 0.66435
 C256 C 0.64077 0.18207 0.65483
 C257 C 0.62331 0.16348 0.63779
 C258 C 0.63646 0.13872 0.62955
 C259 C 0.66729 0.13282 0.63882
 C260 C 0.68459 0.15121 0.65616
 C261 C 0.61811 0.11884 0.61162
 C262 C 0.63196 0.10539 0.58647
 C263 C 0.61526 0.08578 0.57036
 C264 C 0.58451 0.07898 0.57933
 C265 C 0.57046 0.09268 0.60420
 C266 C 0.58705 0.11256 0.62009
 H267 H 0.73505 0.18610 0.66171
 H268 H 0.76584 0.21544 0.69518
 H269 H 0.68101 0.24073 0.74162
 H270 H 0.65025 0.21038 0.70960
 H271 H 0.63017 0.20120 0.66026
 H272 H 0.59966 0.16859 0.63066
 H273 H 0.67781 0.11369 0.63318
 H274 H 0.70795 0.14563 0.66366
 H275 H 0.65576 0.11005 0.57930
 H276 H 0.62667 0.07558 0.55124
 H277 H 0.54676 0.08786 0.61154
 H278 H 0.57592 0.12254 0.63952
 C279 C 0.68908 0.69513 0.18187
 C280 C 0.67502 0.71115 0.20489
 C281 C 0.69336 0.72786 0.22350
 C282 C 0.72609 0.72852 0.21979
 C283 C 0.74015 0.71315 0.19642
 C284 C 0.72185 0.69670 0.17754
 C285 C 0.66987 0.67631 0.16306
 C286 C 0.68212 0.65125 0.15441
 C287 C 0.66416 0.63338 0.13702
 C288 C 0.63340 0.63996 0.12819
 C289 C 0.62093 0.66485 0.13693
 C290 C 0.63906 0.68292 0.15401
 C291 C 0.61444 0.62065 0.11017
 C292 C 0.58350 0.61446 0.11913
 C293 C 0.56647 0.59486 0.10325
 C294 C 0.57997 0.58141 0.07791
 C295 C 0.61054 0.58823 0.06839
 C296 C 0.62767 0.60754 0.08449
 H297 H 0.64993 0.71031 0.20910
 H298 H 0.68185 0.73983 0.24102
 H299 H 0.76539 0.71366 0.19297
 H300 H 0.73343 0.68520 0.15957
 H301 H 0.70541 0.64516 0.16156
 H302 H 0.67412 0.61412 0.13098
 H303 H 0.59733 0.67044 0.13015
 H304 H 0.62902 0.70218 0.15983
 H305 H 0.57287 0.62422 0.13898
 H306 H 0.54291 0.59001 0.11099
 H307 H 0.62151 0.57823 0.04889
 H308 H 0.65137 0.61217 0.07695
 C309 C 0.81455 -0.19804 0.18168
 C310 C 0.78177 -0.19880 0.17783
 C311 C 0.76320 -0.21499 0.19678
 C312 C 0.77710 -0.23076 0.21972
 C313 C 0.80990 -0.23079 0.22290
 C314 C 0.82847 -0.21436 0.20421
 C315 C 0.83401 -0.17955 0.16302
 C316 C 0.85664 -0.16338 0.17742
 C317 C 0.87392 -0.14487 0.16024
 C318 C 0.86921 -0.14233 0.12817
 C319 C 0.84698 -0.15899 0.11370
 C320 C 0.82942 -0.17728 0.13099
 C321 C 0.88668 -0.12177 0.11021
 C322 C 0.87184 -0.10773 0.08616
 C323 C 0.88768 -0.08743 0.07039
 C324 C 0.91854 -0.08050 0.07855
 C325 C 0.93365 -0.09477 0.10213
 C326 C 0.91797 -0.11529 0.11767
 H327 H 0.77044 -0.18629 0.16076
 H328 H 0.73790 -0.21488 0.19386
 H329 H 0.82129 -0.24319 0.23993
 H330 H 0.85374 -0.21440 0.20732
 H331 H 0.86030 -0.16448 0.20218
 H332 H 0.89034 -0.13205 0.17230
 H333 H 0.84314 -0.15794 0.08899
 H334 H 0.81233 -0.18975 0.11931
 H335 H 0.84764 -0.11185 0.08009
 H336 H 0.87544 -0.07667 0.05235
 H337 H 0.95757 -0.08999 0.10868
 H338 H 0.93036 -0.12603 0.13559
 C339 C 0.81411 0.30435 0.68430
 C340 C 0.78147 0.30290 0.67956
 C341 C 0.76279 0.28653 0.69821
 C342 C 0.77639 0.27124 0.72176
 C343 C 0.80907 0.27191 0.72587
 C344 C 0.82777 0.28853 0.70747
 C345 C 0.83363 0.32299 0.66580
 C346 C 0.85568 0.33963 0.68040
 C347 C 0.87297 0.35821 0.66330
 C348 C 0.86887 0.36040 0.63110
 C349 C 0.84723 0.34328 0.61646
 C350 C 0.82968 0.32491 0.63364
 C351 C 0.88640 0.38097 0.61312
 C352 C 0.87192 0.39439 0.58838
 C353 C 0.88790 0.41442 0.57225
 C354 C 0.91857 0.42172 0.58069
 C355 C 0.93327 0.40818 0.60510
 C356 C 0.91744 0.38793 0.62102
 H357 H 0.77031 0.31501 0.66201
 H358 H 0.73759 0.28615 0.69459
 H359 H 0.82027 0.25993 0.74343
 H360 H 0.85292 0.28901 0.71131
 H361 H 0.85887 0.33881 0.70524
 H362 H 0.88893 0.37136 0.67550
 H363 H 0.84389 0.34401 0.59165
 H364 H 0.81309 0.31208 0.62178
 H365 H 0.84790 0.38993 0.58193
 H366 H 0.87594 0.42461 0.55360
 H367 H 0.95702 0.41326 0.61193
 H368 H 0.92958 0.37771 0.63951
 C369 C 0.31108 -0.19350 0.68825
 C370 C 0.31119 -0.22136 0.68392
 C371 C 0.29257 -0.23779 0.70265
 C372 C 0.27361 -0.22665 0.72595
 C373 C 0.27291 -0.19885 0.72982
 C374 C 0.29156 -0.18245 0.71126
 C375 C 0.33125 -0.17586 0.66908
 C376 C 0.34746 -0.15448 0.68284
 C377 C 0.36560 -0.13719 0.66488
 C378 C 0.36794 -0.14083 0.63270
 C379 C 0.35201 -0.16240 0.61893
 C380 C 0.33394 -0.17982 0.63697
 C381 C 0.38631 -0.12168 0.61371
 C382 C 0.37442 -0.11218 0.58548
 C383 C 0.39069 -0.09262 0.56880
 C384 C 0.41918 -0.08226 0.58002
 C385 C 0.43153 -0.09235 0.60772
 C386 C 0.41527 -0.11183 0.62439
 H387 H 0.32606 -0.23044 0.66643
 H388 H 0.29309 -0.25922 0.69907
 H389 H 0.25803 -0.18961 0.74711
 H390 H 0.29047 -0.16102 0.71470
 H391 H 0.34612 -0.15111 0.70757
 H392 H 0.37728 -0.12059 0.67613
 H393 H 0.35359 -0.16582 0.59422
 H394 H 0.32153 -0.19603 0.62573
 H395 H 0.35203 -0.11922 0.57680
 H396 H 0.38065 -0.08523 0.54748
 H397 H 0.45356 -0.08487 0.61681
 H398 H 0.42527 -0.11907 0.64580
 C399 C 0.31517 0.30361 0.19065
 C400 C 0.32126 0.30067 0.22245
 C401 C 0.30243 0.28411 0.24069
 C402 C 0.27733 0.27004 0.22751
 C403 C 0.27180 0.27211 0.19567
 C404 C 0.29041 0.28888 0.17743
 C405 C 0.33390 0.32258 0.17165
 C406 C 0.34145 0.31673 0.14063
 C407 C 0.35830 0.33503 0.12267
 C408 C 0.36824 0.35941 0.13546
 C409 C 0.36093 0.36521 0.16645
 C410 C 0.34384 0.34708 0.18429
 C411 C 0.38585 0.37904 0.11658
 C412 C 0.41235 0.39196 0.12886
 C413 C 0.42805 0.41152 0.11183
 C414 C 0.41739 0.41874 0.08229
 C415 C 0.39124 0.40549 0.06972
 C416 C 0.37570 0.38570 0.08666
 H417 H 0.34054 0.31122 0.23330
 H418 H 0.30725 0.28254 0.26521
 H419 H 0.25280 0.26127 0.18485
 H420 H 0.28483 0.29084 0.15312
 H421 H 0.33459 0.29789 0.13028
 H422 H 0.36392 0.33000 0.09889
 H423 H 0.36788 0.38406 0.17672
 H424 H 0.33785 0.35255 0.20784
 H425 H 0.42086 0.38697 0.15172
 H426 H 0.44822 0.42134 0.12206
 H427 H 0.38259 0.41064 0.04696
 H428 H 0.35520 0.37613 0.07677
 C429 C 0.80822 0.19593 -0.18623
 C430 C 0.78787 0.18474 -0.20830
 C431 C 0.77069 0.20110 -0.22818
 C432 C 0.77356 0.22896 -0.22644
 C433 C 0.79337 0.24026 -0.20408
 C434 C 0.81081 0.22389 -0.18430
 C435 C 0.82673 0.17834 -0.16551
 C436 C 0.85873 0.18342 -0.15994
 C437 C 0.87650 0.16597 -0.14175
 C438 C 0.86254 0.14322 -0.12854
 C439 C 0.83038 0.13849 -0.13359
 C440 C 0.81271 0.15581 -0.15193
 C441 C 0.88154 0.12394 -0.11040
 C442 C 0.86936 0.11251 -0.08322
 C443 C 0.88642 0.09311 -0.06721
 C444 C 0.91593 0.08461 -0.07814
 C445 C 0.92846 0.09644 -0.10490
 C446 C 0.91147 0.11596 -0.12083
 H447 H 0.78556 0.16327 -0.21049
 H448 H 0.75519 0.19179 -0.24481
 H449 H 0.79546 0.26176 -0.20203
 H450 H 0.82599 0.23308 -0.16724
 H451 H 0.87020 0.20053 -0.17029
 H452 H 0.90117 0.17023 -0.13805
 H453 H 0.81904 0.12101 -0.12398
 H454 H 0.78802 0.15154 -0.15556
 H455 H 0.84655 0.11851 -0.07441
 H456 H 0.87623 0.08443 -0.04656
 H457 H 0.95117 0.09030 -0.11384
 H458 H 0.92134 0.12422 -0.14186
 C459 C 0.81031 0.69367 0.31046
 C460 C 0.78956 0.68257 0.28869
 C461 C 0.77205 0.69902 0.26921
 C462 C 0.77500 0.72686 0.27111
 C463 C 0.79525 0.73806 0.29315
 C464 C 0.81300 0.72161 0.31251
 C465 C 0.82903 0.67604 0.33085
 C466 C 0.86116 0.68099 0.33587
 C467 C 0.87903 0.66362 0.35403
 C468 C 0.86504 0.64113 0.36775
 C469 C 0.83280 0.63649 0.36315
 C470 C 0.81501 0.65371 0.34484
 C471 C 0.88403 0.62207 0.38611
 C472 C 0.87204 0.61138 0.41376
 C473 C 0.88898 0.59212 0.43004
 C474 C 0.91817 0.58303 0.41893
 C475 C 0.93056 0.59416 0.39171
 C476 C 0.91368 0.61356 0.37549
 H477 H 0.78717 0.66111 0.28646
 H478 H 0.75623 0.68982 0.25281
 H479 H 0.79741 0.75955 0.29528
 H480 H 0.82850 0.73070 0.32936
 H481 H 0.87259 0.69796 0.32518
 H482 H 0.90379 0.66777 0.35738
 H483 H 0.82146 0.61917 0.37317
 H484 H 0.79024 0.64957 0.34161
 H485 H 0.84945 0.61783 0.42269
 H486 H 0.87892 0.58398 0.45105
 H487 H 0.95304 0.58755 0.38265
 H488 H 0.92337 0.62129 0.35412
 C489 C 0.31670 0.19489 0.31258
 C490 C 0.29216 0.20942 0.32667
 C491 C 0.27307 0.22633 0.30916
 C492 C 0.27792 0.22874 0.27722
 C493 C 0.30276 0.21483 0.26317
 C494 C 0.32205 0.19815 0.28066
 C495 C 0.33599 0.17579 0.33080
 C496 C 0.34583 0.15147 0.31754
 C497 C 0.36346 0.13324 0.33464
 C498 C 0.37142 0.13875 0.36551
 C499 C 0.36161 0.16297 0.37889
 C500 C 0.34422 0.18137 0.36166
 C501 C 0.38941 0.11893 0.38370
 C502 C 0.37984 0.11207 0.41379
 C503 C 0.39566 0.09211 0.43013
 C504 C 0.42152 0.07888 0.41678
 C505 C 0.43163 0.08629 0.38706
 C506 C 0.41563 0.10602 0.37062
 H507 H 0.28713 0.20720 0.35110
 H508 H 0.25424 0.23701 0.32060
 H509 H 0.30702 0.21664 0.23855
 H510 H 0.34114 0.18776 0.26915
 H511 H 0.33934 0.14621 0.29410
 H512 H 0.37029 0.11452 0.32394
 H513 H 0.36771 0.16778 0.40257
 H514 H 0.33746 0.20007 0.37246
 H515 H 0.35956 0.12159 0.42431
 H516 H 0.38744 0.08682 0.45305
 H517 H 0.45155 0.07648 0.37624
 H518 H 0.42369 0.11116 0.34760
 C519 C 0.30876 0.69574 -0.18542
 C520 C 0.27615 0.69875 -0.18089
 C521 C 0.25868 0.71573 -0.19979
 C522 C 0.27341 0.73022 -0.22339
 C523 C 0.30602 0.72805 -0.22743
 C524 C 0.32353 0.71083 -0.20875
 C525 C 0.32702 0.67642 -0.16647
 C526 C 0.35816 0.68197 -0.15754
 C527 C 0.37538 0.66343 -0.14033
 C528 C 0.36172 0.63910 -0.13139
 C529 C 0.33060 0.63360 -0.14007
 C530 C 0.31351 0.65196 -0.15755
 C531 C 0.37989 0.61920 -0.11349
 C532 C 0.36613 0.60625 -0.08804
 C533 C 0.38266 0.58656 -0.07201
 C534 C 0.41314 0.57921 -0.08136
 C535 C 0.42711 0.59243 -0.10651
 C536 C 0.41070 0.61236 -0.12233
 H537 H 0.26407 0.68797 -0.16273
 H538 H 0.23352 0.71734 -0.19616
 H539 H 0.31800 0.73919 -0.24530
 H540 H 0.34850 0.70884 -0.21315
 H541 H 0.36915 0.70076 -0.16357
 H542 H 0.39926 0.66823 -0.13367
 H543 H 0.31969 0.61480 -0.13390
 H544 H 0.28989 0.64670 -0.16458
 H545 H 0.34253 0.61135 -0.08058
 H546 H 0.37134 0.57674 -0.05266
 H547 H 0.45062 0.58720 -0.11414
 H548 H 0.42175 0.62193 -0.14200
 C549 C 1.18741 -0.19345 -0.18574
 C550 C 1.17327 -0.20837 -0.20959
 C551 C 1.19126 -0.22555 -0.22812
 C552 C 1.22374 -0.22779 -0.22343
 C553 C 1.23779 -0.21361 -0.19916
 C554 C 1.21983 -0.19669 -0.18041
 C555 C 1.16876 -0.17400 -0.16711
 C556 C 1.18225 -0.14963 -0.15776
 C557 C 1.16489 -0.13118 -0.14048
 C558 C 1.13351 -0.13647 -0.13242
 C559 C 1.11982 -0.16066 -0.14190
 C560 C 1.13731 -0.17931 -0.15893
 C561 C 1.11524 -0.11659 -0.11437
 C562 C 1.08469 -0.10932 -0.12340
 C563 C 1.06829 -0.08937 -0.10732
 C564 C 1.08204 -0.07659 -0.08174
 C565 C 1.11223 -0.08439 -0.07223
 C566 C 1.12872 -0.10408 -0.08848
 H567 H 1.14845 -0.20626 -0.21454
 H568 H 1.17974 -0.23655 -0.24639
 H569 H 1.26281 -0.21535 -0.19495
 H570 H 1.23139 -0.18606 -0.16180
 H571 H 1.20612 -0.14454 -0.16425
 H572 H 1.17584 -0.11247 -0.13390
 H573 H 1.09572 -0.16530 -0.13573
 H574 H 1.12631 -0.19801 -0.16535
 H575 H 1.07387 -0.11856 -0.14340
 H576 H 1.04501 -0.08378 -0.11508
 H577 H 1.12337 -0.07493 -0.05253
 H578 H 1.15209 -0.10954 -0.08084
 C579 C 1.18815 0.30522 0.31370
 C580 C 1.18327 0.27744 0.31352
 C581 C 1.20218 0.26080 0.29519
 C582 C 1.22619 0.27167 0.27684
 C583 C 1.23055 0.29941 0.27640
 C584 C 1.21181 0.31602 0.29474
 C585 C 1.16895 0.32307 0.33367
 C586 C 1.18335 0.34405 0.34999
 C587 C 1.16540 0.36164 0.36785
 C588 C 1.13259 0.35870 0.36981
 C589 C 1.11817 0.33750 0.35384
 C590 C 1.13621 0.31977 0.33604
 C591 C 1.11364 0.37831 0.38772
 C592 C 1.08545 0.38857 0.37565
 C593 C 1.06906 0.40872 0.39137
 C594 C 1.08054 0.41894 0.41945
 C595 C 1.10811 0.40805 0.43203
 C596 C 1.12448 0.38796 0.41633
 H597 H 1.16525 0.26857 0.32795
 H598 H 1.19824 0.23942 0.29551
 H599 H 1.24842 0.30845 0.26202
 H600 H 1.21567 0.33739 0.29391
 H601 H 1.20858 0.34689 0.34889
 H602 H 1.17715 0.37795 0.37957
 H603 H 1.09295 0.33464 0.35513
 H604 H 1.12448 0.30386 0.32356
 H605 H 1.07666 0.38168 0.35353
 H606 H 1.04782 0.41673 0.38119
 H607 H 1.11737 0.41539 0.45377
 H608 H 1.14585 0.38013 0.42644
 C609 C 0.69277 -0.19554 0.31102
 C610 C 0.69009 -0.22347 0.31301
 C611 C 0.70781 -0.23998 0.29347
 C612 C 0.72801 -0.22885 0.27130
 C613 C 0.73098 -0.20102 0.26949
 C614 C 0.71350 -0.18450 0.28913
 C615 C 0.67404 -0.17784 0.33156
 C616 C 0.68803 -0.15541 0.34545
 C617 C 0.67020 -0.13806 0.36380
 C618 C 0.63795 -0.14268 0.36854
 C619 C 0.62401 -0.16530 0.35496
 C620 C 0.64192 -0.18278 0.33676
 C621 C 0.61888 -0.12343 0.38680
 C622 C 0.58926 -0.11507 0.37617
 C623 C 0.57232 -0.09547 0.39223
 C624 C 0.58461 -0.08398 0.41929
 C625 C 0.61376 -0.09290 0.43043
 C626 C 0.63076 -0.11238 0.41431
 H627 H 0.67462 -0.23250 0.32995
 H628 H 0.70568 -0.26146 0.29558
 H629 H 0.74681 -0.19187 0.25302
 H630 H 0.71589 -0.16305 0.28695
 H631 H 0.71280 -0.15126 0.34208
 H632 H 0.68151 -0.12065 0.37371
 H633 H 0.59925 -0.16944 0.35842
 H634 H 0.63051 -0.19983 0.32615
 H635 H 0.57966 -0.12308 0.35489
 H636 H 0.54987 -0.08899 0.38315
 H637 H 0.62374 -0.08448 0.45132
 H638 H 0.65333 -0.11870 0.42325
 C639 C 0.68999 0.30702 -0.18924
 C640 C 0.68731 0.27910 -0.18693
 C641 C 0.70550 0.26238 -0.20586
 C642 C 0.72620 0.27328 -0.22775
 C643 C 0.72911 0.30111 -0.22991
 C644 C 0.71116 0.31781 -0.21088
 C645 C 0.67093 0.32496 -0.16920
 C646 C 0.68471 0.34757 -0.15547
 C647 C 0.66667 0.36506 -0.13749
 C648 C 0.63439 0.36043 -0.13292
 C649 C 0.62063 0.33768 -0.14639
 C650 C 0.63877 0.32004 -0.16424
 C651 C 0.61517 0.37969 -0.11474
 C652 C 0.58542 0.38782 -0.12529
 C653 C 0.56827 0.40729 -0.10918
 C654 C 0.58047 0.41890 -0.08213
 C655 C 0.60979 0.41025 -0.07111
 C656 C 0.62699 0.39090 -0.08728
 H657 H 0.67151 0.27022 -0.17017
 H658 H 0.70338 0.24092 -0.20346
 H659 H 0.74527 0.31011 -0.24616
 H660 H 0.71358 0.33924 -0.21333
 H661 H 0.70950 0.35173 -0.15864
 H662 H 0.67786 0.38256 -0.12767
 H663 H 0.59586 0.33350 -0.14307
 H664 H 0.62749 0.30287 -0.17471
 H665 H 0.57583 0.37970 -0.14651
 H666 H 0.54571 0.41357 -0.11817
 H667 H 0.61972 0.41874 -0.05024
 H668 H 0.64963 0.38476 -0.07836
 C669 C 1.19002 0.19608 -0.18746
 C670 C 1.21399 0.18493 -0.20590
 C671 C 1.23150 0.20093 -0.22596
 C672 C 1.22519 0.22833 -0.22822
 C673 C 1.20177 0.23968 -0.20946
 C674 C 1.18414 0.22368 -0.18939
 C675 C 1.17116 0.17883 -0.16655
 C676 C 1.13842 0.18219 -0.16402
 C677 C 1.12052 0.16500 -0.14559
 C678 C 1.13498 0.14413 -0.12920
 C679 C 1.16780 0.14116 -0.13123
 C680 C 1.18567 0.15831 -0.14968
 C681 C 1.11593 0.12485 -0.11101
 C682 C 1.12682 0.11519 -0.08247
 C683 C 1.10996 0.09565 -0.06642
 C684 C 1.08185 0.08536 -0.07857
 C685 C 1.07046 0.09551 -0.10665
 C686 C 1.08733 0.11504 -0.12271
 H687 H 1.21897 0.16372 -0.20510
 H688 H 1.25006 0.19176 -0.23945
 H689 H 1.19701 0.26092 -0.21047
 H690 H 1.16618 0.23292 -0.17513
 H691 H 1.12654 0.19770 -0.17692
 H692 H 1.09532 0.16797 -0.14424
 H693 H 1.17963 0.12512 -0.11918
 H694 H 1.21089 0.15543 -0.15083
 H695 H 1.14852 0.12264 -0.07262
 H696 H 1.11919 0.08831 -0.04472
 H697 H 1.04885 0.08794 -0.11656
 H698 H 1.07848 0.12184 -0.14479
 C699 C 1.18969 0.69662 0.31101
 C700 C 1.17511 0.71084 0.28700
 C701 C 1.19248 0.72811 0.26817
 C702 C 1.22506 0.73120 0.27241
 C703 C 1.23938 0.71768 0.29711
 C704 C 1.22198 0.70062 0.31612
 C705 C 1.17144 0.67749 0.33039
 C706 C 1.18528 0.65353 0.34049
 C707 C 1.16813 0.63531 0.35824
 C708 C 1.13662 0.64046 0.36611
 C709 C 1.12271 0.66437 0.35609
 C710 C 1.13996 0.68274 0.33857
 C711 C 1.11831 0.62071 0.38430
 C712 C 1.08756 0.61375 0.37552
 C713 C 1.07090 0.59418 0.39180
 C714 C 1.08454 0.58139 0.41735
 C715 C 1.11498 0.58878 0.42656
 C716 C 1.13175 0.60814 0.41011
 H717 H 1.15030 0.70827 0.28230
 H718 H 1.18002 0.73872 0.25037
 H719 H 1.26403 0.72054 0.30227
 H720 H 1.23383 0.69073 0.33504
 H721 H 1.20923 0.64853 0.33415
 H722 H 1.17931 0.61686 0.36525
 H723 H 1.09856 0.66899 0.36213
 H724 H 1.12868 0.70117 0.33169
 H725 H 1.07672 0.62296 0.35558
 H726 H 1.04745 0.58890 0.38422
 H727 H 1.12606 0.57930 0.44620
 H728 H 1.15527 0.61333 0.41758
 C729 C 0.68782 0.19639 0.31546
 C730 C 0.72026 0.20002 0.32024
 C731 C 0.73757 0.21720 0.30135
 C732 C 0.72289 0.23123 0.27739
 C733 C 0.69033 0.22859 0.27337
 C734 C 0.67300 0.21116 0.29201
 C735 C 0.66977 0.17685 0.33436
 C736 C 0.63839 0.18193 0.34303
 C737 C 0.62131 0.16311 0.36004
 C738 C 0.63536 0.13898 0.36904
 C739 C 0.66674 0.13397 0.36066
 C740 C 0.68369 0.15261 0.34339
 C741 C 0.61734 0.11879 0.38671
 C742 C 0.63098 0.10602 0.41226
 C743 C 0.61462 0.08609 0.42812
 C744 C 0.58444 0.07834 0.41853
 C745 C 0.57057 0.09136 0.39327
 C746 C 0.58681 0.11152 0.37760
 H747 H 0.73230 0.18963 0.33867
 H748 H 0.76244 0.21963 0.30572
 H749 H 0.67811 0.23961 0.25568
 H750 H 0.64812 0.20882 0.28753
 H751 H 0.62707 0.20055 0.33692
 H752 H 0.59723 0.16754 0.36649
 H753 H 0.67796 0.11533 0.36690
 H754 H 0.70754 0.14773 0.33657
 H755 H 0.65435 0.11146 0.41994
 H756 H 0.62585 0.07644 0.44757
 H757 H 0.54729 0.08580 0.38544
 H758 H 0.57587 0.12094 0.35784
 C759 C 0.68566 0.69407 -0.18766
 C760 C 0.68469 0.72187 -0.18305
 C761 C 0.70407 0.73872 -0.20041
 C762 C 0.72480 0.72811 -0.22257
 C763 C 0.72603 0.70037 -0.22696
 C764 C 0.70661 0.68351 -0.20973
 C765 C 0.66503 0.67603 -0.16953
 C766 C 0.65007 0.65432 -0.18398
 C767 C 0.63158 0.63669 -0.16681
 C768 C 0.62770 0.64032 -0.13477
 C769 C 0.64228 0.66226 -0.12037
 C770 C 0.66069 0.67998 -0.13759
 C771 C 0.60943 0.62069 -0.11640
 C772 C 0.62075 0.61170 -0.08774
 C773 C 0.60467 0.59190 -0.07137
 C774 C 0.57693 0.58073 -0.08330
 C775 C 0.56513 0.59020 -0.11153
 C776 C 0.58125 0.60995 -0.12794
 H777 H 0.66862 0.73059 -0.16635
 H778 H 0.70279 0.76009 -0.19660
 H779 H 0.74193 0.69153 -0.24368
 H780 H 0.70826 0.66215 -0.21343
 H781 H 0.65269 0.65096 -0.20862
 H782 H 0.62092 0.61982 -0.17850
 H783 H 0.63948 0.66568 -0.09576
 H784 H 0.67211 0.69644 -0.12581
 H785 H 0.64257 0.61939 -0.07841
 H786 H 0.61429 0.58499 -0.04964
 H787 H 0.54369 0.58204 -0.12119
 H788 H 0.57175 0.61676 -0.14976
 C789 C 0.81436 -0.19501 -0.18448
 C790 C 0.79266 -0.21246 -0.17064
 C791 C 0.77404 -0.22925 -0.18885
 C792 C 0.77629 -0.22845 -0.22122
 C793 C 0.79844 -0.21146 -0.23502
 C794 C 0.81740 -0.19495 -0.21684
 C795 C 0.83316 -0.17642 -0.16534
 C796 C 0.86557 -0.17342 -0.17055
 C797 C 0.88302 -0.15510 -0.15319
 C798 C 0.86833 -0.13910 -0.13053
 C799 C 0.83588 -0.14236 -0.12523
 C800 C 0.81855 -0.16093 -0.14230
 C801 C 0.88647 -0.11854 -0.11315
 C802 C 0.87919 -0.11263 -0.08208
 C803 C 0.89504 -0.09228 -0.06635
 C804 C 0.91881 -0.07764 -0.08118
 C805 C 0.92675 -0.08393 -0.11189
 C806 C 0.91063 -0.10403 -0.12777
 H807 H 0.79026 -0.21317 -0.14569
 H808 H 0.75796 -0.24270 -0.17742
 H809 H 0.80122 -0.21093 -0.25987
 H810 H 0.83395 -0.18167 -0.22808
 H811 H 0.87741 -0.18537 -0.18798
 H812 H 0.90804 -0.15354 -0.15749
 H813 H 0.82361 -0.13005 -0.10845
 H814 H 0.79350 -0.16264 -0.13813
 H815 H 0.86121 -0.12373 -0.06985
 H816 H 0.88865 -0.08798 -0.04256
 H817 H 0.94491 -0.07286 -0.12391
 H818 H 0.91656 -0.10767 -0.15179
 C819 C 0.80998 0.30803 0.31277
 C820 C 0.77892 0.30208 0.32166
 C821 C 0.76031 0.28530 0.30343
 C822 C 0.77252 0.27400 0.27624
 C823 C 0.80349 0.27974 0.26734
 C824 C 0.82209 0.29659 0.28546
 C825 C 0.82938 0.32664 0.33146
 C826 C 0.84793 0.34615 0.31689
 C827 C 0.86567 0.36412 0.33439
 C828 C 0.86538 0.36295 0.36689
 C829 C 0.84699 0.34330 0.38147
 C830 C 0.82913 0.32537 0.36394
 C831 C 0.88369 0.38257 0.38539
 C832 C 0.87099 0.39376 0.41258
 C833 C 0.88759 0.41321 0.42909
 C834 C 0.91716 0.42193 0.41869
 C835 C 0.93018 0.41037 0.39193
 C836 C 0.91366 0.39087 0.37548
 H837 H 0.76879 0.31091 0.34231
 H838 H 0.73627 0.28136 0.31041
 H839 H 0.81323 0.27151 0.24619
 H840 H 0.84600 0.30066 0.27816
 H841 H 0.84817 0.34790 0.29192
 H842 H 0.87909 0.37933 0.32245
 H843 H 0.84660 0.34164 0.40644
 H844 H 0.81536 0.31032 0.37578
 H845 H 0.84782 0.38803 0.42064
 H846 H 0.87697 0.42182 0.44964
 H847 H 0.95305 0.41658 0.38351
 H848 H 0.92435 0.38230 0.35496
 C849 C 0.31077 -0.19490 0.30889
 C850 C 0.32286 -0.20637 0.28160
 C851 C 0.30413 -0.22297 0.26322
 C852 C 0.27294 -0.22851 0.27183
 C853 C 0.26080 -0.21705 0.29906
 C854 C 0.27957 -0.20055 0.31749
 C855 C 0.33030 -0.17650 0.32787
 C856 C 0.32950 -0.17767 0.36036
 C857 C 0.34732 -0.15988 0.37816
 C858 C 0.36628 -0.14044 0.36388
 C859 C 0.36718 -0.13941 0.33137
 C860 C 0.34946 -0.15724 0.31360
 C861 C 0.38460 -0.12097 0.38270
 C862 C 0.41481 -0.11288 0.37325
 C863 C 0.43142 -0.09365 0.39009
 C864 C 0.41827 -0.08212 0.41683
 C865 C 0.38841 -0.09058 0.42673
 C866 C 0.37173 -0.10977 0.40983
 H867 H 0.34686 -0.20252 0.27446
 H868 H 0.31405 -0.23106 0.24208
 H869 H 0.23663 -0.22054 0.30596
 H870 H 0.26940 -0.19165 0.33809
 H871 H 0.31529 -0.19252 0.37203
 H872 H 0.34646 -0.16150 0.40312
 H873 H 0.38104 -0.12439 0.31960
 H874 H 0.35017 -0.15553 0.28863
 H875 H 0.42566 -0.12144 0.35280
 H876 H 0.45449 -0.08764 0.38201
 H877 H 0.37766 -0.08200 0.44723
 H878 H 0.34839 -0.11530 0.41757
 C879 C 0.30721 0.30661 -0.19086
 C880 C 0.31179 0.27880 -0.19007
 C881 C 0.29408 0.26197 -0.20917
 C882 C 0.27159 0.27266 -0.22930
 C883 C 0.26627 0.30030 -0.22938
 C884 C 0.28410 0.31714 -0.21053
 C885 C 0.32665 0.32474 -0.17162
 C886 C 0.33926 0.34814 -0.18450
 C887 C 0.35726 0.36553 -0.16651
 C888 C 0.36287 0.36002 -0.13515
 C889 C 0.35028 0.33661 -0.12220
 C890 C 0.33250 0.31903 -0.14034
 C891 C 0.38150 0.37895 -0.11615
 C892 C 0.37116 0.38665 -0.08650
 C893 C 0.38764 0.40599 -0.06962
 C894 C 0.41486 0.41779 -0.08199
 C895 C 0.42572 0.40945 -0.11119
 C896 C 0.40916 0.39031 -0.12812
 H897 H 0.32948 0.27016 -0.17515
 H898 H 0.29815 0.24062 -0.20847
 H899 H 0.24827 0.30903 -0.24376
 H900 H 0.27960 0.33843 -0.21109
 H901 H 0.33536 0.35290 -0.20862
 H902 H 0.36639 0.38356 -0.17701
 H903 H 0.35441 0.33182 -0.09814
 H904 H 0.32287 0.30120 -0.12980
 H905 H 0.34980 0.37833 -0.07681
 H906 H 0.37879 0.41201 -0.04713
 H907 H 0.44672 0.41809 -0.12126
 H908 H 0.41788 0.38447 -0.15073
 C909 C 1.18885 -0.19163 0.18739
 C910 C 1.18550 -0.21946 0.18476
 C911 C 1.20332 -0.23658 0.20328
 C912 C 1.22468 -0.22630 0.22508
 C913 C 1.22779 -0.19842 0.22778
 C914 C 1.21011 -0.18133 0.20918
 C915 C 1.17054 -0.17331 0.16733
 C916 C 1.18500 -0.15083 0.15407
 C917 C 1.16770 -0.13315 0.13584
 C918 C 1.13550 -0.13746 0.13054
 C919 C 1.12109 -0.16010 0.14354
 C920 C 1.13846 -0.17790 0.16164
 C921 C 1.11694 -0.11794 0.11230
 C922 C 1.08692 -0.10988 0.12237
 C923 C 1.07022 -0.09031 0.10626
 C924 C 1.08313 -0.07847 0.07967
 C925 C 1.11277 -0.08698 0.06912
 C926 C 1.12954 -0.10646 0.08531
 H927 H 1.16961 -0.22801 0.16788
 H928 H 1.20078 -0.25796 0.20012
 H929 H 1.24399 -0.18948 0.24402
 H930 H 1.21293 -0.15996 0.21199
 H931 H 1.20976 -0.14694 0.15774
 H932 H 1.17940 -0.11575 0.12642
 H933 H 1.09638 -0.16407 0.13965
 H934 H 1.12664 -0.19496 0.17171
 H935 H 1.07673 -0.11815 0.14323
 H936 H 1.04740 -0.08416 0.11491
 H937 H 1.12324 -0.07828 0.04862
 H938 H 1.15244 -0.11252 0.07677
 C939 C 1.18541 0.30056 0.67899
 C940 C 1.21818 0.30443 0.68042
 C941 C 1.23679 0.28861 0.69960
 C942 C 1.22301 0.26926 0.71860
 C943 C 1.19058 0.26469 0.71676
 C944 C 1.17195 0.28009 0.69702
 C945 C 1.16544 0.31846 0.65968
 C946 C 1.13484 0.32542 0.66922
 C947 C 1.11694 0.34362 0.65225
 C948 C 1.12937 0.35588 0.62562
 C949 C 1.15968 0.34843 0.61568
 C950 C 1.17728 0.32976 0.63224
 C951 C 1.11144 0.37712 0.60909
 C952 C 1.11506 0.38092 0.57698
 C953 C 1.09985 0.40199 0.56201
 C954 C 1.08009 0.41933 0.57864
 C955 C 1.07560 0.41517 0.61041
 C956 C 1.09137 0.39454 0.62554
 H957 H 1.22953 0.32015 0.66740
 H958 H 1.26192 0.29210 0.70033
 H959 H 1.17957 0.24921 0.73043
 H960 H 1.14701 0.27590 0.69592
 H961 H 1.12489 0.31745 0.69033
 H962 H 1.09344 0.34827 0.66031
 H963 H 1.17036 0.35753 0.59556
 H964 H 1.20039 0.32448 0.62363
 H965 H 1.12965 0.36764 0.56331
 H966 H 1.10341 0.40466 0.53738
 H967 H 1.06064 0.42842 0.62378
 H968 H 1.08843 0.39279 0.65033
 C969 C 0.69081 -0.19279 0.69071
 C970 C 0.67624 -0.20733 0.71457
 C971 C 0.69377 -0.22446 0.73326
 C972 C 0.72632 -0.22707 0.72889
 C973 C 0.74087 -0.21296 0.70483
 C974 C 0.72333 -0.19604 0.68589
 C975 C 0.67227 -0.17420 0.67112
 C976 C 0.68543 -0.14993 0.66111
 C977 C 0.66801 -0.13231 0.64295
 C978 C 0.63693 -0.13840 0.63464
 C979 C 0.62365 -0.16256 0.64464
 C980 C 0.64119 -0.18035 0.66254
 C981 C 0.61841 -0.11937 0.61589
 C982 C 0.58747 -0.11266 0.62441
 C983 C 0.57066 -0.09360 0.60761
 C984 C 0.58438 -0.08116 0.58180
 C985 C 0.61499 -0.08841 0.57281
 C986 C 0.63191 -0.10722 0.58979
 H987 H 0.65132 -0.20518 0.71915
 H988 H 0.68165 -0.23544 0.75111
 H989 H 0.76573 -0.21533 0.70024
 H990 H 0.73521 -0.18574 0.66723
 H991 H 0.70904 -0.14427 0.66778
 H992 H 0.67864 -0.11362 0.63591
 H993 H 0.59983 -0.16784 0.63826
 H994 H 0.63049 -0.19906 0.66937
 H995 H 0.57662 -0.12163 0.64456
 H996 H 0.54707 -0.08840 0.61499
 H997 H 0.62613 -0.07918 0.55297
 H998 H 0.65559 -0.11228 0.58256
 C999 C 0.68633 0.30861 0.18857
 C1000 C 0.68276 0.28073 0.18692
 C1001 C 0.70071 0.26404 0.20581
 C1002 C 0.72231 0.27491 0.22685
 C1003 C 0.72569 0.30273 0.22870
 C1004 C 0.70790 0.31942 0.20974
 C1005 C 0.66787 0.32646 0.16820
 C1006 C 0.68236 0.34840 0.15384
 C1007 C 0.66492 0.36576 0.13538
 C1008 C 0.63256 0.36162 0.13096
 C1009 C 0.61810 0.33949 0.14503
 C1010 C 0.63562 0.32202 0.16337
 C1011 C 0.61390 0.38086 0.11253
 C1012 C 0.58440 0.38971 0.12315
 C1013 C 0.56777 0.40919 0.10686
 C1014 C 0.58027 0.42012 0.07959
 C1015 C 0.60934 0.41077 0.06848
 C1016 C 0.62603 0.39138 0.08483
 H1017 H 0.66655 0.27184 0.17058
 H1018 H 0.69800 0.24260 0.20372
 H1019 H 0.74217 0.31175 0.24461
 H1020 H 0.71086 0.34084 0.21180
 H1021 H 0.70725 0.35214 0.15687
 H1022 H 0.67663 0.38278 0.12511
 H1023 H 0.59324 0.33571 0.14181
 H1024 H 0.62382 0.30535 0.17431
 H1025 H 0.57461 0.38215 0.14457
 H1026 H 0.54537 0.41601 0.11592
 H1027 H 0.61946 0.41876 0.04743
 H1028 H 0.64852 0.38467 0.07589
 C1029 C 0.81052 0.19585 0.19152
 C1030 C 0.81392 0.19724 0.22385
 C1031 C 0.79505 0.21438 0.24146
 C1032 C 0.77257 0.23065 0.22720
 C1033 C 0.76980 0.23000 0.19488
 C1034 C 0.78835 0.21260 0.17724
 C1035 C 0.82970 0.17675 0.17290
 C1036 C 0.84025 0.18346 0.14301
 C1037 C 0.85776 0.16522 0.12543
 C1038 C 0.86546 0.14008 0.13753
 C1039 C 0.85518 0.13340 0.16740
 C1040 C 0.83734 0.15145 0.18482
 C1041 C 0.88387 0.12062 0.11903
 C1042 C 0.90919 0.10690 0.13242
 C1043 C 0.92580 0.08772 0.11546
 C1044 C 0.91713 0.08164 0.08491
 C1045 C 0.89207 0.09560 0.07134
 C1046 C 0.87571 0.11507 0.08820
 H1047 H 0.83134 0.18523 0.23559
 H1048 H 0.79840 0.21508 0.26622
 H1049 H 0.75325 0.24271 0.18305
 H1050 H 0.78487 0.21197 0.15245
 H1051 H 0.83530 0.20291 0.13328
 H1052 H 0.86569 0.17090 0.10253
 H1053 H 0.86043 0.11397 0.17706
 H1054 H 0.82907 0.14534 0.20742
 H1055 H 0.91610 0.11103 0.15606
 H1056 H 0.94505 0.07729 0.12647
 H1057 H 0.88496 0.09133 0.04780
 H1058 H 0.85614 0.12528 0.07744
 C1059 C 0.81161 0.69611 0.68951
 C1060 C 0.82424 0.70660 0.71704
 C1061 C 0.80617 0.72324 0.73610
 C1062 C 0.77523 0.72968 0.72794
 C1063 C 0.76254 0.71939 0.70053
 C1064 C 0.78059 0.70286 0.68139
 C1065 C 0.83036 0.67763 0.66979
 C1066 C 0.81604 0.65537 0.65582
 C1067 C 0.83366 0.63768 0.63769
 C1068 C 0.86604 0.64177 0.63321
 C1069 C 0.88040 0.66405 0.64708
 C1070 C 0.86274 0.68183 0.66513
 C1071 C 0.88474 0.62247 0.61463
 C1072 C 0.91436 0.61381 0.62493
 C1073 C 0.93111 0.59441 0.60835
 C1074 C 0.91861 0.58340 0.58111
 C1075 C 0.88941 0.59257 0.57036
 C1076 C 0.87262 0.61187 0.58699
 H1077 H 0.84783 0.70143 0.72424
 H1078 H 0.81622 0.73063 0.75745
 H1079 H 0.73858 0.72402 0.69399
 H1080 H 0.77028 0.69539 0.66018
 H1081 H 0.79130 0.65126 0.65943
 H1082 H 0.82206 0.62043 0.62775
 H1083 H 0.90525 0.66785 0.64372
 H1084 H 0.87438 0.69900 0.67520
 H1085 H 0.92416 0.62146 0.64629
 H1086 H 0.95359 0.58771 0.61714
 H1087 H 0.87927 0.58452 0.54935
 H1088 H 0.85006 0.61845 0.57827
 C1089 C 0.31217 0.19742 0.68082
 C1090 C 0.32537 0.21861 0.69798
 C1091 C 0.30657 0.23441 0.71738
 C1092 C 0.27422 0.22952 0.71972
 C1093 C 0.26074 0.20921 0.70183
 C1094 C 0.27952 0.19303 0.68300
 C1095 C 0.33229 0.17951 0.66140
 C1096 C 0.32033 0.16755 0.63437
 C1097 C 0.33828 0.14917 0.61751
 C1098 C 0.36904 0.14263 0.62674
 C1099 C 0.38148 0.15544 0.65303
 C1100 C 0.36326 0.17338 0.67029
 C1101 C 0.38751 0.12183 0.60977
 C1102 C 0.40856 0.10510 0.62572
 C1103 C 0.42496 0.08491 0.61018
 C1104 C 0.42020 0.08053 0.57848
 C1105 C 0.39944 0.09718 0.56234
 C1106 C 0.38355 0.11781 0.57772
 H1107 H 0.35020 0.22315 0.69633
 H1108 H 0.31734 0.25052 0.73029
 H1109 H 0.23568 0.20541 0.70302
 H1110 H 0.26841 0.17673 0.67071
 H1111 H 0.29690 0.17217 0.62626
 H1112 H 0.32759 0.13959 0.59768
 H1113 H 0.40527 0.15149 0.66055
 H1114 H 0.37331 0.18188 0.69108
 H1115 H 0.41181 0.10703 0.65045
 H1116 H 0.44069 0.07219 0.62320
 H1117 H 0.39563 0.09433 0.53778
 H1118 H 0.36819 0.13058 0.56441
 C1119 C 0.30895 0.69648 0.18656
 C1120 C 0.31144 0.69582 0.21891
 C1121 C 0.29312 0.71281 0.23732
 C1122 C 0.27201 0.73097 0.22382
 C1123 C 0.27061 0.73234 0.19133
 C1124 C 0.28851 0.71500 0.17294
 C1125 C 0.32744 0.67773 0.16713
 C1126 C 0.31268 0.66268 0.14388
 C1127 C 0.32980 0.64411 0.12641
 C1128 C 0.36223 0.64045 0.13147
 C1129 C 0.37704 0.65609 0.15432
 C1130 C 0.35978 0.67433 0.17213
 C1131 C 0.38029 0.61994 0.11364
 C1132 C 0.40488 0.60565 0.12774
 C1133 C 0.42140 0.58601 0.11139
 C1134 C 0.41344 0.57981 0.08071
 C1135 C 0.38903 0.59402 0.06644
 C1136 C 0.37279 0.61401 0.08264
 H1137 H 0.32719 0.68180 0.22998
 H1138 H 0.29587 0.71173 0.26209
 H1139 H 0.25600 0.74676 0.17972
 H1140 H 0.28670 0.71627 0.14799
 H1141 H 0.28767 0.66478 0.13982
 H1142 H 0.31739 0.63215 0.10949
 H1143 H 0.40205 0.65435 0.15845
 H1144 H 0.37175 0.68596 0.18968
 H1145 H 0.41098 0.60916 0.15170
 H1146 H 0.43999 0.57523 0.12305
 H1147 H 0.38258 0.58976 0.04271
 H1148 H 0.35445 0.62489 0.07076
   
