data_POSCAR
  _audit_creation_date              2014-09-24
  _audit_creation_method            'ToBaCCo'
  _symmetry_space_group_name_H-M    'P1'
  _symmetry_Int_Tables_number       1
  _symmetry_cell_setting            triclinic
  loop_
  _symmetry_equiv_pos_as_xyz
 x,y,z
_cell_length_a 54.9162
_cell_length_b 52.3542
_cell_length_c 22.3794
_cell_angle_alpha 89.507500
_cell_angle_beta 90.082000
_cell_angle_gamma 121.725800
loop_
  _atom_site_label
  _atom_site_type_symbol
  _atom_site_fract_x
  _atom_site_fract_y
  _atom_site_fract_z
C1 C 0.20239 0.53220 0.48638
 C2 C 0.21124 0.52411 0.43481
 C3 C 0.23080 0.51460 0.44130
 C4 C 0.24380 0.51621 0.49700
 C5 C 0.23397 0.52421 0.54776
 C6 C 0.21260 0.53128 0.54343
 C7 C 0.26854 0.51133 0.50157
 C8 C 0.27780 0.50676 0.55768
 C9 C 0.30309 0.50648 0.56249
 C10 C 0.31796 0.50778 0.51091
 C11 C 0.30878 0.51086 0.45453
 C12 C 0.28461 0.51333 0.45020
 H13 H 0.18500 0.53618 0.48249
 H14 H 0.23678 0.50736 0.40206
 H15 H 0.24375 0.52663 0.59079
 H16 H 0.26630 0.50438 0.59846
 H17 H 0.33693 0.50644 0.51503
 H18 H 0.27947 0.51800 0.40652
 C19 C 0.57814 -0.28236 0.52945
 C20 C 0.56920 -0.27757 0.47357
 C21 C 0.56420 -0.25383 0.46786
 C22 C 0.56676 -0.23620 0.51751
 C23 C 0.57576 -0.24171 0.57250
 C24 C 0.58051 -0.26539 0.57991
 C25 C 0.55751 -0.21398 0.51432
 C26 C 0.54538 -0.20911 0.56529
 C27 C 0.53672 -0.18837 0.56404
 C28 C 0.53926 -0.17294 0.51101
 C29 C 0.55139 -0.17701 0.45959
 C30 C 0.56037 -0.19772 0.46129
 H31 H 0.58198 -0.30053 0.53419
 H32 H 0.55583 -0.25083 0.42635
 H33 H 0.57928 -0.22728 0.61002
 H34 H 0.54209 -0.22171 0.60621
 H35 H 0.53217 -0.15713 0.51023
 H36 H 0.57023 -0.20046 0.42201
 C37 C 1.28714 0.83108 0.53112
 C38 C 1.27644 0.82919 0.47319
 C39 C 1.24646 0.81333 0.46594
 C40 C 1.22754 0.79673 0.51363
 C41 C 1.23937 0.79905 0.57099
 C42 C 1.26897 0.81667 0.57981
 C43 C 1.19597 0.77596 0.50218
 C44 C 1.17545 0.76543 0.54898
 C45 C 1.14623 0.74354 0.53869
 C46 C 1.13738 0.73659 0.47869
 C47 C 1.15723 0.74566 0.43223
 C48 C 1.18634 0.76440 0.44441
 H49 H 1.30990 0.84509 0.53962
 H50 H 1.23791 0.81262 0.42222
 H51 H 1.22617 0.78675 0.60901
 H52 H 1.18260 0.77286 0.59375
 H53 H 1.11497 0.72246 0.46746
 H54 H 1.20121 0.76904 0.40836
 C55 C 0.80722 0.48355 0.52174
 C56 C 0.80006 0.48842 0.46456
 C57 C 0.77705 0.49277 0.45801
 C58 C 0.75959 0.48982 0.50749
 C59 C 0.76727 0.48442 0.56454
 C60 C 0.79121 0.48182 0.57168
 C61 C 0.73265 0.49042 0.49905
 C62 C 0.71925 0.49556 0.54771
 C63 C 0.69213 0.49236 0.54165
 C64 C 0.68009 0.48695 0.48414
 C65 C 0.69338 0.48301 0.43508
 C66 C 0.71912 0.48409 0.44271
 H67 H 0.82560 0.48127 0.52762
 H68 H 0.77260 0.49764 0.41378
 H69 H 0.75441 0.48103 0.60370
 H70 H 0.72923 0.50066 0.59098
 H71 H 0.66066 0.48699 0.47613
 H72 H 0.72771 0.47899 0.40443
 C73 C 0.41080 0.26899 0.47362
 C74 C 0.40882 0.25070 0.42656
 C75 C 0.41505 0.22842 0.43691
 C76 C 0.42676 0.22652 0.49174
 C77 C 0.42882 0.24537 0.53884
 C78 C 0.42120 0.26710 0.53013
 C79 C 0.44058 0.20828 0.49575
 C80 C 0.44429 0.19719 0.55079
 C81 C 0.45993 0.18267 0.55339
 C82 C 0.46919 0.17683 0.49931
 C83 C 0.46460 0.18637 0.44434
 C84 C 0.45167 0.20323 0.44333
 H85 H 0.40511 0.28557 0.46484
 H86 H 0.41243 0.21396 0.40006
 H87 H 0.43907 0.24534 0.58008
 H88 H 0.43624 0.20103 0.59162
 H89 H 0.47851 0.16303 0.49954
 H90 H 0.45078 0.21266 0.40084
 C91 C 0.70987 0.16914 0.47845
 C92 C 0.72586 0.18273 0.42675
 C93 C 0.75542 0.20287 0.43099
 C94 C 0.76960 0.20885 0.48672
 C95 C 0.75291 0.19395 0.53811
 C96 C 0.72301 0.17497 0.53448
 C97 C 0.80124 0.23146 0.49124
 C98 C 0.81367 0.24659 0.54524
 C99 C 0.84320 0.26839 0.54932
 C100 C 0.85983 0.27657 0.49676
 C101 C 0.84767 0.26324 0.44184
 C102 C 0.81906 0.23943 0.44049
 H103 H 0.68697 0.15353 0.47475
 H104 H 0.76676 0.21433 0.39054
 H105 H 0.76277 0.19725 0.58142
 H106 H 0.80054 0.24115 0.58465
 H107 H 0.88170 0.29548 0.49739
 H108 H 0.81076 0.22791 0.39870
 N109 N 0.96335 0.51725 0.07094
 N110 N 0.94035 0.51686 0.08988
 N111 N 1.02817 0.54897 0.09758
 N112 N 1.04868 0.56802 0.13335
 N113 N 1.02104 0.56324 0.05976
 N114 N 1.03620 0.59247 0.06965
 N115 N 0.97024 0.50269 0.10859
 N116 N 0.95202 0.49178 0.15365
 C117 C 0.93332 0.50050 0.14121
 C118 C 1.05362 0.59505 0.11531
 N119 N 1.04812 0.49029 0.04949
 N120 N 1.07257 0.49147 0.05786
 N121 N 0.98671 0.45873 0.10211
 N122 N 0.97011 0.44021 0.14473
 N123 N 0.99043 0.44395 0.05957
 N124 N 0.97644 0.41490 0.07212
 N125 N 1.04433 0.50535 0.09122
 N126 N 1.06614 0.51759 0.12818
 Mn127 Mn 1.00732 0.50390 0.10036
 C128 C 1.08376 0.50910 0.10671
 C129 C 0.96377 0.41303 0.12517
 N130 N 1.01518 0.56193 -0.06926
 N131 N 1.02679 0.59037 -0.08604
 N132 N 0.96065 0.50011 -0.09912
 N133 N 0.93795 0.48643 -0.13360
 N134 N 0.95730 0.51564 -0.05775
 N135 N 0.93220 0.51327 -0.06370
 N136 N 1.01811 0.54652 -0.11161
 N137 N 1.03152 0.56383 -0.15805
 Mn138 Mn 0.98916 0.53982 0.00097
 C139 C 1.03721 0.59116 -0.14143
 C140 C 0.92028 0.49459 -0.11089
 N141 N 0.98476 0.44259 -0.06904
 N142 N 0.97015 0.41341 -0.07991
 N143 N 1.03484 0.50311 -0.11754
 N144 N 1.05427 0.51650 -0.15991
 N145 N 1.04240 0.48931 -0.07946
 N146 N 1.06716 0.49275 -0.09535
 N147 N 0.97697 0.45665 -0.10580
 N148 N 0.95658 0.43757 -0.14175
 Mn149 Mn 1.01657 0.46628 -0.00994
 Mn150 Mn 0.99762 0.50156 -0.10890
 Cl151 Cl 1.00267 0.50290 -0.00433
 C152 C 0.95235 0.41072 -0.12481
 C153 C 1.07437 0.50998 -0.14556
 N154 N 0.45585 0.42837 0.04636
 N155 N 0.44006 0.39876 0.05123
 N156 N 0.45999 0.48133 0.11534
 N157 N 0.45163 0.49106 0.16018
 N158 N 0.44055 0.47040 0.07311
 N159 N 0.41826 0.47224 0.08843
 N160 N 0.47578 0.43954 0.08759
 N161 N 0.47455 0.41788 0.12046
 C162 C 0.45254 0.39259 0.09669
 C163 C 0.42558 0.48523 0.14302
 N164 N 0.53879 0.54760 0.08730
 N165 N 0.54961 0.57510 0.10799
 N166 N 0.53493 0.48602 0.09611
 N167 N 0.54489 0.47267 0.12933
 N168 N 0.55496 0.50600 0.06033
 N169 N 0.57926 0.50695 0.06899
 N170 N 0.51936 0.52773 0.12421
 N171 N 0.51661 0.54103 0.17112
 Mn172 Mn 0.49752 0.48359 0.10624
 C173 C 0.53552 0.57054 0.16053
 C174 C 0.57243 0.48556 0.11153
 N175 N 0.44088 0.48338 -0.05297
 N176 N 0.41608 0.48096 -0.06409
 N177 N 0.47674 0.46224 -0.11653
 N178 N 0.47860 0.44944 -0.16514
 N179 N 0.45736 0.44213 -0.07983
 N180 N 0.44563 0.41488 -0.10262
 N181 N 0.46093 0.50369 -0.08830
 N182 N 0.45041 0.51579 -0.12360
 Mn183 Mn 0.44832 0.45577 -0.00339
 C184 C 0.42255 0.50183 -0.10748
 C185 C 0.45927 0.41995 -0.15595
 N186 N 0.55555 0.51951 -0.06574
 N187 N 0.57879 0.52002 -0.08343
 N188 N 0.52025 0.55033 -0.07949
 N189 N 0.52187 0.57206 -0.11276
 N190 N 0.54019 0.56138 -0.03826
 N191 N 0.55619 0.59096 -0.04323
 N192 N 0.53604 0.50865 -0.10782
 N193 N 0.54528 0.50122 -0.15486
 Mn194 Mn 0.54773 0.53387 0.01103
 Mn195 Mn 0.49848 0.50631 -0.09836
 Cl196 Cl 0.49801 0.49487 0.00384
 C197 C 0.57190 0.50831 -0.13917
 C198 C 0.54387 0.59727 -0.08874
 N199 N 0.44175 -0.03020 0.07494
 N200 N 0.41532 -0.04938 0.09374
 N201 N 0.49290 0.03342 0.10378
 N202 N 0.50129 0.05558 0.14175
 N203 N 0.47432 0.03271 0.06583
 N204 N 0.46936 0.05430 0.07748
 N205 N 0.46042 -0.02959 0.11259
 N206 N 0.44734 -0.04845 0.15727
 C207 C 0.41925 -0.06091 0.14483
 C208 C 0.48670 0.06863 0.12459
 N209 N 0.56006 0.03017 0.05619
 N210 N 0.58725 0.05175 0.06290
 N211 N 0.51222 -0.03080 0.10727
 N212 N 0.51065 -0.04720 0.15381
 N213 N 0.52720 -0.03302 0.06415
 N214 N 0.53588 -0.05133 0.08019
 N215 N 0.54416 0.03204 0.09754
 N216 N 0.55976 0.05497 0.13274
 Mn217 Mn 0.50240 0.00125 0.10565
 C218 C 0.58653 0.06722 0.11063
 C219 C 0.52488 -0.06043 0.13584
 N220 N 0.46966 0.02905 -0.06300
 N221 N 0.46480 0.05077 -0.07537
 N222 N 0.45296 -0.03554 -0.09639
 N223 N 0.43720 -0.05829 -0.13200
 N224 N 0.43713 -0.03398 -0.05442
 N225 N 0.40993 -0.05542 -0.06114
 N226 N 0.48570 0.02762 -0.10465
 N227 N 0.49250 0.04841 -0.14586
 Mn228 Mn 0.45535 -0.00062 0.00587
 C229 C 0.47949 0.06280 -0.12709
 C230 C 0.41047 -0.07062 -0.10945
 N231 N 0.52260 -0.03664 -0.06468
 N232 N 0.52696 -0.05870 -0.07598
 N233 N 0.53718 0.02601 -0.11093
 N234 N 0.55081 0.04520 -0.15505
 N235 N 0.55546 0.02632 -0.07264
 N236 N 0.58204 0.04555 -0.09001
 N237 N 0.50416 -0.03705 -0.10266
 N238 N 0.49523 -0.05945 -0.14016
 Mn239 Mn 0.54161 -0.00333 -0.00430
 Mn240 Mn 0.49499 -0.00471 -0.10415
 Cl241 Cl 0.49857 -0.00190 0.00078
 C242 C 0.50938 -0.07296 -0.12289
 C243 C 0.57878 0.05746 -0.14116
 C244 C 1.17030 0.52367 0.27276
 C245 C 1.17827 0.54646 0.31552
 C246 C 1.19293 0.54710 0.36717
 C247 C 1.19991 0.52518 0.37843
 C248 C 1.19412 0.50409 0.33337
 C249 C 1.17931 0.50317 0.28152
 C250 C 1.15136 0.52163 0.22208
 C251 C 1.13991 0.49833 0.17965
 C252 C 1.11926 0.49527 0.13853
 C253 C 1.10975 0.51540 0.13898
 C254 C 1.12266 0.53992 0.17762
 C255 C 1.14299 0.54300 0.21938
 C256 C 1.17071 0.56796 0.30787
 C257 C 1.15352 0.56634 0.26067
 H258 H 1.17735 0.58577 0.34010
 H259 H 1.14738 0.58290 0.25795
 H260 H 1.19883 0.56490 0.39907
 H261 H 1.19909 0.48680 0.33961
 H262 H 1.10952 0.47618 0.10891
 H263 H 1.11557 0.55574 0.17764
 H264 H 1.17437 0.48572 0.24977
 H265 H 1.14567 0.48155 0.17924
 C266 C 0.55352 0.66111 0.33314
 C267 C 0.54661 0.65109 0.39306
 C268 C 0.55194 0.67150 0.43860
 C269 C 0.56332 0.70218 0.42616
 C270 C 0.56818 0.71167 0.36593
 C271 C 0.56375 0.69154 0.32014
 C272 C 0.54914 0.63861 0.28648
 C273 C 0.55834 0.64650 0.22662
 C274 C 0.55420 0.62453 0.18544
 C275 C 0.54042 0.59426 0.20289
 C276 C 0.53123 0.58627 0.26217
 C277 C 0.53598 0.60809 0.30408
 C278 C 0.53402 0.62061 0.40748
 C279 C 0.52830 0.59950 0.36376
 H280 H 0.52831 0.61290 0.45334
 H281 H 0.51833 0.57614 0.37717
 H282 H 0.54591 0.66295 0.48390
 H283 H 0.57678 0.73499 0.35413
 H284 H 0.56156 0.63117 0.13984
 H285 H 0.52095 0.56297 0.27628
 H286 H 0.56840 0.70016 0.27492
 H287 H 0.56914 0.66951 0.21114
 C288 C 0.33539 -0.13115 0.32770
 C289 C 0.30854 -0.13355 0.32483
 C290 C 0.28875 -0.14717 0.37219
 C291 C 0.29560 -0.15780 0.42390
 C292 C 0.32238 -0.15546 0.42539
 C293 C 0.34179 -0.14252 0.37841
 C294 C 0.35633 -0.11561 0.27760
 C295 C 0.38350 -0.11228 0.27679
 C296 C 0.40322 -0.09547 0.23209
 C297 C 0.39643 -0.08177 0.18651
 C298 C 0.36886 -0.08634 0.18463
 C299 C 0.34882 -0.10303 0.23011
 C300 C 0.30194 -0.12163 0.27543
 C301 C 0.32170 -0.10655 0.22932
 H302 H 0.28137 -0.12346 0.27292
 H303 H 0.31577 -0.09716 0.19284
 H304 H 0.26877 -0.14777 0.36969
 H305 H 0.32829 -0.16464 0.46218
 H306 H 0.42421 -0.09266 0.23402
 H307 H 0.36342 -0.07589 0.14936
 H308 H 0.36177 -0.14159 0.38322
 H309 H 0.39029 -0.12191 0.31072
 C310 C 0.85000 0.48632 0.31809
 C311 C 0.84222 0.50818 0.31850
 C312 C 0.82528 0.50850 0.36540
 C313 C 0.81602 0.48727 0.41209
 C314 C 0.82266 0.46483 0.40970
 C315 C 0.83932 0.46427 0.36354
 C316 C 0.86984 0.48802 0.27008
 C317 C 0.88063 0.46885 0.26900
 C318 C 0.90059 0.47258 0.22598
 C319 C 0.91008 0.49520 0.18235
 C320 C 0.89878 0.51381 0.18147
 C321 C 0.87913 0.51073 0.22564
 C322 C 0.85180 0.52981 0.27270
 C323 C 0.86964 0.53088 0.22700
 H324 H 0.84566 0.54638 0.27249
 H325 H 0.87670 0.54827 0.19303
 H326 H 0.82012 0.52583 0.36657
 H327 H 0.81503 0.44761 0.44414
 H328 H 0.90897 0.45792 0.22743
 H329 H 0.90627 0.53157 0.14819
 H330 H 0.84371 0.44649 0.36474
 H331 H 0.87461 0.45132 0.30183
 C332 C 0.41468 0.29335 0.25873
 C333 C 0.43512 0.28590 0.27517
 C334 C 0.43085 0.26849 0.32651
 C335 C 0.40753 0.26014 0.36464
 C336 C 0.38684 0.26675 0.34773
 C337 C 0.39009 0.28275 0.29487
 C338 C 0.42180 0.31503 0.20777
 C339 C 0.40277 0.32340 0.18637
 C340 C 0.41213 0.34717 0.14549
 C341 C 0.44061 0.36311 0.12580
 C342 C 0.45896 0.35336 0.14273
 C343 C 0.44963 0.32914 0.18262
 C344 C 0.46100 0.29817 0.24375
 C345 C 0.46840 0.31990 0.19943
 H346 H 0.47659 0.29237 0.25627
 H347 H 0.48943 0.33017 0.17906
 H348 H 0.44732 0.26415 0.34024
 H349 H 0.36887 0.26077 0.37696
 H350 H 0.39768 0.35444 0.13256
 H351 H 0.48094 0.36557 0.12686
 H352 H 0.37410 0.28824 0.28515
 H353 H 0.38096 0.31256 0.20215
 C354 C 0.67489 0.15046 0.26845
 C355 C 0.69928 0.14807 0.27482
 C356 C 0.71750 0.16105 0.32426
 C357 C 0.71102 0.17536 0.36859
 C358 C 0.68770 0.17893 0.36078
 C359 C 0.67001 0.16698 0.31110
 C360 C 0.65397 0.13308 0.21980
 C361 C 0.62833 0.13270 0.21227
 C362 C 0.60731 0.11245 0.17349
 C363 C 0.61147 0.09254 0.14013
 C364 C 0.63799 0.09464 0.14263
 C365 C 0.65913 0.11450 0.18297
 C366 C 0.70428 0.13112 0.23404
 C367 C 0.68457 0.11459 0.18927
 H368 H 0.72310 0.12954 0.23843
 H369 H 0.68881 0.10078 0.16058
 H370 H 0.73544 0.15807 0.33063
 H371 H 0.68252 0.19006 0.39457
 H372 H 0.58713 0.11150 0.17141
 H373 H 0.64129 0.07926 0.11685
 H374 H 0.65197 0.16981 0.30861
 H375 H 0.62346 0.14689 0.23761
 C376 C 0.47670 0.14628 -0.29294
 C377 C 0.45145 0.14728 -0.29526
 C378 C 0.44672 0.16153 -0.34391
 C379 C 0.46624 0.17332 -0.39216
 C380 C 0.49206 0.17386 -0.38687
 C381 C 0.49734 0.16091 -0.33814
 C382 C 0.47963 0.12802 -0.24472
 C383 C 0.50319 0.12428 -0.24164
 C384 C 0.50336 0.10404 -0.20126
 C385 C 0.48039 0.08735 -0.16198
 C386 C 0.45767 0.09240 -0.16134
 C387 C 0.45694 0.11232 -0.20317
 C388 C 0.43049 0.13265 -0.25071
 C389 C 0.43316 0.11554 -0.20574
 H390 H 0.41124 0.13357 -0.25180
 H391 H 0.41589 0.10385 -0.17363
 H392 H 0.42668 0.16084 -0.34648
 H393 H 0.50852 0.18439 -0.42097
 H394 H 0.52131 0.10084 -0.20190
 H395 H 0.43982 0.07950 -0.13102
 H396 H 0.51744 0.16192 -0.33804
 H397 H 0.52134 0.13587 -0.27126
 C398 C 0.64475 0.49752 -0.31217
 C399 C 0.63071 0.47984 -0.36275
 C400 C 0.64653 0.47787 -0.40946
 C401 C 0.67673 0.49377 -0.40857
 C402 C 0.69056 0.51067 -0.35714
 C403 C 0.67486 0.51260 -0.30987
 C404 C 0.62677 0.49971 -0.26419
 C405 C 0.63828 0.51671 -0.21170
 C406 C 0.62048 0.51895 -0.16992
 C407 C 0.59092 0.50445 -0.17978
 C408 C 0.57925 0.48683 -0.23082
 C409 C 0.59675 0.48428 -0.27267
 C410 C 0.60085 0.46437 -0.36719
 C411 C 0.58426 0.46667 -0.32329
 H412 H 0.59011 0.45066 -0.40584
 H413 H 0.56125 0.45466 -0.32941
 H414 H 0.63482 0.46299 -0.44604
 H415 H 0.71365 0.52377 -0.35402
 H416 H 0.62993 0.53260 -0.13064
 H417 H 0.55636 0.47523 -0.23848
 H418 H 0.68673 0.52645 -0.27246
 H419 H 0.66092 0.52868 -0.20248
 C420 C 0.88301 0.31790 -0.29278
 C421 C 0.89802 0.30983 -0.33180
 C422 C 0.88461 0.29318 -0.38332
 C423 C 0.85582 0.28327 -0.39624
 C424 C 0.84040 0.28929 -0.35427
 C425 C 0.85381 0.30651 -0.30368
 C426 C 0.89916 0.33890 -0.24258
 C427 C 0.88766 0.35246 -0.20792
 C428 C 0.90469 0.37468 -0.16675
 C429 C 0.93316 0.38309 -0.15757
 C430 C 0.94447 0.36870 -0.18924
 C431 C 0.92800 0.34744 -0.23309
 C432 C 0.92640 0.31862 -0.31947
 C433 C 0.94086 0.33648 -0.27040
 H434 H 0.93774 0.31186 -0.34859
 H435 H 0.96293 0.34301 -0.26332
 H436 H 0.89663 0.28745 -0.41286
 H437 H 0.81835 0.28252 -0.36197
 H438 H 0.89592 0.38615 -0.14344
 H439 H 0.96683 0.37602 -0.18356
 H440 H 0.84102 0.31099 -0.27407
 H441 H 0.86612 0.34747 -0.21427
 C442 C 0.51350 -0.15541 -0.28555
 C443 C 0.53798 -0.15781 -0.28292
 C444 C 0.54413 -0.17108 -0.33019
 C445 C 0.52677 -0.18094 -0.38120
 C446 C 0.50185 -0.17986 -0.38248
 C447 C 0.49508 -0.16755 -0.33510
 C448 C 0.50956 -0.13787 -0.23803
 C449 C 0.48666 -0.13303 -0.23842
 C450 C 0.48606 -0.11309 -0.19861
 C451 C 0.50799 -0.09775 -0.15679
 C452 C 0.52966 -0.10425 -0.15247
 C453 C 0.53076 -0.12396 -0.19323
 C454 C 0.55709 -0.14534 -0.23503
 C455 C 0.55362 -0.12865 -0.19128
 H456 H 0.57567 -0.14744 -0.23265
 H457 H 0.56963 -0.11842 -0.15652
 H458 H 0.56357 -0.17167 -0.32935
 H459 H 0.48810 -0.18761 -0.42135
 H460 H 0.46877 -0.10889 -0.20197
 H461 H 0.54658 -0.09262 -0.11993
 H462 H 0.47600 -0.16665 -0.33954
 H463 H 0.46947 -0.14357 -0.27029
 C464 C 0.34571 0.50770 -0.27554
 C465 C 0.35871 0.53200 -0.31677
 C466 C 0.34381 0.53191 -0.36759
 C467 C 0.31609 0.50780 -0.37892
 C468 C 0.30246 0.48446 -0.33689
 C469 C 0.31709 0.48434 -0.28559
 C470 C 0.36369 0.50724 -0.22534
 C471 C 0.35364 0.48341 -0.18352
 C472 C 0.37237 0.48245 -0.14226
 C473 C 0.40141 0.50520 -0.14184
 C474 C 0.41109 0.52997 -0.18024
 C475 C 0.39267 0.53107 -0.22204
 C476 C 0.38696 0.55568 -0.30872
 C477 C 0.40359 0.55522 -0.26235
 H478 H 0.39670 0.57442 -0.33998
 H479 H 0.42567 0.57360 -0.25926
 H480 H 0.35421 0.55014 -0.39995
 H481 H 0.28097 0.46572 -0.34503
 H482 H 0.36441 0.46315 -0.11277
 H483 H 0.43348 0.54782 -0.17964
 H484 H 0.30598 0.46542 -0.25542
 H485 H 0.33172 0.46485 -0.18334
 C486 C 1.09368 0.68643 -0.31799
 C487 C 1.08756 0.67714 -0.37808
 C488 C 1.10386 0.69674 -0.42455
 C489 C 1.12715 0.72613 -0.41361
 C490 C 1.13215 0.73570 -0.35352
 C491 C 1.11571 0.71625 -0.30663
 C492 C 1.07742 0.66345 -0.26961
 C493 C 1.08206 0.66964 -0.20784
 C494 C 1.06804 0.64649 -0.16515
 C495 C 1.04945 0.61683 -0.18345
 C496 C 1.04365 0.61084 -0.24428
 C497 C 1.05727 0.63366 -0.28714
 C498 C 1.06614 0.64767 -0.39197
 C499 C 1.05140 0.62638 -0.34749
 H500 H 1.06129 0.64065 -0.43812
 H501 H 1.03565 0.60363 -0.36065
 H502 H 1.09955 0.68742 -0.46894
 H503 H 1.14870 0.75829 -0.34183
 H504 H 1.07262 0.65153 -0.11816
 H505 H 1.02885 0.58798 -0.25855
 H506 H 1.12099 0.72475 -0.26170
 H507 H 1.09684 0.69200 -0.19184
 C508 C 0.82905 0.47415 -0.26756
 C509 C 0.82440 0.49817 -0.27490
 C510 C 0.80944 0.49915 -0.32509
 C511 C 0.79998 0.47701 -0.36901
 C512 C 0.80301 0.45237 -0.35981
 C513 C 0.81705 0.45069 -0.30944
 C514 C 0.84876 0.47616 -0.21891
 C515 C 0.85664 0.45471 -0.21159
 C516 C 0.87876 0.46009 -0.17315
 C517 C 0.89309 0.48652 -0.13990
 C518 C 0.88363 0.50670 -0.14216
 C519 C 0.86191 0.50198 -0.18235
 C520 C 0.83634 0.52198 -0.23439
 C521 C 0.85470 0.52385 -0.18909
 H522 H 0.83247 0.54016 -0.23943
 H523 H 0.86441 0.54341 -0.16062
 H524 H 0.80721 0.51833 -0.33246
 H525 H 0.79560 0.43499 -0.39324
 H526 H 0.88552 0.44402 -0.17129
 H527 H 0.89474 0.52722 -0.11654
 H528 H 0.81940 0.43156 -0.30588
 H529 H 0.84704 0.43432 -0.23707
 C530 C 0.43754 0.33279 -0.33879
 C531 C 0.42879 0.30322 -0.32072
 C532 C 0.42413 0.28162 -0.36386
 C533 C 0.42655 0.28863 -0.42549
 C534 C 0.43466 0.31808 -0.44239
 C535 C 0.44009 0.33968 -0.40009
 C536 C 0.44324 0.35549 -0.29199
 C537 C 0.45491 0.38605 -0.30583
 C538 C 0.45982 0.40646 -0.26118
 C539 C 0.45303 0.39712 -0.20150
 C540 C 0.44159 0.36676 -0.18670
 C541 C 0.43724 0.34599 -0.23153
 C542 C 0.42407 0.29533 -0.25989
 C543 C 0.42766 0.31609 -0.21641
 H544 H 0.41704 0.27261 -0.24576
 H545 H 0.42333 0.30874 -0.17014
 H546 H 0.41721 0.25898 -0.34933
 H547 H 0.43820 0.32527 -0.48871
 H548 H 0.46889 0.42980 -0.27366
 H549 H 0.43689 0.35954 -0.14038
 H550 H 0.44607 0.36161 -0.41675
 H551 H 0.46090 0.39489 -0.35064
 C552 C 0.66754 0.13164 -0.31343
 C553 C 0.66002 0.14512 -0.35903
 C554 C 0.67886 0.16027 -0.40665
 C555 C 0.70494 0.16151 -0.41127
 C556 C 0.71274 0.14874 -0.36552
 C557 C 0.69433 0.13404 -0.31707
 C558 C 0.64603 0.11434 -0.26492
 C559 C 0.65130 0.10030 -0.21687
 C560 C 0.62977 0.08271 -0.17526
 C561 C 0.60250 0.07860 -0.18078
 C562 C 0.59742 0.09352 -0.22676
 C563 C 0.61891 0.11141 -0.26845
 C564 C 0.63335 0.14260 -0.35814
 C565 C 0.61313 0.12586 -0.31415
 H566 H 0.62770 0.15305 -0.39300
 H567 H 0.59250 0.12393 -0.31635
 H568 H 0.67287 0.17061 -0.44115
 H569 H 0.73268 0.14926 -0.36813
 H570 H 0.63420 0.07153 -0.13980
 H571 H 0.57650 0.09080 -0.23075
 H572 H 0.70115 0.12405 -0.28390
 H573 H 0.67172 0.10228 -0.21108
 C574 C 1.16569 0.53626 -0.31128
 C575 C 1.17869 0.51914 -0.30559
 C576 C 1.19635 0.51955 -0.35165
 C577 C 1.20024 0.53580 -0.40513
 C578 C 1.18897 0.55452 -0.40793
 C579 C 1.17220 0.55493 -0.36182
 C580 C 1.14424 0.53243 -0.26507
 C581 C 1.12873 0.54688 -0.26942
 C582 C 1.10678 0.54014 -0.22919
 C583 C 1.09983 0.51911 -0.18309
 C584 C 1.11614 0.50577 -0.17610
 C585 C 1.13804 0.51200 -0.21719
 C586 C 1.17272 0.50045 -0.25549
 C587 C 1.15288 0.49700 -0.21221
 H588 H 1.18287 0.48753 -0.25059
 H589 H 1.14841 0.48159 -0.17529
 H590 H 1.20465 0.50485 -0.34780
 H591 H 1.19296 0.56900 -0.44625
 H592 H 1.09475 0.55103 -0.23510
 H593 H 1.11093 0.48951 -0.14046
 H594 H 1.16392 0.56942 -0.36772
 H595 H 1.13253 0.56280 -0.30450
 C596 C 0.57934 0.69458 -0.25427
 C597 C 0.59727 0.69580 -0.30085
 C598 C 0.59937 0.71098 -0.35439
 C599 C 0.58402 0.72547 -0.36247
 C600 C 0.56940 0.72751 -0.31270
 C601 C 0.56693 0.71212 -0.25956
 C602 C 0.57305 0.67325 -0.20319
 C603 C 0.55092 0.66556 -0.16150
 C604 C 0.54263 0.64196 -0.12086
 C605 C 0.55688 0.62635 -0.11950
 C606 C 0.58011 0.63501 -0.15783
 C607 C 0.58767 0.65762 -0.20095
 C608 C 0.61206 0.68080 -0.29470
 C609 C 0.60783 0.66263 -0.24507
 H610 H 0.62648 0.68243 -0.32961
 H611 H 0.61912 0.65079 -0.24323
 H612 H 0.61256 0.71092 -0.39029
 H613 H 0.55744 0.73856 -0.31600
 H614 H 0.52420 0.63493 -0.09232
 H615 H 0.59042 0.62213 -0.15792
 H616 H 0.55432 0.71331 -0.22399
 H617 H 0.53853 0.67612 -0.16218
 C618 C 0.31877 -0.15467 -0.26115
 C619 C 0.29525 -0.15076 -0.26738
 C620 C 0.27674 -0.16320 -0.31656
 C621 C 0.28191 -0.17882 -0.36030
 C622 C 0.30363 -0.18486 -0.35124
 C623 C 0.32167 -0.17326 -0.30197
 C624 C 0.34089 -0.13674 -0.21475
 C625 C 0.36677 -0.13617 -0.21043
 C626 C 0.38868 -0.11564 -0.17349
 C627 C 0.38520 -0.09565 -0.13877
 C628 C 0.35875 -0.09758 -0.13880
 C629 C 0.33682 -0.11748 -0.17765
 C630 C 0.29153 -0.13282 -0.22683
 C631 C 0.31176 -0.11672 -0.18261
 H632 H 0.27326 -0.13024 -0.23082
 H633 H 0.30842 -0.10227 -0.15385
 H634 H 0.25994 -0.15848 -0.32362
 H635 H 0.30770 -0.19714 -0.38441
 H636 H 0.40888 -0.11467 -0.17364
 H637 H 0.35606 -0.08198 -0.11230
 H638 H 0.33853 -0.17794 -0.29850
 H639 H 0.37116 -0.15031 -0.23722
 C640 C 0.55010 -0.12660 0.30805
 C641 C 0.56003 -0.11291 0.36441
 C642 C 0.56303 -0.12876 0.41152
 C643 C 0.55449 -0.15899 0.40530
 C644 C 0.54566 -0.17235 0.34902
 C645 C 0.54365 -0.15630 0.30072
 C646 C 0.54520 -0.10942 0.26030
 C647 C 0.53656 -0.12007 0.20157
 C648 C 0.53064 -0.10380 0.16014
 C649 C 0.53262 -0.07708 0.17696
 C650 C 0.54207 -0.06584 0.23433
 C651 C 0.54890 -0.08138 0.27550
 C652 C 0.56522 -0.08415 0.37491
 C653 C 0.55926 -0.06896 0.33178
 H654 H 0.57284 -0.07374 0.41811
 H655 H 0.56260 -0.04723 0.34287
 H656 H 0.57045 -0.11804 0.45457
 H657 H 0.53888 -0.19569 0.34316
 H658 H 0.52371 -0.11252 0.11554
 H659 H 0.54432 -0.04472 0.24678
 H660 H 0.53576 -0.16794 0.25894
 H661 H 0.53420 -0.14085 0.18700
 C662 C 0.35602 0.50649 0.30553
 C663 C 0.37050 0.52519 0.35486
 C664 C 0.35495 0.52795 0.40128
 C665 C 0.32493 0.51168 0.40064
 C666 C 0.31059 0.49420 0.35065
 C667 C 0.32589 0.49165 0.30354
 C668 C 0.37343 0.50227 0.25938
 C669 C 0.36129 0.48370 0.20903
 C670 C 0.37832 0.47882 0.16995
 C671 C 0.40771 0.49221 0.18036
 C672 C 0.42014 0.51168 0.22877
 C673 C 0.40337 0.51683 0.26806
 C674 C 0.40033 0.54011 0.35900
 C675 C 0.41641 0.53591 0.31668
 H676 H 0.41139 0.55460 0.39654
 H677 H 0.43938 0.54734 0.32279
 H678 H 0.36624 0.54200 0.43922
 H679 H 0.28741 0.48142 0.34919
 H680 H 0.36833 0.46387 0.13254
 H681 H 0.44296 0.52252 0.23660
 H682 H 0.31370 0.47724 0.26703
 H683 H 0.33870 0.47237 0.19960
 C684 C 1.12138 0.69411 0.27313
 C685 C 1.14400 0.69405 0.30354
 C686 C 1.15733 0.71314 0.35218
 C687 C 1.14747 0.73122 0.37333
 C688 C 1.12545 0.73174 0.34281
 C689 C 1.11275 0.71371 0.29280
 C690 C 1.10598 0.67139 0.22500
 C691 C 1.08360 0.66985 0.19090
 C692 C 1.06759 0.64593 0.15201
 C693 C 1.07346 0.62306 0.14672
 C694 C 1.09698 0.62557 0.17691
 C695 C 1.11340 0.64963 0.21540
 C696 C 1.15186 0.67348 0.28810
 C697 C 1.13655 0.65139 0.24570
 H698 H 1.16922 0.67351 0.31126
 H699 H 1.14257 0.63506 0.23741
 H700 H 1.17390 0.71219 0.37666
 H701 H 1.11744 0.74542 0.35898
 H702 H 1.04965 0.64449 0.12851
 H703 H 1.10192 0.60818 0.17189
 H704 H 1.09535 0.71437 0.27205
 H705 H 1.07772 0.68645 0.19472
 C706 C 0.47930 0.14917 0.28749
 C707 C 0.49986 0.16100 0.33386
 C708 C 0.49599 0.17501 0.38297
 C709 C 0.47139 0.17668 0.38780
 C710 C 0.45175 0.16623 0.34049
 C711 C 0.45567 0.15280 0.29085
 C712 C 0.48263 0.13154 0.23916
 C713 C 0.46281 0.11780 0.19219
 C714 C 0.46498 0.09855 0.15266
 C715 C 0.48695 0.09266 0.15900
 C716 C 0.50793 0.10791 0.20274
 C717 C 0.50588 0.12710 0.24287
 C718 C 0.52341 0.15748 0.33254
 C719 C 0.52629 0.14076 0.28815
 H720 H 0.53932 0.16682 0.36765
 H721 H 0.54433 0.13771 0.29037
 H722 H 0.51159 0.18354 0.41874
 H723 H 0.43250 0.16708 0.34313
 H724 H 0.44871 0.08723 0.11880
 H725 H 0.52527 0.10383 0.20725
 H726 H 0.43939 0.14442 0.25686
 H727 H 0.44500 0.12085 0.18626
 C728 C 0.64932 0.47584 0.27231
 C729 C 0.63588 0.45365 0.31776
 C730 C 0.65119 0.45484 0.36884
 C731 C 0.67978 0.47796 0.37584
 C732 C 0.69381 0.49854 0.32907
 C733 C 0.67879 0.49753 0.27769
 C734 C 0.63100 0.47646 0.22313
 C735 C 0.64144 0.49928 0.17896
 C736 C 0.62263 0.50127 0.13966
 C737 C 0.59311 0.48046 0.14333
 C738 C 0.58286 0.45631 0.18368
 C739 C 0.60136 0.45441 0.22402
 C740 C 0.60684 0.43139 0.31370
 C741 C 0.58997 0.43165 0.26758
 H742 H 0.59673 0.41411 0.34796
 H743 H 0.56734 0.41457 0.26767
 H744 H 0.64045 0.43875 0.40494
 H745 H 0.71597 0.51649 0.33382
 H746 H 0.63104 0.52001 0.10855
 H747 H 0.56006 0.43990 0.18629
 H748 H 0.69032 0.51457 0.24394
 H749 H 0.66382 0.51654 0.17574
 C750 C 0.89417 0.31447 0.28603
 C751 C 0.90868 0.30935 0.33248
 C752 C 0.89323 0.29059 0.38113
 C753 C 0.86343 0.27735 0.38512
 C754 C 0.84902 0.28109 0.33716
 C755 C 0.86408 0.29915 0.28815
 C756 C 0.91158 0.33742 0.23874
 C757 C 0.89922 0.34580 0.19324
 C758 C 0.91642 0.36963 0.15440
 C759 C 0.94619 0.38525 0.15943
 C760 C 0.95888 0.37637 0.20237
 C761 C 0.94182 0.35273 0.24234
 C762 C 0.93860 0.32410 0.33160
 C763 C 0.95482 0.34531 0.28746
 H764 H 0.94973 0.31992 0.36670
 H765 H 0.97795 0.35680 0.28984
 H766 H 0.90458 0.28742 0.41727
 H767 H 0.82610 0.27144 0.33888
 H768 H 0.90644 0.37654 0.12155
 H769 H 0.98202 0.38885 0.20643
 H770 H 0.85176 0.30171 0.25370
 H771 H 0.87638 0.33499 0.18803
   
