data_POSCAR
  _audit_creation_date              2014-09-24
  _audit_creation_method            'ToBaCCo'
  _symmetry_space_group_name_H-M    'P1'
  _symmetry_Int_Tables_number       1
  _symmetry_cell_setting            triclinic
  loop_
  _symmetry_equiv_pos_as_xyz
 x,y,z
_cell_length_a 27.7303
_cell_length_b 27.6753
_cell_length_c 27.9346
_cell_angle_alpha 90.376600
_cell_angle_beta 89.775700
_cell_angle_gamma 89.980600
loop_
  _atom_site_label
  _atom_site_type_symbol
  _atom_site_fract_x
  _atom_site_fract_y
  _atom_site_fract_z
C1 C 0.28418 0.23752 0.20958
 C2 C 0.28277 0.20316 0.24621
 C3 C 0.24760 0.20523 0.28240
 C4 C 0.21367 0.24312 0.28212
 C5 C 0.21430 0.27804 0.24564
 C6 C 0.24911 0.27434 0.20911
 H7 H 0.30941 0.17446 0.24656
 H8 H 0.18677 0.24532 0.31004
 H9 H 0.24842 0.30025 0.18028
 C10 C 0.71742 -0.25088 0.20827
 C11 C 0.71785 -0.21529 0.24466
 C12 C 0.75138 -0.21684 0.28194
 C13 C 0.78424 -0.25541 0.28405
 C14 C 0.78452 -0.29209 0.24865
 C15 C 0.75096 -0.28902 0.21097
 H16 H 0.69194 -0.18618 0.24524
 H17 H 0.80896 -0.25640 0.31360
 H18 H 0.75088 -0.31680 0.18337
 C19 C 0.71949 0.24539 0.78589
 C20 C 0.71803 0.21152 0.74820
 C21 C 0.74906 0.21588 0.70856
 C22 C 0.78200 0.25429 0.70702
 C23 C 0.78350 0.28943 0.74386
 C24 C 0.75192 0.28423 0.78309
 H25 H 0.69288 0.18182 0.74968
 H26 H 0.80627 0.25580 0.67678
 H27 H 0.75250 0.31065 0.81194
 C28 C 0.27382 -0.23955 0.79988
 C29 C 0.23709 -0.27446 0.79957
 C30 C 0.20137 -0.27501 0.76361
 C31 C 0.20376 -0.23984 0.72748
 C32 C 0.24008 -0.20431 0.72737
 C33 C 0.27526 -0.20494 0.76329
 H34 H 0.23766 -0.30133 0.82738
 H35 H 0.17755 -0.24083 0.69887
 H36 H 0.30413 -0.17870 0.76194
 C37 C 0.70644 -0.24900 0.78524
 C38 C 0.70675 -0.21510 0.74819
 C39 C 0.74382 -0.21509 0.71371
 C40 C 0.78149 -0.24860 0.71771
 C41 C 0.78288 -0.28218 0.75526
 C42 C 0.74482 -0.28200 0.78897
 H43 H 0.67812 -0.18860 0.74688
 H44 H 0.81023 -0.24826 0.69125
 H45 H 0.74478 -0.30671 0.81856
 C46 C 0.29335 0.27119 0.77563
 C47 C 0.29235 0.23152 0.74395
 C48 C 0.25499 0.22632 0.71048
 C49 C 0.21893 0.26215 0.70823
 C50 C 0.22003 0.30246 0.73924
 C51 C 0.25738 0.30645 0.77264
 H52 H 0.32074 0.20467 0.74496
 H53 H 0.19031 0.25874 0.68241
 H54 H 0.25822 0.33714 0.79698
 C55 C 0.28273 -0.24557 0.21477
 C56 C 0.24829 -0.28288 0.21460
 C57 C 0.21347 -0.28673 0.25087
 C58 C 0.21282 -0.25222 0.28804
 C59 C 0.24737 -0.21527 0.28990
 C60 C 0.28186 -0.21179 0.25292
 H61 H 0.24840 -0.30938 0.18580
 H62 H 0.18530 -0.25350 0.31557
 H63 H 0.30710 -0.18227 0.25405
 C64 C 0.70684 0.25078 0.21886
 C65 C 0.70754 0.21565 0.25488
 C66 C 0.74430 0.21502 0.28940
 C67 C 0.78146 0.24919 0.28646
 C68 C 0.78231 0.28387 0.25006
 C69 C 0.74447 0.28484 0.21661
 H70 H 0.67956 0.18843 0.25524
 H71 H 0.81027 0.24856 0.31260
 H72 H 0.74455 0.31170 0.18882
 O73 O 0.21030 0.04851 0.45888
 O74 O 0.20900 -0.04407 0.55306
 O75 O 0.21230 0.05017 0.55200
 O76 O 0.20735 -0.04543 0.45954
 O77 O 0.28692 -0.04802 0.45793
 O78 O 0.29186 0.04746 0.55025
 O79 O 0.28855 -0.04685 0.55130
 O80 O 0.28988 0.04595 0.45729
 Cu81 Cu 0.20175 0.00247 0.50614
 Cu82 Cu 0.29727 -0.00073 0.50410
 C83 C 0.25036 0.06305 0.44207
 C84 C 0.24856 -0.06126 0.56823
 C85 C 0.25296 0.06535 0.56661
 C86 C 0.24634 -0.06279 0.44276
 O87 O 0.78966 0.04410 0.54385
 O88 O 0.78810 -0.05186 0.45214
 O89 O 0.78877 0.04226 0.45054
 O90 O 0.78852 -0.04953 0.54531
 O91 O 0.70887 -0.04898 0.54595
 O92 O 0.70916 0.04334 0.45175
 O93 O 0.70847 -0.05100 0.45288
 O94 O 0.71002 0.04476 0.54497
 Cu95 Cu 0.79677 -0.00381 0.49776
 Cu96 Cu 0.70111 -0.00285 0.49885
 C97 C 0.75016 0.06050 0.56032
 C98 C 0.74801 -0.06791 0.43700
 C99 C 0.74902 0.05857 0.43512
 C100 C 0.74869 -0.06478 0.56188
 O101 O 0.45837 0.18974 0.04496
 O102 O 0.55533 0.19418 -0.04642
 O103 O 0.55249 0.19502 0.04677
 O104 O 0.46250 0.18169 -0.04803
 O105 O 0.45520 0.26104 -0.05193
 O106 O 0.54562 0.27446 0.04408
 O107 O 0.54776 0.27357 -0.04908
 O108 O 0.45159 0.26909 0.04122
 Cu109 Cu 0.50790 0.18225 -0.00019
 Cu110 Cu 0.49922 0.27746 -0.00410
 C111 C 0.43836 0.22891 0.05849
 C112 C 0.56775 0.23491 -0.06345
 C113 C 0.56470 0.23664 0.06145
 C114 C 0.44382 0.21890 -0.06650
 O115 O 0.54547 0.78834 0.05057
 O116 O 0.44924 0.79186 -0.04009
 O117 O 0.45173 0.79057 0.05333
 O118 O 0.54319 0.79222 -0.04225
 O119 O 0.54258 0.71244 -0.04477
 O120 O 0.45073 0.71082 0.05085
 O121 O 0.44875 0.71210 -0.04258
 O122 O 0.54461 0.70858 0.04824
 Cu123 Cu 0.49739 0.79875 0.00563
 Cu124 Cu 0.49650 0.70298 0.00265
 C125 C 0.56144 0.74785 0.06485
 C126 C 0.43277 0.75242 -0.05695
 C127 C 0.43582 0.75048 0.06859
 C128 C 0.55863 0.75268 -0.05966
 O129 O 0.04577 0.44747 0.20334
 O130 O -0.04690 0.54286 0.20388
 O131 O 0.04689 0.54212 0.20455
 O132 O -0.04838 0.44902 0.20641
 O133 O -0.04724 0.45033 0.28545
 O134 O 0.04762 0.54277 0.28358
 O135 O -0.04608 0.54403 0.28293
 O136 O 0.04684 0.44840 0.28236
 Cu137 Cu -0.00057 0.49515 0.19662
 Cu138 Cu 0.00049 0.49640 0.29148
 C139 C 0.06203 0.43155 0.24259
 C140 C -0.06234 0.55969 0.24342
 C141 C 0.06313 0.55862 0.24386
 C142 C -0.06431 0.43421 0.24646
 O143 O 0.04110 0.55146 0.79002
 O144 O -0.05129 0.45622 0.78835
 O145 O 0.04218 0.45745 0.78633
 O146 O -0.05301 0.55011 0.78915
 O147 O -0.05288 0.55156 0.71011
 O148 O 0.04220 0.45910 0.70729
 O149 O -0.05142 0.45750 0.70930
 O150 O 0.04127 0.55321 0.71101
 Cu151 Cu -0.00520 0.50382 0.79640
 Cu152 Cu -0.00522 0.50562 0.70148
 C153 C 0.05715 0.56844 0.75095
 C154 C -0.06693 0.44042 0.74862
 C155 C 0.05820 0.44231 0.74632
 C156 C -0.06938 0.56636 0.74999
 C157 C 0.32232 0.23299 0.17224
 C158 C 0.33805 0.27037 0.14607
 C159 C 0.37731 0.26795 0.10999
 C160 C 0.39938 0.22745 0.09462
 H161 H 0.32304 0.30593 0.15223
 H162 H 0.38816 0.30233 0.09508
 H163 H 0.33939 0.19807 0.16841
 H164 H 0.38903 0.19242 0.10805
 C165 C 0.68422 0.74951 0.16992
 C166 C 0.65418 0.78638 0.16001
 C167 C 0.61835 0.78597 0.12093
 C168 C 0.59961 0.74584 0.10138
 H169 H 0.65628 0.82016 0.17933
 H170 H 0.60478 0.82091 0.11002
 H171 H 0.68395 0.71834 0.14628
 H172 H 0.61101 0.71053 0.11328
 C173 C 0.68619 0.24290 -0.17241
 C174 C 0.66413 0.20218 -0.15811
 C175 C 0.62877 0.19988 -0.11828
 C176 C 0.60513 0.23844 -0.10082
 H177 H 0.67278 0.16810 -0.17521
 H178 H 0.62017 0.16431 -0.10475
 H179 H 0.68093 0.27598 -0.15225
 H180 H 0.61169 0.27402 -0.11518
 C181 C 0.31105 0.75803 -0.16205
 C182 C 0.33870 0.79564 -0.14880
 C183 C 0.37587 0.79362 -0.11087
 C184 C 0.39489 0.75263 -0.09381
 H185 H 0.33301 0.83066 -0.16472
 H186 H 0.38919 0.82801 -0.09777
 H187 H 0.31399 0.72425 -0.14307
 H188 H 0.38360 0.71788 -0.10763
 C189 C 0.17838 0.31794 0.24348
 C190 C 0.15438 0.33503 0.28194
 C191 C 0.11845 0.37476 0.28099
 C192 C 0.09869 0.39289 0.24117
 H193 H 0.16219 0.32077 0.31700
 H194 H 0.10688 0.38866 0.31551
 H195 H 0.17346 0.33484 0.20907
 H196 H 0.10854 0.37891 0.20627
 C197 C 0.16382 0.69043 0.76155
 C198 C 0.15447 0.65727 0.79540
 C199 C 0.11501 0.62140 0.79243
 C200 C 0.09485 0.60601 0.75149
 H201 H 0.17425 0.65677 0.82853
 H202 H 0.10398 0.60522 0.82594
 H203 H 0.14009 0.69179 0.73090
 H204 H 0.10705 0.61975 0.71736
 C205 C -0.18269 0.66866 0.24875
 C206 C -0.15146 0.65875 0.28423
 C207 C -0.11647 0.61836 0.28301
 C208 C -0.09930 0.59799 0.24274
 H209 H -0.15176 0.67903 0.31730
 H210 H -0.10224 0.60704 0.31722
 H211 H -0.18360 0.64432 0.21826
 H212 H -0.11123 0.61044 0.20812
 C213 C -0.18442 0.32914 0.74374
 C214 C -0.15490 0.34101 0.70723
 C215 C -0.12062 0.38197 0.70857
 C216 C -0.10315 0.40152 0.74896
 H217 H -0.15616 0.32192 0.67350
 H218 H -0.10733 0.39458 0.67434
 H219 H -0.18459 0.35222 0.77517
 H220 H -0.11406 0.38785 0.78352
 C221 C 0.24880 0.16795 0.32043
 C222 C 0.21084 0.15668 0.34821
 C223 C 0.21153 0.11909 0.38573
 C224 C 0.25175 0.10017 0.40452
 H225 H 0.17637 0.17382 0.34229
 H226 H 0.17673 0.10760 0.39924
 H227 H 0.28194 0.14770 0.32379
 H228 H 0.28696 0.11223 0.39296
 C229 C 0.74952 0.18009 0.66879
 C230 C 0.71144 0.15258 0.65705
 C231 C 0.71160 0.11651 0.61772
 C232 C 0.75171 0.09784 0.59800
 H233 H 0.67743 0.15755 0.67550
 H234 H 0.67671 0.10347 0.60610
 H235 H 0.78200 0.17825 0.64731
 H236 H 0.78698 0.10872 0.61040
 C237 C 0.24358 -0.16707 0.68943
 C238 C 0.20570 -0.15221 0.66354
 C239 C 0.20795 -0.11459 0.62611
 C240 C 0.24874 -0.09841 0.60581
 H241 H 0.17016 -0.16635 0.67112
 H242 H 0.17363 -0.10065 0.61397
 H243 H 0.27826 -0.14989 0.68470
 H244 H 0.28341 -0.11280 0.61607
 C245 C 0.74965 -0.17815 0.31899
 C246 C 0.78781 -0.16497 0.34545
 C247 C 0.78698 -0.12574 0.38172
 C248 C 0.74668 -0.10665 0.40068
 H249 H 0.82250 -0.18173 0.33912
 H250 H 0.82175 -0.11309 0.39410
 H251 H 0.71620 -0.15834 0.32233
 H252 H 0.71152 -0.11980 0.39032
 C253 C 0.66650 0.75243 -0.17933
 C254 C 0.65226 0.71361 -0.15438
 C255 C 0.61330 0.71410 -0.11809
 C256 C 0.59588 0.75425 -0.09723
 H257 H 0.66852 0.67878 -0.16158
 H258 H 0.60001 0.67917 -0.10677
 H259 H 0.64719 0.78620 -0.17554
 H260 H 0.60976 0.78945 -0.10663
 C261 C 0.33142 0.27754 -0.18791
 C262 C 0.35382 0.24058 -0.16700
 C263 C 0.38887 0.24916 -0.12844
 C264 C 0.40882 0.21218 -0.10537
 H265 H 0.34503 0.20372 -0.17688
 H266 H 0.39810 0.28598 -0.11862
 H267 H 0.33895 0.31398 -0.17548
 H268 H 0.39943 0.17548 -0.11548
 C269 C 0.31652 0.75571 0.17680
 C270 C 0.35010 0.79016 0.17020
 C271 C 0.38500 0.78965 0.13003
 C272 C 0.39981 0.74936 0.10742
 H273 H 0.35182 0.82167 0.19301
 H274 H 0.40082 0.82408 0.12053
 H275 H 0.31440 0.72695 0.15041
 H276 H 0.38664 0.71431 0.11834
 C277 C 0.66747 0.24869 0.18304
 C278 C 0.65510 0.28540 0.15432
 C279 C 0.61679 0.28188 0.11766
 C280 C 0.60173 0.23987 0.09884
 H281 H 0.67205 0.32033 0.15841
 H282 H 0.60217 0.31549 0.10435
 H283 H 0.64693 0.21550 0.18165
 H284 H 0.61767 0.20612 0.10997
 C285 C -0.17792 0.68530 0.75676
 C286 C -0.16981 0.65289 0.79154
 C287 C -0.12917 0.61834 0.79050
 C288 C -0.10818 0.60254 0.75004
 H289 H -0.19184 0.65170 0.82339
 H290 H -0.11820 0.60341 0.82452
 H291 H -0.15198 0.68734 0.72777
 H292 H -0.12065 0.61487 0.71556
 C293 C -0.17726 0.31897 0.24929
 C294 C -0.16364 0.34374 0.21031
 C295 C -0.12331 0.37882 0.20944
 C296 C -0.10332 0.39830 0.24871
 H297 H -0.18121 0.33717 0.17642
 H298 H -0.11085 0.39013 0.17447
 H299 H -0.15682 0.32252 0.28199
 H300 H -0.11629 0.38907 0.28400
 C301 C 0.18214 0.34028 0.73977
 C302 C 0.15163 0.34853 0.70358
 C303 C 0.11405 0.38644 0.70517
 C304 C 0.09572 0.40480 0.74592
 H305 H 0.15528 0.32885 0.67023
 H306 H 0.09991 0.39825 0.67110
 H307 H 0.18087 0.36349 0.77106
 H308 H 0.10749 0.39160 0.78031
 C309 C 0.17764 0.67355 0.24754
 C310 C 0.15345 0.65619 0.28542
 C311 C 0.11785 0.61636 0.28329
 C312 C 0.09994 0.59699 0.24290
 H313 H 0.16071 0.67045 0.32078
 H314 H 0.10497 0.60335 0.31752
 H315 H 0.17303 0.65701 0.21272
 H316 H 0.11107 0.60983 0.20815
 C317 C 0.74577 -0.17976 0.67399
 C318 C 0.70732 -0.15523 0.65807
 C319 C 0.70886 -0.11977 0.61863
 C320 C 0.74942 -0.10092 0.60025
 H321 H 0.67203 -0.16211 0.67309
 H322 H 0.67430 -0.10780 0.60519
 H323 H 0.78024 -0.17561 0.65633
 H324 H 0.78440 -0.11102 0.61380
 C325 C 0.24527 -0.17985 0.33007
 C326 C 0.28410 -0.15567 0.34596
 C327 C 0.28369 -0.11986 0.38560
 C328 C 0.24387 -0.10010 0.40491
 H329 H 0.31913 -0.16319 0.33046
 H330 H 0.31872 -0.10809 0.39815
 H331 H 0.21097 -0.17559 0.34812
 H332 H 0.20845 -0.11008 0.39225
 C333 C 0.74642 0.17823 0.32779
 C334 C 0.70796 0.15305 0.34299
 C335 C 0.70942 0.11620 0.38112
 C336 C 0.74985 0.09553 0.39746
 H337 H 0.67266 0.16065 0.32859
 H338 H 0.67487 0.10477 0.39529
 H339 H 0.78084 0.17347 0.34516
 H340 H 0.78471 0.10508 0.38294
 C341 C 0.25590 0.18397 0.67749
 C342 C 0.21647 0.16635 0.65568
 C343 C 0.21625 0.12503 0.62165
 C344 C 0.25578 0.10460 0.60243
 H345 H 0.18153 0.18187 0.66353
 H346 H 0.18106 0.11213 0.61076
 H347 H 0.29026 0.16614 0.67266
 H348 H 0.29139 0.11731 0.61168
   
