data_POSCAR
  _audit_creation_date              2014-09-24
  _audit_creation_method            'ToBaCCo'
  _symmetry_space_group_name_H-M    'P1'
  _symmetry_Int_Tables_number       1
  _symmetry_cell_setting            triclinic
  loop_
  _symmetry_equiv_pos_as_xyz
 x,y,z
_cell_length_a 47.9451
_cell_length_b 48.0382
_cell_length_c 27.5458
_cell_angle_alpha 89.869800
_cell_angle_beta 90.023100
_cell_angle_gamma 84.040500
loop_
  _atom_site_label
  _atom_site_type_symbol
  _atom_site_fract_x
  _atom_site_fract_y
  _atom_site_fract_z
C1 C -0.02518 0.26699 0.01933
 C2 C -0.02332 0.26225 -0.03179
 C3 C 0.00308 0.26198 -0.05448
 C4 C 0.02738 0.26742 -0.02893
 C5 C 0.02534 0.27172 0.02211
 C6 C -0.00090 0.27245 0.04483
 H7 H -0.00183 0.27447 0.08402
 H8 H 0.00417 0.26026 -0.09366
 C9 C 0.46885 0.77082 0.52959
 C10 C 0.46882 0.76869 0.47850
 C11 C 0.49406 0.76954 0.45312
 C12 C 0.51935 0.77233 0.47752
 C13 C 0.51917 0.77498 0.52882
 C14 C 0.49384 0.77425 0.55410
 H15 H 0.49366 0.77579 0.59337
 H16 H 0.49409 0.76749 0.41392
 C17 C 1.02228 0.73584 0.02651
 C18 C 1.02304 0.73189 -0.02459
 C19 C 0.99825 0.72861 -0.05006
 C20 C 0.97199 0.73012 -0.02668
 C21 C 0.97139 0.73305 0.02481
 C22 C 0.99623 0.73631 0.05012
 H23 H 0.99533 0.73765 0.08939
 H24 H 0.99940 0.72747 -0.08931
 C25 C 0.53040 0.22817 0.52120
 C26 C 0.52950 0.23098 0.47009
 C27 C 0.50371 0.23075 0.44596
 C28 C 0.47892 0.22782 0.47177
 C29 C 0.48000 0.22527 0.52289
 C30 C 0.50573 0.22507 0.54696
 H31 H 0.50636 0.22382 0.58627
 H32 H 0.50295 0.23261 0.40674
 C33 C 0.73422 -0.02532 0.02360
 C34 C 0.73504 -0.02581 -0.02818
 C35 C 0.73649 -0.00066 -0.05391
 C36 C 0.73814 0.02485 -0.02991
 C37 C 0.73727 0.02542 0.02138
 C38 C 0.73534 0.00055 0.04711
 H39 H 0.73372 0.00173 0.08633
 H40 H 0.73811 -0.00124 -0.09316
 C41 C 0.22977 0.47828 0.52984
 C42 C 0.22951 0.47810 0.47836
 C43 C 0.22951 0.50345 0.45305
 C44 C 0.22965 0.52905 0.47732
 C45 C 0.22951 0.52944 0.52877
 C46 C 0.22934 0.50402 0.55419
 H47 H 0.23005 0.50417 0.59352
 H48 H 0.22916 0.50330 0.41368
 C49 C 0.27049 1.02606 0.02963
 C50 C 0.26997 1.02585 -0.02252
 C51 C 0.26739 1.00032 -0.04665
 C52 C 0.26700 0.97512 -0.02115
 C53 C 0.26847 0.97524 0.02987
 C54 C 0.27054 1.00033 0.05450
 H55 H 0.26983 0.99981 0.09381
 H56 H 0.26759 0.99953 -0.08598
 C57 C 0.76777 0.52257 0.51830
 C58 C 0.77271 0.52216 0.46769
 C59 C 0.77594 0.49657 0.44298
 C60 C 0.77344 0.47138 0.46749
 C61 C 0.76846 0.47161 0.51806
 C62 C 0.76580 0.49722 0.54286
 H63 H 0.76228 0.49741 0.58174
 H64 H 0.77896 0.49639 0.40396
 O65 O 0.22440 0.26713 0.19529
 O66 O 0.29291 0.25386 0.25594
 O67 O 0.26391 0.22672 0.19458
 O68 O 0.25276 0.29458 0.25669
 O69 O 0.23269 0.27476 0.31798
 O70 O 0.24419 0.20659 0.25601
 O71 O 0.27287 0.23388 0.31707
 O72 O 0.20415 0.24776 0.25699
 Cu73 Cu 0.26059 0.26260 0.21961
 Cu74 Cu 0.23651 0.23871 0.29319
 C75 C 0.20265 0.25950 0.21557
 C76 C 0.29461 0.24173 0.29702
 C77 C 0.25557 0.20516 0.21431
 C78 C 0.24087 0.29632 0.29793
 O79 O 0.74792 0.79383 0.25062
 O80 O 0.76243 0.72453 0.30704
 O81 O 0.78865 0.75382 0.24666
 O82 O 0.72116 0.76400 0.31114
 O83 O 0.70007 0.74740 0.24781
 O84 O 0.76824 0.73338 0.18656
 O85 O 0.73963 0.70596 0.24763
 O86 O 0.72888 0.77494 0.18741
 Cu87 Cu 0.75703 0.76103 0.28506
 Cu88 Cu 0.73209 0.73852 0.21117
 C89 C 0.73653 0.79624 0.20897
 C90 C 0.75323 0.70346 0.28729
 C91 C 0.79006 0.74153 0.20582
 C92 C 0.69906 0.75757 0.29035
 O93 O 0.74662 0.29349 0.24812
 O94 O 0.73923 0.22716 0.18442
 O95 O 0.70909 0.25826 0.24666
 O96 O 0.77663 0.26316 0.18535
 O97 O 0.79845 0.23763 0.24342
 O98 O 0.73118 0.23597 0.30786
 O99 O 0.75991 0.20385 0.24591
 O100 O 0.77051 0.26997 0.30625
 Cu101 Cu 0.74067 0.26284 0.21005
 Cu102 Cu 0.76716 0.23456 0.28201
 C103 C 0.76019 0.29301 0.28778
 C104 C 0.74820 0.20411 0.20455
 C105 C 0.70857 0.24657 0.28800
 C106 C 0.79899 0.25094 0.20359
 O107 O 0.19960 0.76213 0.25329
 O108 O 0.26713 0.76654 0.31513
 O109 O 0.23637 0.79816 0.25384
 O110 O 0.22999 0.73059 0.31424
 O111 O 0.25155 0.70864 0.25239
 O112 O 0.25973 0.77616 0.19376
 O113 O 0.28915 0.74377 0.25456
 O114 O 0.22184 0.74091 0.19141
 Cu115 Cu 0.23110 0.76660 0.29030
 Cu116 Cu 0.25776 0.74018 0.21686
 C117 C 0.19918 0.75088 0.21164
 C118 C 0.28969 0.75567 0.29563
 C119 C 0.24920 0.79868 0.21355
 C120 C 0.23960 0.70801 0.29348
 O121 O 0.77757 0.26184 0.80181
 O122 O 0.70928 0.25551 0.74395
 O123 O 0.74143 0.22548 0.80573
 O124 O 0.74528 0.29204 0.74173
 O125 O 0.76679 0.26953 0.68038
 O126 O 0.76217 0.20246 0.74408
 O127 O 0.73069 0.23246 0.68296
 O128 O 0.79891 0.23886 0.74078
 Cu129 Cu 0.74120 0.26095 0.77945
 Cu130 Cu 0.76682 0.23358 0.70587
 C131 C 0.79994 0.25131 0.78128
 C132 C 0.70836 0.24303 0.70344
 C133 C 0.75121 0.20265 0.78607
 C134 C 0.75662 0.29225 0.70012
 O135 O 0.29100 0.74125 0.75363
 O136 O 0.22309 0.73762 0.81442
 O137 O 0.25251 0.70694 0.75270
 O138 O 0.26168 0.77216 0.81750
 O139 O 0.23976 0.79687 0.75872
 O140 O 0.23250 0.73145 0.69178
 O141 O 0.20184 0.76214 0.75464
 O142 O 0.26984 0.76718 0.69548
 Cu143 Cu 0.25928 0.73713 0.79061
 Cu144 Cu 0.23381 0.76681 0.71910
 C145 C 0.29200 0.75492 0.71423
 C146 C 0.20086 0.74914 0.79470
 C147 C 0.24106 0.70804 0.71111
 C148 C 0.25213 0.79564 0.79959
 O149 O 0.25836 0.29525 0.75383
 O150 O 0.27299 0.22686 0.81405
 O151 O 0.29944 0.25541 0.75106
 O152 O 0.23164 0.26649 0.81489
 O153 O 0.21116 0.24737 0.75347
 O154 O 0.27944 0.23331 0.69240
 O155 O 0.25158 0.20670 0.75485
 O156 O 0.23993 0.27476 0.69161
 Cu157 Cu 0.26768 0.26299 0.78952
 Cu158 Cu 0.24340 0.23858 0.71702
 C159 C 0.24706 0.29664 0.71211
 C160 C 0.26452 0.20514 0.79520
 C161 C 0.30103 0.24227 0.71099
 C162 C 0.20975 0.25893 0.79497
 O163 O 0.74100 0.70540 0.74519
 O164 O 0.73397 0.77329 0.80742
 O165 O 0.70334 0.74850 0.74590
 O166 O 0.77137 0.73121 0.80621
 O167 O 0.79276 0.74953 0.74473
 O168 O 0.72450 0.76703 0.68449
 O169 O 0.75468 0.79229 0.74584
 O170 O 0.76229 0.72387 0.68389
 Cu171 Cu 0.73523 0.73761 0.78212
 Cu172 Cu 0.76068 0.75998 0.70849
 C173 C 0.75272 0.70297 0.70387
 C174 C 0.74348 0.79425 0.78768
 C175 C 0.70224 0.76070 0.70486
 C176 C 0.79359 0.73800 0.78634
 C177 C 0.26357 0.10090 0.11136
 C178 C 0.27965 0.07717 0.12948
 C179 C 0.28193 0.05243 0.10262
 C180 C 0.26800 0.05106 0.05766
 C181 C 0.25084 0.07515 0.04250
 N182 N 0.24949 0.09912 0.06882
 C183 C 0.26189 0.12782 0.13742
 N184 N 0.26286 0.12829 0.18685
 C185 C 0.26093 0.15267 0.21225
 C186 C 0.25841 0.17843 0.18767
 C187 C 0.25780 0.17835 0.13678
 C188 C 0.25919 0.15312 0.11157
 H189 H 0.29560 0.03479 0.11624
 H190 H 0.23817 0.07497 0.01004
 H191 H 0.26156 0.15193 0.25152
 H192 H 0.25567 0.19782 0.11653
 H193 H 0.29107 0.07800 0.16330
 H194 H 0.25848 0.15336 0.07227
 C195 C 0.75915 0.59836 0.60077
 C196 C 0.73831 0.57989 0.60362
 C197 C 0.74111 0.55526 0.57654
 C198 C 0.76444 0.54904 0.54638
 C199 C 0.78473 0.56806 0.54432
 N200 N 0.78155 0.59196 0.57098
 C201 C 0.75725 0.62481 0.62860
 N202 N 0.77036 0.64660 0.61122
 C203 C 0.76942 0.67157 0.63464
 C204 C 0.75474 0.67567 0.67859
 C205 C 0.74153 0.65330 0.69762
 C206 C 0.74273 0.62791 0.67286
 H207 H 0.72493 0.54115 0.57874
 H208 H 0.80326 0.56375 0.52210
 H209 H 0.78007 0.68818 0.61880
 H210 H 0.73012 0.65544 0.73156
 H211 H 0.71979 0.58453 0.62575
 H212 H 0.73274 0.61088 0.68872
 C213 C 0.73061 0.90219 0.10987
 C214 C 0.74733 0.92298 0.12437
 C215 C 0.74809 0.94695 0.09618
 C216 C 0.73262 0.95045 0.05271
 C217 C 0.71579 0.92922 0.03995
 N218 N 0.71542 0.90596 0.06817
 C219 C 0.73028 0.87571 0.13747
 N220 N 0.72388 0.85231 0.11387
 C221 C 0.72479 0.82694 0.13622
 C222 C 0.73288 0.82402 0.18514
 C223 C 0.73862 0.84804 0.21053
 C224 C 0.73716 0.87387 0.18705
 H225 H 0.76201 0.96211 0.10739
 H226 H 0.70250 0.93125 0.00814
 H227 H 0.71995 0.80899 0.11536
 H228 H 0.74451 0.84686 0.24850
 H229 H 0.76058 0.92051 0.15619
 H230 H 0.74141 0.89206 0.20774
 C231 C 0.23477 0.40232 0.61263
 C232 C 0.21494 0.42468 0.62528
 C233 C 0.21335 0.44945 0.59832
 C234 C 0.23163 0.45207 0.55917
 C235 C 0.25171 0.42945 0.54873
 N236 N 0.25247 0.40534 0.57484
 C237 C 0.23670 0.37548 0.63915
 N238 N 0.24132 0.35109 0.61395
 C239 C 0.24386 0.32568 0.63635
 C240 C 0.24259 0.32394 0.68713
 C241 C 0.23808 0.34884 0.71382
 C242 C 0.23479 0.37463 0.68993
 H243 H 0.19759 0.46641 0.60754
 H244 H 0.26669 0.43088 0.51970
 H245 H 0.24761 0.30693 0.61460
 H246 H 0.23706 0.34832 0.75309
 H247 H 0.20043 0.42278 0.65491
 H248 H 0.23157 0.39371 0.71097
 C249 C 0.90209 0.25683 0.10063
 C250 C 0.91113 0.23686 0.06555
 C251 C 0.93511 0.24021 0.03840
 C252 C 0.95049 0.26319 0.04671
 C253 C 0.94114 0.28210 0.08371
 N254 N 0.91719 0.27883 0.10859
 C255 C 0.87601 0.25479 0.12794
 N256 N 0.85640 0.27737 0.12993
 C257 C 0.83162 0.27653 0.15363
 C258 C 0.82584 0.25214 0.17808
 C259 C 0.84602 0.22883 0.17734
 C260 C 0.87099 0.22994 0.15167
 H261 H 0.94193 0.22453 0.01155
 H262 H 0.95213 0.30018 0.09134
 H263 H 0.81659 0.29498 0.15385
 H264 H 0.84220 0.20964 0.19575
 H265 H 0.89941 0.21919 0.05856
 H266 H 0.88637 0.21177 0.15077
 C267 C 0.39550 0.76141 0.61258
 C268 C 0.41002 0.73784 0.59069
 C269 C 0.43397 0.74097 0.56332
 C270 C 0.44355 0.76738 0.55847
 C271 C 0.42872 0.79036 0.58130
 N272 N 0.40511 0.78693 0.60698
 C273 C 0.36945 0.75927 0.64001
 N274 N 0.34797 0.77997 0.63545
 C275 C 0.32315 0.77901 0.65887
 C276 C 0.31911 0.75646 0.68965
 C277 C 0.34121 0.73523 0.69579
 C278 C 0.36634 0.73643 0.67068
 H279 H 0.44504 0.72288 0.54590
 H280 H 0.43565 0.81102 0.57797
 H281 H 0.30667 0.79593 0.65362
 H282 H 0.33887 0.71751 0.71927
 H283 H 0.40258 0.71739 0.59372
 H284 H 0.38323 0.71988 0.67559
 C285 C 0.09481 0.74435 0.11055
 C286 C 0.06952 0.76048 0.12171
 C287 C 0.04560 0.75745 0.09420
 C288 C 0.04663 0.73884 0.05463
 C289 C 0.07244 0.72300 0.04508
 N290 N 0.09538 0.72618 0.07267
 C291 C 0.12109 0.74663 0.13802
 N292 N 0.14594 0.73690 0.11715
 C293 C 0.17099 0.73801 0.13980
 C294 C 0.17206 0.74943 0.18655
 C295 C 0.14670 0.75935 0.20900
 C296 C 0.12124 0.75790 0.18506
 H297 H 0.02654 0.77063 0.10281
 H298 H 0.07425 0.70717 0.01716
 H299 H 0.19001 0.73000 0.12116
 H300 H 0.14650 0.76807 0.24523
 H301 H 0.06811 0.77580 0.15051
 H302 H 0.10207 0.76511 0.20385
 C303 C 0.60463 0.23647 0.60249
 C304 C 0.58977 0.26034 0.58192
 C305 C 0.56563 0.25755 0.55487
 C306 C 0.55619 0.23116 0.54902
 C307 C 0.57140 0.20785 0.57044
 N308 N 0.59519 0.21097 0.59584
 C309 C 0.63072 0.23839 0.62995
 N310 N 0.65264 0.21836 0.62367
 C311 C 0.67751 0.21933 0.64699
 C312 C 0.68114 0.24116 0.67940
 C313 C 0.65856 0.26162 0.68736
 C314 C 0.63340 0.26046 0.66235
 H315 H 0.55425 0.27590 0.53863
 H316 H 0.56455 0.18720 0.56636
 H317 H 0.69439 0.20302 0.64028
 H318 H 0.66059 0.27880 0.71207
 H319 H 0.59706 0.28080 0.58589
 H320 H 0.61615 0.27646 0.66857
 C321 C 0.74764 0.09929 0.88916
 C322 C 0.76623 0.09156 0.92728
 C323 C 0.76383 0.06676 0.95251
 C324 C 0.74237 0.05014 0.94092
 C325 C 0.72486 0.05811 0.90132
 N326 N 0.72787 0.08220 0.87670
 C327 C 0.74883 0.12597 0.86325
 N328 N 0.74681 0.12678 0.81395
 C329 C 0.74778 0.15095 0.78843
 C330 C 0.75019 0.17620 0.81286
 C331 C 0.75178 0.17584 0.86367
 C332 C 0.75141 0.15073 0.88895
 H333 H 0.77847 0.06077 0.98156
 H334 H 0.70836 0.04558 0.89080
 H335 H 0.74628 0.15052 0.74924
 H336 H 0.75370 0.19491 0.88375
 H337 H 0.78251 0.10451 0.93725
 H338 H 0.75265 0.15070 0.92821
 C339 C 0.23307 0.60315 0.39215
 C340 C 0.25328 0.58014 0.38549
 C341 C 0.25185 0.55598 0.41302
 C342 C 0.23053 0.55466 0.44746
 C343 C 0.21061 0.57797 0.45294
 N344 N 0.21248 0.60141 0.42579
 C345 C 0.23426 0.62960 0.36490
 N346 N 0.22297 0.65407 0.38507
 C347 C 0.22407 0.67923 0.36281
 C348 C 0.23718 0.68076 0.31743
 C349 C 0.24836 0.65572 0.29550
 C350 C 0.24688 0.63018 0.31894
 H351 H 0.26774 0.53846 0.40819
 H352 H 0.19375 0.57760 0.47897
 H353 H 0.21495 0.69800 0.38086
 H354 H 0.25838 0.65585 0.26028
 H355 H 0.27051 0.58090 0.36035
 H356 H 0.25532 0.61117 0.30089
 C357 C 0.26408 0.89792 0.90288
 C358 C 0.28673 0.90137 0.93392
 C359 C 0.28784 0.92670 0.95802
 C360 C 0.26647 0.94859 0.95157
 C361 C 0.24472 0.94477 0.91904
 N362 N 0.24403 0.91984 0.89589
 C363 C 0.26161 0.87122 0.87718
 N364 N 0.24677 0.87156 0.83498
 C365 C 0.24354 0.84784 0.80958
 C366 C 0.25547 0.82170 0.82667
 C367 C 0.27052 0.82084 0.87043
 C368 C 0.27360 0.84544 0.89576
 H369 H 0.30544 0.92927 0.98165
 H370 H 0.22806 0.96138 0.91277
 H371 H 0.23158 0.84947 0.77618
 H372 H 0.27987 0.80114 0.88524
 H373 H 0.30367 0.88493 0.93911
 H374 H 0.28478 0.84407 0.92993
 C375 C 0.77180 0.39590 0.38732
 C376 C 0.79755 0.40676 0.39487
 C377 C 0.79812 0.43182 0.42026
 C378 C 0.77323 0.44553 0.43882
 C379 C 0.74794 0.43420 0.43016
 N380 N 0.74781 0.41005 0.40465
 C381 C 0.77005 0.36951 0.36093
 N382 N 0.74777 0.36709 0.33116
 C383 C 0.74449 0.34308 0.30676
 C384 C 0.76397 0.31945 0.31281
 C385 C 0.78693 0.32139 0.34374
 C386 C 0.79020 0.34647 0.36750
 H387 H 0.81793 0.44026 0.42622
 H388 H 0.72837 0.44454 0.44377
 H389 H 0.72639 0.34231 0.28351
 H390 H 0.80240 0.30358 0.34933
 H391 H 0.81691 0.39619 0.38082
 H392 H 0.80785 0.34759 0.39170
 C393 C 0.10382 0.27072 0.89557
 C394 C 0.09649 0.29003 0.93274
 C395 C 0.07105 0.28933 0.95704
 C396 C 0.05268 0.26936 0.94492
 C397 C 0.06028 0.25144 0.90556
 N398 N 0.08530 0.25240 0.88275
 C399 C 0.13114 0.26940 0.86998
 N400 N 0.13366 0.25677 0.82575
 C401 C 0.15827 0.25367 0.80084
 C402 C 0.18250 0.26327 0.82065
 C403 C 0.18041 0.27635 0.86620
 C404 C 0.15489 0.27942 0.89096
 H405 H 0.06558 0.30485 0.98482
 H406 H 0.04712 0.23561 0.89444
 H407 H 0.15891 0.24336 0.76591
 H408 H 0.19860 0.28388 0.88307
 H409 H 0.10994 0.30582 0.94276
 H410 H 0.15418 0.28878 0.92665
 C411 C 0.59462 0.76882 0.39349
 C412 C 0.57133 0.78726 0.37976
 C413 C 0.54686 0.78851 0.40741
 C414 C 0.54550 0.77132 0.44839
 C415 C 0.56913 0.75280 0.46031
 N416 N 0.59289 0.75228 0.43332
 C417 C 0.62106 0.76704 0.36589
 N418 N 0.64586 0.76319 0.39028
 C419 C 0.67097 0.76083 0.36697
 C420 C 0.67199 0.76154 0.31608
 C421 C 0.64667 0.76523 0.29021
 C422 C 0.62116 0.76826 0.31499
 H423 H 0.52906 0.80307 0.39709
 H424 H 0.56870 0.73873 0.49096
 H425 H 0.69007 0.75772 0.38815
 H426 H 0.64662 0.76581 0.25090
 H427 H 0.57221 0.80092 0.34860
 H428 H 0.60176 0.77079 0.29457
 C429 C 0.89768 0.73055 0.89028
 C430 C 0.92205 0.71459 0.87450
 C431 C 0.94666 0.71443 0.90176
 C432 C 0.94723 0.73038 0.94470
 C433 C 0.92246 0.74730 0.95720
 N434 N 0.89871 0.74660 0.93066
 C435 C 0.87094 0.73054 0.86389
 N436 N 0.87062 0.72940 0.81448
 C437 C 0.84623 0.73107 0.78881
 C438 C 0.82035 0.73373 0.81311
 C439 C 0.82033 0.73414 0.86400
 C440 C 0.84554 0.73288 0.88945
 H441 H 0.96486 0.70086 0.89012
 H442 H 0.92199 0.76174 0.98726
 H443 H 0.84704 0.73057 0.74955
 H444 H 0.80081 0.73642 0.88407
 H445 H 0.92182 0.70174 0.84227
 H446 H 0.84522 0.73381 0.92874
 C447 C 0.40088 0.22863 0.39626
 C448 C 0.41011 0.20570 0.42600
 C449 C 0.43577 0.20523 0.44999
 C450 C 0.45217 0.22756 0.44481
 C451 C 0.44270 0.24963 0.41360
 N452 N 0.41762 0.24965 0.39049
 C453 C 0.37354 0.23056 0.37084
 N454 N 0.37012 0.24608 0.32943
 C455 C 0.34540 0.24945 0.30483
 C456 C 0.32201 0.23715 0.32217
 C457 C 0.32501 0.22117 0.36491
 C458 C 0.35067 0.21781 0.38928
 H459 H 0.44291 0.18737 0.47242
 H460 H 0.45499 0.26707 0.40832
 H461 H 0.34398 0.26212 0.27221
 H462 H 0.30747 0.21148 0.37980
 H463 H 0.39795 0.18810 0.43023
 H464 H 0.35222 0.20600 0.42283
 C465 C 0.74162 0.89765 0.89176
 C466 C 0.76007 0.90064 0.93045
 C467 C 0.75853 0.92587 0.95566
 C468 C 0.73803 0.94776 0.94344
 C469 C 0.72060 0.94423 0.90341
 N470 N 0.72279 0.91958 0.87883
 C471 C 0.74199 0.87093 0.86558
 N472 N 0.74023 0.87087 0.81623
 C473 C 0.74068 0.84669 0.79044
 C474 C 0.74229 0.82082 0.81461
 C475 C 0.74351 0.82055 0.86547
 C476 C 0.74365 0.84552 0.89103
 H477 H 0.77299 0.92814 0.98526
 H478 H 0.70488 0.96086 0.89239
 H479 H 0.73954 0.84768 0.75122
 H480 H 0.74490 0.80098 0.88539
 H481 H 0.77562 0.88369 0.94084
 H482 H 0.74466 0.84503 0.93031
 C483 C 0.23098 0.40201 0.39760
 C484 C 0.25040 0.42112 0.38702
 C485 C 0.24968 0.44597 0.41316
 C486 C 0.22960 0.45198 0.44964
 C487 C 0.21002 0.43275 0.45825
 N488 N 0.21135 0.40845 0.43269
 C489 C 0.23211 0.37494 0.37168
 N490 N 0.24783 0.37096 0.33064
 C491 C 0.25041 0.34634 0.30611
 C492 C 0.23699 0.32361 0.32309
 C493 C 0.22047 0.32727 0.36512
 C494 C 0.21784 0.35293 0.38932
 H495 H 0.26514 0.46031 0.40554
 H496 H 0.19394 0.43690 0.48559
 H497 H 0.26339 0.34445 0.27391
 H498 H 0.20970 0.31029 0.37940
 H499 H 0.26635 0.41669 0.35951
 H500 H 0.20524 0.35531 0.42195
 C501 C 0.27749 0.09953 0.89671
 C502 C 0.29535 0.09304 0.93649
 C503 C 0.29355 0.06827 0.96228
 C504 C 0.27398 0.04974 0.94891
 C505 C 0.25816 0.05603 0.90646
 N506 N 0.25997 0.08054 0.88244
 C507 C 0.27634 0.12668 0.87054
 N508 N 0.26374 0.12900 0.82617
 C509 C 0.26026 0.15353 0.80108
 C510 C 0.26942 0.17792 0.82086
 C511 C 0.28261 0.17603 0.86641
 C512 C 0.28603 0.15059 0.89137
 H513 H 0.30744 0.06366 0.99292
 H514 H 0.24296 0.04247 0.89411
 H515 H 0.24997 0.15400 0.76608
 H516 H 0.28982 0.19434 0.88324
 H517 H 0.31057 0.10677 0.94793
 H518 H 0.29532 0.15016 0.92714
 C519 C 0.76865 0.59786 0.38616
 C520 C 0.79474 0.58219 0.39317
 C521 C 0.79612 0.55714 0.41925
 C522 C 0.77169 0.54821 0.43907
 C523 C 0.74604 0.56429 0.43102
 N524 N 0.74511 0.58835 0.40480
 C525 C 0.76610 0.62452 0.35923
 N526 N 0.74347 0.63103 0.32994
 C527 C 0.73936 0.65574 0.30549
 C528 C 0.75826 0.67590 0.31115
 C529 C 0.78162 0.66969 0.34140
 C530 C 0.78577 0.64391 0.36512
 H531 H 0.81619 0.54495 0.42465
 H532 H 0.72679 0.55768 0.44553
 H533 H 0.72096 0.65990 0.28279
 H534 H 0.79664 0.68477 0.34671
 H535 H 0.81375 0.58905 0.37813
 H536 H 0.80368 0.63954 0.38892
 C537 C 0.09649 0.74204 0.89290
 C538 C 0.08288 0.76509 0.91759
 C539 C 0.05884 0.76177 0.94454
 C540 C 0.04824 0.73569 0.94623
 C541 C 0.06197 0.71336 0.92002
 N542 N 0.08578 0.71689 0.89497
 C543 C 0.12281 0.74429 0.86643
 N544 N 0.14411 0.72339 0.87073
 C545 C 0.16920 0.72455 0.84827
 C546 C 0.17365 0.74751 0.81875
 C547 C 0.15175 0.76898 0.81295
 C548 C 0.12638 0.76759 0.83718
 H549 H 0.04856 0.77942 0.96429
 H550 H 0.05420 0.69299 0.92065
 H551 H 0.18554 0.70746 0.85314
 H552 H 0.15445 0.78701 0.79042
 H553 H 0.09118 0.78521 0.91712
 H554 H 0.10965 0.78435 0.83271
 C555 C 0.60376 0.24036 0.38793
 C556 C 0.58023 0.26024 0.38296
 C557 C 0.55596 0.25704 0.40952
 C558 C 0.55511 0.23432 0.44127
 C559 C 0.57896 0.21490 0.44511
 N560 N 0.60237 0.21844 0.41896
 C561 C 0.63025 0.24273 0.36121
 N562 N 0.65463 0.22979 0.37957
 C563 C 0.67977 0.23079 0.35711
 C564 C 0.68139 0.24533 0.31309
 C565 C 0.65648 0.25857 0.29321
 C566 C 0.63094 0.25731 0.31702
 H567 H 0.53798 0.27254 0.40593
 H568 H 0.57892 0.19683 0.46862
 H569 H 0.69841 0.22013 0.37363
 H570 H 0.65667 0.26985 0.25915
 H571 H 0.58060 0.27838 0.35977
 H572 H 0.61203 0.26720 0.30032
 C573 C 0.90498 0.25732 0.88029
 C574 C 0.92984 0.24024 0.86993
 C575 C 0.95359 0.24213 0.89856
 C576 C 0.95273 0.26055 0.93837
 C577 C 0.92749 0.27762 0.94670
 N578 N 0.90471 0.27544 0.91819
 C579 C 0.87865 0.25572 0.85267
 N580 N 0.85405 0.26646 0.87325
 C581 C 0.82885 0.26559 0.85102
 C582 C 0.82734 0.25326 0.80509
 C583 C 0.85244 0.24245 0.78273
 C584 C 0.87809 0.24373 0.80621
 H585 H 0.97227 0.22818 0.89077
 H586 H 0.92592 0.29318 0.97517
 H587 H 0.81006 0.27431 0.86956
 H588 H 0.85228 0.23299 0.74710
 H589 H 0.93098 0.22496 0.84109
 H590 H 0.89708 0.23567 0.78766
 C591 C 0.39413 0.76006 0.39736
 C592 C 0.41754 0.74011 0.39201
 C593 C 0.44187 0.74294 0.41857
 C594 C 0.44288 0.76534 0.45075
 C595 C 0.41905 0.78471 0.45537
 N596 N 0.39559 0.78157 0.42909
 C597 C 0.36774 0.75828 0.37010
 N598 N 0.34338 0.77122 0.38837
 C599 C 0.31833 0.77071 0.36538
 C600 C 0.31681 0.75668 0.32095
 C601 C 0.34172 0.74351 0.30112
 C602 C 0.36715 0.74429 0.32543
 H603 H 0.45983 0.72749 0.41442
 H604 H 0.41922 0.80249 0.47935
 H605 H 0.29968 0.78129 0.38189
 H606 H 0.34159 0.73263 0.26675
 H607 H 0.41707 0.72225 0.36832
 H608 H 0.38608 0.73447 0.30876
 C609 C 0.25831 0.90183 0.11228
 C610 C 0.23481 0.91678 0.09064
 C611 C 0.23822 0.94072 0.06347
 C612 C 0.26484 0.94989 0.05860
 C613 C 0.28776 0.93466 0.08120
 N614 N 0.28405 0.91103 0.10666
 C615 C 0.25572 0.87586 0.13972
 N616 N 0.27552 0.85369 0.13401
 C617 C 0.27391 0.82893 0.15730
 C618 C 0.25162 0.82568 0.18913
 C619 C 0.23135 0.84850 0.19644
 C620 C 0.23318 0.87354 0.17144
 H621 H 0.22017 0.95210 0.04624
 H622 H 0.30857 0.94128 0.07789
 H623 H 0.29009 0.81186 0.15112
 H624 H 0.21384 0.84678 0.22070
 H625 H 0.21418 0.90968 0.09380
 H626 H 0.21733 0.89098 0.17717
 C627 C 0.76079 0.39648 0.59831
 C628 C 0.73937 0.41875 0.60085
 C629 C 0.74193 0.44324 0.57466
 C630 C 0.76560 0.44554 0.54571
 C631 C 0.78649 0.42284 0.54400
 N632 N 0.78354 0.39916 0.56977
 C633 C 0.75918 0.37007 0.62537
 N634 N 0.77299 0.34596 0.60788
 C635 C 0.77251 0.32093 0.63092
 C636 C 0.75768 0.31925 0.67458
 C637 C 0.74366 0.34394 0.69359
 C638 C 0.74435 0.36931 0.66920
 H639 H 0.72530 0.46028 0.57650
 H640 H 0.80527 0.42405 0.52267
 H641 H 0.78378 0.30245 0.61515
 H642 H 0.73210 0.34368 0.72732
 H643 H 0.72060 0.41721 0.62202
 H644 H 0.73381 0.38810 0.68512
 C645 C 0.74158 0.10023 0.10370
 C646 C 0.76083 0.07667 0.11259
 C647 C 0.75921 0.05237 0.08578
 C648 C 0.73870 0.05144 0.04979
 C649 C 0.71993 0.07541 0.04164
 N650 N 0.72190 0.09895 0.06828
 C651 C 0.74264 0.12654 0.13117
 N652 N 0.73289 0.15135 0.11013
 C653 C 0.73399 0.17632 0.13293
 C654 C 0.74549 0.17723 0.17974
 C655 C 0.75500 0.15184 0.20246
 C656 C 0.75351 0.12655 0.17850
 H657 H 0.77426 0.03436 0.09259
 H658 H 0.70377 0.07537 0.01420
 H659 H 0.72621 0.19540 0.11423
 H660 H 0.76370 0.15146 0.23877
 H661 H 0.77739 0.07705 0.13918
 H662 H 0.76059 0.10729 0.19724
 C663 C 0.23204 0.60515 0.60971
 C664 C 0.21238 0.58662 0.62192
 C665 C 0.21155 0.56201 0.59539
 C666 C 0.23042 0.55568 0.55710
 C667 C 0.25021 0.57451 0.54689
 N668 N 0.25027 0.59863 0.57262
 C669 C 0.23341 0.63151 0.63648
 N670 N 0.23740 0.65534 0.61168
 C671 C 0.23919 0.68017 0.63456
 C672 C 0.23777 0.68170 0.68536
 C673 C 0.23396 0.65732 0.71158
 C674 C 0.23144 0.63227 0.68726
 H675 H 0.19597 0.54803 0.60440
 H676 H 0.26563 0.57007 0.51853
 H677 H 0.24240 0.69851 0.61320
 H678 H 0.23279 0.65769 0.75085
 H679 H 0.19749 0.59139 0.65103
 H680 H 0.22869 0.61356 0.70794
 C681 C 0.89567 0.72909 0.10527
 C682 C 0.90471 0.70719 0.07339
 C683 C 0.92983 0.70799 0.04809
 C684 C 0.94578 0.73061 0.05420
 C685 C 0.93666 0.75140 0.08794
 N686 N 0.91213 0.75020 0.11208
 C687 C 0.86861 0.73031 0.13131
 N688 N 0.86544 0.74550 0.17295
 C689 C 0.84083 0.74887 0.19774
 C690 C 0.81727 0.73696 0.18028
 C691 C 0.82003 0.72120 0.13738
 C692 C 0.84561 0.71781 0.11284
 H693 H 0.93661 0.69126 0.02312
 H694 H 0.94858 0.76903 0.09391
 H695 H 0.83963 0.76127 0.23056
 H696 H 0.80235 0.71176 0.12249
 H697 H 0.89269 0.68959 0.06807
 H698 H 0.84696 0.70629 0.07908
 C699 C 0.40505 0.22819 0.60658
 C700 C 0.42076 0.20227 0.59859
 C701 C 0.44560 0.20124 0.57188
 C702 C 0.45424 0.22585 0.55231
 C703 C 0.43812 0.25131 0.56130
 N704 N 0.41432 0.25190 0.58819
 C705 C 0.37873 0.23043 0.63460
 N706 N 0.37272 0.25263 0.66480
 C707 C 0.34842 0.25640 0.69051
 C708 C 0.32812 0.23758 0.68537
 C709 C 0.33379 0.21467 0.65412
 C710 C 0.35919 0.21086 0.62907
 H711 H 0.45785 0.18131 0.56584
 H712 H 0.44451 0.27068 0.54700
 H713 H 0.34468 0.27447 0.71392
 H714 H 0.31860 0.19973 0.64915
 H715 H 0.41412 0.18313 0.61343
 H716 H 0.36316 0.19328 0.60461
 C717 C 0.09852 0.26947 0.11182
 C718 C 0.07604 0.28994 0.12042
 C719 C 0.05213 0.29080 0.09118
 C720 C 0.05054 0.27109 0.05397
 C721 C 0.07316 0.25034 0.04796
 N722 N 0.09644 0.25037 0.07600
 C723 C 0.12478 0.26851 0.13971
 N724 N 0.14960 0.26358 0.11574
 C725 C 0.17464 0.26153 0.13922
 C726 C 0.17556 0.26357 0.18995
 C727 C 0.15023 0.26842 0.21550
 C728 C 0.12475 0.27131 0.19039
 H729 H 0.03508 0.30706 0.09708
 H730 H 0.07246 0.23430 0.02059
 H731 H 0.19376 0.25748 0.11837
 H732 H 0.15018 0.27002 0.25472
 H733 H 0.07727 0.30551 0.14849
 H734 H 0.10526 0.27483 0.21037
 C735 C 0.59595 0.77798 0.60660
 C736 C 0.58838 0.79832 0.57084
 C737 C 0.56291 0.79799 0.54630
 C738 C 0.54512 0.77742 0.55714
 C739 C 0.55288 0.75829 0.59445
 N740 N 0.57777 0.75895 0.61770
 C741 C 0.62327 0.77598 0.63212
 N742 N 0.62573 0.76217 0.67537
 C743 C 0.65043 0.75776 0.69975
 C744 C 0.67488 0.76705 0.68021
 C745 C 0.67285 0.78151 0.63580
 C746 C 0.64715 0.78603 0.61167
 H747 H 0.55728 0.81345 0.51834
 H748 H 0.53957 0.74224 0.60401
 H749 H 0.65101 0.74647 0.73384
 H750 H 0.69120 0.78891 0.61926
 H751 H 0.60179 0.81435 0.56187
 H752 H 0.64639 0.79636 0.57671
   
