data_POSCAR
  _audit_creation_date              2014-09-24
  _audit_creation_method            'ToBaCCo'
  _symmetry_space_group_name_H-M    'P1'
  _symmetry_Int_Tables_number       1
  _symmetry_cell_setting            triclinic
  loop_
  _symmetry_equiv_pos_as_xyz
 x,y,z
_cell_length_a 36.9763
_cell_length_b 37.3458
_cell_length_c 35.6918
_cell_angle_alpha 90.290900
_cell_angle_beta 89.485400
_cell_angle_gamma 89.016200
loop_
  _atom_site_label
  _atom_site_type_symbol
  _atom_site_fract_x
  _atom_site_fract_y
  _atom_site_fract_z
C1 C 0.32092 0.33295 1.33613
 C2 C 0.33070 0.29770 1.34641
 C3 C 0.36068 0.27996 1.32987
 C4 C 0.38031 0.29747 1.30159
 C5 C 0.37076 0.33231 1.29055
 C6 C 0.34122 0.34986 1.30810
 H7 H 0.31622 0.28407 1.36836
 H8 H 0.40252 0.28399 1.28713
 H9 H 0.33301 0.37640 1.29919
 C10 C 1.16594 0.64605 0.86368
 C11 C 1.14612 0.67353 0.88241
 C12 C 1.11189 0.68489 0.86926
 C13 C 1.09722 0.66778 0.83790
 C14 C 1.11669 0.64087 0.81864
 C15 C 1.15081 0.63016 0.83178
 H16 H 1.15688 0.68586 0.90718
 H17 H 1.07080 0.67604 0.82784
 H18 H 1.16537 0.60852 0.81765
 C19 C 0.68562 -0.13915 0.14169
 C20 C 0.67041 -0.16983 0.12568
 C21 C 0.63750 -0.18362 0.13893
 C22 C 0.61912 -0.16518 0.16790
 C23 C 0.63382 -0.13474 0.18466
 C24 C 0.66710 -0.12177 0.17156
 H25 H 0.68460 -0.18239 0.10243
 H26 H 0.59350 -0.17504 0.17827
 H27 H 0.67747 -0.09766 0.18394
 C28 C -0.18386 1.12624 -0.34875
 C29 C -0.16829 1.15495 -0.36809
 C30 C -0.13902 1.17366 -0.35294
 C31 C -0.12530 1.16257 -0.31799
 C32 C -0.14004 1.13349 -0.29870
 C33 C -0.16934 1.11542 -0.31437
 H34 H -0.17891 1.16266 -0.39513
 H35 H -0.10233 1.17548 -0.30567
 H36 H -0.18179 1.09359 -0.29954
 C37 C 0.70083 0.63779 0.61567
 C38 C 0.68789 0.62214 0.64886
 C39 C 0.66278 0.64044 0.67182
 C40 C 0.65046 0.67471 0.66147
 C41 C 0.66240 0.69026 0.62790
 C42 C 0.68754 0.67160 0.60524
 H43 H 0.69681 0.59557 0.65693
 H44 H 0.63279 0.68968 0.68032
 H45 H 0.69736 0.68377 0.57967
 C46 C 0.81421 0.38736 0.10872
 C47 C 0.82850 0.35432 0.09584
 C48 C 0.85605 0.33620 0.11565
 C49 C 0.86920 0.35212 0.14875
 C50 C 0.85496 0.38506 0.16201
 C51 C 0.82806 0.40268 0.14139
 H52 H 0.81842 0.34285 0.07010
 H53 H 0.89158 0.34010 0.16348
 H54 H 0.81720 0.42821 0.15131
 C55 C 0.27763 0.17934 0.85266
 C56 C 0.29315 0.16437 0.81967
 C57 C 0.32509 0.17849 0.80435
 C58 C 0.34139 0.20752 0.82209
 C59 C 0.32647 0.22246 0.85493
 C60 C 0.29470 0.20838 0.86986
 H61 H 0.27995 0.14297 0.80498
 H62 H 0.36642 0.21773 0.81073
 H63 H 0.28337 0.22011 0.89535
 C64 C 0.19707 0.83878 0.37196
 C65 C 0.17526 0.85615 0.34544
 C66 C 0.14382 0.84049 0.33170
 C67 C 0.13336 0.80713 0.34557
 C68 C 0.15452 0.78898 0.37242
 C69 C 0.18644 0.80497 0.38528
 H70 H 0.18262 0.88255 0.33585
 H71 H 0.10934 0.79520 0.33429
 H72 H 0.20282 0.79056 0.40531
 Zn73 Zn 0.00270 1.04937 0.00191
 Zn74 Zn -0.02503 0.97392 0.00571
 Zn75 Zn 0.05042 0.99041 0.02903
 Zn76 Zn -0.01075 1.01592 0.07630
 O77 O 0.00413 1.00735 0.02811
 O78 O -0.02614 1.04669 -0.03779
 O79 O -0.00073 0.93285 -0.00760
 O80 O 0.08110 1.01698 0.00301
 O81 O -0.04553 0.99088 -0.03649
 O82 O 0.04610 1.06143 -0.01703
 O83 O 0.05471 0.94700 0.00931
 O84 O 0.02122 1.00109 0.11085
 O85 O -0.06226 0.96159 0.03587
 O86 O 0.06810 0.98553 0.07508
 O87 O -0.05140 0.99337 0.08709
 O88 O -0.02077 1.06237 0.08540
 O89 O -0.01354 1.08691 0.02951
 C90 C -0.04438 1.02150 -0.05178
 C91 C 0.03280 0.92514 -0.00474
 C92 C 0.07671 1.04557 -0.01541
 C93 C 0.05332 0.98898 0.10706
 C94 C -0.07077 0.97184 0.06890
 C95 C -0.02216 1.08938 0.06398
 Zn96 Zn 0.47775 -0.00467 0.46878
 Zn97 Zn 0.46924 -0.02948 0.54764
 Zn98 Zn 0.54316 -0.01860 0.51582
 Zn99 Zn 0.49558 0.04425 0.53290
 O100 O 0.49639 -0.00210 0.51620
 O101 O 0.43875 -0.03294 0.46572
 O102 O 0.49491 -0.06449 0.56933
 O103 O 0.55886 -0.03083 0.46991
 O104 O 0.43342 -0.05165 0.52421
 O105 O 0.51018 -0.02202 0.43519
 O106 O 0.54916 -0.05744 0.54397
 O107 O 0.53925 0.05997 0.54650
 O108 O 0.44788 -0.00401 0.58442
 O109 O 0.57462 0.01314 0.53351
 O110 O 0.46623 0.05101 0.57281
 O111 O 0.48025 0.07456 0.49777
 O112 O 0.46456 0.03856 0.45126
 C113 C 0.42290 -0.05145 0.49053
 C114 C 0.52771 -0.07421 0.56523
 C115 C 0.54315 -0.03155 0.43849
 C116 C 0.57026 0.04491 0.54567
 C117 C 0.44786 0.02918 0.59206
 C118 C 0.46784 0.06970 0.46518
 Zn119 Zn 0.99932 0.47156 0.54570
 Zn120 Zn 1.01539 0.42541 0.48056
 Zn121 Zn 0.98305 0.49836 0.46822
 Zn122 Zn 1.05975 0.49065 0.49475
 O123 O 1.01438 0.47165 0.49712
 O124 O 0.99051 0.42801 0.56391
 O125 O 0.98946 0.41948 0.43929
 O126 O 0.94412 0.51449 0.49474
 O127 O 0.99859 0.39365 0.51390
 O128 O 0.95801 0.49514 0.55155
 O129 O 0.96578 0.47337 0.42885
 O130 O 1.06125 0.53028 0.46648
 O131 O 1.05998 0.41065 0.46840
 O132 O 1.00427 0.53736 0.44881
 O133 O 1.09282 0.45925 0.47632
 O134 O 1.07599 0.50514 0.53970
 O135 O 1.02995 0.49228 0.57691
 C136 C 0.98956 0.39764 0.54806
 C137 C 0.97035 0.44062 0.41973
 C138 C 0.93690 0.51140 0.52947
 C139 C 1.03671 0.54804 0.44970
 C140 C 1.08997 0.42654 0.46694
 C141 C 1.06093 0.50549 0.57179
 Zn142 Zn 0.46577 0.52422 0.94487
 Zn143 Zn 0.53675 0.53721 0.98079
 Zn144 Zn 0.46734 0.54903 1.02414
 Zn145 Zn 0.49314 0.47476 1.00370
 O146 O 0.49078 0.52134 0.98849
 O147 O 0.49134 0.54310 0.90772
 O148 O 0.54576 0.57567 1.00869
 O149 O 0.42594 0.56952 1.00766
 O150 O 0.54502 0.55069 0.93328
 O151 O 0.42534 0.55075 0.94884
 O152 O 0.49471 0.58493 1.04058
 O153 O 0.47292 0.46882 1.04872
 O154 O 0.57124 0.50457 0.99218
 O155 O 0.45489 0.52373 1.06469
 O156 O 0.53858 0.45785 1.00805
 O157 O 0.47086 0.44485 0.97243
 O158 O 0.45190 0.48169 0.92807
 C159 C 0.52395 0.55270 0.90544
 C160 C 0.52682 0.59356 1.03224
 C161 C 0.41098 0.56823 0.97583
 C162 C 0.45827 0.49061 1.07190
 C163 C 0.56899 0.47242 1.00325
 C164 C 0.45494 0.45053 0.94161
 C165 C 1.29202 0.35229 0.35301
 C166 C 1.26735 0.33826 0.37872
 C167 C 1.23836 0.36040 0.39578
 N168 N 1.21117 0.34445 0.41475
 N169 N 1.18438 0.36398 0.42998
 C170 C 1.18391 0.40023 0.42704
 N171 N 1.21135 0.41626 0.40849
 N172 N 1.23808 0.39669 0.39306
 C173 C 1.15378 0.42181 0.44276
 C174 C 1.12170 0.40588 0.45385
 H175 H 1.26759 0.31019 0.38576
 H176 H 1.15609 0.45068 0.44361
 H177 H 1.28816 0.38008 0.34509
 H178 H 1.11889 0.37717 0.45088
 C179 C 0.20035 0.63353 0.87489
 C180 C 0.21941 0.64450 0.90660
 C181 C 0.25571 0.62934 0.91454
 N182 N 0.27231 0.63638 0.94752
 N183 N 0.30493 0.62232 0.95477
 C184 C 0.32215 0.60082 0.92918
 N185 N 0.30566 0.59403 0.89621
 N186 N 0.27311 0.60797 0.88905
 C187 C 0.35790 0.58442 0.93620
 C188 C 0.37610 0.58712 0.97015
 H189 H 0.20796 0.66359 0.92640
 H190 H 0.36993 0.56861 0.91365
 H191 H 0.21327 0.61313 0.85741
 H192 H 0.36421 0.60243 0.99313
 C193 C -0.28140 0.87261 0.12645
 C194 C -0.26076 0.90080 0.13999
 C195 C -0.22642 0.91031 0.12156
 N196 N -0.20433 0.93435 0.13783
 N197 N -0.17309 0.94285 0.12153
 C198 C -0.16280 0.92769 0.08831
 N199 N -0.18498 0.90383 0.07193
 N200 N -0.21615 0.89526 0.08829
 C201 C -0.12852 0.93714 0.06986
 C202 C -0.10395 0.95945 0.08724
 H203 H -0.26864 0.91559 0.16492
 H204 H -0.12274 0.92666 0.04205
 H205 H -0.27054 0.85805 0.10239
 H206 H -0.10973 0.96936 0.11528
 C207 C 0.78504 0.10664 0.63599
 C208 C 0.75760 0.12332 0.61548
 C209 C 0.72583 0.10372 0.60231
 N210 N 0.69626 0.12201 0.58994
 N211 N 0.66724 0.10462 0.57819
 C212 C 0.66682 0.06825 0.57816
 N213 N 0.69651 0.04997 0.59021
 N214 N 0.72541 0.06736 0.60220
 C215 C 0.63519 0.04849 0.56497
 C216 C 0.60165 0.06506 0.55887
 H217 H 0.75837 0.15189 0.61064
 H218 H 0.63819 0.01982 0.56092
 H219 H 0.78217 0.07880 0.64374
 H220 H 0.59801 0.09338 0.56479
 C221 C 0.36982 0.24535 0.34239
 C222 C 0.40328 0.22833 0.33619
 C223 C 0.41174 0.19396 0.35405
 N224 N 0.44547 0.18742 0.36721
 N225 N 0.45293 0.15733 0.38565
 C226 C 0.42704 0.13249 0.39112
 N227 N 0.39352 0.13860 0.37714
 N228 N 0.38591 0.16897 0.35918
 C229 C 0.43484 0.10008 0.41281
 C230 C 0.45827 0.10133 0.44302
 H231 H 0.42534 0.24220 0.32291
 H232 H 0.42036 0.07580 0.40666
 H233 H 0.35083 0.23201 0.36075
 H234 H 0.46940 0.12678 0.45141
 C235 C 0.87581 0.20217 0.62643
 C236 C 0.90157 0.22592 0.64015
 C237 C 0.91740 0.25443 0.61715
 N238 N 0.93707 0.28023 0.63389
 N239 N 0.95193 0.30615 0.61375
 C240 C 0.94794 0.30712 0.57598
 N241 N 0.92851 0.28113 0.55914
 N242 N 0.91345 0.25529 0.57934
 C243 C 0.96384 0.33600 0.55351
 C244 C 0.97714 0.36695 0.57011
 H245 H 0.90978 0.22523 0.66908
 H246 H 0.96314 0.33379 0.52325
 H247 H 0.86600 0.20667 0.59828
 H248 H 0.97569 0.37006 0.60029
 C249 C 0.09054 0.71450 -0.11275
 C250 C 0.10584 0.74112 -0.09068
 C251 C 0.08501 0.77222 -0.07598
 N252 N 0.10227 0.79736 -0.05568
 N253 N 0.08451 0.82628 -0.04293
 C254 C 0.04873 0.83135 -0.04993
 N255 N 0.03132 0.80609 -0.07011
 N256 N 0.04913 0.77705 -0.08291
 C257 C 0.02949 0.86411 -0.03655
 C258 C 0.04822 0.89059 -0.01754
 H259 H 0.13455 0.74050 -0.08522
 H260 H 0.00100 0.86781 -0.04246
 H261 H 0.06205 0.71683 -0.11933
 H262 H 0.07680 0.88639 -0.01232
 C263 C 0.62228 0.78490 1.12443
 C264 C 0.63946 0.76185 1.09853
 C265 C 0.62262 0.72921 1.08439
 N266 N 0.58863 0.71996 1.09484
 N267 N 0.57397 0.69025 1.08140
 C268 C 0.59280 0.66876 1.05707
 N269 N 0.62671 0.67802 1.04671
 N270 N 0.64136 0.70769 1.06013
 C271 C 0.57714 0.63621 1.04138
 C272 C 0.54225 0.62527 1.05012
 H273 H 0.66654 0.76652 1.08846
 H274 H 0.59357 0.62069 1.02172
 H275 H 0.59585 0.77737 1.13480
 H276 H 0.52567 0.64059 1.06981
 C277 C 0.39084 0.34865 1.25907
 C278 C 0.39058 0.38533 1.25174
 C279 C 0.40696 0.39997 1.21757
 N280 N 0.40423 0.43558 1.21057
 N281 N 0.41764 0.44903 1.17897
 C282 C 0.43425 0.42731 1.15323
 N283 N 0.43716 0.39175 1.16033
 N284 N 0.42372 0.37830 1.19189
 C285 C 0.44841 0.44141 1.11781
 C286 C 0.44477 0.47736 1.10800
 H287 H 0.37751 0.40405 1.27093
 H288 H 0.46160 0.42268 1.09862
 H289 H 0.40629 0.33087 1.24067
 H290 H 0.43163 0.49621 1.12708
 C291 C 0.61320 -0.11692 0.21541
 C292 C 0.62962 -0.09955 0.24529
 C293 C 0.60845 -0.08540 0.27740
 N294 N 0.62552 -0.07531 0.30914
 N295 N 0.60661 -0.06346 0.33879
 C296 C 0.56992 -0.06112 0.33775
 N297 N 0.55288 -0.07085 0.30587
 N298 N 0.57177 -0.08286 0.27629
 C299 C 0.54861 -0.04856 0.37045
 C300 C 0.56419 -0.04363 0.40547
 H301 H 0.65882 -0.09842 0.24654
 H302 H 0.51980 -0.04406 0.36707
 H303 H 0.58417 -0.12044 0.21625
 H304 H 0.59277 -0.04934 0.40908
 C305 C -0.12455 1.12378 -0.26181
 C306 C -0.12930 1.09093 -0.24396
 C307 C -0.11252 1.08310 -0.20750
 N308 N -0.11601 1.05035 -0.19162
 N309 N -0.10060 1.04301 -0.15881
 C310 C -0.08116 1.06823 -0.14070
 N311 N -0.07780 1.10095 -0.15653
 N312 N -0.09316 1.10826 -0.18926
 C313 C -0.06331 1.06089 -0.10480
 C314 C -0.06439 1.02785 -0.08675
 H315 H -0.14465 1.07002 -0.25712
 H316 H -0.04810 1.08244 -0.09247
 H317 H -0.10741 1.14329 -0.24857
 H318 H -0.07952 1.00611 -0.09878
 C319 C 1.10045 0.62341 0.78561
 C320 C 1.12128 0.60847 0.75645
 C321 C 1.10526 0.58875 0.72510
 N322 N 1.12639 0.57786 0.69575
 N323 N 1.11247 0.55935 0.66747
 C324 C 1.07691 0.55083 0.66768
 N325 N 1.05583 0.56160 0.69710
 N326 N 1.06972 0.58022 0.72529
 C327 C 1.06082 0.53058 0.63677
 C328 C 1.07936 0.52252 0.60345
 H329 H 1.15033 0.61152 0.75620
 H330 H 1.03274 0.52319 0.63978
 H331 H 1.07122 0.62316 0.78376
 H332 H 1.10701 0.53099 0.59960
 C333 C 0.72873 0.62008 0.59173
 C334 C 0.75339 0.59508 0.60572
 C335 C 0.78418 0.58105 0.58373
 N336 N 0.80861 0.55931 0.60066
 N337 N 0.83771 0.54738 0.58210
 C338 C 0.84361 0.55668 0.54587
 N339 N 0.81894 0.57814 0.52865
 N340 N 0.78972 0.59020 0.54731
 C341 C 0.87658 0.54411 0.52609
 C342 C 0.90352 0.52624 0.54595
 H343 H 0.75201 0.58714 0.63477
 H344 H 0.87984 0.54916 0.49641
 H345 H 0.73202 0.62935 0.56319
 H346 H 0.89998 0.52220 0.57579
 C347 C 0.78513 0.40692 1.08866
 C348 C 0.75761 0.38983 1.06933
 C349 C 0.72654 0.40992 1.05378
 N350 N 0.69658 0.39226 1.04291
 N351 N 0.66774 0.41021 1.03023
 C352 C 0.66786 0.44650 1.02771
 N353 N 0.69800 0.46411 1.03809
 N354 N 0.72675 0.44619 1.05098
 C355 C 0.63577 0.46693 1.01509
 C356 C 0.60197 0.45130 1.01146
 H357 H 0.75726 0.36087 1.06804
 H358 H 0.63834 0.49549 1.01089
 H359 H 0.78334 0.43571 1.09242
 H360 H 0.59907 0.42305 1.01732
 C361 C 0.24552 1.16704 -0.13082
 C362 C 0.22885 1.13480 -0.13943
 C363 C 0.19640 1.12385 -0.11863
 N364 N 0.18987 1.08861 -0.11337
 N365 N 0.16155 1.07848 -0.09294
 C366 C 0.13853 1.10321 -0.07734
 N367 N 0.14460 1.13844 -0.08329
 N368 N 0.17317 1.14858 -0.10335
 C369 C 0.10758 1.09219 -0.05426
 C370 C 0.10790 1.05922 -0.03628
 H371 H 0.24138 1.11556 -0.15842
 H372 H 0.08487 1.11058 -0.05045
 H373 H 0.23376 1.18279 -0.10802
 H374 H 0.13194 1.04225 -0.03804
 C375 C 0.22875 -0.14378 0.38320
 C376 C 0.25259 -0.15499 0.41119
 C377 C 0.28505 -0.13406 0.41992
 N378 N 0.30364 -0.14025 0.45192
 N379 N 0.33252 -0.12092 0.46026
 C380 C 0.34401 -0.09480 0.43679
 N381 N 0.32568 -0.08892 0.40461
 N382 N 0.29674 -0.10810 0.39639
 C383 C 0.37561 -0.07285 0.44569
 C384 C 0.39174 -0.07361 0.48081
 H385 H 0.24714 -0.17821 0.42813
 H386 H 0.38567 -0.05486 0.42444
 H387 H 0.23500 -0.11885 0.36930
 H388 H 0.38078 -0.09069 0.50241
 C389 C 0.65067 -0.27342 0.61656
 C390 C 0.61878 -0.25688 0.62936
 C391 C 0.60807 -0.22082 0.61718
 N392 N 0.57528 -0.20693 0.62733
 N393 N 0.56492 -0.17455 0.61572
 C394 C 0.58708 -0.15487 0.59369
 N395 N 0.61999 -0.16863 0.58385
 N396 N 0.63031 -0.20101 0.59540
 C397 C 0.57548 -0.11999 0.57903
 C398 C 0.54066 -0.10625 0.58490
 H399 H 0.60037 -0.27093 0.64758
 H400 H 0.59426 -0.10582 0.56123
 H401 H 0.66723 -0.25969 0.59616
 H402 H 0.52173 -0.12043 0.60251
 C403 C 1.14514 0.75277 0.38659
 C404 C 1.11143 0.73685 0.38200
 C405 C 1.10351 0.70047 0.39559
 N406 N 1.07011 0.68674 0.39058
 N407 N 1.06238 0.65400 0.40269
 C408 C 1.08783 0.63366 0.42024
 N409 N 1.12125 0.64735 0.42518
 N410 N 1.12898 0.68009 0.41307
 C411 C 1.07963 0.59768 0.43470
 C412 C 1.04557 0.58230 0.43155
 H413 H 1.08961 0.75131 0.36858
 H414 H 1.10086 0.58336 0.44940
 H415 H 1.16575 0.73812 0.40187
 H416 H 1.02421 0.59659 0.41703
 C417 C -0.13007 1.30337 0.10120
 C418 C -0.10647 1.28020 0.12035
 C419 C -0.09146 1.24688 0.10360
 N420 N -0.07373 1.22295 0.12562
 N421 N -0.05956 1.19284 0.11114
 C422 C -0.06235 1.18558 0.07396
 N423 N -0.07987 1.20962 0.05185
 N424 N -0.09422 1.23969 0.06639
 C425 C -0.04698 1.15221 0.05763
 C426 C -0.03469 1.12395 0.07990
 H427 H -0.09948 1.28522 0.14918
 H428 H -0.04696 1.14914 0.02743
 H429 H -0.13899 1.29490 0.07374
 H430 H -0.03661 1.12629 0.11012
 C431 C 0.34434 0.25169 0.87519
 C432 C 0.36518 0.27721 0.85715
 C433 C 0.38331 0.30556 0.87801
 N434 N 0.39655 0.33418 0.85950
 N435 N 0.41284 0.36024 0.87811
 C436 C 0.41675 0.35846 0.91586
 N437 N 0.40392 0.32962 0.93432
 N438 N 0.38740 0.30366 0.91573
 C439 C 0.43407 0.38735 0.93673
 C440 C 0.43943 0.42073 0.92069
 H441 H 0.36714 0.27741 0.82687
 H442 H 0.44104 0.38284 0.96576
 H443 H 0.33964 0.25407 0.90512
 H444 H 0.43040 0.42581 0.89239
 C445 C 0.65116 0.62396 0.70737
 C446 C 0.61709 0.63055 0.72312
 C447 C 0.60603 0.61506 0.75904
 N448 N 0.57075 0.61665 0.76963
 N449 N 0.56022 0.60304 0.80226
 C450 C 0.58462 0.58757 0.82564
 N451 N 0.61999 0.58627 0.81522
 N452 N 0.63051 0.59969 0.78243
 C453 C 0.57311 0.57263 0.86174
 C454 C 0.53674 0.56686 0.86957
 H455 H 0.59737 0.64666 0.70819
 H456 H 0.59352 0.56532 0.88204
 H457 H 0.66936 0.60493 0.72062
 H458 H 0.51670 0.57233 0.84829
 C459 C 0.34212 0.16450 0.76946
 C460 C 0.33943 0.12920 0.75697
 C461 C 0.36041 0.11607 0.72424
 N462 N 0.36064 0.08076 0.71508
 N463 N 0.38044 0.06853 0.68620
 C464 C 0.40074 0.09119 0.66541
 N465 N 0.40031 0.12650 0.67443
 N466 N 0.38058 0.13870 0.70331
 C467 C 0.42314 0.07823 0.63371
 C468 C 0.42576 0.04210 0.62398
 H469 H 0.32349 0.11025 0.77257
 H470 H 0.43809 0.09772 0.61771
 H471 H 0.36002 0.18223 0.75450
 H472 H 0.41087 0.02258 0.64000
 C473 C 0.12146 0.85910 0.30322
 C474 C 0.13664 0.88228 0.27705
 C475 C 0.11534 0.90332 0.25013
 N476 N 0.13283 0.92274 0.22381
 N477 N 0.11438 0.94228 0.19917
 C478 C 0.07767 0.94339 0.20007
 N479 N 0.06011 0.92419 0.22663
 N480 N 0.07860 0.90452 0.25126
 C481 C 0.05708 0.96350 0.17169
 C482 C 0.07396 0.97711 0.13982
 H483 H 0.16572 0.88493 0.27560
 H484 H 0.02785 0.96452 0.17404
 H485 H 0.09279 0.85372 0.30221
 H486 H 0.10300 0.97405 0.13649
 C487 C 0.86816 0.40223 0.19681
 C488 C 0.88385 0.38295 0.22606
 C489 C 0.89666 0.40001 0.26068
 N490 N 0.91180 0.37939 0.28768
 N491 N 0.92395 0.39410 0.31910
 C492 C 0.92141 0.43005 0.32482
 N493 N 0.90614 0.45073 0.29786
 N494 N 0.89399 0.43600 0.26634
 C495 C 0.93553 0.44645 0.35933
 C496 C 0.95359 0.42580 0.38595
 H497 H 0.88637 0.35410 0.22419
 H498 H 0.93263 0.47514 0.36329
 H499 H 0.86370 0.43081 0.20027
 H500 H 0.95690 0.39724 0.38128
   
