data_POSCAR
  _audit_creation_date              2014-09-24
  _audit_creation_method            'ToBaCCo'
  _symmetry_space_group_name_H-M    'P1'
  _symmetry_Int_Tables_number       1
  _symmetry_cell_setting            triclinic
  loop_
  _symmetry_equiv_pos_as_xyz
 x,y,z
_cell_length_a 11.1087
_cell_length_b 11.4705
_cell_length_c 29.1522
_cell_angle_alpha 91.153500
_cell_angle_beta 89.259800
_cell_angle_gamma 124.208500
loop_
  _atom_site_label
  _atom_site_type_symbol
  _atom_site_fract_x
  _atom_site_fract_y
  _atom_site_fract_z
C1 C 0.10698 -0.00099 0.50990
 C2 C 0.97933 0.06502 0.16181
 C3 C -0.09867 0.90200 0.82725
 O4 O 0.51523 -0.05681 0.04832
 O5 O 0.26232 -0.09465 -0.04287
 O6 O 0.46832 -0.14138 -0.03837
 O7 O 0.29176 -0.04103 0.04409
 O8 O 0.44098 0.18217 0.02461
 O9 O 0.63231 0.08101 -0.05536
 O10 O 0.42645 0.12671 -0.06117
 O11 O 0.66322 0.16845 0.03130
 Cu12 Cu 0.37024 -0.10630 0.00421
 Cu13 Cu 0.55800 0.16162 -0.01725
 C14 C 0.62957 0.06546 0.05627
 C15 C 0.30191 0.01365 -0.06655
 C16 C 0.57911 -0.04988 -0.06090
 C17 C 0.33304 0.08654 0.04774
 O18 O -0.05088 0.53219 0.61575
 O19 O -0.13433 0.24878 0.69671
 O20 O -0.16017 0.46300 0.70020
 O21 O -0.03887 0.30928 0.61499
 O22 O 0.18321 0.43958 0.64401
 O23 O 0.06443 0.60435 0.72606
 O24 O 0.08928 0.38788 0.72404
 O25 O 0.17512 0.65796 0.64136
 Cu26 Cu -0.11955 0.37702 0.65431
 Cu27 Cu 0.14950 0.53915 0.68729
 C28 C 0.07919 0.64114 0.61382
 C29 C -0.03152 0.26898 0.72198
 C30 C -0.06941 0.55910 0.72767
 C31 C 0.09115 0.34269 0.61681
 O32 O 0.57419 0.72026 0.29741
 O33 O 0.38313 0.44097 0.38701
 O34 O 0.59039 0.70773 0.38992
 O35 O 0.32295 0.47849 0.30755
 O36 O 0.44532 0.38760 0.28582
 O37 O 0.72747 0.62941 0.37344
 O38 O 0.51818 0.36380 0.36515
 O39 O 0.70001 0.63006 0.28062
 Cu40 Cu 0.45858 0.59939 0.34704
 Cu41 Cu 0.61480 0.49939 0.32412
 C42 C 0.66807 0.71682 0.27251
 C43 C 0.41790 0.35188 0.38962
 C44 C 0.69948 0.70502 0.39824
 C45 C 0.33142 0.39007 0.28419
 N46 N 0.25864 0.27918 0.59511
 N47 N 0.26257 0.18618 0.56882
 C48 C 0.13383 0.10798 0.54650
 C49 C 0.05089 0.15891 0.56003
 N50 N 0.13312 0.26521 0.59007
 H51 H -0.05689 0.12539 0.54936
 N52 N 0.72736 0.91656 0.22254
 N53 N 0.79906 0.85772 0.20725
 C54 C 0.90207 0.90864 0.17140
 C55 C 0.83543 0.80763 0.20557
 N56 N 0.74378 0.81401 0.23251
 H57 H 0.85713 0.71717 0.20733
 N58 N 0.23090 0.13457 -0.11357
 N59 N 0.12603 0.10988 -0.14137
 C60 C 0.02979 -0.03151 -0.14438
 C61 C 0.07865 -0.09289 -0.11597
 N62 N 0.20548 0.01505 -0.09815
 H63 H 0.02845 -0.20359 -0.10942
 N64 N 0.25875 0.83319 0.56647
 N65 N 0.27060 0.92735 0.53795
 C66 C 0.13589 0.89876 0.53243
 C67 C 0.04085 0.78392 0.55958
 N68 N 0.12204 0.74612 0.57981
 H69 H -0.07320 0.73893 0.56622
 N70 N 0.07782 0.27041 0.26653
 N71 N -0.01875 0.18608 0.23530
 C72 C 0.05000 0.15146 0.20532
 C73 C 0.19354 0.21705 0.21989
 N74 N 0.20557 0.29071 0.25796
 H75 H 0.28138 0.21713 0.20334
 N76 N 0.58106 -0.23407 -0.10144
 N77 N 0.66054 -0.25166 -0.13110
 C78 C 0.77584 -0.12248 -0.14257
 C79 C 0.76460 -0.02389 -0.11776
 N80 N 0.64122 -0.09851 -0.09287
 H81 H 0.83990 0.08968 -0.11715
 N82 N 0.27538 0.24707 0.08048
 N83 N 0.18156 0.24386 0.10985
 C84 C 0.09761 0.11117 0.12605
 C85 C 0.14383 0.03322 0.10550
 N86 N 0.25456 0.12177 0.07759
 H87 H 0.10181 -0.07670 0.11042
 N88 N 0.74358 0.84594 0.46657
 N89 N 0.84596 0.92404 0.49732
 C90 C 0.95865 0.91457 0.48714
 C91 C 0.92030 0.82532 0.44895
 N92 N 0.78612 0.78654 0.43705
 H93 H 0.98659 0.79822 0.43044
 N94 N 0.05774 0.12470 0.73212
 N95 N 0.04262 0.02708 0.75938
 C96 C -0.06805 -0.00809 0.78865
 C97 C -0.12212 0.07203 0.77756
 N98 N -0.03949 0.15304 0.74230
 H99 H -0.20575 0.07761 0.79469
 N100 N 0.79325 0.21310 0.11720
 N101 N 0.88645 0.21728 0.14609
 C102 C 0.87307 0.09313 0.14163
 C103 C 0.76844 0.01284 0.10838
 N104 N 0.72117 0.09137 0.09444
 H105 H 0.73844 -0.08718 0.09342
 N106 N 0.36349 0.12966 0.41646
 N107 N 0.28533 0.03400 0.44789
 C108 C 0.21484 0.07998 0.47190
 C109 C 0.24973 0.20598 0.45323
 N110 N 0.34403 0.23343 0.41918
 H111 H 0.21136 0.27094 0.46355
 N112 N -0.25783 0.57255 0.76470
 N113 N -0.27026 0.65861 0.79203
 C114 C -0.13507 0.76235 0.80622
 C115 C -0.03850 0.73706 0.78536
 N116 N -0.11953 0.61825 0.76004
 H117 H 0.07922 0.80539 0.78524
   
