data_POSCAR
  _audit_creation_date              2014-09-24
  _audit_creation_method            'ToBaCCo'
  _symmetry_space_group_name_H-M    'P1'
  _symmetry_Int_Tables_number       1
  _symmetry_cell_setting            triclinic
  loop_
  _symmetry_equiv_pos_as_xyz
 x,y,z
_cell_length_a 46.7884
_cell_length_b 46.8987
_cell_length_c 44.9679
_cell_angle_alpha 89.938800
_cell_angle_beta 89.909200
_cell_angle_gamma 91.106300
loop_
  _atom_site_label
  _atom_site_type_symbol
  _atom_site_fract_x
  _atom_site_fract_y
  _atom_site_fract_z
O1 O 0.03465 0.27126 -0.03759
 O2 O -0.01901 0.27074 0.02218
 O3 O 0.03672 0.27360 0.02018
 O4 O -0.02080 0.26768 -0.03549
 O5 O -0.01908 0.22079 -0.03285
 O6 O 0.03841 0.22668 0.02266
 O7 O -0.01686 0.22392 0.02500
 O8 O 0.03675 0.22437 -0.03521
 Cu9 Cu 0.00770 0.27551 -0.00791
 Cu10 Cu 0.00998 0.21923 -0.00496
 C11 C 0.04494 0.24796 -0.04664
 C12 C -0.02713 0.24730 0.03399
 C13 C 0.04735 0.25112 0.03100
 C14 C -0.02983 0.24320 -0.04365
 O15 O 0.46897 0.77010 0.53047
 O16 O 0.52318 0.76466 0.47196
 O17 O 0.46750 0.76568 0.47263
 O18 O 0.52429 0.76593 0.52974
 O19 O 0.52090 0.71900 0.53197
 O20 O 0.46441 0.71879 0.47571
 O21 O 0.51998 0.71771 0.47385
 O22 O 0.46552 0.72320 0.53333
 Cu23 Cu 0.49628 0.77127 0.50091
 Cu24 Cu 0.49244 0.71499 0.50397
 C25 C 0.45800 0.74776 0.54205
 C26 C 0.53090 0.74042 0.46280
 C27 C 0.45622 0.74205 0.46448
 C28 C 0.53219 0.74234 0.54069
 O29 O 1.02420 0.72420 0.03206
 O30 O 0.96725 0.71822 -0.02421
 O31 O 1.02297 0.72048 -0.02546
 O32 O 0.96883 0.72157 0.03389
 O33 O 0.96809 0.76853 0.03129
 O34 O 1.02068 0.76719 -0.02976
 O35 O 0.96516 0.76514 -0.02630
 O36 O 1.02395 0.77100 0.02777
 Cu37 Cu 0.99584 0.71641 0.00435
 Cu38 Cu 0.99431 0.77266 0.00048
 C39 C 1.03417 0.74863 0.03929
 C40 C 0.95637 0.74069 -0.03478
 C41 C 1.03117 0.74361 -0.03784
 C42 C 0.95939 0.74524 0.04296
 O43 O 0.53413 0.21776 0.52116
 O44 O 0.48076 0.22029 0.46124
 O45 O 0.53606 0.21812 0.46302
 O46 O 0.47874 0.22083 0.51920
 O47 O 0.48184 0.26785 0.51899
 O48 O 0.53910 0.26512 0.46313
 O49 O 0.48346 0.26733 0.46146
 O50 O 0.53755 0.26475 0.52095
 Cu51 Cu 0.50715 0.21453 0.49120
 Cu52 Cu 0.51086 0.27097 0.49116
 C53 C 0.54501 0.24078 0.53129
 C54 C 0.47290 0.24420 0.45117
 C55 C 0.54729 0.24122 0.45338
 C56 C 0.47037 0.24485 0.52853
 O57 O 0.72067 -0.02110 0.02738
 O58 O 0.72726 0.03195 -0.03260
 O59 O 0.72587 -0.02352 -0.03030
 O60 O 0.72325 0.03431 0.02503
 O61 O 0.77029 0.03415 0.02820
 O62 O 0.77276 -0.02464 -0.02559
 O63 O 0.77421 0.03055 -0.02955
 O64 O 0.76761 -0.02146 0.03176
 Cu65 Cu 0.71956 0.00547 -0.00301
 Cu66 Cu 0.77592 0.00465 0.00168
 C67 C 0.74297 -0.03038 0.03986
 C68 C 0.75181 0.04023 -0.04162
 C69 C 0.74980 -0.03404 -0.03732
 C70 C 0.74641 0.04425 0.03593
 O71 O 0.22572 0.52871 0.47731
 O72 O 0.22480 0.46980 0.53164
 O73 O 0.22180 0.52500 0.53500
 O74 O 0.22821 0.47340 0.47390
 O75 O 0.27520 0.47632 0.47712
 O76 O 0.26882 0.52823 0.53811
 O77 O 0.27181 0.47276 0.53480
 O78 O 0.27270 0.53186 0.48077
 Cu79 Cu 0.22043 0.49891 0.50412
 Cu80 Cu 0.27685 0.50255 0.50801
 C81 C 0.24936 0.54050 0.46991
 C82 C 0.24816 0.46117 0.54250
 C83 C 0.24421 0.53558 0.54690
 C84 C 0.25276 0.46594 0.46509
 O85 O 0.26167 1.02970 0.03558
 O86 O 0.26501 0.97443 -0.02207
 O87 O 0.26473 1.02985 -0.02233
 O88 O 0.25990 0.97425 0.03570
 O89 O 0.21291 0.97374 0.03174
 O90 O 0.21772 1.03002 -0.02501
 O91 O 0.21804 0.97425 -0.02601
 O92 O 0.21467 1.02934 0.03254
 Cu93 Cu 0.26751 1.00206 0.00706
 Cu94 Cu 0.21114 1.00176 0.00293
 C95 C 0.23769 1.03908 0.04404
 C96 C 0.24220 0.96489 -0.03400
 C97 C 0.24195 1.03970 -0.03345
 C98 C 0.23551 0.96448 0.04362
 O99 O 0.77626 0.53268 0.53208
 O100 O 0.78298 0.47813 0.47397
 O101 O 0.78129 0.53359 0.47445
 O102 O 0.77706 0.47720 0.53150
 O103 O 0.73024 0.47464 0.52597
 O104 O 0.73429 0.53225 0.47062
 O105 O 0.73613 0.47677 0.46855
 O106 O 0.72928 0.52994 0.52831
 Cu107 Cu 0.78411 0.50560 0.50346
 Cu108 Cu 0.72778 0.50324 0.49784
 C109 C 0.75165 0.54048 0.54034
 C110 C 0.76075 0.46814 0.46124
 C111 C 0.75843 0.54270 0.46292
 C112 C 0.75291 0.46615 0.53836
 C113 C 0.25065 0.23197 0.23064
 C114 C 0.22738 0.25070 0.23183
 C115 C 0.22647 0.27145 0.25417
 C116 C 0.24854 0.27435 0.27511
 C117 C 0.27190 0.25556 0.27405
 C118 C 0.27270 0.23475 0.25160
 H119 H 0.29022 0.21996 0.25098
 H120 H 0.20880 0.28607 0.25471
 C121 C 0.74400 0.77829 0.23068
 C122 C 0.76534 0.75728 0.22920
 C123 C 0.76511 0.73510 0.25017
 C124 C 0.74387 0.73311 0.27212
 C125 C 0.72230 0.75375 0.27321
 C126 C 0.72242 0.77595 0.25232
 H127 H 0.70627 0.79218 0.25367
 H128 H 0.78124 0.71884 0.24903
 C129 C 0.78386 0.26011 0.22252
 C130 C 0.76307 0.23791 0.22338
 C131 C 0.74224 0.23772 0.24579
 C132 C 0.74166 0.25926 0.26742
 C133 C 0.76205 0.28200 0.26599
 C134 C 0.78321 0.28183 0.24385
 H135 H 0.79876 0.29924 0.24257
 H136 H 0.72680 0.22020 0.24684
 C137 C 0.21837 0.75083 0.23386
 C138 C 0.23970 0.77267 0.23400
 C139 C 0.26084 0.77263 0.25605
 C140 C 0.26158 0.75123 0.27780
 C141 C 0.24059 0.72909 0.27753
 C142 C 0.21922 0.72934 0.25563
 H143 H 0.20306 0.71246 0.25545
 H144 H 0.27711 0.78943 0.25616
 C145 C 0.73695 0.24733 0.72054
 C146 C 0.75810 0.26929 0.72249
 C147 C 0.77779 0.26914 0.74596
 C148 C 0.77669 0.24789 0.76784
 C149 C 0.75538 0.22622 0.76623
 C150 C 0.73593 0.22601 0.74253
 H151 H 0.71969 0.20924 0.74138
 H152 H 0.79403 0.28590 0.74732
 C153 C 0.26365 0.75396 0.73007
 C154 C 0.24046 0.73428 0.72702
 C155 C 0.21691 0.73623 0.74620
 C156 C 0.21582 0.75749 0.76800
 C157 C 0.23845 0.77778 0.77034
 C158 C 0.26221 0.77567 0.75144
 H159 H 0.27975 0.79099 0.75345
 H160 H 0.19933 0.72093 0.74430
 C161 C 0.26364 0.26213 0.72433
 C162 C 0.28537 0.24152 0.72498
 C163 C 0.28429 0.22003 0.74673
 C164 C 0.26194 0.21823 0.76753
 C165 C 0.23969 0.23824 0.76612
 C166 C 0.24098 0.26004 0.74473
 H167 H 0.22417 0.27562 0.74402
 H168 H 0.30111 0.20447 0.74748
 C169 C 0.74573 0.72950 0.73112
 C170 C 0.72474 0.75076 0.72982
 C171 C 0.72366 0.77129 0.75239
 C172 C 0.74294 0.77110 0.77622
 C173 C 0.76363 0.74949 0.77788
 C174 C 0.76468 0.72894 0.75523
 H175 H 0.78055 0.71242 0.75621
 H176 H 0.70769 0.78771 0.75134
 C177 C 0.21057 0.07181 0.07519
 C178 C 0.20983 0.09313 0.09689
 C179 C 0.23512 0.10355 0.11009
 C180 C 0.26127 0.09171 0.10144
 C181 C 0.26207 0.07055 0.07962
 C182 C 0.23675 0.06030 0.06609
 C183 C 0.23309 0.12607 0.13323
 C184 C 0.25533 0.14242 0.14224
 C185 C 0.25337 0.16501 0.16530
 C186 C 0.27576 0.18531 0.16748
 C187 C 0.27502 0.20690 0.18886
 C188 C 0.25180 0.20866 0.20845
 C189 C 0.22966 0.18812 0.20683
 C190 C 0.23043 0.16644 0.18556
 H191 H 0.19056 0.06451 0.06548
 H192 H 0.18935 0.10162 0.10330
 H193 H 0.28122 0.09824 0.11167
 H194 H 0.28266 0.06209 0.07356
 H195 H 0.21203 0.12986 0.14213
 H196 H 0.27588 0.14021 0.13157
 H197 H 0.29384 0.18459 0.15243
 H198 H 0.29238 0.22249 0.18987
 H199 H 0.21184 0.18880 0.22219
 H200 H 0.21321 0.15075 0.18556
 C201 C 0.72284 0.56597 0.57870
 C202 C 0.72066 0.58582 0.60172
 C203 C 0.74449 0.60241 0.61033
 C204 C 0.77080 0.59836 0.59591
 C205 C 0.77307 0.57825 0.57318
 C206 C 0.74910 0.56191 0.56426
 C207 C 0.74158 0.62294 0.63505
 C208 C 0.75691 0.64733 0.63653
 C209 C 0.75384 0.66797 0.66111
 C210 C 0.75820 0.69713 0.65530
 C211 C 0.75554 0.71716 0.67806
 C212 C 0.74895 0.70827 0.70711
 C213 C 0.74534 0.67909 0.71319
 C214 C 0.74760 0.65907 0.69035
 H215 H 0.70404 0.55353 0.57247
 H216 H 0.70025 0.58839 0.61271
 H217 H 0.78977 0.61026 0.60257
 H218 H 0.79363 0.57552 0.56256
 H219 H 0.72526 0.61848 0.65163
 H220 H 0.77104 0.65324 0.61835
 H221 H 0.76332 0.70444 0.63303
 H222 H 0.75865 0.73961 0.67307
 H223 H 0.74043 0.67189 0.73554
 H224 H 0.74493 0.63667 0.69569
 C225 C 0.71312 0.94026 0.07514
 C226 C 0.71037 0.91942 0.09724
 C227 C 0.73454 0.90592 0.10864
 C228 C 0.76166 0.91366 0.09719
 C229 C 0.76441 0.93464 0.07520
 C230 C 0.74017 0.94808 0.06384
 C231 C 0.73027 0.88311 0.13128
 C232 C 0.75118 0.87349 0.14884
 C233 C 0.74761 0.84984 0.17069
 C234 C 0.77031 0.84453 0.19024
 C235 C 0.76886 0.82171 0.21017
 C236 C 0.74468 0.80358 0.21092
 C237 C 0.72164 0.80908 0.19203
 C238 C 0.72311 0.83183 0.17191
 H239 H 0.69400 0.95018 0.06684
 H240 H 0.68922 0.91376 0.10541
 H241 H 0.78082 0.90322 0.10446
 H242 H 0.78552 0.93996 0.06670
 H243 H 0.70877 0.87465 0.13372
 H244 H 0.77213 0.88356 0.14771
 H245 H 0.78944 0.85791 0.18985
 H246 H 0.78679 0.81791 0.22476
 H247 H 0.70287 0.79519 0.19223
 H248 H 0.70526 0.83452 0.15706
 C249 C 0.22185 0.42678 0.57589
 C250 C 0.22150 0.40422 0.59624
 C251 C 0.24703 0.39164 0.60542
 C252 C 0.27306 0.40208 0.59343
 C253 C 0.27340 0.42479 0.57323
 C254 C 0.24781 0.43736 0.56420
 C255 C 0.24522 0.36736 0.62672
 C256 C 0.26767 0.35683 0.64143
 C257 C 0.26564 0.33253 0.66267
 C258 C 0.28862 0.32803 0.68210
 C259 C 0.28796 0.30528 0.70222
 C260 C 0.26435 0.28643 0.70320
 C261 C 0.24134 0.29076 0.68387
 C262 C 0.24203 0.31340 0.66361
 H263 H 0.20174 0.43596 0.56938
 H264 H 0.20112 0.39658 0.60487
 H265 H 0.29324 0.39266 0.59901
 H266 H 0.29375 0.43226 0.56437
 H267 H 0.22408 0.35861 0.63101
 H268 H 0.28850 0.36689 0.63889
 H269 H 0.30716 0.34223 0.68179
 H270 H 0.30588 0.30240 0.71708
 H271 H 0.22305 0.27624 0.68410
 H272 H 0.22424 0.31531 0.64851
 C273 C 0.94488 0.22186 0.07203
 C274 C 0.92498 0.22203 0.09526
 C275 C 0.91179 0.24738 0.10357
 C276 C 0.91935 0.27283 0.08877
 C277 C 0.93960 0.27282 0.06590
 C278 C 0.95257 0.24730 0.05706
 C279 C 0.89092 0.24689 0.12830
 C280 C 0.86815 0.26377 0.12884
 C281 C 0.84694 0.26284 0.15321
 C282 C 0.81810 0.26753 0.14668
 C283 C 0.79755 0.26664 0.16925
 C284 C 0.80567 0.26169 0.19877
 C285 C 0.83456 0.25779 0.20554
 C286 C 0.85507 0.25815 0.18291
 H287 H 0.95443 0.20179 0.06609
 H288 H 0.91962 0.20222 0.10655
 H289 H 0.91005 0.29286 0.09522
 H290 H 0.94497 0.29289 0.05512
 H291 H 0.89351 0.23104 0.14558
 H292 H 0.86388 0.27744 0.10999
 H293 H 0.81143 0.27142 0.12400
 H294 H 0.77530 0.26981 0.16374
 H295 H 0.84111 0.25405 0.22829
 H296 H 0.87726 0.25518 0.18869
 C297 C 0.43045 0.77763 0.57768
 C298 C 0.40978 0.78070 0.59978
 C299 C 0.39438 0.75694 0.61073
 C300 C 0.40016 0.72983 0.59883
 C301 C 0.42103 0.72674 0.57676
 C302 C 0.43631 0.75063 0.56585
 C303 C 0.37186 0.76185 0.63342
 C304 C 0.35932 0.74119 0.64984
 C305 C 0.33599 0.74617 0.67164
 C306 C 0.32863 0.72420 0.69167
 C307 C 0.30576 0.72709 0.71138
 C308 C 0.28963 0.75199 0.71136
 C309 C 0.29725 0.77431 0.69201
 C310 C 0.32002 0.77140 0.67214
 H311 H 0.44184 0.79650 0.56981
 H312 H 0.40572 0.80184 0.60831
 H313 H 0.38836 0.71098 0.60586
 H314 H 0.42489 0.70569 0.56792
 H315 H 0.36608 0.78377 0.63702
 H316 H 0.36661 0.71954 0.64787
 H317 H 0.34038 0.70452 0.69178
 H318 H 0.30020 0.70963 0.72623
 H319 H 0.28483 0.79356 0.69149
 H320 H 0.32420 0.78865 0.65672
 C321 C 0.06990 0.77745 0.06610
 C322 C 0.09265 0.77948 0.08616
 C323 C 0.10214 0.75523 0.10114
 C324 C 0.08900 0.72867 0.09516
 C325 C 0.06667 0.72647 0.07466
 C326 C 0.05665 0.75086 0.05993
 C327 C 0.12620 0.75796 0.12226
 C328 C 0.12713 0.74277 0.14746
 C329 C 0.15076 0.74570 0.16904
 C330 C 0.14473 0.74319 0.19948
 C331 C 0.16666 0.74535 0.22042
 C332 C 0.19518 0.74945 0.21129
 C333 C 0.20132 0.75118 0.18072
 C334 C 0.17928 0.74969 0.15978
 H335 H 0.06301 0.79672 0.05515
 H336 H 0.10265 0.80013 0.09030
 H337 H 0.09634 0.70949 0.10592
 H338 H 0.05720 0.70559 0.07051
 H339 H 0.14260 0.77405 0.11782
 H340 H 0.10918 0.72895 0.15339
 H341 H 0.12293 0.73986 0.20706
 H342 H 0.16136 0.74383 0.24383
 H343 H 0.22318 0.75336 0.17301
 H344 H 0.18461 0.75085 0.13637
 C345 C 0.56918 0.21476 0.57258
 C346 C 0.58928 0.21366 0.59550
 C347 C 0.60756 0.23705 0.60122
 C348 C 0.60490 0.26194 0.58404
 C349 C 0.58447 0.26322 0.56142
 C350 C 0.56650 0.23959 0.55535
 C351 C 0.62836 0.23525 0.62590
 C352 C 0.65394 0.24859 0.62527
 C353 C 0.67483 0.24677 0.64988
 C354 C 0.70413 0.24888 0.64338
 C355 C 0.72437 0.24820 0.66619
 C356 C 0.71565 0.24628 0.69605
 C357 C 0.68634 0.24394 0.70257
 C358 C 0.66609 0.24418 0.67973
 H359 H 0.55549 0.19628 0.56858
 H360 H 0.59075 0.19436 0.60864
 H361 H 0.61818 0.28061 0.58841
 H362 H 0.58283 0.28267 0.54858
 H363 H 0.62298 0.22125 0.64433
 H364 H 0.66049 0.26017 0.60546
 H365 H 0.71137 0.25092 0.62057
 H366 H 0.74686 0.24949 0.66053
 H367 H 0.67908 0.24262 0.72542
 H368 H 0.64365 0.24321 0.68557
 C369 C 0.78101 0.06799 0.92308
 C370 C 0.78313 0.08742 0.89953
 C371 C 0.75859 0.09988 0.88781
 C372 C 0.73172 0.09200 0.89950
 C373 C 0.72949 0.07224 0.92269
 C374 C 0.75412 0.06004 0.93497
 C375 C 0.76149 0.12038 0.86293
 C376 C 0.74426 0.14270 0.85996
 C377 C 0.74741 0.16367 0.83557
 C378 C 0.74103 0.19229 0.84111
 C379 C 0.74371 0.21263 0.81852
 C380 C 0.75218 0.20453 0.78988
 C381 C 0.75789 0.17584 0.78402
 C382 C 0.75573 0.15555 0.80676
 H383 H 0.80048 0.05902 0.93172
 H384 H 0.80404 0.09302 0.89068
 H385 H 0.71234 0.10070 0.89039
 H386 H 0.70837 0.06664 0.93101
 H387 H 0.77929 0.11797 0.84776
 H388 H 0.72842 0.14681 0.87695
 H389 H 0.73435 0.19896 0.86306
 H390 H 0.73911 0.23471 0.82331
 H391 H 0.76435 0.16929 0.76196
 H392 H 0.76011 0.13350 0.80168
 C393 C 0.27399 0.58260 0.44608
 C394 C 0.27413 0.60576 0.42648
 C395 C 0.25028 0.61110 0.40861
 C396 C 0.22593 0.59320 0.41122
 C397 C 0.22562 0.57028 0.43114
 C398 C 0.24971 0.56465 0.44867
 C399 C 0.25112 0.63586 0.38815
 C400 C 0.23746 0.63579 0.36197
 C401 C 0.23888 0.66010 0.34098
 C402 C 0.23705 0.65464 0.31038
 C403 C 0.23795 0.67705 0.28990
 C404 C 0.24022 0.70545 0.29962
 C405 C 0.24133 0.71100 0.33031
 C406 C 0.24092 0.68854 0.35082
 H407 H 0.29279 0.57896 0.45949
 H408 H 0.29304 0.61941 0.42504
 H409 H 0.20691 0.59719 0.39831
 H410 H 0.20654 0.55692 0.43276
 H411 H 0.26480 0.65388 0.39403
 H412 H 0.22625 0.61660 0.35474
 H413 H 0.23521 0.63293 0.30230
 H414 H 0.23697 0.67220 0.26638
 H415 H 0.24223 0.73273 0.33843
 H416 H 0.24147 0.69349 0.37431
 C417 C 0.27075 0.93418 0.93198
 C418 C 0.27266 0.91309 0.91020
 C419 C 0.24794 0.89997 0.89846
 C420 C 0.22109 0.90829 0.90937
 C421 C 0.21918 0.92952 0.93110
 C422 C 0.24399 0.94268 0.94268
 C423 C 0.25139 0.87725 0.87577
 C424 C 0.23034 0.86783 0.85782
 C425 C 0.23384 0.84511 0.83512
 C426 C 0.21291 0.84208 0.81293
 C427 C 0.21471 0.82057 0.79158
 C428 C 0.23740 0.80147 0.79208
 C429 C 0.25853 0.80448 0.81397
 C430 C 0.25670 0.82593 0.83547
 H431 H 0.29031 0.94383 0.94043
 H432 H 0.29362 0.90702 0.90245
 H433 H 0.20147 0.89821 0.90174
 H434 H 0.19826 0.93539 0.93910
 H435 H 0.27262 0.86891 0.87319
 H436 H 0.20970 0.87778 0.85878
 H437 H 0.19502 0.85639 0.81213
 H438 H 0.19825 0.81869 0.77474
 H439 H 0.27603 0.78972 0.81489
 H440 H 0.27289 0.82678 0.85256
 C441 C 0.79044 0.43471 0.43135
 C442 C 0.79309 0.41351 0.40978
 C443 C 0.76910 0.40351 0.39397
 C444 C 0.74218 0.41486 0.40055
 C445 C 0.73951 0.43598 0.42225
 C446 C 0.76360 0.44614 0.43789
 C447 C 0.77285 0.38041 0.37192
 C448 C 0.75524 0.37609 0.34876
 C449 C 0.75816 0.35243 0.32712
 C450 C 0.73434 0.34470 0.30975
 C451 C 0.73571 0.32214 0.28959
 C452 C 0.76096 0.30675 0.28645
 C453 C 0.78513 0.31498 0.30298
 C454 C 0.78382 0.33762 0.32310
 H455 H 0.80941 0.44195 0.44310
 H456 H 0.81400 0.40493 0.40534
 H457 H 0.72302 0.40705 0.38960
 H458 H 0.71850 0.44418 0.42693
 H459 H 0.79096 0.36678 0.37513
 H460 H 0.73734 0.39005 0.34567
 H461 H 0.71444 0.35593 0.31206
 H462 H 0.71697 0.31651 0.27660
 H463 H 0.80492 0.30358 0.30061
 H464 H 0.80303 0.34343 0.33513
 C465 C 0.07350 0.27403 0.91448
 C466 C 0.09458 0.27484 0.89248
 C467 C 0.10951 0.25021 0.88488
 C468 C 0.10280 0.22456 0.89994
 C469 C 0.08153 0.22372 0.92187
 C470 C 0.06678 0.24848 0.92949
 C471 C 0.13256 0.25278 0.86220
 C472 C 0.14509 0.23057 0.84903
 C473 C 0.16877 0.23367 0.82713
 C474 C 0.17483 0.21050 0.80852
 C475 C 0.19753 0.21210 0.78830
 C476 C 0.21478 0.23685 0.78649
 C477 C 0.20871 0.26012 0.80483
 C478 C 0.18612 0.25851 0.82515
 H479 H 0.06253 0.29350 0.91980
 H480 H 0.09936 0.29493 0.88144
 H481 H 0.11417 0.20518 0.89553
 H482 H 0.07701 0.20376 0.93322
 H483 H 0.13882 0.27421 0.85568
 H484 H 0.13738 0.20914 0.85357
 H485 H 0.16200 0.19106 0.80969
 H486 H 0.20183 0.19394 0.77423
 H487 H 0.22201 0.27927 0.80398
 H488 H 0.18299 0.27652 0.83968
 C489 C 0.55732 0.71357 0.42332
 C490 C 0.57749 0.71282 0.40029
 C491 C 0.59386 0.73725 0.39298
 C492 C 0.58926 0.76265 0.40869
 C493 C 0.56891 0.76349 0.43139
 C494 C 0.55274 0.73898 0.43901
 C495 C 0.61476 0.73612 0.36825
 C496 C 0.63891 0.75199 0.36802
 C497 C 0.65982 0.75169 0.34331
 C498 C 0.68878 0.75714 0.34961
 C499 C 0.70905 0.75780 0.32678
 C500 C 0.70062 0.75353 0.29719
 C501 C 0.67165 0.74867 0.29066
 C502 C 0.65137 0.74757 0.31357
 H503 H 0.54503 0.69440 0.42854
 H504 H 0.58048 0.69309 0.38829
 H505 H 0.60089 0.78209 0.40307
 H506 H 0.56582 0.78345 0.44295
 H507 H 0.61068 0.72101 0.35049
 H508 H 0.64435 0.76483 0.38728
 H509 H 0.69574 0.76068 0.37229
 H510 H 0.73135 0.76172 0.33215
 H511 H 0.66482 0.74544 0.26789
 H512 H 0.62910 0.74408 0.30792
 C513 C 0.92910 0.71321 0.92643
 C514 C 0.90818 0.71164 0.90427
 C515 C 0.89079 0.73502 0.89845
 C516 C 0.89495 0.76023 0.91490
 C517 C 0.91615 0.76197 0.93670
 C518 C 0.93345 0.73849 0.94269
 C519 C 0.86965 0.73315 0.87406
 C520 C 0.84490 0.74706 0.87463
 C521 C 0.82433 0.74620 0.84969
 C522 C 0.79504 0.74846 0.85571
 C523 C 0.77521 0.74881 0.83251
 C524 C 0.78441 0.74786 0.80277
 C525 C 0.81373 0.74550 0.79674
 C526 C 0.83352 0.74465 0.81995
 H527 H 0.94225 0.69485 0.93041
 H528 H 0.90553 0.69210 0.89167
 H529 H 0.88240 0.77890 0.91041
 H530 H 0.91907 0.78176 0.94882
 H531 H 0.87425 0.71911 0.85561
 H532 H 0.83895 0.75870 0.89442
 H533 H 0.78749 0.74977 0.87845
 H534 H 0.75268 0.75003 0.83778
 H535 H 0.82137 0.74491 0.77400
 H536 H 0.85602 0.74363 0.81454
 C537 C 0.44607 0.22108 0.40927
 C538 C 0.42538 0.22175 0.38691
 C539 C 0.40888 0.24606 0.38271
 C540 C 0.41407 0.27014 0.40066
 C541 C 0.43516 0.26968 0.42266
 C542 C 0.45116 0.24505 0.42737
 C543 C 0.38688 0.24590 0.35913
 C544 C 0.36196 0.25921 0.36216
 C545 C 0.33932 0.25788 0.33925
 C546 C 0.31061 0.25781 0.34822
 C547 C 0.28871 0.25657 0.32714
 C548 C 0.29513 0.25639 0.29659
 C549 C 0.32390 0.25662 0.28760
 C550 C 0.34582 0.25731 0.30872
 H551 H 0.45825 0.20189 0.41224
 H552 H 0.42191 0.20305 0.37316
 H553 H 0.40212 0.28944 0.39745
 H554 H 0.43868 0.28848 0.43624
 H555 H 0.39048 0.23276 0.33973
 H556 H 0.35712 0.26978 0.38293
 H557 H 0.30511 0.25823 0.37162
 H558 H 0.26674 0.25572 0.33471
 H559 H 0.32940 0.25660 0.26420
 H560 H 0.36778 0.25797 0.30111
 C561 C 0.77678 0.92840 0.93565
 C562 C 0.77818 0.90659 0.91462
 C563 C 0.75399 0.89847 0.89802
 C564 C 0.72827 0.91298 0.90276
 C565 C 0.72683 0.93469 0.92398
 C566 C 0.75107 0.94265 0.94060
 C567 C 0.75694 0.87550 0.87558
 C568 C 0.73476 0.86146 0.86309
 C569 C 0.73786 0.83841 0.84078
 C570 C 0.71429 0.82017 0.83538
 C571 C 0.71597 0.79834 0.81440
 C572 C 0.74132 0.79426 0.79845
 C573 C 0.76481 0.81266 0.80334
 C574 C 0.76312 0.83462 0.82422
 H575 H 0.79587 0.93404 0.94807
 H576 H 0.79831 0.89599 0.91133
 H577 H 0.70930 0.90819 0.88990
 H578 H 0.70680 0.94551 0.92705
 H579 H 0.77848 0.86932 0.87020
 H580 H 0.71325 0.86598 0.87023
 H581 H 0.69450 0.82273 0.84754
 H582 H 0.69756 0.78442 0.81078
 H583 H 0.78437 0.81015 0.79077
 H584 H 0.78148 0.84873 0.82675
 C585 C 0.28173 0.43331 0.43336
 C586 C 0.28376 0.41279 0.41096
 C587 C 0.25933 0.40323 0.39555
 C588 C 0.23282 0.41533 0.40249
 C589 C 0.23077 0.43572 0.42499
 C590 C 0.25516 0.44481 0.44081
 C591 C 0.26253 0.38112 0.37220
 C592 C 0.24078 0.36455 0.36243
 C593 C 0.24371 0.34182 0.33969
 C594 C 0.22147 0.32144 0.33690
 C595 C 0.22301 0.29966 0.31584
 C596 C 0.24690 0.29775 0.29714
 C597 C 0.26896 0.31833 0.29939
 C598 C 0.26740 0.34022 0.32039
 H599 H 0.30095 0.43994 0.44505
 H600 H 0.30449 0.40410 0.40589
 H601 H 0.21360 0.40951 0.39046
 H602 H 0.21003 0.44446 0.42991
 H603 H 0.28394 0.37758 0.36412
 H604 H 0.21989 0.36657 0.37243
 H605 H 0.20286 0.32225 0.35123
 H606 H 0.20571 0.28405 0.31437
 H607 H 0.28732 0.31751 0.28473
 H608 H 0.28458 0.35593 0.32095
 C609 C 0.21836 0.07452 0.93495
 C610 C 0.21978 0.09660 0.91410
 C611 C 0.24611 0.10557 0.90215
 C612 C 0.27122 0.09255 0.91190
 C613 C 0.26993 0.07088 0.93329
 C614 C 0.24344 0.06144 0.94503
 C615 C 0.24681 0.12912 0.88032
 C616 C 0.26474 0.12971 0.85709
 C617 C 0.26424 0.15267 0.83459
 C618 C 0.26872 0.14596 0.80459
 C619 C 0.26776 0.16722 0.78282
 C620 C 0.26287 0.19568 0.79077
 C621 C 0.25953 0.20254 0.82098
 C622 C 0.25985 0.18120 0.84266
 H623 H 0.19755 0.06807 0.94347
 H624 H 0.20020 0.10651 0.90702
 H625 H 0.29189 0.09950 0.90345
 H626 H 0.28973 0.06148 0.94049
 H627 H 0.23074 0.14535 0.88229
 H628 H 0.27870 0.11191 0.85325
 H629 H 0.27239 0.12414 0.79795
 H630 H 0.27057 0.16140 0.75972
 H631 H 0.25674 0.22444 0.82781
 H632 H 0.25718 0.18707 0.86576
 C633 C 0.78620 0.57492 0.42845
 C634 C 0.78738 0.59655 0.40705
 C635 C 0.76229 0.60939 0.39704
 C636 C 0.73592 0.60047 0.40943
 C637 C 0.73474 0.57872 0.43065
 C638 C 0.75984 0.56567 0.44037
 C639 C 0.76468 0.63251 0.37454
 C640 C 0.74273 0.64085 0.35761
 C641 C 0.74443 0.66423 0.33531
 C642 C 0.72112 0.66771 0.31605
 C643 C 0.72108 0.68984 0.29527
 C644 C 0.74434 0.70903 0.29337
 C645 C 0.76782 0.70557 0.31224
 C646 C 0.76784 0.68354 0.33320
 H647 H 0.80594 0.56534 0.43555
 H648 H 0.80799 0.60318 0.39816
 H649 H 0.71614 0.61045 0.40334
 H650 H 0.71412 0.57235 0.43972
 H651 H 0.78565 0.64208 0.37138
 H652 H 0.72241 0.62960 0.35940
 H653 H 0.70276 0.65331 0.31717
 H654 H 0.70283 0.69209 0.28072
 H655 H 0.78586 0.72037 0.31118
 H656 H 0.78601 0.68231 0.34788
 C657 C 0.06569 0.71750 0.93232
 C658 C 0.08740 0.71721 0.91096
 C659 C 0.09561 0.74226 0.89597
 C660 C 0.08193 0.76783 0.90294
 C661 C 0.06053 0.76828 0.92466
 C662 C 0.05213 0.74311 0.93974
 C663 C 0.11952 0.74137 0.87449
 C664 C 0.12129 0.75835 0.85055
 C665 C 0.14563 0.75747 0.82959
 C666 C 0.14098 0.76274 0.79926
 C667 C 0.16373 0.76225 0.77907
 C668 C 0.19155 0.75724 0.78908
 C669 C 0.19632 0.75231 0.81941
 C670 C 0.17356 0.75237 0.83952
 H671 H 0.05999 0.69766 0.94340
 H672 H 0.09781 0.69731 0.90609
 H673 H 0.08830 0.78766 0.89226
 H674 H 0.05074 0.78845 0.92972
 H675 H 0.13554 0.72531 0.87789
 H676 H 0.10384 0.77234 0.84532
 H677 H 0.11968 0.76697 0.79119
 H678 H 0.15976 0.76624 0.75572
 H679 H 0.21772 0.74851 0.82748
 H680 H 0.17794 0.74898 0.86288
 C681 C 0.57438 0.21552 0.41384
 C682 C 0.59517 0.21516 0.39147
 C683 C 0.61228 0.23944 0.38573
 C684 C 0.60789 0.26433 0.40240
 C685 C 0.58686 0.26481 0.42446
 C686 C 0.56992 0.24041 0.43044
 C687 C 0.63359 0.23867 0.36143
 C688 C 0.65811 0.25387 0.36220
 C689 C 0.67920 0.25382 0.33768
 C690 C 0.70822 0.25825 0.34431
 C691 C 0.72859 0.25936 0.32158
 C692 C 0.72019 0.25694 0.29170
 C693 C 0.69115 0.25238 0.28503
 C694 C 0.67081 0.25083 0.30780
 H695 H 0.56149 0.19646 0.41779
 H696 H 0.59800 0.19584 0.37870
 H697 H 0.62018 0.28366 0.39796
 H698 H 0.58384 0.28435 0.43679
 H699 H 0.62942 0.22427 0.34306
 H700 H 0.66361 0.26594 0.38198
 H701 H 0.71515 0.26069 0.36715
 H702 H 0.75091 0.26234 0.32732
 H703 H 0.68417 0.25060 0.26215
 H704 H 0.64851 0.24812 0.30190
 C705 C 0.93435 0.21415 0.92735
 C706 C 0.91238 0.21195 0.90640
 C707 C 0.90241 0.23628 0.89178
 C708 C 0.91533 0.26294 0.89826
 C709 C 0.93719 0.26515 0.91933
 C710 C 0.94694 0.24080 0.93412
 C711 C 0.87940 0.23271 0.86928
 C712 C 0.86320 0.25415 0.85962
 C713 C 0.84062 0.25113 0.83655
 C714 C 0.82195 0.27390 0.83232
 C715 C 0.80105 0.27273 0.81019
 C716 C 0.79828 0.24868 0.79189
 C717 C 0.81680 0.22585 0.79593
 C718 C 0.83785 0.22704 0.81794
 H719 H 0.94141 0.19496 0.93830
 H720 H 0.90306 0.19112 0.90167
 H721 H 0.90917 0.28213 0.88682
 H722 H 0.94668 0.28595 0.92379
 H723 H 0.87532 0.21129 0.86131
 H724 H 0.86591 0.27505 0.86947
 H725 H 0.82365 0.29279 0.84609
 H726 H 0.78699 0.29061 0.80732
 H727 H 0.81532 0.20733 0.78161
 H728 H 0.85214 0.20931 0.81962
 C729 C 0.41916 0.71547 0.43497
 C730 C 0.39774 0.71443 0.41343
 C731 C 0.38990 0.73915 0.39813
 C732 C 0.40435 0.76505 0.40464
 C733 C 0.42575 0.76611 0.42635
 C734 C 0.43338 0.74132 0.44174
 C735 C 0.36719 0.73656 0.37521
 C736 C 0.35279 0.75872 0.36434
 C737 C 0.32959 0.75581 0.34199
 C738 C 0.31040 0.77826 0.33890
 C739 C 0.28831 0.77666 0.31809
 C740 C 0.28493 0.75253 0.29997
 C741 C 0.30427 0.73020 0.30257
 C742 C 0.32647 0.73181 0.32331
 H743 H 0.42453 0.69595 0.44637
 H744 H 0.38717 0.69417 0.40878
 H745 H 0.39970 0.78447 0.39279
 H746 H 0.43653 0.78628 0.43085
 H747 H 0.36131 0.71518 0.36824
 H748 H 0.35694 0.77985 0.37308
 H749 H 0.31242 0.79708 0.35274
 H750 H 0.27367 0.79419 0.31626
 H751 H 0.30233 0.71166 0.28831
 H752 H 0.34133 0.71447 0.32409
 C753 C 0.20687 0.92883 0.07332
 C754 C 0.20472 0.90785 0.09534
 C755 C 0.22890 0.89966 0.11144
 C756 C 0.25532 0.91341 0.10535
 C757 C 0.25750 0.93428 0.08319
 C758 C 0.23331 0.94219 0.06690
 C759 C 0.22540 0.87732 0.13469
 C760 C 0.24717 0.86228 0.14555
 C761 C 0.24402 0.83949 0.16836
 C762 C 0.26697 0.82106 0.17257
 C763 C 0.26544 0.79945 0.19390
 C764 C 0.24087 0.79573 0.21147
 C765 C 0.21797 0.81425 0.20771
 C766 C 0.21950 0.83601 0.18641
 H767 H 0.18779 0.93449 0.06124
 H768 H 0.18407 0.89784 0.09969
 H769 H 0.27433 0.90863 0.11787
 H770 H 0.27809 0.94446 0.07905
 H771 H 0.20381 0.87237 0.14187
 H772 H 0.26838 0.86575 0.13651
 H773 H 0.28618 0.82331 0.15922
 H774 H 0.28337 0.78541 0.19654
 H775 H 0.19902 0.81198 0.22144
 H776 H 0.20165 0.85018 0.18468
 C777 C 0.72517 0.42836 0.56595
 C778 C 0.72342 0.40661 0.58715
 C779 C 0.74750 0.39913 0.60379
 C780 C 0.77339 0.41435 0.59911
 C781 C 0.77517 0.43599 0.57775
 C782 C 0.75110 0.44320 0.56092
 C783 C 0.74437 0.37594 0.62613
 C784 C 0.76648 0.36195 0.63776
 C785 C 0.76336 0.33840 0.65968
 C786 C 0.78665 0.32043 0.66409
 C787 C 0.78492 0.29805 0.68455
 C788 C 0.75981 0.29314 0.70096
 C789 C 0.73664 0.31129 0.69710
 C790 C 0.73838 0.33380 0.67674
 H791 H 0.70620 0.43344 0.55339
 H792 H 0.70317 0.39547 0.59044
 H793 H 0.79225 0.41009 0.61209
 H794 H 0.79537 0.44729 0.57465
 H795 H 0.72279 0.36945 0.63196
 H796 H 0.78791 0.36684 0.63005
 H797 H 0.80623 0.32361 0.65153
 H798 H 0.80308 0.28433 0.68738
 H799 H 0.71728 0.30813 0.71004
 H800 H 0.72028 0.34765 0.67495
 C801 C 0.71961 0.07637 0.07017
 C802 C 0.71901 0.09850 0.09094
 C803 C 0.74435 0.11256 0.09982
 C804 C 0.77038 0.10429 0.08695
 C805 C 0.77099 0.08202 0.06637
 C806 C 0.74564 0.06778 0.05779
 C807 C 0.74247 0.13608 0.12181
 C808 C 0.76491 0.14634 0.13732
 C809 C 0.76331 0.16978 0.15943
 C810 C 0.78684 0.17456 0.17830
 C811 C 0.78672 0.19656 0.19920
 C812 C 0.76309 0.21433 0.20156
 C813 C 0.73950 0.20971 0.18290
 C814 C 0.73964 0.18782 0.16183
 H815 H 0.69969 0.06587 0.06395
 H816 H 0.69863 0.10456 0.10022
 H817 H 0.79033 0.11511 0.09217
 H818 H 0.79136 0.07616 0.05692
 H819 H 0.72140 0.14425 0.12597
 H820 H 0.78550 0.13658 0.13473
 H821 H 0.80541 0.16118 0.17691
 H822 H 0.80505 0.19970 0.21358
 H823 H 0.72118 0.22342 0.18431
 H824 H 0.72136 0.18564 0.14734
 C825 C 0.21548 0.56034 0.58583
 C826 C 0.21292 0.58088 0.60814
 C827 C 0.23620 0.59878 0.61548
 C828 C 0.26247 0.59509 0.60087
 C829 C 0.26516 0.57427 0.57889
 C830 C 0.24161 0.55688 0.57093
 C831 C 0.23272 0.62064 0.63883
 C832 C 0.24646 0.64595 0.63784
 C833 C 0.24310 0.66820 0.66081
 C834 C 0.24691 0.69691 0.65268
 C835 C 0.24513 0.71844 0.67399
 C836 C 0.24032 0.71161 0.70401
 C837 C 0.23613 0.68293 0.71216
 C838 C 0.23752 0.66138 0.69077
 H839 H 0.19703 0.54709 0.58033
 H840 H 0.19257 0.58315 0.61933
 H841 H 0.28104 0.60804 0.60664
 H842 H 0.28559 0.57203 0.56788
 H843 H 0.21717 0.61636 0.65622
 H844 H 0.25968 0.65124 0.61874
 H845 H 0.25126 0.70268 0.62976
 H846 H 0.24791 0.74046 0.66710
 H847 H 0.23254 0.67718 0.73522
 H848 H 0.23515 0.63942 0.69791
 C849 C 0.93363 0.72146 0.08534
 C850 C 0.91359 0.72179 0.10841
 C851 C 0.89718 0.74601 0.11348
 C852 C 0.90174 0.77030 0.09558
 C853 C 0.92209 0.77012 0.07278
 C854 C 0.93810 0.74562 0.06729
 C855 C 0.87606 0.74555 0.13801
 C856 C 0.85152 0.75977 0.13676
 C857 C 0.82988 0.75850 0.16077
 C858 C 0.80093 0.76096 0.15337
 C859 C 0.77994 0.76005 0.17549
 C860 C 0.78758 0.75753 0.20556
 C861 C 0.81657 0.75515 0.21302
 C862 C 0.83755 0.75563 0.19085
 H863 H 0.94581 0.70235 0.08181
 H864 H 0.91062 0.70294 0.12210
 H865 H 0.88995 0.78958 0.09945
 H866 H 0.92516 0.78910 0.05933
 H867 H 0.88004 0.73158 0.15669
 H868 H 0.84619 0.77131 0.11671
 H869 H 0.79452 0.76322 0.13036
 H870 H 0.75770 0.76133 0.16911
 H871 H 0.82298 0.75336 0.23607
 H872 H 0.85976 0.75439 0.19736
 C873 C 0.43157 0.27133 0.55418
 C874 C 0.40906 0.27246 0.57457
 C875 C 0.40195 0.24869 0.59219
 C876 C 0.41729 0.22343 0.58857
 C877 C 0.43948 0.22213 0.56779
 C878 C 0.44694 0.24612 0.55052
 C879 C 0.37789 0.25053 0.61339
 C880 C 0.37763 0.23684 0.63954
 C881 C 0.35377 0.23895 0.66095
 C882 C 0.35956 0.23730 0.69148
 C883 C 0.33740 0.23869 0.71225
 C884 C 0.30895 0.24125 0.70283
 C885 C 0.30309 0.24228 0.67222
 C886 C 0.32529 0.24138 0.65146
 H887 H 0.43668 0.29007 0.54097
 H888 H 0.39735 0.29205 0.57681
 H889 H 0.41180 0.20451 0.60133
 H890 H 0.45090 0.20239 0.56535
 H891 H 0.36076 0.26486 0.60800
 H892 H 0.39616 0.22495 0.64628
 H893 H 0.38131 0.23517 0.69926
 H894 H 0.34245 0.23773 0.73572
 H895 H 0.28127 0.24335 0.66437
 H896 H 0.32007 0.24179 0.62802
 C897 C 0.08501 0.27927 0.05840
 C898 C 0.10678 0.28116 0.07963
 C899 C 0.11377 0.25736 0.09688
 C900 C 0.09909 0.23135 0.09200
 C901 C 0.07761 0.22935 0.07051
 C902 C 0.07024 0.25332 0.05359
 C903 C 0.13709 0.25996 0.11896
 C904 C 0.13733 0.24481 0.14425
 C905 C 0.16063 0.24726 0.16635
 C906 C 0.15436 0.24250 0.19651
 C907 C 0.17600 0.24409 0.21788
 C908 C 0.20436 0.24979 0.20931
 C909 C 0.21076 0.25435 0.17917
 C910 C 0.18910 0.25312 0.15783
 H911 H 0.07995 0.29805 0.04556
 H912 H 0.11801 0.30135 0.08281
 H913 H 0.10452 0.21238 0.10433
 H914 H 0.06669 0.20903 0.06723
 H915 H 0.15374 0.27587 0.11489
 H916 H 0.11917 0.23112 0.14977
 H917 H 0.13264 0.23771 0.20355
 H918 H 0.17073 0.24040 0.24105
 H919 H 0.23258 0.25875 0.17218
 H920 H 0.19477 0.25613 0.13469
 C921 C 0.56061 0.71613 0.57858
 C922 C 0.58122 0.71545 0.60094
 C923 C 0.59651 0.74025 0.60897
 C924 C 0.59042 0.76604 0.59444
 C925 C 0.56960 0.76678 0.57215
 C926 C 0.55451 0.74181 0.56396
 C927 C 0.61773 0.73836 0.63326
 C928 C 0.64039 0.75612 0.63598
 C929 C 0.66184 0.75392 0.66014
 C930 C 0.67928 0.77783 0.66653
 C931 C 0.69971 0.77680 0.68913
 C932 C 0.70330 0.75171 0.70560
 C933 C 0.68607 0.72770 0.69918
 C934 C 0.66575 0.72865 0.67651
 H935 H 0.54927 0.69654 0.57295
 H936 H 0.58533 0.69538 0.61194
 H937 H 0.60115 0.78578 0.60063
 H938 H 0.56523 0.78692 0.56144
 H939 H 0.61452 0.72117 0.64901
 H940 H 0.64344 0.77326 0.62009
 H941 H 0.67693 0.79747 0.65415
 H942 H 0.71286 0.79555 0.69366
 H943 H 0.68830 0.70819 0.71180
 H944 H 0.65356 0.70938 0.67182
   
