data_POSCAR
  _audit_creation_date              2014-09-24
  _audit_creation_method            'ToBaCCo'
  _symmetry_space_group_name_H-M    'P1'
  _symmetry_Int_Tables_number       1
  _symmetry_cell_setting            triclinic
  loop_
  _symmetry_equiv_pos_as_xyz
 x,y,z
_cell_length_a 29.3530
_cell_length_b 29.5966
_cell_length_c 28.9520
_cell_angle_alpha 90.097100
_cell_angle_beta 89.353200
_cell_angle_gamma 88.992700
loop_
  _atom_site_label
  _atom_site_type_symbol
  _atom_site_fract_x
  _atom_site_fract_y
  _atom_site_fract_z
C1 C 0.17668 0.19714 0.24090
 C2 C 0.17531 0.23158 0.20817
 C3 C 0.21466 0.24426 0.18533
 C4 C 0.25604 0.22162 0.19464
 C5 C 0.25731 0.18765 0.22727
 C6 C 0.21750 0.17598 0.25129
 C7 C 0.14312 0.17701 0.26646
 N8 N 0.16277 0.14506 0.29372
 C9 C 0.20837 0.14408 0.28443
 C10 C 0.29960 0.16724 0.22443
 N11 N 0.32434 0.18720 0.19012
 C12 C 0.29800 0.22166 0.17301
 C13 C 0.20204 0.27675 0.15365
 N14 N 0.15622 0.28364 0.15715
 C15 C 0.13972 0.25617 0.19047
 H16 H 0.10724 0.18621 0.26651
 H17 H 0.23308 0.12122 0.29976
 H18 H 0.30933 0.13720 0.24334
 H19 H 0.30721 0.24406 0.14520
 H20 H 0.22418 0.29310 0.12889
 H21 H 0.10451 0.25403 0.20124
 C22 C -0.18523 0.78032 0.26706
 C23 C -0.18123 0.74943 0.23037
 C24 C -0.20603 0.75622 0.19062
 C25 C -0.23530 0.79414 0.18693
 C26 C -0.23995 0.82378 0.22369
 C27 C -0.21430 0.81718 0.26370
 C28 C -0.16226 0.78448 0.30790
 N29 N -0.17548 0.82389 0.32908
 C30 C -0.20826 0.84345 0.30229
 C31 C -0.27096 0.85669 0.21139
 N32 N -0.28511 0.84843 0.16761
 C33 C -0.26277 0.81050 0.15209
 C34 C -0.19449 0.72156 0.16075
 N35 N -0.16273 0.69411 0.18098
 C36 C -0.15461 0.71122 0.22372
 H37 H -0.13683 0.76075 0.32020
 H38 H -0.22448 0.87607 0.30809
 H39 H -0.28158 0.88513 0.23270
 H40 H -0.26747 0.79489 0.11867
 H41 H -0.20818 0.71758 0.12665
 H42 H -0.13136 0.69688 0.24866
 C43 C -0.17381 0.21174 -0.25460
 C44 C -0.18022 0.25106 -0.22804
 C45 C -0.21827 0.25566 -0.19951
 C46 C -0.25109 0.22183 -0.19845
 C47 C -0.24462 0.18315 -0.22441
 C48 C -0.20514 0.17756 -0.25154
 C49 C -0.13823 0.19611 -0.28204
 N50 N -0.14644 0.15256 -0.29411
 C51 C -0.18742 0.14118 -0.27544
 C52 C -0.28028 0.15508 -0.21469
 N53 N -0.30849 0.17563 -0.18306
 C54 C -0.29047 0.21661 -0.17301
 C55 C -0.21197 0.29296 -0.17213
 N56 N -0.17134 0.31117 -0.18363
 C57 C -0.15178 0.28614 -0.21801
 H58 H -0.10762 0.21439 -0.29013
 H59 H -0.20378 0.10892 -0.27940
 H60 H -0.28382 0.12131 -0.22834
 H61 H -0.30485 0.24131 -0.14921
 H62 H -0.23381 0.30433 -0.14388
 H63 H -0.11771 0.29081 -0.23170
 C64 C 0.19391 0.79192 -0.22529
 C65 C 0.18996 0.76380 -0.18673
 C66 C 0.21604 0.77119 -0.14793
 C67 C 0.24695 0.80688 -0.14765
 C68 C 0.24968 0.83537 -0.18543
 C69 C 0.22367 0.82722 -0.22483
 C70 C 0.17190 0.79302 -0.26689
 N71 N 0.18777 0.82819 -0.29254
 C72 C 0.22019 0.84871 -0.26675
 C73 C 0.27951 0.86882 -0.17461
 N74 N 0.29662 0.86051 -0.13193
 C75 C 0.27717 0.82232 -0.11529
 C76 C 0.20321 0.73978 -0.11531
 N77 N 0.17076 0.71351 -0.13406
 C78 C 0.16259 0.72780 -0.17764
 H79 H 0.14576 0.76978 -0.27672
 H80 H 0.24028 0.87723 -0.27699
 H81 H 0.28908 0.89657 -0.19684
 H82 H 0.28317 0.80781 -0.08155
 H83 H 0.21634 0.73623 -0.08068
 H84 H 0.13781 0.71349 -0.20064
 C85 C 0.21536 1.16430 0.76945
 C86 C 0.25438 1.17392 0.79489
 C87 C 0.25254 1.20653 0.82901
 C88 C 0.21187 1.23128 0.83711
 C89 C 0.17380 1.22218 0.81136
 C90 C 0.17505 1.18751 0.77834
 C91 C 0.20662 1.13235 0.73644
 N92 N 0.16150 1.13453 0.72592
 C93 C 0.14197 1.16848 0.75146
 C94 C 0.14061 1.25316 0.82365
 N95 N 0.15695 1.28118 0.85678
 C96 C 0.20055 1.26716 0.86574
 C97 C 0.29446 1.20614 0.84992
 N98 N 0.32179 1.17385 0.82956
 C99 C 0.29731 1.15473 0.79520
 H100 H 0.23096 1.10759 0.72304
 H101 H 0.10641 1.17875 0.75073
 H102 H 0.10744 1.25525 0.80811
 H103 H 0.22384 1.28359 0.88877
 H104 H 0.30327 1.22700 0.87903
 H105 H 0.30901 1.12808 0.77230
 C106 C 0.76310 0.81258 0.72924
 C107 C 0.73438 0.81689 0.76835
 C108 C 0.73432 0.78314 0.80147
 C109 C 0.76373 0.74567 0.79691
 C110 C 0.79263 0.74197 0.75920
 C111 C 0.79211 0.77555 0.72500
 C112 C 0.77355 0.84151 0.69349
 N113 N 0.80897 0.82362 0.66797
 C114 C 0.82014 0.78301 0.68755
 C115 C 0.82285 0.70705 0.76810
 N116 N 0.81365 0.68985 0.81087
 C117 C 0.77685 0.71321 0.82814
 C118 C 0.70863 0.79844 0.83837
 N119 N 0.69371 0.84099 0.82917
 C120 C 0.70920 0.85274 0.78648
 H121 H 0.75684 0.87374 0.68786
 H122 H 0.84768 0.76050 0.67700
 H123 H 0.85136 0.69772 0.74595
 H124 H 0.76306 0.71009 0.86276
 H125 H 0.70425 0.78138 0.87115
 H126 H 0.70475 0.88577 0.77100
 C127 C 0.22107 0.82205 1.22259
 C128 C 0.24660 0.82772 1.18186
 C129 C 0.24306 0.79711 1.14584
 C130 C 0.21372 0.76035 1.15016
 C131 C 0.18801 0.75540 1.19018
 C132 C 0.19168 0.78649 1.22656
 C133 C 0.21624 0.84771 1.26204
 N134 N 0.18382 0.82926 1.29003
 C135 C 0.16889 0.79144 1.26816
 C136 C 0.15964 0.71969 1.18335
 N137 N 0.16745 0.70263 1.14035
 C138 C 0.20061 0.72716 1.11972
 C139 C 0.26982 0.81257 1.10998
 N140 N 0.28880 0.85188 1.12340
 C141 C 0.27513 0.86129 1.16729
 H142 H 0.23515 0.87784 1.26914
 H143 H 0.14248 0.76931 1.28036
 H144 H 0.13383 0.70798 1.20729
 H145 H 0.21227 0.72313 1.08437
 H146 H 0.27452 0.79699 1.07637
 H147 H 0.28529 0.89032 1.18720
 C148 C 0.80773 1.17798 1.25454
 C149 C 0.76813 1.18214 1.22841
 C150 C 0.76311 1.21720 1.19769
 C151 C 0.79742 1.24933 1.19326
 C152 C 0.83632 1.24610 1.21988
 C153 C 0.84167 1.20966 1.25106
 C154 C 0.82213 1.14499 1.28427
 N155 N 0.86418 1.15523 1.30008
 C156 C 0.87627 1.19527 1.28024
 C157 C 0.86356 1.28173 1.20699
 N158 N 0.84233 1.30600 1.17310
 C159 C 0.80180 1.28617 1.16489
 C160 C 0.72255 1.21101 1.17525
 N161 N 0.70256 1.17301 1.19193
 C162 C 0.73044 1.15554 1.22486
 H163 H 0.80270 1.11570 1.29400
 H164 H 0.90840 1.21193 1.28500
 H165 H 0.89672 1.28844 1.22086
 H166 H 0.77685 1.29778 1.14015
 H167 H 0.70956 1.23228 1.14792
 H168 H 0.72430 1.12543 1.24484
 O169 O 0.54967 0.95377 0.94926
 O170 O 0.46250 0.96170 1.06843
 O171 O 0.60393 0.99161 1.04581
 O172 O 0.41855 1.01200 0.96107
 O173 O 0.54776 0.96061 1.08490
 O174 O 0.46833 0.95960 0.95322
 O175 O 0.41343 1.01131 1.04394
 O176 O 0.60431 0.99823 0.96020
 C177 C 0.59093 0.96054 0.94745
 C178 C 0.42276 0.97165 1.05719
 C179 C 0.58901 0.96239 1.07374
 C180 C 0.42785 0.97164 0.95207
 O181 O 0.47191 1.04280 0.91125
 O182 O 0.54356 1.04601 1.10616
 O183 O 0.57575 1.08362 0.96653
 O184 O 0.45374 1.09418 1.04601
 O185 O 0.45914 1.04632 1.10019
 O186 O 0.55362 1.03915 0.91209
 O187 O 0.46367 1.09182 0.96422
 O188 O 0.58625 1.07877 1.05348
 Co189 Co 0.51082 1.00084 0.93784
 Co190 Co 0.50351 1.00532 1.08182
 Co191 Co 0.58453 1.03677 1.00628
 Co192 Co 0.44341 1.04980 1.00406
 O193 O 0.51118 1.02302 1.00821
 C194 C 0.46217 1.08262 0.92271
 C195 C 0.57236 1.07514 1.09428
 C196 C 0.57027 1.07624 0.92471
 C197 C 0.45086 1.08595 1.08765
 O198 O 0.04819 0.44785 0.05459
 O199 O 0.04630 0.54354 -0.08791
 O200 O 0.04756 0.42914 -0.02572
 O201 O 0.01588 0.58985 0.03707
 O202 O 0.03532 0.45719 -0.09295
 O203 O 0.05962 0.53216 0.05196
 O204 O 0.01201 0.59658 -0.04541
 O205 O 0.00588 0.38971 0.03345
 C206 C 0.03913 0.40561 0.05889
 C207 C 0.04505 0.58289 -0.07123
 C208 C 0.05620 0.42999 -0.06773
 C209 C 0.05341 0.57400 0.05085
 O210 O -0.02293 0.54471 0.09061
 O211 O -0.05183 0.47069 -0.09614
 O212 O -0.06726 0.43804 0.02576
 O213 O -0.07805 0.56933 -0.04046
 O214 O -0.03837 0.55467 -0.10029
 O215 O -0.03653 0.46350 0.08584
 O216 O -0.07171 0.55687 0.03925
 O217 O -0.03599 0.41336 -0.05031
 Co218 Co 0.01005 0.49785 0.06329
 Co219 Co -0.00267 0.50615 -0.08605
 Co220 Co -0.00976 0.43877 0.00059
 Co221 Co -0.02902 0.57276 -0.00257
 O222 O -0.00962 0.50584 -0.00975
 C223 C -0.06174 0.55882 0.08030
 C224 C -0.05755 0.43040 -0.08382
 C225 C -0.06848 0.44264 0.06813
 C226 C -0.07320 0.57190 -0.08273
 O227 O 1.08011 0.03914 0.46527
 O228 O 0.95779 0.04576 0.54581
 O229 O 0.97245 -0.00024 0.40907
 O230 O 1.04724 -0.00590 0.60268
 O231 O 0.96573 0.04724 0.46340
 O232 O 1.08937 0.03047 0.55228
 O233 O 0.96361 -0.00510 0.59722
 O234 O 1.05477 -0.00153 0.40877
 C235 C 1.07354 0.03373 0.42331
 C236 C 0.95502 0.03506 0.58692
 C237 C 0.96326 0.03923 0.42171
 C238 C 1.07593 0.02407 0.59282
 O239 O 1.10711 -0.05531 0.54102
 O240 O 0.92066 -0.03413 0.45847
 O241 O 1.05331 -0.08885 0.44026
 O242 O 0.96592 -0.08784 0.55990
 O243 O 0.91629 -0.03657 0.54099
 O244 O 1.10778 -0.04524 0.45510
 O245 O 1.05143 -0.09091 0.57593
 O246 O 0.97229 -0.08437 0.44673
 Co247 Co 1.08787 -0.00917 0.50309
 Co248 Co 0.94623 0.00328 0.50213
 Co249 Co 1.01326 -0.04191 0.43268
 Co250 Co 1.00725 -0.04538 0.57604
 O251 O 1.01428 -0.02340 0.50405
 C252 C 1.09293 -0.08682 0.56651
 C253 C 0.93139 -0.07389 0.44724
 C254 C 1.09442 -0.08139 0.43830
 C255 C 0.92535 -0.07629 0.55431
 C256 C 1.09358 0.11252 0.32313
 C257 C 1.14054 0.12046 0.32635
 C258 C 1.16339 0.10362 0.36548
 C259 C 1.14047 0.07723 0.39808
 C260 C 1.09486 0.06525 0.39132
 C261 C 1.07147 0.08456 0.35439
 C262 C 1.04458 0.06245 0.31755
 C263 C 1.06829 0.09322 0.28336
 H264 H 1.19890 0.11082 0.37117
 H265 H 1.15923 0.06403 0.42725
 H266 H 1.00749 0.06984 0.32081
 H267 H 1.05389 0.02613 0.31285
 H268 H 1.04484 0.11854 0.26751
 H269 H 1.09102 0.07476 0.25849
 C270 C 0.88441 -0.17506 0.38636
 C271 C 0.84396 -0.15728 0.36736
 C272 C 0.82654 -0.11671 0.38772
 C273 C 0.85322 -0.09123 0.41814
 C274 C 0.89776 -0.10569 0.42903
 C275 C 0.91059 -0.14977 0.41612
 C276 C 0.95439 -0.16857 0.39700
 C277 C 0.92604 -0.19608 0.36423
 H278 H 0.79388 -0.10257 0.37797
 H279 H 0.84065 -0.05832 0.42930
 H280 H 0.97301 -0.18958 0.42265
 H281 H 0.97525 -0.14308 0.37879
 H282 H 0.92882 -0.23300 0.37091
 H283 H 0.93053 -0.18603 0.32747
 C284 C 0.90753 0.14147 0.64295
 C285 C 0.88072 0.12473 0.67940
 C286 C 0.87939 0.07733 0.68473
 C287 C 0.90636 0.04860 0.65677
 C288 C 0.93294 0.06596 0.62043
 C289 C 0.93170 0.11265 0.61309
 C290 C 0.97074 0.14414 0.60969
 C291 C 0.94473 0.17524 0.64278
 H292 H 0.85939 0.06233 0.71212
 H293 H 0.90614 0.01269 0.66353
 H294 H 0.97445 0.15848 0.57441
 H295 H 1.00265 0.12980 0.62440
 H296 H 0.93397 0.20773 0.62669
 H297 H 0.96144 0.17831 0.67690
 C298 C 1.18997 -0.12055 0.64160
 C299 C 1.17240 -0.15845 0.66480
 C300 C 1.13594 -0.18052 0.64268
 C301 C 1.11256 -0.15979 0.60590
 C302 C 1.12597 -0.11744 0.58908
 C303 C 1.16768 -0.10115 0.60416
 C304 C 1.17972 -0.05448 0.61812
 C305 C 1.20385 -0.07520 0.65902
 H306 H 1.12211 -0.21151 0.65589
 H307 H 1.08143 -0.17473 0.59386
 H308 H 1.14927 -0.03399 0.62833
 H309 H 1.20320 -0.03852 0.59287
 H310 H 1.18735 -0.06593 0.69258
 H311 H 1.24137 -0.07079 0.65739
 C312 C 0.38329 1.18736 1.13006
 C313 C 0.36502 1.17118 1.17201
 C314 C 0.38880 1.13399 1.19206
 C315 C 0.42104 1.10843 1.16613
 C316 C 0.43102 1.11989 1.11998
 C317 C 0.41551 1.16237 1.10489
 C318 C 0.39716 1.17781 1.05964
 C319 C 0.36160 1.20474 1.08683
 H320 H 0.38017 1.12182 1.22613
 H321 H 0.43451 1.07736 1.18073
 H322 H 0.38194 1.15043 1.03917
 H323 H 0.42154 1.19936 1.04046
 H324 H 0.32652 1.19207 1.08195
 H325 H 0.36533 1.24184 1.08278
 C326 C 0.33082 0.93255 0.87954
 C327 C 0.32823 0.88630 0.88936
 C328 C 0.36050 0.86757 0.92018
 C329 C 0.39369 0.89497 0.94049
 C330 C 0.39320 0.94195 0.93294
 C331 C 0.36161 0.95982 0.90194
 C332 C 0.32685 0.99656 0.90981
 C333 C 0.29350 0.96732 0.88435
 H334 H 0.36099 0.83173 0.92752
 H335 H 0.41876 0.87976 0.96310
 H336 H 0.33494 1.02818 0.89119
 H337 H 0.31803 1.00120 0.94701
 H338 H 0.28337 0.98153 0.85038
 H339 H 0.26474 0.95582 0.90647
 C340 C 0.67989 0.87237 1.09601
 C341 C 0.68231 0.87270 1.14452
 C342 C 0.64893 0.89870 1.16870
 C343 C 0.61769 0.92625 1.14499
 C344 C 0.62018 0.93044 1.09667
 C345 C 0.65003 0.90125 1.07263
 C346 C 0.68413 0.91090 1.03563
 C347 C 0.71684 0.87947 1.06097
 H348 H 0.64673 0.89801 1.20601
 H349 H 0.59301 0.94616 1.16472
 H350 H 0.69483 0.94676 1.03548
 H351 H 0.67384 0.89734 1.00160
 H352 H 0.74664 0.89704 1.07553
 H353 H 0.72531 0.84806 1.04135
 C354 C 0.63373 1.17572 0.87739
 C355 C 0.65344 1.15742 0.83685
 C356 C 0.63347 1.11767 0.81932
 C357 C 0.60167 1.09343 0.84591
 C358 C 0.58963 1.10796 0.89082
 C359 C 0.60330 1.15122 0.90398
 C360 C 0.62205 1.16841 0.94830
 C361 C 0.65532 1.19526 0.91937
 H362 H 0.64417 1.10349 0.78645
 H363 H 0.59044 1.06108 0.83322
 H364 H 0.63930 1.14179 0.96913
 H365 H 0.59696 1.19002 0.96757
 H366 H 0.69137 1.18390 0.92349
 H367 H 0.64933 1.23235 0.92222
 C368 C 0.09033 0.29855 0.10673
 C369 C 0.12950 0.31338 0.12894
 C370 C 0.14272 0.35831 0.12129
 C371 C 0.11371 0.38867 0.09771
 C372 C 0.07166 0.37411 0.08042
 C373 C 0.06278 0.32796 0.08222
 C374 C 0.02048 0.30343 0.09469
 C375 C 0.05056 0.27139 0.12245
 H376 H 0.17390 0.37055 0.13606
 H377 H 0.12336 0.42370 0.09465
 H378 H 0.00503 0.28708 0.06418
 H379 H -0.00355 0.32402 0.11630
 H380 H 0.05177 0.23643 0.10838
 H381 H 0.04327 0.27418 0.16007
 C382 C -0.14525 0.34256 -0.11014
 C383 C -0.14911 0.34567 -0.15812
 C384 C -0.12745 0.38156 -0.18076
 C385 C -0.09910 0.41069 -0.15608
 C386 C -0.09067 0.40318 -0.10879
 C387 C -0.11616 0.37027 -0.08611
 C388 C -0.10131 0.33281 -0.05495
 C389 C -0.13343 0.30252 -0.08113
 H390 H -0.13078 0.38565 -0.21773
 H391 H -0.08139 0.43699 -0.17460
 H392 H -0.11212 0.33882 -0.01852
 H393 H -0.06479 0.32314 -0.05992
 H394 H -0.16289 0.29134 -0.05985
 H395 H -0.11558 0.27525 -0.10111
 C396 C 0.12462 0.68228 -0.07035
 C397 C 0.14815 0.67668 -0.11230
 C398 C 0.14359 0.63552 -0.13600
 C399 C 0.11154 0.60385 -0.12116
 C400 C 0.08252 0.61340 -0.08305
 C401 C 0.09211 0.65151 -0.05631
 C402 C 0.06152 0.68770 -0.03684
 C403 C 0.09712 0.72146 -0.05229
 H404 H 0.16246 0.62941 -0.16782
 H405 H 0.10717 0.57364 -0.14167
 H406 H 0.05806 0.68519 0.00135
 H407 H 0.02887 0.69110 -0.05574
 H408 H 0.11404 0.73840 -0.02296
 H409 H 0.08516 0.74443 -0.08017
 C410 C -0.16045 0.62971 0.12512
 C411 C -0.14083 0.65426 0.16110
 C412 C -0.09830 0.63781 0.17740
 C413 C -0.07400 0.60306 0.15373
 C414 C -0.09164 0.58383 0.11326
 C415 C -0.13674 0.59529 0.10229
 C416 C -0.15922 0.60523 0.05744
 C417 C -0.18466 0.64350 0.08205
 H418 H -0.08179 0.65408 0.20599
 H419 H -0.03975 0.59448 0.16461
 H420 H -0.18176 0.57744 0.04663
 H421 H -0.13540 0.61748 0.03035
 H422 H -0.22200 0.63819 0.08453
 H423 H -0.17430 0.67711 0.06891
 C424 C 1.16514 0.08227 0.66245
 C425 C 1.14012 0.10598 0.69637
 C426 C 1.09266 0.09777 0.69929
 C427 C 1.07147 0.06924 0.66700
 C428 C 1.09672 0.05074 0.62969
 C429 C 1.14383 0.05669 0.62938
 C430 C 1.17530 0.07151 0.59177
 C431 C 1.19895 0.09953 0.62802
 H432 H 1.07187 0.11304 0.72637
 H433 H 1.03515 0.06375 0.66974
 H434 H 1.15787 0.09237 0.56515
 H435 H 1.19701 0.04333 0.57810
 H436 H 1.19542 0.13657 0.62232
 H437 H 1.23417 0.08726 0.63521
 C438 C 0.81798 -0.11382 0.61362
 C439 C 0.83111 -0.15648 0.63122
 C440 C 0.86990 -0.17716 0.60954
 C441 C 0.89861 -0.15236 0.57999
 C442 C 0.88880 -0.10672 0.56997
 C443 C 0.84559 -0.09014 0.58301
 C444 C 0.83108 -0.04546 0.60232
 C445 C 0.80154 -0.07100 0.63638
 H446 H 0.88096 -0.21109 0.61785
 H447 H 0.93050 -0.16778 0.56846
 H448 H 0.81110 -0.02511 0.57718
 H449 H 0.85939 -0.02754 0.61879
 H450 H 0.76451 -0.06461 0.63119
 H451 H 0.81326 -0.06783 0.67262
 C452 C 1.18372 -0.11216 0.34920
 C453 C 1.16827 -0.15357 0.33163
 C454 C 1.13488 -0.17587 0.35875
 C455 C 1.11321 -0.15403 0.39659
 C456 C 1.12498 -0.10984 0.40921
 C457 C 1.16278 -0.09116 0.38707
 C458 C 1.16829 -0.04503 0.36735
 C459 C 1.19098 -0.06764 0.32589
 H460 H 1.12292 -0.20892 0.34955
 H461 H 1.08499 -0.17043 0.41372
 H462 H 1.19194 -0.02428 0.38789
 H463 H 1.13524 -0.02819 0.35900
 H464 H 1.22767 -0.05941 0.32254
 H465 H 1.17101 -0.06382 0.29366
 C466 C 0.87597 0.08410 0.33900
 C467 C 0.88851 0.12897 0.33047
 C468 C 0.92543 0.14560 0.35639
 C469 C 0.94969 0.11705 0.38725
 C470 C 0.93911 0.07087 0.39092
 C471 C 0.90084 0.05597 0.36776
 C472 C 0.89527 0.01572 0.33750
 C473 C 0.86799 0.04636 0.30569
 H474 H 0.93549 0.18045 0.35328
 H475 H 0.97781 0.13048 0.40653
 H476 H 0.87440 -0.01067 0.35436
 H477 H 0.92801 0.00345 0.32191
 H478 H 0.83149 0.03719 0.30408
 H479 H 0.88484 0.05182 0.27161
 C480 C 0.09765 0.33893 -0.14833
 C481 C 0.13524 0.31910 -0.12580
 C482 C 0.15103 0.34201 -0.08601
 C483 C 0.12665 0.37953 -0.06728
 C484 C 0.08735 0.39646 -0.08913
 C485 C 0.07522 0.37700 -0.13102
 C486 C 0.02968 0.36147 -0.14607
 C487 C 0.05383 0.31949 -0.16466
 H488 H 0.18016 0.32937 -0.06721
 H489 H 0.13748 0.39411 -0.03496
 H490 H 0.00627 0.35439 -0.11660
 H491 H 0.01506 0.38335 -0.17354
 H492 H 0.05249 0.31703 -0.20294
 H493 H 0.04439 0.28829 -0.14572
 C494 C -0.11191 0.37633 0.16969
 C495 C -0.14101 0.34536 0.14894
 C496 C -0.15493 0.35535 0.10330
 C497 C -0.13498 0.39073 0.07786
 C498 C -0.10101 0.41754 0.09753
 C499 C -0.09303 0.41175 0.14490
 C500 C -0.04955 0.40903 0.17114
 C501 C -0.06984 0.36989 0.19771
 H502 H -0.17844 0.33366 0.08574
 H503 H -0.14329 0.39443 0.04171
 H504 H -0.04455 0.43950 0.19287
 H505 H -0.01971 0.39893 0.14927
 H506 H -0.07587 0.37759 0.23489
 H507 H -0.05155 0.33743 0.19034
 C508 C -0.17194 0.64721 -0.11932
 C509 C -0.15993 0.65976 -0.16471
 C510 C -0.11759 0.64302 -0.18204
 C511 C -0.09008 0.61392 -0.15560
 C512 C -0.10377 0.60029 -0.11103
 C513 C -0.14443 0.61853 -0.09305
 C514 C -0.18437 0.59400 -0.07396
 C515 C -0.21439 0.62511 -0.10246
 H516 H -0.10503 0.65197 -0.21591
 H517 H -0.05791 0.60207 -0.17025
 H518 H -0.18888 0.59942 -0.03627
 H519 H -0.18509 0.55809 -0.08529
 H520 H -0.23603 0.64820 -0.08086
 H521 H -0.23263 0.60737 -0.13044
 C522 C 0.15887 0.63107 0.09625
 C523 C 0.13991 0.66903 0.11897
 C524 C 0.09223 0.67160 0.12379
 C525 C 0.06465 0.64017 0.10180
 C526 C 0.08399 0.60458 0.07526
 C527 C 0.13143 0.59891 0.07563
 C528 C 0.16409 0.59199 0.03633
 C529 C 0.19373 0.62752 0.05842
 H530 H 0.07620 0.69926 0.14276
 H531 H 0.02798 0.64435 0.10476
 H532 H 0.14975 0.60262 0.00264
 H533 H 0.17991 0.55760 0.03654
 H534 H 0.19600 0.65882 0.03741
 H535 H 0.22681 0.61365 0.07083
 C536 C 0.39065 1.12268 0.82426
 C537 C 0.36669 1.15936 0.84474
 C538 C 0.38722 1.17908 0.88376
 C539 C 0.42345 1.15685 0.90644
 C540 C 0.44042 1.11474 0.89031
 C541 C 0.42708 1.10144 0.84612
 C542 C 0.41603 1.05627 0.82676
 C543 C 0.37572 1.07911 0.80345
 H544 H 0.37297 1.20917 0.89979
 H545 H 0.43435 1.17009 0.93935
 H546 H 0.40605 1.03144 0.85348
 H547 H 0.44258 1.04392 0.80191
 H548 H 0.34237 1.06778 0.81736
 H549 H 0.37889 1.07904 0.76516
 C550 C 0.30785 0.92206 1.08190
 C551 C 0.31949 0.87830 1.09638
 C552 C 0.36396 0.86223 1.08675
 C553 C 0.39746 0.89205 1.07062
 C554 C 0.38663 0.93817 1.06327
 C555 C 0.34058 0.95113 1.06507
 C556 C 0.31746 0.99143 1.08653
 C557 C 0.28149 0.95949 1.10498
 H558 H 0.37373 0.82796 1.09583
 H559 H 0.43233 0.87982 1.06729
 H560 H 0.30416 1.01534 1.06014
 H561 H 0.33808 1.00707 1.11411
 H562 H 0.24754 0.96508 1.08917
 H563 H 0.28125 0.95718 1.14325
 C564 C 0.64683 1.11030 1.19078
 C565 C 0.66081 1.15320 1.17586
 C566 C 0.63366 1.17473 1.14203
 C567 C 0.60019 1.15062 1.11834
 C568 C 0.59206 1.10505 1.12897
 C569 C 0.61282 1.08704 1.16818
 C570 C 0.63641 1.04247 1.17436
 C571 C 0.67374 1.06765 1.19873
 H572 H 0.64056 1.20871 1.13075
 H573 H 0.58377 1.16625 1.08894
 H574 H 0.64783 1.02686 1.14114
 H575 H 0.61701 1.01994 1.19777
 H576 H 0.70674 1.06678 1.17947
 H577 H 0.67598 1.05898 1.23599
 C578 C 0.63685 0.85366 0.89122
 C579 C 0.67136 0.87002 0.86242
 C580 C 0.68536 0.91478 0.86936
 C581 C 0.66127 0.94352 0.90031
 C582 C 0.62206 0.92826 0.92384
 C583 C 0.61216 0.88229 0.92045
 C584 C 0.56855 0.85888 0.91122
 C585 C 0.59570 0.82737 0.87927
 H586 H 0.71379 0.92792 0.84974
 H587 H 0.67117 0.97850 0.90292
 H588 H 0.54346 0.88054 0.89265
 H589 H 0.55504 0.84167 0.94247
 H590 H 0.58634 0.83082 0.84231
 H591 H 0.59790 0.79207 0.89219
   
