data_POSCAR
  _audit_creation_date              2014-09-24
  _audit_creation_method            'ToBaCCo'
  _symmetry_space_group_name_H-M    'P1'
  _symmetry_Int_Tables_number       1
  _symmetry_cell_setting            triclinic
  loop_
  _symmetry_equiv_pos_as_xyz
 x,y,z
_cell_length_a 12.7134
_cell_length_b 12.7134
_cell_length_c 31.4505
_cell_angle_alpha 89.890500
_cell_angle_beta 90.109500
_cell_angle_gamma 119.827200
loop_
  _atom_site_label
  _atom_site_type_symbol
  _atom_site_fract_x
  _atom_site_fract_y
  _atom_site_fract_z
C1 C 0.00008 -0.00145 0.50005
 C2 C 0.99855 0.00008 0.16662
 C3 C 0.00445 1.00446 0.83333
 O4 O 0.42833 0.06606 0.04000
 O5 O 0.63328 0.06637 -0.04107
 O6 O 0.46533 0.13678 -0.04088
 O7 O 0.66559 0.13549 0.03984
 O8 O 0.56822 -0.06420 0.04001
 O9 O 0.36398 -0.06284 -0.04138
 O10 O 0.53202 -0.13327 -0.04094
 O11 O 0.33091 -0.13360 0.03950
 Cu12 Cu 0.55596 0.11692 -0.00056
 Cu13 Cu 0.44087 -0.11423 -0.00076
 C14 C 0.34150 -0.03594 0.05337
 C15 C 0.61895 -0.03537 -0.05456
 C16 C 0.37850 0.03921 -0.05473
 C17 C 0.65497 0.03756 0.05357
 O18 O 0.06606 0.42833 0.62667
 O19 O 0.06637 0.63329 0.70774
 O20 O 0.13678 0.46533 0.70755
 O21 O 0.13549 0.66559 0.62683
 O22 O -0.06420 0.56822 0.62666
 O23 O -0.06284 0.36398 0.70805
 O24 O -0.13327 0.53203 0.70760
 O25 O -0.13360 0.33091 0.62716
 Cu26 Cu 0.11692 0.55596 0.66722
 Cu27 Cu -0.11423 0.44087 0.66742
 C28 C -0.03594 0.34150 0.61329
 C29 C -0.03537 0.61895 0.72122
 C30 C 0.03921 0.37850 0.72140
 C31 C 0.03756 0.65497 0.61310
 O32 O 0.63453 0.56864 0.37393
 O33 O 0.42959 0.36447 0.29269
 O34 O 0.66680 0.53250 0.29300
 O35 O 0.46649 0.33143 0.37356
 O36 O 0.36447 0.42959 0.37397
 O37 O 0.56864 0.63453 0.29273
 O38 O 0.33143 0.46649 0.29310
 O39 O 0.53250 0.66680 0.37367
 Cu40 Cu 0.55729 0.44133 0.33329
 Cu41 Cu 0.44133 0.55729 0.33338
 C42 C 0.61971 0.65584 0.38736
 C43 C 0.34226 0.37940 0.27934
 C44 C 0.65584 0.61971 0.27930
 C45 C 0.37940 0.34226 0.38732
 C46 C -0.02715 0.08641 0.53223
 C47 C 0.09480 0.19912 0.54585
 C48 C 0.08856 0.28071 0.57051
 C49 C -0.03869 0.24760 0.58311
 C50 C -0.10799 0.22679 0.54103
 C51 C -0.10519 0.14089 0.51534
 C52 C -0.09034 0.03605 0.57604
 C53 C -0.09351 0.12000 0.60244
 H54 H 0.18340 0.21081 0.54254
 H55 H 0.17071 0.35680 0.58318
 H56 H -0.16166 0.26916 0.53342
 H57 H -0.15889 0.11053 0.48647
 H58 H -0.13681 -0.05769 0.58558
 H59 H -0.13848 0.09565 0.63312
 C60 C 0.91098 0.88482 0.19871
 C61 C 0.79794 0.89390 0.21235
 C62 C 0.71630 0.80570 0.23684
 C63 C 0.74982 0.71144 0.24931
 C64 C 0.77128 0.66401 0.20717
 C65 C 0.85719 0.75300 0.18165
 C66 C 0.96122 0.87118 0.24252
 C67 C 0.87728 0.78364 0.26877
 H68 H 0.78624 0.97098 0.20925
 H69 H 0.64005 0.81161 0.24959
 H70 H 0.72933 0.56839 0.19942
 H71 H 0.88793 0.73030 0.15277
 H72 H 1.05486 0.91845 0.25218
 H73 H 0.90150 0.76255 0.29947
 C74 C 0.11364 0.03022 -0.13613
 C75 C 0.24612 0.10634 -0.15317
 C76 C 0.33465 0.10877 -0.12739
 C77 C 0.28701 0.04209 -0.08492
 C78 C 0.21601 0.09973 -0.06616
 C79 C 0.12883 0.09659 -0.09271
 C80 C 0.10383 -0.09164 -0.12123
 C81 C 0.19187 -0.08524 -0.09661
 H82 H 0.27009 0.15899 -0.18226
 H83 H 0.43032 0.16099 -0.13519
 H84 H 0.23822 0.14692 -0.03589
 H85 H 0.08367 0.14569 -0.08365
 H86 H 0.02600 -0.17986 -0.12323
 H87 H 0.18458 -0.16714 -0.08292
 C88 C 0.02764 0.91043 0.53216
 C89 C -0.09414 0.79759 0.54581
 C90 C -0.08759 0.71583 0.57042
 C91 C 0.03982 0.74893 0.58294
 C92 C 0.10866 0.77007 0.54081
 C93 C 0.10554 0.85613 0.51516
 C94 C 0.09129 0.96049 0.57594
 C95 C 0.09479 0.87638 0.60228
 H96 H -0.18280 0.78588 0.54255
 H97 H -0.16956 0.63958 0.58311
 H98 H 0.16227 0.72778 0.53313
 H99 H 0.15891 0.88671 0.48627
 H100 H 0.13783 1.05414 0.58551
 H101 H 0.14007 0.90051 0.63295
 C102 C 0.08638 0.11502 0.19875
 C103 C 0.13999 0.24701 0.18175
 C104 C 0.22613 0.33575 0.20728
 C105 C 0.24799 0.28793 0.24936
 C106 C 0.12071 0.21553 0.26886
 C107 C 0.03653 0.12823 0.24260
 C108 C 0.19954 0.10583 0.21230
 C109 C 0.28141 0.19381 0.23679
 H110 H 0.10898 0.26998 0.15291
 H111 H 0.26799 0.43145 0.19956
 H112 H 0.09677 0.23631 0.29959
 H113 H -0.05702 0.08083 0.25230
 H114 H 0.21122 0.02878 0.20914
 H115 H 0.35777 0.18778 0.24948
 C116 C 0.88736 -0.02359 -0.13440
 C117 C 0.87468 -0.08490 -0.09000
 C118 C 0.78606 -0.08914 -0.06417
 C119 C 0.71136 -0.03739 -0.08434
 C120 C 0.80303 0.08995 -0.09742
 C121 C 0.89232 0.09755 -0.12151
 C122 C 0.75544 -0.10433 -0.15134
 C123 C 0.66525 -0.10830 -0.12615
 H124 H 0.92414 -0.12821 -0.07921
 H125 H 0.76634 -0.13223 -0.03311
 H126 H 0.80584 0.17165 -0.08569
 H127 H 0.96649 0.18732 -0.12513
 H128 H 0.73355 -0.15851 -0.18001
 H129 H 0.56982 -0.16350 -0.13397
 C130 C 0.08641 -0.02715 0.13443
 C131 C 0.19912 0.09480 0.12082
 C132 C 0.28071 0.08856 0.09616
 C133 C 0.24760 -0.03869 0.08355
 C134 C 0.22679 -0.10799 0.12564
 C135 C 0.14089 -0.10519 0.15133
 C136 C 0.03605 -0.09033 0.09063
 C137 C 0.12000 -0.09351 0.06423
 H138 H 0.21081 0.18341 0.12413
 H139 H 0.35680 0.17071 0.08349
 H140 H 0.26916 -0.16166 0.13325
 H141 H 0.11053 -0.15889 0.18019
 H142 H -0.05769 -0.13681 0.08108
 H143 H 0.09565 -0.13848 0.03354
 C144 C 0.88482 0.91098 0.46795
 C145 C 0.89390 0.79794 0.45432
 C146 C 0.80569 0.71630 0.42983
 C147 C 0.71144 0.74982 0.41736
 C148 C 0.66401 0.77128 0.45949
 C149 C 0.75300 0.85719 0.48502
 C150 C 0.87118 0.96122 0.42415
 C151 C 0.78364 0.87728 0.39790
 H152 H 0.97098 0.78625 0.45741
 H153 H 0.81161 0.64005 0.41708
 H154 H 0.56839 0.72933 0.46725
 H155 H 0.73030 0.88793 0.51390
 H156 H 0.91845 1.05487 0.41448
 H157 H 0.76255 0.90150 0.36720
 C158 C 0.03022 0.11364 0.80280
 C159 C 0.10634 0.24612 0.81983
 C160 C 0.10877 0.33465 0.79405
 C161 C 0.04209 0.28701 0.75158
 C162 C 0.09973 0.21601 0.73283
 C163 C 0.09659 0.12883 0.75938
 C164 C -0.09164 0.10383 0.78790
 C165 C -0.08524 0.19187 0.76327
 H166 H 0.15899 0.27009 0.84893
 H167 H 0.16099 0.43032 0.80186
 H168 H 0.14692 0.23822 0.70255
 H169 H 0.14568 0.08367 0.75031
 H170 H -0.17986 0.02600 0.78989
 H171 H -0.16714 0.18458 0.74959
 C172 C 0.91043 0.02765 0.13451
 C173 C 0.79759 -0.09414 0.12086
 C174 C 0.71583 -0.08759 0.09624
 C175 C 0.74892 0.03982 0.08373
 C176 C 0.77007 0.10866 0.12586
 C177 C 0.85613 0.10554 0.15150
 C178 C 0.96049 0.09129 0.09073
 C179 C 0.87638 0.09479 0.06438
 H180 H 0.78588 -0.18280 0.12411
 H181 H 0.63958 -0.16956 0.08355
 H182 H 0.72778 0.16227 0.13354
 H183 H 0.88671 0.15891 0.18039
 H184 H 1.05414 0.13783 0.08116
 H185 H 0.90051 0.14007 0.03372
 C186 C 0.11502 0.08638 0.46792
 C187 C 0.24701 0.13999 0.48492
 C188 C 0.33575 0.22613 0.45939
 C189 C 0.28793 0.24799 0.41731
 C190 C 0.21553 0.12071 0.39781
 C191 C 0.12823 0.03653 0.42407
 C192 C 0.10583 0.19954 0.45437
 C193 C 0.19381 0.28141 0.42988
 H194 H 0.26998 0.10898 0.51376
 H195 H 0.43145 0.26800 0.46711
 H196 H 0.23631 0.09677 0.36707
 H197 H 0.08083 -0.05702 0.41436
 H198 H 0.02878 0.21122 0.45752
 H199 H 0.18778 0.35777 0.41718
 C200 C -0.02359 0.88736 0.80107
 C201 C 0.09755 0.89233 0.78818
 C202 C 0.08995 0.80303 0.76408
 C203 C -0.03739 0.71136 0.75101
 C204 C -0.10830 0.66525 0.79281
 C205 C -0.10433 0.75544 0.81800
 C206 C -0.08490 0.87468 0.75667
 C207 C -0.08914 0.78606 0.73083
 H208 H 0.18732 0.96649 0.79180
 H209 H 0.17164 0.80584 0.75236
 H210 H -0.16350 0.56982 0.80063
 H211 H -0.15851 0.73355 0.84667
 H212 H -0.12821 0.92414 0.74588
 H213 H -0.13223 0.76634 0.69978
   
