data_POSCAR
  _audit_creation_date              2014-09-24
  _audit_creation_method            'ToBaCCo'
  _symmetry_space_group_name_H-M    'P1'
  _symmetry_Int_Tables_number       1
  _symmetry_cell_setting            triclinic
  loop_
  _symmetry_equiv_pos_as_xyz
 x,y,z
_cell_length_a 29.9099
_cell_length_b 27.4543
_cell_length_c 13.8171
_cell_angle_alpha 92.261000
_cell_angle_beta 87.189000
_cell_angle_gamma 127.547600
loop_
  _atom_site_label
  _atom_site_type_symbol
  _atom_site_fract_x
  _atom_site_fract_y
  _atom_site_fract_z
C1 C 0.60471 1.12039 0.36143
 C2 C 0.63410 1.16345 0.43611
 C3 C 0.62622 1.14659 0.53337
 C4 C 0.58783 1.08332 0.55706
 C5 C 0.55511 1.03909 0.48337
 C6 C 0.56313 1.05765 0.38544
 C7 C 0.52649 1.01369 0.31594
 C8 C 0.48603 0.95237 0.34007
 C9 C 0.48018 0.93210 0.43491
 C10 C 0.51414 0.97602 0.50780
 C11 C 0.58422 1.06228 0.65040
 C12 C 0.54485 1.00072 0.67383
 C13 C 0.50689 0.95720 0.60529
 C14 C 0.46462 0.89464 0.63007
 C15 C 0.43353 0.85167 0.55578
 C16 C 0.43996 0.86950 0.45963
 H17 H 0.52724 1.02634 0.24249
 H18 H 0.45893 0.92130 0.28327
 H19 H 0.61308 1.09263 0.70592
 H20 H 0.54567 0.98748 0.74599
 H21 H 0.66412 1.21158 0.41778
 H22 H 0.40081 0.80385 0.57338
 C23 C -0.09730 0.52079 0.41444
 C24 C -0.11922 0.52597 0.50252
 C25 C -0.09206 0.53794 0.58947
 C26 C -0.04308 0.54072 0.58952
 C27 C -0.02162 0.53278 0.50112
 C28 C -0.04861 0.52317 0.41300
 C29 C -0.02606 0.51640 0.32639
 C30 C 0.02123 0.51747 0.32653
 C31 C 0.04840 0.52636 0.41309
 C32 C 0.02650 0.53366 0.50120
 C33 C -0.01715 0.54699 0.67616
 C34 C 0.03009 0.54885 0.67595
 C35 C 0.05183 0.54047 0.58992
 C36 C 0.09948 0.54096 0.59051
 C37 C 0.12223 0.53673 0.50264
 C38 C 0.09613 0.52691 0.41478
 H39 H -0.04512 0.50960 0.25769
 H40 H 0.03610 0.51104 0.25792
 H41 H -0.03339 0.54919 0.74623
 H42 H 0.04940 0.55722 0.74488
 H43 H -0.15671 0.52380 0.50248
 H44 H 0.15812 0.53604 0.50322
 C45 C 0.44104 0.54919 0.57059
 C46 C 0.41640 0.54566 0.48446
 C47 C 0.42082 0.51818 0.40068
 C48 C 0.44822 0.49046 0.40410
 C49 C 0.46950 0.48953 0.49290
 C50 C 0.46705 0.52009 0.57572
 C51 C 0.48875 0.51858 0.66267
 C52 C 0.51203 0.48803 0.66818
 C53 C 0.51125 0.45360 0.58932
 C54 C 0.49320 0.45780 0.49909
 C55 C 0.45588 0.46456 0.32107
 C56 C 0.48084 0.43538 0.32644
 C57 C 0.49896 0.43060 0.41515
 C58 C 0.52401 0.40071 0.42165
 C59 C 0.54032 0.39548 0.51167
 C60 C 0.53097 0.41805 0.59709
 H61 H 0.48723 0.53992 0.72875
 H62 H 0.53142 0.49269 0.73536
 H63 H 0.44343 0.46724 0.25056
 H64 H 0.48570 0.41648 0.26012
 H65 H 0.39554 0.56688 0.48127
 H66 H 0.55658 0.36951 0.51549
 O67 O 0.40885 0.64348 -0.06562
 O68 O 0.40965 0.73867 -0.06727
 C69 C 0.38451 0.76176 -0.08094
 O70 O 0.33695 0.74174 -0.04163
 O71 O 0.24958 0.63672 -0.11116
 C72 C 0.22119 0.58084 -0.13710
 O73 O 0.22627 0.54337 -0.09905
 O74 O 0.32690 0.57016 -0.13391
 C75 C 0.38063 0.60716 -0.13571
 O76 O 0.38547 0.63325 0.12824
 O77 O 0.39106 0.73227 0.12699
 C78 C 0.35041 0.72759 0.17148
 O79 O 0.30118 0.69669 0.13899
 O80 O 0.21293 0.59411 0.07237
 C81 C 0.20609 0.54928 0.11391
 O82 O 0.23290 0.52831 0.08778
 O83 O 0.32787 0.54411 0.05120
 C84 C 0.36023 0.57589 0.12027
 Cr85 Cr 0.39608 0.68516 0.02981
 Cr86 Cr 0.27667 0.66627 0.01409
 Cr87 Cr 0.27981 0.54937 -0.02288
 O88 O 0.31767 0.63403 0.00686
 O89 O 0.59912 0.32547 -0.13364
 O90 O 0.63550 0.26001 -0.12803
 C91 C 0.68164 0.28336 -0.17619
 O92 O 0.72882 0.32997 -0.14772
 O93 O 0.79493 0.44248 -0.08465
 C94 C 0.78546 0.47602 -0.12546
 O95 O 0.74305 0.47470 -0.10459
 O96 O 0.63492 0.41760 -0.06895
 C97 C 0.60428 0.37471 -0.12974
 O98 O 0.57977 0.31658 0.06172
 O99 O 0.62038 0.25549 0.06726
 C100 C 0.65987 0.25152 0.07679
 O101 O 0.70778 0.28627 0.03337
 O102 O 0.77074 0.40048 0.09858
 C103 C 0.78046 0.45067 0.12553
 O104 O 0.75941 0.47296 0.08477
 O105 O 0.65030 0.40950 0.11789
 C106 C 0.60035 0.36002 0.12454
 Cr107 Cr 0.61128 0.29193 -0.03260
 Cr108 Cr 0.74831 0.36473 -0.02463
 Cr109 Cr 0.69657 0.44110 0.00648
 O110 O 0.68530 0.36573 -0.01659
 N111 N 0.42107 0.86788 -0.11946
 N112 N 0.44534 0.90591 -0.20003
 C113 C 0.44943 0.87450 -0.27314
 C114 C 0.42842 0.81656 -0.24042
 C115 C 0.41181 0.81471 -0.14456
 H116 H 0.42435 0.77972 -0.28156
 H117 H 0.41102 0.87898 -0.05292
 H118 H 0.45230 0.94796 -0.20427
 N119 N 0.12154 0.50792 -0.17773
 N120 N 0.08711 0.49768 -0.25233
 C121 C 0.12035 0.53820 -0.32276
 C122 C 0.17644 0.57486 -0.29538
 C123 C 0.17483 0.55506 -0.20334
 H124 H 0.21300 0.61228 -0.33529
 H125 H 0.10740 0.48443 -0.11218
 H126 H 0.04354 0.46316 -0.25314
 N127 N 0.47024 0.64301 -0.22091
 N128 N 0.48741 0.62721 -0.30360
 C129 C 0.44079 0.58313 -0.35122
 C130 C 0.39315 0.57063 -0.30181
 C131 C 0.41348 0.60787 -0.21921
 H132 H 0.34947 0.53517 -0.31883
 H133 H 0.49723 0.67405 -0.16760
 H134 H 0.52909 0.64510 -0.32183
 N135 N 0.72517 0.28444 -0.33369
 N136 N 0.70950 0.24641 -0.41500
 C137 C 0.65696 0.19431 -0.39759
 C138 C 0.63763 0.19891 -0.30631
 C139 C 0.68147 0.25569 -0.26922
 H140 H 0.59622 0.16661 -0.27284
 H141 H 0.76365 0.32811 -0.32675
 H142 H 0.73567 0.25682 -0.47620
 N143 N 0.87679 0.57156 -0.17649
 N144 N 0.91297 0.58833 -0.25726
 C145 C 0.88400 0.54463 -0.32606
 C146 C 0.82893 0.50105 -0.29288
 C147 C 0.82658 0.51867 -0.19865
 H148 H 0.79742 0.45734 -0.32717
 H149 H 0.88936 0.59197 -0.10787
 H150 H 0.95558 0.62627 -0.26015
 N151 N 0.52642 0.37966 -0.15570
 N152 N 0.50590 0.39184 -0.23176
 C153 C 0.53793 0.40166 -0.31210
 C154 C 0.57736 0.39252 -0.28989
 C155 C 0.56936 0.38039 -0.19129
 H156 H 0.61004 0.39807 -0.33732
 H157 H 0.51123 0.37243 -0.08392
 H158 H 0.46987 0.38986 -0.22629
 N159 N 0.83534 0.54238 0.23310
 N160 N 0.86894 0.56153 0.30685
 C161 C 0.87557 0.51864 0.32626
 C162 C 0.84426 0.46940 0.26245
 C163 C 0.81929 0.48648 0.20466
 H164 H 0.83832 0.42636 0.26140
 H165 H 0.82288 0.56688 0.20425
 H166 H 0.88570 0.60260 0.34505
 N167 N 0.64430 0.15382 0.10993
 N168 N 0.62500 0.11481 0.18903
 C169 C 0.61855 0.14231 0.26571
 C170 C 0.63343 0.19859 0.23723
 C171 C 0.64881 0.20375 0.14025
 H172 H 0.63171 0.23111 0.28083
 H173 H 0.65121 0.14395 0.03951
 H174 H 0.62110 0.07432 0.18881
 N175 N 0.50865 0.30705 0.21782
 N176 N 0.48855 0.31795 0.29601
 C177 C 0.53091 0.37151 0.33636
 C178 C 0.58012 0.39601 0.28179
 C179 C 0.56411 0.35374 0.20688
 H180 H 0.62119 0.43931 0.29324
 H181 H 0.48440 0.26895 0.17189
 H182 H 0.44639 0.28966 0.32024
 N183 N 0.15391 0.47398 0.24757
 N184 N 0.12487 0.46840 0.32720
 C185 C 0.11768 0.51237 0.32875
 C186 C 0.14341 0.54766 0.24655
 C187 C 0.16606 0.52187 0.19712
 H188 H 0.14927 0.58943 0.22971
 H189 H 0.16751 0.44739 0.23100
 H190 H 0.11240 0.43668 0.38161
 N191 N 0.31983 0.75128 0.32507
 N192 N 0.34346 0.78831 0.40090
 C193 C 0.39990 0.82188 0.38952
 C194 C 0.41292 0.80465 0.30353
 C195 C 0.36082 0.76010 0.26454
 H196 H 0.45428 0.82273 0.27304
 H197 H 0.27636 0.72067 0.31523
 H198 H 0.32121 0.79116 0.45861
 N199 N 0.34224 0.48244 0.18652
 N200 N 0.35789 0.46701 0.25964
 C201 C 0.39499 0.51791 0.31171
 C202 C 0.40261 0.56808 0.27078
 C203 C 0.36867 0.54348 0.19077
 H204 H 0.42911 0.61545 0.29547
 H205 H 0.31347 0.45132 0.13510
 H206 H 0.34268 0.42215 0.27410
   
