data_POSCAR
  _audit_creation_date              2014-09-24
  _audit_creation_method            'ToBaCCo'
  _symmetry_space_group_name_H-M    'P1'
  _symmetry_Int_Tables_number       1
  _symmetry_cell_setting            triclinic
  loop_
  _symmetry_equiv_pos_as_xyz
 x,y,z
_cell_length_a 55.0569
_cell_length_b 33.6839
_cell_length_c 21.4162
_cell_angle_alpha 89.922000
_cell_angle_beta 89.963100
_cell_angle_gamma 89.248800
loop_
  _atom_site_label
  _atom_site_type_symbol
  _atom_site_fract_x
  _atom_site_fract_y
  _atom_site_fract_z
O1 O 0.74138 0.29582 0.55867
 O2 O 0.78030 0.25127 0.43722
 O3 O 0.74126 0.29629 0.43868
 O4 O 0.78040 0.25039 0.55867
 O5 O 0.75759 0.19702 0.55820
 O6 O 0.71886 0.24246 0.43707
 O7 O 0.75806 0.19736 0.43828
 O8 O 0.71859 0.24241 0.55840
 Cu9 Cu 0.76318 0.27872 0.49840
 Cu10 Cu 0.73593 0.21452 0.49792
 C11 C 0.72298 0.27713 0.57822
 C12 C 0.77624 0.21631 0.41788
 C13 C 0.72310 0.27747 0.41817
 C14 C 0.77595 0.21557 0.57810
 O15 O 0.22995 0.77270 0.44170
 O16 O 0.27253 0.73532 0.56130
 O17 O 0.23050 0.77255 0.56295
 O18 O 0.27184 0.73547 0.44053
 O19 O 0.29078 0.79276 0.43984
 O20 O 0.24908 0.83017 0.56157
 O21 O 0.29104 0.79290 0.56186
 O22 O 0.24878 0.83011 0.44128
 Cu23 Cu 0.24935 0.74826 0.50172
 Cu24 Cu 0.27189 0.81716 0.50107
 C25 C 0.23185 0.80807 0.42175
 C26 C 0.28924 0.75749 0.58183
 C27 C 0.23240 0.80801 0.58230
 C28 C 0.28854 0.75753 0.41966
 O29 O 0.21808 0.25704 -0.43927
 O30 O 0.26044 0.29021 -0.56089
 O31 O 0.21801 0.25690 -0.56125
 O32 O 0.26051 0.29044 -0.44057
 O33 O 0.27808 0.23119 -0.43954
 O34 O 0.23534 0.19757 -0.56007
 O35 O 0.27800 0.23096 -0.56145
 O36 O 0.23544 0.19773 -0.43992
 Cu37 Cu 0.23743 0.27951 -0.50051
 Cu38 Cu 0.25856 0.20848 -0.50022
 C39 C 0.21924 0.22151 -0.41921
 C40 C 0.27666 0.26646 -0.58146
 C41 C 0.21913 0.22132 -0.58089
 C42 C 0.27676 0.26676 -0.41996
 O43 O -0.23971 0.79215 -0.55933
 O44 O -0.28221 0.75941 -0.43752
 O45 O -0.23958 0.79245 -0.43878
 O46 O -0.28233 0.75888 -0.55939
 O47 O -0.26468 0.69971 -0.55890
 O48 O -0.22235 0.73296 -0.43716
 O49 O -0.26516 0.69987 -0.43849
 O50 O -0.22209 0.73296 -0.55901
 Cu51 Cu -0.26276 0.78161 -0.49880
 Cu52 Cu -0.24175 0.71049 -0.49828
 C53 C -0.22342 0.76836 -0.57942
 C54 C -0.28128 0.72380 -0.41774
 C55 C -0.22350 0.76858 -0.41778
 C56 C -0.28095 0.72341 -0.57937
 N57 N 0.02300 0.94818 -0.10893
 N58 N 0.04231 0.94305 -0.14452
 N59 N -0.02921 0.92708 -0.06697
 N60 N -0.04870 0.90528 -0.07593
 N61 N -0.02801 0.95529 -0.10920
 N62 N -0.04668 0.95373 -0.14756
 N63 N 0.02185 0.92016 -0.06637
 N64 N 0.04031 0.89492 -0.07241
 C65 C 0.05286 0.90964 -0.12160
 C66 C -0.05943 0.92241 -0.12640
 N67 N -0.02844 0.95533 0.11015
 N68 N -0.04724 0.95375 0.14815
 N69 N 0.02159 0.92019 0.06867
 N70 N 0.04001 0.89492 0.07532
 N71 N 0.02257 0.94822 0.11112
 N72 N 0.04171 0.94308 0.14724
 N73 N -0.02947 0.92709 0.06806
 N74 N -0.04896 0.90524 0.07676
 Mn75 Mn -0.00383 0.92302 0.00085
 C76 C -0.05988 0.92238 0.12690
 C77 C 0.05235 0.90964 0.12476
 N78 N -0.02423 1.04028 -0.10922
 N79 N -0.04283 1.04714 -0.14669
 N80 N 0.02811 1.06081 -0.06656
 N81 N 0.04755 1.08272 -0.07531
 N82 N 0.02689 1.03289 -0.10909
 N83 N 0.04561 1.03464 -0.14739
 N84 N -0.02272 1.06825 -0.06683
 N85 N -0.04012 1.09512 -0.07464
 Mn86 Mn -0.00062 0.99414 -0.10982
 C87 C -0.05252 1.08151 -0.12465
 C88 C 0.05832 1.06587 -0.12583
 N89 N 0.02645 1.03294 0.11092
 N90 N 0.04507 1.03463 0.14948
 N91 N -0.02295 1.06831 0.06749
 N92 N -0.04016 1.09550 0.07529
 N93 N -0.02469 1.04029 0.10984
 N94 N -0.04332 1.04736 0.14719
 N95 N 0.02785 1.06082 0.06824
 N96 N 0.04731 1.08263 0.07712
 Mn97 Mn -0.00106 0.99417 0.11123
 Mn98 Mn 0.00263 1.06503 0.00058
 Cl99 Cl -0.00073 0.99406 0.00071
 C100 C 0.05790 1.06578 0.12790
 C101 C -0.05275 1.08195 0.12511
 N102 N 0.46956 0.42898 -0.06915
 N103 N 0.45022 0.40696 -0.07861
 N104 N 0.52208 0.45008 -0.11061
 N105 N 0.54084 0.44349 -0.14771
 N106 N 0.52044 0.42188 -0.06852
 N107 N 0.53792 0.39513 -0.07615
 N108 N 0.47098 0.45696 -0.11166
 N109 N 0.45254 0.45510 -0.15070
 C110 C 0.43975 0.42378 -0.12962
 C111 C 0.55050 0.40905 -0.12574
 N112 N 0.52637 0.56333 -0.06786
 N113 N 0.54574 0.58550 -0.07622
 N114 N 0.47448 0.54172 -0.11102
 N115 N 0.45574 0.54746 -0.14833
 N116 N 0.47536 0.56967 -0.06841
 N117 N 0.45735 0.59557 -0.07626
 N118 N 0.52558 0.53515 -0.11008
 N119 N 0.54446 0.53704 -0.14780
 Mn120 Mn 0.49832 0.49600 -0.11155
 C121 C 0.55686 0.56860 -0.12625
 C122 C 0.44528 0.58119 -0.12641
 N123 N 0.52028 0.42144 0.06572
 N124 N 0.53789 0.39486 0.07291
 N125 N 0.47070 0.45623 0.10863
 N126 N 0.45215 0.45419 0.14736
 N127 N 0.46938 0.42850 0.06581
 N128 N 0.44999 0.40646 0.07477
 N129 N 0.52179 0.44935 0.10818
 N130 N 0.54058 0.44274 0.14512
 Mn131 Mn 0.49484 0.42469 -0.00154
 C132 C 0.55040 0.40858 0.12267
 C133 C 0.43939 0.42303 0.12580
 N134 N 0.47517 0.56917 0.06694
 N135 N 0.45715 0.59505 0.07508
 N136 N 0.52526 0.53438 0.10890
 N137 N 0.54392 0.53610 0.14724
 N138 N 0.52623 0.56284 0.06704
 N139 N 0.54556 0.58496 0.07623
 N140 N 0.47424 0.54094 0.10918
 N141 N 0.45551 0.54647 0.14658
 Mn142 Mn 0.50077 0.56686 -0.00057
 Mn143 Mn 0.49803 0.49524 0.10940
 Cl144 Cl 0.49798 0.49572 -0.00107
 C145 C 0.44506 0.58034 0.12507
 C146 C 0.55644 0.56777 0.12644
 C147 C 0.32729 0.26808 0.29856
 C148 C 0.33114 0.30929 0.29051
 C149 C 0.31607 0.33593 0.32471
 C150 C 0.29778 0.32168 0.36411
 C151 C 0.29456 0.28084 0.37250
 C152 C 0.30941 0.25423 0.33925
 C153 C 0.31962 0.37673 0.32062
 C154 C 0.33861 0.39183 0.28574
 C155 C 0.35460 0.36659 0.25229
 C156 C 0.34991 0.32491 0.25161
 C157 C 0.36409 0.30040 0.21203
 C158 C 0.38302 0.31570 0.17680
 C159 C 0.38907 0.35569 0.18100
 C160 C 0.37510 0.38168 0.21929
 C161 C 0.38282 0.42144 0.22489
 C162 C 0.40347 0.43458 0.19387
 C163 C 0.41692 0.40894 0.15545
 C164 C 0.40942 0.36966 0.14831
 H165 H 0.33833 0.24574 0.27589
 H166 H 0.28660 0.34258 0.39020
 H167 H 0.30737 0.22251 0.34513
 H168 H 0.30791 0.39726 0.34588
 H169 H 0.34002 0.42369 0.28500
 H170 H 0.36072 0.26918 0.20637
 H171 H 0.39345 0.29574 0.14716
 H172 H 0.37390 0.44279 0.25480
 H173 H 0.40904 0.46502 0.20035
 H174 H 0.42000 0.34953 0.11930
 C175 C -0.17254 0.76914 0.30125
 C176 C -0.16865 0.81028 0.29242
 C177 C -0.18378 0.83721 0.32591
 C178 C -0.20216 0.82327 0.36540
 C179 C -0.20541 0.78250 0.37453
 C180 C -0.19050 0.75564 0.34195
 C181 C -0.18021 0.87797 0.32098
 C182 C -0.16117 0.89277 0.28592
 C183 C -0.14512 0.86726 0.25312
 C184 C -0.14979 0.82557 0.25343
 C185 C -0.13548 0.80067 0.21472
 C186 C -0.11645 0.81562 0.17948
 C187 C -0.11046 0.85567 0.18267
 C188 C -0.12458 0.88207 0.21990
 C189 C -0.11697 0.92196 0.22425
 C190 C -0.09622 0.93478 0.19327
 C191 C -0.08255 0.90867 0.15612
 C192 C -0.09000 0.86929 0.15003
 H193 H -0.16147 0.74660 0.27915
 H194 H -0.21340 0.84437 0.39094
 H195 H -0.19256 0.72396 0.34838
 H196 H -0.19196 0.89871 0.34571
 H197 H -0.15975 0.92462 0.28459
 H198 H -0.13880 0.76939 0.20982
 H199 H -0.10592 0.79535 0.15061
 H200 H -0.12606 0.94370 0.25311
 H201 H -0.09074 0.96535 0.19883
 H202 H -0.07927 0.84881 0.12196
 C203 C 0.66830 0.72211 0.30109
 C204 C 0.66448 0.68093 0.29268
 C205 C 0.67961 0.65416 0.32653
 C206 C 0.69792 0.66827 0.36596
 C207 C 0.70111 0.70908 0.37466
 C208 C 0.68620 0.73580 0.34173
 C209 C 0.67611 0.61337 0.32202
 C210 C 0.65715 0.59839 0.28695
 C211 C 0.64113 0.62374 0.25373
 C212 C 0.64571 0.66547 0.25370
 C213 C 0.63142 0.69020 0.21466
 C214 C 0.61250 0.67507 0.17935
 C215 C 0.60660 0.63499 0.18276
 C216 C 0.62070 0.60874 0.22039
 C217 C 0.61319 0.56880 0.22492
 C218 C 0.59257 0.55577 0.19368
 C219 C 0.57894 0.58172 0.15611
 C220 C 0.58628 0.62117 0.14991
 H221 H 0.65723 0.74455 0.27869
 H222 H 0.70915 0.64728 0.39179
 H223 H 0.68820 0.76751 0.34782
 H224 H 0.68785 0.59274 0.34705
 H225 H 0.65580 0.56653 0.28594
 H226 H 0.63467 0.72151 0.20953
 H227 H 0.60198 0.69523 0.15019
 H228 H 0.62226 0.54716 0.25407
 H229 H 0.58717 0.52516 0.19934
 H230 H 0.57558 0.64153 0.12152
 C231 C 0.16737 1.22078 0.30739
 C232 C 0.16526 1.17989 0.29362
 C233 C 0.18201 1.15321 0.32214
 C234 C 0.20053 1.16733 0.36092
 C235 C 0.20202 1.20789 0.37553
 C236 C 0.18523 1.23435 0.34807
 C237 C 0.17983 1.11240 0.31323
 C238 C 0.16056 1.09724 0.27940
 C239 C 0.14312 1.12255 0.25117
 C240 C 0.14651 1.16450 0.25472
 C241 C 0.13113 1.18956 0.21906
 C242 C 0.11220 1.17434 0.18397
 C243 C 0.10730 1.13383 0.18483
 C244 C 0.12248 1.10734 0.21912
 C245 C 0.11577 1.06695 0.22203
 C246 C 0.09490 1.05368 0.19208
 C247 C 0.08039 1.07985 0.15717
 C248 C 0.08688 1.11977 0.15281
 H249 H 0.15482 1.24287 0.28965
 H250 H 0.21311 1.14622 0.38209
 H251 H 0.18570 1.26582 0.35830
 H252 H 0.19276 1.09183 0.33421
 H253 H 0.16010 1.06539 0.27490
 H254 H 0.13366 1.22118 0.21615
 H255 H 0.10085 1.19469 0.15728
 H256 H 0.12568 1.04519 0.24920
 H257 H 0.09006 1.02274 0.19641
 H258 H 0.07542 1.14027 0.12667
 C259 C 0.68771 0.35769 -0.33756
 C260 C 0.66909 0.33622 -0.30752
 C261 C 0.67042 0.29418 -0.30999
 C262 C 0.68844 0.27493 -0.34574
 C263 C 0.70584 0.29684 -0.37822
 C264 C 0.70571 0.33823 -0.37221
 C265 C 0.65347 0.27154 -0.27787
 C266 C 0.63495 0.28962 -0.24375
 C267 C 0.63218 0.33135 -0.24198
 C268 C 0.64916 0.35499 -0.27578
 C269 C 0.64506 0.39642 -0.27909
 C270 C 0.62504 0.41420 -0.25074
 C271 C 0.60869 0.39172 -0.21639
 C272 C 0.61240 0.35018 -0.20965
 C273 C 0.59607 0.32930 -0.17084
 C274 C 0.57632 0.34864 -0.14273
 C275 C 0.57207 0.38916 -0.15276
 C276 C 0.58846 0.41063 -0.18906
 H277 H 0.68894 0.38954 -0.33514
 H278 H 0.68868 0.24280 -0.34908
 H279 H 0.71915 0.35590 -0.39610
 H280 H 0.65444 0.23938 -0.27934
 H281 H 0.62244 0.26987 -0.22129
 H282 H 0.65651 0.41594 -0.30556
 H283 H 0.62233 0.44599 -0.25584
 H284 H 0.59819 0.29813 -0.16056
 H285 H 0.56407 0.33161 -0.11393
 H286 H 0.58555 0.44227 -0.19574
 C287 C 0.19332 0.88146 -0.32841
 C288 C 0.17596 0.85681 -0.29945
 C289 C 0.17940 0.81515 -0.30448
 C290 C 0.19826 0.79928 -0.34150
 C291 C 0.21435 0.82429 -0.37298
 C292 C 0.21210 0.86538 -0.36450
 C293 C 0.16371 0.78951 -0.27369
 C294 C 0.14431 0.80420 -0.23877
 C295 C 0.13936 0.84536 -0.23475
 C296 C 0.15521 0.87206 -0.26659
 C297 C 0.14920 0.91294 -0.26698
 C298 C 0.12831 0.92728 -0.23822
 C299 C 0.11288 0.90178 -0.20646
 C300 C 0.11851 0.86067 -0.20223
 C301 C 0.10281 0.83671 -0.16604
 C302 C 0.08185 0.85273 -0.13835
 C303 C 0.07578 0.89284 -0.14634
 C304 C 0.09157 0.91726 -0.17959
 H305 H 0.19295 0.91332 -0.32419
 H306 H 0.20013 0.76737 -0.34669
 H307 H 0.22450 0.88542 -0.38742
 H308 H 0.16634 0.75763 -0.27697
 H309 H 0.13289 0.78228 -0.21745
 H310 H 0.15977 0.93468 -0.29145
 H311 H 0.12412 0.95878 -0.24121
 H312 H 0.10628 0.80559 -0.15788
 H313 H 0.07005 0.83347 -0.11190
 H314 H 0.08723 0.94859 -0.18466
 C315 C 0.34169 0.75122 -0.30842
 C316 C 0.34222 0.71042 -0.29246
 C317 C 0.32409 0.68596 -0.31851
 C318 C 0.30603 0.70208 -0.35764
 C319 C 0.30610 0.74241 -0.37451
 C320 C 0.32408 0.76674 -0.34901
 C321 C 0.32434 0.64525 -0.30668
 C322 C 0.34297 0.62776 -0.27233
 C323 C 0.36186 0.65059 -0.24693
 C324 C 0.36061 0.69281 -0.25363
 C325 C 0.37772 0.71589 -0.22122
 C326 C 0.39622 0.69826 -0.18626
 C327 C 0.39893 0.65705 -0.18392
 C328 C 0.38194 0.63259 -0.21485
 C329 C 0.38635 0.59110 -0.21467
 C330 C 0.40674 0.57484 -0.18521
 C331 C 0.42316 0.59906 -0.15386
 C332 C 0.41895 0.64012 -0.15229
 H333 H 0.35518 0.77168 -0.29228
 H334 H 0.29244 0.68257 -0.37696
 H335 H 0.32482 0.79797 -0.36090
 H336 H 0.31030 0.62647 -0.32560
 H337 H 0.34179 0.59616 -0.26537
 H338 H 0.37701 0.74787 -0.22100
 H339 H 0.40896 0.71716 -0.16224
 H340 H 0.37498 0.57049 -0.23913
 H341 H 0.40975 0.54302 -0.18730
 H342 H 0.43188 0.65904 -0.12893
 C343 C -0.18905 1.13447 -0.33803
 C344 C -0.17047 1.15572 -0.30763
 C345 C -0.17173 1.19778 -0.30976
 C346 C -0.18966 1.21727 -0.34554
 C347 C -0.20701 1.19558 -0.37837
 C348 C -0.20696 1.15416 -0.37270
 C349 C -0.15482 1.22019 -0.27727
 C350 C -0.13642 1.20186 -0.24307
 C351 C -0.13371 1.16012 -0.24162
 C352 C -0.15064 1.13671 -0.27584
 C353 C -0.14658 1.09529 -0.27951
 C354 C -0.12665 1.07730 -0.25105
 C355 C -0.11037 1.09953 -0.21623
 C356 C -0.11405 1.14105 -0.20916
 C357 C -0.09780 1.16167 -0.16991
 C358 C -0.07817 1.14211 -0.14164
 C359 C -0.07395 1.10163 -0.15195
 C360 C -0.09025 1.08040 -0.18873
 H361 H -0.19034 1.10261 -0.33587
 H362 H -0.18985 1.24942 -0.34861
 H363 H -0.22038 1.13667 -0.39686
 H364 H -0.15575 1.25236 -0.27848
 H365 H -0.12392 1.22146 -0.22030
 H366 H -0.15797 1.07596 -0.30634
 H367 H -0.12397 1.04553 -0.25641
 H368 H -0.09992 1.19278 -0.15936
 H369 H -0.06599 1.15894 -0.11245
 H370 H -0.08737 1.04879 -0.19564
 C371 C 0.66659 0.72368 -0.30677
 C372 C 0.66445 0.68286 -0.29234
 C373 C 0.68136 0.65610 -0.32002
 C374 C 0.69998 0.67007 -0.35883
 C375 C 0.70149 0.71055 -0.37413
 C376 C 0.68460 0.73710 -0.34732
 C377 C 0.67928 0.61535 -0.31021
 C378 C 0.65999 0.60027 -0.27622
 C379 C 0.64237 0.62561 -0.24888
 C380 C 0.64557 0.66757 -0.25353
 C381 C 0.62987 0.69275 -0.21903
 C382 C 0.61085 0.67760 -0.18399
 C383 C 0.60619 0.63700 -0.18364
 C384 C 0.62170 0.61040 -0.21671
 C385 C 0.61528 0.56984 -0.21833
 C386 C 0.59439 0.55653 -0.18843
 C387 C 0.57950 0.58285 -0.15487
 C388 C 0.58570 0.62294 -0.15168
 H389 H 0.65399 0.74585 -0.28957
 H390 H 0.71264 0.64888 -0.37940
 H391 H 0.68508 0.76853 -0.35804
 H392 H 0.69234 0.59473 -0.33051
 H393 H 0.65967 0.56846 -0.27097
 H394 H 0.63216 0.72445 -0.21708
 H395 H 0.59926 0.69806 -0.15827
 H396 H 0.62545 0.54792 -0.24444
 H397 H 0.58980 0.52542 -0.19180
 H398 H 0.57397 0.64354 -0.12659
 C399 C 0.16749 1.22109 -0.30723
 C400 C 0.16548 1.18025 -0.29285
 C401 C 0.18232 1.15357 -0.32098
 C402 C 0.20080 1.16766 -0.36006
 C403 C 0.20217 1.20817 -0.37531
 C404 C 0.18532 1.23462 -0.34817
 C405 C 0.18028 1.11279 -0.31140
 C406 C 0.16106 1.09762 -0.27727
 C407 C 0.14352 1.12290 -0.24945
 C408 C 0.14676 1.16487 -0.25371
 C409 C 0.13125 1.18995 -0.21849
 C410 C 0.11235 1.17471 -0.18320
 C411 C 0.10759 1.13415 -0.18338
 C412 C 0.12292 1.10765 -0.21717
 C413 C 0.11637 1.06716 -0.21939
 C414 C 0.09551 1.05384 -0.18934
 C415 C 0.08085 1.08004 -0.15497
 C416 C 0.08719 1.12005 -0.15122
 H417 H 0.15488 1.24317 -0.28976
 H418 H 0.21343 1.14656 -0.38095
 H419 H 0.18571 1.26606 -0.35887
 H420 H 0.19329 1.09224 -0.33206
 H421 H 0.16073 1.06579 -0.27224
 H422 H 0.13365 1.22162 -0.21615
 H423 H 0.10089 1.19509 -0.15689
 H424 H 0.12638 1.04536 -0.24615
 H425 H 0.09078 1.02283 -0.19320
 H426 H 0.07561 1.14057 -0.12550
 C427 C 0.32740 0.26875 -0.30027
 C428 C 0.33144 0.30997 -0.29322
 C429 C 0.31651 0.33651 -0.32808
 C430 C 0.29816 0.32216 -0.36706
 C431 C 0.29474 0.28130 -0.37439
 C432 C 0.30947 0.25479 -0.34056
 C433 C 0.32027 0.37729 -0.32505
 C434 C 0.33931 0.39244 -0.29053
 C435 C 0.35513 0.36729 -0.25635
 C436 C 0.35024 0.32568 -0.25467
 C437 C 0.36426 0.30132 -0.21442
 C438 C 0.38319 0.31667 -0.17944
 C439 C 0.38941 0.35655 -0.18452
 C440 C 0.37563 0.38240 -0.22354
 C441 C 0.38353 0.42203 -0.22994
 C442 C 0.40414 0.43520 -0.19888
 C443 C 0.41738 0.40971 -0.15969
 C444 C 0.40972 0.37055 -0.15187
 H445 H 0.33835 0.24646 -0.27708
 H446 H 0.28708 0.34297 -0.39366
 H447 H 0.30729 0.22304 -0.34565
 H448 H 0.30867 0.39775 -0.35086
 H449 H 0.34087 0.42428 -0.29062
 H450 H 0.36073 0.27019 -0.20802
 H451 H 0.39348 0.29683 -0.14922
 H452 H 0.37476 0.44325 -0.26043
 H453 H 0.40984 0.46555 -0.20590
 H454 H 0.42014 0.35052 -0.12225
 C455 C -0.17285 0.76960 -0.29796
 C456 C -0.16860 0.81073 -0.29048
 C457 C -0.18344 0.83760 -0.32498
 C458 C -0.20188 0.82364 -0.36416
 C459 C -0.20548 0.78285 -0.37195
 C460 C -0.19087 0.75604 -0.33835
 C461 C -0.17950 0.87831 -0.32139
 C462 C -0.16040 0.89308 -0.28662
 C463 C -0.14465 0.86760 -0.25279
 C464 C -0.14967 0.82602 -0.25183
 C465 C -0.13563 0.80125 -0.21224
 C466 C -0.11656 0.81616 -0.17725
 C467 C -0.11025 0.85604 -0.18152
 C468 C -0.12407 0.88233 -0.21973
 C469 C -0.11615 0.92201 -0.22508
 C470 C -0.09542 0.93475 -0.19405
 C471 C -0.08205 0.90877 -0.15591
 C472 C -0.08978 0.86959 -0.14892
 H473 H -0.16203 0.74707 -0.27501
 H474 H -0.21288 0.84469 -0.39052
 H475 H -0.19319 0.72435 -0.34373
 H476 H -0.19102 0.89904 -0.34692
 H477 H -0.15870 0.92490 -0.28635
 H478 H -0.13920 0.77009 -0.20643
 H479 H -0.10625 0.79598 -0.14765
 H480 H -0.12500 0.94365 -0.25468
 H481 H -0.08972 0.96517 -0.20033
 H482 H -0.07930 0.84919 -0.12007
 C483 C 0.33991 0.75050 0.30188
 C484 C 0.34153 0.70913 0.29029
 C485 C 0.32463 0.68439 0.32104
 C486 C 0.30689 0.70062 0.36090
 C487 C 0.30593 0.74147 0.37301
 C488 C 0.32249 0.76622 0.34283
 C489 C 0.32577 0.64337 0.31305
 C490 C 0.34413 0.62593 0.27780
 C491 C 0.36197 0.64903 0.24808
 C492 C 0.35980 0.69135 0.25125
 C493 C 0.37596 0.71431 0.21540
 C494 C 0.39441 0.69665 0.18031
 C495 C 0.39798 0.65557 0.18095
 C496 C 0.38191 0.63116 0.21527
 C497 C 0.38708 0.58992 0.21749
 C498 C 0.40734 0.57387 0.18729
 C499 C 0.42294 0.59801 0.15298
 C500 C 0.41795 0.63879 0.14889
 H501 H 0.35235 0.77138 0.28178
 H502 H 0.29432 0.68106 0.38434
 H503 H 0.32221 0.79790 0.35149
 H504 H 0.31262 0.62437 0.33551
 H505 H 0.34360 0.59408 0.27392
 H506 H 0.37460 0.74621 0.21274
 H507 H 0.40644 0.71549 0.15371
 H508 H 0.37644 0.56937 0.24426
 H509 H 0.41092 0.54227 0.19129
 H510 H 0.43021 0.65769 0.12308
 C511 C -0.19161 1.13783 0.32671
 C512 C -0.17120 1.15830 0.30362
 C513 C -0.17046 1.19989 0.31308
 C514 C -0.18819 1.21915 0.34971
 C515 C -0.20751 1.19795 0.37590
 C516 C -0.20946 1.15740 0.36182
 C517 C -0.15178 1.22200 0.28700
 C518 C -0.13359 1.20372 0.25201
 C519 C -0.13285 1.16214 0.24375
 C520 C -0.15150 1.13893 0.27187
 C521 C -0.14923 1.09714 0.27002
 C522 C -0.12939 1.07860 0.24188
 C523 C -0.11153 1.10081 0.21237
 C524 C -0.11346 1.14283 0.21070
 C525 C -0.09584 1.16374 0.17593
 C526 C -0.07652 1.14376 0.14705
 C527 C -0.07393 1.10257 0.15259
 C528 C -0.09161 1.08118 0.18474
 H529 H -0.19442 1.10672 0.31803
 H530 H -0.18668 1.25075 0.35834
 H531 H -0.22441 1.14015 0.37980
 H532 H -0.15116 1.25386 0.29381
 H533 H -0.11964 1.22291 0.23449
 H534 H -0.16198 1.07782 0.29263
 H535 H -0.12806 1.04646 0.24312
 H536 H -0.09671 1.19543 0.16923
 H537 H -0.06324 1.16074 0.12137
 H538 H -0.08998 1.04910 0.18770
 C539 C 0.68759 0.35815 0.33470
 C540 C 0.66927 0.33659 0.30379
 C541 C 0.67093 0.29455 0.30540
 C542 C 0.68896 0.27533 0.34115
 C543 C 0.70603 0.29729 0.37454
 C544 C 0.70561 0.33873 0.36939
 C545 C 0.65428 0.27186 0.27247
 C546 C 0.63572 0.28988 0.23844
 C547 C 0.63259 0.33156 0.23757
 C548 C 0.64929 0.35524 0.27208
 C549 C 0.64486 0.39656 0.27613
 C550 C 0.62476 0.41417 0.24792
 C551 C 0.60865 0.39166 0.21301
 C552 C 0.61272 0.35027 0.20546
 C553 C 0.59660 0.32940 0.16617
 C554 C 0.57671 0.34857 0.13840
 C555 C 0.57211 0.38889 0.14924
 C556 C 0.58830 0.41039 0.18597
 H557 H 0.68857 0.39005 0.33299
 H558 H 0.68945 0.24317 0.34381
 H559 H 0.71880 0.35643 0.39399
 H560 H 0.65552 0.23972 0.27326
 H561 H 0.62345 0.27007 0.21535
 H562 H 0.65609 0.41607 0.30307
 H563 H 0.62178 0.44585 0.25361
 H564 H 0.59898 0.29839 0.15527
 H565 H 0.56462 0.33155 0.10923
 H566 H 0.58513 0.44189 0.19329
 C567 C 0.19237 0.88151 0.33337
 C568 C 0.17503 0.85684 0.30456
 C569 C 0.17853 0.81518 0.30964
 C570 C 0.19745 0.79933 0.34648
 C571 C 0.21358 0.82436 0.37764
 C572 C 0.21124 0.86545 0.36920
 C573 C 0.16286 0.78953 0.27897
 C574 C 0.14347 0.80419 0.24397
 C575 C 0.13850 0.84535 0.23979
 C576 C 0.15428 0.87205 0.27168
 C577 C 0.14820 0.91291 0.27204
 C578 C 0.12736 0.92724 0.24303
 C579 C 0.11204 0.90174 0.21105
 C580 C 0.11771 0.86064 0.20697
 C581 C 0.10215 0.83670 0.17055
 C582 C 0.08127 0.85272 0.14239
 C583 C 0.07516 0.89282 0.15016
 C584 C 0.09081 0.91722 0.18374
 H585 H 0.19195 0.91338 0.32912
 H586 H 0.19939 0.76742 0.35165
 H587 H 0.22366 0.88550 0.39192
 H588 H 0.16552 0.75765 0.28232
 H589 H 0.13207 0.78227 0.22271
 H590 H 0.15870 0.93464 0.29663
 H591 H 0.12313 0.95872 0.24595
 H592 H 0.10566 0.80559 0.16249
 H593 H 0.06958 0.83348 0.11571
 H594 H 0.08644 0.94854 0.18867
   
