data_POSCAR
  _audit_creation_date              2014-09-24
  _audit_creation_method            'ToBaCCo'
  _symmetry_space_group_name_H-M    'P1'
  _symmetry_Int_Tables_number       1
  _symmetry_cell_setting            triclinic
  loop_
  _symmetry_equiv_pos_as_xyz
 x,y,z
_cell_length_a 34.5667
_cell_length_b 34.5667
_cell_length_c 34.7144
_cell_angle_alpha 89.961900
_cell_angle_beta 89.962100
_cell_angle_gamma 89.971500
loop_
  _atom_site_label
  _atom_site_type_symbol
  _atom_site_fract_x
  _atom_site_fract_y
  _atom_site_fract_z
O1 O 0.03696 0.28247 -0.03691
 O2 O -0.03835 0.28256 0.03811
 O3 O 0.03690 0.28254 0.03807
 O4 O -0.03829 0.28253 -0.03688
 O5 O -0.03832 0.21873 -0.03680
 O6 O 0.03690 0.21873 0.03818
 O7 O -0.03841 0.21882 0.03820
 O8 O 0.03699 0.21866 -0.03680
 Cu9 Cu -0.00070 0.28891 0.00059
 Cu10 Cu -0.00072 0.21234 0.00071
 C11 C 0.04988 0.25055 -0.04973
 C12 C -0.05135 0.25072 0.05112
 C13 C 0.04979 0.25065 0.05098
 C14 C -0.05116 0.25064 -0.04972
 O15 O 0.53745 0.78309 0.46233
 O16 O 0.46221 0.78312 0.53741
 O17 O 0.53751 0.78301 0.53736
 O18 O 0.46215 0.78305 0.46237
 O19 O 0.46214 0.71925 0.46242
 O20 O 0.53754 0.71921 0.53739
 O21 O 0.46218 0.71932 0.53746
 O22 O 0.53750 0.71929 0.46236
 Cu23 Cu 0.49983 0.78945 0.49986
 Cu24 Cu 0.49984 0.71288 0.49991
 C25 C 0.55036 0.75120 0.44945
 C26 C 0.44931 0.75124 0.55032
 C27 C 0.55043 0.75111 0.55025
 C28 C 0.44924 0.75115 0.44953
 O29 O 1.03877 0.71749 0.03748
 O30 O 0.96360 0.71749 -0.03765
 O31 O 1.03889 0.71760 -0.03757
 O32 O 0.96348 0.71758 0.03737
 O33 O 0.96342 0.78138 0.03731
 O34 O 1.03891 0.78134 -0.03757
 O35 O 0.96355 0.78128 -0.03772
 O36 O 1.03878 0.78123 0.03748
 Cu37 Cu 1.00119 0.71117 -0.00009
 Cu38 Cu 1.00117 0.78769 -0.00013
 C39 C 1.05171 0.74934 0.05047
 C40 C 0.95069 0.74937 -0.05057
 C41 C 1.05188 0.74947 -0.05052
 C42 C 0.95053 0.74948 0.05019
 O43 O 0.46243 0.21695 0.46247
 O44 O 0.53757 0.21694 0.53747
 O45 O 0.46232 0.21691 0.53747
 O46 O 0.53768 0.21704 0.46249
 O47 O 0.53763 0.28085 0.46251
 O48 O 0.46222 0.28072 0.53748
 O49 O 0.53753 0.28074 0.53749
 O50 O 0.46232 0.28076 0.46248
 Cu51 Cu 0.50001 0.21056 0.49997
 Cu52 Cu 0.49991 0.28717 0.49999
 C53 C 0.44951 0.24885 0.44960
 C54 C 0.55043 0.24883 0.55034
 C55 C 0.44937 0.24879 0.55035
 C56 C 0.55056 0.24896 0.44963
 O57 O 0.71738 0.03700 -0.03698
 O58 O 0.71752 -0.03823 0.03811
 O59 O 0.71752 0.03702 0.03800
 O60 O 0.71747 -0.03824 -0.03689
 O61 O 0.78127 -0.03828 -0.03698
 O62 O 0.78133 0.03705 0.03788
 O63 O 0.78126 -0.03828 0.03802
 O64 O 0.78119 0.03702 -0.03710
 Cu65 Cu 0.71108 -0.00062 0.00058
 Cu66 Cu 0.78766 -0.00063 0.00045
 C67 C 0.74925 0.04989 -0.04993
 C68 C 0.74940 -0.05122 0.05103
 C69 C 0.74943 0.04994 0.05077
 C70 C 0.74936 -0.05113 -0.04980
 O71 O 0.21687 0.53776 0.46279
 O72 O 0.21695 0.46252 0.53788
 O73 O 0.21695 0.53782 0.53784
 O74 O 0.21697 0.46246 0.46285
 O75 O 0.28077 0.46245 0.46279
 O76 O 0.28075 0.53785 0.53777
 O77 O 0.28075 0.46249 0.53782
 O78 O 0.28067 0.53781 0.46272
 Cu79 Cu 0.21055 0.50014 0.50035
 Cu80 Cu 0.28713 0.50016 0.50027
 C81 C 0.24875 0.55066 0.44986
 C82 C 0.24885 0.44961 0.55073
 C83 C 0.24884 0.55073 0.55068
 C84 C 0.24887 0.44955 0.44996
 O85 O 0.28245 0.96249 -0.03857
 O86 O 0.28252 1.03774 0.03649
 O87 O 0.28247 0.96246 0.03645
 O88 O 0.28243 1.03779 -0.03855
 O89 O 0.21869 1.03786 -0.03849
 O90 O 0.21867 0.96247 0.03651
 O91 O 0.21872 1.03782 0.03656
 O92 O 0.21871 0.96248 -0.03851
 Cu93 Cu 0.28884 1.00012 -0.00106
 Cu94 Cu 0.21232 1.00017 -0.00098
 C95 C 0.25059 0.94950 -0.05149
 C96 C 0.25064 1.05065 0.04943
 C97 C 0.25058 0.94957 0.04936
 C98 C 0.25056 1.05080 -0.05147
 O99 O 0.78307 0.46245 0.46234
 O100 O 0.78309 0.53759 0.53733
 O101 O 0.78298 0.46234 0.53734
 O102 O 0.78305 0.53769 0.46235
 O103 O 0.71924 0.53779 0.46237
 O104 O 0.71917 0.46238 0.53735
 O105 O 0.71928 0.53770 0.53736
 O106 O 0.71926 0.46248 0.46235
 Cu107 Cu 0.78944 0.50001 0.49984
 Cu108 Cu 0.71283 0.50009 0.49986
 C109 C 0.75117 0.44960 0.44947
 C110 C 0.75120 0.55052 0.55021
 C111 C 0.75106 0.44946 0.55021
 C112 C 0.75116 0.55065 0.44949
 C113 C 0.25004 0.22114 0.22128
 C114 C 0.22115 0.24990 0.22147
 C115 C 0.22116 0.27834 0.25021
 C116 C 0.24972 0.27837 0.27881
 C117 C 0.27860 0.24960 0.27864
 C118 C 0.27859 0.22117 0.24989
 H119 H 0.30085 0.19903 0.24978
 H120 H 0.19890 0.30047 0.25031
 C121 C 0.75016 0.77917 0.22093
 C122 C 0.77901 0.75037 0.22099
 C123 C 0.77896 0.72188 0.24970
 C124 C 0.75041 0.72183 0.27836
 C125 C 0.72155 0.75062 0.27830
 C126 C 0.72160 0.77912 0.24959
 H127 H 0.69938 0.80129 0.24955
 H128 H 0.80118 0.69970 0.24974
 C129 C 0.77908 0.25023 0.22106
 C130 C 0.75030 0.22139 0.22118
 C131 C 0.72182 0.22143 0.24989
 C132 C 0.72176 0.24996 0.27851
 C133 C 0.75054 0.27879 0.27840
 C134 C 0.77903 0.27876 0.24969
 H135 H 0.80119 0.30097 0.24962
 H136 H 0.69966 0.19921 0.24997
 C137 C 0.22088 0.74990 0.22081
 C138 C 0.24971 0.77870 0.22080
 C139 C 0.27815 0.77871 0.24954
 C140 C 0.27815 0.75026 0.27830
 C141 C 0.24933 0.72145 0.27830
 C142 C 0.22088 0.72145 0.24957
 H143 H 0.19870 0.69926 0.24959
 H144 H 0.30034 0.80090 0.24951
 C145 C 0.72126 0.24948 0.72139
 C146 C 0.75003 0.27832 0.72140
 C147 C 0.77846 0.27831 0.75013
 C148 C 0.77845 0.24980 0.77881
 C149 C 0.74970 0.22094 0.77879
 C150 C 0.72127 0.22096 0.75007
 H151 H 0.69910 0.19874 0.75004
 H152 H 0.80061 0.30052 0.75016
 C153 C 0.27843 0.75071 0.72177
 C154 C 0.24968 0.72184 0.72190
 C155 C 0.22126 0.72186 0.75070
 C156 C 0.22123 0.75041 0.77934
 C157 C 0.24996 0.77931 0.77919
 C158 C 0.27839 0.77927 0.75040
 H159 H 0.30052 0.80151 0.75028
 H160 H 0.19912 0.69962 0.75082
 C161 C 0.24957 0.27826 0.72172
 C162 C 0.27834 0.24939 0.72164
 C163 C 0.27828 0.22082 0.75028
 C164 C 0.24980 0.22079 0.77901
 C165 C 0.22102 0.24966 0.77908
 C166 C 0.22108 0.27822 0.75044
 H167 H 0.19893 0.30046 0.75050
 H168 H 0.30044 0.19859 0.75022
 C169 C 0.75062 0.72140 0.72121
 C170 C 0.72171 0.75013 0.72130
 C171 C 0.72171 0.77854 0.75005
 C172 C 0.75028 0.77855 0.77866
 C173 C 0.77923 0.74985 0.77854
 C174 C 0.77920 0.72143 0.74980
 H175 H 0.80146 0.69930 0.74969
 H176 H 0.69945 0.80067 0.75017
 C177 C 0.25089 0.13778 0.13772
 C178 C 0.21583 0.12416 0.12284
 C179 C 0.21569 0.09586 0.09407
 C180 C 0.25071 0.08079 0.07977
 C181 C 0.28581 0.09474 0.09489
 C182 C 0.28586 0.12303 0.12367
 C183 C 0.25096 0.16694 0.16731
 C184 C 0.25076 0.19148 0.19198
 H185 H 0.18859 0.13540 0.13350
 H186 H 0.18818 0.08578 0.08307
 H187 H 0.31326 0.08376 0.08453
 H188 H 0.31317 0.13339 0.13495
 C189 C 0.75146 0.63785 0.63807
 C190 C 0.71639 0.62425 0.62325
 C191 C 0.71625 0.59583 0.59461
 C192 C 0.75127 0.58069 0.58044
 C193 C 0.78638 0.59463 0.59551
 C194 C 0.78643 0.62303 0.62415
 C195 C 0.75152 0.66710 0.66749
 C196 C 0.75133 0.69171 0.69204
 H197 H 0.68915 0.63557 0.63383
 H198 H 0.68874 0.58575 0.58361
 H199 H 0.81382 0.58358 0.58523
 H200 H 0.81373 0.63341 0.63543
 C201 C 0.74929 0.86281 0.13766
 C202 C 0.71431 0.87723 0.12341
 C203 C 0.71428 0.90562 0.09472
 C204 C 0.74938 0.92011 0.07979
 C205 C 0.78445 0.90524 0.09442
 C206 C 0.78432 0.87683 0.12310
 C207 C 0.74926 0.83354 0.16714
 C208 C 0.74946 0.80890 0.19173
 H209 H 0.68702 0.86652 0.13448
 H210 H 0.68668 0.91619 0.08434
 H211 H 0.81207 0.91549 0.08379
 H212 H 0.81157 0.86581 0.13394
 C213 C 0.24872 0.36211 0.63865
 C214 C 0.21373 0.37691 0.62475
 C215 C 0.21374 0.40536 0.59611
 C216 C 0.24883 0.41939 0.58099
 C217 C 0.28386 0.40428 0.59515
 C218 C 0.28377 0.37582 0.62379
 C219 C 0.24869 0.33277 0.66806
 C220 C 0.24888 0.30807 0.69259
 H221 H 0.18643 0.36646 0.63605
 H222 H 0.18628 0.41637 0.58585
 H223 H 0.31136 0.41443 0.58412
 H224 H 0.31101 0.36453 0.63434
 C225 C 0.86267 0.25101 0.13774
 C226 C 0.87708 0.28596 0.12339
 C227 C 0.90547 0.28594 0.09470
 C228 C 0.91997 0.25080 0.07986
 C229 C 0.90510 0.21577 0.09459
 C230 C 0.87669 0.21596 0.12327
 C231 C 0.83342 0.25109 0.16724
 C232 C 0.80880 0.25092 0.19184
 H233 H 0.86637 0.31327 0.13439
 H234 H 0.91603 0.31351 0.08424
 H235 H 0.91536 0.18812 0.08403
 H236 H 0.86569 0.18873 0.13418
 C237 C 0.36197 0.75152 0.63841
 C238 C 0.37674 0.78649 0.62441
 C239 C 0.40513 0.78643 0.59570
 C240 C 0.41913 0.75131 0.58062
 C241 C 0.40403 0.71630 0.59487
 C242 C 0.37564 0.71645 0.62357
 C243 C 0.33273 0.75160 0.66791
 C244 C 0.30812 0.75142 0.69253
 H245 H 0.36633 0.81380 0.63569
 H246 H 0.41613 0.81387 0.58538
 H247 H 0.41415 0.68879 0.58387
 H248 H 0.36437 0.68922 0.63420
 C249 C 0.13743 0.74906 0.13734
 C250 C 0.12343 0.78412 0.12279
 C251 C 0.09512 0.78430 0.09403
 C252 C 0.08031 0.74927 0.07929
 C253 C 0.09479 0.71414 0.09420
 C254 C 0.12308 0.71412 0.12297
 C255 C 0.16662 0.74898 0.16691
 C256 C 0.19119 0.74917 0.19155
 H257 H 0.13438 0.81135 0.13369
 H258 H 0.08488 0.81195 0.08342
 H259 H 0.08428 0.68656 0.08375
 H260 H 0.13377 0.68680 0.13402
 C261 C 0.63774 0.24862 0.63824
 C262 C 0.62405 0.28368 0.62338
 C263 C 0.59565 0.28380 0.59474
 C264 C 0.58059 0.24877 0.58058
 C265 C 0.59461 0.21367 0.59568
 C266 C 0.62300 0.21363 0.62433
 C267 C 0.66697 0.24857 0.66766
 C268 C 0.69158 0.24877 0.69221
 H269 H 0.63531 0.31092 0.63396
 H270 H 0.58551 0.31131 0.58372
 H271 H 0.58363 0.18622 0.58541
 H272 H 0.63344 0.18633 0.63563
 C273 C 0.74891 0.13725 0.86200
 C274 C 0.78399 0.12352 0.87676
 C275 C 0.78416 0.09512 0.90545
 C276 C 0.74916 0.08007 0.91977
 C277 C 0.71403 0.09412 0.90476
 C278 C 0.71395 0.12252 0.87606
 C279 C 0.74882 0.16652 0.83253
 C280 C 0.74899 0.19118 0.80796
 H281 H 0.81122 0.13476 0.86608
 H282 H 0.81168 0.08496 0.91639
 H283 H 0.68660 0.08316 0.91514
 H284 H 0.68663 0.13297 0.86485
 C285 C 0.24846 0.63792 0.36168
 C286 C 0.28353 0.62427 0.37655
 C287 C 0.28368 0.59591 0.40528
 C288 C 0.24867 0.58083 0.41954
 C289 C 0.21355 0.59480 0.40444
 C290 C 0.21349 0.62316 0.37570
 C291 C 0.24839 0.66714 0.33216
 C292 C 0.24859 0.69174 0.30754
 H293 H 0.31076 0.63553 0.36591
 H294 H 0.31119 0.58580 0.41629
 H295 H 0.18611 0.58381 0.41478
 H296 H 0.18618 0.63355 0.36441
 C297 C 0.25076 0.86326 0.86216
 C298 C 0.21572 0.87734 0.87668
 C299 C 0.21558 0.90585 0.90524
 C300 C 0.25062 0.92077 0.91982
 C301 C 0.28573 0.90623 0.90493
 C302 C 0.28572 0.87774 0.87635
 C303 C 0.25081 0.83387 0.83279
 C304 C 0.25063 0.80915 0.80830
 H305 H 0.18848 0.86628 0.86591
 H306 H 0.18794 0.91613 0.91584
 H307 H 0.31332 0.91682 0.91527
 H308 H 0.31302 0.86700 0.86533
 C309 C 0.75138 0.36238 0.36149
 C310 C 0.71632 0.37604 0.37636
 C311 C 0.71619 0.40441 0.40503
 C312 C 0.75122 0.41946 0.41921
 C313 C 0.78633 0.40547 0.40409
 C314 C 0.78636 0.37712 0.37540
 C315 C 0.75144 0.33315 0.33206
 C316 C 0.75125 0.30852 0.30752
 H317 H 0.68908 0.36478 0.36578
 H318 H 0.68869 0.41454 0.41607
 H319 H 0.81378 0.41645 0.41436
 H320 H 0.81367 0.36669 0.36409
 C321 C 0.13737 0.25059 0.86234
 C322 C 0.12246 0.28560 0.87610
 C323 C 0.09403 0.28562 0.90476
 C324 C 0.08011 0.25055 0.92002
 C325 C 0.09533 0.21550 0.90601
 C326 C 0.12379 0.21557 0.87737
 C327 C 0.16665 0.25059 0.83288
 C328 C 0.19129 0.25037 0.80830
 H329 H 0.13281 0.31287 0.86467
 H330 H 0.08293 0.31308 0.91490
 H331 H 0.08528 0.18802 0.91716
 H332 H 0.13517 0.18831 0.86693
 C333 C 0.63778 0.75142 0.36144
 C334 C 0.62298 0.78640 0.37538
 C335 C 0.59456 0.78636 0.40405
 C336 C 0.58056 0.75125 0.41917
 C337 C 0.59567 0.71623 0.40498
 C338 C 0.62410 0.71636 0.37631
 C339 C 0.66708 0.75149 0.33200
 C340 C 0.69176 0.75131 0.30745
 H341 H 0.63340 0.81370 0.36408
 H342 H 0.58355 0.81381 0.41434
 H343 H 0.58555 0.68873 0.41600
 H344 H 0.63540 0.68912 0.36573
 C345 C 0.86317 0.74911 0.86152
 C346 C 0.87798 0.71414 0.87552
 C347 C 0.90643 0.71420 0.90414
 C348 C 0.92048 0.74931 0.91916
 C349 C 0.90537 0.78432 0.90489
 C350 C 0.87690 0.78417 0.87628
 C351 C 0.83380 0.74903 0.83214
 C352 C 0.80908 0.74919 0.80764
 H353 H 0.86753 0.68683 0.86433
 H354 H 0.91743 0.68675 0.91448
 H355 H 0.91552 0.81183 0.91583
 H356 H 0.86562 0.81141 0.86566
 C357 C 0.36227 0.24867 0.36164
 C358 C 0.37587 0.28373 0.37651
 C359 C 0.40425 0.28384 0.40517
 C360 C 0.41937 0.24880 0.41935
 C361 C 0.40544 0.21371 0.40422
 C362 C 0.37707 0.21369 0.37555
 C363 C 0.33302 0.24864 0.33224
 C364 C 0.30837 0.24886 0.30772
 H365 H 0.36455 0.31097 0.36594
 H366 H 0.41432 0.31134 0.41621
 H367 H 0.41647 0.18625 0.41450
 H368 H 0.36670 0.18639 0.36424
 C369 C 0.74923 0.86180 0.86208
 C370 C 0.71423 0.87649 0.87608
 C371 C 0.71423 0.90478 0.90482
 C372 C 0.74932 0.91874 0.91993
 C373 C 0.78437 0.90371 0.90569
 C374 C 0.78427 0.87541 0.87696
 C375 C 0.74922 0.83268 0.83255
 C376 C 0.74948 0.80816 0.80791
 H377 H 0.68694 0.86610 0.86476
 H378 H 0.68677 0.91575 0.91515
 H379 H 0.81186 0.91381 0.91672
 H380 H 0.81152 0.86418 0.86632
 C381 C 0.24879 0.36201 0.36208
 C382 C 0.21379 0.37679 0.37603
 C383 C 0.21378 0.40523 0.40466
 C384 C 0.24885 0.41930 0.41973
 C385 C 0.28390 0.40420 0.40553
 C386 C 0.28382 0.37574 0.37691
 C387 C 0.24878 0.33272 0.33263
 C388 C 0.24901 0.30808 0.30805
 H389 H 0.18650 0.36634 0.36477
 H390 H 0.18631 0.41622 0.41495
 H391 H 0.31139 0.41436 0.41651
 H392 H 0.31108 0.36449 0.36633
 C393 C 0.25068 0.13695 0.86208
 C394 C 0.28566 0.12250 0.87630
 C395 C 0.28569 0.09404 0.90493
 C396 C 0.25059 0.07952 0.91982
 C397 C 0.21553 0.09442 0.90522
 C398 C 0.21565 0.12290 0.87660
 C399 C 0.25070 0.16629 0.83267
 C400 C 0.25049 0.19099 0.80815
 H401 H 0.31295 0.13324 0.86526
 H402 H 0.31329 0.08346 0.91530
 H403 H 0.18790 0.08415 0.91582
 H404 H 0.18840 0.13394 0.86579
 C405 C 0.75132 0.63815 0.36157
 C406 C 0.78631 0.62333 0.37547
 C407 C 0.78630 0.59489 0.40412
 C408 C 0.75120 0.58088 0.41925
 C409 C 0.71617 0.59602 0.40511
 C410 C 0.71627 0.62447 0.37647
 C411 C 0.75135 0.66744 0.33213
 C412 C 0.75113 0.69209 0.30756
 H413 H 0.81361 0.63376 0.36415
 H414 H 0.81375 0.58386 0.41437
 H415 H 0.68867 0.58589 0.41615
 H416 H 0.68903 0.63577 0.36592
 C417 C 0.13783 0.74939 0.86284
 C418 C 0.12384 0.78441 0.87742
 C419 C 0.09544 0.78452 0.90612
 C420 C 0.08058 0.74945 0.92075
 C421 C 0.09507 0.71436 0.90583
 C422 C 0.12344 0.71440 0.87711
 C423 C 0.16703 0.74940 0.83329
 C424 C 0.19159 0.74964 0.80863
 H425 H 0.13484 0.81167 0.86658
 H426 H 0.08520 0.81215 0.91675
 H427 H 0.08452 0.68675 0.91622
 H428 H 0.13414 0.68712 0.86603
 C429 C 0.63809 0.24898 0.36174
 C430 C 0.62435 0.28400 0.37662
 C431 C 0.59588 0.28405 0.40526
 C432 C 0.58081 0.24898 0.41940
 C433 C 0.59489 0.21392 0.40428
 C434 C 0.62334 0.21396 0.37564
 C435 C 0.66739 0.24900 0.33230
 C436 C 0.69204 0.24924 0.30773
 H437 H 0.63560 0.31127 0.36607
 H438 H 0.58570 0.31152 0.41629
 H439 H 0.58391 0.18644 0.41453
 H440 H 0.63381 0.18669 0.36432
 C441 C 0.86176 0.25078 0.86217
 C442 C 0.87540 0.21573 0.87709
 C443 C 0.90371 0.21563 0.90582
 C444 C 0.91872 0.25067 0.92000
 C445 C 0.90475 0.28577 0.90483
 C446 C 0.87645 0.28577 0.87610
 C447 C 0.83262 0.25080 0.83265
 C448 C 0.80808 0.25056 0.80804
 H449 H 0.86418 0.18848 0.86650
 H450 H 0.91382 0.18813 0.91689
 H451 H 0.91570 0.31322 0.91511
 H452 H 0.86604 0.31306 0.86474
 C453 C 0.36177 0.75125 0.36158
 C454 C 0.37653 0.78625 0.37548
 C455 C 0.40495 0.78626 0.40414
 C456 C 0.41901 0.75118 0.41928
 C457 C 0.40394 0.71614 0.40514
 C458 C 0.37551 0.71622 0.37649
 C459 C 0.33250 0.75125 0.33211
 C460 C 0.30787 0.75101 0.30752
 H461 H 0.36608 0.81354 0.36416
 H462 H 0.41593 0.81372 0.41437
 H463 H 0.41409 0.68865 0.41617
 H464 H 0.36426 0.68896 0.36595
 C465 C 0.25071 0.86222 0.13743
 C466 C 0.21567 0.87585 0.12249
 C467 C 0.21558 0.90424 0.09379
 C468 C 0.25061 0.91937 0.07964
 C469 C 0.28570 0.90540 0.09481
 C470 C 0.28570 0.87702 0.12352
 C471 C 0.25073 0.83300 0.16695
 C472 C 0.25048 0.80840 0.19156
 H473 H 0.18842 0.86455 0.13305
 H474 H 0.18808 0.91434 0.08272
 H475 H 0.31316 0.91642 0.08455
 H476 H 0.31299 0.86663 0.13487
 C477 C 0.75107 0.36199 0.63817
 C478 C 0.71604 0.37572 0.62328
 C479 C 0.71599 0.40416 0.59462
 C480 C 0.75105 0.41923 0.58046
 C481 C 0.78612 0.40516 0.59559
 C482 C 0.78608 0.37673 0.62426
 C483 C 0.75104 0.33271 0.66763
 C484 C 0.75078 0.30806 0.69220
 H485 H 0.68878 0.36448 0.63384
 H486 H 0.68851 0.41434 0.58359
 H487 H 0.81359 0.41614 0.58533
 H488 H 0.81336 0.36627 0.63557
 C489 C 0.74938 0.13756 0.13835
 C490 C 0.71437 0.12266 0.12467
 C491 C 0.71435 0.09416 0.09613
 C492 C 0.74943 0.08019 0.08092
 C493 C 0.78448 0.09541 0.09486
 C494 C 0.78441 0.12392 0.12338
 C495 C 0.74938 0.16691 0.16765
 C496 C 0.74960 0.19161 0.19211
 H497 H 0.68710 0.13307 0.13606
 H498 H 0.68689 0.08306 0.08602
 H499 H 0.81196 0.08531 0.08374
 H500 H 0.81167 0.13531 0.13378
 C501 C 0.24871 0.63813 0.63870
 C502 C 0.21372 0.62337 0.62479
 C503 C 0.21373 0.59497 0.59611
 C504 C 0.24881 0.58094 0.58095
 C505 C 0.28384 0.59601 0.59511
 C506 C 0.28375 0.62442 0.62378
 C507 C 0.24870 0.66741 0.66817
 C508 C 0.24893 0.69206 0.69273
 H509 H 0.18643 0.63380 0.63612
 H510 H 0.18626 0.58400 0.58587
 H511 H 0.31134 0.58587 0.58406
 H512 H 0.31100 0.63567 0.63432
 C513 C 0.86285 0.74942 0.13794
 C514 C 0.87648 0.78445 0.12296
 C515 C 0.90500 0.78452 0.09438
 C516 C 0.92024 0.74947 0.08038
 C517 C 0.90628 0.71440 0.09561
 C518 C 0.87778 0.71442 0.12420
 C519 C 0.83350 0.74942 0.16733
 C520 C 0.80880 0.74965 0.19185
 H521 H 0.86508 0.81171 0.13338
 H522 H 0.91508 0.81200 0.08326
 H523 H 0.91740 0.68693 0.08548
 H524 H 0.86740 0.68714 0.13559
 C525 C 0.36196 0.24853 0.63835
 C526 C 0.37560 0.28359 0.62347
 C527 C 0.40402 0.28373 0.59479
 C528 C 0.41916 0.24871 0.58061
 C529 C 0.40518 0.21360 0.59573
 C530 C 0.37677 0.21356 0.62442
 C531 C 0.33269 0.24847 0.66783
 C532 C 0.30806 0.24867 0.69242
 H533 H 0.36430 0.31083 0.63405
 H534 H 0.41412 0.31124 0.58376
 H535 H 0.41621 0.18616 0.58546
 H536 H 0.36637 0.18625 0.63573
 C537 C 0.13728 0.25081 0.13867
 C538 C 0.12252 0.28580 0.12473
 C539 C 0.09405 0.28579 0.09616
 C540 C 0.07999 0.25069 0.08117
 C541 C 0.09507 0.21565 0.09537
 C542 C 0.12354 0.21575 0.12394
 C543 C 0.16663 0.25084 0.16798
 C544 C 0.19134 0.25063 0.19243
 H545 H 0.13300 0.31310 0.13594
 H546 H 0.08306 0.31324 0.08585
 H547 H 0.08489 0.18815 0.08443
 H548 H 0.13482 0.18851 0.13454
 C549 C 0.63791 0.75114 0.63818
 C550 C 0.62314 0.78615 0.62424
 C551 C 0.59471 0.78618 0.59559
 C552 C 0.58066 0.75111 0.58050
 C553 C 0.59574 0.71606 0.59469
 C554 C 0.62418 0.71612 0.62332
 C555 C 0.66723 0.75112 0.66761
 C556 C 0.69191 0.75087 0.69215
 H557 H 0.63359 0.81343 0.63551
 H558 H 0.58373 0.81365 0.58532
 H559 H 0.58559 0.68858 0.58369
 H560 H 0.63544 0.68885 0.63389
   
