data_POSCAR
  _audit_creation_date              2014-09-24
  _audit_creation_method            'ToBaCCo'
  _symmetry_space_group_name_H-M    'P1'
  _symmetry_Int_Tables_number       1
  _symmetry_cell_setting            triclinic
  loop_
  _symmetry_equiv_pos_as_xyz
 x,y,z
_cell_length_a 42.3510
_cell_length_b 38.4711
_cell_length_c 19.2959
_cell_angle_alpha 89.777000
_cell_angle_beta 90.043200
_cell_angle_gamma 90.009700
loop_
  _atom_site_label
  _atom_site_type_symbol
  _atom_site_fract_x
  _atom_site_fract_y
  _atom_site_fract_z
C1 C 1.28034 0.21344 0.28135
 C2 C 1.25227 0.22919 0.25825
 C3 C 1.22634 0.20790 0.24106
 C4 C 1.22865 0.17151 0.24589
 C5 C 1.25718 0.15623 0.26772
 C6 C 1.28308 0.17729 0.28538
 C7 C 1.25073 0.26774 0.25119
 C8 C 1.27744 0.28645 0.22814
 C9 C 1.27696 0.32281 0.22530
 C10 C 1.24967 0.34079 0.24376
 C11 C 1.22289 0.32272 0.26568
 C12 C 1.22328 0.28629 0.26960
 H13 H 1.30032 0.22942 0.29619
 H14 H 1.20461 0.21952 0.22246
 H15 H 1.29866 0.27280 0.21256
 H16 H 1.20263 0.27261 0.28855
 H17 H 1.25923 0.12816 0.27034
 H18 H 1.24932 0.36900 0.24177
 C19 C 0.77759 -0.28395 0.26968
 C20 C 0.74978 -0.26650 0.24953
 C21 C 0.72376 -0.28623 0.22650
 C22 C 0.72529 -0.32252 0.22515
 C23 C 0.75291 -0.33949 0.24517
 C24 C 0.77906 -0.32035 0.26724
 C25 C 0.74731 -0.22801 0.25448
 C26 C 0.77298 -0.20630 0.23764
 C27 C 0.77002 -0.16999 0.24096
 C28 C 0.74107 -0.15515 0.26084
 C29 C 0.71539 -0.17667 0.27794
 C30 C 0.71875 -0.21275 0.27545
 H31 H 0.79769 -0.26939 0.28879
 H32 H 0.70225 -0.27348 0.20969
 H33 H 0.79509 -0.21755 0.22054
 H34 H 0.69889 -0.22897 0.29001
 H35 H 0.75390 -0.36769 0.24419
 H36 H 0.73848 -0.12714 0.26248
 C37 C 0.77388 0.20688 -0.24502
 C38 C 0.74816 0.22838 -0.26268
 C39 C 0.71972 0.21291 -0.28390
 C40 C 0.71652 0.17679 -0.28591
 C41 C 0.74221 0.15549 -0.26788
 C42 C 0.77104 0.17053 -0.24763
 C43 C 0.75042 0.26689 -0.25792
 C44 C 0.77801 0.28455 -0.27872
 C45 C 0.77926 0.32098 -0.27624
 C46 C 0.75314 0.33988 -0.25331
 C47 C 0.72577 0.32268 -0.23253
 C48 C 0.72441 0.28638 -0.23415
 H49 H 0.79587 0.21833 -0.22768
 H50 H 0.69983 0.22900 -0.29888
 H51 H 0.79810 0.27014 -0.29821
 H52 H 0.70309 0.27342 -0.21688
 H53 H 0.73971 0.12745 -0.26895
 H54 H 0.75399 0.36808 -0.25212
 C55 C 1.27713 -0.28651 -0.21752
 C56 C 1.25044 -0.26729 -0.23912
 C57 C 1.22260 -0.28534 -0.25666
 C58 C 1.22179 -0.32175 -0.25326
 C59 C 1.24854 -0.34034 -0.23300
 C60 C 1.27624 -0.32286 -0.21558
 C61 C 1.25243 -0.22878 -0.24629
 C62 C 1.28066 -0.21346 -0.26943
 C63 C 1.28374 -0.17741 -0.27416
 C64 C 1.25804 -0.15594 -0.25748
 C65 C 1.22933 -0.17078 -0.23574
 C66 C 1.22669 -0.20710 -0.22988
 H67 H 1.29868 -0.27329 -0.20268
 H68 H 1.20198 -0.27134 -0.27480
 H69 H 1.30052 -0.22961 -0.28400
 H70 H 1.20480 -0.21834 -0.21131
 H71 H 1.24788 -0.36856 -0.23186
 H72 H 1.26042 -0.12793 -0.26098
 C73 C 0.21330 0.27656 0.71840
 C74 C 0.23138 0.24787 0.73971
 C75 C 0.21603 0.21660 0.75694
 C76 C 0.18297 0.21438 0.75414
 C77 C 0.16513 0.24359 0.73412
 C78 C 0.18044 0.27472 0.71640
 C79 C 0.26610 0.25144 0.74591
 C80 C 0.27908 0.28248 0.77190
 C81 C 0.31175 0.28698 0.77437
 C82 C 0.33180 0.26044 0.75247
 C83 C 0.31929 0.22939 0.72755
 C84 C 0.28650 0.22471 0.72413
 H85 H 0.22480 0.30068 0.70379
 H86 H 0.22970 0.19437 0.77422
 H87 H 0.26381 0.30319 0.78985
 H88 H 0.27700 0.20079 0.70323
 H89 H 0.13955 0.24227 0.73302
 H90 H 0.35722 0.26404 0.75413
 C91 C 0.70844 0.77340 0.72544
 C92 C 0.72936 0.74612 0.74220
 C93 C 0.71688 0.71351 0.76127
 C94 C 0.68434 0.70791 0.76131
 C95 C 0.66378 0.73497 0.74439
 C96 C 0.67567 0.76769 0.72677
 C97 C 0.76415 0.75070 0.73802
 C98 C 0.77898 0.78140 0.76068
 C99 C 0.81205 0.78408 0.76009
 C100 C 0.83040 0.75596 0.73716
 C101 C 0.81574 0.72548 0.71404
 C102 C 0.78289 0.72322 0.71347
 H103 H 0.71756 0.79860 0.71006
 H104 H 0.73247 0.69236 0.77589
 H105 H 0.76498 0.80277 0.78033
 H106 H 0.77193 0.69962 0.69454
 H107 H 0.63845 0.73049 0.74452
 H108 H 0.85596 0.75768 0.73794
 C109 C 0.71881 0.28770 0.24757
 C110 C 0.73150 0.25532 0.26729
 C111 C 0.71082 0.22820 0.28616
 C112 C 0.67808 0.23386 0.28612
 C113 C 0.66596 0.26634 0.26781
 C114 C 0.68631 0.29320 0.24882
 C115 C 0.76627 0.25078 0.26942
 C116 C 0.78529 0.27844 0.29199
 C117 C 0.81810 0.27627 0.28904
 C118 C 0.83248 0.24570 0.26561
 C119 C 0.81383 0.21741 0.24472
 C120 C 0.78078 0.21999 0.24644
 H121 H 0.73414 0.30872 0.23111
 H122 H 0.72007 0.20313 0.30192
 H123 H 0.77456 0.30212 0.31109
 H124 H 0.76651 0.19849 0.22825
 H125 H 0.64065 0.27071 0.26827
 H126 H 0.85801 0.24405 0.26304
 C127 C 0.21679 0.78474 0.24342
 C128 C 0.23221 0.75348 0.26043
 C129 C 0.21427 0.72507 0.28388
 C130 C 0.18142 0.72711 0.28790
 C131 C 0.16608 0.75826 0.27028
 C132 C 0.18380 0.78722 0.24836
 C133 C 0.26676 0.74946 0.25105
 C134 C 0.28794 0.77605 0.27003
 C135 C 0.32059 0.77082 0.26358
 C136 C 0.33211 0.73937 0.23839
 C137 C 0.31130 0.71303 0.21932
 C138 C 0.27882 0.71805 0.22473
 H139 H 0.23033 0.80673 0.22445
 H140 H 0.22592 0.70099 0.29827
 H141 H 0.27919 0.80025 0.29122
 H142 H 0.26303 0.69737 0.20895
 H143 H 0.14052 0.75983 0.27273
 H144 H 0.35740 0.73519 0.23457
 O145 O 1.04490 0.06238 0.12516
 O146 O 1.07942 0.03015 0.06030
 C147 C 1.07338 0.05361 0.10655
 O148 O 0.95483 -0.06297 0.12085
 O149 O 0.92037 -0.02844 0.06009
 C150 C 0.92638 -0.05349 0.10326
 O151 O 1.04307 -0.05972 0.12953
 O152 O 1.07874 -0.02954 0.06277
 C153 C 1.07166 -0.05223 0.11058
 O154 O 0.95671 0.06541 0.11969
 O155 O 0.92111 0.03345 0.05650
 C156 C 0.92817 0.05774 0.10074
 Zr157 Zr 1.00030 0.04498 0.08708
 O158 O 0.99813 0.04631 0.19660
 O159 O 1.00147 0.09976 0.07804
 Zr160 Zr 0.99945 -0.04236 0.08994
 O161 O 0.99771 -0.03739 0.19889
 O162 O 1.00142 -0.09722 0.09596
 O163 O 1.02833 0.00116 0.10211
 O164 O 0.97206 0.00152 0.10102
 O165 O 0.95498 0.06381 -0.12061
 O166 O 0.92043 0.02972 -0.05920
 C167 C 0.92650 0.05448 -0.10301
 O168 O 1.04510 -0.06137 -0.12153
 O169 O 1.07948 -0.02866 -0.05737
 C170 C 1.07352 -0.05239 -0.10303
 O171 O 0.95677 -0.06428 -0.11699
 O172 O 0.92112 -0.03201 -0.05488
 C173 C 0.92820 -0.05656 -0.09847
 O174 O 1.04325 0.06060 -0.12794
 O175 O 1.07884 0.03069 -0.06037
 C176 C 1.07182 0.05317 -0.10863
 Zr177 Zr 0.99955 0.04414 -0.08724
 O178 O 0.99645 0.04572 -0.19665
 O179 O 1.00069 0.09892 -0.07961
 Zr180 Zr 1.00038 -0.04345 -0.08511
 O181 O 0.99760 -0.04358 -0.19470
 O182 O 1.00177 -0.09833 -0.07934
 Zr183 Zr 1.04736 0.00070 0.00127
 Zr184 Zr 0.95254 0.00073 0.00082
 O185 O 0.97232 0.00006 -0.09908
 O186 O 1.02834 0.00041 -0.09978
 O187 O 0.97167 0.05126 -0.00015
 O188 O 1.02735 -0.04935 0.00300
 O189 O 1.02762 0.05083 -0.00047
 O190 O 0.97183 -0.04970 0.00216
 H191 H 0.95761 0.00184 0.14139
 H192 H 1.04117 -0.07012 0.00372
 H193 H 0.95804 -0.00033 -0.13977
 H194 H 1.04171 0.07139 -0.00100
 H195 H 0.99147 -0.10614 0.05316
 H196 H 1.00210 -0.10677 -0.12781
 H197 H 1.01651 -0.03142 -0.21263
 H198 H 1.01101 0.02780 -0.21453
 H199 H 1.00060 0.10786 -0.12785
 H200 H 1.00217 0.10885 0.12601
 H201 H 1.01281 0.02827 0.21406
 H202 H 0.99697 -0.06140 0.21761
 O203 O 1.04476 0.56140 0.62906
 O204 O 1.08014 0.53063 0.56340
 C205 C 1.07331 0.55346 0.61049
 O206 O 0.95695 0.43558 0.61382
 O207 O 0.92188 0.47020 0.55488
 C208 C 0.92851 0.44433 0.59581
 O209 O 1.04420 0.43950 0.62453
 O210 O 1.08006 0.47007 0.55894
 C211 C 1.07278 0.44658 0.60507
 O212 O 0.95735 0.56513 0.62085
 O213 O 0.92198 0.53398 0.55557
 C214 C 0.92896 0.55818 0.60010
 Zr215 Zr 1.00088 0.54453 0.58911
 O216 O 0.99776 0.54348 0.69858
 O217 O 1.00213 0.59946 0.58469
 Zr218 Zr 1.00077 0.45786 0.58645
 O219 O 0.99860 0.46190 0.69550
 O220 O 1.00282 0.40298 0.59091
 O221 O 1.02943 0.50097 0.60180
 O222 O 0.97265 0.50102 0.59977
 O223 O 0.95748 0.56751 0.38301
 O224 O 0.92220 0.53307 0.44170
 C225 C 0.92896 0.55864 0.40020
 O226 O 1.04608 0.44212 0.37433
 O227 O 1.08079 0.47313 0.44114
 C228 C 1.07444 0.45005 0.39424
 O229 O 0.95860 0.43845 0.37843
 O230 O 0.92255 0.46967 0.44150
 C231 C 0.93001 0.44533 0.39773
 O232 O 1.04509 0.56447 0.37721
 O233 O 1.08045 0.53406 0.44440
 C234 C 1.07352 0.55749 0.39790
 Zr235 Zr 1.00129 0.54647 0.41435
 O236 O 0.99838 0.54813 0.30485
 O237 O 1.00243 0.60124 0.42309
 Zr238 Zr 1.00181 0.45953 0.41107
 O239 O 0.99902 0.46196 0.30154
 O240 O 1.00338 0.40457 0.41183
 Zr241 Zr 1.04867 0.50207 0.50112
 Zr242 Zr 0.95366 0.50185 0.49915
 O243 O 0.97365 0.50294 0.39950
 O244 O 1.03022 0.50328 0.39961
 O245 O 0.97303 0.55220 0.50143
 O246 O 1.02853 0.45214 0.49915
 O247 O 1.02856 0.55200 0.50253
 O248 O 0.97344 0.45170 0.49779
 H249 H 0.95784 0.50064 0.63953
 H250 H 1.04207 0.43115 0.49855
 H251 H 0.95930 0.50319 0.35891
 H252 H 1.04231 0.57282 0.50398
 H253 H 0.99575 0.39450 0.54510
 H254 H 1.00377 0.39714 0.36268
 H255 H 1.01822 0.47392 0.28461
 H256 H 1.01576 0.53367 0.28655
 H257 H 1.00261 0.61053 0.37510
 H258 H 1.00260 0.60762 0.63336
 H259 H 1.01363 0.52657 0.71546
 H260 H 0.99803 0.43773 0.71337
 O261 O 0.55410 -0.05014 0.62700
 O262 O 0.52641 -0.08901 0.56056
 C263 C 0.54733 -0.08151 0.60757
 O264 O 0.43969 0.04566 0.61642
 O265 O 0.47005 0.08544 0.55775
 C266 C 0.44694 0.07725 0.59909
 O267 O 0.44335 -0.04989 0.62473
 O268 O 0.47024 -0.08905 0.55711
 C269 C 0.44934 -0.08119 0.60417
 O270 O 0.55707 0.04561 0.62180
 O271 O 0.52888 0.08533 0.55751
 C272 C 0.55097 0.07704 0.60178
 Zr273 Zr 0.53828 -0.00183 0.58834
 O274 O 0.53794 0.00065 0.69792
 O275 O 0.58815 -0.00289 0.58257
 Zr276 Zr 0.45982 -0.00201 0.58713
 O277 O 0.46423 -0.00053 0.69616
 O278 O 0.41000 -0.00447 0.59230
 O279 O 0.49901 -0.03368 0.60095
 O280 O 0.49886 0.02914 0.60060
 O281 O 0.55766 0.04748 0.38294
 O282 O 0.52740 0.08627 0.44390
 C283 C 0.55026 0.07881 0.40147
 O284 O 0.44487 -0.04952 0.37240
 O285 O 0.47255 -0.08875 0.43853
 C286 C 0.45172 -0.08098 0.39140
 O287 O 0.44080 0.04593 0.37977
 O288 O 0.46868 0.08546 0.44452
 C289 C 0.44662 0.07726 0.40022
 O290 O 0.55497 -0.04840 0.37398
 O291 O 0.52866 -0.08831 0.44161
 C292 C 0.54936 -0.07992 0.39437
 Zr293 Zr 0.53891 -0.00081 0.41371
 O294 O 0.53960 0.00281 0.30424
 O295 O 0.58873 -0.00193 0.42150
 Zr296 Zr 0.46036 -0.00152 0.41183
 O297 O 0.46463 0.00041 0.30264
 O298 O 0.41037 -0.00318 0.41363
 Zr299 Zr 0.49941 -0.05413 0.49977
 Zr300 Zr 0.49898 0.05105 0.50068
 O301 O 0.49943 0.02993 0.40053
 O302 O 0.49984 -0.03277 0.39909
 O303 O 0.54468 0.02960 0.50145
 O304 O 0.45415 -0.03184 0.49904
 O305 O 0.54462 -0.03158 0.50085
 O306 O 0.45361 0.02889 0.49953
 H307 H 0.49871 0.04507 0.64085
 H308 H 0.43506 -0.04673 0.49814
 H309 H 0.49940 0.04608 0.36038
 H310 H 0.56366 -0.04653 0.50141
 H311 H 0.40202 0.00385 0.54697
 H312 H 0.40299 -0.00395 0.36491
 H313 H 0.44294 0.00048 0.28347
 H314 H 0.52384 -0.01393 0.28649
 H315 H 0.59690 -0.00182 0.37337
 H316 H 0.59596 -0.00387 0.63099
 H317 H 0.52281 -0.01710 0.71465
 H318 H 0.44241 -0.00001 0.71458
 O319 O 0.54481 0.56294 0.11845
 O320 O 0.57957 0.53016 0.05529
 C321 C 0.57323 0.55425 0.09997
 O322 O 0.45695 0.43602 0.12066
 O323 O 0.42206 0.46880 0.05740
 C324 C 0.42852 0.44424 0.10138
 O325 O 0.54498 0.44241 0.13060
 O326 O 0.57996 0.47160 0.06056
 C327 C 0.57339 0.45028 0.11074
 O328 O 0.45663 0.56475 0.11308
 O329 O 0.42165 0.53061 0.05305
 C330 C 0.42824 0.55573 0.09528
 Zr331 Zr 0.50063 0.54481 0.08153
 O332 O 0.49851 0.54834 0.19081
 O333 O 0.50131 0.59939 0.06842
 Zr334 Zr 0.50078 0.45761 0.08991
 O335 O 0.49848 0.46411 0.19850
 O336 O 0.50386 0.40296 0.10004
 O337 O 0.52903 0.50157 0.09934
 O338 O 0.47289 0.50125 0.09825
 O339 O 0.45648 0.56166 -0.12510
 O340 O 0.42185 0.52875 -0.06150
 C341 C 0.42813 0.55329 -0.10561
 O342 O 0.54541 0.43549 -0.12053
 O343 O 0.57987 0.46891 -0.05798
 C344 C 0.57374 0.44454 -0.10220
 O345 O 0.45728 0.43312 -0.11627
 O346 O 0.42194 0.46709 -0.05721
 C347 C 0.42880 0.44193 -0.09907
 O348 O 0.54457 0.55650 -0.13436
 O349 O 0.57959 0.52758 -0.06399
 C350 C 0.57299 0.54894 -0.11411
 Zr351 Zr 0.50054 0.54120 -0.09291
 O352 O 0.49685 0.54025 -0.20228
 O353 O 0.50235 0.59611 -0.09060
 Zr354 Zr 0.50107 0.45377 -0.08514
 O355 O 0.49833 0.45158 -0.19464
 O356 O 0.50232 0.39902 -0.07562
 Zr357 Zr 0.54783 0.49942 -0.00153
 Zr358 Zr 0.45349 0.49898 -0.00194
 O359 O 0.47313 0.49711 -0.10188
 O360 O 0.52911 0.49732 -0.10263
 O361 O 0.47243 0.54954 -0.00621
 O362 O 0.52829 0.44928 0.00327
 O363 O 0.52813 0.54947 -0.00632
 O364 O 0.47297 0.44869 0.00264
 H365 H 0.45840 0.50170 0.13856
 H366 H 0.54231 0.42870 0.00575
 H367 H 0.45878 0.49652 -0.14245
 H368 H 0.54223 0.57001 -0.00836
 H369 H 0.49453 0.39307 0.05744
 H370 H 0.50237 0.38974 -0.12347
 H371 H 0.51675 0.46432 -0.21341
 H372 H 0.51283 0.52361 -0.21930
 H373 H 0.50258 0.60389 -0.13963
 H374 H 0.50164 0.60936 0.11570
 H375 H 0.51253 0.53003 0.20968
 H376 H 0.49862 0.44037 0.21858
 C377 C 1.15295 0.11143 0.18668
 C378 C 1.12219 0.11956 0.20804
 C379 C 1.09632 0.10028 0.18366
 C380 C 1.20197 0.14998 0.22631
 C381 C 1.13190 0.06418 0.11722
 C382 C 1.15765 0.08347 0.14162
 C383 C 1.17961 0.13233 0.20896
 C384 C 1.10079 0.07249 0.13732
 H385 H 1.11812 0.14115 0.24278
 H386 H 1.07281 0.10758 0.20008
 H387 H 1.13639 0.04309 0.08154
 H388 H 1.18124 0.07684 0.12446
 C389 C 1.14789 0.61772 0.68769
 C390 C 1.11701 0.62270 0.71102
 C391 C 1.09290 0.60076 0.68827
 C392 C 1.19432 0.65899 0.72637
 C393 C 1.13079 0.56811 0.62042
 C394 C 1.15483 0.59012 0.64322
 C395 C 1.17262 0.64081 0.70907
 C396 C 1.09943 0.57355 0.64174
 H397 H 1.11147 0.64387 0.74584
 H398 H 1.06904 0.60576 0.70568
 H399 H 1.13665 0.54747 0.58467
 H400 H 1.17877 0.58594 0.62531
 C401 C 0.62925 0.13793 0.66540
 C402 C 0.61430 0.11585 0.71283
 C403 C 0.58641 0.09882 0.69454
 C404 C 0.68617 0.16234 0.69572
 C405 C 0.58665 0.12798 0.58313
 C406 C 0.61479 0.14494 0.60138
 C407 C 0.66024 0.15140 0.68130
 C408 C 0.57297 0.10363 0.62846
 H409 H 0.62505 0.11038 0.76267
 H410 H 0.57648 0.08000 0.73032
 H411 H 0.57714 0.13166 0.53166
 H412 H 0.62604 0.16211 0.56425
 C413 C 0.65050 0.61704 0.16966
 C414 C 0.61978 0.62456 0.19155
 C415 C 0.59466 0.60339 0.17099
 C416 C 0.69835 0.65720 0.20502
 C417 C 0.63117 0.56667 0.10793
 C418 C 0.65619 0.58788 0.12850
 C419 C 0.67629 0.63923 0.18894
 C420 C 0.60003 0.57443 0.12819
 H421 H 0.61519 0.64704 0.22364
 H422 H 0.57101 0.61019 0.18731
 H423 H 0.63618 0.54465 0.07494
 H424 H 0.67992 0.58180 0.11150
 C425 C 0.84616 -0.11057 0.18245
 C426 C 0.87690 -0.12049 0.20104
 C427 C 0.90305 -0.10166 0.17658
 C428 C 0.79663 -0.14829 0.22185
 C429 C 0.86779 -0.06256 0.11556
 C430 C 0.84177 -0.08140 0.13998
 C431 C 0.81918 -0.13090 0.20468
 C432 C 0.89885 -0.07258 0.13294
 H433 H 0.88070 -0.14305 0.23374
 H434 H 0.92652 -0.11019 0.19100
 H435 H 0.86351 -0.04035 0.08220
 H436 H 0.81820 -0.07342 0.12498
 C437 C 0.85279 0.37840 0.66300
 C438 C 0.88401 0.36955 0.67845
 C439 C 0.90861 0.39145 0.65798
 C440 C 0.80530 0.33869 0.70255
 C441 C 0.87070 0.43145 0.60748
 C442 C 0.84615 0.40945 0.62791
 C443 C 0.82739 0.35612 0.68430
 C444 C 0.90225 0.42254 0.62174
 H445 H 0.88935 0.34566 0.70599
 H446 H 0.93262 0.38371 0.66965
 H447 H 0.86499 0.45518 0.57984
 H448 H 0.82199 0.41662 0.61615
 C449 C 0.37115 -0.14061 0.67220
 C450 C 0.38791 -0.12031 0.71962
 C451 C 0.41601 -0.10409 0.69970
 C452 C 0.31401 -0.16330 0.70581
 C453 C 0.41229 -0.13071 0.58648
 C454 C 0.38400 -0.14687 0.60641
 C455 C 0.34000 -0.15301 0.68998
 C456 C 0.42779 -0.10796 0.63199
 H457 H 0.37840 -0.11547 0.77079
 H458 H 0.42730 -0.08638 0.73553
 H459 H 0.42041 -0.13346 0.53366
 H460 H 0.37133 -0.16267 0.56930
 C461 C 0.35140 0.38058 0.17012
 C462 C 0.38218 0.37282 0.19150
 C463 C 0.40729 0.39410 0.17093
 C464 C 0.30305 0.34112 0.20617
 C465 C 0.37065 0.43144 0.10908
 C466 C 0.34566 0.41009 0.12950
 C467 C 0.32548 0.35857 0.18984
 C468 C 0.40184 0.42345 0.12875
 H469 H 0.38681 0.35016 0.22343
 H470 H 0.43099 0.38718 0.18697
 H471 H 0.36554 0.45388 0.07693
 H472 H 0.32187 0.41646 0.11310
 C473 C 0.84672 0.11131 -0.18530
 C474 C 0.87753 0.12047 -0.20478
 C475 C 0.90350 0.10170 -0.17925
 C476 C 0.79754 0.14898 -0.22716
 C477 C 0.86796 0.06416 -0.11531
 C478 C 0.84210 0.08295 -0.14080
 C479 C 0.81994 0.13162 -0.20884
 C480 C 0.89908 0.07343 -0.13366
 H481 H 0.88151 0.14240 -0.23906
 H482 H 0.92703 0.10966 -0.19447
 H483 H 0.86352 0.04261 -0.08038
 H484 H 0.81847 0.07557 -0.12506
 C485 C 0.85306 0.62308 0.32847
 C486 C 0.88425 0.63201 0.31301
 C487 C 0.90895 0.61055 0.33484
 C488 C 0.80529 0.66220 0.28817
 C489 C 0.87116 0.57083 0.38658
 C490 C 0.84653 0.59237 0.36479
 C491 C 0.82754 0.64504 0.30651
 C492 C 0.90269 0.57985 0.37247
 H493 H 0.88950 0.65565 0.28458
 H494 H 0.93295 0.61835 0.32324
 H495 H 0.86550 0.54740 0.41528
 H496 H 0.82238 0.58517 0.37661
 C497 C 0.36811 0.13817 0.33616
 C498 C 0.38323 0.11635 0.28887
 C499 C 0.41110 0.09928 0.30746
 C500 C 0.31153 0.16324 0.30407
 C501 C 0.41049 0.12783 0.41903
 C502 C 0.38236 0.14482 0.40047
 C503 C 0.33726 0.15195 0.31948
 C504 C 0.42439 0.10380 0.37371
 H505 H 0.37266 0.11117 0.23880
 H506 H 0.42119 0.08072 0.27166
 H507 H 0.41988 0.13129 0.47061
 H508 H 0.37099 0.16182 0.43748
 C509 C 0.35079 0.61778 -0.16900
 C510 C 0.34517 0.58730 -0.13131
 C511 C 0.37021 0.56553 -0.11325
 C512 C 0.30240 0.65834 -0.19919
 C513 C 0.40665 0.60429 -0.17207
 C514 C 0.38147 0.62601 -0.19028
 C515 C 0.32487 0.64040 -0.18552
 C516 C 0.40134 0.57407 -0.13234
 H517 H 0.32145 0.58058 -0.11505
 H518 H 0.36523 0.54242 -0.08294
 H519 H 0.43030 0.61167 -0.18752
 H520 H 0.38600 0.64944 -0.22000
 C521 C 1.15345 -0.11025 -0.18056
 C522 C 1.15797 -0.08156 -0.13727
 C523 C 1.13208 -0.06226 -0.11381
 C524 C 1.20268 -0.14895 -0.21763
 C525 C 1.09672 -0.09980 -0.17777
 C526 C 1.12273 -0.11910 -0.20120
 C527 C 1.18024 -0.13119 -0.20149
 C528 C 1.10103 -0.07130 -0.13309
 H529 H 1.18153 -0.07438 -0.12071
 H530 H 1.13645 -0.04059 -0.07945
 H531 H 1.07324 -0.10765 -0.19348
 H532 H 1.11881 -0.14127 -0.23456
 C533 C 1.14940 0.38451 0.32284
 C534 C 1.15610 0.41240 0.36687
 C535 C 1.13198 0.43483 0.38778
 C536 C 1.19570 0.34252 0.28610
 C537 C 1.09455 0.40198 0.31903
 C538 C 1.11870 0.37965 0.29816
 C539 C 1.17416 0.36109 0.30284
 C540 C 1.10079 0.42951 0.36502
 H541 H 1.17989 0.41653 0.38581
 H542 H 1.13763 0.45571 0.42314
 H543 H 1.07083 0.39703 0.30053
 H544 H 1.11333 0.35831 0.26363
 C545 C 0.62772 -0.13940 0.32758
 C546 C 0.61393 -0.14664 0.39214
 C547 C 0.58566 -0.13030 0.41136
 C548 C 0.68494 -0.16254 0.29627
 C549 C 0.58387 -0.10140 0.29971
 C550 C 0.61193 -0.11782 0.28050
 C551 C 0.65888 -0.15209 0.31094
 C552 C 0.57113 -0.10635 0.36637
 H553 H 0.62585 -0.16344 0.42898
 H554 H 0.57678 -0.13399 0.46342
 H555 H 0.57333 -0.08282 0.26428
 H556 H 0.62218 -0.11219 0.23026
 C557 C 0.65117 0.38248 -0.17347
 C558 C 0.62046 0.37508 -0.19562
 C559 C 0.59531 0.39594 -0.17426
 C560 C 0.69894 0.34276 -0.21108
 C561 C 0.63173 0.43216 -0.10969
 C562 C 0.65680 0.41124 -0.13110
 C563 C 0.67695 0.36056 -0.19389
 C564 C 0.60062 0.42451 -0.13039
 H565 H 0.61590 0.35292 -0.22865
 H566 H 0.57168 0.38923 -0.19097
 H567 H 0.63668 0.45391 -0.07592
 H568 H 0.68055 0.41726 -0.11396
 C569 C 1.13746 0.12716 -0.18955
 C570 C 1.11179 0.11637 -0.22967
 C571 C 1.09180 0.09012 -0.20558
 C572 C 1.16823 0.18421 -0.22701
 C573 C 1.12424 0.08345 -0.10287
 C574 C 1.14419 0.10998 -0.12699
 C575 C 1.15483 0.15780 -0.20997
 C576 C 1.09719 0.07417 -0.14086
 H577 H 1.10634 0.12937 -0.27814
 H578 H 1.07119 0.08350 -0.23606
 H579 H 1.12875 0.07195 -0.05250
 H580 H 1.16397 0.11816 -0.09536
 C581 C 1.13508 0.63921 0.33531
 C582 C 1.14146 0.62075 0.39657
 C583 C 1.12329 0.59156 0.41427
 C584 C 1.16489 0.69794 0.30551
 C585 C 1.09362 0.59822 0.30761
 C586 C 1.11182 0.62717 0.28993
 C587 C 1.15132 0.67125 0.31981
 C588 C 1.09842 0.58082 0.37105
 H589 H 1.15956 0.62972 0.43194
 H590 H 1.12719 0.57901 0.46386
 H591 H 1.07458 0.59059 0.27337
 H592 H 1.10686 0.64101 0.24213
 C593 C 0.61405 0.15898 0.33666
 C594 C 0.58673 0.16782 0.37351
 C595 C 0.56497 0.14205 0.39217
 C596 C 0.65637 0.20677 0.30490
 C597 C 0.59755 0.09890 0.33528
 C598 C 0.61912 0.12463 0.31663
 C599 C 0.63717 0.18493 0.31973
 C600 C 0.57053 0.10714 0.37454
 H601 H 0.58253 0.19449 0.38880
 H602 H 0.54440 0.14927 0.42212
 H603 H 0.60264 0.07236 0.32055
 H604 H 0.64006 0.11759 0.28765
 C605 C 0.64229 0.61806 -0.19379
 C606 C 0.61569 0.61018 -0.23368
 C607 C 0.59415 0.58538 -0.21044
 C608 C 0.67231 0.67613 -0.22319
 C609 C 0.62721 0.57414 -0.11005
 C610 C 0.64863 0.59925 -0.13316
 C611 C 0.65990 0.64882 -0.20990
 C612 C 0.59908 0.56819 -0.14693
 H613 H 0.61057 0.62471 -0.28061
 H614 H 0.57278 0.58111 -0.24017
 H615 H 0.63148 0.56141 -0.06078
 H616 H 0.66906 0.60540 -0.10166
 C617 C 0.86057 -0.12987 -0.17545
 C618 C 0.88732 -0.12135 -0.21433
 C619 C 0.90828 -0.09599 -0.19092
 C620 C 0.82744 -0.18470 -0.21578
 C621 C 0.87506 -0.08582 -0.09087
 C622 C 0.85410 -0.11157 -0.11427
 C623 C 0.84159 -0.15920 -0.19654
 C624 C 0.90284 -0.07852 -0.12810
 H625 H 0.89264 -0.13525 -0.26166
 H626 H 0.92939 -0.09086 -0.22095
 H627 H 0.87042 -0.07304 -0.04203
 H628 H 0.83352 -0.11800 -0.08350
 C629 C 0.86764 0.36424 0.33567
 C630 C 0.86023 0.38429 0.39401
 C631 C 0.87895 0.41303 0.41141
 C632 C 0.83635 0.30654 0.30682
 C633 C 0.91140 0.40260 0.31021
 C634 C 0.89265 0.37414 0.29278
 C635 C 0.85056 0.33280 0.32062
 C636 C 0.90541 0.42166 0.37095
 H637 H 0.84073 0.37699 0.42734
 H638 H 0.87395 0.42706 0.45862
 H639 H 0.93157 0.40868 0.27787
 H640 H 0.89843 0.35906 0.24720
 C641 C 0.38733 -0.15831 0.31887
 C642 C 0.41061 -0.16746 0.36723
 C643 C 0.43316 -0.14298 0.38785
 C644 C 0.34297 -0.20317 0.28417
 C645 C 0.40980 -0.10078 0.30948
 C646 C 0.38745 -0.12524 0.28890
 C647 C 0.36301 -0.18256 0.30039
 C648 C 0.43238 -0.10902 0.36069
 H649 H 0.41086 -0.19320 0.39020
 H650 H 0.45026 -0.15021 0.42706
 H651 H 0.40857 -0.07497 0.28704
 H652 H 0.36975 -0.11805 0.25087
 C653 C 0.35801 0.37244 -0.17175
 C654 C 0.38611 0.37657 -0.20870
 C655 C 0.40847 0.40064 -0.18698
 C656 C 0.32457 0.31748 -0.20478
 C657 C 0.37379 0.41826 -0.09343
 C658 C 0.35145 0.39378 -0.11497
 C659 C 0.33827 0.34351 -0.18848
 C660 C 0.40293 0.42099 -0.12796
 H661 H 0.39139 0.36002 -0.25253
 H662 H 0.43059 0.40239 -0.21491
 H663 H 0.36899 0.43365 -0.04781
 H664 H 0.32979 0.39053 -0.08584
 C665 C 1.13764 -0.12602 0.19155
 C666 C 1.14436 -0.10863 0.12923
 C667 C 1.12424 -0.08225 0.10505
 C668 C 1.16892 -0.18270 0.22935
 C669 C 1.09156 -0.08959 0.20711
 C670 C 1.11172 -0.11567 0.23128
 C671 C 1.15531 -0.15645 0.21213
 C672 C 1.09701 -0.07335 0.14271
 H673 H 1.16432 -0.11647 0.09789
 H674 H 1.12881 -0.07054 0.05492
 H675 H 1.07081 -0.08326 0.23735
 H676 H 1.10626 -0.12884 0.27955
 C677 C 1.13377 0.36479 0.66960
 C678 C 1.14073 0.38347 0.60893
 C679 C 1.12275 0.41271 0.59076
 C680 C 1.16304 0.30572 0.69886
 C681 C 1.09212 0.40571 0.69593
 C682 C 1.11014 0.37670 0.71409
 C683 C 1.14970 0.33259 0.68508
 C684 C 1.09748 0.42329 0.63290
 H685 H 1.15912 0.37458 0.57426
 H686 H 1.12710 0.42540 0.54153
 H687 H 1.07277 0.41323 0.72937
 H688 H 1.10472 0.36269 0.76144
 C689 C 0.61127 -0.16028 0.67777
 C690 C 0.61231 -0.12711 0.70674
 C691 C 0.59024 -0.10207 0.68686
 C692 C 0.65486 -0.20673 0.70979
 C693 C 0.56496 -0.14385 0.61116
 C694 C 0.58719 -0.16888 0.63106
 C695 C 0.63523 -0.18527 0.69515
 C696 C 0.56677 -0.10985 0.63742
 H697 H 0.63067 -0.12031 0.74340
 H698 H 0.59233 -0.07624 0.70847
 H699 H 0.54719 -0.15074 0.57323
 H700 H 0.58605 -0.19465 0.60878
 C701 C 0.64310 0.38354 0.19658
 C702 C 0.61636 0.39195 0.23544
 C703 C 0.59464 0.41592 0.20974
 C704 C 0.67343 0.32639 0.23054
 C705 C 0.62774 0.42530 0.10876
 C706 C 0.64936 0.40101 0.13437
 C707 C 0.66084 0.35330 0.21530
 C708 C 0.59952 0.43172 0.14484
 H709 H 0.61128 0.37839 0.28348
 H710 H 0.57320 0.42063 0.23878
 H711 H 0.63198 0.43700 0.05848
 H712 H 0.66990 0.39436 0.10373
 C713 C 0.86104 0.13084 0.17926
 C714 C 0.85467 0.11341 0.11701
 C715 C 0.87539 0.08761 0.09307
 C716 C 0.82881 0.18607 0.22030
 C717 C 0.90806 0.09590 0.19482
 C718 C 0.88734 0.12132 0.21875
 C719 C 0.84255 0.16040 0.20075
 C720 C 0.90282 0.07941 0.13087
 H721 H 0.83441 0.12063 0.08583
 H722 H 0.87094 0.07556 0.04340
 H723 H 0.92891 0.09004 0.22525
 H724 H 0.89256 0.13455 0.26690
 C725 C 0.86559 0.63828 0.66288
 C726 C 0.85907 0.61921 0.60270
 C727 C 0.87812 0.59081 0.58471
 C728 C 0.83387 0.69541 0.69423
 C729 C 0.90913 0.59962 0.68874
 C730 C 0.89007 0.62773 0.70674
 C731 C 0.84819 0.66940 0.67906
 C732 C 0.90401 0.58152 0.62647
 H733 H 0.84003 0.62702 0.56851
 H734 H 0.87383 0.57758 0.53623
 H735 H 0.92887 0.59305 0.72206
 H736 H 0.89518 0.64204 0.75370
 C737 C 0.38253 0.15589 0.66711
 C738 C 0.37731 0.12111 0.68416
 C739 C 0.39893 0.09584 0.66402
 C740 C 0.34069 0.20289 0.70483
 C741 C 0.43176 0.14023 0.61100
 C742 C 0.40993 0.16556 0.63122
 C743 C 0.35967 0.18147 0.68700
 C744 C 0.42620 0.10498 0.62623
 H745 H 0.35629 0.11342 0.71232
 H746 H 0.39379 0.06900 0.67678
 H747 H 0.45249 0.14810 0.58211
 H748 H 0.41423 0.19257 0.61821
 C749 C 0.35699 0.62484 0.16655
 C750 C 0.38467 0.62027 0.20491
 C751 C 0.40715 0.59624 0.18369
 C752 C 0.32403 0.68035 0.19789
 C753 C 0.37332 0.57941 0.08796
 C754 C 0.35089 0.60388 0.10896
 C755 C 0.33745 0.65404 0.18238
 C756 C 0.40213 0.57636 0.12382
 H757 H 0.38961 0.63653 0.24937
 H758 H 0.42901 0.59421 0.21259
 H759 H 0.36893 0.56439 0.04164
 H760 H 0.32957 0.60747 0.07872
   
