data_POSCAR
  _audit_creation_date              2014-09-24
  _audit_creation_method            'ToBaCCo'
  _symmetry_space_group_name_H-M    'P1'
  _symmetry_Int_Tables_number       1
  _symmetry_cell_setting            triclinic
  loop_
  _symmetry_equiv_pos_as_xyz
 x,y,z
_cell_length_a 22.2691
_cell_length_b 22.4142
_cell_length_c 22.4556
_cell_angle_alpha 88.478300
_cell_angle_beta 82.002300
_cell_angle_gamma 94.819000
loop_
  _atom_site_label
  _atom_site_type_symbol
  _atom_site_fract_x
  _atom_site_fract_y
  _atom_site_fract_z
O1 O 0.54604 0.55632 0.04396
 O2 O 0.37803 0.55674 0.05796
 O3 O 0.45410 0.48023 0.08396
 O4 O 0.47142 0.63367 0.01884
 O5 O 0.47268 0.59929 -0.07254
 O6 O 0.45659 0.44594 -0.00755
 O7 O 0.38033 0.52252 -0.03344
 O8 O 0.54772 0.52232 -0.04759
 Cu9 Cu 0.46184 0.56041 0.06029
 Cu10 Cu 0.46414 0.51898 -0.04933
 C11 C 0.57544 0.53876 -0.00418
 C12 C 0.35048 0.53982 0.01454
 C13 C 0.45407 0.43687 0.04887
 C14 C 0.47560 0.64270 -0.03773
 O15 O -0.00752 0.54296 0.48664
 O16 O 0.01059 0.38015 0.47730
 O17 O -0.03237 0.46122 0.41216
 O18 O 0.03427 0.46331 0.55216
 O19 O -0.05747 0.44160 0.60330
 O20 O -0.12455 0.44072 0.46258
 O21 O -0.08178 0.35989 0.52735
 O22 O -0.09908 0.52128 0.53810
 Cu23 Cu 0.01049 0.46353 0.47672
 Cu24 Cu -0.09986 0.43847 0.53797
 C25 C -0.05676 0.55971 0.51430
 C26 C -0.03253 0.34239 0.50103
 C27 C -0.08959 0.45210 0.41331
 C28 C -0.00047 0.45359 0.60175
 O29 O 0.55673 0.01247 0.57135
 O30 O 0.56808 0.02813 0.40483
 O31 O 0.49168 0.05752 0.49560
 O32 O 0.63282 -0.01707 0.48129
 O33 O 0.58208 -0.10559 0.47750
 O34 O 0.44060 -0.03128 0.49522
 O35 O 0.51634 -0.06021 0.40375
 O36 O 0.50647 -0.07637 0.56832
 Cu37 Cu 0.56773 0.02916 0.48821
 Cu38 Cu 0.50606 -0.07710 0.48593
 C39 C 0.52981 -0.03527 0.59805
 C40 C 0.54361 -0.01336 0.37612
 C41 C 0.44177 0.02532 0.49828
 C42 C 0.63170 -0.07361 0.47774
 C43 C 0.55141 -0.06501 -0.11166
 C44 C 0.56054 -0.00475 -0.13232
 C45 C 0.56250 0.04018 -0.08994
 C46 C 0.55114 0.02577 -0.02740
 C47 C 0.53954 -0.03473 -0.00831
 C48 C 0.53983 -0.08022 -0.04977
 C49 C 0.54758 0.07345 0.01800
 C50 C 0.56281 0.06379 0.07639
 C51 C 0.55654 0.10833 0.11943
 C52 C 0.53721 0.16357 0.10296
 C53 C 0.52125 0.17368 0.04540
 C54 C 0.52623 0.12847 0.00374
 H55 H 0.55476 -0.09993 -0.14385
 H56 H 0.57210 0.08640 -0.10607
 H57 H 0.52845 -0.04688 0.03918
 H58 H 0.58070 0.02233 0.08808
 H59 H 0.53483 0.19844 0.13539
 H60 H 0.51208 0.13621 -0.03983
 C61 C -0.14782 0.53019 1.13479
 C62 C -0.16468 0.53979 1.07760
 C63 C -0.12077 0.53621 1.02623
 C64 C -0.06115 0.52127 1.03205
 C65 C -0.04663 0.51055 1.08993
 C66 C -0.08913 0.51510 1.14111
 C67 C -0.01465 0.51307 0.97861
 C68 C 0.04867 0.52315 0.98140
 C69 C 0.09198 0.50877 0.93312
 C70 C 0.07131 0.48718 0.88087
 C71 C 0.00892 0.47973 0.87607
 C72 C -0.03346 0.49123 0.92555
 H73 H -0.18066 0.53473 1.17440
 H74 H -0.13264 0.54615 0.98219
 H75 H -0.00231 0.49667 1.09570
 H76 H 0.06397 0.54203 1.02099
 H77 H 0.10449 0.47512 0.84433
 H78 H -0.08145 0.48217 0.92261
 C79 C -0.08214 -0.14772 0.49595
 C80 C -0.02109 -0.16135 0.48623
 C81 C 0.02533 -0.11415 0.48290
 C82 C 0.01143 -0.05458 0.49401
 C83 C -0.04983 -0.04327 0.50682
 C84 C -0.09649 -0.08867 0.50566
 C85 C 0.05995 -0.00432 0.49469
 C86 C 0.05012 0.05555 0.47991
 C87 C 0.09484 0.10288 0.48442
 C88 C 0.15102 0.08968 0.50035
 C89 C 0.16219 0.03033 0.51358
 C90 C 0.11596 -0.01572 0.51236
 H91 H -0.11845 -0.18284 0.49606
 H92 H 0.07217 -0.12437 0.47231
 H93 H -0.06185 0.00140 0.51755
 H94 H 0.00825 0.06544 0.46404
 H95 H 0.18515 0.12624 0.50369
 H96 H 0.12409 -0.06085 0.52540
 C97 C -0.35776 0.53581 0.98973
 C98 C -0.32484 0.55114 1.03346
 C99 C -0.25898 0.54260 1.02825
 C100 C -0.22841 0.55401 1.07469
 H101 H -0.34717 0.56821 1.07475
 H102 H -0.23681 0.52378 0.98793
 H103 H -0.33534 0.51859 0.94858
 H104 H -0.25312 0.57038 1.11519
 C105 C 0.28693 0.54055 1.02020
 C106 C 0.25506 0.52601 0.97530
 C107 C 0.18784 0.52605 0.98159
 C108 C 0.15918 0.51449 0.93383
 H109 H 0.27889 0.51366 0.93255
 H110 H 0.16271 0.53404 1.02499
 H111 H 0.26293 0.55391 1.06243
 H112 H 0.18727 0.50647 0.89181
 C113 C -0.06613 -0.37960 0.51936
 C114 C -0.02611 -0.33420 0.49550
 C115 C -0.04168 -0.27171 0.50321
 C116 C -0.00490 -0.22421 0.47877
 H117 H 0.01716 -0.34283 0.47009
 H118 H -0.08437 -0.26485 0.53055
 H119 H -0.10916 -0.36909 0.54402
 H120 H 0.03926 -0.23145 0.45439
 C121 C -0.02634 0.27732 0.49957
 C122 C 0.02579 0.25419 0.47927
 C123 C 0.03094 0.18891 0.48421
 C124 C 0.08516 0.16669 0.47270
 H125 H 0.06569 0.28371 0.46146
 H126 H -0.00928 0.15951 0.50112
 H127 H -0.06560 0.24745 0.51845
 H128 H 0.12520 0.19760 0.45924
 C129 C 0.52521 -0.04449 -0.33958
 C130 C 0.54958 -0.00639 -0.30251
 C131 C 0.54269 -0.02231 -0.23739
 C132 C 0.56794 0.01206 -0.19779
 H133 H 0.57495 0.03531 -0.31985
 H134 H 0.51522 -0.06332 -0.22160
 H135 H 0.50083 -0.08611 -0.32046
 H136 H 0.59242 0.05472 -0.21331
 C137 C 0.54523 -0.00806 0.31018
 C138 C 0.56529 0.04222 0.27741
 C139 C 0.55986 0.04657 0.21251
 C140 C 0.56984 0.09941 0.18194
 H141 H 0.58292 0.08129 0.29906
 H142 H 0.54347 0.00700 0.19085
 H143 H 0.52631 -0.04634 0.28824
 H144 H 0.58260 0.13899 0.20566
 C145 C 0.48450 -0.29599 -0.06381
 C146 C 0.49784 -0.24926 -0.03098
 C147 C 0.50895 -0.18841 -0.05815
 C148 C 0.52817 -0.14300 -0.02623
 H149 H 0.50199 -0.25605 0.01623
 H150 H 0.50053 -0.18122 -0.10399
 H151 H 0.48205 -0.28935 -0.11139
 H152 H 0.53383 -0.15190 0.02031
 C153 C 0.45433 0.37576 0.07398
 C154 C 0.46680 0.33048 0.03826
 C155 C 0.47924 0.27219 0.06285
 C156 C 0.50175 0.23152 0.02557
 H157 H 0.47280 0.33783 -0.01023
 H158 H 0.47197 0.26386 0.11111
 H159 H 0.45013 0.36902 0.12242
 H160 H 0.50645 0.24114 -0.02256
 C161 C -0.31142 -0.10245 0.47499
 C162 C -0.26341 -0.07457 0.49505
 C163 C -0.20509 -0.10081 0.49158
 C164 C -0.15950 -0.07169 0.51469
 H165 H -0.26699 -0.03080 0.51411
 H166 H -0.19874 -0.14132 0.46715
 H167 H -0.30949 -0.14729 0.45833
 H168 H -0.16751 -0.03001 0.53677
 C169 C 0.38471 0.05410 0.50332
 C170 C 0.33138 0.02202 0.51844
 C171 C 0.27381 0.04784 0.51402
 C172 C 0.22149 0.01349 0.52779
 H173 H 0.33019 -0.02521 0.53094
 H174 H 0.27523 0.09270 0.49465
 H175 H 0.38644 0.10169 0.49248
 H176 H 0.22309 -0.03182 0.54543
 C177 C -0.11588 0.45646 1.35703
 C178 C -0.08111 0.47584 1.30583
 C179 C -0.10649 0.48500 1.24975
 C180 C -0.06925 0.50516 1.20025
 H181 H -0.03264 0.48670 1.30538
 H182 H -0.15475 0.47462 1.24896
 H183 H -0.16449 0.44635 1.35816
 H184 H -0.02080 0.51245 1.20239
 C185 C 0.02626 0.45844 0.65768
 C186 C -0.00746 0.45095 0.71171
 C187 C 0.01979 0.46455 0.76618
 C188 C -0.01404 0.45973 0.82039
 H189 H -0.05585 0.43770 0.71563
 H190 H 0.06697 0.48231 0.76076
 H191 H 0.07463 0.47168 0.65420
 H192 H -0.06190 0.44425 0.82348
   
