data_POSCAR
  _audit_creation_date              2014-09-24
  _audit_creation_method            'ToBaCCo'
  _symmetry_space_group_name_H-M    'P1'
  _symmetry_Int_Tables_number       1
  _symmetry_cell_setting            triclinic
  loop_
  _symmetry_equiv_pos_as_xyz
 x,y,z
_cell_length_a 41.2958
_cell_length_b 41.9002
_cell_length_c 41.5291
_cell_angle_alpha 89.941100
_cell_angle_beta 90.158800
_cell_angle_gamma 90.045900
loop_
  _atom_site_label
  _atom_site_type_symbol
  _atom_site_fract_x
  _atom_site_fract_y
  _atom_site_fract_z
C1 C 0.19371 0.15514 0.19268
 C2 C 0.18070 0.14229 0.22096
 C3 C 0.15388 0.15652 0.23630
 C4 C 0.14116 0.18501 0.22310
 C5 C 0.15349 0.19767 0.19427
 C6 C 0.17957 0.18236 0.17875
 C7 C 0.22050 0.14080 0.17801
 C8 C 0.23309 0.15255 0.14873
 C9 C 0.21765 0.17901 0.13420
 C10 C 0.19137 0.19414 0.14919
 C11 C 0.17677 0.22098 0.13514
 C12 C 0.15107 0.23647 0.15063
 C13 C 0.13965 0.22497 0.18024
 H14 H 0.19225 0.12151 0.23145
 H15 H 0.12030 0.19635 0.23391
 H16 H 0.23061 0.11951 0.18892
 H17 H 0.22698 0.18908 0.11206
 H18 H 0.18546 0.23006 0.11228
 H19 H 0.11957 0.23691 0.19190
 C20 C -0.19130 0.84689 0.19414
 C21 C -0.17579 0.86224 0.21991
 C22 C -0.14744 0.84944 0.23396
 C23 C -0.13449 0.82106 0.22087
 C24 C -0.15031 0.80502 0.19566
 C25 C -0.17915 0.81769 0.18263
 C26 C -0.21864 0.86052 0.17950
 C27 C -0.23560 0.84416 0.15508
 C28 C -0.22445 0.81401 0.14513
 C29 C -0.19561 0.80138 0.15775
 C30 C -0.18238 0.77326 0.14516
 C31 C -0.15313 0.76110 0.15732
 C32 C -0.13758 0.77661 0.18303
 H33 H -0.18537 0.88483 0.22825
 H34 H -0.11299 0.81038 0.23128
 H35 H -0.22744 0.88341 0.18791
 H36 H -0.23690 0.80144 0.12592
 H37 H -0.19444 0.76108 0.12546
 H38 H -0.11502 0.76711 0.19238
 C39 C -0.19332 0.15073 -0.19367
 C40 C -0.17768 0.13584 -0.21959
 C41 C -0.15156 0.15085 -0.23498
 C42 C -0.14031 0.18042 -0.22376
 C43 C -0.15519 0.19521 -0.19742
 C44 C -0.18232 0.18072 -0.18281
 C45 C -0.21983 0.13613 -0.17857
 C46 C -0.23644 0.15147 -0.15323
 C47 C -0.22538 0.18175 -0.14301
 C48 C -0.19820 0.19608 -0.15714
 C49 C -0.18610 0.22516 -0.14538
 C50 C -0.15807 0.23875 -0.15871
 C51 C -0.14309 0.22399 -0.18510
 H52 H -0.18612 0.11288 -0.22826
 H53 H -0.11975 0.19164 -0.23539
 H54 H -0.22830 0.11339 -0.18770
 H55 H -0.23676 0.19360 -0.12282
 H56 H -0.19764 0.23657 -0.12500
 H57 H -0.12173 0.23475 -0.19569
 C58 C 0.19608 0.84353 -0.19476
 C59 C 0.18246 0.85820 -0.22196
 C60 C 0.15527 0.84487 -0.23767
 C61 C 0.14193 0.81635 -0.22528
 C62 C 0.15472 0.80199 -0.19751
 C63 C 0.18201 0.81551 -0.18224
 C64 C 0.22352 0.85658 -0.17978
 C65 C 0.23659 0.84240 -0.15201
 C66 C 0.22214 0.81484 -0.13920
 C67 C 0.19505 0.80115 -0.15427
 C68 C 0.18055 0.77356 -0.14169
 C69 C 0.15304 0.76050 -0.15653
 C70 C 0.14025 0.77463 -0.18439
 H71 H 0.19398 0.87943 -0.23151
 H72 H 0.12043 0.80606 -0.23613
 H73 H 0.23448 0.87810 -0.18936
 H74 H 0.23224 0.80395 -0.11771
 H75 H 0.19019 0.76254 -0.12007
 H76 H 0.11894 0.76436 -0.19564
 C77 C 0.15191 1.19522 0.80696
 C78 C 0.13936 1.18155 0.77873
 C79 C 0.15504 1.15567 0.76358
 C80 C 0.18431 1.14433 0.77704
 C81 C 0.19648 1.15706 0.80587
 C82 C 0.18000 1.18234 0.82110
 C83 C 0.13651 1.22138 0.82141
 C84 C 0.14805 1.23439 0.85066
 C85 C 0.17534 1.22009 0.86534
 C86 C 0.19148 1.19455 0.85064
 C87 C 0.21902 1.18103 0.86503
 C88 C 0.23549 1.15599 0.84988
 C89 C 0.22443 1.14429 0.82021
 H90 H 0.11773 1.19182 0.76813
 H91 H 0.19664 1.12411 0.76645
 H92 H 0.11469 1.23070 0.81034
 H93 H 0.18535 1.22980 0.88739
 H94 H 0.22777 1.18994 0.88797
 H95 H 0.23715 1.12471 0.80881
 C96 C 0.85022 0.80885 0.80523
 C97 C 0.86388 0.82302 0.77776
 C98 C 0.85099 0.85146 0.76461
 C99 C 0.82359 0.86508 0.77952
 C100 C 0.80929 0.85077 0.80647
 C101 C 0.82268 0.82261 0.81947
 C102 C 0.86386 0.78119 0.81871
 C103 C 0.84992 0.76634 0.84596
 C104 C 0.82193 0.78022 0.85953
 C105 C 0.80856 0.80829 0.84677
 C106 C 0.78139 0.82245 0.86112
 C107 C 0.76785 0.85035 0.84808
 C108 C 0.78174 0.86426 0.82066
 H109 H 0.88553 0.81250 0.76764
 H110 H 0.81229 0.88619 0.76945
 H111 H 0.88462 0.77059 0.80698
 H112 H 0.81123 0.77020 0.88108
 H113 H 0.77052 0.81167 0.88224
 H114 H 0.77139 0.88596 0.81078
 C115 C 0.15137 0.80129 1.19426
 C116 C 0.13717 0.81629 1.22089
 C117 C 0.15019 0.84474 1.23311
 C118 C 0.17744 0.85846 1.21846
 C119 C 0.19239 0.84330 1.19232
 C120 C 0.17957 0.81435 1.18043
 C121 C 0.13759 0.77364 1.18109
 C122 C 0.15205 0.75798 1.15470
 C123 C 0.18131 0.77036 1.14228
 C124 C 0.19475 0.79863 1.15454
 C125 C 0.22265 0.81196 1.14069
 C126 C 0.23498 0.84117 1.15189
 C127 C 0.21981 0.85668 1.17773
 H128 H 0.11575 0.80612 1.23194
 H129 H 0.18727 0.88060 1.22782
 H130 H 0.11599 0.76390 1.19213
 H131 H 0.19266 0.75933 1.12161
 H132 H 0.23422 0.80019 1.12053
 H133 H 0.22951 0.87911 1.18652
 C134 C 0.84351 1.20102 1.20066
 C135 C 0.85864 1.18707 1.22748
 C136 C 0.84708 1.15815 1.24064
 C137 C 0.81940 1.14394 1.22667
 C138 C 0.80353 1.15817 1.20048
 C139 C 0.81559 1.18678 1.18734
 C140 C 0.85643 1.22852 1.18637
 C141 C 0.84150 1.24222 1.15928
 C142 C 0.81297 1.22872 1.14685
 C143 C 0.80004 1.20087 1.16053
 C144 C 0.77243 1.18634 1.14728
 C145 C 0.76039 1.15768 1.16023
 C146 C 0.77596 1.14393 1.18699
 H147 H 0.88051 1.19797 1.23686
 H148 H 0.80929 1.12230 1.23682
 H149 H 0.87832 1.23919 1.19606
 H150 H 0.80157 1.23926 1.12583
 H151 H 0.76088 1.19680 1.12631
 H152 H 0.76660 1.12201 1.19730
 O153 O 0.54726 0.94681 0.94152
 O154 O 0.58184 0.97392 0.97514
 C155 C 0.57609 0.95447 0.95158
 O156 O 0.45489 1.05892 0.94762
 O157 O 0.41952 1.02684 0.97517
 C158 C 0.42579 1.04982 0.95522
 O159 O 0.54613 1.05739 0.94682
 O160 O 0.58144 1.02659 0.97628
 C161 C 0.57511 1.04830 0.95493
 O162 O 0.45583 0.94263 0.94310
 O163 O 0.41983 0.97115 0.97372
 C164 C 0.42663 0.94993 0.95210
 Zr165 Zr 0.50116 0.96040 0.95952
 O166 O 0.49810 0.96300 0.90869
 O167 O 0.50534 0.91011 0.95702
 Zr168 Zr 0.50038 1.04093 0.96315
 O169 O 0.49770 1.04280 0.91226
 O170 O 0.50327 1.09133 0.96536
 O171 O 0.52976 1.00121 0.95561
 O172 O 0.47269 1.00062 0.95503
 O173 O 0.45453 0.93712 1.05422
 O174 O 0.41940 0.96947 1.02648
 C175 C 0.42552 0.94622 1.04615
 O176 O 0.54405 1.05360 1.06315
 O177 O 0.58042 1.02534 1.03263
 C178 C 0.57330 1.04580 1.05499
 O179 O 0.45329 1.05403 1.05992
 O180 O 0.41858 1.02519 1.02785
 C181 C 0.42452 1.04626 1.04993
 O182 O 0.54564 0.93973 1.05795
 O183 O 0.58088 0.97175 1.03015
 C184 C 0.57469 0.94905 1.05043
 Zr185 Zr 0.50012 0.95674 1.04115
 O186 O 0.49623 0.95657 1.09199
 O187 O 0.50355 0.90636 1.04074
 Zr188 Zr 0.49921 1.03730 1.04465
 O189 O 0.49552 1.03357 1.09536
 O190 O 0.50156 1.08766 1.04778
 Zr191 Zr 0.54828 0.99932 1.00297
 Zr192 Zr 0.45224 0.99841 1.00132
 O193 O 0.47139 0.99649 1.04826
 O194 O 0.52861 0.99704 1.04968
 O195 O 0.47197 0.95204 0.99960
 O196 O 0.52778 1.04523 1.00457
 O197 O 0.52861 0.95300 1.00049
 O198 O 0.47098 1.04514 1.00367
 H199 H 0.45815 1.00118 0.93602
 H200 H 0.54218 1.06414 1.00539
 H201 H 0.45626 0.99556 1.06671
 H202 H 0.54321 0.93427 0.99971
 H203 H 0.48475 1.09888 0.97833
 H204 H 0.48472 1.09636 1.03326
 H205 H 0.51490 1.02203 1.10318
 H206 H 0.51620 0.96633 1.10080
 H207 H 0.48830 0.89851 1.02415
 H208 H 0.48720 0.90090 0.96946
 H209 H 0.51644 0.97621 0.90115
 H210 H 0.51643 1.03083 0.90372
 O211 O 0.05189 0.54417 -0.06206
 O212 O 0.02372 0.57920 -0.03035
 C213 C 0.04409 0.57289 -0.05315
 O214 O -0.06483 0.45527 -0.05677
 O215 O -0.03262 0.42031 -0.02870
 C216 C -0.05559 0.42662 -0.04904
 O217 O -0.06155 0.54519 -0.05951
 O218 O -0.02973 0.57980 -0.03043
 C219 C -0.05173 0.57368 -0.05187
 O220 O 0.05306 0.45420 -0.05987
 O221 O 0.02331 0.41967 -0.02870
 C222 C 0.04491 0.42572 -0.05043
 Zr223 Zr 0.03620 0.49938 -0.04386
 O224 O 0.03486 0.49620 -0.09472
 O225 O 0.08739 0.50210 -0.04463
 Zr226 Zr -0.04583 0.50009 -0.04205
 O227 O -0.04676 0.49669 -0.09290
 O228 O -0.09693 0.50387 -0.04094
 O229 O -0.00469 0.52813 -0.04936
 O230 O -0.00520 0.47209 -0.04875
 O231 O 0.05604 0.45441 0.05306
 O232 O 0.02424 0.41992 0.02408
 C233 C 0.04697 0.42582 0.04481
 O234 O -0.05744 0.54519 0.05833
 O235 O -0.02987 0.57974 0.02539
 C236 C -0.04961 0.57373 0.04883
 O237 O -0.06212 0.45546 0.05492
 O238 O -0.03122 0.42032 0.02590
 C239 C -0.05342 0.42677 0.04689
 O240 O 0.05475 0.54430 0.05477
 O241 O 0.02371 0.57945 0.02549
 C242 C 0.04558 0.57294 0.04695
 Zr243 Zr 0.03826 0.49948 0.03759
 O244 O 0.03942 0.49639 0.08847
 O245 O 0.08943 0.50222 0.03615
 Zr246 Zr -0.04374 0.50017 0.03937
 O247 O -0.04307 0.49644 0.09020
 O248 O -0.09482 0.50454 0.03992
 Zr249 Zr -0.00335 0.54708 -0.00238
 Zr250 Zr -0.00418 0.45245 -0.00209
 O251 O -0.00286 0.47223 0.04446
 O252 O -0.00232 0.52822 0.04471
 O253 O 0.04329 0.47094 -0.00319
 O254 O -0.05043 0.52789 -0.00128
 O255 O 0.04335 0.52706 -0.00331
 O256 O -0.05136 0.47165 -0.00112
 H257 H -0.00573 0.45764 -0.06762
 H258 H -0.06921 0.54259 -0.00090
 H259 H -0.00255 0.45790 0.06345
 H260 H 0.06248 0.54135 -0.00365
 H261 H -0.10516 0.48622 -0.02741
 H262 H -0.10384 0.48632 0.02770
 H263 H -0.02815 0.51305 0.09838
 H264 H 0.02710 0.51475 0.09701
 H265 H 0.09721 0.48399 0.02320
 H266 H 0.09580 0.48376 -0.03215
 H267 H 0.02154 0.51416 -0.10272
 H268 H -0.03409 0.51482 -0.10151
 O269 O 0.95039 0.06239 0.45492
 O270 O 0.97759 0.03009 0.41951
 C271 C 0.95787 0.05319 0.42603
 O272 O 1.06517 0.05363 0.54600
 O273 O 1.03207 0.02605 0.58058
 C274 C 1.05541 0.04585 0.57468
 O275 O 1.06126 0.05915 0.45542
 O276 O 1.03193 0.02878 0.41973
 C277 C 1.05295 0.05078 0.42645
 O278 O 0.94713 0.05839 0.54559
 O279 O 0.97663 0.02725 0.58031
 C280 C 0.95519 0.04905 0.57440
 Zr281 Zr 0.96452 0.04302 0.50005
 O282 O 0.96607 0.09335 0.50433
 O283 O 0.91340 0.04440 0.49628
 Zr284 Zr 1.04647 0.03993 0.50033
 O285 O 1.04964 0.09013 0.50500
 O286 O 1.09749 0.03700 0.49641
 O287 O 1.00574 0.04807 0.47161
 O288 O 1.00566 0.04695 0.52810
 O289 O 0.94323 -0.05374 0.54391
 O290 O 0.97448 -0.02522 0.57960
 C291 C 0.95179 -0.04555 0.57287
 O292 O 1.05732 -0.05904 0.45355
 O293 O 1.03020 -0.02577 0.41893
 C294 C 1.04968 -0.04928 0.42476
 O295 O 1.06023 -0.05758 0.54444
 O296 O 1.03124 -0.02682 0.57991
 C297 C 1.05247 -0.04859 0.57334
 O298 O 0.94522 -0.05412 0.45320
 O299 O 0.97704 -0.02509 0.41859
 C300 C 0.95490 -0.04617 0.42453
 Zr301 Zr 0.96137 -0.03778 0.49894
 O302 O 0.95933 -0.08821 0.50138
 O303 O 0.91026 -0.03529 0.49567
 Zr304 Zr 1.04331 -0.04075 0.49921
 O305 O 1.04230 -0.09118 0.50204
 O306 O 1.09446 -0.04156 0.49582
 Zr307 Zr 1.00396 0.00170 0.45194
 Zr308 Zr 1.00380 0.00050 0.54735
 O309 O 1.00211 -0.04542 0.52693
 O310 O 1.00214 -0.04515 0.47038
 O311 O 0.95655 0.00245 0.52814
 O312 O 1.05084 -0.00021 0.47183
 O313 O 0.95706 0.00320 0.47157
 O314 O 1.05114 -0.00103 0.52852
 H315 H 1.00631 0.06552 0.54285
 H316 H 1.06970 -0.00059 0.45714
 H317 H 1.00145 -0.06432 0.54126
 H318 H 0.93815 0.00401 0.45685
 H319 H 1.10547 0.02452 0.51503
 H320 H 1.10320 -0.03055 0.51503
 H321 H 1.02720 -0.09883 0.48521
 H322 H 0.97202 -0.09666 0.48312
 H323 H 0.90251 -0.02305 0.51448
 H324 H 0.90454 0.03195 0.51449
 H325 H 0.97976 0.10157 0.48666
 H326 H 1.03456 0.09954 0.48908
 C327 C 1.11169 0.11221 0.31777
 C328 C 1.12565 0.09339 0.29363
 C329 C 1.13990 0.10827 0.26701
 C330 C 1.13975 0.14192 0.26373
 C331 C 1.12493 0.16033 0.28817
 C332 C 1.11136 0.14561 0.31539
 C333 C 1.09701 0.09658 0.34601
 C334 C 1.08376 0.11538 0.37068
 C335 C 1.07001 0.10031 0.39761
 C336 C 1.06869 0.06681 0.39923
 C337 C 1.08183 0.04835 0.37427
 C338 C 1.09639 0.06310 0.34775
 C339 C 1.09766 0.16363 0.34044
 C340 C 1.08428 0.14879 0.36770
 C341 C 1.12487 0.05996 0.29639
 C342 C 1.11033 0.04506 0.32293
 H343 H 1.09736 0.18945 0.33901
 H344 H 1.07405 0.16357 0.38648
 H345 H 1.13547 0.04517 0.27781
 H346 H 1.11012 0.01922 0.32409
 H347 H 1.14970 0.09331 0.24815
 H348 H 1.12515 0.18615 0.28692
 H349 H 1.05962 0.11446 0.41682
 H350 H 1.08111 0.02255 0.37582
 C351 C 0.89622 -0.10608 0.31469
 C352 C 0.91587 -0.12106 0.29173
 C353 C 0.90135 -0.13618 0.26521
 C354 C 0.86734 -0.13544 0.26078
 C355 C 0.84823 -0.11955 0.28403
 C356 C 0.86245 -0.10541 0.31119
 C357 C 0.91129 -0.09085 0.34303
 C358 C 0.89150 -0.07699 0.36668
 C359 C 0.90593 -0.06304 0.39386
 C360 C 0.93981 -0.06198 0.39676
 C361 C 0.95938 -0.07539 0.37263
 C362 C 0.94519 -0.09042 0.34593
 C363 C 0.84348 -0.09093 0.33512
 C364 C 0.85774 -0.07718 0.36252
 C365 C 0.94970 -0.12043 0.29564
 C366 C 0.96413 -0.10511 0.32212
 H367 H 0.81735 -0.09039 0.33276
 H368 H 0.84222 -0.06644 0.38049
 H369 H 0.96518 -0.13172 0.27798
 H370 H 0.99030 -0.10499 0.32411
 H371 H 0.91678 -0.14723 0.24736
 H372 H 0.82206 -0.11950 0.28202
 H373 H 0.89096 -0.05233 0.41233
 H374 H 0.98553 -0.07457 0.37501
 C375 C 0.89365 0.10746 0.68377
 C376 C 0.87728 0.13659 0.67990
 C377 C 0.86275 0.15086 0.70676
 C378 C 0.86393 0.13575 0.73699
 C379 C 0.88002 0.10639 0.74046
 C380 C 0.89533 0.09229 0.71393
 C381 C 0.90940 0.09260 0.65572
 C382 C 0.92656 0.06398 0.65979
 C383 C 0.94186 0.05019 0.63317
 C384 C 0.93929 0.06423 0.60239
 C385 C 0.92178 0.09286 0.59872
 C386 C 0.90708 0.10734 0.62541
 C387 C 0.91243 0.06347 0.71696
 C388 C 0.92800 0.04968 0.69039
 C389 C 0.87573 0.15079 0.64927
 C390 C 0.89021 0.13631 0.62244
 H391 H 0.91397 0.05158 0.74009
 H392 H 0.94110 0.02753 0.69378
 H393 H 0.86309 0.17321 0.64597
 H394 H 0.88831 0.14798 0.59922
 H395 H 0.85019 0.17343 0.70419
 H396 H 0.88101 0.09493 0.76386
 H397 H 0.95555 0.02836 0.63644
 H398 H 0.91995 0.10410 0.57527
 C399 C 1.11308 -0.10993 0.68130
 C400 C 1.12678 -0.09125 0.70581
 C401 C 1.14140 -0.10635 0.73225
 C402 C 1.14144 -0.14003 0.73502
 C403 C 1.12707 -0.15824 0.71010
 C404 C 1.11338 -0.14335 0.68306
 C405 C 1.09793 -0.09416 0.65331
 C406 C 1.08513 -0.11287 0.62826
 C407 C 1.07096 -0.09774 0.60160
 C408 C 1.06861 -0.06429 0.60058
 C409 C 1.08114 -0.04584 0.62599
 C410 C 1.09635 -0.06068 0.65224
 C411 C 1.10010 -0.16127 0.65765
 C412 C 1.08644 -0.14628 0.63059
 C413 C 1.12519 -0.05780 0.70365
 C414 C 1.11000 -0.04277 0.67743
 H415 H 1.10034 -0.18711 0.65863
 H416 H 1.07654 -0.16098 0.61149
 H417 H 1.13554 -0.04311 0.72251
 H418 H 1.10905 -0.01693 0.67682
 H419 H 1.15119 -0.09165 0.75139
 H420 H 1.12767 -0.18408 0.71093
 H421 H 1.06098 -0.11188 0.58209
 H422 H 1.07943 -0.02003 0.62502
 C423 C 0.31489 1.10841 1.10664
 C424 C 0.29113 1.12195 1.08665
 C425 C 0.26434 1.13712 1.10063
 C426 C 0.26057 1.13805 1.13449
 C427 C 0.28491 1.12403 1.15399
 C428 C 0.31213 1.10957 1.14025
 C429 C 0.34320 1.09265 1.09211
 C430 C 0.36744 1.07989 1.11215
 C431 C 0.39445 1.06517 1.09818
 C432 C 0.39670 1.06245 1.06455
 C433 C 0.37220 1.07515 1.04480
 C434 C 0.34549 1.09063 1.05844
 C435 C 0.33675 1.09638 1.15953
 C436 C 0.36404 1.08195 1.14572
 C437 C 0.29446 1.11974 1.05304
 C438 C 0.32110 1.10420 1.03917
 H439 H 0.33496 1.09727 1.18554
 H440 H 0.38251 1.07214 1.16144
 H441 H 0.27623 1.12997 1.03731
 H442 H 0.32269 1.10292 1.01317
 H443 H 0.24576 1.14673 1.08493
 H444 H 0.28356 1.12545 1.18000
 H445 H 0.41334 1.05523 1.11335
 H446 H 0.37435 1.07355 1.01890
 C447 C 0.31859 0.88599 0.89305
 C448 C 0.32038 0.87706 0.86051
 C449 C 0.29343 0.86269 0.84590
 C450 C 0.26517 0.85676 0.86378
 C451 C 0.26394 0.86529 0.89651
 C452 C 0.29051 0.88028 0.91121
 C453 C 0.34654 0.90191 0.90830
 C454 C 0.34436 0.91177 0.94052
 C455 C 0.37069 0.92760 0.95466
 C456 C 0.39924 0.93300 0.93698
 C457 C 0.40128 0.92244 0.90489
 C458 C 0.37478 0.90722 0.89027
 C459 C 0.28945 0.89005 0.94354
 C460 C 0.31587 0.90567 0.95792
 C461 C 0.34901 0.88283 0.84324
 C462 C 0.37582 0.89751 0.85792
 H463 H 0.26793 0.88583 0.95778
 H464 H 0.31398 0.91305 0.98285
 H465 H 0.35070 0.87596 0.81816
 H466 H 0.39743 0.90152 0.84375
 H467 H 0.29440 0.85593 0.82072
 H468 H 0.24205 0.86095 0.91019
 H469 H 0.36914 0.93540 0.97950
 H470 H 0.42314 0.92674 0.89116
 C471 C 0.68430 0.88720 1.10948
 C472 C 0.71307 0.90460 1.11360
 C473 C 0.73905 0.89055 1.13005
 C474 C 0.73748 0.85837 1.13999
 C475 C 0.70891 0.84072 1.13408
 C476 C 0.68179 0.85547 1.12002
 C477 C 0.65627 0.90258 1.09382
 C478 C 0.62669 0.88614 1.09175
 C479 C 0.59971 0.90156 1.07809
 C480 C 0.60273 0.93260 1.06528
 C481 C 0.63314 0.94784 1.06598
 C482 C 0.65968 0.93340 1.08108
 C483 C 0.65209 0.83936 1.11661
 C484 C 0.62486 0.85461 1.10322
 C485 C 0.71548 0.93550 1.10069
 C486 C 0.68949 0.94931 1.08395
 H487 H 0.64972 0.81492 1.12483
 H488 H 0.60230 0.84150 1.10154
 H489 H 0.73780 0.94891 1.10310
 H490 H 0.69262 0.97278 1.07352
 H491 H 0.76118 0.90410 1.13351
 H492 H 0.70721 0.81610 1.14198
 H493 H 0.57665 0.88924 1.07686
 H494 H 0.63609 0.97115 1.05519
 C495 C 0.68330 1.10762 0.89216
 C496 C 0.70875 1.08861 0.88079
 C497 C 0.73498 1.10316 0.86519
 C498 C 0.73659 1.13676 0.86178
 C499 C 0.71074 1.15535 0.87389
 C500 C 0.68393 1.14090 0.88857
 C501 C 0.65546 1.09239 0.90820
 C502 C 0.62945 1.11134 0.91859
 C503 C 0.60283 1.09668 0.93343
 C504 C 0.60272 1.06354 0.93877
 C505 C 0.62914 1.04491 0.92869
 C506 C 0.65540 1.05918 0.91289
 C507 C 0.65761 1.15910 0.89956
 C508 C 0.63072 1.14455 0.91410
 C509 C 0.70763 1.05539 0.88557
 C510 C 0.68152 1.04095 0.90156
 H511 H 0.65772 1.18481 0.89678
 H512 H 0.61087 1.15944 0.92209
 H513 H 0.72721 1.04045 0.87704
 H514 H 0.68170 1.01530 0.90492
 H515 H 0.75483 1.08827 0.85720
 H516 H 0.71061 1.18101 0.87068
 H517 H 0.58256 1.11103 0.94144
 H518 H 0.62890 1.01931 0.93259
 C519 C 0.10701 0.31722 0.10572
 C520 C 0.12600 0.32164 0.13349
 C521 C 0.14005 0.29497 0.14848
 C522 C 0.13568 0.26435 0.13537
 C523 C 0.11688 0.26029 0.10742
 C524 C 0.10215 0.28667 0.09264
 C525 C 0.09191 0.34511 0.09004
 C526 C 0.07226 0.34056 0.06281
 C527 C 0.05751 0.36703 0.04833
 C528 C 0.06294 0.39808 0.06031
 C529 C 0.08300 0.40221 0.08752
 C530 C 0.09728 0.37574 0.10268
 C531 C 0.08260 0.28313 0.06514
 C532 C 0.06772 0.30960 0.05060
 C533 C 0.13064 0.35263 0.14557
 C534 C 0.11666 0.37924 0.13033
 H535 H 0.07862 0.25969 0.05486
 H536 H 0.05269 0.30583 0.02952
 H537 H 0.14530 0.35637 0.16692
 H538 H 0.12093 0.40272 0.14038
 H539 H 0.15471 0.29795 0.16996
 H540 H 0.11354 0.23659 0.09749
 H541 H 0.04185 0.36339 0.02768
 H542 H 0.08708 0.42589 0.09722
 C543 C -0.11467 0.31968 -0.11304
 C544 C -0.09603 0.29228 -0.11888
 C545 C -0.11032 0.26620 -0.13450
 C546 C -0.14313 0.26717 -0.14369
 C547 C -0.16159 0.29472 -0.13753
 C548 C -0.14733 0.32125 -0.12245
 C549 C -0.09971 0.34718 -0.09658
 C550 C -0.11809 0.37487 -0.09123
 C551 C -0.10358 0.40108 -0.07581
 C552 C -0.07122 0.39929 -0.06519
 C553 C -0.05329 0.37121 -0.07051
 C554 C -0.06730 0.34522 -0.08648
 C555 C -0.16502 0.34926 -0.11649
 C556 C -0.15061 0.37568 -0.10131
 C557 C -0.06358 0.29137 -0.10871
 C558 C -0.04949 0.31735 -0.09264
 H559 H -0.19021 0.35082 -0.12370
 H560 H -0.16508 0.39684 -0.09727
 H561 H -0.04900 0.27032 -0.11304
 H562 H -0.02442 0.31564 -0.08505
 H563 H -0.09621 0.24484 -0.13885
 H564 H -0.18684 0.29549 -0.14468
 H565 H -0.11750 0.42261 -0.07167
 H566 H -0.02822 0.36984 -0.06277
 C567 C 0.10595 0.68026 -0.11413
 C568 C 0.09271 0.71090 -0.11020
 C569 C 0.10814 0.73707 -0.12456
 C570 C 0.13680 0.73271 -0.14215
 C571 C 0.14993 0.70201 -0.14581
 C572 C 0.13440 0.67555 -0.13200
 C573 C 0.08986 0.65265 -0.09901
 C574 C 0.10284 0.62196 -0.10320
 C575 C 0.08746 0.59578 -0.08867
 C576 C 0.05972 0.60028 -0.06949
 C577 C 0.04730 0.63135 -0.06536
 C578 C 0.06201 0.65753 -0.08038
 C579 C 0.14669 0.64450 -0.13562
 C580 C 0.13110 0.61815 -0.12159
 C581 C 0.06450 0.71473 -0.09180
 C582 C 0.04950 0.68851 -0.07699
 H583 H 0.16855 0.64054 -0.14942
 H584 H 0.14138 0.59461 -0.12497
 H585 H 0.05406 0.73823 -0.08862
 H586 H 0.02790 0.69252 -0.06280
 H587 H 0.09822 0.76086 -0.12179
 H588 H 0.17202 0.69885 -0.15949
 H589 H 0.09744 0.57207 -0.09177
 H590 H 0.02616 0.63523 -0.05047
 C591 C -0.10851 0.68112 0.11166
 C592 C -0.11573 0.67945 0.14466
 C593 C -0.13011 0.70585 0.15974
 C594 C -0.13787 0.73328 0.14176
 C595 C -0.13073 0.73445 0.10869
 C596 C -0.11572 0.70855 0.09355
 C597 C -0.09317 0.65360 0.09571
 C598 C -0.08535 0.65559 0.06288
 C599 C -0.07064 0.62945 0.04785
 C600 C -0.06450 0.60122 0.06522
 C601 C -0.07274 0.59947 0.09805
 C602 C -0.08677 0.62580 0.11354
 C603 C -0.10770 0.70955 0.06071
 C604 C -0.09261 0.68357 0.04567
 C605 C -0.10858 0.65138 0.16181
 C606 C -0.09452 0.62494 0.14647
 H607 H -0.11307 0.73063 0.04654
 H608 H -0.08675 0.68534 0.02031
 H609 H -0.11408 0.64976 0.18725
 H610 H -0.08959 0.60369 0.16052
 H611 H -0.13571 0.70497 0.18522
 H612 H -0.13644 0.75575 0.09495
 H613 H -0.06458 0.63082 0.02249
 H614 H -0.06780 0.57785 0.11156
 C615 C 1.11325 0.10935 0.68295
 C616 C 1.14705 0.11185 0.68518
 C617 C 1.16089 0.12706 0.71200
 C618 C 1.14118 0.14076 0.73616
 C619 C 1.10713 0.13848 0.73284
 C620 C 1.09315 0.12237 0.70671
 C621 C 1.09860 0.09272 0.65522
 C622 C 1.06481 0.08921 0.65368
 C623 C 1.05102 0.07310 0.62749
 C624 C 1.07068 0.06154 0.60248
 C625 C 1.10445 0.06556 0.60406
 C626 C 1.11863 0.08072 0.63076
 C627 C 1.05941 0.11865 0.70414
 C628 C 1.04549 0.10212 0.67819
 C629 C 1.16635 0.09917 0.66045
 C630 C 1.15237 0.08411 0.63358
 H631 H 1.04363 0.12842 0.72244
 H632 H 1.01938 0.09963 0.67720
 H633 H 1.19248 0.10106 0.66179
 H634 H 1.16811 0.07487 0.61497
 H635 H 1.18701 0.12926 0.71324
 H636 H 1.09132 0.14765 0.75143
 H637 H 1.02493 0.07025 0.62608
 H638 H 1.11957 0.05646 0.58484
 C639 C 0.89261 -0.10492 0.68242
 C640 C 0.89358 -0.13823 0.68556
 C641 C 0.88025 -0.15257 0.71306
 C642 C 0.86513 -0.13396 0.73716
 C643 C 0.86430 -0.10039 0.73314
 C644 C 0.87827 -0.08582 0.70613
 C645 C 0.90702 -0.08971 0.65379
 C646 C 0.90701 -0.05627 0.65120
 C647 C 0.92148 -0.04193 0.62434
 C648 C 0.93523 -0.06081 0.60004
 C649 C 0.93442 -0.09425 0.60251
 C650 C 0.92071 -0.10887 0.62966
 C651 C 0.87840 -0.05245 0.70250
 C652 C 0.89267 -0.03791 0.67557
 C653 C 0.90763 -0.15661 0.66099
 C654 C 0.92081 -0.14219 0.63344
 H655 H 0.86751 -0.03741 0.72071
 H656 H 0.89239 -0.01212 0.67377
 H657 H 0.90840 -0.18238 0.66304
 H658 H 0.93139 -0.15724 0.61506
 H659 H 0.88041 -0.17837 0.71474
 H660 H 0.85409 -0.08525 0.75163
 H661 H 0.92180 -0.01618 0.62210
 H662 H 0.94534 -0.10872 0.58382
 C663 C 1.10685 -0.11063 0.31473
 C664 C 1.11977 -0.14148 0.31784
 C665 C 1.13361 -0.15617 0.29085
 C666 C 1.13522 -0.13984 0.26128
 C667 C 1.12251 -0.10884 0.25860
 C668 C 1.10790 -0.09423 0.28521
 C669 C 1.09202 -0.09516 0.34295
 C670 C 1.07843 -0.06466 0.33960
 C671 C 1.06419 -0.05013 0.36639
 C672 C 1.06424 -0.06545 0.39664
 C673 C 1.07810 -0.09603 0.39961
 C674 C 1.09174 -0.11114 0.37270
 C675 C 1.09423 -0.06362 0.28290
 C676 C 1.07953 -0.04918 0.30959
 C677 C 1.11870 -0.15690 0.34789
 C678 C 1.10510 -0.14191 0.37490
 H679 H 1.09478 -0.05078 0.26025
 H680 H 1.06912 -0.02561 0.30676
 H681 H 1.12865 -0.18067 0.35060
 H682 H 1.10495 -0.15456 0.39767
 H683 H 1.14358 -0.18002 0.29284
 H684 H 1.12362 -0.09642 0.23571
 H685 H 1.05342 -0.02671 0.36370
 H686 H 1.07794 -0.10816 0.42268
 C687 C 0.89479 0.11397 0.31917
 C688 C 0.89377 0.14738 0.31741
 C689 C 0.87846 0.16198 0.29104
 C690 C 0.86313 0.14344 0.26694
 C691 C 0.86421 0.10978 0.26959
 C692 C 0.88037 0.09502 0.29528
 C693 C 0.91122 0.09850 0.34659
 C694 C 0.91317 0.06506 0.34772
 C695 C 0.92911 0.05048 0.37362
 C696 C 0.94206 0.06909 0.39871
 C697 C 0.93955 0.10252 0.39759
 C698 C 0.92457 0.11744 0.37120
 C699 C 0.88258 0.06161 0.29741
 C700 C 0.89892 0.04688 0.32308
 C701 C 0.90780 0.16555 0.34225
 C702 C 0.92271 0.15083 0.36882
 H703 H 0.87169 0.04672 0.27901
 H704 H 0.90018 0.02105 0.32377
 H705 H 0.90705 0.19138 0.34126
 H706 H 0.93301 0.16571 0.38756
 H707 H 0.87723 0.18780 0.29027
 H708 H 0.85383 0.09485 0.25094
 H709 H 0.93083 0.02467 0.37472
 H710 H 0.94974 0.11679 0.41690
 C711 C 0.10416 0.31568 -0.10744
 C712 C 0.10438 0.31240 -0.14103
 C713 C 0.11826 0.28508 -0.15476
 C714 C 0.13286 0.26133 -0.13525
 C715 C 0.13240 0.26542 -0.10140
 C716 C 0.11780 0.29224 -0.08745
 C717 C 0.08940 0.34426 -0.09289
 C718 C 0.08836 0.34707 -0.05922
 C719 C 0.07382 0.37401 -0.04553
 C720 C 0.06107 0.39824 -0.06525
 C721 C 0.06284 0.39549 -0.09892
 C722 C 0.07661 0.36823 -0.11292
 C723 C 0.11649 0.29603 -0.05384
 C724 C 0.10185 0.32290 -0.03996
 C725 C 0.09107 0.33672 -0.16029
 C726 C 0.07759 0.36424 -0.14648
 H727 H 0.12679 0.27803 -0.03813
 H728 H 0.10125 0.32486 -0.01395
 H729 H 0.09122 0.33454 -0.18628
 H730 H 0.06771 0.38246 -0.16221
 H731 H 0.11910 0.28334 -0.18077
 H732 H 0.14221 0.24719 -0.08564
 H733 H 0.07279 0.37643 -0.01961
 H734 H 0.05272 0.41410 -0.11406
 C735 C -0.11403 0.32111 0.11134
 C736 C -0.14636 0.32371 0.12147
 C737 C -0.16101 0.29771 0.13702
 C738 C -0.14324 0.26968 0.14298
 C739 C -0.11080 0.26757 0.13295
 C740 C -0.09614 0.29313 0.11682
 C741 C -0.09862 0.34819 0.09466
 C742 C -0.06653 0.34529 0.08392
 C743 C -0.05207 0.37100 0.06786
 C744 C -0.06923 0.39966 0.06316
 C745 C -0.10127 0.40232 0.07434
 C746 C -0.11623 0.37647 0.08982
 C747 C -0.06401 0.29123 0.10594
 C748 C -0.04950 0.31683 0.08962
 C749 C -0.16330 0.35227 0.11592
 C750 C -0.14843 0.37827 0.10052
 H751 H -0.05001 0.26972 0.10997
 H752 H -0.02470 0.31437 0.08153
 H753 H -0.18822 0.35460 0.12368
 H754 H -0.16230 0.39992 0.09685
 H755 H -0.18597 0.29933 0.14486
 H756 H -0.09724 0.24582 0.13726
 H757 H -0.02727 0.36895 0.05958
 H758 H -0.11462 0.42428 0.07059
 C759 C -0.10855 0.68339 -0.11253
 C760 C -0.08842 0.70608 -0.12723
 C761 C -0.10232 0.73318 -0.14152
 C762 C -0.13620 0.73837 -0.14046
 C763 C -0.15584 0.71513 -0.12523
 C764 C -0.14222 0.68756 -0.11164
 C765 C -0.09406 0.65478 -0.09760
 C766 C -0.11427 0.63167 -0.08353
 C767 C -0.10033 0.60451 -0.06935
 C768 C -0.06650 0.60103 -0.06845
 C769 C -0.04658 0.62436 -0.08256
 C770 C -0.06025 0.65119 -0.09748
 C771 C -0.16165 0.66399 -0.09723
 C772 C -0.14794 0.63644 -0.08358
 C773 C -0.05470 0.70143 -0.12697
 C774 C -0.04084 0.67454 -0.11219
 H775 H -0.18772 0.66685 -0.09651
 H776 H -0.16380 0.61887 -0.07274
 H777 H -0.03886 0.71884 -0.13811
 H778 H -0.01473 0.67198 -0.11234
 H779 H -0.08639 0.75091 -0.15196
 H780 H -0.18194 0.71766 -0.12499
 H781 H -0.11561 0.58658 -0.05823
 H782 H -0.02055 0.62133 -0.08223
 C783 C 0.10688 0.67860 0.11038
 C784 C 0.08774 0.70289 0.12359
 C785 C 0.10283 0.72865 0.13907
 C786 C 0.13702 0.73103 0.14044
 C787 C 0.15572 0.70634 0.12660
 C788 C 0.14079 0.67993 0.11206
 C789 C 0.09110 0.65135 0.09427
 C790 C 0.11023 0.62650 0.08198
 C791 C 0.09508 0.60047 0.06702
 C792 C 0.06123 0.59986 0.06338
 C793 C 0.04238 0.62512 0.07533
 C794 C 0.05720 0.65074 0.09133
 C795 C 0.15913 0.65474 0.09923
 C796 C 0.14410 0.62835 0.08469
 C797 C 0.05386 0.70120 0.12061
 C798 C 0.03885 0.67570 0.10452
 H799 H 0.18533 0.65538 0.10053
 H800 H 0.15912 0.60938 0.07521
 H801 H 0.03881 0.71991 0.13057
 H802 H 0.01268 0.67543 0.10253
 H803 H 0.08778 0.74765 0.14842
 H804 H 0.18190 0.70689 0.12817
 H805 H 0.10956 0.58107 0.05753
 H806 H 0.01625 0.62446 0.07267
 C807 C 0.31680 1.11210 0.89535
 C808 C 0.32174 1.13170 0.86832
 C809 C 0.29493 1.14599 0.85332
 C810 C 0.26365 1.14120 0.86568
 C811 C 0.25908 1.12192 0.89299
 C812 C 0.28560 1.10697 0.90776
 C813 C 0.34479 1.09646 0.91082
 C814 C 0.33969 1.07608 0.93716
 C815 C 0.36625 1.06068 0.95129
 C816 C 0.39792 1.06623 0.93994
 C817 C 0.40260 1.08704 0.91365
 C818 C 0.37605 1.10195 0.89877
 C819 C 0.28155 1.08679 0.93448
 C820 C 0.30812 1.07143 0.94880
 C821 C 0.35336 1.13651 0.85687
 C822 C 0.38007 1.12203 0.87195
 H823 H 0.25761 1.08264 0.94425
 H824 H 0.30394 1.05587 0.96923
 H825 H 0.35750 1.15164 0.83611
 H826 H 0.40405 1.12642 0.86238
 H827 H 0.29827 1.16095 0.83228
 H828 H 0.23486 1.11821 0.90229
 H829 H 0.36219 1.04443 0.97119
 H830 H 0.42676 1.09125 0.90444
 C831 C 0.31609 0.88495 1.10556
 C832 C 0.31892 0.85352 1.11702
 C833 C 0.29216 0.83905 1.13188
 C834 C 0.26309 0.85613 1.13586
 C835 C 0.26074 0.88765 1.12440
 C836 C 0.28708 0.90210 1.10895
 C837 C 0.34407 0.90029 1.08987
 C838 C 0.34101 0.93153 1.07803
 C839 C 0.36766 0.94607 1.06326
 C840 C 0.39745 0.92988 1.06083
 C841 C 0.40018 0.89857 1.07294
 C842 C 0.37341 0.88354 1.08725
 C843 C 0.28500 0.93334 1.09684
 C844 C 0.31148 0.94776 1.08150
 C845 C 0.34852 0.83735 1.11359
 C846 C 0.37534 0.85216 1.09910
 H847 H 0.26272 0.94676 1.09923
 H848 H 0.30888 0.97191 1.07250
 H849 H 0.35105 0.81312 1.12237
 H850 H 0.39778 0.83892 1.09715
 H851 H 0.29401 0.81481 1.14085
 H852 H 0.23825 0.90069 1.12719
 H853 H 0.36538 0.97028 1.05429
 H854 H 0.42297 0.88590 1.07100
 C855 C 0.67954 1.11000 1.11671
 C856 C 0.67833 1.14321 1.12107
 C857 C 0.70483 1.15882 1.13529
 C858 C 0.73227 1.14136 1.14521
 C859 C 0.73295 1.10805 1.14068
 C860 C 0.70667 1.09226 1.12648
 C861 C 0.65195 1.09347 1.10149
 C862 C 0.65341 1.06032 1.09677
 C863 C 0.62748 1.04481 1.08157
 C864 C 0.60012 1.06211 1.07163
 C865 C 0.59860 1.09520 1.07723
 C866 C 0.62468 1.11111 1.09188
 C867 C 0.70701 1.05907 1.12182
 C868 C 0.68078 1.04338 1.10729
 C869 C 0.65061 1.16006 1.11117
 C870 C 0.62421 1.14428 1.09688
 H871 H 0.72773 1.04510 1.12945
 H872 H 0.68190 1.01778 1.10436
 H873 H 0.64933 1.18568 1.11446
 H874 H 0.60334 1.15817 1.08955
 H875 H 0.70400 1.18441 1.13900
 H876 H 0.75414 1.09449 1.14780
 H877 H 0.62832 1.01932 1.07789
 H878 H 0.57749 1.10859 1.06950
 C879 C 0.68596 0.89479 0.89199
 C880 C 0.68450 0.88634 0.85929
 C881 C 0.71147 0.87188 0.84497
 C882 C 0.73939 0.86532 0.86333
 C883 C 0.74034 0.87357 0.89614
 C884 C 0.71377 0.88865 0.91054
 C885 C 0.65783 0.91036 0.90708
 C886 C 0.65957 0.91941 0.93958
 C887 C 0.63285 0.93433 0.95378
 C888 C 0.60428 0.93954 0.93592
 C889 C 0.60281 0.93011 0.90343
 C890 C 0.62971 0.91579 0.88877
 C891 C 0.71450 0.89787 0.94305
 C892 C 0.68791 0.91314 0.95729
 C893 C 0.65608 0.89247 0.84165
 C894 C 0.62909 0.90679 0.85619
 H895 H 0.73584 0.89334 0.95759
 H896 H 0.68948 0.91994 0.98242
 H897 H 0.65464 0.88600 0.81644
 H898 H 0.60759 0.91092 0.84177
 H899 H 0.71072 0.86537 0.81972
 H900 H 0.76197 0.86876 0.91018
 H901 H 0.63402 0.94126 0.97891
 H902 H 0.58094 0.93426 0.88954
   
