data_POSCAR
  _audit_creation_date              2014-09-24
  _audit_creation_method            'ToBaCCo'
  _symmetry_space_group_name_H-M    'P1'
  _symmetry_Int_Tables_number       1
  _symmetry_cell_setting            triclinic
  loop_
  _symmetry_equiv_pos_as_xyz
 x,y,z
_cell_length_a 34.5440
_cell_length_b 34.5874
_cell_length_c 19.2228
_cell_angle_alpha 89.848000
_cell_angle_beta 90.076100
_cell_angle_gamma 120.037300
loop_
  _atom_site_label
  _atom_site_type_symbol
  _atom_site_fract_x
  _atom_site_fract_y
  _atom_site_fract_z
O1 O 0.55373 1.04423 0.56722
 O2 O 0.51111 0.95745 0.43183
 O3 O 0.55460 1.04436 0.43168
 O4 O 0.51023 0.95734 0.56731
 O5 O 0.44637 0.95729 0.56590
 O6 O 0.49079 1.04431 0.43027
 O7 O 0.44725 0.95740 0.43042
 O8 O 0.48987 1.04418 0.56581
 Cu9 Cu 0.53882 1.00086 0.49964
 Cu10 Cu 0.46218 1.00080 0.49795
 C11 C 0.52906 1.05901 0.58984
 C12 C 0.47190 0.94259 0.40786
 C13 C 0.53032 1.05927 0.40748
 C14 C 0.47071 0.94244 0.58993
 O15 O -0.04495 0.44604 0.43174
 O16 O 0.04205 0.48873 0.56726
 O17 O -0.04496 0.44529 0.56734
 O18 O 0.04205 0.48956 0.43180
 O19 O 0.04204 0.55331 0.43271
 O20 O -0.04497 0.50899 0.56822
 O21 O 0.04204 0.55248 0.56817
 O22 O -0.04497 0.50973 0.43263
 Cu23 Cu -0.00147 0.46102 0.49945
 Cu24 Cu -0.00149 0.53749 0.50052
 C25 C -0.05986 0.47057 0.40866
 C26 C 0.05692 0.52791 0.59101
 C27 C -0.05986 0.46955 0.59131
 C28 C 0.05692 0.52902 0.40896
 O29 O 0.51112 0.55366 0.56813
 O30 O 0.55373 0.50948 0.43275
 O31 O 0.51023 0.55289 0.43266
 O32 O 0.55459 0.51022 0.56829
 O33 O 0.49079 0.44648 0.56970
 O34 O 0.44637 0.48908 0.43407
 O35 O 0.48986 0.44567 0.43417
 O36 O 0.44725 0.48985 0.56955
 Cu37 Cu 0.53882 0.53794 0.50033
 Cu38 Cu 0.46218 0.46138 0.50202
 C39 C 0.47190 0.52931 0.59210
 C40 C 0.52906 0.47004 0.41014
 C41 C 0.47072 0.52827 0.41004
 C42 C 0.53031 0.47103 0.59249
 O43 O 0.39877 0.66862 -0.07954
 O44 O 0.40063 0.74403 -0.05906
 C45 C 0.37264 0.75022 -0.09301
 O46 O 0.33117 0.73007 -0.08005
 O47 O 0.25564 0.65648 -0.05894
 C48 C 0.24941 0.62231 -0.09265
 O49 O 0.26958 0.60105 -0.07955
 O50 O 0.34324 0.59924 -0.05843
 C51 C 0.37747 0.62720 -0.09233
 O52 O 0.40064 0.65662 0.05902
 O53 O 0.39877 0.73017 0.07951
 C54 C 0.37747 0.75028 0.09229
 O55 O 0.34323 0.74402 0.05840
 O56 O 0.26958 0.66854 0.07952
 C57 C 0.24942 0.62713 0.09262
 O58 O 0.25565 0.59919 0.05891
 O59 O 0.33118 0.60112 0.08001
 C60 C 0.37264 0.62243 0.09298
 Cr61 Cr 0.39719 0.69860 -0.00002
 Cr62 Cr 0.30116 0.69853 -0.00026
 Cr63 Cr 0.30117 0.60266 0.00023
 O64 O 0.33317 0.66660 -0.00001
 O65 O 0.59953 0.34353 -0.05889
 O66 O 0.60143 0.27003 -0.07966
 C67 C 0.62277 0.24997 -0.09261
 O68 O 0.65697 0.25615 -0.05868
 O69 O 0.73062 0.33161 -0.07960
 C70 C 0.75071 0.37301 -0.09276
 O71 O 0.74451 0.40095 -0.05897
 O72 O 0.66898 0.39904 -0.07987
 C73 C 0.62752 0.37773 -0.09282
 O74 O 0.60143 0.33138 0.07963
 O75 O 0.59953 0.25598 0.05886
 C76 C 0.62752 0.24976 0.09279
 O77 O 0.66898 0.26992 0.07984
 O78 O 0.74451 0.34353 0.05894
 C79 C 0.75071 0.37766 0.09273
 O80 O 0.73062 0.39898 0.07956
 O81 O 0.65696 0.40079 0.05865
 C82 C 0.62276 0.37277 0.09258
 Cr83 Cr 0.60299 0.30148 -0.00001
 Cr84 Cr 0.69902 0.30156 0.00012
 Cr85 Cr 0.69901 0.39743 -0.00015
 O86 O 0.66701 0.33349 -0.00001
 C87 C 0.41973 0.84254 -0.24932
 C88 C 0.46305 0.85876 -0.27499
 C89 C 0.47961 0.89112 -0.32754
 C90 C 0.45300 0.90771 -0.35510
 C91 C 0.40940 0.89104 -0.32912
 C92 C 0.39292 0.85868 -0.27657
 C93 C 0.40298 0.80973 -0.19451
 C94 C 0.38906 0.78245 -0.14831
 H95 H 0.48410 0.84651 -0.25422
 H96 H 0.51330 0.90324 -0.34636
 H97 H 0.38805 0.90309 -0.34918
 H98 H 0.35934 0.84636 -0.25703
 C99 C 0.15692 0.57694 -0.24856
 C100 C 0.14071 0.60400 -0.27443
 C101 C 0.10831 0.58816 -0.32686
 C102 C 0.09167 0.54495 -0.35410
 C103 C 0.10834 0.51808 -0.32792
 C104 C 0.14074 0.53401 -0.27549
 C105 C 0.18979 0.59305 -0.19389
 C106 C 0.21713 0.60645 -0.14780
 H107 H 0.15300 0.63728 -0.25390
 H108 H 0.09619 0.60968 -0.34584
 H109 H 0.09624 0.48469 -0.34774
 H110 H 0.15305 0.51278 -0.25579
 C111 C 0.42288 0.58016 -0.24781
 C112 C 0.39576 0.53689 -0.27336
 C113 C 0.41161 0.52036 -0.32567
 C114 C 0.45487 0.54697 -0.35310
 C115 C 0.48180 0.59051 -0.32723
 C116 C 0.46587 0.60695 -0.27492
 C117 C 0.40676 0.59690 -0.19329
 C118 C 0.39334 0.61080 -0.14733
 H119 H 0.36243 0.51586 -0.25269
 H120 H 0.39003 0.48672 -0.34441
 H121 H 0.51524 0.61185 -0.34720
 H122 H 0.48715 0.64050 -0.25547
 C123 C 0.57775 0.15823 -0.24910
 C124 C 0.53482 0.14216 -0.27642
 C125 C 0.51902 0.11004 -0.32910
 C126 C 0.54602 0.09355 -0.35514
 C127 C 0.58922 0.11009 -0.32753
 C128 C 0.60493 0.14221 -0.27486
 C129 C 0.59372 0.19080 -0.19417
 C130 C 0.60702 0.21791 -0.14791
 H131 H 0.51349 0.15433 -0.25682
 H132 H 0.48562 0.09802 -0.34919
 H133 H 0.61084 0.09810 -0.34640
 H134 H 0.63822 0.15441 -0.25404
 C135 C 0.84248 0.41983 -0.24972
 C136 C 0.85851 0.39301 -0.27682
 C137 C 0.89063 0.40929 -0.32967
 C138 C 0.90732 0.45285 -0.35630
 C139 C 0.89063 0.47941 -0.32872
 C140 C 0.85851 0.46297 -0.27587
 C141 C 0.80992 0.40323 -0.19460
 C142 C 0.78281 0.38941 -0.14819
 H143 H 0.84631 0.35954 -0.25691
 H144 H 0.90246 0.38772 -0.34932
 H145 H 0.90245 0.51303 -0.34761
 H146 H 0.84631 0.48401 -0.25521
 C147 C 0.58043 0.42295 -0.24918
 C148 C 0.53715 0.39585 -0.27489
 C149 C 0.52057 0.41160 -0.32748
 C150 C 0.54712 0.45490 -0.35525
 C151 C 0.59080 0.48176 -0.32904
 C152 C 0.60722 0.46586 -0.27644
 C153 C 0.59717 0.40690 -0.19433
 C154 C 0.61109 0.39354 -0.14811
 H155 H 0.51612 0.36256 -0.25410
 H156 H 0.48685 0.38981 -0.34606
 H157 H 0.61237 0.51520 -0.34884
 H158 H 0.64080 0.48712 -0.25686
 C159 C 0.84249 0.42263 0.24968
 C160 C 0.85850 0.46547 0.27679
 C161 C 0.89062 0.48131 0.32964
 C162 C 0.90732 0.45445 0.35626
 C163 C 0.89065 0.41121 0.32867
 C164 C 0.85853 0.39552 0.27583
 C165 C 0.80992 0.40665 0.19456
 C166 C 0.78281 0.39337 0.14815
 H167 H 0.84628 0.48673 0.25688
 H168 H 0.90243 0.51471 0.34929
 H169 H 0.90249 0.38942 0.34757
 H170 H 0.84634 0.36228 0.25517
 C171 C 0.58044 0.15746 0.24915
 C172 C 0.53716 0.14129 0.27487
 C173 C 0.52057 0.10897 0.32746
 C174 C 0.54713 0.09222 0.35522
 C175 C 0.59080 0.10902 0.32900
 C176 C 0.60723 0.14134 0.27641
 C177 C 0.59718 0.19025 0.19430
 C178 C 0.61109 0.21753 0.14808
 H179 H 0.51613 0.15356 0.25408
 H180 H 0.48686 0.09706 0.34604
 H181 H 0.61237 0.09714 0.34880
 H182 H 0.64080 0.15365 0.25682
 C183 C 0.57774 0.41950 0.24907
 C184 C 0.60493 0.46270 0.27483
 C185 C 0.58922 0.47911 0.32750
 C186 C 0.54601 0.45245 0.35511
 C187 C 0.51902 0.40897 0.32907
 C188 C 0.53482 0.39264 0.27639
 C189 C 0.59371 0.40289 0.19414
 C190 C 0.60701 0.38909 0.14788
 H191 H 0.63821 0.48378 0.25401
 H192 H 0.61084 0.51271 0.34637
 H193 H 0.48562 0.38759 0.34917
 H194 H 0.51349 0.35915 0.25679
 C195 C 0.15693 0.58000 0.24854
 C196 C 0.14073 0.53674 0.27441
 C197 C 0.10833 0.52017 0.32684
 C198 C 0.09167 0.54673 0.35407
 C199 C 0.10832 0.59026 0.32789
 C200 C 0.14073 0.60674 0.27546
 C201 C 0.18980 0.59677 0.19386
 C202 C 0.21713 0.61070 0.14778
 H203 H 0.15303 0.51575 0.25389
 H204 H 0.09623 0.48654 0.34583
 H205 H 0.09622 0.61155 0.34770
 H206 H 0.15302 0.64027 0.25576
 C207 C 0.42287 0.84272 0.24777
 C208 C 0.46587 0.85892 0.27489
 C209 C 0.48180 0.89129 0.32720
 C210 C 0.45487 0.90790 0.35306
 C211 C 0.41161 0.89126 0.32563
 C212 C 0.39576 0.85889 0.27332
 C213 C 0.40675 0.80987 0.19325
 C214 C 0.39333 0.78255 0.14730
 H215 H 0.48714 0.84665 0.25544
 H216 H 0.51524 0.90338 0.34717
 H217 H 0.39003 0.90333 0.34437
 H218 H 0.36243 0.84659 0.25265
 C219 C 0.41974 0.57720 0.24929
 C220 C 0.39293 0.53426 0.27653
 C221 C 0.40940 0.51837 0.32908
 C222 C 0.45300 0.54528 0.35506
 C223 C 0.47962 0.58850 0.32751
 C224 C 0.46306 0.60430 0.27497
 C225 C 0.40299 0.59326 0.19448
 C226 C 0.38907 0.60662 0.14827
 H227 H 0.35935 0.51299 0.25698
 H228 H 0.38806 0.48496 0.34914
 H229 H 0.51330 0.61006 0.34634
 H230 H 0.48410 0.63759 0.25419
   
