data_POSCAR
  _audit_creation_date              2014-09-24
  _audit_creation_method            'ToBaCCo'
  _symmetry_space_group_name_H-M    'P1'
  _symmetry_Int_Tables_number       1
  _symmetry_cell_setting            triclinic
  loop_
  _symmetry_equiv_pos_as_xyz
 x,y,z
_cell_length_a 37.4401
_cell_length_b 37.5301
_cell_length_c 14.2072
_cell_angle_alpha 89.900600
_cell_angle_beta 90.099300
_cell_angle_gamma 120.006200
loop_
  _atom_site_label
  _atom_site_type_symbol
  _atom_site_fract_x
  _atom_site_fract_y
  _atom_site_fract_z
C1 C 0.14801 0.44963 0.41436
 C2 C 0.13007 0.45009 0.50003
 C3 C 0.14819 0.44990 0.58588
 C4 C 0.18516 0.44843 0.58724
 C5 C 0.20355 0.44741 0.50059
 C6 C 0.18496 0.44808 0.41361
 C7 C 0.20411 0.44777 0.32881
 C8 C 0.24103 0.44722 0.32912
 C9 C 0.26009 0.44698 0.41420
 C10 C 0.24118 0.44689 0.50087
 C11 C 0.20452 0.44854 0.67232
 C12 C 0.24151 0.44809 0.67255
 C13 C 0.26046 0.44746 0.58772
 C14 C 0.29851 0.44800 0.58666
 C15 C 0.31636 0.44758 0.50080
 C16 C 0.29799 0.44748 0.41528
 H17 H 0.19070 0.44810 0.26144
 H18 H 0.25465 0.44715 0.26200
 H19 H 0.19122 0.44916 0.73950
 H20 H 0.25529 0.44839 0.73984
 H21 H 0.10201 0.45200 0.49990
 H22 H 0.34600 0.44880 0.50027
 C23 C 0.55152 -0.15091 0.58588
 C24 C 0.55160 -0.13263 0.50031
 C25 C 0.55168 -0.15064 0.41461
 C26 C 0.55246 -0.18781 0.41322
 C27 C 0.55288 -0.20661 0.49978
 C28 C 0.55233 -0.18811 0.58668
 C29 C 0.55200 -0.20757 0.67146
 C30 C 0.55183 -0.24477 0.67119
 C31 C 0.55196 -0.26384 0.58606
 C32 C 0.55267 -0.24451 0.49941
 C33 C 0.55221 -0.20693 0.32807
 C34 C 0.55197 -0.24416 0.32764
 C35 C 0.55200 -0.26357 0.41240
 C36 C 0.55078 -0.30183 0.41312
 C37 C 0.55061 -0.32017 0.49881
 C38 C 0.55077 -0.30205 0.58467
 H39 H 0.55171 -0.19418 0.73871
 H40 H 0.55144 -0.25865 0.73836
 H41 H 0.55202 -0.19326 0.26102
 H42 H 0.55162 -0.25778 0.26025
 H43 H 0.55017 -0.10442 0.50038
 H44 H 0.54892 -0.34997 0.49868
 C45 C 1.14931 0.70164 0.58651
 C46 C 1.13111 0.68372 0.50058
 C47 C 1.14934 0.70207 0.41512
 C48 C 1.18660 0.74001 0.41417
 C49 C 1.20534 0.75898 0.50090
 C50 C 1.18668 0.73973 0.58769
 C51 C 1.20618 0.75875 0.67260
 C52 C 1.24350 0.79578 0.67251
 C53 C 1.26269 0.81512 0.58751
 C54 C 1.24337 0.79667 0.50077
 C55 C 1.20588 0.75906 0.32916
 C56 C 1.24322 0.79602 0.32900
 C57 C 1.26259 0.81524 0.41388
 C58 C 1.30098 0.85224 0.41479
 C59 C 1.31930 0.87024 0.50055
 C60 C 1.30103 0.85214 0.58632
 H61 H 1.19273 0.74499 0.73984
 H62 H 1.25735 0.80913 0.73975
 H63 H 1.19225 0.74539 0.26199
 H64 H 1.25694 0.80942 0.26169
 H65 H 1.10280 0.65406 0.49996
 H66 H 1.34920 0.89833 0.50056
 C67 C 0.85102 0.55246 0.41584
 C68 C 0.86933 0.55232 0.50125
 C69 C 0.85120 0.55205 0.58725
 C70 C 0.81380 0.55271 0.58887
 C71 C 0.79504 0.55336 0.50232
 C72 C 0.81370 0.55317 0.41531
 C73 C 0.79428 0.55306 0.33055
 C74 C 0.75695 0.55279 0.33090
 C75 C 0.73778 0.55259 0.41602
 C76 C 0.75700 0.55305 0.50268
 C77 C 0.79436 0.55213 0.67402
 C78 C 0.75697 0.55179 0.67436
 C79 C 0.73766 0.55204 0.58958
 C80 C 0.69924 0.55074 0.58857
 C81 C 0.68106 0.55078 0.50272
 C82 C 0.69950 0.55129 0.41717
 H83 H 0.80780 0.55305 0.26324
 H84 H 0.74309 0.55259 0.26379
 H85 H 0.80793 0.55176 0.74113
 H86 H 0.74314 0.55117 0.74168
 H87 H 0.89769 0.55100 0.50057
 H88 H 0.65117 0.54900 0.50223
 C89 C 0.44816 0.29816 0.41520
 C90 C 0.44827 0.31632 0.50079
 C91 C 0.44826 0.29814 0.58649
 C92 C 0.44739 0.26014 0.58785
 C93 C 0.44678 0.24098 0.50124
 C94 C 0.44724 0.26010 0.41436
 C95 C 0.44738 0.24101 0.32952
 C96 C 0.44741 0.20390 0.32974
 C97 C 0.44735 0.18468 0.41482
 C98 C 0.44686 0.20324 0.50151
 C99 C 0.44774 0.24116 0.67294
 C100 C 0.44787 0.20409 0.67324
 C101 C 0.44762 0.18470 0.58840
 C102 C 0.44871 0.14757 0.58736
 C103 C 0.44866 0.12952 0.50149
 C104 C 0.44839 0.14765 0.41593
 H105 H 0.44760 0.25475 0.26228
 H106 H 0.44765 0.19041 0.26260
 H107 H 0.44809 0.25498 0.74002
 H108 H 0.44831 0.19073 0.74055
 H109 H 0.44975 0.34599 0.50072
 H110 H 0.45027 0.10139 0.50101
 C111 C 0.70180 0.15009 0.41537
 C112 C 0.68360 0.13198 0.50103
 C113 C 0.70174 0.15022 0.58666
 C114 C 0.73973 0.18748 0.58789
 C115 C 0.75892 0.20608 0.50122
 C116 C 0.73984 0.18734 0.41440
 C117 C 0.75896 0.20660 0.32948
 C118 C 0.79604 0.24385 0.32956
 C119 C 0.81522 0.26308 0.41456
 C120 C 0.79664 0.24401 0.50133
 C121 C 0.75866 0.20689 0.67290
 C122 C 0.79572 0.24421 0.67305
 C123 C 0.81513 0.26338 0.58814
 C124 C 0.85224 0.30170 0.58692
 C125 C 0.87031 0.31974 0.50097
 C126 C 0.85222 0.30126 0.41550
 H127 H 0.74525 0.19302 0.26230
 H128 H 0.80955 0.25760 0.26236
 H129 H 0.74481 0.19338 0.74003
 H130 H 0.80904 0.25806 0.74030
 H131 H 0.65394 0.10371 0.50104
 H132 H 0.89843 0.34956 0.50034
 N133 N 0.95716 0.54369 0.10041
 N134 N 0.93124 0.55636 0.12516
 N135 N 1.04393 0.56159 0.16352
 N136 N 1.06993 0.58197 0.23196
 N137 N 1.04377 0.58708 0.10024
 N138 N 1.06957 0.62565 0.12479
 N139 N 0.95723 0.51813 0.16365
 N140 N 0.93129 0.51250 0.23223
 C141 C 0.91471 0.53572 0.20642
 C142 C 1.08627 0.62166 0.20594
 N143 N 1.04429 0.45969 0.10094
 N144 N 1.06995 0.44675 0.12638
 N145 N 0.95756 0.44180 0.16371
 N146 N 0.93156 0.42141 0.23210
 N147 N 0.95768 0.41632 0.10058
 N148 N 0.93186 0.37774 0.12519
 N149 N 1.04425 0.48526 0.16398
 N150 N 1.06999 0.49064 0.23303
 Mn151 Mn 1.00074 0.50170 0.16408
 C152 C 1.08641 0.46726 0.20778
 C153 C 0.91519 0.38172 0.20621
 N154 N 1.04375 0.58717 -0.10385
 N155 N 1.06971 0.62576 -0.12828
 N156 N 0.95712 0.51814 -0.16687
 N157 N 0.93082 0.51223 -0.23495
 N158 N 0.95710 0.54364 -0.10366
 N159 N 0.93087 0.55601 -0.12786
 N160 N 1.04386 0.56169 -0.16705
 N161 N 1.06997 0.58214 -0.23531
 Mn162 Mn 1.00045 0.56578 -0.00173
 C163 C 1.08646 0.62185 -0.20932
 C164 C 0.91411 0.53524 -0.20876
 N165 N 0.95755 0.41624 -0.10347
 N166 N 0.93163 0.37765 -0.12781
 N167 N 1.04410 0.48526 -0.16668
 N168 N 1.07007 0.49089 -0.23516
 N169 N 1.04419 0.45975 -0.10332
 N170 N 1.07011 0.44709 -0.12789
 N171 N 0.95738 0.44171 -0.16682
 N172 N 0.93125 0.42126 -0.23511
 Mn173 Mn 1.00093 0.43763 -0.00133
 Mn174 Mn 1.00061 0.50170 -0.16728
 Cl175 Cl 1.00069 0.50170 -0.00157
 C176 C 0.91483 0.38154 -0.20896
 C177 C 1.08665 0.46771 -0.20911
 N178 N 0.45644 0.41367 0.10160
 N179 N 0.44397 0.37512 0.12595
 N180 N 0.43864 0.48243 0.16400
 N181 N 0.41823 0.48802 0.23227
 N182 N 0.41308 0.45682 0.10078
 N183 N 0.37442 0.44404 0.12523
 N184 N 0.48202 0.43922 0.16486
 N185 N 0.48785 0.41888 0.23317
 C186 C 0.46472 0.37916 0.20708
 C187 C 0.37845 0.46469 0.20623
 N188 N 0.54088 0.58459 0.10102
 N189 N 0.55381 0.62314 0.12599
 N190 N 0.55864 0.51584 0.16476
 N191 N 0.57902 0.51032 0.23346
 N192 N 0.58424 0.54145 0.10159
 N193 N 0.62288 0.55428 0.12645
 N194 N 0.51523 0.55901 0.16420
 N195 N 0.50978 0.57935 0.23287
 Mn196 Mn 0.49863 0.49912 0.16484
 C197 C 0.53321 0.61910 0.20723
 C198 C 0.61882 0.53367 0.20770
 N199 N 0.41310 0.45673 -0.10333
 N200 N 0.37445 0.44418 -0.12782
 N201 N 0.48220 0.43911 -0.16552
 N202 N 0.48821 0.41871 -0.23308
 N203 N 0.45655 0.41364 -0.10223
 N204 N 0.44420 0.37509 -0.12579
 N205 N 0.43870 0.48223 -0.16668
 N206 N 0.41828 0.48792 -0.23512
 Mn207 Mn 0.43440 0.43484 -0.00081
 C208 C 0.37846 0.46480 -0.20909
 C209 C 0.46510 0.37905 -0.20642
 N210 N 0.58444 0.54136 -0.10245
 N211 N 0.62313 0.55402 -0.12656
 N212 N 0.51540 0.55880 -0.16657
 N213 N 0.50986 0.57907 -0.23542
 N214 N 0.54096 0.58440 -0.10331
 N215 N 0.55374 0.62292 -0.12833
 N216 N 0.55893 0.51571 -0.16571
 N217 N 0.57945 0.51004 -0.23371
 Mn218 Mn 0.56300 0.56333 -0.00080
 Mn219 Mn 0.49881 0.49896 -0.16655
 Cl220 Cl 0.49871 0.49908 -0.00084
 C221 C 0.61925 0.53332 -0.20746
 C222 C 0.53314 0.61879 -0.20972
 N223 N 0.41482 -0.04414 0.10204
 N224 N 0.37618 -0.06976 0.12725
 N225 N 0.48368 0.04236 0.16501
 N226 N 0.48929 0.06832 0.23332
 N227 N 0.45801 0.04226 0.10168
 N228 N 0.44522 0.06806 0.12606
 N229 N 0.44049 -0.04412 0.16527
 N230 N 0.42015 -0.06982 0.23424
 C231 C 0.38029 -0.08620 0.20873
 C232 C 0.46592 0.08469 0.20716
 N233 N 0.58613 0.04270 0.10218
 N234 N 0.62477 0.06884 0.12643
 N235 N 0.51732 -0.04386 0.16524
 N236 N 0.51149 -0.07011 0.23322
 N237 N 0.54295 -0.04373 0.10200
 N238 N 0.55548 -0.06980 0.12602
 N239 N 0.56053 0.04265 0.16537
 N240 N 0.58090 0.06882 0.23350
 Mn241 Mn 0.50051 -0.00075 0.16563
 C242 C 0.62072 0.08550 0.20740
 C243 C 0.53469 -0.08661 0.20689
 N244 N 0.45798 0.04239 -0.10243
 N245 N 0.44523 0.06826 -0.12698
 N246 N 0.44053 -0.04397 -0.16547
 N247 N 0.42018 -0.06985 -0.23401
 N248 N 0.41489 -0.04404 -0.10229
 N249 N 0.37626 -0.06988 -0.12707
 N250 N 0.48365 0.04254 -0.16560
 N251 N 0.48928 0.06860 -0.23395
 Mn252 Mn 0.43604 -0.00089 -0.00026
 C253 C 0.46593 0.08501 -0.20805
 C254 C 0.38036 -0.08638 -0.20821
 N255 N 0.54297 -0.04370 -0.10187
 N256 N 0.55549 -0.06979 -0.12573
 N257 N 0.56049 0.04274 -0.16512
 N258 N 0.58088 0.06914 -0.23287
 N259 N 0.58606 0.04275 -0.10167
 N260 N 0.62469 0.06907 -0.12530
 N261 N 0.51735 -0.04379 -0.16531
 N262 N 0.51154 -0.07000 -0.23325
 Mn263 Mn 0.56491 -0.00050 0.00015
 Mn264 Mn 0.50051 -0.00062 -0.16581
 Cl265 Cl 0.50047 -0.00070 -0.00008
 C266 C 0.53474 -0.08656 -0.20675
 C267 C 0.62065 0.08588 -0.20616
 C268 C 1.12971 0.45384 0.33488
 C269 C 1.11119 0.45910 0.27182
 C270 C 0.54658 0.67576 0.33370
 C271 C 0.54134 0.65203 0.27086
 C272 C 0.32352 -0.12947 0.33545
 C273 C 0.34732 -0.11096 0.27256
 C274 C 0.87057 0.54847 0.33194
 C275 C 0.88949 0.54349 0.26964
 C276 C 0.45223 0.32195 0.33162
 C277 C 0.45716 0.34606 0.26978
 C278 C 0.67801 0.13031 0.33182
 C279 C 0.65389 0.11109 0.27001
 C280 C 0.45289 0.12909 -0.33352
 C281 C 0.45803 0.11025 -0.27113
 C282 C 0.67655 0.54642 -0.33236
 C283 C 0.65248 0.54121 -0.27018
 C284 C 0.87070 0.32441 -0.33410
 C285 C 0.88956 0.34842 -0.27187
 C286 C 0.54735 -0.13130 -0.33061
 C287 C 0.54235 -0.11214 -0.26901
 C288 C 0.32124 0.45208 -0.33431
 C289 C 0.34528 0.45710 -0.27205
 C290 C 1.13075 0.67897 -0.33448
 C291 C 1.11181 0.65497 -0.27223
 C292 C 0.86982 0.54797 -0.33392
 C293 C 0.88874 0.54294 -0.27162
 C294 C 0.45244 0.32188 -0.33021
 C295 C 0.45747 0.34595 -0.26858
 C296 C 0.67793 0.13059 -0.33001
 C297 C 0.65380 0.11146 -0.26837
 C298 C 1.12999 0.45429 -0.33507
 C299 C 1.11151 0.45962 -0.27245
 C300 C 0.54653 0.67539 -0.33622
 C301 C 0.54126 0.65165 -0.27340
 C302 C 0.32358 -0.12965 -0.33449
 C303 C 0.34739 -0.11118 -0.27172
 C304 C 0.54753 -0.13097 0.33127
 C305 C 0.54246 -0.11196 0.26943
 C306 C 0.32157 0.45154 0.33163
 C307 C 0.34544 0.45667 0.26932
 C308 C 1.12990 0.67848 0.33144
 C309 C 1.11120 0.65461 0.26911
 C310 C 0.45265 0.12829 0.33234
 C311 C 0.45788 0.10962 0.27015
 C312 C 0.67576 0.54702 0.33353
 C313 C 0.65181 0.54176 0.27111
 C314 C 0.87159 0.32487 0.33177
 C315 C 0.89026 0.34876 0.26941
   
