data_POSCAR
  _audit_creation_date              2014-09-24
  _audit_creation_method            'ToBaCCo'
  _symmetry_space_group_name_H-M    'P1'
  _symmetry_Int_Tables_number       1
  _symmetry_cell_setting            triclinic
  loop_
  _symmetry_equiv_pos_as_xyz
 x,y,z
_cell_length_a 42.1595
_cell_length_b 40.1970
_cell_length_c 42.3310
_cell_angle_alpha 88.725200
_cell_angle_beta 93.024700
_cell_angle_gamma 86.337300
loop_
  _atom_site_label
  _atom_site_type_symbol
  _atom_site_fract_x
  _atom_site_fract_y
  _atom_site_fract_z
N1 N 0.58378 0.64406 0.56981
 N2 N 0.56757 0.63149 0.59258
 C3 C 0.54262 0.65283 0.59796
 C4 C 0.54291 0.67999 0.57735
 C5 C 0.56926 0.67351 0.55978
 H6 H 0.52560 0.64896 0.61570
 H7 H 0.57766 0.68954 0.54160
 Cu8 Cu 0.58036 0.58890 0.61505
 Cu9 Cu 0.62322 0.62183 0.55514
 Cu10 Cu 0.64659 0.54855 0.59148
 N11 N 0.60356 0.55397 0.64114
 N12 N 0.63009 0.53891 0.63241
 C13 C 0.64149 0.51689 0.65527
 C14 C 0.62066 0.51774 0.67970
 C15 C 0.59672 0.54163 0.66960
 H16 H 0.66304 0.50108 0.65371
 H17 H 0.57619 0.55019 0.68214
 N18 N 0.67003 0.56653 0.55757
 N19 N 0.66135 0.59564 0.54401
 C20 C 0.68234 0.60272 0.52235
 C21 C 0.70540 0.57656 0.52226
 C22 C 0.69674 0.55399 0.54493
 H23 H 0.68075 0.62511 0.50757
 H24 H 0.70933 0.53059 0.55229
 H25 H 0.59920 0.58273 0.57069
 H26 H 0.62327 0.60380 0.60153
 N27 N 0.90766 0.32821 0.11035
 N28 N 0.92213 0.34547 0.13209
 C29 C 0.95213 0.33230 0.13761
 C30 C 0.95692 0.30533 0.11798
 C31 C 0.92795 0.30367 0.10100
 H32 H 0.96918 0.34202 0.15436
 H33 H 0.92154 0.28550 0.08375
 Cu34 Cu 0.90010 0.38348 0.15090
 Cu35 Cu 0.86284 0.33732 0.09758
 Cu36 Cu 0.83169 0.41608 0.11596
 N37 N 0.87484 0.41876 0.17047
 N38 N 0.84808 0.43160 0.15657
 C39 C 0.83608 0.45634 0.17419
 C40 C 0.85638 0.45917 0.20070
 C41 C 0.88075 0.43484 0.19749
 H42 H 0.81448 0.47149 0.16777
 H43 H 0.90129 0.42926 0.21354
 N44 N 0.81140 0.38813 0.08414
 N45 N 0.82260 0.35767 0.07809
 C46 C 0.80279 0.34444 0.05655
 C47 C 0.77782 0.36769 0.04861
 C48 C 0.78413 0.39513 0.06658
 H49 H 0.80656 0.31987 0.04702
 H50 H 0.76957 0.41820 0.06746
 H51 H 0.87013 0.38645 0.09971
 H52 H 0.84691 0.36992 0.13224
 N53 N 0.40831 0.17133 -0.10779
 N54 N 0.42022 0.15562 -0.13181
 C55 C 0.44187 0.17421 -0.14468
 C56 C 0.44384 0.20313 -0.12769
 C57 C 0.42221 0.20036 -0.10437
 H58 H 0.45528 0.16706 -0.16480
 H59 H 0.41667 0.21832 -0.08650
 Cu60 Cu 0.40616 0.11267 -0.14453
 Cu61 Cu 0.37573 0.15286 -0.08284
 Cu62 Cu 0.34783 0.07784 -0.10747
 N63 N 0.38227 0.07809 -0.16401
 N64 N 0.35874 0.06522 -0.14985
 C65 C 0.34628 0.04206 -0.16840
 C66 C 0.36305 0.04020 -0.19563
 C67 C 0.38577 0.06343 -0.19200
 H68 H 0.32702 0.02708 -0.16214
 H69 H 0.40339 0.06938 -0.20854
 N70 N 0.33291 0.10084 -0.06995
 N71 N 0.34304 0.12968 -0.06082
 C72 C 0.32822 0.13889 -0.03466
 C73 C 0.30783 0.11464 -0.02690
 C74 C 0.31145 0.09093 -0.04988
 H75 H 0.33243 0.16128 -0.02184
 H76 H 0.29914 0.06825 -0.05207
 H77 H 0.38671 0.10377 -0.09149
 H78 H 0.35648 0.12591 -0.11956
 N79 N 0.08488 0.83019 0.38326
 N80 N 0.07594 0.84390 0.35551
 C81 C 0.05383 0.82572 0.34135
 C82 C 0.04804 0.79933 0.36160
 C83 C 0.06830 0.80321 0.38809
 H84 H 0.04206 0.83212 0.31853
 H85 H 0.07125 0.78756 0.40927
 Cu86 Cu 0.09191 0.88600 0.34225
 Cu87 Cu 0.11711 0.84889 0.41108
 Cu88 Cu 0.16258 0.90563 0.37355
 N89 N 0.11126 0.92609 0.32869
 N90 N 0.13917 0.93362 0.34078
 C91 C 0.14747 0.96190 0.32669
 C92 C 0.12321 0.97293 0.30483
 C93 C 0.10064 0.94949 0.30679
 H94 H 0.16935 0.97371 0.33228
 H95 H 0.07837 0.94920 0.29296
 N96 N 0.17622 0.88274 0.41416
 N97 N 0.15878 0.86147 0.42848
 C98 C 0.17465 0.84970 0.45524
 C99 C 0.20334 0.86455 0.45814
 C100 C 0.20346 0.88548 0.43173
 H101 H 0.16596 0.83159 0.47138
 H102 H 0.22223 0.90110 0.42549
 H103 H 0.12053 0.89733 0.39218
 H104 H 0.13913 0.86114 0.37151
 N105 N 0.16775 0.16943 0.15848
 N106 N 0.38984 0.87993 0.62152
 N107 N 0.89264 0.61738 0.38424
 N108 N 0.58530 0.40091 -0.11009
 C109 C 0.01036 0.28509 0.13874
 C110 C 0.03753 0.26317 0.13738
 C111 C 0.03974 0.24050 0.11244
 C112 C 0.01456 0.23974 0.08962
 C113 C -0.01275 0.26097 0.09157
 C114 C -0.01532 0.28406 0.11606
 C115 C 0.06685 0.21860 0.11094
 C116 C 0.09138 0.21836 0.13464
 C117 C 0.08892 0.24054 0.16003
 C118 C 0.06223 0.26314 0.16097
 C119 C 0.11295 0.23927 0.18435
 C120 C 0.13894 0.21595 0.18374
 C121 C 0.14164 0.19424 0.15845
 C122 C 0.11803 0.19572 0.13379
 H123 H 0.00906 0.30212 0.15814
 H124 H 0.01584 0.22247 0.07036
 H125 H -0.03155 0.25944 0.07338
 H126 H 0.06857 0.20132 0.09169
 H127 H 0.06042 0.28025 0.18035
 H128 H 0.11137 0.25592 0.20407
 H129 H 0.15705 0.21476 0.20291
 H130 H 0.12008 0.17847 0.11457
 C131 C 0.50474 0.72061 0.60206
 C132 C 0.48439 0.74970 0.60051
 C133 C 0.47938 0.76818 0.57166
 C134 C 0.49509 0.75742 0.54498
 C135 C 0.51575 0.72877 0.54689
 C136 C 0.52071 0.71008 0.57536
 C137 C 0.45901 0.79724 0.57002
 C138 C 0.44408 0.80843 0.59702
 C139 C 0.44949 0.79021 0.62600
 C140 C 0.46936 0.76082 0.62749
 C141 C 0.43511 0.80188 0.65312
 C142 C 0.41567 0.83139 0.65160
 C143 C 0.40993 0.84948 0.62290
 C144 C 0.42409 0.83778 0.59563
 H145 H 0.50873 0.70665 0.62426
 H146 H 0.49157 0.77128 0.52269
 H147 H 0.52761 0.72104 0.52594
 H148 H 0.45508 0.81133 0.54785
 H149 H 0.47340 0.74681 0.64969
 H150 H 0.43904 0.78829 0.67552
 H151 H 0.40477 0.84003 0.67278
 H152 H 0.41991 0.85191 0.57353
 C153 C 1.01872 0.75312 0.38165
 C154 C 0.99586 0.72952 0.37707
 C155 C 0.98045 0.72666 0.34689
 C156 C 0.98783 0.74774 0.32195
 C157 C 1.01002 0.77171 0.32683
 C158 C 1.02589 0.77480 0.35670
 C159 C 0.95765 0.70306 0.34219
 C160 C 0.94947 0.68283 0.36753
 C161 C 0.96443 0.68612 0.39791
 C162 C 0.98780 0.70914 0.40239
 C163 C 0.95548 0.66655 0.42340
 C164 C 0.93181 0.64409 0.41886
 C165 C 0.91716 0.64042 0.38873
 C166 C 0.92619 0.65970 0.36309
 H167 H 1.03008 0.75502 0.40501
 H168 H 0.97622 0.74591 0.29865
 H169 H 1.01490 0.78740 0.30682
 H170 H 0.94596 0.70078 0.31896
 H171 H 0.99936 0.71153 0.42567
 H172 H 0.96659 0.66883 0.44686
 H173 H 0.92498 0.62929 0.43878
 H174 H 0.91456 0.65704 0.33992
 C175 C 0.47210 0.25274 -0.10897
 C176 C 0.49222 0.27862 -0.11415
 C177 C 0.50466 0.28300 -0.14424
 C178 C 0.49687 0.26137 -0.16854
 C179 C 0.47713 0.23547 -0.16310
 C180 C 0.46455 0.23086 -0.13333
 C181 C 0.52487 0.30871 -0.14949
 C182 C 0.53318 0.32987 -0.12492
 C183 C 0.52092 0.32540 -0.09476
 C184 C 0.50036 0.29995 -0.08962
 C185 C 0.52972 0.34630 -0.07014
 C186 C 0.55070 0.37117 -0.07526
 C187 C 0.56300 0.37578 -0.10512
 C188 C 0.55393 0.35516 -0.12994
 H189 H 0.46287 0.24929 -0.08581
 H190 H 0.50617 0.26437 -0.19174
 H191 H 0.47148 0.21927 -0.18238
 H192 H 0.53439 0.31204 -0.17259
 H193 H 0.49095 0.29654 -0.06649
 H194 H 0.52058 0.34325 -0.04688
 H195 H 0.55735 0.38696 -0.05594
 H196 H 0.56364 0.35841 -0.15292
 C197 C 0.14937 0.01825 0.27610
 C198 C 0.14772 0.04608 0.25524
 C199 C 0.11778 0.05905 0.24215
 C200 C 0.09010 0.04407 0.25011
 C201 C 0.09198 0.01624 0.27058
 C202 C 0.12155 0.00296 0.28370
 C203 C 0.11596 0.08656 0.22107
 C204 C 0.14372 0.10112 0.21256
 C205 C 0.17370 0.08821 0.22554
 C206 C 0.17551 0.06088 0.24695
 C207 C 0.20139 0.10271 0.21660
 C208 C 0.19939 0.12948 0.19478
 C209 C 0.16971 0.14235 0.18165
 C210 C 0.14193 0.12814 0.19090
 H211 H 0.17236 0.00813 0.28581
 H212 H 0.06697 0.05374 0.24036
 H213 H 0.07013 0.00531 0.27629
 H214 H 0.09297 0.09643 0.21103
 H215 H 0.19851 0.05093 0.25688
 H216 H 0.22458 0.09319 0.22631
 H217 H 0.22103 0.14026 0.18809
 H218 H 0.11895 0.13768 0.18066
 C219 C 0.59792 0.49891 -0.27126
 C220 C 0.60043 0.47972 -0.24300
 C221 C 0.62897 0.46054 -0.23448
 C222 C 0.65424 0.46033 -0.25464
 C223 C 0.65137 0.47891 -0.28302
 C224 C 0.62329 0.49870 -0.29174
 C225 C 0.63175 0.44170 -0.20607
 C226 C 0.60607 0.44123 -0.18636
 C227 C 0.57720 0.45979 -0.19521
 C228 C 0.57468 0.47919 -0.22331
 C229 C 0.55126 0.45844 -0.17588
 C230 C 0.55390 0.43889 -0.14804
 C231 C 0.58262 0.42090 -0.13886
 C232 C 0.60867 0.42220 -0.15806
 H233 H 0.57582 0.51335 -0.27737
 H234 H 0.67626 0.44568 -0.24851
 H235 H 0.67161 0.47804 -0.29769
 H236 H 0.65377 0.42718 -0.19944
 H237 H 0.55262 0.49361 -0.22997
 H238 H 0.52892 0.47236 -0.18236
 H239 H 0.53367 0.43800 -0.13338
 H240 H 0.63070 0.40792 -0.15108
 C241 C 0.38415 1.00718 0.75973
 C242 C 0.38005 0.98486 0.73504
 C243 C 0.34960 0.97329 0.72773
 C244 C 0.32390 0.98393 0.74553
 C245 C 0.32834 1.00561 0.77049
 C246 C 0.35841 1.01750 0.77774
 C247 C 0.34541 0.95102 0.70304
 C248 C 0.37142 0.93957 0.68601
 C249 C 0.40199 0.95070 0.69368
 C250 C 0.40603 0.97355 0.71790
 C251 C 0.42811 0.93846 0.67722
 C252 C 0.42405 0.91520 0.65356
 C253 C 0.39378 0.90427 0.64562
 C254 C 0.36749 0.91671 0.66176
 H255 H 0.40754 1.01584 0.76542
 H256 H 0.30042 0.97527 0.74032
 H257 H 0.30812 1.01338 0.78391
 H258 H 0.32202 0.94226 0.69736
 H259 H 0.42946 0.98217 0.72368
 H260 H 0.45171 0.94662 0.68285
 H261 H 0.44448 0.90580 0.64122
 H262 H 0.34418 0.90794 0.65582
 C263 C 0.87983 0.49037 0.24602
 C264 C 0.87706 0.51384 0.26994
 C265 C 0.84721 0.53063 0.27446
 C266 C 0.82068 0.52368 0.25494
 C267 C 0.82369 0.50044 0.23105
 C268 C 0.85323 0.48355 0.22631
 C269 C 0.84438 0.55420 0.29828
 C270 C 0.87110 0.56136 0.31749
 C271 C 0.90099 0.54466 0.31287
 C272 C 0.90375 0.52094 0.28921
 C273 C 0.92769 0.55209 0.33192
 C274 C 0.92487 0.57590 0.35530
 C275 C 0.89529 0.59259 0.36018
 C276 C 0.86846 0.58515 0.34114
 H277 H 0.90285 0.47789 0.24249
 H278 H 0.79761 0.53628 0.25809
 H279 H 0.80273 0.49554 0.21647
 H280 H 0.82146 0.56706 0.30175
 H281 H 0.92669 0.50814 0.28570
 H282 H 0.95077 0.53954 0.32871
 H283 H 0.94577 0.58118 0.36982
 H284 H 0.84566 0.59823 0.34453
 C285 C 0.27870 0.14335 0.01611
 C286 C 0.25878 0.14273 0.04165
 C287 C 0.24712 0.11223 0.05165
 C288 C 0.25548 0.08295 0.03588
 C289 C 0.27513 0.08381 0.01037
 C290 C 0.28697 0.11394 0.00021
 C291 C 0.22721 0.11149 0.07714
 C292 C 0.21857 0.14092 0.09263
 C293 C 0.23007 0.17148 0.08253
 C294 C 0.25020 0.17217 0.05720
 C295 C 0.22104 0.20091 0.09783
 C296 C 0.20071 0.20011 0.12281
 C297 C 0.18928 0.16989 0.13312
 C298 C 0.19835 0.14034 0.11789
 H299 H 0.28732 0.16684 0.00840
 H300 H 0.24680 0.05935 0.04324
 H301 H 0.28131 0.06071 -0.00114
 H302 H 0.21830 0.08807 0.08480
 H303 H 0.25903 0.19561 0.04949
 H304 H 0.22958 0.22455 0.09039
 H305 H 0.19397 0.22311 0.13428
 H306 H 0.18918 0.11702 0.12541
 C307 C 0.74545 0.60226 0.48922
 C308 C 0.77226 0.59963 0.47092
 C309 C 0.78719 0.56789 0.46563
 C310 C 0.77517 0.53937 0.47896
 C311 C 0.74866 0.54224 0.49741
 C312 C 0.73349 0.57364 0.50266
 C313 C 0.81391 0.56517 0.44721
 C314 C 0.82607 0.59384 0.43427
 C315 C 0.81132 0.62562 0.43986
 C316 C 0.78445 0.62830 0.45802
 C317 C 0.82376 0.65425 0.42723
 C318 C 0.85052 0.65147 0.40916
 C319 C 0.86519 0.62004 0.40322
 C320 C 0.85284 0.59128 0.41590
 H321 H 0.73426 0.62667 0.49338
 H322 H 0.78631 0.51484 0.47516
 H323 H 0.73984 0.51976 0.50725
 H324 H 0.82528 0.54080 0.44307
 H325 H 0.77311 0.65267 0.46220
 H326 H 0.81279 0.67879 0.43130
 H327 H 0.85962 0.67388 0.39943
 H328 H 0.86431 0.56702 0.41162
 C329 C 0.73239 0.39197 0.01291
 C330 C 0.70638 0.38831 -0.00857
 C331 C 0.69786 0.35602 -0.01676
 C332 C 0.71560 0.32800 -0.00349
 C333 C 0.74159 0.33187 0.01764
 C334 C 0.75024 0.36381 0.02611
 C335 C 0.67187 0.35224 -0.03815
 C336 C 0.65444 0.38034 -0.05172
 C337 C 0.66311 0.41265 -0.04375
 C338 C 0.68892 0.41643 -0.02212
 C339 C 0.64588 0.44067 -0.05772
 C340 C 0.62037 0.43675 -0.07944
 C341 C 0.61145 0.40478 -0.08736
 C342 C 0.62861 0.37665 -0.07335
 H343 H 0.73895 0.41675 0.01893
 H344 H 0.70940 0.30308 -0.00949
 H345 H 0.75467 0.30973 0.02764
 H346 H 0.66532 0.32745 -0.04436
 H347 H 0.69551 0.44121 -0.01597
 H348 H 0.65220 0.46561 -0.05194
 H349 H 0.60735 0.45868 -0.08997
 H350 H 0.62207 0.35193 -0.07972
 C351 C 0.24972 0.88341 0.49096
 C352 C 0.27362 0.87786 0.51522
 C353 C 0.27692 0.84684 0.53190
 C354 C 0.25596 0.82215 0.52438
 C355 C 0.23193 0.82808 0.50057
 C356 C 0.22867 0.85862 0.48355
 C357 C 0.30098 0.84104 0.55592
 C358 C 0.32147 0.86606 0.56386
 C359 C 0.31781 0.89732 0.54760
 C360 C 0.29409 0.90292 0.52322
 C361 C 0.33788 0.92253 0.55615
 C362 C 0.36136 0.91684 0.58055
 C363 C 0.36543 0.88575 0.59651
 C364 C 0.34543 0.86042 0.58801
 H365 H 0.24717 0.90721 0.47824
 H366 H 0.25810 0.79827 0.53696
 H367 H 0.21619 0.80849 0.49516
 H368 H 0.30361 0.81717 0.56856
 H369 H 0.29142 0.92683 0.51063
 H370 H 0.33537 0.94666 0.54403
 H371 H 0.37667 0.93656 0.58681
 H372 H 0.34833 0.83653 0.60057
   
