data_POSCAR
  _audit_creation_date              2014-09-24
  _audit_creation_method            'ToBaCCo'
  _symmetry_space_group_name_H-M    'P1'
  _symmetry_Int_Tables_number       1
  _symmetry_cell_setting            triclinic
  loop_
  _symmetry_equiv_pos_as_xyz
 x,y,z
_cell_length_a 44.7147
_cell_length_b 44.6240
_cell_length_c 46.5615
_cell_angle_alpha 90.083100
_cell_angle_beta 90.122200
_cell_angle_gamma 90.012500
loop_
  _atom_site_label
  _atom_site_type_symbol
  _atom_site_fract_x
  _atom_site_fract_y
  _atom_site_fract_z
O1 O 0.33104 0.36864 0.03134
 O2 O 0.37161 0.32879 -0.02480
 O3 O 0.33432 0.37203 -0.02415
 O4 O 0.36784 0.32414 0.03067
 O5 O 0.33097 0.29154 0.02602
 O6 O 0.29596 0.34122 -0.02831
 O7 O 0.33450 0.29649 -0.02977
 O8 O 0.29302 0.33733 0.02738
 Cu9 Cu 0.35491 0.35149 0.00383
 Cu10 Cu 0.30979 0.31334 -0.00152
 C11 C 0.30512 0.36025 0.03882
 C12 C 0.36013 0.30618 -0.03710
 C13 C 0.30945 0.36512 -0.03560
 C14 C 0.35554 0.29955 0.03746
 O15 O 0.69152 0.64449 0.02201
 O16 O 0.65004 0.68634 -0.03286
 O17 O 0.69181 0.64557 -0.03376
 O18 O 0.64857 0.68214 0.02250
 O19 O 0.68114 0.71931 0.02473
 O20 O 0.72686 0.68021 -0.03049
 O21 O 0.68383 0.72237 -0.03118
 O22 O 0.72523 0.68063 0.02477
 Cu23 Cu 0.66721 0.66108 -0.00604
 Cu24 Cu 0.70760 0.70445 -0.00318
 C25 C 0.71529 0.65535 0.03282
 C26 C 0.65936 0.71188 -0.04081
 C27 C 0.71729 0.65554 -0.04083
 C28 C 0.65722 0.70674 0.03331
 O29 O 0.68231 0.35352 0.97122
 O30 O 0.64826 0.30863 1.02757
 O31 O 0.68674 0.35116 1.02690
 O32 O 0.64559 0.30879 0.97214
 O33 O 0.68244 0.27595 0.96951
 O34 O 0.72477 0.31986 1.02349
 O35 O 0.68499 0.27560 1.02518
 O36 O 0.72013 0.32190 0.96795
 Cu37 Cu 0.66211 0.33375 0.99966
 Cu38 Cu 0.70691 0.29505 0.99623
 C39 C 0.70698 0.34583 0.96010
 C40 C 0.66031 0.28445 1.03584
 C41 C 0.71288 0.34313 1.03435
 C42 C 0.65661 0.28482 0.96195
 O43 O 0.33354 0.62757 0.98091
 O44 O 0.37016 0.67668 1.03341
 O45 O 0.33427 0.63112 1.03667
 O46 O 0.37158 0.67002 0.97823
 O47 O 0.33484 0.70301 0.97540
 O48 O 0.29489 0.66051 1.03246
 O49 O 0.33200 0.70800 1.03123
 O50 O 0.29594 0.65943 0.97698
 Cu51 Cu 0.35607 0.64824 1.00787
 Cu52 Cu 0.31060 0.68609 1.00410
 C53 C 0.30880 0.63526 0.96963
 C54 C 0.35770 0.70104 1.04081
 C55 C 0.30783 0.63801 1.04386
 C56 C 0.35988 0.69291 0.96672
 O57 O 0.02061 0.33189 0.37318
 O58 O -0.03892 0.36921 0.33343
 O59 O -0.03714 0.32715 0.37097
 O60 O 0.01910 0.37224 0.33344
 O61 O 0.02177 0.33824 0.29905
 O62 O -0.03376 0.29196 0.33778
 O63 O -0.03658 0.33525 0.29897
 O64 O 0.02372 0.29672 0.33990
 Cu65 Cu -0.00932 0.35356 0.35604
 Cu66 Cu -0.00587 0.31212 0.31538
 C67 C 0.03199 0.30778 0.36384
 C68 C -0.04802 0.35890 0.30961
 C69 C -0.04467 0.30161 0.36123
 C70 C 0.02984 0.36318 0.30974
 O71 O 0.02386 0.66944 0.62435
 O72 O -0.03109 0.63147 0.66890
 O73 O -0.03381 0.67226 0.63059
 O74 O 0.02684 0.63001 0.66451
 O75 O 0.03093 0.66454 0.69832
 O76 O -0.02831 0.70876 0.66220
 O77 O -0.02746 0.66663 0.70216
 O78 O 0.02923 0.70513 0.65688
 Cu79 Cu -0.00395 0.64728 0.64388
 Cu80 Cu 0.00160 0.68980 0.68334
 C81 C 0.03587 0.69368 0.63267
 C82 C -0.03900 0.64242 0.69282
 C83 C -0.04118 0.69788 0.64015
 C84 C 0.03913 0.63984 0.68725
 O85 O 1.01649 0.63186 0.32509
 O86 O 0.95759 0.67652 0.35851
 O87 O 0.95934 0.63703 0.31781
 O88 O 1.01487 0.67042 0.36593
 O89 O 1.02193 0.70778 0.33573
 O90 O 0.96728 0.67252 0.28571
 O91 O 0.96490 0.71309 0.32738
 O92 O 1.02460 0.66781 0.29347
 Cu93 Cu 0.98620 0.65043 0.34495
 Cu94 Cu 0.99546 0.69398 0.30735
 C95 C 1.03046 0.64199 0.30352
 C96 C 0.95146 0.70247 0.34912
 C97 C 0.95426 0.64847 0.29337
 C98 C 1.02766 0.69490 0.35950
 O99 O 0.97458 0.33355 0.64135
 O100 O 1.03716 0.36447 0.68221
 O101 O 1.03232 0.33169 0.63677
 O102 O 0.97952 0.36670 0.68637
 O103 O 0.98067 0.32683 0.71443
 O104 O 1.03270 0.29051 0.66291
 O105 O 1.03829 0.32429 0.70986
 O106 O 0.97499 0.29281 0.66824
 Cu107 Cu 1.00587 0.35309 0.65898
 Cu108 Cu 1.00685 0.30443 0.69159
 C109 C 0.96418 0.30793 0.64757
 C110 C 1.04800 0.35016 0.70329
 C111 C 1.04112 0.30498 0.64080
 C112 C 0.97139 0.35316 0.70898
 O113 O 0.36840 0.03388 0.31712
 O114 O 0.33526 -0.02292 0.36430
 O115 O 0.37281 -0.02393 0.32258
 O116 O 0.33299 0.03492 0.36091
 O117 O 0.29415 0.03006 0.33191
 O118 O 0.33560 -0.02883 0.29165
 O119 O 0.29712 -0.02790 0.33446
 O120 O 0.33064 0.02910 0.28680
 Cu121 Cu 0.35614 0.00604 0.34412
 Cu122 Cu 0.31053 0.00025 0.30810
 C123 C 0.35547 0.04089 0.29377
 C124 C 0.31048 -0.03498 0.35757
 C125 C 0.36137 -0.03644 0.30072
 C126 C 0.30667 0.04218 0.35360
 O127 O 0.64091 0.02615 0.67360
 O128 O 0.68479 -0.03299 0.63958
 O129 O 0.63992 -0.03181 0.67390
 O130 O 0.68597 0.02510 0.63925
 O131 O 0.71762 0.02486 0.67575
 O132 O 0.67031 -0.03233 0.71135
 O133 O 0.71651 -0.03329 0.67603
 O134 O 0.67119 0.02608 0.71112
 Cu135 Cu 0.65987 -0.00332 0.65291
 Cu136 Cu 0.69704 -0.00366 0.69739
 C137 C 0.64816 0.03604 0.69820
 C138 C 0.70816 -0.04308 0.65163
 C139 C 0.64697 -0.04171 0.69852
 C140 C 0.70972 0.03444 0.65118
 O141 O 0.34358 1.02612 0.61799
 O142 O 0.38257 0.96860 0.65970
 O143 O 0.34363 0.96814 0.61871
 O144 O 0.38279 1.02675 0.65887
 O145 O 0.34711 1.02722 0.69159
 O146 O 0.30674 0.96870 0.65017
 O147 O 0.34675 0.96903 0.69227
 O148 O 0.30688 1.02684 0.64964
 Cu149 Cu 0.36675 0.99737 0.63569
 Cu150 Cu 0.32318 0.99802 0.67419
 C151 C 0.31844 1.03602 0.62632
 C152 C 0.37165 0.95915 0.68313
 C153 C 0.31839 0.95869 0.62719
 C154 C 0.37203 1.03675 0.68217
 O155 O 0.65620 1.03160 0.38147
 O156 O 0.61912 0.97494 0.33753
 O157 O 0.65523 0.97334 0.38067
 O158 O 0.62036 1.03295 0.33891
 O159 O 0.65849 1.03337 0.30879
 O160 O 0.69385 0.97261 0.35121
 O161 O 0.65674 0.97519 0.30687
 O162 O 0.69549 1.03111 0.35291
 Cu163 Cu 0.63396 1.00311 0.36262
 Cu164 Cu 0.68012 1.00298 0.32694
 C165 C 0.68203 1.04119 0.37496
 C166 C 0.63118 0.96567 0.31456
 C167 C 0.68038 0.96276 0.37329
 C168 C 0.63330 1.04346 0.31693
 C169 C 0.85399 0.76571 0.47163
 C170 C 0.86409 0.75261 0.49703
 C171 C 0.85487 0.76265 0.52407
 C172 C 0.83516 0.78740 0.52587
 C173 C 0.82538 0.80167 0.50018
 C174 C 0.83488 0.79080 0.47296
 C175 C 0.82420 0.80459 0.44788
 C176 C 0.80476 0.82886 0.44933
 C177 C 0.79517 0.84020 0.47593
 C178 C 0.80524 0.82622 0.50164
 C179 C 0.82412 0.79758 0.55239
 C180 C 0.80397 0.82135 0.55378
 C181 C 0.79428 0.83595 0.52873
 C182 C 0.77298 0.85929 0.52980
 C183 C 0.76397 0.87326 0.50438
 C184 C 0.77472 0.86428 0.47760
 H185 H 0.83047 0.79650 0.42682
 H186 H 0.79681 0.83816 0.42930
 H187 H 0.83041 0.78684 0.57231
 H188 H 0.79580 0.82800 0.57470
 H189 H 0.87967 0.73403 0.49563
 H190 H 0.74786 0.89142 0.50550
 C191 C 0.11498 0.20535 0.47335
 C192 C 0.10579 0.21633 0.50003
 C193 C 0.11806 0.20592 0.52583
 C194 C 0.14090 0.18388 0.52498
 C195 C 0.15022 0.17209 0.49804
 C196 C 0.13735 0.18299 0.47213
 C197 C 0.14817 0.17227 0.44573
 C198 C 0.17059 0.15073 0.44465
 C199 C 0.18330 0.13920 0.46993
 C200 C 0.17329 0.15018 0.49692
 C201 C 0.15574 0.17443 0.55003
 C202 C 0.17824 0.15291 0.54893
 C203 C 0.18704 0.14007 0.52271
 C204 C 0.21024 0.11849 0.52133
 C205 C 0.21980 0.10812 0.49451
 C206 C 0.20672 0.11798 0.46894
 H207 H 0.13983 0.18078 0.42552
 H208 H 0.17827 0.14367 0.42370
 H209 H 0.15069 0.18407 0.57076
 H210 H 0.18918 0.14704 0.56887
 H211 H 0.08848 0.23336 0.50068
 H212 H 0.23768 0.09172 0.49348
 C213 C 0.11813 0.79163 0.46754
 C214 C 0.10660 0.78236 0.49401
 C215 C 0.11781 0.79301 0.52012
 C216 C 0.14131 0.81418 0.52012
 C217 C 0.15321 0.82429 0.49356
 C218 C 0.14209 0.81251 0.46717
 C219 C 0.15630 0.82079 0.44148
 C220 C 0.17944 0.84168 0.44136
 C221 C 0.18963 0.85491 0.46697
 C222 C 0.17708 0.84538 0.49346
 C223 C 0.15415 0.82443 0.54590
 C224 C 0.17750 0.84499 0.54578
 C225 C 0.18895 0.85621 0.51988
 C226 C 0.21284 0.87699 0.51957
 C227 C 0.22434 0.88662 0.49330
 C228 C 0.21306 0.87630 0.46706
 H229 H 0.15025 0.81075 0.42116
 H230 H 0.18977 0.84673 0.42096
 H231 H 0.14664 0.81629 0.56652
 H232 H 0.18680 0.85158 0.56629
 H233 H 0.08835 0.76633 0.49440
 H234 H 0.24225 0.90304 0.49331
 C235 C 0.78059 0.13322 0.47817
 C236 C 0.76981 0.12135 0.50392
 C237 C 0.77970 0.13146 0.53065
 C238 C 0.80276 0.15299 0.53201
 C239 C 0.81409 0.16552 0.50612
 C240 C 0.80245 0.15617 0.47909
 C241 C 0.81193 0.17097 0.45410
 C242 C 0.83295 0.19401 0.45542
 C243 C 0.84569 0.20280 0.48173
 C244 C 0.83617 0.18837 0.50738
 C245 C 0.81389 0.16322 0.55847
 C246 C 0.83620 0.18486 0.55965
 C247 C 0.84785 0.19751 0.53444
 C248 C 0.87000 0.22002 0.53553
 C249 C 0.87898 0.23399 0.51021
 C250 C 0.86677 0.22646 0.48346
 H251 H 0.80259 0.16548 0.43331
 H252 H 0.83884 0.20502 0.43555
 H253 H 0.80536 0.15472 0.57859
 H254 H 0.84363 0.19213 0.58065
 H255 H 0.75277 0.10404 0.50323
 H256 H 0.89598 0.25132 0.51137
 C257 C 0.47559 0.87678 0.79136
 C258 C 0.50348 0.88632 0.78147
 C259 C 0.53020 0.87488 0.79250
 C260 C 0.52926 0.85247 0.81389
 C261 C 0.50116 0.84293 0.82479
 C262 C 0.47417 0.85521 0.81359
 C263 C 0.44668 0.84464 0.82403
 C264 C 0.44558 0.82300 0.84551
 C265 C 0.47192 0.81061 0.85695
 C266 C 0.50002 0.82022 0.84612
 C267 C 0.55546 0.83837 0.82364
 C268 C 0.55429 0.81561 0.84399
 C269 C 0.52690 0.80638 0.85579
 C270 C 0.52542 0.78280 0.87605
 C271 C 0.49759 0.77438 0.88704
 C272 C 0.47099 0.78788 0.87802
 H273 H 0.42568 0.85271 0.81550
 H274 H 0.42378 0.81550 0.85253
 H275 H 0.57714 0.84418 0.81504
 H276 H 0.57514 0.80510 0.85003
 H277 H 0.50441 0.90318 0.76471
 H278 H 0.49659 0.75681 0.90310
 C279 C 0.52995 0.13179 0.21450
 C280 C 0.50258 0.12339 0.22635
 C281 C 0.47561 0.13599 0.21730
 C282 C 0.47567 0.15718 0.19479
 C283 C 0.50337 0.16613 0.18249
 C284 C 0.53066 0.15350 0.19250
 C285 C 0.55786 0.16389 0.18123
 C286 C 0.55842 0.18629 0.16051
 C287 C 0.53179 0.19904 0.15018
 C288 C 0.50393 0.18879 0.16114
 C289 C 0.44907 0.17050 0.18506
 C290 C 0.44957 0.19252 0.16387
 C291 C 0.47672 0.20213 0.15180
 C292 C 0.47765 0.22560 0.13149
 C293 C 0.50523 0.23518 0.12082
 C294 C 0.53222 0.22273 0.13011
 H295 H 0.57907 0.15529 0.18879
 H296 H 0.58002 0.19383 0.15302
 H297 H 0.42765 0.16426 0.19405
 H298 H 0.42850 0.20238 0.15742
 H299 H 0.50230 0.10700 0.24357
 H300 H 0.50573 0.25325 0.10525
 C301 C 0.47136 0.20947 0.87539
 C302 C 0.49791 0.22267 0.88493
 C303 C 0.52587 0.21404 0.87440
 C304 C 0.52759 0.19038 0.85420
 C305 C 0.50080 0.17670 0.84409
 C306 C 0.47254 0.18661 0.85437
 C307 C 0.44636 0.17438 0.84246
 C308 C 0.44774 0.15253 0.82114
 C309 C 0.47536 0.14164 0.81126
 C310 C 0.50221 0.15385 0.82282
 C311 C 0.55514 0.18088 0.84294
 C312 C 0.55656 0.15804 0.82261
 C313 C 0.53045 0.14410 0.81238
 C314 C 0.53163 0.12162 0.79096
 C315 C 0.50501 0.11020 0.77963
 C316 C 0.47702 0.11984 0.78922
 H317 H 0.42448 0.18215 0.84896
 H318 H 0.42684 0.14460 0.81223
 H319 H 0.57594 0.19126 0.84940
 H320 H 0.57836 0.15200 0.81442
 H321 H 0.49677 0.24026 0.90101
 H322 H 0.50609 0.09322 0.76295
 C323 C 0.52844 0.88645 0.20312
 C324 C 0.50017 0.89475 0.21300
 C325 C 0.47401 0.88179 0.20222
 C326 C 0.47600 0.85924 0.18097
 C327 C 0.50454 0.85097 0.17011
 C328 C 0.53088 0.86478 0.18108
 C329 C 0.55888 0.85551 0.17072
 C330 C 0.56109 0.83354 0.14963
 C331 C 0.53543 0.81950 0.13851
 C332 C 0.50687 0.82785 0.14923
 C333 C 0.45053 0.84373 0.17137
 C334 C 0.45291 0.82045 0.15157
 C335 C 0.48078 0.81222 0.14011
 C336 C 0.48362 0.78794 0.12073
 C337 C 0.51178 0.78089 0.10962
 C338 C 0.53758 0.79628 0.11795
 H339 H 0.57945 0.86487 0.17904
 H340 H 0.58326 0.82704 0.14277
 H341 H 0.42856 0.84886 0.17972
 H342 H 0.43263 0.80877 0.14564
 H343 H 0.49852 0.91155 0.22982
 H344 H 0.51369 0.76276 0.09417
 C345 C 0.88163 0.53114 0.79395
 C346 C 0.89219 0.50487 0.78122
 C347 C 0.88231 0.47657 0.78981
 C348 C 0.86222 0.47423 0.81312
 C349 C 0.85091 0.50079 0.82614
 C350 C 0.86026 0.52936 0.81615
 C351 C 0.84697 0.55523 0.82756
 C352 C 0.82473 0.55323 0.84834
 C353 C 0.81567 0.52532 0.85931
 C354 C 0.82914 0.49878 0.84826
 C355 C 0.85211 0.44628 0.82289
 C356 C 0.83159 0.44428 0.84523
 C357 C 0.81989 0.47017 0.85827
 C358 C 0.79814 0.46831 0.88016
 C359 C 0.78500 0.49455 0.89058
 C360 C 0.79263 0.52294 0.88006
 H361 H 0.85301 0.57729 0.81989
 H362 H 0.81464 0.57393 0.85538
 H363 H 0.85980 0.42562 0.81323
 H364 H 0.82434 0.42214 0.85158
 H365 H 0.90804 0.50653 0.76367
 H366 H 0.76803 0.49277 0.90712
 C367 C 0.11445 0.52742 0.20734
 C368 C 0.10392 0.50021 0.21810
 C369 C 0.11389 0.47262 0.20757
 C370 C 0.13525 0.47208 0.18512
 C371 C 0.14625 0.49959 0.17385
 C372 C 0.13617 0.52734 0.18533
 C373 C 0.14910 0.55410 0.17548
 C374 C 0.17070 0.55388 0.15407
 C375 C 0.18020 0.52689 0.14151
 C376 C 0.16821 0.49938 0.15180
 C377 C 0.14693 0.44500 0.17453
 C378 C 0.16824 0.44479 0.15276
 C379 C 0.17900 0.47165 0.14092
 C380 C 0.20134 0.47168 0.11946
 C381 C 0.21260 0.49894 0.10945
 C382 C 0.20248 0.52647 0.11997
 H383 H 0.14324 0.57555 0.18471
 H384 H 0.18030 0.57516 0.14797
 H385 H 0.14015 0.42365 0.18330
 H386 H 0.17667 0.42328 0.14573
 H387 H 0.08726 0.50051 0.23502
 H388 H 0.22980 0.49870 0.09303
 C389 C 0.77363 0.52733 0.13005
 C390 C 0.76290 0.50037 0.11883
 C391 C 0.77326 0.47253 0.12829
 C392 C 0.79665 0.47153 0.14881
 C393 C 0.80835 0.49882 0.16012
 C394 C 0.79661 0.52682 0.15089
 C395 C 0.80738 0.55338 0.16345
 C396 C 0.82919 0.55260 0.18483
 C397 C 0.84128 0.52525 0.19421
 C398 C 0.83099 0.49807 0.18155
 C399 C 0.80789 0.44418 0.15913
 C400 C 0.83050 0.44347 0.17972
 C401 C 0.84240 0.47008 0.19116
 C402 C 0.86444 0.46953 0.21294
 C403 C 0.87396 0.49642 0.22533
 C404 C 0.86250 0.52413 0.21672
 H405 H 0.79859 0.57502 0.15725
 H406 H 0.83630 0.57366 0.19415
 H407 H 0.79909 0.42297 0.15173
 H408 H 0.83806 0.42177 0.18709
 H409 H 0.74566 0.50113 0.10240
 H410 H 0.89047 0.49577 0.24246
 C411 C 0.21194 0.52787 0.87606
 C412 C 0.22159 0.50024 0.88652
 C413 C 0.21389 0.47321 0.87333
 C414 C 0.19517 0.47363 0.84880
 C415 C 0.18399 0.50151 0.83849
 C416 C 0.19260 0.52879 0.85202
 C417 C 0.18278 0.55609 0.84035
 C418 C 0.16382 0.55672 0.81662
 C419 C 0.15422 0.53008 0.80339
 C420 C 0.16520 0.50221 0.81385
 C421 C 0.18848 0.44730 0.83353
 C422 C 0.17035 0.44803 0.80923
 C423 C 0.15812 0.47510 0.79927
 C424 C 0.13995 0.47606 0.77444
 C425 C 0.12845 0.50352 0.76517
 C426 C 0.13498 0.53045 0.77919
 H427 H 0.18989 0.57733 0.84923
 H428 H 0.15739 0.57840 0.80831
 H429 H 0.19770 0.42590 0.83979
 H430 H 0.16641 0.42711 0.79809
 H431 H 0.23610 0.49984 0.90525
 H432 H 0.11346 0.50381 0.74681
 C433 C 0.24361 0.39939 0.07719
 C434 C 0.25992 0.41948 0.09438
 N435 N 0.29017 0.41802 0.09490
 C436 C 0.30504 0.39786 0.07842
 C437 C 0.28899 0.37842 0.06024
 N438 N 0.25848 0.37935 0.06038
 N439 N 0.21330 0.40171 0.07613
 C440 C 0.19868 0.42356 0.09103
 C441 C 0.21516 0.44422 0.10754
 N442 N 0.24542 0.44143 0.10883
 H443 H 0.32925 0.39769 0.07886
 H444 H 0.17465 0.42564 0.08904
 C445 C 0.72980 0.59865 0.08871
 C446 C 0.76120 0.59776 0.08937
 N447 N 0.77699 0.61774 0.07345
 C448 C 0.76279 0.63804 0.05636
 C449 C 0.73141 0.63763 0.05440
 N450 N 0.71574 0.61811 0.07095
 N451 N 0.71384 0.57882 0.10447
 C452 C 0.72781 0.55738 0.12015
 C453 C 0.75917 0.55503 0.11941
 N454 N 0.77523 0.57564 0.10431
 H455 H 0.77587 0.65321 0.04332
 H456 H 0.71452 0.54119 0.13182
 C457 C 0.76326 0.39127 0.92102
 C458 C 0.74463 0.41107 0.90587
 N459 N 0.71458 0.40742 0.90673
 C460 C 0.70212 0.38529 0.92267
 C461 C 0.72051 0.36600 0.93877
 N462 N 0.75081 0.36920 0.93724
 N463 N 0.79334 0.39579 0.92083
 C464 C 0.80553 0.41947 0.90657
 C465 C 0.78677 0.43969 0.89197
 N466 N 0.75675 0.43478 0.89198
 H467 H 0.67800 0.38339 0.92351
 H468 H 0.82944 0.42315 0.90749
 C469 C 0.25144 0.59737 0.92465
 C470 C 0.26887 0.57590 0.91039
 N471 N 0.29881 0.57495 0.91484
 C472 C 0.31222 0.59429 0.93331
 C473 C 0.29491 0.61559 0.94806
 N474 N 0.26485 0.61685 0.94312
 N475 N 0.22125 0.59724 0.92101
 C476 C 0.20770 0.57628 0.90407
 C477 C 0.22518 0.55453 0.89009
 N478 N 0.25538 0.55511 0.89365
 H479 H 0.33614 0.59283 0.93664
 H480 H 0.18356 0.57582 0.90249
 C481 C 0.07079 0.24714 0.40357
 C482 C 0.08779 0.26384 0.42330
 N483 N 0.08812 0.29415 0.42160
 C484 C 0.07167 0.30868 0.40143
 C485 C 0.05392 0.29221 0.38208
 N486 N 0.05417 0.26168 0.38341
 N487 N 0.06967 0.21682 0.40612
 C488 C 0.08456 0.20250 0.42766
 C489 C 0.10135 0.21926 0.44759
 N490 N 0.10244 0.24959 0.44482
 H491 H 0.07177 0.33294 0.40105
 H492 H 0.08269 0.17842 0.42971
 C493 C 0.07510 0.75299 0.59145
 C494 C 0.09035 0.73567 0.57097
 N495 N 0.08926 0.70538 0.57240
 C496 C 0.07306 0.69147 0.59306
 C497 C 0.05703 0.70858 0.61320
 N498 N 0.05872 0.73908 0.61214
 N499 N 0.07546 0.78336 0.58919
 C500 C 0.09009 0.79713 0.56720
 C501 C 0.10504 0.77973 0.54651
 N502 N 0.10472 0.74937 0.54905
 H503 H 0.07210 0.66722 0.59332
 H504 H 0.08933 0.82130 0.56536
 C505 C 0.89250 0.72110 0.40124
 C506 C 0.89588 0.75226 0.40408
 N507 N 0.91494 0.76699 0.38630
 C508 C 0.93145 0.75183 0.36646
 C509 C 0.92950 0.72041 0.36502
 N510 N 0.90967 0.70596 0.38222
 N511 N 0.87385 0.70613 0.41907
 C512 C 0.85914 0.72073 0.44034
 C513 C 0.86390 0.75157 0.44453
 N514 N 0.88189 0.76678 0.42596
 H515 H 0.94725 0.76395 0.35327
 H516 H 0.84511 0.70812 0.45489
 C517 C 0.91870 0.25322 0.60651
 C518 C 0.90170 0.27240 0.58905
 N519 N 0.90364 0.30246 0.59270
 C520 C 0.92242 0.31438 0.61260
 C521 C 0.94030 0.29537 0.62950
 N522 N 0.93767 0.26511 0.62633
 N523 N 0.91755 0.22316 0.60191
 C524 C 0.90060 0.21148 0.58029
 C525 C 0.88415 0.23077 0.56237
 N526 N 0.88510 0.26079 0.56740
 H527 H 0.92401 0.33850 0.61460
 H528 H 0.90094 0.18757 0.57635
 C529 C 0.40796 0.09910 0.26867
 C530 C 0.40690 0.09519 0.23874
 N531 N 0.38666 0.07583 0.22726
 C532 C 0.36805 0.05961 0.24440
 C533 C 0.37053 0.06209 0.27443
 N534 N 0.39023 0.08214 0.28573
 N535 N 0.42820 0.11817 0.28035
 C536 C 0.44823 0.13275 0.26356
 C537 C 0.44871 0.12738 0.23380
 N538 N 0.42767 0.10897 0.22196
 H539 H 0.35276 0.04369 0.23476
 H540 H 0.46494 0.14695 0.27353
 C541 C 0.60623 0.07817 0.75400
 C542 C 0.58559 0.09392 0.73699
 N543 N 0.58741 0.09238 0.70799
 C544 C 0.60850 0.07518 0.69508
 C545 C 0.62859 0.05842 0.71191
 N546 N 0.62724 0.06067 0.74111
 N547 N 0.60356 0.07904 0.78307
 C548 C 0.58087 0.09447 0.79583
 C549 C 0.55974 0.10957 0.77874
 N550 N 0.56284 0.10893 0.74968
 H551 H 0.60898 0.07392 0.67187
 H552 H 0.57857 0.09389 0.81896
 C553 C 0.40663 0.92032 0.74524
 C554 C 0.42784 0.90229 0.73127
 N555 N 0.42870 0.90154 0.70219
 C556 C 0.40974 0.91852 0.68629
 C557 C 0.38898 0.93733 0.70004
 N558 N 0.38765 0.93748 0.72933
 N559 N 0.40683 0.92191 0.77441
 C560 C 0.42757 0.90668 0.79019
 C561 C 0.44918 0.88910 0.77614
 N562 N 0.44856 0.88738 0.74696
 H563 H 0.41138 0.91793 0.66310
 H564 H 0.42801 0.90927 0.81330
 C565 C 0.59650 0.92964 0.25081
 C566 C 0.57586 0.91038 0.26401
 N567 N 0.57542 0.90790 0.29300
 C568 C 0.59426 0.92434 0.30958
 C569 C 0.61442 0.94433 0.29664
 N570 N 0.61536 0.94625 0.26742
 N571 N 0.59587 0.93291 0.22178
 C572 C 0.57526 0.91811 0.20544
 C573 C 0.55429 0.89924 0.21877
 N574 N 0.55529 0.89589 0.24778
 H575 H 0.59294 0.92243 0.33272
 H576 H 0.57453 0.92184 0.18249
 C577 C 0.39856 0.24747 0.92008
 C578 C 0.41776 0.26518 0.90336
 N579 N 0.41583 0.29543 0.90464
 C580 C 0.39607 0.30895 0.92250
 C581 C 0.37750 0.29148 0.94012
 N582 N 0.37882 0.26099 0.93819
 N583 N 0.40167 0.21715 0.91957
 C584 C 0.42353 0.20386 0.90362
 C585 C 0.44336 0.22172 0.88764
 N586 N 0.43966 0.25196 0.88784
 H587 H 0.39552 0.33319 0.92361
 H588 H 0.42638 0.17979 0.90456
 C589 C 0.59641 0.73198 0.91132
 C590 C 0.59810 0.76339 0.91097
 N591 N 0.62145 0.77725 0.92417
 C592 C 0.64280 0.76114 0.93827
 C593 C 0.64028 0.72975 0.93987
 N594 N 0.61720 0.71602 0.92602
 N595 N 0.57317 0.71796 0.89827
 C596 C 0.55109 0.73394 0.88538
 C597 C 0.55185 0.76546 0.88601
 N598 N 0.57560 0.77947 0.89869
 H599 H 0.66068 0.77282 0.94929
 H600 H 0.53256 0.72217 0.87548
 C601 C 0.41712 0.72945 0.08877
 C602 C 0.41300 0.76059 0.08702
 N603 N 0.38896 0.77155 0.07253
 C604 C 0.36933 0.75279 0.05911
 C605 C 0.37446 0.72168 0.05952
 N606 N 0.39813 0.71088 0.07469
 N607 N 0.44106 0.71830 0.10308
 C608 C 0.46157 0.73687 0.11514
 C609 C 0.45848 0.76809 0.11223
 N610 N 0.43398 0.77927 0.09841
 H611 H 0.35089 0.76215 0.04699
 H612 H 0.48080 0.72737 0.12597
 C613 C 0.60534 0.26688 0.09192
 C614 C 0.60280 0.23562 0.08957
 N615 N 0.62199 0.22048 0.07216
 C616 C 0.64293 0.23532 0.05633
 C617 C 0.64404 0.26679 0.05732
 N618 N 0.62542 0.28162 0.07548
 N619 N 0.58617 0.28231 0.10889
 C620 C 0.56387 0.26803 0.12303
 C621 C 0.56002 0.23698 0.11952
 N622 N 0.57990 0.22133 0.10310
 H623 H 0.65713 0.22289 0.04176
 H624 H 0.54839 0.28097 0.13589
 C625 C 0.25627 0.07579 0.58949
 C626 C 0.27179 0.09117 0.56788
 N627 N 0.30206 0.08994 0.56705
 C628 C 0.31762 0.07350 0.58652
 C629 C 0.30223 0.05733 0.60779
 N630 N 0.27180 0.05917 0.60895
 N631 N 0.22587 0.07623 0.58954
 C632 C 0.21032 0.09106 0.56875
 C633 C 0.22586 0.10614 0.54684
 N634 N 0.25630 0.10573 0.54710
 H635 H 0.34175 0.07249 0.58496
 H636 H 0.18613 0.09018 0.56870
 C637 C 0.73915 0.08770 0.40920
 C638 C 0.72240 0.10103 0.43120
 N639 N 0.69273 0.09549 0.43325
 C640 C 0.67895 0.07664 0.41463
 C641 C 0.69557 0.06256 0.39273
 N642 N 0.72535 0.06893 0.39025
 N643 N 0.76926 0.09203 0.40850
 C644 C 0.78337 0.10852 0.42920
 C645 C 0.76656 0.12132 0.45161
 N646 N 0.73641 0.11735 0.45165
 H647 H 0.65525 0.07252 0.41722
 H648 H 0.80751 0.11026 0.42901
 C649 C 0.72631 0.89872 0.59832
 C650 C 0.75771 0.89943 0.59812
 N651 N 0.77237 0.91649 0.61787
 C652 C 0.75703 0.93354 0.63719
 C653 C 0.72561 0.93430 0.63603
 N654 N 0.71113 0.91647 0.61682
 N655 N 0.71141 0.88210 0.57856
 C656 C 0.72643 0.86690 0.55789
 C657 C 0.75774 0.86904 0.55636
 N658 N 0.77279 0.88497 0.57684
 H659 H 0.76920 0.94772 0.65204
 H660 H 0.71398 0.85464 0.54173
 C661 C 0.25308 0.92154 0.39717
 C662 C 0.27054 0.90756 0.41833
 N663 N 0.30063 0.91131 0.41834
 C664 C 0.31413 0.92884 0.39838
 C665 C 0.29674 0.94340 0.37742
 N666 N 0.26655 0.93910 0.37715
 N667 N 0.22283 0.91881 0.39807
 C668 C 0.20923 0.90303 0.41938
 C669 C 0.22668 0.88920 0.44079
 N670 N 0.25699 0.89192 0.43956
 H671 H 0.33814 0.93178 0.39918
 H672 H 0.18506 0.90231 0.42027
 C673 C 0.10451 0.40589 0.72433
 C674 C 0.10339 0.40421 0.75442
 N675 N 0.08729 0.38200 0.76701
 C676 C 0.07140 0.36207 0.75086
 C677 C 0.07076 0.36522 0.72083
 N678 N 0.08778 0.38682 0.70836
 N679 N 0.12026 0.42811 0.71157
 C680 C 0.13411 0.44947 0.72753
 C681 C 0.13133 0.44919 0.75761
 N682 N 0.11636 0.42618 0.77041
 H683 H 0.05774 0.34538 0.76143
 H684 H 0.14585 0.46746 0.71679
 C685 C 0.07197 0.60133 0.24687
 C686 C 0.08698 0.57958 0.26321
 N687 N 0.08516 0.58023 0.29225
 C688 C 0.06840 0.60127 0.30579
 C689 C 0.05263 0.62262 0.28957
 N690 N 0.05511 0.62238 0.26040
 N691 N 0.07273 0.59966 0.21774
 C692 C 0.08750 0.57700 0.20423
 C693 C 0.10222 0.55498 0.22060
 N694 N 0.10154 0.55699 0.24975
 H695 H 0.06670 0.60082 0.32898
 H696 H 0.08685 0.57554 0.18103
 C697 C 0.91021 0.39716 0.25124
 C698 C 0.89115 0.41569 0.26734
 N699 N 0.89033 0.41308 0.29630
 C700 C 0.90837 0.39337 0.31011
 C701 C 0.92852 0.37565 0.29433
 N702 N 0.92862 0.37759 0.26508
 N703 N 0.91163 0.40078 0.22228
 C704 C 0.89541 0.42253 0.20884
 C705 C 0.87722 0.44176 0.22517
 N706 N 0.87545 0.43758 0.25403
 H707 H 0.90777 0.39233 0.33333
 H708 H 0.89778 0.42575 0.18592
 C709 C 0.92297 0.60458 0.75357
 C710 C 0.90303 0.58589 0.73856
 N711 N 0.90034 0.58842 0.70971
 C712 C 0.91740 0.60814 0.69490
 C713 C 0.93853 0.62588 0.70950
 N714 N 0.94046 0.62412 0.73870
 N715 N 0.92625 0.60102 0.78242
 C716 C 0.91117 0.57908 0.79671
 C717 C 0.89234 0.55953 0.78136
 N718 N 0.88857 0.56375 0.75268
 H719 H 0.91533 0.60910 0.67175
 H720 H 0.91509 0.57583 0.81944
 C721 C 0.73915 0.59239 0.91492
 C722 C 0.77021 0.59619 0.91304
 N723 N 0.78285 0.62147 0.92406
 C724 C 0.76590 0.64266 0.93755
 C725 C 0.73498 0.63778 0.94117
 N726 N 0.72253 0.61284 0.92925
 N727 N 0.72618 0.56763 0.90358
 C728 C 0.74293 0.54601 0.89095
 C729 C 0.77430 0.54872 0.89027
 N730 N 0.78721 0.57404 0.90124
 H731 H 0.77675 0.66214 0.94674
 H732 H 0.73191 0.52640 0.88221
 C733 C 0.25460 0.40140 0.91780
 C734 C 0.27128 0.42584 0.90777
 N735 N 0.30028 0.42893 0.91558
 C736 C 0.31344 0.40895 0.93348
 C737 C 0.29685 0.38451 0.94415
 N738 N 0.26780 0.38111 0.93559
 N739 N 0.22503 0.39954 0.91112
 C740 C 0.21134 0.42129 0.89528
 C741 C 0.22805 0.44599 0.88553
 N742 N 0.25769 0.44733 0.89203
 H743 H 0.33659 0.41240 0.93949
 H744 H 0.18749 0.42001 0.89144
 C745 C 0.24710 0.59968 0.08106
 C746 C 0.26294 0.57666 0.09486
 N747 N 0.29315 0.57591 0.09336
 C748 C 0.30839 0.59668 0.07802
 C749 C 0.29276 0.61942 0.06325
 N750 N 0.26233 0.62065 0.06566
 N751 N 0.21669 0.59936 0.08159
 C752 C 0.20149 0.57689 0.09500
 C753 C 0.21742 0.55367 0.10860
 N754 N 0.24782 0.55434 0.10811
 H755 H 0.33251 0.59492 0.07687
 H756 H 0.17730 0.57659 0.09425
 C757 C 0.72756 0.40260 0.08562
 C758 C 0.75878 0.40136 0.08837
 N759 N 0.77405 0.37901 0.07500
 C760 C 0.75955 0.35834 0.05844
 C761 C 0.72845 0.36093 0.05405
 N762 N 0.71334 0.38289 0.06820
 N763 N 0.71198 0.42422 0.09946
 C764 C 0.72629 0.44539 0.11524
 C765 C 0.75776 0.44571 0.11647
 N766 N 0.77332 0.42330 0.10322
 H767 H 0.77241 0.34113 0.04768
 H768 H 0.71327 0.46270 0.12568
 C769 C 0.90090 0.71446 0.58801
 C770 C 0.89855 0.74573 0.59023
 N771 N 0.91419 0.76029 0.61108
 C772 C 0.93271 0.74506 0.62922
 C773 C 0.93690 0.71400 0.62539
 N774 N 0.92037 0.69957 0.60508
 N775 N 0.88487 0.69959 0.56783
 C776 C 0.86744 0.71468 0.54888
 C777 C 0.86695 0.74623 0.54928
 N778 N 0.88218 0.76105 0.57041
 H779 H 0.94531 0.75737 0.64524
 H780 H 0.85545 0.70225 0.53252
 C781 C 0.90515 0.28006 0.41871
 C782 C 0.90293 0.24897 0.41467
 N783 N 0.91591 0.23627 0.39124
 C784 C 0.93168 0.25316 0.37215
 C785 C 0.93575 0.28403 0.37740
 N786 N 0.92187 0.29661 0.40044
 N787 N 0.89179 0.29307 0.44161
 C788 C 0.87711 0.27629 0.46131
 C789 C 0.87659 0.24485 0.45863
 N790 N 0.88924 0.23191 0.43501
 H791 H 0.94225 0.24227 0.35403
 H792 H 0.86717 0.28724 0.47972
 C793 C 0.07904 0.24718 0.59886
 C794 C 0.09019 0.26419 0.57594
 N795 N 0.08614 0.29426 0.57567
 C796 C 0.07098 0.30821 0.59707
 C797 C 0.05925 0.29135 0.62005
 N798 N 0.06400 0.26111 0.62049
 N799 N 0.08194 0.21686 0.59820
 C800 C 0.09532 0.20283 0.57559
 C801 C 0.10664 0.21991 0.55265
 N802 N 0.10359 0.25024 0.55355
 H803 H 0.06786 0.33223 0.59585
 H804 H 0.09632 0.17860 0.57512
 C805 C 0.07282 0.75073 0.39738
 C806 C 0.08259 0.73406 0.42112
 N807 N 0.07493 0.70481 0.42344
 C808 C 0.05754 0.69139 0.40328
 C809 C 0.04746 0.70786 0.37930
 N810 N 0.05577 0.73722 0.37681
 N811 N 0.07899 0.78055 0.39627
 C812 C 0.09438 0.79440 0.41787
 C813 C 0.10460 0.77757 0.44152
 N814 N 0.09820 0.74776 0.44235
 H815 H 0.05160 0.66806 0.40610
 H816 H 0.09771 0.81840 0.41702
 C817 C 0.60476 0.91732 0.75467
 C818 C 0.58360 0.90195 0.73789
 N819 N 0.58501 0.90346 0.70887
 C820 C 0.60625 0.92025 0.69574
 C821 C 0.62692 0.93657 0.71237
 N822 N 0.62594 0.93436 0.74156
 N823 N 0.60251 0.91653 0.78377
 C824 C 0.57975 0.90150 0.79679
 C825 C 0.55816 0.88673 0.77992
 N826 N 0.56082 0.88731 0.75084
 H827 H 0.60645 0.92148 0.67252
 H828 H 0.57779 0.90211 0.81995
 C829 C 0.39954 0.92167 0.24246
 C830 C 0.42095 0.90567 0.25836
 N831 N 0.42037 0.90657 0.28742
 C832 C 0.39989 0.92351 0.30146
 C833 C 0.37921 0.94070 0.28576
 N834 N 0.37916 0.93898 0.25650
 N835 N 0.40112 0.92158 0.21329
 C836 C 0.42357 0.90686 0.19940
 C837 C 0.44566 0.89188 0.21542
 N838 N 0.44350 0.89151 0.24454
 H839 H 0.40049 0.92445 0.32469
 H840 H 0.42509 0.90817 0.17623
 C841 C 0.59931 0.08527 0.25652
 C842 C 0.58055 0.10509 0.27149
 N843 N 0.58163 0.10626 0.30053
 C844 C 0.60003 0.08785 0.31549
 C845 C 0.61801 0.06711 0.30077
 N846 N 0.61764 0.06661 0.27150
 N847 N 0.59700 0.08329 0.22745
 C848 C 0.57629 0.09970 0.21280
 C849 C 0.55686 0.11873 0.22798
 N850 N 0.55978 0.12105 0.25695
 H851 H 0.59986 0.08864 0.33874
 H852 H 0.57399 0.09683 0.18982
 C853 C 0.40770 0.07608 0.74364
 C854 C 0.42911 0.09360 0.72942
 N855 N 0.42987 0.09394 0.70033
 C856 C 0.41059 0.07700 0.68467
 C857 C 0.38962 0.05869 0.69871
 N858 N 0.38842 0.05897 0.72799
 N859 N 0.40796 0.07490 0.77282
 C860 C 0.42894 0.09009 0.78837
 C861 C 0.45070 0.10722 0.77407
 N862 N 0.45007 0.10850 0.74488
 H863 H 0.41215 0.07721 0.66148
 H864 H 0.42936 0.08790 0.81151
 C865 C 0.61308 0.76308 0.07376
 C866 C 0.59543 0.74431 0.09101
 N867 N 0.60021 0.71435 0.09087
 C868 C 0.62136 0.70207 0.07367
 C869 C 0.63840 0.72052 0.05553
 N870 N 0.63417 0.75078 0.05630
 N871 N 0.60725 0.79298 0.07320
 C872 C 0.58423 0.80481 0.08866
 C873 C 0.56608 0.78584 0.10528
 N874 N 0.57238 0.75605 0.10607
 H875 H 0.62419 0.67797 0.07348
 H876 H 0.57932 0.82850 0.08702
 C877 C 0.40922 0.27661 0.09343
 C878 C 0.40871 0.24525 0.09104
 N879 N 0.38843 0.23207 0.07325
 C880 C 0.36923 0.24889 0.05717
 C881 C 0.37110 0.28033 0.05828
 N882 N 0.39084 0.29329 0.07675
 N883 N 0.42951 0.29004 0.11084
 C884 C 0.45009 0.27359 0.12531
 C885 C 0.45098 0.24233 0.12166
 N886 N 0.42991 0.22876 0.10486
 H887 H 0.35394 0.23789 0.04251
 H888 H 0.46670 0.28491 0.13836
 C889 C 0.59553 0.26478 0.91197
 C890 C 0.59743 0.23338 0.91130
 N891 N 0.62039 0.21954 0.92512
 C892 C 0.64110 0.23565 0.94011
 C893 C 0.63822 0.26698 0.94206
 N894 N 0.61558 0.28071 0.92763
 N895 N 0.57280 0.27880 0.89820
 C896 C 0.55134 0.26283 0.88435
 C897 C 0.55213 0.23131 0.88483
 N898 N 0.57545 0.21728 0.89815
 H899 H 0.65870 0.22402 0.95155
 H900 H 0.53313 0.27460 0.87395
 C901 C 0.39835 0.75122 0.92378
 C902 C 0.41646 0.73326 0.90614
 N903 N 0.41346 0.70308 0.90672
 C904 C 0.39377 0.68983 0.92479
 C905 C 0.37645 0.70751 0.94341
 N906 N 0.37876 0.73796 0.94217
 N907 N 0.40246 0.78142 0.92387
 C908 C 0.42429 0.79433 0.90765
 C909 C 0.44309 0.77617 0.89082
 N910 N 0.43841 0.74607 0.89040
 H911 H 0.39242 0.66561 0.92537
 H912 H 0.42794 0.81827 0.90898
 C913 C 0.73717 0.91614 0.41071
 C914 C 0.71907 0.89996 0.42981
 N915 N 0.68897 0.90322 0.42884
 C916 C 0.67603 0.92240 0.40998
 C917 C 0.69399 0.93931 0.39126
 N918 N 0.72425 0.93549 0.39183
 N919 N 0.76740 0.91350 0.41255
 C920 C 0.78032 0.89574 0.43289
 C921 C 0.76216 0.87993 0.45230
 N922 N 0.73193 0.88251 0.45011
 H923 H 0.65194 0.92486 0.41002
 H924 H 0.80444 0.89481 0.43458
 C925 C 0.25653 0.91989 0.58901
 C926 C 0.27251 0.90257 0.56908
 N927 N 0.30280 0.90213 0.57003
 C928 C 0.31800 0.91879 0.58963
 C929 C 0.30223 0.93693 0.60913
 N930 N 0.27172 0.93674 0.60859
 N931 N 0.22622 0.92117 0.58715
 C932 C 0.21122 0.90625 0.56601
 C933 C 0.22727 0.88931 0.54573
 N934 N 0.25760 0.88795 0.54793
 H935 H 0.34220 0.91850 0.58946
 H936 H 0.18718 0.90852 0.56434
 C937 C 0.24603 0.07733 0.39616
 C938 C 0.26263 0.09633 0.41425
 N939 N 0.29245 0.09944 0.41015
 C940 C 0.30671 0.08377 0.38928
 C941 C 0.29052 0.06370 0.37185
 N942 N 0.26035 0.06129 0.37544
 N943 N 0.21628 0.07366 0.40100
 C944 C 0.20254 0.08772 0.42337
 C945 C 0.21937 0.10607 0.44191
 N946 N 0.24904 0.10994 0.43673
 H947 H 0.33069 0.08610 0.38705
 H948 H 0.17902 0.08379 0.42730
 C949 C 0.73044 0.09089 0.59717
 C950 C 0.76180 0.08937 0.59749
 N951 N 0.77567 0.07215 0.61758
 C952 C 0.75954 0.05579 0.63682
 C953 C 0.72813 0.05598 0.63528
 N954 N 0.71447 0.07388 0.61564
 N955 N 0.71633 0.10788 0.57724
 C956 C 0.73211 0.12283 0.55699
 C957 C 0.76342 0.12011 0.55609
 N958 N 0.77766 0.10364 0.57666
 H959 H 0.77107 0.04152 0.65201
 H960 H 0.72026 0.13570 0.54089
 C961 C 0.89897 0.59280 0.26824
 C962 C 0.90266 0.59377 0.23832
 N963 N 0.92098 0.61485 0.22674
 C964 C 0.93634 0.63445 0.24377
 C965 C 0.93393 0.63230 0.27382
 N966 N 0.91493 0.61167 0.28517
 N967 N 0.88105 0.57170 0.28009
 C968 C 0.86726 0.55087 0.26345
 C969 C 0.87208 0.55062 0.23363
 N970 N 0.88948 0.57238 0.22164
 H971 H 0.95149 0.65039 0.23404
 H972 H 0.85375 0.53372 0.27353
 C973 C 0.91805 0.40957 0.73584
 C974 C 0.92158 0.40723 0.76573
 N975 N 0.93915 0.38508 0.77661
 C976 C 0.95390 0.36571 0.75891
 C977 C 0.95168 0.36926 0.72897
 N978 N 0.93349 0.39098 0.71830
 N979 N 0.90065 0.43153 0.72471
 C980 C 0.88722 0.45188 0.74205
 C981 C 0.89196 0.45081 0.77191
 N982 N 0.90885 0.42819 0.78315
 H983 H 0.96845 0.34885 0.76807
 H984 H 0.87398 0.46962 0.73255
 C985 C 0.08461 0.60117 0.74282
 C986 C 0.10237 0.58239 0.72571
 N987 N 0.10043 0.58406 0.69670
 C988 C 0.08107 0.60330 0.68390
 C989 C 0.06272 0.62176 0.70085
 N990 N 0.06521 0.62054 0.73003
 N991 N 0.08553 0.59818 0.77186
 C992 C 0.10303 0.57693 0.78451
 C993 C 0.12050 0.55775 0.76734
 N994 N 0.11967 0.56124 0.73830
 H995 H 0.07958 0.60377 0.66070
 H996 H 0.10218 0.57408 0.80757
 C997 C 0.07015 0.40150 0.25045
 C998 C 0.08617 0.42342 0.26567
 N999 N 0.08488 0.42412 0.29475
 C1000 C 0.06783 0.40418 0.30941
 C1001 C 0.05117 0.38251 0.29435
 N1002 N 0.05302 0.38148 0.26511
 N1003 N 0.07049 0.40185 0.22125
 C1004 C 0.08579 0.42338 0.20661
 C1005 C 0.10156 0.44560 0.22186
 N1006 N 0.10127 0.44486 0.25110
 H1007 H 0.06684 0.40561 0.33260
 H1008 H 0.08464 0.42390 0.18340
   
