data_POSCAR
  _audit_creation_date              2014-09-24
  _audit_creation_method            'ToBaCCo'
  _symmetry_space_group_name_H-M    'P1'
  _symmetry_Int_Tables_number       1
  _symmetry_cell_setting            triclinic
  loop_
  _symmetry_equiv_pos_as_xyz
 x,y,z
_cell_length_a 48.6706
_cell_length_b 48.5598
_cell_length_c 48.6487
_cell_angle_alpha 89.978700
_cell_angle_beta 89.977300
_cell_angle_gamma 90.044700
loop_
  _atom_site_label
  _atom_site_type_symbol
  _atom_site_fract_x
  _atom_site_fract_y
  _atom_site_fract_z
N1 N 0.62485 0.62495 0.62524
 N2 N 0.87523 0.37485 0.12533
 N3 N 0.37518 0.12500 -0.12517
 N4 N 0.12470 0.87512 0.37483
 N5 N 0.09231 0.16919 0.11369
 N6 N 0.08154 0.15793 0.13580
 C7 C 0.05924 0.17252 0.14338
 C8 C 0.05602 0.19401 0.12504
 C9 C 0.07731 0.19130 0.10647
 H10 H 0.04628 0.16793 0.16085
 H11 H 0.08153 0.20442 0.08901
 Cu12 Cu 0.09783 0.12523 0.15213
 Cu13 Cu 0.12493 0.15440 0.09578
 Cu14 Cu 0.15402 0.09605 0.12494
 N15 N 0.11412 0.09252 0.16846
 N16 N 0.13615 0.08122 0.15761
 C17 C 0.14325 0.05900 0.17253
 C18 C 0.12466 0.05623 0.19382
 C19 C 0.10642 0.07780 0.19066
 H20 H 0.16060 0.04580 0.16821
 H21 H 0.08891 0.08233 0.20358
 N22 N 0.16905 0.11415 0.09189
 N23 N 0.15797 0.13635 0.08079
 C24 C 0.17284 0.14371 0.05860
 C25 C 0.19422 0.12528 0.05564
 C26 C 0.19124 0.10683 0.07704
 H27 H 0.16852 0.16118 0.04551
 H28 H 0.20433 0.08939 0.08140
 H29 H 0.11933 0.11412 0.10825
 H30 H 0.14152 0.13631 0.13031
 N31 N 0.40750 0.83081 0.61374
 N32 N 0.41832 0.84210 0.63580
 C33 C 0.44062 0.82750 0.64335
 C34 C 0.44385 0.80596 0.62505
 C35 C 0.42251 0.80868 0.60653
 H36 H 0.45361 0.83213 0.66077
 H37 H 0.41829 0.79556 0.58908
 Cu38 Cu 0.40206 0.87489 0.65208
 Cu39 Cu 0.37490 0.84569 0.59580
 Cu40 Cu 0.34611 0.90435 0.62464
 N41 N 0.38581 0.90769 0.66834
 N42 N 0.36393 0.91914 0.65735
 C43 C 0.35682 0.94137 0.67225
 C44 C 0.37521 0.94399 0.69372
 C45 C 0.39336 0.92231 0.69065
 H46 H 0.33956 0.95467 0.66784
 H47 H 0.41070 0.91764 0.70371
 N48 N 0.33106 0.88625 0.59162
 N49 N 0.34194 0.86386 0.58071
 C50 C 0.32696 0.85643 0.55862
 C51 C 0.30572 0.87502 0.55554
 C52 C 0.30890 0.89363 0.57675
 H53 H 0.33111 0.83881 0.54570
 H54 H 0.29594 0.91119 0.58101
 H55 H 0.38071 0.88598 0.60811
 H56 H 0.35830 0.86405 0.63024
 N57 N 0.90740 0.66913 0.38590
 N58 N 0.91795 0.65812 0.36357
 C59 C 0.94030 0.67270 0.35604
 C60 C 0.94379 0.69393 0.37465
 C61 C 0.92259 0.69106 0.39331
 H62 H 0.95314 0.66826 0.33845
 H63 H 0.91856 0.70396 0.41096
 Cu64 Cu 0.90129 0.62560 0.34722
 Cu65 Cu 0.87480 0.65423 0.40392
 Cu66 Cu 0.84569 0.59578 0.37482
 N67 N 0.88539 0.59264 0.33101
 N68 N 0.86358 0.58107 0.34210
 C69 C 0.85671 0.55862 0.32743
 C70 C 0.87519 0.55596 0.30606
 C71 C 0.89315 0.57784 0.30890
 H72 H 0.83957 0.54519 0.33198
 H73 H 0.91053 0.58250 0.29585
 N74 N 0.83074 0.61381 0.40793
 N75 N 0.84181 0.63603 0.41901
 C76 C 0.82698 0.64333 0.44123
 C77 C 0.80563 0.62484 0.44423
 C78 C 0.80858 0.60642 0.42282
 H79 H 0.83131 0.66081 0.45429
 H80 H 0.79549 0.58895 0.41848
 H81 H 0.88041 0.61397 0.39124
 H82 H 0.85779 0.63610 0.36961
 N83 N 0.59246 0.33110 -0.11317
 N84 N 0.58184 0.34223 -0.13540
 C85 C 0.55968 0.32748 -0.14311
 C86 C 0.55633 0.30604 -0.12471
 C87 C 0.57747 0.30894 -0.10599
 H88 H 0.54690 0.33191 -0.16075
 H89 H 0.58163 0.29586 -0.08849
 Cu90 Cu 0.59803 0.37491 -0.15204
 Cu91 Cu 0.62506 0.34598 -0.09537
 Cu92 Cu 0.65454 0.40400 -0.12480
 N93 N 0.61468 0.40758 -0.16820
 N94 N 0.63679 0.41882 -0.15746
 C95 C 0.64397 0.44100 -0.17245
 C96 C 0.62536 0.44379 -0.19370
 C97 C 0.60704 0.42228 -0.19043
 H98 H 0.66139 0.45415 -0.16820
 H99 H 0.58949 0.41776 -0.20330
 N100 N 0.66944 0.38598 -0.09170
 N101 N 0.65813 0.36397 -0.08042
 C102 C 0.67295 0.35662 -0.05822
 C103 C 0.69455 0.37485 -0.05546
 C104 C 0.69174 0.39318 -0.07697
 H105 H 0.66847 0.33928 -0.04501
 H106 H 0.70503 0.41046 -0.08148
 H107 H 0.61975 0.38624 -0.10824
 H108 H 0.64180 0.36377 -0.13018
 N109 N -0.06419 0.33367 0.14501
 C110 C -0.06399 0.31388 0.12545
 N111 N -0.08368 0.31408 0.10582
 N112 N -0.10298 0.33350 0.10582
 C113 C -0.10351 0.35356 0.12535
 N114 N -0.08354 0.35305 0.14492
 C115 C -0.04318 0.29299 0.12550
 C116 C -0.02568 0.27546 0.12551
 C117 C -0.00482 0.25462 0.12542
 N118 N -0.00459 0.23473 0.14499
 N119 N 0.01480 0.21537 0.14487
 C120 C 0.03459 0.21528 0.12518
 N121 N 0.03428 0.23523 0.10562
 N122 N 0.01489 0.25458 0.10574
 N123 N 0.58377 0.68578 0.60573
 C124 C 0.56405 0.68599 0.62536
 N125 N 0.56425 0.66618 0.64493
 N126 N 0.58360 0.64679 0.64484
 C127 C 0.60359 0.64628 0.62527
 N128 N 0.60308 0.66635 0.60573
 C129 C 0.54322 0.70692 0.62541
 C130 C 0.52570 0.72447 0.62541
 C131 C 0.50481 0.74534 0.62534
 N132 N 0.48505 0.74539 0.60571
 N133 N 0.46565 0.76473 0.60562
 C134 C 0.46534 0.78469 0.62516
 N135 N 0.48517 0.78460 0.64480
 N136 N 0.50458 0.76525 0.64489
 N137 N 1.06409 0.83383 0.35519
 C138 C 1.06394 0.81399 0.37472
 N139 N 1.08365 0.81421 0.39432
 N140 N 1.10295 0.83368 0.39433
 C141 C 1.10344 0.85378 0.37482
 N142 N 1.08343 0.85326 0.35529
 C143 C 1.04317 0.79300 0.37464
 C144 C 1.02570 0.77538 0.37461
 C145 C 1.00485 0.75447 0.37464
 N146 N 1.00442 0.73485 0.35482
 N147 N 0.98499 0.71550 0.35482
 C148 C 0.96535 0.71514 0.37466
 N149 N 0.96585 0.73481 0.39448
 N150 N 0.98528 0.75416 0.39447
 N151 N 0.43591 0.16618 -0.14476
 C152 C 0.43609 0.18600 -0.12521
 N153 N 0.41634 0.18581 -0.10563
 N154 N 0.39700 0.16638 -0.10565
 C155 C 0.39649 0.14630 -0.12516
 N156 N 0.41652 0.14679 -0.14469
 C157 C 0.45695 0.20692 -0.12526
 C158 C 0.47449 0.22447 -0.12527
 C159 C 0.49542 0.24531 -0.12519
 N160 N 0.49581 0.26512 -0.14485
 N161 N 0.51524 0.28448 -0.14472
 C162 C 0.53491 0.28468 -0.12493
 N163 N 0.53445 0.26481 -0.10528
 N164 N 0.51503 0.24546 -0.10541
 N165 N 0.10497 -0.08357 0.31427
 C166 C 0.12450 -0.06373 0.31408
 N167 N 0.14414 -0.06395 0.33377
 N168 N 0.14417 -0.08343 0.35306
 C169 C 0.12467 -0.10353 0.35358
 N170 N 0.10510 -0.10301 0.33360
 C171 C 0.12441 -0.04278 0.29327
 C172 C 0.12435 -0.02523 0.27574
 C173 C 0.12437 -0.00440 0.25481
 N174 N 0.10477 0.01543 0.25452
 N175 N 0.10482 0.03476 0.23507
 C176 C 0.12449 0.03489 0.21525
 N177 N 0.14407 0.01499 0.21559
 N178 N 0.14401 -0.00433 0.23504
 N179 N 0.60523 0.58368 -0.31408
 C180 C 0.62478 0.56388 -0.31391
 N181 N 0.64438 0.56412 -0.33365
 N182 N 0.64436 0.58357 -0.35296
 C183 C 0.62484 0.60362 -0.35347
 N184 N 0.60530 0.60309 -0.33345
 C185 C 0.62474 0.54294 -0.29307
 C186 C 0.62474 0.52537 -0.27554
 C187 C 0.62485 0.50451 -0.25463
 N188 N 0.64458 0.50443 -0.23496
 N189 N 0.64472 0.48508 -0.21554
 C190 C 0.62514 0.46514 -0.21513
 N191 N 0.60540 0.46528 -0.23486
 N192 N 0.60526 0.48464 -0.25428
 N193 N 0.35561 1.06414 0.83377
 C194 C 0.37524 1.06389 0.81406
 N195 N 0.39483 1.08369 0.81425
 N196 N 0.39475 1.10311 0.83359
 C197 C 0.37518 1.10366 0.85358
 N198 N 0.35563 1.08360 0.85306
 C199 C 0.37529 1.04295 0.79324
 C200 C 0.37532 1.02539 0.77571
 C201 C 0.37531 1.00454 0.75479
 N202 N 0.39482 0.98462 0.75462
 N203 N 0.39482 0.96531 0.73515
 C204 C 0.37531 0.96529 0.71520
 N205 N 0.35580 0.98527 0.71544
 N206 N 0.35580 1.00457 0.73491
 N207 N 0.85574 0.43562 0.16648
 C208 C 0.87537 0.43582 0.18617
 N209 N 0.89492 0.41604 0.18594
 N210 N 0.89482 0.39667 0.16657
 C211 C 0.87525 0.39616 0.14660
 N212 N 0.85572 0.41620 0.14715
 C213 C 0.87548 0.45671 0.20701
 C214 C 0.87559 0.47422 0.22455
 C215 C 0.87564 0.49502 0.24547
 N216 N 0.85622 0.49490 0.26545
 N217 N 0.85614 0.51430 0.28480
 C218 C 0.87549 0.53447 0.28482
 N219 N 0.89495 0.53451 0.26482
 N220 N 0.89502 0.51509 0.24546
 N221 N 0.33401 0.14469 -0.06454
 C222 C 0.31422 0.12510 -0.06435
 N223 N 0.31441 0.10547 -0.08409
 N224 N 0.33382 0.10549 -0.10341
 C225 C 0.35388 0.12503 -0.10391
 N226 N 0.35337 0.14461 -0.08390
 C227 C 0.29333 0.12514 -0.04352
 C228 C 0.27579 0.12518 -0.02600
 C229 C 0.25493 0.12521 -0.00514
 N230 N 0.25474 0.10557 0.01468
 N231 N 0.23539 0.10559 0.03406
 C232 C 0.21557 0.12527 0.03428
 N233 N 0.21582 0.14491 0.01440
 N234 N 0.23517 0.14488 -0.00499
 N235 N 0.66599 0.64450 0.56451
 C236 C 0.68571 0.62487 0.56433
 N237 N 0.68548 0.60527 0.58411
 N238 N 0.66610 0.60534 0.60345
 C239 C 0.64611 0.62492 0.60394
 N240 N 0.64665 0.64448 0.58390
 C241 C 0.70658 0.62482 0.54347
 C242 C 0.72413 0.62477 0.52596
 C243 C 0.74501 0.62474 0.50511
 N244 N 0.76478 0.64442 0.50490
 N245 N 0.78412 0.64444 0.48550
 C246 C 0.78433 0.62478 0.46565
 N247 N 0.76450 0.60509 0.46593
 N248 N 0.74516 0.60507 0.48533
 N249 N 0.83416 0.35514 0.06468
 C250 C 0.81443 0.37475 0.06444
 N251 N 0.81462 0.39441 0.08415
 N252 N 0.83398 0.39440 0.10350
 C253 C 0.85398 0.37483 0.10405
 N254 N 0.85347 0.35522 0.08407
 C255 C 0.79363 0.37471 0.04357
 C256 C 0.77615 0.37467 0.02602
 C257 C 0.75535 0.37466 0.00514
 N258 N 0.73541 0.35515 0.00512
 N259 N 0.71603 0.35520 -0.01422
 C260 C 0.71595 0.37475 -0.03418
 N261 N 0.73597 0.39425 -0.03411
 N262 N 0.75534 0.39421 -0.01476
 N263 N 0.16584 0.85547 0.43547
 C264 C 0.18558 0.87511 0.43569
 N265 N 0.18537 0.89476 0.41595
 N266 N 0.16599 0.89471 0.39662
 C267 C 0.14598 0.87511 0.39609
 N268 N 0.14651 0.85551 0.41610
 C269 C 0.20644 0.87510 0.45655
 C270 C 0.22398 0.87508 0.47406
 C271 C 0.24486 0.87505 0.49491
 N272 N 0.26450 0.85525 0.49516
 N273 N 0.28389 0.85523 0.51450
 C274 C 0.28430 0.87501 0.53422
 N275 N 0.26461 0.89481 0.53391
 N276 N 0.24521 0.89482 0.51458
   
