data_POSCAR
  _audit_creation_date              2014-09-24
  _audit_creation_method            'ToBaCCo'
  _symmetry_space_group_name_H-M    'P1'
  _symmetry_Int_Tables_number       1
  _symmetry_cell_setting            triclinic
  loop_
  _symmetry_equiv_pos_as_xyz
 x,y,z
_cell_length_a 31.0900
_cell_length_b 33.9150
_cell_length_c 33.9999
_cell_angle_alpha 89.993800
_cell_angle_beta 90.057300
_cell_angle_gamma 90.167200
loop_
  _atom_site_label
  _atom_site_type_symbol
  _atom_site_fract_x
  _atom_site_fract_y
  _atom_site_fract_z
C1 C 0.28307 0.34080 0.01799
 C2 C 0.27701 0.33524 -0.02301
 C3 C 0.29937 0.30455 -0.04195
 C4 C 0.32754 0.27984 -0.02101
 C5 C 0.33122 0.28431 0.02030
 C6 C 0.30909 0.31470 0.03918
 H7 H 0.31206 0.31809 0.07079
 H8 H 0.29718 0.30166 -0.07368
 C9 C 0.72196 0.66863 0.02410
 C10 C 0.72200 0.66801 -0.01744
 C11 C 0.69527 0.69390 -0.03810
 C12 C 0.66899 0.72095 -0.01822
 C13 C 0.67136 0.72343 0.02327
 C14 C 0.69778 0.69718 0.04399
 H15 H 0.69760 0.69750 0.07588
 H16 H 0.69426 0.69243 -0.06997
 C17 C 0.73509 0.32650 0.98571
 C18 C 0.72971 0.32840 1.02712
 C19 C 0.70420 0.29971 1.04585
 C20 C 0.68130 0.27166 1.02408
 C21 C 0.68703 0.26958 0.98285
 C22 C 0.71464 0.29653 0.96430
 H23 H 0.71756 0.29606 0.93253
 H24 H 0.69975 0.30091 1.07748
 C25 C 0.27230 0.67006 0.98080
 C26 C 0.26459 0.67421 1.02168
 C27 C 0.28550 0.70469 1.04231
 C28 C 0.31395 0.73097 1.02355
 C29 C 0.32138 0.72638 0.98254
 C30 C 0.29950 0.69687 0.96168
 H31 H 0.30544 0.69339 0.93044
 H32 H 0.28079 0.70711 1.07384
 C33 C 0.02371 0.29226 0.34588
 C34 C -0.02144 0.29513 0.34509
 C35 C -0.04122 0.32207 0.31978
 C36 C -0.01661 0.34538 0.29411
 C37 C 0.02865 0.33993 0.29260
 C38 C 0.04837 0.31418 0.31931
 H39 H 0.08309 0.31127 0.31953
 H40 H -0.07594 0.32487 0.32008
 C41 C 0.01899 0.71675 0.66449
 C42 C -0.02609 0.71403 0.66034
 C43 C -0.04909 0.68678 0.68320
 C44 C -0.02799 0.66075 0.70907
 C45 C 0.01763 0.66329 0.71255
 C46 C 0.04030 0.69172 0.69079
 H47 H 0.07510 0.69288 0.69267
 H48 H -0.08387 0.68574 0.68061
 C49 C 0.98083 0.72073 0.33400
 C50 C 1.02642 0.72079 0.33333
 C51 C 1.04820 0.69298 0.31016
 C52 C 1.02550 0.66595 0.28664
 C53 C 0.98008 0.66727 0.28603
 C54 C 0.95836 0.69387 0.31025
 H55 H 0.92353 0.69271 0.31157
 H56 H 1.08307 0.69218 0.31069
 C57 C 0.97261 0.27293 0.67705
 C58 C 1.01822 0.27064 0.67943
 C59 C 1.04019 0.29740 0.70386
 C60 C 1.01810 0.32614 0.72530
 C61 C 0.97272 0.32637 0.72495
 C62 C 0.95038 0.29947 0.70120
 H63 H 0.91568 0.30159 0.69890
 H64 H 1.07507 0.29716 0.70484
 C65 C 0.32046 0.02268 0.27601
 C66 C 0.32410 -0.01876 0.27997
 C67 C 0.30328 -0.03751 0.31156
 C68 C 0.28040 -0.01609 0.34019
 C69 C 0.27792 0.02566 0.33624
 C70 C 0.29631 0.04396 0.30332
 H71 H 0.29457 0.07579 0.30056
 H72 H 0.30590 -0.06929 0.31444
 C73 C 0.67567 0.02184 0.72507
 C74 C 0.67353 -0.01977 0.72464
 C75 C 0.69862 -0.04096 0.69780
 C76 C 0.72383 -0.02119 0.66987
 C77 C 0.72501 0.02040 0.66965
 C78 C 0.70170 0.04152 0.69778
 H79 H 0.70209 0.07348 0.69712
 H80 H 0.69625 -0.07285 0.69687
 C81 C 0.32034 0.98345 0.73249
 C82 C 0.32492 1.02505 0.72798
 C83 C 0.30246 1.04357 0.69709
 C84 C 0.27551 1.02227 0.67168
 C85 C 0.27052 0.98130 0.67707
 C86 C 0.29241 0.96254 0.70760
 H87 H 0.28991 0.93074 0.71035
 H88 H 0.30712 1.07484 0.69173
 C89 C 0.67865 0.97657 0.27575
 C90 C 0.67201 1.01793 0.27749
 C91 C 0.69773 1.04089 0.30257
 C92 C 0.73013 1.02385 0.32583
 C93 C 0.73675 0.98247 0.32371
 C94 C 0.71194 0.95971 0.29783
 H95 H 0.71615 0.92797 0.29734
 H96 H 0.69255 1.07249 0.30379
 O97 O 0.90675 0.84285 0.46328
 O98 O 0.85057 0.90233 0.53820
 O99 O 0.90516 0.84320 0.53957
 O100 O 0.85940 0.90581 0.46194
 O101 O 0.80253 0.86665 0.45883
 O102 O 0.85031 0.80203 0.53415
 O103 O 0.79580 0.86092 0.53495
 O104 O 0.84969 0.80407 0.45811
 Cu105 Cu 0.88607 0.87759 0.50141
 Cu106 Cu 0.81885 0.82958 0.49643
 C107 C 0.88739 0.81365 0.44772
 C108 C 0.81299 0.89186 0.54879
 C109 C 0.88655 0.81124 0.54895
 C110 C 0.82339 0.89667 0.44693
 O111 O 0.15043 0.09790 0.54072
 O112 O 0.09394 0.15978 0.46807
 O113 O 0.15282 0.10422 0.46535
 O114 O 0.09243 0.15329 0.54474
 O115 O 0.14531 0.19607 0.55154
 O116 O 0.20096 0.15162 0.46757
 O117 O 0.14327 0.20616 0.47575
 O118 O 0.20287 0.14190 0.54297
 Cu119 Cu 0.11698 0.12442 0.50406
 Cu120 Cu 0.17808 0.17855 0.50982
 C121 C 0.18706 0.10892 0.55323
 C122 C 0.10854 0.19393 0.46036
 C123 C 0.18799 0.11918 0.45337
 C124 C 0.10926 0.18237 0.56264
 O125 O 0.09383 0.84563 0.54114
 O126 O 0.14904 0.90694 0.46726
 O127 O 0.09557 0.84748 0.46374
 O128 O 0.15050 0.90238 0.54309
 O129 O 0.20265 0.85835 0.54241
 O130 O 0.14961 0.80556 0.46176
 O131 O 0.20286 0.86444 0.46658
 O132 O 0.14619 0.80181 0.53849
 Cu133 Cu 0.11657 0.87968 0.50398
 Cu134 Cu 0.18049 0.82811 0.50215
 C135 C 0.11076 0.81366 0.55272
 C136 C 0.18572 0.89635 0.45494
 C137 C 0.11383 0.81763 0.44855
 C138 C 0.18654 0.88998 0.55565
 O139 O 0.90499 0.15766 0.53937
 O140 O 0.85329 0.09972 0.46124
 O141 O 0.90340 0.16144 0.46249
 O142 O 0.85005 0.09925 0.53727
 O143 O 0.79436 0.13947 0.53546
 O144 O 0.84934 0.20353 0.46454
 O145 O 0.79993 0.14207 0.45889
 O146 O 0.84914 0.19785 0.54071
 Cu147 Cu 0.88354 0.12553 0.50017
 Cu148 Cu 0.81758 0.17471 0.50013
 C149 C 0.88583 0.18741 0.55343
 C150 C 0.81849 0.11135 0.44578
 C151 C 0.88538 0.19301 0.45077
 C152 C 0.81235 0.10849 0.54826
 O153 O 0.45784 0.90812 0.85820
 O154 O 0.54192 0.84952 0.90776
 O155 O 0.54217 0.90701 0.85503
 O156 O 0.45969 0.85333 0.91182
 O157 O 0.45710 0.80772 0.86532
 O158 O 0.53567 0.86357 0.80692
 O159 O 0.53973 0.80653 0.85914
 O160 O 0.45250 0.86191 0.81289
 Cu161 Cu 0.50122 0.88431 0.88774
 Cu162 Cu 0.49626 0.83060 0.83120
 C163 C 0.43992 0.89429 0.82752
 C164 C 0.55360 0.81699 0.89263
 C165 C 0.55198 0.89493 0.82088
 C166 C 0.44508 0.82104 0.89841
 O167 O 0.53991 0.14425 0.09210
 O168 O 0.45249 0.09590 0.14814
 O169 O 0.45677 0.14775 0.09210
 O170 O 0.53608 0.08705 0.14494
 O171 O 0.54220 0.13361 0.19010
 O172 O 0.45979 0.19240 0.13916
 O173 O 0.45951 0.14044 0.19523
 O174 O 0.54330 0.19046 0.13788
 Cu175 Cu 0.49610 0.11401 0.11479
 Cu176 Cu 0.50196 0.16881 0.17012
 C177 C 0.55545 0.17637 0.10523
 C178 C 0.44138 0.11000 0.18128
 C179 C 0.44407 0.18000 0.10687
 C180 C 0.55228 0.09992 0.17670
 O181 O 0.45826 0.14865 0.90831
 O182 O 0.54235 0.09544 0.85358
 O183 O 0.54238 0.14768 0.90973
 O184 O 0.45931 0.09822 0.84997
 O185 O 0.46056 0.14759 0.80755
 O186 O 0.54702 0.19418 0.86481
 O187 O 0.54375 0.14279 0.80903
 O188 O 0.46312 0.19787 0.86592
 Cu189 Cu 0.50011 0.11772 0.88487
 Cu190 Cu 0.50369 0.17559 0.83259
 C191 C 0.44674 0.18252 0.89654
 C192 C 0.55737 0.10998 0.82200
 C193 C 0.56004 0.17886 0.89675
 C194 C 0.44590 0.11449 0.81864
 O195 O 0.45462 0.85456 0.09590
 O196 O 0.53904 0.90449 0.15444
 O197 O 0.53902 0.85189 0.09809
 O198 O 0.45609 0.90731 0.15203
 O199 O 0.45451 0.86077 0.19734
 O200 O 0.53251 0.80275 0.14036
 O201 O 0.53781 0.85494 0.19630
 O202 O 0.44887 0.80932 0.14187
 Cu203 Cu 0.49765 0.88419 0.12043
 Cu204 Cu 0.49328 0.82710 0.17325
 C205 C 0.43610 0.82407 0.10958
 C206 C 0.55229 0.88836 0.18593
 C207 C 0.54972 0.81782 0.11003
 C208 C 0.44121 0.89355 0.18401
 O209 O 0.90129 0.53769 0.83644
 O210 O 0.85311 0.46319 0.90266
 O211 O 0.90405 0.46144 0.84225
 O212 O 0.85261 0.54022 0.89983
 O213 O 0.79553 0.53764 0.86147
 O214 O 0.84768 0.46003 0.80258
 O215 O 0.79616 0.46097 0.86378
 O216 O 0.84318 0.53646 0.79961
 Cu217 Cu 0.88343 0.50111 0.87428
 Cu218 Cu 0.81488 0.49827 0.82811
 C219 C 0.88075 0.54930 0.80615
 C220 C 0.81612 0.44958 0.89428
 C221 C 0.88482 0.44775 0.81230
 C222 C 0.81552 0.55269 0.89045
 O223 O 0.15333 0.46636 0.10122
 O224 O 0.09458 0.53616 0.16471
 O225 O 0.14574 0.54237 0.10451
 O226 O 0.10039 0.45974 0.16078
 O227 O 0.15571 0.46160 0.20135
 O228 O 0.20175 0.54390 0.14466
 O229 O 0.15023 0.53825 0.20503
 O230 O 0.20816 0.46814 0.14247
 Cu231 Cu 0.11783 0.50084 0.12880
 Cu232 Cu 0.18441 0.50324 0.17760
 C233 C 0.19126 0.45607 0.11069
 C234 C 0.11243 0.54890 0.19588
 C235 C 0.18169 0.55681 0.11480
 C236 C 0.12030 0.44629 0.19046
 O237 O 0.84992 0.54088 0.10333
 O238 O 0.90851 0.46500 0.15854
 O239 O 0.84653 0.46437 0.10514
 O240 O 0.90200 0.54120 0.16352
 O241 O 0.84828 0.54007 0.20600
 O242 O 0.79695 0.46046 0.15111
 O243 O 0.85740 0.46433 0.20371
 O244 O 0.79614 0.53698 0.14568
 Cu245 Cu 0.88199 0.50292 0.12825
 Cu246 Cu 0.81951 0.50024 0.18087
 C247 C 0.81291 0.55138 0.11466
 C248 C 0.89368 0.45274 0.19102
 C249 C 0.81144 0.44978 0.11810
 C250 C 0.88456 0.55315 0.19520
 O251 O 0.09417 0.46203 0.83899
 O252 O 0.14988 0.53756 0.89857
 O253 O 0.09313 0.53870 0.84092
 O254 O 0.14867 0.46070 0.89685
 O255 O 0.20339 0.46331 0.85541
 O256 O 0.14528 0.53751 0.79681
 O257 O 0.20186 0.53973 0.85449
 O258 O 0.14904 0.46085 0.79805
 Cu259 Cu 0.11611 0.49990 0.87320
 Cu260 Cu 0.18019 0.50079 0.82187
 C261 C 0.11218 0.44847 0.80829
 C262 C 0.18594 0.55091 0.88697
 C263 C 0.10925 0.55044 0.80870
 C264 C 0.18541 0.44890 0.88568
 C265 C 0.28347 0.40511 0.05600
 C266 C 0.26085 0.37242 0.04020
 C267 C 0.21635 0.36943 0.04557
 C268 C 0.19425 0.39742 0.06760
 C269 C 0.21596 0.42938 0.08476
 C270 C 0.26079 0.43428 0.07779
 C271 C 0.32807 0.40996 0.04953
 C272 C 0.34972 0.44311 0.06359
 C273 C 0.32745 0.47216 0.08391
 C274 C 0.28348 0.46805 0.09084
 H275 H 0.34644 0.38862 0.03296
 H276 H 0.38382 0.44655 0.05817
 H277 H 0.34428 0.49822 0.09411
 H278 H 0.26764 0.49210 0.10564
 H279 H 0.19875 0.34471 0.03327
 H280 H 0.16003 0.39345 0.07222
 C281 C 0.72859 0.59810 0.04780
 C282 C 0.74381 0.63756 0.04727
 C283 C 0.78058 0.64770 0.06888
 C284 C 0.80273 0.61930 0.09044
 C285 C 0.78870 0.58006 0.09093
 C286 C 0.75204 0.56892 0.06878
 C287 C 0.69045 0.58698 0.02805
 C288 C 0.67740 0.54762 0.02684
 C289 C 0.70173 0.51877 0.04550
 C290 C 0.73861 0.52924 0.06645
 H291 H 0.67053 0.60849 0.01327
 H292 H 0.64845 0.53944 0.01108
 H293 H 0.69187 0.48818 0.04389
 H294 H 0.75686 0.50607 0.08031
 H295 H 0.79230 0.67781 0.06885
 H296 H 0.83098 0.62803 0.10704
 C297 C 0.73366 0.39589 0.95795
 C298 C 0.75504 0.35938 0.96326
 C299 C 0.79602 0.35394 0.94715
 C300 C 0.81610 0.38405 0.92605
 C301 C 0.79555 0.42027 0.92023
 C302 C 0.75448 0.42685 0.93701
 C303 C 0.69178 0.40219 0.97265
 C304 C 0.67191 0.43879 0.96877
 C305 C 0.69302 0.46957 0.94973
 C306 C 0.73381 0.46376 0.93381
 H307 H 0.67398 0.37892 0.98708
 H308 H 0.64003 0.44331 0.98068
 H309 H 0.67763 0.49804 0.94708
 H310 H 0.74913 0.48849 0.91942
 H311 H 0.81253 0.32611 0.95095
 H312 H 0.84747 0.37871 0.91328
 C313 C 0.27604 0.60683 0.94084
 C314 C 0.25186 0.63830 0.95699
 C315 C 0.20731 0.63944 0.95116
 C316 C 0.18660 0.61064 0.92882
 C317 C 0.20974 0.57971 0.91163
 C318 C 0.25480 0.57695 0.91849
 C319 C 0.32073 0.60364 0.94776
 C320 C 0.34392 0.57168 0.93336
 C321 C 0.32315 0.54209 0.91231
 C322 C 0.27909 0.54442 0.90508
 H323 H 0.33803 0.62532 0.96497
 H324 H 0.37809 0.56955 0.93910
 H325 H 0.34120 0.51695 0.90183
 H326 H 0.26447 0.51996 0.88974
 H327 H 0.18849 0.66313 0.96374
 H328 H 0.15218 0.61291 0.92434
 C329 C 0.05485 0.28382 0.41394
 C330 C 0.04561 0.26833 0.37618
 C331 C 0.05595 0.22920 0.36744
 C332 C 0.07506 0.20514 0.39560
 C333 C 0.08518 0.21984 0.43298
 C334 C 0.07467 0.25935 0.44269
 C335 C 0.04477 0.32320 0.42371
 C336 C 0.05399 0.33808 0.46100
 C337 C 0.07291 0.31406 0.48928
 C338 C 0.08268 0.27495 0.48055
 H339 H 0.02982 0.34279 0.40264
 H340 H 0.04617 0.36834 0.46808
 H341 H 0.07971 0.32567 0.51829
 H342 H 0.09613 0.25718 0.50387
 H343 H 0.04915 0.21720 0.33858
 H344 H 0.08306 0.17506 0.38783
 C345 C 0.05687 0.78119 0.64866
 C346 C 0.04480 0.74235 0.63814
 C347 C 0.05582 0.72760 0.60105
 C348 C 0.07789 0.75095 0.57406
 C349 C 0.08899 0.78992 0.58318
 C350 C 0.07900 0.80530 0.62090
 C351 C 0.04731 0.79661 0.68617
 C352 C 0.05945 0.83493 0.69620
 C353 C 0.08143 0.85841 0.66925
 C354 C 0.09127 0.84384 0.63198
 H355 H 0.03048 0.77918 0.70798
 H356 H 0.05194 0.84640 0.72508
 H357 H 0.09106 0.88803 0.67731
 H358 H 0.10885 0.86287 0.61219
 H359 H 0.04670 0.69787 0.59278
 H360 H 0.08550 0.73881 0.54542
 C361 C 0.92172 0.77069 0.34894
 C362 C 0.95595 0.74605 0.36162
 C363 C 0.96548 0.74369 0.40192
 C364 C 0.94351 0.76651 0.42919
 C365 C 0.90924 0.79026 0.41745
 C366 C 0.89685 0.79134 0.37738
 C367 C 0.91183 0.77569 0.30868
 C368 C 0.87636 0.79789 0.29702
 C369 C 0.85034 0.81577 0.32505
 C370 C 0.86060 0.81292 0.36487
 H371 H 0.93143 0.76279 0.28584
 H372 H 0.86893 0.80112 0.26608
 H373 H 0.82264 0.83271 0.31587
 H374 H 0.84006 0.82795 0.38564
 H375 H 0.99028 0.72401 0.41247
 H376 H 0.95265 0.76486 0.45992
 C377 C 0.95479 0.26488 0.60478
 C378 C 0.94846 0.25366 0.64455
 C379 C 0.91967 0.22308 0.65345
 C380 C 0.89931 0.20199 0.62352
 C381 C 0.90726 0.21098 0.58401
 C382 C 0.93521 0.24249 0.57428
 C383 C 0.97981 0.29821 0.59468
 C384 C 0.98697 0.30800 0.55541
 C385 C 0.96965 0.28480 0.52554
 C386 C 0.94395 0.25235 0.53478
 H387 H 0.99371 0.31715 0.61695
 H388 H 1.00607 0.33370 0.54818
 H389 H 0.97573 0.29223 0.49508
 H390 H 0.93092 0.23513 0.51086
 H391 H 0.91386 0.21483 0.68377
 H392 H 0.87771 0.17807 0.63118
 C393 C 0.33415 0.06779 0.21724
 C394 C 0.34920 0.04560 0.24978
 C395 C 0.39255 0.04807 0.26063
 C396 C 0.42125 0.07076 0.23902
 C397 C 0.40814 0.08987 0.20470
 C398 C 0.36412 0.08955 0.19406
 C399 C 0.29009 0.06920 0.20741
 C400 C 0.27601 0.09102 0.17511
 C401 C 0.30533 0.11228 0.15250
 C402 C 0.34899 0.11183 0.16198
 H403 H 0.26621 0.05371 0.22467
 H404 H 0.24212 0.09177 0.16783
 H405 H 0.29410 0.12967 0.12787
 H406 H 0.37065 0.12982 0.14481
 H407 H 0.40405 0.03290 0.28664
 H408 H 0.45410 0.07329 0.24909
 C409 C 0.65509 0.04742 0.79261
 C410 C 0.64801 0.04540 0.75154
 C411 C 0.61350 0.06579 0.73483
 C412 C 0.58500 0.08677 0.75825
 C413 C 0.59013 0.08818 0.79918
 C414 C 0.62599 0.06902 0.81672
 C415 C 0.69113 0.02920 0.81006
 C416 C 0.69825 0.03187 0.85044
 C417 C 0.67017 0.05324 0.87399
 C418 C 0.63461 0.07191 0.85739
 H419 H 0.71428 0.01309 0.79263
 H420 H 0.72598 0.01769 0.86344
 H421 H 0.67621 0.05574 0.90525
 H422 H 0.61465 0.08913 0.87662
 H423 H 0.60808 0.06477 0.70335
 H424 H 0.55808 0.10141 0.74428
 C425 C 0.34586 0.96364 0.80134
 C426 C 0.34711 0.95978 0.75986
 C427 C 0.37590 0.93332 0.74271
 C428 C 0.40465 0.91224 0.76550
 C429 C 0.40583 0.91652 0.80651
 C430 C 0.37526 0.94161 0.82506
 C431 C 0.31556 0.98840 0.81970
 C432 C 0.31409 0.99159 0.86053
 C433 C 0.34201 0.96959 0.88377
 C434 C 0.37202 0.94454 0.86640
 H435 H 0.29252 1.00515 0.80270
 H436 H 0.29072 1.01076 0.87424
 H437 H 0.34007 0.97159 0.91549
 H438 H 0.39162 0.92705 0.88590
 H439 H 0.37716 0.92999 0.71102
 H440 H 0.42716 0.89310 0.75051
 C441 C 0.61905 0.92512 0.27410
 C442 C 0.64873 0.94998 0.25405
 C443 C 0.64688 0.95277 0.21305
 C444 C 0.61582 0.93222 0.19173
 C445 C 0.58488 0.90878 0.21069
 C446 C 0.58564 0.90588 0.25252
 C447 C 0.61988 0.92134 0.31557
 C448 C 0.58815 0.90024 0.33538
 C449 C 0.55439 0.88329 0.31463
 C450 C 0.55270 0.88638 0.27382
 H451 H 0.64407 0.93559 0.33343
 H452 H 0.58910 0.89802 0.36713
 H453 H 0.52897 0.86811 0.33030
 H454 H 0.52439 0.87444 0.25988
 H455 H 0.66929 0.97164 0.19746
 H456 H 0.61572 0.93502 0.15999
 C457 C 0.33973 0.22156 0.93580
 C458 C 0.35501 0.25414 0.95825
 C459 C 0.39954 0.26082 0.96095
 C460 C 0.42861 0.23723 0.94079
 C461 C 0.41440 0.20489 0.91889
 C462 C 0.36992 0.19583 0.91744
 C463 C 0.29542 0.21254 0.93298
 C464 C 0.28137 0.17870 0.91351
 C465 C 0.31097 0.15309 0.89666
 C466 C 0.35484 0.16155 0.89838
 H467 H 0.27129 0.23093 0.94652
 H468 H 0.24735 0.17202 0.91195
 H469 H 0.29989 0.12660 0.88201
 H470 H 0.37681 0.14079 0.88510
 H471 H 0.41190 0.28555 0.97776
 H472 H 0.46261 0.24423 0.94237
 C473 C 0.60481 0.72502 0.93905
 C474 C 0.63912 0.74318 0.96005
 C475 C 0.64320 0.78433 0.95955
 C476 C 0.61546 0.80746 0.93729
 C477 C 0.58234 0.79038 0.91507
 C478 C 0.57586 0.74876 0.91677
 C479 C 0.59691 0.68397 0.94200
 C480 C 0.56187 0.66665 0.92319
 C481 C 0.53345 0.68972 0.90177
 C482 C 0.53998 0.73025 0.89877
 H483 H 0.61695 0.66492 0.95969
 H484 H 0.55627 0.63525 0.92591
 H485 H 0.50568 0.67623 0.88797
 H486 H 0.51544 0.74656 0.88348
 H487 H 0.66901 0.79868 0.97554
 H488 H 0.62028 0.83912 0.93707
 C489 C 0.34251 0.79852 0.03825
 C490 C 0.33826 0.75764 0.04686
 C491 C 0.36170 0.74204 0.07842
 C492 C 0.39237 0.76441 0.09794
 C493 C 0.40028 0.80396 0.08797
 C494 C 0.37365 0.82200 0.05883
 C495 C 0.31443 0.81698 0.01132
 C496 C 0.31803 0.85705 0.00311
 C497 C 0.34852 0.87985 0.02256
 C498 C 0.37560 0.86285 0.05047
 H499 H 0.28904 0.80064 -0.00321
 H500 H 0.29652 0.87062 -0.01793
 H501 H 0.35057 0.91117 0.01663
 H502 H 0.39668 0.88276 0.06585
 H503 H 0.35891 0.71112 0.08612
 H504 H 0.41122 0.74980 0.12041
 C505 C 0.60333 0.25502 0.03842
 C506 C 0.64779 0.24802 0.04446
 C507 C 0.66072 0.21768 0.06980
 C508 C 0.63040 0.19368 0.08833
 C509 C 0.58642 0.19914 0.08163
 C510 C 0.57251 0.22952 0.05605
 C511 C 0.58878 0.28726 0.01577
 C512 C 0.54503 0.29272 0.00864
 C513 C 0.51500 0.26664 0.02437
 C514 C 0.52847 0.23547 0.04805
 H515 H 0.61103 0.30848 0.00341
 H516 H 0.53439 0.31725 -0.00922
 H517 H 0.48109 0.27082 0.01856
 H518 H 0.50423 0.21596 0.05982
 H519 H 0.69460 0.21246 0.07506
 H520 H 0.64128 0.17094 0.10836
 C521 C 0.27890 0.05817 0.60839
 C522 C 0.25536 0.04190 0.64033
 C523 C 0.21041 0.04497 0.64073
 C524 C 0.18878 0.06572 0.61156
 C525 C 0.21132 0.08354 0.58068
 C526 C 0.25651 0.07823 0.57781
 C527 C 0.32390 0.05316 0.60508
 C528 C 0.34609 0.06696 0.57224
 C529 C 0.32405 0.08562 0.54194
 C530 C 0.27973 0.09104 0.54448
 H531 H 0.34227 0.03790 0.62736
 H532 H 0.38048 0.06259 0.57001
 H533 H 0.34130 0.09552 0.51612
 H534 H 0.26378 0.10416 0.51957
 H535 H 0.19196 0.03265 0.66483
 H536 H 0.15422 0.06905 0.61391
 C537 C 0.79971 0.04837 0.35252
 C538 C 0.75404 0.04797 0.35192
 C539 C 0.73178 0.07088 0.37943
 C540 C 0.75358 0.09097 0.40905
 C541 C 0.79853 0.08895 0.41268
 C542 C 0.82228 0.06726 0.38395
 C543 C 0.82336 0.03257 0.32084
 C544 C 0.86802 0.03090 0.32198
 C545 C 0.89008 0.04617 0.35403
 C546 C 0.86780 0.06485 0.38428
 H547 H 0.80737 0.02176 0.29471
 H548 H 0.88556 0.01785 0.29780
 H549 H 0.92485 0.04478 0.35484
 H550 H 0.88747 0.07763 0.40692
 H551 H 0.69693 0.07173 0.37927
 H552 H 0.73472 0.10742 0.43019
 C553 C 0.72180 0.94248 0.60494
 C554 C 0.74490 0.95586 0.63831
 C555 C 0.78927 0.94959 0.64071
 C556 C 0.81094 0.92963 0.61096
 C557 C 0.78890 0.91566 0.57777
 C558 C 0.74413 0.92326 0.57386
 C559 C 0.67702 0.94852 0.60148
 C560 C 0.65506 0.93756 0.56746
 C561 C 0.67713 0.92045 0.53631
 C562 C 0.72116 0.91336 0.53929
 H563 H 0.65863 0.96201 0.62483
 H564 H 0.62082 0.94280 0.56508
 H565 H 0.66006 0.91267 0.50964
 H566 H 0.73686 0.90091 0.51388
 H567 H 0.80721 0.96012 0.66596
 H568 H 0.84511 0.92439 0.61425
 C569 C 0.26398 0.97112 0.41124
 C570 C 0.25913 0.96265 0.37044
 C571 C 0.23124 0.93183 0.35928
 C572 C 0.20711 0.91128 0.38701
 C573 C 0.20916 0.92132 0.42677
 C574 C 0.23685 0.95209 0.43919
 C575 C 0.29716 0.99583 0.42530
 C576 C 0.29957 1.00610 0.46498
 C577 C 0.26996 0.99076 0.49162
 C578 C 0.23923 0.96347 0.47906
 H579 H 0.32163 1.00702 0.40569
 H580 H 0.32455 1.02596 0.47506
 H581 H 0.27169 0.99903 0.52234
 H582 H 0.21766 0.95112 0.50076
 H583 H 0.22720 0.92411 0.32855
 H584 H 0.18638 0.88743 0.37731
 C585 C 0.06709 0.38610 0.72279
 C586 C 0.04326 0.35794 0.74474
 C587 C 0.04292 0.36011 0.78576
 C588 C 0.06538 0.38968 0.80535
 C589 C 0.08976 0.41776 0.78472
 C590 C 0.09091 0.41609 0.74279
 C591 C 0.06680 0.38564 0.68119
 C592 C 0.08980 0.41350 0.65970
 C593 C 0.11320 0.44257 0.67899
 C594 C 0.11366 0.44415 0.71994
 H595 H 0.04843 0.36415 0.66473
 H596 H 0.08914 0.41274 0.62788
 H597 H 0.13056 0.46450 0.66211
 H598 H 0.13102 0.46846 0.73278
 H599 H 0.02502 0.33865 0.80281
 H600 H 0.06407 0.39032 0.83719
 C601 C 0.06868 0.60468 0.28556
 C602 C 0.04804 0.63654 0.26603
 C603 C 0.04771 0.63761 0.22484
 C604 C 0.06783 0.60846 0.20287
 C605 C 0.08932 0.57727 0.22124
 C606 C 0.08901 0.57455 0.26295
 C607 C 0.06763 0.60097 0.32698
 C608 C 0.08612 0.56859 0.34563
 C609 C 0.10545 0.53904 0.32359
 C610 C 0.10664 0.54166 0.28270
 H611 H 0.05196 0.62261 0.34535
 H612 H 0.08487 0.56614 0.37735
 H613 H 0.11901 0.51358 0.33821
 H614 H 0.12040 0.51709 0.26697
 H615 H 0.03240 0.66176 0.20943
 H616 H 0.06733 0.61080 0.17110
 C617 C 0.97140 0.41530 0.26881
 C618 C 0.96091 0.37454 0.26865
 C619 C 0.92898 0.36071 0.24288
 C620 C 0.90790 0.38632 0.21736
 C621 C 0.91957 0.42611 0.21553
 C622 C 0.95271 0.44064 0.24024
 C623 C 0.99924 0.43169 0.29729
 C624 C 1.01206 0.47106 0.29498
 C625 C 0.99684 0.49493 0.26476
 C626 C 0.96702 0.48010 0.23785
 H627 H 1.01141 0.41417 0.32142
 H628 H 1.03400 0.48301 0.31665
 H629 H 1.00713 0.52539 0.26286
 H630 H 0.95502 0.49986 0.21548
 H631 H 0.92027 0.32975 0.24259
 H632 H 0.88242 0.37500 0.19871
 C633 C 0.91709 0.60666 0.71327
 C634 C 0.94758 0.63284 0.73092
 C635 C 0.95407 0.63075 0.77169
 C636 C 0.93181 0.60388 0.79484
 C637 C 0.90122 0.57812 0.77867
 C638 C 0.89303 0.57974 0.73726
 C639 C 0.91240 0.60441 0.67190
 C640 C 0.88261 0.57922 0.65457
 C641 C 0.85766 0.55464 0.67778
 C642 C 0.86314 0.55427 0.71841
 H643 H 0.93246 0.62113 0.65223
 H644 H 0.87938 0.57832 0.62287
 H645 H 0.83484 0.53472 0.66411
 H646 H 0.84415 0.53275 0.73375
 H647 H 0.97625 0.65074 0.78615
 H648 H 0.93839 0.60362 0.82614
 C649 C 0.79351 0.64299 0.95642
 C650 C 0.74825 0.63947 0.95988
 C651 C 0.72676 0.60946 0.93962
 C652 C 0.74932 0.58207 0.91744
 C653 C 0.79425 0.58405 0.91396
 C654 C 0.81677 0.61553 0.93275
 C655 C 0.81590 0.67418 0.97488
 C656 C 0.86015 0.67849 0.97015
 C657 C 0.88274 0.65252 0.94629
 C658 C 0.86141 0.62164 0.92739
 H659 H 0.79941 0.69576 0.99273
 H660 H 0.87688 0.70256 0.98449
 H661 H 0.91695 0.65662 0.94196
 H662 H 0.88037 0.60367 0.90787
 H663 H 0.69205 0.60698 0.94131
 H664 H 0.73127 0.55883 0.90303
 C665 C 0.21781 0.34948 0.92960
 C666 C 0.25241 0.36185 0.95425
 C667 C 0.26361 0.40205 0.95514
 C668 C 0.24167 0.42961 0.93257
 C669 C 0.20766 0.41811 0.90831
 C670 C 0.19547 0.37792 0.90639
 C671 C 0.20336 0.30991 0.92891
 C672 C 0.16942 0.29840 0.90459
 C673 C 0.14873 0.32598 0.88096
 C674 C 0.16138 0.36542 0.88190
 H675 H 0.21757 0.28763 0.94752
 H676 H 0.15897 0.26793 0.90424
 H677 H 0.12244 0.31685 0.86210
 H678 H 0.14419 0.38600 0.86340
 H679 H 0.29064 0.41218 0.97254
 H680 H 0.25135 0.46029 0.93410
 C681 C 0.20635 0.65712 0.06900
 C682 C 0.24043 0.64625 0.04320
 C683 C 0.25317 0.60655 0.04160
 C684 C 0.23371 0.57819 0.06509
 C685 C 0.20092 0.58841 0.09111
 C686 C 0.18672 0.62791 0.09328
 C687 C 0.18994 0.69596 0.06999
 C688 C 0.15669 0.70603 0.09558
 C689 C 0.13872 0.67771 0.12027
 C690 C 0.15338 0.63894 0.11912
 H691 H 0.20215 0.71871 0.05067
 H692 H 0.14467 0.73595 0.09612
 H693 H 0.11300 0.68573 0.14015
 H694 H 0.13839 0.61769 0.13850
 H695 H 0.27993 0.59754 0.02341
 H696 H 0.24463 0.54796 0.06316
 C697 C 0.72167 0.38486 0.07328
 C698 C 0.74738 0.35960 0.04949
 C699 C 0.79186 0.36616 0.04757
 C700 C 0.81141 0.39560 0.06966
 C701 C 0.78741 0.42006 0.09448
 C702 C 0.74168 0.41550 0.09573
 C703 C 0.67614 0.38220 0.07302
 C704 C 0.65105 0.40789 0.09501
 C705 C 0.67035 0.43743 0.11701
 C706 C 0.71490 0.44161 0.11714
 H707 H 0.65907 0.36110 0.05505
 H708 H 0.61634 0.40533 0.09434
 H709 H 0.65061 0.45790 0.13339
 H710 H 0.72705 0.46668 0.13304
 H711 H 0.81208 0.34725 0.02981
 H712 H 0.84606 0.39868 0.06793
 C713 C 0.93687 0.71968 0.59626
 C714 C 0.95187 0.73648 0.63202
 C715 C 0.94593 0.77680 0.63895
 C716 C 0.92440 0.80030 0.61180
 C717 C 0.90798 0.78429 0.57689
 C718 C 0.91471 0.74373 0.56847
 C719 C 0.94559 0.67998 0.58653
 C720 C 0.93195 0.66406 0.55086
 C721 C 0.91020 0.68743 0.52382
 C722 C 0.90193 0.72691 0.53222
 H723 H 0.96407 0.66125 0.60587
 H724 H 0.93893 0.63360 0.54390
 H725 H 0.90028 0.67507 0.49588
 H726 H 0.88632 0.74401 0.50958
 H727 H 0.95751 0.79015 0.66591
 H728 H 0.92019 0.83134 0.61828
 C729 C 0.94445 0.22893 0.35868
 C730 C 0.95171 0.26870 0.36947
 C731 C 0.93464 0.28322 0.40459
 C732 C 0.91199 0.25845 0.42988
 C733 C 0.90679 0.21828 0.42124
 C734 C 0.92192 0.20343 0.38481
 C735 C 0.95873 0.21411 0.32216
 C736 C 0.95100 0.17502 0.31165
 C737 C 0.92853 0.15021 0.33696
 C738 C 0.91388 0.16421 0.37310
 H739 H 0.97569 0.23263 0.30135
 H740 H 0.96211 0.16404 0.28356
 H741 H 0.92205 0.12011 0.32829
 H742 H 0.89546 0.14440 0.39132
 H743 H 0.93964 0.31376 0.41281
 H744 H 0.89940 0.27058 0.45696
 C745 C 0.03571 0.20455 0.65140
 C746 C 0.04233 0.24599 0.65418
 C747 C 0.07320 0.26377 0.62984
 C748 C 0.09424 0.24239 0.60096
 C749 C 0.08653 0.20196 0.59578
 C750 C 0.05817 0.18225 0.62223
 C751 C 0.00955 0.18443 0.67885
 C752 C 0.00403 0.14374 0.67680
 C753 C 0.02567 0.12202 0.64844
 C754 C 0.05299 0.14079 0.62184
 H755 H -0.00627 0.19989 0.70258
 H756 H -0.01643 0.12888 0.69789
 H757 H 0.02206 0.09028 0.64761
 H758 H 0.07080 0.12201 0.60220
 H759 H 0.07919 0.29524 0.63140
 H760 H 0.11607 0.25811 0.58166
 C761 C 0.04919 0.78947 0.35600
 C762 C 0.05189 0.74782 0.35880
 C763 C 0.07692 0.73090 0.38850
 C764 C 0.09701 0.75426 0.41663
 C765 C 0.09308 0.79544 0.41603
 C766 C 0.07005 0.81359 0.38473
 C767 C 0.02669 0.80762 0.32483
 C768 C 0.02425 0.84854 0.32216
 C769 C 0.04507 0.87212 0.34975
 C770 C 0.06819 0.85501 0.38047
 H771 H 0.01121 0.79038 0.30207
 H772 H 0.00667 0.86203 0.29820
 H773 H 0.04377 0.90390 0.34705
 H774 H 0.08512 0.87471 0.40008
 H775 H 0.07935 0.69913 0.39095
 H776 H 0.11480 0.73979 0.43993
 C777 C 0.59730 0.95747 0.73732
 C778 C 0.64122 0.95872 0.74845
 C779 C 0.65459 0.93973 0.78290
 C780 C 0.62506 0.91994 0.80666
 C781 C 0.58154 0.91823 0.79625
 C782 C 0.56713 0.93750 0.76169
 C783 C 0.58271 0.97554 0.70234
 C784 C 0.53917 0.97519 0.69245
 C785 C 0.50948 0.95662 0.71688
 C786 C 0.52321 0.93779 0.75110
 H787 H 0.60471 0.99018 0.68244
 H788 H 0.52841 0.98948 0.66574
 H789 H 0.47567 0.95667 0.70923
 H790 H 0.49916 0.92381 0.76929
 H791 H 0.68814 0.94036 0.79150
 H792 H 0.63635 0.90527 0.83301
 C793 C 0.34389 0.95708 0.21318
 C794 C 0.35023 0.95858 0.25459
 C795 C 0.38393 0.93679 0.27124
 C796 C 0.41273 0.91619 0.24775
 C797 C 0.40871 0.91598 0.20670
 C798 C 0.37345 0.93590 0.18899
 C799 C 0.30688 0.97354 0.19565
 C800 C 0.30037 0.97160 0.15516
 C801 C 0.32960 0.95181 0.13147
 C802 C 0.36535 0.93355 0.14811
 H803 H 0.28204 0.98700 0.21324
 H804 H 0.27200 0.98476 0.14224
 H805 H 0.32395 0.94967 0.10011
 H806 H 0.38551 0.91677 0.12858
 H807 H 0.38917 0.93702 0.30277
 H808 H 0.43907 0.90081 0.26188
 C809 C 0.59490 0.03018 0.25469
 C810 C 0.63955 0.03834 0.25249
 C811 C 0.65438 0.06579 0.22470
 C812 C 0.62583 0.08491 0.19950
 C813 C 0.58208 0.07519 0.19957
 C814 C 0.56671 0.04602 0.22583
 C815 C 0.57739 0.00731 0.28535
 C816 C 0.53448 -0.00476 0.28423
 C817 C 0.50811 0.00684 0.25324
 C818 C 0.52371 0.03277 0.22468
 H819 H 0.59695 -0.00164 0.31006
 H820 H 0.52181 -0.02356 0.30723
 H821 H 0.47512 -0.00337 0.25195
 H822 H 0.50202 0.04221 0.20167
 H823 H 0.68833 0.07285 0.22289
 H824 H 0.63794 0.10741 0.17973
 C825 C 0.34060 0.08501 0.76834
 C826 C 0.35315 0.04814 0.75153
 C827 C 0.39595 0.03567 0.75652
 C828 C 0.42507 0.05742 0.77869
 C829 C 0.41365 0.09389 0.79444
 C830 C 0.37177 0.10882 0.78808
 C831 C 0.29734 0.09794 0.76796
 C832 C 0.28616 0.13490 0.78260
 C833 C 0.31742 0.15940 0.79875
 C834 C 0.35973 0.14639 0.80206
 H835 H 0.27158 0.07953 0.75695
 H836 H 0.25301 0.14453 0.78150
 H837 H 0.30860 0.18815 0.80992
 H838 H 0.38265 0.16588 0.81606
 H839 H 0.40775 0.00939 0.74219
 H840 H 0.45738 0.04615 0.78264
 C841 C 0.65515 0.78572 0.06188
 C842 C 0.64189 0.74907 0.04598
 C843 C 0.59968 0.73590 0.05183
 C844 C 0.57047 0.75850 0.07301
 C845 C 0.58242 0.79522 0.08836
 C846 C 0.62511 0.80913 0.08315
 C847 C 0.69762 0.79962 0.05703
 C848 C 0.71033 0.83568 0.07303
 C849 C 0.68117 0.85837 0.09423
 C850 C 0.63897 0.84532 0.09942
 H851 H 0.72125 0.78278 0.04084
 H852 H 0.74302 0.84600 0.06911
 H853 H 0.69133 0.88620 0.10684
 H854 H 0.61760 0.86365 0.11652
 H855 H 0.58931 0.70781 0.03988
 H856 H 0.53800 0.74748 0.07700
 C857 C 0.34716 0.21541 0.04596
 C858 C 0.35668 0.25630 0.04459
 C859 C 0.39204 0.27091 0.06544
 C860 C 0.41892 0.24560 0.08612
 C861 C 0.41228 0.20465 0.08564
 C862 C 0.37599 0.18905 0.06522
 C863 C 0.30899 0.20033 0.02917
 C864 C 0.30067 0.15999 0.02876
 C865 C 0.32964 0.13399 0.04585
 C866 C 0.36665 0.14820 0.06427
 H867 H 0.28505 0.21966 0.01660
 H868 H 0.27149 0.14887 0.01529
 H869 H 0.32296 0.10265 0.04560
 H870 H 0.38701 0.12659 0.07804
 H871 H 0.39941 0.30215 0.06501
 H872 H 0.44626 0.25814 0.10152
 C873 C 0.65867 0.20196 0.96253
 C874 C 0.65953 0.24347 0.95822
 C875 C 0.63047 0.26158 0.93267
 C876 C 0.59907 0.23980 0.91346
 C877 C 0.59534 0.19887 0.91881
 C878 C 0.62590 0.17930 0.94340
 C879 C 0.69027 0.18257 0.98512
 C880 C 0.68902 0.14187 0.99018
 C881 C 0.65678 0.11971 0.97240
 C882 C 0.62574 0.13798 0.94910
 H883 H 0.71628 0.19874 0.99891
 H884 H 0.71330 0.12743 1.00786
 H885 H 0.65604 0.08804 0.97635
 H886 H 0.60233 0.11885 0.93580
 H887 H 0.63081 0.29332 0.92895
 H888 H 0.57657 0.25556 0.89490
 C889 C 0.39924 0.74657 0.97087
 C890 C 0.35494 0.74912 0.96119
 C891 C 0.34178 0.77429 0.93079
 C892 C 0.37138 0.79802 0.91121
 C893 C 0.41478 0.79769 0.92192
 C894 C 0.42909 0.77230 0.95224
 C895 C 0.41470 0.71845 0.99803
 C896 C 0.45812 0.71748 1.00838
 C897 C 0.48690 0.74408 0.99162
 C898 C 0.47266 0.77125 0.96380
 H899 H 0.39348 0.69687 1.01123
 H900 H 0.46946 0.69599 1.02949
 H901 H 0.52056 0.74326 0.99968
 H902 H 0.49604 0.79120 0.95129
 H903 H 0.30814 0.77594 0.92260
 H904 H 0.36034 0.81694 0.88759
 C905 C 0.80140 0.94193 0.34608
 C906 C 0.76201 0.96124 0.35414
 C907 C 0.74486 0.95983 0.39219
 C908 C 0.76559 0.93918 0.42197
 C909 C 0.80515 0.92094 0.41513
 C910 C 0.82436 0.92357 0.37739
 C911 C 0.81864 0.94064 0.30774
 C912 C 0.85901 0.92422 0.30088
 C913 C 0.88261 0.90840 0.33187
 C914 C 0.86538 0.90761 0.36972
 H915 H 0.80142 0.95283 0.28292
 H916 H 0.87216 0.92399 0.27142
 H917 H 0.91400 0.89581 0.32640
 H918 H 0.88435 0.89405 0.39266
 H919 H 0.71446 0.97400 0.39859
 H920 H 0.75062 0.93747 0.45068
 C921 C 0.27542 0.94230 0.61407
 C922 C 0.25078 0.95645 0.64609
 C923 C 0.20675 0.94840 0.64788
 C924 C 0.18657 0.92725 0.61801
 C925 C 0.21002 0.91274 0.58594
 C926 C 0.25495 0.92048 0.58352
 C927 C 0.32006 0.94990 0.61160
 C928 C 0.34382 0.93726 0.57931
 C929 C 0.32377 0.91675 0.54900
 C930 C 0.27991 0.90836 0.55093
 H931 H 0.33701 0.96575 0.63447
 H932 H 0.37791 0.94362 0.57769
 H933 H 0.34226 0.90747 0.52369
 H934 H 0.26601 0.89329 0.52602
 H935 H 0.18776 0.95907 0.67234
 H936 H 0.15230 0.92193 0.62015
 C937 C 0.28035 0.07985 0.38790
 C938 C 0.25674 0.05163 0.36566
 C939 C 0.21257 0.04765 0.37161
 C940 C 0.19149 0.07040 0.39950
 C941 C 0.21366 0.09805 0.42284
 C942 C 0.25906 0.10290 0.41719
 C943 C 0.32536 0.08406 0.38292
 C944 C 0.34902 0.11022 0.40581
 C945 C 0.32873 0.13237 0.43450
 C946 C 0.28459 0.12870 0.44045
 H947 H 0.34317 0.06648 0.36209
 H948 H 0.38343 0.11285 0.40168
 H949 H 0.34743 0.15223 0.45271
 H950 H 0.27218 0.14611 0.46414
 H951 H 0.19422 0.02647 0.35456
 H952 H 0.15717 0.06604 0.40294
 C953 C 0.72299 0.05421 0.60346
 C954 C 0.74611 0.04233 0.63734
 C955 C 0.79016 0.05029 0.64016
 C956 C 0.81140 0.07067 0.61036
 C957 C 0.78920 0.08340 0.57680
 C958 C 0.74495 0.07387 0.57238
 C959 C 0.67850 0.04660 0.59964
 C960 C 0.65663 0.05628 0.56520
 C961 C 0.67849 0.07377 0.53404
 C962 C 0.72218 0.08254 0.53743
 H963 H 0.66030 0.03294 0.62309
 H964 H 0.62263 0.04982 0.56253
 H965 H 0.66151 0.08060 0.50709
 H966 H 0.73791 0.09534 0.51211
 H967 H 0.80808 0.04104 0.66589
 H968 H 0.84525 0.07748 0.61400
 C969 C 0.94004 0.60244 0.28285
 C970 C 0.95431 0.63755 0.26451
 C971 C 0.94424 0.64469 0.22505
 C972 C 0.92187 0.61681 0.20303
 C973 C 0.90733 0.58180 0.22033
 C974 C 0.91574 0.57449 0.26081
 C975 C 0.94985 0.59440 0.32262
 C976 C 0.93591 0.55963 0.34037
 C977 C 0.91191 0.53237 0.31903
 C978 C 0.90185 0.53956 0.27971
 H979 H 0.96844 0.61479 0.34029
 H980 H 0.94384 0.55377 0.37082
 H981 H 0.90143 0.50525 0.33288
 H982 H 0.88413 0.51690 0.26434
 H983 H 0.95449 0.67182 0.21103
 H984 H 0.91541 0.62280 0.17228
 C985 C 0.94166 0.39513 0.72769
 C986 C 0.94834 0.35779 0.74523
 C987 C 0.93358 0.35069 0.78346
 C988 C 0.91298 0.38023 0.80474
 C989 C 0.90631 0.41752 0.78822
 C990 C 0.92102 0.42542 0.74957
 C991 C 0.95550 0.40312 0.68896
 C992 C 0.95018 0.44046 0.67258
 C993 C 0.93109 0.47039 0.69437
 C994 C 0.91671 0.46310 0.73253
 H995 H 0.97049 0.38066 0.67108
 H996 H 0.96127 0.44631 0.64298
 H997 H 0.92769 0.49946 0.68170
 H998 H 0.90273 0.48720 0.74874
 H999 H 0.93873 0.32223 0.79713
 H1000 H 0.90215 0.37396 0.83439
 C1001 C 0.04139 0.59280 0.72534
 C1002 C 0.04290 0.63348 0.73492
 C1003 C 0.06678 0.64588 0.76770
 C1004 C 0.08792 0.61860 0.79157
 C1005 C 0.08506 0.57818 0.78371
 C1006 C 0.06083 0.56490 0.75097
 C1007 C 0.02100 0.57920 0.69075
 C1008 C 0.01678 0.53897 0.68333
 C1009 C 0.03300 0.51164 0.70995
 C1010 C 0.05512 0.52438 0.74333
 H1011 H 0.00823 0.59950 0.66921
 H1012 H 0.00054 0.52897 0.65697
 H1013 H 0.02885 0.48043 0.70451
 H1014 H 0.06728 0.50235 0.76329
 H1015 H 0.06844 0.67690 0.77520
 H1016 H 0.10643 0.62907 0.81651
 C1017 C 0.05148 0.35799 0.22302
 C1018 C 0.05613 0.36186 0.26429
 C1019 C 0.08625 0.38859 0.27941
 C1020 C 0.10794 0.41451 0.25473
 C1021 C 0.10113 0.41387 0.21395
 C1022 C 0.07448 0.38392 0.19751
 C1023 C 0.02505 0.32834 0.20661
 C1024 C 0.02113 0.32434 0.16599
 C1025 C 0.04416 0.34906 0.14101
 C1026 C 0.07094 0.37829 0.15643
 H1027 H 0.00769 0.30769 0.22499
 H1028 H 0.00070 0.30149 0.15382
 H1029 H 0.04174 0.34522 0.10948
 H1030 H 0.08962 0.39535 0.13574
 H1031 H 0.09086 0.39123 0.31090
 H1032 H 0.12867 0.43657 0.26795
   
