data_POSCAR
  _audit_creation_date              2014-09-24
  _audit_creation_method            'ToBaCCo'
  _symmetry_space_group_name_H-M    'P1'
  _symmetry_Int_Tables_number       1
  _symmetry_cell_setting            triclinic
  loop_
  _symmetry_equiv_pos_as_xyz
 x,y,z
_cell_length_a 19.3844
_cell_length_b 19.0627
_cell_length_c 51.8274
_cell_angle_alpha 88.514100
_cell_angle_beta 89.276600
_cell_angle_gamma 116.527000
loop_
  _atom_site_label
  _atom_site_type_symbol
  _atom_site_fract_x
  _atom_site_fract_y
  _atom_site_fract_z
C1 C -0.09769 -0.07107 0.47537
 C2 C -0.04544 -0.03466 0.49487
 C3 C -0.03793 -0.07964 0.51542
 C4 C -0.08360 -0.16131 0.51728
 C5 C -0.13691 -0.19671 0.49767
 C6 C -0.14425 -0.15296 0.47628
 C7 C -0.00139 0.05149 0.49475
 C8 C -0.01061 0.09232 0.51559
 C9 C 0.02957 0.17430 0.51590
 C10 C 0.07986 0.21523 0.49510
 C11 C 0.08987 0.17505 0.47412
 C12 C 0.04898 0.09295 0.47404
 H13 H -0.10020 -0.03479 0.45936
 H14 H 0.00135 -0.04949 0.53055
 H15 H -0.04932 0.05998 0.53158
 H16 H 0.05570 0.06149 0.45784
 H17 H -0.17292 -0.25915 0.49910
 H18 H 0.11076 0.27868 0.49507
 C19 C 1.10688 0.03667 0.14812
 C20 C 1.06321 0.04652 0.16816
 C21 C 1.09943 0.10179 0.18689
 C22 C 1.17939 0.14868 0.18551
 C23 C 1.22275 0.13905 0.16510
 C24 C 1.18757 0.08211 0.14631
 C25 C 0.97899 -0.00057 0.16915
 C26 C 0.94302 -0.05490 0.18963
 C27 C 0.86278 -0.10074 0.19034
 C28 C 0.81894 -0.09097 0.17040
 C29 C 0.85447 -0.03662 0.14978
 C30 C 0.93480 0.00819 0.14928
 H31 H 1.07664 -0.00516 0.13358
 H32 H 1.06519 0.10780 0.20258
 H33 H 0.97751 -0.06129 0.20497
 H34 H 0.96330 0.04951 0.13334
 H35 H 1.28462 0.17425 0.16469
 H36 H 0.75689 -0.12597 0.17093
 C37 C 0.07320 0.99387 0.85681
 C38 C 0.02615 0.98599 0.83565
 C39 C 0.02724 0.94091 0.81491
 C40 C 0.07469 0.90315 0.81513
 C41 C 0.12148 0.91107 0.83640
 C42 C 0.12183 0.95654 0.85759
 C43 C -0.02471 1.02480 0.83507
 C44 C -0.01613 1.07877 0.81500
 C45 C -0.06583 1.11379 0.81357
 C46 C -0.12429 1.09440 0.83261
 C47 C -0.13660 1.03764 0.85263
 C48 C -0.08443 1.00429 0.85366
 H49 H 0.06958 1.02740 0.87287
 H50 H -0.00872 0.93568 0.79851
 H51 H 0.02855 1.09232 0.80024
 H52 H -0.09176 0.95865 0.86779
 H53 H 0.15946 0.88336 0.83579
 H54 H -0.15830 1.12639 0.83189
 O55 O 0.38143 -0.13217 -0.02034
 O56 O 0.50728 -0.13241 0.03100
 O57 O 0.38162 -0.11529 0.02974
 O58 O 0.51620 -0.13062 -0.01905
 O59 O 0.57424 -0.00118 -0.02319
 O60 O 0.44744 0.01355 0.02649
 O61 O 0.57335 -0.00367 0.02735
 O62 O 0.43970 -0.00283 -0.02356
 Cu63 Cu 0.44023 -0.14032 0.00568
 Cu64 Cu 0.51475 0.01421 0.00148
 C65 C 0.38870 -0.06862 -0.03099
 C66 C 0.56220 -0.06918 0.03794
 C67 C 0.39301 -0.04738 0.03671
 C68 C 0.56754 -0.06746 -0.02962
 O69 O -0.04186 0.56335 0.64047
 O70 O -0.03667 0.42709 0.69011
 O71 O -0.04148 0.56100 0.69076
 O72 O -0.02404 0.43638 0.63981
 O73 O 0.10255 0.50334 0.64077
 O74 O 0.08538 0.62608 0.69097
 O75 O 0.09005 0.49191 0.69126
 O76 O 0.08477 0.63100 0.64061
 Cu77 Cu -0.04854 0.49035 0.66523
 Cu78 Cu 0.10330 0.56958 0.66594
 C79 C 0.01977 0.62011 0.63183
 C80 C 0.02664 0.43584 0.69946
 C81 C 0.01968 0.61483 0.69965
 C82 C 0.04284 0.44939 0.63146
 O83 O 0.52657 0.60625 0.30988
 O84 O 0.39780 0.45995 0.35589
 O85 O 0.53086 0.58641 0.36060
 O86 O 0.41804 0.46497 0.30631
 O87 O 0.49528 0.40832 0.30644
 O88 O 0.60243 0.52346 0.35920
 O89 O 0.47067 0.39831 0.35661
 O90 O 0.60510 0.55102 0.30912
 Cu91 Cu 0.46254 0.53547 0.33353
 Cu92 Cu 0.55044 0.46472 0.33281
 C93 C 0.58714 0.60476 0.30126
 C94 C 0.41067 0.40428 0.36438
 C95 C 0.58571 0.57364 0.36932
 C96 C 0.43881 0.41554 0.29711
 C97 C -0.05562 0.19730 0.54799
 C98 C 0.01867 0.21712 0.53784
 C99 C 0.08263 0.27815 0.54872
 C100 C 0.07268 0.31914 0.56938
 C101 C -0.00227 0.29935 0.57931
 C102 C -0.06604 0.23816 0.56850
 C103 C -0.01210 0.34134 0.59977
 C104 C 0.05220 0.40278 0.61047
 C105 C 0.12645 0.42108 0.60054
 C106 C 0.13658 0.37978 0.58021
 H107 H 0.14024 0.29318 0.54127
 H108 H -0.12394 0.22210 0.57582
 H109 H -0.06965 0.32648 0.60723
 H110 H 0.19443 0.39558 0.57288
 H111 H -0.10584 0.15088 0.53977
 H112 H 0.17709 0.46805 0.60835
 C113 C 0.85227 0.78904 0.22050
 C114 C 0.82407 0.84174 0.21194
 C115 C 0.75707 0.83830 0.22367
 C116 C 0.71749 0.78207 0.24326
 C117 C 0.74482 0.72784 0.25147
 C118 C 0.81283 0.73235 0.24006
 C119 C 0.70316 0.66994 0.27070
 C120 C 0.63478 0.66624 0.28171
 C121 C 0.60964 0.72188 0.27351
 C122 C 0.65038 0.77894 0.25454
 H123 H 0.73563 0.87957 0.21749
 H124 H 0.83505 0.69165 0.24607
 H125 H 0.72339 0.62772 0.27684
 H126 H 0.62889 0.82026 0.24853
 H127 H 0.90382 0.79054 0.21163
 H128 H 0.55748 0.72106 0.28159
 C129 C 0.19955 0.03247 -0.10630
 C130 C 0.16999 -0.03564 -0.12111
 C131 C 0.19040 -0.09595 -0.11425
 C132 C 0.23939 -0.08824 -0.09376
 C133 C 0.27010 -0.01894 -0.07963
 C134 C 0.24945 0.04091 -0.08601
 C135 C 0.32025 -0.01128 -0.05928
 C136 C 0.33800 -0.07326 -0.05261
 C137 C 0.30604 -0.14218 -0.06670
 C138 C 0.25767 -0.14943 -0.08713
 H139 H 0.16590 -0.15090 -0.12410
 H140 H 0.27222 0.09453 -0.07541
 H141 H 0.34409 0.04183 -0.04840
 H142 H 0.23442 -0.20311 -0.09772
 H143 H 0.18743 0.08140 -0.11101
 H144 H 0.31913 -0.19061 -0.06207
 C145 C -0.14089 0.72405 0.54750
 C146 C -0.07675 0.79327 0.53840
 C147 C -0.00561 0.81536 0.55078
 C148 C 0.00143 0.76864 0.57103
 C149 C -0.06357 0.69963 0.57954
 C150 C -0.13436 0.67821 0.56780
 C151 C -0.05688 0.65250 0.59954
 C152 C 0.01439 0.67240 0.61114
 C153 C 0.07909 0.74107 0.60254
 C154 C 0.07260 0.78899 0.58270
 H155 H 0.04561 0.86664 0.54395
 H156 H -0.18499 0.62577 0.57434
 H157 H -0.10735 0.59950 0.60582
 H158 H 0.12330 0.84164 0.57640
 H159 H -0.19761 0.70611 0.53975
 H160 H 0.13464 0.75777 0.61114
 C161 C 0.18638 0.25235 0.21612
 C162 C 0.21833 0.20514 0.20600
 C163 C 0.28760 0.21086 0.21590
 C164 C 0.32471 0.26277 0.23545
 C165 C 0.29246 0.31007 0.24562
 C166 C 0.22317 0.30443 0.23573
 C167 C 0.32982 0.36130 0.26560
 C168 C 0.39866 0.36499 0.27547
 C169 C 0.42993 0.31781 0.26482
 C170 C 0.39346 0.26740 0.24509
 H171 H 0.31206 0.17367 0.20872
 H172 H 0.19736 0.34010 0.24317
 H173 H 0.30501 0.39717 0.27361
 H174 H 0.41898 0.23168 0.23745
 H175 H 0.13324 0.24943 0.20869
 H176 H 0.48299 0.31938 0.27182
 C177 C 0.73533 0.02756 -0.13517
 C178 C 0.80003 0.01462 -0.12929
 C179 C 0.79893 -0.02196 -0.10496
 C180 C 0.73744 -0.04152 -0.08703
 C181 C 0.67622 -0.02356 -0.09306
 C182 C 0.67512 0.00965 -0.11726
 C183 C 0.61810 -0.03695 -0.07452
 C184 C 0.61975 -0.06901 -0.05005
 C185 C 0.67841 -0.09048 -0.04441
 C186 C 0.73717 -0.07657 -0.06278
 H187 H 0.84707 -0.03205 -0.09902
 H188 H 0.62750 0.02200 -0.12239
 H189 H 0.57289 -0.01988 -0.07874
 H190 H 0.78341 -0.09120 -0.05778
 H191 H 0.72892 0.04981 -0.15390
 H192 H 0.68085 -0.11421 -0.02542
 C193 C 0.30200 0.13268 0.11705
 C194 C 0.23198 0.07047 0.12633
 C195 C 0.20791 -0.00382 0.11527
 C196 C 0.25270 -0.01550 0.09588
 C197 C 0.32208 0.04786 0.08695
 C198 C 0.34607 0.12154 0.09758
 C199 C 0.36681 0.03665 0.06758
 C200 C 0.34399 -0.03757 0.05707
 C201 C 0.27525 -0.10072 0.06625
 C202 C 0.22978 -0.08971 0.08544
 H203 H 0.15624 -0.05399 0.12243
 H204 H 0.39904 0.17090 0.09077
 H205 H 0.42005 0.08592 0.06089
 H206 H 0.17681 -0.13923 0.09213
 H207 H 0.32197 0.19144 0.12395
 H208 H 0.25640 -0.15843 0.05850
 C209 C 0.77030 0.84857 0.44114
 C210 C 0.80326 0.80910 0.45633
 C211 C 0.78252 0.72999 0.45104
 C212 C 0.73052 0.69143 0.43176
 C213 C 0.69787 0.73149 0.41684
 C214 C 0.71819 0.81016 0.42176
 C215 C 0.64717 0.69248 0.39696
 C216 C 0.63085 0.61464 0.39170
 C217 C 0.66295 0.57554 0.40711
 C218 C 0.71197 0.61332 0.42693
 H219 H 0.80947 0.69834 0.46090
 H220 H 0.69375 0.84210 0.41064
 H221 H 0.62315 0.72327 0.38505
 H222 H 0.73630 0.58164 0.43826
 H223 H 0.78200 0.90846 0.44467
 H224 H 0.65073 0.51536 0.40361
 C225 C -0.12664 0.16105 0.77950
 C226 C -0.05947 0.16806 0.79158
 C227 C 0.01280 0.22613 0.78238
 C228 C 0.01755 0.27719 0.76159
 C229 C -0.05069 0.26953 0.74984
 C230 C -0.12233 0.21121 0.75884
 C231 C -0.04658 0.32068 0.72937
 C232 C 0.02484 0.38045 0.72038
 C233 C 0.09265 0.38751 0.73202
 C234 C 0.08904 0.33618 0.75244
 H235 H 0.06497 0.23235 0.79163
 H236 H -0.17513 0.20445 0.74994
 H237 H -0.09953 0.31430 0.72066
 H238 H 0.14205 0.34301 0.76120
 H239 H -0.18278 0.11596 0.78588
 H240 H 0.14837 0.43304 0.72550
 C241 C 0.82240 0.04647 0.11825
 C242 C 0.80781 -0.02805 0.12854
 C243 C 0.74833 -0.09492 0.11839
 C244 C 0.70353 -0.08781 0.09845
 C245 C 0.71805 -0.01277 0.08828
 C246 C 0.77785 0.05406 0.09831
 C247 C 0.67236 -0.00613 0.06835
 C248 C 0.61238 -0.07380 0.05859
 C249 C 0.59926 -0.14793 0.06890
 C250 C 0.64429 -0.15485 0.08857
 H251 H 0.73739 -0.15274 0.12583
 H252 H 0.78997 0.11213 0.09084
 H253 H 0.68319 0.05133 0.06060
 H254 H 0.63252 -0.21278 0.09612
 H255 H 0.86763 0.09897 0.12589
 H256 H 0.55373 -0.20121 0.06180
 C257 C 0.13193 0.28302 0.44071
 C258 C 0.14080 0.21993 0.45198
 C259 C 0.19959 0.20226 0.44259
 C260 C 0.25066 0.24922 0.42265
 C261 C 0.24122 0.31296 0.41176
 C262 C 0.18133 0.32883 0.42069
 C263 C 0.29266 0.36118 0.39242
 C264 C 0.35507 0.34828 0.38380
 C265 C 0.36399 0.28440 0.39449
 C266 C 0.31193 0.23499 0.41370
 H267 H 0.20692 0.15383 0.45134
 H268 H 0.17340 0.37748 0.41245
 H269 H 0.28466 0.41012 0.38447
 H270 H 0.32023 0.18645 0.42181
 H271 H 0.08657 0.29697 0.44751
 H272 H 0.41146 0.27311 0.38821
 C273 C 0.14753 0.86494 0.78278
 C274 C 0.07656 0.85636 0.79295
 C275 C 0.00769 0.80262 0.78199
 C276 C 0.00978 0.75712 0.76137
 C277 C 0.08160 0.76610 0.75147
 C278 C 0.15007 0.82036 0.76221
 C279 C 0.08400 0.72022 0.73114
 C280 C 0.01554 0.66455 0.72053
 C281 C -0.05571 0.65618 0.73041
 C282 C -0.05856 0.70222 0.75062
 H283 H -0.04736 0.79516 0.78984
 H284 H 0.20560 0.82808 0.75477
 H285 H 0.13947 0.72738 0.72380
 H286 H -0.11418 0.69449 0.75797
 H287 H 0.20127 0.90676 0.79066
 H288 H -0.10925 0.61380 0.72259
   
