data_POSCAR
  _audit_creation_date              2014-09-24
  _audit_creation_method            'ToBaCCo'
  _symmetry_space_group_name_H-M    'P1'
  _symmetry_Int_Tables_number       1
  _symmetry_cell_setting            triclinic
  loop_
  _symmetry_equiv_pos_as_xyz
 x,y,z
_cell_length_a 49.7791
_cell_length_b 49.7975
_cell_length_c 49.7158
_cell_angle_alpha 90.001100
_cell_angle_beta 90.064900
_cell_angle_gamma 90.009100
loop_
  _atom_site_label
  _atom_site_type_symbol
  _atom_site_fract_x
  _atom_site_fract_y
  _atom_site_fract_z
C1 C 0.16381 0.16318 0.19771
 N2 N 0.15283 0.18547 0.18636
 C3 C 0.16382 0.19676 0.16406
 N4 N 0.18611 0.18551 0.15307
 C5 C 0.19746 0.16322 0.16406
 N6 N 0.18612 0.15224 0.18638
 C7 C -0.16466 0.83671 0.19720
 N8 N -0.15370 0.81443 0.18585
 C9 C -0.16472 0.80314 0.16354
 N10 N -0.18704 0.81437 0.15254
 C11 C -0.19838 0.83666 0.16354
 N12 N -0.18701 0.84764 0.18587
 C13 C -0.16487 0.16304 -0.19690
 N14 N -0.15384 0.18529 -0.18558
 C15 C -0.16485 0.19658 -0.16330
 N16 N -0.18719 0.18536 -0.15235
 C17 C -0.19856 0.16308 -0.16336
 N18 N -0.18721 0.15209 -0.18567
 C19 C 0.16346 0.83649 -0.19782
 N20 N 0.15249 0.81420 -0.18646
 C21 C 0.16351 0.80294 -0.16414
 N22 N 0.18581 0.81421 -0.15313
 C23 C 0.19715 0.83649 -0.16412
 N24 N 0.18579 0.84745 -0.18646
 C25 C 0.16228 1.16422 0.80227
 N26 N 0.15134 1.18656 0.81359
 C27 C 0.16231 1.19789 0.83595
 N28 N 0.18458 1.18652 0.84698
 C29 C 0.19582 1.16421 0.83601
 N30 N 0.18455 1.15323 0.81368
 C31 C 0.83600 0.83670 0.80196
 N32 N 0.84698 0.81441 0.81334
 C33 C 0.83600 0.80316 0.83567
 N34 N 0.81373 0.81444 0.84668
 C35 C 0.80246 0.83671 0.83564
 N36 N 0.81371 0.84768 0.81331
 C37 C 0.16299 0.83554 1.19782
 N38 N 0.15204 0.81321 1.18649
 C39 C 0.16300 0.80187 1.16416
 N40 N 0.18527 0.81323 1.15316
 C41 C 0.19652 0.83554 1.16415
 N42 N 0.18526 0.84654 1.18645
 C43 C 0.83646 1.16407 1.19718
 N44 N 0.84740 1.18641 1.18588
 C45 C 0.83639 1.19779 1.16357
 N46 N 0.81408 1.18646 1.15256
 C47 C 0.80285 1.16414 1.16352
 N48 N 0.81416 1.15311 1.18581
 N49 N 0.52741 1.04763 0.97100
 N50 N 0.54836 1.06364 0.96818
 N51 N 0.47081 1.02896 0.95238
 N52 N 0.44983 1.03178 0.93638
 N53 N 0.47084 1.04757 0.97107
 N54 N 0.44989 1.06357 0.96829
 N55 N 0.52738 1.02901 0.95231
 N56 N 0.54830 1.03185 0.93627
 C57 C 0.56118 1.05360 0.94637
 C58 C 0.43699 1.05353 0.94650
 N59 N 0.47092 0.95250 0.97096
 N60 N 0.45000 0.93646 0.96811
 N61 N 0.52743 0.97122 0.95224
 N62 N 0.54835 0.96845 0.93619
 N63 N 0.52749 0.95256 0.97089
 N64 N 0.54845 0.93659 0.96803
 N65 N 0.47086 0.97116 0.95231
 N66 N 0.44991 0.96833 0.93628
 Mn67 Mn 0.49912 1.00009 0.95197
 C68 C 0.43709 0.94653 0.94633
 C69 C 0.56125 0.94670 0.94623
 N70 N 0.47098 1.04751 1.02896
 N71 N 0.45004 1.06350 1.03184
 N72 N 0.52761 1.02892 1.04753
 N73 N 0.54861 1.03174 1.06353
 N74 N 0.52754 1.04757 1.02888
 N75 N 0.54848 1.06360 1.03168
 N76 N 0.47104 1.02885 1.04761
 N77 N 0.45014 1.03165 1.06369
 Mn78 Mn 0.49919 1.04791 0.99998
 C79 C 0.43725 1.05341 1.05365
 C80 C 0.56141 1.05353 1.05344
 N81 N 0.52764 0.95249 1.02879
 N82 N 0.54860 0.93649 1.03159
 N83 N 0.47110 0.97105 1.04755
 N84 N 0.45020 0.96818 1.06360
 N85 N 0.47107 0.95243 1.02886
 N86 N 0.45016 0.93640 1.03169
 N87 N 0.52767 0.97112 1.04747
 N88 N 0.54864 0.96829 1.06350
 Mn89 Mn 0.49928 0.95215 0.99987
 Mn90 Mn 0.49936 0.99998 1.04789
 Cl91 Cl 0.49924 1.00003 0.99993
 C92 C 0.56148 0.94654 1.05339
 C93 C 0.43734 0.94642 1.05351
 N94 N 0.02852 0.47165 0.04773
 N95 N 0.03136 0.45072 0.06377
 N96 N 0.04717 0.52820 0.02904
 N97 N 0.06320 0.54913 0.03189
 N98 N 0.02854 0.52820 0.04771
 N99 N 0.03139 0.54912 0.06375
 N100 N 0.04714 0.47165 0.02906
 N101 N 0.06315 0.45071 0.03189
 C102 C 0.05311 0.43786 0.05369
 C103 C 0.05315 0.56197 0.05369
 N104 N 0.02844 0.52815 -0.04753
 N105 N 0.03125 0.54908 -0.06357
 N106 N 0.04708 0.47160 -0.02884
 N107 N 0.06307 0.45066 -0.03169
 N108 N 0.02840 0.47161 -0.04750
 N109 N 0.03119 0.45068 -0.06355
 N110 N 0.04711 0.52816 -0.02886
 N111 N 0.06312 0.54908 -0.03169
 Mn112 Mn 0.04747 0.49990 0.00010
 C113 C 0.05304 0.56193 -0.05350
 C114 C 0.05296 0.43782 -0.05349
 N115 N -0.02928 0.52823 0.04771
 N116 N -0.03210 0.54919 0.06372
 N117 N -0.04797 0.47167 0.02906
 N118 N -0.06398 0.45074 0.03189
 N119 N -0.02930 0.47167 0.04773
 N120 N -0.03211 0.45074 0.06377
 N121 N -0.04794 0.52821 0.02903
 N122 N -0.06395 0.54915 0.03182
 Mn123 Mn -0.00038 0.49994 0.04807
 C124 C -0.05387 0.56202 0.05361
 C125 C -0.05390 0.43789 0.05369
 N126 N -0.02941 0.47162 -0.04749
 N127 N -0.03226 0.45066 -0.06348
 N128 N -0.04800 0.52820 -0.02886
 N129 N -0.06399 0.54915 -0.03169
 N130 N -0.02937 0.52817 -0.04753
 N131 N -0.03219 0.54910 -0.06357
 N132 N -0.04804 0.47166 -0.02882
 N133 N -0.06405 0.45072 -0.03160
 Mn134 Mn -0.00049 0.49989 -0.04785
 Mn135 Mn -0.04833 0.49994 0.00010
 Cl136 Cl -0.00043 0.49992 0.00011
 C137 C -0.05402 0.43783 -0.05337
 C138 C -0.05393 0.56198 -0.05350
 N139 N 0.95205 -0.02901 0.47121
 N140 N 0.93604 -0.03183 0.45023
 N141 N 0.97058 -0.04764 0.52791
 N142 N 0.96772 -0.06363 0.54888
 N143 N 0.95194 -0.02900 0.52784
 N144 N 0.93590 -0.03180 0.54878
 N145 N 0.97067 -0.04767 0.47126
 N146 N 0.96784 -0.06369 0.45030
 C147 C 0.94608 -0.05361 0.43738
 C148 C 0.94594 -0.05355 0.56169
 N149 N 1.04706 -0.02904 0.52812
 N150 N 1.06307 -0.03187 0.54911
 N151 N 1.02850 -0.04771 0.47145
 N152 N 1.03134 -0.06375 0.45052
 N153 N 1.04716 -0.02908 0.47148
 N154 N 1.06321 -0.03196 0.45056
 N155 N 1.02841 -0.04767 0.52809
 N156 N 1.03122 -0.06368 0.54906
 Mn157 Mn 0.99954 -0.04802 0.49968
 C158 C 1.05299 -0.05363 0.56197
 C159 C 1.05314 -0.05373 0.43769
 N160 N 0.95198 0.02879 0.52780
 N161 N 0.93594 0.03159 0.54873
 N162 N 0.97075 0.04740 0.47123
 N163 N 0.96797 0.06343 0.45027
 N164 N 0.95209 0.02878 0.47117
 N165 N 0.93611 0.03163 0.45016
 N166 N 0.97063 0.04743 0.52786
 N167 N 0.96779 0.06341 0.54885
 Mn168 Mn 0.95168 -0.00011 0.49950
 C169 C 0.94599 0.05333 0.56165
 C170 C 0.94622 0.05339 0.43733
 N171 N 1.04720 0.02872 0.47146
 N172 N 1.06327 0.03153 0.45055
 N173 N 1.02845 0.04741 0.52802
 N174 N 1.03123 0.06345 0.54897
 N175 N 1.04709 0.02877 0.52811
 N176 N 1.06307 0.03163 0.54912
 N177 N 1.02857 0.04737 0.47139
 N178 N 1.03145 0.06337 0.45043
 Mn179 Mn 1.04747 -0.00016 0.49979
 Mn180 Mn 0.99960 0.04774 0.49963
 Cl181 Cl 0.99957 -0.00014 0.49965
 C182 C 1.05325 0.05330 0.43764
 C183 C 1.05297 0.05342 0.56193
 C184 C 1.12972 0.12918 0.26816
 C185 C 1.15257 0.11767 0.25625
 C186 C 1.16376 0.12878 0.23300
 C187 C 1.15238 0.15176 0.22097
 C188 C 1.12936 0.16314 0.23291
 C189 C 1.11822 0.15199 0.25616
 C190 C 1.11807 0.11759 0.29304
 N191 N 1.09609 0.12880 0.30469
 N192 N 1.08577 0.11855 0.32716
 C193 C 1.09698 0.09665 0.33898
 N194 N 1.11893 0.08541 0.32730
 N195 N 1.12925 0.09566 0.30483
 C196 C 1.08563 0.08540 0.36415
 C197 C 1.09739 0.06282 0.37643
 C198 C 1.08685 0.05238 0.40029
 C199 C 1.06434 0.06430 0.41239
 C200 C 1.05248 0.08676 0.40013
 C201 C 1.06301 0.09721 0.37627
 H202 H 1.16196 0.10007 0.26493
 H203 H 1.18142 0.11928 0.22457
 H204 H 1.11985 0.18077 0.22442
 H205 H 1.10059 0.16138 0.26476
 H206 H 1.11480 0.05318 0.36766
 H207 H 1.09635 0.03499 0.40926
 H208 H 1.03506 0.09630 0.40899
 H209 H 1.05342 0.11459 0.36738
 C210 C 0.86955 -0.12934 0.26769
 C211 C 0.88103 -0.15215 0.25568
 C212 C 0.86985 -0.16327 0.23241
 C213 C 0.84681 -0.15188 0.22048
 C214 C 0.83546 -0.12891 0.23251
 C215 C 0.84668 -0.11782 0.25578
 C216 C 0.88124 -0.11778 0.29260
 N217 N 0.87010 -0.09584 0.30437
 N218 N 0.88044 -0.08562 0.32688
 C219 C 0.90238 -0.09690 0.33859
 N220 N 0.91355 -0.11881 0.32678
 N221 N 0.90321 -0.12903 0.30428
 C222 C 0.91374 -0.08568 0.36379
 C223 C 0.93633 -0.09753 0.37599
 C224 C 0.94685 -0.08710 0.39988
 C225 C 0.93502 -0.06461 0.41210
 C226 C 0.91256 -0.05265 0.39991
 C227 C 0.90202 -0.06307 0.37602
 H228 H 0.89867 -0.16154 0.26428
 H229 H 0.87934 -0.18090 0.22392
 H230 H 0.81778 -0.11940 0.22408
 H231 H 0.83731 -0.10023 0.26447
 H232 H 0.94590 -0.11493 0.36713
 H233 H 0.96425 -0.09667 0.40880
 H234 H 0.90307 -0.03524 0.40885
 H235 H 0.88464 -0.05340 0.36719
 C236 C 0.86973 0.12866 0.73144
 C237 C 0.84684 0.11713 0.74330
 C238 C 0.83569 0.12819 0.76660
 C239 C 0.84716 0.15105 0.77860
 C240 C 0.87014 0.16248 0.76682
 C241 C 0.88129 0.15143 0.74353
 C242 C 0.88136 0.11716 0.70651
 N243 N 0.90334 0.12840 0.69489
 N244 N 0.91364 0.11824 0.67237
 C245 C 0.90241 0.09639 0.66048
 N246 N 0.88046 0.08511 0.67213
 N247 N 0.87016 0.09528 0.69465
 C248 C 0.91372 0.08523 0.63526
 C249 C 0.90194 0.06269 0.62293
 C250 C 0.91245 0.05233 0.59903
 C251 C 0.93494 0.06428 0.58693
 C252 C 0.94682 0.08671 0.59924
 C253 C 0.93632 0.09708 0.62314
 H254 H 0.83742 0.09958 0.73456
 H255 H 0.81800 0.11883 0.77511
 H256 H 0.87953 0.18008 0.77551
 H257 H 0.89893 0.16083 0.73498
 H258 H 0.88455 0.05302 0.63170
 H259 H 0.90293 0.03495 0.59002
 H260 H 0.96423 0.09628 0.59038
 H261 H 0.94593 0.11444 0.63208
 C262 C 1.12932 -0.12955 0.73166
 C263 C 1.11783 -0.15237 0.74365
 C264 C 1.12898 -0.16350 0.76693
 C265 C 1.15201 -0.15211 0.77890
 C266 C 1.16337 -0.12913 0.76688
 C267 C 1.15218 -0.11803 0.74361
 C268 C 1.11767 -0.11797 0.70675
 N269 N 1.12884 -0.09602 0.69500
 N270 N 1.11853 -0.08578 0.67250
 C271 C 1.09658 -0.09703 0.66076
 N272 N 1.08538 -0.11894 0.67254
 N273 N 1.09570 -0.12919 0.69504
 C274 C 1.08526 -0.08577 0.63556
 C275 C 1.06265 -0.09758 0.62335
 C276 C 1.05215 -0.08712 0.59946
 C277 C 1.06403 -0.06464 0.58725
 C278 C 1.08652 -0.05273 0.59945
 C279 C 1.09703 -0.06318 0.62334
 H280 H 1.10020 -0.16176 0.73502
 H281 H 1.11949 -0.18114 0.77541
 H282 H 1.18104 -0.11962 0.77533
 H283 H 1.16156 -0.10043 0.73494
 H284 H 1.05304 -0.11496 0.63220
 H285 H 1.03474 -0.09666 0.59053
 H286 H 1.09604 -0.03533 0.59052
 H287 H 1.11442 -0.05354 0.63218
 C288 C 0.26789 1.12927 1.13002
 C289 C 0.25596 1.11775 1.15287
 C290 C 0.23272 1.12884 1.16404
 C291 C 0.22072 1.15183 1.15264
 C292 C 0.23267 1.16322 1.12962
 C293 C 0.25592 1.15210 1.11849
 C294 C 0.29276 1.11769 1.11838
 N295 N 0.30443 1.12891 1.09640
 N296 N 0.32689 1.11867 1.08610
 C297 C 0.33867 1.09676 1.09733
 N298 N 0.32697 1.08551 1.11928
 N299 N 0.30451 1.09575 1.12959
 C300 C 0.36382 1.08551 1.08600
 C301 C 0.37606 1.06292 1.09778
 C302 C 0.39990 1.05248 1.08726
 C303 C 0.41202 1.06441 1.06474
 C304 C 0.39980 1.08687 1.05286
 C305 C 0.37596 1.09732 1.06337
 H306 H 0.26462 1.10014 1.16227
 H307 H 0.22428 1.11932 1.18170
 H308 H 0.22420 1.18087 1.12010
 H309 H 0.26453 1.16150 1.10086
 H310 H 0.36728 1.05328 1.11520
 H311 H 0.40885 1.03508 1.09678
 H312 H 0.40866 1.09642 1.03542
 H313 H 0.36710 1.11470 1.05375
 C314 C 0.26761 0.87049 0.86998
 C315 C 0.25566 0.84767 0.88150
 C316 C 0.23240 0.83652 0.87036
 C317 C 0.22042 0.84790 0.84732
 C318 C 0.23240 0.87089 0.83592
 C319 C 0.25565 0.88200 0.84711
 C320 C 0.29249 0.88209 0.88163
 N321 N 0.30421 0.90404 0.87044
 N322 N 0.32668 0.91430 0.88075
 C323 C 0.33843 0.90306 0.90270
 N324 N 0.32670 0.88113 0.91392
 N325 N 0.30422 0.87087 0.90361
 C326 C 0.36361 0.91433 0.91403
 C327 C 0.37583 0.90252 0.93664
 C328 C 0.39969 0.91299 0.94715
 C329 C 0.41185 0.93549 0.93527
 C330 C 0.39964 0.94742 0.91278
 C331 C 0.37578 0.93695 0.90226
 H332 H 0.26430 0.83828 0.89914
 H333 H 0.22395 0.81888 0.87988
 H334 H 0.22394 0.88039 0.81824
 H335 H 0.26430 0.89960 0.83771
 H336 H 0.36702 0.88511 0.94625
 H337 H 0.40863 0.90345 0.96457
 H338 H 0.40853 0.96484 0.90327
 H339 H 0.36693 0.94660 0.88486
 C340 C 0.73110 0.87060 1.12951
 C341 C 0.74305 0.84778 1.11798
 C342 C 0.76632 0.83665 1.12909
 C343 C 0.77833 0.84805 1.15212
 C344 C 0.76635 0.87103 1.16352
 C345 C 0.74308 0.88212 1.15236
 C346 C 0.70620 0.88218 1.11789
 N347 N 0.69448 0.90412 1.12911
 N348 N 0.67199 0.91437 1.11883
 C349 C 0.66022 0.90313 1.09688
 N350 N 0.67196 0.88122 1.08563
 N351 N 0.69446 0.87097 1.09591
 C352 C 0.63503 0.91439 1.08559
 C353 C 0.62281 0.90260 1.06296
 C354 C 0.59893 0.91307 1.05249
 C355 C 0.58675 0.93552 1.06442
 C356 C 0.59896 0.94742 1.08693
 C357 C 0.62284 0.93697 1.09741
 H358 H 0.73439 0.83838 1.10034
 H359 H 0.77478 0.81902 1.11957
 H360 H 0.77483 0.88054 1.18119
 H361 H 0.73444 0.89972 1.16177
 H362 H 0.63164 0.88523 1.05331
 H363 H 0.59000 0.90354 1.03506
 H364 H 0.59005 0.96481 1.09648
 H365 H 0.63169 0.94659 1.11482
 C366 C 0.73087 1.12926 0.87051
 C367 C 0.74282 1.11772 0.84768
 C368 C 0.76611 1.12876 0.83658
 C369 C 0.77814 1.15172 0.84801
 C370 C 0.76616 1.16314 0.87100
 C371 C 0.74286 1.15205 0.88207
 C372 C 0.70594 1.11773 0.88208
 N373 N 0.69423 1.12896 0.90403
 N374 N 0.67172 1.11875 0.91427
 C375 C 0.65993 1.09687 0.90299
 N376 N 0.67166 1.08561 0.88106
 N377 N 0.69417 1.09582 0.87083
 C378 C 0.63472 1.08565 0.91424
 C379 C 0.62247 1.06310 0.90240
 C380 C 0.59859 1.05268 0.91285
 C381 C 0.58643 1.06459 0.93535
 C382 C 0.59866 1.08703 0.94729
 C383 C 0.62254 1.09746 0.93685
 H384 H 0.73414 1.10013 0.83826
 H385 H 0.77457 1.11923 0.81893
 H386 H 0.77465 1.18076 0.88055
 H387 H 0.73423 1.16147 0.89969
 H388 H 0.63129 1.05346 0.88499
 H389 H 0.58964 1.03530 0.90329
 H390 H 0.58976 1.09657 0.96472
 H391 H 0.63141 1.11482 0.94651
 C392 C 0.12924 0.26834 0.12956
 C393 C 0.11772 0.25634 0.15240
 C394 C 0.12886 0.23308 0.16351
 C395 C 0.15179 0.22124 0.15205
 C396 C 0.16322 0.23316 0.12912
 C397 C 0.15208 0.25642 0.11801
 C398 C 0.11762 0.29323 0.11799
 N399 N 0.12881 0.30499 0.09603
 N400 N 0.11853 0.32748 0.08580
 C401 C 0.09662 0.33919 0.09707
 N402 N 0.08540 0.32741 0.11899
 N403 N 0.09568 0.30492 0.12923
 C404 C 0.08532 0.36437 0.08582
 C405 C 0.06275 0.37655 0.09766
 C406 C 0.05227 0.40042 0.08720
 C407 C 0.06415 0.41262 0.06471
 C408 C 0.08660 0.40045 0.05277
 C409 C 0.09709 0.37659 0.06321
 H410 H 0.10012 0.26495 0.16182
 H411 H 0.11950 0.22446 0.18116
 H412 H 0.18087 0.22459 0.11974
 H413 H 0.16148 0.26509 0.10040
 H414 H 0.05315 0.36770 0.11506
 H415 H 0.03488 0.40932 0.09676
 H416 H 0.09612 0.40939 0.03534
 H417 H 0.11446 0.36778 0.05355
 C418 C -0.13021 0.26815 -0.12883
 C419 C -0.11868 0.25610 -0.15163
 C420 C -0.12983 0.23284 -0.16272
 C421 C -0.15280 0.22105 -0.15128
 C422 C -0.16425 0.23301 -0.12838
 C423 C -0.15309 0.25628 -0.11729
 C424 C -0.11858 0.29305 -0.11730
 N425 N -0.12978 0.30487 -0.09538
 N426 N -0.11948 0.32738 -0.08519
 C427 C -0.09755 0.33905 -0.09648
 N428 N -0.08633 0.32720 -0.11837
 N429 N -0.09662 0.30470 -0.12855
 C430 C -0.08625 0.36425 -0.08530
 C431 C -0.06368 0.37640 -0.09717
 C432 C -0.05320 0.40029 -0.08679
 C433 C -0.06506 0.41256 -0.06433
 C434 C -0.08752 0.40043 -0.05235
 C435 C -0.09802 0.37654 -0.06272
 H436 H -0.10104 0.26467 -0.16104
 H437 H -0.12045 0.22419 -0.18034
 H438 H -0.18193 0.22448 -0.11902
 H439 H -0.16250 0.26499 -0.09972
 H440 H -0.05408 0.36750 -0.11455
 H441 H -0.03580 0.40917 -0.09637
 H442 H -0.09703 0.40941 -0.03495
 H443 H -0.11539 0.36775 -0.05304
 C444 C 0.12900 0.73138 -0.12957
 C445 C 0.11744 0.74334 -0.15244
 C446 C 0.12856 0.76659 -0.16357
 C447 C 0.15150 0.77847 -0.15211
 C448 C 0.16297 0.76659 -0.12915
 C449 C 0.15186 0.74333 -0.11802
 C450 C 0.11741 0.70650 -0.11797
 N451 N 0.12864 0.69478 -0.09599
 N452 N 0.11839 0.67230 -0.08573
 C453 C 0.09646 0.66056 -0.09698
 N454 N 0.08519 0.67231 -0.11893
 N455 N 0.09545 0.69479 -0.12919
 C456 C 0.08519 0.63539 -0.08570
 C457 C 0.06258 0.62320 -0.09752
 C458 C 0.05213 0.59935 -0.08704
 C459 C 0.06406 0.58716 -0.06454
 C460 C 0.08655 0.59934 -0.05262
 C461 C 0.09702 0.62319 -0.06308
 H462 H 0.09983 0.73471 -0.16186
 H463 H 0.11917 0.77519 -0.18124
 H464 H 0.18063 0.77518 -0.11977
 H465 H 0.16128 0.73470 -0.10039
 H466 H 0.05293 0.63204 -0.11493
 H467 H 0.03471 0.59044 -0.09658
 H468 H 0.09610 0.59042 -0.03519
 H469 H 0.11442 0.63202 -0.05344
 C470 C -0.13010 0.73157 0.12912
 C471 C -0.15299 0.74345 0.11755
 C472 C -0.16414 0.76671 0.12863
 C473 C -0.15268 0.77867 0.15155
 C474 C -0.12971 0.76687 0.16303
 C475 C -0.11856 0.74362 0.15196
 C476 C -0.11847 0.70668 0.11760
 N477 N -0.09649 0.69505 0.12888
 N478 N -0.08619 0.67256 0.11869
 C479 C -0.09742 0.66073 0.09678
 N480 N -0.11936 0.67239 0.08546
 N481 N -0.12966 0.69488 0.09565
 C482 C -0.08611 0.63554 0.08558
 C483 C -0.09789 0.62327 0.06298
 C484 C -0.08739 0.59940 0.05259
 C485 C -0.06491 0.58728 0.06458
 C486 C -0.05302 0.59953 0.08707
 C487 C -0.06351 0.62340 0.09747
 H488 H -0.16240 0.73474 0.09995
 H489 H -0.18182 0.77524 0.11923
 H490 H -0.12033 0.77553 0.18067
 H491 H -0.10092 0.73505 0.16139
 H492 H -0.11528 0.63205 0.05328
 H493 H -0.09691 0.59043 0.03517
 H494 H -0.03561 0.59066 0.09666
 H495 H -0.05390 0.63229 0.11487
 C496 C 1.12841 0.13008 0.73171
 C497 C 1.11688 0.15295 0.74356
 C498 C 1.12794 0.16415 0.76686
 C499 C 1.15089 0.15278 0.77897
 C500 C 1.16229 0.12975 0.76708
 C501 C 1.15119 0.11859 0.74380
 C502 C 1.11689 0.11839 0.70678
 N503 N 1.12814 0.09641 0.69518
 N504 N 1.11796 0.08606 0.67267
 C505 C 1.09608 0.09723 0.66076
 N506 N 1.08479 0.11918 0.67239
 N507 N 1.09497 0.12954 0.69491
 C508 C 1.08490 0.08585 0.63555
 C509 C 1.06233 0.09757 0.62320
 C510 C 1.05196 0.08701 0.59930
 C511 C 1.06392 0.06452 0.58722
 C512 C 1.08638 0.05269 0.59955
 C513 C 1.09676 0.06324 0.62345
 H514 H 1.09930 0.16232 0.73481
 H515 H 1.11843 0.18183 0.77525
 H516 H 1.17990 0.12025 0.77563
 H517 H 1.16060 0.10095 0.73524
 H518 H 1.05265 0.11497 0.63194
 H519 H 1.03457 0.09649 0.59027
 H520 H 1.09596 0.03527 0.59072
 H521 H 1.11414 0.05367 0.63240
 C522 C 0.86994 -0.12937 0.73141
 C523 C 0.84712 -0.11785 0.74336
 C524 C 0.83600 -0.12893 0.76665
 C525 C 0.84739 -0.15191 0.77867
 C526 C 0.87038 -0.16331 0.76669
 C527 C 0.88147 -0.15219 0.74340
 C528 C 0.88152 -0.11780 0.70649
 N529 N 0.90346 -0.12902 0.69478
 N530 N 0.91371 -0.11878 0.67226
 C531 C 0.90247 -0.09688 0.66048
 N532 N 0.88056 -0.08563 0.67221
 N533 N 0.87031 -0.09587 0.69473
 C534 C 0.91374 -0.08563 0.63527
 C535 C 0.90195 -0.06306 0.62301
 C536 C 0.91242 -0.05263 0.59912
 C537 C 0.93490 -0.06454 0.58696
 C538 C 0.94679 -0.08700 0.59920
 C539 C 0.93633 -0.09744 0.62309
 H540 H 0.83773 -0.10025 0.73469
 H541 H 0.81836 -0.11942 0.77511
 H542 H 0.87989 -0.18094 0.77517
 H543 H 0.89907 -0.16158 0.73476
 H544 H 0.88456 -0.05342 0.63183
 H545 H 0.90290 -0.03523 0.59017
 H546 H 0.96419 -0.09654 0.59030
 H547 H 0.94595 -0.11482 0.63196
 C548 C 1.12906 -0.13032 0.26828
 C549 C 1.11754 -0.15319 0.25638
 C550 C 1.12863 -0.16439 0.23313
 C551 C 1.15160 -0.15302 0.22109
 C552 C 1.16298 -0.12998 0.23302
 C553 C 1.15186 -0.11882 0.25627
 C554 C 1.11749 -0.11865 0.29316
 N555 N 1.12872 -0.09667 0.30483
 N556 N 1.11848 -0.08633 0.32730
 C557 C 1.09657 -0.09751 0.33909
 N558 N 1.08531 -0.11946 0.32740
 N559 N 1.09554 -0.12980 0.30493
 C560 C 1.08531 -0.08615 0.36425
 C561 C 1.06270 -0.09787 0.37647
 C562 C 1.05225 -0.08732 0.40031
 C563 C 1.06418 -0.06483 0.41247
 C564 C 1.08668 -0.05300 0.40027
 C565 C 1.09714 -0.06354 0.37642
 H566 H 1.09995 -0.16258 0.26507
 H567 H 1.11913 -0.18207 0.22471
 H568 H 1.18061 -0.12048 0.22453
 H569 H 1.16125 -0.10118 0.26487
 H570 H 1.05304 -0.11527 0.36766
 H571 H 1.03482 -0.09680 0.40924
 H572 H 1.09624 -0.03559 0.40916
 H573 H 1.11455 -0.05397 0.36757
 C574 C 0.87049 0.12988 0.26763
 C575 C 0.84767 0.11839 0.25560
 C576 C 0.83653 0.12956 0.23234
 C577 C 0.84790 0.15260 0.22044
 C578 C 0.87090 0.16396 0.23250
 C579 C 0.88201 0.15275 0.25576
 C580 C 0.88207 0.11820 0.29253
 N581 N 0.90401 0.12936 0.30435
 N582 N 0.91424 0.11903 0.32685
 C583 C 0.90298 0.09708 0.33851
 N584 N 0.88107 0.08589 0.32667
 N585 N 0.87084 0.09622 0.30417
 C586 C 0.91420 0.08573 0.36372
 C587 C 0.90236 0.06313 0.37585
 C588 C 0.91278 0.05261 0.39975
 C589 C 0.93525 0.06446 0.41204
 C590 C 0.94720 0.08694 0.39992
 C591 C 0.93679 0.09747 0.37602
 H592 H 0.83828 0.10075 0.26417
 H593 H 0.81888 0.12007 0.22383
 H594 H 0.88039 0.18164 0.22410
 H595 H 0.89961 0.16212 0.26446
 H596 H 0.88497 0.05354 0.36694
 H597 H 0.90321 0.03520 0.40861
 H598 H 0.96460 0.09644 0.40892
 H599 H 0.94645 0.11487 0.36725
 C600 C 0.12849 0.26835 -0.12997
 C601 C 0.11694 0.25647 -0.15286
 C602 C 0.12799 0.23321 -0.16405
 C603 C 0.15095 0.22116 -0.15263
 C604 C 0.16236 0.23308 -0.12957
 C605 C 0.15128 0.25633 -0.11843
 C606 C 0.11696 0.29324 -0.11831
 N607 N 0.12823 0.30488 -0.09631
 N608 N 0.11804 0.32736 -0.08599
 C609 C 0.09614 0.33918 -0.09721
 N610 N 0.08484 0.32751 -0.11918
 N611 N 0.09503 0.30503 -0.12951
 C612 C 0.08494 0.36435 -0.08585
 C613 C 0.06234 0.37660 -0.09762
 C614 C 0.05195 0.40045 -0.08708
 C615 C 0.06393 0.41258 -0.06457
 C616 C 0.08641 0.40034 -0.05270
 C617 C 0.09682 0.37649 -0.06322
 H618 H 0.09935 0.26516 -0.16228
 H619 H 0.11846 0.22479 -0.18174
 H620 H 0.17999 0.22457 -0.12004
 H621 H 0.16070 0.26492 -0.10078
 H622 H 0.05265 0.36781 -0.11503
 H623 H 0.03454 0.40940 -0.09659
 H624 H 0.09600 0.40922 -0.03527
 H625 H 0.11421 0.36761 -0.05362
 C626 C -0.12971 0.26831 0.12965
 C627 C -0.11816 0.25633 0.15249
 C628 C -0.12923 0.23306 0.16361
 C629 C -0.15223 0.22108 0.15219
 C630 C -0.16366 0.23308 0.12918
 C631 C -0.15254 0.25636 0.11810
 C632 C -0.11815 0.29321 0.11808
 N633 N -0.12939 0.30494 0.09611
 N634 N -0.11916 0.32744 0.08586
 C635 C -0.09724 0.33919 0.09713
 N636 N -0.08597 0.32744 0.11907
 N637 N -0.09620 0.30494 0.12932
 C638 C -0.08600 0.36438 0.08587
 C639 C -0.06340 0.37659 0.09769
 C640 C -0.05297 0.40046 0.08722
 C641 C -0.06490 0.41264 0.06472
 C642 C -0.08738 0.40045 0.05279
 C643 C -0.09782 0.37658 0.06325
 H644 H -0.10054 0.26497 0.16191
 H645 H -0.11969 0.22458 0.18127
 H646 H -0.18131 0.22463 0.11965
 H647 H -0.16197 0.26501 0.10048
 H648 H -0.05375 0.36776 0.11510
 H649 H -0.03556 0.40938 0.09678
 H650 H -0.09693 0.40936 0.03537
 H651 H -0.11521 0.36774 0.05360
 C652 C -0.12956 0.73157 -0.12970
 C653 C -0.15236 0.74358 -0.11816
 C654 C -0.16344 0.76684 -0.12931
 C655 C -0.15200 0.77868 -0.15228
 C656 C -0.12911 0.76675 -0.16373
 C657 C -0.11803 0.74348 -0.15258
 C658 C -0.11801 0.70667 -0.11807
 N659 N -0.09611 0.69490 -0.12928
 N660 N -0.08590 0.67240 -0.11899
 C661 C -0.09715 0.66070 -0.09704
 N662 N -0.11903 0.67250 -0.08580
 N663 N -0.12924 0.69500 -0.09609
 C664 C -0.08594 0.63551 -0.08574
 C665 C -0.09776 0.62335 -0.06312
 C666 C -0.08734 0.59947 -0.05264
 C667 C -0.06491 0.58723 -0.06454
 C668 C -0.05299 0.59938 -0.08705
 C669 C -0.06339 0.62325 -0.09754
 H670 H -0.16176 0.73498 -0.10053
 H671 H -0.18106 0.77547 -0.11993
 H672 H -0.11975 0.77531 -0.18141
 H673 H -0.10045 0.73481 -0.16199
 H674 H -0.11512 0.63222 -0.05349
 H675 H -0.09689 0.59058 -0.03521
 H676 H -0.03561 0.59042 -0.09658
 H677 H -0.05375 0.63206 -0.11495
 C678 C 0.12908 0.73140 0.13009
 C679 C 0.15188 0.74339 0.11857
 C680 C 0.16300 0.76664 0.12971
 C681 C 0.15161 0.77859 0.15274
 C682 C 0.12865 0.76657 0.16413
 C683 C 0.11756 0.74331 0.15295
 C684 C 0.11750 0.70651 0.11844
 N685 N 0.09557 0.69476 0.12963
 N686 N 0.08533 0.67229 0.11931
 C687 C 0.09657 0.66059 0.09736
 N688 N 0.11848 0.67237 0.08614
 N689 N 0.12872 0.69484 0.09645
 C690 C 0.08532 0.63542 0.08602
 C691 C 0.09712 0.62326 0.06339
 C692 C 0.08666 0.59941 0.05288
 C693 C 0.06419 0.58720 0.06476
 C694 C 0.05228 0.59935 0.08727
 C695 C 0.06273 0.62320 0.09779
 H696 H 0.16127 0.73478 0.10093
 H697 H 0.18062 0.77513 0.12019
 H698 H 0.11914 0.77501 0.18180
 H699 H 0.09997 0.73464 0.16235
 H700 H 0.11451 0.63211 0.05379
 H701 H 0.09619 0.59052 0.03545
 H702 H 0.03488 0.59042 0.09678
 H703 H 0.05309 0.63200 0.11520
 C704 C 0.26736 1.12960 0.87063
 C705 C 0.25545 1.15245 0.88217
 C706 C 0.23220 1.16360 0.87103
 C707 C 0.22028 1.15217 0.84807
 C708 C 0.23211 1.12922 0.83662
 C709 C 0.25536 1.11808 0.84777
 C710 C 0.29225 1.11798 0.88223
 N711 N 0.30393 1.09604 0.87099
 N712 N 0.32642 1.08576 0.88124
 C713 C 0.33822 1.09698 0.90317
 N714 N 0.32652 1.11890 0.91444
 N715 N 0.30403 1.12918 0.90420
 C716 C 0.36342 1.08570 0.91442
 C717 C 0.37567 1.09747 0.93704
 C718 C 0.39956 1.08700 0.94747
 C719 C 0.41171 1.06455 0.93551
 C720 C 0.39947 1.05266 0.91301
 C721 C 0.37559 1.06313 0.90257
 H722 H 0.26413 1.16185 0.89979
 H723 H 0.22364 1.18126 0.88040
 H724 H 0.22348 1.11986 0.81895
 H725 H 0.26396 1.10046 0.83835
 H726 H 0.36687 1.11485 0.94671
 H727 H 0.40852 1.09651 0.96489
 H728 H 0.40837 1.03528 0.90343
 H729 H 0.36671 1.05352 0.88516
 C730 C 0.26802 0.87016 1.12957
 C731 C 0.25606 0.88168 1.15243
 C732 C 0.23283 0.87053 1.16357
 C733 C 0.22097 0.84758 1.15211
 C734 C 0.23285 0.83615 1.12917
 C735 C 0.25609 0.84730 1.11804
 C736 C 0.29288 0.88179 1.11797
 N737 N 0.30460 0.87061 1.09600
 N738 N 0.32705 0.88090 1.08573
 C739 C 0.33878 0.90283 1.09699
 N740 N 0.32704 0.91404 1.11894
 N741 N 0.30458 0.90375 1.12921
 C742 C 0.36393 0.91414 1.08572
 C743 C 0.37612 0.93673 1.09755
 C744 C 0.39996 0.94722 1.08707
 C745 C 0.41212 0.93536 1.06455
 C746 C 0.39995 0.91289 1.05261
 C747 C 0.37611 0.90238 1.06308
 H748 H 0.26467 0.89930 1.16185
 H749 H 0.22423 0.87990 1.18123
 H750 H 0.22428 0.81849 1.11979
 H751 H 0.26473 0.83790 1.10042
 H752 H 0.36730 0.94633 1.11497
 H753 H 0.40887 0.96462 1.09663
 H754 H 0.40885 0.90338 1.03517
 H755 H 0.36729 0.88500 1.05342
 C756 C 0.73120 1.12959 1.12903
 C757 C 0.74308 1.15247 1.11750
 C758 C 0.76637 1.16360 1.12860
 C759 C 0.77835 1.15212 1.15150
 C760 C 0.76654 1.12916 1.16294
 C761 C 0.74326 1.11803 1.15184
 C762 C 0.70627 1.11799 1.11748
 N763 N 0.69463 1.09602 1.12872
 N764 N 0.67211 1.08575 1.11852
 C765 C 0.66025 1.09700 1.09663
 N766 N 0.67192 1.11894 1.08536
 N767 N 0.69444 1.12921 1.09556
 C768 C 0.63503 1.08572 1.08542
 C769 C 0.62272 1.09752 1.06285
 C770 C 0.59882 1.08704 1.05246
 C771 C 0.58670 1.06456 1.06441
 C772 C 0.59899 1.05265 1.08686
 C773 C 0.62289 1.06312 1.09727
 H774 H 0.73436 1.16190 1.09992
 H775 H 0.77491 1.18128 1.11924
 H776 H 0.77521 1.11976 1.18057
 H777 H 0.73468 1.10040 1.16124
 H778 H 0.63150 1.11491 1.05319
 H779 H 0.58982 1.09657 1.03506
 H780 H 0.59012 1.03524 1.09643
 H781 H 0.63181 1.05349 1.11464
 C782 C 0.73086 0.87116 0.87016
 C783 C 0.74278 0.88268 0.84728
 C784 C 0.76605 0.87159 0.83616
 C785 C 0.77797 0.84871 0.84765
 C786 C 0.76613 0.83727 0.87062
 C787 C 0.74287 0.84836 0.88173
 C788 C 0.70596 0.88270 0.88175
 N789 N 0.69429 0.87148 0.90373
 N790 N 0.67179 0.88168 0.91399
 C791 C 0.65998 0.90355 0.90273
 N792 N 0.67168 0.91481 0.88078
 N793 N 0.69418 0.90461 0.87052
 C794 C 0.63478 0.91475 0.91401
 C795 C 0.62252 0.93731 0.90220
 C796 C 0.59864 0.94770 0.91269
 C797 C 0.58651 0.93575 0.93518
 C798 C 0.59876 0.91331 0.94709
 C799 C 0.62263 0.90291 0.93662
 H800 H 0.73410 0.90025 0.83784
 H801 H 0.77461 0.88095 0.81848
 H802 H 0.77476 0.81966 0.88003
 H803 H 0.73426 0.83896 0.89937
 H804 H 0.63132 0.94697 0.88480
 H805 H 0.58967 0.96508 0.90315
 H806 H 0.58988 0.90374 0.96451
 H807 H 0.63152 0.88555 0.94625
   
