data_POSCAR
  _audit_creation_date              2014-09-24
  _audit_creation_method            'ToBaCCo'
  _symmetry_space_group_name_H-M    'P1'
  _symmetry_Int_Tables_number       1
  _symmetry_cell_setting            triclinic
  loop_
  _symmetry_equiv_pos_as_xyz
 x,y,z
_cell_length_a 36.8588
_cell_length_b 35.8271
_cell_length_c 36.1328
_cell_angle_alpha 89.951400
_cell_angle_beta 89.970200
_cell_angle_gamma 90.018600
loop_
  _atom_site_label
  _atom_site_type_symbol
  _atom_site_fract_x
  _atom_site_fract_y
  _atom_site_fract_z
O1 O 0.32256 0.37671 0.03451
 O2 O 0.37143 0.32493 -0.03738
 O3 O 0.31981 0.37502 -0.03661
 O4 O 0.37390 0.32639 0.03387
 O5 O 0.33290 0.28151 0.03630
 O6 O 0.27832 0.33065 -0.03409
 O7 O 0.33022 0.28020 -0.03543
 O8 O 0.28128 0.33211 0.03727
 Cu9 Cu 0.35104 0.35519 -0.00167
 Cu10 Cu 0.30157 0.30157 0.00127
 C11 C 0.29310 0.36380 0.04746
 C12 C 0.35970 0.29344 -0.04813
 C13 C 0.28938 0.36178 -0.04668
 C14 C 0.36308 0.29523 0.04651
 O15 O 0.67992 0.62621 0.03607
 O16 O 0.62923 0.67519 -0.03663
 O17 O 0.67936 0.62370 -0.03510
 O18 O 0.62822 0.67598 0.03450
 O19 O 0.66939 0.72072 0.03375
 O20 O 0.72133 0.66759 -0.03630
 O21 O 0.67087 0.71953 -0.03778
 O22 O 0.72166 0.67045 0.03526
 Cu23 Cu 0.65006 0.64585 -0.00020
 Cu24 Cu 0.70004 0.69903 -0.00133
 C25 C 0.70989 0.63946 0.04739
 C26 C 0.64089 0.70619 -0.04891
 C27 C 0.70947 0.63603 -0.04701
 C28 C 0.63935 0.70765 0.04531
 O29 O 0.62711 0.32484 1.03668
 O30 O 0.67868 0.37415 0.96449
 O31 O 0.62753 0.32389 0.96483
 O32 O 0.67740 0.37633 1.03561
 O33 O 0.71933 0.33244 1.03733
 O34 O 0.66910 0.27954 0.96598
 O35 O 0.72059 0.33013 0.96588
 O36 O 0.66869 0.28052 1.03776
 Cu37 Cu 0.64844 0.35412 1.00030
 Cu38 Cu 0.69858 0.30117 1.00196
 C39 C 0.63870 0.29381 1.04895
 C40 C 0.70884 0.36103 0.95354
 C41 C 0.63937 0.29259 0.95368
 C42 C 0.70740 0.36403 1.04786
 O43 O 0.32046 0.62479 0.96666
 O44 O 0.37149 0.67623 1.03676
 O45 O 0.31943 0.62661 1.03780
 O46 O 0.37076 0.67603 0.96557
 O47 O 0.32937 0.72058 0.96471
 O48 O 0.27796 0.67104 1.03720
 O49 O 0.33057 0.72119 1.03624
 O50 O 0.27874 0.66899 0.96568
 Cu51 Cu 0.34965 0.64649 1.00182
 Cu52 Cu 0.29997 0.69994 1.00097
 C53 C 0.29052 0.63749 0.95482
 C54 C 0.36053 0.70791 1.04767
 C55 C 0.28937 0.63978 1.04909
 C56 C 0.35926 0.70714 0.95342
 O57 O 0.03343 0.32163 0.37322
 O58 O -0.03702 0.37028 0.32064
 O59 O -0.03622 0.31915 0.37204
 O60 O 0.03336 0.37207 0.32109
 O61 O 0.03465 0.32834 0.27812
 O62 O -0.03469 0.27500 0.32950
 O63 O -0.03571 0.32652 0.27766
 O64 O 0.03540 0.27747 0.33069
 Cu65 Cu -0.00179 0.35026 0.35090
 Cu66 Cu 0.00011 0.29743 0.29965
 C67 C 0.04575 0.29076 0.36154
 C68 C -0.04798 0.35723 0.28998
 C69 C -0.04671 0.28760 0.36001
 C70 C 0.04540 0.35960 0.29056
 O71 O 0.03616 0.67848 0.62762
 O72 O -0.03448 0.62626 0.67664
 O73 O -0.03379 0.67732 0.62491
 O74 O 0.03515 0.62733 0.67893
 O75 O 0.03313 0.67092 0.72207
 O76 O -0.03593 0.72143 0.66742
 O77 O -0.03682 0.67003 0.71955
 O78 O 0.03455 0.72249 0.67035
 Cu79 Cu 0.00092 0.64803 0.64771
 Cu80 Cu -0.00153 0.70073 0.69910
 C81 C 0.04704 0.70959 0.64020
 C82 C -0.04694 0.63860 0.70700
 C83 C -0.04616 0.70831 0.63643
 C84 C 0.04526 0.64001 0.71007
 O85 O 0.96378 0.67999 0.37380
 O86 O 1.03409 0.62786 0.32421
 O87 O 1.03416 0.68102 0.37356
 O88 O 0.96432 0.62905 0.32233
 O89 O 0.96419 0.67259 0.27903
 O90 O 1.03552 0.72386 0.32967
 O91 O 1.03455 0.67044 0.28001
 O92 O 0.96505 0.72397 0.33098
 Cu93 Cu 0.99904 0.65027 0.35289
 Cu94 Cu 0.99987 0.70209 0.30055
 C95 C 0.95293 0.71118 0.36141
 C96 C 1.04561 0.63956 0.29322
 C97 C 1.04656 0.71151 0.36066
 C98 C 0.95276 0.64162 0.29164
 O99 O 0.96586 0.32170 0.62486
 O100 O 1.03491 0.37320 0.67643
 O101 O 1.03565 0.32057 0.62632
 O102 O 0.96500 0.37216 0.67701
 O103 O 0.96477 0.32856 0.72023
 O104 O 1.03530 0.27688 0.66942
 O105 O 1.03499 0.32980 0.71984
 O106 O 0.96522 0.27780 0.66776
 Cu107 Cu 1.00040 0.35126 0.64687
 Cu108 Cu 1.00005 0.29888 0.69868
 C109 C 0.95438 0.29059 0.63685
 C110 C 1.04612 0.36095 0.70731
 C111 C 1.04690 0.28941 0.63870
 C112 C 0.95341 0.35955 0.70771
 O113 O 0.37122 0.03754 0.32171
 O114 O 0.32295 -0.03523 0.37311
 O115 O 0.37323 -0.03423 0.32205
 O116 O 0.32059 0.03641 0.37219
 O117 O 0.27833 0.03477 0.32891
 O118 O 0.33160 -0.03591 0.27818
 O119 O 0.28086 -0.03727 0.32970
 O120 O 0.32945 0.03624 0.27792
 Cu121 Cu 0.35119 0.00125 0.35158
 Cu122 Cu 0.30082 -0.00076 0.29926
 C123 C 0.35919 0.04869 0.29072
 C124 C 0.29313 -0.04787 0.36085
 C125 C 0.36200 -0.04637 0.29110
 C126 C 0.29007 0.04693 0.35969
 O127 O 0.62766 0.03537 0.67849
 O128 O 0.67920 -0.03729 0.63050
 O129 O 0.62784 -0.03651 0.68009
 O130 O 0.67858 0.03433 0.62826
 O131 O 0.72045 0.03599 0.67188
 O132 O 0.66911 -0.03532 0.72436
 O133 O 0.72101 -0.03606 0.67427
 O134 O 0.66886 0.03702 0.72278
 Cu135 Cu 0.64917 -0.00112 0.64999
 Cu136 Cu 0.69901 0.00062 0.70284
 C137 C 0.63887 0.04794 0.70926
 C138 C 0.70931 -0.04836 0.64354
 C139 C 0.63933 -0.04751 0.71136
 C140 C 0.70863 0.04646 0.64049
 O141 O 0.32453 1.03459 0.62432
 O142 O 0.37539 0.96355 0.67564
 O143 O 0.32385 0.96283 0.62570
 O144 O 0.37511 1.03551 0.67489
 O145 O 0.33397 1.03593 0.71930
 O146 O 0.28186 0.96381 0.66930
 O147 O 0.33365 0.96331 0.71944
 O148 O 0.28299 1.03585 0.66834
 Cu149 Cu 0.35389 0.99901 0.64580
 Cu150 Cu 0.30399 0.99980 0.69858
 C151 C 0.29467 1.04669 0.63701
 C152 C 0.36379 0.95186 0.70663
 C153 C 0.29358 0.95176 0.63847
 C154 C 0.36380 1.04752 0.70588
 O155 O 0.67820 1.03599 0.37316
 O156 O 0.62768 0.96506 0.32186
 O157 O 0.67815 0.96422 0.37255
 O158 O 0.62780 1.03682 0.32261
 O159 O 0.66985 1.03773 0.27905
 O160 O 0.72025 0.96422 0.32902
 O161 O 0.66921 0.96549 0.27782
 O162 O 0.72072 1.03641 0.33014
 Cu163 Cu 0.64878 1.00045 0.35186
 Cu164 Cu 0.69926 1.00097 0.29959
 C165 C 0.70851 1.04769 0.36110
 C166 C 0.63913 0.95391 0.29064
 C167 C 0.70820 0.95251 0.35990
 C168 C 0.63974 1.04910 0.29197
 O169 O 0.87160 0.82442 0.46478
 O170 O 0.82169 0.87425 0.53754
 O171 O 0.87386 0.82484 0.53582
 O172 O 0.82078 0.87501 0.46565
 O173 O 0.77925 0.83059 0.46655
 O174 O 0.83304 0.77974 0.53671
 O175 O 0.78047 0.82954 0.53835
 O176 O 0.83029 0.77974 0.46513
 Cu177 Cu 0.85098 0.85420 0.50091
 Cu178 Cu 0.80157 0.80044 0.50186
 C179 C 0.85989 0.79325 0.45310
 C180 C 0.79217 0.86078 0.54985
 C181 C 0.86317 0.79325 0.54744
 C182 C 0.79079 0.86175 0.45444
 O183 O 0.12463 0.17405 0.46538
 O184 O 0.17613 0.12385 0.53615
 O185 O 0.12590 0.17555 0.53659
 O186 O 0.17664 0.12466 0.46483
 O187 O 0.21821 0.16907 0.46444
 O188 O 0.16739 0.22003 0.53611
 O189 O 0.21793 0.16800 0.53599
 O190 O 0.16588 0.21874 0.46458
 Cu191 Cu 0.14670 0.14510 0.50085
 Cu192 Cu 0.19653 0.19844 0.50029
 C193 C 0.13587 0.20529 0.45347
 C194 C 0.20624 0.13664 0.54743
 C195 C 0.13749 0.20697 0.54786
 C196 C 0.20649 0.13782 0.45296
 O197 O 0.17725 0.87433 0.46453
 O198 O 0.12740 0.82305 0.53609
 O199 O 0.17899 0.87303 0.53566
 O200 O 0.12708 0.82297 0.46422
 O201 O 0.16847 0.77845 0.46341
 O202 O 0.22077 0.82888 0.53461
 O203 O 0.16880 0.77853 0.53519
 O204 O 0.21905 0.83024 0.46313
 Cu205 Cu 0.14845 0.85267 0.50023
 Cu206 Cu 0.19842 0.79952 0.49898
 C207 C 0.20707 0.86167 0.45231
 C208 C 0.13912 0.79176 0.54740
 C209 C 0.20921 0.86001 0.54660
 C210 C 0.13853 0.79182 0.45212
 O211 O 0.87664 0.17197 0.53407
 O212 O 0.82504 0.12185 0.46316
 O213 O 0.87547 0.17327 0.46284
 O214 O 0.82535 0.12157 0.53457
 O215 O 0.78353 0.16563 0.53556
 O216 O 0.83385 0.21758 0.46377
 O217 O 0.78325 0.16597 0.46351
 O218 O 0.83500 0.21625 0.53522
 Cu219 Cu 0.85476 0.14274 0.49856
 Cu220 Cu 0.80464 0.19575 0.49960
 C221 C 0.86518 0.20307 0.54609
 C222 C 0.79501 0.13479 0.45176
 C223 C 0.86370 0.20467 0.45173
 C224 C 0.79553 0.13437 0.54680
 O225 O 0.46490 0.87122 0.82362
 O226 O 0.53525 0.81902 0.87338
 O227 O 0.53491 0.87130 0.82325
 O228 O 0.46495 0.81933 0.87420
 O229 O 0.46430 0.77615 0.83064
 O230 O 0.53477 0.82830 0.77950
 O231 O 0.53466 0.77562 0.83003
 O232 O 0.46450 0.82857 0.77955
 Cu233 Cu 0.50002 0.84946 0.85301
 Cu234 Cu 0.49948 0.79779 0.80054
 C235 C 0.45326 0.85934 0.79273
 C236 C 0.54654 0.78813 0.86060
 C237 C 0.54634 0.85908 0.79240
 C238 C 0.45311 0.78861 0.86153
 O239 O 0.53544 0.18053 0.12928
 O240 O 0.46465 0.12859 0.17900
 O241 O 0.46579 0.17889 0.12679
 O242 O 0.53509 0.12845 0.17963
 O243 O 0.53379 0.17181 0.22300
 O244 O 0.46452 0.22317 0.16922
 O245 O 0.46329 0.17242 0.22190
 O246 O 0.53472 0.22428 0.17232
 Cu247 Cu 0.50036 0.14967 0.14949
 Cu248 Cu 0.49889 0.20228 0.20099
 C249 C 0.54664 0.21155 0.14187
 C250 C 0.45228 0.14135 0.20928
 C251 C 0.45401 0.21005 0.13832
 C252 C 0.54595 0.14108 0.21050
 O253 O 0.46425 0.17945 0.87384
 O254 O 0.53474 0.12728 0.82425
 O255 O 0.53473 0.17990 0.87397
 O256 O 0.46505 0.12784 0.82295
 O257 O 0.46508 0.17076 0.77912
 O258 O 0.53557 0.22297 0.83025
 O259 O 0.53558 0.17006 0.78026
 O260 O 0.46498 0.22290 0.83049
 Cu261 Cu 0.49960 0.14944 0.85320
 Cu262 Cu 0.50029 0.20105 0.80065
 C263 C 0.45300 0.21036 0.86108
 C264 C 0.54661 0.13916 0.79344
 C265 C 0.54683 0.21047 0.86109
 C266 C 0.45379 0.13981 0.79192
 O267 O 0.46548 0.82659 0.12171
 O268 O 0.53582 0.87799 0.17240
 O269 O 0.53553 0.82661 0.12106
 O270 O 0.46589 0.87805 0.17292
 O271 O 0.46595 0.83453 0.21619
 O272 O 0.53598 0.78282 0.16406
 O273 O 0.53644 0.83430 0.21551
 O274 O 0.46536 0.78294 0.16486
 Cu275 Cu 0.50066 0.85665 0.14271
 Cu276 Cu 0.50097 0.80423 0.19447
 C277 C 0.45385 0.79569 0.13421
 C278 C 0.54760 0.86540 0.20297
 C279 C 0.54718 0.79560 0.13327
 C280 C 0.45453 0.86556 0.20373
 O281 O 0.87521 0.53436 0.82426
 O282 O 0.82335 0.46240 0.87338
 O283 O 0.87396 0.46257 0.82263
 O284 O 0.82501 0.53413 0.87543
 O285 O 0.78278 0.53632 0.83216
 O286 O 0.83207 0.46446 0.77899
 O287 O 0.78105 0.46429 0.83015
 O288 O 0.83322 0.53654 0.78075
 Cu289 Cu 0.85360 0.49816 0.85324
 Cu290 Cu 0.80303 0.50059 0.80112
 C291 C 0.86359 0.54703 0.79366
 C292 C 0.79290 0.45182 0.86076
 C293 C 0.86196 0.45199 0.79142
 C294 C 0.79507 0.54671 0.86336
 O295 O 0.17584 0.46526 0.12597
 O296 O 0.12479 0.53639 0.17640
 O297 O 0.17676 0.53706 0.12719
 O298 O 0.12615 0.46460 0.17766
 O299 O 0.16802 0.46431 0.22135
 O300 O 0.21857 0.53714 0.17093
 O301 O 0.16616 0.53666 0.22055
 O302 O 0.21804 0.46509 0.16931
 Cu303 Cu 0.14673 0.50081 0.14747
 Cu304 Cu 0.19688 0.50082 0.19999
 C305 C 0.20606 0.45377 0.13828
 C306 C 0.13608 0.54802 0.20746
 C307 C 0.20680 0.54874 0.13997
 C308 C 0.13803 0.45267 0.20849
 O309 O 0.87279 0.46334 0.17763
 O310 O 0.82292 0.53655 0.12789
 O311 O 0.87389 0.53589 0.17809
 O312 O 0.82352 0.46491 0.12575
 O313 O 0.78094 0.46399 0.16874
 O314 O 0.83203 0.53488 0.22178
 O315 O 0.78058 0.53594 0.17118
 O316 O 0.83047 0.46237 0.22089
 Cu317 Cu 0.85261 0.50025 0.14815
 Cu318 Cu 0.80183 0.49926 0.20009
 C319 C 0.86045 0.45075 0.20802
 C320 C 0.79269 0.54791 0.14047
 C321 C 0.86200 0.54707 0.20914
 C322 C 0.79320 0.45313 0.13765
 O323 O 0.12318 0.46343 0.82626
 O324 O 0.17330 0.53505 0.87714
 O325 O 0.12380 0.53536 0.82531
 O326 O 0.17486 0.46321 0.87598
 O327 O 0.21686 0.46364 0.83239
 O328 O 0.16589 0.53569 0.78180
 O329 O 0.21561 0.53567 0.83385
 O330 O 0.16498 0.46352 0.78247
 Cu331 Cu 0.14458 0.49920 0.85551
 Cu332 Cu 0.19505 0.49965 0.80323
 C333 C 0.13487 0.45195 0.79528
 C334 C 0.20341 0.54689 0.86483
 C335 C 0.13578 0.54722 0.79446
 C336 C 0.20507 0.45186 0.86328
 C337 C 0.27042 0.38746 0.07284
 C338 C 0.26145 0.36966 0.11050
 C339 C 0.23976 0.39131 0.13240
 C340 C 0.22911 0.42872 0.11458
 C341 C 0.26527 0.44725 0.10413
 C342 C 0.28691 0.42576 0.08239
 C343 C 0.23343 0.39657 0.05555
 C344 C 0.21180 0.41802 0.07727
 H345 H 0.27134 0.34250 0.11920
 H346 H 0.23101 0.38262 0.15977
 H347 H 0.27317 0.47504 0.11303
 H348 H 0.31330 0.43531 0.07298
 H349 H 0.22498 0.38700 0.02837
 H350 H 0.18488 0.42648 0.06848
 C351 C 0.73235 0.61651 0.07356
 C352 C 0.76920 0.63333 0.08486
 C353 C 0.78903 0.61088 0.10766
 C354 C 0.77029 0.57375 0.11706
 C355 C 0.73316 0.58503 0.13316
 C356 C 0.71333 0.60744 0.11033
 C357 C 0.74178 0.57840 0.05672
 C358 C 0.76141 0.55605 0.07945
 H359 H 0.77883 0.66055 0.07604
 H360 H 0.81545 0.61893 0.11827
 H361 H 0.72334 0.57649 0.16020
 H362 H 0.68673 0.61799 0.11787
 H363 H 0.73367 0.56969 0.02914
 H364 H 0.76989 0.52819 0.07135
 C365 C 0.73153 0.38388 0.92745
 C366 C 0.74122 0.42191 0.94432
 C367 C 0.76118 0.44406 0.92164
 C368 C 0.77003 0.42627 0.88405
 C369 C 0.78838 0.38898 0.89351
 C370 C 0.76827 0.36673 0.91626
 C371 C 0.71274 0.39312 0.89061
 C372 C 0.73287 0.41535 0.86783
 H373 H 0.73305 0.43070 0.97185
 H374 H 0.76986 0.47185 0.92974
 H375 H 0.81475 0.38066 0.88297
 H376 H 0.77761 0.33942 0.92509
 H377 H 0.68607 0.38282 0.88299
 H378 H 0.72326 0.42398 0.84076
 C379 C 0.26754 0.61378 0.92979
 C380 C 0.28428 0.57566 0.91997
 C381 C 0.26264 0.55400 0.89845
 C382 C 0.22624 0.57218 0.88843
 C383 C 0.20916 0.58261 0.92595
 C384 C 0.23081 0.60426 0.94749
 C385 C 0.25805 0.63157 0.89228
 C386 C 0.23637 0.60974 0.87058
 H387 H 0.31081 0.56629 0.92906
 H388 H 0.27070 0.52630 0.88944
 H389 H 0.18240 0.57383 0.93498
 H390 H 0.22254 0.61370 0.97478
 H391 H 0.26757 0.65887 0.88356
 H392 H 0.22725 0.61841 0.84333
 C393 C 0.07081 0.26837 0.38569
 C394 C 0.05431 0.23040 0.39596
 C395 C 0.07589 0.20914 0.41795
 C396 C 0.11224 0.22780 0.42796
 C397 C 0.12957 0.23782 0.39053
 C398 C 0.10782 0.25911 0.36834
 C399 C 0.07996 0.28666 0.42311
 C400 C 0.10153 0.26540 0.44514
 H401 H 0.02776 0.22105 0.38678
 H402 H 0.06762 0.18162 0.42729
 H403 H 0.15650 0.22892 0.38220
 H404 H 0.11620 0.26851 0.34109
 H405 H 0.07038 0.31394 0.43175
 H406 H 0.11010 0.27450 0.47243
 C407 C 0.07306 0.73199 0.61720
 C408 C 0.10776 0.71081 0.60651
 C409 C 0.13025 0.73041 0.58370
 C410 C 0.11599 0.76956 0.57373
 C411 C 0.07802 0.76276 0.55768
 C412 C 0.05565 0.74324 0.58031
 C413 C 0.08661 0.76896 0.63405
 C414 C 0.10915 0.78860 0.61120
 H415 H 0.11423 0.68295 0.61633
 H416 H 0.15590 0.71914 0.57409
 H417 H 0.06903 0.77340 0.53118
 H418 H 0.02773 0.73704 0.57290
 H419 H 0.07950 0.77870 0.66154
 H420 H 0.12122 0.81504 0.61918
 C421 C 0.92683 0.73355 0.38444
 C422 C 0.91869 0.77329 0.37037
 C423 C 0.89579 0.79293 0.39269
 C424 C 0.88321 0.77118 0.42704
 C425 C 0.86647 0.73497 0.41159
 C426 C 0.88939 0.71530 0.38924
 C427 C 0.94094 0.73897 0.42405
 C428 C 0.91825 0.75861 0.44621
 H429 H 0.92964 0.78496 0.34499
 H430 H 0.88720 0.82119 0.38632
 H431 H 0.83898 0.72575 0.41729
 H432 H 0.88149 0.68937 0.37597
 H433 H 0.96590 0.72692 0.43439
 H434 H 0.92425 0.76378 0.47519
 C435 C 0.92967 0.26747 0.61305
 C436 C 0.94672 0.22971 0.60301
 C437 C 0.92536 0.20793 0.58128
 C438 C 0.88869 0.22593 0.57134
 C439 C 0.87139 0.23589 0.60878
 C440 C 0.89290 0.25769 0.63067
 C441 C 0.92005 0.28535 0.57553
 C442 C 0.89874 0.26358 0.55381
 H443 H 0.97345 0.22088 0.61213
 H444 H 0.93397 0.18049 0.57210
 H445 H 0.84465 0.22654 0.61733
 H446 H 0.88452 0.26710 0.65791
 H447 H 0.92918 0.31272 0.56659
 H448 H 0.88993 0.27234 0.52646
 C449 C 0.38233 0.07482 0.26836
 C450 C 0.36699 0.08738 0.23069
 C451 C 0.38991 0.11001 0.21121
 C452 C 0.42595 0.11796 0.23111
 C453 C 0.41477 0.13387 0.26905
 C454 C 0.39191 0.11125 0.28849
 C455 C 0.41899 0.05680 0.25908
 C456 C 0.44171 0.07929 0.23975
 H457 H 0.34045 0.07951 0.22033
 H458 H 0.38293 0.12142 0.18430
 H459 H 0.42367 0.16067 0.27968
 H460 H 0.38136 0.11877 0.31553
 H461 H 0.42630 0.02843 0.26664
 H462 H 0.46825 0.07002 0.23072
 C463 C 0.61489 0.07354 0.73135
 C464 C 0.58018 0.08603 0.71116
 C465 C 0.55803 0.10781 0.73202
 C466 C 0.57228 0.11534 0.77123
 C467 C 0.57914 0.07631 0.78772
 C468 C 0.60134 0.05459 0.76687
 C469 C 0.63269 0.11006 0.74444
 C470 C 0.61032 0.13199 0.76537
 H471 H 0.57385 0.07927 0.68261
 H472 H 0.53318 0.11962 0.72110
 H473 H 0.56758 0.06638 0.81355
 H474 H 0.60854 0.02633 0.77491
 H475 H 0.66036 0.11800 0.73776
 H476 H 0.61889 0.15863 0.77669
 C477 C 0.38711 0.92610 0.72949
 C478 C 0.37242 0.88618 0.73405
 C479 C 0.39394 0.86375 0.75541
 C480 C 0.42816 0.88337 0.77018
 C481 C 0.44721 0.89879 0.73565
 C482 C 0.42592 0.92106 0.71440
 C483 C 0.39234 0.94027 0.76925
 C484 C 0.41375 0.91807 0.79051
 H485 H 0.34734 0.87645 0.72164
 H486 H 0.38719 0.83487 0.76133
 H487 H 0.47525 0.89278 0.72856
 H488 H 0.43602 0.93393 0.68922
 H489 H 0.37893 0.96475 0.78034
 H490 H 0.41875 0.92410 0.81949
 C491 C 0.61539 0.92912 0.26740
 C492 C 0.63302 0.89261 0.25408
 C493 C 0.61084 0.87135 0.23229
 C494 C 0.57315 0.88861 0.22589
 C495 C 0.55812 0.89567 0.26488
 C496 C 0.58006 0.91675 0.28659
 C497 C 0.60289 0.94886 0.23191
 C498 C 0.58087 0.92779 0.21019
 H499 H 0.66043 0.88422 0.26120
 H500 H 0.61933 0.84482 0.22068
 H501 H 0.53282 0.88411 0.27500
 H502 H 0.57310 0.92317 0.31507
 H503 H 0.61074 0.97711 0.22445
 H504 H 0.57008 0.93824 0.18423
 C505 C 0.38296 0.27087 0.92610
 C506 C 0.36679 0.23376 0.91221
 C507 C 0.38976 0.21389 0.89006
 C508 C 0.42671 0.23284 0.88388
 C509 C 0.41736 0.27187 0.86868
 C510 C 0.39442 0.29170 0.89079
 C511 C 0.41865 0.25978 0.94495
 C512 C 0.44140 0.23998 0.92298
 H513 H 0.33964 0.22410 0.91880
 H514 H 0.38222 0.18734 0.87782
 H515 H 0.42753 0.28291 0.84269
 H516 H 0.38504 0.31951 0.88364
 H517 H 0.42512 0.26616 0.97358
 H518 H 0.46698 0.22917 0.93308
 C519 C 0.61712 0.72825 0.92540
 C520 C 0.58118 0.73858 0.94423
 C521 C 0.55814 0.75806 0.92228
 C522 C 0.57292 0.76577 0.88329
 C523 C 0.60950 0.78532 0.88962
 C524 C 0.63271 0.76573 0.91169
 C525 C 0.60612 0.70741 0.89000
 C526 C 0.58294 0.72700 0.86791
 H527 H 0.57456 0.73154 0.97269
 H528 H 0.53202 0.76776 0.93210
 H529 H 0.61664 0.81209 0.87753
 H530 H 0.65967 0.77587 0.91835
 H531 H 0.61592 0.67978 0.88280
 H532 H 0.57297 0.71595 0.84187
 C533 C 0.38478 0.73118 0.07194
 C534 C 0.39719 0.76698 0.05226
 C535 C 0.41965 0.78872 0.07284
 C536 C 0.42788 0.77273 0.11151
 C537 C 0.39041 0.76639 0.12923
 C538 C 0.36779 0.74460 0.10846
 C539 C 0.42021 0.71164 0.08355
 C540 C 0.44260 0.73337 0.10413
 H541 H 0.38900 0.77460 0.02439
 H542 H 0.43047 0.81485 0.06236
 H543 H 0.38239 0.77806 0.15571
 H544 H 0.34046 0.73754 0.11722
 H545 H 0.42698 0.68294 0.07688
 H546 H 0.46813 0.72307 0.11495
 C547 C 0.61529 0.27180 0.07524
 C548 C 0.57703 0.26568 0.05960
 C549 C 0.55475 0.24601 0.08223
 C550 C 0.57249 0.23405 0.11874
 C551 C 0.60680 0.21266 0.10735
 C552 C 0.62920 0.23233 0.08456
 C553 C 0.60909 0.29041 0.11303
 C554 C 0.58664 0.27067 0.13590
 H555 H 0.56769 0.27721 0.03359
 H556 H 0.52662 0.24041 0.07520
 H557 H 0.61310 0.18459 0.11669
 H558 H 0.65459 0.22084 0.07447
 H559 H 0.62147 0.31664 0.12117
 H560 H 0.57993 0.28013 0.16359
 C561 C 0.27149 0.07182 0.61351
 C562 C 0.26179 0.10961 0.63108
 C563 C 0.23980 0.13128 0.60951
 C564 C 0.22958 0.11313 0.57240
 C565 C 0.26597 0.10330 0.55415
 C566 C 0.28792 0.08180 0.57556
 C567 C 0.23485 0.05366 0.60437
 C568 C 0.21290 0.07516 0.58300
 H569 H 0.27143 0.11854 0.65804
 H570 H 0.23053 0.15870 0.61807
 H571 H 0.27379 0.11241 0.52660
 H572 H 0.31449 0.07283 0.56614
 H573 H 0.22686 0.02608 0.61386
 H574 H 0.18617 0.06578 0.57452
 C575 C 0.73035 0.07125 0.38382
 C576 C 0.76492 0.05118 0.39673
 C577 C 0.78660 0.07224 0.41876
 C578 C 0.77190 0.11178 0.42611
 C579 C 0.76572 0.12860 0.38745
 C580 C 0.74391 0.10737 0.36524
 C581 C 0.71189 0.08451 0.41980
 C582 C 0.73364 0.10559 0.44172
 H583 H 0.77190 0.02275 0.38909
 H584 H 0.81195 0.06153 0.42975
 H585 H 0.77743 0.15487 0.37838
 H586 H 0.73690 0.11559 0.33721
 H587 H 0.68382 0.07899 0.42709
 H588 H 0.72391 0.11800 0.46719
 C589 C 0.73201 0.92593 0.62035
 C590 C 0.71286 0.88938 0.60981
 C591 C 0.73269 0.86720 0.58681
 C592 C 0.77000 0.88362 0.57645
 C593 C 0.76155 0.92235 0.56049
 C594 C 0.74183 0.94440 0.58335
 C595 C 0.76868 0.91363 0.63682
 C596 C 0.78856 0.89143 0.61374
 H597 H 0.68618 0.88147 0.61986
 H598 H 0.72275 0.84036 0.57727
 H599 H 0.77109 0.93205 0.53381
 H600 H 0.73436 0.97276 0.57594
 H601 H 0.77812 0.92136 0.66420
 H602 H 0.81488 0.88026 0.62142
 C603 C 0.27060 0.92681 0.38480
 C604 C 0.28792 0.91682 0.42232
 C605 C 0.26650 0.89522 0.44422
 C606 C 0.22973 0.88532 0.42685
 C607 C 0.21272 0.92324 0.41674
 C608 C 0.23413 0.94484 0.39486
 C609 C 0.26061 0.88903 0.36739
 C610 C 0.23915 0.86726 0.38946
 H611 H 0.31469 0.92581 0.43107
 H612 H 0.27497 0.88607 0.47154
 H613 H 0.18616 0.93250 0.42589
 H614 H 0.22585 0.97240 0.38561
 H615 H 0.26964 0.88018 0.34018
 H616 H 0.22973 0.83984 0.38107
 C617 C 0.07079 0.38478 0.73050
 C618 C 0.08047 0.42279 0.71312
 C619 C 0.10168 0.44456 0.73497
 C620 C 0.11158 0.42658 0.77220
 C621 C 0.07483 0.41632 0.78981
 C622 C 0.05357 0.39458 0.76795
 C623 C 0.10754 0.36699 0.74020
 C624 C 0.12895 0.38894 0.76207
 H625 H 0.07146 0.43202 0.68603
 H626 H 0.11053 0.47221 0.72654
 H627 H 0.06606 0.42533 0.81705
 H628 H 0.02681 0.38528 0.77652
 H629 H 0.11598 0.33962 0.73065
 H630 H 0.15567 0.38028 0.77134
 C631 C 0.07074 0.61549 0.27073
 C632 C 0.10754 0.63339 0.26132
 C633 C 0.12939 0.61132 0.24002
 C634 C 0.11238 0.57344 0.23011
 C635 C 0.10206 0.55587 0.26743
 C636 C 0.08038 0.57777 0.28871
 C637 C 0.05413 0.60513 0.23318
 C638 C 0.07581 0.58325 0.21190
 H639 H 0.11570 0.66093 0.27065
 H640 H 0.15619 0.62003 0.23103
 H641 H 0.11101 0.52842 0.27636
 H642 H 0.07105 0.56886 0.31581
 H643 H 0.02747 0.61420 0.22408
 H644 H 0.06747 0.57390 0.18464
 C645 C 0.92609 0.38027 0.26749
 C646 C 0.88988 0.38835 0.28698
 C647 C 0.86743 0.41125 0.26737
 C648 C 0.88331 0.42397 0.22994
 C649 C 0.91999 0.44153 0.23969
 C650 C 0.94224 0.41882 0.25917
 C651 C 0.91531 0.36459 0.22933
 C652 C 0.89285 0.38755 0.20969
 H653 H 0.88240 0.37674 0.31368
 H654 H 0.84077 0.41912 0.27747
 H655 H 0.92795 0.46950 0.23175
 H656 H 0.96891 0.42769 0.26811
 H657 H 0.92419 0.33776 0.21877
 H658 H 0.88261 0.38032 0.18247
 C659 C 0.92820 0.61455 0.72976
 C660 C 0.91865 0.57671 0.71210
 C661 C 0.89728 0.55480 0.73371
 C662 C 0.88715 0.57250 0.77100
 C663 C 0.92376 0.58257 0.78890
 C664 C 0.94516 0.60447 0.76729
 C665 C 0.89141 0.63230 0.73933
 C666 C 0.86987 0.61024 0.76099
 H667 H 0.92780 0.56772 0.68498
 H668 H 0.88845 0.52723 0.72506
 H669 H 0.93230 0.57337 0.81616
 H670 H 0.97187 0.61371 0.77608
 H671 H 0.88304 0.65974 0.72987
 H672 H 0.84311 0.61886 0.77017
 C673 C 0.73121 0.61336 0.92919
 C674 C 0.71420 0.57545 0.91865
 C675 C 0.73579 0.55393 0.89695
 C676 C 0.77244 0.57189 0.88739
 C677 C 0.76276 0.60981 0.87005
 C678 C 0.74114 0.63155 0.89192
 C679 C 0.76780 0.60315 0.94692
 C680 C 0.78936 0.58158 0.92514
 H681 H 0.68752 0.56607 0.92736
 H682 H 0.72754 0.52644 0.88749
 H683 H 0.77213 0.61878 0.84298
 H684 H 0.73195 0.65904 0.88343
 H685 H 0.77604 0.61201 0.97441
 H686 H 0.81596 0.57233 0.93416
 C687 C 0.26711 0.38349 0.92920
 C688 C 0.22998 0.36653 0.91874
 C689 C 0.20956 0.38893 0.89640
 C690 C 0.22794 0.42613 0.88652
 C691 C 0.23757 0.44388 0.92391
 C692 C 0.25783 0.42164 0.94622
 C693 C 0.28518 0.39262 0.89193
 C694 C 0.26475 0.41494 0.86960
 H695 H 0.22054 0.33931 0.92777
 H696 H 0.18292 0.38081 0.88646
 H697 H 0.22905 0.47167 0.93220
 H698 H 0.26639 0.43044 0.97363
 H699 H 0.31161 0.38216 0.88363
 H700 H 0.27393 0.42342 0.84231
 C701 C 0.26772 0.61779 0.07358
 C702 C 0.28649 0.60834 0.11040
 C703 C 0.26648 0.58577 0.13296
 C704 C 0.22938 0.57468 0.11666
 C705 C 0.21079 0.61192 0.10749
 C706 C 0.23077 0.63456 0.08496
 C707 C 0.25817 0.57978 0.05641
 C708 C 0.23837 0.55729 0.07893
 H709 H 0.31308 0.61874 0.11823
 H710 H 0.27616 0.57699 0.15995
 H711 H 0.18434 0.61991 0.11805
 H712 H 0.22112 0.66185 0.07640
 H713 H 0.26626 0.57123 0.02877
 H714 H 0.22980 0.52954 0.07057
 C715 C 0.72903 0.38674 0.07175
 C716 C 0.71222 0.42480 0.08204
 C717 C 0.73385 0.44628 0.10379
 C718 C 0.77031 0.42811 0.11362
 C719 C 0.76025 0.39033 0.13105
 C720 C 0.73861 0.36865 0.10915
 C721 C 0.76580 0.39665 0.05419
 C722 C 0.78738 0.41814 0.07599
 H723 H 0.68565 0.43430 0.07313
 H724 H 0.72574 0.47386 0.11310
 H725 H 0.76936 0.38141 0.15822
 H726 H 0.72915 0.34127 0.11771
 H727 H 0.77414 0.38765 0.02676
 H728 H 0.81408 0.42720 0.06703
 C729 C 0.92983 0.72965 0.61365
 C730 C 0.89312 0.73900 0.63176
 C731 C 0.87097 0.76041 0.61011
 C732 C 0.88746 0.77051 0.57232
 C733 C 0.92409 0.78903 0.58155
 C734 C 0.94614 0.76767 0.60302
 C735 C 0.91976 0.71149 0.57631
 C736 C 0.89773 0.73290 0.55485
 H737 H 0.88518 0.72953 0.65914
 H738 H 0.84422 0.76931 0.61905
 H739 H 0.93221 0.81652 0.57202
 H740 H 0.97291 0.77700 0.61153
 H741 H 0.92897 0.68419 0.56731
 H742 H 0.88842 0.72384 0.52780
 C743 C 0.92925 0.26580 0.38229
 C744 C 0.94604 0.25651 0.42014
 C745 C 0.92384 0.23663 0.44278
 C746 C 0.88678 0.22737 0.42571
 C747 C 0.87104 0.26546 0.41407
 C748 C 0.89326 0.28550 0.39134
 C749 C 0.91785 0.22760 0.36631
 C750 C 0.89562 0.20760 0.38909
 H751 H 0.97318 0.26482 0.42847
 H752 H 0.93198 0.22820 0.47044
 H753 H 0.84463 0.27572 0.42259
 H754 H 0.88572 0.31271 0.38053
 H755 H 0.92614 0.21718 0.33941
 H756 H 0.88507 0.18034 0.38160
 C757 C 0.07121 0.26782 0.61662
 C758 C 0.10697 0.28790 0.60743
 C759 C 0.12944 0.26794 0.58493
 C760 C 0.11414 0.22956 0.57364
 C761 C 0.10548 0.20996 0.61040
 C762 C 0.08303 0.22988 0.63297
 C763 C 0.05457 0.25803 0.57884
 C764 C 0.07700 0.23824 0.55642
 H765 H 0.11418 0.31530 0.61796
 H766 H 0.15574 0.27847 0.57633
 H767 H 0.11631 0.18289 0.61815
 H768 H 0.07483 0.21954 0.65995
 H769 H 0.02734 0.26594 0.57041
 H770 H 0.06899 0.22949 0.52883
 C771 C 0.07148 0.73259 0.38257
 C772 C 0.08601 0.76916 0.36539
 C773 C 0.10875 0.78861 0.38816
 C774 C 0.11496 0.76988 0.42590
 C775 C 0.07678 0.76407 0.44177
 C776 C 0.05419 0.74473 0.41927
 C777 C 0.10573 0.71085 0.39378
 C778 C 0.12846 0.73029 0.41647
 H779 H 0.07941 0.77887 0.33773
 H780 H 0.12140 0.81470 0.37993
 H781 H 0.06777 0.77534 0.46801
 H782 H 0.02623 0.73928 0.42672
 H783 H 0.11179 0.68274 0.38442
 H784 H 0.15380 0.71857 0.42640
 C785 C 0.61587 0.92636 0.73353
 C786 C 0.60726 0.88950 0.71365
 C787 C 0.58448 0.86664 0.73293
 C788 C 0.57237 0.88273 0.77048
 C789 C 0.60793 0.89162 0.79088
 C790 C 0.63074 0.91450 0.77159
 C791 C 0.57868 0.94375 0.74193
 C792 C 0.55598 0.92097 0.76108
 H793 H 0.61838 0.88191 0.68687
 H794 H 0.57620 0.83956 0.72245
 H795 H 0.61470 0.88064 0.81803
 H796 H 0.65694 0.92299 0.78239
 H797 H 0.57087 0.97174 0.73355
 H798 H 0.52874 0.92946 0.76888
 C799 C 0.38622 0.92898 0.26813
 C800 C 0.39816 0.94846 0.23227
 C801 C 0.42039 0.92751 0.21064
 C802 C 0.42889 0.88867 0.22676
 C803 C 0.44405 0.89655 0.26555
 C804 C 0.42187 0.91755 0.28718
 C805 C 0.36915 0.89196 0.25542
 C806 C 0.39153 0.87083 0.23371
 H807 H 0.38985 0.97648 0.22455
 H808 H 0.43086 0.93785 0.18449
 H809 H 0.46966 0.88571 0.27556
 H810 H 0.42892 0.92458 0.31549
 H811 H 0.34194 0.88312 0.26289
 H812 H 0.38341 0.84399 0.22253
 C813 C 0.61618 0.07519 0.26997
 C814 C 0.58033 0.05629 0.25925
 C815 C 0.55743 0.07859 0.23992
 C816 C 0.57220 0.11800 0.23275
 C817 C 0.58189 0.13317 0.27140
 C818 C 0.60494 0.11073 0.29082
 C819 C 0.63205 0.08934 0.23308
 C820 C 0.60898 0.11178 0.21364
 H821 H 0.57368 0.02751 0.26589
 H822 H 0.53144 0.06870 0.22992
 H823 H 0.57181 0.15933 0.28249
 H824 H 0.61451 0.11777 0.31835
 H825 H 0.65909 0.08270 0.22320
 H826 H 0.61634 0.12421 0.18727
 C827 C 0.38727 0.07349 0.72833
 C828 C 0.39889 0.05550 0.76500
 C829 C 0.42042 0.07747 0.78627
 C830 C 0.42868 0.11587 0.76906
 C831 C 0.44457 0.10698 0.73077
 C832 C 0.42306 0.08490 0.70949
 C833 C 0.36946 0.11065 0.73957
 C834 C 0.39119 0.13288 0.76094
 H835 H 0.39053 0.02790 0.77375
 H836 H 0.43030 0.06823 0.81304
 H837 H 0.47014 0.11800 0.72078
 H838 H 0.43065 0.07709 0.68152
 H839 H 0.34226 0.11878 0.73138
 H840 H 0.38252 0.15995 0.77109
 C841 C 0.61535 0.73102 0.06984
 C842 C 0.63260 0.74386 0.10643
 C843 C 0.61028 0.76567 0.12756
 C844 C 0.57281 0.77261 0.11012
 C845 C 0.58109 0.78893 0.07156
 C846 C 0.60325 0.76717 0.05062
 C847 C 0.57974 0.71175 0.08142
 C848 C 0.55765 0.73349 0.10236
 H849 H 0.65988 0.73643 0.11498
 H850 H 0.61854 0.77696 0.15412
 H851 H 0.57052 0.81530 0.06143
 H852 H 0.61143 0.77501 0.02280
 H853 H 0.57258 0.68324 0.07438
 H854 H 0.53200 0.72340 0.11309
 C855 C 0.38719 0.27304 0.07195
 C856 C 0.42367 0.29169 0.08144
 C857 C 0.44544 0.27053 0.10343
 C858 C 0.42897 0.23265 0.11416
 C859 C 0.39214 0.24216 0.13177
 C860 C 0.37024 0.26334 0.10965
 C861 C 0.39766 0.23527 0.05499
 C862 C 0.41939 0.21412 0.07696
 H863 H 0.43184 0.31914 0.07179
 H864 H 0.47205 0.27991 0.11235
 H865 H 0.38399 0.23302 0.15919
 H866 H 0.34342 0.27240 0.11821
 H867 H 0.38877 0.22594 0.02788
 H868 H 0.42882 0.18676 0.06841
 C869 C 0.61629 0.27022 0.92743
 C870 C 0.63075 0.23130 0.91688
 C871 C 0.60810 0.21170 0.89420
 C872 C 0.57307 0.23268 0.88417
 C873 C 0.55617 0.24334 0.92145
 C874 C 0.57862 0.26284 0.94393
 C875 C 0.60880 0.28957 0.89022
 C876 C 0.58615 0.26997 0.86753
 H877 H 0.65662 0.22019 0.92606
 H878 H 0.61465 0.18399 0.88408
 H879 H 0.52874 0.23624 0.92954
 H880 H 0.57003 0.27266 0.97086
 H881 H 0.62055 0.31619 0.88229
 H882 H 0.57864 0.27998 0.84023
 C883 C 0.38297 0.72910 0.92746
 C884 C 0.39326 0.70829 0.89181
 C885 C 0.41627 0.72775 0.86937
 C886 C 0.42689 0.76638 0.88468
 C887 C 0.39058 0.78622 0.89171
 C888 C 0.36754 0.76676 0.91411
 C889 C 0.41929 0.73906 0.94570
 C890 C 0.44217 0.75841 0.92340
 H891 H 0.38312 0.68076 0.88470
 H892 H 0.42575 0.71668 0.84314
 H893 H 0.38350 0.81309 0.87984
 H894 H 0.34079 0.77715 0.92128
 H895 H 0.42628 0.73185 0.97402
 H896 H 0.46854 0.76783 0.93280
 C897 C 0.73055 0.92675 0.38359
 C898 C 0.71106 0.89056 0.39485
 C899 C 0.73079 0.86843 0.41808
 C900 C 0.76834 0.88453 0.42791
 C901 C 0.78672 0.89164 0.39035
 C902 C 0.76698 0.91376 0.36710
 C903 C 0.74077 0.94556 0.42028
 C904 C 0.76041 0.92358 0.44333
 H905 H 0.68420 0.88287 0.38517
 H906 H 0.72061 0.84188 0.42818
 H907 H 0.81284 0.88002 0.38262
 H908 H 0.77636 0.92095 0.33953
 H909 H 0.73351 0.97405 0.42738
 H910 H 0.77011 0.93349 0.46985
 C911 C 0.27072 0.92598 0.61528
 C912 C 0.28918 0.88875 0.60580
 C913 C 0.26901 0.86630 0.58332
 C914 C 0.23208 0.88317 0.57235
 C915 C 0.21355 0.89243 0.60932
 C916 C 0.23372 0.91485 0.63183
 C917 C 0.26148 0.94358 0.57767
 C918 C 0.24147 0.92122 0.55525
 H919 H 0.31569 0.88063 0.61610
 H920 H 0.27846 0.83903 0.57450
 H921 H 0.18698 0.88202 0.61722
 H922 H 0.22422 0.92352 0.65893
 H923 H 0.26996 0.97139 0.56936
 H924 H 0.23307 0.92987 0.52774
 C925 C 0.26718 0.07233 0.38317
 C926 C 0.22972 0.08284 0.36738
 C927 C 0.20973 0.10508 0.39026
 C928 C 0.22892 0.11476 0.42677
 C929 C 0.23911 0.07692 0.44382
 C930 C 0.25892 0.05474 0.42104
 C931 C 0.28536 0.10984 0.39207
 C932 C 0.26540 0.13209 0.41489
 H933 H 0.21979 0.07388 0.34055
 H934 H 0.18286 0.11506 0.38295
 H935 H 0.23134 0.06826 0.47153
 H936 H 0.26789 0.02707 0.42925
 H937 H 0.31154 0.11830 0.38111
 H938 H 0.27470 0.15952 0.42335
 C939 C 0.73172 0.07108 0.61619
 C940 C 0.74414 0.10807 0.63368
 C941 C 0.76574 0.12915 0.61102
 C942 C 0.77286 0.11128 0.57299
 C943 C 0.78845 0.07242 0.58188
 C944 C 0.76695 0.05153 0.60440
 C945 C 0.71347 0.08258 0.57960
 C946 C 0.73496 0.10350 0.55719
 H947 H 0.73661 0.11691 0.66136
 H948 H 0.77674 0.15595 0.61939
 H949 H 0.81421 0.06210 0.57156
 H950 H 0.77441 0.02355 0.61313
 H951 H 0.68575 0.07572 0.57213
 H952 H 0.72540 0.11441 0.53100
 C953 C 0.92715 0.61789 0.26931
 C954 C 0.94555 0.58162 0.25681
 C955 C 0.92361 0.55860 0.23714
 C956 C 0.88497 0.57360 0.23153
 C957 C 0.87112 0.58205 0.27089
 C958 C 0.89318 0.60525 0.29058
 C959 C 0.91239 0.63539 0.23335
 C960 C 0.89029 0.61215 0.21363
 H961 H 0.97384 0.57505 0.26212
 H962 H 0.93344 0.53274 0.22532
 H963 H 0.84604 0.57106 0.28229
 H964 H 0.88688 0.61404 0.31860
 H965 H 0.91841 0.66361 0.22430
 H966 H 0.87756 0.62054 0.18784
 C967 C 0.92771 0.38302 0.73019
 C968 C 0.89206 0.39267 0.71032
 C969 C 0.86964 0.41527 0.73033
 C970 C 0.88497 0.42615 0.76850
 C971 C 0.89343 0.38881 0.78753
 C972 C 0.91580 0.36620 0.76755
 C973 C 0.94454 0.42088 0.74021
 C974 C 0.92223 0.44342 0.76005
 H975 H 0.88496 0.38240 0.68301
 H976 H 0.84342 0.42426 0.71997
 H977 H 0.88251 0.38071 0.81427
 H978 H 0.92390 0.33882 0.77739
 H979 H 0.97179 0.42930 0.73233
 H980 H 0.93037 0.47115 0.76891
 C981 C 0.07042 0.61668 0.73327
 C982 C 0.05392 0.57828 0.74198
 C983 C 0.07600 0.55564 0.76200
 C984 C 0.11268 0.57333 0.77190
 C985 C 0.12893 0.58546 0.73446
 C986 C 0.10678 0.60814 0.71432
 C987 C 0.08087 0.63282 0.77132
 C988 C 0.10303 0.61007 0.79151
 H989 H 0.02702 0.56964 0.73320
 H990 H 0.06804 0.52761 0.77012
 H991 H 0.15561 0.57730 0.72466
 H992 H 0.11457 0.61926 0.68750
 H993 H 0.07191 0.65977 0.78149
 H994 H 0.11293 0.61763 0.81878
 C995 C 0.07134 0.38328 0.26839
 C996 C 0.08055 0.36848 0.22945
 C997 C 0.10326 0.39110 0.20983
 C998 C 0.11471 0.42649 0.23074
 C999 C 0.07900 0.44524 0.24218
 C1000 C 0.05643 0.42274 0.26177
 C1001 C 0.10834 0.38946 0.28698
 C1002 C 0.13111 0.41209 0.26732
 H1003 H 0.07037 0.34241 0.21825
 H1004 H 0.11243 0.38429 0.18209
 H1005 H 0.07239 0.47415 0.23614
 H1006 H 0.03085 0.43268 0.27273
 H1007 H 0.11606 0.37690 0.31317
 H1008 H 0.15827 0.41875 0.27684
   
