data_POSCAR
  _audit_creation_date              2014-09-24
  _audit_creation_method            'ToBaCCo'
  _symmetry_space_group_name_H-M    'P1'
  _symmetry_Int_Tables_number       1
  _symmetry_cell_setting            triclinic
  loop_
  _symmetry_equiv_pos_as_xyz
 x,y,z
_cell_length_a 36.5403
_cell_length_b 37.9535
_cell_length_c 41.2629
_cell_angle_alpha 89.347800
_cell_angle_beta 89.800300
_cell_angle_gamma 90.016900
loop_
  _atom_site_label
  _atom_site_type_symbol
  _atom_site_fract_x
  _atom_site_fract_y
  _atom_site_fract_z
B1 B 0.25426 0.22136 0.27492
 B2 B 0.21028 0.21554 0.26493
 B3 B 0.22590 0.25588 0.27323
 B4 B 0.26893 0.25999 0.25890
 B5 B 0.27975 0.22084 0.24111
 B6 B 0.24314 0.19302 0.24527
 B7 B 0.22182 0.24959 0.20855
 B8 B 0.26561 0.25546 0.21859
 B9 B 0.25015 0.21504 0.21040
 B10 B 0.20700 0.21104 0.22459
 B11 B 0.19625 0.25023 0.24235
 B12 B 0.23285 0.27801 0.23822
 B13 B 0.73775 0.77056 0.22113
 B14 B 0.72698 0.72857 0.22929
 B15 B 0.77009 0.73941 0.22008
 B16 B 0.77982 0.77903 0.23610
 B17 B 0.74129 0.79250 0.25617
 B18 B 0.70811 0.76098 0.25139
 B19 B 0.76472 0.73127 0.28463
 B20 B 0.77595 0.77324 0.27661
 B21 B 0.73256 0.76252 0.28564
 B22 B 0.72293 0.72288 0.26947
 B23 B 0.76162 0.70944 0.24970
 B24 B 0.79459 0.74088 0.25443
 B25 B 0.73457 0.24340 -0.21403
 B26 B 0.72169 0.28291 -0.22851
 B27 B 0.76506 0.27625 -0.21703
 B28 B 0.77754 0.23489 -0.22667
 B29 B 0.74068 0.21582 -0.24509
 B30 B 0.70582 0.24593 -0.24570
 B31 B 0.76225 0.27246 -0.28188
 B32 B 0.77518 0.23312 -0.26717
 B33 B 0.73187 0.23972 -0.27884
 B34 B 0.71927 0.28101 -0.26918
 B35 B 0.75602 0.30015 -0.25097
 B36 B 0.79097 0.27012 -0.24997
 B37 B 0.27048 0.76270 -0.22546
 B38 B 0.28166 0.72114 -0.23400
 B39 B 0.23915 0.73082 -0.22189
 B40 B 0.22705 0.77028 -0.23762
 B41 B 0.26333 0.78502 -0.26028
 B42 B 0.29761 0.75435 -0.25750
 B43 B 0.23920 0.72352 -0.28659
 B44 B 0.22760 0.76503 -0.27818
 B45 B 0.27033 0.75564 -0.28999
 B46 B 0.28239 0.71611 -0.27423
 B47 B 0.24587 0.70129 -0.25177
 B48 B 0.21174 0.73196 -0.25451
 B49 B 1.24107 1.27097 0.71579
 B50 B 1.23031 1.23002 0.72775
 B51 B 1.27363 1.24028 0.71836
 B52 B 1.28249 1.28150 0.73066
 B53 B 1.24352 1.29689 0.74847
 B54 B 1.21075 1.26467 0.74630
 B55 B 1.26716 1.23929 0.78302
 B56 B 1.27795 1.28038 0.77119
 B57 B 1.23455 1.27032 0.78071
 B58 B 1.22556 1.22897 0.76830
 B59 B 1.26464 1.21369 0.75044
 B60 B 1.29731 1.24584 0.75241
 B61 B 0.75870 0.71806 0.71457
 B62 B 0.76985 0.75953 0.72378
 B63 B 0.72705 0.74985 0.71245
 B64 B 0.71575 0.70975 0.72754
 B65 B 0.75276 0.69487 0.74902
 B66 B 0.78646 0.72601 0.74643
 B67 B 0.72797 0.75518 0.77724
 B68 B 0.71705 0.71380 0.76786
 B69 B 0.75960 0.72358 0.77938
 B70 B 0.77104 0.76363 0.76439
 B71 B 0.73414 0.77848 0.74287
 B72 B 0.70029 0.74739 0.74549
 B73 B 1.23031 0.74206 0.22293
 B74 B 1.27412 0.73623 0.23353
 B75 B 1.25974 0.77588 0.22071
 B76 B 1.21669 0.78250 0.23446
 B77 B 1.20492 0.74582 0.25657
 B78 B 1.24082 0.71688 0.25570
 B79 B 1.26376 0.77647 0.28566
 B80 B 1.21992 0.78235 0.27517
 B81 B 1.23442 0.74272 0.28788
 B82 B 1.27729 0.73620 0.27406
 B83 B 1.28915 0.77275 0.25193
 B84 B 1.25321 0.80171 0.25299
 B85 B 0.77168 1.26016 0.20971
 B86 B 0.73012 1.27151 0.22333
 B87 B 0.73791 1.23037 0.21083
 B88 B 0.78058 1.21831 0.22163
 B89 B 0.79941 1.25305 0.24160
 B90 B 0.76786 1.28644 0.24225
 B91 B 0.73939 1.23046 0.27572
 B92 B 0.78083 1.21883 0.26233
 B93 B 0.77328 1.25998 0.27485
 B94 B 0.73075 1.27216 0.26395
 B95 B 0.71185 1.23744 0.24409
 B96 B 0.74327 1.20418 0.24320
 N97 N 0.47373 1.06046 -0.04624
 N98 N 0.46965 1.08651 -0.06730
 N99 N 0.43671 1.04121 0.01983
 N100 N 0.40964 1.05090 0.03913
 N101 N 0.46384 1.06377 0.02117
 N102 N 0.45635 1.08914 0.04165
 N103 N 0.44585 1.03866 -0.04748
 N104 N 0.42176 1.04980 -0.06913
 C105 C 0.43750 1.07927 -0.08171
 C106 C 0.42264 1.08072 0.05273
 N107 N 0.45448 0.93870 0.02662
 N108 N 0.44202 0.91635 0.04891
 N109 N 0.44117 0.96271 -0.04456
 N110 N 0.41858 0.95733 -0.06880
 N111 N 0.46356 0.93583 -0.04079
 N112 N 0.45604 0.91105 -0.06211
 N113 N 0.43177 0.96534 0.02303
 N114 N 0.40371 0.96211 0.04301
 Mn115 Mn 0.43858 1.00186 -0.01230
 C116 C 0.41046 0.93160 0.05904
 C117 C 0.42820 0.92523 -0.07961
 N118 N 0.54078 1.05900 0.03015
 N119 N 0.54510 1.08389 0.05174
 N120 N 0.57491 1.02999 -0.03322
 N121 N 0.60471 1.03545 -0.05072
 N122 N 0.55164 1.05600 -0.03712
 N123 N 0.56515 1.08004 -0.05721
 N124 N 0.56510 1.03394 0.03411
 N125 N 0.58740 1.04160 0.05824
 Mn126 Mn 0.50751 1.05994 -0.00810
 C127 C 0.57405 1.07267 0.06916
 C128 C 0.59801 1.06652 -0.06583
 N129 N 0.54300 0.93121 -0.03224
 N130 N 0.55141 0.90746 -0.05433
 N131 N 0.55928 0.95809 0.03742
 N132 N 0.58084 0.95171 0.06230
 N133 N 0.53379 0.93376 0.03523
 N134 N 0.53805 0.90961 0.05835
 N135 N 0.56923 0.95477 -0.03006
 N136 N 0.59568 0.94820 -0.05087
 Mn137 Mn 0.49868 0.93435 -0.00281
 Mn138 Mn 0.56738 0.99405 0.00217
 Cl139 Cl 0.50302 0.99748 -0.00530
 C140 C 0.58437 0.91867 -0.06572
 C141 C 0.56726 0.92163 0.07518
 N142 N 1.06803 0.52852 0.53266
 N143 N 1.09119 0.55391 0.54027
 N144 N 1.04259 0.45233 0.54922
 N145 N 1.04778 0.42520 0.56883
 N146 N 1.06909 0.45470 0.52772
 N147 N 1.09347 0.42939 0.53255
 N148 N 1.04162 0.52623 0.55427
 N149 N 1.04584 0.55004 0.57693
 C150 C 1.07673 0.56711 0.56792
 C151 C 1.07945 0.41110 0.55819
 N152 N 0.93798 0.45291 0.52737
 N153 N 0.91370 0.42754 0.53261
 N154 N 0.96293 0.52511 0.55407
 N155 N 0.95730 0.54832 0.57704
 N156 N 0.93679 0.52670 0.53232
 N157 N 0.91239 0.55097 0.54017
 N158 N 0.96422 0.45124 0.54901
 N159 N 0.95896 0.42453 0.56912
 Mn160 Mn 1.00285 0.48873 0.55188
 C161 C 0.92757 0.40991 0.55859
 C162 C 0.92585 0.56429 0.56809
 N163 N 1.06941 0.46116 0.45747
 N164 N 1.09237 0.43532 0.45041
 N165 N 1.04233 0.53707 0.44104
 N166 N 1.04682 0.56472 0.42187
 N167 N 1.06863 0.53516 0.46259
 N168 N 1.09209 0.56145 0.45835
 N169 N 1.04335 0.46327 0.43570
 N170 N 1.04751 0.43893 0.41355
 Mn171 Mn 1.06934 0.49486 0.49511
 C172 C 1.07810 0.42178 0.42287
 C173 C 1.07782 0.57969 0.43288
 N174 N 0.93728 0.53322 0.46225
 N175 N 0.91304 0.55872 0.45785
 N176 N 0.96498 0.46220 0.43544
 N177 N 0.96110 0.43857 0.41262
 N178 N 0.93871 0.45929 0.45712
 N179 N 0.91595 0.43357 0.44935
 N180 N 0.96387 0.53595 0.44087
 N181 N 0.95880 0.56344 0.42167
 Mn182 Mn 0.93716 0.49299 0.49474
 Mn183 Mn 1.00364 0.49969 0.43804
 Cl184 Cl 1.00324 0.49406 0.49496
 C185 C 0.92716 0.57740 0.43251
 C186 C 0.93060 0.42088 0.42152
 N187 N 1.06842 0.53855 0.03962
 N188 N 1.09310 0.56228 0.04820
 N189 N 1.04046 0.46317 0.05619
 N190 N 1.04342 0.43501 0.07485
 N191 N 1.06688 0.46433 0.03454
 N192 N 1.08896 0.43684 0.03829
 N193 N 1.04201 0.53674 0.06127
 N194 N 1.04783 0.55889 0.08495
 C195 C 1.07941 0.57487 0.07645
 C196 C 1.07364 0.41883 0.06360
 N197 N 0.93609 0.46661 0.03505
 N198 N 0.91313 0.43978 0.03871
 N199 N 0.96354 0.53832 0.06164
 N200 N 0.95982 0.56247 0.08407
 N201 N 0.93722 0.54083 0.04014
 N202 N 0.91466 0.56687 0.04758
 N203 N 0.96242 0.46451 0.05654
 N204 N 0.95854 0.43629 0.07504
 Mn205 Mn 1.00211 0.50073 0.05909
 C206 C 0.92781 0.42114 0.06382
 C207 C 0.92935 0.58009 0.07509
 N208 N 1.06701 0.47121 -0.03590
 N209 N 1.09057 0.44650 -0.04472
 N210 N 1.04204 0.54804 -0.05176
 N211 N 1.04712 0.57531 -0.07122
 N212 N 1.06877 0.54528 -0.03069
 N213 N 1.09323 0.57062 -0.03571
 N214 N 1.04076 0.47433 -0.05742
 N215 N 1.04552 0.45196 -0.08118
 Mn216 Mn 1.06840 0.50480 0.00191
 C217 C 1.07638 0.43461 -0.07297
 C218 C 1.07895 0.58921 -0.06102
 N219 N 0.93703 0.54737 -0.03006
 N220 N 0.91270 0.57263 -0.03543
 N221 N 0.96237 0.47572 -0.05700
 N222 N 0.95614 0.45415 -0.08108
 N223 N 0.93621 0.47348 -0.03516
 N224 N 0.91126 0.45019 -0.04401
 N225 N 0.96370 0.54939 -0.05143
 N226 N 0.95865 0.57616 -0.07148
 Mn227 Mn 0.93606 0.50704 0.00252
 Mn228 Mn 1.00224 0.51192 -0.05456
 Cl229 Cl 1.00222 0.50613 0.00222
 C230 C 0.92698 0.59053 -0.06121
 C231 C 0.92453 0.43816 -0.07259
 N232 N 0.56010 0.96574 0.54415
 N233 N 0.58361 0.95766 0.56716
 N234 N 0.54821 0.94029 0.47336
 N235 N 0.56013 0.91578 0.45338
 N236 N 0.57305 0.96497 0.47694
 N237 N 0.60226 0.95816 0.45923
 N238 N 0.53629 0.94009 0.54035
 N239 N 0.54375 0.91357 0.56040
 C240 C 0.57288 0.92541 0.57738
 C241 C 0.59376 0.92761 0.44454
 N242 N 0.44590 0.96646 0.45803
 N243 N 0.42517 0.96069 0.43263
 N244 N 0.45743 0.94066 0.52913
 N245 N 0.44476 0.91566 0.54876
 N246 N 0.43292 0.96569 0.52522
 N247 N 0.40323 0.95858 0.54236
 N248 N 0.46962 0.94078 0.46218
 N249 N 0.46495 0.91631 0.44001
 Mn250 Mn 0.50285 0.94009 0.50126
 C251 C 0.43748 0.92957 0.42156
 C252 C 0.41109 0.92755 0.55711
 N253 N 0.57327 1.04053 0.47575
 N254 N 0.60143 1.04527 0.45619
 N255 N 0.53521 1.06596 0.53886
 N256 N 0.53861 1.09125 0.56023
 N257 N 0.56088 1.04209 0.54278
 N258 N 0.58299 1.05105 0.56664
 N259 N 0.54901 1.06570 0.47182
 N260 N 0.56030 1.08863 0.44957
 Mn261 Mn 0.56704 1.00332 0.51000
 C262 C 0.59298 1.07526 0.44004
 C263 C 0.56822 1.08149 0.57754
 N264 N 0.43327 1.04148 0.52452
 N265 N 0.40517 1.04708 0.54388
 N266 N 0.47111 1.06624 0.46023
 N267 N 0.46583 1.09267 0.43974
 N268 N 0.44515 1.04252 0.45738
 N269 N 0.42128 1.05260 0.43509
 N270 N 0.45782 1.06649 0.52732
 N271 N 0.44695 1.09006 0.54862
 Mn272 Mn 0.43908 1.00395 0.49125
 Mn273 Mn 0.50333 1.06636 0.49951
 Cl274 Cl 0.50307 1.00339 0.50053
 C275 C 0.41413 1.07736 0.55877
 C276 C 0.43501 1.08361 0.42391
 N277 N 1.06867 1.04012 0.49004
 N278 N 1.09592 1.04351 0.46924
 N279 N 1.02630 1.06191 0.55219
 N280 N 1.02812 1.08558 0.57529
 N281 N 1.05135 1.03752 0.55633
 N282 N 1.07131 1.04430 0.58219
 N283 N 1.04435 1.06515 0.48566
 N284 N 1.05439 1.08627 0.46154
 C285 C 1.08676 1.07247 0.45178
 C286 C 1.05602 1.07409 0.59399
 N287 N 0.92507 1.03918 0.53034
 N288 N 0.89667 1.04247 0.54989
 N289 N 0.96795 1.06692 0.47025
 N290 N 0.96827 1.09200 0.44791
 N291 N 0.94273 1.04334 0.46402
 N292 N 0.92503 1.05188 0.43718
 N293 N 0.94991 1.06316 0.53646
 N294 N 0.93913 1.08344 0.56046
 Mn295 Mn 0.99712 1.06463 0.51117
 C296 C 0.90586 1.07013 0.56851
 C297 C 0.94163 1.08216 0.42735
 N298 N 1.04994 0.96171 0.55369
 N299 N 1.06763 0.95487 0.58079
 N300 N 1.04295 0.94069 0.48085
 N301 N 1.05400 0.92045 0.45688
 N302 N 1.06782 0.96459 0.48736
 N303 N 1.09640 0.96127 0.46803
 N304 N 1.02624 0.93667 0.54739
 N305 N 1.02784 0.91161 0.56993
 Mn306 Mn 1.05976 1.00091 0.52198
 C307 C 1.05354 0.92371 0.59072
 C308 C 1.08741 0.93372 0.44920
 N309 N 0.94190 0.96756 0.46103
 N310 N 0.92274 0.96315 0.43438
 N311 N 0.94881 0.93849 0.53184
 N312 N 0.93820 0.91634 0.55493
 N313 N 0.92442 0.96355 0.52760
 N314 N 0.89666 0.95921 0.54781
 N315 N 0.96527 0.94160 0.46526
 N316 N 0.96194 0.91838 0.44170
 Mn317 Mn 0.93317 1.00338 0.49564
 Mn318 Mn 0.99583 0.93886 0.50629
 Cl319 Cl 0.99646 1.00189 0.50876
 C320 C 0.93559 0.93258 0.42244
 C321 C 0.90556 0.92961 0.56455
 N322 N 0.55424 0.55575 0.03760
 N323 N 0.57479 0.58392 0.04245
 N324 N 0.54670 0.48021 0.06517
 N325 N 0.55745 0.45546 0.08569
 N326 N 0.56999 0.48337 0.04102
 N327 N 0.59715 0.46074 0.04430
 N328 N 0.52976 0.55240 0.06080
 N329 N 0.53239 0.57838 0.08157
 C330 C 0.56028 0.59799 0.06972
 C331 C 0.58901 0.44373 0.07237
 N332 N 0.44374 0.45723 0.05002
 N333 N 0.42409 0.43023 0.06062
 N334 N 0.45339 0.53612 0.06586
 N335 N 0.44375 0.56199 0.08514
 N336 N 0.42728 0.52937 0.04508
 N337 N 0.39914 0.55054 0.04951
 N338 N 0.47011 0.46426 0.07051
 N339 N 0.46911 0.44234 0.09552
 Mn340 Mn 0.50004 0.50828 0.06587
 C341 C 0.44068 0.42098 0.08878
 C342 C 0.40991 0.57069 0.07453
 N343 N 0.56571 0.47863 -0.02837
 N344 N 0.59486 0.45937 -0.03483
 N345 N 0.52279 0.54409 -0.05273
 N346 N 0.52171 0.56812 -0.07603
 N347 N 0.54933 0.55082 -0.03232
 N348 N 0.56734 0.57942 -0.04143
 N349 N 0.53938 0.47196 -0.04901
 N350 N 0.54996 0.44824 -0.07019
 Mn351 Mn 0.56026 0.51726 0.00445
 C352 C 0.58450 0.44045 -0.06083
 C353 C 0.54944 0.59006 -0.06852
 N354 N 0.42261 0.52412 -0.02426
 N355 N 0.39315 0.54336 -0.03012
 N356 N 0.46215 0.45583 -0.04405
 N357 N 0.45557 0.43203 -0.06641
 N358 N 0.43926 0.45198 -0.01961
 N359 N 0.41691 0.42530 -0.02457
 N360 N 0.44658 0.52801 -0.04777
 N361 N 0.43446 0.55012 -0.07004
 Mn362 Mn 0.43286 0.49056 0.01287
 Mn363 Mn 0.49276 0.49991 -0.04866
 Cl364 Cl 0.49649 0.50392 0.00862
 C365 C 0.40127 0.55966 -0.05864
 C366 C 0.42777 0.41278 -0.05356
 C367 C 0.26311 1.19391 0.17957
 C368 C 0.30015 1.19226 0.17152
 C369 C 0.31575 1.16867 0.14729
 N370 N 0.35214 1.17049 0.14131
 N371 N 0.36792 1.14844 0.12078
 C372 C 0.34797 1.12351 0.10549
 N373 N 0.31140 1.12165 0.11139
 N374 N 0.29552 1.14385 0.13200
 C375 C 0.36592 1.09902 0.08304
 C376 C 0.40299 1.10278 0.07582
 H377 H 0.31963 1.20803 0.18474
 H378 H 0.34996 1.07852 0.07174
 H379 H 0.24328 1.17841 0.16650
 H380 H 0.41847 1.12401 0.08651
 C381 C 0.77385 0.69896 0.68325
 C382 C 0.81100 0.69131 0.67968
 C383 C 0.82633 0.66994 0.65342
 N384 N 0.86277 0.66336 0.65321
 N385 N 0.87753 0.64271 0.63087
 C386 C 0.85647 0.62775 0.60774
 N387 N 0.81996 0.63463 0.60765
 N388 N 0.80511 0.65534 0.63012
 C389 C 0.87277 0.60322 0.58419
 C390 C 0.90885 0.59188 0.58774
 H391 H 0.83015 0.70039 0.69773
 H392 H 0.85579 0.59240 0.56527
 H393 H 0.75443 0.69013 0.66533
 H394 H 0.92511 0.60187 0.60751
 C395 C 0.72175 0.78914 0.18963
 C396 C 0.70242 0.82074 0.19184
 C397 C 0.67615 0.83323 0.16736
 N398 N 0.65874 0.86428 0.17209
 N399 N 0.63336 0.87560 0.15141
 C400 C 0.62408 0.85615 0.12528
 N401 N 0.64138 0.82492 0.12056
 N402 N 0.66689 0.81358 0.14129
 C403 C 0.59704 0.86950 0.10163
 C404 C 0.58441 0.90409 0.10303
 H405 H 0.70403 0.83589 0.21386
 H406 H 0.58997 0.85333 0.08110
 H407 H 0.72091 0.77423 0.16744
 H408 H 0.59409 0.92103 0.12212
 C409 C 1.22877 0.28731 0.68214
 C410 C 1.19284 0.28487 0.67116
 C411 C 1.17877 0.30586 0.64374
 N412 N 1.14249 0.30503 0.63710
 N413 N 1.12840 0.32594 0.61424
 C414 C 1.15005 0.34850 0.59703
 N415 N 1.18653 0.34886 0.60319
 N416 N 1.20065 0.32796 0.62618
 C417 C 1.13389 0.37414 0.57405
 C418 C 1.09638 0.38064 0.57438
 H419 H 1.17327 0.26906 0.68470
 H420 H 1.15184 0.39068 0.55948
 H421 H 1.24842 0.30324 0.66884
 H422 H 1.07894 0.36545 0.59057
 C423 C 0.71859 1.22863 -0.18106
 C424 C 0.72521 1.19424 -0.17048
 C425 C 0.69971 1.17584 -0.14847
 N426 N 0.70450 1.14108 -0.14177
 N427 N 0.67983 1.12333 -0.12423
 C428 C 0.64934 1.13966 -0.11293
 N429 N 0.64472 1.17448 -0.11939
 N430 N 0.66939 1.19222 -0.13689
 C431 C 0.62128 1.12031 -0.09438
 C432 C 0.62518 1.08488 -0.08607
 H433 H 0.74688 1.17903 -0.18158
 H434 H 0.59719 1.13456 -0.08657
 H435 H 0.69660 1.24329 -0.17000
 H436 H 0.64964 1.07069 -0.09298
 C437 C 1.22216 0.72515 0.32123
 C438 C 1.18530 0.72091 0.32929
 C439 C 1.17198 0.69734 0.35532
 N440 N 1.13540 0.69344 0.35948
 N441 N 1.12217 0.67002 0.38069
 C442 C 1.14498 0.64947 0.39865
 N443 N 1.18169 0.65378 0.39496
 N444 N 1.19498 0.67726 0.37362
 C445 C 1.13009 0.62126 0.41988
 C446 C 1.09344 0.61142 0.41756
 H447 H 1.16465 0.73301 0.31409
 H448 H 1.14855 0.60611 0.43507
 H449 H 1.24300 0.71300 0.33622
 H450 H 1.07573 0.62559 0.40094
 C451 C 0.28823 0.78092 -0.19498
 C452 C 0.30251 0.81497 -0.19685
 C453 C 0.32773 0.82937 -0.17265
 N454 N 0.33888 0.86332 -0.17564
 N455 N 0.36292 0.87671 -0.15499
 C456 C 0.37708 0.85659 -0.13066
 N457 N 0.36609 0.82250 -0.12773
 N458 N 0.34188 0.80910 -0.14837
 C459 C 0.40300 0.87175 -0.10727
 C460 C 0.40840 0.90804 -0.10593
 H461 H 0.29679 0.83131 -0.21791
 H462 H 0.41565 0.85464 -0.08935
 H463 H 0.29326 0.76478 -0.17365
 H464 H 0.39352 0.92514 -0.12243
 C465 C 0.78996 0.27559 0.30703
 C466 C 0.82505 0.28998 0.30762
 C467 C 0.83959 0.31039 0.33478
 N468 N 0.87441 0.32251 0.33296
 N469 N 0.88779 0.34309 0.35594
 C470 C 0.86690 0.35251 0.38170
 N471 N 0.83207 0.34008 0.38377
 N472 N 0.81863 0.31938 0.36071
 C473 C 0.88124 0.37732 0.40593
 C474 C 0.91580 0.39231 0.40178
 H475 H 0.84251 0.28769 0.28648
 H476 H 0.86392 0.38538 0.42586
 H477 H 0.77239 0.27755 0.32811
 H478 H 0.93255 0.38440 0.38142
 C479 C 1.20694 0.26483 0.17515
 C480 C 1.17033 0.27368 0.17045
 C481 C 1.15816 0.29695 0.14374
 N482 N 1.12220 0.30521 0.14123
 N483 N 1.11086 0.32872 0.11930
 C484 C 1.13499 0.34507 0.09898
 N485 N 1.17097 0.33645 0.10114
 N486 N 1.18235 0.31283 0.12312
 C487 C 1.12269 0.37365 0.07686
 C488 C 1.08678 0.38586 0.07845
 H489 H 1.15015 0.26574 0.18839
 H490 H 1.14252 0.38719 0.06165
 H491 H 1.22662 0.27195 0.15660
 H492 H 1.06767 0.37272 0.09466
 C493 C 0.70874 0.76345 0.67987
 C494 C 0.70755 0.79939 0.67253
 C495 C 0.67956 0.81606 0.65200
 N496 N 0.67844 0.85170 0.65025
 N497 N 0.65191 0.86809 0.63409
 C498 C 0.62523 0.84954 0.61912
 N499 N 0.62644 0.81375 0.62058
 N500 N 0.65303 0.79727 0.63692
 C501 C 0.59617 0.86808 0.60092
 C502 C 0.59464 0.90480 0.60058
 H503 H 0.72495 0.81721 0.68569
 H504 H 0.57745 0.85304 0.58620
 H505 H 0.69141 0.74538 0.66682
 H506 H 0.61393 0.91952 0.61500
 C507 C 1.22456 0.71810 -0.18745
 C508 C 1.18750 0.71280 -0.18105
 C509 C 1.17406 0.69327 -0.15232
 N510 N 1.13751 0.68996 -0.14757
 N511 N 1.12446 0.66986 -0.12355
 C512 C 1.14739 0.65209 -0.10331
 N513 N 1.18406 0.65573 -0.10777
 N514 N 1.19717 0.67597 -0.13183
 C515 C 1.13268 0.62700 -0.07881
 C516 C 1.09526 0.61997 -0.07745
 H517 H 1.16742 0.72124 -0.19876
 H518 H 1.15147 0.61148 -0.06427
 H519 H 1.24440 0.71133 -0.16902
 H520 H 1.07701 0.63493 -0.09298
 C521 C 0.72183 1.21635 0.30834
 C522 C 0.71580 1.18055 0.31383
 C523 C 0.69100 1.16716 0.33910
 N524 N 0.68859 1.13194 0.34437
 N525 N 0.66468 1.11887 0.36570
 C526 C 0.64199 1.14049 0.38237
 N527 N 0.64430 1.17578 0.37708
 N528 N 0.66839 1.18891 0.35580
 C529 C 0.61535 1.12592 0.40574
 C530 C 0.61737 1.09082 0.41560
 H531 H 0.72765 1.16139 0.29765
 H532 H 0.59494 1.14315 0.41616
 H533 H 0.71044 1.23547 0.32482
 H534 H 0.63925 1.07431 0.40661
 C535 C 0.78755 0.72644 0.18705
 C536 C 0.82431 0.71694 0.18460
 C537 C 0.83892 0.69537 0.15805
 N538 N 0.87443 0.68513 0.15893
 N539 N 0.88774 0.66324 0.13685
 C540 C 0.86606 0.65058 0.11296
 N541 N 0.83058 0.66119 0.11176
 N542 N 0.81721 0.68313 0.13394
 C543 C 0.88027 0.62435 0.08986
 C544 C 0.91480 0.60943 0.09420
 H545 H 0.84274 0.72289 0.20430
 H546 H 0.86271 0.61514 0.07063
 H547 H 0.76924 0.72104 0.16715
 H548 H 0.93165 0.61813 0.11411
 C549 C 0.29428 1.22561 0.68768
 C550 C 0.29855 1.18953 0.68305
 C551 C 0.32267 1.17470 0.65828
 N552 N 0.32227 1.13947 0.65336
 N553 N 0.34498 1.12498 0.63208
 C554 C 0.36919 1.14514 0.61509
 N555 N 0.36971 1.18044 0.62005
 N556 N 0.34680 1.19500 0.64128
 C557 C 0.39454 1.12903 0.59183
 C558 C 0.39018 1.09418 0.58249
 H559 H 0.28445 1.17100 0.69886
 H560 H 0.41618 1.14499 0.58126
 H561 H 0.30774 1.24425 0.67156
 H562 H 0.36730 1.07889 0.59171
 C563 C 0.78279 0.29417 -0.18647
 C564 C 0.80413 0.32439 -0.18989
 C565 C 0.82160 0.34235 -0.16274
 N566 N 0.84762 0.36680 -0.16930
 N567 N 0.86392 0.38394 -0.14545
 C568 C 0.85468 0.37754 -0.11404
 N569 N 0.82824 0.35331 -0.10738
 N570 N 0.81205 0.33588 -0.13134
 C571 C 0.87306 0.39698 -0.08800
 C572 C 0.90601 0.41405 -0.09459
 H573 H 0.80943 0.33512 -0.21390
 H574 H 0.86076 0.39817 -0.06413
 H575 H 0.77889 0.28211 -0.16281
 H576 H 0.91889 0.41061 -0.11804
 C577 C 0.28275 0.79302 0.31624
 C578 C 0.30004 0.82567 0.31354
 C579 C 0.32778 0.83828 0.33612
 N580 N 0.34344 0.87008 0.33031
 N581 N 0.36992 0.88187 0.34932
 C582 C 0.38204 0.86220 0.37475
 N583 N 0.36652 0.83020 0.38054
 N584 N 0.33990 0.81835 0.36146
 C585 C 0.40985 0.87634 0.39677
 C586 C 0.41986 0.91167 0.39470
 H587 H 0.29533 0.84207 0.29231
 H588 H 0.41923 0.86020 0.41691
 H589 H 0.28696 0.77653 0.33748
 H590 H 0.40814 0.92836 0.37598
 C591 C 1.18171 1.19725 0.28833
 C592 C 1.18731 1.16429 0.30253
 C593 C 1.16317 1.15069 0.32833
 N594 N 1.17220 1.12066 0.34448
 N595 N 1.15154 1.10892 0.36897
 C596 C 1.12110 1.12679 0.37821
 N597 N 1.11190 1.15667 0.36188
 N598 N 1.13261 1.16847 0.33743
 C599 C 1.09854 1.11444 0.40565
 C600 C 1.10890 1.08559 0.42455
 H601 H 1.21130 1.14904 0.29620
 H602 H 1.07358 1.12854 0.41127
 H603 H 1.15748 1.21212 0.29453
 H604 H 1.13403 1.07168 0.41914
 C605 C 0.69268 0.69035 -0.20912
 C606 C 0.65858 0.70080 -0.19768
 C607 C 0.64240 0.68328 -0.16924
 N608 N 0.60595 0.68548 -0.16331
 N609 N 0.59138 0.66930 -0.13748
 C610 C 0.61290 0.65098 -0.11644
 N611 N 0.64941 0.64951 -0.12201
 N612 N 0.66388 0.66531 -0.14797
 C613 C 0.59729 0.63081 -0.08928
 C614 C 0.56141 0.61878 -0.08998
 H615 H 0.64455 0.72311 -0.20851
 H616 H 0.61581 0.62078 -0.07091
 H617 H 0.70521 0.66670 -0.19928
 H618 H 0.54349 0.62670 -0.10961
 C619 C 0.80344 1.20980 0.71382
 C620 C 0.79514 1.17718 0.70067
 C621 C 0.82110 1.15929 0.67912
 N622 N 0.81093 1.12962 0.66350
 N623 N 0.83363 1.11435 0.64258
 C624 C 0.86731 1.12820 0.63656
 N625 N 0.87758 1.15765 0.65240
 N626 N 0.85489 1.17294 0.67326
 C627 C 0.89214 1.11263 0.61260
 C628 C 0.88198 1.08395 0.59398
 H629 H 0.76844 1.16550 0.70466
 H630 H 0.91864 1.12482 0.60879
 H631 H 0.83058 1.22063 0.71038
 H632 H 0.85553 1.07162 0.59762
 C633 C 0.30263 0.71304 0.21450
 C634 C 0.29894 0.70426 0.18205
 C635 C 0.32513 0.68167 0.16535
 N636 N 0.31779 0.67102 0.13483
 N637 N 0.34077 0.64977 0.11942
 C638 C 0.37200 0.63857 0.13394
 N639 N 0.37957 0.64952 0.16436
 N640 N 0.35649 0.67069 0.17985
 C641 C 0.39674 0.61410 0.11766
 C642 C 0.38683 0.59770 0.08903
 H643 H 0.27600 0.71356 0.16808
 H644 H 0.42237 0.60742 0.12933
 H645 H 0.32595 0.70328 0.22800
 H646 H 0.36073 0.60341 0.07778
 C647 C 1.20056 0.78484 0.69810
 C648 C 1.17482 0.80950 0.70812
 C649 C 1.14766 0.82421 0.68542
 N650 N 1.12933 0.85414 0.69284
 N651 N 1.10531 0.86805 0.67210
 C652 C 1.09834 0.85227 0.64336
 N653 N 1.11613 0.82196 0.63624
 N654 N 1.14039 0.80822 0.65685
 C655 C 1.07404 0.86878 0.61915
 C656 C 1.06743 0.90486 0.61934
 H657 H 1.17475 0.81849 0.73293
 H658 H 1.06568 0.85349 0.59842
 H659 H 1.20147 0.77740 0.67285
 H660 H 1.07905 0.92064 0.63844
 C661 C 0.70395 0.29870 0.20603
 C662 C 0.69445 0.29752 0.17345
 C663 C 0.67057 0.32429 0.15891
 N664 N 0.67014 0.32901 0.12630
 N665 N 0.64929 0.35394 0.11289
 C666 C 0.62791 0.37478 0.13165
 N667 N 0.62791 0.36968 0.16421
 N668 N 0.64900 0.34497 0.17763
 C669 C 0.60523 0.40264 0.11735
 C670 C 0.61136 0.41533 0.08607
 H671 H 0.70578 0.27768 0.15779
 H672 H 0.58432 0.41457 0.13233
 H673 H 0.69309 0.31960 0.22092
 H674 H 0.63365 0.40503 0.07164
 C675 C 0.80033 0.79337 0.30213
 C676 C 0.82269 0.82217 0.29488
 C677 C 0.84743 0.83706 0.31947
 N678 N 0.86164 0.86987 0.31536
 N679 N 0.88371 0.88355 0.33764
 C680 C 0.89283 0.86475 0.36469
 N681 N 0.87908 0.83175 0.36852
 N682 N 0.85675 0.81821 0.34641
 C683 C 0.91594 0.88005 0.39028
 C684 C 0.91997 0.91636 0.39334
 H685 H 0.82190 0.83415 0.27095
 H686 H 0.92653 0.86275 0.40908
 H687 H 0.79978 0.78329 0.32677
 H688 H 0.90642 0.93369 0.37615
 C689 C 0.30311 0.30583 -0.20859
 C690 C 0.30493 0.30517 -0.17488
 C691 C 0.33230 0.32537 -0.15688
 N692 N 0.33239 0.32392 -0.12403
 N693 N 0.35724 0.34169 -0.10725
 C694 C 0.38310 0.36140 -0.12272
 N695 N 0.38316 0.36269 -0.15560
 N696 N 0.35825 0.34496 -0.17239
 C697 C 0.40962 0.38245 -0.10446
 C698 C 0.40712 0.38584 -0.07096
 H699 H 0.28684 0.28826 -0.16101
 H700 H 0.42957 0.39790 -0.11793
 H701 H 0.32125 0.32311 -0.22218
 H702 H 0.38640 0.37132 -0.05755
 C703 C 1.21529 0.28602 -0.18811
 C704 C 1.18712 0.31064 -0.19097
 C705 C 1.17086 0.32953 -0.16351
 N706 N 1.14066 0.34943 -0.16878
 N707 N 1.12617 0.36840 -0.14508
 C708 C 1.14138 0.36851 -0.11510
 N709 N 1.17173 0.34859 -0.10973
 N710 N 1.18620 0.32937 -0.13351
 C711 C 1.12574 0.39090 -0.08938
 C712 C 1.09260 0.40826 -0.09453
 H713 H 1.17663 0.31719 -0.21482
 H714 H 1.14060 0.39449 -0.06700
 H715 H 1.22474 0.27798 -0.16435
 H716 H 1.07772 0.40345 -0.11670
 C717 C 0.71248 0.77459 0.31774
 C718 C 0.71528 0.80914 0.32872
 C719 C 0.68988 0.82475 0.35226
 N720 N 0.69487 0.85869 0.36118
 N721 N 0.67099 0.87447 0.38063
 C722 C 0.64098 0.85701 0.39181
 N723 N 0.63600 0.82296 0.38302
 N724 N 0.65999 0.80710 0.36356
 C725 C 0.61397 0.87478 0.41268
 C726 C 0.61941 0.90922 0.42307
 H727 H 0.73522 0.82674 0.31776
 H728 H 0.58968 0.86048 0.42022
 H729 H 0.69280 0.75676 0.32873
 H730 H 0.64420 0.92311 0.41623
 C731 C 0.77455 0.70960 -0.18687
 C732 C 0.81154 0.71059 -0.17885
 C733 C 0.82657 0.69125 -0.15073
 N734 N 0.86326 0.69077 -0.14602
 N735 N 0.87779 0.67122 -0.12236
 C736 C 0.85623 0.65137 -0.10241
 N737 N 0.81943 0.65230 -0.10676
 N738 N 0.80486 0.67185 -0.13050
 C739 C 0.87254 0.62708 -0.07823
 C740 C 0.91003 0.62041 -0.07838
 H741 H 0.83066 0.72389 -0.19496
 H742 H 0.85465 0.61162 -0.06265
 H743 H 0.75544 0.69672 -0.17053
 H744 H 0.92745 0.63482 -0.09517
 C745 C 0.27083 1.20574 0.30750
 C746 C 0.30854 1.20509 0.31281
 C747 C 0.32617 1.18042 0.33571
 N748 N 0.36306 1.18125 0.33923
 N749 N 0.38005 1.15752 0.35784
 C750 C 0.36084 1.13178 0.37346
 N751 N 0.32389 1.13096 0.37002
 N752 N 0.30686 1.15479 0.35144
 C753 C 0.37949 1.10514 0.39384
 C754 C 0.41676 1.10740 0.40070
 H755 H 0.32635 1.22084 0.29740
 H756 H 0.36329 1.08424 0.40478
 H757 H 0.25296 1.19114 0.32368
 H758 H 0.43259 1.12925 0.39102
 C759 C 1.21256 0.72481 0.19201
 C760 C 1.19249 0.69372 0.19481
 C761 C 1.17653 0.67510 0.16732
 N762 N 1.15196 0.64918 0.17351
 N763 N 1.13724 0.63115 0.14944
 C764 C 1.14666 0.63805 0.11816
 N765 N 1.17168 0.66375 0.11186
 N766 N 1.18631 0.68208 0.13606
 C767 C 1.12969 0.61771 0.09192
 C768 C 1.09721 0.59970 0.09825
 H769 H 1.18747 0.68238 0.21862
 H770 H 1.14244 0.61675 0.06822
 H771 H 1.21620 0.73747 0.16858
 H772 H 1.08383 0.60316 0.12147
 C773 C 0.71567 1.22045 0.69063
 C774 C 0.67866 1.21182 0.68886
 C775 C 0.66430 1.18514 0.66677
 N776 N 0.62773 1.17932 0.66579
 N777 N 0.61403 1.15393 0.64745
 C778 C 0.63641 1.13311 0.62962
 N779 N 0.67307 1.13882 0.63066
 N780 N 0.68680 1.16435 0.64896
 C781 C 0.62117 1.10548 0.60881
 C782 C 0.58378 1.10391 0.60265
 H783 H 0.65952 1.22314 0.70592
 H784 H 0.63973 1.08800 0.59626
 H785 H 0.73449 1.21066 0.67256
 H786 H 0.56564 1.12304 0.61351
 C787 C 0.78652 0.27632 0.17667
 C788 C 0.82363 0.27950 0.16947
 C789 C 0.83707 0.30262 0.14304
 N790 N 0.87356 0.30756 0.13917
 N791 N 0.88623 0.33072 0.11740
 C792 C 0.86295 0.34990 0.09859
 N793 N 0.82641 0.34451 0.10203
 N794 N 0.81371 0.32133 0.12387
 C795 C 0.87688 0.37808 0.07681
 C796 C 0.91333 0.38856 0.07845
 H797 H 0.84363 0.26713 0.18521
 H798 H 0.85779 0.39294 0.06201
 H799 H 0.76708 0.28879 0.16063
 H800 H 0.93172 0.37445 0.09451
 C801 C 0.28775 0.76852 0.67675
 C802 C 0.28449 0.80342 0.66613
 C803 C 0.31040 0.82022 0.64336
 N804 N 0.30601 0.85473 0.63543
 N805 N 0.33070 0.87151 0.61715
 C806 C 0.36095 0.85450 0.60625
 N807 N 0.36527 0.81987 0.61399
 N808 N 0.34050 0.80304 0.63227
 C809 C 0.38894 0.87325 0.58681
 C810 C 0.38454 0.90845 0.57758
 H811 H 0.26454 0.82044 0.67749
 H812 H 0.41318 0.85903 0.57930
 H813 H 0.30731 0.75127 0.66518
 H814 H 0.35982 0.92234 0.58431
 C815 C 0.28050 1.22090 -0.18459
 C816 C 0.31767 1.21878 -0.17735
 C817 C 0.33345 1.19052 -0.15728
 N818 N 0.37030 1.18865 -0.15418
 N819 N 0.38576 1.16171 -0.13855
 C820 C 0.36498 1.13541 -0.12559
 N821 N 0.32803 1.13735 -0.12848
 N822 N 0.31252 1.16436 -0.14418
 C823 C 0.38213 1.10569 -0.10816
 C824 C 0.41992 1.10415 -0.10411
 H825 H 0.33682 1.23588 -0.19002
 H826 H 0.36477 1.08593 -0.09681
 H827 H 0.26116 1.20429 -0.17163
 H828 H 0.43709 1.12455 -0.11468
 C829 C 0.77764 0.71103 0.31631
 C830 C 0.81437 0.70990 0.32528
 C831 C 0.82847 0.68727 0.35149
 N832 N 0.86499 0.68642 0.35693
 N833 N 0.87904 0.66438 0.37885
 C834 C 0.85712 0.64231 0.39629
 N835 N 0.82041 0.64357 0.39131
 N836 N 0.80631 0.66564 0.36926
 C837 C 0.87313 0.61562 0.41828
 C838 C 0.91044 0.60829 0.41695
 H839 H 0.83432 0.72493 0.31142
 H840 H 0.85517 0.59930 0.43303
 H841 H 0.75750 0.69608 0.32998
 H842 H 0.92783 0.62344 0.40068
 C843 C 0.72128 1.21299 0.17965
 C844 C 0.68415 1.20505 0.17766
 C845 C 0.66985 1.17779 0.15618
 N846 N 0.63342 1.17116 0.15598
 N847 N 0.61993 1.14512 0.13831
 C848 C 0.64238 1.12445 0.12039
 N849 N 0.67890 1.13099 0.12063
 N850 N 0.69242 1.15714 0.13830
 C851 C 0.62730 1.09636 0.10004
 C852 C 0.58979 1.09393 0.09493
 H853 H 0.66510 1.21687 0.19451
 H854 H 0.64587 1.07964 0.08666
 H855 H 0.74023 1.20201 0.16224
 H856 H 0.57158 1.11240 0.10663
 C857 C 1.22433 0.70362 0.68266
 C858 C 1.18698 0.69958 0.67699
 C859 C 1.17223 0.67723 0.65126
 N860 N 1.13562 0.67174 0.64980
 N861 N 1.12156 0.65016 0.62791
 C862 C 1.14354 0.63328 0.60650
 N863 N 1.18018 0.63915 0.60761
 N864 N 1.19430 0.66069 0.62964
 C865 C 1.12814 0.60772 0.58357
 C866 C 1.09228 0.59576 0.58708
 H867 H 1.16743 0.71189 0.69308
 H868 H 1.14582 0.59640 0.56532
 H869 H 1.24406 0.69131 0.66676
 H870 H 1.07536 0.60594 0.60644
 C871 C 0.71102 0.77252 -0.19142
 C872 C 0.70125 0.80799 -0.19067
 C873 C 0.67700 0.82263 -0.16569
 N874 N 0.67211 0.85798 -0.16437
 N875 N 0.64898 0.87184 -0.14304
 C876 C 0.62949 0.85089 -0.12240
 N877 N 0.63415 0.81544 -0.12384
 N878 N 0.65751 0.80155 -0.14510
 C879 C 0.60416 0.86636 -0.09855
 C880 C 0.60606 0.90205 -0.09132
 H881 H 0.71015 0.82559 -0.20998
 H882 H 0.58550 0.84933 -0.08524
 H883 H 0.70350 0.75533 -0.17137
 H884 H 0.62679 0.91825 -0.10295
 C885 C 1.21424 0.27644 0.30483
 C886 C 1.17777 0.28483 0.31108
 C887 C 1.16573 0.30755 0.33767
 N888 N 1.12959 0.31474 0.34072
 N889 N 1.11772 0.33687 0.36318
 C890 C 1.14149 0.35277 0.38357
 N891 N 1.17773 0.34521 0.38090
 N892 N 1.18966 0.32300 0.35831
 C893 C 1.12825 0.37931 0.40677
 C894 C 1.09257 0.39201 0.40446
 H895 H 1.15671 0.27567 0.29483
 H896 H 1.14713 0.39069 0.42390
 H897 H 1.23554 0.28553 0.32088
 H898 H 1.07459 0.38155 0.38611
 C899 C 0.27459 0.79202 0.18759
 C900 C 0.28234 0.82782 0.18376
 C901 C 0.30731 0.84136 0.15843
 N902 N 0.31177 0.87663 0.15454
 N903 N 0.33608 0.88944 0.13335
 C904 C 0.35721 0.86747 0.11547
 N905 N 0.35281 0.83215 0.11940
 N906 N 0.32832 0.81933 0.14048
 C907 C 0.38462 0.88149 0.09236
 C908 C 0.38521 0.91700 0.08351
 H909 H 0.27214 0.84642 0.20133
 H910 H 0.40365 0.86339 0.08118
 H911 H 0.28367 0.77408 0.16912
 H912 H 0.36465 0.93459 0.09317
 C913 C 0.77573 0.28745 0.68414
 C914 C 0.81284 0.28991 0.67645
 C915 C 0.82726 0.30902 0.64799
 N916 N 0.86394 0.30996 0.64319
 N917 N 0.87833 0.32941 0.61936
 C918 C 0.85664 0.34878 0.59933
 N919 N 0.81978 0.34740 0.60373
 N920 N 0.80532 0.32786 0.62766
 C921 C 0.87300 0.37315 0.57518
 C922 C 0.91048 0.37998 0.57557
 H923 H 0.83287 0.27927 0.69313
 H924 H 0.85523 0.38850 0.55953
 H925 H 0.75550 0.29816 0.66766
 H926 H 0.92774 0.36566 0.59244
 C927 C 1.20853 1.20413 0.70522
 C928 C 1.17254 1.19363 0.71086
 C929 C 1.15526 1.16661 0.69065
 N930 N 1.11833 1.16296 0.69024
 N931 N 1.10264 1.13883 0.67157
 C932 C 1.12338 1.11718 0.65298
 N933 N 1.16031 1.12047 0.65383
 N934 N 1.17594 1.14476 0.67225
 C935 C 1.10664 1.09153 0.63102
 C936 C 1.07039 1.09450 0.62115
 H937 H 1.15677 1.20552 0.73014
 H938 H 1.12426 1.07228 0.61967
 H939 H 1.22296 1.19354 0.68460
 H940 H 1.05340 1.11535 0.63073
 C941 C 0.70509 0.70511 0.20466
 C942 C 0.67240 0.71525 0.19003
 C943 C 0.65701 0.69504 0.16302
 N944 N 0.62160 0.69959 0.15412
 N945 N 0.60746 0.68095 0.12999
 C946 C 0.62836 0.65745 0.11357
 N947 N 0.66394 0.65343 0.12207
 N948 N 0.67798 0.67182 0.14636
 C949 C 0.61258 0.63482 0.08842
 C950 C 0.57519 0.62810 0.08736
 H951 H 0.65814 0.73859 0.19812
 H952 H 0.63100 0.61945 0.07358
 H953 H 0.71818 0.68090 0.19723
 H954 H 0.55714 0.64117 0.10428
 C955 C 1.19139 0.80365 0.29594
 C956 C 1.19991 0.83403 0.31291
 C957 C 1.17379 0.84984 0.33572
 N958 N 1.18370 0.87837 0.35314
 N959 N 1.16084 0.89205 0.37484
 C960 C 1.12721 0.87768 0.37996
 N961 N 1.11723 0.84926 0.36242
 N962 N 1.14010 0.83558 0.34074
 C963 C 1.10204 0.89188 0.40447
 C964 C 1.11165 0.92022 0.42379
 H965 H 1.22674 0.84579 0.31045
 H966 H 1.07564 0.87933 0.40777
 H967 H 1.16401 0.79292 0.29770
 H968 H 1.13799 0.93287 0.42053
 C969 C 0.69416 0.30804 -0.21007
 C970 C 0.69670 0.31487 -0.17702
 C971 C 0.67133 0.33797 -0.15971
 N972 N 0.67812 0.34586 -0.12833
 N973 N 0.65548 0.36656 -0.11189
 C974 C 0.62506 0.37999 -0.12618
 N975 N 0.61812 0.37196 -0.15755
 N976 N 0.64089 0.35135 -0.17407
 C977 C 0.59998 0.40297 -0.10826
 C978 C 0.60881 0.41609 -0.07786
 H979 H 0.71789 0.30266 -0.16269
 H980 H 0.57456 0.41071 -0.11974
 H981 H 0.67264 0.32035 -0.22416
 H982 H 0.63486 0.40969 -0.06685
 C983 C 0.80355 1.19053 0.28171
 C984 C 0.83753 1.19664 0.29558
 C985 C 0.85486 1.16978 0.31640
 N986 N 0.88674 1.17693 0.33169
 N987 N 0.90157 1.15333 0.35187
 C988 C 0.88507 1.12172 0.35746
 N989 N 0.85340 1.11445 0.34192
 N990 N 0.83858 1.13803 0.32177
 C991 C 0.89973 1.09637 0.38126
 C992 C 0.93042 1.10405 0.39966
 H993 H 0.85099 1.22180 0.29217
 H994 H 0.88468 1.07222 0.38587
 H995 H 0.79097 1.16489 0.28474
 H996 H 0.94547 1.12821 0.39515
 C997 C 0.30906 0.69993 -0.21175
 C998 C 0.29846 0.66974 -0.19464
 C999 C 0.32215 0.65290 -0.17046
 N1000 N 0.30775 0.62946 -0.14887
 N1001 N 0.32887 0.61403 -0.12663
 C1002 C 0.36516 0.62148 -0.12530
 N1003 N 0.37957 0.64482 -0.14697
 N1004 N 0.35841 0.66045 -0.16904
 C1005 C 0.38932 0.60306 -0.10250
 C1006 C 0.37625 0.58279 -0.07661
 H1007 H 0.27108 0.65929 -0.19746
 H1008 H 0.41852 0.60459 -0.10697
 H1009 H 0.33619 0.71076 -0.20847
 H1010 H 0.34747 0.58289 -0.07027
 C1011 C 0.79727 0.78029 0.70096
 C1012 C 0.79913 0.81688 0.69860
 C1013 C 0.82368 0.83420 0.67497
 N1014 N 0.81885 0.86864 0.66689
 N1015 N 0.84018 0.88409 0.64461
 C1016 C 0.86725 0.86568 0.62976
 N1017 N 0.87235 0.83140 0.63816
 N1018 N 0.85090 0.81592 0.66024
 C1019 C 0.89070 0.88195 0.60472
 C1020 C 0.88257 0.91440 0.59042
 H1021 H 0.78107 0.83302 0.71306
 H1022 H 0.91425 0.86723 0.59637
 H1023 H 0.81511 0.76469 0.68588
 H1024 H 0.85828 0.92865 0.59769
 C1025 C 0.29186 0.27453 0.19371
 C1026 C 0.31939 0.29793 0.20215
 C1027 C 0.34041 0.31673 0.17690
 N1028 N 0.36924 0.33731 0.18496
 N1029 N 0.38751 0.35527 0.16215
 C1030 C 0.37752 0.35335 0.13051
 N1031 N 0.34875 0.33275 0.12249
 N1032 N 0.33061 0.31471 0.14523
 C1033 C 0.39579 0.37465 0.10534
 C1034 C 0.42666 0.39465 0.11190
 H1035 H 0.32512 0.30306 0.22739
 H1036 H 0.38358 0.37590 0.08146
 H1037 H 0.28772 0.26877 0.16837
 H1038 H 0.43969 0.39265 0.13538
   
