data_POSCAR
  _audit_creation_date              2014-09-24
  _audit_creation_method            'ToBaCCo'
  _symmetry_space_group_name_H-M    'P1'
  _symmetry_Int_Tables_number       1
  _symmetry_cell_setting            triclinic
  loop_
  _symmetry_equiv_pos_as_xyz
 x,y,z
_cell_length_a 59.8716
_cell_length_b 34.9142
_cell_length_c 19.4769
_cell_angle_alpha 90.063500
_cell_angle_beta 90.005600
_cell_angle_gamma 90.014300
loop_
  _atom_site_label
  _atom_site_type_symbol
  _atom_site_fract_x
  _atom_site_fract_y
  _atom_site_fract_z
C1 C 0.73151 0.26267 0.53909
 C2 C 0.73209 0.26405 0.46633
 C3 C 0.74989 0.24707 0.43105
 C4 C 0.76770 0.22903 0.46544
 C5 C 0.76693 0.22630 0.53880
 C6 C 0.74875 0.24324 0.57370
 H7 H 0.74790 0.24120 0.62914
 H8 H 0.75016 0.24932 0.37552
 C9 C 0.23052 0.75879 0.53863
 C10 C 0.23075 0.76066 0.46631
 C11 C 0.24853 0.74418 0.43028
 C12 C 0.26606 0.72554 0.46443
 C13 C 0.26576 0.72265 0.53758
 C14 C 0.24783 0.73991 0.57322
 H15 H 0.24680 0.73785 0.62864
 H16 H 0.24883 0.74622 0.37472
 C17 C 0.26744 0.26808 -0.53393
 C18 C 0.26586 0.27188 -0.46208
 C19 C 0.24737 0.25675 -0.42760
 C20 C 0.23028 0.23707 -0.46284
 C21 C 0.23159 0.23393 -0.53611
 C22 C 0.25048 0.24907 -0.56984
 H23 H 0.25164 0.24784 -0.62535
 H24 H 0.24696 0.25880 -0.37205
 C25 C -0.23337 0.77042 -0.53376
 C26 C -0.23563 0.77724 -0.46254
 C27 C -0.25452 0.76320 -0.42819
 C28 C -0.27110 0.74179 -0.46241
 C29 C -0.26928 0.73639 -0.53505
 C30 C -0.25008 0.75023 -0.56877
 H31 H -0.24847 0.74705 -0.62392
 H32 H -0.25561 0.76736 -0.37312
 O33 O -0.03047 0.93405 0.12842
 O34 O -0.05529 0.96837 0.06337
 C35 C -0.05064 0.94383 0.11123
 O36 O 0.03205 1.07066 0.11726
 O37 O 0.05637 1.03349 0.05551
 C38 C 0.05207 1.06052 0.09933
 O39 O -0.03025 1.06766 0.12609
 O40 O -0.05519 1.03300 0.06200
 C41 C -0.05045 1.05802 0.10904
 O42 O 0.03204 0.93055 0.11919
 O43 O 0.05652 0.96675 0.05607
 C44 C 0.05212 0.94038 0.10099
 Zr45 Zr 0.00060 0.95204 0.08770
 O46 O 0.00359 0.95252 0.19601
 O47 O -0.00201 0.89155 0.08802
 Zr48 Zr 0.00074 1.04867 0.08623
 O49 O 0.00373 1.04870 0.19457
 O50 O -0.00164 1.10917 0.08553
 O51 O -0.01924 1.00055 0.10144
 O52 O 0.02016 1.00033 0.09884
 O53 O 0.03086 0.92871 -0.11891
 O54 O 0.05573 0.96592 -0.05918
 C55 C 0.05105 0.93889 -0.10254
 O56 O -0.03141 1.06511 -0.12654
 O57 O -0.05569 1.03225 -0.05705
 C58 C -0.05142 1.05584 -0.10660
 O59 O 0.03148 1.06934 -0.12038
 O60 O 0.05614 1.03218 -0.05967
 C61 C 0.05160 1.05885 -0.10376
 O62 O -0.03172 0.93407 -0.12496
 O63 O -0.05585 0.96767 -0.05613
 C64 C -0.05167 0.94371 -0.10530
 Zr65 Zr -0.00021 0.95115 -0.08550
 O66 O 0.00214 0.94992 -0.19393
 O67 O -0.00323 0.89073 -0.08307
 Zr68 Zr 0.00009 1.04787 -0.08703
 O69 O 0.00247 1.04778 -0.19548
 O70 O -0.00258 1.10835 -0.08684
 Zr71 Zr -0.03309 1.00015 0.00193
 Zr72 Zr 0.03363 0.99970 -0.00092
 O73 O 0.01931 0.99929 -0.09964
 O74 O -0.02006 0.99959 -0.09880
 O75 O 0.02014 0.94391 0.00040
 O76 O -0.01903 1.05541 0.00022
 O77 O -0.01930 0.94470 0.00199
 O78 O 0.02039 1.05567 -0.00124
 H79 H 0.03042 1.00052 0.13876
 H80 H -0.02906 1.07798 0.00009
 H81 H 0.02922 0.99900 -0.14037
 H82 H -0.02948 0.92232 0.00251
 H83 H 0.01049 1.11899 0.05589
 H84 H 0.01038 1.11860 -0.06123
 H85 H -0.00978 1.03157 -0.21330
 H86 H -0.00971 0.96678 -0.21222
 H87 H 0.00963 0.88062 -0.05685
 H88 H 0.01054 0.88133 0.06056
 H89 H -0.00866 0.96854 0.21433
 H90 H -0.00899 1.03395 0.21328
 O91 O 0.46968 0.43416 0.12804
 O92 O 0.44500 0.46769 0.06128
 C93 C 0.44955 0.44367 0.11008
 O94 O 0.53197 0.57098 0.11587
 O95 O 0.55653 0.53365 0.05539
 C96 C 0.55206 0.56084 0.09869
 O97 O 0.46959 0.56761 0.12283
 O98 O 0.44497 0.53226 0.05877
 C99 C 0.44948 0.55756 0.10552
 O100 O 0.53204 0.43065 0.12069
 O101 O 0.55658 0.46667 0.05763
 C102 C 0.55213 0.44043 0.10271
 Zr103 Zr 0.50078 0.45208 0.08763
 O104 O 0.50350 0.45353 0.19599
 O105 O 0.49823 0.39159 0.08921
 Zr106 Zr 0.50077 0.54874 0.08409
 O107 O 0.50343 0.54981 0.19249
 O108 O 0.49822 0.60921 0.08136
 O109 O 0.48083 0.50055 0.09973
 O110 O 0.52024 0.50059 0.09822
 O111 O 0.53213 0.42784 -0.11690
 O112 O 0.55670 0.46595 -0.05754
 C113 C 0.55224 0.43857 -0.10043
 O114 O 0.46886 0.56331 -0.12911
 O115 O 0.44450 0.53037 -0.05994
 C116 C 0.44882 0.55390 -0.10957
 O117 O 0.53165 0.56890 -0.12181
 O118 O 0.55635 0.53230 -0.06030
 C119 C 0.55178 0.55891 -0.10450
 O120 O 0.46939 0.43113 -0.12394
 O121 O 0.44494 0.46684 -0.05975
 C122 C 0.44935 0.44173 -0.10690
 Zr123 Zr 0.50067 0.44990 -0.08539
 O124 O 0.50317 0.44850 -0.19378
 O125 O 0.49812 0.38943 -0.08236
 Zr126 Zr 0.50046 0.54659 -0.08921
 O127 O 0.50314 0.54493 -0.19758
 O128 O 0.49752 0.60699 -0.09218
 Zr129 Zr 0.46731 0.49933 -0.00017
 Zr130 Zr 0.53405 0.49947 -0.00112
 O131 O 0.52000 0.49821 -0.10018
 O132 O 0.48063 0.49800 -0.10047
 O133 O 0.52072 0.44355 0.00121
 O134 O 0.48118 0.55469 -0.00258
 O135 O 0.48122 0.44399 0.00155
 O136 O 0.52056 0.55527 -0.00308
 H137 H 0.53037 0.50107 0.13845
 H138 H 0.47107 0.57714 -0.00347
 H139 H 0.53007 0.49783 -0.14054
 H140 H 0.47110 0.42154 0.00237
 H141 H 0.51084 0.61897 0.05367
 H142 H 0.50953 0.61768 -0.06305
 H143 H 0.49057 0.52938 -0.21514
 H144 H 0.49081 0.46414 -0.21238
 H145 H 0.51088 0.37971 -0.05526
 H146 H 0.51076 0.38122 0.06184
 H147 H 0.49107 0.46939 0.21363
 H148 H 0.49086 0.53469 0.21121
 C149 C 0.32220 0.31879 0.35551
 C150 C 0.32616 0.29032 0.40516
 C151 C 0.30838 0.27336 0.44035
 C152 C 0.28634 0.28471 0.42698
 C153 C 0.28228 0.31259 0.37676
 C154 C 0.30002 0.32953 0.34143
 C155 C 0.34106 0.33734 0.31902
 N156 N 0.33728 0.36470 0.27084
 N157 N 0.35422 0.38154 0.23839
 C158 C 0.37568 0.37179 0.25275
 N159 N 0.37945 0.34442 0.30091
 N160 N 0.36252 0.32757 0.33335
 C161 C 0.39456 0.39050 0.21660
 C162 C 0.41673 0.38045 0.23205
 C163 C 0.43454 0.39782 0.19775
 C164 C 0.43063 0.42566 0.14705
 C165 C 0.40846 0.43587 0.13179
 C166 C 0.39064 0.41850 0.16617
 H167 H 0.34300 0.28119 0.41710
 H168 H 0.31183 0.25150 0.47829
 H169 H 0.26536 0.32171 0.36575
 H170 H 0.29633 0.35126 0.30348
 H171 H 0.42039 0.35905 0.27063
 H172 H 0.45139 0.38925 0.21086
 H173 H 0.40482 0.45728 0.09318
 H174 H 0.37379 0.42700 0.15302
 C175 C -0.17798 0.81727 0.35352
 C176 C -0.17424 0.79076 0.40671
 C177 C -0.19221 0.77475 0.44249
 C178 C -0.21420 0.78519 0.42610
 C179 C -0.21800 0.81085 0.37203
 C180 C -0.20010 0.82678 0.33617
 C181 C -0.15902 0.83550 0.31707
 N182 N -0.16274 0.86143 0.26642
 N183 N -0.14578 0.87837 0.23434
 C184 C -0.12433 0.87015 0.25156
 N185 N -0.12059 0.84415 0.30213
 N186 N -0.13757 0.82719 0.33423
 C187 C -0.10547 0.88922 0.21603
 C188 C -0.08327 0.88057 0.23365
 C189 C -0.06550 0.89843 0.19995
 C190 C -0.06949 0.92539 0.14779
 C191 C -0.09169 0.93419 0.13038
 C192 C -0.10946 0.91631 0.16408
 H193 H -0.15744 0.78265 0.42121
 H194 H -0.18898 0.75469 0.48370
 H195 H -0.23487 0.81923 0.35865
 H196 H -0.20362 0.84696 0.29542
 H197 H -0.07957 0.85990 0.27345
 H198 H -0.04862 0.89096 0.21471
 H199 H -0.09540 0.95482 0.09048
 H200 H -0.12634 0.92373 0.14921
 C201 C 0.67806 0.68916 0.34473
 C202 C 0.70045 0.68080 0.32927
 C203 C 0.71777 0.69670 0.36814
 C204 C 0.71317 0.72094 0.42437
 C205 C 0.69068 0.73012 0.43816
 C206 C 0.67341 0.71433 0.39917
 C207 C 0.65960 0.67142 0.30508
 N208 N 0.63802 0.68057 0.31888
 N209 N 0.62136 0.66408 0.28455
 C210 C 0.62553 0.63768 0.23492
 N211 N 0.64712 0.62861 0.22088
 N212 N 0.66380 0.64514 0.25521
 C213 C 0.60686 0.61872 0.19813
 C214 C 0.61095 0.58983 0.14934
 C215 C 0.59320 0.57125 0.11647
 C216 C 0.57098 0.58118 0.13163
 C217 C 0.56694 0.61043 0.17972
 C218 C 0.58464 0.62893 0.21254
 H219 H 0.70465 0.66161 0.28751
 H220 H 0.73476 0.68856 0.35580
 H221 H 0.68635 0.75018 0.47844
 H222 H 0.65637 0.72188 0.41199
 H223 H 0.62785 0.58127 0.13695
 H224 H 0.59693 0.54890 0.07962
 H225 H 0.55006 0.61891 0.19259
 H226 H 0.58084 0.65110 0.24965
 C227 C 0.17859 1.18859 0.34300
 C228 C 0.17408 1.21280 0.39895
 C229 C 0.19145 1.22810 0.43812
 C230 C 0.21390 1.21935 0.42296
 C231 C 0.21837 1.19630 0.36506
 C232 C 0.20095 1.18087 0.32604
 C233 C 0.16005 1.17104 0.30348
 N234 N 0.16417 1.14521 0.25278
 N235 N 0.14742 1.12869 0.21874
 C236 C 0.12585 1.13733 0.23393
 N237 N 0.12177 1.16330 0.28435
 N238 N 0.13850 1.17977 0.31840
 C239 C 0.10711 1.11834 0.19756
 C240 C 0.08493 1.12836 0.21279
 C241 C 0.06716 1.10985 0.18040
 C242 C 0.07109 1.08076 0.13192
 C243 C 0.09327 1.07098 0.11596
 C244 C 0.11109 1.08959 0.14840
 H245 H 0.15707 1.21985 0.41293
 H246 H 0.18725 1.24734 0.47978
 H247 H 0.23534 1.18866 0.35154
 H248 H 0.20504 1.16249 0.28303
 H249 H 0.08121 1.15042 0.25021
 H250 H 0.05031 1.11822 0.19389
 H251 H 0.09690 1.04874 0.07879
 H252 H 0.12797 1.08116 0.13541
 C253 C 0.67942 0.31485 -0.34599
 C254 C 0.68989 0.33483 -0.39956
 C255 C 0.70703 0.31775 -0.43738
 C256 C 0.71436 0.28036 -0.42207
 C257 C 0.70435 0.26104 -0.36648
 C258 C 0.68683 0.27782 -0.32975
 C259 C 0.66082 0.33256 -0.30747
 N260 N 0.64487 0.31055 -0.27741
 N261 N 0.62790 0.32660 -0.24373
 C262 C 0.62634 0.36529 -0.23816
 N263 N 0.64237 0.38727 -0.26786
 N264 N 0.65920 0.37124 -0.30212
 C265 C 0.60752 0.38328 -0.20109
 C266 C 0.61006 0.41966 -0.17133
 C267 C 0.59223 0.43712 -0.13731
 C268 C 0.57130 0.41900 -0.13372
 C269 C 0.56875 0.38253 -0.16333
 C270 C 0.58677 0.36465 -0.19604
 H271 H 0.68462 0.36355 -0.41287
 H272 H 0.71495 0.33430 -0.47755
 H273 H 0.70936 0.23217 -0.35321
 H274 H 0.67915 0.26188 -0.28832
 H275 H 0.62591 0.43456 -0.17399
 H276 H 0.59475 0.46514 -0.11486
 H277 H 0.55286 0.36778 -0.16103
 H278 H 0.58434 0.33662 -0.21870
 C279 C 0.17759 0.81168 -0.34645
 C280 C 0.19257 0.83413 -0.38481
 C281 C 0.20983 0.81692 -0.42197
 C282 C 0.21260 0.77705 -0.42065
 C283 C 0.19798 0.75459 -0.38145
 C284 C 0.18047 0.77171 -0.34518
 C285 C 0.15901 0.82988 -0.30844
 N286 N 0.14067 0.80934 -0.29023
 N287 N 0.12380 0.82591 -0.25689
 C288 C 0.12467 0.86363 -0.23992
 N289 N 0.14306 0.88410 -0.25781
 N290 N 0.15984 0.86760 -0.29160
 C291 C 0.10591 0.88223 -0.20334
 C292 C 0.10929 0.91662 -0.16735
 C293 C 0.09156 0.93457 -0.13363
 C294 C 0.06994 0.91894 -0.13621
 C295 C 0.06656 0.88443 -0.17200
 C296 C 0.08440 0.86610 -0.20475
 H297 H 0.19073 0.86495 -0.38703
 H298 H 0.22102 0.83464 -0.45194
 H299 H 0.19989 0.72375 -0.38005
 H300 H 0.16927 0.75370 -0.31582
 H301 H 0.12570 0.92961 -0.16490
 H302 H 0.09478 0.96099 -0.10625
 H303 H 0.05013 0.87152 -0.17463
 H304 H 0.08127 0.83965 -0.23220
 C305 C 0.31782 0.66723 -0.35141
 C306 C 0.31013 0.65185 -0.41359
 C307 C 0.29248 0.66910 -0.44883
 C308 C 0.28260 0.70321 -0.42441
 C309 C 0.28990 0.71755 -0.36038
 C310 C 0.30721 0.69973 -0.32440
 C311 C 0.33704 0.64983 -0.31547
 N312 N 0.33944 0.65372 -0.24648
 N313 N 0.35696 0.63853 -0.21429
 C314 C 0.37291 0.61925 -0.24990
 N315 N 0.37054 0.61549 -0.31893
 N316 N 0.35291 0.63034 -0.35103
 C317 C 0.39243 0.60273 -0.21415
 C318 C 0.41276 0.59735 -0.24894
 C319 C 0.43127 0.58211 -0.21469
 C320 C 0.42960 0.57113 -0.14556
 C321 C 0.40922 0.57619 -0.11100
 C322 C 0.39089 0.59223 -0.14474
 H323 H 0.31759 0.62613 -0.43463
 H324 H 0.28637 0.65512 -0.49469
 H325 H 0.28309 0.74376 -0.33931
 H326 H 0.31282 0.71221 -0.27646
 H327 H 0.41442 0.60537 -0.30239
 H328 H 0.44677 0.57830 -0.24256
 H329 H 0.40751 0.56808 -0.05758
 H330 H 0.37541 0.59591 -0.11676
 C331 C -0.18294 1.16786 -0.34735
 C332 C -0.19095 1.15238 -0.40909
 C333 C -0.20812 1.17056 -0.44511
 C334 C -0.21708 1.20565 -0.42187
 C335 C -0.20962 1.21996 -0.35803
 C336 C -0.19284 1.20124 -0.32128
 C337 C -0.16386 1.15008 -0.31134
 N338 N -0.16116 1.15475 -0.24261
 N339 N -0.14357 1.13979 -0.21052
 C340 C -0.12782 1.11998 -0.24600
 N341 N -0.13049 1.11535 -0.31476
 N342 N -0.14821 1.12999 -0.34675
 C343 C -0.10813 1.10395 -0.21042
 C344 C -0.08797 1.09808 -0.24586
 C345 C -0.06931 1.08324 -0.21180
 C346 C -0.07068 1.07316 -0.14217
 C347 C -0.09087 1.07884 -0.10687
 C348 C -0.10934 1.09449 -0.14046
 H349 H -0.18398 1.12610 -0.42949
 H350 H -0.21429 1.15712 -0.49150
 H351 H -0.21581 1.24687 -0.33796
 H352 H -0.18697 1.21381 -0.27372
 H353 H -0.08656 1.10534 -0.29973
 H354 H -0.05396 1.07891 -0.24020
 H355 H -0.09233 1.07143 -0.05306
 H356 H -0.12468 1.09862 -0.11195
 C357 C 0.67838 0.68735 -0.34450
 C358 C 0.68980 0.66709 -0.39590
 C359 C 0.70646 0.68492 -0.43450
 C360 C 0.71233 0.72343 -0.42220
 C361 C 0.70148 0.74309 -0.36845
 C362 C 0.68443 0.72546 -0.33094
 C363 C 0.66003 0.66889 -0.30604
 N364 N 0.64322 0.69013 -0.27873
 N365 N 0.62634 0.67334 -0.24585
 C366 C 0.62572 0.63467 -0.23841
 N367 N 0.64263 0.61349 -0.26524
 N368 N 0.65938 0.63024 -0.29869
 C369 C 0.60690 0.61587 -0.20273
 C370 C 0.60985 0.57996 -0.17165
 C371 C 0.59202 0.56184 -0.13875
 C372 C 0.57074 0.57880 -0.13764
 C373 C 0.56779 0.61474 -0.16875
 C374 C 0.58577 0.63329 -0.20036
 H375 H 0.68557 0.63759 -0.40719
 H376 H 0.71501 0.66829 -0.47342
 H377 H 0.70541 0.77275 -0.35746
 H378 H 0.67600 0.74164 -0.29118
 H379 H 0.62599 0.56598 -0.17229
 H380 H 0.59485 0.53427 -0.11498
 H381 H 0.55163 0.62865 -0.16830
 H382 H 0.58302 0.66092 -0.22412
 C383 C 0.17914 1.18291 -0.34695
 C384 C 0.18996 1.16311 -0.40015
 C385 C 0.20688 1.18075 -0.43807
 C386 C 0.21358 1.21860 -0.42330
 C387 C 0.20335 1.23765 -0.36773
 C388 C 0.18608 1.22026 -0.33086
 C389 C 0.16051 1.16486 -0.30905
 N390 N 0.14449 1.18666 -0.27881
 N391 N 0.12744 1.17038 -0.24593
 C392 C 0.12584 1.13166 -0.24143
 N393 N 0.14194 1.10988 -0.27130
 N394 N 0.15887 1.12615 -0.30474
 C395 C 0.10691 1.11348 -0.20519
 C396 C 0.10919 1.07663 -0.17725
 C397 C 0.09132 1.05925 -0.14335
 C398 C 0.07061 1.07796 -0.13801
 C399 C 0.06828 1.11477 -0.16619
 C400 C 0.08634 1.13254 -0.19880
 H401 H 0.18506 1.13416 -0.41336
 H402 H 0.21494 1.16453 -0.47850
 H403 H 0.20794 1.26678 -0.35475
 H404 H 0.17816 1.23607 -0.28966
 H405 H 0.12488 1.06134 -0.18106
 H406 H 0.09361 1.03086 -0.12224
 H407 H 0.05254 1.12994 -0.16253
 H408 H 0.08409 1.16092 -0.22009
 C409 C 0.31950 0.32449 -0.35015
 C410 C 0.30569 0.34672 -0.39283
 C411 C 0.28800 0.32978 -0.42862
 C412 C 0.28369 0.29051 -0.42155
 C413 C 0.29706 0.26845 -0.37774
 C414 C 0.31495 0.28520 -0.34280
 C415 C 0.33875 0.34197 -0.31420
 N416 N 0.35591 0.31990 -0.29157
 N417 N 0.37335 0.33558 -0.25969
 C418 C 0.37427 0.37396 -0.24869
 N419 N 0.35707 0.39603 -0.27112
 N420 N 0.33971 0.38038 -0.30347
 C421 C 0.39356 0.39133 -0.21277
 C422 C 0.39162 0.42753 -0.18181
 C423 C 0.40971 0.44371 -0.14699
 C424 C 0.43025 0.42431 -0.14342
 C425 C 0.43230 0.38833 -0.17509
 C426 C 0.41406 0.37184 -0.20888
 H427 H 0.30883 0.37701 -0.39969
 H428 H 0.27782 0.34715 -0.46238
 H429 H 0.29396 0.23805 -0.37199
 H430 H 0.32519 0.26740 -0.30999
 H431 H 0.37603 0.44320 -0.18377
 H432 H 0.40770 0.47164 -0.12349
 H433 H 0.44791 0.37273 -0.17299
 H434 H 0.41609 0.34397 -0.23253
 C435 C -0.18306 0.83270 -0.34868
 C436 C -0.19220 0.85045 -0.40695
 C437 C -0.20987 0.83332 -0.44252
 C438 C -0.21816 0.79744 -0.42197
 C439 C -0.20930 0.78015 -0.36286
 C440 C -0.19206 0.79776 -0.32623
 C441 C -0.16391 0.84999 -0.31224
 N442 N -0.16078 0.84363 -0.24414
 N443 N -0.14323 0.85849 -0.21157
 C444 C -0.12796 0.87987 -0.24599
 N445 N -0.13105 0.88616 -0.31415
 N446 N -0.14874 0.87165 -0.34657
 C447 C -0.10833 0.89584 -0.20997
 C448 C -0.08823 0.90225 -0.24537
 C449 C -0.06960 0.91700 -0.21098
 C450 C -0.07094 0.92651 -0.14104
 C451 C -0.09109 0.92038 -0.10578
 C452 C -0.10952 0.90472 -0.13972
 H453 H -0.18576 0.87767 -0.42477
 H454 H -0.21681 0.84776 -0.48681
 H455 H -0.21539 0.75251 -0.34591
 H456 H -0.18529 0.78342 -0.28155
 H457 H -0.08684 0.89544 -0.29946
 H458 H -0.05429 0.92172 -0.23935
 H459 H -0.09252 0.92739 -0.05175
 H460 H -0.12484 0.90017 -0.11128
 C461 C 0.32115 0.68267 0.34520
 C462 C 0.32474 0.71045 0.39646
 C463 C 0.30681 0.72520 0.43408
 C464 C 0.28501 0.71215 0.42164
 C465 C 0.28127 0.68549 0.36897
 C466 C 0.29915 0.67081 0.33124
 C467 C 0.34020 0.66536 0.30779
 N468 N 0.33670 0.63825 0.25888
 N469 N 0.35380 0.62181 0.22663
 C470 C 0.37517 0.63172 0.24193
 N471 N 0.37868 0.65895 0.29064
 N472 N 0.36156 0.67540 0.32291
 C473 C 0.39420 0.61288 0.20684
 C474 C 0.41632 0.62275 0.22343
 C475 C 0.43425 0.60475 0.19072
 C476 C 0.43049 0.57647 0.14061
 C477 C 0.40837 0.56659 0.12402
 C478 C 0.39045 0.58458 0.15673
 H479 H 0.34143 0.72043 0.40824
 H480 H 0.30996 0.74617 0.47394
 H481 H 0.26454 0.67523 0.35842
 H482 H 0.29574 0.64964 0.29195
 H483 H 0.41983 0.64439 0.26181
 H484 H 0.45106 0.61309 0.20475
 H485 H 0.40484 0.54493 0.08568
 H486 H 0.37364 0.57622 0.14268
 C487 C -0.17733 1.18758 0.34891
 C488 C -0.17369 1.20935 0.40862
 C489 C -0.19169 1.22394 0.44610
 C490 C -0.21386 1.21668 0.42542
 C491 C -0.21735 1.19668 0.36344
 C492 C -0.19936 1.18208 0.32610
 C493 C -0.15839 1.16969 0.31173
 N494 N -0.16211 1.14635 0.25706
 N495 N -0.14521 1.12917 0.22503
 C496 C -0.12383 1.13456 0.24629
 N497 N -0.12009 1.15806 0.30075
 N498 N -0.13700 1.17521 0.33284
 C499 C -0.10505 1.11490 0.21126
 C500 C -0.08285 1.12201 0.23104
 C501 C -0.06516 1.10346 0.19810
 C502 C -0.06924 1.07725 0.14469
 C503 C -0.09145 1.06999 0.12511
 C504 C -0.10913 1.08864 0.15792
 H505 H -0.15692 1.21470 0.42710
 H506 H -0.18825 1.24081 0.49157
 H507 H -0.23409 1.19041 0.34554
 H508 H -0.20280 1.16574 0.28001
 H509 H -0.07909 1.14204 0.27193
 H510 H -0.04827 1.10973 0.21456
 H511 H -0.09521 1.04999 0.08416
 H512 H -0.12601 1.08238 0.14144
 C513 C 0.67850 0.31303 0.34797
 C514 C 0.70062 0.32566 0.33893
 C515 C 0.71801 0.30943 0.37684
 C516 C 0.71364 0.28041 0.42476
 C517 C 0.69167 0.26714 0.43290
 C518 C 0.67426 0.28339 0.39511
 C519 C 0.65993 0.33099 0.30924
 N520 N 0.63850 0.31964 0.31948
 N521 N 0.62176 0.33621 0.28569
 C522 C 0.62572 0.36486 0.24016
 N523 N 0.64717 0.37615 0.22971
 N524 N 0.66391 0.35957 0.26354
 C525 C 0.60699 0.38374 0.20363
 C526 C 0.61101 0.41323 0.15605
 C527 C 0.59324 0.43147 0.12284
 C528 C 0.57106 0.42067 0.13654
 C529 C 0.56709 0.39098 0.18369
 C530 C 0.58482 0.37274 0.21675
 H531 H 0.70451 0.34834 0.30301
 H532 H 0.73487 0.31997 0.36973
 H533 H 0.68801 0.24440 0.46897
 H534 H 0.65746 0.27282 0.40317
 H535 H 0.62788 0.42241 0.14464
 H536 H 0.59691 0.45423 0.08681
 H537 H 0.55023 0.38183 0.19539
 H538 H 0.58109 0.35014 0.25299
 C539 C 0.17766 0.81375 0.35165
 C540 C 0.19990 0.82590 0.34328
 C541 C 0.21713 0.80861 0.38051
 C542 C 0.21245 0.77902 0.42700
 C543 C 0.19033 0.76659 0.43504
 C544 C 0.17310 0.78386 0.39797
 C545 C 0.15930 0.83204 0.31246
 N546 N 0.13784 0.82048 0.32127
 N547 N 0.12129 0.83694 0.28653
 C548 C 0.12544 0.86568 0.24137
 N549 N 0.14692 0.87724 0.23240
 N550 N 0.16350 0.86076 0.26720
 C551 C 0.10686 0.88426 0.20364
 C552 C 0.11095 0.91401 0.15664
 C553 C 0.09324 0.93198 0.12255
 C554 C 0.07106 0.92062 0.13483
 C555 C 0.06704 0.89058 0.18121
 C556 C 0.08470 0.87263 0.21510
 H557 H 0.20403 0.84879 0.30805
 H558 H 0.23412 0.81854 0.37350
 H559 H 0.18641 0.74334 0.46977
 H560 H 0.15621 0.77364 0.40556
 H561 H 0.12781 0.92364 0.14648
 H562 H 0.09694 0.95503 0.08717
 H563 H 0.05019 0.88098 0.19182
 H564 H 0.08090 0.84978 0.25078
   
