data_POSCAR
  _audit_creation_date              2014-09-24
  _audit_creation_method            'ToBaCCo'
  _symmetry_space_group_name_H-M    'P1'
  _symmetry_Int_Tables_number       1
  _symmetry_cell_setting            triclinic
  loop_
  _symmetry_equiv_pos_as_xyz
 x,y,z
_cell_length_a 25.3989
_cell_length_b 25.4054
_cell_length_c 72.5876
_cell_angle_alpha 89.983900
_cell_angle_beta 90.064200
_cell_angle_gamma 119.966600
loop_
  _atom_site_label
  _atom_site_type_symbol
  _atom_site_fract_x
  _atom_site_fract_y
  _atom_site_fract_z
C1 C -0.05416 -0.06646 0.48516
 C2 C -0.01655 -0.03452 0.50004
 C3 C -0.01091 -0.06647 0.51493
 C4 C -0.04204 -0.13043 0.51507
 C5 C -0.08025 -0.16181 0.50005
 C6 C -0.08705 -0.13042 0.48502
 C7 C 0.01703 0.03263 0.50005
 C8 C 0.01119 0.06466 0.51489
 C9 C 0.04236 0.12849 0.51496
 C10 C 0.08068 0.15995 0.50006
 C11 C 0.08753 0.12847 0.48515
 C12 C 0.05488 0.06464 0.48521
 H13 H -0.05826 -0.04091 0.47383
 H14 H 0.01875 -0.04092 0.52626
 H15 H -0.01853 0.03952 0.52622
 H16 H 0.05945 0.03947 0.47388
 H17 H -0.10488 -0.21102 0.50005
 H18 H 0.10527 0.20913 0.50006
 C19 C 1.06689 0.01125 0.15150
 C20 C 1.03501 0.01695 0.16640
 C21 C 1.06712 0.05459 0.18126
 C22 C 1.13093 0.08723 0.18131
 C23 C 1.16236 0.08058 0.16636
 C24 C 1.13090 0.04236 0.15135
 C25 C 0.96786 -0.01657 0.16643
 C26 C 0.93597 -0.05418 0.18133
 C27 C 0.87212 -0.08677 0.18143
 C28 C 0.84050 -0.08009 0.16651
 C29 C 0.87184 -0.04201 0.15156
 C30 C 0.93569 -0.01090 0.15158
 H31 H 1.04127 -0.01843 0.14019
 H32 H 1.04202 0.05903 0.19264
 H33 H 0.96124 -0.05862 0.19267
 H34 H 0.96074 0.01864 0.14021
 H35 H 1.21157 0.10535 0.16646
 H36 H 0.79130 -0.10464 0.16654
 C37 C 0.05294 0.98866 0.84866
 C38 C 0.01514 0.98290 0.83379
 C39 C 0.00947 0.94526 0.81892
 C40 C 0.04072 0.91268 0.81883
 C41 C 0.07900 0.91937 0.83376
 C42 C 0.08591 0.95759 0.84877
 C43 C -0.01851 1.01643 0.83378
 C44 C -0.01279 1.05413 0.81892
 C45 C -0.04401 1.08675 0.81881
 C46 C -0.08230 1.08003 0.83371
 C47 C -0.08924 1.04176 0.84871
 C48 C -0.05631 1.01065 0.84862
 H49 H 0.05711 1.01835 0.85997
 H50 H -0.02021 0.94080 0.80756
 H51 H 0.01689 1.05862 0.80758
 H52 H -0.06050 0.98093 0.85993
 H53 H 0.10350 0.89464 0.83363
 H54 H -0.10676 1.10480 0.83357
 O55 O 0.47378 0.05151 0.01763
 O56 O 0.57573 0.05135 -0.01807
 O57 O 0.47212 0.04903 -0.01828
 O58 O 0.57501 0.04912 0.01784
 O59 O 0.52470 -0.05125 0.01760
 O60 O 0.42209 -0.05135 -0.01799
 O61 O 0.52570 -0.04903 -0.01831
 O62 O 0.42347 -0.04887 0.01792
 Cu63 Cu 0.52919 0.06031 -0.00022
 Cu64 Cu 0.46896 -0.06019 -0.00019
 C65 C 0.43153 0.00164 0.02393
 C66 C 0.56813 0.00143 -0.02434
 C67 C 0.42959 -0.00147 -0.02427
 C68 C 0.56707 -0.00134 0.02386
 O69 O 0.05050 0.47465 0.64886
 O70 O 0.05030 0.57690 0.68447
 O71 O 0.04798 0.47335 0.68477
 O72 O 0.04819 0.57590 0.64856
 O73 O -0.05222 0.52564 0.64873
 O74 O -0.05243 0.42334 0.68442
 O75 O -0.05011 0.52688 0.68465
 O76 O -0.04990 0.42438 0.64851
 Cu77 Cu 0.05931 0.53023 0.66667
 Cu78 Cu -0.06123 0.47004 0.66657
 C79 C 0.00063 0.43235 0.64255
 C80 C 0.00035 0.56932 0.69071
 C81 C -0.00255 0.43090 0.69075
 C82 C -0.00227 0.56794 0.64249
 O83 O 0.47655 0.42353 0.31569
 O84 O 0.57869 0.52574 0.35139
 O85 O 0.47518 0.42448 0.35160
 O86 O 0.57769 0.52709 0.31548
 O87 O 0.52726 0.57710 0.31572
 O88 O 0.42502 0.47475 0.35131
 O89 O 0.52852 0.57601 0.35163
 O90 O 0.42612 0.47354 0.31541
 Cu91 Cu 0.53208 0.47019 0.33354
 Cu92 Cu 0.47169 0.53038 0.33352
 C93 C 0.43421 0.43111 0.30939
 C94 C 0.57104 0.56802 0.35767
 C95 C 0.43264 0.43244 0.35759
 C96 C 0.56962 0.56954 0.30946
 N97 N 0.05704 0.25430 0.54427
 C98 C 0.02013 0.22404 0.55862
 N99 N -0.00941 0.16248 0.55874
 N100 N -0.00231 0.13214 0.54489
 C101 C 0.03466 0.16221 0.53045
 N102 N 0.06413 0.22395 0.53044
 C103 C 0.01335 0.25705 0.57359
 C104 C 0.00912 0.28603 0.58606
 C105 C 0.00626 0.32219 0.60079
 N106 N -0.04796 0.31310 0.60707
 N107 N -0.05003 0.34787 0.62050
 C108 C 0.00209 0.39284 0.62805
 N109 N 0.05620 0.40165 0.62173
 N110 N 0.05825 0.36694 0.60834
 N111 N 0.74662 0.80267 0.21090
 C112 C 0.77706 0.79621 0.22526
 N113 N 0.83863 0.82817 0.22534
 N114 N 0.86882 0.86537 0.21144
 C115 C 0.83857 0.87208 0.19698
 N116 N 0.77681 0.83986 0.19702
 C117 C 0.74422 0.75666 0.24029
 C118 C 0.71540 0.72367 0.25281
 C119 C 0.67943 0.68487 0.26759
 N120 N 0.68864 0.63986 0.27394
 N121 N 0.65401 0.60320 0.28741
 C122 C 0.60905 0.61038 0.29493
 N123 N 0.60012 0.65557 0.28855
 N124 N 0.63469 0.69216 0.27512
 N125 N 0.16967 0.00889 -0.10815
 C126 C 0.20157 -0.02079 -0.10824
 N127 N 0.19483 -0.05778 -0.12257
 N128 N 0.15744 -0.06480 -0.13643
 C129 C 0.12521 -0.03518 -0.13649
 N130 N 0.13227 0.00186 -0.12202
 C131 C 0.24137 -0.01404 -0.09325
 C132 C 0.27458 -0.00984 -0.08076
 C133 C 0.31364 -0.00701 -0.06603
 N134 N 0.35875 0.04718 -0.05972
 N135 N 0.39563 0.04923 -0.04629
 C136 C 0.38857 -0.00289 -0.03877
 N137 N 0.34329 -0.05697 -0.04512
 N138 N 0.30648 -0.05900 -0.05851
 N139 N -0.05771 0.74556 0.54387
 C140 C -0.02076 0.77591 0.55822
 N141 N 0.00901 0.83745 0.55826
 N142 N 0.00210 0.86770 0.54434
 C143 C -0.03491 0.83762 0.52985
 N144 N -0.06460 0.77581 0.52997
 C145 C -0.01416 0.74300 0.57326
 C146 C -0.01009 0.71410 0.58580
 C147 C -0.00740 0.67801 0.60059
 N148 N 0.04674 0.68710 0.60698
 N149 N 0.04865 0.65237 0.62046
 C150 C -0.00355 0.60743 0.62795
 N151 N -0.05759 0.59863 0.62152
 N152 N -0.05948 0.63330 0.60807
 N153 N 0.25675 0.19801 0.21073
 C154 C 0.22647 0.20442 0.22512
 N155 N 0.16490 0.17235 0.22523
 N156 N 0.13457 0.13509 0.21134
 C157 C 0.16466 0.12845 0.19685
 N158 N 0.22642 0.16077 0.19685
 C159 C 0.25945 0.24400 0.24014
 C160 C 0.28836 0.27703 0.25267
 C161 C 0.32439 0.31585 0.26745
 N162 N 0.31517 0.36084 0.27380
 N163 N 0.34981 0.39749 0.28728
 C164 C 0.39480 0.39031 0.29483
 N165 N 0.40374 0.34515 0.28845
 N166 N 0.36915 0.30857 0.27500
 N167 N 0.82706 -0.00953 -0.10825
 C168 C 0.79522 0.02021 -0.10835
 N169 N 0.80196 0.05723 -0.12268
 N170 N 0.83930 0.06421 -0.13652
 C171 C 0.87148 0.03454 -0.13658
 N172 N 0.86442 -0.00253 -0.12210
 C173 C 0.75552 0.01354 -0.09338
 C174 C 0.72241 0.00941 -0.08089
 C175 C 0.68350 0.00668 -0.06615
 N176 N 0.69073 0.05872 -0.05866
 N177 N 0.65409 0.05679 -0.04525
 C178 C 0.60892 0.00275 -0.03887
 N179 N 0.60179 -0.04942 -0.04637
 N180 N 0.63849 -0.04747 -0.05981
 N181 N 0.25482 0.05791 0.12257
 C182 C 0.22440 0.02093 0.10824
 N183 N 0.16284 -0.00880 0.10820
 N184 N 0.13265 -0.00183 0.12211
 C185 C 0.16280 0.03520 0.13658
 N186 N 0.22462 0.06486 0.13646
 C187 C 0.25724 0.01425 0.09320
 C188 C 0.28604 0.01007 0.08067
 C189 C 0.32196 0.00723 0.06588
 N190 N 0.31277 -0.04697 0.05953
 N191 N 0.34733 -0.04903 0.04605
 C192 C 0.39220 0.00308 0.03849
 N193 N 0.40111 0.05717 0.04487
 N194 N 0.36660 0.05921 0.05833
 N195 N 0.80444 0.74559 0.45624
 C196 C 0.79784 0.77594 0.44190
 N197 N 0.82969 0.83749 0.44185
 N198 N 0.86691 0.86772 0.45576
 C199 C 0.87382 0.83764 0.47025
 N200 N 0.84164 0.77583 0.47014
 C201 C 0.75827 0.74304 0.42686
 C202 C 0.72524 0.71414 0.41433
 C203 C 0.68640 0.67806 0.39955
 N204 N 0.64130 0.68715 0.39320
 N205 N 0.60462 0.65244 0.37973
 C206 C 0.61186 0.60750 0.37221
 N207 N 0.65713 0.59868 0.37860
 N208 N 0.69375 0.63335 0.39204
 N209 N -0.05882 0.19757 0.78934
 C210 C -0.02195 0.20404 0.77500
 N211 N 0.00761 0.17200 0.77494
 N212 N 0.00056 0.13472 0.78883
 C213 C -0.03636 0.12801 0.80327
 N214 N -0.06585 0.16031 0.80322
 C215 C -0.01522 0.24364 0.75998
 C216 C -0.01102 0.27669 0.74745
 C217 C -0.00817 0.31553 0.73267
 N218 N 0.04605 0.36054 0.72636
 N219 N 0.04811 0.39722 0.71288
 C220 C -0.00400 0.39006 0.70530
 N221 N -0.05811 0.34487 0.71164
 N222 N -0.06016 0.30826 0.72509
 N223 N 0.74578 -0.05689 0.12225
 C224 C 0.77594 -0.02018 0.10786
 N225 N 0.83752 0.00927 0.10770
 N226 N 0.86797 0.00229 0.12156
 C227 C 0.83799 -0.03446 0.13605
 N228 N 0.77624 -0.06385 0.13610
 C229 C 0.74282 -0.01354 0.09287
 C230 C 0.71377 -0.00941 0.08039
 C231 C 0.67752 -0.00665 0.06565
 N232 N 0.68658 0.04750 0.05931
 N233 N 0.65173 0.04947 0.04587
 C234 C 0.60669 -0.00268 0.03837
 N235 N 0.59791 -0.05673 0.04474
 N236 N 0.63271 -0.05868 0.05815
 N237 N 0.19859 0.25424 0.45586
 C238 C 0.20522 0.22397 0.44151
 N239 N 0.17321 0.16242 0.44137
 N240 N 0.13580 0.13208 0.45521
 C241 C 0.12893 0.16217 0.46967
 N242 N 0.16119 0.22391 0.46969
 C243 C 0.24496 0.25698 0.42653
 C244 C 0.27811 0.28597 0.41406
 C245 C 0.31705 0.32216 0.39934
 N246 N 0.36218 0.31309 0.39302
 N247 N 0.39895 0.34789 0.37960
 C248 C 0.39176 0.39289 0.37209
 N249 N 0.34646 0.40168 0.37843
 N250 N 0.30977 0.36693 0.39182
 N251 N 0.05574 0.80208 0.78935
 C252 C 0.01890 0.79567 0.77497
 N253 N -0.01070 0.82766 0.77489
 N254 N -0.00374 0.86484 0.78880
 C255 C 0.03315 0.87150 0.80328
 N256 N 0.06268 0.83925 0.80324
 C257 C 0.01229 0.75617 0.75993
 C258 C 0.00820 0.72322 0.74739
 C259 C 0.00550 0.68449 0.73260
 N260 N 0.05757 0.69182 0.72511
 N261 N 0.05568 0.65528 0.71166
 C262 C 0.00164 0.61011 0.70524
 N263 N -0.05056 0.60289 0.71274
 N264 N -0.04864 0.63950 0.72621
   
