data_POSCAR
  _audit_creation_date              2014-09-24
  _audit_creation_method            'ToBaCCo'
  _symmetry_space_group_name_H-M    'P1'
  _symmetry_Int_Tables_number       1
  _symmetry_cell_setting            triclinic
  loop_
  _symmetry_equiv_pos_as_xyz
 x,y,z
_cell_length_a 50.0703
_cell_length_b 50.1170
_cell_length_c 14.9071
_cell_angle_alpha 89.713600
_cell_angle_beta 90.306900
_cell_angle_gamma 120.049100
loop_
  _atom_site_label
  _atom_site_type_symbol
  _atom_site_fract_x
  _atom_site_fract_y
  _atom_site_fract_z
C1 C 0.25772 0.52109 0.53636
 C2 C 0.25791 0.52018 0.44464
 C3 C 0.23163 0.51734 0.38995
 C4 C 0.28368 0.52016 0.39556
 C5 C 0.28038 0.51694 0.59057
 C6 C 0.23298 0.52287 0.58622
 C7 C 0.20111 0.49534 0.41154
 C8 C 0.17654 0.49570 0.36847
 C9 C 0.18176 0.51720 0.29965
 C10 C 0.21242 0.53641 0.27029
 C11 C 0.23708 0.53694 0.31640
 C12 C 0.27723 0.49690 0.33285
 C13 C 0.30119 0.49436 0.29435
 C14 C 0.33193 0.51480 0.31888
 C15 C 0.33856 0.53928 0.37702
 C16 C 0.31459 0.54209 0.41460
 C17 C 0.29895 0.53910 0.65433
 C18 C 0.32115 0.53581 0.70268
 C19 C 0.32470 0.51006 0.68880
 C20 C 0.30582 0.48768 0.62609
 C21 C 0.28361 0.49091 0.57800
 C22 C 0.22478 0.54524 0.56486
 C23 C 0.19792 0.54304 0.60032
 C24 C 0.17913 0.51865 0.65817
 C25 C 0.18884 0.49800 0.68559
 C26 C 0.21547 0.50003 0.64973
 H27 H 0.19627 0.47855 0.46410
 H28 H 0.15330 0.47880 0.38849
 H29 H 0.21770 0.55302 0.21681
 H30 H 0.26046 0.55349 0.29676
 H31 H 0.25360 0.47996 0.31642
 H32 H 0.29575 0.47580 0.24771
 H33 H 0.32007 0.56071 0.46103
 H34 H 0.29666 0.55921 0.66520
 H35 H 0.33570 0.55336 0.75057
 H36 H 0.30826 0.46767 0.61464
 H37 H 0.26913 0.47329 0.53020
 H38 H 0.23831 0.56341 0.51725
 H39 H 0.19115 0.55959 0.57992
 H40 H 0.17507 0.47955 0.73221
 H41 H 0.22146 0.48273 0.66793
 H42 H 0.36219 0.55560 0.39530
 C43 C 0.49339 -0.25198 0.53119
 C44 C 0.49715 -0.25120 0.44044
 C45 C 0.50234 -0.27417 0.39333
 C46 C 0.49721 -0.22662 0.38486
 C47 C 0.49470 -0.22532 0.57898
 C48 C 0.49071 -0.27807 0.58648
 C49 C 0.52589 -0.27987 0.42112
 C50 C 0.52880 -0.30347 0.38169
 C51 C 0.50889 -0.32092 0.31192
 C52 C 0.48608 -0.31450 0.28195
 C53 C 0.48290 -0.29119 0.32220
 C54 C 0.52318 -0.20722 0.33309
 C55 C 0.52493 -0.18174 0.28908
 C56 C 0.50064 -0.17555 0.29604
 C57 C 0.47384 -0.19607 0.34299
 C58 C 0.47217 -0.22141 0.38743
 C59 C 0.47043 -0.22950 0.63496
 C60 C 0.47154 -0.20422 0.67832
 C61 C 0.49711 -0.17456 0.66708
 C62 C 0.52128 -0.17040 0.61085
 C63 C 0.52028 -0.19559 0.56815
 C64 C 0.47053 -0.30890 0.56192
 C65 C 0.47132 -0.33303 0.60707
 C66 C 0.49100 -0.32697 0.68131
 C67 C 0.51053 -0.29605 0.70707
 C68 C 0.51030 -0.27196 0.66044
 H69 H 0.54146 -0.26658 0.47490
 H70 H 0.54645 -0.30825 0.40564
 H71 H 0.47061 -0.32777 0.22791
 H72 H 0.46473 -0.28697 0.29963
 H73 H 0.54261 -0.21106 0.33005
 H74 H 0.54559 -0.16629 0.25213
 H75 H 0.45176 -0.23648 0.42594
 H76 H 0.45056 -0.25224 0.64430
 H77 H 0.45270 -0.20781 0.72156
 H78 H 0.54114 -0.14765 0.60121
 H79 H 0.53949 -0.19192 0.52650
 H80 H 0.45479 -0.31424 0.50598
 H81 H 0.45585 -0.35648 0.58560
 H82 H 0.52684 -0.29040 0.76171
 H83 H 0.52630 -0.24843 0.68013
 H84 H 0.45466 -0.19187 0.34741
 C85 C 1.25468 0.74823 0.53923
 C86 C 1.25749 0.74867 0.44788
 C87 C 1.28299 0.77556 0.40075
 C88 C 1.23416 0.72332 0.39085
 C89 C 1.22606 0.72483 0.58519
 C90 C 1.27958 0.77220 0.59617
 C91 C 1.28946 0.80570 0.41898
 C92 C 1.31516 0.83094 0.38112
 C93 C 1.33449 0.82660 0.32209
 C94 C 1.32631 0.79628 0.29795
 C95 C 1.30105 0.77103 0.33786
 C96 C 1.22117 0.73047 0.31752
 C97 C 1.19622 0.70710 0.27121
 C98 C 1.18339 0.67627 0.29879
 C99 C 1.19787 0.66881 0.36727
 C100 C 1.22340 0.69218 0.41220
 C101 C 1.22795 0.70756 0.65656
 C102 C 1.20114 0.68371 0.69491
 C103 C 1.17179 0.67617 0.66140
 C104 C 1.17004 0.69488 0.59351
 C105 C 1.19686 0.71913 0.55654
 C106 C 1.31048 0.77985 0.58545
 C107 C 1.33422 0.80609 0.62658
 C108 C 1.32756 0.82515 0.68017
 C109 C 1.29631 0.81523 0.69831
 C110 C 1.27265 0.78929 0.65609
 H111 H 1.27497 0.80970 0.46418
 H112 H 1.31975 0.85393 0.39723
 H113 H 1.34037 0.79206 0.25159
 H114 H 1.29609 0.74795 0.32151
 H115 H 1.22938 0.75422 0.29869
 H116 H 1.18592 0.71316 0.21651
 H117 H 1.23378 0.68609 0.46655
 H118 H 1.25021 0.71188 0.68066
 H119 H 1.20346 0.67013 0.74791
 H120 H 1.14788 0.69092 0.56958
 H121 H 1.19486 0.73301 0.50392
 H122 H 1.31630 0.76645 0.54126
 H123 H 1.35780 0.81239 0.61162
 H124 H 1.29006 0.82778 0.74457
 H125 H 1.24894 0.78335 0.66729
 H126 H 1.18871 0.64508 0.38814
 C127 C 0.74945 0.50336 0.53781
 C128 C 0.75185 0.50601 0.44667
 C129 C 0.77945 0.51006 0.39810
 C130 C 0.72619 0.50382 0.39123
 C131 C 0.72364 0.50395 0.58482
 C132 C 0.77249 0.50031 0.59395
 C133 C 0.80923 0.53351 0.42214
 C134 C 0.83512 0.53549 0.38065
 C135 C 0.83153 0.51446 0.31335
 C136 C 0.80181 0.49162 0.28751
 C137 C 0.77594 0.48953 0.32925
 C138 C 0.73106 0.52815 0.33398
 C139 C 0.70642 0.52678 0.28555
 C140 C 0.67679 0.50100 0.29368
 C141 C 0.67229 0.47599 0.34720
 C142 C 0.69684 0.47739 0.39566
 C143 C 0.70140 0.47776 0.63046
 C144 C 0.67584 0.47748 0.66893
 C145 C 0.67219 0.50358 0.66354
 C146 C 0.69568 0.53046 0.62239
 C147 C 0.72085 0.53044 0.58211
 C148 C 0.78303 0.48007 0.56979
 C149 C 0.80674 0.47957 0.61807
 C150 C 0.81896 0.49769 0.69545
 C151 C 0.80748 0.51703 0.72156
 C152 C 0.78459 0.51837 0.67122
 H153 H 0.81238 0.54980 0.47433
 H154 H 0.85795 0.55324 0.40126
 H155 H 0.79870 0.47529 0.23543
 H156 H 0.75319 0.47133 0.30967
 H157 H 0.75369 0.54852 0.32903
 H158 H 0.71022 0.54619 0.24413
 H159 H 0.69289 0.45811 0.43785
 H160 H 0.70344 0.45726 0.63423
 H161 H 0.65896 0.45686 0.70357
 H162 H 0.69385 0.55105 0.61736
 H163 H 0.73803 0.55098 0.54786
 H164 H 0.77331 0.46503 0.51241
 H165 H 0.81484 0.46423 0.59658
 H166 H 0.81702 0.53196 0.77933
 H167 H 0.77690 0.53416 0.69137
 H168 H 0.64955 0.45583 0.35344
 C169 C 0.48401 0.24388 0.53879
 C170 C 0.48723 0.24411 0.44789
 C171 C 0.48637 0.26807 0.39107
 C172 C 0.49197 0.22065 0.40155
 C173 C 0.48185 0.21834 0.59533
 C174 C 0.48371 0.26974 0.58596
 C175 C 0.46064 0.27222 0.39229
 C176 C 0.46110 0.29649 0.34452
 C177 C 0.48739 0.31708 0.29570
 C178 C 0.51242 0.31194 0.29047
 C179 C 0.51184 0.28747 0.33757
 C180 C 0.47356 0.20478 0.32734
 C181 C 0.47662 0.18141 0.28669
 C182 C 0.49797 0.17345 0.32011
 C183 C 0.51635 0.18931 0.39434
 C184 C 0.51415 0.21343 0.43261
 C185 C 0.50340 0.22490 0.66418
 C186 C 0.50364 0.20104 0.71224
 C187 C 0.48182 0.16996 0.69411
 C188 C 0.46026 0.16355 0.62454
 C189 C 0.45993 0.18748 0.57689
 C190 C 0.50808 0.30014 0.57579
 C191 C 0.50715 0.32445 0.61820
 C192 C 0.48162 0.31893 0.67114
 C193 C 0.45797 0.28814 0.68430
 C194 C 0.45900 0.26388 0.64204
 H195 H 0.44057 0.25712 0.43199
 H196 H 0.44148 0.30001 0.34839
 H197 H 0.53281 0.32754 0.25269
 H198 H 0.53177 0.28441 0.33529
 H199 H 0.45645 0.21010 0.30193
 H200 H 0.46227 0.16945 0.22935
 H201 H 0.52926 0.22596 0.48803
 H202 H 0.52084 0.24851 0.67839
 H203 H 0.52152 0.20692 0.76218
 H204 H 0.44304 0.14001 0.60860
 H205 H 0.44299 0.18195 0.52419
 H206 H 0.52774 0.30504 0.53439
 H207 H 0.52592 0.34772 0.60683
 H208 H 0.43885 0.28272 0.72872
 H209 H 0.44032 0.24050 0.65232
 H210 H 0.53269 0.18326 0.42185
 C211 C 0.75609 0.24964 0.53313
 C212 C 0.75820 0.24867 0.44206
 C213 C 0.73289 0.22443 0.38750
 C214 C 0.78543 0.27216 0.39236
 C215 C 0.77939 0.27619 0.58740
 C216 C 0.73024 0.22381 0.58238
 C217 C 0.73852 0.20491 0.33355
 C218 C 0.71433 0.18072 0.28669
 C219 C 0.68431 0.17597 0.29267
 C220 C 0.67904 0.19663 0.34229
 C221 C 0.70314 0.22061 0.38981
 C222 C 0.81532 0.27855 0.41529
 C223 C 0.84094 0.30276 0.37350
 C224 C 0.83688 0.32046 0.30757
 C225 C 0.80705 0.31342 0.28245
 C226 C 0.78145 0.28926 0.32417
 C227 C 0.78951 0.30685 0.56178
 C228 C 0.81268 0.33143 0.61023
 C229 C 0.82488 0.32604 0.68904
 C230 C 0.81412 0.29531 0.71576
 C231 C 0.79173 0.27074 0.66546
 C232 C 0.71146 0.22964 0.63902
 C233 C 0.68608 0.20529 0.68152
 C234 C 0.67916 0.17478 0.66790
 C235 C 0.69857 0.16901 0.61404
 C236 C 0.72401 0.19335 0.57187
 H237 H 0.76142 0.20779 0.33028
 H238 H 0.71879 0.16511 0.24812
 H239 H 0.65605 0.19351 0.34646
 H240 H 0.69856 0.23589 0.42962
 H241 H 0.81874 0.26531 0.46707
 H242 H 0.86391 0.30799 0.39323
 H243 H 0.75856 0.28458 0.30556
 H244 H 0.77966 0.31181 0.50370
 H245 H 0.82022 0.35475 0.58795
 H246 H 0.82373 0.29025 0.77438
 H247 H 0.78443 0.24738 0.68669
 H248 H 0.71605 0.25298 0.64862
 H249 H 0.67152 0.21011 0.72393
 H250 H 0.69369 0.14561 0.60352
 H251 H 0.73862 0.18844 0.52998
 H252 H 0.80367 0.32690 0.23133
 O253 O 1.04732 0.57428 0.14892
 O254 O 1.07916 0.56804 0.05227
 C255 C 1.07443 0.58207 0.11778
 O256 O 0.96474 0.43517 0.15501
 O257 O 0.92753 0.44281 0.08895
 C258 C 0.93630 0.42766 0.14053
 O259 O 1.05057 0.48669 0.15146
 O260 O 1.08094 0.52591 0.05457
 C261 C 1.07724 0.50822 0.12272
 O262 O 0.96129 0.53323 0.15877
 O263 O 0.92569 0.48859 0.08898
 C264 C 0.93325 0.51163 0.14279
 Zr265 Zr 1.00306 0.53908 0.10776
 O266 O 1.00584 0.53675 0.24883
 O267 O 1.00329 0.58121 0.11891
 Zr268 Zr 1.00547 0.47295 0.10458
 O269 O 1.00580 0.46991 0.24599
 O270 O 1.01193 0.43439 0.09827
 O271 O 1.03187 0.52061 0.11702
 O272 O 0.97787 0.49207 0.12948
 O273 O 0.95079 0.52725 -0.15203
 O274 O 0.92045 0.48577 -0.06185
 C275 C 0.92407 0.50610 -0.12203
 O276 O 1.04039 0.48194 -0.18670
 O277 O 1.07583 0.52216 -0.10243
 C278 C 1.06864 0.50254 -0.16722
 O279 O 0.95399 0.43302 -0.15574
 O280 O 0.92205 0.44092 -0.06361
 C281 C 0.92679 0.42554 -0.12515
 O282 O 1.03762 0.57037 -0.18196
 O283 O 1.07446 0.56556 -0.10282
 C284 C 1.06614 0.57812 -0.16475
 Zr285 Zr 0.99614 0.53679 -0.11832
 O286 O 0.98926 0.53502 -0.25866
 O287 O 0.99797 0.57990 -0.11428
 Zr288 Zr 0.99836 0.47022 -0.12045
 O289 O 0.99533 0.46605 -0.26198
 O290 O 0.99840 0.42802 -0.11271
 Zr291 Zr 1.04630 0.52884 -0.01787
 Zr292 Zr 0.95490 0.48076 0.00499
 O293 O 0.97011 0.48931 -0.12902
 O294 O 1.02384 0.51758 -0.14357
 O295 O 0.97207 0.52875 0.00158
 O296 O 1.02918 0.48103 -0.01469
 O297 O 1.02621 0.55693 -0.01180
 O298 O 0.97455 0.45209 -0.00127
 H299 H 0.96544 0.48531 0.18515
 H300 H 1.04447 0.47403 -0.01733
 H301 H 0.95461 0.48153 -0.17794
 H302 H 1.03987 0.57959 -0.01501
 H303 H 0.99650 0.41967 0.05557
 H304 H 1.01996 0.43270 -0.10585
 H305 H 0.97888 0.47006 -0.28272
 H306 H 0.99864 0.52336 -0.28347
 H307 H 0.97954 0.57692 -0.08138
 H308 H 1.00236 0.58804 0.05739
 H309 H 1.00615 0.55531 0.27271
 H310 H 1.01030 0.49015 0.26937
 O311 O 0.43443 0.47885 0.16804
 O312 O 0.44078 0.51962 0.08324
 C313 C 0.42732 0.49967 0.14704
 O314 O 0.56942 0.52362 0.14080
 O315 O 0.55910 0.48180 0.05388
 C316 C 0.57468 0.50195 0.11553
 O317 O 0.52881 0.56826 0.15825
 O318 O 0.48633 0.56264 0.08191
 C319 C 0.50843 0.57624 0.14020
 O320 O 0.47281 0.43103 0.15070
 O321 O 0.51258 0.43730 0.06030
 C322 C 0.49278 0.42343 0.12414
 Zr323 Zr 0.46605 0.46763 0.10854
 O324 O 0.46801 0.46568 0.25015
 O325 O 0.42400 0.42498 0.10931
 Zr326 Zr 0.53512 0.53381 0.09841
 O327 O 0.54335 0.53834 0.23808
 O328 O 0.57675 0.57599 0.07841
 O329 O 0.48825 0.51521 0.12588
 O330 O 0.51319 0.48664 0.11652
 O331 O 0.46432 0.42915 -0.16276
 O332 O 0.50729 0.43557 -0.08882
 C333 C 0.48395 0.42032 -0.14234
 O334 O 0.52131 0.56873 -0.17334
 O335 O 0.48323 0.56316 -0.07723
 C336 C 0.50211 0.57687 -0.14285
 O337 O 0.56443 0.52490 -0.17877
 O338 O 0.55582 0.48170 -0.10008
 C339 C 0.57049 0.50313 -0.15968
 O340 O 0.42762 0.47828 -0.16222
 O341 O 0.43738 0.51920 -0.07192
 C342 C 0.42179 0.49931 -0.13396
 Zr343 Zr 0.46139 0.46754 -0.11723
 O344 O 0.46066 0.46638 -0.25918
 O345 O 0.41673 0.42834 -0.11208
 Zr346 Zr 0.53008 0.53356 -0.12622
 O347 O 0.52782 0.53523 -0.26802
 O348 O 0.57187 0.57641 -0.12605
 Zr349 Zr 0.47646 0.52487 -0.00132
 Zr350 Zr 0.51960 0.47602 -0.01524
 O351 O 0.50790 0.48606 -0.14177
 O352 O 0.48248 0.51508 -0.13464
 O353 O 0.47126 0.44788 -0.00755
 O354 O 0.52471 0.55270 -0.01007
 O355 O 0.44606 0.47700 0.00036
 O356 O 0.55091 0.52393 -0.01860
 H357 H 0.52020 0.47945 0.16854
 H358 H 0.53393 0.57539 -0.00969
 H359 H 0.51289 0.47787 -0.19540
 H360 H 0.42365 0.46942 0.00369
 H361 H 0.59284 0.57122 0.05974
 H362 H 0.58796 0.57321 -0.09766
 H363 H 0.52361 0.51519 -0.29247
 H364 H 0.46723 0.48752 -0.28047
 H365 H 0.41672 0.41552 -0.06142
 H366 H 0.40713 0.42858 0.09026
 H367 H 0.47456 0.48650 0.27363
 H368 H 0.52487 0.52130 0.26653
 O369 O 0.52904 -0.04155 0.14468
 O370 O 0.48713 -0.07549 0.06080
 C371 C 0.50777 -0.06923 0.12226
 O372 O 0.48080 0.04478 0.16607
 O373 O 0.52051 0.07895 0.07668
 C374 C 0.50150 0.07260 0.14303
 O375 O 0.44011 -0.04120 0.17092
 O376 O 0.44437 -0.07479 0.07649
 C377 C 0.43285 -0.06883 0.14603
 O378 O 0.57555 0.04468 0.13747
 O379 O 0.56665 0.07895 0.05864
 C380 C 0.58215 0.07240 0.11605
 Zr381 Zr 0.53898 0.00195 0.09235
 O382 O 0.54791 0.00371 0.23146
 O383 O 0.57886 -0.00150 0.06905
 Zr384 Zr 0.47138 0.00189 0.11200
 O385 O 0.47004 0.00244 0.25368
 O386 O 0.42893 0.00128 0.10466
 O387 O 0.49214 -0.02515 0.12011
 O388 O 0.51892 0.02836 0.11912
 O389 O 0.56845 0.04594 -0.17885
 O390 O 0.56166 0.07982 -0.09169
 C391 C 0.57547 0.07357 -0.15457
 O392 O 0.43140 -0.04065 -0.16508
 O393 O 0.43942 -0.07459 -0.08225
 C394 C 0.42430 -0.06845 -0.14184
 O395 O 0.47098 0.04523 -0.15229
 O396 O 0.51499 0.07942 -0.07671
 C397 C 0.49183 0.07301 -0.12980
 O398 O 0.52377 -0.04093 -0.18374
 O399 O 0.48406 -0.07502 -0.09351
 C400 C 0.50356 -0.06867 -0.15823
 Zr401 Zr 0.53295 0.00245 -0.13241
 O402 O 0.52976 0.00543 -0.27345
 O403 O 0.57359 -0.00022 -0.14622
 Zr404 Zr 0.46549 0.00223 -0.11183
 O405 O 0.45918 0.00470 -0.25127
 O406 O 0.42342 0.00069 -0.08396
 Zr407 Zr 0.47933 -0.04382 -0.01013
 Zr408 Zr 0.52539 0.04830 -0.00927
 O409 O 0.51211 0.02912 -0.13833
 O410 O 0.48510 -0.02506 -0.14026
 O411 O 0.55505 0.02996 -0.02112
 O412 O 0.44996 -0.02533 0.00136
 O413 O 0.52732 -0.02465 -0.02110
 O414 O 0.47734 0.02997 0.00197
 H415 H 0.52715 0.04160 0.17264
 H416 H 0.42745 -0.03980 0.00596
 H417 H 0.51741 0.04292 -0.19104
 H418 H 0.53572 -0.03872 -0.02361
 H419 H 0.42213 0.00019 0.16750
 H420 H 0.41511 0.00247 -0.14273
 H421 H 0.47399 0.00014 -0.28116
 H422 H 0.51109 -0.01357 -0.29370
 H423 H 0.58956 0.01588 -0.10744
 H424 H 0.59542 0.01887 0.04809
 H425 H 0.52792 -0.00369 0.26179
 H426 H 0.49088 0.00816 0.27551
 C427 C 1.13302 0.51734 0.31291
 C428 C 1.15782 0.51878 0.26153
 C429 C 1.15698 0.52153 0.16748
 C430 C 1.13089 0.51839 0.12414
 C431 C 1.10509 0.51363 0.17284
 C432 C 1.10674 0.51510 0.26793
 C433 C 1.13523 0.52159 0.40733
 C434 C 1.11169 0.52181 0.45604
 C435 C 1.08599 0.51918 0.41204
 C436 C 1.08372 0.51644 0.31903
 H437 H 1.15565 0.52615 0.44442
 H438 H 1.11385 0.52502 0.52803
 H439 H 1.06815 0.52023 0.44989
 H440 H 1.06447 0.51684 0.28772
 H441 H 1.17546 0.52329 0.12576
 H442 H 1.13044 0.51856 0.05143
 C443 C 0.53740 0.65845 0.22167
 C444 C 0.51123 0.65355 0.27123
 C445 C 0.48574 0.62377 0.27879
 C446 C 0.48560 0.59893 0.23745
 C447 C 0.51096 0.60308 0.18758
 C448 C 0.53730 0.63295 0.17956
 C449 C 0.56295 0.68833 0.20880
 C450 C 0.58800 0.69291 0.15704
 C451 C 0.58793 0.66802 0.11600
 C452 C 0.56282 0.63837 0.12638
 H453 H 0.56367 0.70849 0.23712
 H454 H 0.60739 0.71594 0.14779
 H455 H 0.60727 0.67176 0.07489
 H456 H 0.56344 0.62001 0.09083
 H457 H 0.46559 0.61981 0.31634
 H458 H 0.46546 0.57623 0.24418
 C459 C 0.38296 -0.12261 0.33697
 C460 C 0.36077 -0.14788 0.28465
 C461 C 0.36489 -0.14731 0.19146
 C462 C 0.38839 -0.12160 0.14908
 C463 C 0.40934 -0.09560 0.19795
 C464 C 0.40755 -0.09640 0.29323
 C465 C 0.38280 -0.12384 0.43197
 C466 C 0.40528 -0.09958 0.48238
 C467 C 0.42900 -0.07406 0.43975
 C468 C 0.43050 -0.07261 0.34640
 H469 H 0.36603 -0.14389 0.46858
 H470 H 0.40469 -0.10093 0.55495
 H471 H 0.44682 -0.05560 0.47927
 H472 H 0.45045 -0.05322 0.31718
 H473 H 0.34863 -0.16625 0.14987
 H474 H 0.38968 -0.12176 0.07653
 C475 C 0.87888 0.54046 0.21407
 C476 C 0.85875 0.51579 0.27072
 C477 C 0.86355 0.49079 0.28389
 C478 C 0.88789 0.48990 0.24223
 C479 C 0.90834 0.51411 0.18699
 C480 C 0.90394 0.53965 0.17191
 C481 C 0.87387 0.56527 0.19523
 C482 C 0.89323 0.58883 0.13688
 C483 C 0.91760 0.58798 0.09534
 C484 C 0.92288 0.56362 0.11199
 H485 H 0.85477 0.56650 0.22416
 H486 H 0.88907 0.60767 0.12300
 H487 H 0.93230 0.60613 0.04913
 H488 H 0.94148 0.56350 0.07592
 H489 H 0.84811 0.47167 0.32636
 H490 H 0.89085 0.47018 0.25333
 C491 C 0.49089 0.36908 0.30895
 C492 C 0.48962 0.34517 0.25535
 C493 C 0.49143 0.34840 0.16182
 C494 C 0.49312 0.37423 0.12057
 C495 C 0.49339 0.39774 0.17168
 C496 C 0.49346 0.39586 0.26689
 C497 C 0.49038 0.36729 0.40370
 C498 C 0.49218 0.39117 0.45557
 C499 C 0.49607 0.41787 0.41476
 C500 C 0.49706 0.42043 0.32152
 H501 H 0.48881 0.34765 0.43892
 H502 H 0.49091 0.38902 0.52783
 H503 H 0.49853 0.43680 0.45555
 H504 H 0.50132 0.44203 0.29318
 H505 H 0.49091 0.33045 0.12034
 H506 H 0.49353 0.37556 0.04796
 C507 C 0.63391 0.12544 0.30318
 C508 C 0.65814 0.14851 0.25099
 C509 C 0.65720 0.14579 0.15733
 C510 C 0.63241 0.12099 0.11463
 C511 C 0.60800 0.09810 0.16444
 C512 C 0.60833 0.10040 0.25957
 C513 C 0.63464 0.12659 0.39803
 C514 C 0.61006 0.10450 0.44839
 C515 C 0.58434 0.08100 0.40574
 C516 C 0.58342 0.07885 0.31249
 H517 H 0.65418 0.14434 0.43434
 H518 H 0.61090 0.10565 0.52086
 H519 H 0.56508 0.06419 0.44513
 H520 H 0.56288 0.06031 0.28294
 H521 H 0.67562 0.16328 0.11689
 H522 H 0.63228 0.11962 0.04209
 C523 C 0.48575 0.14624 -0.16242
 C524 C 0.48227 0.14577 -0.25748
 C525 C 0.47981 0.12048 -0.30518
 C526 C 0.48313 0.09755 -0.26232
 C527 C 0.48890 0.09869 -0.16999
 C528 C 0.48946 0.12280 -0.11884
 C529 C 0.48285 0.16789 -0.10869
 C530 C 0.48573 0.16791 -0.01591
 C531 C 0.49027 0.14572 0.02577
 C532 C 0.49161 0.12311 -0.02458
 H533 H 0.47719 0.18434 -0.13698
 H534 H 0.48366 0.18477 0.02405
 H535 H 0.49172 0.14552 0.09770
 H536 H 0.49319 0.10534 0.01124
 H537 H 0.47687 0.11913 -0.37739
 H538 H 0.48188 0.07896 -0.30237
 C539 C 0.61515 0.47879 -0.31616
 C540 C 0.64591 0.50311 -0.29960
 C541 C 0.65029 0.52766 -0.24420
 C542 C 0.62562 0.52722 -0.19989
 C543 C 0.59556 0.50258 -0.21040
 C544 C 0.58995 0.47867 -0.27120
 C545 C 0.60851 0.45612 -0.38249
 C546 C 0.57824 0.43351 -0.40142
 C547 C 0.55392 0.43324 -0.35633
 C548 C 0.55957 0.45556 -0.29215
 H549 H 0.62636 0.45637 -0.42351
 H550 H 0.57358 0.41648 -0.45269
 H551 H 0.53049 0.41590 -0.37192
 H552 H 0.53986 0.45494 -0.26093
 H553 H 0.67327 0.54675 -0.23117
 H554 H 0.63013 0.54608 -0.15543
 C555 C 0.84700 0.35322 -0.16655
 C556 C 0.84817 0.35090 -0.26145
 C557 C 0.87410 0.37363 -0.30747
 C558 C 0.89928 0.39683 -0.26153
 C559 C 0.89941 0.39892 -0.16779
 C560 C 0.87293 0.37692 -0.11947
 C561 C 0.81982 0.33372 -0.11779
 C562 C 0.81890 0.33591 -0.02494
 C563 C 0.84478 0.35764 0.02124
 C564 C 0.87148 0.37779 -0.02528
 H565 H 0.79873 0.31715 -0.15085
 H566 H 0.79797 0.32074 0.01131
 H567 H 0.84399 0.35919 0.09339
 H568 H 0.89090 0.39389 0.01339
 H569 H 0.87562 0.37268 -0.37979
 H570 H 0.91887 0.41359 -0.30010
 C571 C 0.52274 -0.13116 -0.22003
 C572 C 0.49921 -0.14785 -0.28420
 C573 C 0.47793 -0.13831 -0.30488
 C574 C 0.48003 -0.11225 -0.26461
 C575 C 0.50354 -0.09491 -0.20288
 C576 C 0.52528 -0.10417 -0.18037
 C577 C 0.54342 -0.14112 -0.19285
 C578 C 0.56658 -0.12443 -0.13017
 C579 C 0.56960 -0.09761 -0.09336
 C580 C 0.54925 -0.08750 -0.11811
 H581 H 0.54168 -0.16207 -0.21866
 H582 H 0.58226 -0.13234 -0.11007
 H583 H 0.58771 -0.08464 -0.04500
 H584 H 0.55261 -0.06655 -0.08814
 H585 H 0.45983 -0.15088 -0.35371
 H586 H 0.46331 -0.10540 -0.28235
 C587 C 0.34719 0.50184 -0.16756
 C588 C 0.34852 0.50667 -0.26163
 C589 C 0.37271 0.50757 -0.31085
 C590 C 0.39594 0.50466 -0.26830
 C591 C 0.39567 0.50072 -0.17525
 C592 C 0.37086 0.49863 -0.12408
 C593 C 0.32234 0.49916 -0.11609
 C594 C 0.32084 0.49344 -0.02409
 C595 C 0.34368 0.48982 0.01808
 C596 C 0.36839 0.49224 -0.03120
 H597 H 0.30365 0.50096 -0.14645
 H598 H 0.30162 0.49135 0.01446
 H599 H 0.34202 0.48472 0.08913
 H600 H 0.38505 0.48831 0.00368
 H601 H 0.37379 0.51092 -0.38290
 H602 H 0.41463 0.50604 -0.30821
 C603 C 1.12014 0.62831 -0.35456
 C604 C 1.14481 0.65122 -0.30157
 C605 C 1.14250 0.64880 -0.20770
 C606 C 1.11641 0.62560 -0.16615
 C607 C 1.09151 0.60341 -0.21612
 C608 C 1.09328 0.60433 -0.31124
 C609 C 1.12263 0.62691 -0.44886
 C610 C 1.09888 0.60376 -0.49928
 C611 C 1.07255 0.58098 -0.45715
 C612 C 1.06986 0.58093 -0.36414
 H613 H 1.14323 0.64290 -0.48472
 H614 H 1.10120 0.60318 -0.57134
 H615 H 1.05438 0.56282 -0.49659
 H616 H 1.04960 0.56198 -0.33445
 H617 H 1.16075 0.66572 -0.16536
 H618 H 1.11570 0.62495 -0.09344
 C619 C 0.84256 0.49431 -0.16101
 C620 C 0.84309 0.49741 -0.25596
 C621 C 0.86925 0.50182 -0.30295
 C622 C 0.89524 0.50537 -0.25777
 C623 C 0.89594 0.50385 -0.16398
 C624 C 0.86931 0.49821 -0.11479
 C625 C 0.81532 0.48546 -0.11132
 C626 C 0.81506 0.48274 -0.01834
 C627 C 0.84170 0.48854 0.02696
 C628 C 0.86855 0.49639 -0.02053
 H629 H 0.79376 0.47977 -0.14374
 H630 H 0.79408 0.47602 0.01868
 H631 H 0.84139 0.48649 0.09913
 H632 H 0.88865 0.50112 0.01713
 H633 H 0.87024 0.50402 -0.37540
 H634 H 0.91500 0.50907 -0.29686
 C635 C 0.45327 0.34566 -0.28094
 C636 C 0.48059 0.34357 -0.28604
 C637 C 0.50723 0.36591 -0.24174
 C638 C 0.50717 0.38937 -0.19261
 C639 C 0.48058 0.39187 -0.18545
 C640 C 0.45270 0.36854 -0.22541
 C641 C 0.42689 0.32661 -0.33351
 C642 C 0.39951 0.32704 -0.32242
 C643 C 0.39782 0.34639 -0.25920
 C644 C 0.42403 0.36686 -0.21097
 H645 H 0.42720 0.31150 -0.38444
 H646 H 0.37937 0.31190 -0.36197
 H647 H 0.37618 0.34579 -0.24810
 H648 H 0.42111 0.38047 -0.16065
 H649 H 0.52835 0.36492 -0.24288
 H650 H 0.52861 0.40616 -0.16129
 C651 C 0.62119 0.14172 -0.31299
 C652 C 0.65159 0.14887 -0.29009
 C653 C 0.65604 0.13095 -0.22588
 C654 C 0.63103 0.10666 -0.18272
 C655 C 0.60086 0.09965 -0.20232
 C656 C 0.59560 0.11704 -0.26813
 C657 C 0.61560 0.15790 -0.38155
 C658 C 0.58556 0.15024 -0.40439
 C659 C 0.56061 0.12647 -0.35964
 C660 C 0.56545 0.10998 -0.29208
 H661 H 0.63425 0.17610 -0.41940
 H662 H 0.58161 0.16267 -0.45755
 H663 H 0.53738 0.12060 -0.37809
 H664 H 0.54542 0.09152 -0.25972
 H665 H 0.67915 0.13601 -0.20852
 H666 H 0.63524 0.09334 -0.13297
 C667 C 1.12108 0.48617 -0.32186
 C668 C 1.14916 0.51429 -0.30990
 C669 C 1.14923 0.53791 -0.26085
 C670 C 1.12263 0.53350 -0.21879
 C671 C 1.09486 0.50497 -0.22182
 C672 C 1.09393 0.48076 -0.27492
 C673 C 1.11957 0.46332 -0.38022
 C674 C 1.09265 0.43496 -0.38826
 C675 C 1.06687 0.42870 -0.33814
 C676 C 1.06738 0.45112 -0.28197
 H677 H 1.13908 0.46728 -0.42081
 H678 H 1.09192 0.41761 -0.43280
 H679 H 1.04621 0.40630 -0.34303
 H680 H 1.04671 0.44413 -0.24448
 H681 H 1.17038 0.55976 -0.25255
 H682 H 1.12421 0.55272 -0.18140
 C683 C 0.49218 0.64740 -0.17695
 C684 C 0.49191 0.64881 -0.27223
 C685 C 0.49447 0.62631 -0.32154
 C686 C 0.49910 0.60409 -0.27872
 C687 C 0.50111 0.60332 -0.18511
 C688 C 0.49832 0.62563 -0.13354
 C689 C 0.48449 0.66588 -0.12354
 C690 C 0.48574 0.66506 -0.03040
 C691 C 0.49470 0.64600 0.01145
 C692 C 0.50134 0.62678 -0.03930
 H693 H 0.47666 0.68053 -0.15296
 H694 H 0.47987 0.67938 0.00946
 H695 H 0.49594 0.64581 0.08361
 H696 H 0.50906 0.61305 -0.00423
 H697 H 0.49410 0.62656 -0.39422
 H698 H 0.50066 0.58702 -0.31918
 C699 C 0.34962 -0.11968 -0.27491
 C700 C 0.35160 -0.14703 -0.28281
 C701 C 0.37783 -0.14680 -0.24769
 C702 C 0.40049 -0.12140 -0.20173
 C703 C 0.39805 -0.09507 -0.18779
 C704 C 0.37171 -0.09457 -0.22184
 C705 C 0.32716 -0.11592 -0.32240
 C706 C 0.32372 -0.09037 -0.30786
 C707 C 0.34264 -0.06797 -0.24653
 C708 C 0.36639 -0.06997 -0.20380
 H709 H 0.31235 -0.13238 -0.37219
 H710 H 0.30601 -0.08818 -0.34343
 H711 H 0.33920 -0.04870 -0.23296
 H712 H 0.37992 -0.05242 -0.15534
 H713 H 0.38037 -0.16699 -0.25178
 H714 H 0.42016 -0.12257 -0.17604
 C715 C 0.50269 -0.12417 0.30857
 C716 C 0.50351 -0.14725 0.25588
 C717 C 0.50628 -0.14385 0.16255
 C718 C 0.50769 -0.11834 0.12061
 C719 C 0.50650 -0.09544 0.17083
 C720 C 0.50342 -0.09841 0.26543
 C721 C 0.50137 -0.12598 0.40327
 C722 C 0.49925 -0.10377 0.45371
 C723 C 0.49833 -0.07948 0.41120
 C724 C 0.50030 -0.07678 0.31803
 H725 H 0.50215 -0.14437 0.43926
 H726 H 0.49818 -0.10547 0.52611
 H727 H 0.49621 -0.06256 0.45063
 H728 H 0.49898 -0.05785 0.28787
 H729 H 0.50695 -0.16134 0.12174
 H730 H 0.50973 -0.11642 0.04821
 C731 C 0.35742 0.48247 0.29816
 C732 C 0.35698 0.51022 0.28413
 C733 C 0.37971 0.53348 0.23157
 C734 C 0.40207 0.52932 0.18999
 C735 C 0.40252 0.50151 0.19784
 C736 C 0.37941 0.47730 0.25205
 C737 C 0.33629 0.45972 0.35769
 C738 C 0.33525 0.43163 0.36761
 C739 C 0.35497 0.42552 0.31819
 C740 C 0.37665 0.44784 0.26088
 H741 H 0.32051 0.46349 0.39764
 H742 H 0.31878 0.41436 0.41297
 H743 H 0.35352 0.40329 0.32432
 H744 H 0.39024 0.44079 0.22351
 H745 H 0.37974 0.55489 0.22078
 H746 H 0.41896 0.54822 0.14957
 C747 C 1.12740 0.65466 0.25395
 C748 C 1.15439 0.65216 0.25722
 C749 C 1.15439 0.62722 0.21555
 C750 C 1.12845 0.60519 0.16974
 C751 C 1.10186 0.60775 0.16188
 C752 C 1.10166 0.63342 0.20152
 C753 C 1.12537 0.67780 0.30215
 C754 C 1.09981 0.68164 0.29256
 C755 C 1.07601 0.66280 0.23447
 C756 C 1.07692 0.63906 0.18889
 H757 H 1.14336 0.69298 0.34802
 H758 H 1.09874 0.69969 0.32912
 H759 H 1.05668 0.66653 0.22483
 H760 H 1.05851 0.62591 0.14209
 H761 H 1.17477 0.62490 0.21795
 H762 H 1.12914 0.58577 0.14072
 C763 C 0.52936 0.15268 0.24587
 C764 C 0.50083 0.14835 0.27776
 C765 C 0.47422 0.11936 0.26974
 C766 C 0.47520 0.09506 0.22831
 C767 C 0.50299 0.09858 0.19544
 C768 C 0.53071 0.12720 0.20906
 C769 C 0.55654 0.18189 0.24806
 C770 C 0.58484 0.18527 0.22324
 C771 C 0.58660 0.15978 0.19567
 C772 C 0.55988 0.13110 0.18880
 H773 H 0.55630 0.20243 0.26839
 H774 H 0.60555 0.20766 0.22668
 H775 H 0.60874 0.16230 0.17907
 H776 H 0.56239 0.11189 0.17057
 H777 H 0.45228 0.11568 0.29420
 H778 H 0.45378 0.07349 0.21989
 C779 C 0.62652 0.50109 0.30305
 C780 C 0.65005 0.50091 0.25113
 C781 C 0.64780 0.49995 0.15735
 C782 C 0.62271 0.49932 0.11428
 C783 C 0.59916 0.49951 0.16395
 C784 C 0.60037 0.49930 0.25928
 C785 C 0.62864 0.50352 0.39766
 C786 C 0.60480 0.50256 0.44796
 C787 C 0.57826 0.49858 0.40564
 C788 C 0.57596 0.49690 0.31241
 H789 H 0.64877 0.50650 0.43363
 H790 H 0.60681 0.50473 0.52014
 H791 H 0.55947 0.49704 0.44518
 H792 H 0.55478 0.49339 0.28297
 H793 H 0.66572 0.49983 0.11723
 H794 H 0.62199 0.49937 0.04159
 C795 C 0.88308 0.34341 0.20447
 C796 C 0.86373 0.34700 0.26619
 C797 C 0.86882 0.37649 0.28574
 C798 C 0.89275 0.40242 0.24516
 C799 C 0.91227 0.39957 0.18427
 C800 C 0.90758 0.36996 0.16290
 C801 C 0.87778 0.31394 0.18012
 C802 C 0.89624 0.31076 0.11628
 C803 C 0.91998 0.33670 0.07488
 C804 C 0.92558 0.36602 0.09742
 H805 H 0.85915 0.29314 0.20911
 H806 H 0.89186 0.28804 0.09803
 H807 H 0.93393 0.33407 0.02433
 H808 H 0.94354 0.38540 0.06145
 H809 H 0.85393 0.37938 0.33234
 H810 H 0.89604 0.42491 0.26126
   
