data_POSCAR
  _audit_creation_date              2014-09-24
  _audit_creation_method            'ToBaCCo'
  _symmetry_space_group_name_H-M    'P1'
  _symmetry_Int_Tables_number       1
  _symmetry_cell_setting            triclinic
  loop_
  _symmetry_equiv_pos_as_xyz
 x,y,z
_cell_length_a 28.2879
_cell_length_b 28.3028
_cell_length_c 28.3285
_cell_angle_alpha 102.247700
_cell_angle_beta 77.624000
_cell_angle_gamma 76.977300
loop_
  _atom_site_label
  _atom_site_type_symbol
  _atom_site_fract_x
  _atom_site_fract_y
  _atom_site_fract_z
C1 C 0.54631 0.50805 0.00484
 C2 C 0.50754 0.54741 0.00006
 C3 C 0.46082 0.53840 -0.00227
 C4 C 0.45058 0.49250 0.00094
 C5 C 0.48936 0.45358 0.00544
 C6 C 0.53601 0.46202 0.00756
 H7 H 0.56305 0.43317 0.01528
 H8 H 0.43374 0.56584 -0.01137
 C9 C 0.00116 0.55082 0.49507
 C10 C -0.00708 0.51377 0.45769
 C11 C -0.01160 0.46800 0.46724
 C12 C -0.00689 0.45709 0.51235
 C13 C 0.00149 0.49354 0.54964
 C14 C 0.00608 0.53937 0.54027
 H15 H 0.01655 0.56473 0.56767
 H16 H -0.02111 0.44139 0.43993
 C17 C 0.49329 0.00259 0.45067
 C18 C 0.45557 -0.00352 0.48843
 C19 C 0.46511 -0.00681 0.53443
 C20 C 0.51106 -0.00325 0.54477
 C21 C 0.54947 0.00267 0.50634
 C22 C 0.53922 0.00602 0.46027
 H23 H 0.56563 0.01507 0.43244
 H24 H 0.43734 -0.01589 0.56089
 O25 O 0.45043 0.01337 -0.04746
 O26 O 0.47355 0.01849 0.07643
 O27 O 0.47355 0.07792 0.01713
 O28 O 0.45004 -0.04553 0.01181
 O29 O 0.53104 -0.08347 -0.02482
 O30 O 0.55449 0.04015 -0.01992
 O31 O 0.55455 -0.01906 0.03948
 O32 O 0.53140 -0.02441 -0.08441
 Cu33 Cu 0.45378 0.01992 0.01822
 Cu34 Cu 0.55101 -0.02549 -0.02611
 C35 C 0.48700 -0.00605 -0.08698
 C36 C 0.51795 0.00008 0.07898
 C37 C 0.51792 0.08004 -0.00101
 C38 C 0.48654 -0.08546 -0.00697
 O39 O -0.08234 0.52796 1.02419
 O40 O 0.04146 0.55168 1.01753
 O41 O -0.01838 0.55135 0.95917
 O42 O -0.02268 0.52892 1.08304
 O43 O 0.01525 0.44798 1.04660
 O44 O 0.01941 0.47041 0.92254
 O45 O 0.07940 0.47071 0.98125
 O46 O -0.04438 0.44700 0.98794
 Cu47 Cu -0.02431 0.54809 1.02467
 Cu48 Cu 0.02123 0.45090 0.98086
 C49 C -0.08438 0.48345 1.00680
 C50 C 0.08145 0.51519 0.99873
 C51 C 0.00081 0.51469 0.91983
 C52 C -0.00401 0.48473 1.08589
 O53 O 0.02249 -0.07929 0.47023
 O54 O 0.01605 0.04519 0.44756
 O55 O 0.08138 -0.02003 0.47039
 O56 O -0.04270 -0.01376 0.44722
 O57 O -0.07988 0.02247 0.52798
 O58 O 0.04423 0.01702 0.55102
 O59 O -0.02132 0.08194 0.52820
 O60 O -0.01399 -0.04245 0.55101
 Cu61 Cu 0.02304 -0.02074 0.45074
 Cu62 Cu -0.02154 0.02341 0.54766
 C63 C 0.00508 -0.08198 0.51451
 C64 C -0.00331 0.08470 0.48408
 C65 C 0.08387 -0.00198 0.51455
 C66 C -0.08236 0.00505 0.48368
 C67 C -0.40696 0.51544 1.01043
 C68 C -0.36305 0.47646 1.00240
 C69 C -0.31547 0.48616 1.00885
 N70 N -0.27321 0.44698 0.99663
 N71 N -0.22960 0.45497 1.00138
 C72 C -0.22664 0.50250 1.01865
 N73 N -0.26896 0.54168 1.03115
 N74 N -0.31257 0.53368 1.02636
 C75 C -0.17842 0.51208 1.02271
 C76 C -0.13329 0.47346 1.00734
 H77 H -0.36169 0.43750 0.98793
 H78 H -0.17822 0.55078 1.03645
 H79 H -0.40384 0.55334 1.02094
 H80 H -0.13336 0.43482 0.99311
 C81 C 0.40363 0.48456 0.99705
 C82 C 0.35984 0.52305 1.00337
 C83 C 0.31222 0.51290 0.99776
 N84 N 0.27024 0.55201 1.00823
 N85 N 0.22667 0.54377 1.00371
 C86 C 0.22346 0.49606 0.98840
 N87 N 0.26550 0.45691 0.97768
 N88 N 0.30909 0.46515 0.98226
 C89 C 0.17529 0.48634 0.98433
 C90 C 0.13037 0.52508 0.99834
 H91 H 0.35865 0.56227 1.01537
 H92 H 0.17493 0.44755 0.97169
 H93 H 0.40027 0.44656 0.98983
 H94 H 0.13056 0.56382 1.01177
 C95 C 0.00634 -0.40282 0.48645
 C96 C 0.00341 -0.36028 0.52408
 C97 C 0.00867 -0.31275 0.51340
 N98 N -0.00003 -0.27143 0.55209
 N99 N 0.00382 -0.22782 0.54343
 C100 C 0.01670 -0.22391 0.49570
 N101 N 0.02576 -0.26532 0.45695
 N102 N 0.02179 -0.30896 0.46562
 C103 C 0.01989 -0.17561 0.48567
 C104 C 0.00603 -0.13111 0.52427
 H105 H -0.00617 -0.35972 0.56325
 H106 H 0.03158 -0.17475 0.44693
 H107 H 0.01140 -0.39871 0.44877
 H108 H -0.00678 -0.13179 0.56293
 C109 C -0.01344 0.40872 0.52113
 C110 C 0.00162 0.36410 0.48241
 C111 C -0.00500 0.31621 0.49089
 N112 N 0.01079 0.27411 0.45166
 N113 N 0.00554 0.23027 0.45860
 C114 C -0.01578 0.22692 0.50507
 N115 N -0.03171 0.26907 0.54431
 N116 N -0.02648 0.31293 0.53736
 C117 C -0.02050 0.17848 0.51360
 C118 C -0.00357 0.13390 0.47477
 H119 H 0.01997 0.36371 0.44458
 H120 H -0.03617 0.17769 0.55173
 H121 H -0.02945 0.40790 0.55915
 H122 H 0.01213 0.13462 0.43662
 C123 C 0.51917 -0.00895 -0.40874
 C124 C 0.48040 -0.00106 -0.36520
 C125 C 0.49025 -0.00753 -0.31764
 N126 N 0.45100 0.00473 -0.27589
 N127 N 0.45900 -0.00011 -0.23228
 C128 C 0.50659 -0.01753 -0.22878
 N129 N 0.54586 -0.03006 -0.27059
 N130 N 0.53786 -0.02517 -0.31423
 C131 C 0.51608 -0.02179 -0.18053
 C132 C 0.47727 -0.00615 -0.13594
 H133 H 0.44130 0.01342 -0.36413
 H134 H 0.55477 -0.03592 -0.17985
 H135 H 0.55721 -0.01912 -0.40541
 H136 H 0.43864 0.00860 -0.13649
 C137 C 0.48390 0.00870 0.40230
 C138 C 0.52220 -0.00762 0.35719
 C139 C 0.51312 -0.00072 0.30952
 N140 N 0.55212 -0.01705 0.26712
 N141 N 0.54468 -0.01136 0.22354
 C142 C 0.49791 0.01094 0.22073
 N143 N 0.45889 0.02735 0.26317
 N144 N 0.46634 0.02170 0.30678
 C145 C 0.48886 0.01629 0.17259
 C146 C 0.52759 -0.00044 0.12789
 H147 H 0.56019 -0.02690 0.35634
 H148 H 0.45046 0.03243 0.17215
 H149 H 0.44569 0.02574 0.40198
 H150 H 0.56601 -0.01653 0.12831
 C151 C 0.51607 -0.40642 -0.00605
 C152 C 0.47762 -0.36190 0.00279
 C153 C 0.48793 -0.31492 -0.00470
 N154 N 0.44907 -0.27241 0.00754
 N155 N 0.45751 -0.22929 0.00174
 C156 C 0.50517 -0.22706 -0.01665
 N157 N 0.54406 -0.26964 -0.02915
 N158 N 0.53562 -0.31280 -0.02332
 C159 C 0.51512 -0.17930 -0.02181
 C160 C 0.47656 -0.13418 -0.00680
 H161 H 0.43857 -0.35968 0.01854
 H162 H 0.55388 -0.17937 -0.03600
 H163 H 0.55428 -0.40427 -0.01754
 H164 H 0.43786 -0.13407 0.00781
 C165 C 0.48083 0.40513 0.01214
 C166 C 0.51856 0.35930 -0.00814
 C167 C 0.51058 0.31147 -0.00082
 N168 N 0.54932 0.26846 -0.01989
 N169 N 0.54273 0.22470 -0.01399
 C170 C 0.49709 0.22234 0.01122
 N171 N 0.45835 0.26536 0.03033
 N172 N 0.46497 0.30915 0.02451
 C173 C 0.48875 0.17408 0.01670
 C174 C 0.52743 0.12892 -0.00153
 H175 H 0.55514 0.35817 -0.03069
 H176 H 0.45081 0.17396 0.03429
 H177 H 0.44404 0.40550 0.03349
 H178 H 0.56551 0.12904 -0.01859
 C179 C -0.40419 0.00857 0.51453
 C180 C -0.36047 0.00076 0.47601
 C181 C -0.31307 0.00726 0.48603
 N182 N -0.27105 -0.00481 0.44713
 N183 N -0.22751 -0.00007 0.45533
 C184 C -0.22438 0.01705 0.50278
 N185 N -0.26647 0.02943 0.54171
 N186 N -0.31004 0.02463 0.53350
 C187 C -0.17618 0.02104 0.51246
 C188 C -0.13139 0.00557 0.47391
 H189 H -0.35907 -0.01374 0.43708
 H190 H -0.17567 0.03476 0.55102
 H191 H -0.40112 0.01884 0.55244
 H192 H -0.13181 -0.00867 0.43540
 C193 C 0.40726 -0.00970 0.47918
 C194 C 0.36199 0.00693 0.51730
 C195 C 0.31441 -0.00032 0.50857
 N196 N 0.27189 0.01600 0.54746
 N197 N 0.22836 0.00995 0.54033
 C198 C 0.22575 -0.01272 0.49401
 N199 N 0.26830 -0.02913 0.45511
 N200 N 0.31187 -0.02312 0.46225
 C201 C 0.17764 -0.01834 0.48530
 C202 C 0.13289 -0.00166 0.52399
 H203 H 0.36095 0.02660 0.55489
 H204 H 0.17721 -0.03449 0.44718
 H205 H 0.40715 -0.02710 0.44129
 H206 H 0.13332 0.01433 0.56214
 C207 C -0.01435 0.52294 1.40963
 C208 C 0.00426 0.48481 1.36449
 C209 C -0.00328 0.49290 1.31675
 N210 N 0.01480 0.45383 1.27446
 N211 N 0.00872 0.46042 1.23074
 C212 C -0.01570 0.50637 1.22769
 N213 N -0.03386 0.54545 1.27000
 N214 N -0.02784 0.53884 1.31377
 C215 C -0.02134 0.51456 1.17939
 C216 C -0.00333 0.47561 1.13493
 H217 H 0.02578 0.44769 1.36382
 H218 H -0.03874 0.55253 1.17864
 H219 H -0.03451 0.56031 1.40966
 H220 H 0.01374 0.43756 1.13568
 C221 C 0.00831 0.48315 0.59739
 C222 C -0.00734 0.52102 0.64262
 C223 C -0.00028 0.51130 0.68997
 N224 N -0.01620 0.54999 0.73249
 N225 N -0.01045 0.54205 0.77586
 C226 C 0.01150 0.49507 0.77833
 N227 N 0.02753 0.45634 0.73576
 N228 N 0.02181 0.46430 0.69233
 C229 C 0.01688 0.48562 0.82629
 C230 C 0.00020 0.52425 0.87095
 H231 H -0.02631 0.55921 0.64384
 H232 H 0.03294 0.44719 0.82665
 H233 H 0.02495 0.44469 0.59720
 H234 H -0.01585 0.56266 0.87053
   
