data_POSCAR
  _audit_creation_date              2014-09-24
  _audit_creation_method            'ToBaCCo'
  _symmetry_space_group_name_H-M    'P1'
  _symmetry_Int_Tables_number       1
  _symmetry_cell_setting            triclinic
  loop_
  _symmetry_equiv_pos_as_xyz
 x,y,z
_cell_length_a 25.3107
_cell_length_b 23.3218
_cell_length_c 23.3220
_cell_angle_alpha 89.879000
_cell_angle_beta 90.031900
_cell_angle_gamma 89.968100
loop_
  _atom_site_label
  _atom_site_type_symbol
  _atom_site_fract_x
  _atom_site_fract_y
  _atom_site_fract_z
C1 C 0.33000 0.32877 0.22912
 H2 H 0.33188 0.32959 0.27546
 C3 C 0.36448 0.36264 0.19691
 H4 H 0.39269 0.38961 0.21898
 C5 C 0.29117 0.29178 0.14448
 H6 H 0.26315 0.26345 0.12416
 C7 C 0.32493 0.32488 0.11058
 H8 H 0.32195 0.32194 0.06437
 N9 N 0.29385 0.29480 0.20264
 C10 C 0.16904 0.27031 0.32918
 H11 H 0.16706 0.22397 0.33018
 C12 C 0.13482 0.30264 0.36315
 H13 H 0.10668 0.28066 0.39036
 C14 C 0.20791 0.35482 0.29170
 H15 H 0.23584 0.37506 0.26316
 C16 C 0.17441 0.38883 0.32489
 H17 H 0.17750 0.43504 0.32179
 Zn18 Zn 0.24938 0.24952 0.24969
 N19 N 0.20510 0.29667 0.29493
 C20 C 0.29125 0.20757 0.35504
 N21 N 0.29377 0.20418 0.29689
 C22 C 0.32982 0.16998 0.27056
 C23 C 0.36441 0.13630 0.30293
 C24 C 0.32512 0.17467 0.38909
 C25 C 0.16884 0.22912 0.17023
 C26 C 0.13437 0.19697 0.13637
 C27 C 0.17377 0.11057 0.17452
 C28 C 0.20753 0.14440 0.20761
 N29 N 0.20492 0.20257 0.20440
 H30 H 0.26332 0.23610 0.37525
 H31 H 0.33160 0.16888 0.22423
 H32 H 0.39258 0.10917 0.28097
 H33 H 0.32229 0.17793 0.43529
 H34 H 0.16701 0.27546 0.16925
 H35 H 0.10621 0.21911 0.10926
 H36 H 0.17670 0.06435 0.17762
 H37 H 0.23549 0.12402 0.23608
 C38 C 0.13734 0.36280 0.36144
 C39 C 0.36213 0.36112 0.13674
 C40 C 0.13664 0.13680 0.13811
 C41 C 0.36227 0.13826 0.36309
 C42 C 0.83079 0.83060 0.22774
 H43 H 0.83269 0.83164 0.27407
 C44 C 0.86501 0.86463 0.19537
 H45 H 0.89293 0.89181 0.21765
 C46 C 0.79217 0.79294 0.14335
 H47 H 0.76431 0.76430 0.12320
 C48 C 0.82566 0.82615 0.10922
 H49 H 0.82240 0.82271 0.06306
 N50 N 0.79485 0.79625 0.20147
 C51 C 0.67008 0.77139 0.32813
 H52 H 0.66820 0.72505 0.32901
 C53 C 0.63580 0.80354 0.36220
 H54 H 0.60772 0.78141 0.38935
 C55 C 0.70878 0.85609 0.29087
 H56 H 0.73668 0.87647 0.26240
 C57 C 0.67521 0.88993 0.32418
 H58 H 0.67822 0.93615 0.32122
 Zn59 Zn 0.75058 0.75090 0.24877
 N60 N 0.70610 0.79792 0.29396
 C61 C 0.79220 0.70896 0.35422
 N62 N 0.79502 0.70574 0.29608
 C63 C 0.83109 0.67146 0.26988
 C64 C 0.86527 0.63740 0.30237
 C65 C 0.82565 0.67569 0.38839
 C66 C 0.67013 0.72981 0.16936
 C67 C 0.63573 0.69735 0.13573
 C68 C 0.67530 0.61129 0.17447
 C69 C 0.70898 0.64544 0.20732
 N70 N 0.70626 0.70358 0.20371
 H71 H 0.76425 0.73754 0.37434
 H72 H 0.83309 0.67046 0.22355
 H73 H 0.89340 0.61015 0.28051
 H74 H 0.82252 0.67876 0.43458
 H75 H 0.66819 0.77614 0.16808
 H76 H 0.60753 0.71923 0.10846
 H77 H 0.67832 0.56511 0.17789
 H78 H 0.73696 0.62531 0.23595
 C79 C 0.63821 0.86371 0.36068
 C80 C 0.86277 0.86298 0.13504
 C81 C 0.63813 0.63719 0.13788
 C82 C 0.86269 0.63907 0.36252
 C83 C 0.83141 0.32831 0.73043
 H84 H 0.83344 0.32931 0.77675
 C85 C 0.86555 0.36234 0.69795
 H86 H 0.89368 0.38958 0.71981
 C87 C 0.79249 0.29079 0.64607
 H88 H 0.76456 0.26222 0.62595
 C89 C 0.82591 0.32404 0.61192
 H90 H 0.82276 0.32095 0.56573
 N91 N 0.79535 0.29403 0.70421
 C92 C 0.67062 0.26990 0.83096
 H93 H 0.66877 0.22356 0.83226
 C94 C 0.63617 0.30234 0.86455
 H95 H 0.60801 0.28044 0.89180
 C96 C 0.70929 0.35429 0.79299
 H97 H 0.73721 0.37444 0.76436
 C98 C 0.67555 0.38842 0.82580
 H99 H 0.67847 0.43461 0.82235
 Zn100 Zn 0.75099 0.24884 0.75152
 N101 N 0.70667 0.29615 0.79662
 C102 C 0.79284 0.20682 0.85688
 N103 N 0.79537 0.20346 0.79878
 C104 C 0.83126 0.16909 0.77250
 C105 C 0.86561 0.13507 0.80481
 C106 C 0.82645 0.17366 0.89101
 C107 C 0.67041 0.22846 0.67217
 C108 C 0.63605 0.19637 0.63813
 C109 C 0.67550 0.10991 0.67612
 C110 C 0.70914 0.14369 0.70939
 N111 N 0.70648 0.20187 0.70632
 H112 H 0.76502 0.23550 0.87704
 H113 H 0.83304 0.16802 0.72616
 H114 H 0.89340 0.10796 0.78221
 H115 H 0.82309 0.17738 0.93716
 H116 H 0.66854 0.27480 0.67129
 H117 H 0.60793 0.21854 0.61100
 H118 H 0.67849 0.06369 0.67908
 H119 H 0.73708 0.12327 0.73785
 C120 C 0.63843 0.36250 0.86236
 C121 C 0.86295 0.36065 0.63779
 C122 C 0.63844 0.13619 0.63965
 C123 C 0.86366 0.13666 0.86528
 C124 C 0.32989 0.83006 0.72938
 H125 H 0.33167 0.83109 0.77572
 C126 C 0.36445 0.86375 0.69709
 H127 H 0.39261 0.89083 0.71911
 C128 C 0.29130 0.79260 0.64481
 H129 H 0.26337 0.76413 0.62455
 C130 C 0.32515 0.82553 0.61084
 H131 H 0.32231 0.82234 0.56464
 N132 N 0.29384 0.79592 0.70297
 C133 C 0.16891 0.77123 0.82947
 H134 H 0.16709 0.72489 0.83055
 C135 C 0.13439 0.80348 0.86318
 H136 H 0.10624 0.78143 0.89030
 C137 C 0.20755 0.85584 0.79194
 H138 H 0.23551 0.87614 0.76346
 C139 C 0.17376 0.88977 0.82488
 H140 H 0.17666 0.93598 0.82167
 Zn141 Zn 0.24946 0.75062 0.75012
 N142 N 0.20497 0.79768 0.79529
 C143 C 0.29121 0.70827 0.85540
 N144 N 0.29393 0.70533 0.79724
 C145 C 0.33011 0.67136 0.77078
 C146 C 0.36455 0.63738 0.80301
 C147 C 0.32495 0.67506 0.88932
 C148 C 0.16912 0.72975 0.67053
 C149 C 0.13488 0.69735 0.63665
 C150 C 0.17449 0.61123 0.67519
 C151 C 0.20801 0.64530 0.70829
 N152 N 0.20520 0.70345 0.70488
 H153 H 0.26317 0.73658 0.87570
 H154 H 0.33201 0.67060 0.72445
 H155 H 0.39278 0.61041 0.78095
 H156 H 0.32193 0.67792 0.93552
 H157 H 0.16713 0.77608 0.66940
 H158 H 0.10672 0.71928 0.60937
 H159 H 0.17758 0.56503 0.67844
 H160 H 0.23595 0.62512 0.73692
 C161 C 0.13663 0.86365 0.86130
 C162 C 0.36229 0.86188 0.63692
 C163 C 0.13739 0.63719 0.63856
 C164 C 0.36215 0.63881 0.86317
 C165 C -0.00157 0.00041 -0.00048
 C166 C -0.00011 0.49986 0.50016
 C167 C 0.50081 0.00007 0.50017
 C168 C 0.50021 0.49981 -0.00001
 N169 N 0.06500 -0.12637 -0.06746
 C170 C 0.10049 -0.10117 -0.10317
 N171 N 0.10230 -0.04300 -0.10538
 N172 N 0.06998 -0.01139 -0.07334
 C173 C 0.03426 -0.03655 -0.03779
 N174 N 0.03268 -0.09479 -0.03539
 N175 N 0.06611 0.37293 0.43308
 C176 C 0.10153 0.39805 0.39725
 N177 N 0.10355 0.45622 0.39514
 N178 N 0.07143 0.48791 0.42734
 C179 C 0.03574 0.46282 0.46296
 N180 N 0.03399 0.40459 0.46531
 N181 N 0.56702 -0.12653 0.43245
 C182 C 0.60240 -0.10123 0.39668
 N183 N 0.60439 -0.04306 0.39484
 N184 N 0.57229 -0.01153 0.42723
 C185 C 0.53664 -0.03680 0.46279
 N186 N 0.53491 -0.09504 0.46486
 N187 N 0.56690 0.37281 -0.06639
 C188 C 0.60231 0.39786 -0.10228
 N189 N 0.60405 0.45602 -0.10483
 N190 N 0.57172 0.48778 -0.07293
 C191 C 0.53606 0.46276 -0.03720
 N192 N 0.53457 0.40454 -0.03447
 N193 N -0.10537 0.10560 -0.04417
 C194 C -0.10351 0.10388 -0.10245
 N195 N -0.06783 0.06809 -0.12738
 N196 N -0.03565 0.03578 -0.09571
 C197 C -0.03741 0.03786 -0.03751
 N198 N -0.07318 0.07333 -0.01246
 N199 N -0.10374 0.60508 0.45610
 C200 C -0.10160 0.60310 0.39794
 N201 N -0.06616 0.56725 0.37298
 N202 N -0.03412 0.53489 0.40478
 C203 C -0.03597 0.53712 0.46299
 N204 N -0.07170 0.57275 0.48793
 N205 N 0.39687 0.10511 0.45654
 C206 C 0.39853 0.10281 0.39838
 N207 N 0.43398 0.06707 0.37327
 N208 N 0.46640 0.03504 0.40493
 C209 C 0.46497 0.03751 0.46316
 N210 N 0.42929 0.07310 0.48824
 N211 N 0.43367 0.56731 -0.12687
 C212 C 0.39820 0.60298 -0.10167
 N213 N 0.39632 0.60490 -0.04351
 N214 N 0.42859 0.57265 -0.01189
 C215 C 0.46432 0.53715 -0.03704
 N216 N 0.46595 0.53502 -0.09527
 N217 N -0.06762 -0.06721 0.12647
 C218 C -0.10323 -0.10294 0.10149
 N219 N -0.10526 -0.10472 0.04326
 N220 N -0.07316 -0.07244 0.01153
 C221 C -0.03737 -0.03697 0.03657
 N222 N -0.03551 -0.03490 0.09478
 N223 N -0.06597 0.43245 0.62735
 C224 C -0.10138 0.39659 0.60237
 N225 N -0.10354 0.39458 0.54422
 N226 N -0.07155 0.42690 0.51239
 C227 C -0.03586 0.46256 0.53733
 N228 N -0.03398 0.46480 0.59555
 N229 N 0.43398 -0.06697 0.62692
 C230 C 0.39853 -0.10264 0.60173
 N231 N 0.39684 -0.10485 0.54356
 N232 N 0.42925 -0.07283 0.51194
 C233 C 0.46494 -0.03731 0.53710
 N234 N 0.46639 -0.03493 0.59533
 N235 N 0.43365 0.43251 0.12680
 C236 C 0.39821 0.39682 0.10159
 N237 N 0.39639 0.39479 0.04343
 N238 N 0.42868 0.42696 0.01183
 C239 C 0.46436 0.46248 0.03699
 N240 N 0.46595 0.46471 0.09522
 N241 N 0.06503 0.12703 0.06674
 C242 C 0.10054 0.10173 0.10243
 N243 N 0.10239 0.04356 0.10450
 N244 N 0.07008 0.01203 0.07236
 C245 C 0.03433 0.03729 0.03684
 N246 N 0.03271 0.09553 0.03457
 N247 N 0.06604 0.62691 0.56701
 C248 C 0.10154 0.60186 0.60287
 N249 N 0.10361 0.54370 0.60511
 N250 N 0.07148 0.51194 0.57300
 C251 C 0.03570 0.53696 0.53734
 N252 N 0.03390 0.59518 0.53487
 N253 N 0.60446 0.04301 0.60557
 C254 C 0.60253 0.10119 0.60369
 N255 N 0.56715 0.12656 0.56790
 N256 N 0.53498 0.09512 0.53549
 C257 C 0.53666 0.03688 0.53760
 N258 N 0.57230 0.01155 0.57319
 N259 N 0.56667 0.62684 0.06649
 C260 C 0.60210 0.60181 0.10244
 N261 N 0.60395 0.54364 0.10496
 N262 N 0.57169 0.51187 0.07299
 C263 C 0.53601 0.53688 0.03722
 N264 N 0.53441 0.59510 0.03450
   
