data_POSCAR
  _audit_creation_date              2014-09-24
  _audit_creation_method            'ToBaCCo'
  _symmetry_space_group_name_H-M    'P1'
  _symmetry_Int_Tables_number       1
  _symmetry_cell_setting            triclinic
  loop_
  _symmetry_equiv_pos_as_xyz
 x,y,z
_cell_length_a 22.9247
_cell_length_b 22.3967
_cell_length_c 22.4734
_cell_angle_alpha 91.779900
_cell_angle_beta 89.644300
_cell_angle_gamma 90.337300
loop_
  _atom_site_label
  _atom_site_type_symbol
  _atom_site_fract_x
  _atom_site_fract_y
  _atom_site_fract_z
O1 O 0.52825 0.52987 0.06121
 O2 O 0.37799 0.51568 0.00532
 O3 O 0.44626 0.44983 0.06756
 O4 O 0.45988 0.59707 0.00141
 O5 O 0.49292 0.55586 -0.08268
 O6 O 0.48105 0.40875 -0.01588
 O7 O 0.41095 0.47379 -0.07839
 O8 O 0.56085 0.48913 -0.02331
 Cu9 Cu 0.44942 0.52746 0.04215
 Cu10 Cu 0.48920 0.47754 -0.05875
 C11 C 0.57019 0.51188 0.02823
 C12 C 0.36878 0.49195 -0.04594
 C13 C 0.46275 0.40425 0.03730
 C14 C 0.47972 0.60180 -0.05115
 O15 O -0.09473 0.56239 0.48958
 O16 O -0.06621 0.40099 0.47757
 O17 O -0.08502 0.47660 0.56648
 O18 O -0.07207 0.48616 0.40279
 O19 O 0.02216 0.50494 0.41203
 O20 O 0.00901 0.49641 0.57534
 O21 O 0.02817 0.41809 0.48819
 O22 O -0.00055 0.58104 0.49895
 Cu23 Cu -0.08891 0.47989 0.48355
 Cu24 Cu 0.02413 0.50171 0.49457
 C25 C -0.05285 0.59940 0.49549
 C26 C -0.01440 0.38191 0.48056
 C27 C -0.04021 0.48503 0.59879
 C28 C -0.02259 0.49730 0.37960
 O29 O 0.54786 0.00952 0.60030
 O30 O 0.56327 0.07535 0.45319
 O31 O 0.48096 0.07176 0.53376
 O32 O 0.63132 0.01534 0.52212
 O33 O 0.59858 -0.06874 0.48031
 O34 O 0.44772 -0.01225 0.49212
 O35 O 0.52916 -0.00869 0.41244
 O36 O 0.51393 -0.07431 0.55906
 Cu37 Cu 0.55933 0.05140 0.53147
 Cu38 Cu 0.51945 -0.04958 0.48163
 C39 C 0.52752 -0.04311 0.60496
 C40 C 0.54780 0.04444 0.40768
 C41 C 0.43873 0.03943 0.51529
 C42 C 0.64062 -0.03639 0.49944
 C43 C 0.52117 -0.04555 -0.12026
 C44 C 0.50696 -0.10436 -0.10591
 C45 C 0.49391 -0.11967 -0.04723
 C46 C 0.49775 -0.07529 -0.00109
 C47 C 0.50915 -0.01514 -0.01528
 C48 C 0.51953 -0.00006 -0.07517
 C49 C 0.52660 0.06047 -0.08865
 C50 C 0.52609 0.10477 -0.04416
 C51 C 0.51917 0.09057 0.01597
 C52 C 0.51003 0.03012 0.03053
 C53 C 0.49177 -0.08966 0.05914
 C54 C 0.49407 -0.04568 0.10401
 C55 C 0.50159 0.01484 0.09070
 C56 C 0.50240 0.06021 0.13603
 C57 C 0.51093 0.11980 0.12083
 C58 C 0.51926 0.13548 0.06161
 H59 H 0.53105 0.07484 -0.13393
 H60 H 0.53066 0.15037 -0.05797
 H61 H 0.48669 -0.13528 0.07273
 H62 H 0.49030 -0.06022 0.14928
 H63 H 0.50598 -0.13857 -0.14088
 H64 H 0.51087 0.15455 0.15550
 C65 C 0.03042 0.51851 0.86817
 C66 C 0.08730 0.51816 0.89040
 C67 C 0.09887 0.50710 0.95025
 C68 C 0.05192 0.49515 0.98939
 C69 C -0.00622 0.49865 0.96876
 C70 C -0.01716 0.51139 0.90818
 C71 C -0.07510 0.51919 0.89026
 C72 C -0.12135 0.51057 0.92949
 C73 C -0.11168 0.49447 0.98865
 C74 C -0.05352 0.49006 1.00907
 C75 C 0.06164 0.47886 1.04850
 C76 C 0.01540 0.46922 1.08748
 C77 C -0.04257 0.47674 1.06952
 C78 C -0.09015 0.46907 1.10940
 C79 C -0.14704 0.47122 1.08759
 C80 C -0.15865 0.48384 1.02816
 H81 H -0.08553 0.53334 0.84607
 H82 H -0.16482 0.51779 0.91288
 H83 H 0.10519 0.47213 1.06515
 H84 H 0.02587 0.45494 1.13160
 H85 H 0.12320 0.52760 0.86044
 H86 H -0.18304 0.46220 1.11759
 C87 C -0.01625 -0.12439 0.51919
 C88 C -0.07369 -0.10437 0.52821
 C89 C -0.08744 -0.04337 0.53131
 C90 C -0.04193 -0.00038 0.52725
 C91 C 0.01626 -0.01942 0.51667
 C92 C 0.02900 -0.08146 0.51203
 C93 C 0.08682 -0.09889 0.50000
 C94 C 0.13132 -0.05697 0.49486
 C95 C 0.12011 0.00466 0.49992
 C96 C 0.06194 0.02375 0.51085
 C97 C -0.05295 0.06129 0.53332
 C98 C -0.00810 0.10317 0.52996
 C99 C 0.04949 0.08579 0.51699
 C100 C 0.09537 0.12837 0.51161
 C101 C 0.15246 0.10841 0.50197
 C102 C 0.16571 0.04748 0.49568
 H103 H 0.09880 -0.14524 0.49383
 H104 H 0.17480 -0.07408 0.48743
 H105 H -0.09632 0.07841 0.54129
 H106 H -0.01951 0.14940 0.53816
 H107 H -0.10818 -0.13651 0.53573
 H108 H 0.18701 0.14126 0.49744
 C109 C -0.36974 0.51749 1.05032
 C110 C -0.32432 0.49831 1.01763
 C111 C -0.26440 0.50306 1.04007
 C112 C -0.21989 0.48175 1.00728
 H113 H -0.33135 0.47817 0.97372
 H114 H -0.25666 0.52428 1.08332
 H115 H -0.36276 0.53734 1.09432
 H116 H -0.22866 0.46189 0.96363
 C117 C 0.31208 0.48524 0.93265
 C118 C 0.26523 0.50267 0.96431
 C119 C 0.20601 0.49459 0.94044
 C120 C 0.15965 0.51281 0.97229
 H121 H 0.27032 0.52323 1.00834
 H122 H 0.20035 0.47310 0.89697
 H123 H 0.30611 0.46480 0.88869
 H124 H 0.16648 0.53288 1.01622
 C125 C -0.06550 -0.33951 0.49710
 C126 C -0.02508 -0.29662 0.50549
 C127 C -0.04090 -0.23281 0.50337
 C128 C -0.00351 -0.18977 0.52137
 H129 H 0.01992 -0.30832 0.51379
 H130 H -0.08304 -0.22133 0.48561
 H131 H -0.11053 -0.32656 0.49086
 H132 H 0.03800 -0.20339 0.53900
 C133 C -0.00502 0.31693 0.47404
 C134 C 0.04302 0.28970 0.49254
 C135 C 0.04838 0.22407 0.48617
 C136 C 0.08747 0.19424 0.51751
 H137 H 0.07741 0.31549 0.51426
 H138 H 0.01936 0.19977 0.45604
 H139 H -0.04038 0.29012 0.45538
 H140 H 0.11809 0.21929 0.54528
 C141 C 0.51841 -0.06671 -0.33913
 C142 C 0.53397 -0.03710 -0.28919
 C143 C 0.51787 -0.05882 -0.23038
 C144 C 0.54006 -0.03204 -0.18166
 H145 H 0.55746 0.00500 -0.29138
 H146 H 0.48542 -0.09394 -0.22719
 H147 H 0.49689 -0.10981 -0.33636
 H148 H 0.57244 0.00281 -0.18719
 C149 C 0.55138 0.07047 0.34862
 C150 C 0.52093 0.04691 0.30316
 C151 C 0.52646 0.06938 0.24278
 C152 C 0.49321 0.04607 0.19927
 H153 H 0.49200 0.00926 0.31032
 H154 H 0.55996 0.10212 0.23319
 H155 H 0.57860 0.10957 0.34255
 H156 H 0.46051 0.01293 0.21003
 C157 C 0.49004 -0.33882 -0.07519
 C158 C 0.47420 -0.28926 -0.04501
 C159 C 0.49253 -0.22995 -0.06421
 C160 C 0.47350 -0.18110 -0.03472
 H161 H 0.44947 -0.29247 -0.00391
 H162 H 0.52411 -0.22674 -0.10001
 H163 H 0.51382 -0.33569 -0.11684
 H164 H 0.44225 -0.18660 0.00109
 C165 C 0.46093 0.34555 0.06441
 C166 C 0.49509 0.30141 0.04403
 C167 C 0.49156 0.24135 0.06803
 C168 C 0.52791 0.19899 0.04785
 H169 H 0.52551 0.30935 0.00790
 H170 H 0.45676 0.23064 0.09889
 H171 H 0.43229 0.33891 0.10222
 H172 H 0.56180 0.21040 0.01626
 C173 C -0.29927 -0.05932 0.49451
 C174 C -0.25409 -0.03103 0.52054
 C175 C -0.19386 -0.05297 0.51287
 C176 C -0.14938 -0.02562 0.54116
 H177 H -0.26141 0.00937 0.54731
 H178 H -0.18561 -0.09030 0.48217
 H179 H -0.29203 -0.10042 0.46885
 H180 H -0.15882 0.01184 0.57120
 C181 C 0.37886 0.06237 0.52214
 C182 C 0.33264 0.03395 0.49848
 C183 C 0.27295 0.05611 0.50934
 C184 C 0.22710 0.02948 0.48289
 H185 H 0.33872 -0.00661 0.47159
 H186 H 0.26637 0.09301 0.54097
 H187 H 0.37262 0.10357 0.54794
 H188 H 0.23496 -0.00761 0.45189
 C189 C -0.01672 0.50280 1.31453
 C190 C -0.05619 0.47983 1.27653
 C191 C -0.05176 0.48885 1.21180
 C192 C -0.08464 0.45637 1.17372
 H193 H -0.09262 0.45413 1.29339
 H194 H -0.02354 0.52388 1.19567
 H195 H 0.02125 0.52590 1.29749
 H196 H -0.11455 0.42368 1.19162
 C197 C -0.04553 0.48045 0.66408
 C198 C -0.00551 0.50389 0.70131
 C199 C -0.00910 0.49629 0.76636
 C200 C 0.02476 0.52912 0.80333
 H201 H 0.03084 0.52907 0.68355
 H202 H -0.03767 0.46215 0.78364
 H203 H -0.08341 0.45780 0.68189
 H204 H 0.05495 0.56083 0.78424
   
