data_POSCAR
  _audit_creation_date              2014-09-24
  _audit_creation_method            'ToBaCCo'
  _symmetry_space_group_name_H-M    'P1'
  _symmetry_Int_Tables_number       1
  _symmetry_cell_setting            triclinic
  loop_
  _symmetry_equiv_pos_as_xyz
 x,y,z
_cell_length_a 48.8936
_cell_length_b 49.0117
_cell_length_c 49.1452
_cell_angle_alpha 89.977000
_cell_angle_beta 90.000500
_cell_angle_gamma 89.995400
loop_
  _atom_site_label
  _atom_site_type_symbol
  _atom_site_fract_x
  _atom_site_fract_y
  _atom_site_fract_z
N1 N 0.29353 0.23884 0.21748
 N2 N 0.28253 0.26089 0.20695
 C3 C 0.29704 0.26838 0.18488
 C4 C 0.31838 0.25005 0.18134
 C5 C 0.31538 0.23156 0.20251
 H6 H 0.29241 0.28593 0.17240
 H7 H 0.32808 0.21405 0.20682
 Cu8 Cu 0.25040 0.27776 0.22322
 Cu9 Cu 0.27885 0.22122 0.24986
 Cu10 Cu 0.22095 0.25004 0.27859
 N11 N 0.21745 0.29325 0.23922
 N12 N 0.20610 0.28233 0.26086
 C13 C 0.18390 0.29698 0.26778
 C14 C 0.18105 0.31837 0.24951
 C15 C 0.20280 0.31524 0.23163
 H16 H 0.17090 0.29233 0.28493
 H17 H 0.20767 0.32800 0.21438
 N18 N 0.23896 0.21735 0.29357
 N19 N 0.26100 0.20638 0.28264
 C20 C 0.26834 0.18442 0.29741
 C21 C 0.25004 0.18131 0.31875
 C22 C 0.23170 0.20265 0.31557
 H23 H 0.28577 0.17167 0.29291
 H24 H 0.21428 0.20720 0.32829
 H25 H 0.23899 0.23405 0.24400
 H26 H 0.26101 0.25560 0.26640
 N27 N 0.70575 -0.23936 0.21730
 N28 N 0.71689 -0.26129 0.20667
 C29 C 0.70240 -0.26879 0.18459
 C30 C 0.68082 -0.25061 0.18113
 C31 C 0.68377 -0.23221 0.20246
 H32 H 0.70725 -0.28627 0.17212
 H33 H 0.67109 -0.21474 0.20695
 Cu34 Cu 0.74941 -0.27755 0.22282
 Cu35 Cu 0.72063 -0.22147 0.24951
 Cu36 Cu 0.77861 -0.25039 0.27833
 N37 N 0.78184 -0.29384 0.23911
 N38 N 0.79323 -0.28292 0.26072
 C39 C 0.81539 -0.29762 0.26767
 C40 C 0.81823 -0.31911 0.24943
 C41 C 0.79639 -0.31592 0.23157
 H42 H 0.82834 -0.29285 0.28482
 H43 H 0.79143 -0.32855 0.21426
 N44 N 0.76073 -0.21748 0.29311
 N45 N 0.73872 -0.20646 0.28213
 C46 C 0.73147 -0.18441 0.29682
 C47 C 0.74977 -0.18132 0.31816
 C48 C 0.76803 -0.20274 0.31506
 H49 H 0.71407 -0.17163 0.29230
 H50 H 0.78540 -0.20735 0.32782
 H51 H 0.76063 -0.23397 0.24399
 H52 H 0.73860 -0.25577 0.26608
 N53 N 0.70693 0.23905 0.78243
 N54 N 0.71836 0.26069 0.79336
 C55 C 0.70382 0.26822 0.81540
 C56 C 0.68203 0.25032 0.81852
 C57 C 0.68478 0.23208 0.79712
 H58 H 0.70871 0.28550 0.82813
 H59 H 0.67170 0.21496 0.79242
 Cu60 Cu 0.75087 0.27693 0.77717
 Cu61 Cu 0.72146 0.22148 0.74990
 Cu62 Cu 0.77945 0.25038 0.72107
 N63 N 0.78339 0.29316 0.76099
 N64 N 0.79441 0.28263 0.73900
 C65 C 0.81636 0.29755 0.73185
 C66 C 0.81941 0.31882 0.75032
 C67 C 0.79793 0.31524 0.76854
 H68 H 0.82896 0.29316 0.71434
 H69 H 0.79315 0.32766 0.78605
 N70 N 0.76128 0.21772 0.70603
 N71 N 0.73925 0.20674 0.71701
 C72 C 0.73191 0.18475 0.70229
 C73 C 0.75017 0.18163 0.68093
 C74 C 0.76850 0.20300 0.68404
 H75 H 0.71453 0.17196 0.70688
 H76 H 0.78592 0.20750 0.67131
 H77 H 0.76153 0.23362 0.75521
 H78 H 0.73951 0.25593 0.73364
 N79 N 0.29367 -0.23944 0.78265
 N80 N 0.28229 -0.26111 0.79357
 C81 C 0.29694 -0.26868 0.81553
 C82 C 0.31871 -0.25077 0.81862
 C83 C 0.31587 -0.23248 0.79726
 H84 H 0.29204 -0.28594 0.82830
 H85 H 0.32886 -0.21528 0.79261
 Cu86 Cu 0.24934 -0.27721 0.77810
 Cu87 Cu 0.27889 -0.22175 0.75038
 Cu88 Cu 0.22102 -0.25060 0.72161
 N89 N 0.21724 -0.29360 0.76119
 N90 N 0.20624 -0.28299 0.73923
 C91 C 0.18434 -0.29792 0.73196
 C92 C 0.18129 -0.31927 0.75035
 C93 C 0.20274 -0.31576 0.76861
 H94 H 0.17170 -0.29340 0.71452
 H95 H 0.20743 -0.32819 0.78614
 N96 N 0.23895 -0.21779 0.70673
 N97 N 0.26095 -0.20679 0.71770
 C98 C 0.26823 -0.18475 0.70302
 C99 C 0.24994 -0.18161 0.68167
 C100 C 0.23166 -0.20303 0.68477
 H101 H 0.28562 -0.17197 0.70758
 H102 H 0.21427 -0.20759 0.67202
 H103 H 0.23882 -0.23394 0.75588
 H104 H 0.26088 -0.25646 0.73448
 N105 N 0.70662 -0.23915 0.78248
 N106 N 0.71847 -0.26031 0.79386
 C107 C 0.70401 -0.26773 0.81598
 C108 C 0.68188 -0.25022 0.81871
 C109 C 0.68430 -0.23233 0.79697
 H110 H 0.70926 -0.28464 0.82908
 H111 H 0.67094 -0.21551 0.79198
 Cu112 Cu 0.75149 -0.27642 0.77865
 Cu113 Cu 0.72107 -0.22171 0.74995
 Cu114 Cu 0.78144 -0.24785 0.72407
 N115 N 0.78304 -0.29307 0.76103
 N116 N 0.79452 -0.28193 0.73958
 C117 C 0.81620 -0.29704 0.73204
 C118 C 0.81864 -0.31902 0.74976
 C119 C 0.79700 -0.31575 0.76784
 H120 H 0.82929 -0.29201 0.71506
 H121 H 0.79188 -0.32860 0.78495
 N122 N 0.76211 -0.21680 0.70743
 N123 N 0.73908 -0.20689 0.71727
 C124 C 0.73114 -0.18563 0.70183
 C125 C 0.75007 -0.18190 0.68115
 C126 C 0.76938 -0.20218 0.68539
 H127 H 0.71295 -0.17369 0.70551
 H128 H 0.78757 -0.20593 0.67349
 H129 H 0.74140 -0.25561 0.73481
 H130 H 0.76076 -0.23207 0.75765
 N131 N 0.29372 0.23900 0.78222
 N132 N 0.28284 0.26117 0.79262
 C133 C 0.29737 0.26868 0.81465
 C134 C 0.31859 0.25024 0.81830
 C135 C 0.31552 0.23167 0.79723
 H136 H 0.29283 0.28631 0.82703
 H137 H 0.32811 0.21407 0.79303
 Cu138 Cu 0.25076 0.27808 0.77634
 Cu139 Cu 0.27895 0.22127 0.74999
 Cu140 Cu 0.22105 0.25010 0.72126
 N141 N 0.21781 0.29352 0.76036
 N142 N 0.20633 0.28249 0.73885
 C143 C 0.18408 0.29710 0.73198
 C144 C 0.18133 0.31855 0.75017
 C145 C 0.20319 0.31553 0.76793
 H146 H 0.17098 0.29236 0.71493
 H147 H 0.20815 0.32837 0.78509
 N148 N 0.23896 0.21733 0.70642
 N149 N 0.26099 0.20635 0.71735
 C150 C 0.26831 0.18437 0.70263
 C151 C 0.25000 0.18126 0.68132
 C152 C 0.23167 0.20261 0.68446
 H153 H 0.28575 0.17163 0.70714
 H154 H 0.21426 0.20716 0.67173
 H155 H 0.26120 0.25561 0.73327
 H156 H 0.23919 0.23426 0.75587
 N157 N 0.29420 -0.23907 0.21790
 N158 N 0.28319 -0.26113 0.20741
 C159 C 0.29777 -0.26875 0.18544
 C160 C 0.31914 -0.25046 0.18191
 C161 C 0.31612 -0.23189 0.20299
 H162 H 0.29311 -0.28628 0.17297
 H163 H 0.32878 -0.21435 0.20724
 Cu164 Cu 0.25063 -0.27727 0.22343
 Cu165 Cu 0.27933 -0.22114 0.25006
 Cu166 Cu 0.22126 -0.24998 0.27876
 N167 N 0.21813 -0.29342 0.23957
 N168 N 0.20671 -0.28250 0.26117
 C169 C 0.18455 -0.29719 0.26809
 C170 C 0.18178 -0.31859 0.24984
 C171 C 0.20357 -0.31548 0.23201
 H172 H 0.17146 -0.29249 0.28516
 H173 H 0.20844 -0.32820 0.21474
 N174 N 0.23912 -0.21710 0.29352
 N175 N 0.26119 -0.20614 0.28263
 C176 C 0.26846 -0.18415 0.29737
 C177 C 0.25009 -0.18103 0.31864
 C178 C 0.23177 -0.20238 0.31546
 H179 H 0.28593 -0.17143 0.29293
 H180 H 0.21435 -0.20694 0.32816
 H181 H 0.26131 -0.25541 0.26665
 H182 H 0.23936 -0.23364 0.24444
 N183 N 0.70598 0.23876 0.21764
 N184 N 0.71699 0.26083 0.20713
 C185 C 0.70244 0.26840 0.18514
 C186 C 0.68106 0.25013 0.18163
 C187 C 0.68406 0.23159 0.20274
 H188 H 0.70705 0.28599 0.17272
 H189 H 0.67134 0.21408 0.20703
 Cu190 Cu 0.74917 0.27751 0.22335
 Cu191 Cu 0.72074 0.22100 0.24992
 Cu192 Cu 0.77864 0.24984 0.27866
 N193 N 0.78196 0.29316 0.23938
 N194 N 0.79333 0.28225 0.26102
 C195 C 0.81544 0.29698 0.26801
 C196 C 0.81824 0.31837 0.24975
 C197 C 0.79654 0.31520 0.23183
 H198 H 0.82846 0.29236 0.28517
 H199 H 0.79162 0.32797 0.21461
 N200 N 0.76075 0.21703 0.29350
 N201 N 0.73872 0.20605 0.28257
 C202 C 0.73147 0.18401 0.29726
 C203 C 0.74981 0.18088 0.31855
 C204 C 0.76810 0.20226 0.31542
 H205 H 0.71406 0.17124 0.29275
 H206 H 0.78554 0.20680 0.32811
 H207 H 0.73847 0.25548 0.26658
 H208 H 0.76051 0.23388 0.24423
 O209 O 0.27258 0.02643 0.47369
 O210 O 0.27264 -0.02669 0.52672
 O211 O 0.27261 -0.02669 0.47376
 O212 O 0.27261 0.02646 0.52663
 O213 O 0.22750 0.02642 0.52667
 O214 O 0.22750 -0.02667 0.47374
 O215 O 0.22753 -0.02668 0.52675
 O216 O 0.22747 0.02640 0.47368
 Cu217 Cu 0.27713 -0.00012 0.50020
 Cu218 Cu 0.22297 -0.00014 0.50022
 C219 C 0.25001 0.03551 0.46458
 C220 C 0.25009 -0.03579 0.53583
 C221 C 0.25005 -0.03577 0.46467
 C222 C 0.25005 0.03554 0.53572
 O223 O 0.72735 0.02626 0.52654
 O224 O 0.72725 -0.02685 0.47351
 O225 O 0.72738 -0.02691 0.52648
 O226 O 0.72729 0.02628 0.47359
 O227 O 0.77241 0.02622 0.47349
 O228 O 0.77249 -0.02688 0.52647
 O229 O 0.77236 -0.02685 0.47344
 O230 O 0.77246 0.02623 0.52649
 Cu231 Cu 0.72279 -0.00031 0.50005
 Cu232 Cu 0.77695 -0.00033 0.49997
 C233 C 0.74992 0.03536 0.53559
 C234 C 0.74979 -0.03593 0.46436
 C235 C 0.74994 -0.03600 0.53555
 C236 C 0.74984 0.03535 0.46446
 O237 O 0.47338 0.27357 0.02631
 O238 O 0.52663 0.27365 -0.02673
 O239 O 0.47338 0.27355 -0.02670
 O240 O 0.52661 0.27358 0.02627
 O241 O 0.52668 0.22858 0.02620
 O242 O 0.47340 0.22855 -0.02664
 O243 O 0.52666 0.22865 -0.02672
 O244 O 0.47343 0.22857 0.02627
 Cu245 Cu 0.49999 0.27811 -0.00022
 Cu246 Cu 0.50005 0.22407 -0.00022
 C247 C 0.46428 0.25105 0.03538
 C248 C 0.53578 0.25116 -0.03580
 C249 C 0.46425 0.25103 -0.03573
 C250 C 0.53577 0.25107 0.03530
 O251 O 0.52703 0.77139 0.02671
 O252 O 0.47374 0.77143 -0.02625
 O253 O 0.47376 0.77139 0.02666
 O254 O 0.52701 0.77143 -0.02624
 O255 O 0.52700 0.72643 -0.02628
 O256 O 0.47380 0.72639 0.02672
 O257 O 0.47377 0.72643 -0.02627
 O258 O 0.52706 0.72640 0.02672
 Cu259 Cu 0.50039 0.77593 0.00022
 Cu260 Cu 0.50041 0.72190 0.00022
 C261 C 0.53618 0.74890 0.03579
 C262 C 0.46460 0.74893 -0.03533
 C263 C 0.46464 0.74889 0.03575
 C264 C 0.53613 0.74894 -0.03534
 O265 O 0.02611 0.47392 0.27121
 O266 O -0.02720 0.52697 0.27103
 O267 O -0.02712 0.47390 0.27110
 O268 O 0.02607 0.52695 0.27108
 O269 O 0.02611 0.52696 0.22620
 O270 O -0.02706 0.47382 0.22621
 O271 O -0.02715 0.52695 0.22615
 O272 O 0.02615 0.47386 0.22633
 Cu273 Cu -0.00055 0.50045 0.27561
 Cu274 Cu -0.00049 0.50040 0.22172
 C275 C 0.03527 0.46480 0.24879
 C276 C -0.03633 0.53604 0.24857
 C277 C -0.03620 0.46475 0.24866
 C278 C 0.03524 0.53602 0.24865
 O279 O 0.02636 0.52698 0.77358
 O280 O -0.02698 0.47386 0.77350
 O281 O 0.02627 0.47384 0.77350
 O282 O -0.02692 0.52704 0.77346
 O283 O -0.02685 0.52701 0.72858
 O284 O 0.02632 0.47390 0.72862
 O285 O -0.02694 0.47391 0.72862
 O286 O 0.02642 0.52695 0.72870
 Cu287 Cu -0.00033 0.50043 0.77801
 Cu288 Cu -0.00027 0.50045 0.72413
 C289 C 0.03556 0.53604 0.75114
 C290 C -0.03609 0.46477 0.75104
 C291 C 0.03542 0.46477 0.75106
 C292 C -0.03601 0.53613 0.75099
 C293 C 0.38061 0.25062 0.11892
 C294 C 0.38091 0.23080 0.13957
 C295 C 0.36076 0.23059 0.15973
 C296 C 0.33977 0.25023 0.15980
 C297 C 0.33951 0.27007 0.13910
 C298 C 0.35968 0.27026 0.11893
 C299 C 0.40203 0.25078 0.09746
 C300 C 0.41320 0.27549 0.08809
 C301 C 0.43337 0.27560 0.06794
 C302 C 0.44287 0.25098 0.05671
 C303 C 0.43172 0.22627 0.06607
 C304 C 0.41152 0.22618 0.08619
 H305 H 0.36187 0.21504 0.17529
 H306 H 0.32373 0.28550 0.13826
 H307 H 0.44163 0.29498 0.06126
 H308 H 0.43851 0.20696 0.05779
 H309 H 0.35867 0.28561 0.10310
 H310 H 0.40661 0.29477 0.09663
 H311 H 0.39698 0.21562 0.14037
 H312 H 0.40306 0.20683 0.09268
 C313 C 0.61981 0.74905 0.11943
 C314 C 0.61929 0.76861 0.14027
 C315 C 0.63934 0.76876 0.16053
 C316 C 0.66055 0.74925 0.16062
 C317 C 0.66092 0.72962 0.13963
 C318 C 0.64087 0.72957 0.11934
 C319 C 0.59847 0.74899 0.09787
 C320 C 0.58759 0.72429 0.08815
 C321 C 0.56742 0.72425 0.06799
 C322 C 0.55763 0.74891 0.05709
 C323 C 0.56853 0.77361 0.06678
 C324 C 0.58872 0.77364 0.08691
 H325 H 0.63783 0.78421 0.17614
 H326 H 0.67673 0.71425 0.13848
 H327 H 0.55940 0.70487 0.06104
 H328 H 0.56152 0.79296 0.05875
 H329 H 0.64210 0.71446 0.10332
 H330 H 0.59438 0.70497 0.09643
 H331 H 0.60310 0.78366 0.14116
 H332 H 0.59695 0.79299 0.09367
 C333 C 0.61954 0.25100 -0.11928
 C334 C 0.61920 0.23128 -0.14001
 C335 C 0.63940 0.23108 -0.16013
 C336 C 0.66049 0.25062 -0.16008
 C337 C 0.66074 0.27040 -0.13933
 C338 C 0.64052 0.27059 -0.11921
 C339 C 0.59811 0.25108 -0.09782
 C340 C 0.58701 0.27577 -0.08832
 C341 C 0.56681 0.27581 -0.06819
 C342 C 0.55723 0.25115 -0.05710
 C343 C 0.56833 0.22647 -0.06657
 C344 C 0.58855 0.22644 -0.08668
 H345 H 0.63827 0.21557 -0.17571
 H346 H 0.67656 0.28578 -0.13843
 H347 H 0.55862 0.29517 -0.06140
 H348 H 0.56149 0.20712 -0.05839
 H349 H 0.64155 0.28585 -0.10332
 H350 H 0.59366 0.29507 -0.09674
 H351 H 0.60309 0.21615 -0.14089
 H352 H 0.59696 0.20710 -0.09326
 C353 C 0.38088 0.74896 -0.11886
 C354 C 0.38115 0.76873 -0.13956
 C355 C 0.36107 0.76879 -0.15979
 C356 C 0.34015 0.74906 -0.15987
 C357 C 0.33995 0.72926 -0.13913
 C358 C 0.36005 0.72922 -0.11890
 C359 C 0.40227 0.74894 -0.09735
 C360 C 0.41347 0.72428 -0.08789
 C361 C 0.43366 0.72427 -0.06775
 C362 C 0.44314 0.74893 -0.05661
 C363 C 0.43192 0.77359 -0.06603
 C364 C 0.41171 0.77359 -0.08615
 H365 H 0.36213 0.78434 -0.17535
 H366 H 0.32426 0.71375 -0.13832
 H367 H 0.44195 0.70492 -0.06102
 H368 H 0.43869 0.79294 -0.05781
 H369 H 0.35907 0.71390 -0.10304
 H370 H 0.40692 0.70496 -0.09635
 H371 H 0.39715 0.78399 -0.14035
 H372 H 0.40321 0.79291 -0.09269
 C373 C 0.11890 0.38103 0.24906
 C374 C 0.13977 0.38097 0.22941
 C375 C 0.15985 0.36067 0.22950
 C376 C 0.15959 0.33989 0.24927
 C377 C 0.13864 0.33999 0.26890
 C378 C 0.11857 0.36029 0.26878
 C379 C 0.09756 0.40261 0.24898
 C380 C 0.08814 0.41392 0.27354
 C381 C 0.06794 0.43410 0.27348
 C382 C 0.05672 0.44346 0.24886
 C383 C 0.06619 0.43222 0.22429
 C384 C 0.08636 0.41202 0.22436
 H385 H 0.17559 0.36147 0.21408
 H386 H 0.13754 0.32440 0.28442
 H387 H 0.06119 0.44243 0.29275
 H388 H 0.05791 0.43892 0.20498
 H389 H 0.10255 0.35954 0.28398
 H390 H 0.09663 0.40741 0.29282
 H391 H 0.14082 0.39687 0.21414
 H392 H 0.09291 0.40346 0.20513
 C393 C 0.11980 0.61932 0.75087
 C394 C 0.11959 0.64005 0.73115
 C395 C 0.13981 0.66019 0.73093
 C396 C 0.16090 0.66028 0.75052
 C397 C 0.16096 0.63941 0.77031
 C398 C 0.14073 0.61924 0.77044
 C399 C 0.09827 0.59788 0.75098
 C400 C 0.08712 0.58843 0.77561
 C401 C 0.06678 0.56837 0.77568
 C402 C 0.05710 0.55731 0.75112
 C403 C 0.06825 0.56675 0.72649
 C404 C 0.08861 0.58677 0.72642
 H405 H 0.13855 0.67569 0.71535
 H406 H 0.17667 0.63828 0.78574
 H407 H 0.05856 0.56162 0.79501
 H408 H 0.06133 0.55858 0.70721
 H409 H 0.14174 0.60331 0.78567
 H410 H 0.09384 0.59683 0.79486
 H411 H 0.10353 0.64094 0.71601
 H412 H 0.09704 0.59330 0.70712
 C413 C -0.12023 0.61958 0.24868
 C414 C -0.11978 0.64046 0.26822
 C415 C -0.13999 0.66061 0.26848
 C416 C -0.16130 0.66054 0.24912
 C417 C -0.16155 0.63955 0.22948
 C418 C -0.14132 0.61939 0.22930
 C419 C -0.09879 0.59808 0.24859
 C420 C -0.08774 0.58850 0.22397
 C421 C -0.06749 0.56836 0.22395
 C422 C -0.05782 0.55734 0.24855
 C423 C -0.06890 0.56689 0.27316
 C424 C -0.08915 0.58700 0.27318
 H425 H -0.13855 0.67623 0.28392
 H426 H -0.17739 0.63834 0.21419
 H427 H -0.05933 0.56151 0.20464
 H428 H -0.06199 0.55875 0.29246
 H429 H -0.14245 0.60337 0.21417
 H430 H -0.09447 0.59687 0.20471
 H431 H -0.10355 0.64146 0.28317
 H432 H -0.09753 0.59364 0.29246
 C433 C -0.11961 0.38074 0.75072
 C434 C -0.11934 0.36012 0.73090
 C435 C -0.13937 0.33978 0.73074
 C436 C -0.16033 0.33940 0.75047
 C437 C -0.16046 0.36018 0.77033
 C438 C -0.14042 0.38053 0.77041
 C439 C -0.09828 0.40238 0.75082
 C440 C -0.08714 0.41184 0.77546
 C441 C -0.06701 0.43211 0.77554
 C442 C -0.05751 0.44337 0.75098
 C443 C -0.06865 0.43394 0.72636
 C444 C -0.08881 0.41371 0.72628
 H445 H -0.13807 0.32436 0.71509
 H446 H -0.17605 0.36108 0.78588
 H447 H -0.05878 0.43884 0.79486
 H448 H -0.06186 0.44225 0.70709
 H449 H -0.14147 0.39636 0.78573
 H450 H -0.09369 0.40328 0.79469
 H451 H -0.10335 0.35944 0.71567
 H452 H -0.09723 0.40717 0.70698
 C453 C 0.25001 0.11900 0.38100
 C454 C 0.26981 0.11886 0.36029
 C455 C 0.26984 0.13902 0.34016
 C456 C 0.25005 0.15986 0.34020
 C457 C 0.23024 0.15995 0.36098
 C458 C 0.23023 0.13979 0.38110
 C459 C 0.25000 0.09757 0.40241
 C460 C 0.22529 0.08634 0.41183
 C461 C 0.22528 0.06623 0.43200
 C462 C 0.25000 0.05684 0.44321
 C463 C 0.27472 0.06803 0.43379
 C464 C 0.27472 0.08817 0.41364
 H465 H 0.28540 0.13805 0.32456
 H466 H 0.21470 0.17561 0.36192
 H467 H 0.20589 0.05795 0.43873
 H468 H 0.29412 0.06132 0.44206
 H469 H 0.21491 0.14069 0.39698
 H470 H 0.20592 0.09285 0.40333
 H471 H 0.28512 0.10292 0.35941
 H472 H 0.29408 0.09666 0.40711
 C473 C 0.75010 0.11913 0.61887
 C474 C 0.76993 0.13988 0.61871
 C475 C 0.76996 0.16010 0.63878
 C476 C 0.75016 0.16011 0.65955
 C477 C 0.73033 0.13929 0.65967
 C478 C 0.73031 0.11908 0.63960
 C479 C 0.75005 0.09764 0.59752
 C480 C 0.72531 0.08820 0.58638
 C481 C 0.72527 0.06798 0.56632
 C482 C 0.74996 0.05676 0.55688
 C483 C 0.77470 0.06620 0.56799
 C484 C 0.77475 0.08639 0.58808
 H485 H 0.78554 0.17571 0.63779
 H486 H 0.71478 0.13838 0.67527
 H487 H 0.70585 0.06124 0.55812
 H488 H 0.79408 0.05792 0.56125
 H489 H 0.71498 0.10317 0.64054
 H490 H 0.70596 0.09671 0.59292
 H491 H 0.78524 0.14072 0.60282
 H492 H 0.79413 0.09293 0.59650
 C493 C 0.25005 -0.11931 0.61939
 C494 C 0.23022 -0.14006 0.61929
 C495 C 0.23017 -0.16021 0.63944
 C496 C 0.24996 -0.16014 0.66023
 C497 C 0.26979 -0.13933 0.66027
 C498 C 0.26983 -0.11919 0.64012
 C499 C 0.25007 -0.09789 0.59796
 C500 C 0.27479 -0.08848 0.58676
 C501 C 0.27481 -0.06833 0.56662
 C502 C 0.25009 -0.05714 0.55717
 C503 C 0.22537 -0.06655 0.56835
 C504 C 0.22536 -0.08667 0.58852
 H505 H 0.21459 -0.17582 0.63850
 H506 H 0.28533 -0.13837 0.67588
 H507 H 0.29421 -0.06160 0.55836
 H508 H 0.20597 -0.05829 0.56162
 H509 H 0.28515 -0.10327 0.64099
 H510 H 0.29415 -0.09697 0.59330
 H511 H 0.21492 -0.14095 0.60339
 H512 H 0.20599 -0.09319 0.59700
 C513 C 0.74974 -0.11916 0.38054
 C514 C 0.72994 -0.11899 0.35983
 C515 C 0.72995 -0.13908 0.33964
 C516 C 0.74977 -0.15990 0.33963
 C517 C 0.76958 -0.16002 0.36041
 C518 C 0.76956 -0.13992 0.38058
 C519 C 0.74974 -0.09780 0.40202
 C520 C 0.77446 -0.08664 0.41149
 C521 C 0.77447 -0.06660 0.43173
 C522 C 0.74976 -0.05721 0.44295
 C523 C 0.72504 -0.06834 0.43348
 C524 C 0.72503 -0.08840 0.41326
 H525 H 0.71439 -0.13809 0.32405
 H526 H 0.78515 -0.17565 0.36131
 H527 H 0.79388 -0.05838 0.43849
 H528 H 0.70565 -0.06163 0.44176
 H529 H 0.78487 -0.14087 0.39647
 H530 H 0.79382 -0.09313 0.40299
 H531 H 0.71461 -0.10307 0.35899
 H532 H 0.70566 -0.09684 0.40670
 C533 C 0.61965 0.74920 -0.11892
 C534 C 0.61918 0.76886 -0.13971
 C535 C 0.63929 0.76903 -0.15991
 C536 C 0.66042 0.74953 -0.15984
 C537 C 0.66081 0.72982 -0.13901
 C538 C 0.64068 0.72967 -0.11881
 C539 C 0.59830 0.74910 -0.09742
 C540 C 0.58874 0.77374 -0.08629
 C541 C 0.56858 0.77368 -0.06615
 C542 C 0.55753 0.74898 -0.05664
 C543 C 0.56712 0.72433 -0.06772
 C544 C 0.58727 0.72440 -0.08789
 H545 H 0.63810 0.78451 -0.17553
 H546 H 0.67665 0.71447 -0.13810
 H547 H 0.56171 0.79302 -0.05797
 H548 H 0.55897 0.70496 -0.06090
 H549 H 0.64181 0.71446 -0.10287
 H550 H 0.59711 0.79308 -0.09291
 H551 H 0.60303 0.78395 -0.14058
 H552 H 0.59394 0.70510 -0.09630
 C553 C 0.38061 0.25066 -0.11916
 C554 C 0.38091 0.23080 -0.13975
 C555 C 0.36083 0.23065 -0.15997
 C556 C 0.33992 0.25037 -0.16013
 C557 C 0.33966 0.27024 -0.13947
 C558 C 0.35976 0.27037 -0.11925
 C559 C 0.40198 0.25079 -0.09769
 C560 C 0.41325 0.27550 -0.08846
 C561 C 0.43344 0.27559 -0.06833
 C562 C 0.44282 0.25098 -0.05700
 C563 C 0.43154 0.22628 -0.06621
 C564 C 0.41133 0.22619 -0.08630
 H565 H 0.36193 0.21506 -0.17549
 H566 H 0.32393 0.28571 -0.13871
 H567 H 0.44179 0.29496 -0.06175
 H568 H 0.43824 0.20697 -0.05782
 H569 H 0.35875 0.28574 -0.10346
 H570 H 0.40675 0.29476 -0.09710
 H571 H 0.39693 0.21556 -0.14047
 H572 H 0.40277 0.20685 -0.09269
 C573 C 0.38101 0.74915 0.11921
 C574 C 0.36018 0.72942 0.11936
 C575 C 0.34014 0.72954 0.13964
 C576 C 0.34044 0.74939 0.16030
 C577 C 0.36133 0.76913 0.16009
 C578 C 0.38135 0.76900 0.13982
 C579 C 0.40234 0.74904 0.09769
 C580 C 0.41168 0.77366 0.08632
 C581 C 0.43189 0.77360 0.06623
 C582 C 0.44319 0.74892 0.05700
 C583 C 0.43380 0.72429 0.06829
 C584 C 0.41361 0.72435 0.08842
 H585 H 0.32442 0.71405 0.13891
 H586 H 0.36245 0.78472 0.17560
 H587 H 0.43858 0.79292 0.05786
 H588 H 0.44215 0.70492 0.06169
 H589 H 0.39735 0.78426 0.14050
 H590 H 0.40311 0.79299 0.09273
 H591 H 0.35914 0.71407 0.10355
 H592 H 0.40712 0.70508 0.09704
 C593 C 0.61919 0.25072 0.11895
 C594 C 0.64004 0.27042 0.11913
 C595 C 0.66006 0.27024 0.13942
 C596 C 0.65974 0.25034 0.16006
 C597 C 0.63880 0.23065 0.15984
 C598 C 0.61879 0.23085 0.13955
 C599 C 0.59793 0.25086 0.09737
 C600 C 0.58863 0.22626 0.08597
 C601 C 0.56847 0.22634 0.06583
 C602 C 0.55718 0.25103 0.05659
 C603 C 0.56654 0.27565 0.06792
 C604 C 0.58668 0.27556 0.08809
 H605 H 0.67579 0.28572 0.13871
 H606 H 0.63763 0.21506 0.17536
 H607 H 0.56179 0.20702 0.05745
 H608 H 0.55818 0.29502 0.06132
 H609 H 0.60276 0.21561 0.14019
 H610 H 0.59718 0.20692 0.09240
 H611 H 0.64113 0.28580 0.10334
 H612 H 0.59315 0.29483 0.09673
 C613 C -0.11998 0.61955 0.75031
 C614 C -0.11961 0.64036 0.73068
 C615 C -0.13986 0.66047 0.73038
 C616 C -0.16110 0.66043 0.74981
 C617 C -0.16137 0.63941 0.76943
 C618 C -0.14110 0.61930 0.76966
 C619 C -0.09844 0.59816 0.75055
 C620 C -0.08741 0.58873 0.77524
 C621 C -0.06714 0.56861 0.77541
 C622 C -0.05744 0.55748 0.75088
 C623 C -0.06845 0.56693 0.72620
 C624 C -0.08873 0.58702 0.72604
 H625 H -0.13848 0.67606 0.71489
 H626 H -0.17717 0.63819 0.78475
 H627 H -0.05900 0.56186 0.79477
 H628 H -0.06150 0.55872 0.70695
 H629 H -0.14218 0.60332 0.78484
 H630 H -0.09418 0.59719 0.79445
 H631 H -0.10339 0.64136 0.71572
 H632 H -0.09707 0.59357 0.70671
 C633 C -0.11956 0.38087 0.24897
 C634 C -0.14059 0.38092 0.22951
 C635 C -0.16072 0.36069 0.22974
 C636 C -0.16031 0.33987 0.24945
 C637 C -0.13919 0.33984 0.26889
 C638 C -0.11908 0.36008 0.26864
 C639 C -0.09825 0.40244 0.24884
 C640 C -0.08885 0.41375 0.27339
 C641 C -0.06872 0.43396 0.27332
 C642 C -0.05756 0.44337 0.24869
 C643 C -0.06699 0.43210 0.22412
 C644 C -0.08711 0.41186 0.22420
 H645 H -0.17659 0.36160 0.21447
 H646 H -0.13798 0.32421 0.28436
 H647 H -0.06198 0.44228 0.29260
 H648 H -0.05872 0.43882 0.20481
 H649 H -0.10291 0.35926 0.28368
 H650 H -0.09732 0.40720 0.29267
 H651 H -0.14172 0.39686 0.21428
 H652 H -0.09366 0.40328 0.20497
 C653 C 0.11904 0.38103 0.75080
 C654 C 0.11863 0.36025 0.73113
 C655 C 0.13876 0.34001 0.73095
 C656 C 0.15984 0.34003 0.75045
 C657 C 0.16016 0.36084 0.77016
 C658 C 0.14002 0.38107 0.77033
 C659 C 0.09767 0.40258 0.75090
 C660 C 0.08655 0.41202 0.77554
 C661 C 0.06637 0.43222 0.77560
 C662 C 0.05685 0.44342 0.75103
 C663 C 0.06800 0.43400 0.72640
 C664 C 0.08819 0.41383 0.72635
 H665 H 0.13761 0.32439 0.71548
 H666 H 0.17598 0.36172 0.78549
 H667 H 0.05814 0.43897 0.79492
 H668 H 0.06119 0.44229 0.70713
 H669 H 0.14110 0.39701 0.78554
 H670 H 0.09316 0.40350 0.79477
 H671 H 0.10252 0.35942 0.71604
 H672 H 0.09663 0.40729 0.70706
 C673 C 0.11922 0.61927 0.24898
 C674 C 0.11883 0.64007 0.26862
 C675 C 0.13905 0.66018 0.26888
 C676 C 0.16022 0.66003 0.24948
 C677 C 0.16053 0.63921 0.22978
 C678 C 0.14028 0.61909 0.22954
 C679 C 0.09777 0.59785 0.24884
 C680 C 0.08659 0.58851 0.22420
 C681 C 0.06630 0.56843 0.22412
 C682 C 0.05673 0.55727 0.24869
 C683 C 0.06794 0.56658 0.27332
 C684 C 0.08824 0.58662 0.27339
 H685 H 0.13789 0.67583 0.28432
 H686 H 0.17642 0.63824 0.21453
 H687 H 0.05803 0.56175 0.20480
 H688 H 0.06111 0.55831 0.29259
 H689 H 0.14133 0.60314 0.21434
 H690 H 0.09325 0.59701 0.20497
 H691 H 0.10265 0.64100 0.28363
 H692 H 0.09673 0.59310 0.29269
 C693 C 0.74996 -0.11971 0.61884
 C694 C 0.72998 -0.11975 0.63938
 C695 C 0.72997 -0.13992 0.65949
 C696 C 0.74996 -0.16057 0.65961
 C697 C 0.76993 -0.16050 0.63899
 C698 C 0.76993 -0.14032 0.61888
 C699 C 0.74997 -0.09824 0.59748
 C700 C 0.77467 -0.08679 0.58830
 C701 C 0.77467 -0.06661 0.56820
 C702 C 0.74996 -0.05738 0.55684
 C703 C 0.72526 -0.06878 0.56604
 C704 C 0.72527 -0.08899 0.58610
 H705 H 0.71433 -0.13905 0.67501
 H706 H 0.78559 -0.17604 0.63818
 H707 H 0.79405 -0.05816 0.56165
 H708 H 0.70588 -0.06219 0.55764
 H709 H 0.78539 -0.14108 0.60312
 H710 H 0.79402 -0.09317 0.59693
 H711 H 0.71455 -0.10393 0.64016
 H712 H 0.70592 -0.09766 0.59245
 C713 C 0.25009 -0.11902 0.38104
 C714 C 0.23032 -0.13981 0.38111
 C715 C 0.23032 -0.15988 0.36092
 C716 C 0.25009 -0.15967 0.34012
 C717 C 0.26987 -0.13882 0.34011
 C718 C 0.26987 -0.11876 0.36031
 C719 C 0.25008 -0.09769 0.40251
 C720 C 0.27479 -0.08836 0.41378
 C721 C 0.27478 -0.06827 0.43394
 C722 C 0.25006 -0.05708 0.44333
 C723 C 0.22534 -0.06642 0.43210
 C724 C 0.22536 -0.08648 0.41190
 H725 H 0.21479 -0.17555 0.36184
 H726 H 0.28540 -0.13777 0.32449
 H727 H 0.29417 -0.06159 0.44225
 H728 H 0.20595 -0.05814 0.43880
 H729 H 0.28516 -0.10280 0.35947
 H730 H 0.29415 -0.09686 0.40726
 H731 H 0.21504 -0.14080 0.39702
 H732 H 0.20600 -0.09296 0.40336
 C733 C 0.74980 0.11876 0.38091
 C734 C 0.76958 0.13953 0.38098
 C735 C 0.76961 0.15962 0.36080
 C736 C 0.74982 0.15946 0.34001
 C737 C 0.73003 0.13863 0.33998
 C738 C 0.73002 0.11854 0.36017
 C739 C 0.74980 0.09739 0.40236
 C740 C 0.72509 0.08805 0.41363
 C741 C 0.72510 0.06792 0.43377
 C742 C 0.74983 0.05669 0.44314
 C743 C 0.77454 0.06605 0.43190
 C744 C 0.77452 0.08615 0.41172
 H745 H 0.78514 0.17528 0.36172
 H746 H 0.71450 0.13761 0.32437
 H747 H 0.70571 0.06123 0.44209
 H748 H 0.79394 0.05775 0.43858
 H749 H 0.71472 0.10260 0.35933
 H750 H 0.70573 0.09657 0.40713
 H751 H 0.78488 0.14049 0.39689
 H752 H 0.79388 0.09263 0.40318
 C753 C 0.25006 0.11907 0.61908
 C754 C 0.26984 0.11889 0.63981
 C755 C 0.26983 0.13901 0.65995
 C756 C 0.25003 0.15984 0.65988
 C757 C 0.23025 0.15997 0.63909
 C758 C 0.23027 0.13984 0.61896
 C759 C 0.25006 0.09766 0.59769
 C760 C 0.22534 0.08641 0.58834
 C761 C 0.22533 0.06628 0.56821
 C762 C 0.25005 0.05690 0.55701
 C763 C 0.27477 0.06813 0.56635
 C764 C 0.27477 0.08830 0.58645
 H765 H 0.28537 0.13803 0.67556
 H766 H 0.21470 0.17562 0.63814
 H767 H 0.20594 0.05797 0.56153
 H768 H 0.29416 0.06144 0.55806
 H769 H 0.21497 0.14077 0.60305
 H770 H 0.20598 0.09290 0.59685
 H771 H 0.28514 0.10295 0.64069
 H772 H 0.29413 0.09682 0.59294
   
