data_POSCAR
  _audit_creation_date              2014-09-24
  _audit_creation_method            'ToBaCCo'
  _symmetry_space_group_name_H-M    'P1'
  _symmetry_Int_Tables_number       1
  _symmetry_cell_setting            triclinic
  loop_
  _symmetry_equiv_pos_as_xyz
 x,y,z
_cell_length_a 35.3941
_cell_length_b 35.4516
_cell_length_c 35.5425
_cell_angle_alpha 89.973900
_cell_angle_beta 90.093100
_cell_angle_gamma 89.902000
loop_
  _atom_site_label
  _atom_site_type_symbol
  _atom_site_fract_x
  _atom_site_fract_y
  _atom_site_fract_z
C1 C 0.32434 0.37073 1.37026
 N2 N 0.33997 0.33811 1.38307
 C3 C 0.36976 0.32219 1.36500
 N4 N 0.38369 0.33894 1.33362
 C5 C 0.36869 0.37185 1.32081
 N6 N 0.33907 0.38778 1.33927
 C7 C 1.17624 0.63244 0.87541
 N8 N 1.16215 0.61688 0.84345
 C9 C 1.12962 0.63000 0.82801
 N10 N 1.11123 0.65937 0.84437
 C11 C 1.12546 0.67572 0.87598
 N12 N 1.15789 0.66200 0.89148
 C13 C 0.67506 -0.13101 0.12421
 N14 N 0.65684 -0.16059 0.10807
 C15 C 0.62446 -0.17430 0.12345
 N16 N 0.61014 -0.15794 0.15498
 C17 C 0.62838 -0.12855 0.17139
 N18 N 0.66088 -0.11542 0.15609
 C19 C -0.17516 1.12984 -0.37135
 N20 N -0.15909 1.16204 -0.38441
 C21 C -0.12928 1.17773 -0.36614
 N22 N -0.11583 1.16111 -0.33440
 C23 C -0.13134 1.12861 -0.32137
 N24 N -0.16104 1.11297 -0.33995
 C25 C 0.67507 0.63143 0.62480
 N26 N 0.65689 0.66105 0.60864
 C27 C 0.62448 0.67483 0.62400
 N28 N 0.61018 0.65850 0.65555
 C29 C 0.62847 0.62906 0.67199
 N30 N 0.66098 0.61586 0.65668
 C31 C 0.82388 0.37065 0.13001
 N32 N 0.83944 0.33805 0.11715
 C33 C 0.86927 0.32205 0.13520
 N34 N 0.88331 0.33871 0.16662
 C35 C 0.86839 0.37160 0.17948
 N36 N 0.83873 0.38761 0.16103
 C37 C 0.32426 0.12901 0.87029
 N38 N 0.33867 0.11186 0.83921
 C39 C 0.36874 0.12720 0.82103
 N40 N 0.38434 0.15963 0.83414
 C41 C 0.37050 0.17649 0.86548
 N42 N 0.34033 0.16122 0.88335
 C43 C 0.17527 0.86800 0.37554
 N44 N 0.16099 0.88354 0.34362
 C45 C 0.12847 0.87038 0.32832
 N46 N 0.11029 0.84099 0.34477
 C47 C 0.12470 0.82467 0.37634
 N48 N 0.15712 0.83842 0.39171
 Zn49 Zn 0.04576 0.97781 0.01147
 Zn50 Zn -0.02966 0.97079 -0.02695
 Zn51 Zn -0.02272 1.00833 0.04865
 Zn52 Zn 0.00822 1.04631 -0.01899
 O53 O 0.00028 1.00071 0.00341
 O54 O 0.04820 0.93277 -0.01023
 O55 O -0.07345 0.95773 -0.00439
 O56 O 0.00336 0.98967 0.08752
 O57 O -0.00673 0.92698 -0.03967
 O58 O 0.05569 0.96932 0.06022
 O59 O -0.06766 0.98624 0.05080
 O60 O -0.01018 1.08520 0.00751
 O61 O -0.04257 0.99397 -0.07048
 O62 O -0.03117 1.05706 0.05897
 O63 O -0.01408 1.04920 -0.06376
 O64 O 0.05722 1.05602 -0.02757
 O65 O 0.08480 1.00384 -0.00699
 C66 C 0.02558 0.91409 -0.03065
 C67 C -0.08623 0.96595 0.02799
 C68 C 0.03568 0.97433 0.08936
 C69 C -0.02575 1.08659 0.03959
 C70 C -0.03435 1.02665 -0.08270
 C71 C 0.08655 1.03603 -0.02244
 Zn72 Zn 0.47746 0.00814 0.45118
 Zn73 Zn 0.47065 -0.02953 0.52668
 Zn74 Zn 0.54602 -0.02247 0.48842
 Zn75 Zn 0.50853 0.04596 0.51897
 O76 O 0.50055 0.00043 0.49644
 O77 O 0.43250 -0.01398 0.44888
 O78 O 0.49356 -0.07332 0.53938
 O79 O 0.55585 -0.03085 0.43967
 O80 O 0.42685 -0.04256 0.50405
 O81 O 0.50351 -0.01036 0.41231
 O82 O 0.54849 -0.06756 0.51011
 O83 O 0.55757 0.05571 0.52747
 O84 O 0.45781 -0.00650 0.57023
 O85 O 0.58512 0.00357 0.50687
 O86 O 0.48638 0.04872 0.56377
 O87 O 0.49004 0.08489 0.49252
 O88 O 0.46899 0.05690 0.44095
 C89 C 0.41401 -0.03432 0.47166
 C90 C 0.52584 -0.08623 0.53044
 C91 C 0.53581 -0.02570 0.41050
 C92 C 0.58691 0.03577 0.52228
 C93 C 0.46611 0.02610 0.58259
 C94 C 0.47444 0.08636 0.46041
 Zn95 Zn 1.01066 0.45328 0.48082
 Zn96 Zn 1.04771 0.52190 0.51134
 Zn97 Zn 0.97223 0.52866 0.47305
 Zn98 Zn 0.97954 0.49101 0.54860
 O99 O 1.00242 0.49881 0.50332
 O100 O 1.05976 0.44373 0.47233
 O101 O 1.04973 0.56703 0.48977
 O102 O 0.95941 0.50554 0.42953
 O103 O 1.08689 0.49615 0.49265
 O104 O 0.98836 0.45041 0.43601
 O105 O 0.99476 0.57260 0.46036
 O106 O 0.93449 0.51305 0.55089
 O107 O 1.05771 0.53028 0.56009
 O108 O 0.92842 0.54151 0.49568
 O109 O 1.00560 0.50961 0.58746
 O110 O 0.97132 0.44222 0.55879
 O111 O 0.99246 0.41430 0.50725
 C112 C 1.08890 0.46394 0.47731
 C113 C 1.02695 0.58564 0.46940
 C114 C 0.96785 0.47295 0.41719
 C115 C 0.91577 0.53330 0.52810
 C116 C 1.03779 0.52511 0.58927
 C117 C 0.97686 0.41277 0.53931
 Zn118 Zn 0.50997 0.45418 1.01963
 Zn119 Zn 0.47848 0.49210 0.95200
 Zn120 Zn 0.47158 0.52963 1.02750
 Zn121 Zn 0.54694 0.52278 0.98917
 O122 O 0.50163 0.49976 0.99721
 O123 O 0.49188 0.41523 0.99307
 O124 O 0.43348 0.51423 0.94972
 O125 O 0.45890 0.50640 1.07098
 O126 O 0.47013 0.44337 0.94181
 O127 O 0.48771 0.45121 1.06439
 O128 O 0.42768 0.54267 1.00492
 O129 O 0.54907 0.56792 1.01065
 O130 O 0.50445 0.51060 0.91311
 O131 O 0.49425 0.57349 1.04020
 O132 O 0.55677 0.53106 0.94040
 O133 O 0.58620 0.49702 1.00790
 O134 O 0.55908 0.44463 1.02823
 C135 C 0.47601 0.41382 0.96108
 C136 C 0.41489 0.53452 0.97250
 C137 C 0.46730 0.47374 1.08324
 C138 C 0.52639 0.58653 1.03106
 C139 C 0.53671 0.52592 0.91125
 C140 C 0.58823 0.46480 1.02326
 C141 C 1.22816 0.41198 0.42009
 N142 N 1.24659 0.43263 0.39370
 N143 N 1.27798 0.41946 0.37766
 C144 C 1.29241 0.38542 0.38789
 N145 N 1.27423 0.36512 0.41476
 N146 N 1.24254 0.37800 0.43032
 C147 C 1.19256 0.42550 0.43629
 N148 N 1.16585 0.40062 0.44786
 N149 N 1.13284 0.41281 0.46118
 C150 C 1.12566 0.45032 0.46403
 N151 N 1.15256 0.47518 0.45289
 N152 N 1.18531 0.46300 0.43898
 C153 C 0.27489 0.59066 0.92018
 N154 N 0.26015 0.57607 0.88809
 N155 N 0.22810 0.58957 0.87381
 C156 C 0.20955 0.61834 0.89096
 N157 N 0.22425 0.63296 0.92317
 N158 N 0.25634 0.61934 0.93755
 C159 C 0.31077 0.57587 0.93490
 N160 N 0.32534 0.58797 0.96818
 N161 N 0.35835 0.57460 0.98066
 C162 C 0.37791 0.54878 0.96018
 N163 N 0.36323 0.53674 0.92703
 N164 N 0.33029 0.54994 0.91468
 C165 C -0.22626 0.91043 0.07985
 N166 N -0.24477 0.88179 0.06243
 N167 N -0.27688 0.86829 0.07668
 C168 C -0.29163 0.88302 0.10879
 N169 N -0.27313 0.91176 0.12599
 N170 N -0.24106 0.92513 0.11184
 C171 C -0.19036 0.92505 0.06527
 N172 N -0.17083 0.95091 0.08554
 N173 N -0.13787 0.96395 0.07330
 C174 C -0.12317 0.95181 0.04022
 N175 N -0.14275 0.92605 0.01970
 N176 N -0.17577 0.91284 0.03207
 C177 C 0.72634 0.08871 0.57842
 N178 N 0.74866 0.06551 0.59928
 N179 N 0.78027 0.07844 0.61511
 C180 C 0.79093 0.11487 0.61015
 N181 N 0.76883 0.13790 0.58892
 N182 N 0.73699 0.12512 0.57354
 C183 C 0.69063 0.07505 0.56248
 N184 N 0.66229 0.09960 0.55427
 N185 N 0.62929 0.08716 0.54117
 C186 C 0.62365 0.04976 0.53528
 N187 N 0.65214 0.02526 0.54309
 N188 N 0.68496 0.03765 0.55668
 C189 C 0.41701 0.22418 0.40510
 N190 N 0.42736 0.23813 0.37109
 N191 N 0.41227 0.27010 0.35819
 C192 C 0.38577 0.28890 0.37852
 N193 N 0.37524 0.27469 0.41242
 N194 N 0.39079 0.24309 0.42559
 C195 C 0.43338 0.18894 0.41935
 N196 N 0.43633 0.18279 0.45694
 N197 N 0.45033 0.15042 0.46997
 C198 C 0.46135 0.12282 0.44590
 N199 N 0.45829 0.12891 0.40830
 N200 N 0.44487 0.16155 0.39525
 C201 C 0.91897 0.27512 0.59394
 N202 N 0.89286 0.25636 0.57317
 N203 N 0.87702 0.22492 0.58624
 C204 C 0.88713 0.21075 0.62032
 N205 N 0.91355 0.22939 0.64092
 N206 N 0.92892 0.26118 0.62812
 C207 C 0.93556 0.31027 0.57987
 N208 N 0.94695 0.33758 0.60411
 N209 N 0.96049 0.37017 0.59123
 C210 C 0.96379 0.37630 0.55367
 N211 N 0.95288 0.34878 0.52946
 N212 N 0.93875 0.31645 0.54232
 C213 C 0.07749 0.77219 -0.08136
 N214 N 0.06134 0.75418 -0.11099
 N215 N 0.07645 0.72246 -0.12445
 C216 C 0.10819 0.70755 -0.10871
 N217 N 0.12393 0.72535 -0.07875
 N218 N 0.10892 0.75707 -0.06540
 C219 C 0.06268 0.80839 -0.06766
 N220 N 0.08243 0.82812 -0.04157
 N221 N 0.07028 0.86163 -0.02985
 C222 C 0.03784 0.87671 -0.04364
 N223 N 0.01781 0.85692 -0.06960
 N224 N 0.03010 0.82337 -0.08150
 C225 C 0.57712 0.72895 1.08101
 N226 N 0.56085 0.74703 1.11051
 N227 N 0.57574 0.77886 1.12387
 C228 C 0.60736 0.79381 1.10816
 N229 N 0.62322 0.77595 1.07832
 N230 N 0.60843 0.74412 1.06506
 C231 C 0.56260 0.69261 1.06749
 N232 N 0.58247 0.67286 1.04152
 N233 N 0.57061 0.63921 1.03000
 C234 C 0.53836 0.62402 1.04388
 N235 N 0.51820 0.64384 1.06970
 N236 N 0.53021 0.67753 1.08141
 C237 C 0.41183 0.41946 1.22210
 N238 N 0.42559 0.38638 1.23565
 N239 N 0.41200 0.37156 1.26724
 C240 C 0.38402 0.38918 1.28651
 N241 N 0.37024 0.42238 1.27307
 N242 N 0.38394 0.43729 1.24143
 C243 C 0.42653 0.43470 1.18656
 N244 N 0.41469 0.46851 1.17279
 N245 N 0.42786 0.48141 1.14004
 C246 C 0.45320 0.46085 1.11992
 N247 N 0.46499 0.42717 1.13381
 N248 N 0.45198 0.41439 1.16649
 C249 C 0.58851 -0.08169 0.27160
 N250 N 0.56477 -0.10092 0.24851
 N251 N 0.57740 -0.11597 0.21654
 C252 C 0.61410 -0.11187 0.20634
 N253 N 0.63773 -0.09236 0.22928
 N254 N 0.62523 -0.07776 0.26146
 C255 C 0.57495 -0.06605 0.30729
 N256 N 0.59955 -0.05855 0.33566
 N257 N 0.58715 -0.04540 0.36853
 C258 C 0.54979 -0.03875 0.37396
 N259 N 0.52525 -0.04588 0.34544
 N260 N 0.53758 -0.05950 0.31276
 C261 C -0.08925 1.08108 -0.22197
 N262 N -0.07521 1.11398 -0.23552
 N263 N -0.08850 1.12879 -0.26730
 C264 C -0.11645 1.11135 -0.28677
 N265 N -0.13052 1.07834 -0.27333
 N266 N -0.11713 1.06343 -0.24149
 C267 C -0.07480 1.06581 -0.18628
 N268 N -0.08670 1.03204 -0.17259
 N269 N -0.07367 1.01910 -0.13974
 C270 C -0.04840 1.03957 -0.11945
 N271 N -0.03656 1.07320 -0.13326
 N272 N -0.04944 1.08603 -0.16603
 C273 C 1.09008 0.58252 0.72787
 N274 N 1.06620 0.60179 0.75078
 N275 N 1.07872 0.61709 0.78270
 C276 C 1.11546 0.61322 0.79303
 N277 N 1.13923 0.59370 0.77025
 N278 N 1.12684 0.57884 0.73813
 C279 C 1.07663 0.56651 0.69227
 N280 N 1.10128 0.55891 0.66402
 N281 N 1.08899 0.54539 0.63124
 C282 C 1.05169 0.53842 0.62579
 N283 N 1.02711 0.54564 0.65418
 N284 N 1.03933 0.55963 0.68677
 C285 C 0.77570 0.58908 0.57998
 N286 N 0.76148 0.57527 0.61262
 N287 N 0.72936 0.58873 0.62666
 C288 C 0.71025 0.61661 0.60867
 N289 N 0.72438 0.63047 0.57594
 N290 N 0.75655 0.61691 0.56181
 C291 C 0.81162 0.57436 0.56545
 N292 N 0.82583 0.58603 0.53190
 N293 N 0.85887 0.57275 0.51954
 C294 C 0.87882 0.54747 0.54039
 N295 N 0.86449 0.53586 0.57381
 N296 N 0.83151 0.54898 0.58606
 C297 C 0.72762 0.41231 1.08028
 N298 N 0.74621 0.43283 1.10671
 N299 N 0.77761 0.41952 1.12271
 C300 C 0.79192 0.38547 1.11241
 N301 N 0.77359 0.36530 1.08550
 N302 N 0.74187 0.37832 1.06997
 C303 C 0.69198 0.42598 1.06413
 N304 N 0.66516 0.40121 1.05253
 N305 N 0.63212 0.41352 1.03927
 C306 C 0.62502 0.45106 1.03651
 N307 N 0.65203 0.47582 1.04768
 N308 N 0.68481 0.46351 1.06153
 C309 C 0.22559 1.08844 -0.07962
 N310 N 0.23629 1.12488 -0.07504
 N311 N 0.26812 1.13749 -0.09047
 C312 C 0.29017 1.11428 -0.11146
 N313 N 0.27944 1.07783 -0.11616
 N314 N 0.24784 1.06507 -0.10028
 C315 C 0.18997 1.07492 -0.06347
 N316 N 0.18430 1.03757 -0.05737
 N317 N 0.15160 1.02531 -0.04349
 C318 C 0.12323 1.04991 -0.03566
 N319 N 0.12886 1.08726 -0.04185
 N320 N 0.16176 1.09957 -0.05524
 C321 C 0.27400 -0.09029 0.41981
 N322 N 0.25561 -0.11894 0.43730
 N323 N 0.22348 -0.13254 0.42308
 C324 C 0.20860 -0.11790 0.39092
 N325 N 0.22699 -0.08915 0.37366
 N326 N 0.25908 -0.07568 0.38778
 C327 C 0.30991 -0.07555 0.43436
 N328 N 0.32931 -0.04967 0.41405
 N329 N 0.36227 -0.03651 0.42628
 C330 C 0.37707 -0.04857 0.45940
 N331 N 0.35762 -0.07435 0.47997
 N332 N 0.32460 -0.08767 0.46761
 C333 C 0.57705 -0.22842 0.58119
 N334 N 0.56075 -0.24640 0.61073
 N335 N 0.57568 -0.27823 0.62423
 C336 C 0.60737 -0.29326 0.60863
 N337 N 0.62324 -0.27549 0.57875
 N338 N 0.60841 -0.24367 0.56536
 C339 C 0.56245 -0.19213 0.56748
 N340 N 0.58236 -0.17242 0.54154
 N341 N 0.57039 -0.13883 0.52982
 C342 C 0.53798 -0.12365 0.54346
 N343 N 0.51780 -0.14342 0.56926
 N344 N 0.52992 -0.17706 0.58117
 C345 C 1.07750 0.72798 0.41904
 N346 N 1.10886 0.74319 0.43494
 N347 N 1.12361 0.77499 0.42160
 C348 C 1.10766 0.79279 0.39169
 N349 N 1.07599 0.77781 0.37602
 N350 N 1.06114 0.74600 0.38948
 C351 C 1.06302 0.69168 0.43268
 N352 N 1.03057 0.67657 0.41882
 N353 N 1.01860 0.64291 0.43064
 C354 C 1.03885 0.62313 0.45650
 N355 N 1.07116 0.63834 0.47031
 N356 N 1.08298 0.67196 0.45869
 C357 C -0.08347 1.22416 0.09499
 N358 N -0.10976 1.24309 0.07451
 N359 N -0.12533 1.27464 0.08771
 C360 C -0.11475 1.28879 0.12164
 N361 N -0.08818 1.26996 0.14197
 N362 N -0.07308 1.23804 0.12904
 C363 C -0.06704 1.18898 0.08071
 N364 N -0.05544 1.16156 0.10480
 N365 N -0.04194 1.12899 0.09173
 C366 C -0.03889 1.12300 0.05413
 N367 N -0.05003 1.15062 0.03007
 N368 N -0.06412 1.18293 0.04312
 C369 C 0.41929 0.27579 0.90599
 N370 N 0.39916 0.25305 0.92923
 N371 N 0.38347 0.22148 0.91627
 C372 C 0.38775 0.21128 0.87972
 N373 N 0.40816 0.23385 0.85655
 N374 N 0.42341 0.26569 0.86939
 C375 C 0.43554 0.31111 0.92008
 N376 N 0.44324 0.33993 0.89614
 N377 N 0.45653 0.37258 0.90914
 C378 C 0.46316 0.37734 0.94647
 N379 N 0.45590 0.34836 0.97034
 N380 N 0.44212 0.31590 0.95741
 C381 C 0.58892 0.58219 0.77229
 N382 N 0.62562 0.57824 0.76208
 N383 N 0.63801 0.59287 0.72988
 C384 C 0.61429 0.61242 0.70698
 N385 N 0.57759 0.61654 0.71726
 N386 N 0.56507 0.60147 0.74926
 C387 C 0.57548 0.56649 0.80800
 N388 N 0.53815 0.55991 0.81354
 N389 N 0.52594 0.54620 0.84623
 C390 C 0.55057 0.53901 0.87468
 N391 N 0.58790 0.54569 0.86918
 N392 N 0.60017 0.55892 0.83631
 C393 C 0.41125 0.07972 0.72196
 N394 N 0.38308 0.06220 0.74111
 N395 N 0.36958 0.07705 0.77288
 C396 C 0.38385 0.10985 0.78662
 N397 N 0.41211 0.12714 0.76755
 N398 N 0.42550 0.11240 0.73583
 C399 C 0.42574 0.06464 0.68627
 N400 N 0.45125 0.08488 0.66629
 N401 N 0.46411 0.07226 0.63348
 C402 C 0.45211 0.03881 0.61937
 N403 N 0.42670 0.01831 0.63940
 N404 N 0.41368 0.03105 0.67228
 C405 C 0.08845 0.91750 0.22812
 N406 N 0.12518 0.92137 0.23832
 N407 N 0.13773 0.90665 0.27048
 C408 C 0.11413 0.88708 0.29334
 N409 N 0.07741 0.88302 0.28307
 N410 N 0.06474 0.89819 0.25111
 C411 C 0.07485 0.93332 0.19246
 N412 N 0.03748 0.93995 0.18694
 N413 N 0.02514 0.95379 0.15430
 C414 C 0.04966 0.96108 0.12589
 N415 N 0.08703 0.95436 0.13137
 N416 N 0.09943 0.94099 0.16419
 C417 C 0.91190 0.41896 0.27826
 N418 N 0.92560 0.38591 0.26465
 N419 N 0.91189 0.37117 0.23305
 C420 C 0.88384 0.38884 0.21382
 N421 N 0.87013 0.42202 0.22730
 N422 N 0.88394 0.43685 0.25896
 C423 C 0.92674 0.43413 0.31381
 N424 N 0.91493 0.46789 0.32764
 N425 N 0.92820 0.48072 0.36040
 C426 C 0.95365 0.46015 0.38048
 N427 N 0.96541 0.42651 0.36653
 N428 N 0.95229 0.41380 0.33384
   
