data_POSCAR
  _audit_creation_date              2014-09-24
  _audit_creation_method            'ToBaCCo'
  _symmetry_space_group_name_H-M    'P1'
  _symmetry_Int_Tables_number       1
  _symmetry_cell_setting            triclinic
  loop_
  _symmetry_equiv_pos_as_xyz
 x,y,z
_cell_length_a 44.2314
_cell_length_b 41.1462
_cell_length_c 43.2722
_cell_angle_alpha 89.594200
_cell_angle_beta 91.718000
_cell_angle_gamma 89.417500
loop_
  _atom_site_label
  _atom_site_type_symbol
  _atom_site_fract_x
  _atom_site_fract_y
  _atom_site_fract_z
N1 N 0.59418 0.66733 0.61179
 N2 N 0.58254 0.65408 0.63641
 C3 C 0.55944 0.67273 0.64571
 C4 C 0.55681 0.69954 0.62626
 C5 C 0.57888 0.69496 0.60461
 H6 H 0.54538 0.66712 0.66501
 H7 H 0.58350 0.71057 0.58513
 Cu8 Cu 0.59946 0.61429 0.65437
 Cu9 Cu 0.62752 0.64665 0.59048
 Cu10 Cu 0.66935 0.59192 0.63657
 N11 N 0.61664 0.57316 0.66908
 N12 N 0.64461 0.56508 0.66302
 C13 C 0.65211 0.53740 0.67823
 C14 C 0.62714 0.52680 0.69421
 C15 C 0.60519 0.55065 0.68800
 H16 H 0.67470 0.52709 0.67896
 H17 H 0.58255 0.55175 0.69669
 N18 N 0.68441 0.61109 0.59817
 N19 N 0.66802 0.63065 0.57988
 C20 C 0.68342 0.63675 0.55413
 C21 C 0.71056 0.61976 0.55609
 C22 C 0.71069 0.60431 0.58460
 H23 H 0.67526 0.65185 0.53503
 H24 H 0.72826 0.58853 0.59435
 H25 H 0.63084 0.60041 0.61118
 H26 H 0.64554 0.63631 0.63275
 N27 N 0.91581 0.33275 0.11554
 N28 N 0.93054 0.35058 0.13593
 C29 C 0.95850 0.33801 0.14079
 C30 C 0.96163 0.31077 0.12229
 C31 C 0.93364 0.30786 0.10717
 H32 H 0.97472 0.34702 0.15777
 H33 H 0.92695 0.28955 0.09058
 Cu34 Cu 0.91094 0.38732 0.15539
 Cu35 Cu 0.87463 0.34340 0.10140
 Cu36 Cu 0.85399 0.42344 0.11543
 N37 N 0.88891 0.42392 0.17235
 N38 N 0.86728 0.43873 0.15604
 C39 C 0.85680 0.46407 0.17214
 C40 C 0.87196 0.46456 0.20060
 C41 C 0.89257 0.43902 0.19970
 H42 H 0.83947 0.48091 0.16368
 H43 H 0.90900 0.43205 0.21761
 N44 N 0.83342 0.39636 0.08415
 N45 N 0.84059 0.36560 0.07946
 C46 C 0.82131 0.35332 0.05798
 C47 C 0.80071 0.37739 0.04929
 C48 C 0.80920 0.40443 0.06605
 H49 H 0.82189 0.32861 0.04965
 H50 H 0.79812 0.42799 0.06558
 H51 H 0.88787 0.39005 0.10338
 H52 H 0.86037 0.37823 0.13324
 N53 N 0.40417 0.17437 -0.10694
 N54 N 0.41899 0.16084 -0.12945
 C55 C 0.44520 0.17666 -0.13294
 C56 C 0.44701 0.20118 -0.11126
 C57 C 0.42028 0.19936 -0.09554
 H58 H 0.46184 0.17088 -0.14992
 H59 H 0.41298 0.21528 -0.07738
 Cu60 Cu 0.40234 0.12409 -0.15206
 Cu61 Cu 0.36552 0.15811 -0.09345
 Cu62 Cu 0.33587 0.09191 -0.13268
 N63 N 0.38519 0.08735 -0.17428
 N64 N 0.35953 0.07443 -0.16608
 C65 C 0.35330 0.04886 -0.18433
 C66 C 0.37629 0.04565 -0.20501
 C67 C 0.39599 0.07060 -0.19829
 H68 H 0.33350 0.03379 -0.18284
 H69 H 0.41678 0.07576 -0.20982
 N70 N 0.31534 0.11309 -0.09829
 N71 N 0.32677 0.13813 -0.08320
 C72 C 0.30807 0.14638 -0.06047
 C73 C 0.28354 0.12593 -0.06168
 C74 C 0.28895 0.10494 -0.08569
 H75 H 0.31200 0.16564 -0.04402
 H76 H 0.27496 0.08480 -0.09290
 H77 H 0.37206 0.11075 -0.10761
 H78 H 0.35183 0.13882 -0.13552
 N79 N 0.08215 0.83327 0.39226
 N80 N 0.07031 0.84845 0.36791
 C81 C 0.04273 0.83622 0.36141
 C82 C 0.03677 0.81215 0.38300
 C83 C 0.06272 0.81066 0.40183
 H84 H 0.02881 0.84301 0.34139
 H85 H 0.06692 0.79470 0.42148
 Cu86 Cu 0.09273 0.88172 0.34637
 Cu87 Cu 0.12170 0.84404 0.41004
 Cu88 Cu 0.16185 0.90370 0.37266
 N89 N 0.11641 0.91375 0.32458
 N90 N 0.14289 0.92303 0.33569
 C91 C 0.15397 0.94596 0.31699
 C92 C 0.13381 0.95073 0.29225
 C93 C 0.10998 0.93021 0.29812
 H94 H 0.17505 0.95849 0.32123
 H95 H 0.08952 0.92760 0.28410
 N96 N 0.17729 0.88113 0.41027
 N97 N 0.16201 0.85840 0.42453
 C98 C 0.17845 0.84777 0.44936
 C99 C 0.20562 0.86412 0.45041
 C100 C 0.20392 0.88538 0.42555
 H101 H 0.17109 0.82982 0.46581
 H102 H 0.22094 0.90265 0.41916
 H103 H 0.12229 0.89134 0.39389
 H104 H 0.13979 0.85976 0.36909
 N105 N 0.09314 0.18340 0.10637
 N106 N 0.08426 0.17158 0.13289
 C107 C 0.06163 0.19040 0.14323
 C108 C 0.05659 0.21548 0.12229
 C109 C 0.07682 0.21031 0.09915
 H110 H 0.04967 0.18628 0.16431
 H111 H 0.07902 0.22473 0.07836
 Cu112 Cu 0.10334 0.13292 0.15129
 Cu113 Cu 0.12412 0.16234 0.08239
 Cu114 Cu 0.15610 0.09142 0.11275
 N115 N 0.12175 0.09311 0.16805
 N116 N 0.14148 0.07645 0.15229
 C117 C 0.15000 0.04976 0.16856
 C118 C 0.13555 0.05009 0.19649
 C119 C 0.11738 0.07772 0.19512
 H120 H 0.16547 0.03134 0.16057
 H121 H 0.10220 0.08592 0.21264
 N122 N 0.16802 0.11055 0.07314
 N123 N 0.15571 0.13750 0.06150
 C124 C 0.16914 0.14483 0.03485
 C125 C 0.19083 0.12135 0.02946
 C126 C 0.18980 0.10022 0.05433
 H127 H 0.16431 0.16622 0.02083
 H128 H 0.20433 0.07927 0.05859
 H129 H 0.11685 0.11614 0.09954
 H130 H 0.14727 0.14024 0.11924
 N131 N 0.42246 0.82704 0.60432
 N132 N 0.43622 0.84406 0.62601
 C133 C 0.46069 0.82743 0.63682
 C134 C 0.46201 0.79800 0.62154
 C135 C 0.43765 0.79888 0.60066
 H136 H 0.47650 0.83624 0.65431
 H137 H 0.43145 0.78041 0.58404
 Cu138 Cu 0.42051 0.88592 0.63867
 Cu139 Cu 0.38679 0.84372 0.58172
 Cu140 Cu 0.34863 0.90586 0.61847
 N141 N 0.39841 0.91904 0.66054
 N142 N 0.37034 0.92690 0.65257
 C143 C 0.36020 0.94952 0.67218
 C144 C 0.38302 0.95568 0.69373
 C145 C 0.40700 0.93606 0.68571
 H146 H 0.33764 0.95994 0.67148
 H147 H 0.42872 0.93377 0.69773
 N148 N 0.33095 0.88156 0.58329
 N149 N 0.34571 0.85829 0.56904
 C150 C 0.32818 0.84715 0.54554
 C151 C 0.30088 0.86385 0.54525
 C152 C 0.30359 0.88576 0.56923
 H153 H 0.33498 0.82871 0.52940
 H154 H 0.28693 0.90372 0.57561
 H155 H 0.38553 0.89276 0.59380
 H156 H 0.37255 0.86235 0.62251
 N157 N 0.90437 0.68721 0.39392
 N158 N 0.91725 0.67374 0.37010
 C159 C 0.94047 0.69230 0.36144
 C160 C 0.94185 0.71892 0.38061
 C161 C 0.91878 0.71496 0.40103
 H162 H 0.95541 0.68679 0.34281
 H163 H 0.91350 0.73062 0.42014
 Cu164 Cu 0.90300 0.63305 0.35279
 Cu165 Cu 0.87152 0.66646 0.41531
 Cu166 Cu 0.84078 0.59829 0.38088
 N167 N 0.88176 0.59877 0.33069
 N168 N 0.85793 0.58478 0.34212
 C169 C 0.84852 0.56117 0.32288
 C170 C 0.86697 0.56081 0.29761
 C171 C 0.88812 0.58473 0.30359
 H172 H 0.82995 0.54503 0.32721
 H173 H 0.90684 0.59121 0.28935
 N174 N 0.82660 0.61583 0.42013
 N175 N 0.83831 0.64181 0.43337
 C176 C 0.82408 0.64739 0.45996
 C177 C 0.80264 0.62356 0.46375
 C178 C 0.80452 0.60434 0.43779
 H179 H 0.82894 0.66720 0.47555
 H180 H 0.79055 0.58370 0.43211
 H181 H 0.87887 0.61928 0.40110
 H182 H 0.85456 0.64585 0.37505
 N183 N 0.58347 0.32436 -0.09745
 N184 N 0.56911 0.33983 -0.12023
 C185 C 0.54235 0.32542 -0.12598
 C186 C 0.53965 0.29974 -0.10544
 C187 C 0.56642 0.29951 -0.08800
 H188 H 0.52624 0.33272 -0.14407
 H189 H 0.57328 0.28206 -0.07027
 Cu190 Cu 0.58713 0.37628 -0.14138
 Cu191 Cu 0.62300 0.33779 -0.08168
 Cu192 Cu 0.66048 0.39350 -0.12619
 N193 N 0.61046 0.40246 -0.16933
 N194 N 0.63931 0.40830 -0.16392
 C195 C 0.64961 0.42694 -0.18696
 C196 C 0.62594 0.43291 -0.20790
 C197 C 0.60137 0.41733 -0.19585
 H198 H 0.67231 0.43632 -0.18800
 H199 H 0.57857 0.41705 -0.20560
 N200 N 0.67763 0.37574 -0.08696
 N201 N 0.66307 0.35474 -0.06980
 C202 C 0.67918 0.34924 -0.04336
 C203 C 0.70494 0.36788 -0.04386
 C204 C 0.70350 0.38406 -0.07193
 H205 H 0.67231 0.33368 -0.02465
 H206 H 0.71945 0.40167 -0.08007
 H207 H 0.62356 0.38507 -0.09910
 H208 H 0.63517 0.35164 -0.12571
 C209 C 0.01729 0.29864 0.12510
 C210 C -0.01352 0.28900 0.12097
 C211 C -0.01968 0.25586 0.11628
 C212 C 0.00324 0.23249 0.11769
 C213 C 0.03328 0.24128 0.12314
 C214 C 0.04066 0.27441 0.12694
 C215 C 0.02591 0.33167 0.12505
 C216 C 0.05605 0.34047 0.12978
 C217 C 0.07841 0.31672 0.13384
 C218 C 0.07095 0.28397 0.13215
 H219 H 0.00989 0.35109 0.12013
 H220 H 0.06213 0.36589 0.12995
 H221 H 0.10175 0.32371 0.13762
 H222 H 0.08912 0.26627 0.13474
 H223 H -0.04267 0.24750 0.11287
 H224 H -0.00254 0.20720 0.11430
 C225 C 0.52390 0.74025 0.65469
 C226 C 0.53370 0.72594 0.62685
 C227 C 0.51993 0.73568 0.59868
 C228 C 0.49657 0.75858 0.59763
 C229 C 0.48576 0.77233 0.62475
 C230 C 0.49879 0.76234 0.65376
 C231 C 0.53879 0.73364 0.68343
 C232 C 0.52759 0.74594 0.71079
 C233 C 0.50147 0.76504 0.71012
 C234 C 0.48712 0.77318 0.68198
 H235 H 0.55946 0.71947 0.68512
 H236 H 0.53908 0.74037 0.73266
 H237 H 0.49242 0.77384 0.73151
 H238 H 0.46658 0.78751 0.68275
 H239 H 0.52705 0.72514 0.57717
 H240 H 0.48700 0.76584 0.57527
 C241 C 0.98162 0.80079 0.37409
 C242 C 1.01158 0.79130 0.38394
 C243 C 1.01668 0.75907 0.39409
 C244 C 0.99392 0.73608 0.39237
 C245 C 0.96497 0.74446 0.38118
 C246 C 0.95842 0.77691 0.37210
 C247 C 0.97340 0.83366 0.36834
 C248 C 0.94416 0.84223 0.35817
 C249 C 0.92223 0.81853 0.35424
 C250 C 0.92910 0.78618 0.36139
 H251 H 0.98890 0.85327 0.37275
 H252 H 0.93840 0.86749 0.35365
 H253 H 0.89960 0.82534 0.34628
 H254 H 0.91120 0.76860 0.35872
 H255 H 1.03895 0.75085 0.40196
 H256 H 0.99900 0.71135 0.39978
 C257 C 0.48246 0.23659 -0.07852
 C258 C 0.47116 0.22576 -0.10773
 C259 C 0.48232 0.23957 -0.13472
 C260 C 0.50394 0.26384 -0.13335
 C261 C 0.51508 0.27547 -0.10492
 C262 C 0.50362 0.26256 -0.07712
 C263 C 0.47379 0.22182 -0.05062
 C264 C 0.48362 0.23400 -0.02212
 C265 C 0.50229 0.26096 -0.02078
 C266 C 0.51223 0.27519 -0.04792
 H267 H 0.45981 0.20047 -0.05040
 H268 H 0.47654 0.22259 -0.00095
 H269 H 0.50932 0.27075 0.00142
 H270 H 0.52628 0.29641 -0.04567
 H271 H 0.47402 0.23169 -0.15723
 H272 H 0.51237 0.27332 -0.15483
 C273 C 0.16344 -0.01788 0.25214
 C274 C 0.13586 -0.02527 0.26658
 C275 C 0.10954 -0.00800 0.25762
 C276 C 0.11014 0.01647 0.23530
 C277 C 0.13717 0.02509 0.22147
 C278 C 0.16442 0.00866 0.23076
 C279 C 0.19002 -0.03655 0.25793
 C280 C 0.21743 -0.02741 0.24560
 C281 C 0.21895 0.00037 0.22727
 C282 C 0.19280 0.01832 0.21990
 H283 H 0.18990 -0.05868 0.27148
 H284 H 0.23766 -0.04177 0.25056
 H285 H 0.24045 0.00788 0.21846
 H286 H 0.19530 0.04007 0.20616
 H287 H 0.08825 -0.01319 0.26826
 H288 H 0.08908 0.02863 0.22862
 C289 C 0.64453 0.47208 -0.28572
 C290 C 0.62540 0.50027 -0.28481
 C291 C 0.60472 0.50257 -0.26077
 C292 C 0.60492 0.48008 -0.23668
 C293 C 0.62588 0.45450 -0.23533
 C294 C 0.64554 0.44981 -0.26018
 C295 C 0.66091 0.46394 -0.31221
 C296 C 0.68002 0.43680 -0.31234
 C297 C 0.68246 0.41644 -0.28661
 C298 C 0.66507 0.42247 -0.26093
 H299 H 0.65810 0.47735 -0.33364
 H300 H 0.69255 0.43118 -0.33277
 H301 H 0.69716 0.39525 -0.28695
 H302 H 0.66651 0.40501 -0.24215
 H303 H 0.58927 0.52299 -0.25922
 H304 H 0.58931 0.48354 -0.21812
 C305 C 0.38046 0.98749 0.77647
 C306 C 0.37876 1.02135 0.77025
 C307 C 0.37882 1.03257 0.73964
 C308 C 0.37985 1.01085 0.71517
 C309 C 0.38146 0.97733 0.72064
 C310 C 0.38172 0.96526 0.75141
 C311 C 0.38146 0.97520 0.80704
 C312 C 0.38286 0.94181 0.81274
 C313 C 0.38336 0.92009 0.78825
 C314 C 0.38280 0.93157 0.75785
 H315 H 0.38143 0.99116 0.82678
 H316 H 0.38353 0.93274 0.83630
 H317 H 0.38427 0.89419 0.79284
 H318 H 0.38309 0.91382 0.73954
 H319 H 0.37753 1.05840 0.73463
 H320 H 0.37964 1.02028 0.69172
 C321 C 0.84025 0.50100 0.23491
 C322 C 0.86871 0.48867 0.22569
 C323 C 0.89521 0.50056 0.23986
 C324 C 0.89408 0.52433 0.26249
 C325 C 0.86642 0.53747 0.27158
 C326 C 0.83919 0.52665 0.25692
 C327 C 0.81273 0.48803 0.22337
 C328 C 0.78507 0.50185 0.23100
 C329 C 0.78420 0.52870 0.25028
 C330 C 0.81091 0.54107 0.26315
 H331 H 0.81213 0.46681 0.20884
 H332 H 0.76420 0.49183 0.22169
 H333 H 0.76269 0.53982 0.25554
 H334 H 0.80909 0.56230 0.27752
 H335 H 0.91715 0.49152 0.23320
 H336 H 0.91513 0.53219 0.27335
 C337 C 0.22762 0.12576 -0.04956
 C338 C 0.25853 0.12478 -0.03981
 C339 C 0.26615 0.12221 -0.00826
 C340 C 0.24385 0.12029 0.01364
 C341 C 0.21317 0.12137 0.00474
 C342 C 0.20473 0.12371 -0.02710
 C343 C 0.21886 0.12945 -0.08105
 C344 C 0.18839 0.12978 -0.09031
 C345 C 0.16611 0.12655 -0.06850
 C346 C 0.17408 0.12352 -0.03719
 H347 H 0.23533 0.13238 -0.09878
 H348 H 0.18203 0.13248 -0.11455
 H349 H 0.14251 0.12650 -0.07588
 H350 H 0.15602 0.12074 -0.02113
 H351 H 0.28967 0.12139 -0.00049
 H352 H 0.25064 0.11858 0.03787
 C353 C 0.74877 0.58942 0.52360
 C354 C 0.73429 0.61870 0.53261
 C355 C 0.74299 0.64821 0.51942
 C356 C 0.76569 0.64927 0.49787
 C357 C 0.78063 0.62088 0.48882
 C358 C 0.77295 0.59070 0.50252
 C359 C 0.73939 0.55874 0.53439
 C360 C 0.75495 0.53043 0.52674
 C361 C 0.78002 0.53202 0.50819
 C362 C 0.78902 0.56178 0.49616
 H363 H 0.71973 0.55608 0.54834
 H364 H 0.74764 0.50716 0.53544
 H365 H 0.79241 0.51004 0.50287
 H366 H 0.80892 0.56181 0.48229
 H367 H 0.73217 0.67077 0.52596
 H368 H 0.77123 0.67252 0.48771
 C369 C 0.74484 0.38235 0.03460
 C370 C 0.77503 0.37473 0.02685
 C371 C 0.78124 0.36514 -0.00329
 C372 C 0.75827 0.36361 -0.02592
 C373 C 0.72832 0.37117 -0.01900
 C374 C 0.72135 0.38106 0.01135
 C375 C 0.73732 0.39068 0.06506
 C376 C 0.70770 0.39896 0.07213
 C377 C 0.68503 0.39909 0.04915
 C378 C 0.69167 0.39029 0.01904
 H379 H 0.75407 0.39059 0.08376
 H380 H 0.70232 0.40544 0.09556
 H381 H 0.66214 0.40593 0.05471
 H382 H 0.67337 0.39113 0.00193
 H383 H 0.80420 0.35924 -0.00947
 H384 H 0.76387 0.35608 -0.04903
 C385 C 0.24190 0.83182 0.48626
 C386 C 0.23017 0.86185 0.47445
 C387 C 0.24155 0.89099 0.48634
 C388 C 0.26389 0.89095 0.50963
 C389 C 0.27567 0.86177 0.52200
 C390 C 0.26409 0.83180 0.51093
 C391 C 0.23267 0.80177 0.47374
 C392 C 0.24327 0.77250 0.48657
 C393 C 0.26327 0.77250 0.51198
 C394 C 0.27362 0.80177 0.52413
 H395 H 0.21759 0.80046 0.45371
 H396 H 0.23578 0.74968 0.47685
 H397 H 0.27098 0.74969 0.52221
 H398 H 0.28875 0.80051 0.54417
 H399 H 0.23289 0.91414 0.47767
 H400 H 0.27241 0.91407 0.51773
   
