data_POSCAR
  _audit_creation_date              2014-09-24
  _audit_creation_method            'ToBaCCo'
  _symmetry_space_group_name_H-M    'P1'
  _symmetry_Int_Tables_number       1
  _symmetry_cell_setting            triclinic
  loop_
  _symmetry_equiv_pos_as_xyz
 x,y,z
_cell_length_a 62.9795
_cell_length_b 33.2171
_cell_length_c 25.2979
_cell_angle_alpha 90.042600
_cell_angle_beta 89.925700
_cell_angle_gamma 90.032600
loop_
  _atom_site_label
  _atom_site_type_symbol
  _atom_site_fract_x
  _atom_site_fract_y
  _atom_site_fract_z
O1 O 0.72262 0.23435 0.44939
 O2 O 0.75994 0.20033 0.55199
 O3 O 0.72263 0.23439 0.55227
 O4 O 0.75994 0.20033 0.44943
 O5 O 0.77513 0.26017 0.44943
 O6 O 0.73780 0.29417 0.55226
 O7 O 0.77513 0.26018 0.55199
 O8 O 0.73781 0.29418 0.44939
 Cu9 Cu 0.73974 0.21139 0.50077
 Cu10 Cu 0.75796 0.28319 0.50078
 C11 C 0.72378 0.27014 0.43193
 C12 C 0.77405 0.22431 0.56924
 C13 C 0.72372 0.27020 0.56985
 C14 C 0.77406 0.22431 0.43214
 O15 O 0.27517 0.75981 0.44940
 O16 O 0.23778 0.79416 0.55194
 O17 O 0.27507 0.75998 0.55196
 O18 O 0.23792 0.79406 0.44907
 O19 O 0.22263 0.73432 0.44910
 O20 O 0.25979 0.70022 0.55199
 O21 O 0.22251 0.73446 0.55198
 O22 O 0.25988 0.70005 0.44942
 Cu23 Cu 0.25799 0.78301 0.50060
 Cu24 Cu 0.23965 0.71131 0.50063
 C25 C 0.27405 0.72393 0.43215
 C26 C 0.22364 0.77029 0.56948
 C27 C 0.27393 0.72415 0.56925
 C28 C 0.22387 0.77008 0.43156
 O29 O 0.26030 0.30008 -0.55392
 O30 O 0.22300 0.26615 -0.45097
 O31 O 0.26032 0.30022 -0.45136
 O32 O 0.22296 0.26599 -0.55385
 O33 O 0.23812 0.20623 -0.55386
 O34 O 0.27550 0.24040 -0.45138
 O35 O 0.23818 0.20634 -0.45099
 O36 O 0.27546 0.24031 -0.55394
 Cu37 Cu 0.24010 0.28907 -0.50254
 Cu38 Cu 0.25831 0.21732 -0.50256
 C39 C 0.27444 0.27617 -0.57130
 C40 C 0.22416 0.23039 -0.43345
 C41 C 0.27443 0.27627 -0.43412
 C42 C 0.22404 0.23015 -0.57136
 O43 O -0.23996 0.79992 -0.55031
 O44 O -0.27737 0.76548 -0.44789
 O45 O -0.24008 0.79973 -0.44775
 O46 O -0.27725 0.76568 -0.55076
 O47 O -0.26200 0.70593 -0.55093
 O48 O -0.22484 0.73997 -0.44792
 O49 O -0.26214 0.70578 -0.44806
 O50 O -0.22471 0.74016 -0.55048
 Cu51 Cu -0.26022 0.78866 -0.49916
 Cu52 Cu -0.24193 0.71695 -0.49936
 C53 C -0.22580 0.77605 -0.56762
 C54 C -0.27627 0.72965 -0.43046
 C55 C -0.22597 0.77579 -0.43052
 C56 C -0.27604 0.72992 -0.56838
 O57 O -0.02899 0.93104 0.09747
 O58 O -0.05240 0.96687 0.04667
 C59 C -0.04812 0.94149 0.08407
 O60 O 0.03052 1.07346 0.09222
 O61 O 0.05387 1.03521 0.04406
 C62 C 0.04964 1.06283 0.07876
 O63 O -0.02901 1.06981 0.09771
 O64 O -0.05241 1.03402 0.04669
 C65 C -0.04813 1.05938 0.08418
 O66 O 0.03049 0.92705 0.09125
 O67 O 0.05387 0.96588 0.04390
 C68 C 0.04962 0.93794 0.07813
 Zr69 Zr 0.00067 0.94943 0.06598
 O70 O 0.00282 0.94633 0.14936
 O71 O -0.00042 0.88605 0.05931
 Zr72 Zr 0.00066 1.05131 0.06651
 O73 O 0.00305 1.05249 0.14995
 O74 O -0.00176 1.11488 0.06470
 O75 O -0.01821 1.00034 0.07682
 O76 O 0.01904 1.00036 0.07610
 O77 O 0.03030 0.92685 -0.09241
 O78 O 0.05365 0.96562 -0.04510
 C79 C 0.04942 0.93770 -0.07939
 O80 O -0.02904 1.07002 -0.09745
 O81 O -0.05243 1.03410 -0.04647
 C82 C -0.04816 1.05954 -0.08385
 O83 O 0.03037 1.07395 -0.09253
 O84 O 0.05370 1.03549 -0.04492
 C85 C 0.04947 1.06325 -0.07934
 O86 O -0.02907 0.93084 -0.09748
 O87 O -0.05243 0.96688 -0.04658
 C88 C -0.04818 0.94136 -0.08392
 Zr89 Zr 0.00062 0.94968 -0.06684
 O90 O 0.00301 0.94919 -0.15033
 O91 O -0.00148 0.88608 -0.06544
 Zr92 Zr 0.00064 1.05151 -0.06654
 O93 O 0.00303 1.05282 -0.14999
 O94 O -0.00182 1.11507 -0.06421
 Zr95 Zr -0.03115 1.00048 -0.00005
 Zr96 Zr 0.03232 1.00057 -0.00024
 O97 O 0.01904 1.00060 -0.07654
 O98 O -0.01828 1.00059 -0.07709
 O99 O 0.01971 0.94183 -0.00047
 O100 O -0.01796 1.05870 0.00008
 O101 O -0.01803 0.94225 -0.00030
 O102 O 0.01970 1.05935 -0.00005
 H103 H 0.02850 1.00025 0.10736
 H104 H -0.02766 1.08217 0.00019
 H105 H 0.02854 1.00058 -0.10780
 H106 H -0.02773 0.91875 -0.00026
 H107 H 0.01088 1.12536 0.04595
 H108 H 0.01075 1.12549 -0.04518
 H109 H -0.00798 1.03454 -0.16413
 H110 H -0.00851 0.96636 -0.16429
 H111 H 0.00937 0.87626 -0.04031
 H112 H -0.00032 0.87556 0.09596
 H113 H -0.00711 0.96657 0.16384
 H114 H -0.00810 1.03450 0.16412
 O115 O 0.47074 0.43030 0.09683
 O116 O 0.44739 0.46610 0.04585
 C117 C 0.45164 0.44072 0.08327
 O118 O 0.53027 0.57288 0.09175
 O119 O 0.55363 0.53460 0.04368
 C120 C 0.54939 0.56225 0.07834
 O121 O 0.47075 0.56912 0.09707
 O122 O 0.44739 0.53327 0.04602
 C123 C 0.45164 0.55865 0.08350
 O124 O 0.53009 0.42617 0.09139
 O125 O 0.55345 0.46493 0.04404
 C126 C 0.54920 0.43703 0.07833
 Zr127 Zr 0.50044 0.44876 0.06560
 O128 O 0.50250 0.44591 0.14900
 O129 O 0.49936 0.38538 0.05889
 Zr130 Zr 0.50045 0.55066 0.06600
 O131 O 0.50281 0.55183 0.14945
 O132 O 0.49801 0.61422 0.06412
 O133 O 0.48155 0.49968 0.07627
 O134 O 0.51882 0.49971 0.07566
 O135 O 0.53038 0.42633 -0.09234
 O136 O 0.55370 0.46522 -0.04498
 C137 C 0.54949 0.43725 -0.07923
 O138 O 0.47085 0.56923 -0.09814
 O139 O 0.44744 0.53337 -0.04716
 C140 C 0.45172 0.55878 -0.08456
 O141 O 0.53035 0.57301 -0.09274
 O142 O 0.55368 0.53467 -0.04485
 C143 C 0.54947 0.56236 -0.07939
 O144 O 0.47087 0.43013 -0.09816
 O145 O 0.44745 0.46616 -0.04740
 C146 C 0.45174 0.44067 -0.08475
 Zr147 Zr 0.50053 0.44891 -0.06728
 O148 O 0.50300 0.44810 -0.15073
 O149 O 0.49844 0.38531 -0.06576
 Zr150 Zr 0.50050 0.55074 -0.06706
 O151 O 0.50295 0.55215 -0.15050
 O152 O 0.49805 0.61431 -0.06484
 Zr153 Zr 0.46868 0.49975 -0.00067
 Zr154 Zr 0.53212 0.49987 -0.00066
 O155 O 0.51891 0.49985 -0.07702
 O156 O 0.48162 0.49980 -0.07765
 O157 O 0.51954 0.44111 -0.00078
 O158 O 0.48187 0.55798 -0.00051
 O159 O 0.48181 0.44152 -0.00082
 O160 O 0.51951 0.55865 -0.00052
 H161 H 0.52826 0.49963 0.10695
 H162 H 0.47216 0.58144 -0.00047
 H163 H 0.52845 0.49982 -0.10820
 H164 H 0.47211 0.41803 -0.00086
 H165 H 0.51061 0.62469 0.04521
 H166 H 0.51065 0.62474 -0.04598
 H167 H 0.49201 0.53375 -0.16470
 H168 H 0.49165 0.46560 -0.16482
 H169 H 0.50936 0.37551 -0.04080
 H170 H 0.49929 0.37487 0.09554
 H171 H 0.49241 0.46591 0.16335
 H172 H 0.49165 0.53386 0.16359
 C173 C 0.32071 0.27789 0.33675
 C174 C 0.32020 0.31782 0.31935
 C175 C 0.30407 0.34354 0.33681
 C176 C 0.28868 0.32962 0.37223
 C177 C 0.28923 0.28963 0.39096
 C178 C 0.30535 0.26382 0.37218
 C179 C 0.33669 0.33283 0.28521
 C180 C 0.35074 0.34563 0.25752
 C181 C 0.36743 0.36084 0.22607
 C182 C 0.38186 0.37401 0.19997
 C183 C 0.39928 0.38996 0.16964
 C184 C 0.39557 0.41850 0.13007
 C185 C 0.41257 0.43476 0.10159
 C186 C 0.43356 0.42270 0.11243
 C187 C 0.43709 0.39378 0.15211
 C188 C 0.42005 0.37756 0.18047
 H189 H 0.33315 0.25774 0.32350
 H190 H 0.30356 0.37455 0.32361
 H191 H 0.27657 0.35046 0.38549
 H192 H 0.30636 0.23287 0.38539
 H193 H 0.37956 0.42839 0.12146
 H194 H 0.40926 0.45701 0.07145
 H195 H 0.45301 0.38381 0.16150
 H196 H 0.42310 0.35554 0.21110
 C197 C -0.17869 0.77883 0.33895
 C198 C -0.17923 0.81882 0.32166
 C199 C -0.19539 0.84447 0.33921
 C200 C -0.21080 0.83037 0.37450
 C201 C -0.21020 0.79038 0.39279
 C202 C -0.19407 0.76466 0.37424
 C203 C -0.16277 0.83393 0.28749
 C204 C -0.14876 0.84676 0.25971
 C205 C -0.13212 0.86198 0.22808
 C206 C -0.11773 0.87513 0.20179
 C207 C -0.10035 0.89101 0.17121
 C208 C -0.10412 0.91949 0.13160
 C209 C -0.08716 0.93565 0.10286
 C210 C -0.06616 0.92354 0.11346
 C211 C -0.06258 0.89468 0.15318
 C212 C -0.07957 0.87856 0.18181
 H213 H -0.16622 0.75874 0.32570
 H214 H -0.19593 0.87551 0.32616
 H215 H -0.22298 0.85096 0.38802
 H216 H -0.19315 0.73373 0.38755
 H217 H -0.12014 0.92942 0.12316
 H218 H -0.09051 0.95787 0.07270
 H219 H -0.04665 0.88468 0.16241
 H220 H -0.07648 0.85658 0.21246
 C221 C 0.67788 0.72811 0.33528
 C222 C 0.67872 0.68839 0.31693
 C223 C 0.69467 0.66255 0.33502
 C224 C 0.70959 0.67620 0.37179
 C225 C 0.70871 0.71593 0.39104
 C226 C 0.69278 0.74184 0.37206
 C227 C 0.66275 0.67371 0.28110
 C228 C 0.64912 0.66112 0.25203
 C229 C 0.63287 0.64605 0.21915
 C230 C 0.61873 0.63287 0.19213
 C231 C 0.60153 0.61674 0.16125
 C232 C 0.58074 0.62967 0.17080
 C233 C 0.56381 0.61253 0.14309
 C234 C 0.56745 0.58210 0.10539
 C235 C 0.58848 0.56984 0.09536
 C236 C 0.60539 0.58703 0.12320
 H237 H 0.66556 0.74833 0.32166
 H238 H 0.69543 0.63171 0.32118
 H239 H 0.72164 0.65550 0.38558
 H240 H 0.69166 0.77258 0.38606
 H241 H 0.57757 0.65260 0.20026
 H242 H 0.54786 0.62274 0.15181
 H243 H 0.59187 0.54648 0.06668
 H244 H 0.62142 0.57672 0.11559
 C245 C 0.19519 1.16327 0.33461
 C246 C 0.17926 1.18911 0.31651
 C247 C 0.17852 1.22889 0.33459
 C248 C 0.19349 1.24270 0.37114
 C249 C 0.20946 1.21680 0.39037
 C250 C 0.21019 1.17693 0.37115
 C251 C 0.16321 1.17439 0.28091
 C252 C 0.14953 1.16177 0.25202
 C253 C 0.13322 1.14665 0.21932
 C254 C 0.11905 1.13344 0.19242
 C255 C 0.10182 1.11728 0.16164
 C256 C 0.08103 1.13016 0.17130
 C257 C 0.06409 1.11303 0.14362
 C258 C 0.06771 1.08265 0.10584
 C259 C 0.08874 1.07041 0.09572
 C260 C 0.10566 1.08760 0.12353
 H261 H 0.19587 1.13237 0.32094
 H262 H 0.16622 1.24913 0.32091
 H263 H 0.19235 1.27356 0.38472
 H264 H 0.22219 1.15602 0.38474
 H265 H 0.07787 1.15306 0.20080
 H266 H 0.04814 1.12322 0.15240
 H267 H 0.09212 1.04709 0.06698
 H268 H 0.12169 1.07732 0.11583
 C269 C 0.69499 0.33688 -0.33557
 C270 C 0.67908 0.31097 -0.31734
 C271 C 0.67831 0.27123 -0.33553
 C272 C 0.69324 0.25751 -0.37232
 C273 C 0.70919 0.28347 -0.39167
 C274 C 0.70995 0.32330 -0.37235
 C275 C 0.66307 0.32561 -0.28153
 C276 C 0.64940 0.33817 -0.25248
 C277 C 0.63311 0.35323 -0.21962
 C278 C 0.61894 0.36641 -0.19263
 C279 C 0.60171 0.38257 -0.16180
 C280 C 0.58094 0.36943 -0.17109
 C281 C 0.56399 0.38662 -0.14347
 C282 C 0.56758 0.41731 -0.10613
 C283 C 0.58859 0.42979 -0.09634
 C284 C 0.60552 0.41254 -0.12409
 H285 H 0.69569 0.36775 -0.32182
 H286 H 0.66602 0.25094 -0.32175
 H287 H 0.69207 0.22667 -0.38597
 H288 H 0.72194 0.34426 -0.38603
 H289 H 0.57781 0.34630 -0.20028
 H290 H 0.54805 0.37624 -0.15199
 H291 H 0.59195 0.45335 -0.06795
 H292 H 0.62154 0.42302 -0.11669
 C293 C 0.19487 0.83723 -0.33629
 C294 C 0.17890 0.81142 -0.31812
 C295 C 0.17811 0.77166 -0.33624
 C296 C 0.19306 0.75783 -0.37289
 C297 C 0.20907 0.78369 -0.39218
 C298 C 0.20985 0.82354 -0.37294
 C299 C 0.16288 0.82615 -0.28237
 C300 C 0.14922 0.83875 -0.25334
 C301 C 0.13293 0.85384 -0.22046
 C302 C 0.11877 0.86702 -0.19342
 C303 C 0.10156 0.88316 -0.16247
 C304 C 0.08078 0.87011 -0.17176
 C305 C 0.06384 0.88725 -0.14398
 C306 C 0.06748 0.91780 -0.10647
 C307 C 0.08850 0.93019 -0.09669
 C308 C 0.10541 0.91300 -0.12459
 H309 H 0.19559 0.86811 -0.32259
 H310 H 0.16578 0.75144 -0.32249
 H311 H 0.19187 0.72697 -0.38648
 H312 H 0.22189 0.84442 -0.38658
 H313 H 0.07761 0.84708 -0.20108
 H314 H 0.04790 0.87695 -0.15251
 H315 H 0.09189 0.95365 -0.06816
 H316 H 0.12144 0.92340 -0.11718
 C317 C 0.32095 0.72158 -0.33737
 C318 C 0.32040 0.68160 -0.32002
 C319 C 0.30423 0.65592 -0.33741
 C320 C 0.28884 0.66995 -0.37266
 C321 C 0.28946 0.70991 -0.39106
 C322 C 0.30558 0.73569 -0.37262
 C323 C 0.33688 0.66653 -0.28604
 C324 C 0.35092 0.65372 -0.25846
 C325 C 0.36760 0.63851 -0.22712
 C326 C 0.38203 0.62534 -0.20109
 C327 C 0.39943 0.60942 -0.17082
 C328 C 0.42021 0.62176 -0.18183
 C329 C 0.43723 0.60558 -0.15351
 C330 C 0.43367 0.57677 -0.11368
 C331 C 0.41267 0.56477 -0.10267
 C332 C 0.39569 0.58099 -0.13111
 H333 H 0.33342 0.74169 -0.32424
 H334 H 0.30368 0.62489 -0.32432
 H335 H 0.27666 0.64934 -0.38610
 H336 H 0.30652 0.76660 -0.38601
 H337 H 0.42329 0.64370 -0.21258
 H338 H 0.45316 0.61550 -0.16305
 H339 H 0.40933 0.54260 -0.07241
 H340 H 0.37966 0.57114 -0.12236
 C341 C -0.17891 1.22191 -0.33740
 C342 C -0.17942 1.18194 -0.32002
 C343 C -0.19556 1.15620 -0.33743
 C344 C -0.21096 1.17016 -0.37271
 C345 C -0.21037 1.21013 -0.39112
 C346 C -0.19428 1.23596 -0.37268
 C347 C -0.16295 1.16695 -0.28592
 C348 C -0.14893 1.15419 -0.25823
 C349 C -0.13227 1.13904 -0.22674
 C350 C -0.11786 1.12593 -0.20060
 C351 C -0.10047 1.11008 -0.17022
 C352 C -0.07969 1.12251 -0.18112
 C353 C -0.06268 1.10638 -0.15274
 C354 C -0.06623 1.07752 -0.11296
 C355 C -0.08722 1.06544 -0.10205
 C356 C -0.10420 1.08161 -0.13054
 H357 H -0.16646 1.24208 -0.32425
 H358 H -0.19608 1.12517 -0.32431
 H359 H -0.22312 1.14950 -0.38614
 H360 H -0.19337 1.26687 -0.38608
 H361 H -0.07662 1.14448 -0.21183
 H362 H -0.04675 1.11636 -0.16221
 H363 H -0.09055 1.04323 -0.07183
 H364 H -0.12023 1.07169 -0.12188
 C365 C 0.67823 0.72826 -0.33611
 C366 C 0.67901 0.68851 -0.31806
 C367 C 0.69495 0.66270 -0.33631
 C368 C 0.70993 0.67639 -0.37297
 C369 C 0.70916 0.71624 -0.39214
 C370 C 0.69317 0.74210 -0.37277
 C371 C 0.66300 0.67377 -0.28229
 C372 C 0.64934 0.66117 -0.25324
 C373 C 0.63305 0.64609 -0.22036
 C374 C 0.61889 0.63291 -0.19333
 C375 C 0.60167 0.61681 -0.16241
 C376 C 0.60550 0.58708 -0.12442
 C377 C 0.58857 0.56992 -0.09654
 C378 C 0.56755 0.58222 -0.10645
 C379 C 0.56394 0.61266 -0.14407
 C380 C 0.58088 0.62977 -0.17182
 H381 H 0.66591 0.74848 -0.32230
 H382 H 0.69567 0.63182 -0.32266
 H383 H 0.72195 0.65551 -0.38667
 H384 H 0.69199 0.77295 -0.38631
 H385 H 0.62152 0.57674 -0.11692
 H386 H 0.59194 0.54655 -0.06793
 H387 H 0.54800 0.62290 -0.15269
 H388 H 0.57774 0.65271 -0.20122
 C389 C 0.17806 1.22880 -0.33687
 C390 C 0.17884 1.18908 -0.31859
 C391 C 0.19476 1.16316 -0.33683
 C392 C 0.20969 1.17673 -0.37367
 C393 C 0.20888 1.21646 -0.39284
 C394 C 0.19297 1.24245 -0.37372
 C395 C 0.16286 1.17449 -0.28266
 C396 C 0.14923 1.16197 -0.25350
 C397 C 0.13297 1.14697 -0.22051
 C398 C 0.11883 1.13384 -0.19339
 C399 C 0.10162 1.11775 -0.16241
 C400 C 0.08084 1.13077 -0.17170
 C401 C 0.06391 1.11364 -0.14392
 C402 C 0.06754 1.08312 -0.10643
 C403 C 0.08856 1.07077 -0.09664
 C404 C 0.10547 1.08795 -0.12454
 H405 H 0.16576 1.24908 -0.32313
 H406 H 0.19547 1.13231 -0.32305
 H407 H 0.22172 1.15597 -0.38757
 H408 H 0.19190 1.27320 -0.38765
 H409 H 0.07769 1.15376 -0.20101
 H410 H 0.04797 1.12392 -0.15244
 H411 H 0.09194 1.04734 -0.06812
 H412 H 0.12150 1.07757 -0.11714
 C413 C 0.30476 0.34443 -0.34051
 C414 C 0.32084 0.31867 -0.32297
 C415 C 0.32136 0.27871 -0.34043
 C416 C 0.30604 0.26466 -0.37589
 C417 C 0.28999 0.29050 -0.39442
 C418 C 0.28941 0.33046 -0.37596
 C419 C 0.33725 0.33364 -0.28861
 C420 C 0.35122 0.34635 -0.26067
 C421 C 0.36782 0.36144 -0.22888
 C422 C 0.38218 0.37448 -0.20247
 C423 C 0.39954 0.39025 -0.17181
 C424 C 0.42032 0.37772 -0.18243
 C425 C 0.43729 0.39380 -0.15380
 C426 C 0.43371 0.42270 -0.11405
 C427 C 0.41271 0.43485 -0.10339
 C428 C 0.39576 0.41874 -0.13213
 H429 H 0.30423 0.37546 -0.32733
 H430 H 0.33378 0.25853 -0.32719
 H431 H 0.30694 0.23375 -0.38932
 H432 H 0.27728 0.35112 -0.38946
 H433 H 0.42342 0.35574 -0.21314
 H434 H 0.45322 0.38376 -0.16309
 H435 H 0.40935 0.45710 -0.07320
 H436 H 0.37974 0.42873 -0.12368
 C437 C -0.19569 0.84397 -0.33687
 C438 C -0.17953 0.81829 -0.31953
 C439 C -0.17899 0.77833 -0.33701
 C440 C -0.19434 0.76423 -0.37235
 C441 C -0.21044 0.79001 -0.39076
 C442 C -0.21106 0.82995 -0.37222
 C443 C -0.16306 0.83335 -0.28545
 C444 C -0.14903 0.84617 -0.25780
 C445 C -0.13236 0.86140 -0.22639
 C446 C -0.11793 0.87459 -0.20032
 C447 C -0.10052 0.89054 -0.17004
 C448 C -0.07975 0.87814 -0.18101
 C449 C -0.06272 0.89438 -0.15272
 C450 C -0.06626 0.92330 -0.11297
 C451 C -0.08725 0.93534 -0.10199
 C452 C -0.10424 0.91907 -0.13039
 H453 H -0.19623 0.87499 -0.32367
 H454 H -0.16652 0.75822 -0.32392
 H455 H -0.19340 0.73334 -0.38586
 H456 H -0.22323 0.85057 -0.38561
 H457 H -0.07670 0.85613 -0.21171
 H458 H -0.04680 0.88442 -0.16224
 H459 H -0.09056 0.95760 -0.07179
 H460 H -0.12026 0.92896 -0.12168
 C461 C 0.30433 0.65556 0.33861
 C462 C 0.32052 0.68119 0.32111
 C463 C 0.32111 0.72117 0.33856
 C464 C 0.30576 0.73533 0.37396
 C465 C 0.28962 0.70961 0.39247
 C466 C 0.28897 0.66964 0.37401
 C467 C 0.33695 0.66610 0.28684
 C468 C 0.35094 0.65327 0.25898
 C469 C 0.36756 0.63806 0.22729
 C470 C 0.38195 0.62492 0.20098
 C471 C 0.39934 0.60908 0.17043
 C472 C 0.39559 0.58066 0.13066
 C473 C 0.41257 0.56452 0.10198
 C474 C 0.43357 0.57659 0.11281
 C475 C 0.43712 0.60539 0.15268
 C476 C 0.42012 0.62149 0.18124
 H477 H 0.30375 0.62453 0.32544
 H478 H 0.33360 0.74124 0.32535
 H479 H 0.30673 0.76623 0.38739
 H480 H 0.27677 0.64907 0.38749
 H481 H 0.37957 0.57076 0.12206
 H482 H 0.40924 0.54235 0.07169
 H483 H 0.45305 0.61536 0.16209
 H484 H 0.42319 0.64342 0.21202
 C485 C -0.17890 1.22190 0.33852
 C486 C -0.17941 1.18192 0.32109
 C487 C -0.19556 1.15618 0.33854
 C488 C -0.21095 1.17015 0.37393
 C489 C -0.21037 1.21012 0.39239
 C490 C -0.19428 1.23595 0.37390
 C491 C -0.16294 1.16691 0.28691
 C492 C -0.14890 1.15414 0.25916
 C493 C -0.13223 1.13897 0.22761
 C494 C -0.11782 1.12583 0.20140
 C495 C -0.10042 1.10995 0.17095
 C496 C -0.07964 1.12229 0.18184
 C497 C -0.06263 1.10614 0.15335
 C498 C -0.06619 1.07735 0.11347
 C499 C -0.08719 1.06535 0.10257
 C500 C -0.10417 1.08154 0.13118
 H501 H -0.16644 1.24205 0.32534
 H502 H -0.19607 1.12514 0.32538
 H503 H -0.22311 1.14949 0.38739
 H504 H -0.19337 1.26686 0.38735
 H505 H -0.07657 1.14422 0.21264
 H506 H -0.04670 1.11606 0.16281
 H507 H -0.09052 1.04319 0.07227
 H508 H -0.12019 1.07169 0.12252
 C509 C 0.67763 0.27180 0.33574
 C510 C 0.67842 0.31154 0.31754
 C511 C 0.69434 0.33746 0.33572
 C512 C 0.70929 0.32387 0.37241
 C513 C 0.70847 0.28410 0.39149
 C514 C 0.69256 0.25812 0.37244
 C515 C 0.66244 0.32614 0.28171
 C516 C 0.64882 0.33865 0.25260
 C517 C 0.63258 0.35363 0.21964
 C518 C 0.61846 0.36672 0.19252
 C519 C 0.60128 0.38275 0.16151
 C520 C 0.58050 0.36960 0.17070
 C521 C 0.56359 0.38665 0.14287
 C522 C 0.56725 0.41722 0.10542
 C523 C 0.58828 0.42970 0.09573
 C524 C 0.60516 0.41259 0.12368
 H525 H 0.66534 0.25150 0.32204
 H526 H 0.69506 0.36833 0.32200
 H527 H 0.72132 0.34463 0.38625
 H528 H 0.69149 0.22735 0.38630
 H529 H 0.57732 0.34657 0.19997
 H530 H 0.54764 0.37628 0.15133
 H531 H 0.59168 0.45317 0.06725
 H532 H 0.62119 0.42307 0.11635
 C533 C 0.17782 0.77192 0.33510
 C534 C 0.17871 0.81163 0.31681
 C535 C 0.19467 0.83746 0.33501
 C536 C 0.20955 0.82381 0.37181
 C537 C 0.20864 0.78408 0.39099
 C538 C 0.19269 0.75818 0.37191
 C539 C 0.16278 0.82631 0.28093
 C540 C 0.14919 0.83891 0.25181
 C541 C 0.13298 0.85399 0.21886
 C542 C 0.11887 0.86719 0.19180
 C543 C 0.10170 0.88333 0.16089
 C544 C 0.08092 0.87018 0.17005
 C545 C 0.06401 0.88734 0.14237
 C546 C 0.06767 0.91803 0.10508
 C547 C 0.08869 0.93052 0.09542
 C548 C 0.10558 0.91329 0.12324
 H549 H 0.16549 0.75170 0.32139
 H550 H 0.19545 0.86830 0.32123
 H551 H 0.22162 0.84451 0.38568
 H552 H 0.19154 0.72744 0.38585
 H553 H 0.07773 0.84706 0.19920
 H554 H 0.04806 0.87696 0.15079
 H555 H 0.09210 0.95408 0.06707
 H556 H 0.12161 0.92378 0.11594
   
