data_POSCAR
  _audit_creation_date              2014-09-24
  _audit_creation_method            'ToBaCCo'
  _symmetry_space_group_name_H-M    'P1'
  _symmetry_Int_Tables_number       1
  _symmetry_cell_setting            triclinic
  loop_
  _symmetry_equiv_pos_as_xyz
 x,y,z
_cell_length_a 36.1258
_cell_length_b 27.9749
_cell_length_c 11.1104
_cell_angle_alpha 90.463700
_cell_angle_beta 90.422500
_cell_angle_gamma 90.176100
loop_
  _atom_site_label
  _atom_site_type_symbol
  _atom_site_fract_x
  _atom_site_fract_y
  _atom_site_fract_z
C1 C 0.22550 0.21548 0.13315
 C2 C 0.22386 0.26486 0.16274
 C3 C 0.25477 0.28744 0.21522
 C4 C 0.28779 0.26257 0.23694
 C5 C 0.28998 0.21322 0.20730
 C6 C 0.25894 0.19099 0.15285
 H7 H 0.25958 0.15277 0.13631
 H8 H 0.25389 0.32564 0.23257
 C9 C 0.77818 0.28605 0.24549
 C10 C 0.77854 0.23628 0.21695
 C11 C 0.74572 0.20953 0.22325
 C12 C 0.71238 0.23051 0.25855
 C13 C 0.71175 0.27964 0.28745
 C14 C 0.74444 0.30660 0.28237
 H15 H 0.74272 0.34471 0.29970
 H16 H 0.74653 0.17134 0.20582
 C17 C 0.72144 0.72055 0.68107
 C18 C 0.72152 0.76941 0.71145
 C19 C 0.75463 0.79172 0.74676
 C20 C 0.78840 0.76656 0.74968
 C21 C 0.78810 0.71693 0.71958
 C22 C 0.75457 0.69482 0.68585
 H23 H 0.75400 0.65678 0.66617
 H24 H 0.75411 0.82971 0.76704
 C25 C 0.27945 0.78092 0.72859
 C26 C 0.28107 0.73165 0.75362
 C27 C 0.24915 0.70801 0.79253
 C28 C 0.21585 0.73258 0.81399
 C29 C 0.21515 0.78282 0.79617
 C30 C 0.24671 0.80608 0.75206
 H31 H 0.24568 0.84416 0.73485
 H32 H 0.25073 0.66992 0.80936
 O33 O 1.03224 -0.04139 0.07538
 O34 O 0.95632 0.04506 0.10940
 O35 O 0.95849 -0.04637 0.07016
 O36 O 1.02717 0.04923 0.11864
 O37 O 1.02959 0.06069 -0.07779
 O38 O 0.96004 -0.03452 -0.12604
 O39 O 0.95673 0.05730 -0.08663
 O40 O 1.03203 -0.03015 -0.12115
 Cu41 Cu 0.99341 -0.00032 0.11295
 Cu42 Cu 0.99459 0.01466 -0.12248
 C43 C 1.04566 -0.04964 -0.02820
 C44 C 0.94362 0.06603 0.01705
 C45 C 0.94691 -0.05597 -0.03556
 C46 C 1.04030 0.07089 0.02859
 O47 O 0.52643 0.44093 0.60860
 O48 O 0.45730 0.53596 0.65269
 O49 O 0.45359 0.44550 0.59830
 O50 O 0.52850 0.52852 0.67687
 O51 O 0.53362 0.54973 0.48683
 O52 O 0.45877 0.46411 0.40645
 O53 O 0.46161 0.55541 0.46136
 O54 O 0.53080 0.46107 0.41750
 Cu55 Cu 0.49070 0.48554 0.65273
 Cu56 Cu 0.49649 0.50961 0.42371
 C57 C 0.54113 0.43573 0.50572
 C58 C 0.44768 0.56204 0.56470
 C59 C 0.44323 0.44055 0.48967
 C60 C 0.54432 0.55279 0.59613
 O61 O 0.03816 0.46752 0.14588
 O62 O -0.03162 0.55471 0.05745
 O63 O -0.03415 0.46688 0.13277
 O64 O 0.04063 0.55140 0.04828
 O65 O 0.03932 0.52123 -0.13589
 O66 O -0.03303 0.43735 -0.05180
 O67 O -0.03302 0.52533 -0.12724
 O68 O 0.03905 0.43800 -0.03870
 Cu69 Cu 0.00318 0.51313 0.11427
 Cu70 Cu 0.00288 0.47756 -0.10670
 C71 C 0.05120 0.43847 0.06922
 C72 C -0.04464 0.55502 -0.04868
 C73 C -0.04616 0.43741 0.05356
 C74 C 0.05315 0.54973 -0.05857
 O75 O 0.53539 1.03488 0.39629
 O76 O 0.46688 0.94196 0.47751
 O77 O 0.46389 1.02891 0.39794
 O78 O 0.53921 0.94596 0.45572
 O79 O 0.54229 0.96892 0.64619
 O80 O 0.46554 1.05417 0.58639
 O81 O 0.47036 0.96586 0.66709
 O82 O 0.53726 1.05839 0.58623
 Cu83 Cu 0.50099 0.98528 0.41356
 Cu84 Cu 0.50388 1.01404 0.64068
 C85 C 0.54801 1.06259 0.47839
 C86 C 0.45707 0.93820 0.58679
 C87 C 0.45207 1.05635 0.48017
 C88 C 0.55428 0.94380 0.55875
 C89 C 1.19782 0.15402 0.00123
 C90 C 1.19419 0.18934 0.09162
 C91 C 1.15920 0.19607 0.14458
 C92 C 1.12880 0.16778 0.10957
 C93 C 1.13290 0.13292 0.01790
 C94 C 1.16740 0.12670 -0.03649
 C95 C 1.10285 0.10341 -0.01398
 C96 C 1.06941 0.10685 0.04877
 C97 C 1.06547 0.14158 0.13945
 C98 C 1.09475 0.17243 0.16827
 H99 H 1.15604 0.22117 0.21857
 H100 H 1.17108 0.09999 -0.10651
 H101 H 1.10611 0.07593 -0.08242
 H102 H 1.09115 0.19889 0.23894
 H103 H 1.22413 0.14820 -0.04258
 H104 H 1.03979 0.14445 0.18872
 C105 C 0.66878 0.70425 0.53896
 C106 C 0.68688 0.69514 0.64845
 C107 C 0.67229 0.66120 0.72716
 C108 C 0.63995 0.63602 0.69639
 C109 C 0.62213 0.64449 0.58475
 C110 C 0.63662 0.67905 0.50714
 C111 C 0.59048 0.61784 0.55231
 C112 C 0.57629 0.58323 0.63080
 C113 C 0.59379 0.57620 0.74278
 C114 C 0.62536 0.60216 0.77504
 H115 H 0.68622 0.65447 0.81215
 H116 H 0.62327 0.68632 0.42166
 H117 H 0.57710 0.62380 0.46611
 H118 H 0.63859 0.59538 0.86103
 H119 H 0.67987 0.73044 0.47762
 H120 H 0.58356 0.54969 0.80487
 C121 C -0.18330 0.35421 0.31282
 C122 C -0.19030 0.31594 0.23202
 C123 C -0.16624 0.30981 0.13387
 C124 C -0.13572 0.34002 0.11824
 C125 C -0.12895 0.37792 0.20032
 C126 C -0.15290 0.38460 0.29752
 C127 C -0.09892 0.40910 0.18185
 C128 C -0.07600 0.40299 0.08116
 C129 C -0.08278 0.36452 0.00162
 C130 C -0.11230 0.33339 0.01988
 H131 H -0.17225 0.28327 0.06504
 H132 H -0.14823 0.41346 0.36149
 H133 H -0.09410 0.43875 0.24342
 H134 H -0.11704 0.30440 -0.04375
 H135 H -0.20080 0.36009 0.39020
 H136 H -0.06535 0.35865 -0.07597
 C137 C 0.30917 0.82698 0.56355
 C138 C 0.31144 0.80714 0.67900
 C139 C 0.34374 0.81346 0.74798
 C140 C 0.37308 0.84111 0.70409
 C141 C 0.37050 0.86159 0.58824
 C142 C 0.33866 0.85357 0.51782
 C143 C 0.39915 0.89122 0.54699
 C144 C 0.42953 0.90205 0.62212
 C145 C 0.43211 0.88082 0.73596
 C146 C 0.40440 0.85004 0.77590
 H147 H 0.34543 0.79813 0.83714
 H148 H 0.33621 0.86877 0.42869
 H149 H 0.39688 0.90787 0.45948
 H150 H 0.40693 0.83438 0.86440
 H151 H 0.28447 0.82192 0.50901
 H152 H 0.45548 0.88849 0.79470
 C153 C -0.16786 0.65325 -0.34998
 C154 C -0.17939 0.68553 -0.26034
 C155 C -0.16133 0.68579 -0.14815
 C156 C -0.13190 0.65456 -0.12569
 C157 C -0.12044 0.62204 -0.21600
 C158 C -0.13856 0.62181 -0.32811
 C159 C -0.09151 0.58990 -0.19179
 C160 C -0.07401 0.58994 -0.07827
 C161 C -0.08554 0.62295 0.01001
 C162 C -0.11415 0.65490 -0.01346
 H163 H -0.17068 0.70978 -0.07761
 H164 H -0.13032 0.59702 -0.39832
 H165 H -0.08305 0.56452 -0.26038
 H166 H -0.12261 0.67964 0.05661
 H167 H -0.18171 0.65228 -0.43675
 H168 H -0.07265 0.62388 0.09832
 C169 C 0.33266 1.14831 0.15672
 C170 C 0.32115 1.18476 0.23634
 C171 C 0.33947 1.18946 0.34871
 C172 C 0.36766 1.15751 0.38188
 C173 C 0.37837 1.12108 0.30089
 C174 C 0.36113 1.11722 0.18809
 C175 C 0.40579 1.08848 0.33441
 C176 C 0.42269 1.09107 0.44882
 C177 C 0.41191 1.12740 0.52919
 C178 C 0.38469 1.16047 0.49581
 H179 H 0.33025 1.21576 0.41384
 H180 H 0.36927 1.08965 0.12457
 H181 H 0.41369 1.06068 0.27120
 H182 H 0.37683 1.18819 0.55922
 H183 H 0.31993 1.14413 0.06865
 H184 H 0.42469 1.13046 0.61738
 C185 C 1.15242 -0.19216 -0.27480
 C186 C 1.18110 -0.18857 -0.18950
 C187 C 1.17726 -0.15808 -0.08959
 C188 C 1.14434 -0.13250 -0.07254
 C189 C 1.11568 -0.13564 -0.15972
 C190 C 1.12006 -0.16544 -0.26084
 C191 C 1.08318 -0.10892 -0.14417
 C192 C 1.07849 -0.08041 -0.04073
 C193 C 1.10660 -0.07877 0.04712
 C194 C 1.13946 -0.10413 0.03066
 H195 H 1.19944 -0.15561 -0.02353
 H196 H 1.09837 -0.16841 -0.32837
 H197 H 1.06148 -0.11041 -0.21201
 H198 H 1.16110 -0.10145 0.09840
 H199 H 1.15521 -0.21557 -0.35232
 H200 H 1.10367 -0.05650 0.12668
 C201 C 0.65117 0.31179 0.21865
 C202 C 0.67667 0.30464 0.31239
 C203 C 0.66903 0.32214 0.42824
 C204 C 0.63603 0.34700 0.45017
 C205 C 0.61107 0.35560 0.35405
 C206 C 0.61869 0.33740 0.23903
 C207 C 0.57933 0.38315 0.37391
 C208 C 0.57180 0.40168 0.48893
 C209 C 0.59576 0.39103 0.58516
 C210 C 0.62779 0.36418 0.56577
 H211 H 0.68873 0.31624 0.50071
 H212 H 0.59974 0.34339 0.16467
 H213 H 0.56083 0.39096 0.29936
 H214 H 0.64644 0.35762 0.64061
 H215 H 0.65684 0.29828 0.12906
 H216 H 0.59057 0.40524 0.67439
 C217 C 0.85381 -0.21425 -0.28885
 C218 C 0.82128 -0.20803 -0.22117
 C219 C 0.82163 -0.17438 -0.12602
 C220 C 0.85355 -0.14761 -0.09903
 C221 C 0.88533 -0.15257 -0.17133
 C222 C 0.88531 -0.18639 -0.26513
 C223 C 0.91631 -0.12309 -0.14944
 C224 C 0.91629 -0.09027 -0.05300
 C225 C 0.88536 -0.08763 0.02239
 C226 C 0.85404 -0.11561 -0.00130
 H227 H 0.79728 -0.16988 -0.07064
 H228 H 0.90952 -0.19098 -0.32095
 H229 H 0.94030 -0.12546 -0.20724
 H230 H 0.83006 -0.11181 0.05598
 H231 H 0.85437 -0.23892 -0.36437
 H232 H 0.88484 -0.06234 0.09673
 C233 C 0.35098 0.29403 0.19251
 C234 C 0.32088 0.29116 0.27130
 C235 C 0.32152 0.31760 0.37913
 C236 C 0.35201 0.34686 0.40799
 C237 C 0.38172 0.35077 0.32629
 C238 C 0.38109 0.32379 0.21943
 C239 C 0.41143 0.38176 0.35259
 C240 C 0.41231 0.40774 0.46121
 C241 C 0.38329 0.40234 0.54358
 C242 C 0.35319 0.37256 0.51671
 H243 H 0.29830 0.31527 0.44012
 H244 H 0.40374 0.32599 0.15635
 H245 H 0.43402 0.38527 0.28952
 H246 H 0.33084 0.36972 0.58083
 H247 H 0.35072 0.27399 0.10869
 H248 H 0.38353 0.42205 0.62790
 C249 C 0.16228 0.72155 -0.05235
 C250 C 0.18462 0.70606 -0.14848
 C251 C 0.17622 0.66197 -0.20459
 C252 C 0.14592 0.63459 -0.16768
 C253 C 0.12377 0.65051 -0.07107
 C254 C 0.13226 0.69405 -0.01396
 C255 C 0.09358 0.62258 -0.03364
 C256 C 0.08488 0.57965 -0.09421
 C257 C 0.10707 0.56451 -0.19061
 C258 C 0.13741 0.59152 -0.22649
 H259 H 0.19260 0.64958 -0.28012
 H260 H 0.11590 0.70666 0.06115
 H261 H 0.07663 0.63450 0.04087
 H262 H 0.15418 0.57872 -0.30044
 H263 H 0.16904 0.75367 -0.00219
 H264 H 0.10123 0.53121 -0.23752
 C265 C 0.66715 1.16893 0.18154
 C266 C 0.67946 1.19949 0.27454
 C267 C 0.66182 1.19829 0.38644
 C268 C 0.63241 1.16673 0.40613
 C269 C 0.62042 1.13546 0.31299
 C270 C 0.63772 1.13726 0.20039
 C271 C 0.59205 1.10222 0.33536
 C272 C 0.57589 1.09967 0.45009
 C273 C 0.58754 1.13195 0.54054
 C274 C 0.61543 1.16518 0.51872
 H275 H 0.67183 1.22087 0.45951
 H276 H 0.62891 1.11372 0.12765
 H277 H 0.58329 1.07767 0.26470
 H278 H 0.62414 1.18919 0.59063
 H279 H 0.68056 1.16933 0.09468
 H280 H 0.57541 1.13117 0.62935
 C281 C 0.18025 0.29538 0.00503
 C282 C 0.19216 0.29511 0.12567
 C283 C 0.17356 0.32318 0.21096
 C284 C 0.14280 0.35049 0.17668
 C285 C 0.13073 0.35020 0.05527
 C286 C 0.14974 0.32261 -0.02992
 C287 C 0.10014 0.37791 0.02086
 C288 C 0.08160 0.40625 0.10616
 C289 C 0.09364 0.40572 0.22691
 C290 C 0.12390 0.37811 0.26182
 H291 H 0.18272 0.32303 0.30411
 H292 H 0.14101 0.32209 -0.12343
 H293 H 0.09128 0.37809 -0.07251
 H294 H 0.13272 0.37873 0.35521
 H295 H 0.19458 0.27427 -0.06206
 H296 H 0.07991 0.42718 0.29463
 C297 C 0.66126 0.79809 0.79413
 C298 C 0.68766 0.79848 0.70233
 C299 C 0.68197 0.82675 0.60061
 C300 C 0.65021 0.85505 0.59072
 C301 C 0.62415 0.85605 0.68533
 C302 C 0.62978 0.82697 0.78615
 C303 C 0.59295 0.88587 0.67676
 C304 C 0.58706 0.91315 0.57285
 C305 C 0.61260 0.91068 0.47829
 C306 C 0.64409 0.88230 0.48754
 H307 H 0.70224 0.82636 0.52906
 H308 H 0.60983 0.82649 0.85839
 H309 H 0.57299 0.88711 0.74912
 H310 H 0.66355 0.88152 0.41376
 H311 H 0.66525 0.77569 0.87215
 H312 H 0.60843 0.93142 0.39741
 C313 C 0.84025 0.20611 0.28535
 C314 C 0.81308 0.20932 0.19490
 C315 C 0.81813 0.18531 0.08478
 C316 C 0.85009 0.15810 0.06511
 C317 C 0.87684 0.15384 0.15799
 C318 C 0.87186 0.17840 0.26727
 C319 C 0.90778 0.12447 0.14069
 C320 C 0.91268 0.09991 0.03110
 C321 C 0.88677 0.10598 -0.06237
 C322 C 0.85555 0.13454 -0.04518
 H323 H 0.79717 0.18800 0.01475
 H324 H 0.89220 0.17580 0.33912
 H325 H 0.92792 0.12043 0.21271
 H326 H 0.83545 0.13765 -0.11757
 H327 H 0.83659 0.22432 0.37080
 H328 H 0.88997 0.08726 -0.14734
 C329 C 0.32959 0.67849 0.83955
 C330 C 0.31535 0.70333 0.74021
 C331 C 0.33217 0.69811 0.62747
 C332 C 0.36223 0.66697 0.61308
 C333 C 0.37574 0.64107 0.71290
 C334 C 0.35967 0.64777 0.82623
 C335 C 0.40435 0.60788 0.69710
 C336 C 0.41951 0.59974 0.58251
 C337 C 0.40661 0.62675 0.48465
 C338 C 0.37826 0.66010 0.49986
 H339 H 0.32092 0.71682 0.55048
 H340 H 0.36977 0.62843 0.90386
 H341 H 0.41416 0.58758 0.77359
 H342 H 0.36838 0.67987 0.42260
 H343 H 0.31694 0.68233 0.92719
 H344 H 0.41795 0.62150 0.39557
   
