data_POSCAR
  _audit_creation_date              2014-09-24
  _audit_creation_method            'ToBaCCo'
  _symmetry_space_group_name_H-M    'P1'
  _symmetry_Int_Tables_number       1
  _symmetry_cell_setting            triclinic
  loop_
  _symmetry_equiv_pos_as_xyz
 x,y,z
_cell_length_a 37.8707
_cell_length_b 37.1776
_cell_length_c 38.1172
_cell_angle_alpha 90.242300
_cell_angle_beta 89.951700
_cell_angle_gamma 90.043300
loop_
  _atom_site_label
  _atom_site_type_symbol
  _atom_site_fract_x
  _atom_site_fract_y
  _atom_site_fract_z
N1 N 0.58289 0.68011 0.60874
 N2 N 0.56932 0.66577 0.63718
 C3 C 0.54049 0.68464 0.64670
 C4 C 0.53561 0.71216 0.62282
 C5 C 0.56303 0.70837 0.59904
 H6 H 0.52410 0.67870 0.66917
 H7 H 0.56854 0.72533 0.57672
 Cu8 Cu 0.59096 0.62403 0.65897
 Cu9 Cu 0.62581 0.66171 0.58692
 Cu10 Cu 0.66497 0.58757 0.62590
 N11 N 0.61253 0.58190 0.68014
 N12 N 0.64215 0.56857 0.66778
 C13 C 0.65213 0.54063 0.68778
 C14 C 0.62716 0.53575 0.71408
 C15 C 0.60233 0.56256 0.70817
 H16 H 0.67548 0.52471 0.68290
 H17 H 0.57895 0.56815 0.72347
 N18 N 0.68392 0.61063 0.58335
 N19 N 0.66930 0.63914 0.56883
 C20 C 0.68845 0.64869 0.54057
 C21 C 0.71630 0.62490 0.53693
 C22 C 0.71255 0.60110 0.56449
 H23 H 0.68228 0.67093 0.52347
 H24 H 0.72965 0.57871 0.57050
 H25 H 0.62002 0.60922 0.60372
 H26 H 0.64718 0.63974 0.63181
 N27 N 0.91727 0.31788 0.10843
 N28 N 0.92948 0.33116 0.13800
 C29 C 0.95738 0.31147 0.14840
 C30 C 0.96337 0.28449 0.12375
 C31 C 0.93725 0.28964 0.09869
 H32 H 0.97257 0.31696 0.17178
 H33 H 0.93248 0.27371 0.07540
 Cu34 Cu 0.90835 0.37371 0.15920
 Cu35 Cu 0.87564 0.33740 0.08530
 Cu36 Cu 0.83663 0.41224 0.12384
 N37 N 0.88661 0.41589 0.18046
 N38 N 0.85824 0.43052 0.16675
 C39 C 0.84853 0.45900 0.18642
 C40 C 0.87226 0.46264 0.21382
 C41 C 0.89609 0.43480 0.20917
 H42 H 0.82628 0.47623 0.18078
 H43 H 0.91851 0.42868 0.22563
 N44 N 0.81876 0.38974 0.08040
 N45 N 0.83332 0.36099 0.06601
 C46 C 0.81463 0.35160 0.03734
 C47 C 0.78717 0.37574 0.03331
 C48 C 0.79067 0.39959 0.06104
 H49 H 0.82071 0.32905 0.02040
 H50 H 0.77358 0.42207 0.06701
 H51 H 0.88186 0.38959 0.10308
 H52 H 0.85295 0.35957 0.12973
 N53 N 0.41610 0.18258 -0.10872
 N54 N 0.42919 0.16865 -0.13767
 C55 C 0.45764 0.18792 -0.14747
 C56 C 0.46277 0.21530 -0.12326
 C57 C 0.43590 0.21100 -0.09898
 H58 H 0.47372 0.18222 -0.17026
 H59 H 0.43078 0.22763 -0.07620
 Cu60 Cu 0.40801 0.12649 -0.15956
 Cu61 Cu 0.37408 0.16322 -0.08614
 Cu62 Cu 0.33631 0.08749 -0.12408
 N63 N 0.38710 0.08342 -0.17997
 N64 N 0.35874 0.06867 -0.16630
 C65 C 0.34939 0.03991 -0.18576
 C66 C 0.37332 0.03625 -0.21301
 C67 C 0.39695 0.06432 -0.20844
 H68 H 0.32709 0.02267 -0.18021
 H69 H 0.41931 0.07063 -0.22495
 N70 N 0.31749 0.11051 -0.08134
 N71 N 0.33152 0.13968 -0.06722
 C72 C 0.31234 0.14926 -0.03892
 C73 C 0.28508 0.12482 -0.03486
 C74 C 0.28923 0.10060 -0.06219
 H75 H 0.31801 0.17208 -0.02218
 H76 H 0.27252 0.07776 -0.06799
 H77 H 0.38131 0.11095 -0.10342
 H78 H 0.35217 0.14027 -0.13054
 N79 N 0.08242 0.81875 0.39109
 N80 N 0.06995 0.83202 0.36173
 C81 C 0.04189 0.81235 0.35148
 C82 C 0.03607 0.78541 0.37600
 C83 C 0.06247 0.79055 0.40082
 H84 H 0.02649 0.81782 0.32827
 H85 H 0.06744 0.77463 0.42394
 Cu86 Cu 0.09105 0.87450 0.34064
 Cu87 Cu 0.12437 0.83814 0.41392
 Cu88 Cu 0.16338 0.91277 0.37555
 N89 N 0.11283 0.91656 0.31946
 N90 N 0.14140 0.93111 0.33303
 C91 C 0.15109 0.95951 0.31346
 C92 C 0.12717 0.96319 0.28627
 C93 C 0.10322 0.93545 0.29095
 H94 H 0.17349 0.97664 0.31903
 H95 H 0.08066 0.92936 0.27462
 N96 N 0.18159 0.89022 0.41863
 N97 N 0.16699 0.86157 0.43296
 C98 C 0.18591 0.85209 0.46135
 C99 C 0.21360 0.87605 0.46526
 C100 C 0.20997 0.89992 0.43775
 H101 H 0.17985 0.82959 0.47818
 H102 H 0.22715 0.92229 0.43178
 H103 H 0.11824 0.89035 0.39658
 H104 H 0.14670 0.86018 0.36939
 C105 C 0.09888 0.12486 0.15177
 C106 C 0.07260 0.15141 0.15159
 C107 C 0.07158 0.17724 0.12483
 C108 C 0.09732 0.17668 0.09830
 C109 C 0.12418 0.15075 0.09850
 C110 C 0.12490 0.12458 0.12523
 C111 C 0.09955 0.09854 0.17801
 C112 C 0.12605 0.07210 0.17828
 C113 C 0.15211 0.07219 0.15200
 C114 C 0.15163 0.09815 0.12540
 C115 C 0.17742 0.09809 0.09897
 C116 C 0.17706 0.12433 0.07253
 C117 C 0.15036 0.15055 0.07246
 H118 H 0.05256 0.15174 0.17193
 H119 H 0.09663 0.19681 0.07780
 H120 H 0.07964 0.09879 0.19846
 H121 H 0.17244 0.05167 0.15197
 H122 H 0.19813 0.07798 0.09923
 H123 H 0.14978 0.17058 0.05187
 C124 C 0.40058 0.87470 0.65077
 C125 C 0.42659 0.84788 0.65033
 C126 C 0.42689 0.82144 0.62386
 C127 C 0.40072 0.82192 0.59774
 C128 C 0.37433 0.84838 0.59801
 C129 C 0.37428 0.87495 0.62456
 C130 C 0.40041 0.90126 0.67700
 C131 C 0.37407 0.92788 0.67764
 C132 C 0.34788 0.92791 0.65154
 C133 C 0.34790 0.90175 0.62492
 C134 C 0.32196 0.90193 0.59869
 C135 C 0.32177 0.87542 0.57230
 C136 C 0.34798 0.84867 0.57218
 H137 H 0.44693 0.84781 0.67033
 H138 H 0.40066 0.80136 0.57748
 H139 H 0.42047 0.90096 0.69728
 H140 H 0.32772 0.94861 0.65176
 H141 H 0.30157 0.92238 0.59904
 H142 H 0.34808 0.82837 0.55167
 C143 C 0.90062 0.62521 0.34853
 C144 C 0.92675 0.65197 0.34850
 C145 C 0.92792 0.67793 0.37533
 C146 C 0.90249 0.67733 0.40214
 C147 C 0.87578 0.65118 0.40216
 C148 C 0.87491 0.62486 0.37536
 C149 C 0.89983 0.59873 0.32223
 C150 C 0.87350 0.57206 0.32219
 C151 C 0.84774 0.57209 0.34875
 C152 C 0.84837 0.59819 0.37543
 C153 C 0.82291 0.59805 0.40218
 C154 C 0.82341 0.62445 0.42869
 C155 C 0.84993 0.65091 0.42851
 H156 H 0.94656 0.65233 0.32794
 H157 H 0.90330 0.69755 0.42271
 H158 H 0.91952 0.59901 0.30156
 H159 H 0.82755 0.55139 0.34893
 H160 H 0.80234 0.57775 0.40213
 H161 H 0.85060 0.67106 0.44914
 C162 C 0.59910 0.37681 -0.15108
 C163 C 0.57249 0.35059 -0.15036
 C164 C 0.57219 0.32404 -0.12422
 C165 C 0.59883 0.32395 -0.09856
 C166 C 0.62580 0.34984 -0.09909
 C167 C 0.62599 0.37637 -0.12547
 C168 C 0.59932 0.40343 -0.17704
 C169 C 0.62645 0.42917 -0.17814
 C170 C 0.65332 0.42847 -0.15279
 C171 C 0.65309 0.40246 -0.12625
 C172 C 0.67946 0.40213 -0.10044
 C173 C 0.67937 0.37581 -0.07409
 C174 C 0.65258 0.34963 -0.07370
 H175 H 0.55176 0.35099 -0.16996
 H176 H 0.59885 0.30335 -0.07852
 H177 H 0.57872 0.40386 -0.19678
 H178 H 0.67411 0.44853 -0.15354
 H179 H 0.70031 0.42212 -0.10103
 H180 H 0.65231 0.32945 -0.05325
 C181 C -0.00413 0.23567 0.09456
 C182 C -0.00999 0.25796 0.12406
 C183 C 0.01155 0.25302 0.15385
 C184 C 0.03771 0.22653 0.15420
 C185 C 0.04356 0.20488 0.12459
 C186 C 0.02258 0.20976 0.09474
 H187 H -0.01960 0.23844 0.07091
 H188 H 0.00805 0.26905 0.17732
 H189 H 0.05374 0.22323 0.17749
 H190 H 0.02663 0.19319 0.07164
 C191 C 0.49878 0.75832 0.59209
 C192 C 0.50760 0.73994 0.62301
 C193 C 0.48954 0.74848 0.65417
 C194 C 0.46343 0.77503 0.65446
 C195 C 0.45457 0.79329 0.62353
 C196 C 0.47239 0.78458 0.59231
 H197 H 0.51201 0.75220 0.56761
 H198 H 0.49586 0.73504 0.67849
 H199 H 0.44989 0.78106 0.67882
 H200 H 0.46621 0.79845 0.56815
 C201 C 1.00384 0.73664 0.40520
 C202 C 1.00940 0.75887 0.37578
 C203 C 0.98756 0.75384 0.34618
 C204 C 0.96140 0.72730 0.34593
 C205 C 0.95587 0.70568 0.37545
 C206 C 0.97715 0.71067 0.40512
 H207 H 1.01954 0.73947 0.42872
 H208 H 0.99082 0.76985 0.32279
 H209 H 0.94514 0.72390 0.32278
 H210 H 0.97335 0.69413 0.42815
 C211 C 0.50017 0.26122 -0.09236
 C212 C 0.49076 0.24315 -0.12344
 C213 C 0.50835 0.25192 -0.15474
 C214 C 0.53463 0.27831 -0.15500
 C215 C 0.54414 0.29622 -0.12390
 C216 C 0.52674 0.28735 -0.09255
 H217 H 0.48731 0.25492 -0.06777
 H218 H 0.50156 0.23871 -0.17918
 H219 H 0.54784 0.28446 -0.17947
 H220 H 0.53343 0.30094 -0.06826
 C221 C 0.15808 0.00945 0.24970
 C222 C 0.12693 -0.00899 0.25858
 C223 C 0.09553 -0.00054 0.24083
 C224 C 0.09522 0.02595 0.21492
 C225 C 0.12639 0.04422 0.20594
 C226 C 0.15784 0.03563 0.22349
 H227 H 0.18275 0.00339 0.26270
 H228 H 0.07104 -0.01403 0.24722
 H229 H 0.07067 0.03188 0.20159
 H230 H 0.18218 0.04950 0.21719
 C231 C 0.59722 0.50474 -0.23752
 C232 C 0.62703 0.50951 -0.25926
 C233 C 0.65669 0.48732 -0.25363
 C234 C 0.65662 0.46159 -0.22701
 C235 C 0.62670 0.45681 -0.20588
 C236 C 0.59697 0.47844 -0.21144
 H237 H 0.57364 0.52072 -0.24082
 H238 H 0.68038 0.48999 -0.26925
 H239 H 0.67981 0.44503 -0.22318
 H240 H 0.57364 0.47522 -0.19530
 C241 C 0.40488 1.00017 0.74099
 C242 C 0.37353 1.00849 0.75902
 C243 C 0.34237 0.99008 0.75007
 C244 C 0.34251 0.96407 0.72349
 C245 C 0.37389 0.95563 0.70563
 C246 C 0.40510 0.97384 0.71470
 H247 H 0.42937 1.01367 0.74743
 H248 H 0.31774 0.99604 0.76329
 H249 H 0.31815 0.95022 0.71715
 H250 H 0.42959 0.96798 0.70115
 C251 C 0.90393 0.49919 0.25934
 C252 C 0.87249 0.49056 0.24164
 C253 C 0.84134 0.50892 0.25068
 C254 C 0.84160 0.53522 0.27701
 C255 C 0.87310 0.54400 0.29447
 C256 C 0.90427 0.52580 0.28533
 H257 H 0.92843 0.48575 0.25282
 H258 H 0.81665 0.50272 0.23770
 H259 H 0.81725 0.54904 0.28345
 H260 H 0.92885 0.53190 0.29860
 C261 C 0.23987 0.09264 0.00141
 C262 C 0.25745 0.12468 -0.00736
 C263 C 0.24837 0.15659 0.01036
 C264 C 0.22209 0.15650 0.03612
 C265 C 0.20470 0.12443 0.04501
 C266 C 0.21392 0.09248 0.02750
 H267 H 0.24644 0.06758 -0.01157
 H268 H 0.26123 0.18175 0.00403
 H269 H 0.21562 0.18144 0.04943
 H270 H 0.20073 0.06745 0.03374
 C271 C 0.75239 0.65656 0.49142
 C272 C 0.74384 0.62478 0.50936
 C273 C 0.76174 0.59287 0.50061
 C274 C 0.78744 0.59270 0.47426
 C275 C 0.79609 0.62453 0.45650
 C276 C 0.77842 0.65649 0.46542
 H277 H 0.73926 0.68162 0.49773
 H278 H 0.75557 0.56790 0.51377
 H279 H 0.80085 0.56777 0.46799
 H280 H 0.78447 0.68133 0.45194
 C281 C 0.75098 0.34389 -0.01224
 C282 C 0.75976 0.37579 0.00564
 C283 C 0.74202 0.40772 -0.00303
 C284 C 0.71615 0.40777 -0.02915
 C285 C 0.70716 0.37581 -0.04678
 C286 C 0.72475 0.34385 -0.03803
 H287 H 0.76398 0.31881 -0.00599
 H288 H 0.74838 0.43277 0.01009
 H289 H 0.70279 0.43271 -0.03528
 H290 H 0.71843 0.31891 -0.05141
 C291 C 0.25952 0.90767 0.50131
 C292 C 0.24127 0.87592 0.49267
 C293 C 0.24973 0.84402 0.51042
 C294 C 0.27604 0.84382 0.53610
 C295 C 0.29409 0.87560 0.54488
 C296 C 0.28551 0.90755 0.52733
 H297 H 0.25344 0.93272 0.48829
 H298 H 0.23636 0.81906 0.50418
 H299 H 0.28202 0.81889 0.54944
 H300 H 0.29922 0.93237 0.53348
   
