data_POSCAR
  _audit_creation_date              2014-09-24
  _audit_creation_method            'ToBaCCo'
  _symmetry_space_group_name_H-M    'P1'
  _symmetry_Int_Tables_number       1
  _symmetry_cell_setting            triclinic
  loop_
  _symmetry_equiv_pos_as_xyz
 x,y,z
_cell_length_a 35.5547
_cell_length_b 35.4638
_cell_length_c 15.3180
_cell_angle_alpha 89.898600
_cell_angle_beta 90.101800
_cell_angle_gamma 119.994600
loop_
  _atom_site_label
  _atom_site_type_symbol
  _atom_site_fract_x
  _atom_site_fract_y
  _atom_site_fract_z
C1 C 0.48158 0.96101 0.54746
 C2 C 0.47948 0.96111 0.45561
 C3 C 0.49833 1.00079 0.41050
 C4 C 0.51920 1.04048 0.45560
 C5 C 0.52127 1.04041 0.54765
 C6 C 0.50240 1.00065 0.59272
 H7 H 0.50386 1.00056 0.66357
 H8 H 0.49678 1.00070 0.33968
 C9 C 0.03887 0.52037 0.54342
 C10 C 0.03879 0.51809 0.45172
 C11 C -0.00078 0.49722 0.40655
 C12 C -0.04034 0.47850 0.45175
 C13 C -0.04024 0.48080 0.54362
 C14 C -0.00063 0.50168 0.58866
 H15 H -0.00053 0.50332 0.65940
 H16 H -0.00070 0.49567 0.33576
 C17 C 0.47913 0.51875 0.54929
 C18 C 0.48133 0.52089 0.45742
 C19 C 0.50214 0.50208 0.41253
 C20 C 0.52088 0.48121 0.45784
 C21 C 0.51869 0.47902 0.54970
 C22 C 0.49786 0.49784 0.59470
 H23 H 0.49631 0.49631 0.66554
 H24 H 0.50370 0.50362 0.34177
 O25 O 0.39905 0.65699 -0.07418
 O26 O 0.39724 0.72879 -0.10212
 C27 C 0.37713 0.74920 -0.11759
 O28 O 0.34374 0.74256 -0.07480
 O29 O 0.27215 0.66897 -0.10265
 C30 C 0.25184 0.62841 -0.11797
 O31 O 0.25843 0.60155 -0.07491
 O32 O 0.33185 0.60332 -0.10191
 C33 C 0.37232 0.62351 -0.11707
 O34 O 0.39716 0.66897 0.09907
 O35 O 0.39890 0.74252 0.07117
 C36 C 0.37208 0.74902 0.11407
 O37 O 0.33163 0.72865 0.09849
 O38 O 0.25827 0.65688 0.07059
 C39 C 0.25166 0.62342 0.11362
 O40 O 0.27203 0.60327 0.09852
 O41 O 0.34369 0.60154 0.07154
 C42 C 0.37700 0.62841 0.11462
 Cr43 Cr 0.39566 0.69809 -0.00154
 Cr44 Cr 0.30267 0.69805 -0.00209
 Cr45 Cr 0.30272 0.60486 -0.00170
 O46 O 0.33368 0.66700 -0.00179
 O47 O 0.60282 0.33117 -0.09942
 O48 O 0.60099 0.25753 -0.07179
 C49 C 0.62772 0.25090 -0.11469
 O50 O 0.66819 0.27122 -0.09927
 O51 O 0.74161 0.34299 -0.07194
 C52 C 0.74814 0.37641 -0.11504
 O53 O 0.72788 0.39665 -0.09965
 O54 O 0.65634 0.39854 -0.07183
 C55 C 0.62294 0.37174 -0.11474
 O56 O 0.60123 0.34316 0.07393
 O57 O 0.60291 0.27131 0.10155
 C58 C 0.62305 0.25093 0.11709
 O59 O 0.65636 0.25747 0.07413
 O60 O 0.72805 0.33101 0.10146
 C61 C 0.74846 0.37159 0.11665
 O62 O 0.74186 0.39844 0.07362
 O63 O 0.66852 0.39671 0.10145
 C64 C 0.62808 0.37653 0.11693
 Cr65 Cr 0.60442 0.30200 0.00106
 Cr66 Cr 0.69734 0.30189 0.00109
 Cr67 Cr 0.69743 0.39515 0.00090
 O68 O 0.66640 0.33301 0.00101
 C69 C 0.42828 0.85261 -0.30665
 C70 C 0.45051 0.83020 -0.28858
 C71 C 0.43339 0.79568 -0.22884
 C72 C 0.46338 0.92314 -0.40573
 C73 C 0.37126 0.80540 -0.20663
 C74 C 0.38840 0.83978 -0.26635
 C75 C 0.44739 0.89046 -0.36205
 C76 C 0.39385 0.78333 -0.18612
 H77 H 0.48151 0.84000 -0.31920
 H78 H 0.45160 0.77941 -0.21460
 H79 H 0.34069 0.79670 -0.17529
 H80 H 0.37098 0.85698 -0.27967
 C81 C 0.14892 0.57639 -0.30752
 C82 C 0.16165 0.54921 -0.26685
 C83 C 0.19587 0.56637 -0.20695
 C84 C 0.07875 0.54115 -0.40707
 C85 C 0.20562 0.63838 -0.22975
 C86 C 0.17126 0.62108 -0.28965
 C87 C 0.11125 0.55775 -0.36316
 C88 C 0.21788 0.61107 -0.18665
 H89 H 0.14451 0.51456 -0.28001
 H90 H 0.20451 0.54440 -0.17532
 H91 H 0.22184 0.67291 -0.21568
 H92 H 0.16154 0.64238 -0.32058
 C93 C 0.42436 0.57221 -0.30537
 C94 C 0.45145 0.61213 -0.26487
 C95 C 0.43430 0.62933 -0.20539
 C96 C 0.45956 0.53698 -0.40407
 C97 C 0.36245 0.56716 -0.22827
 C98 C 0.37976 0.54997 -0.28776
 C99 C 0.44298 0.55303 -0.36056
 C100 C 0.38967 0.60675 -0.18534
 H101 H 0.48604 0.62955 -0.27783
 H102 H 0.45619 0.65994 -0.17386
 H103 H 0.32799 0.54894 -0.21440
 H104 H 0.35852 0.51894 -0.31856
 C105 C 0.57585 0.14816 -0.30482
 C106 C 0.54869 0.16067 -0.26382
 C107 C 0.56578 0.19481 -0.20365
 C108 C 0.54079 0.07812 -0.40499
 C109 C 0.63768 0.20488 -0.22678
 C110 C 0.62044 0.17062 -0.28695
 C111 C 0.55731 0.11058 -0.36081
 C112 C 0.61040 0.21694 -0.18342
 H113 H 0.51411 0.14342 -0.27696
 H114 H 0.54384 0.20328 -0.17181
 H115 H 0.67214 0.22121 -0.21278
 H116 H 0.64173 0.16107 -0.31812
 C117 C 0.85036 0.42706 -0.30570
 C118 C 0.82812 0.44943 -0.28767
 C119 C 0.79402 0.43248 -0.22731
 C120 C 0.92006 0.46178 -0.40631
 C121 C 0.80384 0.37029 -0.20434
 C122 C 0.83781 0.38725 -0.26467
 C123 C 0.88776 0.44597 -0.36192
 C124 C 0.78192 0.39299 -0.18394
 H125 H 0.83771 0.48038 -0.31885
 H126 H 0.77785 0.45078 -0.21318
 H127 H 0.79533 0.33976 -0.17250
 H128 H 0.85489 0.36973 -0.27795
 C129 C 0.57182 0.42398 -0.30388
 C130 C 0.54958 0.37927 -0.28598
 C131 C 0.56669 0.36190 -0.22619
 C132 C 0.53681 0.45935 -0.40327
 C133 C 0.62881 0.43388 -0.20358
 C134 C 0.61168 0.45110 -0.26336
 C135 C 0.55275 0.44269 -0.35943
 C136 C 0.60622 0.38916 -0.18326
 H137 H 0.51859 0.35801 -0.31679
 H138 H 0.54848 0.32736 -0.21210
 H139 H 0.65937 0.45580 -0.17208
 H140 H 0.62911 0.48577 -0.27655
 C141 C 0.85159 0.42361 0.30573
 C142 C 0.83885 0.45079 0.26512
 C143 C 0.80457 0.43364 0.20537
 C144 C 0.92190 0.45887 0.40492
 C145 C 0.79478 0.36160 0.22817
 C146 C 0.82920 0.37891 0.28794
 C147 C 0.88932 0.44225 0.36120
 C148 C 0.78251 0.38892 0.18515
 H149 H 0.85604 0.48545 0.27822
 H150 H 0.79594 0.45561 0.17379
 H151 H 0.77851 0.32707 0.21416
 H152 H 0.83892 0.35760 0.31882
 C153 C 0.57235 0.14830 0.30788
 C154 C 0.61195 0.16071 0.26678
 C155 C 0.62894 0.19481 0.20640
 C156 C 0.53739 0.07824 0.40826
 C157 C 0.56720 0.20506 0.22949
 C158 C 0.55023 0.17083 0.28988
 C159 C 0.55334 0.11072 0.36402
 C160 C 0.60647 0.21701 0.18603
 H161 H 0.62927 0.14340 0.28002
 H162 H 0.65930 0.20320 0.17449
 H163 H 0.54908 0.22144 0.21539
 H164 H 0.51943 0.16136 0.32111
 C165 C 0.57654 0.42726 0.30758
 C166 C 0.62109 0.44958 0.28941
 C167 C 0.63823 0.43261 0.22906
 C168 C 0.54157 0.46210 0.40799
 C169 C 0.56633 0.37048 0.20637
 C170 C 0.54934 0.38747 0.26670
 C171 C 0.55805 0.44623 0.36372
 C172 C 0.61089 0.39314 0.18582
 H173 H 0.64240 0.48052 0.32048
 H174 H 0.67265 0.45087 0.21482
 H175 H 0.54436 0.33997 0.17464
 H176 H 0.51479 0.37000 0.28008
 C177 C 0.14868 0.57223 0.30261
 C178 C 0.16134 0.61212 0.26183
 C179 C 0.19556 0.62927 0.20208
 C180 C 0.07860 0.53721 0.40215
 C181 C 0.20543 0.56711 0.22520
 C182 C 0.17107 0.54998 0.28497
 C183 C 0.11106 0.55315 0.35822
 C184 C 0.21764 0.60667 0.18204
 H185 H 0.14415 0.62955 0.27483
 H186 H 0.20415 0.65985 0.17039
 H187 H 0.22171 0.54889 0.21133
 H188 H 0.16141 0.51897 0.31598
 C189 C 0.42374 0.85145 0.30485
 C190 C 0.45091 0.83891 0.26401
 C191 C 0.43388 0.80489 0.20362
 C192 C 0.45877 0.92129 0.40554
 C193 C 0.36200 0.79497 0.22614
 C194 C 0.37918 0.82914 0.28655
 C195 C 0.44225 0.88892 0.36113
 C196 C 0.38931 0.78289 0.18297
 H197 H 0.48546 0.85605 0.27749
 H198 H 0.45583 0.79638 0.17194
 H199 H 0.32758 0.77874 0.21182
 H200 H 0.35789 0.83872 0.31759
 C201 C 0.42753 0.57664 0.30604
 C202 C 0.44974 0.62132 0.28794
 C203 C 0.43283 0.63853 0.22731
 C204 C 0.46226 0.54160 0.40715
 C205 C 0.37100 0.56642 0.20419
 C206 C 0.38793 0.54936 0.26480
 C207 C 0.44643 0.55811 0.36255
 C208 C 0.39354 0.61113 0.18373
 H209 H 0.48054 0.64271 0.31929
 H210 H 0.45100 0.67306 0.21316
 H211 H 0.34063 0.54439 0.17219
 H212 H 0.37054 0.51471 0.27813
   
