data_POSCAR
  _audit_creation_date              2014-09-24
  _audit_creation_method            'ToBaCCo'
  _symmetry_space_group_name_H-M    'P1'
  _symmetry_Int_Tables_number       1
  _symmetry_cell_setting            triclinic
  loop_
  _symmetry_equiv_pos_as_xyz
 x,y,z
_cell_length_a 20.6885
_cell_length_b 20.0647
_cell_length_c 17.4847
_cell_angle_alpha 89.875200
_cell_angle_beta 89.957000
_cell_angle_gamma 88.876600
loop_
  _atom_site_label
  _atom_site_type_symbol
  _atom_site_fract_x
  _atom_site_fract_y
  _atom_site_fract_z
C1 C 0.12812 0.16529 0.19839
 N2 N 0.18418 0.12979 0.19536
 C3 C 0.23582 0.15397 0.15741
 N4 N 0.23127 0.21477 0.12215
 C5 C 0.17482 0.25081 0.12641
 N6 N 0.12368 0.22570 0.16466
 C7 C -0.19497 0.78393 0.31273
 N8 N -0.23546 0.83403 0.29085
 C9 C -0.26095 0.83631 0.21963
 N10 N -0.24397 0.78798 0.16807
 C11 C -0.20471 0.73565 0.18992
 N12 N -0.17935 0.73475 0.26218
 C13 C -0.16754 0.18889 -0.29058
 N14 N -0.21801 0.14893 -0.27572
 C15 C -0.25083 0.15482 -0.20860
 N16 N -0.23337 0.20124 -0.15613
 C17 C -0.18298 0.24164 -0.17132
 N18 N -0.15046 0.23515 -0.23865
 C19 C 0.16740 0.82725 -0.26357
 N20 N 0.22346 0.85288 -0.23833
 C21 C 0.25087 0.82987 -0.17296
 N22 N 0.22313 0.77988 -0.13309
 C23 C 0.16732 0.75354 -0.15855
 N24 N 0.13902 0.77802 -0.22324
 C25 C 0.19778 1.18322 0.73235
 N26 N 0.24456 1.15651 0.77790
 C27 C 0.25441 1.18189 0.84906
 N28 N 0.21779 1.23478 0.87361
 C29 C 0.17116 1.26152 0.82725
 N30 N 0.16183 1.23569 0.75696
 C31 C 0.87023 0.87082 0.80111
 N32 N 0.87858 0.80365 0.80256
 C33 C 0.83049 0.76520 0.83024
 N34 N 0.77462 0.79353 0.85606
 C35 C 0.76717 0.86065 0.85467
 N36 N 0.81500 0.89896 0.82777
 C37 C 0.20101 0.80218 1.27028
 N38 N 0.16457 0.75867 1.23190
 C39 C 0.18443 0.73325 1.16428
 N40 N 0.24180 0.75254 1.13387
 C41 C 0.27951 0.79646 1.17234
 N42 N 0.25847 0.82179 1.24061
 C43 C 0.81018 1.13426 1.23872
 N44 N 0.75720 1.13629 1.19401
 C45 C 0.74981 1.18253 1.13786
 N46 N 0.79673 1.22835 1.12637
 C47 C 0.85026 1.22737 1.17247
 N48 N 0.85623 1.18069 1.22900
 O49 O 0.56330 0.92478 0.89111
 O50 O 0.45716 0.93923 1.16420
 O51 O 0.64895 1.01111 1.08398
 O52 O 0.34989 0.94826 0.95068
 O53 O 0.58295 0.95142 1.15090
 O54 O 0.44804 0.92027 0.90858
 O55 O 0.41652 0.90281 1.05635
 O56 O 0.62258 0.93920 0.98730
 C57 C 0.61043 0.90738 0.92980
 C58 C 0.42161 0.89860 1.12796
 C59 C 0.63981 0.96923 1.13618
 C60 C 0.38717 0.91515 0.90253
 O61 O 0.44049 1.05251 0.87680
 O62 O 0.56492 1.08504 1.14087
 O63 O 0.65683 1.04774 0.92870
 O64 O 0.36653 1.01797 1.09754
 O65 O 0.44594 1.07031 1.15255
 O66 O 0.55811 1.05983 0.87890
 O67 O 0.38587 1.06763 0.97756
 O68 O 0.58978 1.11329 1.02295
 Co69 Co 0.50270 0.99074 0.90046
 Co70 Co 0.51235 1.01049 1.14180
 Co71 Co 0.59850 1.02477 0.99936
 Co72 Co 0.40954 0.98537 1.01224
 O73 O 0.50566 1.00415 1.02214
 C74 C 0.39594 1.08223 0.91045
 C75 C 0.59130 1.12517 1.09400
 C76 C 0.61933 1.06337 0.87050
 C77 C 0.38679 1.06189 1.14324
 O78 O 0.07328 0.45571 0.11955
 O79 O 0.02300 0.58099 -0.14951
 O80 O 0.02867 0.36830 -0.09341
 O81 O -0.00442 0.66977 0.06081
 O82 O 0.05528 0.46372 -0.14303
 O83 O 0.05009 0.58062 0.10907
 O84 O 0.05614 0.61625 -0.04102
 O85 O 0.07696 0.39603 0.01937
 C86 C 0.09860 0.40895 0.08305
 C87 C 0.06088 0.61579 -0.11174
 C88 C 0.06767 0.40327 -0.13183
 C89 C 0.03929 0.64422 0.10722
 O90 O -0.07429 0.55318 0.13694
 O91 O -0.06722 0.42917 -0.14436
 O92 O -0.02111 0.33595 0.06234
 O93 O -0.06570 0.63942 -0.08407
 O94 O -0.10011 0.54577 -0.12826
 O95 O -0.05248 0.42863 0.12734
 O96 O -0.10643 0.60429 0.03717
 O97 O -0.09202 0.38800 -0.03520
 Co98 Co -0.00218 0.50452 0.10963
 Co99 Co -0.02202 0.50483 -0.13151
 Co100 Co -0.00842 0.40166 -0.00452
 Co101 Co -0.02402 0.60238 -0.00043
 O102 O -0.01482 0.50288 -0.01350
 C103 C -0.11306 0.59322 0.10642
 C104 C -0.10079 0.39076 -0.10549
 C105 C -0.04754 0.36450 0.12219
 C106 C -0.10579 0.60756 -0.12370
 O107 O 1.06589 0.08515 0.38710
 O108 O 0.89695 0.06207 0.57005
 O109 O 0.91227 0.00980 0.34469
 O110 O 1.08844 0.07804 0.63560
 O111 O 0.85785 0.00121 0.45362
 O112 O 1.10044 0.09775 0.51585
 O113 O 0.98885 0.11305 0.55801
 O114 O 1.03028 0.00927 0.31282
 C115 C 1.04153 0.06911 0.32493
 C116 C 0.92887 0.11561 0.56865
 C117 C 0.86173 0.01974 0.38420
 C118 C 1.12383 0.10252 0.58202
 O119 O 1.14073 -0.03251 0.52230
 O120 O 0.90477 -0.11402 0.51270
 O121 O 1.04398 -0.11257 0.37681
 O122 O 0.98110 0.02829 0.66546
 O123 O 0.94409 -0.06073 0.62310
 O124 O 1.11644 -0.03845 0.38394
 O125 O 1.06788 -0.04255 0.60875
 O126 O 0.92301 -0.11137 0.39144
 Co127 Co 1.09744 0.02442 0.45498
 Co128 Co 0.90930 -0.02546 0.53559
 Co129 Co 0.98032 -0.04742 0.36734
 Co130 Co 1.02983 0.03389 0.57927
 O131 O 0.99973 -0.00783 0.48142
 C132 C 1.12110 -0.05979 0.58256
 C133 C 0.89943 -0.13932 0.44831
 C134 C 1.10209 -0.09828 0.38446
 C135 C 0.95696 -0.02599 0.67949
 N136 N 1.07836 0.14103 0.23343
 N137 N 1.03164 0.11684 0.26582
 N138 N 0.83609 -0.21029 0.37764
 N139 N 0.86430 -0.19971 0.43855
 N140 N 0.86519 0.18278 0.64574
 N141 N 0.89811 0.17764 0.58720
 N142 N 1.13272 -0.13999 0.67669
 N143 N 1.16040 -0.10466 0.62624
 N144 N 0.29210 1.12554 1.16941
 N145 N 0.34452 1.10153 1.18961
 N146 N 0.30852 0.84877 0.84458
 N147 N 0.36515 0.86277 0.85521
 N148 N 0.71183 0.89264 1.19764
 N149 N 0.69363 0.95016 1.18292
 N150 N 0.69569 1.12241 0.80008
 N151 N 0.64353 1.09418 0.80314
 N152 N 0.16508 0.31202 0.08592
 N153 N 0.13874 0.36086 0.12134
 N154 N -0.16342 0.29147 -0.11812
 N155 N -0.13508 0.34141 -0.14640
 N156 N 0.13727 0.70175 -0.11643
 N157 N 0.09906 0.66321 -0.15083
 N158 N -0.18015 0.68907 0.13377
 N159 N -0.15297 0.63453 0.15512
 N160 N 1.18900 0.16125 0.66322
 N161 N 1.17819 0.14273 0.59757
 N162 N 0.91559 -0.09068 0.77670
 N163 N 0.95622 -0.05083 0.75570
 N164 N 1.17737 -0.17144 0.33252
 N165 N 1.15176 -0.14826 0.39034
 N166 N 0.81171 0.09329 0.29700
 N167 N 0.80787 0.05588 0.35279
 N168 N 0.14742 0.32081 -0.15931
 N169 N 0.13015 0.37952 -0.15430
 N170 N -0.11047 0.27779 0.17300
 N171 N -0.07523 0.32599 0.18227
 N172 N -0.16213 0.70090 -0.16739
 N173 N -0.15640 0.63998 -0.16530
 N174 N 0.14240 0.69001 0.12385
 N175 N 0.08314 0.68768 0.14367
 N176 N 0.30260 1.15223 0.89771
 N177 N 0.35183 1.12348 0.86789
 N178 N 0.33420 0.82486 1.13437
 N179 N 0.37673 0.85837 1.16955
 N180 N 0.69310 1.17900 1.09121
 N181 N 0.64107 1.16462 1.12605
 N182 N 0.71130 0.89269 0.88453
 N183 N 0.65855 0.86413 0.89927
   
