data_POSCAR
  _audit_creation_date              2014-09-24
  _audit_creation_method            'ToBaCCo'
  _symmetry_space_group_name_H-M    'P1'
  _symmetry_Int_Tables_number       1
  _symmetry_cell_setting            triclinic
  loop_
  _symmetry_equiv_pos_as_xyz
 x,y,z
_cell_length_a 53.0047
_cell_length_b 52.9090
_cell_length_c 19.2311
_cell_angle_alpha 90.028000
_cell_angle_beta 90.159500
_cell_angle_gamma 119.177300
loop_
  _atom_site_label
  _atom_site_type_symbol
  _atom_site_fract_x
  _atom_site_fract_y
  _atom_site_fract_z
C1 C 0.16710 0.46566 0.48015
 C2 C 0.18023 0.46331 0.41867
 C3 C 0.20854 0.46712 0.42369
 C4 C 0.22418 0.47513 0.48725
 C5 C 0.21131 0.48042 0.54498
 C6 C 0.18267 0.47501 0.54302
 C7 C 0.25408 0.47880 0.49423
 C8 C 0.26513 0.47630 0.55997
 C9 C 0.29365 0.48145 0.56695
 C10 C 0.31090 0.48843 0.50773
 C11 C 0.29997 0.48879 0.44165
 C12 C 0.27199 0.48499 0.43543
 H13 H 0.14586 0.46380 0.47753
 H14 H 0.21777 0.46284 0.37824
 H15 H 0.22334 0.48798 0.59293
 H16 H 0.25170 0.46980 0.60583
 H17 H 0.33324 0.49348 0.51320
 H18 H 0.26439 0.48672 0.38448
 C19 C 0.54050 -0.29967 0.48720
 C20 C 0.54418 -0.28422 0.42488
 C21 C 0.54128 -0.25895 0.42779
 C22 C 0.53255 -0.25078 0.48972
 C23 C 0.52511 -0.26939 0.54707
 C24 C 0.53020 -0.29294 0.54774
 C25 C 0.53027 -0.22357 0.49593
 C26 C 0.53123 -0.21112 0.56208
 C27 C 0.52608 -0.18768 0.56898
 C28 C 0.52103 -0.17574 0.50961
 C29 C 0.52192 -0.18609 0.44291
 C30 C 0.52615 -0.21029 0.43670
 H31 H 0.54196 -0.31937 0.48701
 H32 H 0.54672 -0.24539 0.38225
 H33 H 0.51636 -0.26498 0.59320
 H34 H 0.53604 -0.21927 0.60889
 H35 H 0.51555 -0.15867 0.51632
 H36 H 0.52586 -0.21887 0.38569
 C37 C 1.28912 0.82772 0.48556
 C38 C 1.27338 0.81482 0.42489
 C39 C 1.24659 0.78929 0.43129
 C40 C 1.23541 0.77673 0.49742
 C41 C 1.25188 0.79104 0.55685
 C42 C 1.27865 0.81641 0.55169
 C43 C 1.20727 0.74856 0.50449
 C44 C 1.19298 0.73836 0.56957
 C45 C 1.16720 0.71151 0.57553
 C46 C 1.15512 0.69559 0.51429
 C47 C 1.16900 0.70480 0.45027
 C48 C 1.19493 0.73075 0.44579
 H49 H 1.31081 0.84565 0.48048
 H50 H 1.23423 0.78036 0.38433
 H51 H 1.24432 0.78249 0.60782
 H52 H 1.20091 0.75138 0.61588
 H53 H 1.13574 0.67470 0.51624
 H54 H 1.20570 0.73593 0.39616
 C55 C 0.84034 0.53219 0.49504
 C56 C 0.83163 0.54028 0.43407
 C57 C 0.80766 0.54509 0.43697
 C58 C 0.79160 0.54038 0.49945
 C59 C 0.80016 0.53064 0.55811
 C60 C 0.82460 0.52728 0.55638
 C61 C 0.76505 0.54369 0.50338
 C62 C 0.75445 0.54795 0.56788
 C63 C 0.72794 0.54830 0.57226
 C64 C 0.71308 0.54577 0.50959
 C65 C 0.72316 0.54153 0.44586
 C66 C 0.74886 0.54046 0.44292
 H67 H 0.85860 0.52828 0.49429
 H68 H 0.80181 0.55244 0.39034
 H69 H 0.78786 0.52523 0.60579
 H70 H 0.76714 0.55174 0.61463
 H71 H 0.69226 0.54488 0.50978
 H72 H 0.75510 0.53543 0.39355
 C73 C 0.48078 0.30927 0.49567
 C74 C 0.47783 0.29427 0.43339
 C75 C 0.47904 0.26825 0.43597
 C76 C 0.48524 0.25839 0.49896
 C77 C 0.49062 0.27535 0.55888
 C78 C 0.48756 0.30023 0.55855
 C79 C 0.48681 0.23090 0.50240
 C80 C 0.47998 0.21397 0.56408
 C81 C 0.48036 0.18736 0.56568
 C82 C 0.48718 0.17796 0.50360
 C83 C 0.49475 0.19487 0.44356
 C84 C 0.49515 0.22134 0.44330
 H85 H 0.48037 0.32954 0.49408
 H86 H 0.47508 0.25587 0.38855
 H87 H 0.49629 0.26866 0.60686
 H88 H 0.47291 0.22065 0.60978
 H89 H 0.48839 0.15812 0.50193
 H90 H 0.50168 0.23413 0.39623
 C91 C 0.67773 0.17422 0.47650
 C92 C 0.69565 0.18114 0.41835
 C93 C 0.72398 0.20470 0.42299
 C94 C 0.73394 0.22191 0.48453
 C95 C 0.71478 0.21463 0.54087
 C96 C 0.68734 0.19045 0.53759
 C97 C 0.76374 0.24766 0.49014
 C98 C 0.77751 0.25857 0.55562
 C99 C 0.80488 0.28381 0.56027
 C100 C 0.81796 0.29774 0.49782
 C101 C 0.80556 0.28670 0.43280
 C102 C 0.77836 0.26209 0.42943
 H103 H 0.65596 0.15605 0.47462
 H104 H 0.73807 0.20891 0.37892
 H105 H 0.72103 0.22721 0.58833
 H106 H 0.76759 0.24688 0.60272
 H107 H 0.83739 0.31858 0.49937
 H108 H 0.76856 0.25461 0.37900
 O109 O 0.97828 0.51488 -0.12041
 O110 O 1.02718 0.50616 0.17055
 O111 O 0.95021 0.49028 0.07335
 O112 O 1.04468 0.54848 -0.03645
 O113 O 0.99379 0.52000 0.10944
 O114 O 1.03041 0.52694 -0.13298
 O115 O 1.04504 0.53602 0.08383
 O116 O 0.94185 0.48459 -0.05470
 C117 C 0.95316 0.50569 -0.09713
 C118 C 1.04819 0.52978 0.14599
 C119 C 0.96748 0.51301 0.10649
 C120 C 1.04113 0.54991 -0.09977
 O121 O 1.01456 0.47252 -0.13374
 O122 O 0.97363 0.46904 0.15403
 O123 O 0.94759 0.43573 -0.04879
 O124 O 1.05189 0.49018 0.04734
 O125 O 1.01154 0.46193 0.09489
 O126 O 0.96290 0.46166 -0.13949
 O127 O 1.05340 0.50264 -0.07593
 O128 O 0.95585 0.44077 0.06968
 Co129 Co 0.99683 0.49373 -0.11980
 Co130 Co 1.00355 0.49151 0.09717
 Co131 Co 0.95281 0.46528 0.00910
 Co132 Co 1.04442 0.51679 0.00327
 O133 O 0.99788 0.49050 -0.00645
 C134 C 1.04055 0.48180 -0.11853
 C135 C 0.95677 0.44439 0.13331
 C136 C 0.94937 0.43738 -0.11283
 C137 C 1.03686 0.46800 0.08289
 O138 O 0.48707 0.46631 -0.12453
 O139 O 0.48858 0.51212 0.15491
 O140 O 0.50863 0.45192 0.05618
 O141 O 0.45206 0.50044 -0.04600
 O142 O 0.48099 0.46564 0.10345
 O143 O 0.47659 0.50740 -0.13791
 O144 O 0.45888 0.50054 0.07293
 O145 O 0.51863 0.45876 -0.06797
 C146 C 0.49653 0.44976 -0.10697
 C147 C 0.46361 0.50440 0.13611
 C148 C 0.48704 0.44604 0.09319
 C149 C 0.45274 0.49781 -0.10966
 O150 O 0.52988 0.54401 -0.12602
 O151 O 0.52637 0.49549 0.17347
 O152 O 0.56482 0.51374 -0.03819
 O153 O 0.50835 0.55421 0.06793
 O154 O 0.53867 0.54065 0.10592
 O155 O 0.54149 0.50308 -0.13247
 O156 O 0.50098 0.55346 -0.06122
 O157 O 0.55444 0.50455 0.08396
 Co158 Co 0.50871 0.50498 -0.11839
 Co159 Co 0.51035 0.50268 0.09944
 Co160 Co 0.53416 0.48406 0.00684
 Co161 Co 0.48255 0.52557 0.00779
 O162 O 0.50749 0.50442 -0.00485
 C163 C 0.52110 0.56106 -0.10609
 C164 C 0.54923 0.49643 0.14698
 C165 C 0.56505 0.51620 -0.10229
 C166 C 0.53132 0.55990 0.10094
 O167 O 0.54005 0.02808 -0.08639
 O168 O 0.48098 -0.03080 0.14059
 O169 O 0.54293 0.03646 0.03793
 O170 O 0.48564 -0.06251 -0.06618
 O171 O 0.51539 0.02103 0.12911
 O172 O 0.52337 -0.02230 -0.08766
 O173 O 0.48565 -0.05948 0.06512
 O174 O 0.53970 0.06740 -0.05752
 C175 C 0.54951 0.05471 -0.09830
 C176 C 0.48717 -0.05055 0.12623
 C177 C 0.54044 0.03288 0.10243
 C178 C 0.51073 -0.04904 -0.08984
 O179 O 0.47217 -0.03277 -0.14561
 O180 O 0.46997 0.02714 0.07242
 O181 O 0.48492 0.04120 -0.05253
 O182 O 0.43590 -0.06215 0.06194
 O183 O 0.43900 -0.02137 0.08363
 O184 O 0.48874 0.01906 -0.14114
 O185 O 0.43884 -0.05802 -0.06885
 O186 O 0.51217 0.05997 0.06001
 Co187 Co 0.50455 -0.00236 -0.10592
 Co188 Co 0.47742 -0.00124 0.09835
 Co189 Co 0.51308 0.03672 -0.00938
 Co190 Co 0.46408 -0.05530 -0.00230
 O191 O 0.48793 -0.00736 -0.00208
 C192 C 0.44620 -0.05044 -0.13038
 C193 C 0.48805 0.05257 0.08421
 C194 C 0.48044 0.03547 -0.11537
 C195 C 0.42516 -0.04796 0.08767
 C196 C 1.13563 0.44510 0.34752
 C197 C 1.12169 0.44663 0.28649
 C198 C 1.13828 0.46360 0.23010
 C199 C 1.16849 0.47646 0.23328
 C200 C 1.18225 0.47434 0.29357
 C201 C 1.16616 0.46002 0.35328
 C202 C 1.12447 0.46829 0.17278
 C203 C 1.09420 0.45602 0.17111
 C204 C 1.07756 0.43702 0.22487
 C205 C 1.09137 0.43244 0.28215
 C206 C 1.04735 0.42406 0.22228
 C207 C 1.03383 0.43182 0.17058
 C208 C 1.05020 0.45288 0.12067
 C209 C 1.08039 0.46376 0.11909
 H210 H 1.12253 0.43249 0.39087
 H211 H 1.18159 0.48915 0.19001
 H212 H 1.20562 0.48620 0.29492
 H213 H 1.13733 0.48239 0.13094
 H214 H 1.07855 0.41884 0.32472
 H215 H 1.03422 0.40904 0.26236
 H216 H 1.01062 0.42284 0.17284
 H217 H 1.09335 0.47994 0.08090
 C218 C 0.56070 0.68624 0.35878
 C219 C 0.55827 0.66946 0.29972
 C220 C 0.54293 0.67063 0.24087
 C221 C 0.53247 0.69041 0.23998
 C222 C 0.53511 0.70721 0.29880
 C223 C 0.54772 0.70418 0.36083
 C224 C 0.53732 0.65124 0.18521
 C225 C 0.54685 0.63064 0.18798
 C226 C 0.56404 0.63099 0.24470
 C227 C 0.56976 0.65047 0.30000
 C228 C 0.57405 0.61086 0.24687
 C229 C 0.56536 0.58917 0.19628
 C230 C 0.54640 0.58707 0.14249
 C231 C 0.53821 0.60871 0.13711
 H232 H 0.57227 0.68475 0.40372
 H233 H 0.52107 0.69199 0.19477
 H234 H 0.52483 0.72055 0.29704
 H235 H 0.52456 0.65141 0.14121
 H236 H 0.58201 0.64991 0.34467
 H237 H 0.58755 0.61106 0.28953
 H238 H 0.57205 0.57292 0.20194
 H239 H 0.52370 0.60749 0.09579
 C240 C 0.30219 -0.14263 0.35226
 C241 C 0.31908 -0.13010 0.29305
 C242 C 0.32030 -0.14794 0.24010
 C243 C 0.30217 -0.17807 0.24445
 C244 C 0.28457 -0.19044 0.30297
 C245 C 0.28571 -0.17297 0.35959
 C246 C 0.34019 -0.13536 0.18520
 C247 C 0.35835 -0.10511 0.18234
 C248 C 0.35500 -0.08738 0.23242
 C249 C 0.33560 -0.09995 0.28753
 C250 C 0.37187 -0.05726 0.22825
 C251 C 0.39319 -0.04468 0.17766
 C252 C 0.39858 -0.06191 0.13081
 C253 C 0.38043 -0.09223 0.13207
 H254 H 0.30226 -0.12861 0.39354
 H255 H 0.30229 -0.19214 0.20367
 H256 H 0.27211 -0.21381 0.30622
 H257 H 0.34205 -0.14909 0.14599
 H258 H 0.33404 -0.08626 0.32738
 H259 H 0.36919 -0.04339 0.26556
 H260 H 0.40654 -0.02135 0.17777
 H261 H 0.38412 -0.10577 0.09579
 C262 C 0.87628 0.55234 0.36377
 C263 C 0.88933 0.54706 0.30591
 C264 C 0.87192 0.52984 0.25035
 C265 C 0.84201 0.51971 0.25175
 C266 C 0.82921 0.52501 0.30953
 C267 C 0.84601 0.54050 0.36717
 C268 C 0.88447 0.52203 0.19583
 C269 C 0.91422 0.53104 0.19644
 C270 C 0.93185 0.54958 0.25006
 C271 C 0.91934 0.55757 0.30423
 C272 C 0.96158 0.55887 0.25017
 C273 C 0.97349 0.54852 0.20030
 C274 C 0.95596 0.52861 0.14920
 C275 C 0.92641 0.52076 0.14625
 H276 H 0.88952 0.56455 0.40762
 H277 H 0.82834 0.50668 0.20936
 H278 H 0.80591 0.51547 0.31088
 H279 H 0.87092 0.50807 0.15436
 H280 H 0.93280 0.57107 0.34641
 H281 H 0.97547 0.57330 0.29047
 H282 H 0.99624 0.55498 0.20404
 H283 H 0.91259 0.50551 0.10706
 C284 C 0.46117 0.32279 0.35810
 C285 C 0.46459 0.33979 0.29862
 C286 C 0.48394 0.34174 0.24579
 C287 C 0.49832 0.32551 0.25153
 C288 C 0.49485 0.30874 0.31069
 C289 C 0.47694 0.30778 0.36563
 C290 C 0.48950 0.36071 0.18947
 C291 C 0.47619 0.37807 0.18555
 C292 C 0.45574 0.37507 0.23648
 C293 C 0.44993 0.35583 0.29243
 C294 C 0.44242 0.39236 0.23229
 C295 C 0.45076 0.41384 0.18131
 C296 C 0.47252 0.41845 0.13315
 C297 C 0.48422 0.39952 0.13385
 H298 H 0.44703 0.32204 0.39960
 H299 H 0.51309 0.32659 0.21132
 H300 H 0.50746 0.29772 0.31504
 H301 H 0.50503 0.36279 0.15016
 H302 H 0.43485 0.35421 0.33250
 H303 H 0.42647 0.39018 0.27043
 H304 H 0.44132 0.42795 0.18212
 H305 H 0.50110 0.40280 0.09737
 C306 C 0.66539 0.13371 0.35687
 C307 C 0.64847 0.11807 0.29951
 C308 C 0.65042 0.13255 0.23639
 C309 C 0.67033 0.16225 0.23107
 C310 C 0.68667 0.17781 0.28906
 C311 C 0.68361 0.16392 0.35323
 C312 C 0.63155 0.11744 0.18100
 C313 C 0.61020 0.08826 0.18890
 C314 C 0.60896 0.07369 0.25156
 C315 C 0.62840 0.08852 0.30582
 C316 C 0.58731 0.04488 0.26044
 C317 C 0.56597 0.03114 0.20975
 C318 C 0.56618 0.04554 0.14844
 C319 C 0.58902 0.07383 0.13704
 H320 H 0.66318 0.12261 0.40573
 H321 H 0.67229 0.17373 0.18300
 H322 H 0.70042 0.20101 0.28477
 H323 H 0.63260 0.12872 0.13312
 H324 H 0.62692 0.07741 0.35431
 H325 H 0.58613 0.03336 0.30796
 H326 H 0.54879 0.00943 0.21918
 H327 H 0.58909 0.08529 0.09024
 C328 C 0.46379 0.14040 -0.37557
 C329 C 0.46359 0.12442 -0.31705
 C330 C 0.47491 0.13866 -0.25321
 C331 C 0.48427 0.16843 -0.24804
 C332 C 0.48420 0.18425 -0.30663
 C333 C 0.47540 0.17080 -0.37237
 C334 C 0.47752 0.12308 -0.19663
 C335 C 0.46907 0.09347 -0.20369
 C336 C 0.45618 0.07908 -0.26670
 C337 C 0.45329 0.09454 -0.32254
 C338 C 0.44762 0.04966 -0.27429
 C339 C 0.45367 0.03506 -0.22221
 C340 C 0.46804 0.04930 -0.16104
 C341 C 0.47464 0.07831 -0.15065
 H342 H 0.45502 0.12893 -0.42400
 H343 H 0.49264 0.17972 -0.19923
 H344 H 0.49324 0.20743 -0.30104
 H345 H 0.48710 0.13421 -0.14824
 H346 H 0.44422 0.08353 -0.37140
 H347 H 0.43740 0.03824 -0.32191
 H348 H 0.44810 0.01281 -0.23093
 H349 H 0.48598 0.08962 -0.10385
 C350 C 0.69468 0.55881 -0.35899
 C351 C 0.67711 0.55366 -0.30033
 C352 C 0.68017 0.53913 -0.24223
 C353 C 0.70207 0.53143 -0.24280
 C354 C 0.71927 0.53618 -0.30214
 C355 C 0.71489 0.54863 -0.36289
 C356 C 0.66067 0.53169 -0.18604
 C357 C 0.63765 0.53794 -0.18864
 C358 C 0.63543 0.55329 -0.24653
 C359 C 0.65544 0.56156 -0.30091
 C360 C 0.61219 0.55872 -0.25155
 C361 C 0.59031 0.54761 -0.20218
 C362 C 0.59160 0.53192 -0.14472
 C363 C 0.61587 0.52781 -0.13688
 H364 H 0.69205 0.57042 -0.40225
 H365 H 0.70507 0.52053 -0.19847
 H366 H 0.73435 0.52793 -0.30159
 H367 H 0.66264 0.51997 -0.14202
 H368 H 0.65314 0.57276 -0.34566
 H369 H 0.61010 0.57026 -0.29580
 H370 H 0.57157 0.55028 -0.21067
 H371 H 0.61671 0.51504 -0.09378
 C372 C 0.84948 0.31339 -0.37248
 C373 C 0.86365 0.33053 -0.31439
 C374 C 0.84766 0.32995 -0.25540
 C375 C 0.81768 0.31092 -0.25488
 C376 C 0.80350 0.29419 -0.31393
 C377 C 0.81901 0.29629 -0.37527
 C378 C 0.86185 0.34900 -0.19933
 C379 C 0.89167 0.36912 -0.20299
 C380 C 0.90746 0.36893 -0.26208
 C381 C 0.89352 0.34931 -0.31638
 C382 C 0.93677 0.38933 -0.26791
 C383 C 0.95020 0.41075 -0.21756
 C384 C 0.93501 0.41174 -0.15895
 C385 C 0.90581 0.39034 -0.15069
 H386 H 0.86251 0.31391 -0.41635
 H387 H 0.80497 0.30984 -0.20981
 H388 H 0.78019 0.28135 -0.31269
 H389 H 0.84954 0.34896 -0.15436
 H390 H 0.90573 0.34968 -0.36194
 H391 H 0.94907 0.38948 -0.31299
 H392 H 0.97247 0.42716 -0.22533
 H393 H 0.89380 0.39130 -0.10620
 C394 C 0.54113 -0.14652 -0.34759
 C395 C 0.53508 -0.13403 -0.28997
 C396 C 0.51145 -0.15143 -0.24641
 C397 C 0.49555 -0.18138 -0.25868
 C398 C 0.50182 -0.19366 -0.31608
 C399 C 0.52400 -0.17619 -0.36218
 C400 C 0.50340 -0.13842 -0.19343
 C401 C 0.51862 -0.10822 -0.18378
 C402 C 0.54330 -0.09119 -0.22477
 C403 C 0.55140 -0.10419 -0.27736
 C404 C 0.55885 -0.06119 -0.21447
 C405 C 0.54914 -0.04785 -0.16712
 C406 C 0.52358 -0.06418 -0.12915
 C407 C 0.50892 -0.09458 -0.13611
 H408 H 0.55824 -0.13296 -0.38321
 H409 H 0.47753 -0.19513 -0.22554
 H410 H 0.48825 -0.21652 -0.32687
 H411 H 0.48469 -0.15163 -0.16153
 H412 H 0.56977 -0.09090 -0.31019
 H413 H 0.57799 -0.04787 -0.24488
 H414 H 0.56100 -0.02448 -0.16275
 H415 H 0.48927 -0.10748 -0.10695
 C416 C 0.32387 0.46660 -0.36225
 C417 C 0.34180 0.47062 -0.30478
 C418 C 0.34156 0.48713 -0.24729
 C419 C 0.32232 0.49833 -0.24763
 C420 C 0.30505 0.49490 -0.30630
 C421 C 0.30646 0.47987 -0.36512
 C422 C 0.36144 0.49321 -0.19236
 C423 C 0.38222 0.48390 -0.19587
 C424 C 0.38184 0.46696 -0.25333
 C425 C 0.36128 0.45990 -0.30631
 C426 C 0.40301 0.45854 -0.25910
 C427 C 0.42533 0.46801 -0.21057
 C428 C 0.42646 0.48518 -0.15372
 C429 C 0.40433 0.49242 -0.14525
 H430 H 0.32481 0.45457 -0.40694
 H431 H 0.32164 0.51093 -0.20396
 H432 H 0.29185 0.50536 -0.30721
 H433 H 0.36164 0.50631 -0.14875
 H434 H 0.36148 0.44734 -0.35074
 H435 H 0.40305 0.44567 -0.30292
 H436 H 0.44228 0.46250 -0.21846
 H437 H 0.40536 0.50611 -0.10214
 C438 C 1.12460 0.67987 -0.35352
 C439 C 1.11280 0.66264 -0.29423
 C440 C 1.13085 0.66486 -0.23785
 C441 C 1.16016 0.68606 -0.23997
 C442 C 1.17186 0.70323 -0.29949
 C443 C 1.15459 0.69922 -0.35899
 C444 C 1.11951 0.64514 -0.18201
 C445 C 1.09041 0.62297 -0.18289
 C446 C 1.07222 0.62207 -0.23803
 C447 C 1.08339 0.64209 -0.29251
 C448 C 1.04343 0.60003 -0.24039
 C449 C 1.03317 0.57776 -0.19182
 C450 C 1.05109 0.57735 -0.13844
 C451 C 1.07951 0.60067 -0.13238
 H452 H 1.11027 0.67760 -0.39627
 H453 H 1.17436 0.68849 -0.19681
 H454 H 1.19494 0.71779 -0.30055
 H455 H 1.13358 0.64622 -0.13973
 H456 H 1.06948 0.64063 -0.33562
 H457 H 1.02923 0.59912 -0.28214
 H458 H 1.01143 0.55996 -0.19813
 H459 H 1.09366 0.60026 -0.09213
 C460 C 0.85955 0.53860 -0.34808
 C461 C 0.86978 0.53030 -0.29039
 C462 C 0.85402 0.50163 -0.26496
 C463 C 0.82752 0.48222 -0.29577
 C464 C 0.81746 0.49076 -0.35338
 C465 C 0.83387 0.51869 -0.38053
 C466 C 0.86572 0.49248 -0.21170
 C467 C 0.89339 0.51130 -0.18580
 C468 C 0.90846 0.54036 -0.20908
 C469 C 0.89623 0.54983 -0.26016
 C470 C 0.93645 0.55888 -0.18472
 C471 C 0.95044 0.54798 -0.14313
 C472 C 0.93632 0.51868 -0.12402
 C473 C 0.90725 0.50086 -0.14170
 H474 H 0.87187 0.56029 -0.36905
 H475 H 0.81506 0.46026 -0.27668
 H476 H 0.79736 0.47540 -0.37804
 H477 H 0.85413 0.47026 -0.19366
 H478 H 0.90814 0.57183 -0.27951
 H479 H 0.94816 0.58125 -0.20145
 H480 H 0.97278 0.56206 -0.12864
 H481 H 0.89644 0.47819 -0.12714
 C482 C 0.47379 0.32817 -0.36536
 C483 C 0.47831 0.34498 -0.30582
 C484 C 0.50193 0.35122 -0.26142
 C485 C 0.51923 0.33849 -0.27439
 C486 C 0.51387 0.32071 -0.33246
 C487 C 0.49174 0.31622 -0.38003
 C488 C 0.50838 0.37078 -0.20631
 C489 C 0.49133 0.38398 -0.19530
 C490 C 0.46627 0.37569 -0.23631
 C491 C 0.45989 0.35621 -0.29120
 C492 C 0.44882 0.38826 -0.22433
 C493 C 0.45758 0.41086 -0.17693
 C494 C 0.48398 0.42131 -0.14113
 C495 C 0.49991 0.40665 -0.14722
 H496 H 0.45584 0.32390 -0.39963
 H497 H 0.53723 0.34273 -0.24047
 H498 H 0.52829 0.31204 -0.34225
 H499 H 0.52724 0.37660 -0.17399
 H500 H 0.44133 0.35078 -0.32434
 H501 H 0.42920 0.38167 -0.25414
 H502 H 0.44446 0.42124 -0.17119
 H503 H 0.52009 0.41434 -0.11904
 C504 C 0.66282 0.15211 -0.37609
 C505 C 0.64434 0.13988 -0.31989
 C506 C 0.63249 0.15547 -0.28621
 C507 C 0.64035 0.18365 -0.30839
 C508 C 0.65898 0.19575 -0.36496
 C509 C 0.66967 0.17966 -0.39970
 C510 C 0.61251 0.14229 -0.23240
 C511 C 0.60414 0.11371 -0.21294
 C512 C 0.61677 0.09864 -0.24579
 C513 C 0.63694 0.11192 -0.29855
 C514 C 0.60842 0.07014 -0.22690
 C515 C 0.58695 0.05619 -0.17753
 C516 C 0.57366 0.07061 -0.14596
 C517 C 0.58270 0.09957 -0.16271
 H518 H 0.67152 0.13995 -0.40272
 H519 H 0.63165 0.19602 -0.28300
 H520 H 0.66440 0.21721 -0.38282
 H521 H 0.60296 0.15393 -0.20710
 H522 H 0.64625 0.10017 -0.32444
 H523 H 0.61802 0.05841 -0.25141
 H524 H 0.58043 0.03390 -0.16485
 H525 H 0.57245 0.11073 -0.13844
 C526 C 1.14052 0.46150 -0.38318
 C527 C 1.12764 0.46638 -0.32511
 C528 C 1.14408 0.49032 -0.28115
 C529 C 1.17355 0.50808 -0.29399
 C530 C 1.18647 0.50268 -0.35097
 C531 C 1.17001 0.47970 -0.39738
 C532 C 1.13063 0.49651 -0.22620
 C533 C 1.10093 0.47903 -0.21497
 C534 C 1.08491 0.45412 -0.25663
 C535 C 1.09838 0.44789 -0.31121
 C536 C 1.05533 0.43649 -0.24500
 C537 C 1.04129 0.44461 -0.19614
 C538 C 1.05660 0.47044 -0.15808
 C539 C 1.08669 0.48687 -0.16526
 H540 H 1.12763 0.44299 -0.41628
 H541 H 1.18653 0.52648 -0.26071
 H542 H 1.20906 0.51766 -0.36056
 H543 H 1.14305 0.51539 -0.19375
 H544 H 1.08588 0.42924 -0.34429
 H545 H 1.04282 0.41708 -0.27565
 H546 H 1.01818 0.43123 -0.19014
 H547 H 1.09868 0.50673 -0.13577
 C548 C 0.54354 0.67989 -0.37206
 C549 C 0.53820 0.66297 -0.31241
 C550 C 0.51286 0.65491 -0.27335
 C551 C 0.49429 0.66560 -0.29198
 C552 C 0.50033 0.68342 -0.35003
 C553 C 0.52462 0.69014 -0.39192
 C554 C 0.50611 0.63568 -0.21761
 C555 C 0.52448 0.62451 -0.20067
 C556 C 0.55090 0.63436 -0.23661
 C557 C 0.55762 0.65358 -0.29213
 C558 C 0.56948 0.62359 -0.21889
 C559 C 0.56073 0.60127 -0.17077
 C560 C 0.53332 0.58942 -0.13992
 C561 C 0.51600 0.60228 -0.15167
 H562 H 0.56296 0.68576 -0.40191
 H563 H 0.47488 0.65983 -0.26234
 H564 H 0.48501 0.69053 -0.36412
 H565 H 0.48610 0.62857 -0.18929
 H566 H 0.57739 0.66031 -0.32123
 H567 H 0.59008 0.63136 -0.24476
 H568 H 0.57481 0.59229 -0.16017
 H569 H 0.49491 0.59333 -0.12753
 C570 C 0.31708 -0.13971 -0.38669
 C571 C 0.33725 -0.12705 -0.33312
 C572 C 0.33524 -0.14331 -0.27315
 C573 C 0.31375 -0.17236 -0.26930
 C574 C 0.29522 -0.18553 -0.32564
 C575 C 0.29671 -0.16943 -0.38544
 C576 C 0.35540 -0.13055 -0.21931
 C577 C 0.37873 -0.10253 -0.22727
 C578 C 0.38169 -0.08696 -0.28925
 C579 C 0.36029 -0.09886 -0.34056
 C580 C 0.40649 -0.06018 -0.29984
 C581 C 0.42811 -0.04886 -0.24920
 C582 C 0.42442 -0.06326 -0.18570
 C583 C 0.39971 -0.09018 -0.17511
 H584 H 0.31808 -0.12637 -0.43041
 H585 H 0.31217 -0.18528 -0.22411
 H586 H 0.28048 -0.20853 -0.32261
 H587 H 0.35361 -0.14281 -0.17262
 H588 H 0.36230 -0.08675 -0.38768
 H589 H 0.40946 -0.04834 -0.34784
 H590 H 0.44760 -0.02873 -0.25940
 H591 H 0.39719 -0.10187 -0.12702
 C592 C 0.52555 -0.14223 0.38380
 C593 C 0.51822 -0.12923 0.33020
 C594 C 0.50508 -0.14506 0.26911
 C595 C 0.49865 -0.17402 0.26391
 C596 C 0.50422 -0.18746 0.31982
 C597 C 0.51757 -0.17179 0.38080
 C598 C 0.49783 -0.13193 0.21527
 C599 C 0.50194 -0.10384 0.22388
 C600 C 0.51374 -0.08860 0.28660
 C601 C 0.52272 -0.10102 0.33841
 C602 C 0.51560 -0.06154 0.29726
 C603 C 0.50598 -0.04959 0.24597
 C604 C 0.49582 -0.06378 0.18200
 C605 C 0.49373 -0.09101 0.17141
 H606 H 0.53688 -0.12929 0.42876
 H607 H 0.48826 -0.18659 0.21771
 H608 H 0.49726 -0.21031 0.31563
 H609 H 0.48812 -0.14387 0.16781
 H610 H 0.53212 -0.08920 0.38620
 H611 H 0.52397 -0.04990 0.34569
 H612 H 0.50670 -0.02913 0.25615
 H613 H 0.48509 -0.10253 0.12291
 C614 C 0.33542 0.47881 0.38064
 C615 C 0.35527 0.48406 0.32780
 C616 C 0.35649 0.50109 0.27005
 C617 C 0.33769 0.51273 0.26683
 C618 C 0.31878 0.50849 0.32185
 C619 C 0.31792 0.49192 0.37986
 C620 C 0.37704 0.50687 0.21790
 C621 C 0.39722 0.49705 0.22512
 C622 C 0.39626 0.48063 0.28417
 C623 C 0.37477 0.47354 0.33396
 C624 C 0.41736 0.47229 0.29370
 C625 C 0.43959 0.48055 0.24573
 C626 C 0.44038 0.49630 0.18643
 C627 C 0.41895 0.50414 0.17554
 H628 H 0.33428 0.46513 0.42383
 H629 H 0.33834 0.52591 0.22306
 H630 H 0.30553 0.51887 0.31989
 H631 H 0.37803 0.51984 0.17326
 H632 H 0.37401 0.46086 0.37907
 H633 H 0.41699 0.45988 0.33889
 H634 H 0.45596 0.47425 0.25437
 H635 H 0.41983 0.51655 0.12987
 C636 C 1.14865 0.65662 0.39360
 C637 C 1.13464 0.63790 0.33812
 C638 C 1.12941 0.64883 0.27584
 C639 C 1.13924 0.67861 0.26962
 C640 C 1.15294 0.69713 0.32577
 C641 C 1.15705 0.68607 0.38856
 C642 C 1.11355 0.62969 0.22208
 C643 C 1.10218 0.59977 0.23098
 C644 C 1.10811 0.58907 0.29284
 C645 C 1.12473 0.60825 0.34540
 C646 C 1.09623 0.55922 0.30260
 C647 C 1.07738 0.54003 0.25324
 C648 C 1.07060 0.55040 0.19288
 C649 C 1.08381 0.58026 0.18063
 H650 H 1.15236 0.64815 0.44161
 H651 H 1.13557 0.68742 0.22221
 H652 H 1.15947 0.71990 0.32104
 H653 H 1.10905 0.63793 0.17474
 H654 H 1.12883 0.59997 0.39324
 H655 H 1.10070 0.55072 0.34948
 H656 H 1.06762 0.51698 0.26284
 H657 H 1.07853 0.58827 0.13402
 C658 C 0.47826 0.15907 0.34898
 C659 C 0.48384 0.14579 0.29304
 C660 C 0.51233 0.15743 0.26722
 C661 C 0.53449 0.18308 0.29608
 C662 C 0.52867 0.19619 0.35227
 C663 C 0.50070 0.18372 0.37974
 C664 C 0.51831 0.14259 0.21520
 C665 C 0.49628 0.11601 0.19024
 C666 C 0.46762 0.10511 0.21440
 C667 C 0.46154 0.12029 0.26492
 C668 C 0.44568 0.07846 0.19013
 C669 C 0.45231 0.06191 0.14532
 C670 C 0.48089 0.07193 0.12355
 C671 C 0.50266 0.09941 0.14420
 H672 H 0.45664 0.14971 0.37044
 H673 H 0.55639 0.19243 0.27672
 H674 H 0.54609 0.21538 0.37591
 H675 H 0.54024 0.15104 0.19647
 H676 H 0.43971 0.11156 0.28464
 H677 H 0.42362 0.06994 0.20782
 H678 H 0.43517 0.04081 0.12943
 H679 H 0.52474 0.10720 0.12736
 C680 C 0.67580 0.51463 0.38682
 C681 C 0.65721 0.51106 0.33171
 C682 C 0.66811 0.52798 0.27097
 C683 C 0.69781 0.54748 0.26573
 C684 C 0.71619 0.55130 0.32184
 C685 C 0.70503 0.53550 0.38332
 C686 C 0.64896 0.52603 0.21815
 C687 C 0.61909 0.50829 0.22700
 C688 C 0.60846 0.49092 0.28732
 C689 C 0.62765 0.49193 0.33843
 C690 C 0.57868 0.47391 0.29743
 C691 C 0.55949 0.47532 0.25023
 C692 C 0.56982 0.49316 0.19153
 C693 C 0.59956 0.50879 0.17851
 H694 H 0.66732 0.50198 0.43384
 H695 H 0.70661 0.56050 0.21945
 H696 H 0.73885 0.56733 0.31833
 H697 H 0.65713 0.53936 0.17204
 H698 H 0.61944 0.47902 0.38520
 H699 H 0.57024 0.46042 0.34317
 H700 H 0.53650 0.46279 0.26013
 H701 H 0.60746 0.52258 0.13308
 C702 C 0.85151 0.31599 0.36860
 C703 C 0.86705 0.33525 0.31568
 C704 C 0.85224 0.33861 0.25830
 C705 C 0.82200 0.32259 0.25535
 C706 C 0.80653 0.30489 0.31103
 C707 C 0.82119 0.30202 0.36901
 C708 C 0.86780 0.35904 0.20699
 C709 C 0.89756 0.37754 0.21544
 C710 C 0.91215 0.37460 0.27403
 C711 C 0.89699 0.35268 0.32222
 C712 C 0.94138 0.39451 0.28522
 C713 C 0.95584 0.41764 0.23977
 C714 C 0.94159 0.42030 0.18108
 C715 C 0.91271 0.39991 0.16811
 H716 H 0.86315 0.31322 0.41174
 H717 H 0.81028 0.32499 0.21190
 H718 H 0.78319 0.29456 0.30982
 H719 H 0.85654 0.36169 0.16279
 H720 H 0.90816 0.35042 0.36716
 H721 H 0.95277 0.39269 0.33015
 H722 H 0.97824 0.43329 0.24996
 H723 H 0.90174 0.40225 0.12296
   
