data_POSCAR
  _audit_creation_date              2014-09-24
  _audit_creation_method            'ToBaCCo'
  _symmetry_space_group_name_H-M    'P1'
  _symmetry_Int_Tables_number       1
  _symmetry_cell_setting            triclinic
  loop_
  _symmetry_equiv_pos_as_xyz
 x,y,z
_cell_length_a 36.2929
_cell_length_b 34.6044
_cell_length_c 36.0549
_cell_angle_alpha 86.084200
_cell_angle_beta 85.880500
_cell_angle_gamma 94.018000
loop_
  _atom_site_label
  _atom_site_type_symbol
  _atom_site_fract_x
  _atom_site_fract_y
  _atom_site_fract_z
N1 N 0.57662 0.69331 0.58368
 N2 N 0.55977 0.67761 0.61517
 C3 C 0.53060 0.69792 0.62449
 C4 C 0.52894 0.72785 0.59726
 C5 C 0.55857 0.72391 0.57173
 H6 H 0.51201 0.69154 0.64928
 H7 H 0.56705 0.74260 0.54688
 Cu8 Cu 0.57882 0.63309 0.64120
 Cu9 Cu 0.62177 0.67409 0.56147
 Cu10 Cu 0.65654 0.59562 0.60931
 N11 N 0.59801 0.58920 0.66812
 N12 N 0.62922 0.57556 0.65612
 C13 C 0.63751 0.54691 0.68056
 C14 C 0.60975 0.54189 0.70950
 C15 C 0.58509 0.56935 0.70037
 H16 H 0.66173 0.53068 0.67702
 H17 H 0.56014 0.57532 0.71645
 N18 N 0.67989 0.62012 0.56147
 N19 N 0.66700 0.65034 0.54368
 C20 C 0.68934 0.66092 0.51269
 C21 C 0.71746 0.63601 0.51064
 C22 C 0.71054 0.61043 0.54197
 H23 H 0.68527 0.68473 0.49276
 H24 H 0.72705 0.58696 0.55022
 H25 H 0.61240 0.61739 0.58393
 H26 H 0.64023 0.65149 0.61074
 N27 N 0.91331 0.31017 0.09919
 N28 N 0.92493 0.32444 0.12947
 C29 C 0.95407 0.30545 0.13998
 C30 C 0.96153 0.27797 0.11461
 C31 C 0.93492 0.28207 0.08905
 H32 H 0.96915 0.31187 0.16386
 H33 H 0.93086 0.26540 0.06521
 Cu34 Cu 0.90147 0.36741 0.15120
 Cu35 Cu 0.87024 0.32810 0.07576
 Cu36 Cu 0.82718 0.40361 0.11508
 N37 N 0.87722 0.40980 0.17307
 N38 N 0.84792 0.42351 0.15902
 C39 C 0.83643 0.45225 0.17930
 C40 C 0.85995 0.45708 0.20749
 C41 C 0.88554 0.42963 0.20263
 H42 H 0.81308 0.46886 0.17357
 H43 H 0.90828 0.42431 0.21960
 N44 N 0.81039 0.37948 0.07062
 N45 N 0.82630 0.35020 0.05616
 C46 C 0.80771 0.33920 0.02715
 C47 C 0.77895 0.36290 0.02291
 C48 C 0.78155 0.38817 0.05087
 H49 H 0.81470 0.31586 0.01010
 H50 H 0.76321 0.41064 0.05684
 H51 H 0.87562 0.38415 0.09213
 H52 H 0.84459 0.34826 0.12298
 N53 N 0.41598 0.18295 -0.10864
 N54 N 0.43093 0.16642 -0.13722
 C55 C 0.46185 0.18782 -0.15107
 C56 C 0.46680 0.21934 -0.12982
 C57 C 0.43717 0.21525 -0.10305
 H58 H 0.47972 0.18066 -0.17452
 H59 H 0.43118 0.23460 -0.08146
 Cu60 Cu 0.40949 0.11796 -0.15323
 Cu61 Cu 0.36997 0.16151 -0.08131
 Cu62 Cu 0.32534 0.08179 -0.11656
 N63 N 0.38134 0.07752 -0.17618
 N64 N 0.34835 0.06364 -0.16196
 C65 C 0.33524 0.03610 -0.18323
 C66 C 0.36153 0.03238 -0.21233
 C67 C 0.39046 0.05921 -0.20691
 H68 H 0.30882 0.01956 -0.17754
 H69 H 0.41610 0.06525 -0.22417
 N70 N 0.30662 0.10451 -0.07094
 N71 N 0.32317 0.13536 -0.05787
 C72 C 0.30337 0.14416 -0.02692
 C73 C 0.27313 0.11733 -0.02002
 C74 C 0.27614 0.09262 -0.04846
 H75 H 0.31075 0.16788 -0.01019
 H76 H 0.25723 0.06803 -0.05267
 H77 H 0.37243 0.10440 -0.09396
 H78 H 0.35044 0.13745 -0.12768
 N79 N 0.09369 0.80119 0.40924
 N80 N 0.08227 0.81790 0.37878
 C81 C 0.05325 0.79603 0.36816
 C82 C 0.04567 0.76396 0.39364
 C83 C 0.07203 0.76851 0.41942
 H84 H 0.03834 0.80348 0.34412
 H85 H 0.07592 0.74915 0.44338
 Cu86 Cu 0.10604 0.86701 0.35639
 Cu87 Cu 0.13664 0.82212 0.43280
 Cu88 Cu 0.17465 0.91302 0.39805
 N89 N 0.12919 0.91727 0.33622
 N90 N 0.15676 0.93455 0.35202
 C91 C 0.16782 0.96838 0.33243
 C92 C 0.14573 0.97278 0.30294
 C93 C 0.12147 0.93982 0.30624
 H94 H 0.18970 0.98871 0.33964
 H95 H 0.10001 0.93273 0.28799
 N96 N 0.19442 0.88321 0.43967
 N97 N 0.18013 0.84840 0.45266
 C98 C 0.20001 0.83525 0.48035
 C99 C 0.22821 0.86313 0.48512
 C100 C 0.22375 0.89316 0.45879
 H101 H 0.19421 0.80752 0.49610
 H102 H 0.24100 0.91999 0.45346
 H103 H 0.12695 0.87827 0.41777
 H104 H 0.16218 0.85600 0.38714
 N105 N 0.12206 0.13995 0.14621
 N106 N 0.38444 0.88723 0.62740
 N107 N 0.88429 0.60790 0.36228
 N108 N 0.62672 0.38712 -0.12286
 C109 C -0.00289 0.22986 0.08379
 C110 C -0.01029 0.25183 0.11468
 C111 C 0.01109 0.24691 0.14565
 C112 C 0.03875 0.22050 0.14588
 C113 C 0.04610 0.19931 0.11439
 C114 C 0.02517 0.20423 0.08354
 C115 C 0.07402 0.17324 0.11444
 C116 C 0.09402 0.16736 0.14597
 C117 C 0.08617 0.18796 0.17740
 C118 C 0.05898 0.21463 0.17727
 H119 H 0.00586 0.26274 0.17011
 H120 H 0.03037 0.18810 0.05921
 H121 H 0.07982 0.15692 0.09036
 H122 H 0.05362 0.23045 0.20177
 H123 H -0.01817 0.23276 0.05923
 H124 H 0.10146 0.18359 0.20187
 C125 C 0.49645 0.77908 0.56273
 C126 C 0.50231 0.75839 0.59646
 C127 C 0.48292 0.76741 0.62955
 C128 C 0.45827 0.79687 0.62906
 C129 C 0.45249 0.81738 0.59496
 C130 C 0.47164 0.80819 0.56195
 C131 C 0.42789 0.84692 0.59452
 C132 C 0.40933 0.85651 0.62780
 C133 C 0.41537 0.83605 0.66154
 C134 C 0.43954 0.80639 0.66218
 H135 H 0.48747 0.75210 0.65586
 H136 H 0.46754 0.82361 0.53556
 H137 H 0.42349 0.86287 0.56848
 H138 H 0.44366 0.79100 0.68858
 H139 H 0.51078 0.77254 0.53680
 H140 H 0.40109 0.84295 0.68739
 C141 C 1.00954 0.70674 0.42469
 C142 C 1.01762 0.73361 0.39344
 C143 C 0.99706 0.72930 0.36200
 C144 C 0.96940 0.69887 0.36172
 C145 C 0.96120 0.67285 0.39364
 C146 C 0.98143 0.67702 0.42490
 C147 C 0.93298 0.64300 0.39369
 C148 C 0.91355 0.63823 0.36187
 C149 C 0.92239 0.66353 0.32993
 C150 C 0.94990 0.69388 0.32993
 H151 H 1.00292 0.74888 0.33724
 H152 H 0.97558 0.65721 0.44956
 H153 H 0.92625 0.62316 0.41820
 H154 H 0.95594 0.71339 0.30510
 H155 H 1.02423 0.70892 0.44960
 H156 H 0.90745 0.66008 0.30529
 C157 C 0.51676 0.25921 -0.16967
 C158 C 0.49735 0.25034 -0.13463
 C159 C 0.50759 0.27094 -0.10421
 C160 C 0.53709 0.29978 -0.10865
 C161 C 0.55620 0.30864 -0.14411
 C162 C 0.54578 0.28825 -0.17442
 C163 C 0.58555 0.33757 -0.14863
 C164 C 0.59647 0.35745 -0.11806
 C165 C 0.57759 0.34818 -0.08285
 C166 C 0.54802 0.31972 -0.07819
 H167 H 0.49314 0.26406 -0.07695
 H168 H 0.56014 0.29465 -0.20179
 H169 H 0.60029 0.34435 -0.17577
 H170 H 0.53377 0.31326 -0.05079
 H171 H 0.50925 0.24401 -0.19360
 H172 H 0.58554 0.36338 -0.05904
 C173 C 0.18077 0.02828 0.26456
 C174 C 0.14729 0.00583 0.27447
 C175 C 0.11530 0.01520 0.25709
 C176 C 0.11668 0.04661 0.23015
 C177 C 0.15066 0.06856 0.21989
 C178 C 0.18251 0.05920 0.23731
 C179 C 0.15221 0.09942 0.19236
 C180 C 0.12012 0.10901 0.17532
 C181 C 0.08634 0.08758 0.18624
 C182 C 0.08465 0.05649 0.21329
 H183 H 0.08921 -0.00156 0.26490
 H184 H 0.20876 0.07578 0.22987
 H185 H 0.17824 0.11616 0.18417
 H186 H 0.05834 0.04010 0.22091
 H187 H 0.20581 0.02150 0.27744
 H188 H 0.06142 0.09450 0.17321
 C189 C 0.57453 0.50985 -0.23484
 C190 C 0.60725 0.51525 -0.25880
 C191 C 0.63743 0.49352 -0.25018
 C192 C 0.63506 0.46743 -0.21838
 C193 C 0.60179 0.46196 -0.19516
 C194 C 0.57175 0.48329 -0.20364
 C195 C 0.59918 0.43536 -0.16377
 C196 C 0.62969 0.41477 -0.15483
 C197 C 0.66291 0.42092 -0.17754
 C198 C 0.66552 0.44682 -0.20925
 H199 H 0.66320 0.49730 -0.26753
 H200 H 0.54606 0.47952 -0.18607
 H201 H 0.57364 0.43082 -0.14600
 H202 H 0.69134 0.45076 -0.22660
 H203 H 0.55048 0.52545 -0.24031
 H204 H 0.68659 0.40509 -0.17096
 C205 C 0.32508 0.98807 0.74927
 C206 C 0.35947 1.00512 0.75780
 C207 C 0.39194 0.99560 0.73787
 C208 C 0.39015 0.96918 0.71010
 C209 C 0.35540 0.95227 0.70176
 C210 C 0.32305 0.96200 0.72142
 C211 C 0.35364 0.92566 0.67417
 C212 C 0.38621 0.91541 0.65505
 C213 C 0.42060 0.93232 0.66356
 C214 C 0.42258 0.95908 0.69077
 H215 H 0.41871 1.00810 0.74436
 H216 H 0.29618 0.94934 0.71538
 H217 H 0.32709 0.91235 0.66793
 H218 H 0.44946 0.97173 0.69681
 H219 H 0.29960 0.99510 0.76388
 H220 H 0.44593 0.92482 0.64895
 C221 C 0.82484 0.50179 0.24619
 C222 C 0.85830 0.48563 0.23625
 C223 C 0.89024 0.49709 0.25382
 C224 C 0.88886 0.52448 0.28076
 C225 C 0.85497 0.54028 0.29074
 C226 C 0.82313 0.52872 0.27331
 C227 C 0.85356 0.56754 0.31781
 C228 C 0.88569 0.57960 0.33472
 C229 C 0.91930 0.56399 0.32434
 C230 C 0.92085 0.53654 0.29773
 H231 H 0.91635 0.48528 0.24612
 H232 H 0.79693 0.54055 0.28059
 H233 H 0.82765 0.57982 0.32541
 H234 H 0.94708 0.52480 0.29037
 H235 H 0.79977 0.49326 0.23333
 H236 H 0.94429 0.57282 0.33720
 C237 C 0.22458 0.07948 0.02325
 C238 C 0.24398 0.11520 0.01108
 C239 C 0.23518 0.14879 0.02862
 C240 C 0.20713 0.14680 0.05775
 C241 C 0.18808 0.11062 0.06999
 C242 C 0.19704 0.07716 0.05259
 C243 C 0.16026 0.10853 0.09928
 C244 C 0.15079 0.14221 0.11621
 C245 C 0.16947 0.17811 0.10355
 C246 C 0.19758 0.18039 0.07471
 H247 H 0.24964 0.17658 0.01919
 H248 H 0.18269 0.04921 0.06159
 H249 H 0.14557 0.08085 0.10868
 H250 H 0.21177 0.20839 0.06561
 H251 H 0.23103 0.05314 0.01042
 H252 H 0.16252 0.20431 0.11638
 C253 C 0.76080 0.67199 0.46092
 C254 C 0.74841 0.63695 0.48147
 C255 C 0.76570 0.60292 0.47391
 C256 C 0.79489 0.60385 0.44603
 C257 C 0.80740 0.63941 0.42590
 C258 C 0.79017 0.67327 0.43354
 C259 C 0.83688 0.64050 0.39841
 C260 C 0.85371 0.60642 0.39029
 C261 C 0.84079 0.57112 0.41000
 C262 C 0.81172 0.56984 0.43779
 H263 H 0.75609 0.57563 0.48926
 H264 H 0.79939 0.70074 0.41833
 H265 H 0.84659 0.66773 0.38299
 H266 H 0.80244 0.54231 0.45284
 H267 H 0.74815 0.69865 0.46639
 H268 H 0.85364 0.54465 0.40417
 C269 C 0.74129 0.32581 -0.02018
 C270 C 0.75104 0.36109 -0.00499
 C271 C 0.73393 0.39460 -0.01656
 C272 C 0.70750 0.39294 -0.04309
 C273 C 0.69746 0.35713 -0.05773
 C274 C 0.71454 0.32377 -0.04612
 C275 C 0.67063 0.35535 -0.08383
 C276 C 0.65422 0.38903 -0.09601
 C277 C 0.66481 0.42458 -0.08185
 C278 C 0.69106 0.42651 -0.05539
 H279 H 0.74159 0.42207 -0.00540
 H280 H 0.70725 0.29612 -0.05712
 H281 H 0.66275 0.32798 -0.09508
 H282 H 0.69852 0.45422 -0.04461
 H283 H 0.75389 0.29955 -0.01153
 H284 H 0.65229 0.45074 -0.09097
 C285 C 0.26439 0.82520 0.52973
 C286 C 0.25689 0.86113 0.51235
 C287 C 0.27686 0.89512 0.52132
 C288 C 0.30373 0.89329 0.54738
 C289 C 0.31101 0.85698 0.56459
 C290 C 0.29123 0.82313 0.55553
 C291 C 0.33777 0.85514 0.59072
 C292 C 0.35728 0.88918 0.60011
 C293 C 0.34981 0.92514 0.58288
 C294 C 0.32332 0.92720 0.55670
 H295 H 0.27120 0.92311 0.50854
 H296 H 0.29650 0.79504 0.56842
 H297 H 0.34315 0.82735 0.60418
 H298 H 0.31812 0.95530 0.54379
 H299 H 0.24980 0.79848 0.52317
 H300 H 0.36473 0.95163 0.58961
   
