data_POSCAR
  _audit_creation_date              2014-09-24
  _audit_creation_method            'ToBaCCo'
  _symmetry_space_group_name_H-M    'P1'
  _symmetry_Int_Tables_number       1
  _symmetry_cell_setting            triclinic
  loop_
  _symmetry_equiv_pos_as_xyz
 x,y,z
_cell_length_a 49.0342
_cell_length_b 27.9215
_cell_length_c 21.9498
_cell_angle_alpha 90.019200
_cell_angle_beta 89.859700
_cell_angle_gamma 89.911500
loop_
  _atom_site_label
  _atom_site_type_symbol
  _atom_site_fract_x
  _atom_site_fract_y
  _atom_site_fract_z
C1 C 0.68639 0.31449 0.49970
 C2 C 0.69788 0.29969 0.55459
 C3 C 0.72206 0.27282 0.55450
 C4 C 0.73583 0.26156 0.49928
 C5 C 0.72376 0.27792 0.44435
 C6 C 0.69912 0.30330 0.44471
 C7 C 0.76228 0.23319 0.49896
 C8 C 0.77440 0.21714 0.44371
 C9 C 0.79911 0.19182 0.44367
 C10 C 0.81177 0.18045 0.49856
 C11 C 0.80020 0.19496 0.55352
 C12 C 0.77603 0.22171 0.55392
 H13 H 0.66743 0.33464 0.49964
 H14 H 0.72948 0.26099 0.59814
 H15 H 0.73297 0.27169 0.40047
 H16 H 0.76516 0.22365 0.40001
 H17 H 0.83078 0.16043 0.49860
 H18 H 0.76867 0.23323 0.59780
 C19 C 0.18660 0.81429 0.50198
 C20 C 0.19721 0.79706 0.55670
 C21 C 0.22121 0.76974 0.55660
 C22 C 0.23593 0.76150 0.50194
 C23 C 0.22507 0.78068 0.44732
 C24 C 0.20025 0.80555 0.44729
 C25 C 0.26216 0.73312 0.50183
 C26 C 0.27293 0.71377 0.44711
 C27 C 0.29769 0.68880 0.44681
 C28 C 0.31139 0.68015 0.50124
 C29 C 0.30089 0.69748 0.55610
 C30 C 0.27692 0.72492 0.55635
 H31 H 0.16763 0.83440 0.50182
 H32 H 0.22791 0.75495 0.59950
 H33 H 0.23554 0.77688 0.40428
 H34 H 0.26243 0.71749 0.40422
 H35 H 0.33035 0.65998 0.50077
 H36 H 0.27028 0.73979 0.59933
 C37 C 0.31115 0.31851 -0.49956
 C38 C 0.30060 0.30093 -0.55404
 C39 C 0.27661 0.27379 -0.55376
 C40 C 0.26183 0.26613 -0.49902
 C41 C 0.27264 0.28565 -0.44460
 C42 C 0.29745 0.31036 -0.44484
 C43 C 0.23553 0.23816 -0.49869
 C44 C 0.22471 0.21902 -0.44395
 C45 C 0.19980 0.19445 -0.44362
 C46 C 0.18612 0.18596 -0.49825
 C47 C 0.19674 0.20320 -0.55298
 C48 C 0.22075 0.23026 -0.55313
 H49 H 0.33012 0.33847 -0.49972
 H50 H 0.26999 0.25878 -0.59656
 H51 H 0.26211 0.28228 -0.40156
 H52 H 0.23533 0.22267 -0.40115
 H53 H 0.16712 0.16607 -0.49828
 H54 H 0.22738 0.24504 -0.59611
 C55 C -0.18801 0.81962 -0.50095
 C56 C -0.20105 0.80999 -0.55595
 C57 C -0.22584 0.78508 -0.55630
 C58 C -0.23732 0.76692 -0.50158
 C59 C -0.22310 0.77616 -0.44657
 C60 C -0.19913 0.80336 -0.44634
 C61 C -0.26367 0.73874 -0.50186
 C62 C -0.27806 0.72914 -0.44708
 C63 C -0.30208 0.70209 -0.44728
 C64 C -0.31308 0.68629 -0.50219
 C65 C -0.29984 0.69630 -0.55697
 C66 C -0.27501 0.72106 -0.55685
 H67 H -0.16905 0.83967 -0.50056
 H68 H -0.23577 0.78051 -0.59971
 H69 H -0.23004 0.76242 -0.40334
 H70 H -0.27123 0.74253 -0.40365
 H71 H -0.33206 0.66636 -0.50231
 H72 H -0.26502 0.72587 -0.60022
 O73 O -0.03697 0.91939 0.11513
 O74 O -0.06722 0.96068 0.05507
 C75 C -0.06145 0.93162 0.09916
 O76 O 0.03879 1.08730 0.10694
 O77 O 0.06913 1.04193 0.05148
 C78 C 0.06329 1.07439 0.09171
 O79 O -0.03777 1.08225 0.11196
 O80 O -0.06792 1.03932 0.05336
 C81 C -0.06223 1.06934 0.09650
 O82 O 0.03913 0.91450 0.10897
 O83 O 0.06921 0.95928 0.05244
 C84 C 0.06358 0.92755 0.09358
 Zr85 Zr 0.00097 0.93948 0.07675
 O86 O 0.00207 0.93177 0.17249
 O87 O -0.00001 0.86435 0.06568
 Zr88 Zr 0.00071 1.06104 0.07644
 O89 O 0.00329 1.06369 0.17264
 O90 O -0.00249 1.13663 0.07288
 O91 O -0.02323 1.00029 0.08889
 O92 O 0.02435 1.00040 0.08806
 O93 O 0.03914 0.91259 -0.10611
 O94 O 0.06929 0.95827 -0.05107
 C95 C 0.06358 0.92561 -0.09105
 O96 O -0.03699 1.08144 -0.11370
 O97 O -0.06724 1.03968 -0.05401
 C98 C -0.06146 1.06906 -0.09778
 O99 O 0.03933 1.08555 -0.10822
 O100 O 0.06939 1.04064 -0.05192
 C101 C 0.06378 1.07249 -0.09288
 O102 O -0.03697 0.91745 -0.11252
 O103 O -0.06719 0.96019 -0.05375
 C104 C -0.06143 0.93030 -0.09703
 Zr105 Zr 0.00095 0.93899 -0.07588
 O106 O 0.00405 0.93585 -0.17198
 O107 O -0.00195 0.86340 -0.07130
 Zr108 Zr 0.00099 1.06053 -0.07651
 O109 O 0.00392 1.06459 -0.17253
 O110 O -0.00211 1.13610 -0.07129
 Zr111 Zr -0.03992 1.00010 0.00035
 Zr112 Zr 0.04168 1.00013 0.00023
 O113 O 0.02447 0.99964 -0.08763
 O114 O -0.02316 0.99977 -0.08830
 O115 O 0.02562 0.93010 0.00052
 O116 O -0.02316 1.06943 -0.00011
 O117 O -0.02320 0.93066 0.00070
 O118 O 0.02544 1.07014 -0.00010
 H119 H 0.03629 1.00074 0.12438
 H120 H -0.03580 1.09715 -0.00029
 H121 H 0.03645 0.99930 -0.12404
 H122 H -0.03587 0.90302 0.00101
 H123 H 0.01389 1.14884 0.05161
 H124 H 0.01527 1.14838 -0.05470
 H125 H -0.00801 1.03936 -0.18933
 H126 H -0.00912 0.95922 -0.18868
 H127 H 0.01387 0.85167 -0.04765
 H128 H -0.00045 0.85078 0.10736
 H129 H 0.00283 0.96444 0.18961
 H130 H -0.01072 1.04170 0.18905
 O131 O 0.46222 0.41742 0.11093
 O132 O 0.43189 0.46000 0.05230
 C133 C 0.43771 0.42993 0.09535
 O134 O 0.53836 0.58583 0.10736
 O135 O 0.56857 0.54103 0.05079
 C136 C 0.56284 0.57299 0.09170
 O137 O 0.46169 0.58016 0.11335
 O138 O 0.43172 0.53812 0.05341
 C139 C 0.43728 0.56735 0.09743
 O140 O 0.53872 0.41320 0.10579
 O141 O 0.56869 0.45871 0.04990
 C142 C 0.56312 0.42644 0.09042
 Zr143 Zr 0.50047 0.43874 0.07489
 O144 O 0.50322 0.43452 0.17091
 O145 O 0.49758 0.36317 0.06953
 Zr146 Zr 0.50012 0.56038 0.07625
 O147 O 0.50301 0.56416 0.17225
 O148 O 0.49670 0.63592 0.07197
 O149 O 0.47624 0.49932 0.08799
 O150 O 0.52377 0.49960 0.08676
 O151 O 0.53859 0.41420 -0.10965
 O152 O 0.56866 0.45935 -0.05377
 C153 C 0.56302 0.42723 -0.09444
 O154 O 0.46231 0.58280 -0.11341
 O155 O 0.43229 0.54009 -0.05437
 C156 C 0.43792 0.57011 -0.09760
 O157 O 0.53840 0.58703 -0.10797
 O158 O 0.56860 0.54163 -0.05270
 C159 C 0.56286 0.57399 -0.09296
 O160 O 0.46192 0.41928 -0.11442
 O161 O 0.43183 0.46127 -0.05420
 C162 C 0.43747 0.43198 -0.09819
 Zr163 Zr 0.50031 0.43962 -0.07819
 O164 O 0.50323 0.43646 -0.17429
 O165 O 0.49724 0.36403 -0.07436
 Zr166 Zr 0.50020 0.56129 -0.07681
 O167 O 0.50298 0.56568 -0.17283
 O168 O 0.49701 0.63681 -0.07063
 Zr169 Zr 0.45969 0.49981 -0.00062
 Zr170 Zr 0.54102 0.50015 -0.00126
 O171 O 0.52372 0.50057 -0.08905
 O172 O 0.47618 0.50048 -0.08946
 O173 O 0.52502 0.43003 -0.00193
 O174 O 0.47614 0.56934 -0.00003
 O175 O 0.47647 0.43043 -0.00155
 O176 O 0.52476 0.57017 -0.00032
 H177 H 0.53568 0.49943 0.12314
 H178 H 0.46335 0.59685 0.00044
 H179 H 0.53565 0.50080 -0.12553
 H180 H 0.46382 0.40278 -0.00183
 H181 H 0.51378 0.64842 0.05395
 H182 H 0.51418 0.64892 -0.05275
 H183 H 0.49110 0.54037 -0.18963
 H184 H 0.49019 0.46010 -0.19086
 H185 H 0.51416 0.35171 -0.05550
 H186 H 0.51464 0.35114 0.05080
 H187 H 0.49049 0.45861 0.18783
 H188 H 0.49097 0.53903 0.18902
 C189 C 0.31444 0.31217 0.38985
 C190 C 0.32677 0.32390 0.34468
 C191 C 0.34243 0.34013 0.29316
 C192 C 0.34198 0.38871 0.27717
 C193 C 0.35951 0.40592 0.23190
 C194 C 0.37757 0.37462 0.20237
 C195 C 0.37747 0.32578 0.21710
 C196 C 0.35993 0.30856 0.26244
 C197 C 0.39786 0.39342 0.16145
 C198 C 0.41565 0.40982 0.12978
 H199 H 0.32873 0.41354 0.30104
 H200 H 0.35960 0.44383 0.22133
 H201 H 0.39154 0.30134 0.19497
 H202 H 0.36062 0.27102 0.27483
 C203 C -0.18884 0.82378 0.39109
 C204 C -0.17659 0.83597 0.34602
 C205 C -0.16030 0.85076 0.29482
 C206 C -0.15870 0.89936 0.27945
 C207 C -0.14016 0.91465 0.23507
 C208 C -0.12312 0.88141 0.20595
 C209 C -0.12528 0.83262 0.21999
 C210 C -0.14383 0.81732 0.26438
 C211 C -0.10194 0.89795 0.16571
 C212 C -0.08366 0.91275 0.13420
 H213 H -0.17110 0.92558 0.30319
 H214 H -0.13850 0.95250 0.22491
 H215 H -0.11205 0.80666 0.19809
 H216 H -0.14468 0.77971 0.27639
 C217 C 0.68744 0.68234 0.38668
 C218 C 0.67542 0.67080 0.34111
 C219 C 0.65961 0.65680 0.28888
 C220 C 0.66037 0.60931 0.26835
 C221 C 0.64252 0.59419 0.22262
 C222 C 0.62383 0.62648 0.19723
 C223 C 0.62365 0.67436 0.21641
 C224 C 0.64151 0.68948 0.26214
 C225 C 0.60311 0.60925 0.15640
 C226 C 0.58504 0.59353 0.12512
 H227 H 0.67407 0.58362 0.28908
 H228 H 0.64264 0.55699 0.20859
 H229 H 0.60910 0.69954 0.19757
 H230 H 0.64056 0.72618 0.27808
 C231 C 0.18305 1.19188 0.39090
 C232 C 0.17113 1.18043 0.34521
 C233 C 0.15618 1.16477 0.29254
 C234 C 0.15730 1.11656 0.27495
 C235 C 0.14056 1.09983 0.22811
 C236 C 0.12265 1.13124 0.19857
 C237 C 0.12209 1.17976 0.21494
 C238 C 0.13884 1.19650 0.26184
 C239 C 0.10284 1.11255 0.15664
 C240 C 0.08527 1.09573 0.12490
 H241 H 0.17045 1.09160 0.29874
 H242 H 0.14091 1.06212 0.21640
 H243 H 0.10807 1.20423 0.19292
 H244 H 0.13765 1.23376 0.27542
 C245 C 0.68532 0.31181 -0.39207
 C246 C 0.67345 0.32373 -0.34630
 C247 C 0.65819 0.33929 -0.29376
 C248 C 0.64119 0.30709 -0.26286
 C249 C 0.62386 0.32349 -0.21658
 C250 C 0.62349 0.37216 -0.20101
 C251 C 0.64113 0.40408 -0.23056
 C252 C 0.65844 0.38768 -0.27683
 C253 C 0.60312 0.39027 -0.15963
 C254 C 0.58521 0.40650 -0.12801
 H255 H 0.64066 0.26968 -0.27593
 H256 H 0.61012 0.29859 -0.19446
 H257 H 0.64081 0.44188 -0.21935
 H258 H 0.67132 0.41299 -0.30074
 C259 C 0.18424 0.80793 -0.39007
 C260 C 0.17227 0.81936 -0.34425
 C261 C 0.15721 0.83505 -0.29155
 C262 C 0.15792 0.88340 -0.27450
 C263 C 0.14102 0.90011 -0.22771
 C264 C 0.12332 0.86857 -0.19770
 C265 C 0.12318 0.81992 -0.21350
 C266 C 0.14011 0.80318 -0.26034
 C267 C 0.10333 0.88724 -0.15587
 C268 C 0.08566 0.90415 -0.12418
 H269 H 0.17086 0.90846 -0.29870
 H270 H 0.14104 0.93790 -0.21643
 H271 H 0.10934 0.79532 -0.19111
 H272 H 0.13924 0.76581 -0.27350
 C273 C 0.31402 0.68642 -0.39106
 C274 C 0.32637 0.67449 -0.34611
 C275 C 0.34211 0.65795 -0.29498
 C276 C 0.34397 0.60872 -0.28326
 C277 C 0.36158 0.59177 -0.23817
 C278 C 0.37744 0.62394 -0.20453
 C279 C 0.37506 0.67329 -0.21507
 C280 C 0.35741 0.69027 -0.26023
 C281 C 0.39787 0.60586 -0.16354
 C282 C 0.41575 0.58987 -0.13189
 H283 H 0.33245 0.58335 -0.31025
 H284 H 0.36348 0.55353 -0.23087
 H285 H 0.38744 0.69846 -0.18974
 H286 H 0.35632 0.72836 -0.26929
 C287 C -0.18644 1.18204 -0.39052
 C288 C -0.17425 1.16986 -0.34549
 C289 C -0.15845 1.15408 -0.29415
 C290 C -0.14197 1.18665 -0.26266
 C291 C -0.12400 1.17029 -0.21783
 C292 C -0.12246 1.12131 -0.20438
 C293 C -0.13957 1.08894 -0.23453
 C294 C -0.15753 1.10529 -0.27934
 C295 C -0.10170 1.10373 -0.16396
 C296 C -0.08362 1.08832 -0.13247
 H297 H -0.14236 1.22437 -0.27414
 H298 H -0.11071 1.19556 -0.19514
 H299 H -0.13837 1.05094 -0.22485
 H300 H -0.17000 1.07973 -0.30380
 C301 C 0.68441 0.68984 -0.39110
 C302 C 0.67247 0.67808 -0.34544
 C303 C 0.65727 0.66262 -0.29286
 C304 C 0.63956 0.69446 -0.26319
 C305 C 0.62241 0.67800 -0.21669
 C306 C 0.62293 0.62965 -0.19963
 C307 C 0.64126 0.59814 -0.22800
 C308 C 0.65840 0.61459 -0.27449
 C309 C 0.60276 0.61131 -0.15808
 C310 C 0.58496 0.59491 -0.12643
 H311 H 0.63837 0.73156 -0.27736
 H312 H 0.60812 0.70256 -0.19554
 H313 H 0.64162 0.56056 -0.21568
 H314 H 0.67185 0.58956 -0.29743
 C315 C 0.18809 1.18032 -0.39019
 C316 C 0.17641 1.16835 -0.34424
 C317 C 0.16083 1.15440 -0.29152
 C318 C 0.16147 1.10690 -0.27103
 C319 C 0.14364 1.09199 -0.22494
 C320 C 0.12510 1.12454 -0.19920
 C321 C 0.12511 1.17240 -0.21827
 C322 C 0.14294 1.18729 -0.26432
 C323 C 0.10427 1.10772 -0.15819
 C324 C 0.08607 1.09249 -0.12670
 H325 H 0.17504 1.08107 -0.29209
 H326 H 0.14364 1.05477 -0.21095
 H327 H 0.11069 1.19774 -0.19912
 H328 H 0.14209 1.22400 -0.28019
 C329 C 0.30983 0.32596 -0.38890
 C330 C 0.32182 0.33860 -0.34382
 C331 C 0.33792 0.35338 -0.29249
 C332 C 0.34008 0.40206 -0.27785
 C333 C 0.35867 0.41705 -0.23358
 C334 C 0.37520 0.38341 -0.20389
 C335 C 0.37238 0.33459 -0.21705
 C336 C 0.35377 0.31960 -0.26128
 C337 C 0.39660 0.39938 -0.16410
 C338 C 0.41510 0.41358 -0.13293
 H339 H 0.32811 0.42852 -0.30211
 H340 H 0.36081 0.45493 -0.22400
 H341 H 0.38518 0.30832 -0.19464
 H342 H 0.35247 0.28192 -0.27268
 C343 C -0.18571 0.81552 -0.39017
 C344 C -0.17354 0.82763 -0.34508
 C345 C -0.15785 0.84378 -0.29373
 C346 C -0.15718 0.89266 -0.27923
 C347 C -0.13938 0.90942 -0.23436
 C348 C -0.12218 0.87738 -0.20379
 C349 C -0.12345 0.82832 -0.21695
 C350 C -0.14125 0.81155 -0.26185
 C351 C -0.10157 0.89534 -0.16323
 C352 C -0.08357 0.91093 -0.13167
 H353 H -0.16973 0.91797 -0.30398
 H354 H -0.13840 0.94749 -0.22494
 H355 H -0.11008 0.80330 -0.19396
 H356 H -0.14142 0.77377 -0.27308
 C357 C 0.31001 0.67339 0.39054
 C358 C 0.32193 0.66088 0.34518
 C359 C 0.33795 0.64618 0.29347
 C360 C 0.33952 0.59766 0.27755
 C361 C 0.35802 0.58256 0.23288
 C362 C 0.37503 0.61594 0.20406
 C363 C 0.37279 0.66465 0.21848
 C364 C 0.35429 0.67974 0.26312
 C365 C 0.39637 0.59976 0.16395
 C366 C 0.41487 0.58557 0.13251
 H367 H 0.32717 0.57137 0.30114
 H368 H 0.35971 0.54476 0.22234
 H369 H 0.38597 0.69069 0.19676
 H370 H 0.35344 0.71728 0.27550
 C371 C -0.18850 1.17891 0.39046
 C372 C -0.17624 1.16715 0.34515
 C373 C -0.16009 1.15251 0.29357
 C374 C -0.14211 1.18504 0.26614
 C375 C -0.12387 1.16941 0.22123
 C376 C -0.12352 1.12118 0.20357
 C377 C -0.14205 1.08896 0.22970
 C378 C -0.16028 1.10459 0.27461
 C379 C -0.10262 1.10389 0.16295
 C380 C -0.08447 1.08862 0.13129
 H381 H -0.14157 1.22206 0.28090
 H382 H -0.10947 1.19453 0.20174
 H383 H -0.14179 1.05151 0.21680
 H384 H -0.17388 1.07902 0.29596
 C385 C 0.68629 0.31731 0.38851
 C386 C 0.67445 0.32924 0.34289
 C387 C 0.65905 0.34404 0.29042
 C388 C 0.65732 0.39273 0.27554
 C389 C 0.63983 0.40791 0.22919
 C390 C 0.62398 0.37449 0.19747
 C391 C 0.62630 0.32564 0.21111
 C392 C 0.64382 0.31043 0.25749
 C393 C 0.60341 0.39100 0.15578
 C394 C 0.58537 0.40626 0.12402
 H395 H 0.66879 0.41906 0.30108
 H396 H 0.63796 0.44583 0.21952
 H397 H 0.61393 0.29954 0.18734
 H398 H 0.64482 0.27274 0.26898
 C399 C 0.18790 0.82066 0.39098
 C400 C 0.17615 0.83277 0.34529
 C401 C 0.16054 0.84691 0.29279
 C402 C 0.14356 0.81356 0.26400
 C403 C 0.12576 0.82835 0.21798
 C404 C 0.12485 0.87657 0.20055
 C405 C 0.14248 0.90965 0.22792
 C406 C 0.16028 0.89486 0.27398
 C407 C 0.10402 0.89299 0.15939
 C408 C 0.08584 0.90786 0.12768
 H409 H 0.14341 0.77649 0.27855
 H410 H 0.11206 0.80257 0.19754
 H411 H 0.14178 0.94714 0.21521
 H412 H 0.17314 0.92104 0.29627
   
