data_POSCAR
  _audit_creation_date              2014-09-24
  _audit_creation_method            'ToBaCCo'
  _symmetry_space_group_name_H-M    'P1'
  _symmetry_Int_Tables_number       1
  _symmetry_cell_setting            triclinic
  loop_
  _symmetry_equiv_pos_as_xyz
 x,y,z
_cell_length_a 25.9282
_cell_length_b 26.1851
_cell_length_c 30.9480
_cell_angle_alpha 90.040000
_cell_angle_beta 91.437300
_cell_angle_gamma 90.081900
loop_
  _atom_site_label
  _atom_site_type_symbol
  _atom_site_fract_x
  _atom_site_fract_y
  _atom_site_fract_z
Si1 Si 1.24205 0.26190 0.24651
 Si2 Si 0.74125 -0.23919 0.25370
 Si3 Si 0.75723 0.25823 -0.24640
 Si4 Si 1.25921 -0.23623 -0.25358
 Si5 Si 0.24299 0.24017 0.75207
 Si6 Si 0.74679 0.73943 0.74574
 Si7 Si 0.75523 0.24228 0.24790
 Si8 Si 0.25465 0.73880 0.25443
 O9 O 1.09838 0.04746 0.03544
 O10 O 0.90229 -0.07010 0.02708
 O11 O 0.94080 0.08566 0.02865
 O12 O 1.05965 -0.10900 0.03386
 O13 O 0.91165 0.01578 0.05203
 O14 O 1.08809 -0.03851 0.05872
 O15 O 0.97208 -0.09921 0.05407
 O16 O 1.02641 0.07539 0.05623
 C17 C 1.07312 0.07042 0.06320
 C18 C 0.92539 -0.09175 0.05773
 C19 C 0.91796 0.06207 0.05742
 C20 C 1.08269 -0.08501 0.06351
 O21 O 1.09955 -0.07048 -0.02414
 O22 O 0.90375 0.04797 -0.03220
 O23 O 1.06160 0.08537 -0.02544
 O24 O 0.94200 -0.10846 -0.03103
 O25 O 0.91408 -0.03773 -0.05554
 O26 O 1.09078 0.01552 -0.04876
 O27 O 1.02962 -0.09925 -0.05129
 O28 O 0.97575 0.07551 -0.05329
 Co29 Co 1.08521 -0.01141 0.00489
 Co30 Co 0.91698 -0.01100 -0.00172
 Co31 Co 1.00113 0.07154 0.00151
 Co32 Co 1.00085 -0.09501 0.00141
 O33 O 1.00105 -0.01150 0.00153
 C34 C 1.07634 -0.09183 -0.05496
 C35 C 0.92889 0.07106 -0.06000
 C36 C 1.08414 0.06171 -0.05432
 C37 C 0.91950 -0.08412 -0.06065
 O38 O 1.08778 0.53253 0.55648
 O39 O 0.91188 0.47503 0.55042
 O40 O 0.97537 0.59093 0.55357
 O41 O 1.02526 0.41563 0.55513
 O42 O 0.90418 0.56093 0.52904
 O43 O 1.09728 0.44590 0.53562
 O44 O 0.93930 0.40535 0.52589
 O45 O 1.06162 0.60176 0.52896
 C46 C 1.08362 0.57926 0.55959
 C47 C 0.91732 0.42869 0.55523
 C48 C 0.92910 0.58233 0.55902
 C49 C 1.07173 0.42219 0.56293
 O50 O 1.08968 0.47536 0.45031
 O51 O 0.91378 0.53215 0.44410
 O52 O 1.02712 0.59055 0.44625
 O53 O 0.97592 0.41541 0.44518
 O54 O 0.90412 0.44566 0.46501
 O55 O 1.09816 0.56093 0.47124
 O56 O 1.06196 0.40566 0.47458
 O57 O 0.94069 0.60161 0.47103
 Co58 Co 1.08453 0.50360 0.50318
 Co59 Co 0.91716 0.50341 0.49740
 Co60 Co 1.00115 0.58696 0.49995
 Co61 Co 1.00065 0.41962 0.50018
 O62 O 1.00086 0.50335 0.50017
 C63 C 1.08353 0.42920 0.44516
 C64 C 0.91820 0.57884 0.44073
 C65 C 1.07361 0.58262 0.44121
 C66 C 0.92944 0.42207 0.43750
 O67 O 0.57889 0.03755 0.56081
 O68 O 0.40602 -0.03679 0.53242
 O69 O 0.46286 0.10207 0.54946
 O70 O 0.54241 -0.11900 0.51509
 O71 O 0.39729 0.05609 0.52480
 O72 O 0.57365 -0.05062 0.54639
 O73 O 0.47977 -0.06641 0.55561
 O74 O 0.55738 0.10815 0.53229
 C75 C 0.57687 0.08450 0.56336
 C76 C 0.43273 -0.05924 0.56144
 C77 C 0.41717 0.08685 0.55261
 C78 C 0.57706 -0.09854 0.54087
 O79 O 0.59341 -0.03322 0.46129
 O80 O 0.41896 0.04363 0.43752
 O81 O 0.53392 0.10397 0.45104
 O82 O 0.44608 -0.10364 0.48361
 O83 O 0.42691 -0.04147 0.44470
 O84 O 0.59989 0.05845 0.47494
 O85 O 0.52227 -0.06994 0.44475
 O86 O 0.43991 0.11195 0.46928
 Co87 Co 0.57900 0.00387 0.50954
 Co88 Co 0.41855 0.00575 0.48608
 Co89 Co 0.49851 0.09755 0.50019
 Co90 Co 0.50268 -0.06457 0.50038
 O91 O 0.49741 0.01330 0.49786
 C92 C 0.56737 -0.06004 0.43548
 C93 C 0.42079 0.09042 0.43715
 C94 C 0.57984 0.08970 0.44775
 C95 C 0.42143 -0.08757 0.45153
 O96 O 0.58645 0.52934 0.05607
 O97 O 0.40985 0.47549 0.05010
 O98 O 0.47263 0.58863 0.05377
 O99 O 0.52545 0.41353 0.05379
 O100 O 0.40121 0.56116 0.02813
 O101 O 0.59661 0.44336 0.03240
 O102 O 0.43833 0.40503 0.02697
 O103 O 0.55904 0.59906 0.03026
 C104 C 0.58009 0.57563 0.06083
 C105 C 0.41518 0.42917 0.05531
 C106 C 0.42583 0.58259 0.05830
 C107 C 0.57233 0.41924 0.06017
 O108 O 0.58799 0.47516 -0.05136
 O109 O 0.41197 0.53069 -0.05666
 O110 O 0.52553 0.58940 -0.05309
 O111 O 0.47188 0.41444 -0.05523
 O112 O 0.40084 0.44446 -0.03387
 O113 O 0.59677 0.56085 -0.02813
 O114 O 0.55877 0.40473 -0.02865
 O115 O 0.43933 0.59988 -0.02968
 Co116 Co 0.58299 0.50229 0.00209
 Co117 Co 0.41497 0.50297 -0.00294
 Co118 Co 0.49911 0.58535 0.00027
 Co119 Co 0.49862 0.41856 -0.00072
 O120 O 0.49894 0.50221 -0.00033
 C121 C 0.58248 0.42880 -0.05676
 C122 C 0.41840 0.57708 -0.06073
 C123 C 0.57212 0.58265 -0.05796
 C124 C 0.42506 0.42023 -0.06161
 C125 C 1.15103 0.15546 0.16303
 C126 C 1.17840 0.12065 0.13815
 C127 C 1.15263 0.09142 0.10668
 C128 C 1.20305 0.21819 0.21454
 C129 C 1.07158 0.13041 0.12608
 C130 C 1.09750 0.15972 0.15751
 C131 C 1.17863 0.18927 0.19182
 C132 C 1.09915 0.09685 0.09971
 H133 H 1.21989 0.11719 0.14221
 H134 H 1.17475 0.06566 0.08700
 H135 H 1.03033 0.13528 0.12144
 H136 H 1.07606 0.18669 0.17660
 C137 C 1.16358 0.66680 0.65727
 C138 C 1.12837 0.69040 0.62880
 C139 C 1.10125 0.66146 0.59791
 C140 C 1.21976 0.72398 0.71083
 C141 C 1.14329 0.58464 0.62461
 C142 C 1.17056 0.61378 0.65552
 C143 C 1.19398 0.69755 0.68683
 C144 C 1.10904 0.60843 0.59501
 H145 H 1.12263 0.73136 0.62992
 H146 H 1.07489 0.68079 0.57572
 H147 H 1.15002 0.54387 0.62309
 H148 H 1.19777 0.59516 0.67746
 C149 C 0.65624 0.16637 0.66490
 C150 C 0.65894 0.11300 0.66353
 C151 C 0.63179 0.08597 0.63124
 C152 C 0.71483 0.21950 0.71963
 C153 C 0.59830 0.16568 0.60230
 C154 C 0.62534 0.19255 0.63461
 C155 C 0.68763 0.19474 0.69544
 C156 C 0.60192 0.11218 0.59984
 H157 H 0.68293 0.09240 0.68676
 H158 H 0.63529 0.04477 0.63014
 H159 H 0.57543 0.18689 0.57871
 H160 H 0.62311 0.23387 0.63533
 C161 C 0.64872 0.66075 0.16541
 C162 C 0.61290 0.68385 0.13720
 C163 C 0.58942 0.65550 0.10400
 C164 C 0.70173 0.71898 0.22015
 C165 C 0.63608 0.58004 0.12805
 C166 C 0.65976 0.60865 0.16125
 C167 C 0.67699 0.69178 0.19609
 C168 C 0.60156 0.60360 0.09855
 H169 H 0.60421 0.72416 0.14009
 H170 H 0.56262 0.67452 0.08199
 H171 H 0.64601 0.54010 0.12460
 H172 H 0.68767 0.59051 0.18287
 C173 C 0.83973 -0.15557 0.16147
 C174 C 0.89257 -0.16575 0.15870
 C175 C 0.92102 -0.14410 0.12548
 C176 C 0.78265 -0.20332 0.21837
 C177 C 0.84392 -0.10137 0.09828
 C178 C 0.81566 -0.12290 0.13150
 C179 C 0.80926 -0.18100 0.19319
 C180 C 0.89671 -0.11233 0.09454
 H181 H 0.91152 -0.19117 0.18166
 H182 H 0.96166 -0.15307 0.12345
 H183 H 0.82423 -0.07673 0.07513
 H184 H 0.77478 -0.11487 0.13328
 C185 C 0.84738 0.34894 0.65986
 C186 C 0.84161 0.40190 0.65599
 C187 C 0.86511 0.42810 0.62235
 C188 C 0.79586 0.29696 0.71804
 C189 C 0.90093 0.34850 0.59671
 C190 C 0.87747 0.32241 0.63039
 C191 C 0.81998 0.32123 0.69230
 C192 C 0.89445 0.40153 0.59201
 H193 H 0.81823 0.42280 0.67850
 H194 H 0.85962 0.46898 0.61966
 H195 H 0.92356 0.32707 0.57402
 H196 H 0.88205 0.28139 0.63298
 C197 C 0.35337 -0.13485 0.66318
 C198 C 0.40601 -0.14401 0.65756
 C199 C 0.43284 -0.11732 0.62596
 C200 C 0.29871 -0.19372 0.71450
 C201 C 0.35487 -0.07084 0.60661
 C202 C 0.32821 -0.09744 0.63825
 C203 C 0.32412 -0.16642 0.69189
 C204 C 0.40716 -0.08139 0.59939
 H205 H 0.42588 -0.17298 0.67658
 H206 H 0.47301 -0.12645 0.62106
 H207 H 0.33405 -0.04329 0.58679
 H208 H 0.28750 -0.09002 0.64224
 C209 C 0.33542 0.35143 0.15516
 C210 C 0.33142 0.40449 0.15135
 C211 C 0.35847 0.43009 0.11945
 C212 C 0.27973 0.30065 0.21083
 C213 C 0.39438 0.34957 0.09574
 C214 C 0.36735 0.32409 0.12768
 C215 C 0.30521 0.32452 0.18596
 C216 C 0.38960 0.40272 0.09093
 H217 H 0.30676 0.42592 0.17250
 H218 H 0.35419 0.47110 0.11655
 H219 H 0.41827 0.32761 0.07436
 H220 H 0.37064 0.28297 0.13046
 C221 C 0.85020 0.15618 -0.15980
 C222 C 0.90377 0.16074 -0.15424
 C223 C 0.92989 0.13167 -0.12273
 C224 C 0.79748 0.21665 -0.21304
 C225 C 0.84902 0.09248 -0.10305
 C226 C 0.82306 0.12145 -0.13458
 C227 C 0.82234 0.18896 -0.18946
 C228 C 0.90257 0.09795 -0.09626
 H229 H 0.92514 0.18757 -0.17355
 H230 H 0.97116 0.13666 -0.11824
 H231 H 0.82700 0.06666 -0.08331
 H232 H 0.78159 0.11764 -0.13860
 C233 C 0.83702 0.66536 0.34345
 C234 C 0.83016 0.61234 0.34542
 C235 C 0.85783 0.58353 0.37620
 C236 C 0.78050 0.72173 0.28978
 C237 C 0.90006 0.66073 0.40229
 C238 C 0.87251 0.68933 0.37153
 C239 C 0.80638 0.69570 0.31390
 C240 C 0.89239 0.60768 0.40542
 H241 H 0.80276 0.59344 0.32375
 H242 H 0.85120 0.54274 0.37791
 H243 H 0.92663 0.68031 0.42420
 H244 H 0.87817 0.73030 0.37020
 C245 C 0.34380 0.17463 0.33659
 C246 C 0.36989 0.20060 0.37007
 C247 C 0.39626 0.17322 0.40235
 C248 C 0.28520 0.22597 0.28132
 C249 C 0.37146 0.09386 0.36694
 C250 C 0.34514 0.12132 0.33473
 C251 C 0.31269 0.20248 0.30592
 C252 C 0.39652 0.11956 0.40145
 H253 H 0.36882 0.24192 0.37177
 H254 H 0.41540 0.19394 0.42848
 H255 H 0.37117 0.05253 0.36538
 H256 H 0.32483 0.10097 0.30897
 C257 C 0.35143 0.66383 -0.16506
 C258 C 0.34073 0.61152 -0.16189
 C259 C 0.36378 0.58248 -0.12872
 C260 C 0.29915 0.72233 -0.22002
 C261 C 0.40913 0.65793 -0.10261
 C262 C 0.38626 0.68673 -0.13577
 C263 C 0.32371 0.69513 -0.19587
 C264 C 0.39737 0.60576 -0.09823
 H265 H 0.31357 0.59350 -0.18431
 H266 H 0.35415 0.54235 -0.12613
 H267 H 0.43520 0.67678 -0.07982
 H268 H 0.39467 0.72719 -0.13785
 C269 C 1.16140 -0.15383 -0.15997
 C270 C 1.18576 -0.12194 -0.12944
 C271 C 1.15774 -0.10109 -0.09576
 C272 C 1.21804 -0.20053 -0.21786
 C273 C 1.08029 -0.14296 -0.12352
 C274 C 1.10851 -0.16393 -0.15720
 C275 C 1.19162 -0.17862 -0.19226
 C276 C 1.10488 -0.11193 -0.09208
 H277 H 1.22668 -0.11399 -0.13117
 H278 H 1.17765 -0.07702 -0.07224
 H279 H 1.03960 -0.15183 -0.12158
 H280 H 1.08930 -0.18876 -0.18056
 C281 C 1.15025 0.35136 0.33869
 C282 C 1.15626 0.40421 0.34299
 C283 C 1.13365 0.42980 0.37726
 C284 C 1.20241 0.30032 0.28088
 C285 C 1.09811 0.34974 0.40250
 C286 C 1.12069 0.32425 0.36817
 C287 C 1.17776 0.32422 0.30629
 C288 C 1.10507 0.40262 0.40774
 H289 H 1.17936 0.42542 0.32045
 H290 H 1.13939 0.47063 0.38039
 H291 H 1.07596 0.32797 0.42532
 H292 H 1.11610 0.28325 0.36518
 C293 C 0.64489 -0.13685 0.33385
 C294 C 0.66848 -0.09545 0.35506
 C295 C 0.64192 -0.06827 0.38636
 C296 C 0.70093 -0.19659 0.28454
 C297 C 0.56688 -0.12210 0.37377
 C298 C 0.59362 -0.14936 0.34251
 C299 C 0.67483 -0.16897 0.30623
 C300 C 0.59136 -0.08227 0.39693
 H301 H 0.70812 -0.08543 0.34866
 H302 H 0.66176 -0.03771 0.40357
 H303 H 0.52807 -0.13388 0.38135
 H304 H 0.57501 -0.18142 0.32634
 C305 C 0.66287 0.34958 -0.15607
 C306 C 0.62973 0.32293 -0.12906
 C307 C 0.60261 0.34891 -0.09739
 C308 C 0.71874 0.29758 -0.21126
 C309 C 0.64079 0.42873 -0.12024
 C310 C 0.66795 0.40260 -0.15189
 C311 C 0.69315 0.32197 -0.18667
 C312 C 0.60839 0.40199 -0.09225
 H313 H 0.62552 0.28189 -0.13200
 H314 H 0.57779 0.32734 -0.07646
 H315 H 0.64595 0.46963 -0.11710
 H316 H 0.69353 0.42362 -0.17259
 C317 C 1.15412 0.14429 -0.15714
 C318 C 1.16370 0.09193 -0.15226
 C319 C 1.13997 0.06442 -0.11943
 C320 C 1.20533 0.19978 -0.21307
 C321 C 1.09636 0.14149 -0.09691
 C322 C 1.11995 0.16879 -0.12973
 C323 C 1.18155 0.17384 -0.18832
 C324 C 1.10672 0.08922 -0.09099
 H325 H 1.19025 0.07264 -0.17324
 H326 H 1.14853 0.02417 -0.11567
 H327 H 1.07063 0.16153 -0.07572
 H328 H 1.11234 0.20929 -0.13316
 C329 C 1.15636 0.64785 0.33641
 C330 C 1.10398 0.65920 0.34099
 C331 C 1.07623 0.63671 0.37427
 C332 C 1.21411 0.70051 0.28314
 C333 C 1.15298 0.59060 0.39771
 C334 C 1.18049 0.61290 0.36441
 C335 C 1.18691 0.67565 0.30615
 C336 C 1.10086 0.60304 0.40354
 H337 H 1.08503 0.68653 0.31969
 H338 H 1.03610 0.64689 0.37794
 H339 H 1.17287 0.56449 0.41951
 H340 H 1.22106 0.60408 0.36134
 C341 C 0.66687 0.15534 0.34525
 C342 C 0.69088 0.12118 0.37423
 C343 C 0.66274 0.09913 0.40757
 C344 C 0.71928 0.20419 0.28580
 C345 C 0.58663 0.14517 0.38253
 C346 C 0.61468 0.16695 0.34939
 C347 C 0.69580 0.18086 0.31252
 C348 C 0.61037 0.11136 0.41230
 H349 H 0.73140 0.11209 0.37139
 H350 H 0.68198 0.07307 0.42980
 H351 H 0.54631 0.15526 0.38498
 H352 H 0.59575 0.19344 0.32729
 C353 C 0.65186 0.65105 -0.16285
 C354 C 0.59891 0.65947 -0.15864
 C355 C 0.57242 0.63617 -0.12510
 C356 C 0.70585 0.70220 -0.21968
 C357 C 0.65169 0.59520 -0.10051
 C358 C 0.67800 0.61839 -0.13407
 C359 C 0.68040 0.67842 -0.19464
 C360 C 0.59882 0.60451 -0.09526
 H361 H 0.57839 0.68487 -0.18067
 H362 H 0.53166 0.64389 -0.12191
 H363 H 0.67292 0.57071 -0.07822
 H364 H 0.71901 0.61175 -0.13699
 C365 C 0.84075 -0.16352 -0.16413
 C366 C 0.83491 -0.11063 -0.15989
 C367 C 0.86178 -0.08432 -0.12697
 C368 C 0.78466 -0.21747 -0.22021
 C369 C 0.90120 -0.16368 -0.10307
 C370 C 0.87445 -0.18981 -0.13601
 C371 C 0.81026 -0.19172 -0.19550
 C372 C 0.89452 -0.11080 -0.09776
 H373 H 0.80883 -0.08992 -0.18141
 H374 H 0.85591 -0.04357 -0.12369
 H375 H 0.92632 -0.18503 -0.08124
 H376 H 0.87920 -0.23076 -0.13897
 C377 C 0.85076 0.34297 0.33389
 C378 C 0.90382 0.33583 0.34088
 C379 C 0.93005 0.36296 0.37366
 C380 C 0.79682 0.28416 0.27996
 C381 C 0.85038 0.40542 0.39174
 C382 C 0.82433 0.37839 0.35893
 C383 C 0.82234 0.31135 0.30357
 C384 C 0.90330 0.39725 0.40001
 H385 H 0.92461 0.30834 0.32180
 H386 H 0.97084 0.35593 0.37923
 H387 H 0.82883 0.43177 0.41132
 H388 H 0.78323 0.38411 0.35389
 C389 C 0.34235 -0.17744 0.35412
 C390 C 0.33980 -0.12420 0.35357
 C391 C 0.36473 -0.09571 0.38594
 C392 C 0.29165 -0.22838 0.29229
 C393 C 0.39486 -0.17349 0.42056
 C394 C 0.36966 -0.20217 0.38785
 C395 C 0.31563 -0.20585 0.32036
 C396 C 0.39283 -0.11986 0.41968
 H397 H 0.31858 -0.10457 0.32796
 H398 H 0.36230 -0.05446 0.38428
 H399 H 0.41639 -0.19305 0.44599
 H400 H 0.37164 -0.24347 0.38877
 C401 C 0.34204 0.33684 -0.16068
 C402 C 0.31663 0.37283 -0.13545
 C403 C 0.34402 0.40107 -0.10415
 C404 C 0.28608 0.27905 -0.21424
 C405 C 0.42299 0.35854 -0.12392
 C406 C 0.39541 0.33019 -0.15522
 C407 C 0.31253 0.30532 -0.19049
 C408 C 0.39736 0.39367 -0.09754
 H409 H 0.27536 0.37834 -0.13936
 H410 H 0.32323 0.42796 -0.08449
 H411 H 0.46404 0.35199 -0.11958
 H412 H 0.41551 0.30241 -0.17452
 C413 C 1.16233 -0.16608 0.16602
 C414 C 1.12843 -0.19191 0.13762
 C415 C 1.10152 -0.16528 0.10503
 C416 C 1.21831 -0.22071 0.22201
 C417 C 1.14124 -0.08629 0.12963
 C418 C 1.16825 -0.11308 0.16222
 C419 C 1.19274 -0.19475 0.19733
 C420 C 1.10816 -0.11227 0.10024
 H421 H 1.12352 -0.23289 0.14014
 H422 H 1.07622 -0.18637 0.08307
 H423 H 1.14717 -0.04548 0.12680
 H424 H 1.19444 -0.09262 0.18388
 C425 C 1.14903 0.34163 0.66609
 C426 C 1.09584 0.33537 0.65916
 C427 C 1.07012 0.36302 0.62654
 C428 C 1.20185 0.28203 0.71987
 C429 C 1.15056 0.40429 0.60853
 C430 C 1.17612 0.37672 0.64118
 C431 C 1.17681 0.30952 0.69629
 C432 C 1.09749 0.39697 0.60030
 H433 H 1.07455 0.30816 0.67816
 H434 H 1.02919 0.35666 0.62100
 H435 H 1.17258 0.43035 0.58902
 H436 H 1.21733 0.38174 0.64621
 C437 C 0.66026 -0.18117 0.63945
 C438 C 0.67041 -0.12953 0.63237
 C439 C 0.64475 -0.10358 0.59896
 C440 C 0.70922 -0.22762 0.70421
 C441 C 0.59948 -0.18127 0.57832
 C442 C 0.62531 -0.20729 0.61202
 C443 C 0.68617 -0.20680 0.67489
 C444 C 0.60843 -0.12889 0.57197
 H445 H 0.69763 -0.10904 0.65314
 H446 H 0.65246 -0.06323 0.59497
 H447 H 0.57149 -0.20162 0.55824
 H448 H 0.61745 -0.24746 0.61710
 C449 C 0.65583 0.33728 0.15970
 C450 C 0.68091 0.37353 0.13448
 C451 C 0.65332 0.40120 0.10300
 C452 C 0.71224 0.28069 0.21377
 C453 C 0.57478 0.35756 0.12251
 C454 C 0.60256 0.32976 0.15400
 C455 C 0.68562 0.30643 0.18978
 C456 C 0.60010 0.39299 0.09618
 H457 H 0.72207 0.37973 0.13856
 H458 H 0.67389 0.42835 0.08342
 H459 H 0.53384 0.35039 0.11801
 H460 H 0.58271 0.30176 0.17329
 C461 C 0.84522 0.14528 0.15859
 C462 C 0.88003 0.16968 0.13164
 C463 C 0.90455 0.14217 0.09943
 C464 C 0.79292 0.20121 0.21355
 C465 C 0.86062 0.06509 0.12165
 C466 C 0.83595 0.09281 0.15388
 C467 C 0.81707 0.17502 0.18922
 C468 C 0.89453 0.08976 0.09365
 H469 H 0.88745 0.21025 0.13495
 H470 H 0.93074 0.16215 0.07856
 H471 H 0.85226 0.02475 0.11799
 H472 H 0.80895 0.07356 0.17451
 C473 C 0.84799 0.64498 0.66515
 C474 C 0.82377 0.60966 0.63749
 C475 C 0.85086 0.58804 0.60374
 C476 C 0.79011 0.69827 0.71726
 C477 C 0.92741 0.63537 0.62636
 C478 C 0.90007 0.65720 0.66006
 C479 C 0.81748 0.67302 0.69494
 C480 C 0.90255 0.60162 0.59724
 H481 H 0.78336 0.60029 0.64100
 H482 H 0.83091 0.56176 0.58204
 H483 H 0.96728 0.64629 0.62214
 H484 H 0.91896 0.68491 0.68113
 C485 C 0.33035 0.15076 0.65582
 C486 C 0.38340 0.15919 0.65377
 C487 C 0.41142 0.13748 0.62062
 C488 C 0.27843 0.20118 0.71456
 C489 C 0.33361 0.09738 0.59163
 C490 C 0.30548 0.11942 0.62497
 C491 C 0.30161 0.17710 0.68815
 C492 C 0.38681 0.10691 0.58876
 H493 H 0.40302 0.18344 0.67736
 H494 H 0.45241 0.14534 0.61967
 H495 H 0.31367 0.07389 0.56772
 H496 H 0.26429 0.11280 0.62622
 C497 C 0.34600 0.65162 0.16351
 C498 C 0.39925 0.65888 0.15979
 C499 C 0.42565 0.63548 0.12615
 C500 C 0.29261 0.70287 0.22115
 C501 C 0.34574 0.59675 0.10026
 C502 C 0.31950 0.62005 0.13392
 C503 C 0.31769 0.67896 0.19575
 C504 C 0.39897 0.60478 0.09562
 H505 H 0.42018 0.68339 0.18236
 H506 H 0.46666 0.64230 0.12349
 H507 H 0.32418 0.57310 0.07745
 H508 H 0.27828 0.61425 0.13633
   
