data_POSCAR
  _audit_creation_date              2014-09-24
  _audit_creation_method            'ToBaCCo'
  _symmetry_space_group_name_H-M    'P1'
  _symmetry_Int_Tables_number       1
  _symmetry_cell_setting            triclinic
  loop_
  _symmetry_equiv_pos_as_xyz
 x,y,z
_cell_length_a 46.2324
_cell_length_b 45.5179
_cell_length_c 42.0248
_cell_angle_alpha 90.003400
_cell_angle_beta 89.895200
_cell_angle_gamma 89.565900
loop_
  _atom_site_label
  _atom_site_type_symbol
  _atom_site_fract_x
  _atom_site_fract_y
  _atom_site_fract_z
C1 C -0.08816 0.25553 -0.02151
 C2 C -0.08865 0.25226 0.01078
 C3 C -0.06198 0.26148 0.02205
 N4 N -0.04499 0.26953 -0.00271
 C5 C -0.06118 0.26643 -0.02928
 C6 C -0.05301 0.26004 0.05438
 C7 C -0.02315 0.25733 0.06181
 C8 C -0.01163 0.24051 0.08633
 C9 C 0.01767 0.24517 0.08641
 C10 C 0.02342 0.26470 0.06194
 N11 N -0.00148 0.27152 0.04658
 C12 C 0.05074 0.27720 0.05550
 C13 C 0.05734 0.28936 0.02544
 C14 C 0.08085 0.30699 0.01876
 C15 C 0.08152 0.31048 -0.01362
 C16 C 0.05837 0.29484 -0.02581
 N17 N 0.04331 0.28252 -0.00171
 C18 C 0.05170 0.29122 -0.05857
 C19 C 0.02237 0.28951 -0.06860
 C20 C 0.01210 0.29995 -0.09754
 C21 C -0.01717 0.29554 -0.09784
 C22 C -0.02430 0.28277 -0.06897
 N23 N -0.00015 0.27936 -0.05113
 C24 C -0.05261 0.27417 -0.06047
 H25 H -0.10556 0.24978 -0.03747
 H26 H -0.10619 0.24236 0.02390
 H27 H 0.00114 0.26827 -0.02957
 H28 H -0.02278 0.22548 0.10194
 H29 H 0.03297 0.23489 0.10244
 H30 H 0.09587 0.31660 0.03542
 H31 H 0.09678 0.32403 -0.02633
 H32 H -0.03166 0.30173 -0.11694
 H33 H -0.00390 0.28753 0.02902
 H34 H 0.02407 0.31107 -0.11605
 C35 C 0.58756 0.76287 0.48364
 C36 C 0.58767 0.76290 0.51626
 C37 C 0.56099 0.77386 0.52585
 N38 N 0.54460 0.78053 0.50018
 C39 C 0.56081 0.77380 0.47434
 C40 C 0.55261 0.77887 0.55774
 C41 C 0.52370 0.78506 0.56662
 C42 C 0.51517 0.79656 0.59575
 C43 C 0.48542 0.79715 0.59582
 C44 C 0.47660 0.78598 0.56673
 N45 N 0.50006 0.77877 0.54903
 C46 C 0.44756 0.78080 0.55808
 C47 C 0.43892 0.77589 0.52631
 C48 C 0.41206 0.76559 0.51711
 C49 C 0.41194 0.76539 0.48449
 C50 C 0.43873 0.77558 0.47482
 N51 N 0.45520 0.78200 0.50042
 C52 C 0.44717 0.78012 0.44288
 C53 C 0.47617 0.78531 0.43395
 C54 C 0.48487 0.79632 0.40472
 C55 C 0.51462 0.79596 0.40463
 C56 C 0.52328 0.78473 0.43381
 N57 N 0.49971 0.77839 0.45158
 C58 C 0.55224 0.77877 0.44253
 H59 H 0.60512 0.75539 0.46855
 H60 H 0.60533 0.75544 0.53115
 H61 H 0.49970 0.76675 0.47288
 H62 H 0.52892 0.80367 0.61504
 H63 H 0.47186 0.80476 0.61519
 H64 H 0.39443 0.75864 0.53225
 H65 H 0.39422 0.75826 0.46967
 H66 H 0.52828 0.80303 0.38520
 H67 H 0.49989 0.76696 0.52784
 H68 H 0.47122 0.80372 0.38537
 C69 C 1.08594 0.74340 -0.01640
 C70 C 1.08609 0.74336 0.01613
 C71 C 1.06164 0.72831 0.02580
 N72 N 1.04626 0.71952 0.00011
 C73 C 1.06139 0.72838 -0.02577
 C74 C 1.05394 0.72252 0.05789
 C75 C 1.02486 0.71655 0.06632
 C76 C 1.01584 0.70287 0.09414
 C77 C 0.98612 0.70359 0.09414
 C78 C 0.97776 0.71728 0.06617
 N79 N 1.00144 0.72485 0.04917
 C80 C 0.94891 0.72407 0.05785
 C81 C 0.94056 0.73020 0.02629
 C82 C 0.91398 0.74166 0.01717
 C83 C 0.91384 0.74187 -0.01547
 C84 C 0.94034 0.73053 -0.02512
 N85 N 0.95668 0.72349 0.00042
 C86 C 0.94844 0.72479 -0.05688
 C87 C 0.97723 0.71799 -0.06554
 C88 C 0.98542 0.70444 -0.09369
 C89 C 1.01513 0.70348 -0.09388
 C90 C 1.02433 0.71690 -0.06601
 N91 N 1.00102 0.72526 -0.04863
 C92 C 1.05347 0.72265 -0.05777
 H93 H 1.10166 0.75426 -0.03134
 H94 H 1.10194 0.75421 0.03084
 H95 H 1.00142 0.73809 -0.02810
 H96 H 1.02916 0.69314 0.11253
 H97 H 0.97226 0.69489 0.11260
 H98 H 0.89648 0.74908 0.03237
 H99 H 0.89622 0.74948 -0.03032
 H100 H 1.02833 0.69378 -0.11244
 H101 H 1.00167 0.73784 0.02875
 H102 H 0.97145 0.69595 -0.11211
 C103 C 0.58668 0.23807 0.48278
 C104 C 0.58650 0.23782 0.51540
 C105 C 0.55976 0.22714 0.52462
 N106 N 0.54361 0.22087 0.49873
 C107 C 0.56005 0.22755 0.47312
 C108 C 0.55116 0.22196 0.55638
 C109 C 0.52221 0.21616 0.56505
 C110 C 0.51356 0.20466 0.59408
 C111 C 0.48382 0.20462 0.59404
 C112 C 0.47512 0.21607 0.56499
 N113 N 0.49866 0.22295 0.54741
 C114 C 0.44612 0.22173 0.55622
 C115 C 0.43767 0.22661 0.52435
 C116 C 0.41081 0.23706 0.51486
 C117 C 0.41098 0.23719 0.48223
 C118 C 0.43795 0.22682 0.47285
 N119 N 0.45424 0.22035 0.49863
 C120 C 0.44667 0.22215 0.44099
 C121 C 0.47577 0.21690 0.43215
 C122 C 0.48470 0.20599 0.40290
 C123 C 0.51445 0.20623 0.40292
 C124 C 0.52289 0.21728 0.43220
 N125 N 0.49918 0.22366 0.44990
 C126 C 0.55179 0.22286 0.44117
 H127 H 0.60435 0.24543 0.46794
 H128 H 0.60401 0.24493 0.53054
 H129 H 0.49892 0.23515 0.47129
 H130 H 0.52722 0.19723 0.61340
 H131 H 0.47017 0.19713 0.61331
 H132 H 0.39299 0.24415 0.52979
 H133 H 0.39332 0.24438 0.46721
 H134 H 0.52826 0.19916 0.38352
 H135 H 0.49861 0.23486 0.52629
 H136 H 0.47121 0.19872 0.38345
 C137 C 0.68156 -0.08438 -0.01580
 C138 C 0.68201 -0.08454 0.01686
 C139 C 0.69914 -0.06117 0.02613
 N140 N 0.70860 -0.04642 0.00023
 C141 C 0.69841 -0.06092 -0.02544
 C142 C 0.70790 -0.05438 0.05758
 C143 C 0.71580 -0.02504 0.06477
 C144 C 0.73369 -0.01586 0.08933
 C145 C 0.73317 0.01438 0.08919
 C146 C 0.71527 0.02285 0.06438
 N147 N 0.70530 -0.00123 0.04924
 C148 C 0.70675 0.05191 0.05703
 C149 C 0.69777 0.05907 0.02592
 C150 C 0.68188 0.08364 0.01713
 C151 C 0.68126 0.08382 -0.01555
 C152 C 0.69714 0.05950 -0.02561
 N153 N 0.70666 0.04413 -0.00014
 C154 C 0.70535 0.05257 -0.05728
 C155 C 0.71373 0.02324 -0.06452
 C156 C 0.73254 0.01441 -0.08853
 C157 C 0.73296 -0.01580 -0.08843
 C158 C 0.71442 -0.02471 -0.06434
 N159 N 0.70347 -0.00076 -0.04934
 C160 C 0.70660 -0.05403 -0.05705
 H161 H 0.66966 -0.09953 -0.03055
 H162 H 0.67047 -0.09980 0.03187
 H163 H 0.68765 -0.00086 -0.03156
 H164 H 0.74639 -0.02926 0.10539
 H165 H 0.74508 0.02838 0.10523
 H166 H 0.67163 0.09966 0.03256
 H167 H 0.67008 0.09995 -0.02998
 H168 H 0.74621 -0.02941 -0.10381
 H169 H 0.68974 -0.00137 0.03126
 H170 H 0.74545 0.02808 -0.10398
 C171 C 0.18141 0.41485 0.51726
 C172 C 0.18117 0.41478 0.48457
 C173 C 0.19499 0.44020 0.47494
 N174 N 0.20331 0.45593 0.50057
 C175 C 0.19537 0.44032 0.52646
 C176 C 0.20266 0.44749 0.44337
 C177 C 0.21003 0.47666 0.43533
 C178 C 0.22617 0.48524 0.40912
 C179 C 0.22628 0.51548 0.40904
 C180 C 0.21019 0.52454 0.43519
 N181 N 0.20072 0.50074 0.45130
 C182 C 0.20303 0.55391 0.44311
 C183 C 0.19512 0.56141 0.47456
 C184 C 0.18124 0.58708 0.48399
 C185 C 0.18137 0.58715 0.51668
 C186 C 0.19533 0.56153 0.52606
 N187 N 0.20336 0.54568 0.50030
 C188 C 0.20349 0.55419 0.55745
 C189 C 0.21084 0.52488 0.56540
 C190 C 0.22724 0.51602 0.59134
 C191 C 0.22726 0.48577 0.59143
 C192 C 0.21087 0.47700 0.56555
 N193 N 0.20130 0.50097 0.54960
 C194 C 0.20350 0.44776 0.55781
 H195 H 0.17234 0.39805 0.53241
 H196 H 0.17187 0.39791 0.46972
 H197 H 0.18656 0.50102 0.53082
 H198 H 0.23715 0.47131 0.39202
 H199 H 0.23737 0.52907 0.39187
 H200 H 0.17203 0.60403 0.46899
 H201 H 0.17227 0.60418 0.53170
 H202 H 0.23848 0.47198 0.60841
 H203 H 0.18619 0.50093 0.47033
 H204 H 0.23845 0.52974 0.60824
 C205 C 0.27336 0.91474 0.01801
 C206 C 0.27236 0.91445 -0.01455
 C207 C 0.28653 0.93950 -0.02493
 N208 N 0.29558 0.95538 0.00032
 C209 C 0.28768 0.94014 0.02652
 C210 C 0.29193 0.94718 -0.05709
 C211 C 0.29898 0.97647 -0.06542
 C212 C 0.31365 0.98486 -0.09275
 C213 C 0.31442 1.01502 -0.09274
 C214 C 0.30021 1.02435 -0.06540
 N215 N 0.29140 1.00069 -0.04852
 C216 C 0.29421 1.05399 -0.05724
 C217 C 0.28864 1.06201 -0.02524
 C218 C 0.27328 1.08674 -0.01557
 C219 C 0.27388 1.08697 0.01695
 C220 C 0.28962 1.06238 0.02628
 N221 N 0.29826 1.04683 0.00041
 C222 C 0.29603 1.05459 0.05818
 C223 C 0.30267 1.02507 0.06625
 C224 C 0.31644 1.01575 0.09386
 C225 C 0.31586 0.98554 0.09376
 C226 C 0.30215 0.97727 0.06593
 N227 N 0.29455 1.00140 0.04908
 C228 C 0.29457 0.94828 0.05793
 H229 H 0.26407 0.89840 0.03361
 H230 H 0.26171 0.89793 -0.02873
 H231 H 0.28143 1.00174 0.02894
 H232 H 0.32326 0.97078 -0.11069
 H233 H 0.32466 1.02846 -0.11069
 H234 H 0.26185 1.10248 -0.03028
 H235 H 0.26292 1.10290 0.03188
 H236 H 0.32438 0.97131 0.11218
 H237 H 0.27829 1.00119 -0.02831
 H238 H 0.32589 1.02918 0.11229
 C239 C 0.78180 0.40995 0.51630
 C240 C 0.78215 0.41001 0.48368
 C241 C 0.79367 0.43671 0.47443
 N242 N 0.80040 0.45295 0.50029
 C243 C 0.79313 0.43662 0.52593
 C244 C 0.79882 0.44537 0.44265
 C245 C 0.80485 0.47474 0.43417
 C246 C 0.81611 0.48359 0.40513
 C247 C 0.81594 0.51381 0.40521
 C248 C 0.80460 0.52258 0.43430
 N249 N 0.79809 0.49864 0.45189
 C250 C 0.79827 0.55194 0.44294
 C251 C 0.79326 0.56054 0.47480
 C252 C 0.78173 0.58736 0.48426
 C253 C 0.78159 0.58730 0.51688
 C254 C 0.79302 0.56044 0.52630
 N255 N 0.80017 0.54412 0.50054
 C256 C 0.79771 0.55173 0.55816
 C257 C 0.80370 0.52228 0.56674
 C258 C 0.81454 0.51331 0.59594
 C259 C 0.81451 0.48308 0.59586
 C260 C 0.80367 0.47444 0.56660
 N261 N 0.79732 0.49845 0.54892
 C262 C 0.79765 0.44514 0.55785
 H263 H 0.77368 0.39241 0.53113
 H264 H 0.77435 0.39252 0.46860
 H265 H 0.78581 0.49859 0.52768
 H266 H 0.82337 0.46973 0.38573
 H267 H 0.82304 0.52773 0.38588
 H268 H 0.77381 0.60501 0.46932
 H269 H 0.77353 0.60489 0.53186
 H270 H 0.82137 0.46909 0.61529
 H271 H 0.78624 0.49863 0.47295
 H272 H 0.82144 0.52708 0.61545
 O273 O 0.23054 0.27235 0.20865
 O274 O 0.29223 0.25901 0.26196
 O275 O 0.27305 0.23539 0.20962
 O276 O 0.24909 0.29631 0.26135
 O277 O 0.22422 0.26501 0.29061
 O278 O 0.24610 0.20468 0.23731
 O279 O 0.26623 0.22734 0.28949
 O280 O 0.20354 0.24285 0.23780
 Cu281 Cu 0.26386 0.26895 0.23263
 Cu282 Cu 0.23226 0.23189 0.26656
 C283 C 0.20663 0.25977 0.21400
 C284 C 0.28978 0.24084 0.28472
 C285 C 0.26337 0.20974 0.21446
 C286 C 0.23309 0.29085 0.28520
 O287 O 0.75255 0.79471 0.23822
 O288 O 0.77460 0.73366 0.29069
 O289 O 0.79498 0.75685 0.23855
 O290 O 0.73245 0.77172 0.29050
 O291 O 0.70592 0.74149 0.26183
 O292 O 0.76876 0.72594 0.21036
 O293 O 0.74795 0.70320 0.26244
 O294 O 0.72689 0.76389 0.20930
 Cu295 Cu 0.76629 0.76731 0.26736
 Cu296 Cu 0.73468 0.73056 0.23317
 C297 C 0.73632 0.78956 0.21454
 C298 C 0.76480 0.70809 0.28563
 C299 C 0.79246 0.73903 0.21549
 C300 C 0.70860 0.75903 0.28513
 O301 O 0.79669 0.23916 0.23917
 O302 O 0.73369 0.22636 0.29105
 O303 O 0.75355 0.20261 0.23883
 O304 O 0.77621 0.26345 0.29097
 O305 O 0.75005 0.29441 0.26229
 O306 O 0.72831 0.23400 0.20969
 O307 O 0.70760 0.25716 0.26211
 O308 O 0.77074 0.27032 0.21050
 Cu309 Cu 0.76764 0.22979 0.26792
 Cu310 Cu 0.73654 0.26713 0.23335
 C311 C 0.79431 0.25665 0.21577
 C312 C 0.70999 0.23966 0.28552
 C313 C 0.73744 0.20811 0.21506
 C314 C 0.76673 0.28925 0.28562
 O315 O 0.27399 0.76677 0.21071
 O316 O 0.25159 0.70565 0.26262
 O317 O 0.23241 0.72899 0.20997
 O318 O 0.29384 0.74332 0.26312
 O319 O 0.26704 0.77472 0.29063
 O320 O 0.20480 0.75861 0.23878
 O321 O 0.22580 0.73675 0.29166
 O322 O 0.24622 0.79719 0.23834
 Cu323 Cu 0.26570 0.73309 0.23382
 Cu324 Cu 0.23317 0.76989 0.26761
 C325 C 0.26358 0.79231 0.21548
 C326 C 0.23529 0.71098 0.28633
 C327 C 0.20819 0.74139 0.21524
 C328 C 0.29091 0.76141 0.28593
 O329 O 0.75036 0.20223 0.76139
 O330 O 0.77254 0.26298 0.70887
 O331 O 0.79285 0.23943 0.76089
 O332 O 0.73048 0.22545 0.70899
 O333 O 0.70381 0.25602 0.73770
 O334 O 0.76658 0.27087 0.78897
 O335 O 0.74568 0.29380 0.73706
 O336 O 0.72469 0.23349 0.79033
 Cu337 Cu 0.76420 0.22939 0.73217
 Cu338 Cu 0.73246 0.26663 0.76634
 C339 C 0.73411 0.20767 0.78510
 C340 C 0.76267 0.28869 0.71392
 C341 C 0.79031 0.25745 0.78380
 C342 C 0.70660 0.23848 0.71437
 O343 O 0.29391 0.74396 0.73772
 O344 O 0.23199 0.72902 0.79009
 O345 O 0.25178 0.70615 0.73752
 O346 O 0.27335 0.76688 0.79019
 O347 O 0.24619 0.79761 0.76234
 O348 O 0.22607 0.73734 0.70861
 O349 O 0.20470 0.75903 0.76149
 O350 O 0.26727 0.77535 0.71011
 Cu351 Cu 0.26550 0.73339 0.76664
 Cu352 Cu 0.23327 0.77042 0.73287
 C353 C 0.29114 0.76213 0.71498
 C354 C 0.20787 0.74155 0.78482
 C355 C 0.23558 0.71156 0.71382
 C356 C 0.26316 0.79249 0.78543
 O357 O 0.25180 0.29657 0.73939
 O358 O 0.27467 0.23539 0.79137
 O359 O 0.29425 0.25855 0.73866
 O360 O 0.23314 0.27381 0.79252
 O361 O 0.20555 0.24423 0.76428
 O362 O 0.26737 0.22752 0.71141
 O363 O 0.24723 0.20506 0.76389
 O364 O 0.22583 0.26568 0.71089
 Cu365 Cu 0.26621 0.26914 0.76823
 Cu366 Cu 0.23368 0.23256 0.73494
 C367 C 0.23533 0.29134 0.71592
 C368 C 0.26458 0.20988 0.78663
 C369 C 0.29122 0.24058 0.71581
 C370 C 0.20898 0.26161 0.78764
 O371 O 0.72624 0.76427 0.79132
 O372 O 0.74780 0.70334 0.73866
 O373 O 0.76831 0.72652 0.79069
 O374 O 0.70574 0.74161 0.73875
 O375 O 0.73242 0.77175 0.71003
 O376 O 0.79464 0.75733 0.76241
 O377 O 0.77459 0.73369 0.71033
 O378 O 0.75203 0.79501 0.76235
 Cu379 Cu 0.73432 0.73087 0.76767
 Cu380 Cu 0.76608 0.76750 0.73341
 C381 C 0.73564 0.78993 0.78598
 C382 C 0.76476 0.70814 0.71549
 C383 C 0.79201 0.73967 0.78561
 C384 C 0.70855 0.75904 0.71535
 C385 C 0.28936 0.11883 0.12752
 N386 N 0.29742 0.12582 0.09744
 N387 N 0.30004 0.10505 0.07530
 C388 C 0.29483 0.07638 0.08225
 N389 N 0.28736 0.06945 0.11266
 N390 N 0.28453 0.09024 0.13479
 C391 C 0.28434 0.14207 0.15115
 N392 N 0.27052 0.13614 0.17892
 N393 N 0.26423 0.15764 0.19938
 C394 C 0.27168 0.18581 0.19286
 N395 N 0.28580 0.19167 0.16527
 N396 N 0.29192 0.17021 0.14473
 C397 C 0.78918 0.61640 0.62884
 N398 N 0.77608 0.58998 0.63213
 N399 N 0.77924 0.56928 0.60997
 C400 C 0.79561 0.57422 0.58366
 N401 N 0.80899 0.60053 0.58058
 N402 N 0.80581 0.62125 0.60274
 C403 C 0.78423 0.63982 0.65233
 N404 N 0.79577 0.66688 0.64806
 N405 N 0.79000 0.68855 0.66849
 C406 C 0.77249 0.68392 0.69394
 N407 N 0.76115 0.65680 0.69835
 N408 N 0.76691 0.63515 0.67792
 C409 C 0.71466 0.88011 0.12583
 N410 N 0.71500 0.90881 0.13440
 N411 N 0.71235 0.92984 0.11252
 C412 C 0.70964 0.92320 0.08110
 N413 N 0.70920 0.89431 0.07282
 N414 N 0.71154 0.87323 0.09465
 C415 C 0.71876 0.85684 0.14961
 N416 N 0.71317 0.82843 0.14216
 N417 N 0.71812 0.80709 0.16319
 C418 C 0.72908 0.81335 0.19233
 N419 N 0.73460 0.84177 0.19984
 N420 N 0.72939 0.86315 0.17890
 C421 C 0.21277 0.38127 0.62680
 N422 N 0.20580 0.40912 0.63562
 N423 N 0.20238 0.43009 0.61376
 C424 C 0.20624 0.42416 0.58232
 N425 N 0.21334 0.39625 0.57370
 N426 N 0.21633 0.37519 0.59545
 C427 C 0.21716 0.35813 0.65063
 N428 N 0.21472 0.32946 0.64227
 N429 N 0.21982 0.30826 0.66340
 C430 C 0.22794 0.31493 0.69354
 N431 N 0.23042 0.34361 0.70195
 N432 N 0.22491 0.36485 0.68091
 C433 C 0.88499 0.26381 0.12607
 N434 N 0.91244 0.25511 0.13276
 N435 N 0.93244 0.25398 0.10986
 C436 C 0.92578 0.26070 0.07915
 N437 N 0.89840 0.27028 0.07305
 N438 N 0.87844 0.27169 0.09585
 C439 C 0.86228 0.26371 0.15056
 N440 N 0.83606 0.27606 0.14442
 N441 N 0.81470 0.27449 0.16562
 C442 C 0.81868 0.26035 0.19371
 N443 N 0.84497 0.24815 0.20001
 N444 N 0.86643 0.24989 0.17885
 C445 C 0.38330 0.77766 0.62856
 N446 N 0.40833 0.76219 0.63194
 N447 N 0.42893 0.76356 0.60979
 C448 C 0.42523 0.78042 0.58343
 N449 N 0.40032 0.79613 0.58023
 N450 N 0.37973 0.79476 0.60238
 C451 C 0.35994 0.77488 0.65203
 N452 N 0.33453 0.78954 0.64799
 N453 N 0.31277 0.78587 0.66839
 C454 C 0.31563 0.76740 0.69356
 N455 N 0.34112 0.75291 0.69775
 N456 N 0.36288 0.75659 0.67735
 C457 C 0.11761 0.72605 0.12695
 N458 N 0.08971 0.73255 0.13433
 N459 N 0.06912 0.73097 0.11224
 C460 C 0.07559 0.72312 0.08177
 N461 N 0.10359 0.71644 0.07466
 N462 N 0.12413 0.71780 0.09676
 C463 C 0.14065 0.72883 0.15076
 N464 N 0.16769 0.71862 0.14433
 N465 N 0.18901 0.72216 0.16521
 C466 C 0.18415 0.73622 0.19321
 N467 N 0.15708 0.74637 0.19974
 N468 N 0.13568 0.74265 0.17892
 C469 C 0.61510 0.22480 0.62701
 N470 N 0.58998 0.24009 0.63054
 N471 N 0.56952 0.23890 0.60830
 C472 C 0.57347 0.22241 0.58168
 N473 N 0.59850 0.20692 0.57830
 N474 N 0.61894 0.20811 0.60054
 C475 C 0.63826 0.22720 0.65070
 N476 N 0.66367 0.21256 0.64651
 N477 N 0.68524 0.21577 0.66715
 C478 C 0.68219 0.23371 0.69276
 N479 N 0.65671 0.24819 0.69711
 N480 N 0.63512 0.24497 0.67645
 C481 C 0.71201 0.11772 0.87411
 N482 N 0.70902 0.12478 0.90527
 N483 N 0.70665 0.10384 0.92722
 C484 C 0.70693 0.07491 0.91909
 N485 N 0.70949 0.06808 0.88767
 N486 N 0.71216 0.08897 0.86567
 C487 C 0.71621 0.14083 0.85022
 N488 N 0.72689 0.13425 0.82093
 N489 N 0.73223 0.15549 0.79993
 C490 C 0.72679 0.18404 0.80738
 N491 N 0.71577 0.19056 0.83652
 N492 N 0.71070 0.16936 0.85760
 C493 C 0.21264 0.62070 0.37466
 N494 N 0.21631 0.62644 0.40605
 N495 N 0.21322 0.60528 0.42761
 C496 C 0.20589 0.57761 0.41877
 N497 N 0.20192 0.57202 0.38730
 N498 N 0.20544 0.59309 0.36563
 C499 C 0.21711 0.64397 0.35107
 N500 N 0.22473 0.63736 0.32065
 N501 N 0.23029 0.65869 0.29981
 C502 C 0.22799 0.68734 0.30856
 N503 N 0.22000 0.69389 0.33884
 N504 N 0.21485 0.67260 0.35976
 C505 C 0.28578 0.88303 0.87348
 N506 N 0.29387 0.87595 0.90352
 N507 N 0.29617 0.89665 0.92572
 C508 C 0.29056 0.92534 0.91891
 N509 N 0.28299 0.93237 0.88855
 N510 N 0.28049 0.91164 0.86634
 C511 C 0.28146 0.85989 0.84967
 N512 N 0.26792 0.86589 0.82175
 N513 N 0.26247 0.84448 0.80103
 C514 C 0.27053 0.81634 0.80739
 N515 N 0.28436 0.81040 0.83514
 N516 N 0.28964 0.83177 0.85594
 C517 C 0.79107 0.38077 0.37196
 N518 N 0.77811 0.40743 0.36847
 N519 N 0.78106 0.42812 0.39062
 C520 C 0.79709 0.42292 0.41711
 N521 N 0.81037 0.39637 0.42038
 N522 N 0.80738 0.37566 0.39824
 C523 C 0.78623 0.35737 0.34854
 N524 N 0.79747 0.33004 0.35307
 N525 N 0.79170 0.30842 0.33271
 C526 C 0.77449 0.31336 0.30709
 N527 N 0.76347 0.34074 0.30242
 N528 N 0.76922 0.36235 0.32277
 C529 C 0.11777 0.28133 0.87496
 N530 N 0.08984 0.27677 0.86673
 N531 N 0.06870 0.28061 0.88794
 C532 C 0.07435 0.28933 0.91830
 N533 N 0.10254 0.29316 0.92641
 N534 N 0.12374 0.28957 0.90523
 C535 C 0.14123 0.27678 0.85180
 N536 N 0.16847 0.28576 0.85849
 N537 N 0.18991 0.28123 0.83781
 C538 C 0.18497 0.26735 0.80977
 N539 N 0.15773 0.25833 0.80305
 N540 N 0.13622 0.26307 0.82365
 C541 C 0.61655 0.77456 0.37207
 N542 N 0.62016 0.79148 0.39833
 N543 N 0.59959 0.79313 0.42050
 C544 C 0.57464 0.77788 0.41724
 N545 N 0.57091 0.76116 0.39081
 N546 N 0.59150 0.75951 0.36864
 C547 C 0.63987 0.77165 0.34849
 N548 N 0.66523 0.78595 0.35267
 N549 N 0.68694 0.78230 0.33214
 C550 C 0.68408 0.76422 0.30667
 N551 N 0.65864 0.75007 0.30234
 N552 N 0.63692 0.75372 0.32289
 C553 C 0.88382 0.72684 0.87309
 N554 N 0.87993 0.71147 0.90042
 N555 N 0.90055 0.71057 0.92250
 C556 C 0.92583 0.72503 0.91810
 N557 N 0.92984 0.74016 0.89061
 N558 N 0.90919 0.74109 0.86854
 C559 C 0.86052 0.72896 0.84946
 N560 N 0.86356 0.74603 0.82318
 N561 N 0.84190 0.74902 0.80253
 C562 C 0.81644 0.73501 0.80735
 N563 N 0.81349 0.71776 0.83349
 N564 N 0.83513 0.71480 0.85417
 C565 C 0.38216 0.22572 0.37098
 N566 N 0.37894 0.20844 0.39705
 N567 N 0.39961 0.20694 0.41903
 C568 C 0.42427 0.22270 0.41578
 N569 N 0.42762 0.23975 0.38953
 N570 N 0.40693 0.24125 0.36755
 C571 C 0.35870 0.22855 0.34765
 N572 N 0.36128 0.24695 0.32239
 N573 N 0.33947 0.25053 0.30204
 C574 C 0.31429 0.23584 0.30622
 N575 N 0.31179 0.21730 0.33135
 N576 N 0.33360 0.21372 0.35170
 C577 C 0.71338 0.88057 0.87453
 N578 N 0.71016 0.87364 0.90569
 N579 N 0.70779 0.89467 0.92757
 C580 C 0.70828 0.92358 0.91936
 N581 N 0.71108 0.93029 0.88795
 N582 N 0.71376 0.90929 0.86602
 C583 C 0.71757 0.85731 0.85072
 N584 N 0.72842 0.86360 0.82147
 N585 N 0.73378 0.84219 0.80058
 C586 C 0.72820 0.81378 0.80809
 N587 N 0.71701 0.80755 0.83718
 N588 N 0.71192 0.82891 0.85816
 C589 C 0.21082 0.38079 0.37445
 N590 N 0.20370 0.40861 0.36570
 N591 N 0.20061 0.42964 0.38755
 C592 C 0.20496 0.42380 0.41892
 N593 N 0.21219 0.39592 0.42748
 N594 N 0.21486 0.37480 0.40574
 C595 C 0.21498 0.35762 0.35059
 N596 N 0.21296 0.32895 0.35910
 N597 N 0.21798 0.30774 0.33794
 C598 C 0.22559 0.31441 0.30760
 N599 N 0.22762 0.34309 0.29904
 N600 N 0.22219 0.36434 0.32012
 C601 C 0.28872 0.11843 0.87349
 N602 N 0.29671 0.12525 0.90359
 N603 N 0.29891 0.10442 0.92570
 C604 C 0.29331 0.07584 0.91871
 N605 N 0.28591 0.06906 0.88827
 N606 N 0.28350 0.08992 0.86616
 C607 C 0.28420 0.14179 0.84988
 N608 N 0.27043 0.13613 0.82207
 N609 N 0.26460 0.15777 0.80165
 C610 C 0.27248 0.18580 0.80821
 N611 N 0.28657 0.19138 0.83584
 N612 N 0.29223 0.16979 0.85635
 C613 C 0.78948 0.61659 0.37234
 N614 N 0.80597 0.62157 0.39846
 N615 N 0.80925 0.60086 0.42059
 C616 C 0.79611 0.57443 0.41747
 N617 N 0.77990 0.56935 0.39115
 N618 N 0.77665 0.59004 0.36900
 C619 C 0.78442 0.63996 0.34887
 N620 N 0.76717 0.63517 0.32331
 N621 N 0.76133 0.65677 0.30287
 C622 C 0.77250 0.68396 0.30725
 N623 N 0.78993 0.68871 0.33268
 N624 N 0.79578 0.66710 0.35312
 C625 C 0.11698 0.72586 0.87282
 N626 N 0.08915 0.73275 0.86565
 N627 N 0.06859 0.73125 0.88786
 C628 C 0.07503 0.72310 0.91821
 N629 N 0.10296 0.71603 0.92509
 N630 N 0.12347 0.71730 0.90289
 C631 C 0.14002 0.72863 0.84898
 N632 N 0.16695 0.71810 0.85524
 N633 N 0.18835 0.72174 0.83442
 C634 C 0.18369 0.73622 0.80666
 N635 N 0.15673 0.74668 0.80028
 N636 N 0.13524 0.74286 0.82105
 C637 C 0.61698 0.22618 0.37159
 N638 N 0.59193 0.24154 0.36777
 N639 N 0.57105 0.24016 0.38963
 C640 C 0.57448 0.22342 0.41614
 N641 N 0.59943 0.20786 0.41977
 N642 N 0.62029 0.20923 0.39792
 C643 C 0.64061 0.22871 0.34832
 N644 N 0.66590 0.21394 0.35282
 N645 N 0.68782 0.21711 0.33253
 C646 C 0.68528 0.23517 0.30696
 N647 N 0.65993 0.24980 0.30231
 N648 N 0.63799 0.24663 0.32262
 C649 C 0.88300 0.27172 0.86946
 N650 N 0.90772 0.25573 0.86606
 N651 N 0.92840 0.25687 0.88806
 C652 C 0.92504 0.27400 0.91428
 N653 N 0.90046 0.29026 0.91748
 N654 N 0.87981 0.28911 0.89549
 C655 C 0.85951 0.26922 0.84619
 N656 N 0.83432 0.28424 0.85043
 N657 N 0.81243 0.28087 0.83023
 C658 C 0.81494 0.26233 0.80505
 N659 N 0.84020 0.24747 0.80066
 N660 N 0.86210 0.25085 0.82087
 C661 C 0.38266 0.77645 0.37286
 N662 N 0.40776 0.76111 0.36934
 N663 N 0.42840 0.76261 0.39135
 C664 C 0.42469 0.77947 0.41773
 N665 N 0.39968 0.79503 0.42108
 N666 N 0.37905 0.79353 0.39907
 C667 C 0.35932 0.77367 0.34938
 N668 N 0.33389 0.78832 0.35342
 N669 N 0.31225 0.78480 0.33291
 C670 C 0.31525 0.76648 0.30760
 N671 N 0.34075 0.75197 0.30343
 N672 N 0.36239 0.75551 0.32394
 C673 C 0.28733 0.88365 0.12864
 N674 N 0.27606 0.91095 0.13326
 N675 N 0.27890 0.93166 0.11109
 C676 C 0.29306 0.92581 0.08344
 N677 N 0.30462 0.89858 0.07900
 N678 N 0.30181 0.87790 0.10119
 C679 C 0.28261 0.86032 0.15217
 N680 N 0.29355 0.83290 0.14738
 N681 N 0.28795 0.81133 0.16787
 C682 C 0.27115 0.81639 0.19386
 N683 N 0.26038 0.84385 0.19877
 N684 N 0.26602 0.86543 0.17831
 C685 C 0.78820 0.38030 0.62801
 N686 N 0.77520 0.40697 0.63133
 N687 N 0.77869 0.42773 0.60935
 C688 C 0.79531 0.42261 0.58323
 N689 N 0.80862 0.39605 0.58014
 N690 N 0.80511 0.37527 0.60210
 C691 C 0.78286 0.35684 0.65123
 N692 N 0.79430 0.32956 0.64692
 N693 N 0.78823 0.30791 0.66715
 C694 C 0.77050 0.31277 0.69242
 N695 N 0.75924 0.34010 0.69686
 N696 N 0.76529 0.36173 0.67663
 C697 C 0.71504 0.11836 0.12606
 N698 N 0.71667 0.12481 0.09461
 N699 N 0.71392 0.10378 0.07283
 C700 C 0.70904 0.07550 0.08155
 N701 N 0.70706 0.06920 0.11311
 N702 N 0.71021 0.09016 0.13495
 C703 C 0.71935 0.14147 0.14989
 N704 N 0.72780 0.13468 0.17996
 N705 N 0.73324 0.15588 0.20097
 C706 C 0.73005 0.18457 0.19276
 N707 N 0.72124 0.19130 0.16283
 N708 N 0.71615 0.17015 0.14173
 C709 C 0.21316 0.62121 0.62557
 N710 N 0.20609 0.59359 0.63475
 N711 N 0.20256 0.57245 0.61318
 C712 C 0.20640 0.57797 0.58166
 N713 N 0.21361 0.60564 0.57267
 N714 N 0.21672 0.62687 0.59414
 C715 C 0.21764 0.64453 0.64909
 N716 N 0.21542 0.67315 0.64036
 N717 N 0.22051 0.69447 0.66126
 C718 C 0.22840 0.68794 0.69154
 N719 N 0.23067 0.65930 0.70031
 N720 N 0.22518 0.63796 0.67950
 C721 C 0.88459 0.72554 0.12836
 N722 N 0.88071 0.71017 0.10105
 N723 N 0.90127 0.70940 0.07883
 C724 C 0.92648 0.72400 0.08308
 N725 N 0.93049 0.73910 0.11057
 N726 N 0.90990 0.73990 0.13278
 C727 C 0.86128 0.72769 0.15201
 N728 N 0.86423 0.74490 0.17818
 N729 N 0.84248 0.74808 0.19876
 C730 C 0.81701 0.73412 0.19393
 N731 N 0.81415 0.71671 0.16792
 N732 N 0.83589 0.71356 0.14733
 C733 C 0.38202 0.22561 0.62704
 N734 N 0.37824 0.20887 0.60065
 N735 N 0.39870 0.20735 0.57833
 C736 C 0.42369 0.22256 0.58153
 N737 N 0.42756 0.23911 0.60806
 N738 N 0.40709 0.24062 0.63038
 C739 C 0.35894 0.22834 0.65096
 N740 N 0.36221 0.24619 0.67657
 N741 N 0.34080 0.24969 0.69754
 C742 C 0.31535 0.23544 0.69369
 N743 N 0.31216 0.21742 0.66821
 N744 N 0.33356 0.21393 0.64723
 C745 C 0.11623 0.27221 0.12485
 N746 N 0.08820 0.27622 0.13363
 N747 N 0.06746 0.27814 0.11170
 C748 C 0.07388 0.27570 0.08020
 N749 N 0.10194 0.27142 0.07162
 N750 N 0.12271 0.26994 0.09346
 C751 C 0.13931 0.27008 0.14867
 N752 N 0.16704 0.27588 0.14031
 N753 N 0.18831 0.27317 0.16143
 C754 C 0.18271 0.26419 0.19159
 N755 N 0.15497 0.25831 0.20000
 N756 N 0.13359 0.26142 0.17896
 C757 C 0.61694 0.77430 0.62799
 N758 N 0.62074 0.79102 0.60158
 N759 N 0.60019 0.79276 0.57948
 C760 C 0.57507 0.77781 0.58292
 N761 N 0.57116 0.76129 0.60948
 N762 N 0.59173 0.75954 0.63159
 C763 C 0.64019 0.77137 0.65160
 N764 N 0.63705 0.75363 0.67735
 N765 N 0.65865 0.75004 0.69799
 C766 C 0.68416 0.76408 0.69363
 N767 N 0.68722 0.78197 0.66802
 N768 N 0.66563 0.78555 0.64739
   
