data_POSCAR
  _audit_creation_date              2014-09-24
  _audit_creation_method            'ToBaCCo'
  _symmetry_space_group_name_H-M    'P1'
  _symmetry_Int_Tables_number       1
  _symmetry_cell_setting            triclinic
  loop_
  _symmetry_equiv_pos_as_xyz
 x,y,z
_cell_length_a 37.4947
_cell_length_b 37.4594
_cell_length_c 35.3570
_cell_angle_alpha 90.011600
_cell_angle_beta 89.947500
_cell_angle_gamma 85.662800
loop_
  _atom_site_label
  _atom_site_type_symbol
  _atom_site_fract_x
  _atom_site_fract_y
  _atom_site_fract_z
O1 O 0.02568 0.29361 -0.03553
 O2 O -0.04421 0.29513 0.03784
 O3 O 0.02538 0.29319 0.03769
 O4 O -0.04389 0.29691 -0.03602
 O5 O -0.04270 0.23789 -0.03612
 O6 O 0.02739 0.23415 0.03707
 O7 O -0.04202 0.23618 0.03682
 O8 O 0.02702 0.23463 -0.03710
 Cu9 Cu -0.00953 0.30063 0.00110
 Cu10 Cu -0.00720 0.22977 0.00002
 C11 C 0.03821 0.26379 -0.04893
 C12 C -0.05518 0.26589 0.04993
 C13 C 0.03824 0.26309 0.04999
 C14 C -0.05530 0.26809 -0.04849
 O15 O 0.47194 0.79054 0.53833
 O16 O 0.53965 0.79263 0.46300
 O17 O 0.47073 0.79077 0.46466
 O18 O 0.54094 0.79317 0.53705
 O19 O 0.54801 0.73414 0.53643
 O20 O 0.47662 0.73173 0.46496
 O21 O 0.54586 0.73360 0.46288
 O22 O 0.47841 0.73152 0.53849
 Cu23 Cu 0.50524 0.79769 0.50080
 Cu24 Cu 0.51289 0.72683 0.50078
 C25 C 0.46350 0.76067 0.55123
 C26 C 0.55413 0.76346 0.44982
 C27 C 0.46163 0.76091 0.45240
 C28 C 0.55654 0.76410 0.54906
 O29 O 0.97888 0.70616 -0.03813
 O30 O 1.04654 0.70541 0.03728
 O31 O 0.97665 0.70595 0.03572
 O32 O 1.04824 0.70553 -0.03577
 O33 O 1.04288 0.76451 -0.03698
 O34 O 0.97375 0.76499 0.03717
 O35 O 1.04296 0.76449 0.03695
 O36 O 0.97337 0.76512 -0.03657
 Cu37 Cu 1.01286 0.69985 -0.00017
 Cu38 Cu 1.00783 0.77068 0.00013
 C39 C 0.96440 0.73573 -0.05031
 C40 C 1.05660 0.73483 0.04972
 C41 C 0.96322 0.73553 0.04896
 C42 C 1.05774 0.73496 -0.04887
 O43 O 0.46145 0.20745 0.46371
 O44 O 0.53115 0.20904 0.53680
 O45 O 0.46210 0.20746 0.53770
 O46 O 0.53046 0.20824 0.46316
 O47 O 0.52580 0.26735 0.46362
 O48 O 0.45607 0.26650 0.53710
 O49 O 0.52539 0.26809 0.53682
 O50 O 0.45613 0.26651 0.46326
 Cu51 Cu 0.49675 0.20213 0.50038
 Cu52 Cu 0.49018 0.27305 0.50012
 C53 C 0.44705 0.23672 0.45075
 C54 C 0.54023 0.23884 0.54929
 C55 C 0.44747 0.23678 0.55029
 C56 C 0.54002 0.23791 0.45086
 O57 O 0.70872 0.04000 -0.04002
 O58 O 0.70886 -0.02807 0.03507
 O59 O 0.70716 0.04173 0.03348
 O60 O 0.70924 -0.02898 -0.03881
 O61 O 0.76828 -0.03271 -0.03788
 O62 O 0.76615 0.03741 0.03538
 O63 O 0.76780 -0.03210 0.03532
 O64 O 0.76770 0.03710 -0.03850
 Cu65 Cu 0.70258 0.00651 -0.00254
 Cu66 Cu 0.77341 0.00216 -0.00136
 C67 C 0.73821 0.05018 -0.05213
 C68 C 0.73839 -0.04201 0.04794
 C69 C 0.73624 0.05161 0.04687
 C70 C 0.73908 -0.04282 -0.05080
 O71 O 0.20408 0.53611 0.46498
 O72 O 0.19886 0.46697 0.53844
 O73 O 0.20437 0.53601 0.53809
 O74 O 0.19846 0.46707 0.46449
 O75 O 0.25727 0.45740 0.46469
 O76 O 0.26316 0.52635 0.53819
 O77 O 0.25767 0.45734 0.53752
 O78 O 0.26287 0.52642 0.46416
 Cu79 Cu 0.19553 0.50239 0.50153
 Cu80 Cu 0.26616 0.49110 0.50109
 C81 C 0.23439 0.54318 0.45212
 C82 C 0.22738 0.45015 0.55031
 C83 C 0.23478 0.54306 0.55061
 C84 C 0.22685 0.45025 0.45225
 O85 O 0.29163 1.02991 0.03832
 O86 O 0.29385 0.96019 -0.03528
 O87 O 0.29195 1.02971 -0.03555
 O88 O 0.29357 0.96046 0.03848
 O89 O 0.23461 0.96311 0.03811
 O90 O 0.23304 1.03279 -0.03553
 O91 O 0.23488 0.96304 -0.03550
 O92 O 0.23272 1.03284 0.03803
 Cu93 Cu 0.29864 0.99480 0.00150
 Cu94 Cu 0.22792 0.99823 0.00125
 C95 C 0.26180 1.04334 0.05093
 C96 C 0.26475 0.94967 -0.04801
 C97 C 0.26222 1.04320 -0.04831
 C98 C 0.26438 0.94992 0.05099
 O99 O 0.79443 0.53253 0.53591
 O100 O 0.78922 0.46726 0.45867
 O101 O 0.79523 0.53552 0.46209
 O102 O 0.79020 0.46359 0.53207
 O103 O 0.73140 0.47306 0.53364
 O104 O 0.73635 0.54439 0.46236
 O105 O 0.73031 0.47525 0.45983
 O106 O 0.73562 0.54179 0.53568
 Cu107 Cu 0.79817 0.49887 0.49718
 Cu108 Cu 0.72749 0.50946 0.49782
 C109 C 0.76586 0.54838 0.54898
 C110 C 0.75886 0.46000 0.44613
 C111 C 0.76670 0.55214 0.45011
 C112 C 0.76005 0.45616 0.54504
 C113 C 0.22577 0.25748 0.25392
 C114 C 0.25406 0.23247 0.25239
 C115 C 0.25583 0.20371 0.22349
 C116 C 0.28442 0.23259 0.27919
 C117 C 0.22196 0.28522 0.28413
 C118 C 0.19804 0.25891 0.22406
 C119 C 0.22996 0.17857 0.22258
 C120 C 0.23120 0.15212 0.19464
 C121 C 0.25833 0.15036 0.16700
 C122 C 0.28445 0.17542 0.16839
 C123 C 0.28332 0.20168 0.19654
 C124 C 0.29263 0.20278 0.30239
 C125 C 0.31966 0.20336 0.32947
 C126 C 0.33943 0.23361 0.33348
 C127 C 0.33181 0.26304 0.30929
 C128 C 0.30457 0.26252 0.28238
 C129 C 0.21477 0.32140 0.27435
 C130 C 0.21328 0.34796 0.30219
 C131 C 0.21927 0.33882 0.34027
 C132 C 0.22522 0.30260 0.35027
 C133 C 0.22592 0.27599 0.32253
 C134 C 0.20653 0.26860 0.18700
 C135 C 0.18055 0.26930 0.15869
 C136 C 0.14585 0.25986 0.16694
 C137 C 0.13742 0.25015 0.20409
 C138 C 0.16327 0.25008 0.23257
 H139 H 0.20884 0.17947 0.24355
 H140 H 0.21110 0.13285 0.19493
 H141 H 0.30541 0.17519 0.14730
 H142 H 0.30346 0.22094 0.19685
 H143 H 0.27732 0.17946 0.30031
 H144 H 0.32443 0.18044 0.34791
 H145 H 0.29891 0.28557 0.26428
 H146 H 0.21130 0.32921 0.24502
 H147 H 0.20868 0.37575 0.29388
 H148 H 0.22936 0.29495 0.37957
 H149 H 0.23020 0.24822 0.33098
 H150 H 0.23329 0.27557 0.18010
 H151 H 0.18765 0.27672 0.13020
 H152 H 0.11074 0.24306 0.21111
 H153 H 0.15639 0.24257 0.26109
 H154 H 0.34697 0.28646 0.31105
 C155 C 0.77092 0.74144 0.24865
 C156 C 0.74276 0.76657 0.24646
 C157 C 0.74175 0.79533 0.21765
 C158 C 0.71223 0.76710 0.27320
 C159 C 0.77403 0.71428 0.27941
 C160 C 0.79939 0.73949 0.21944
 C161 C 0.76796 0.82010 0.21725
 C162 C 0.76704 0.84703 0.18989
 C163 C 0.73991 0.84963 0.16231
 C164 C 0.71347 0.82489 0.16315
 C165 C 0.71427 0.79814 0.19076
 C166 C 0.70442 0.79712 0.29624
 C167 C 0.67779 0.79683 0.32387
 C168 C 0.65806 0.76665 0.32861
 C169 C 0.66507 0.73711 0.30438
 C170 C 0.69189 0.73735 0.27691
 C171 C 0.78029 0.67785 0.27036
 C172 C 0.78089 0.65187 0.29874
 C173 C 0.77491 0.66189 0.33661
 C174 C 0.76984 0.69834 0.34587
 C175 C 0.77007 0.72435 0.31759
 C176 C 0.79168 0.73018 0.18205
 C177 C 0.81852 0.72874 0.15451
 C178 C 0.85333 0.73711 0.16387
 C179 C 0.86096 0.74635 0.20136
 C180 C 0.83426 0.74712 0.22904
 H181 H 0.78902 0.81865 0.23827
 H182 H 0.78737 0.86605 0.19060
 H183 H 0.69249 0.82577 0.14209
 H184 H 0.69382 0.77921 0.19076
 H185 H 0.71989 0.82029 0.29378
 H186 H 0.67346 0.81985 0.34227
 H187 H 0.69723 0.71413 0.25896
 H188 H 0.78374 0.66943 0.24119
 H189 H 0.78489 0.62386 0.29104
 H190 H 0.76576 0.70663 0.37500
 H191 H 0.76646 0.75233 0.32543
 H192 H 0.76487 0.72404 0.17429
 H193 H 0.81200 0.72172 0.12575
 H194 H 0.88768 0.75266 0.20925
 H195 H 0.84060 0.75426 0.25782
 H196 H 0.64988 0.71375 0.30670
 C197 C 0.72896 0.24185 0.24863
 C198 C 0.75262 0.26764 0.24722
 C199 C 0.78085 0.26704 0.21790
 C200 C 0.75248 0.29706 0.27519
 C201 C 0.70179 0.24023 0.27916
 C202 C 0.72921 0.21397 0.21888
 C203 C 0.80810 0.23930 0.21693
 C204 C 0.83502 0.23926 0.18962
 C205 C 0.83511 0.26694 0.16269
 C206 C 0.80769 0.29473 0.16393
 C207 C 0.78097 0.29489 0.19148
 C208 C 0.78305 0.30079 0.29716
 C209 C 0.78344 0.32790 0.32413
 C210 C 0.75346 0.35234 0.32924
 C211 C 0.72295 0.34881 0.30673
 C212 C 0.72247 0.32137 0.27993
 C213 C 0.66608 0.23547 0.26969
 C214 C 0.64008 0.23427 0.29787
 C215 C 0.64927 0.23821 0.33600
 C216 C 0.68499 0.24237 0.34567
 C217 C 0.71117 0.24267 0.31754
 C218 C 0.71919 0.22304 0.18169
 C219 C 0.72005 0.19671 0.15364
 C220 C 0.73141 0.16105 0.16231
 C221 C 0.74138 0.15208 0.19961
 C222 C 0.73991 0.17831 0.22778
 H223 H 0.80867 0.21792 0.23759
 H224 H 0.85608 0.21784 0.18998
 H225 H 0.80661 0.31615 0.14332
 H226 H 0.76010 0.31653 0.19198
 H227 H 0.80640 0.28217 0.29394
 H228 H 0.80710 0.32930 0.34143
 H229 H 0.69881 0.31911 0.26281
 H230 H 0.65820 0.23316 0.24038
 H231 H 0.61263 0.23099 0.28989
 H232 H 0.69265 0.24486 0.37503
 H233 H 0.73870 0.24490 0.32577
 H234 H 0.71075 0.25049 0.17449
 H235 H 0.71241 0.20424 0.12503
 H236 H 0.74993 0.12470 0.20697
 H237 H 0.74768 0.17097 0.25641
 H238 H 0.69962 0.36748 0.30950
 C239 C 0.26940 0.75859 0.25261
 C240 C 0.24502 0.73357 0.25233
 C241 C 0.21762 0.73294 0.22234
 C242 C 0.24420 0.70604 0.28221
 C243 C 0.29776 0.75844 0.28177
 C244 C 0.26870 0.78733 0.22376
 C245 C 0.18161 0.74201 0.23111
 C246 C 0.15564 0.74261 0.20278
 C247 C 0.16525 0.73335 0.16546
 C248 C 0.20127 0.72362 0.15687
 C249 C 0.22735 0.72369 0.18510
 C250 C 0.23512 0.71569 0.31951
 C251 C 0.23379 0.68939 0.34742
 C252 C 0.24199 0.65314 0.33846
 C253 C 0.25132 0.64363 0.30112
 C254 C 0.25203 0.66987 0.27311
 C255 C 0.32327 0.72926 0.28536
 C256 C 0.34988 0.72945 0.31300
 C257 C 0.35146 0.75884 0.33762
 C258 C 0.32581 0.78804 0.33374
 C259 C 0.29941 0.78793 0.30591
 C260 C 0.29774 0.78942 0.19911
 C261 C 0.29702 0.81588 0.17121
 C262 C 0.26738 0.84106 0.16775
 C263 C 0.23856 0.83916 0.19302
 C264 C 0.23923 0.81255 0.22077
 H265 H 0.17376 0.74919 0.25978
 H266 H 0.12798 0.74993 0.21004
 H267 H 0.20924 0.71653 0.12823
 H268 H 0.25508 0.71656 0.17800
 H269 H 0.22882 0.74353 0.32686
 H270 H 0.22668 0.69733 0.37606
 H271 H 0.25898 0.66204 0.24439
 H272 H 0.32269 0.70650 0.26654
 H273 H 0.36956 0.70682 0.31470
 H274 H 0.32582 0.81085 0.35255
 H275 H 0.27988 0.81065 0.30353
 H276 H 0.32069 0.77013 0.20107
 H277 H 0.31944 0.81621 0.15194
 H278 H 0.21564 0.85851 0.19167
 H279 H 0.21682 0.81165 0.24001
 H280 H 0.25743 0.61582 0.29352
 C281 C 0.75584 0.26930 0.74933
 C282 C 0.73270 0.24300 0.74827
 C283 C 0.70442 0.24273 0.71904
 C284 C 0.73404 0.21347 0.77623
 C285 C 0.78270 0.27175 0.78002
 C286 C 0.75595 0.29634 0.71876
 C287 C 0.67792 0.27110 0.71628
 C288 C 0.65121 0.27049 0.68883
 C289 C 0.65051 0.24147 0.66363
 C290 C 0.67709 0.21302 0.66670
 C291 C 0.70364 0.21356 0.69432
 C292 C 0.70393 0.20854 0.79857
 C293 C 0.70499 0.18159 0.82586
 C294 C 0.73604 0.15857 0.83092
 C295 C 0.76600 0.16318 0.80789
 C296 C 0.76500 0.19040 0.78077
 C297 C 0.81850 0.27640 0.77075
 C298 C 0.84432 0.27749 0.79910
 C299 C 0.83484 0.27356 0.83717
 C300 C 0.79897 0.26982 0.84663
 C301 C 0.77299 0.26961 0.81834
 C302 C 0.76539 0.28602 0.68172
 C303 C 0.76561 0.31162 0.65301
 C304 C 0.75601 0.34784 0.66088
 C305 C 0.74647 0.35806 0.69799
 C306 C 0.74681 0.33251 0.72680
 H307 H 0.67779 0.29354 0.73561
 H308 H 0.63078 0.29249 0.68773
 H309 H 0.67767 0.19052 0.64743
 H310 H 0.72391 0.19143 0.69614
 H311 H 0.67984 0.22616 0.79545
 H312 H 0.68166 0.17926 0.84347
 H313 H 0.78832 0.19354 0.76334
 H314 H 0.82663 0.27846 0.74148
 H315 H 0.87188 0.28041 0.79127
 H316 H 0.79108 0.26729 0.87593
 H317 H 0.74539 0.26739 0.82637
 H318 H 0.77273 0.25818 0.67516
 H319 H 0.77293 0.30314 0.62459
 H320 H 0.73933 0.38588 0.70475
 H321 H 0.73959 0.34084 0.75531
 H322 H 0.79010 0.14555 0.81056
 C323 C 0.24623 0.73310 0.75084
 C324 C 0.27063 0.75806 0.75067
 C325 C 0.29925 0.75790 0.72174
 C326 C 0.26986 0.78661 0.77970
 C327 C 0.21864 0.73277 0.78065
 C328 C 0.24546 0.70556 0.72096
 C329 C 0.32480 0.72873 0.71838
 C330 C 0.35180 0.72900 0.69111
 C331 C 0.35371 0.75844 0.66664
 C332 C 0.32801 0.78763 0.67029
 C333 C 0.30123 0.78745 0.69776
 C334 C 0.29771 0.78718 0.80601
 C335 C 0.29691 0.81364 0.83394
 C336 C 0.26837 0.84024 0.83578
 C337 C 0.24075 0.83979 0.80889
 C338 C 0.24153 0.81323 0.78108
 C339 C 0.18379 0.74732 0.77333
 C340 C 0.15783 0.74818 0.80174
 C341 C 0.16617 0.73366 0.83753
 C342 C 0.20095 0.71852 0.84460
 C343 C 0.22715 0.71841 0.81641
 C344 C 0.23604 0.71525 0.68378
 C345 C 0.23465 0.68900 0.65581
 C346 C 0.24315 0.65276 0.66457
 C347 C 0.25288 0.64322 0.70178
 C348 C 0.25365 0.66940 0.72985
 H349 H 0.32399 0.70594 0.73711
 H350 H 0.37149 0.70637 0.68959
 H351 H 0.32825 0.81047 0.65157
 H352 H 0.28168 0.81017 0.69998
 H353 H 0.31978 0.76679 0.80526
 H354 H 0.31837 0.81292 0.85446
 H355 H 0.22014 0.81351 0.76050
 H356 H 0.17693 0.75848 0.74579
 H357 H 0.13110 0.75977 0.79569
 H358 H 0.20791 0.70729 0.87208
 H359 H 0.25400 0.70712 0.82237
 H360 H 0.22949 0.74308 0.67657
 H361 H 0.22724 0.69698 0.62727
 H362 H 0.25924 0.61542 0.70923
 H363 H 0.26090 0.66154 0.75847
 H364 H 0.21875 0.86025 0.80903
 C365 C 0.25624 0.23288 0.75090
 C366 C 0.22799 0.25794 0.74922
 C367 C 0.22431 0.28555 0.71892
 C368 C 0.19995 0.25944 0.77880
 C369 C 0.25772 0.20405 0.77971
 C370 C 0.28664 0.23286 0.72407
 C371 C 0.21709 0.32175 0.72860
 C372 C 0.21539 0.34819 0.70065
 C373 C 0.22118 0.33890 0.66258
 C374 C 0.22725 0.30265 0.65269
 C375 C 0.22817 0.27616 0.68055
 C376 C 0.20812 0.26870 0.81607
 C377 C 0.18169 0.26977 0.84399
 C378 C 0.14687 0.26114 0.83510
 C379 C 0.13878 0.25189 0.79774
 C380 C 0.16507 0.25144 0.76968
 C381 C 0.23168 0.17909 0.78047
 C382 C 0.23268 0.15253 0.80827
 C383 C 0.25973 0.15048 0.83594
 C384 C 0.28603 0.17537 0.83470
 C385 C 0.28515 0.20174 0.80668
 C386 C 0.29480 0.20297 0.70094
 C387 C 0.32163 0.20354 0.67358
 C388 C 0.34124 0.23386 0.66921
 C389 C 0.33375 0.26334 0.69338
 C390 C 0.30671 0.26283 0.72059
 H391 H 0.21369 0.32967 0.75792
 H392 H 0.21071 0.37601 0.70888
 H393 H 0.23125 0.29490 0.62339
 H394 H 0.23247 0.24836 0.67220
 H395 H 0.23494 0.27510 0.82342
 H396 H 0.18853 0.27681 0.87266
 H397 H 0.15843 0.24433 0.74098
 H398 H 0.21061 0.18020 0.75948
 H399 H 0.21245 0.13340 0.80785
 H400 H 0.30695 0.17493 0.85581
 H401 H 0.30543 0.22085 0.80649
 H402 H 0.27953 0.17964 0.70322
 H403 H 0.32632 0.18057 0.65518
 H404 H 0.34880 0.28681 0.69133
 H405 H 0.30109 0.28595 0.73862
 H406 H 0.11202 0.24541 0.79025
 C407 C 0.74697 0.76447 0.75016
 C408 C 0.77335 0.73725 0.75104
 C409 C 0.77363 0.70663 0.72446
 C410 C 0.80312 0.73663 0.77869
 C411 C 0.74434 0.79285 0.77977
 C412 C 0.71927 0.76686 0.71981
 C413 C 0.74436 0.68551 0.72227
 C414 C 0.74375 0.65847 0.69514
 C415 C 0.77247 0.65198 0.66981
 C416 C 0.80233 0.67235 0.67310
 C417 C 0.80297 0.69928 0.70035
 C418 C 0.80840 0.70790 0.80396
 C419 C 0.83521 0.70773 0.83134
 C420 C 0.85782 0.73600 0.83355
 C421 C 0.85301 0.76431 0.80741
 C422 C 0.82587 0.76464 0.78029
 C423 C 0.74015 0.82907 0.76922
 C424 C 0.73840 0.85593 0.79675
 C425 C 0.74124 0.84698 0.83521
 C426 C 0.74469 0.81083 0.84587
 C427 C 0.74552 0.78398 0.81842
 C428 C 0.72886 0.76393 0.68140
 C429 C 0.70255 0.76389 0.65343
 C430 C 0.66622 0.76817 0.66324
 C431 C 0.65659 0.77286 0.70139
 C432 C 0.68289 0.77201 0.72945
 H433 H 0.72175 0.69043 0.74115
 H434 H 0.72072 0.64274 0.69390
 H435 H 0.82471 0.66829 0.65382
 H436 H 0.82581 0.71529 0.70174
 H437 H 0.79103 0.68608 0.80315
 H438 H 0.83767 0.68579 0.85131
 H439 H 0.82248 0.78680 0.76061
 H440 H 0.73876 0.83654 0.73964
 H441 H 0.73561 0.88372 0.78804
 H442 H 0.74632 0.80344 0.87547
 H443 H 0.74735 0.75627 0.82736
 H444 H 0.75673 0.76121 0.67308
 H445 H 0.71053 0.76080 0.62409
 H446 H 0.62868 0.77625 0.70952
 H447 H 0.67482 0.77467 0.75880
 H448 H 0.87034 0.78614 0.80772
 C449 C 0.22819 0.08600 0.09249
 C450 C 0.26096 0.06975 0.07927
 C451 C 0.29288 0.08046 0.09523
 C452 C 0.29200 0.10640 0.12371
 C453 C 0.25926 0.12262 0.13679
 C454 C 0.22738 0.11217 0.12072
 H455 H 0.20300 0.07874 0.08089
 H456 H 0.31868 0.06858 0.08607
 H457 H 0.31704 0.11338 0.13585
 H458 H 0.20171 0.12456 0.12960
 C459 C 0.73698 0.59606 0.59084
 C460 C 0.76769 0.57467 0.57999
 C461 C 0.79997 0.57857 0.59916
 C462 C 0.80149 0.60335 0.62858
 C463 C 0.77081 0.62490 0.63930
 C464 C 0.73855 0.62097 0.62005
 H465 H 0.71174 0.59384 0.57649
 H466 H 0.82403 0.56231 0.59161
 H467 H 0.82663 0.60539 0.64315
 H468 H 0.71460 0.63763 0.62709
 C469 C 0.70646 0.92111 0.09183
 C470 C 0.73862 0.93149 0.07612
 C471 C 0.77115 0.91461 0.08918
 C472 C 0.77148 0.88806 0.11691
 C473 C 0.73938 0.87786 0.13269
 C474 C 0.70687 0.89476 0.11987
 H475 H 0.68085 0.93349 0.08275
 H476 H 0.79652 0.92159 0.07774
 H477 H 0.79697 0.87515 0.12559
 H478 H 0.68168 0.88796 0.13182
 C479 C 0.19572 0.42098 0.60310
 C480 C 0.22544 0.42165 0.57893
 C481 C 0.25340 0.39467 0.58218
 C482 C 0.25163 0.36743 0.60893
 C483 C 0.22219 0.36706 0.63342
 C484 C 0.19430 0.39412 0.63042
 H485 H 0.17384 0.44150 0.60122
 H486 H 0.27653 0.39442 0.56378
 H487 H 0.27356 0.34697 0.61099
 H488 H 0.17133 0.39425 0.64902
 C489 C 0.90406 0.29868 0.09408
 C490 C 0.91799 0.26629 0.07773
 C491 C 0.90431 0.23416 0.08974
 C492 C 0.87738 0.23445 0.11705
 C493 C 0.86364 0.26677 0.13346
 C494 C 0.87737 0.29888 0.12171
 H495 H 0.91393 0.32399 0.08581
 H496 H 0.91407 0.20863 0.07778
 H497 H 0.86699 0.20930 0.12491
 H498 H 0.86782 0.32420 0.13422
 C499 C 0.42084 0.72780 0.59041
 C500 C 0.43594 0.75988 0.58117
 C501 C 0.42418 0.79135 0.60054
 C502 C 0.39785 0.79078 0.62848
 C503 C 0.38234 0.75880 0.63746
 C504 C 0.39423 0.72730 0.61811
 H505 H 0.42918 0.70315 0.57582
 H506 H 0.43550 0.81644 0.59428
 H507 H 0.38989 0.81540 0.64329
 H508 H 0.38251 0.70231 0.62385
 C509 C 0.10823 0.70409 0.08456
 C510 C 0.08447 0.73452 0.07923
 C511 C 0.08767 0.76466 0.10230
 C512 C 0.11381 0.76418 0.13049
 C513 C 0.13766 0.73384 0.13559
 C514 C 0.13482 0.70389 0.11225
 H515 H 0.10647 0.68056 0.06706
 H516 H 0.06966 0.78844 0.09885
 H517 H 0.11568 0.78764 0.14809
 H518 H 0.15285 0.68015 0.11587
 C519 C 0.58300 0.27176 0.58804
 C520 C 0.56833 0.23951 0.57856
 C521 C 0.58081 0.20793 0.59726
 C522 C 0.60732 0.20859 0.62494
 C523 C 0.62216 0.24081 0.63434
 C524 C 0.60971 0.27237 0.61550
 H525 H 0.57410 0.29651 0.57394
 H526 H 0.56987 0.18270 0.59075
 H527 H 0.61584 0.18391 0.63934
 H528 H 0.62096 0.29752 0.62159
 C529 C 0.70691 0.08589 0.89639
 C530 C 0.73804 0.07741 0.91759
 C531 C 0.76883 0.09523 0.90963
 C532 C 0.76829 0.12143 0.88142
 C533 C 0.73705 0.13009 0.86030
 C534 C 0.70648 0.11175 0.86793
 H535 H 0.68287 0.07233 0.90158
 H536 H 0.79319 0.08936 0.92564
 H537 H 0.79215 0.13540 0.87670
 H538 H 0.68220 0.11717 0.85172
 C539 C 0.20790 0.59740 0.41810
 C540 C 0.23648 0.57133 0.42309
 C541 C 0.26705 0.57255 0.40024
 C542 C 0.26879 0.59906 0.37261
 C543 C 0.24030 0.62521 0.36783
 C544 C 0.20993 0.62428 0.39095
 H545 H 0.18408 0.59722 0.43543
 H546 H 0.28945 0.55277 0.40344
 H547 H 0.29255 0.59940 0.35519
 H548 H 0.18754 0.64404 0.38757
 C549 C 0.29812 0.90962 0.90503
 C550 C 0.26565 0.92168 0.92233
 C551 C 0.23408 0.90678 0.91096
 C552 C 0.23497 0.88034 0.88299
 C553 C 0.26743 0.86833 0.86558
 C554 C 0.29898 0.88333 0.87692
 H555 H 0.32289 0.92070 0.91299
 H556 H 0.20867 0.91535 0.92387
 H557 H 0.21028 0.86896 0.87537
 H558 H 0.32433 0.87511 0.86370
 C559 C 0.72488 0.41760 0.40789
 C560 C 0.75690 0.43346 0.41542
 C561 C 0.78733 0.42341 0.39364
 C562 C 0.78592 0.39775 0.36517
 C563 C 0.75419 0.38110 0.35816
 C564 C 0.72359 0.39153 0.37970
 H565 H 0.70104 0.42475 0.42435
 H566 H 0.81227 0.43550 0.39848
 H567 H 0.80977 0.39102 0.34858
 H568 H 0.69885 0.37894 0.37542
 C569 C 0.08657 0.29254 0.91624
 C570 C 0.06605 0.26305 0.92144
 C571 C 0.07232 0.23291 0.89802
 C572 C 0.09838 0.23243 0.86970
 C573 C 0.11905 0.26180 0.86477
 C574 C 0.11306 0.29178 0.88838
 H575 H 0.08238 0.31607 0.93397
 H576 H 0.05682 0.20986 0.90133
 H577 H 0.10274 0.20894 0.85193
 H578 H 0.12860 0.31479 0.88492
 C579 C 0.58473 0.79605 0.39874
 C580 C 0.58063 0.76427 0.41884
 C581 C 0.60186 0.73318 0.40880
 C582 C 0.62685 0.73393 0.37951
 C583 C 0.63095 0.76571 0.35929
 C584 C 0.60947 0.79672 0.36920
 H585 H 0.56854 0.82037 0.40558
 H586 H 0.59946 0.70832 0.42389
 H587 H 0.64340 0.70973 0.37315
 H588 H 0.61150 0.82150 0.35387
 C589 C 0.92998 0.70373 0.90370
 C590 C 0.93846 0.73589 0.92097
 C591 C 0.92039 0.76818 0.90876
 C592 C 0.89434 0.76820 0.88050
 C593 C 0.88595 0.73605 0.86327
 C594 C 0.90430 0.70386 0.87509
 H595 H 0.94340 0.67830 0.91197
 H596 H 0.92595 0.79352 0.92137
 H597 H 0.88032 0.79343 0.87264
 H598 H 0.89909 0.67867 0.86199
 C599 C 0.41482 0.20423 0.40096
 C600 C 0.41966 0.23604 0.42072
 C601 C 0.39825 0.26717 0.41133
 C602 C 0.37231 0.26642 0.38302
 C603 C 0.36744 0.23460 0.36318
 C604 C 0.38915 0.20356 0.37240
 H605 H 0.43114 0.17988 0.40730
 H606 H 0.40123 0.29206 0.42619
 H607 H 0.35564 0.29065 0.37715
 H608 H 0.38659 0.17875 0.35728
 C609 C 0.71117 0.92773 0.89441
 C610 C 0.73976 0.92909 0.91991
 C611 C 0.76889 0.90334 0.91725
 C612 C 0.76917 0.87637 0.88991
 C613 C 0.74075 0.87528 0.86424
 C614 C 0.71187 0.90127 0.86649
 H615 H 0.68848 0.94738 0.89579
 H616 H 0.79117 0.90375 0.93668
 H617 H 0.79173 0.85657 0.88846
 H618 H 0.68967 0.90076 0.84696
 C619 C 0.19469 0.42118 0.39978
 C620 C 0.22461 0.42177 0.42361
 C621 C 0.25245 0.39468 0.42009
 C622 C 0.25033 0.36741 0.39342
 C623 C 0.22067 0.36709 0.36929
 C624 C 0.19293 0.39428 0.37253
 H625 H 0.17289 0.44178 0.40187
 H626 H 0.27573 0.39437 0.43823
 H627 H 0.27216 0.34685 0.39118
 H628 H 0.16979 0.39447 0.35419
 C629 C 0.29366 0.08022 0.90754
 C630 C 0.26163 0.06960 0.92336
 C631 C 0.22897 0.08599 0.91006
 C632 C 0.22841 0.11224 0.88193
 C633 C 0.26041 0.12262 0.86602
 C634 C 0.29303 0.10622 0.87915
 H635 H 0.31938 0.06822 0.91677
 H636 H 0.20369 0.07882 0.92155
 H637 H 0.20282 0.12475 0.87301
 H638 H 0.31816 0.11312 0.86713
 C639 C 0.74113 0.60761 0.41751
 C640 C 0.76895 0.58057 0.42148
 C641 C 0.79897 0.58078 0.39768
 C642 C 0.80089 0.60719 0.37001
 C643 C 0.77319 0.63429 0.36623
 C644 C 0.74342 0.63447 0.39036
 H645 H 0.71777 0.60813 0.43559
 H646 H 0.82072 0.56017 0.40005
 H647 H 0.82411 0.60665 0.35171
 H648 H 0.72165 0.65504 0.38770
 C649 C 0.09322 0.76677 0.90577
 C650 C 0.08469 0.73475 0.92342
 C651 C 0.10374 0.70245 0.91260
 C652 C 0.13061 0.70225 0.88517
 C653 C 0.13851 0.73412 0.86733
 C654 C 0.11956 0.76634 0.87772
 H655 H 0.07925 0.79218 0.91319
 H656 H 0.09815 0.67724 0.92550
 H657 H 0.14486 0.67708 0.87738
 H658 H 0.12541 0.79125 0.86434
 C659 C 0.57357 0.20903 0.39647
 C660 C 0.56796 0.23807 0.42148
 C661 C 0.58943 0.26708 0.41831
 C662 C 0.61630 0.26685 0.39086
 C663 C 0.62153 0.23803 0.36561
 C664 C 0.59986 0.20922 0.36846
 H665 H 0.55729 0.18640 0.39826
 H666 H 0.58574 0.28969 0.43738
 H667 H 0.63269 0.28940 0.38893
 H668 H 0.60358 0.18671 0.34925
 C669 C 0.91190 0.29915 0.89786
 C670 C 0.91642 0.26969 0.92244
 C671 C 0.89363 0.24177 0.91907
 C672 C 0.86663 0.24341 0.89176
 C673 C 0.86252 0.27258 0.86686
 C674 C 0.88543 0.30037 0.86998
 H675 H 0.92920 0.32096 0.89983
 H676 H 0.89644 0.21886 0.93780
 H677 H 0.84933 0.22161 0.88961
 H678 H 0.88260 0.32312 0.85103
 C679 C 0.41823 0.72818 0.41405
 C680 C 0.43347 0.76022 0.42314
 C681 C 0.42167 0.79171 0.40386
 C682 C 0.39530 0.79118 0.37603
 C683 C 0.37980 0.75921 0.36703
 C684 C 0.39158 0.72771 0.38643
 H685 H 0.42664 0.70351 0.42855
 H686 H 0.43310 0.81677 0.40999
 H687 H 0.38741 0.81579 0.36120
 H688 H 0.37986 0.70274 0.38066
 C689 C 0.29712 0.91148 0.09964
 C690 C 0.26509 0.92214 0.08083
 C691 C 0.23376 0.90605 0.09086
 C692 C 0.23451 0.87975 0.11896
 C693 C 0.26654 0.86911 0.13789
 C694 C 0.29782 0.88538 0.12793
 H695 H 0.32167 0.92354 0.09276
 H696 H 0.20869 0.91354 0.07674
 H697 H 0.21006 0.86737 0.12545
 H698 H 0.32282 0.87830 0.14235
 C699 C 0.78765 0.40248 0.57914
 C700 C 0.75846 0.42781 0.57393
 C701 C 0.72815 0.42625 0.59710
 C702 C 0.72734 0.40026 0.62541
 C703 C 0.75655 0.37502 0.63059
 C704 C 0.78657 0.37615 0.60700
 H705 H 0.81132 0.40299 0.56163
 H706 H 0.70532 0.44549 0.59379
 H707 H 0.70382 0.39972 0.64314
 H708 H 0.80950 0.35709 0.61065
 C709 C 0.70431 0.10304 0.08116
 C710 C 0.73520 0.07983 0.07616
 C711 C 0.76494 0.08371 0.09955
 C712 C 0.76362 0.10997 0.12772
 C713 C 0.73280 0.13324 0.13254
 C714 C 0.70324 0.12970 0.10888
 H715 H 0.68103 0.10074 0.06346
 H716 H 0.78906 0.06615 0.09640
 H717 H 0.78682 0.11240 0.14552
 H718 H 0.67913 0.14723 0.11224
 C719 C 0.20851 0.59714 0.58514
 C720 C 0.23710 0.57115 0.57971
 C721 C 0.26786 0.57236 0.60222
 C722 C 0.26978 0.59880 0.62994
 C723 C 0.24127 0.62488 0.63514
 C724 C 0.21072 0.62394 0.61236
 H725 H 0.18454 0.59696 0.56809
 H726 H 0.29026 0.55264 0.59870
 H727 H 0.29368 0.59913 0.64708
 H728 H 0.18831 0.64363 0.61606
 C729 C 0.91478 0.70613 0.08326
 C730 C 0.93516 0.73578 0.07840
 C731 C 0.92845 0.76580 0.10193
 C732 C 0.90212 0.76603 0.12996
 C733 C 0.88153 0.73655 0.13453
 C734 C 0.88795 0.70666 0.11083
 H735 H 0.91930 0.68269 0.06545
 H736 H 0.94381 0.78898 0.09891
 H737 H 0.89746 0.78946 0.14777
 H738 H 0.87248 0.68357 0.11398
 C739 C 0.41601 0.20450 0.60086
 C740 C 0.42043 0.23621 0.58075
 C741 C 0.39897 0.26730 0.59023
 C742 C 0.37339 0.26659 0.61897
 C743 C 0.36893 0.23485 0.63913
 C744 C 0.39070 0.20387 0.62982
 H745 H 0.43238 0.18018 0.59447
 H746 H 0.40164 0.29211 0.57513
 H747 H 0.35667 0.29078 0.62493
 H748 H 0.38845 0.17914 0.64517
 C749 C 0.08613 0.29159 0.08564
 C750 C 0.06604 0.26191 0.07964
 C751 C 0.07252 0.23141 0.10247
 C752 C 0.09827 0.23083 0.13111
 C753 C 0.11844 0.26045 0.13688
 C754 C 0.11230 0.29073 0.11377
 H755 H 0.08179 0.31541 0.06839
 H756 H 0.05734 0.20822 0.09854
 H757 H 0.10275 0.20711 0.14849
 H758 H 0.12744 0.31394 0.11788
 C759 C 0.61141 0.73693 0.58147
 C760 C 0.58476 0.76520 0.57809
 C761 C 0.58524 0.79457 0.60279
 C762 C 0.61157 0.79541 0.63068
 C763 C 0.63837 0.76732 0.63377
 C764 C 0.63823 0.73819 0.60880
 H765 H 0.61173 0.71405 0.56270
 H766 H 0.56492 0.81664 0.60089
 H767 H 0.61128 0.81816 0.64962
 H768 H 0.65859 0.71615 0.61088
   
