data_POSCAR
  _audit_creation_date              2014-09-24
  _audit_creation_method            'ToBaCCo'
  _symmetry_space_group_name_H-M    'P1'
  _symmetry_Int_Tables_number       1
  _symmetry_cell_setting            triclinic
  loop_
  _symmetry_equiv_pos_as_xyz
 x,y,z
_cell_length_a 43.7708
_cell_length_b 43.7551
_cell_length_c 43.7413
_cell_angle_alpha 89.997600
_cell_angle_beta 89.963100
_cell_angle_gamma 90.011200
loop_
  _atom_site_label
  _atom_site_type_symbol
  _atom_site_fract_x
  _atom_site_fract_y
  _atom_site_fract_z
C1 C 0.20278 0.52322 1.03774
 H2 H 0.20201 0.54074 1.02030
 C3 C 0.18208 0.52395 1.06202
 H4 H 0.16536 0.54218 1.06333
 C5 C 0.22493 0.47756 1.05680
 H6 H 0.24123 0.45920 1.05436
 C7 C 0.20463 0.47741 1.08148
 H8 H 0.20558 0.45903 1.09807
 N9 N 0.22375 0.50036 1.03565
 C10 C 0.29617 0.53702 0.97777
 H11 H 0.29696 0.51955 0.96027
 C12 C 0.31685 0.56130 0.97697
 H13 H 0.33359 0.56265 0.95877
 C14 C 0.27400 0.55617 1.02341
 H15 H 0.25770 0.55377 1.04180
 C16 C 0.29429 0.58084 1.02348
 H17 H 0.29339 0.59749 1.04178
 Zn18 Zn 0.24948 0.50019 1.00086
 N19 N 0.27520 0.53497 1.00065
 C20 C 0.22500 0.52273 0.94486
 N21 N 0.22377 0.49999 0.96608
 C22 C 0.20282 0.47711 0.96403
 C23 C 0.18220 0.47628 0.93971
 C24 C 0.20476 0.52277 0.92015
 C25 C 0.29617 0.46336 1.02389
 C26 C 0.31684 0.43908 1.02462
 C27 C 0.29431 0.41961 0.97810
 C28 C 0.27402 0.44427 0.97823
 N29 N 0.27520 0.46543 1.00102
 H30 H 0.24128 0.54111 0.94726
 H31 H 0.20201 0.45963 0.98151
 H32 H 0.16548 0.45807 0.93835
 H33 H 0.20570 0.54104 0.90347
 H34 H 0.29695 0.48080 1.04140
 H35 H 0.33357 0.43772 1.04281
 H36 H 0.29341 0.40299 0.95978
 H37 H 0.25773 0.44670 0.95986
 C38 C 0.31593 0.58336 1.00008
 C39 C 0.18296 0.50079 1.08406
 C40 C 0.31594 0.41706 1.00149
 C41 C 0.18316 0.49935 0.91761
 C42 C 0.79661 0.52333 -0.03640
 H43 H 0.79745 0.54080 -0.01892
 C44 C 0.81725 0.52409 -0.06073
 H45 H 0.83403 0.54225 -0.06209
 C46 C 0.77433 0.47776 -0.05555
 H47 H 0.75801 0.45941 -0.05313
 C48 C 0.79459 0.47766 -0.08026
 H49 H 0.79363 0.45937 -0.09693
 N50 N 0.77560 0.50049 -0.03433
 C51 C 0.70336 0.53713 0.02376
 H52 H 0.70258 0.51965 0.04124
 C53 C 0.68270 0.56142 0.02459
 H54 H 0.66598 0.56276 0.04282
 C55 C 0.72547 0.55630 -0.02192
 H56 H 0.74172 0.55390 -0.04034
 C57 C 0.70519 0.58097 -0.02194
 H58 H 0.70607 0.59763 -0.04024
 Zn59 Zn 0.74993 0.50027 0.00050
 N60 N 0.72429 0.53509 0.00083
 C61 C 0.77460 0.52262 0.05649
 N62 N 0.77571 0.49993 0.03522
 C63 C 0.79663 0.47701 0.03715
 C64 C 0.81734 0.47611 0.06138
 C65 C 0.79494 0.52259 0.08112
 C66 C 0.70314 0.46361 -0.02257
 C67 C 0.68244 0.43935 -0.02340
 C68 C 0.70502 0.41964 0.02299
 C69 C 0.72534 0.44428 0.02296
 N70 N 0.72414 0.46555 0.00027
 H71 H 0.75835 0.54103 0.05418
 H72 H 0.79734 0.45957 0.01963
 H73 H 0.83404 0.45788 0.06264
 H74 H 0.79411 0.54083 0.09783
 H75 H 0.70236 0.48113 -0.04001
 H76 H 0.66569 0.43807 -0.04158
 H77 H 0.70593 0.40291 0.04124
 H78 H 0.74166 0.44661 0.04131
 C79 C 0.68358 0.58349 0.00149
 C80 C 0.81627 0.50101 -0.08281
 C81 C 0.68337 0.41721 -0.00038
 C82 C 0.81652 0.49914 0.08352
 C83 C -0.02297 0.29718 0.46233
 H84 H -0.04046 0.29794 0.47981
 C85 C -0.02377 0.31787 0.43805
 H86 H -0.04200 0.33457 0.43678
 C87 C 0.02265 0.27504 0.44316
 H88 H 0.04102 0.25876 0.44557
 C89 C 0.02275 0.29534 0.41849
 H90 H 0.04109 0.29439 0.40185
 N91 N -0.00010 0.27622 0.46437
 C92 C -0.03660 0.20373 0.52227
 H93 H -0.01910 0.20295 0.53971
 C94 C -0.06087 0.18305 0.52313
 H95 H -0.06217 0.16630 0.54132
 C96 C -0.05586 0.22593 0.47671
 H97 H -0.05350 0.24224 0.45833
 C98 C -0.08052 0.20563 0.47670
 H99 H -0.09722 0.20654 0.45845
 Zn100 Zn 0.00013 0.25048 0.49914
 N101 N -0.03461 0.22472 0.49940
 C102 C -0.02238 0.27493 0.55519
 N103 N 0.00035 0.27618 0.53395
 C104 C 0.02320 0.29717 0.53600
 C105 C 0.02402 0.31778 0.56035
 C106 C -0.02243 0.29515 0.57992
 C107 C 0.03694 0.20380 0.47601
 C108 C 0.06122 0.18313 0.47520
 C109 C 0.08075 0.20569 0.52168
 C110 C 0.05609 0.22597 0.52163
 N111 N 0.03490 0.22477 0.49889
 H112 H -0.04074 0.25863 0.55278
 H113 H 0.04067 0.29800 0.51851
 H114 H 0.04221 0.33451 0.56172
 H115 H -0.04069 0.29419 0.59661
 H116 H 0.01948 0.20301 0.45853
 H117 H 0.06256 0.16639 0.45700
 H118 H 0.09741 0.20659 0.53997
 H119 H 0.05369 0.24226 0.54002
 C120 C -0.08299 0.18398 0.50010
 C121 C -0.00065 0.31699 0.41595
 C122 C 0.08328 0.18405 0.49828
 C123 C 0.00096 0.31678 0.58247
 C124 C 0.97687 0.70325 0.53671
 H125 H 0.95945 0.70241 0.51920
 C126 C 0.97603 0.68261 0.56104
 H127 H 0.95786 0.66585 0.56237
 C128 C 1.02240 0.72549 0.55595
 H129 H 1.04077 0.74180 0.55356
 C130 C 1.02243 0.70524 0.58065
 H131 H 1.04067 0.70619 0.59735
 N132 N 0.99972 0.72424 0.53469
 C133 C 0.96332 0.79654 0.47658
 H134 H 0.98085 0.79731 0.45914
 C135 C 0.93905 0.81721 0.47568
 H136 H 0.93777 0.83393 0.45746
 C137 C 0.94399 0.77443 0.52218
 H138 H 0.94633 0.75816 0.54060
 C139 C 0.91934 0.79472 0.52215
 H140 H 0.90262 0.79384 0.54040
 Zn141 Zn 1.00005 0.74991 0.49987
 N142 N 0.96527 0.77560 0.49949
 C143 C 0.97776 0.72527 0.44385
 N144 N 1.00043 0.72413 0.46513
 C145 C 1.02332 0.70318 0.46319
 C146 C 1.02421 0.68246 0.43894
 C147 C 0.97780 0.70493 0.41921
 C148 C 1.03668 0.79669 0.52302
 C149 C 1.06094 0.81738 0.52389
 C150 C 1.08073 0.79477 0.47752
 C151 C 1.05609 0.77446 0.47751
 N152 N 1.03478 0.77568 0.50017
 H153 H 0.95937 0.74155 0.44617
 H154 H 1.04073 0.70244 0.48072
 H155 H 1.04242 0.66573 0.43768
 H156 H 0.95957 0.70579 0.40249
 H157 H 1.01913 0.79749 0.54043
 H158 H 1.06218 0.83415 0.54207
 H159 H 1.09749 0.79385 0.45930
 H160 H 1.05379 0.75813 0.45915
 C161 C 0.91690 0.81633 0.49872
 C162 C 0.99906 0.68358 0.58316
 C163 C 1.08312 0.81644 0.50090
 C164 C 1.00121 0.68331 0.41679
 C165 C 0.46330 -0.02384 0.29623
 H166 H 0.48078 -0.04130 0.29703
 C167 C 0.43901 -0.02465 0.31692
 H168 H 0.43768 -0.04283 0.33368
 C169 C 0.44410 0.02174 0.27403
 H170 H 0.44649 0.04011 0.25772
 C171 C 0.41943 0.02180 0.29433
 H172 H 0.40276 0.04007 0.29342
 N173 N 0.46532 -0.00098 0.27523
 C174 C 0.52325 -0.03750 0.20278
 H175 H 0.54071 -0.02001 0.20200
 C176 C 0.52406 -0.06177 0.18208
 H177 H 0.54230 -0.06302 0.16535
 C178 C 0.47765 -0.05670 0.22497
 H179 H 0.45928 -0.05432 0.24128
 C180 C 0.47758 -0.08137 0.20467
 H181 H 0.45926 -0.09801 0.20564
 Zn182 Zn 0.50009 -0.00071 0.24949
 N183 N 0.50037 -0.03548 0.22377
 C184 C 0.55612 -0.02304 0.27402
 N185 N 0.53483 -0.00039 0.27523
 C186 C 0.53677 0.02249 0.29621
 C187 C 0.56104 0.02339 0.31687
 C188 C 0.58078 -0.02300 0.29430
 C189 C 0.47696 0.03607 0.20278
 C190 C 0.47610 0.06040 0.18216
 C191 C 0.52250 0.08005 0.20475
 C192 C 0.52249 0.05533 0.22499
 N193 N 0.49982 0.03406 0.22376
 H194 H 0.55380 -0.04142 0.25771
 H195 H 0.51923 0.03990 0.29700
 H196 H 0.56231 0.04160 0.33361
 H197 H 0.59752 -0.04121 0.29338
 H198 H 0.45953 0.01855 0.20197
 H199 H 0.45791 0.06173 0.16542
 H200 H 0.54073 0.09677 0.20569
 H201 H 0.54086 0.05296 0.24129
 C202 C 0.50098 -0.08388 0.18299
 C203 C 0.41693 -0.00158 0.31600
 C204 C 0.49911 0.08255 0.18312
 C205 C 0.58321 0.00041 0.31593
 C206 C 0.53690 -0.02321 0.70326
 H207 H 0.51941 -0.04067 0.70248
 C208 C 0.56119 -0.02405 0.68258
 H209 H 0.56252 -0.04226 0.66585
 C210 C 0.55611 0.02239 0.72541
 H211 H 0.55372 0.04079 0.74170
 C212 C 0.58078 0.02242 0.70512
 H213 H 0.59747 0.04069 0.70601
 N214 N 0.53488 -0.00032 0.72422
 C215 C 0.47686 -0.03673 0.79668
 H216 H 0.45942 -0.01923 0.79744
 C217 C 0.47599 -0.06099 0.81739
 H218 H 0.45778 -0.06228 0.83413
 C219 C 0.52244 -0.05601 0.77455
 H220 H 0.54084 -0.05366 0.75825
 C221 C 0.52244 -0.08065 0.79488
 H222 H 0.54069 -0.09735 0.79400
 Zn223 Zn 0.50008 -0.00001 0.74994
 N224 N 0.49975 -0.03476 0.77571
 C225 C 0.44407 -0.02239 0.72541
 N226 N 0.46536 0.00027 0.72418
 C227 C 0.46343 0.02312 0.70317
 C228 C 0.43915 0.02400 0.68251
 C229 C 0.41941 -0.02238 0.70513
 C230 C 0.52317 0.03683 0.79663
 C231 C 0.52397 0.06115 0.81727
 C232 C 0.47756 0.08072 0.79464
 C233 C 0.47763 0.05602 0.77438
 N234 N 0.50033 0.03478 0.77563
 H235 H 0.44638 -0.04076 0.74173
 H236 H 0.48096 0.04054 0.70236
 H237 H 0.43788 0.04219 0.66575
 H238 H 0.40267 -0.04060 0.70606
 H239 H 0.54062 0.01934 0.79746
 H240 H 0.54213 0.06250 0.83403
 H241 H 0.45930 0.09740 0.79369
 H242 H 0.45928 0.05361 0.75807
 C243 C 0.49903 -0.08311 0.81651
 C244 C 0.58329 -0.00099 0.68349
 C245 C 0.50092 0.08325 0.81629
 C246 C 0.41699 0.00101 0.68347
 C247 C 0.25001 0.00022 0.49986
 C248 C 0.75016 0.00017 0.49957
 C249 C 0.49968 0.25023 1.00001
 C250 C 0.49973 0.75023 0.00058
 C251 C 1.00056 0.49936 0.25002
 C252 C 0.00000 0.49987 0.75016
 C253 C 0.15111 0.12016 0.49887
 N254 N 0.16174 0.10888 0.52571
 N255 N 0.18234 0.08645 0.52591
 C256 C 0.19293 0.07463 0.49927
 N257 N 0.18233 0.08595 0.47243
 N258 N 0.16174 0.10838 0.47223
 C259 C 0.12781 0.14322 0.49867
 C260 C 0.10775 0.16210 0.49849
 C261 C 0.21375 0.04932 0.49949
 C262 C 0.23055 0.02747 0.49966
 C263 C 0.61964 0.65128 0.00098
 N264 N 0.60836 0.66236 0.02765
 N265 N 0.58591 0.68294 0.02752
 C266 C 0.57409 0.69307 0.00072
 N267 N 0.58542 0.68204 -0.02595
 N268 N 0.60787 0.66146 -0.02582
 C269 C 0.64273 0.62800 0.00115
 C270 C 0.66162 0.60796 0.00130
 C271 C 0.54879 0.71390 0.00063
 C272 C 0.52695 0.73072 0.00058
 C273 C 0.84912 -0.11973 0.49904
 N274 N 0.83840 -0.10839 0.52584
 N275 N 0.81782 -0.08594 0.52594
 C276 C 0.80732 -0.07418 0.49925
 N277 N 0.81800 -0.08557 0.47246
 N278 N 0.83858 -0.10801 0.47235
 C279 C 0.87239 -0.14282 0.49894
 C280 C 0.89244 -0.16171 0.49884
 C281 C 0.78649 -0.04888 0.49937
 C282 C 0.76967 -0.02705 0.49946
 C283 C 0.37981 0.34922 1.00074
 N284 N 0.39107 0.33805 1.02738
 N285 N 0.41350 0.31745 1.02718
 C286 C 0.42532 0.30737 1.00034
 N287 N 0.41401 0.31849 0.97371
 N288 N 0.39159 0.33909 0.97390
 C289 C 0.35676 0.37252 1.00099
 C290 C 0.33789 0.39258 1.00121
 C291 C 0.45061 0.28652 1.00017
 C292 C 0.47244 0.26971 1.00007
 C293 C 0.84914 0.12009 0.49982
 N294 N 0.83842 0.10856 0.52653
 N295 N 0.81782 0.08613 0.52648
 C296 C 0.80730 0.07457 0.49971
 N297 N 0.81797 0.08615 0.47300
 N298 N 0.83858 0.10858 0.47305
 C299 C 0.87245 0.14316 0.49988
 C300 C 0.89252 0.16203 0.49996
 C301 C 0.78645 0.04926 0.49966
 C302 C 0.76964 0.02742 0.49962
 C303 C 0.37984 0.65121 0.00053
 N304 N 0.39182 0.66126 0.02730
 N305 N 0.41425 0.68186 0.02737
 C306 C 0.42537 0.69305 0.00067
 N307 N 0.41334 0.68305 -0.02610
 N308 N 0.39091 0.66246 -0.02616
 C309 C 0.35676 0.62792 0.00042
 C310 C 0.33788 0.60785 0.00028
 C311 C 0.45067 0.71390 0.00068
 C312 C 0.47250 0.73072 0.00066
 C313 C 0.15095 -0.11964 0.50057
 N314 N 0.16190 -0.10852 0.47378
 N315 N 0.18250 -0.08608 0.47367
 C316 C 0.19278 -0.07411 0.50034
 N317 N 0.18188 -0.08527 0.52714
 N318 N 0.16128 -0.10770 0.52725
 C319 C 0.12766 -0.14271 0.50067
 C320 C 0.10760 -0.16159 0.50077
 C321 C 0.21364 -0.04882 0.50019
 C322 C 0.23048 -0.02699 0.50005
 C323 C 0.61948 0.34934 0.99997
 N324 N 0.60760 0.33913 1.02674
 N325 N 0.58518 0.31852 1.02678
 C326 C 0.57399 0.30747 1.00007
 N327 N 0.58592 0.31763 0.97331
 N328 N 0.60834 0.33825 0.97326
 C329 C 0.64254 0.37265 0.99989
 C330 C 0.66141 0.39272 0.99978
 C331 C 0.54871 0.28660 1.00008
 C332 C 0.52689 0.26976 1.00006
 C333 C 0.49942 0.15069 1.11951
 N334 N 0.47273 0.16154 1.10810
 N335 N 0.47281 0.18226 1.08576
 C336 C 0.49957 0.19277 1.07418
 N337 N 0.52625 0.18197 1.08564
 N338 N 0.52618 0.16125 1.10797
 C339 C 0.49932 0.12727 1.14247
 C340 C 0.49923 0.10712 1.16126
 C341 C 0.49963 0.21374 1.04897
 C342 C 0.49967 0.23064 1.02719
 C343 C -0.00044 0.61976 0.65111
 N344 N -0.02709 0.60843 0.66217
 N345 N -0.02695 0.58602 0.68280
 C346 C -0.00016 0.57427 0.69301
 N347 N 0.02649 0.58564 0.68200
 N348 N 0.02635 0.60806 0.66137
 C349 C -0.00061 0.64280 0.62778
 C350 C -0.00076 0.66166 0.60768
 C351 C -0.00005 0.54897 0.71386
 C352 C -0.00000 0.52712 0.73068
 C353 C 0.49939 0.84910 -0.11948
 N354 N 0.52616 0.83864 -0.10792
 N355 N 0.52625 0.81806 -0.08545
 C356 C 0.49957 0.80730 -0.07390
 N357 N 0.47280 0.81772 -0.08551
 N358 N 0.47271 0.83830 -0.10797
 C359 C 0.49928 0.87238 -0.14259
 C360 C 0.49917 0.89243 -0.16149
 C361 C 0.49966 0.78648 -0.04856
 C362 C 0.49971 0.76969 -0.02669
 C363 C 0.99999 0.37962 0.34927
 N364 N 1.02679 0.39139 0.33908
 N365 N 1.02696 0.41377 0.31842
 C366 C 1.00033 0.42505 0.30730
 N367 N 0.97353 0.41323 0.31744
 N368 N 0.97336 0.39085 0.33811
 C369 C 0.99977 0.35661 0.37264
 C370 C 0.99957 0.33777 0.39276
 C371 C 1.00047 0.45031 0.28639
 C372 C 1.00054 0.47213 0.26954
 C373 C 0.50038 0.84950 0.12031
 N374 N 0.52701 0.83848 0.10891
 N375 N 0.52684 0.81783 0.08652
 C376 C 0.50003 0.80756 0.07486
 N377 N 0.47340 0.81853 0.08630
 N378 N 0.47357 0.83918 0.10870
 C379 C 0.50059 0.87285 0.14334
 C380 C 0.50077 0.89295 0.16219
 C381 C 0.49987 0.78665 0.04960
 C382 C 0.49978 0.76978 0.02779
 C383 C 0.00050 0.38036 0.65065
 N384 N 0.02716 0.39177 0.66158
 N385 N 0.02703 0.41409 0.68230
 C386 C 0.00025 0.42567 0.69275
 N387 N -0.02641 0.41422 0.68187
 N388 N -0.02629 0.39189 0.66114
 C389 C 0.00065 0.35741 0.62722
 C390 C 0.00078 0.33864 0.60705
 C391 C 0.00013 0.45088 0.71371
 C392 C 0.00006 0.47267 0.73061
 C393 C 0.50032 0.15123 0.88008
 N394 N 0.47351 0.16154 0.89172
 N395 N 0.47334 0.18218 0.91413
 C396 C 0.49997 0.19314 0.92555
 N397 N 0.52678 0.18288 0.91386
 N398 N 0.52695 0.16224 0.89145
 C399 C 0.50052 0.12788 0.85705
 C400 C 0.50070 0.10778 0.83821
 C401 C 0.49982 0.21399 0.95086
 C402 C 0.49973 0.23079 0.97272
 C403 C 1.00092 0.61931 0.34901
 N404 N 0.97415 0.60783 0.33843
 N405 N 0.97407 0.58538 0.31784
 C406 C 1.00075 0.57374 0.30720
 N407 N 1.02751 0.58527 0.31773
 N408 N 1.02760 0.60772 0.33832
 C409 C 1.00101 0.64241 0.37229
 C410 C 1.00110 0.66132 0.39234
 C411 C 1.00066 0.54844 0.28635
 C412 C 1.00061 0.52659 0.26953
 C413 C 1.12029 0.50000 0.15072
 N414 N 1.10838 0.47318 0.16070
 N415 N 1.08598 0.47297 0.18136
 C416 C 1.07484 0.49959 0.19268
 N417 N 1.08680 0.52642 0.18274
 N418 N 1.10919 0.52662 0.16208
 C419 C 1.14332 0.50026 0.12736
 C420 C 1.16217 0.50051 0.10724
 C421 C 1.04958 0.49944 0.21359
 C422 C 1.02777 0.49937 0.23046
 C423 C 0.65115 -0.00050 0.61955
 N424 N 0.66191 -0.02715 0.60796
 N425 N 0.68252 -0.02701 0.58551
 C426 C 0.69300 -0.00020 0.57400
 N427 N 0.68229 0.02646 0.58564
 N428 N 0.66168 0.02631 0.60809
 C429 C 0.62785 -0.00066 0.64264
 C430 C 0.60778 -0.00081 0.66152
 C431 C 0.71385 -0.00004 0.54868
 C432 C 0.73066 0.00006 0.52683
 C433 C -0.11990 0.50032 0.84923
 N434 N -0.10884 0.52695 0.83786
 N435 N -0.08642 0.52679 0.81723
 C436 C -0.07439 0.49999 0.80734
 N437 N -0.08550 0.47335 0.81866
 N438 N -0.10792 0.47351 0.83929
 C439 C -0.14295 0.50054 0.87257
 C440 C -0.16180 0.50075 0.89266
 C441 C -0.04909 0.49988 0.78647
 C442 C -0.02725 0.49984 0.76965
 C443 C 0.34908 -0.00094 0.37994
 N444 N 0.33850 -0.02755 0.39181
 N445 N 0.31789 -0.02732 0.41424
 C446 C 0.30722 -0.00047 0.42548
 N447 N 0.31775 0.02614 0.41356
 N448 N 0.33836 0.02591 0.39112
 C449 C 0.37238 -0.00117 0.35686
 C450 C 0.39245 -0.00136 0.33797
 C451 C 0.28636 -0.00021 0.45078
 C452 C 0.26953 -0.00001 0.47262
 C453 C 0.11954 0.49969 0.84952
 N454 N 0.10822 0.47299 0.83858
 N455 N 0.08588 0.47305 0.81790
 C456 C 0.07420 0.49981 0.80751
 N457 N 0.08557 0.52651 0.81840
 N458 N 0.10791 0.52645 0.83908
 C459 C 0.14251 0.49960 0.87291
 C460 C 0.16130 0.49950 0.89305
 C461 C 0.04898 0.49985 0.78658
 C462 C 0.02719 0.49987 0.76971
 C463 C 0.65110 0.00029 0.37975
 N464 N 0.66186 -0.02644 0.39115
 N465 N 0.68247 -0.02645 0.41356
 C466 C 0.69296 0.00027 0.42524
 N467 N 0.68224 0.02701 0.41380
 N468 N 0.66163 0.02702 0.39139
 C469 C 0.62778 0.00030 0.35671
 C470 C 0.60771 0.00033 0.33785
 C471 C 0.71382 0.00025 0.45052
 C472 C 0.73064 0.00023 0.47235
 C473 C 0.88054 0.49934 0.15123
 N474 N 0.89198 0.47262 0.16198
 N475 N 0.91445 0.47264 0.18253
 C476 C 0.92614 0.49938 0.19296
 N477 N 0.91466 0.52610 0.18226
 N478 N 0.89219 0.52608 0.16171
 C479 C 0.85743 0.49930 0.12798
 C480 C 0.83852 0.49924 0.10796
 C481 C 0.95147 0.49939 0.21376
 C482 C 0.97332 0.49938 0.23055
 C483 C 0.34907 0.00077 0.61967
 N484 N 0.33812 -0.02601 0.60853
 N485 N 0.31750 -0.02608 0.58612
 C486 C 0.30718 0.00060 0.57421
 N487 N 0.31809 0.02737 0.58540
 N488 N 0.33871 0.02745 0.60780
 C489 C 0.37240 0.00083 0.64270
 C490 C 0.39248 0.00090 0.66155
 C491 C 0.28632 0.00049 0.54893
 C492 C 0.26950 0.00038 0.52710
   
