data_POSCAR
  _audit_creation_date              2014-09-24
  _audit_creation_method            'ToBaCCo'
  _symmetry_space_group_name_H-M    'P1'
  _symmetry_Int_Tables_number       1
  _symmetry_cell_setting            triclinic
  loop_
  _symmetry_equiv_pos_as_xyz
 x,y,z
_cell_length_a 28.4422
_cell_length_b 28.4878
_cell_length_c 32.2322
_cell_angle_alpha 89.702700
_cell_angle_beta 90.048700
_cell_angle_gamma 117.408400
loop_
  _atom_site_label
  _atom_site_type_symbol
  _atom_site_fract_x
  _atom_site_fract_y
  _atom_site_fract_z
C1 C -0.00404 0.48338 1.36244
 C2 C 0.04353 0.51448 1.34141
 C3 C 0.04524 0.50934 1.29809
 C4 C -0.00001 0.47382 1.27566
 C5 C -0.04662 0.44239 1.29834
 C6 C -0.04996 0.44926 1.34110
 C7 C -0.00004 0.47225 1.22888
 C8 C -0.04812 0.45148 1.20632
 C9 C -0.04856 0.45354 1.16284
 C10 C -0.00054 0.47757 1.14120
 C11 C 0.04756 0.49927 1.16267
 C12 C 0.04774 0.49455 1.20600
 H13 H -0.00567 0.48677 1.39584
 H14 H 0.08130 0.53571 1.28223
 H15 H -0.08112 0.41210 1.28333
 H16 H -0.08600 0.43496 1.22182
 H17 H -0.00063 0.48082 1.10767
 H18 H 0.08572 0.50973 1.22122
 C19 C 0.51563 0.52037 1.36466
 C20 C 0.48350 0.53796 1.34332
 C21 C 0.48476 0.53844 1.29965
 C22 C 0.51744 0.52214 1.27726
 C23 C 0.54940 0.50521 1.30001
 C24 C 0.54919 0.50455 1.34364
 C25 C 0.51817 0.52293 1.23049
 C26 C 0.53507 0.49103 1.20773
 C27 C 0.53449 0.49102 1.16418
 C28 C 0.51408 0.52043 1.14289
 C29 C 0.49571 0.55109 1.16456
 C30 C 0.50069 0.55464 1.20786
 H31 H 0.51280 0.51684 1.39819
 H32 H 0.46094 0.55300 1.28341
 H33 H 0.57685 0.49492 1.28422
 H34 H 0.54840 0.46557 1.22316
 H35 H 0.51181 0.51881 1.10930
 H36 H 0.48966 0.58172 1.22321
 C37 C 0.46450 1.00883 1.36022
 C38 C 0.43769 0.96117 1.33924
 C39 C 0.43925 0.96053 1.29597
 C40 C 0.47124 1.00681 1.27300
 C41 C 0.50046 1.05413 1.29535
 C42 C 0.49561 1.05617 1.33875
 C43 C 0.47519 1.00538 1.22640
 C44 C 0.49628 1.05243 1.20224
 C45 C 0.49911 1.05070 1.15883
 C46 C 0.47944 1.00183 1.13898
 C47 C 0.45624 0.95505 1.16187
 C48 C 0.45620 0.95669 1.20512
 H49 H 0.46111 1.00857 1.39374
 H50 H 0.41601 0.92296 1.28128
 H51 H 0.52919 1.08926 1.27976
 H52 H 0.50931 1.09073 1.21627
 H53 H 0.48023 1.00010 1.10539
 H54 H 0.44005 0.91922 1.22114
 C55 C 0.99720 0.48356 0.64076
 C56 C 0.95095 0.45220 0.66297
 C57 C 0.95366 0.44750 0.70610
 C58 C 1.00039 0.47958 0.72818
 C59 C 1.04626 0.51209 0.70486
 C60 C 1.04541 0.51342 0.66120
 C61 C 1.00045 0.48205 0.77493
 C62 C 1.04844 0.50522 0.79742
 C63 C 1.04902 0.51573 0.83988
 C64 C 1.00118 0.49855 0.86127
 C65 C 0.95284 0.47143 0.84076
 C66 C 0.95260 0.46405 0.79770
 H67 H 0.99522 0.48629 0.60728
 H68 H 0.91820 0.41964 0.72184
 H69 H 1.08342 0.53607 0.72004
 H70 H 1.08603 0.51584 0.78260
 H71 H 1.00158 0.50554 0.89435
 H72 H 0.91457 0.44459 0.78267
 C73 C 0.51511 0.52078 0.63540
 C74 C 0.53571 0.49246 0.65766
 C75 C 0.53403 0.49170 0.70102
 C76 C 0.51514 0.52241 0.72317
 C77 C 0.49645 0.55263 0.69968
 C78 C 0.49563 0.55115 0.65617
 C79 C 0.51447 0.52219 0.77003
 C80 C 0.48557 0.54299 0.79250
 C81 C 0.48287 0.54041 0.83600
 C82 C 0.50871 0.51640 0.85764
 C83 C 0.53847 0.49674 0.83646
 C84 C 0.54226 0.50051 0.79319
 H85 H 0.51522 0.52002 0.60176
 H86 H 0.54779 0.46671 0.71648
 H87 H 0.48294 0.57823 0.71421
 H88 H 0.46442 0.56115 0.77707
 H89 H 0.50638 0.51377 0.89122
 H90 H 0.56753 0.48655 0.77858
 C91 C 0.47565 0.00257 0.64017
 C92 C 0.50367 0.04995 0.66121
 C93 C 0.50716 0.04965 0.70446
 C94 C 0.48547 0.00168 0.72739
 C95 C 0.45937 -0.04621 0.70479
 C96 C 0.45142 -0.04580 0.66157
 C97 C 0.48844 0.00224 0.77433
 C98 C 0.45507 -0.04255 0.79849
 C99 C 0.45521 -0.04105 0.84232
 C100 C 0.48895 0.00679 0.86195
 C101 C 0.52064 0.05205 0.83896
 C102 C 0.52263 0.04882 0.79577
 H103 H 0.47342 0.00344 0.60659
 H104 H 0.52683 0.08766 0.71927
 H105 H 0.44308 -0.08402 0.72041
 H106 H 0.42663 -0.07830 0.78377
 H107 H 0.49127 0.00917 0.89549
 H108 H 0.55061 0.08386 0.77972
 O109 O 0.41556 0.67503 0.96315
 O110 O 0.39586 0.75519 0.95254
 C111 C 0.36595 0.77681 0.94851
 O112 O 0.32287 0.76126 0.96848
 O113 O 0.24593 0.66578 0.95553
 C114 C 0.22976 0.61718 0.94764
 O115 O 0.24440 0.58793 0.96814
 O116 O 0.33967 0.60133 0.95539
 C117 C 0.38680 0.63187 0.94467
 O118 O 0.41510 0.68778 1.04615
 O119 O 0.39786 0.76970 1.03502
 C120 C 0.36158 0.77298 1.05604
 O121 O 0.31272 0.74233 1.05047
 O122 O 0.23135 0.64954 1.03775
 C123 C 0.23058 0.61086 1.05796
 O124 O 0.26200 0.59190 1.05050
 O125 O 0.35660 0.60287 1.03766
 C126 C 0.39600 0.63930 1.05590
 Cr127 Cr 0.40309 0.71997 0.99935
 Cr128 Cr 0.28005 0.70344 1.00294
 Cr129 Cr 0.30184 0.59907 1.00287
 O130 O 0.32845 0.67413 1.00184
 O131 O 0.59986 0.34501 0.94855
 O132 O 0.58890 0.24999 0.95963
 C133 C 0.62131 0.23724 0.94209
 O134 O 0.66949 0.25627 0.95257
 O135 O 0.75971 0.33858 0.96880
 C136 C 0.76966 0.38106 0.94894
 O137 O 0.74751 0.40977 0.95716
 O138 O 0.66262 0.42227 0.96962
 C139 C 0.62569 0.39470 0.94483
 O140 O 0.58953 0.35466 1.03151
 O141 O 0.58342 0.26077 1.04161
 C142 C 0.60423 0.23089 1.04980
 O143 O 0.64798 0.23721 1.03422
 O144 O 0.73818 0.32081 1.05105
 C145 C 0.76508 0.36950 1.05920
 O146 O 0.76014 0.40539 1.03920
 O147 O 0.67168 0.41057 1.05123
 C148 C 0.62185 0.39034 1.05554
 Cr149 Cr 0.59333 0.30395 0.99554
 Cr150 Cr 0.70257 0.29001 1.00173
 Cr151 Cr 0.70896 0.40904 1.00416
 O152 O 0.66822 0.33397 1.00077
 O153 O 0.66895 0.41780 0.53518
 O154 O 0.74844 0.39772 0.54924
 C155 C 0.76768 0.36635 0.55668
 O156 O 0.75592 0.32495 0.53559
 O157 O 0.66036 0.24876 0.54739
 C158 C 0.61113 0.23114 0.55350
 O159 O 0.58252 0.24546 0.53185
 O160 O 0.59715 0.34133 0.54622
 C161 C 0.62622 0.38962 0.55462
 O162 O 0.68532 0.41656 0.45332
 O163 O 0.76683 0.39962 0.46686
 C164 C 0.76976 0.36287 0.44658
 O165 O 0.74037 0.31413 0.45332
 O166 O 0.64664 0.23472 0.46489
 C167 C 0.60937 0.23498 0.44324
 O168 O 0.59033 0.26669 0.44975
 O169 O 0.59991 0.36129 0.46430
 C170 C 0.63662 0.40108 0.44629
 Cr171 Cr 0.71577 0.40503 0.50112
 Cr172 Cr 0.69960 0.28247 0.50024
 Cr173 Cr 0.59538 0.30469 0.49800
 O174 O 0.67031 0.33085 0.49944
 O175 O 0.35048 0.60270 0.53237
 O176 O 0.25667 0.59535 0.54838
 C177 C 0.22744 0.61668 0.55712
 O178 O 0.22992 0.65690 0.53814
 O179 O 0.31296 0.74799 0.54848
 C180 C 0.36215 0.77717 0.55308
 O181 O 0.39705 0.77217 0.53165
 O182 O 0.40901 0.68718 0.54316
 C183 C 0.39164 0.63810 0.54988
 O184 O 0.33034 0.60229 0.45069
 O185 O 0.23562 0.59197 0.46659
 C186 C 0.22020 0.62238 0.44870
 O187 O 0.24034 0.67154 0.45563
 O188 O 0.32093 0.76479 0.46599
 C189 C 0.36153 0.77570 0.44378
 O190 O 0.39138 0.75419 0.44919
 O191 O 0.40836 0.67245 0.46101
 C192 C 0.37903 0.62967 0.44227
 Cr193 Cr 0.29445 0.60113 0.49954
 Cr194 Cr 0.27786 0.70897 0.50195
 Cr195 Cr 0.39842 0.71987 0.49635
 O196 O 0.32353 0.67653 0.49945
 C197 C 0.40196 0.54995 0.35531
 C198 C 0.45424 0.55870 0.36589
 C199 C 0.47951 0.59184 0.39973
 C200 C 0.45522 0.61595 0.42230
 C201 C 0.40443 0.60865 0.41234
 C202 C 0.37814 0.57705 0.37750
 C203 C 0.37105 0.51228 0.32528
 C204 C 0.32136 0.50636 0.31378
 C205 C 0.30081 0.53687 0.33242
 C206 C 0.32861 0.57168 0.36414
 H207 H 0.38423 0.48617 0.31097
 H208 H 0.29871 0.47796 0.29023
 H209 H 0.26266 0.53286 0.32279
 H210 H 0.31121 0.59473 0.37760
 H211 H 0.51952 0.60066 0.40848
 H212 H 0.47631 0.63983 0.44864
 C213 C 0.35991 0.87489 0.36332
 C214 C 0.41456 0.91122 0.36332
 C215 C 0.44969 0.90014 0.38680
 C216 C 0.43163 0.85485 0.41105
 C217 C 0.37769 0.81884 0.41279
 C218 C 0.34131 0.82778 0.38779
 C219 C 0.32325 0.88466 0.34005
 C220 C 0.26977 0.84792 0.33955
 C221 C 0.25189 0.80097 0.36205
 C222 C 0.28715 0.79077 0.38589
 H223 H 0.33554 0.92063 0.32214
 H224 H 0.24210 0.85573 0.32136
 H225 H 0.21045 0.77224 0.36101
 H226 H 0.27162 0.75329 0.40201
 H227 H 0.49168 0.92735 0.38673
 H228 H 0.46009 0.84890 0.42983
 C229 C 0.08597 0.58131 0.39688
 C230 C 0.08879 0.54921 0.36414
 C231 C 0.13673 0.54721 0.35765
 C232 C 0.17887 0.57126 0.38526
 C233 C 0.17507 0.59908 0.41968
 C234 C 0.12844 0.60457 0.42568
 C235 C 0.04252 0.59243 0.40073
 C236 C 0.03863 0.62117 0.43423
 C237 C 0.07798 0.63988 0.46430
 C238 C 0.12250 0.63184 0.46019
 H239 H 0.01149 0.57951 0.37765
 H240 H 0.00475 0.62867 0.43697
 H241 H 0.07434 0.66133 0.49070
 H242 H 0.15181 0.64699 0.48444
 H243 H 0.14045 0.52360 0.33284
 H244 H 0.21444 0.56720 0.38017
 C245 C 0.60756 0.51028 0.40325
 C246 C 0.57968 0.48547 0.36633
 C247 C 0.57818 0.43732 0.35430
 C248 C 0.59803 0.41114 0.38007
 C249 C 0.62145 0.43279 0.41808
 C250 C 0.62752 0.48325 0.42961
 C251 C 0.61810 0.56241 0.41371
 C252 C 0.64340 0.58538 0.45072
 C253 C 0.65990 0.55762 0.47761
 C254 C 0.65253 0.50730 0.46714
 H255 H 0.60769 0.58626 0.39313
 H256 H 0.65045 0.62501 0.45846
 H257 H 0.67935 0.57550 0.50642
 H258 H 0.66706 0.48787 0.48857
 H259 H 0.55771 0.41746 0.32631
 H260 H 0.59362 0.37284 0.37083
 C261 C 0.53034 0.15396 0.34950
 C262 C 0.52506 0.10329 0.36138
 C263 C 0.55058 0.09956 0.39772
 C264 C 0.57909 0.14307 0.42239
 C265 C 0.58429 0.19287 0.41188
 C266 C 0.56196 0.19928 0.37419
 C267 C 0.50238 0.16056 0.31549
 C268 C 0.50997 0.21065 0.30344
 C269 C 0.54466 0.25513 0.32529
 C270 C 0.57027 0.24969 0.36046
 H271 H 0.47356 0.12735 0.29828
 H272 H 0.48885 0.21496 0.27694
 H273 H 0.55111 0.29399 0.31532
 H274 H 0.59707 0.28538 0.37632
 H275 H 0.54921 0.06240 0.40723
 H276 H 0.59618 0.13719 0.45079
 C277 C 0.85413 0.42472 0.35053
 C278 C 0.90169 0.42305 0.36298
 C279 C 0.90184 0.39775 0.40056
 C280 C 0.85747 0.37565 0.42594
 C281 C 0.81135 0.37828 0.41497
 C282 C 0.80853 0.40133 0.37673
 C283 C 0.85156 0.45263 0.31478
 C284 C 0.80464 0.45366 0.30363
 C285 C 0.75963 0.42839 0.32824
 C286 C 0.76151 0.40287 0.36469
 H287 H 0.88559 0.47509 0.29543
 H288 H 0.80338 0.47470 0.27592
 H289 H 0.72335 0.42937 0.31943
 H290 H 0.72591 0.38441 0.38338
 H291 H 0.93701 0.39530 0.41066
 H292 H 0.85986 0.35815 0.45532
 C293 C 0.53334 0.40596 1.13870
 C294 C 0.55701 0.46191 1.14016
 C295 C 0.60267 0.49190 1.11679
 C296 C 0.62418 0.46766 1.09113
 C297 C 0.60058 0.41250 1.08769
 C298 C 0.55577 0.38098 1.11272
 C299 C 0.48739 0.37426 1.16192
 C300 C 0.46526 0.31926 1.16095
 C301 C 0.48834 0.29490 1.13695
 C302 C 0.53315 0.32528 1.11309
 H303 H 0.46822 0.39155 1.18101
 H304 H 0.43024 0.29543 1.17916
 H305 H 0.47143 0.25220 1.13681
 H306 H 0.55027 0.30469 1.09569
 H307 H 0.62126 0.53471 1.11778
 H308 H 0.65850 0.49245 1.07249
 C309 C 0.86231 0.44945 1.14444
 C310 C 0.90055 0.43087 1.13971
 C311 C 0.89050 0.38949 1.11207
 C312 C 0.84450 0.36758 1.08827
 C313 C 0.80698 0.38636 1.09126
 C314 C 0.81470 0.42618 1.12068
 C315 C 0.87076 0.49153 1.17144
 C316 C 0.83209 0.50818 1.17667
 C317 C 0.78462 0.48375 1.15495
 C318 C 0.77590 0.44325 1.12715
 H319 H 0.90722 0.51218 1.18859
 H320 H 0.83893 0.54008 1.19781
 H321 H 0.75447 0.49641 1.15952
 H322 H 0.73822 0.42488 1.11137
 H323 H 0.91914 0.37467 1.10831
 H324 H 0.83939 0.33738 1.06586
 C325 C 0.49359 0.10777 1.10037
 C326 C 0.52213 0.09974 1.13340
 C327 C 0.57565 0.13560 1.13903
 C328 C 0.60162 0.17793 1.11174
 C329 C 0.57492 0.18544 1.07786
 C330 C 0.52058 0.14962 1.07147
 C331 C 0.43875 0.07457 1.09520
 C332 C 0.41195 0.08006 1.06082
 C333 C 0.43905 0.11867 1.03108
 C334 C 0.49274 0.15312 1.03619
 H335 H 0.41612 0.04423 1.11768
 H336 H 0.37009 0.05385 1.05701
 H337 H 0.41834 0.12206 1.00394
 H338 H 0.51214 0.18156 1.01177
 H339 H 0.59798 0.12975 1.16401
 H340 H 0.64307 0.20483 1.11689
 C341 C 0.41583 0.56549 1.14784
 C342 C 0.46981 0.57808 1.14150
 C343 C 0.49903 0.61464 1.11053
 C344 C 0.47529 0.63692 1.08470
 C345 C 0.42161 0.62334 1.08911
 C346 C 0.39208 0.58945 1.12206
 C347 C 0.38426 0.52843 1.17827
 C348 C 0.33180 0.51780 1.18471
 C349 C 0.30958 0.54337 1.16094
 C350 C 0.33925 0.57879 1.12985
 H351 H 0.39934 0.50704 1.19725
 H352 H 0.30833 0.48971 1.20840
 H353 H 0.26906 0.53552 1.16644
 H354 H 0.32084 0.59841 1.11249
 H355 H 0.54023 0.62463 1.10539
 H356 H 0.49835 0.66286 1.05969
 C357 C 0.12774 0.58538 1.14321
 C358 C 0.09773 0.52965 1.13966
 C359 C 0.11449 0.50231 1.11239
 C360 C 0.15936 0.52925 1.08784
 C361 C 0.18869 0.58446 1.08953
 C362 C 0.17411 0.61288 1.11846
 C363 C 0.11211 0.61463 1.17018
 C364 C 0.14260 0.66920 1.17398
 C365 C 0.18903 0.69569 1.15111
 C366 C 0.20482 0.66797 1.12366
 H367 H 0.07629 0.59584 1.18850
 H368 H 0.13029 0.69101 1.19498
 H369 H 0.21294 0.73795 1.15460
 H370 H 0.24165 0.69000 1.10718
 H371 H 0.09191 0.45978 1.10944
 H372 H 0.16995 0.50690 1.06596
 C373 C 0.37598 0.89076 1.12265
 C374 C 0.42644 0.90461 1.13991
 C375 C 0.45073 0.87257 1.13321
 C376 C 0.42716 0.82860 1.10772
 C377 C 0.37873 0.81541 1.08772
 C378 C 0.35194 0.84626 1.09581
 C379 C 0.34952 0.92123 1.13103
 C380 C 0.30101 0.90914 1.11269
 C381 C 0.27810 0.86683 1.08559
 C382 C 0.30319 0.83591 1.07697
 H383 H 0.36597 0.95452 1.15196
 H384 H 0.28131 0.93296 1.11929
 H385 H 0.24073 0.85805 1.07089
 H386 H 0.28376 0.80482 1.05498
 H387 H 0.48918 0.88281 1.14659
 H388 H 0.44807 0.80556 1.10244
 C389 C 0.61735 0.48756 0.63232
 C390 C 0.56154 0.46558 0.63521
 C391 C 0.52947 0.41833 0.61506
 C392 C 0.55166 0.39335 0.59098
 C393 C 0.60683 0.41487 0.58597
 C394 C 0.64045 0.46166 0.60814
 C395 C 0.65067 0.53526 0.65265
 C396 C 0.70553 0.55619 0.65047
 C397 C 0.72822 0.53009 0.62826
 C398 C 0.69628 0.48331 0.60748
 H399 H 0.63473 0.55675 0.67049
 H400 H 0.73056 0.59258 0.66644
 H401 H 0.77087 0.54594 0.62737
 H402 H 0.71633 0.46415 0.59213
 H403 H 0.48673 0.40130 0.61721
 H404 H 0.52501 0.35779 0.57469
 C405 C 0.51810 0.14153 0.63862
 C406 C 0.53173 0.09956 0.63702
 C407 C 0.57251 0.10363 0.61065
 C408 C 0.59888 0.14754 0.58518
 C409 C 0.58532 0.18898 0.58505
 C410 C 0.54573 0.18706 0.61290
 C411 C 0.47711 0.13896 0.66468
 C412 C 0.46516 0.18118 0.66679
 C413 C 0.49356 0.22650 0.64302
 C414 C 0.53346 0.22959 0.61634
 H415 H 0.45398 0.10449 0.68362
 H416 H 0.43394 0.17887 0.68719
 H417 H 0.48461 0.25946 0.64523
 H418 H 0.55505 0.26587 0.59916
 H419 H 0.58344 0.07190 0.60926
 H420 H 0.62903 0.14827 0.56426
 C421 C 0.85452 0.43191 0.65087
 C422 C 0.89973 0.42527 0.64044
 C423 C 0.89737 0.39438 0.60602
 C424 C 0.85298 0.37304 0.58059
 C425 C 0.80875 0.38070 0.58924
 C426 C 0.80783 0.40702 0.62621
 C427 C 0.85476 0.46394 0.68433
 C428 C 0.80889 0.46690 0.69557
 C429 C 0.76206 0.43838 0.67388
 C430 C 0.76143 0.40899 0.63929
 H431 H 0.89009 0.48738 0.70198
 H432 H 0.80957 0.49119 0.72142
 H433 H 0.72626 0.43977 0.68347
 H434 H 0.72415 0.38725 0.62333
 H435 H 0.93118 0.38845 0.59776
 H436 H 0.85429 0.35244 0.55279
 C437 C 0.50266 0.61751 0.60070
 C438 C 0.47310 0.58023 0.63182
 C439 C 0.41921 0.56569 0.63681
 C440 C 0.39381 0.58565 0.61045
 C441 C 0.42152 0.62087 0.57836
 C442 C 0.47649 0.63698 0.57306
 C443 C 0.55771 0.63540 0.59621
 C444 C 0.58581 0.66943 0.56390
 C445 C 0.55980 0.68630 0.53558
 C446 C 0.50579 0.67034 0.53998
 H447 H 0.57951 0.62338 0.61763
 H448 H 0.62787 0.68240 0.56061
 H449 H 0.58160 0.71199 0.51009
 H450 H 0.48741 0.68382 0.51681
 H451 H 0.39613 0.53704 0.66035
 H452 H 0.35185 0.57280 0.61470
 C453 C 0.38449 0.90444 0.60783
 C454 C 0.42137 0.90726 0.63899
 C455 C 0.43235 0.86422 0.64392
 C456 C 0.41231 0.82208 0.61610
 C457 C 0.37968 0.82093 0.58315
 C458 C 0.36498 0.86198 0.57900
 C459 C 0.36508 0.94210 0.60560
 C460 C 0.33128 0.94061 0.57376
 C461 C 0.31557 0.90144 0.54377
 C462 C 0.33204 0.86241 0.54628
 H463 H 0.37527 0.97261 0.62874
 H464 H 0.31735 0.97012 0.57228
 H465 H 0.28995 0.90088 0.51872
 H466 H 0.31869 0.83285 0.52227
 H467 H 0.45984 0.86487 0.66747
 H468 H 0.42338 0.79063 0.61974
 C469 C 0.13005 0.59528 0.64577
 C470 C 0.09226 0.54177 0.63773
 C471 C 0.10219 0.51494 0.60504
 C472 C 0.14790 0.53905 0.58121
 C473 C 0.18530 0.59129 0.58845
 C474 C 0.17730 0.61963 0.62137
 C475 C 0.12044 0.62670 0.67509
 C476 C 0.15814 0.67870 0.68268
 C477 C 0.20567 0.70098 0.66082
 C478 C 0.21517 0.67201 0.63023
 H479 H 0.08337 0.61215 0.69171
 H480 H 0.15025 0.70196 0.70546
 H481 H 0.23494 0.74123 0.66709
 H482 H 0.25244 0.69091 0.61370
 H483 H 0.07467 0.47416 0.59825
 H484 H 0.15320 0.51714 0.55580
 C485 C 0.40234 0.55383 0.85401
 C486 C 0.45623 0.56593 0.85970
 C487 C 0.48657 0.60354 0.88934
 C488 C 0.46405 0.62682 0.91485
 C489 C 0.41050 0.61420 0.91112
 C490 C 0.38000 0.58004 0.87865
 C491 C 0.36967 0.51544 0.82519
 C492 C 0.31773 0.50627 0.81837
 C493 C 0.29728 0.53487 0.84007
 C494 C 0.32792 0.57143 0.86991
 H495 H 0.38362 0.49195 0.80782
 H496 H 0.29339 0.47718 0.79581
 H497 H 0.25733 0.52849 0.83395
 H498 H 0.31067 0.59352 0.88524
 H499 H 0.52799 0.61385 0.89366
 H500 H 0.48832 0.65317 0.93900
 C501 C 0.13965 0.59422 0.85316
 C502 C 0.09945 0.54261 0.86311
 C503 C 0.10589 0.51597 0.89749
 C504 C 0.14952 0.54020 0.92323
 C505 C 0.18887 0.59185 0.91529
 C506 C 0.18564 0.61833 0.87874
 C507 C 0.13484 0.62302 0.81901
 C508 C 0.17577 0.67260 0.80864
 C509 C 0.22202 0.69456 0.83199
 C510 C 0.22713 0.66788 0.86671
 H511 H 0.09962 0.60788 0.80005
 H512 H 0.17173 0.69394 0.78214
 H513 H 0.25406 0.73261 0.82329
 H514 H 0.26425 0.68609 0.88330
 H515 H 0.07586 0.47637 0.90525
 H516 H 0.15136 0.51892 0.95064
 C517 C 0.39979 0.91456 0.90469
 C518 C 0.42415 0.91288 0.86639
 C519 C 0.42208 0.86446 0.85446
 C520 C 0.40202 0.82077 0.88105
 C521 C 0.38298 0.82341 0.92054
 C522 C 0.38196 0.87085 0.93282
 C523 C 0.39098 0.95809 0.91510
 C524 C 0.37193 0.96174 0.95412
 C525 C 0.36031 0.92181 0.98326
 C526 C 0.36489 0.87668 0.97282
 H527 H 0.39846 0.98956 0.89309
 H528 H 0.36667 0.99595 0.96190
 H529 H 0.34691 0.92550 1.01391
 H530 H 0.35543 0.84705 0.99665
 H531 H 0.43968 0.86111 0.82556
 H532 H 0.40283 0.78487 0.87110
 C533 C 0.61961 0.49797 0.86997
 C534 C 0.56507 0.47136 0.86019
 C535 C 0.53386 0.42015 0.87498
 C536 C 0.55523 0.39558 0.90059
 C537 C 0.60866 0.42146 0.91267
 C538 C 0.64205 0.47278 0.89600
 C539 C 0.65216 0.54943 0.85465
 C540 C 0.70604 0.57521 0.86372
 C541 C 0.72847 0.55033 0.88798
 C542 C 0.69712 0.49973 0.90386
 H543 H 0.63636 0.57003 0.83539
 H544 H 0.73061 0.61451 0.85153
 H545 H 0.77057 0.57014 0.89425
 H546 H 0.71739 0.48204 0.92106
 H547 H 0.49206 0.39948 0.86748
 H548 H 0.52883 0.35653 0.91244
 C549 C 0.85850 0.45588 0.85677
 C550 C 0.90306 0.44759 0.86551
 C551 C 0.90057 0.41471 0.89886
 C552 C 0.85624 0.39192 0.92434
 C553 C 0.81193 0.39989 0.91685
 C554 C 0.81162 0.42951 0.88127
 C555 C 0.85967 0.49064 0.82493
 C556 C 0.81443 0.49559 0.81504
 C557 C 0.76720 0.46558 0.83607
 C558 C 0.76564 0.43296 0.86900
 H559 H 0.89543 0.51462 0.80767
 H560 H 0.81586 0.52245 0.79066
 H561 H 0.73175 0.46816 0.82719
 H562 H 0.72795 0.40993 0.88416
 H563 H 0.93390 0.40734 0.90579
 H564 H 0.85734 0.36908 0.95097
 C565 C 0.53742 0.14596 0.85496
 C566 C 0.54999 0.10347 0.86055
 C567 C 0.58891 0.10858 0.88937
 C568 C 0.61392 0.15377 0.91363
 C569 C 0.60073 0.19536 0.91005
 C570 C 0.56383 0.19266 0.87929
 C571 C 0.49816 0.14268 0.82654
 C572 C 0.48725 0.18521 0.82064
 C573 C 0.51481 0.23161 0.84297
 C574 C 0.55271 0.23548 0.87203
 H575 H 0.47538 0.10742 0.80865
 H576 H 0.45742 0.18223 0.79844
 H577 H 0.50667 0.26476 0.83784
 H578 H 0.57374 0.27257 0.88814
 H579 H 0.59887 0.07650 0.89401
 H580 H 0.64198 0.15506 0.93693
   
