data_POSCAR
  _audit_creation_date              2014-09-24
  _audit_creation_method            'ToBaCCo'
  _symmetry_space_group_name_H-M    'P1'
  _symmetry_Int_Tables_number       1
  _symmetry_cell_setting            triclinic
  loop_
  _symmetry_equiv_pos_as_xyz
 x,y,z
_cell_length_a 35.3593
_cell_length_b 34.0885
_cell_length_c 32.7674
_cell_angle_alpha 88.787400
_cell_angle_beta 89.275700
_cell_angle_gamma 90.821400
loop_
  _atom_site_label
  _atom_site_type_symbol
  _atom_site_fract_x
  _atom_site_fract_y
  _atom_site_fract_z
C1 C 0.17807 0.17071 0.19854
 N2 N 0.20847 0.15584 0.17890
 C3 C 0.22157 0.17161 0.14304
 N4 N 0.20358 0.20291 0.12650
 C5 C 0.17300 0.21844 0.14543
 N6 N 0.16041 0.20229 0.18160
 C7 C -0.16683 0.84893 0.21055
 N8 N -0.14883 0.81643 0.19750
 C9 C -0.16271 0.79477 0.16673
 N10 N -0.19531 0.80596 0.14859
 C11 C -0.21403 0.83841 0.16083
 N12 N -0.19953 0.85972 0.19201
 C13 C -0.16069 0.14191 -0.19596
 N14 N -0.14179 0.17317 -0.18058
 C15 C -0.15560 0.19246 -0.14797
 N16 N -0.18888 0.18025 -0.13059
 C17 C -0.20833 0.14913 -0.14545
 N18 N -0.19399 0.13020 -0.17822
 C19 C 0.16819 0.84053 -0.19941
 N20 N 0.14787 0.80890 -0.18446
 C21 C 0.15962 0.78905 -0.15047
 N22 N 0.19189 0.80077 -0.13201
 C23 C 0.21259 0.83183 -0.14654
 N24 N 0.20040 0.85157 -0.18024
 C25 C 0.16617 1.16189 0.80836
 N26 N 0.14893 1.19387 0.82413
 C27 C 0.16264 1.21119 0.85823
 N28 N 0.19396 1.19615 0.87618
 C29 C 0.21137 1.16440 0.86082
 N30 N 0.19724 1.14763 0.82707
 C31 C 0.82653 0.83999 0.78145
 N32 N 0.84317 0.80632 0.79417
 C33 C 0.82890 0.78473 0.82603
 N34 N 0.79737 0.79712 0.84566
 C35 C 0.78017 0.83074 0.83364
 N36 N 0.79486 0.85205 0.80137
 C37 C 0.16508 0.83444 1.20902
 N38 N 0.19886 0.84638 1.19213
 C39 C 0.21368 0.82740 1.15932
 N40 N 0.19438 0.79617 1.14377
 C41 C 0.16071 0.78394 1.16057
 N42 N 0.14676 0.80344 1.19280
 C43 C 0.84091 1.14698 1.19703
 N44 N 0.85255 1.18235 1.18123
 C45 C 0.83413 1.19955 1.14949
 N46 N 0.80335 1.18090 1.13386
 C47 C 0.79137 1.14551 1.14944
 N48 N 0.81039 1.12893 1.18079
 N49 N 0.46310 0.95513 1.07480
 N50 N 0.43337 0.95265 1.09952
 N51 N 0.54287 0.92927 1.04457
 N52 N 0.57366 0.90790 1.04949
 N53 N 0.54259 0.95792 1.07076
 N54 N 0.57264 0.95681 1.09401
 N55 N 0.46223 0.92679 1.04822
 N56 N 0.43162 0.90444 1.05421
 C57 C 0.41400 0.92078 1.08664
 C58 C 0.59190 0.92552 1.08074
 N59 N 0.53813 0.95348 0.92670
 N60 N 0.56722 0.95135 0.90150
 N61 N 0.45940 0.92426 0.95971
 N62 N 0.42835 0.90198 0.95763
 N63 N 0.45958 0.95104 0.93032
 N64 N 0.42954 0.94773 0.90760
 N65 N 0.54005 0.92669 0.95598
 N66 N 0.57099 0.90565 0.95134
 Mn67 Mn 0.50114 0.92591 1.00219
 C68 C 0.58750 0.92143 0.91694
 C69 C 0.41021 0.91713 0.92451
 N70 N 0.54163 1.04227 1.06519
 N71 N 0.57338 1.04716 1.08547
 N72 N 0.46024 1.06566 1.03985
 N73 N 0.42949 1.08687 1.04335
 N74 N 0.46183 1.03944 1.06965
 N75 N 0.43224 1.04210 1.09426
 N76 N 0.53939 1.06872 1.03566
 N77 N 0.56918 1.09234 1.03515
 Mn78 Mn 0.50233 0.99868 1.07060
 C79 C 0.59009 1.07876 1.06645
 C80 C 0.41243 1.07194 1.07758
 N81 N 0.45722 1.03470 0.92599
 N82 N 0.42618 1.03590 0.90413
 N83 N 0.53728 1.06552 0.94853
 N84 N 0.56862 1.08683 0.94384
 N85 N 0.53651 1.03729 0.92198
 N86 N 0.56691 1.03873 0.89841
 N87 N 0.45748 1.06283 0.95266
 N88 N 0.42658 1.08390 0.94978
 Mn89 Mn 0.49787 0.99408 0.92596
 Mn90 Mn 0.49855 1.06616 0.99416
 Cl91 Cl 0.49999 0.99607 0.99831
 C92 C 0.40740 1.06687 0.91920
 C93 C 0.58656 1.06991 0.91207
 N94 N 0.03153 0.46361 0.07079
 N95 N 0.03670 0.43438 0.09714
 N96 N 0.05567 0.54307 0.03115
 N97 N 0.08064 0.57215 0.03069
 N98 N 0.03169 0.54618 0.06180
 N99 N 0.03990 0.57765 0.08311
 N100 N 0.05472 0.46086 0.03938
 N101 N 0.07631 0.42983 0.04360
 C102 C 0.06488 0.41364 0.07987
 C103 C 0.07054 0.59361 0.06314
 N104 N 0.01982 0.53659 -0.08063
 N105 N 0.02088 0.56790 -0.10527
 N106 N 0.04774 0.45495 -0.04803
 N107 N 0.06976 0.42432 -0.05205
 N108 N 0.01997 0.45375 -0.07419
 N109 N 0.02231 0.42210 -0.09665
 N110 N 0.04830 0.53740 -0.05531
 N111 N 0.06923 0.56920 -0.06179
 Mn112 Mn 0.05200 0.49889 -0.00827
 C113 C 0.05214 0.58784 -0.09318
 C114 C 0.05361 0.40404 -0.08254
 N115 N -0.05051 0.54531 0.07058
 N116 N -0.05392 0.57828 0.09101
 N117 N -0.07729 0.45937 0.05345
 N118 N -0.09711 0.42685 0.06010
 N119 N -0.04943 0.46211 0.07937
 N120 N -0.04949 0.43098 0.10422
 N121 N -0.07885 0.54119 0.04545
 N122 N -0.10204 0.57086 0.04792
 Mn123 Mn -0.00914 0.50458 0.07132
 C124 C -0.08645 0.59382 0.07642
 C125 C -0.07975 0.40947 0.09201
 N126 N -0.06077 0.45240 -0.06488
 N127 N -0.06479 0.41909 -0.08432
 N128 N -0.08580 0.53490 -0.04059
 N129 N -0.10942 0.56417 -0.04370
 N130 N -0.06185 0.53525 -0.07151
 N131 N -0.06860 0.56522 -0.09658
 N132 N -0.08408 0.45320 -0.03342
 N133 N -0.10480 0.42079 -0.03084
 Mn134 Mn -0.02077 0.49465 -0.07348
 Mn135 Mn -0.08178 0.49702 0.00629
 Cl136 Cl -0.01486 0.49884 -0.00100
 C137 C -0.09259 0.39983 -0.06286
 C138 C -0.09862 0.58280 -0.07871
 N139 N 0.94219 0.05045 0.54160
 N140 N 0.92073 0.05061 0.57504
 N141 N 0.97164 0.08326 0.45695
 N142 N 0.96985 0.10666 0.42445
 N143 N 0.94598 0.05515 0.45545
 N144 N 0.92624 0.05845 0.42177
 N145 N 0.96743 0.07902 0.54228
 N146 N 0.96394 0.09924 0.57574
 C147 C 0.93468 0.08157 0.59585
 C148 C 0.94124 0.09085 0.40290
 N149 N 1.08024 0.06213 0.46169
 N150 N 1.10286 0.06855 0.42965
 N151 N 1.04778 0.08310 0.54656
 N152 N 1.04850 0.10565 0.57867
 N153 N 1.07482 0.05715 0.54820
 N154 N 1.09473 0.06147 0.58179
 N155 N 1.05261 0.08745 0.46143
 N156 N 1.05578 0.11182 0.42987
 Mn157 Mn 1.00985 0.08354 0.50167
 C158 C 1.08729 0.09998 0.41034
 C159 C 1.07787 0.09201 0.60044
 N160 N 0.94835 -0.02876 0.45155
 N161 N 0.92570 -0.03429 0.42026
 N162 N 0.97166 -0.05994 0.53669
 N163 N 0.96730 -0.08562 0.56708
 N164 N 0.94466 -0.03396 0.53750
 N165 N 0.92114 -0.04128 0.56844
 N166 N 0.97612 -0.05390 0.45101
 N167 N 0.97307 -0.07723 0.41959
 Mn168 Mn 0.94473 0.01075 0.49664
 C169 C 0.94160 -0.06464 0.40047
 C170 C 0.93563 -0.07373 0.58656
 N171 N 1.07780 -0.02809 0.54492
 N172 N 1.09749 -0.03421 0.57861
 N173 N 1.05770 -0.04992 0.45537
 N174 N 1.06450 -0.07128 0.42312
 N175 N 1.08363 -0.02224 0.45864
 N176 N 1.10876 -0.02403 0.42849
 N177 N 1.05243 -0.05622 0.54084
 N178 N 1.05405 -0.08192 0.57128
 Mn179 Mn 1.07981 0.01728 0.50355
 Mn180 Mn 1.01454 -0.05537 0.49580
 Cl181 Cl 1.01230 0.01397 0.49940
 C182 C 1.08226 -0.06814 0.59465
 C183 C 1.09644 -0.05490 0.40658
 C184 C 1.18480 0.12103 0.25291
 C185 C 1.16590 0.15376 0.23614
 C186 C 1.13509 0.16903 0.25800
 C187 C 1.12363 0.15217 0.29572
 C188 C 1.14299 0.11949 0.31206
 C189 C 1.17346 0.10416 0.29034
 C190 C 1.13146 0.10260 0.34977
 C191 C 1.10070 0.11798 0.37129
 C192 C 1.08171 0.15053 0.35478
 C193 C 1.09306 0.16748 0.31741
 H194 H 1.12001 0.19411 0.24594
 H195 H 1.18861 0.07909 0.30229
 H196 H 1.14618 0.07742 0.36213
 H197 H 1.07784 0.19248 0.30544
 H198 H 1.20861 0.10820 0.23723
 H199 H 1.05781 0.16292 0.37071
 C200 C 0.82971 -0.09682 0.25909
 C201 C 0.84822 -0.12973 0.24332
 C202 C 0.88233 -0.14151 0.26157
 C203 C 0.89718 -0.12163 0.29494
 C204 C 0.87804 -0.08916 0.31090
 C205 C 0.84445 -0.07682 0.29250
 C206 C 0.89271 -0.06999 0.34515
 C207 C 0.92624 -0.08314 0.36347
 C208 C 0.94516 -0.11509 0.34667
 C209 C 0.93082 -0.13413 0.31282
 H210 H 0.89752 -0.16649 0.25014
 H211 H 0.82939 -0.05187 0.30414
 H212 H 0.87792 -0.04526 0.35769
 H213 H 0.94593 -0.15890 0.30083
 H214 H 0.80357 -0.08663 0.24596
 H215 H 0.97107 -0.12574 0.35995
 C216 C 0.83258 0.09292 0.75053
 C217 C 0.85297 0.12370 0.76876
 C218 C 0.88680 0.13724 0.74990
 C219 C 0.89910 0.12190 0.71291
 C220 C 0.87790 0.09190 0.69420
 C221 C 0.84497 0.07718 0.71366
 C222 C 0.88971 0.07784 0.65610
 C223 C 0.92217 0.09397 0.63662
 C224 C 0.94329 0.12320 0.65614
 C225 C 0.93196 0.13693 0.69392
 H226 H 0.90335 0.16057 0.76330
 H227 H 0.82842 0.05402 0.70000
 H228 H 0.87338 0.05515 0.64136
 H229 H 0.94862 0.15979 0.70797
 H230 H 0.80656 0.08141 0.76422
 H231 H 0.96866 0.13583 0.64207
 C232 C 1.17669 -0.10371 0.74965
 C233 C 1.15612 -0.13728 0.76343
 C234 C 1.12449 -0.14947 0.74113
 C235 C 1.11390 -0.12884 0.70553
 C236 C 1.13496 -0.09535 0.69188
 C237 C 1.16621 -0.08298 0.71436
 C238 C 1.12458 -0.07505 0.65588
 C239 C 1.09349 -0.08809 0.63324
 C240 C 1.07267 -0.12128 0.64743
 C241 C 1.08270 -0.14137 0.68314
 H242 H 1.10827 -0.17519 0.75118
 H243 H 1.18272 -0.05738 0.70455
 H244 H 1.14082 -0.04951 0.64534
 H245 H 1.06614 -0.16688 0.69310
 H246 H 1.20113 -0.09337 0.76608
 H247 H 1.04845 -0.13192 0.63081
 C248 C 0.26894 1.17308 1.08767
 C249 C 0.25412 1.15649 1.12439
 C250 C 0.27325 1.12495 1.14297
 C251 C 0.30697 1.11120 1.12619
 C252 C 0.32193 1.12864 1.08988
 C253 C 0.30247 1.15922 1.07058
 C254 C 0.35633 1.11551 1.07384
 C255 C 0.37594 1.08529 1.09384
 C256 C 0.36050 1.06777 1.12957
 C257 C 0.32627 1.08059 1.14561
 H258 H 0.26247 1.11136 1.17107
 H259 H 0.31343 1.17277 1.04256
 H260 H 0.36793 1.12901 1.04606
 H261 H 0.31507 1.06682 1.17342
 H262 H 0.25497 1.19716 1.07226
 H263 H 0.37500 1.04424 1.14531
 C264 C 0.25992 0.82183 0.90694
 C265 C 0.24658 0.84275 0.87244
 C266 C 0.26842 0.87450 0.85676
 C267 C 0.30292 0.88471 0.87437
 C268 C 0.31635 0.86330 0.90857
 C269 C 0.29439 0.83203 0.92478
 C270 C 0.35151 0.87353 0.92561
 C271 C 0.37307 0.90482 0.90846
 C272 C 0.35891 0.92587 0.87463
 C273 C 0.32432 0.91599 0.85784
 H274 H 0.25893 0.89128 0.83042
 H275 H 0.30397 0.81527 0.95105
 H276 H 0.36202 0.85724 0.95177
 H277 H 0.31441 0.93277 0.83172
 H278 H 0.24394 0.79725 0.92013
 H279 H 0.37464 0.95030 0.86079
 C280 C 0.73658 0.82674 1.11002
 C281 C 0.75187 0.84934 1.14170
 C282 C 0.73207 0.88288 1.15382
 C283 C 0.69791 0.89332 1.13515
 C284 C 0.68284 0.87018 1.10376
 C285 C 0.70257 0.83702 1.09138
 C286 C 0.64829 0.88053 1.08551
 C287 C 0.62867 0.91378 1.09849
 C288 C 0.64437 0.93665 1.12950
 C289 C 0.67849 0.92658 1.14759
 H290 H 0.74301 0.90098 1.17792
 H291 H 0.69165 0.81888 1.06733
 H292 H 0.63665 0.86272 1.06157
 H293 H 0.68962 0.94481 1.17146
 H294 H 0.75074 0.80079 1.09954
 H295 H 0.63016 0.96255 1.14006
 C296 C 0.74072 1.15804 0.90476
 C297 C 0.75618 1.13816 0.87123
 C298 C 0.73471 1.10792 0.85369
 C299 C 0.69829 1.09861 0.86830
 C300 C 0.68290 1.11920 0.90147
 C301 C 0.70451 1.14855 0.91976
 C302 C 0.64612 1.11012 0.91561
 C303 C 0.62469 1.08076 0.89685
 C304 C 0.64036 1.06044 0.86398
 C305 C 0.67684 1.06925 0.84984
 H306 H 0.74585 1.09198 0.82800
 H307 H 0.69327 1.16449 0.94538
 H308 H 0.63434 1.12572 0.94120
 H309 H 0.68824 1.05316 0.82441
 H310 H 0.75637 1.18131 0.91932
 H311 H 0.62443 1.03752 0.84917
 C312 C 0.16627 0.26756 0.08817
 C313 C 0.15464 0.25339 0.12709
 C314 C 0.12630 0.27349 0.14838
 C315 C 0.11047 0.30764 0.13141
 C316 C 0.12291 0.32174 0.09255
 C317 C 0.15054 0.30130 0.07108
 C318 C 0.10777 0.35625 0.07590
 C319 C 0.08030 0.37706 0.09753
 C320 C 0.06772 0.36262 0.13591
 C321 C 0.08269 0.32822 0.15273
 H322 H 0.11697 0.26301 0.17836
 H323 H 0.16025 0.31159 0.04117
 H324 H 0.11753 0.36695 0.04614
 H325 H 0.07270 0.31785 0.18249
 H326 H 0.18783 0.25270 0.07084
 H327 H 0.04641 0.37805 0.15305
 C328 C -0.10475 0.24419 -0.15539
 C329 C -0.13648 0.22857 -0.13400
 C330 C -0.15131 0.24909 -0.10079
 C331 C -0.13579 0.28547 -0.09023
 C332 C -0.10475 0.30152 -0.11286
 C333 C -0.08902 0.28033 -0.14489
 C334 C -0.09043 0.33878 -0.10355
 C335 C -0.10681 0.36019 -0.07193
 C336 C -0.13700 0.34356 -0.04892
 C337 C -0.15141 0.30650 -0.05801
 H338 H -0.17558 0.23738 -0.08379
 H339 H -0.06505 0.29207 -0.16236
 H340 H -0.06686 0.35123 -0.12117
 H341 H -0.17505 0.29452 -0.04018
 H342 H -0.09260 0.22900 -0.18099
 H343 H -0.14983 0.35939 -0.02413
 C344 C 0.14835 0.73954 -0.09453
 C345 C 0.13877 0.75417 -0.13350
 C346 C 0.11111 0.73407 -0.15597
 C347 C 0.09460 0.69890 -0.14025
 C348 C 0.10575 0.68416 -0.10165
 C349 C 0.13203 0.70500 -0.07880
 C350 C 0.09108 0.64834 -0.08663
 C351 C 0.06519 0.62655 -0.10939
 C352 C 0.05308 0.64173 -0.14714
 C353 C 0.06781 0.67762 -0.16256
 H354 H 0.10334 0.74500 -0.18596
 H355 H 0.14054 0.69422 -0.04898
 H356 H 0.10023 0.63722 -0.05716
 H357 H 0.05867 0.68844 -0.19210
 H358 H 0.16907 0.75450 -0.07616
 H359 H 0.03294 0.62547 -0.16507
 C360 C -0.10990 0.74644 0.17387
 C361 C -0.14283 0.75884 0.15385
 C362 C -0.15691 0.73625 0.12188
 C363 C -0.13883 0.70171 0.11044
 C364 C -0.10601 0.68927 0.13100
 C365 C -0.09169 0.71205 0.16257
 C366 C -0.08837 0.65417 0.11983
 C367 C -0.10342 0.63142 0.08846
 C368 C -0.13584 0.64452 0.06805
 C369 C -0.15332 0.67923 0.07887
 H370 H -0.18215 0.74530 0.10601
 H371 H -0.06655 0.70316 0.17870
 H372 H -0.06336 0.64446 0.13570
 H373 H -0.17835 0.68835 0.06267
 H374 H -0.09824 0.76317 0.19859
 H375 H -0.14796 0.62779 0.04358
 C376 C 1.17222 0.11143 0.75675
 C377 C 1.15326 0.14418 0.77249
 C378 C 1.12203 0.15892 0.75104
 C379 C 1.11064 0.14189 0.71437
 C380 C 1.13042 0.10954 0.69883
 C381 C 1.16093 0.09439 0.72046
 C382 C 1.11959 0.09304 0.66175
 C383 C 1.08920 0.10855 0.63988
 C384 C 1.06939 0.14041 0.65583
 C385 C 1.07999 0.15692 0.69269
 H386 H 1.10681 0.18392 0.76240
 H387 H 1.17634 0.06952 0.70915
 H388 H 1.13495 0.06838 0.64984
 H389 H 1.06435 0.18160 0.70409
 H390 H 1.19623 0.09886 0.77220
 H391 H 1.04569 0.15282 0.63968
 C392 C 0.82482 -0.10439 0.73247
 C393 C 0.84185 -0.13878 0.74766
 C394 C 0.87472 -0.15221 0.72785
 C395 C 0.88986 -0.13237 0.69350
 C396 C 0.87228 -0.09827 0.67821
 C397 C 0.83990 -0.08437 0.69808
 C398 C 0.88733 -0.07891 0.64324
 C399 C 0.91969 -0.09341 0.62355
 C400 C 0.93706 -0.12712 0.63941
 C401 C 0.92229 -0.14644 0.67405
 H402 H 0.88869 -0.17843 0.73882
 H403 H 0.82611 -0.05815 0.68689
 H404 H 0.87384 -0.05278 0.63133
 H405 H 0.93615 -0.17252 0.68552
 H406 H 0.79963 -0.09301 0.74686
 H407 H 0.96210 -0.13873 0.62493
 C408 C 1.11323 -0.16132 0.25833
 C409 C 1.14866 -0.14734 0.24317
 C410 C 1.16646 -0.11593 0.26332
 C411 C 1.14938 -0.09968 0.29822
 C412 C 1.11421 -0.11485 0.31281
 C413 C 1.09635 -0.14533 0.29251
 C414 C 1.09731 -0.09968 0.34780
 C415 C 1.11484 -0.06931 0.36903
 C416 C 1.14956 -0.05371 0.35430
 C417 C 1.16673 -0.06881 0.31917
 H418 H 1.19357 -0.10447 0.25236
 H419 H 1.06930 -0.15712 0.30327
 H420 H 1.07041 -0.11184 0.35862
 H421 H 1.19363 -0.05655 0.30859
 H422 H 1.09812 -0.18510 0.24400
 H423 H 1.16357 -0.03014 0.37011
 C424 C 0.84560 0.09363 0.24743
 C425 C 0.85846 0.13021 0.23127
 C426 C 0.88780 0.15024 0.25129
 C427 C 0.90250 0.13503 0.28778
 C428 C 0.88828 0.09900 0.30413
 C429 C 0.86042 0.07821 0.28338
 C430 C 0.90155 0.08461 0.34144
 C431 C 0.92880 0.10581 0.36293
 C432 C 0.94358 0.14113 0.34616
 C433 C 0.93051 0.15567 0.30880
 H434 H 0.89844 0.17826 0.23940
 H435 H 0.84950 0.05036 0.29540
 H436 H 0.89025 0.05711 0.35396
 H437 H 0.94189 0.18327 0.29667
 H438 H 0.82346 0.07698 0.23280
 H439 H 0.96487 0.15776 0.36217
 C440 C 0.16075 0.26259 -0.09077
 C441 C 0.14563 0.24486 -0.12567
 C442 C 0.11380 0.26203 -0.14413
 C443 C 0.09811 0.29648 -0.12857
 C444 C 0.11423 0.31402 -0.09406
 C445 C 0.14526 0.29666 -0.07522
 C446 C 0.09932 0.34889 -0.07907
 C447 C 0.06836 0.36668 -0.09805
 C448 C 0.05201 0.34874 -0.13193
 C449 C 0.06679 0.31397 -0.14710
 H450 H 0.10139 0.24904 -0.17084
 H451 H 0.15781 0.30962 -0.04858
 H452 H 0.11201 0.36227 -0.05271
 H453 H 0.05389 0.30092 -0.17349
 H454 H 0.18498 0.25043 -0.07535
 H455 H 0.02801 0.36179 -0.14695
 C456 C -0.17293 0.25477 0.10128
 C457 C -0.15399 0.23670 0.13411
 C458 C -0.12326 0.25694 0.15169
 C459 C -0.11220 0.29450 0.13726
 C460 C -0.13179 0.31215 0.10459
 C461 C -0.16188 0.29200 0.08667
 C462 C -0.12104 0.34975 0.09036
 C463 C -0.09087 0.37017 0.10826
 C464 C -0.07137 0.35240 0.14062
 C465 C -0.08198 0.31484 0.15506
 H466 H -0.10804 0.24383 0.17693
 H467 H -0.17706 0.30513 0.06143
 H468 H -0.13620 0.36303 0.06517
 H469 H -0.06657 0.30172 0.18011
 H470 H -0.19651 0.24029 0.08676
 H471 H -0.04791 0.36749 0.15469
 C472 C -0.12037 0.73468 -0.18222
 C473 C -0.15282 0.74769 -0.16147
 C474 C -0.16794 0.72483 -0.12893
 C475 C -0.15104 0.68954 -0.11725
 C476 C -0.11848 0.67662 -0.13830
 C477 C -0.10336 0.69946 -0.17075
 C478 C -0.10152 0.64127 -0.12629
 C479 C -0.11671 0.61902 -0.09333
 C480 C -0.14915 0.63218 -0.07281
 C481 C -0.16620 0.66705 -0.08469
 H482 H -0.19291 0.73438 -0.11261
 H483 H -0.07841 0.69013 -0.18721
 H484 H -0.07639 0.63143 -0.14212
 H485 H -0.19112 0.67652 -0.06824
 H486 H -0.10806 0.75168 -0.20746
 H487 H -0.16139 0.61556 -0.04725
 C488 C 0.10620 0.73916 0.16601
 C489 C 0.14027 0.75127 0.14609
 C490 C 0.15295 0.72971 0.11241
 C491 C 0.13228 0.69666 0.09948
 C492 C 0.09867 0.68480 0.12047
 C493 C 0.08584 0.70641 0.15345
 C494 C 0.07845 0.65135 0.10837
 C495 C 0.09123 0.62946 0.07533
 C496 C 0.12428 0.64182 0.05406
 C497 C 0.14466 0.67502 0.06606
 H498 H 0.17884 0.73838 0.09636
 H499 H 0.06006 0.69787 0.16976
 H500 H 0.05289 0.64228 0.12482
 H501 H 0.17018 0.68365 0.04934
 H502 H 0.09508 0.75472 0.19190
 H503 H 0.13464 0.62557 0.02827
 C504 C 0.26316 1.16753 0.91260
 C505 C 0.24655 1.14924 0.87902
 C506 C 0.26464 1.11698 0.86165
 C507 C 0.29925 1.10392 0.87662
 C508 C 0.31611 1.12301 0.90980
 C509 C 0.29761 1.15447 0.92791
 C510 C 0.35138 1.11060 0.92388
 C511 C 0.36997 1.07945 0.90507
 C512 C 0.35261 1.06028 0.87258
 C513 C 0.31754 1.07241 0.85847
 H514 H 0.25223 1.10236 0.83588
 H515 H 0.31004 1.16931 0.95353
 H516 H 0.36444 1.12538 0.94920
 H517 H 0.30489 1.05737 0.83310
 H518 H 0.24982 1.19232 0.92670
 H519 H 0.36628 1.03603 0.85783
 C520 C 0.26594 0.82077 1.10697
 C521 C 0.25076 0.84026 1.14082
 C522 C 0.27141 0.87195 1.15682
 C523 C 0.30650 0.88380 1.13950
 C524 C 0.32143 0.86386 1.10563
 C525 C 0.30082 0.83243 1.08960
 C526 C 0.35664 0.87572 1.08842
 C527 C 0.37710 0.90739 1.10465
 C528 C 0.36179 0.92699 1.13826
 C529 C 0.32695 0.91533 1.15552
 H530 H 0.26030 0.88743 1.18282
 H531 H 0.31168 0.81679 1.06360
 H532 H 0.36798 0.86045 1.06240
 H533 H 0.31597 0.93105 1.18141
 H534 H 0.25088 0.79634 1.09380
 H535 H 0.37678 0.95155 1.15133
 C536 C 0.74410 1.09015 1.15275
 C537 C 0.75627 1.12628 1.13510
 C538 C 0.73356 1.14465 1.10568
 C539 C 0.69863 1.12789 1.09516
 C540 C 0.68626 1.09219 1.11408
 C541 C 0.70947 1.07329 1.14235
 C542 C 0.65073 1.07619 1.10474
 C543 C 0.62746 1.09533 1.07653
 C544 C 0.64031 1.13036 1.05723
 C545 C 0.67555 1.14656 1.06654
 H546 H 0.74254 1.17240 1.09168
 H547 H 0.70060 1.04576 1.15690
 H548 H 0.64123 1.04892 1.11941
 H549 H 0.68460 1.17381 1.05155
 H550 H 0.76101 1.07509 1.17533
 H551 H 0.62296 1.14549 1.03510
 C552 C 0.73066 0.82162 0.88890
 C553 C 0.74529 0.84335 0.85506
 C554 C 0.72595 0.87678 0.84146
 C555 C 0.69231 0.88798 0.86081
 C556 C 0.67764 0.86575 0.89452
 C557 C 0.69723 0.83274 0.90846
 C558 C 0.64352 0.87674 0.91338
 C559 C 0.62388 0.90952 0.89860
 C560 C 0.63905 0.93152 0.86529
 C561 C 0.67291 0.92093 0.84665
 H562 H 0.73676 0.89391 0.81550
 H563 H 0.68655 0.81534 0.93428
 H564 H 0.63213 0.85965 0.93909
 H565 H 0.68378 0.93839 0.82096
 H566 H 0.74493 0.79577 0.90023
 H567 H 0.62467 0.95708 0.85342
   
