data_POSCAR
  _audit_creation_date              2014-09-24
  _audit_creation_method            'ToBaCCo'
  _symmetry_space_group_name_H-M    'P1'
  _symmetry_Int_Tables_number       1
  _symmetry_cell_setting            triclinic
  loop_
  _symmetry_equiv_pos_as_xyz
 x,y,z
_cell_length_a 49.5560
_cell_length_b 49.1309
_cell_length_c 31.8057
_cell_angle_alpha 89.931100
_cell_angle_beta 90.031300
_cell_angle_gamma 90.078200
loop_
  _atom_site_label
  _atom_site_type_symbol
  _atom_site_fract_x
  _atom_site_fract_y
  _atom_site_fract_z
O1 O 0.25818 0.27662 0.30905
 O2 O 0.21446 0.22331 0.26459
 O3 O 0.25865 0.22375 0.30975
 O4 O 0.21410 0.27584 0.26379
 O5 O 0.23894 0.27619 0.20617
 O6 O 0.28296 0.22356 0.25177
 O7 O 0.23917 0.22293 0.20683
 O8 O 0.28271 0.27651 0.25119
 Cu9 Cu 0.23393 0.24988 0.29265
 Cu10 Cu 0.26338 0.24979 0.22317
 C11 C 0.27797 0.28564 0.28780
 C12 C 0.21926 0.21414 0.22805
 C13 C 0.27853 0.21473 0.28871
 C14 C 0.21889 0.28484 0.22709
 O15 O 0.74088 0.22519 0.29954
 O16 O 0.78432 0.27779 0.25255
 O17 O 0.74059 0.27820 0.29727
 O18 O 0.78474 0.22479 0.25407
 O19 O 0.76066 0.22440 0.19572
 O20 O 0.71530 0.27608 0.24019
 O21 O 0.75953 0.27719 0.19503
 O22 O 0.71698 0.22327 0.24108
 Cu23 Cu 0.76509 0.25156 0.28166
 Cu24 Cu 0.73565 0.25018 0.21221
 C25 C 0.72152 0.21518 0.27838
 C26 C 0.77944 0.28658 0.21573
 C27 C 0.72022 0.28601 0.27625
 C28 C 0.78042 0.21568 0.21728
 O29 O 0.74107 0.77734 0.70195
 O30 O 0.78471 0.72445 0.74783
 O31 O 0.74122 0.72415 0.70213
 O32 O 0.78451 0.77744 0.74793
 O33 O 0.75968 0.77721 0.80538
 O34 O 0.71599 0.72444 0.75935
 O35 O 0.75978 0.72430 0.80527
 O36 O 0.71588 0.77686 0.75920
 Cu37 Cu 0.76538 0.75087 0.71921
 Cu38 Cu 0.73539 0.75071 0.78813
 C39 C 0.72085 0.78589 0.72258
 C40 C 0.77978 0.71539 0.78446
 C41 C 0.72105 0.71541 0.72280
 C42 C 0.77968 0.78636 0.78467
 O43 O 0.21468 0.77538 0.74256
 O44 O 0.25874 0.72331 0.69580
 O45 O 0.21505 0.72291 0.74199
 O46 O 0.25834 0.77622 0.69641
 O47 O 0.28332 0.77620 0.75383
 O48 O 0.24042 0.72227 0.79892
 O49 O 0.28381 0.72325 0.75313
 O50 O 0.23993 0.77557 0.79978
 Cu51 Cu 0.23424 0.74946 0.71339
 Cu52 Cu 0.26436 0.74932 0.78219
 C53 C 0.21970 0.78425 0.77922
 C54 C 0.27886 0.71442 0.71640
 C55 C 0.22020 0.71348 0.77835
 C56 C 0.27828 0.78531 0.71727
 O57 O 1.02673 -0.03690 0.00854
 O58 O 0.97619 0.00842 0.05601
 O59 O 0.97444 -0.03508 0.00931
 O60 O 1.02875 0.00691 0.05503
 O61 O 1.02729 0.03385 -0.00054
 O62 O 0.97642 -0.01076 -0.04897
 O63 O 0.97512 0.03276 -0.00231
 O64 O 1.02902 -0.00995 -0.04695
 Cu65 Cu 1.00153 -0.01672 0.03798
 Cu66 Cu 1.00205 0.01399 -0.03048
 C67 C 1.03663 -0.03107 -0.02718
 C68 C 0.96679 0.02820 0.03482
 C69 C 0.96646 -0.03035 -0.02797
 C70 C 1.03678 0.02796 0.03542
 O71 O 0.52735 0.46596 0.50272
 O72 O 0.47701 0.51112 0.55105
 O73 O 0.47515 0.46745 0.50496
 O74 O 0.52962 0.50983 0.54902
 O75 O 0.52753 0.53662 0.49333
 O76 O 0.47628 0.49164 0.44650
 O77 O 0.47526 0.53532 0.49264
 O78 O 0.52890 0.49274 0.44697
 Cu79 Cu 0.50237 0.48608 0.53274
 Cu80 Cu 0.50203 0.51661 0.46407
 C81 C 0.53680 0.47170 0.46668
 C82 C 0.46723 0.53074 0.52992
 C83 C 0.46669 0.47204 0.46791
 C84 C 0.53742 0.53083 0.52907
 O85 O 0.02938 0.50814 -0.05029
 O86 O -0.02530 0.46626 -0.00553
 O87 O -0.02326 0.50985 -0.05197
 O88 O 0.02693 0.46443 -0.00351
 O89 O 0.02899 0.49147 0.05180
 O90 O -0.02478 0.53406 0.00635
 O91 O -0.02364 0.49048 0.05279
 O92 O 0.02741 0.53526 0.00496
 Cu93 Cu 0.00200 0.48464 -0.03360
 Cu94 Cu 0.00208 0.51534 0.03476
 C95 C 0.03720 0.52925 -0.03071
 C96 C -0.03352 0.47095 0.03160
 C97 C -0.03292 0.52951 -0.03087
 C98 C 0.03664 0.47028 0.03232
 O99 O 0.47527 1.03426 0.50608
 O100 O 0.52839 0.99016 0.54997
 O101 O 0.52787 1.03386 0.50404
 O102 O 0.47582 0.99030 0.55217
 O103 O 0.47372 0.96592 0.49405
 O104 O 0.52726 1.00820 0.44718
 O105 O 0.52605 0.96409 0.49357
 O106 O 0.47492 1.00970 0.44806
 Cu107 Cu 0.50193 1.01468 0.53382
 Cu108 Cu 0.50043 0.98445 0.46496
 C109 C 0.46621 1.02969 0.46937
 C110 C 0.53601 0.96939 0.52946
 C111 C 0.53653 1.02845 0.46741
 C112 C 0.46577 0.97072 0.53128
 C113 C 1.16602 0.15509 0.17309
 C114 C 1.15622 0.17433 0.20186
 C115 C 1.17372 0.19308 0.22050
 C116 C 1.20120 0.19341 0.20981
 C117 C 1.21102 0.17422 0.18095
 C118 C 1.19363 0.15494 0.16319
 C119 C 1.14731 0.13576 0.15278
 N120 N 1.15549 0.11032 0.14208
 N121 N 1.13847 0.09300 0.12364
 C122 C 1.11276 0.10062 0.11469
 N123 N 1.10466 0.12610 0.12521
 N124 N 1.12154 0.14327 0.14411
 C125 C 1.09392 0.08175 0.09370
 C126 C 1.07429 0.09188 0.06598
 C127 C 1.05617 0.07422 0.04631
 C128 C 1.05685 0.04619 0.05489
 C129 C 1.07637 0.03603 0.08279
 C130 C 1.09504 0.05363 0.10157
 H131 H 1.13502 0.17477 0.21011
 H132 H 1.16565 0.20777 0.24252
 H133 H 1.23217 0.17405 0.17233
 H134 H 1.20162 0.14037 0.14092
 H135 H 1.07310 0.11346 0.05926
 H136 H 1.04119 0.08256 0.02510
 H137 H 1.07730 0.01447 0.08980
 H138 H 1.10995 0.04538 0.12297
 C139 C 0.66766 0.65727 0.66591
 C140 C 0.65782 0.67648 0.69471
 C141 C 0.67536 0.69492 0.71397
 C142 C 0.70294 0.69498 0.70389
 C143 C 0.71281 0.67585 0.67497
 C144 C 0.69536 0.65687 0.65659
 C145 C 0.64892 0.63818 0.64513
 N146 N 0.65694 0.61268 0.63448
 N147 N 0.63985 0.59551 0.61588
 C148 C 0.61424 0.60334 0.60671
 N149 N 0.60631 0.62889 0.61714
 N150 N 0.62326 0.64592 0.63620
 C151 C 0.59525 0.58452 0.58590
 C152 C 0.57551 0.59468 0.55839
 C153 C 0.55716 0.57705 0.53912
 C154 C 0.55774 0.54905 0.54792
 C155 C 0.57741 0.53887 0.57555
 C156 C 0.59628 0.55643 0.59393
 H157 H 0.63656 0.67711 0.70254
 H158 H 0.66726 0.70958 0.73600
 H159 H 0.73402 0.67549 0.66681
 H160 H 0.70338 0.64231 0.63432
 H161 H 0.57438 0.61625 0.55156
 H162 H 0.54209 0.58541 0.51809
 H163 H 0.57828 0.51733 0.58272
 H164 H 0.61126 0.54815 0.61518
 C165 C -0.16861 0.34544 0.16123
 C166 C -0.16503 0.33706 0.20310
 C167 C -0.18223 0.31776 0.22110
 C168 C -0.20371 0.30650 0.19783
 C169 C -0.20757 0.31534 0.15610
 C170 C -0.19013 0.33443 0.13797
 C171 C -0.14968 0.36514 0.14184
 N172 N -0.14892 0.36865 0.09948
 N173 N -0.13134 0.38581 0.08203
 C174 C -0.11386 0.40028 0.10622
 N175 N -0.11476 0.39691 0.14858
 N176 N -0.13225 0.37966 0.16601
 C177 C -0.09387 0.41891 0.08685
 C178 C -0.07946 0.43757 0.11174
 C179 C -0.06014 0.45471 0.09369
 C180 C -0.05457 0.45337 0.05043
 C181 C -0.06905 0.43482 0.02549
 C182 C -0.08860 0.41788 0.04346
 H183 H -0.14862 0.34509 0.22188
 H184 H -0.17854 0.31164 0.25333
 H185 H -0.22385 0.30725 0.13708
 H186 H -0.19352 0.34057 0.10569
 H187 H -0.08310 0.43897 0.14523
 H188 H -0.04929 0.46877 0.11376
 H189 H -0.06529 0.43336 -0.00797
 H190 H -0.09928 0.40368 0.02342
 C191 C 0.33104 0.84527 0.66225
 C192 C 0.31112 0.83239 0.63784
 C193 C 0.29371 0.81326 0.65586
 C194 C 0.29598 0.80639 0.69862
 C195 C 0.31573 0.81943 0.72313
 C196 C 0.33298 0.83875 0.70519
 C197 C 0.35003 0.86494 0.64284
 N198 N 0.36660 0.88045 0.66704
 N199 N 0.38408 0.89768 0.64953
 C200 C 0.38581 0.90007 0.60706
 N201 N 0.36920 0.88461 0.58287
 N202 N 0.35165 0.86746 0.60038
 C203 C 0.40576 0.91869 0.58752
 C204 C 0.41122 0.91724 0.54421
 C205 C 0.43062 0.93420 0.52596
 C206 C 0.44482 0.95318 0.55051
 C207 C 0.43910 0.95494 0.59369
 C208 C 0.41987 0.93779 0.61203
 H209 H 0.30899 0.83702 0.60471
 H210 H 0.27872 0.80355 0.63612
 H211 H 0.31794 0.81464 0.75619
 H212 H 0.34812 0.84825 0.72489
 H213 H 0.40078 0.90273 0.52442
 H214 H 0.43451 0.93240 0.49258
 H215 H 0.44973 0.96933 0.61346
 H216 H 0.41609 0.93951 0.64545
 C217 C -0.16705 0.65592 -0.16050
 C218 C -0.18687 0.66880 -0.13598
 C219 C -0.20439 0.68781 -0.15398
 C220 C -0.20233 0.69455 -0.19681
 C221 C -0.18265 0.68154 -0.22140
 C222 C -0.16529 0.66235 -0.20350
 C223 C -0.14803 0.63628 -0.14122
 N224 N -0.13170 0.62068 -0.16557
 N225 N -0.11424 0.60340 -0.14822
 C226 C -0.11229 0.60106 -0.10577
 N227 N -0.12865 0.61661 -0.08142
 N228 N -0.14618 0.63382 -0.09878
 C229 C -0.09242 0.58230 -0.08644
 C230 C -0.08672 0.58369 -0.04320
 C231 C -0.06745 0.56651 -0.02516
 C232 C -0.05364 0.54737 -0.04987
 C233 C -0.05958 0.54572 -0.09300
 C234 C -0.07866 0.56308 -0.11112
 H235 H -0.18884 0.66425 -0.10281
 H236 H -0.21932 0.69750 -0.13418
 H237 H -0.18060 0.68623 -0.25452
 H238 H -0.15024 0.65286 -0.22328
 H239 H -0.09689 0.59829 -0.02328
 H240 H -0.06339 0.56823 0.00819
 H241 H -0.04925 0.53122 -0.11290
 H242 H -0.08263 0.56140 -0.14450
 C243 C 0.33164 1.15678 0.34255
 C244 C 0.33484 1.16517 0.30061
 C245 C 0.31729 1.18420 0.28283
 C246 C 0.29583 1.19515 0.30640
 C247 C 0.29241 1.18633 0.34824
 C248 C 0.31020 1.16753 0.36614
 C249 C 0.35081 1.13721 0.36163
 N250 N 0.35200 1.13381 0.40399
 N251 N 0.36965 1.11662 0.42111
 C252 C 0.38676 1.10202 0.39658
 N253 N 0.38545 1.10532 0.35423
 N254 N 0.36791 1.12260 0.33713
 C255 C 0.40667 1.08315 0.41552
 C256 C 0.42025 1.06407 0.39038
 C257 C 0.43934 1.04653 0.40800
 C258 C 0.44551 1.04788 0.45107
 C259 C 0.43191 1.06691 0.47627
 C260 C 0.41258 1.08426 0.45872
 H261 H 0.35119 1.15734 0.28159
 H262 H 0.32065 1.19033 0.25052
 H263 H 0.27617 1.19420 0.36751
 H264 H 0.30711 1.16138 0.39849
 H265 H 0.41611 1.06261 0.35703
 H266 H 0.44950 1.03213 0.38773
 H267 H 0.43618 1.06838 0.50959
 H268 H 0.40253 1.09878 0.47894
 C269 C 1.16626 -0.15790 -0.16368
 C270 C 1.19394 -0.15751 -0.15417
 C271 C 1.21138 -0.17644 -0.17255
 C272 C 1.20154 -0.19551 -0.20166
 C273 C 1.17397 -0.19546 -0.21187
 C274 C 1.15643 -0.17707 -0.19261
 C275 C 1.14756 -0.13878 -0.14304
 N276 N 1.12182 -0.14644 -0.13438
 N277 N 1.10490 -0.12937 -0.11545
 C278 C 1.11294 -0.10385 -0.10490
 N279 N 1.13864 -0.09610 -0.11380
 N280 N 1.15568 -0.11331 -0.13227
 C281 C 1.09401 -0.08499 -0.08419
 C282 C 1.09530 -0.05688 -0.09203
 C283 C 1.07655 -0.03925 -0.07365
 C284 C 1.05676 -0.04939 -0.04617
 C285 C 1.05591 -0.07742 -0.03759
 C286 C 1.07413 -0.09510 -0.05688
 H287 H 1.20196 -0.14299 -0.13181
 H288 H 1.23259 -0.17606 -0.16430
 H289 H 1.16589 -0.21006 -0.23406
 H290 H 1.13519 -0.17769 -0.20059
 H291 H 1.11039 -0.04863 -0.11313
 H292 H 1.07763 -0.01770 -0.08064
 H293 H 1.04073 -0.08573 -0.01669
 H294 H 1.07281 -0.11668 -0.05019
 C295 C 0.66622 0.34456 0.33030
 C296 C 0.69391 0.34545 0.33965
 C297 C 0.71152 0.32633 0.32219
 C298 C 0.70184 0.30653 0.29414
 C299 C 0.67427 0.30609 0.28398
 C300 C 0.65656 0.32470 0.30235
 C301 C 0.64736 0.36382 0.35027
 N302 N 0.62172 0.35605 0.35939
 N303 N 0.60474 0.37318 0.37807
 C304 C 0.61263 0.39887 0.38791
 N305 N 0.63822 0.40674 0.37851
 N306 N 0.65531 0.38948 0.36029
 C307 C 0.59372 0.41774 0.40866
 C308 C 0.59482 0.44582 0.40048
 C309 C 0.57620 0.46345 0.41916
 C310 C 0.55675 0.45337 0.44726
 C311 C 0.55606 0.42537 0.45610
 C312 C 0.57414 0.40767 0.43654
 H313 H 0.70181 0.36050 0.36127
 H314 H 0.73272 0.32711 0.33038
 H315 H 0.66632 0.29092 0.26259
 H316 H 0.63531 0.32368 0.29452
 H317 H 0.60968 0.45403 0.37896
 H318 H 0.57714 0.48499 0.41195
 H319 H 0.54114 0.41709 0.47748
 H320 H 0.57298 0.38612 0.44351
 C321 C 0.83202 -0.15534 -0.16042
 C322 C 0.83573 -0.16374 -0.20222
 C323 C 0.81839 -0.18284 -0.22042
 C324 C 0.79668 -0.19386 -0.19740
 C325 C 0.79271 -0.18497 -0.15575
 C326 C 0.81027 -0.16609 -0.13745
 C327 C 0.85104 -0.13585 -0.14070
 N328 N 0.85147 -0.13236 -0.09834
 N329 N 0.86903 -0.11534 -0.08055
 C330 C 0.88681 -0.10100 -0.10437
 N331 N 0.88626 -0.10436 -0.14675
 N332 N 0.86880 -0.12148 -0.16452
 C333 C 0.90669 -0.08244 -0.08459
 C334 C 0.92131 -0.06374 -0.10915
 C335 C 0.94044 -0.04659 -0.09065
 C336 C 0.94560 -0.04796 -0.04726
 C337 C 0.93093 -0.06657 -0.02264
 C338 C 0.91158 -0.08352 -0.04107
 H339 H 0.85233 -0.15589 -0.22077
 H340 H 0.82216 -0.18902 -0.25257
 H341 H 0.77625 -0.19286 -0.13691
 H342 H 0.80676 -0.15992 -0.10524
 H343 H 0.91797 -0.06231 -0.14272
 H344 H 0.95144 -0.03250 -0.11048
 H345 H 0.93440 -0.06805 0.01090
 H346 H 0.90072 -0.09773 -0.02127
 C347 C 0.33125 0.34560 0.34143
 C348 C 0.33274 0.33910 0.29846
 C349 C 0.31533 0.31977 0.28099
 C350 C 0.29587 0.30670 0.30601
 C351 C 0.29405 0.31352 0.34881
 C352 C 0.31163 0.33266 0.36636
 C353 C 0.35038 0.36533 0.36027
 N354 N 0.35252 0.36783 0.40267
 N355 N 0.37018 0.38508 0.41963
 C356 C 0.38639 0.40065 0.39493
 N357 N 0.38413 0.39827 0.35252
 N358 N 0.36654 0.38095 0.33556
 C359 C 0.40644 0.41942 0.41380
 C360 C 0.42006 0.43862 0.38878
 C361 C 0.43937 0.45594 0.40645
 C362 C 0.44567 0.45427 0.44945
 C363 C 0.43197 0.43517 0.47452
 C364 C 0.41249 0.41803 0.45694
 H365 H 0.34765 0.34864 0.27836
 H366 H 0.31719 0.31501 0.24788
 H367 H 0.27929 0.30378 0.36893
 H368 H 0.30985 0.33727 0.39953
 H369 H 0.41582 0.44030 0.35548
 H370 H 0.44960 0.47042 0.38628
 H371 H 0.43632 0.43343 0.50779
 H372 H 0.40242 0.40343 0.47711
 C373 C 0.16810 0.65498 -0.16712
 C374 C 0.16099 0.66807 -0.20471
 C375 C 0.17855 0.68678 -0.22336
 C376 C 0.20325 0.69355 -0.20400
 C377 C 0.21025 0.68032 -0.16618
 C378 C 0.19302 0.66091 -0.14833
 C379 C 0.14915 0.63584 -0.14703
 N380 N 0.15817 0.61278 -0.12812
 N381 N 0.14091 0.59562 -0.10985
 C382 C 0.11407 0.60113 -0.10926
 N383 N 0.10510 0.62427 -0.12794
 N384 N 0.12229 0.64120 -0.14674
 C385 C 0.09492 0.58256 -0.08840
 C386 C 0.07336 0.59314 -0.06501
 C387 C 0.05500 0.57569 -0.04536
 C388 C 0.05740 0.54739 -0.04995
 C389 C 0.07882 0.53676 -0.07366
 C390 C 0.09774 0.55423 -0.09216
 H391 H 0.14188 0.66368 -0.21981
 H392 H 0.17234 0.69647 -0.25241
 H393 H 0.22910 0.68481 -0.15037
 H394 H 0.19883 0.65109 -0.11919
 H395 H 0.07088 0.61493 -0.06158
 H396 H 0.03853 0.58430 -0.02741
 H397 H 0.08104 0.51497 -0.07749
 H398 H 0.11418 0.54567 -0.11023
 C399 C 0.66934 1.15516 0.33464
 C400 C 0.66780 1.16080 0.29135
 C401 C 0.68482 1.18017 0.27303
 C402 C 0.70394 1.19416 0.29751
 C403 C 0.70578 1.18822 0.34064
 C404 C 0.68860 1.16903 0.35903
 C405 C 0.65066 1.13533 0.35439
 N406 N 0.64862 1.13354 0.39689
 N407 N 0.63139 1.11618 0.41469
 C408 C 0.61552 1.09980 0.39075
 N409 N 0.61767 1.10146 0.34825
 N410 N 0.63484 1.11890 0.33044
 C411 C 0.59590 1.08095 0.41058
 C412 C 0.58262 1.06100 0.38657
 C413 C 0.56365 1.04367 0.40514
 C414 C 0.55734 1.04608 0.44804
 C415 C 0.57075 1.06589 0.47212
 C416 C 0.58990 1.08304 0.45366
 H417 H 0.65316 1.15052 0.27166
 H418 H 0.68295 1.18424 0.23969
 H419 H 0.72028 1.19867 0.36037
 H420 H 0.69041 1.16512 0.39242
 H421 H 0.58684 1.05877 0.35335
 H422 H 0.55363 1.02864 0.38573
 H423 H 0.56640 1.06821 0.50529
 H424 H 0.59971 1.09820 0.47307
 C425 C 0.16542 0.34311 0.17077
 C426 C 0.19308 0.34347 0.16116
 C427 C 0.21052 0.32442 0.17933
 C428 C 0.20070 0.30525 0.20833
 C429 C 0.17317 0.30532 0.21869
 C430 C 0.15561 0.32384 0.19962
 C431 C 0.14673 0.36233 0.15020
 N432 N 0.12097 0.35476 0.14151
 N433 N 0.10412 0.37187 0.12244
 C434 C 0.11226 0.39736 0.11175
 N435 N 0.13797 0.40503 0.12071
 N436 N 0.15495 0.38777 0.13933
 C437 C 0.09346 0.41624 0.09071
 C438 C 0.09485 0.44437 0.09826
 C439 C 0.07628 0.46203 0.07943
 C440 C 0.05658 0.45192 0.05180
 C441 C 0.05561 0.42387 0.04353
 C442 C 0.07364 0.40615 0.06326
 H443 H 0.20109 0.35806 0.13885
 H444 H 0.23170 0.32479 0.17097
 H445 H 0.16511 0.29063 0.24080
 H446 H 0.13439 0.32323 0.20766
 H447 H 0.10989 0.45260 0.11945
 H448 H 0.07744 0.48361 0.08620
 H449 H 0.04049 0.41557 0.02252
 H450 H 0.07225 0.38455 0.05678
 C451 C 0.66694 0.84316 0.66487
 C452 C 0.69466 0.84392 0.65571
 C453 C 0.71227 0.82524 0.67439
 C454 C 0.70256 0.80606 0.70347
 C455 C 0.67495 0.80576 0.71338
 C456 C 0.65725 0.82389 0.69381
 C457 C 0.64809 0.86203 0.64393
 N458 N 0.62247 0.85408 0.63499
 N459 N 0.60540 0.87098 0.61593
 C460 C 0.61318 0.89662 0.60550
 N461 N 0.63876 0.90465 0.61463
 N462 N 0.65595 0.88761 0.63322
 C463 C 0.59404 0.91542 0.58502
 C464 C 0.59514 0.94348 0.59323
 C465 C 0.57619 0.96107 0.57525
 C466 C 0.55635 0.95099 0.54781
 C467 C 0.55569 0.92304 0.53878
 C468 C 0.57413 0.90535 0.55770
 H469 H 0.70258 0.85853 0.63336
 H470 H 0.73350 0.82587 0.66634
 H471 H 0.66697 0.79104 0.73551
 H472 H 0.63598 0.82299 0.70153
 H473 H 0.61023 0.95170 0.61434
 H474 H 0.57714 0.98258 0.58257
 H475 H 0.54048 0.91478 0.51789
 H476 H 0.57296 0.88381 0.55074
 C477 C 0.83417 0.15633 0.16354
 C478 C 0.83585 0.16299 0.20645
 C479 C 0.81837 0.18219 0.22400
 C480 C 0.79866 0.19496 0.19910
 C481 C 0.79675 0.18805 0.15635
 C482 C 0.81436 0.16905 0.13873
 C483 C 0.85314 0.13657 0.14453
 N484 N 0.85487 0.13392 0.10212
 N485 N 0.87220 0.11649 0.08491
 C486 C 0.88848 0.10088 0.10939
 N487 N 0.88667 0.10344 0.15183
 N488 N 0.86940 0.12095 0.16904
 C489 C 0.90805 0.08181 0.09017
 C490 C 0.92156 0.06242 0.11493
 C491 C 0.94034 0.04475 0.09685
 C492 C 0.94623 0.04626 0.05369
 C493 C 0.93264 0.06556 0.02889
 C494 C 0.91367 0.08304 0.04688
 H495 H 0.85091 0.15361 0.22643
 H496 H 0.82031 0.18704 0.25707
 H497 H 0.78181 0.19755 0.13628
 H498 H 0.81243 0.16434 0.10562
 H499 H 0.91764 0.06085 0.14833
 H500 H 0.95052 0.03014 0.11683
 H501 H 0.93668 0.06719 -0.00448
 H502 H 0.90367 0.09777 0.02690
 C503 C 0.33245 0.65578 0.66051
 C504 C 0.33417 0.66190 0.70360
 C505 C 0.31668 0.68081 0.72176
 C506 C 0.29688 0.69384 0.69736
 C507 C 0.29485 0.68742 0.65443
 C508 C 0.31252 0.66869 0.63616
 C509 C 0.35161 0.63641 0.64101
 N510 N 0.35348 0.63424 0.59853
 N511 N 0.37113 0.61726 0.58101
 C512 C 0.38759 0.60166 0.60521
 N513 N 0.38561 0.60371 0.64768
 N514 N 0.36804 0.62076 0.66520
 C515 C 0.40756 0.58311 0.58575
 C516 C 0.42142 0.56386 0.61032
 C517 C 0.44057 0.54667 0.59211
 C518 C 0.44648 0.54850 0.54899
 C519 C 0.43257 0.56768 0.52438
 C520 C 0.41324 0.58470 0.54252
 H521 H 0.34931 0.65237 0.72326
 H522 H 0.31871 0.68526 0.75495
 H523 H 0.27984 0.69715 0.63477
 H524 H 0.31057 0.66437 0.60293
 H525 H 0.41748 0.56202 0.64369
 H526 H 0.45097 0.53213 0.61194
 H527 H 0.43662 0.56955 0.49104
 H528 H 0.40299 0.59934 0.52269
   
