data_POSCAR
  _audit_creation_date              2014-09-24
  _audit_creation_method            'ToBaCCo'
  _symmetry_space_group_name_H-M    'P1'
  _symmetry_Int_Tables_number       1
  _symmetry_cell_setting            triclinic
  loop_
  _symmetry_equiv_pos_as_xyz
 x,y,z
_cell_length_a 18.9793
_cell_length_b 18.1370
_cell_length_c 53.7808
_cell_angle_alpha 86.432900
_cell_angle_beta 88.892300
_cell_angle_gamma 119.384900
loop_
  _atom_site_label
  _atom_site_type_symbol
  _atom_site_fract_x
  _atom_site_fract_y
  _atom_site_fract_z
Si1 Si -0.06425 -0.03948 0.49986
 Si2 Si 1.01533 0.03549 0.16602
 Si3 Si -0.01198 0.93282 0.83798
 O4 O 0.41315 -0.04460 -0.02366
 O5 O 0.52674 -0.07149 0.02716
 O6 O 0.40875 -0.03638 0.02476
 O7 O 0.52912 -0.08225 -0.02006
 O8 O 0.62060 0.05427 -0.02422
 O9 O 0.49669 0.10041 0.01858
 O10 O 0.61432 0.06595 0.02304
 O11 O 0.50392 0.09131 -0.02965
 Cu12 Cu 0.45975 -0.07223 0.00255
 Cu13 Cu 0.56739 0.09189 -0.00369
 C14 C 0.43915 0.02752 -0.03553
 C15 C 0.59083 -0.00786 0.03346
 C16 C 0.43211 0.03991 0.02930
 C17 C 0.59697 -0.02188 -0.02888
 O18 O 0.01795 0.39515 0.68947
 O19 O 0.02151 0.55624 0.64366
 O20 O 0.01522 0.41090 0.64159
 O21 O 0.02036 0.54013 0.69262
 O22 O 0.15380 0.60429 0.69018
 O23 O 0.14884 0.47790 0.63887
 O24 O 0.15524 0.62426 0.64180
 O25 O 0.15185 0.46058 0.68676
 Cu26 Cu 0.00528 0.46953 0.66724
 Cu27 Cu 0.16585 0.54877 0.66418
 C28 C 0.08420 0.39934 0.69535
 C29 C 0.08893 0.61741 0.63478
 C30 C 0.08131 0.42179 0.63168
 C31 C 0.08817 0.59419 0.70018
 O32 O 0.40714 0.42335 0.31612
 O33 O 0.54991 0.58547 0.35466
 O34 O 0.41118 0.44366 0.36321
 O35 O 0.54257 0.56719 0.30699
 O36 O 0.47440 0.63649 0.30313
 O37 O 0.34501 0.51475 0.35844
 O38 O 0.48280 0.65612 0.35068
 O39 O 0.34071 0.49440 0.31097
 Cu40 Cu 0.48474 0.49812 0.33574
 Cu41 Cu 0.40407 0.58257 0.33048
 C42 C 0.34966 0.43101 0.30707
 C43 C 0.54117 0.64843 0.35908
 C44 C 0.35443 0.45744 0.37007
 C45 C 0.53026 0.62291 0.29544
 C46 C 0.00434 0.09013 0.53261
 C47 C 0.00503 0.14556 0.54970
 C48 C -0.06822 0.14220 0.55734
 C49 C -0.14067 0.08425 0.54725
 C50 C -0.14052 0.02978 0.52994
 C51 C -0.06824 0.03147 0.52283
 C52 C -0.06758 0.19698 0.57479
 C53 C 0.00554 0.25532 0.58451
 C54 C 0.07883 0.25938 0.57644
 C55 C 0.07806 0.20441 0.55915
 C56 C 0.15187 0.31808 0.58590
 C57 C 0.15249 0.37172 0.60349
 C58 C 0.08006 0.36756 0.61204
 C59 C 0.00665 0.30938 0.60231
 H60 H 0.06089 0.09395 0.52657
 H61 H -0.19733 0.08133 0.55266
 H62 H -0.19693 -0.01322 0.52223
 H63 H -0.12381 0.19411 0.58081
 H64 H 0.13429 0.20724 0.55312
 H65 H 0.20853 0.32210 0.57985
 H66 H 0.20982 0.41571 0.61068
 H67 H -0.04962 0.30565 0.60869
 C68 C 0.86363 0.92385 0.19139
 C69 C 0.81141 0.86062 0.20956
 C70 C 0.84020 0.81575 0.22474
 C71 C 0.92076 0.83402 0.22099
 C72 C 0.97260 0.89767 0.20286
 C73 C 0.94453 0.94335 0.18808
 C74 C 0.78871 0.75543 0.24382
 C75 C 0.70934 0.74069 0.24810
 C76 C 0.68069 0.78490 0.23250
 C77 C 0.73153 0.84381 0.21325
 C78 C 0.60217 0.77140 0.23681
 C79 C 0.55316 0.71697 0.25693
 C80 C 0.58118 0.67407 0.27301
 C81 C 0.65889 0.68466 0.26816
 H82 H 0.84158 0.95982 0.18053
 H83 H 0.94415 0.80054 0.23244
 H84 H 1.03527 0.91284 0.20080
 H85 H 0.81101 0.72178 0.25572
 H86 H 0.70958 0.87830 0.20155
 H87 H 0.57928 0.80449 0.22496
 H88 H 0.49330 0.70929 0.26010
 H89 H 0.68116 0.65211 0.28051
 C90 C 0.12864 -0.00146 -0.13581
 C91 C 0.17777 -0.00893 -0.11768
 C92 C 0.15189 -0.08825 -0.10412
 C93 C 0.07811 -0.15857 -0.10892
 C94 C 0.02962 -0.15052 -0.12674
 C95 C 0.05386 -0.07211 -0.14013
 C96 C 0.19967 -0.09621 -0.08582
 C97 C 0.27292 -0.02582 -0.08062
 C98 C 0.29946 0.05357 -0.09411
 C99 C 0.25185 0.06150 -0.11266
 C100 C 0.37284 0.12370 -0.08860
 C101 C 0.41886 0.11537 -0.06972
 C102 C 0.39246 0.03670 -0.05609
 C103 C 0.31952 -0.03372 -0.06186
 H104 H 0.14855 0.05909 -0.14625
 H105 H 0.05756 -0.21975 -0.09873
 H106 H -0.02759 -0.20594 -0.12989
 H107 H 0.17940 -0.15709 -0.07543
 H108 H 0.27196 0.12244 -0.12298
 H109 H 0.39430 0.18510 -0.09873
 H110 H 0.47487 0.17068 -0.06569
 H111 H 0.29826 -0.09484 -0.05154
 C112 C 0.01576 0.90139 0.53288
 C113 C 0.02170 0.84010 0.54859
 C114 C -0.03811 0.75367 0.54858
 C115 C -0.10033 0.72969 0.53202
 C116 C -0.10553 0.79109 0.51643
 C117 C -0.04932 0.87752 0.51736
 C118 C -0.03554 0.69281 0.56535
 C119 C 0.02640 0.71715 0.58206
 C120 C 0.08822 0.80300 0.58138
 C121 C 0.08532 0.86403 0.56471
 C122 C 0.15140 0.82640 0.59763
 C123 C 0.15257 0.76561 0.61468
 C124 C 0.08981 0.68089 0.61607
 C125 C 0.02713 0.65697 0.59958
 H126 H 0.06077 0.96761 0.53322
 H127 H -0.14582 0.66357 0.53142
 H128 H -0.15463 0.77039 0.50404
 H129 H -0.08230 0.62676 0.56561
 H130 H 0.13181 0.93016 0.56453
 H131 H 0.19960 0.89174 0.59726
 H132 H 0.20151 0.78519 0.62721
 H133 H -0.02083 0.59135 0.60032
 C134 C 0.08229 0.11299 0.21051
 C135 C 0.13216 0.17992 0.22466
 C136 C 0.18002 0.26257 0.21288
 C137 C 0.17795 0.27625 0.18701
 C138 C 0.12935 0.20862 0.17298
 C139 C 0.08089 0.12652 0.18459
 C140 C 0.22954 0.32975 0.22709
 C141 C 0.23346 0.31465 0.25283
 C142 C 0.18680 0.23134 0.26444
 C143 C 0.13558 0.16491 0.25036
 C144 C 0.19322 0.21542 0.28990
 C145 C 0.24629 0.28110 0.30369
 C146 C 0.29183 0.36394 0.29244
 C147 C 0.28471 0.38095 0.26709
 H148 H 0.04542 0.05046 0.21986
 H149 H 0.21421 0.33911 0.17761
 H150 H 0.12866 0.22130 0.15312
 H151 H 0.26597 0.39329 0.21809
 H152 H 0.09952 0.10124 0.25934
 H153 H 0.15831 0.15193 0.29903
 H154 H 0.25175 0.26743 0.32324
 H155 H 0.32102 0.44494 0.25838
 C156 C 0.89150 -0.08378 -0.11899
 C157 C 0.82763 -0.08186 -0.10618
 C158 C 0.76397 -0.08221 -0.11947
 C159 C 0.76497 -0.08621 -0.14547
 C160 C 0.83001 -0.08644 -0.15818
 C161 C 0.89387 -0.08460 -0.14503
 C162 C 0.70236 -0.07537 -0.10667
 C163 C 0.70505 -0.06610 -0.08087
 C164 C 0.76873 -0.06669 -0.06770
 C165 C 0.82879 -0.07566 -0.08037
 C166 C 0.77282 -0.05587 -0.04212
 C167 C 0.71560 -0.04237 -0.02971
 C168 C 0.65287 -0.04071 -0.04256
 C169 C 0.64671 -0.05377 -0.06806
 H170 H 0.94131 -0.07993 -0.10862
 H171 H 0.71699 -0.08617 -0.15606
 H172 H 0.83182 -0.08516 -0.17835
 H173 H 0.65390 -0.07467 -0.11685
 H174 H 0.87793 -0.07512 -0.07024
 H175 H 0.82118 -0.05618 -0.03180
 H176 H 0.72058 -0.03244 -0.01000
 H177 H 0.59820 -0.05201 -0.07793
 C178 C 0.14025 0.07225 0.12958
 C179 C 0.18599 0.05297 0.11313
 C180 C 0.16865 -0.03202 0.11229
 C181 C 0.10603 -0.09606 0.12810
 C182 C 0.06100 -0.07604 0.14452
 C183 C 0.07823 0.00828 0.14553
 C184 C 0.21356 -0.05154 0.09550
 C185 C 0.27585 0.01303 0.07965
 C186 C 0.29354 0.09811 0.08077
 C187 C 0.24836 0.11745 0.09741
 C188 C 0.35622 0.16268 0.06519
 C189 C 0.40113 0.14342 0.04860
 C190 C 0.38393 0.05913 0.04710
 C191 C 0.32089 -0.00595 0.06271
 H192 H 0.15255 0.13701 0.12964
 H193 H 0.09132 -0.16169 0.12760
 H194 H 0.01163 -0.12701 0.15596
 H195 H 0.19997 -0.11682 0.09474
 H196 H 0.26175 0.18270 0.09812
 H197 H 0.37060 0.22818 0.06584
 H198 H 0.44915 0.19475 0.03677
 H199 H 0.30727 -0.07116 0.06183
 C200 C 0.85090 0.92030 0.45533
 C201 C 0.78408 0.87339 0.44122
 C202 C 0.70805 0.81618 0.45343
 C203 C 0.69987 0.80889 0.47959
 C204 C 0.76714 0.85505 0.49349
 C205 C 0.84332 0.90987 0.48150
 C206 C 0.64247 0.76501 0.43936
 C207 C 0.65260 0.76903 0.41327
 C208 C 0.72836 0.82776 0.40109
 C209 C 0.79319 0.88023 0.41511
 C210 C 0.73904 0.83082 0.37510
 C211 C 0.67638 0.77394 0.36138
 C212 C 0.60185 0.71440 0.37337
 C213 C 0.58938 0.71295 0.39922
 H214 H 0.90936 0.96194 0.44581
 H215 H 0.64215 0.76536 0.48930
 H216 H 0.76033 0.84506 0.51365
 H217 H 0.58452 0.72007 0.44874
 H218 H 0.85155 0.92414 0.40575
 H219 H 0.79664 0.87534 0.36548
 H220 H 0.68663 0.77491 0.34144
 H221 H 0.53191 0.66596 0.40844
 C222 C 0.03335 0.03667 0.79430
 C223 C 0.05133 0.11169 0.78007
 C224 C 0.06320 0.18378 0.79204
 C225 C 0.05895 0.17984 0.81822
 C226 C 0.04005 0.10422 0.83231
 C227 C 0.02622 0.03180 0.82046
 C228 C 0.07641 0.25731 0.77764
 C229 C 0.07651 0.25876 0.75147
 C230 C 0.06609 0.18674 0.73963
 C231 C 0.05434 0.11417 0.75398
 C232 C 0.06543 0.18746 0.71357
 C233 C 0.07292 0.25802 0.69931
 C234 C 0.08185 0.32896 0.71086
 C235 C 0.08467 0.32997 0.73689
 H236 H 0.02144 -0.01849 0.78465
 H237 H 0.06785 0.23437 0.82778
 H238 H 0.03384 0.10170 0.85246
 H239 H 0.08441 0.31233 0.78679
 H240 H 0.04526 0.05871 0.74484
 H241 H 0.05758 0.13284 0.70425
 H242 H 0.07062 0.25692 0.67921
 H243 H 0.09127 0.38501 0.74571
 C244 C 0.90039 -0.00517 0.12982
 C245 C 0.84853 0.00718 0.11407
 C246 C 0.85023 0.08614 0.11227
 C247 C 0.90212 0.15035 0.12697
 C248 C 0.95170 0.13634 0.14328
 C249 C 0.95188 0.05898 0.14452
 C250 C 0.79950 0.09910 0.09603
 C251 C 0.74569 0.03324 0.08211
 C252 C 0.74218 -0.04664 0.08473
 C253 C 0.79427 -0.05878 0.10042
 C254 C 0.68666 -0.11329 0.07155
 C255 C 0.63581 -0.10084 0.05558
 C256 C 0.64034 -0.02116 0.05215
 C257 C 0.69532 0.04577 0.06557
 H258 H 0.89942 -0.06558 0.13108
 H259 H 0.90343 0.21086 0.12614
 H260 H 0.98882 0.18572 0.15502
 H261 H 0.80152 0.16002 0.09436
 H262 H 0.79219 -0.11975 0.10213
 H263 H 0.68292 -0.17497 0.07346
 H264 H 0.59444 -0.15312 0.04529
 H265 H 0.69888 0.10732 0.06313
 C266 C 0.03336 0.10938 0.46912
 C267 C 0.09904 0.16485 0.45275
 C268 C 0.15571 0.14080 0.44474
 C269 C 0.14619 0.06187 0.45380
 C270 C 0.08091 0.00735 0.47050
 C271 C 0.02417 0.03086 0.47809
 C272 C 0.22019 0.19567 0.42768
 C273 C 0.22847 0.27416 0.41864
 C274 C 0.17250 0.29844 0.42726
 C275 C 0.10835 0.24378 0.44423
 C276 C 0.18047 0.37650 0.41842
 C277 C 0.24157 0.42907 0.40051
 C278 C 0.29631 0.40499 0.39112
 C279 C 0.29048 0.32799 0.40069
 H280 H -0.01069 0.12744 0.47495
 H281 H 0.18902 0.04228 0.44794
 H282 H 0.07434 -0.05332 0.47723
 H283 H 0.26314 0.17692 0.42123
 H284 H 0.06506 0.26226 0.45057
 H285 H 0.13838 0.39618 0.42497
 H286 H 0.24489 0.48815 0.39362
 H287 H 0.33215 0.30858 0.39355
 C288 C 0.04334 0.85500 0.80560
 C289 C 0.03735 0.79874 0.78807
 C290 C -0.03972 0.73556 0.78161
 C291 C -0.10958 0.72911 0.79338
 C292 C -0.10288 0.78611 0.81087
 C293 C -0.02636 0.85012 0.81667
 C294 C -0.04532 0.68101 0.76334
 C295 C 0.02528 0.68951 0.75145
 C296 C 0.10209 0.75224 0.75833
 C297 C 0.10758 0.80613 0.77660
 C298 C 0.17255 0.76096 0.74662
 C299 C 0.16743 0.70887 0.72798
 C300 C 0.09174 0.64690 0.72060
 C301 C 0.02063 0.63711 0.73259
 H302 H 0.10259 0.90438 0.81017
 H303 H -0.16924 0.68080 0.78882
 H304 H -0.15727 0.78084 0.81950
 H305 H -0.10433 0.63289 0.75818
 H306 H 0.16660 0.85465 0.78167
 H307 H 0.23176 0.80862 0.75175
 H308 H 0.22316 0.71781 0.71916
 H309 H -0.03812 0.58944 0.72714
   
