data_POSCAR
  _audit_creation_date              2014-09-24
  _audit_creation_method            'ToBaCCo'
  _symmetry_space_group_name_H-M    'P1'
  _symmetry_Int_Tables_number       1
  _symmetry_cell_setting            triclinic
  loop_
  _symmetry_equiv_pos_as_xyz
 x,y,z
_cell_length_a 29.2348
_cell_length_b 29.2269
_cell_length_c 59.1033
_cell_angle_alpha 86.824000
_cell_angle_beta 90.784700
_cell_angle_gamma 120.029400
loop_
  _atom_site_label
  _atom_site_type_symbol
  _atom_site_fract_x
  _atom_site_fract_y
  _atom_site_fract_z
C1 C 0.01572 0.08334 0.52998
 H2 H 0.05210 0.08217 0.52938
 C3 C 0.01249 0.12004 0.54295
 H4 H 0.04637 0.14645 0.55263
 C5 C -0.07233 0.05041 0.51779
 H6 H -0.10478 0.02403 0.50752
 C7 C -0.07731 0.08661 0.53058
 H8 H -0.11380 0.08768 0.53006
 N9 N -0.02622 0.04957 0.51772
 C10 C 0.00728 -0.07642 0.50553
 H11 H 0.00880 -0.07397 0.48720
 C12 C 0.01157 -0.11652 0.51758
 H13 H 0.01744 -0.14424 0.50837
 C14 C -0.00370 -0.04395 0.53969
 H15 H -0.01138 -0.01668 0.54822
 C16 C 0.00038 -0.08344 0.55241
 H17 H -0.00407 -0.08593 0.57067
 Zn18 Zn -0.01427 0.00618 0.49898
 N19 N -0.00048 -0.04135 0.51668
 C20 C 0.08996 0.05132 0.48007
 N21 N 0.04401 0.05247 0.47998
 C22 C 0.03898 0.08990 0.46731
 C23 C 0.08105 0.12806 0.45387
 C24 C 0.13323 0.08897 0.46689
 C25 C -0.11879 -0.07256 0.49268
 C26 C -0.16209 -0.10932 0.48079
 C27 C -0.11290 -0.06905 0.44591
 C28 C -0.07062 -0.03319 0.45855
 N29 N -0.07408 -0.03583 0.48150
 H30 H 0.09349 0.02192 0.49064
 H31 H 0.00231 0.09049 0.46794
 H32 H 0.07647 0.15814 0.44428
 H33 H 0.16953 0.08755 0.46711
 H34 H -0.12042 -0.07394 0.51100
 H35 H -0.19699 -0.13620 0.49071
 H36 H -0.10598 -0.06665 0.42788
 H37 H -0.03413 -0.00478 0.44997
 C38 C 0.00734 -0.12089 0.54134
 C39 C -0.03426 0.12247 0.54317
 C40 C -0.15994 -0.10945 0.45682
 C41 C 0.12909 0.12813 0.45362
 C42 C 1.11197 0.05414 0.13597
 H43 H 1.11199 0.09120 0.13568
 C44 C 1.15007 0.05043 0.12358
 H45 H 1.17884 0.08468 0.11345
 C46 C 1.07427 -0.03535 0.14970
 H47 H 1.04529 -0.06827 0.16030
 C48 C 1.11176 -0.04085 0.13751
 H49 H 1.11126 -0.07819 0.13883
 N50 N 1.07509 0.01167 0.14868
 C51 C 0.94729 0.04520 0.15733
 H52 H 0.94575 0.04517 0.17561
 C53 C 0.90916 0.04939 0.14434
 H54 H 0.87832 0.05253 0.15281
 C55 C 0.98724 0.03713 0.12431
 H56 H 1.01676 0.03082 0.11660
 C57 C 0.94992 0.04123 0.11068
 H58 H 0.95201 0.03930 0.09251
 Zn59 Zn 1.02892 0.02366 0.16619
 N60 N 0.98500 0.03872 0.14721
 C61 C 1.07068 0.12682 0.18308
 N62 N 1.07216 0.08097 0.18413
 C63 C 1.10749 0.07507 0.19733
 C64 C 1.14283 0.11596 0.21044
 C65 C 1.10558 0.16897 0.19590
 C66 C 0.94737 -0.08075 0.17454
 C67 C 0.90822 -0.12409 0.18731
 C68 C 0.94449 -0.07648 0.22116
 C69 C 0.98286 -0.03405 0.20774
 N70 N 0.98338 -0.03674 0.18486
 H71 H 1.04295 0.13102 0.17213
 H72 H 1.10842 0.03851 0.19747
 H73 H 1.17116 0.11065 0.22055
 H74 H 1.10382 0.20516 0.19499
 H75 H 0.94797 -0.08137 0.15626
 H76 H 0.87876 -0.15795 0.17868
 H77 H 0.94444 -0.07335 0.23932
 H78 H 1.01098 0.00164 0.21562
 C79 C 0.90961 0.04648 0.12070
 C80 C 1.15062 0.00261 0.12438
 C81 C 0.90588 -0.12191 0.21093
 C82 C 1.14227 0.16375 0.20982
 C83 C 0.04725 0.94387 0.86583
 H84 H 0.01093 0.90618 0.86574
 C85 C 0.08927 0.94892 0.87901
 H86 H 0.08504 0.91472 0.88893
 C87 C 0.09730 1.03343 0.85207
 H88 H 0.10044 1.06596 0.84126
 C89 C 0.14052 1.04021 0.86497
 H90 H 0.17641 1.07839 0.86427
 N91 N 0.05180 0.98581 0.85282
 C92 C -0.11079 0.94830 0.84239
 H93 H -0.11239 0.94850 0.82409
 C94 C -0.15349 0.94300 0.85494
 H95 H -0.18681 0.94007 0.84560
 C96 C -0.06223 0.95740 0.87580
 H97 H -0.02619 0.96414 0.88389
 C98 C -0.10388 0.95226 0.88904
 H99 H -0.09921 0.95260 0.90721
 Zn100 Zn -0.00671 0.97253 0.83458
 N101 N -0.06614 0.95590 0.85291
 C102 C -0.06583 0.86937 0.81727
 N103 N -0.01914 0.91587 0.81674
 C104 C 0.02287 0.92286 0.80432
 C105 C 0.01904 0.88220 0.79173
 C106 C -0.07143 0.82749 0.80486
 C107 C 0.01391 1.07621 0.82620
 C108 C 0.01784 1.11964 0.81336
 C109 C 0.00804 1.07321 0.77945
 C110 C 0.00427 1.03067 0.79294
 N111 N 0.00692 1.03277 0.81588
 H112 H -0.09838 0.86430 0.82764
 H113 H 0.05967 0.96009 0.80442
 H114 H 0.05295 0.88879 0.78186
 H115 H -0.10846 0.79035 0.80579
 H116 H 0.01473 1.07635 0.84450
 H117 H 0.02162 1.15309 0.82197
 H118 H 0.00542 1.07062 0.76123
 H119 H -0.00246 0.99540 0.78506
 C120 C -0.15040 0.94618 0.87875
 C121 C 0.13677 0.99754 0.87865
 C122 C 0.01409 1.11816 0.78966
 C123 C -0.02840 0.83352 0.79205
 C124 C 0.51331 -0.00199 0.01139
 C125 C 0.50951 -0.00685 -0.01147
 C126 C 0.46747 -0.00325 -0.02452
 C127 C 0.54727 -0.01586 -0.02444
 C128 C 0.56119 0.00599 0.02377
 C129 C 0.46987 -0.00411 0.02504
 C130 C 0.43584 -0.04273 -0.03931
 C131 C 0.39608 -0.03966 -0.05151
 C132 C 0.38781 0.00310 -0.04921
 C133 C 0.41976 0.04304 -0.03478
 C134 C 0.45956 0.04005 -0.02258
 C135 C 0.55708 -0.05699 -0.01762
 C136 C 0.59284 -0.06502 -0.02983
 C137 C 0.61875 -0.03242 -0.04909
 C138 C 0.60847 0.00801 -0.05621
 C139 C 0.57275 0.01613 -0.04401
 C140 C 0.61175 0.04652 0.01656
 C141 C 0.65654 0.05403 0.02837
 C142 C 0.65126 0.02150 0.04761
 C143 C 0.60098 -0.01846 0.05506
 C144 C 0.55616 -0.02605 0.04326
 C145 C 0.48077 0.03576 0.03998
 C146 C 0.44009 0.03409 0.05279
 C147 C 0.38817 -0.00764 0.05096
 C148 C 0.37711 -0.04794 0.03637
 C149 C 0.41777 -0.04635 0.02356
 H150 H 0.44151 -0.07624 -0.04115
 H151 H 0.37162 -0.07075 -0.06266
 H152 H 0.41385 0.07641 -0.03294
 H153 H 0.48422 0.07148 -0.01163
 H154 H 0.53704 -0.08281 -0.00286
 H155 H 0.60038 -0.09653 -0.02421
 H156 H 0.56551 0.04781 -0.04964
 H157 H 0.61646 0.07240 0.00186
 H158 H 0.69524 0.08520 0.02251
 H159 H 0.59644 -0.04381 0.06995
 H160 H 0.51755 -0.05725 0.04918
 H161 H 0.52067 0.06848 0.04148
 H162 H 0.44908 0.06544 0.06406
 H163 H 0.33711 -0.08052 0.03489
 H164 H 0.40866 -0.07805 0.01249
 H165 H 0.62829 0.03345 -0.07110
 C166 C -0.02450 0.48049 0.67858
 C167 C -0.02550 0.48333 0.65549
 C168 C -0.03039 0.43961 0.64204
 C169 C -0.02045 0.53082 0.64257
 C170 C -0.02871 0.51957 0.69219
 C171 C -0.01807 0.43877 0.69129
 C172 C 0.00578 0.45052 0.62432
 C173 C 0.00191 0.40963 0.61177
 C174 C -0.03837 0.35744 0.61667
 C175 C -0.07513 0.34633 0.63406
 C176 C -0.07134 0.38723 0.64661
 C177 C 0.02190 0.58161 0.64641
 C178 C 0.02695 0.62596 0.63390
 C179 C -0.00995 0.61998 0.61729
 C180 C -0.05190 0.56946 0.61322
 C181 C -0.05702 0.52509 0.62573
 C182 C -0.07020 0.53032 0.68879
 C183 C -0.07351 0.56745 0.70158
 C184 C -0.03572 0.59378 0.71802
 C185 C 0.00517 0.58259 0.72174
 C186 C 0.00856 0.54556 0.70897
 C187 C -0.05344 0.40789 0.70901
 C188 C -0.04734 0.36888 0.72113
 C189 C -0.00560 0.36063 0.71578
 C190 C 0.03022 0.39174 0.69834
 C191 C 0.02421 0.43079 0.68622
 H192 H 0.03747 0.49061 0.62044
 H193 H 0.03055 0.41866 0.59835
 H194 H -0.10656 0.30610 0.63794
 H195 H -0.10025 0.37808 0.65992
 H196 H 0.05120 0.58681 0.65897
 H197 H 0.05972 0.66483 0.63710
 H198 H -0.08968 0.48627 0.62239
 H199 H -0.09993 0.50998 0.67625
 H200 H -0.10540 0.57569 0.69861
 H201 H 0.03460 0.60273 0.73443
 H202 H 0.04068 0.53768 0.71194
 H203 H -0.08602 0.41370 0.71330
 H204 H -0.07523 0.34509 0.73464
 H205 H 0.06280 0.38586 0.69413
 H206 H 0.05259 0.45494 0.67294
 H207 H -0.08058 0.56438 0.60035
 C208 C 0.50303 0.51871 0.34441
 C209 C 0.50640 0.52052 0.32136
 C210 C 0.55437 0.56153 0.30867
 C211 C 0.46234 0.48123 0.30781
 C212 C 0.46091 0.47153 0.35736
 C213 C 0.54117 0.56374 0.35769
 C214 C 0.54958 0.59086 0.29009
 C215 C 0.59449 0.62910 0.27798
 C216 C 0.64461 0.63814 0.28421
 C217 C 0.64964 0.60860 0.30253
 C218 C 0.60476 0.57031 0.31464
 C219 C 0.41060 0.47175 0.31078
 C220 C 0.36923 0.43424 0.29823
 C221 C 0.37921 0.40623 0.28243
 C222 C 0.43081 0.41621 0.27907
 C223 C 0.47221 0.45368 0.29163
 C224 C 0.45250 0.42065 0.35397
 C225 C 0.41254 0.37640 0.36602
 C226 C 0.38092 0.38257 0.38174
 C227 C 0.38969 0.43322 0.38549
 C228 C 0.42962 0.47751 0.37344
 C229 C 0.56633 0.55473 0.37640
 C230 C 0.60198 0.59686 0.38902
 C231 C 0.61255 0.64836 0.38317
 C232 C 0.58712 0.65756 0.36472
 C233 C 0.55142 0.61547 0.35211
 H234 H 0.51110 0.58446 0.28511
 H235 H 0.59016 0.65171 0.26381
 H236 H 0.68821 0.61512 0.30744
 H237 H 0.60927 0.54736 0.32861
 H238 H 0.40230 0.49331 0.32285
 H239 H 0.32949 0.42694 0.30091
 H240 H 0.51183 0.46061 0.28899
 H241 H 0.47688 0.41526 0.34199
 H242 H 0.40624 0.33742 0.36305
 H243 H 0.36549 0.43843 0.39765
 H244 H 0.43567 0.51639 0.37640
 H245 H 0.55876 0.51516 0.38108
 H246 H 0.62139 0.58930 0.40328
 H247 H 0.59483 0.69722 0.36011
 H248 H 0.53163 0.62316 0.33804
 H249 H 0.43895 0.39476 0.26687
 C250 C -0.04106 0.24112 0.58052
 C251 C 0.00440 0.25363 0.56803
 C252 C 0.00637 0.21512 0.55581
 C253 C -0.03716 0.16336 0.55591
 C254 C -0.08298 0.15121 0.56833
 C255 C -0.08484 0.18990 0.58060
 C256 C -0.04203 0.28102 0.59338
 C257 C -0.04115 0.31542 0.60405
 H258 H 0.03843 0.29320 0.56778
 H259 H 0.04186 0.22599 0.54610
 H260 H -0.11694 0.11163 0.56887
 H261 H -0.12021 0.17978 0.59025
 C262 C 0.77482 0.75322 0.24940
 C263 C 0.79875 0.74093 0.23223
 C264 C 0.84192 0.78139 0.21990
 C265 C 0.86169 0.83469 0.22462
 C266 C 0.83761 0.84649 0.24208
 C267 C 0.79452 0.80603 0.25436
 C268 C 0.72931 0.71198 0.26163
 C269 C 0.69082 0.67806 0.27191
 H270 H 0.78382 0.70014 0.22826
 H271 H 0.85989 0.77101 0.20671
 H272 H 0.85122 0.88710 0.24588
 H273 H 0.77614 0.81601 0.26754
 C274 C 0.26776 0.00712 -0.08365
 C275 C 0.27625 0.03231 -0.10528
 C276 C 0.23386 0.03028 -0.11738
 C277 C 0.18240 0.00281 -0.10800
 C278 C 0.17451 -0.02150 -0.08606
 C279 C 0.21691 -0.01936 -0.07400
 C280 C 0.31072 0.00683 -0.07160
 C281 C 0.34614 0.00556 -0.06144
 H282 H 0.31544 0.05277 -0.11294
 H283 H 0.24109 0.04884 -0.13432
 H284 H 0.13549 -0.04232 -0.07827
 H285 H 0.20992 -0.03889 -0.05725
 C286 C 0.00298 0.74789 0.57999
 C287 C 0.03041 0.79873 0.58814
 C288 C 0.03258 0.84165 0.57545
 C289 C 0.00733 0.83421 0.55442
 C290 C -0.01965 0.78299 0.54630
 C291 C -0.02178 0.74018 0.55901
 C292 C -0.00078 0.70333 0.59329
 C293 C -0.00468 0.66553 0.60430
 H294 H 0.04979 0.80514 0.60436
 H295 H 0.05409 0.88065 0.58206
 H296 H -0.04024 0.77574 0.53037
 H297 H -0.04330 0.70096 0.55258
 C298 C 0.25896 0.29089 0.24762
 C299 C 0.24584 0.30148 0.22585
 C300 C 0.20693 0.26036 0.21371
 C301 C 0.18085 0.20809 0.22320
 C302 C 0.19361 0.19812 0.24528
 C303 C 0.23240 0.23925 0.25738
 C304 C 0.30089 0.33243 0.25971
 C305 C 0.33645 0.36645 0.26999
 H306 H 0.26630 0.34131 0.21811
 H307 H 0.19840 0.26917 0.19666
 H308 H 0.17371 0.15844 0.25315
 H309 H 0.24217 0.23063 0.27424
 C310 C 0.72867 -0.04982 -0.08358
 C311 C 0.71686 -0.07474 -0.10407
 C312 C 0.75620 -0.07709 -0.11629
 C313 C 0.80858 -0.05432 -0.10829
 C314 C 0.81919 -0.03028 -0.08723
 C315 C 0.77972 -0.02805 -0.07513
 C316 C 0.68902 -0.04495 -0.07152
 C317 C 0.65662 -0.03973 -0.06133
 H318 H 0.67722 -0.09218 -0.11069
 H319 H 0.74462 -0.09805 -0.13173
 H320 H 0.85852 -0.01034 -0.08040
 H321 H 0.78941 -0.00825 -0.05934
 C322 C 0.27129 -0.00667 0.08758
 C323 C 0.21936 -0.04926 0.08818
 C324 C 0.18005 -0.04663 0.10033
 C325 C 0.19226 -0.00122 0.11195
 C326 C 0.24472 0.04109 0.11140
 C327 C 0.28388 0.03835 0.09930
 C328 C 0.31174 -0.00842 0.07469
 C329 C 0.34631 -0.00861 0.06388
 H330 H 0.20918 -0.08427 0.07912
 H331 H 0.13996 -0.07961 0.10027
 H332 H 0.25558 0.07621 0.12048
 H333 H 0.32398 0.07146 0.09901
 C334 C 0.71979 0.77037 0.41967
 C335 C 0.75597 0.81849 0.40874
 C336 C 0.79516 0.85889 0.42104
 C337 C 0.79960 0.85225 0.44484
 C338 C 0.76108 0.80327 0.45554
 C339 C 0.72207 0.76310 0.44308
 C340 C 0.68139 0.72779 0.40679
 C341 C 0.64978 0.69173 0.39602
 H342 H 0.75408 0.82483 0.39059
 H343 H 0.82043 0.89571 0.41158
 H344 H 0.76212 0.79342 0.47333
 H345 H 0.69436 0.72571 0.45172
 C346 C 0.00855 0.24405 0.75080
 C347 C 0.04424 0.25579 0.76856
 C348 C 0.04675 0.21499 0.78101
 C349 C 0.01353 0.16189 0.77583
 C350 C -0.02177 0.15064 0.75777
 C351 C -0.02420 0.19145 0.74537
 C352 C 0.00448 0.28567 0.73846
 C353 C 0.00022 0.32005 0.72812
 H354 H 0.06984 0.29640 0.77288
 H355 H 0.07468 0.22496 0.79466
 H356 H -0.04849 0.11018 0.75360
 H357 H -0.05214 0.18190 0.73172
 C358 C 0.78085 0.03919 0.08189
 C359 C 0.80223 0.00745 0.07685
 C360 C 0.84472 0.01059 0.08919
 C361 C 0.86647 0.04558 0.10680
 C362 C 0.84514 0.07787 0.11154
 C363 C 0.80260 0.07467 0.09916
 C364 C 0.73564 0.03405 0.06976
 C365 C 0.69734 0.02874 0.05964
 H366 H 0.78554 -0.02033 0.06360
 H367 H 0.85957 -0.01547 0.08536
 H368 H 0.86133 0.10555 0.12483
 H369 H 0.78636 0.09946 0.10318
 C370 C 0.26051 0.25422 0.41587
 C371 C 0.21012 0.22954 0.40648
 C372 C 0.16760 0.18774 0.41854
 C373 C 0.17492 0.17007 0.44019
 C374 C 0.22597 0.19442 0.44930
 C375 C 0.26846 0.23630 0.43721
 C376 C 0.30355 0.29900 0.40389
 C377 C 0.33906 0.33695 0.39383
 H378 H 0.20354 0.24301 0.38996
 H379 H 0.12893 0.16935 0.41096
 H380 H 0.23275 0.18217 0.46603
 H381 H 0.30730 0.25525 0.44466
 C382 C -0.03725 0.70716 0.75481
 C383 C 0.00795 0.73902 0.76707
 C384 C 0.01051 0.77969 0.77933
 C385 C -0.03215 0.78919 0.77949
 C386 C -0.07778 0.75651 0.76735
 C387 C -0.08024 0.71578 0.75504
 C388 C -0.03866 0.66635 0.74176
 C389 C -0.03812 0.63290 0.73090
 H390 H 0.04137 0.73257 0.76707
 H391 H 0.04582 0.80354 0.78881
 H392 H -0.11107 0.76314 0.76701
 H393 H -0.11540 0.69138 0.74556
   
