data_POSCAR
  _audit_creation_date              2014-09-24
  _audit_creation_method            'ToBaCCo'
  _symmetry_space_group_name_H-M    'P1'
  _symmetry_Int_Tables_number       1
  _symmetry_cell_setting            triclinic
  loop_
  _symmetry_equiv_pos_as_xyz
 x,y,z
_cell_length_a 51.2625
_cell_length_b 50.9086
_cell_length_c 51.3595
_cell_angle_alpha 87.765200
_cell_angle_beta 88.244800
_cell_angle_gamma 87.369600
loop_
  _atom_site_label
  _atom_site_type_symbol
  _atom_site_fract_x
  _atom_site_fract_y
  _atom_site_fract_z
C1 C 0.79014 0.65355 1.00195
 C2 C 0.79630 0.63129 0.98312
 C3 C 0.77570 0.61628 0.97886
 C4 C 0.75078 0.62442 0.99443
 C5 C 0.76641 0.66891 0.99045
 C6 C 0.74579 0.65365 0.98642
 C7 C 0.77957 0.63977 1.02673
 C8 C 0.75895 0.62458 1.02307
 H9 H 0.81447 0.62939 0.97188
 H10 H 0.73417 0.61178 0.99125
 H11 H 0.76642 0.68969 0.98507
 H12 H 0.78758 0.64235 1.04569
 C13 C 0.79409 0.35826 0.47544
 C14 C 0.79953 0.37909 0.49500
 C15 C 0.77826 0.39478 0.50152
 C16 C 0.75326 0.38831 0.48754
 C17 C 0.77140 0.34325 0.48775
 C18 C 0.74991 0.35878 0.49398
 C19 C 0.78248 0.37384 0.45228
 C20 C 0.76115 0.38956 0.45830
 H21 H 0.81839 0.38078 0.50357
 H22 H 0.73595 0.40117 0.49271
 H23 H 0.77221 0.32205 0.49070
 H24 H 0.79062 0.37235 0.43265
 C25 C 0.29342 -0.14855 -0.01961
 C26 C 0.29967 -0.13178 0.00145
 C27 C 0.27827 -0.11474 0.00995
 C28 C 0.25442 -0.11776 -0.00457
 C29 C 0.27082 -0.16270 -0.00992
 C30 C 0.24915 -0.14584 -0.00164
 C31 C 0.28380 -0.13046 -0.04007
 C32 C 0.26216 -0.11358 -0.03212
 H33 H 0.31849 -0.13246 0.01055
 H34 H 0.23786 -0.10445 0.00183
 H35 H 0.27043 -0.18399 -0.00894
 H36 H 0.29194 -0.13016 -0.05983
 C37 C 0.28937 0.14519 0.50865
 C38 C 0.29463 0.12238 0.49029
 C39 C 0.27356 0.10776 0.48681
 C40 C 0.24912 0.11678 0.50269
 C41 C 0.26571 0.16079 0.49729
 C42 C 0.24464 0.14590 0.49406
 C43 C 0.27901 0.13223 0.53394
 C44 C 0.25796 0.11739 0.53110
 H45 H 0.31246 0.11997 0.47858
 H46 H 0.23214 0.10444 0.50017
 H47 H 0.26614 0.18139 0.49128
 H48 H 0.28758 0.13500 0.55261
 C49 C 0.14468 0.50689 0.29399
 C50 C 0.12811 0.48303 0.29984
 C51 C 0.11289 0.47691 0.27987
 C52 C 0.11503 0.49600 0.25591
 C53 C 0.15991 0.50039 0.26869
 C54 C 0.14443 0.49454 0.24875
 C55 C 0.12515 0.52913 0.28632
 C56 C 0.10988 0.52390 0.26614
 H57 H 0.13062 0.47017 0.31697
 H58 H 0.10225 0.49128 0.23981
 H59 H 0.18106 0.49905 0.26728
 H60 H 0.12516 0.54829 0.29480
 C61 C -0.15286 -0.02894 0.29672
 C62 C -0.13354 -0.00828 0.30341
 C63 C -0.11706 -0.00129 0.28328
 C64 C -0.12134 -0.01594 0.25814
 C65 C -0.16692 -0.01699 0.27287
 C66 C -0.15052 -0.01025 0.25251
 C67 C -0.13675 -0.05078 0.28712
 C68 C -0.11941 -0.04390 0.26587
 H69 H -0.13346 0.00071 0.32217
 H70 H -0.10789 -0.01014 0.24176
 H71 H -0.18799 -0.01461 0.27211
 H72 H -0.13798 -0.07068 0.29524
 C73 C 0.35534 0.47125 0.79401
 C74 C 0.37534 0.49147 0.79983
 C75 C 0.39109 0.49820 0.77906
 C76 C 0.38560 0.48376 0.75415
 C77 C 0.34061 0.48317 0.77065
 C78 C 0.35628 0.48967 0.74970
 C79 C 0.37165 0.44800 0.78334
 C80 C 0.38748 0.45431 0.76247
 H81 H 0.37634 0.50044 0.81853
 H82 H 0.39855 0.48916 0.73725
 H83 H 0.31953 0.48593 0.77073
 H84 H 0.37048 0.42818 0.79161
 C85 C 0.65419 1.00290 0.78574
 C86 C 0.63647 0.97977 0.79127
 C87 C 0.62113 0.97462 0.77104
 C88 C 0.62458 0.99367 0.74719
 C89 C 0.66960 0.99556 0.76072
 C90 C 0.65409 0.99045 0.74049
 C91 C 0.63678 1.02486 0.77826
 C92 C 0.62083 1.02027 0.75678
 H93 H 0.63823 0.96661 0.80827
 H94 H 0.61183 0.98945 0.73090
 H95 H 0.69068 0.99275 0.75982
 H96 H 0.63719 1.04382 0.78712
 C97 C -0.02672 0.30000 -0.14128
 C98 C -0.00595 0.30612 -0.12188
 C99 C 0.00186 0.28510 -0.10634
 C100 C -0.01195 0.25970 -0.11160
 C101 C -0.01483 0.27678 -0.15632
 C102 C -0.00720 0.25563 -0.14091
 C103 C -0.04882 0.28857 -0.12434
 C104 C -0.04125 0.26744 -0.10888
 H105 H 0.00205 0.32534 -0.12068
 H106 H -0.00563 0.24262 -0.09885
 H107 H -0.01309 0.27703 -0.17740
 H108 H -0.06885 0.29629 -0.12503
 C109 C 0.50455 0.29176 0.14207
 C110 C 0.48687 0.29736 0.11878
 C111 C 0.48282 0.27585 0.10475
 C112 C 0.49762 0.25070 0.11478
 C113 C 0.49187 0.26917 0.15769
 C114 C 0.48826 0.24762 0.14345
 C115 C 0.52973 0.27954 0.13033
 C116 C 0.52638 0.25807 0.11606
 H117 H 0.47578 0.31579 0.11573
 H118 H 0.49466 0.23334 0.10295
 H119 H 0.48578 0.27046 0.17800
 H120 H 0.54870 0.28730 0.13336
 C121 C 1.00758 0.79679 0.64949
 C122 C 0.99068 0.80299 0.62747
 C123 C 0.98633 0.78082 0.61205
 C124 C 1.00094 0.75689 0.62087
 C125 C 0.99573 0.77474 0.66379
 C126 C 0.99210 0.75256 0.64802
 C127 C 1.03170 0.78593 0.63787
 C128 C 1.02830 0.76391 0.62204
 H129 H 0.97908 0.82124 0.62532
 H130 H 0.99827 0.74000 0.60830
 H131 H 0.98946 0.77533 0.68412
 H132 H 1.05064 0.79380 0.64090
 C133 C 0.47914 0.79617 0.35998
 C134 C 0.50136 0.80011 0.37854
 C135 C 0.50862 0.77792 0.39270
 C136 C 0.49280 0.75385 0.38725
 C137 C 0.48876 0.77305 0.34348
 C138 C 0.49578 0.75085 0.35764
 C139 C 0.45718 0.78543 0.37755
 C140 C 0.46414 0.76329 0.39178
 H141 H 0.51091 0.81852 0.37991
 H142 H 0.49866 0.73591 0.39904
 H143 H 0.48967 0.77424 0.32236
 H144 H 0.43763 0.79447 0.37823
 C145 C 0.39403 -0.00412 0.25253
 H146 H 0.40268 0.01466 0.24868
 C147 C 0.40927 -0.02552 0.26248
 H148 H 0.42973 -0.02314 0.26599
 C149 C 0.35665 -0.02995 0.25353
 H150 H 0.33601 -0.03134 0.25029
 C151 C 0.37115 -0.05183 0.26298
 H152 H 0.36142 -0.07004 0.26704
 N153 N 0.36822 -0.00680 0.24834
 C154 C 0.35884 0.07436 0.23561
 H155 H 0.34332 0.07657 0.25019
 C156 C 0.37293 0.09619 0.22747
 H157 H 0.36816 0.11497 0.23606
 C158 C 0.38343 0.04749 0.20631
 H159 H 0.38762 0.02843 0.19826
 C160 C 0.39782 0.06884 0.19743
 H161 H 0.41293 0.06591 0.18249
 Zn162 Zn 0.34528 0.02092 0.23651
 N163 N 0.36443 0.05052 0.22517
 C164 C 0.34094 0.03431 0.28608
 N165 N 0.32467 0.02909 0.26674
 C166 C 0.29840 0.02802 0.27137
 C167 C 0.28777 0.03237 0.29654
 C168 C 0.33136 0.03822 0.31121
 C169 C 0.34510 -0.00684 0.19279
 C170 C 0.33737 -0.01767 0.17012
 C171 C 0.29430 0.00250 0.17693
 C172 C 0.30307 0.01330 0.19980
 N173 N 0.32815 0.00823 0.20733
 H174 H 0.36172 0.03492 0.28199
 H175 H 0.28577 0.02322 0.25598
 H176 H 0.26694 0.03127 0.30023
 H177 H 0.34499 0.04214 0.32614
 H178 H 0.36497 -0.01055 0.19879
 H179 H 0.35159 -0.02965 0.15932
 H180 H 0.27439 0.00663 0.17105
 H181 H 0.28999 0.02593 0.21110
 C182 C 0.39272 0.09359 0.20810
 C183 C 0.39777 -0.04976 0.26775
 C184 C 0.31173 -0.01314 0.16172
 C185 C 0.30455 0.03704 0.31688
 C186 C 0.07708 1.04482 0.78853
 H187 H 0.07241 1.02559 0.79647
 C188 C 0.06314 1.06707 0.79747
 H189 H 0.04825 1.06478 0.81271
 C190 C 0.10131 1.07109 0.75839
 H191 H 0.11610 1.07276 0.74312
 C192 C 0.08759 1.09379 0.76644
 H193 H 0.09231 1.11261 0.75738
 N194 N 0.09653 1.04727 0.77007
 C195 C 0.10214 0.96481 0.76349
 H196 H 0.11845 0.96148 0.77623
 C197 C 0.08814 0.94351 0.75633
 H198 H 0.09384 0.92400 0.76385
 C199 C 0.07577 0.99414 0.73744
 H200 H 0.07139 1.01394 0.72990
 C201 C 0.06129 0.97335 0.72965
 H202 H 0.04571 0.97739 0.71612
 Zn203 Zn 0.11773 1.01706 0.76116
 N204 N 0.09607 0.98944 0.75365
 C205 C 0.12703 1.00233 0.81383
 N206 N 0.13880 1.00590 0.78991
 C207 C 0.16482 1.00023 0.78622
 C208 C 0.17994 0.99059 0.80699
 C209 C 0.14140 0.99291 0.83513
 C210 C 0.13469 1.01460 0.70793
 C211 C 0.14878 1.02231 0.68539
 C212 C 0.17290 1.05095 0.71120
 C213 C 0.15821 1.04286 0.73318
 N214 N 0.13921 1.02531 0.73117
 H215 H 0.10632 1.00615 0.81643
 H216 H 0.17381 1.00244 0.76701
 H217 H 0.20052 0.98585 0.80348
 H218 H 0.13142 0.98992 0.85383
 H219 H 0.11977 1.00046 0.70664
 H220 H 0.14447 1.01392 0.66704
 H221 H 0.18751 1.06535 0.71326
 H222 H 0.16152 1.05109 0.75184
 C223 C 0.06777 0.94753 0.73874
 C224 C 0.06873 1.09202 0.78673
 C225 C 0.16796 1.04099 0.68677
 C226 C 0.16819 0.98665 0.83185
 C227 C 0.57704 0.54247 0.27890
 H228 H 0.57570 0.52324 0.28845
 C229 C 0.56274 0.56402 0.28887
 H230 H 0.55035 0.56120 0.30611
 C231 C 0.59531 0.56950 0.24513
 H232 H 0.60805 0.57162 0.22813
 C233 C 0.58110 0.59149 0.25419
 H234 H 0.58334 0.61037 0.24412
 N235 N 0.59372 0.54577 0.25804
 C236 C 0.59754 0.46501 0.25299
 H237 H 0.61155 0.46224 0.26822
 C238 C 0.58335 0.44375 0.24608
 H239 H 0.58695 0.42481 0.25597
 C240 C 0.57583 0.49294 0.22183
 H241 H 0.57315 0.51221 0.21240
 C242 C 0.56121 0.47217 0.21425
 H243 H 0.54736 0.47567 0.19887
 Zn244 Zn 0.61563 0.51678 0.24782
 N245 N 0.59421 0.48881 0.24027
 C246 C 0.65671 0.48655 0.27043
 N247 N 0.63827 0.50593 0.27525
 C248 C 0.63554 0.51648 0.29919
 C249 C 0.65042 0.50626 0.31986
 C250 C 0.67218 0.47590 0.29047
 C251 C 0.63304 0.51612 0.19440
 C252 C 0.64741 0.52483 0.17241
 C253 C 0.66965 0.55376 0.19959
 C254 C 0.65472 0.54465 0.22100
 N255 N 0.63646 0.52654 0.21800
 H256 H 0.65875 0.47873 0.25114
 H257 H 0.62148 0.53247 0.30258
 H258 H 0.64741 0.51446 0.33892
 H259 H 0.68615 0.45990 0.28634
 H260 H 0.61896 0.50127 0.19240
 H261 H 0.64402 0.51661 0.15374
 H262 H 0.68368 0.56858 0.20240
 H263 H 0.65728 0.55242 0.24002
 C264 C 0.56534 0.44700 0.22603
 C265 C 0.56514 0.58906 0.27679
 C266 C 0.66580 0.54414 0.17477
 C267 C 0.66868 0.48534 0.31576
 C268 C 0.89494 0.49719 0.74345
 H269 H 0.90402 0.51590 0.74095
 C270 C 0.90938 0.47514 0.75311
 H271 H 0.92967 0.47702 0.75770
 C272 C 0.85712 0.47225 0.74184
 H273 H 0.83656 0.47151 0.73789
 C274 C 0.87085 0.44973 0.75103
 H275 H 0.86062 0.43167 0.75409
 N276 N 0.86922 0.49536 0.73835
 C277 C 0.86242 0.57740 0.73114
 H278 H 0.84679 0.57908 0.74566
 C279 C 0.87708 0.59928 0.72456
 H280 H 0.87261 0.61752 0.73425
 C281 C 0.88673 0.55194 0.70045
 H282 H 0.89070 0.53341 0.69129
 C283 C 0.90164 0.57340 0.69305
 H284 H 0.91684 0.57109 0.67810
 Zn285 Zn 0.84726 0.52471 0.72868
 N286 N 0.86755 0.55421 0.71924
 C287 C 0.84435 0.53495 0.77922
 N288 N 0.82745 0.53196 0.75980
 C289 C 0.80112 0.53307 0.76466
 C290 C 0.79112 0.53781 0.78998
 C291 C 0.83535 0.53918 0.80451
 C292 C 0.84574 0.50185 0.68211
 C293 C 0.83719 0.49331 0.65866
 C294 C 0.79398 0.51115 0.66949
 C295 C 0.80362 0.51996 0.69286
 N296 N 0.82919 0.51499 0.69875
 H297 H 0.86515 0.53400 0.77499
 H298 H 0.78784 0.53013 0.74929
 H299 H 0.77020 0.53878 0.79369
 H300 H 0.84952 0.54157 0.81935
 H301 H 0.86585 0.49772 0.68713
 H302 H 0.85099 0.48279 0.64602
 H303 H 0.77366 0.51515 0.66493
 H304 H 0.79077 0.53100 0.70582
 C305 C 0.89695 0.59746 0.70521
 C306 C 0.89721 0.45109 0.75724
 C307 C 0.81105 0.49784 0.65199
 C308 C 0.80846 0.54068 0.81030
 C309 C 0.24469 0.40004 -0.00777
 H310 H 0.24226 0.40978 0.01054
 C311 C 0.25344 0.41402 -0.03008
 H312 H 0.25748 0.43461 -0.02884
 C313 C 0.24353 0.36107 -0.03146
 H314 H 0.24003 0.34028 -0.03163
 C315 C 0.25179 0.37431 -0.05422
 H316 H 0.25467 0.36347 -0.07188
 N317 N 0.24017 0.37400 -0.00889
 C318 C 0.23417 0.37005 0.07213
 H319 H 0.24932 0.35468 0.07405
 C320 C 0.22729 0.38538 0.09346
 H321 H 0.23737 0.38169 0.11155
 C322 C 0.20212 0.39296 0.04664
 H323 H 0.19248 0.39603 0.02832
 C324 C 0.19439 0.40849 0.06755
 H325 H 0.17873 0.42330 0.06504
 Zn326 Zn 0.23080 0.35281 0.02051
 N327 N 0.22168 0.37413 0.04923
 C328 C 0.28172 0.34848 0.03022
 N329 N 0.26180 0.33217 0.02759
 C330 C 0.26616 0.30553 0.02825
 C331 C 0.29151 0.29456 0.03207
 C332 C 0.30707 0.33851 0.03351
 C333 C 0.18441 0.35137 -0.00289
 C334 C 0.16070 0.34305 -0.01090
 C335 C 0.17036 0.30055 0.00995
 C336 C 0.19403 0.31000 0.01817
 N337 N 0.20065 0.33506 0.01139
 H338 H 0.27785 0.36955 0.02945
 H339 H 0.25036 0.29277 0.02542
 H340 H 0.29488 0.27339 0.03258
 H341 H 0.32239 0.35218 0.03554
 H342 H 0.18984 0.37115 -0.00815
 H343 H 0.14837 0.35663 -0.02233
 H344 H 0.16518 0.28065 0.01535
 H345 H 0.20663 0.29750 0.03025
 C346 C 0.20702 0.40479 0.09135
 C347 C 0.25721 0.40104 -0.05365
 C348 C 0.15332 0.31741 -0.00456
 C349 C 0.31236 0.31126 0.03441
 C350 C 0.79023 0.07873 1.04112
 H351 H 0.80302 0.08049 1.02419
 C352 C 0.79922 0.06473 1.06323
 H353 H 0.81886 0.05596 1.06288
 C354 C 0.74945 0.08822 1.06237
 H355 H 0.73004 0.09740 1.06203
 C356 C 0.75758 0.07427 1.08484
 H357 H 0.74429 0.07312 1.10160
 N358 N 0.76599 0.09082 1.04129
 C359 C 0.74550 0.10842 0.96091
 H360 H 0.74846 0.12934 0.96028
 C361 C 0.73957 0.09606 0.93826
 H362 H 0.73787 0.10774 0.92027
 C363 C 0.74385 0.06808 0.98547
 H364 H 0.74556 0.05741 1.00400
 C365 C 0.73747 0.05493 0.96325
 H366 H 0.73430 0.03404 0.96484
 Zn367 Zn 0.75544 0.11364 1.01290
 N368 N 0.74747 0.09439 0.98386
 C369 C 0.80402 0.12362 0.98950
 N370 N 0.78320 0.13546 1.00211
 C371 C 0.78186 0.16193 1.00519
 C372 C 0.80229 0.17737 0.99599
 C373 C 0.82498 0.13820 0.98034
 C374 C 0.70225 0.13189 1.01158
 C375 C 0.67965 0.14559 1.02047
 C376 C 0.70495 0.16391 1.05369
 C377 C 0.72697 0.14969 1.04433
 N378 N 0.72532 0.13414 1.02357
 H379 H 0.80404 0.10287 0.98583
 H380 H 0.76485 0.17127 1.01437
 H381 H 0.80083 0.19841 0.99854
 H382 H 0.84122 0.12831 0.97022
 H383 H 0.70119 0.11909 0.99539
 H384 H 0.66147 0.14340 1.01077
 H385 H 0.70676 0.17601 1.07036
 H386 H 0.74537 0.15069 1.05393
 C387 C 0.73524 0.06901 0.93926
 C388 C 0.78302 0.06286 1.08570
 C389 C 0.68082 0.16184 1.04184
 C390 C 0.82426 0.16547 0.98346
 C391 C 0.28797 0.58232 0.54250
 H392 H 0.29915 0.58223 0.52441
 C393 C 0.29755 0.56782 0.56405
 H394 H 0.31608 0.55688 0.56218
 C395 C 0.25045 0.59657 0.56699
 H396 H 0.23207 0.60775 0.56814
 C397 C 0.25919 0.58217 0.58897
 H398 H 0.24744 0.58272 0.60684
 N399 N 0.26518 0.59701 0.54449
 C400 C 0.24308 0.61458 0.46464
 H401 H 0.24669 0.63537 0.46366
 C402 C 0.23595 0.60223 0.44239
 H403 H 0.23401 0.61379 0.42435
 C404 C 0.24093 0.57459 0.48971
 H405 H 0.24287 0.56405 0.50829
 C406 C 0.23340 0.56145 0.46791
 H407 H 0.22959 0.54071 0.46988
 Zn408 Zn 0.25459 0.61999 0.51625
 N409 N 0.24534 0.60073 0.48766
 C410 C 0.30298 0.62773 0.49168
 N411 N 0.28302 0.64060 0.50465
 C412 C 0.28319 0.66702 0.50777
 C413 C 0.30438 0.68130 0.49832
 C414 C 0.32461 0.64112 0.48222
 C415 C 0.20175 0.63892 0.51590
 C416 C 0.17944 0.65301 0.52486
 C417 C 0.20566 0.67250 0.55659
 C418 C 0.22741 0.65785 0.54721
 N419 N 0.22516 0.64147 0.52717
 H420 H 0.30182 0.60710 0.48797
 H421 H 0.26686 0.67720 0.51728
 H422 H 0.30416 0.70230 0.50097
 H423 H 0.34015 0.63038 0.47186
 H424 H 0.20017 0.62551 0.50030
 H425 H 0.16098 0.65046 0.51578
 H426 H 0.20790 0.68519 0.57274
 H427 H 0.24605 0.65907 0.55632
 C428 C 0.23075 0.57537 0.44388
 C429 C 0.28336 0.56807 0.58784
 C430 C 0.18119 0.67000 0.54556
 C431 C 0.32553 0.66827 0.48547
 C432 C 0.75489 0.88164 0.49262
 H433 H 0.76358 0.88370 0.51132
 C434 C 0.76118 0.89877 0.47178
 H435 H 0.77477 0.91398 0.47472
 C436 C 0.72747 0.85851 0.46608
 H437 H 0.71435 0.84284 0.46386
 C438 C 0.73342 0.87508 0.44461
 H439 H 0.72490 0.87175 0.42606
 N440 N 0.73901 0.86146 0.48923
 C441 C 0.74228 0.85735 0.56866
 H442 H 0.75942 0.84427 0.56975
 C443 C 0.73575 0.87371 0.58934
 H444 H 0.74779 0.87267 0.60633
 C445 C 0.70621 0.87517 0.54503
 H446 H 0.69501 0.87586 0.52748
 C447 C 0.69885 0.89166 0.56528
 H448 H 0.68183 0.90488 0.56316
 Zn449 Zn 0.73558 0.83727 0.51798
 N450 N 0.72728 0.85809 0.54721
 C451 C 0.78787 0.82379 0.50476
 N452 N 0.76809 0.81810 0.52203
 C453 C 0.77206 0.80069 0.54248
 C454 C 0.79727 0.79019 0.54745
 C455 C 0.81324 0.81406 0.50912
 C456 C 0.68589 0.81654 0.52727
 C457 C 0.66324 0.80525 0.51957
 C458 C 0.68780 0.78644 0.48343
 C459 C 0.71001 0.79835 0.49173
 N460 N 0.70824 0.81433 0.51240
 H461 H 0.78433 0.83678 0.48802
 H462 H 0.75596 0.79611 0.55574
 H463 H 0.80045 0.77763 0.56467
 H464 H 0.82889 0.82000 0.49584
 H465 H 0.68505 0.82840 0.54425
 H466 H 0.64520 0.80878 0.53065
 H467 H 0.68904 0.77549 0.46574
 H468 H 0.72814 0.79654 0.48046
 C469 C 0.71363 0.89101 0.58788
 C470 C 0.75106 0.89507 0.44716
 C471 C 0.66374 0.79108 0.49667
 C472 C 0.81835 0.79781 0.53117
 C473 C -0.00737 0.25318 0.39102
 H474 H 0.01187 0.25227 0.39902
 C475 C -0.02853 0.26358 0.40573
 H476 H -0.02524 0.27073 0.42488
 C477 C -0.03524 0.24473 0.35665
 H478 H -0.03771 0.23726 0.33749
 C479 C -0.05691 0.25463 0.37075
 H480 H -0.07593 0.25489 0.36211
 N481 N -0.01103 0.24433 0.36679
 C482 C 0.05408 0.19418 0.36885
 H483 H 0.04400 0.17936 0.35920
 C484 C 0.07552 0.18653 0.38385
 H485 H 0.08133 0.16584 0.38567
 C486 C 0.05939 0.23896 0.37741
 H487 H 0.05311 0.25942 0.37455
 C488 C 0.08117 0.23218 0.39245
 H489 H 0.09137 0.24755 0.40130
 Zn490 Zn 0.01654 0.22966 0.34573
 N491 N 0.04609 0.21998 0.36626
 C492 C 0.05233 0.25585 0.31291
 N493 N 0.02654 0.25508 0.31976
 C494 C 0.00933 0.27496 0.31243
 C495 C 0.01819 0.29758 0.29930
 C496 C 0.06205 0.27816 0.30003
 C497 C -0.00680 0.18245 0.35003
 C498 C -0.01707 0.15909 0.34293
 C499 C -0.00656 0.17057 0.29785
 C500 C 0.00385 0.19386 0.30593
 N501 N 0.00368 0.19913 0.33172
 H502 H 0.06568 0.23991 0.31906
 H503 H -0.01104 0.27414 0.31821
 H504 H 0.00440 0.31382 0.29509
 H505 H 0.08288 0.27898 0.29616
 H506 H -0.00697 0.18733 0.37035
 H507 H -0.02518 0.14623 0.35808
 H508 H -0.00628 0.16649 0.27731
 H509 H 0.01203 0.20765 0.29171
 C510 C 0.08934 0.20559 0.39600
 C511 C -0.05371 0.26440 0.39558
 C512 C -0.01705 0.15275 0.31657
 C513 C 0.04505 0.29987 0.29408
 C514 C 1.04088 0.78680 0.08202
 H515 H 1.02209 0.79719 0.08029
 C516 C 1.06284 0.79660 0.06881
 H517 H 1.06077 0.81456 0.05690
 C518 C 1.06638 0.75093 0.09990
 H519 H 1.06774 0.73319 0.11211
 C520 C 1.08872 0.75976 0.08670
 H521 H 1.10711 0.74873 0.08910
 N522 N 1.04317 0.76482 0.09787
 C523 C 0.96242 0.76160 0.09874
 H524 H 0.95984 0.77605 0.11351
 C525 C 0.94114 0.75585 0.08401
 H526 H 0.92242 0.76585 0.08795
 C527 C 0.98979 0.73113 0.07578
 H528 H 1.00882 0.72143 0.07286
 C529 C 0.96899 0.72475 0.06057
 H530 H 0.97224 0.71002 0.04603
 Zn531 Zn 1.01353 0.75400 0.11789
 N532 N 0.98595 0.74857 0.09507
 C533 C 0.98339 0.77408 0.15956
 N534 N 1.00248 0.78025 0.14170
 C535 C 1.01243 0.80462 0.14036
 C536 C 1.00189 0.82441 0.15616
 C537 C 0.97247 0.79319 0.17592
 C538 C 1.01193 0.69908 0.13221
 C539 C 1.01890 0.67619 0.14679
 C540 C 1.04554 0.70198 0.17308
 C541 C 1.03839 0.72428 0.15778
 N542 N 1.02203 0.72248 0.13764
 H543 H 0.97601 0.75448 0.16045
 H544 H 1.02810 0.80907 0.12666
 H545 H 1.00956 0.84388 0.15423
 H546 H 0.95669 0.78803 0.18938
 H547 H 0.99853 0.69800 0.11655
 H548 H 1.01084 0.65775 0.14200
 H549 H 1.05877 0.70389 0.18887
 H550 H 1.04596 0.74313 0.16187
 C551 C 0.94406 0.73667 0.06511
 C552 C 1.08725 0.78321 0.07137
 C553 C 1.03595 0.67745 0.16753
 C554 C 0.98128 0.81894 0.17387
 C555 C 0.54298 0.28212 0.57632
 H556 H 0.52387 0.29188 0.57468
 C557 C 0.56453 0.29270 0.56305
 H558 H 0.56179 0.31056 0.55111
 C559 C 0.56974 0.24730 0.59435
 H560 H 0.57178 0.22969 0.60666
 C561 C 0.59172 0.25699 0.58120
 H562 H 0.61047 0.24666 0.58374
 N563 N 0.54610 0.26036 0.59235
 C564 C 0.46553 0.25608 0.59555
 H565 H 0.46339 0.27095 0.60995
 C566 C 0.44375 0.24975 0.58185
 H567 H 0.42511 0.25975 0.58619
 C568 C 0.49225 0.22514 0.57252
 H569 H 0.51123 0.21546 0.56921
 C570 C 0.47092 0.21814 0.55836
 H571 H 0.47373 0.20299 0.54418
 Zn572 Zn 0.51721 0.24914 0.61328
 N573 N 0.48898 0.24307 0.59144
 C574 C 0.48785 0.26959 0.65538
 N575 N 0.50660 0.27555 0.63707
 C576 C 0.51658 0.29990 0.63526
 C577 C 0.50638 0.31988 0.65099
 C578 C 0.47725 0.28891 0.67167
 C579 C 0.51658 0.19436 0.62843
 C580 C 0.52454 0.17163 0.64275
 C581 C 0.55233 0.19790 0.66732
 C582 C 0.54407 0.22006 0.65234
 N583 N 0.52676 0.21792 0.63308
 H584 H 0.48047 0.25000 0.65666
 H585 H 0.53203 0.30418 0.62124
 H586 H 0.51407 0.33932 0.64867
 H587 H 0.46172 0.28392 0.68549
 H588 H 0.50236 0.19301 0.61354
 H589 H 0.51642 0.15305 0.63851
 H590 H 0.56638 0.20008 0.68231
 H591 H 0.55167 0.23904 0.65588
 C592 C 0.44608 0.22999 0.56350
 C593 C 0.58943 0.28037 0.56583
 C594 C 0.54276 0.17319 0.66242
 C595 C 0.48606 0.31465 0.66911
 C596 C 0.48927 0.75207 0.88870
 H597 H 0.50838 0.75029 0.89701
 C598 C 0.46781 0.76077 0.90401
 H599 H 0.47076 0.76583 0.92396
 C600 C 0.46208 0.74732 0.85285
 H601 H 0.46004 0.74191 0.83288
 C602 C 0.44011 0.75567 0.86749
 H603 H 0.42126 0.75686 0.85847
 N604 N 0.48609 0.74592 0.86348
 C605 C 0.55381 0.69938 0.86306
 H606 H 0.54453 0.68445 0.85279
 C607 C 0.57572 0.69227 0.87755
 H608 H 0.58265 0.67184 0.87837
 C609 C 0.55672 0.74401 0.87358
 H610 H 0.54924 0.76419 0.87174
 C611 C 0.57895 0.73776 0.88817
 H612 H 0.58836 0.75325 0.89767
 Zn613 Zn 0.51421 0.73347 0.84184
 N614 N 0.54437 0.72480 0.86173
 C615 C 0.54717 0.75823 0.80503
 N616 N 0.52293 0.75991 0.81651
 C617 C 0.50719 0.78202 0.81349
 C618 C 0.51623 0.80411 0.79965
 C619 C 0.55716 0.78003 0.79141
 C620 C 0.49364 0.68497 0.84506
 C621 C 0.48504 0.66104 0.83749
 C622 C 0.49457 0.67413 0.79259
 C623 C 0.50341 0.69795 0.80114
 N624 N 0.50299 0.70266 0.82706
 H625 H 0.55943 0.74057 0.80802
 H626 H 0.48815 0.78319 0.82303
 H627 H 0.50388 0.82194 0.79869
 H628 H 0.57706 0.77883 0.78372
 H629 H 0.49324 0.68942 0.86550
 H630 H 0.47786 0.64732 0.85238
 H631 H 0.49508 0.67044 0.77196
 H632 H 0.51067 0.71252 0.78719
 C633 C 0.58855 0.71149 0.89049
 C634 C 0.44282 0.76273 0.89339
 C635 C 0.48549 0.65522 0.81099
 C636 C 0.54193 0.80365 0.78939
 C637 C 0.45040 -0.13797 0.31564
 N638 N 0.47046 -0.13543 0.33191
 N639 N 0.48006 -0.15623 0.34571
 C640 C 0.46991 -0.18025 0.34368
 N641 N 0.45009 -0.18272 0.32717
 N642 N 0.44050 -0.16200 0.31346
 C643 C 0.43819 -0.11509 0.30180
 N644 N 0.41604 -0.11795 0.28863
 N645 N 0.40361 -0.09721 0.27741
 C646 C 0.41285 -0.07276 0.27880
 N647 N 0.43530 -0.06993 0.29164
 N648 N 0.44771 -0.09072 0.30302
 C649 C 0.94566 0.36350 0.81037
 N650 N 0.96540 0.36676 0.82681
 N651 N 0.97442 0.34671 0.84193
 C652 C 0.96403 0.32268 0.84117
 N653 N 0.94451 0.31941 0.82448
 N654 N 0.93544 0.33945 0.80943
 C655 C 0.93441 0.38587 0.79500
 N656 N 0.91241 0.38314 0.78153
 N657 N 0.90101 0.40376 0.76902
 C658 C 0.91120 0.42790 0.76936
 N659 N 0.93349 0.43051 0.78250
 N660 N 0.94486 0.40989 0.79514
 C661 C 0.02339 1.18543 0.82819
 N662 N 0.02135 1.20781 0.81303
 N663 N 0.01165 1.23012 0.82290
 C664 C 0.00382 1.23096 0.84836
 N665 N 0.00597 1.20859 0.86357
 N666 N 0.01554 1.18621 0.85366
 C667 C 0.03433 1.16099 0.81722
 N668 N 0.03353 1.13778 0.83110
 N669 N 0.04399 1.11576 0.82120
 C670 C 0.05574 1.11612 0.79711
 N671 N 0.05641 1.13936 0.78325
 N672 N 0.04582 1.16134 0.79306
 C673 C 0.52203 0.68106 0.32287
 N674 N 0.51893 0.70377 0.30837
 N675 N 0.51052 0.72592 0.31944
 C676 C 0.50506 0.72626 0.34547
 N677 N 0.50818 0.70353 0.35999
 N678 N 0.51649 0.68132 0.34889
 C679 C 0.53196 0.65687 0.31064
 N680 N 0.53320 0.63358 0.32444
 N681 N 0.54315 0.61189 0.31348
 C682 C 0.55230 0.61266 0.28836
 N683 N 0.55084 0.63597 0.27456
 N684 N 0.54079 0.65763 0.28546
 C685 C 0.52258 0.35802 0.18378
 N686 N 0.50731 0.36084 0.16265
 N687 N 0.50089 0.33989 0.14992
 C688 C 0.50948 0.31530 0.15783
 N689 N 0.52449 0.31249 0.17918
 N690 N 0.53090 0.33345 0.19193
 C691 C 0.53168 0.38124 0.19628
 N692 N 0.54803 0.37842 0.21657
 N693 N 0.55809 0.39938 0.22649
 C694 C 0.55226 0.42399 0.21650
 N695 N 0.53558 0.42678 0.19642
 N696 N 0.52549 0.40581 0.18650
 C697 C 0.02517 0.86008 0.69350
 N698 N 0.03381 0.83525 0.70039
 N699 N 0.02745 0.81491 0.68670
 C700 C 0.01220 0.81856 0.66552
 N701 N 0.00330 0.84347 0.65895
 N702 N 0.00964 0.86378 0.67265
 C703 C 0.03423 0.88274 0.70697
 N704 N 0.02696 0.90763 0.69888
 N705 N 0.03700 0.92824 0.70952
 C706 C 0.05473 0.92477 0.72862
 N707 N 0.06164 0.89982 0.73694
 N708 N 0.05160 0.87921 0.72633
 C709 C 0.95443 0.68635 0.67400
 N710 N 0.95695 0.70659 0.69007
 N711 N 0.96948 0.72789 0.68184
 C712 C 0.97979 0.72984 0.65717
 N713 N 0.97729 0.70949 0.64122
 N714 N 0.96494 0.68815 0.64948
 C715 C 0.94007 0.66310 0.68259
 N716 N 0.94029 0.64181 0.66748
 N717 N 0.92679 0.62091 0.67480
 C718 C 0.91238 0.62053 0.69744
 N719 N 0.91220 0.64187 0.71257
 N720 N 0.92583 0.66274 0.70532
 C721 C 0.44950 0.18147 0.17232
 N722 N 0.45016 0.20320 0.18675
 N723 N 0.46278 0.22415 0.17776
 C724 C 0.47512 0.22417 0.15397
 N725 N 0.47448 0.20240 0.13961
 N726 N 0.46197 0.18141 0.14864
 C727 C 0.43512 0.15858 0.18189
 N728 N 0.43643 0.13607 0.16851
 N729 N 0.42308 0.11541 0.17692
 C730 C 0.40777 0.11649 0.19896
 N731 N 0.40650 0.13906 0.21232
 N732 N 0.41994 0.15969 0.20398
 C733 C 0.30696 0.44718 -0.14249
 N734 N 0.32377 0.46665 -0.13984
 N735 N 0.33881 0.47462 -0.15996
 C736 C 0.33760 0.46341 -0.18344
 N737 N 0.32047 0.44420 -0.18613
 N738 N 0.30550 0.43617 -0.16601
 C739 C 0.29208 0.43677 -0.11989
 N740 N 0.27866 0.41462 -0.12178
 N741 N 0.26698 0.40372 -0.10083
 C742 C 0.26816 0.41458 -0.07718
 N743 N 0.28119 0.43706 -0.07541
 N744 N 0.29300 0.44791 -0.09637
 C745 C 0.79796 0.94584 0.35927
 N746 N 0.79556 0.93646 0.33511
 N747 N 0.81069 0.94491 0.31524
 C748 C 0.82883 0.96299 0.31882
 N749 N 0.83090 0.97259 0.34294
 N750 N 0.81579 0.96415 0.36277
 C751 C 0.78333 0.93472 0.38173
 N752 N 0.78800 0.94233 0.40610
 N753 N 0.77692 0.93039 0.42684
 C754 C 0.76070 0.91040 0.42404
 N755 N 0.75560 0.90319 0.39957
 N756 N 0.76672 0.91511 0.37880
 C757 C 0.82158 0.01923 1.18086
 N758 N 0.84751 0.01362 1.18379
 N759 N 0.85646 0.00439 1.20663
 C760 C 0.83981 0.00045 1.22734
 N761 N 0.81391 0.00609 1.22434
 N762 N 0.80497 0.01535 1.20157
 C763 C 0.81156 0.02968 1.15589
 N764 N 0.78585 0.03677 1.15374
 N765 N 0.77673 0.04690 1.13134
 C766 C 0.79293 0.05024 1.11015
 N767 N 0.81863 0.04292 1.11230
 N768 N 0.82778 0.03283 1.13473
 C769 C 0.32560 0.52116 0.67997
 N770 N 0.30998 0.51768 0.70150
 N771 N 0.31982 0.50770 0.72362
 C772 C 0.34567 0.50091 0.72514
 N773 N 0.36133 0.50443 0.70360
 N774 N 0.35147 0.51437 0.68140
 C775 C 0.31458 0.53250 0.65579
 N776 N 0.32954 0.53473 0.63362
 N777 N 0.31949 0.54560 0.61191
 C778 C 0.29414 0.55469 0.61154
 N779 N 0.27922 0.55229 0.63373
 N780 N 0.28922 0.54135 0.65540
 C781 C 0.18906 0.53048 0.35608
 N782 N 0.18997 0.54354 0.33254
 N783 N 0.17656 0.53552 0.31275
 C784 C 0.16166 0.51418 0.31577
 N785 N 0.16108 0.50090 0.33924
 N786 N 0.17454 0.50888 0.35902
 C787 C 0.20183 0.54085 0.37845
 N788 N 0.20079 0.52814 0.40217
 N789 N 0.21059 0.53874 0.42288
 C790 C 0.22164 0.56251 0.42067
 N791 N 0.22292 0.57499 0.39682
 N792 N 0.21323 0.56437 0.37612
 C793 C 0.69773 0.02442 0.84934
 N794 N 0.68222 0.00352 0.85175
 N795 N 0.66916 -0.00392 0.83147
 C796 C 0.67113 0.00921 0.80799
 N797 N 0.68712 0.02977 0.80548
 N798 N 0.70011 0.03726 0.82578
 C799 C 0.70970 0.03455 0.87229
 N800 N 0.72140 0.05792 0.87056
 N801 N 0.73007 0.06850 0.89177
 C802 C 0.72743 0.05611 0.91556
 N803 N 0.71613 0.03245 0.91720
 N804 N 0.70734 0.02191 0.89597
 C805 C 0.68173 0.95354 0.67300
 N806 N 0.65657 0.96288 0.67518
 N807 N 0.64800 0.97525 0.69638
 C808 C 0.66429 0.97891 0.71612
 N809 N 0.68958 0.96989 0.71376
 N810 N 0.69814 0.95740 0.69261
 C811 C 0.69059 0.93832 0.65043
 N812 N 0.71444 0.92558 0.64988
 N813 N 0.72187 0.91071 0.62995
 C814 C 0.70577 0.90805 0.60977
 N815 N 0.68200 0.92100 0.61031
 N816 N 0.67452 0.93577 0.63027
 C817 C 0.17308 0.46186 0.17947
 N818 N 0.14770 0.47045 0.18199
 N819 N 0.13876 0.48140 0.20384
 C820 C 0.15488 0.48436 0.22389
 N821 N 0.18036 0.47610 0.22120
 N822 N 0.18928 0.46499 0.19942
 C823 C 0.18245 0.44817 0.15613
 N824 N 0.20616 0.43516 0.15558
 N825 N 0.21408 0.42156 0.13492
 C826 C 0.19865 0.42056 0.11397
 N827 N 0.17504 0.43382 0.11448
 N828 N 0.16704 0.44728 0.13519
 C829 C -0.14110 0.31220 0.44802
 N830 N -0.13795 0.33029 0.46628
 N831 N -0.15846 0.34435 0.47568
 C832 C -0.18286 0.34078 0.46720
 N833 N -0.18598 0.32236 0.44928
 N834 N -0.16550 0.30837 0.43985
 C835 C -0.11844 0.29841 0.43576
 N836 N -0.12169 0.28329 0.41505
 N837 N -0.10113 0.27219 0.40260
 C838 C -0.07649 0.27572 0.41037
 N839 N -0.07327 0.29061 0.43135
 N840 N -0.09386 0.30182 0.44376
 C841 C 0.35537 0.80618 0.94927
 N842 N 0.35896 0.82118 0.97001
 N843 N 0.33900 0.83506 0.98063
 C844 C 0.31460 0.83448 0.97101
 N845 N 0.31101 0.81891 0.95059
 N846 N 0.33099 0.80510 0.93991
 C847 C 0.37780 0.79311 0.93589
 N848 N 0.37473 0.78137 0.91299
 N849 N 0.39534 0.77133 0.89975
 C850 C 0.41983 0.77262 0.90887
 N851 N 0.42282 0.78408 0.93199
 N852 N 0.40221 0.79420 0.94520
 C853 C 1.18004 0.82472 0.02719
 N854 N 1.18249 0.85109 0.02377
 N855 N 1.20485 0.86070 0.01449
 C856 C 1.22556 0.84430 0.00815
 N857 N 1.22295 0.81793 0.01149
 N858 N 1.20069 0.80834 0.02091
 C859 C 1.15569 0.81395 0.03795
 N860 N 1.15494 0.78812 0.04540
 N861 N 1.13315 0.77833 0.05576
 C862 C 1.11114 0.79392 0.05888
 N863 N 1.11185 0.81975 0.05120
 N864 N 1.13372 0.82959 0.04099
 C865 C 0.68090 0.32635 0.52369
 N866 N 0.68114 0.35223 0.51615
 N867 N 0.70312 0.36271 0.50693
 C868 C 0.72563 0.34768 0.50488
 N869 N 0.72530 0.32184 0.51248
 N870 N 0.70342 0.31141 0.52176
 C871 C 0.65690 0.31448 0.53397
 N872 N 0.65777 0.28926 0.54357
 N873 N 0.63629 0.27838 0.55334
 C874 C 0.61300 0.29221 0.55376
 N875 N 0.61211 0.31743 0.54395
 N876 N 0.63365 0.32837 0.53426
 C877 C 0.35545 0.18782 0.52445
 N878 N 0.35763 0.16719 0.50848
 N879 N 0.33667 0.15425 0.50282
 C880 C 0.31268 0.16140 0.51289
 N881 N 0.31047 0.18229 0.52862
 N882 N 0.33145 0.19526 0.53428
 C883 C 0.37892 0.20044 0.53261
 N884 N 0.37693 0.22033 0.54949
 N885 N 0.39829 0.23024 0.55862
 C886 C 0.42249 0.22066 0.55132
 N887 N 0.42442 0.20099 0.53412
 N888 N 0.40306 0.19109 0.52494
 C889 C 0.85505 0.69642 0.02091
 N890 N 0.85791 0.67646 0.00418
 N891 N 0.83729 0.66355 -0.00256
 C892 C 0.81300 0.67006 0.00715
 N893 N 0.81010 0.69032 0.02359
 N894 N 0.83074 0.70327 0.03033
 C895 C 0.87815 0.70873 0.03040
 N896 N 0.87553 0.72782 0.04812
 N897 N 0.89651 0.73726 0.05850
 C898 C 0.92095 0.72798 0.05163
 N899 N 0.92351 0.70914 0.03359
 N900 N 0.90253 0.69972 0.02317
 C901 C 0.67785 0.68037 0.94846
 N902 N 0.68215 0.65452 0.95509
 N903 N 0.70359 0.64624 0.96747
 C904 C 0.72165 0.66345 0.97367
 N905 N 0.71732 0.68939 0.96714
 N906 N 0.69578 0.69771 0.95478
 C907 C 0.65448 0.68894 0.93398
 N908 N 0.64870 0.71479 0.92827
 N909 N 0.62766 0.72210 0.91463
 C910 C 0.61171 0.70382 0.90610
 N911 N 0.61757 0.67802 0.91195
 N912 N 0.63848 0.67074 0.92562
 C913 C 0.17726 0.17322 0.45548
 N914 N 0.18082 0.14749 0.46295
 N915 N 0.20206 0.13902 0.47558
 C916 C 0.22062 0.15592 0.48121
 N917 N 0.21702 0.18174 0.47386
 N918 N 0.19569 0.19025 0.46126
 C919 C 0.15419 0.18205 0.44066
 N920 N 0.14942 0.20787 0.43401
 N921 N 0.12872 0.21546 0.42001
 C922 C 0.11211 0.19752 0.41202
 N923 N 0.11696 0.17174 0.41880
 N924 N 0.13754 0.16417 0.43285
 C925 C 0.58188 0.08260 0.71900
 N926 N 0.58154 0.05804 0.70954
 N927 N 0.59352 0.03758 0.72201
 C928 C 0.60625 0.04094 0.74442
 N929 N 0.60605 0.06547 0.75398
 N930 N 0.59418 0.08583 0.74155
 C931 C 0.57055 0.10579 0.70468
 N932 N 0.57444 0.13025 0.71298
 N933 N 0.56542 0.15155 0.69969
 C934 C 0.55202 0.14931 0.67755
 N935 N 0.54791 0.12477 0.66935
 N936 N 0.55707 0.10341 0.68260
 C937 C 1.07055 0.58655 0.22633
 N938 N 1.07237 0.56228 0.21605
 N939 N 1.08396 0.54195 0.22906
 C940 C 1.09404 0.54514 0.25285
 N941 N 1.09167 0.56930 0.26321
 N942 N 1.08019 0.58956 0.25025
 C943 C 1.06017 0.60978 0.21140
 N944 N 1.06283 0.63416 0.22050
 N945 N 1.05492 0.65555 0.20666
 C946 C 1.04391 0.65347 0.18317
 N947 N 1.04100 0.62902 0.17416
 N948 N 1.04908 0.60757 0.18796
 C949 C 0.92685 0.89960 0.22919
 N950 N 0.92777 0.92530 0.22114
 N951 N 0.91300 0.94374 0.23308
 C952 C 0.89680 0.93716 0.25352
 N953 N 0.89615 0.91146 0.26158
 N954 N 0.91081 0.89306 0.24965
 C955 C 0.94203 0.87889 0.21553
 N956 N 0.93834 0.85319 0.22198
 N957 N 0.95113 0.83419 0.20904
 C958 C 0.96825 0.84011 0.18921
 N959 N 0.97213 0.86587 0.18295
 N960 N 0.95924 0.88491 0.19583
 C961 C 0.43297 0.39617 0.72435
 N962 N 0.43449 0.42190 0.71654
 N963 N 0.42019 0.44054 0.72870
 C964 C 0.40392 0.43411 0.74910
 N965 N 0.40260 0.40840 0.75689
 N966 N 0.41678 0.38981 0.74476
 C967 C 0.44775 0.37524 0.71063
 N968 N 0.44372 0.34963 0.71718
 N969 N 0.45620 0.33043 0.70428
 C970 C 0.47334 0.33604 0.68438
 N971 N 0.47756 0.36172 0.67801
 N972 N 0.46498 0.38097 0.69086
 C973 C 0.44106 0.55984 0.78688
 N974 N 0.43501 0.54348 0.80741
 N975 N 0.41990 0.52336 0.80453
 C976 C 0.41033 0.51859 0.78094
 N977 N 0.41687 0.53452 0.76012
 N978 N 0.43191 0.55490 0.76306
 C979 C 0.45514 0.58361 0.79159
 N980 N 0.45839 0.60292 0.77287
 N981 N 0.46876 0.62551 0.77864
 C982 C 0.47607 0.62962 0.80336
 N983 N 0.47321 0.61005 0.82177
 N984 N 0.46296 0.58757 0.81603
 C985 C -0.06679 0.05986 0.29302
 N986 N -0.07534 0.04485 0.31363
 N987 N -0.09068 0.02501 0.31024
 C988 C -0.09802 0.01920 0.28607
 N989 N -0.08907 0.03384 0.26524
 N990 N -0.07377 0.05392 0.26867
 C991 C -0.05189 0.08307 0.29794
 N992 N -0.04555 0.10096 0.27869
 N993 N -0.03393 0.12294 0.28432
 C994 C -0.02836 0.12782 0.30938
 N995 N -0.03441 0.10965 0.32837
 N996 N -0.04593 0.08781 0.32279
 C997 C 0.08412 0.40131 0.27784
 N998 N 0.07197 0.42174 0.26446
 N999 N 0.08101 0.44594 0.26487
 C1000 C 0.10213 0.45057 0.27912
 N1001 N 0.11411 0.43010 0.29241
 N1002 N 0.10536 0.40599 0.29171
 C1003 C 0.07434 0.37460 0.27859
 N1004 N 0.09017 0.35406 0.28684
 N1005 N 0.08107 0.33010 0.29043
 C1006 C 0.05569 0.32566 0.28611
 N1007 N 0.03991 0.34617 0.27741
 N1008 N 0.04908 0.37019 0.27358
 C1009 C 0.58769 0.90127 0.76900
 N1010 N 0.57538 0.92293 0.75784
 N1011 N 0.58604 0.94639 0.75805
 C1012 C 0.60905 0.94901 0.76993
 N1013 N 0.62126 0.92733 0.78095
 N1014 N 0.61086 0.90393 0.78041
 C1015 C 0.57584 0.87551 0.77050
 N1016 N 0.59086 0.85357 0.77639
 N1017 N 0.58012 0.83048 0.78099
 C1018 C 0.55387 0.82840 0.78012
 N1019 N 0.53884 0.85031 0.77376
 N1020 N 0.54963 0.87342 0.76890
 C1021 C 0.72022 0.58728 0.08644
 N1022 N 0.74081 0.60237 0.09009
 N1023 N 0.75315 0.61391 0.06987
 C1024 C 0.74541 0.61090 0.04515
 N1025 N 0.72483 0.59571 0.04144
 N1026 N 0.71247 0.58408 0.06172
 C1027 C 0.70640 0.57533 0.10914
 N1028 N 0.71322 0.58084 0.13360
 N1029 N 0.70049 0.57074 0.15436
 C1030 C 0.68045 0.55463 0.15155
 N1031 N 0.67374 0.54899 0.12703
 N1032 N 0.68643 0.55917 0.10621
 C1033 C 0.22046 1.08162 0.59611
 N1034 N 0.21184 1.07825 0.57173
 N1035 N 0.22378 1.08941 0.55092
 C1036 C 0.24477 1.10430 0.55376
 N1037 N 0.25336 1.10748 0.57814
 N1038 N 0.24145 1.09641 0.59887
 C1039 C 0.20715 1.07023 0.61940
 N1040 N 0.21499 1.07584 0.64348
 N1041 N 0.20273 1.06632 0.66479
 C1042 C 0.18216 1.05067 0.66293
 N1043 N 0.17444 1.04490 0.63878
 N1044 N 0.18666 1.05451 0.61741
 C1045 C 0.22436 0.93492 0.91367
 N1046 N 0.21460 0.93276 0.93855
 N1047 N 0.22701 0.91753 0.95643
 C1048 C 0.24949 0.90376 0.95000
 N1049 N 0.25922 0.90626 0.92517
 N1050 N 0.24698 0.92153 0.90741
 C1051 C 0.21029 0.95014 0.89319
 N1052 N 0.22127 0.95274 0.86890
 N1053 N 0.20813 0.96486 0.84961
 C1054 C 0.18339 0.97479 0.85379
 N1055 N 0.17251 0.97242 0.87822
 N1056 N 0.18570 0.96034 0.89757
 C1057 C 0.72224 0.43343 0.39931
 N1058 N 0.71419 0.43572 0.42464
 N1059 N 0.72650 0.42191 0.44361
 C1060 C 0.74728 0.40539 0.43787
 N1061 N 0.75523 0.40329 0.41255
 N1062 N 0.74297 0.41697 0.39368
 C1063 C 0.70867 0.44777 0.37795
 N1064 N 0.71589 0.44298 0.35287
 N1065 N 0.70342 0.45518 0.33319
 C1066 C 0.68327 0.47279 0.33776
 N1067 N 0.67618 0.47775 0.36290
 N1068 N 0.68861 0.46545 0.38264
 C1069 C 0.78552 0.44896 0.55985
 N1070 N 0.76188 0.43902 0.55572
 N1071 N 0.75909 0.42253 0.53646
 C1072 C 0.77991 0.41526 0.52088
 N1073 N 0.80332 0.42557 0.52485
 N1074 N 0.80603 0.44212 0.54385
 C1075 C 0.79025 0.46475 0.58251
 N1076 N 0.81459 0.47321 0.58561
 N1077 N 0.82062 0.48466 0.60729
 C1078 C 0.80260 0.48823 0.62687
 N1079 N 0.77791 0.48045 0.62357
 N1080 N 0.77185 0.46883 0.60177
 C1081 C 0.28785 -0.06635 0.07115
 N1082 N 0.26379 -0.06796 0.06098
 N1083 N 0.26044 -0.08333 0.04088
 C1084 C 0.28097 -0.09777 0.03049
 N1085 N 0.30483 -0.09592 0.04079
 N1086 N 0.30820 -0.08054 0.06055
 C1087 C 0.29280 -0.05042 0.09363
 N1088 N 0.31788 -0.04816 0.10040
 N1089 N 0.32351 -0.03575 0.12160
 C1090 C 0.30436 -0.02504 0.13718
 N1091 N 0.27907 -0.02681 0.13024
 N1092 N 0.27337 -0.03932 0.10881
 C1093 C 0.27752 0.06349 0.42009
 N1094 N 0.25498 0.07697 0.42682
 N1095 N 0.25297 0.08969 0.44910
 C1096 C 0.27349 0.08951 0.46529
 N1097 N 0.29571 0.07553 0.45879
 N1098 N 0.29763 0.06266 0.43673
 C1099 C 0.28201 0.05299 0.39396
 N1100 N 0.30542 0.04089 0.38812
 N1101 N 0.31185 0.03486 0.36377
 C1102 C 0.29519 0.04065 0.34411
 N1103 N 0.27131 0.05202 0.34999
 N1104 N 0.26487 0.05818 0.37450
 C1105 C 0.78179 0.57133 0.91254
 N1106 N 0.75865 0.58373 0.91925
 N1107 N 0.75610 0.59677 0.94132
 C1108 C 0.77664 0.59801 0.95730
 N1109 N 0.79951 0.58515 0.95079
 N1110 N 0.80197 0.57196 0.92895
 C1111 C 0.78650 0.56010 0.88676
 N1112 N 0.76907 0.56393 0.86737
 N1113 N 0.77543 0.55680 0.84313
 C1114 C 0.79950 0.54575 0.83744
 N1115 N 0.81649 0.54138 0.85706
 N1116 N 0.81016 0.54841 0.88115
 C1117 C 0.09160 0.72466 0.58755
 N1118 N 0.09480 0.74551 0.60256
 N1119 N 0.07425 0.75818 0.61345
 C1120 C 0.04961 0.75053 0.60991
 N1121 N 0.04638 0.72963 0.59479
 N1122 N 0.06700 0.71696 0.58378
 C1123 C 0.11464 0.71060 0.57614
 N1124 N 0.11215 0.69101 0.55932
 N1125 N 0.13326 0.67827 0.54940
 C1126 C 0.15765 0.68455 0.55599
 N1127 N 0.16003 0.70418 0.57280
 N1128 N 0.13897 0.71697 0.58261
 C1129 C 0.59081 0.21661 1.08273
 N1130 N 0.59407 0.23670 1.09870
 N1131 N 0.57352 0.24979 1.10909
 C1132 C 0.54883 0.24332 1.10404
 N1133 N 0.54549 0.22316 1.08806
 N1134 N 0.56612 0.21006 1.07754
 C1135 C 0.61388 0.20232 1.07172
 N1136 N 0.61164 0.18352 1.05397
 N1137 N 0.63288 0.17076 1.04430
 C1138 C 0.65712 0.17624 1.05207
 N1139 N 0.65922 0.19506 1.06980
 N1140 N 0.63806 0.20787 1.07937
 C1141 C 0.90427 0.22550 0.93630
 N1142 N 0.92845 0.21462 0.93100
 N1143 N 0.94606 0.22816 0.91712
 C1144 C 0.94003 0.25297 0.90787
 N1145 N 0.91591 0.26386 0.91337
 N1146 N 0.89840 0.25042 0.92738
 C1147 C 0.88423 0.21020 0.95013
 N1148 N 0.86096 0.22191 0.95736
 N1149 N 0.84210 0.20780 0.96848
 C1150 C 0.84573 0.18139 0.97261
 N1151 N 0.86913 0.16975 0.96553
 N1152 N 0.88805 0.18388 0.95456
 C1153 C 0.40859 0.72375 0.43790
 N1154 N 0.43169 0.71134 0.43106
 N1155 N 0.44973 0.72405 0.41692
 C1156 C 0.44522 0.74956 0.40897
 N1157 N 0.42222 0.76196 0.41604
 N1158 N 0.40429 0.74933 0.43028
 C1159 C 0.38788 0.70950 0.45188
 N1160 N 0.36566 0.72256 0.46014
 N1161 N 0.34607 0.70954 0.47132
 C1162 C 0.34787 0.68292 0.47450
 N1163 N 0.37024 0.66991 0.46642
 N1164 N 0.38989 0.68294 0.45536
 C1165 C 0.57134 0.77724 0.44290
 N1166 N 0.55498 0.79882 0.44017
 N1167 N 0.53487 0.79889 0.42439
 C1168 C 0.53014 0.77724 0.41101
 N1169 N 0.54623 0.75545 0.41403
 N1170 N 0.56663 0.75552 0.42955
 C1171 C 0.59448 0.77831 0.45887
 N1172 N 0.61627 0.76286 0.45401
 N1173 N 0.63816 0.76613 0.46667
 C1174 C 0.63894 0.78472 0.48491
 N1175 N 0.61692 0.79969 0.49009
 N1176 N 0.59518 0.79665 0.47725
 C1177 C 0.06071 0.29302 -0.05286
 N1178 N 0.04542 0.31402 -0.06096
 N1179 N 0.02641 0.31123 -0.07749
 C1180 C 0.02177 0.28728 -0.08655
 N1181 N 0.03669 0.26605 -0.07808
 N1182 N 0.05596 0.26889 -0.06162
 C1183 C 0.08330 0.29754 -0.03694
 N1184 N 0.10223 0.27850 -0.03214
 N1185 N 0.12417 0.28429 -0.02060
 C1186 C 0.12790 0.30931 -0.01360
 N1187 N 0.10860 0.32797 -0.01779
 N1188 N 0.08679 0.32222 -0.02919
 C1189 C 0.41582 0.28138 0.06058
 N1190 N 0.42222 0.25870 0.07420
 N1191 N 0.44460 0.25612 0.08687
 C1192 C 0.46124 0.27619 0.08650
 N1193 N 0.45508 0.29853 0.07234
 N1194 N 0.43290 0.30100 0.05953
 C1195 C 0.38958 0.28662 0.05025
 N1196 N 0.38393 0.31020 0.03809
 N1197 N 0.35951 0.31733 0.03215
 C1198 C 0.33962 0.30125 0.03813
 N1199 N 0.34531 0.27722 0.04961
 N1200 N 0.36987 0.27007 0.05565
 C1201 C 0.92073 0.78276 0.56786
 N1202 N 0.93216 0.80528 0.57341
 N1203 N 0.95390 0.80452 0.58695
 C1204 C 0.96540 0.78121 0.59509
 N1205 N 0.95443 0.75858 0.58871
 N1206 N 0.93232 0.75934 0.57557
 C1207 C 0.89516 0.78436 0.55568
 N1208 N 0.87685 0.76655 0.56208
 N1209 N 0.85249 0.77026 0.55376
 C1210 C 0.84569 0.79177 0.53851
 N1211 N 0.86422 0.80920 0.53175
 N1212 N 0.88839 0.80569 0.54034
   
