data_POSCAR
  _audit_creation_date              2014-09-24
  _audit_creation_method            'ToBaCCo'
  _symmetry_space_group_name_H-M    'P1'
  _symmetry_Int_Tables_number       1
  _symmetry_cell_setting            triclinic
  loop_
  _symmetry_equiv_pos_as_xyz
 x,y,z
_cell_length_a 42.5095
_cell_length_b 41.6402
_cell_length_c 41.6773
_cell_angle_alpha 89.571700
_cell_angle_beta 90.013800
_cell_angle_gamma 88.862500
loop_
  _atom_site_label
  _atom_site_type_symbol
  _atom_site_fract_x
  _atom_site_fract_y
  _atom_site_fract_z
N1 N 0.62482 0.62433 0.62604
 N2 N 0.87563 0.37573 0.12814
 N3 N 0.37669 0.12826 -0.12469
 N4 N 0.12669 0.86953 0.37411
 N5 N 0.08514 0.17249 0.10942
 N6 N 0.07294 0.15796 0.13446
 C7 C 0.04753 0.17495 0.14445
 C8 C 0.04345 0.20139 0.12442
 C9 C 0.06777 0.19899 0.10243
 H10 H 0.03284 0.16841 0.16453
 H11 H 0.07277 0.21559 0.08312
 Cu12 Cu 0.09123 0.11809 0.15135
 Cu13 Cu 0.12303 0.15649 0.08820
 Cu14 Cu 0.15727 0.08656 0.11887
 N15 N 0.11116 0.07918 0.16862
 N16 N 0.13709 0.06717 0.15594
 C17 C 0.14630 0.04094 0.17276
 C18 C 0.12495 0.03609 0.19732
 C19 C 0.10291 0.06084 0.19390
 H20 H 0.16697 0.02642 0.16742
 H21 H 0.08279 0.06554 0.20913
 N22 N 0.17422 0.10968 0.08151
 N23 N 0.16144 0.13654 0.07008
 C24 C 0.17881 0.14686 0.04516
 C25 C 0.20362 0.12537 0.04056
 C26 C 0.19990 0.10209 0.06403
 H27 H 0.17364 0.16828 0.03117
 H28 H 0.21515 0.08144 0.06840
 H29 H 0.11735 0.10872 0.10004
 H30 H 0.14151 0.13294 0.12801
 N31 N 0.41311 0.82605 0.61249
 N32 N 0.42514 0.83947 0.63804
 C33 C 0.45076 0.82234 0.64746
 C34 C 0.45515 0.79694 0.62658
 C35 C 0.43080 0.80011 0.60464
 H36 H 0.46541 0.82812 0.66774
 H37 H 0.42602 0.78444 0.58473
 Cu38 Cu 0.40639 0.87828 0.65619
 Cu39 Cu 0.37514 0.84283 0.59159
 Cu40 Cu 0.34121 0.91183 0.62375
 N41 N 0.38717 0.91709 0.67389
 N42 N 0.36152 0.92988 0.66116
 C43 C 0.35279 0.95597 0.67803
 C44 C 0.37417 0.95993 0.70269
 C45 C 0.39573 0.93479 0.69926
 H46 H 0.33250 0.97109 0.67257
 H47 H 0.41581 0.92949 0.71444
 N48 N 0.32408 0.89006 0.58599
 N49 N 0.33667 0.86355 0.57396
 C50 C 0.31928 0.85440 0.54871
 C51 C 0.29470 0.87633 0.54452
 C52 C 0.29854 0.89860 0.56859
 H53 H 0.32437 0.83358 0.53411
 H54 H 0.28355 0.91928 0.57331
 H55 H 0.38113 0.88998 0.60477
 H56 H 0.35632 0.86486 0.63164
 N57 N 0.91295 0.67767 0.39180
 N58 N 0.92531 0.66484 0.36588
 C59 C 0.95094 0.68143 0.35742
 C60 C 0.95495 0.70588 0.37932
 C61 C 0.93036 0.70269 0.40083
 H62 H 0.96585 0.67586 0.33713
 H63 H 0.92527 0.71767 0.42133
 Cu64 Cu 0.90692 0.62742 0.34612
 Cu65 Cu 0.87510 0.66115 0.41180
 Cu66 Cu 0.84124 0.59513 0.37627
 N67 N 0.88753 0.59066 0.32618
 N68 N 0.86169 0.57832 0.33787
 C69 C 0.85334 0.55332 0.31963
 C70 C 0.87524 0.54965 0.29525
 C71 C 0.89659 0.57381 0.30021
 H72 H 0.83318 0.53854 0.32417
 H73 H 0.91708 0.57885 0.28583
 N74 N 0.82411 0.61564 0.41523
 N75 N 0.83681 0.64100 0.42847
 C76 C 0.81962 0.64965 0.45424
 C77 C 0.79499 0.62865 0.45755
 C78 C 0.79863 0.60736 0.43241
 H79 H 0.82485 0.66952 0.46975
 H80 H 0.78356 0.58758 0.42680
 H81 H 0.88096 0.61424 0.39658
 H82 H 0.85651 0.64160 0.37059
 N83 N 0.59132 0.31903 -0.10916
 N84 N 0.57920 0.33156 -0.13553
 C85 C 0.55409 0.31440 -0.14423
 C86 C 0.55017 0.28990 -0.12199
 C87 C 0.57428 0.29365 -0.10007
 H88 H 0.53938 0.31967 -0.16483
 H89 H 0.57922 0.27889 -0.07916
 Cu90 Cu 0.59707 0.36953 -0.15531
 Cu91 Cu 0.62827 0.33652 -0.08853
 Cu92 Cu 0.66119 0.40356 -0.12408
 N93 N 0.61580 0.40697 -0.17520
 N94 N 0.64106 0.41997 -0.16311
 C95 C 0.64902 0.44535 -0.18137
 C96 C 0.62747 0.44859 -0.20618
 C97 C 0.60673 0.42377 -0.20146
 H98 H 0.66865 0.46072 -0.17653
 H99 H 0.58662 0.41829 -0.21616
 N100 N 0.67803 0.38333 -0.08452
 N101 N 0.66565 0.35762 -0.07126
 C102 C 0.68250 0.34926 -0.04505
 C103 C 0.70661 0.37078 -0.04147
 C104 C 0.70299 0.39211 -0.06691
 H105 H 0.67742 0.32917 -0.02947
 H106 H 0.71777 0.41223 -0.07245
 H107 H 0.62157 0.38335 -0.10447
 H108 H 0.64727 0.35671 -0.12952
 C109 C -0.05336 0.30175 0.13033
 C110 C -0.06150 0.31737 0.10109
 C111 C -0.08499 0.34154 0.10056
 C112 C -0.10017 0.35096 0.12890
 C113 C -0.09164 0.33606 0.15794
 C114 C -0.06861 0.31169 0.15873
 C115 C -0.02861 0.27555 0.12971
 C116 C -0.02006 0.25726 0.15706
 C117 C 0.00316 0.23314 0.15521
 C118 C 0.01863 0.22676 0.12617
 C119 C 0.01014 0.24468 0.09876
 C120 C -0.01349 0.26866 0.10022
 C121 C -0.04600 0.30901 0.07263
 C122 C -0.02228 0.28543 0.07226
 H123 H -0.05212 0.32109 0.05029
 H124 H -0.01084 0.28003 0.04965
 H125 H -0.09130 0.35341 0.07817
 H126 H -0.10318 0.34312 0.18003
 H127 H 0.00929 0.21975 0.17675
 H128 H 0.02152 0.23957 0.07604
 H129 H -0.06304 0.30112 0.18178
 H130 H -0.03108 0.26102 0.18005
 C131 C 0.55347 0.69789 0.62981
 C132 C 0.56155 0.68331 0.60026
 C133 C 0.58525 0.65936 0.59917
 C134 C 0.60071 0.64917 0.62725
 C135 C 0.59236 0.66318 0.65656
 C136 C 0.56912 0.68729 0.65791
 C137 C 0.52834 0.72371 0.62984
 C138 C 0.51965 0.74084 0.65762
 C139 C 0.49605 0.76461 0.65641
 C140 C 0.48032 0.77184 0.62760
 C141 C 0.48891 0.75508 0.59976
 C142 C 0.51292 0.73142 0.60059
 C143 C 0.54573 0.69242 0.57206
 C144 C 0.52174 0.71573 0.57227
 H145 H 0.55181 0.68116 0.54947
 H146 H 0.51005 0.72174 0.54984
 H147 H 0.59143 0.64820 0.57655
 H148 H 0.60412 0.65554 0.67845
 H149 H 0.48985 0.77707 0.67829
 H150 H 0.47731 0.76083 0.57722
 H151 H 0.56370 0.69710 0.68116
 H152 H 0.53084 0.73640 0.68048
 C153 C 1.05402 0.80025 0.38008
 C154 C 1.06914 0.80652 0.35048
 C155 C 1.09299 0.82932 0.34872
 C156 C 1.10240 0.84588 0.37616
 C157 C 1.08779 0.83930 0.40555
 C158 C 1.06390 0.81685 0.40757
 C159 C 1.02829 0.77610 0.38079
 C160 C 1.01095 0.76899 0.40870
 C161 C 0.98718 0.74634 0.40808
 C162 C 0.98011 0.73002 0.37975
 C163 C 0.99716 0.73700 0.35180
 C164 C 1.02092 0.75997 0.35205
 C165 C 1.06051 0.78993 0.32284
 C166 C 1.03707 0.76701 0.32366
 H167 H 1.07216 0.79465 0.30021
 H168 H 1.03137 0.75475 0.30162
 H169 H 1.10452 0.83406 0.32603
 H170 H 1.09467 0.85192 0.42698
 H171 H 0.97458 0.74136 0.43007
 H172 H 0.99165 0.72496 0.32960
 H173 H 1.05355 0.81289 0.43084
 H174 H 1.01525 0.78068 0.43122
 C175 C 0.45136 0.19529 -0.12023
 C176 C 0.43651 0.18877 -0.14984
 C177 C 0.41223 0.16644 -0.15117
 C178 C 0.40207 0.15072 -0.12330
 C179 C 0.41657 0.15738 -0.09397
 C180 C 0.44093 0.17929 -0.09237
 C181 C 0.47726 0.21925 -0.11986
 C182 C 0.49421 0.22670 -0.09191
 C183 C 0.51791 0.24942 -0.09276
 C184 C 0.52531 0.26545 -0.12141
 C185 C 0.50876 0.25801 -0.14945
 C186 C 0.48506 0.23499 -0.14894
 C187 C 0.44570 0.20481 -0.17785
 C188 C 0.46929 0.22757 -0.17737
 H189 H 0.43428 0.19988 -0.20049
 H190 H 0.47536 0.23949 -0.19967
 H191 H 0.40078 0.16162 -0.17382
 H192 H 0.40906 0.14537 -0.07222
 H193 H 0.53013 0.25474 -0.07071
 H194 H 0.51457 0.26982 -0.17187
 H195 H 0.45107 0.18343 -0.06910
 H196 H 0.48960 0.21530 -0.06913
 C197 C 0.12887 -0.06232 0.29706
 C198 C 0.10016 -0.06916 0.31270
 C199 C 0.09951 -0.09204 0.33760
 C200 C 0.12720 -0.10797 0.34762
 C201 C 0.15560 -0.10114 0.33222
 C202 C 0.15650 -0.07872 0.30722
 C203 C 0.12859 -0.03752 0.27076
 C204 C 0.15569 -0.02952 0.25319
 C205 C 0.15433 -0.00588 0.22930
 C206 C 0.12601 0.01056 0.22230
 C207 C 0.09879 0.00253 0.23940
 C208 C 0.09983 -0.02141 0.26334
 C209 C 0.07239 -0.05278 0.30378
 C210 C 0.07227 -0.02929 0.27977
 H211 H 0.05043 -0.05797 0.31578
 H212 H 0.05021 -0.01709 0.27398
 H213 H 0.07759 -0.09702 0.34978
 H214 H 0.17718 -0.11330 0.33965
 H215 H 0.17575 -0.00014 0.21665
 H216 H 0.07664 0.01465 0.23391
 H217 H 0.17910 -0.07441 0.29645
 H218 H 0.17819 -0.04116 0.25747
 C219 C 0.62301 0.54807 -0.30487
 C220 C 0.65156 0.56353 -0.31212
 C221 C 0.65209 0.58819 -0.33527
 C222 C 0.62442 0.59820 -0.35104
 C223 C 0.59616 0.58304 -0.34373
 C224 C 0.59539 0.55825 -0.32105
 C225 C 0.62343 0.52191 -0.27991
 C226 C 0.59656 0.50437 -0.27167
 C227 C 0.59805 0.48054 -0.24796
 C228 C 0.62628 0.47358 -0.23169
 C229 C 0.65327 0.49068 -0.23992
 C230 C 0.65212 0.51452 -0.26397
 C231 C 0.67927 0.55465 -0.29588
 C232 C 0.67950 0.53084 -0.27217
 H233 H 0.70110 0.56653 -0.30136
 H234 H 0.70151 0.52508 -0.26011
 H235 H 0.67390 0.60018 -0.34061
 H236 H 0.57459 0.59044 -0.35575
 H237 H 0.57680 0.46790 -0.24206
 H238 H 0.67537 0.48521 -0.22791
 H239 H 0.57290 0.54765 -0.31640
 H240 H 0.57414 0.50861 -0.28318
 C241 C 0.37258 1.05853 0.80081
 C242 C 0.40141 1.06455 0.81651
 C243 C 0.40268 1.08781 0.84068
 C244 C 0.37549 1.10499 0.84987
 C245 C 0.34697 1.09893 0.83443
 C246 C 0.34545 1.07608 0.81020
 C247 C 0.37222 1.03346 0.77516
 C248 C 0.34497 1.02620 0.75760
 C249 C 0.34577 1.00249 0.73412
 C250 C 0.37367 0.98525 0.72751
 C251 C 0.40100 0.99239 0.74474
 C252 C 0.40053 1.01639 0.76827
 C253 C 0.42869 1.04711 0.80826
 C254 C 0.42822 1.02344 0.78479
 H255 H 0.45073 1.05167 0.82030
 H256 H 0.44993 1.01048 0.77945
 H257 H 0.42470 1.09221 0.85285
 H258 H 0.32577 1.11208 0.84114
 H259 H 0.32425 0.99742 0.72142
 H260 H 0.42284 0.97959 0.73960
 H261 H 0.32280 1.07248 0.79933
 H262 H 0.32278 1.03850 0.76154
 C263 C 0.87843 0.45118 0.19697
 C264 C 0.84966 0.43627 0.18968
 C265 C 0.84881 0.41186 0.16664
 C266 C 0.87637 0.40159 0.15098
 C267 C 0.90484 0.41626 0.15830
 C268 C 0.90594 0.44076 0.18089
 C269 C 0.87836 0.47704 0.22185
 C270 C 0.90552 0.49393 0.23024
 C271 C 0.90433 0.51752 0.25384
 C272 C 0.87612 0.52490 0.26985
 C273 C 0.84885 0.50843 0.26149
 C274 C 0.84971 0.48481 0.23758
 C275 C 0.82202 0.44546 0.20574
 C276 C 0.82208 0.46906 0.22930
 H277 H 0.80001 0.43402 0.20021
 H278 H 0.80011 0.47510 0.24120
 H279 H 0.82682 0.40028 0.16130
 H280 H 0.92633 0.40870 0.14635
 H281 H 0.92580 0.52965 0.25985
 H282 H 0.82678 0.51420 0.27331
 H283 H 0.92857 0.45097 0.18554
 H284 H 0.92795 0.48935 0.21893
 C285 C 0.30347 0.13087 -0.05454
 C286 C 0.31817 0.10133 -0.06310
 C287 C 0.34219 0.10070 -0.08618
 C288 C 0.35225 0.12917 -0.10069
 C289 C 0.33818 0.15846 -0.09178
 C290 C 0.31405 0.15939 -0.06906
 C291 C 0.27744 0.13038 -0.03023
 C292 C 0.26027 0.15817 -0.02115
 C293 C 0.23627 0.15642 0.00162
 C294 C 0.22884 0.12703 0.01611
 C295 C 0.24565 0.09920 0.00709
 C296 C 0.26958 0.10060 -0.01606
 C297 C 0.30898 0.07264 -0.04846
 C298 C 0.28540 0.07232 -0.02525
 H299 H 0.32033 0.05006 -0.05491
 H300 H 0.27929 0.04949 -0.01450
 H301 H 0.35337 0.07807 -0.09277
 H302 H 0.34569 0.18066 -0.10280
 H303 H 0.22380 0.17831 0.00819
 H304 H 0.23978 0.07624 0.01768
 H305 H 0.30412 0.18264 -0.06321
 H306 H 0.26488 0.18145 -0.03140
 C307 C 0.69745 0.62956 0.55541
 C308 C 0.68274 0.60002 0.56207
 C309 C 0.65910 0.59842 0.58554
 C310 C 0.64943 0.62599 0.60226
 C311 C 0.66372 0.65527 0.59539
 C312 C 0.68745 0.65711 0.57235
 C313 C 0.72281 0.63017 0.53038
 C314 C 0.73972 0.65800 0.52283
 C315 C 0.76309 0.65735 0.49931
 C316 C 0.77017 0.62905 0.48253
 C317 C 0.75354 0.60117 0.48992
 C318 C 0.73021 0.60145 0.51380
 C319 C 0.69146 0.57236 0.54509
 C320 C 0.71451 0.57311 0.52132
 H321 H 0.68012 0.54978 0.55010
 H322 H 0.72025 0.55107 0.50874
 H323 H 0.64779 0.57582 0.59053
 H324 H 0.65660 0.67678 0.60813
 H325 H 0.77536 0.67929 0.49403
 H326 H 0.75910 0.57901 0.47749
 H327 H 0.69748 0.68034 0.56814
 H328 H 0.73541 0.68050 0.53483
 C329 C 0.80281 0.37059 0.05779
 C330 C 0.81735 0.40018 0.06417
 C331 C 0.84093 0.40182 0.08770
 C332 C 0.85070 0.37422 0.10473
 C333 C 0.83644 0.34493 0.09826
 C334 C 0.81277 0.34305 0.07520
 C335 C 0.77773 0.36985 0.03249
 C336 C 0.76119 0.34188 0.02502
 C337 C 0.73817 0.34236 0.00114
 C338 C 0.73104 0.37064 -0.01608
 C339 C 0.74727 0.39869 -0.00876
 C340 C 0.77029 0.39856 0.01546
 C341 C 0.80858 0.42784 0.04677
 C342 C 0.78572 0.42700 0.02281
 H343 H 0.81975 0.45048 0.05158
 H344 H 0.77995 0.44903 0.00990
 H345 H 0.85221 0.42443 0.09239
 H346 H 0.84364 0.32340 0.11126
 H347 H 0.72623 0.32029 -0.00407
 H348 H 0.74169 0.42082 -0.02155
 H349 H 0.80283 0.31980 0.07128
 H350 H 0.76556 0.31937 0.03731
 C351 C 0.19687 0.87568 0.44704
 C352 C 0.18947 0.84559 0.43363
 C353 C 0.16604 0.84368 0.40999
 C354 C 0.15016 0.87145 0.39899
 C355 C 0.15769 0.90123 0.41202
 C356 C 0.18065 0.90341 0.43577
 C357 C 0.22190 0.87667 0.47236
 C358 C 0.23014 0.90516 0.48805
 C359 C 0.25367 0.90488 0.51140
 C360 C 0.26976 0.87629 0.51968
 C361 C 0.26170 0.84774 0.50429
 C362 C 0.23779 0.84767 0.48100
 C363 C 0.20575 0.81769 0.44359
 C364 C 0.22954 0.81875 0.46657
 H365 H 0.20018 0.79468 0.43325
 H366 H 0.24158 0.79651 0.47328
 H367 H 0.16047 0.82068 0.39962
 H368 H 0.14558 0.92289 0.40380
 H369 H 0.25949 0.92731 0.52271
 H370 H 0.27362 0.82539 0.51082
 H371 H 0.18544 0.92702 0.44475
 H372 H 0.21869 0.92793 0.48280
   
