data_POSCAR
  _audit_creation_date              2014-09-24
  _audit_creation_method            'ToBaCCo'
  _symmetry_space_group_name_H-M    'P1'
  _symmetry_Int_Tables_number       1
  _symmetry_cell_setting            triclinic
  loop_
  _symmetry_equiv_pos_as_xyz
 x,y,z
_cell_length_a 19.1058
_cell_length_b 19.2736
_cell_length_c 19.2832
_cell_angle_alpha 90.388000
_cell_angle_beta 90.618700
_cell_angle_gamma 89.504800
loop_
  _atom_site_label
  _atom_site_type_symbol
  _atom_site_fract_x
  _atom_site_fract_y
  _atom_site_fract_z
N1 N 0.16682 0.16333 0.17135
 N2 N -0.16448 0.83565 0.16136
 N3 N -0.16896 0.16503 -0.16496
 N4 N 0.16495 0.83038 -0.16668
 N5 N 0.16081 1.16223 0.83376
 N6 N 0.83650 0.83404 0.83614
 N7 N 0.16469 0.83843 1.16443
 N8 N 0.83453 1.16745 1.16353
 O9 O 0.39975 1.15003 1.09290
 O10 O 0.32379 1.07085 1.04544
 C11 C 0.33736 1.12639 1.08111
 O12 O 0.59382 1.09368 0.84912
 O13 O 0.67144 1.04995 0.92970
 C14 C 0.65679 1.08337 0.87330
 O15 O 0.39640 1.09665 0.85161
 O16 O 0.32167 1.05368 0.93291
 C17 C 0.33427 1.08754 0.87653
 O18 O 0.59634 1.14569 1.09855
 O19 O 0.67303 1.06905 1.04733
 C20 C 0.65904 1.12297 1.08544
 Zr21 Zr 0.49786 1.10530 1.06720
 O22 O 0.50360 1.21285 1.04677
 O23 O 0.49162 1.12594 1.17491
 Zr24 Zr 0.49603 1.07127 0.89506
 O25 O 0.50026 1.18021 0.88220
 O26 O 0.49176 1.05969 0.78608
 O27 O 0.43415 1.10129 0.97862
 O28 O 0.55758 1.10082 0.97869
 O29 O 0.59993 0.90691 1.14318
 O30 O 0.67469 0.95627 1.06563
 C31 C 0.66212 0.92040 1.12058
 O32 O 0.40073 0.85354 0.90357
 O33 O 0.32367 0.93283 0.94991
 C34 C 0.33796 0.87648 0.91569
 O35 O 0.59773 0.85817 0.89763
 O36 O 0.67367 0.93587 0.94768
 C37 C 0.66022 0.88137 0.91030
 O38 O 0.40252 0.89984 1.13895
 O39 O 0.32417 0.95158 1.06377
 C40 C 0.33934 0.91317 1.11693
 Zr41 Zr 0.50016 0.93370 1.10084
 O42 O 0.50444 0.82845 1.13067
 O43 O 0.49394 0.96231 1.20694
 Zr44 Zr 0.49887 0.89879 0.92808
 O45 O 0.50696 0.79113 0.94830
 O46 O 0.49094 0.87794 0.82034
 Zr47 Zr 0.39418 1.00161 0.99770
 Zr48 Zr 0.60191 1.00228 0.99748
 O49 O 0.56010 0.90373 1.01673
 O50 O 0.43763 0.90243 1.01698
 O51 O 0.56172 1.02219 1.09715
 O52 O 0.43672 0.98218 0.89906
 O53 O 0.43811 1.02153 1.09632
 O54 O 0.55954 0.98256 0.89789
 H55 H 0.58879 1.14083 0.97129
 H56 H 0.40497 0.97382 0.85896
 H57 H 0.59234 0.86383 1.02385
 H58 H 0.40662 1.02875 1.13627
 H59 H 0.49678 1.00956 0.77634
 H60 H 0.53227 0.89842 0.79804
 H61 H 0.46828 0.77894 0.97959
 H62 H 0.51154 0.80077 1.08803
 H63 H 0.53927 0.98277 1.22105
 H64 H 0.53051 1.10045 1.19778
 H65 H 0.46658 1.22394 1.01228
 H66 H 0.45373 1.19969 0.89391
 O67 O 0.13474 0.39774 -0.11242
 O68 O 0.06107 0.32254 -0.05829
 C69 C 0.11367 0.33558 -0.09807
 O70 O 0.13667 0.59804 0.11729
 O71 O 0.06596 0.67298 0.05596
 C72 C 0.11596 0.65995 0.10004
 O73 O 0.13957 0.40300 0.11767
 O74 O 0.06875 0.32567 0.05963
 C75 C 0.11930 0.34054 0.10259
 O76 O 0.11526 0.59184 -0.13450
 O77 O 0.05870 0.67014 -0.06379
 C78 C 0.09901 0.65471 -0.11540
 Zr79 Zr 0.08696 0.49531 -0.09072
 O80 O 0.19566 0.50321 -0.10792
 O81 O 0.07041 0.48419 -0.19872
 Zr82 Zr 0.09875 0.49989 0.08414
 O83 O 0.20923 0.50474 0.07870
 O84 O 0.10410 0.49633 0.19385
 O85 O 0.10656 0.43582 -0.00267
 O86 O 0.10564 0.55780 -0.00524
 O87 O -0.12262 0.59399 -0.12221
 O88 O -0.05714 0.67132 -0.05834
 C89 C -0.10378 0.65657 -0.10548
 O90 O -0.11210 0.40496 0.13342
 O91 O -0.05190 0.32685 0.06581
 C92 C -0.09568 0.34224 0.11454
 O93 O -0.10476 0.59854 0.13655
 O94 O -0.05032 0.67294 0.06256
 C95 C -0.08982 0.66021 0.11516
 O96 O -0.13401 0.40025 -0.10756
 O97 O -0.06072 0.32416 -0.05074
 C98 C -0.11397 0.33808 -0.09078
 Zr99 Zr -0.08898 0.49704 -0.08159
 O100 O -0.19923 0.50738 -0.07836
 O101 O -0.09333 0.48609 -0.19085
 Zr102 Zr -0.07799 0.50094 0.09334
 O103 O -0.18861 0.50991 0.09227
 O104 O -0.07808 0.49666 0.20283
 Zr105 Zr 0.00475 0.39459 0.00290
 Zr106 Zr 0.00458 0.60150 -0.00010
 O107 O -0.09649 0.55969 0.00563
 O108 O -0.09716 0.43716 0.00775
 O109 O -0.00181 0.55781 -0.10041
 O110 O 0.01138 0.44058 0.10225
 O111 O -0.00158 0.43481 -0.09811
 O112 O 0.01124 0.56239 0.10157
 H113 H 0.14664 0.58868 -0.00862
 H114 H 0.01422 0.41095 0.14399
 H115 H -0.13702 0.59207 0.00723
 H116 H -0.00372 0.40139 -0.13735
 H117 H 0.08261 0.53958 0.21202
 H118 H -0.03453 0.51908 0.21908
 H119 H -0.20785 0.46455 0.07760
 H120 H -0.21580 0.47606 -0.04173
 H121 H -0.06115 0.52071 -0.21034
 H122 H 0.11758 0.48068 -0.21932
 H123 H 0.21892 0.49707 -0.06236
 H124 H 0.22529 0.46466 0.05053
 O125 O 1.12672 -0.11906 0.40434
 O126 O 1.05867 -0.05713 0.32732
 C127 C 1.10682 -0.10283 0.34185
 O128 O 0.87536 -0.12726 0.59651
 O129 O 0.93985 -0.06188 0.67321
 C130 C 0.89270 -0.10795 0.65889
 O131 O 0.88640 -0.13835 0.40250
 O132 O 0.94294 -0.06695 0.32708
 C133 C 0.90216 -0.11842 0.34047
 O134 O 1.13784 -0.10553 0.59901
 O135 O 1.06211 -0.05216 0.67465
 C136 C 1.11638 -0.09060 0.66101
 Zr137 Zr 1.09289 -0.07965 0.50151
 O138 O 1.10497 -0.18841 0.51119
 O139 O 1.20262 -0.06936 0.49280
 Zr140 Zr 0.91721 -0.09667 0.50030
 O141 O 0.93517 -0.20479 0.51048
 O142 O 0.80853 -0.11474 0.49142
 O143 O 1.00612 -0.10216 0.43904
 O144 O 1.00641 -0.10021 0.56168
 O145 O 1.10315 0.13764 0.59902
 O146 O 1.05262 0.06214 0.67489
 C147 C 1.09083 0.11556 0.66122
 O148 O 0.85970 0.11131 0.40134
 O149 O 0.93194 0.05276 0.32617
 C150 C 0.88082 0.09533 0.33945
 O151 O 0.85725 0.11008 0.59621
 O152 O 0.93060 0.05426 0.67315
 C153 C 0.87834 0.09525 0.65861
 O154 O 1.09814 0.13971 0.40408
 O155 O 1.04758 0.06296 0.32748
 C156 C 1.08473 0.11732 0.34174
 Zr157 Zr 1.07463 0.09463 0.50094
 O158 O 1.07519 0.20420 0.50359
 O159 O 1.18532 0.09551 0.49593
 Zr160 Zr 0.89829 0.07805 0.49934
 O161 O 0.88601 0.18721 0.50450
 O162 O 0.78839 0.06558 0.49213
 Zr163 Zr 0.99546 -0.00155 0.39748
 Zr164 Zr 0.99603 0.00024 0.60391
 O165 O 0.98515 0.09963 0.56003
 O166 O 0.98482 0.09957 0.43859
 O167 O 1.09764 0.00959 0.56338
 O168 O 0.89486 -0.01109 0.43964
 O169 O 1.09647 0.00820 0.44068
 O170 O 0.89433 -0.00973 0.56145
 H171 H 1.01024 -0.13987 0.59398
 H172 H 0.85369 -0.01524 0.40824
 H173 H 0.98031 0.14099 0.59042
 H174 H 1.13660 0.01161 0.40878
 H175 H 0.78476 -0.07411 0.51234
 H176 H 0.77307 0.04135 0.53435
 H177 H 0.91248 0.20706 0.46563
 H178 H 1.02566 0.21932 0.50363
 H179 H 1.20387 0.08674 0.54321
 H180 H 1.21782 -0.03532 0.52837
 H181 H 1.07328 -0.21017 0.47668
 H182 H 0.95324 -0.22250 0.46577
 C183 C 1.13202 0.12536 0.22430
 C184 C 1.11428 0.15635 0.28388
 H185 H 1.12587 0.06975 0.21830
 H186 H 1.12673 0.21058 0.29198
 C187 C 0.86930 -0.12926 0.21789
 C188 C 0.87015 -0.15584 0.28168
 H189 H 0.89092 -0.07839 0.20856
 H190 H 0.84393 -0.20434 0.29135
 C191 C 0.86366 0.12470 0.78174
 C192 C 0.84176 0.12988 0.71600
 H193 H 0.90964 0.09404 0.79494
 H194 H 0.79787 0.16375 0.70367
 C195 C 1.12510 -0.14070 0.77699
 C196 C 1.15653 -0.11950 0.71943
 H197 H 1.06845 -0.13955 0.78002
 H198 H 1.21246 -0.12703 0.71389
 C199 C 0.22199 1.12904 1.13432
 C200 C 0.27854 1.16327 1.11321
 H201 H 0.22006 1.07308 1.12824
 H202 H 0.28478 1.21763 1.12548
 C203 C 0.22194 0.86891 0.86261
 C204 C 0.27920 0.83678 0.88714
 H205 H 0.21971 0.92516 0.86124
 H206 H 0.28438 0.78095 0.88221
 C207 C 0.78000 0.87061 1.12515
 C208 C 0.72217 0.89080 1.15841
 H209 H 0.78235 0.87475 1.06913
 H210 H 0.71706 0.88009 1.21319
 C211 C 0.77118 1.13824 0.86997
 C212 C 0.71563 1.11290 0.83551
 H213 H 0.77075 1.14013 0.92622
 H214 H 0.71199 1.11654 0.77966
 C215 C 0.12973 0.21923 0.13858
 C216 C 0.15569 0.28328 0.13799
 H217 H 0.07912 0.20859 0.11507
 H218 H 0.20360 0.29441 0.16623
 C219 C -0.12792 0.21759 -0.13140
 C220 C -0.15543 0.28037 -0.11924
 H221 H -0.07264 0.20814 -0.12187
 H222 H -0.20908 0.29085 -0.13501
 C223 C 0.13549 0.77533 -0.12747
 C224 C 0.12815 0.71213 -0.15522
 H225 H 0.12320 0.78468 -0.07342
 H226 H 0.14606 0.70216 -0.20750
 C227 C -0.12739 0.78181 0.12554
 C228 C -0.12052 0.71891 0.15340
 H229 H -0.11088 0.79076 0.07275
 H230 H -0.14239 0.70912 0.20391
 C231 C 1.13663 0.12301 0.77969
 C232 C 1.11852 0.15356 0.71647
 H233 H 1.14358 0.06703 0.78079
 H234 H 1.13338 0.20696 0.70793
 C235 C 0.87683 -0.13585 0.78221
 C236 C 0.85437 -0.13924 0.71647
 H237 H 0.92674 -0.11251 0.79515
 H238 H 0.80613 -0.16630 0.70470
 C239 C 1.13399 -0.12068 0.21845
 C240 C 1.14036 -0.14058 0.28439
 H241 H 1.10623 -0.07330 0.20501
 H242 H 1.17107 -0.18660 0.29632
 C243 C 0.87347 0.13795 0.22005
 C244 C 0.84276 0.12648 0.28072
 H245 H 0.92903 0.12799 0.21401
 H246 H 0.78877 0.14238 0.28787
 C247 C 0.12137 0.21674 -0.14289
 C248 C 0.15207 0.28001 -0.12498
 H249 H 0.06492 0.21586 -0.14989
 H250 H 0.20582 0.28858 -0.13994
 C251 C -0.13497 0.22212 0.12462
 C252 C -0.12734 0.28508 0.15272
 H253 H -0.12145 0.21264 0.07090
 H254 H -0.14649 0.29507 0.20457
 C255 C -0.13200 0.78006 -0.12340
 C256 C -0.13724 0.71395 -0.14376
 H257 H -0.10453 0.79373 -0.07586
 H258 H -0.16738 0.70180 -0.19013
 C259 C 0.12527 0.78234 0.13545
 C260 C 0.15360 0.71887 0.13112
 H261 H 0.07131 0.79138 0.11975
 H262 H 0.20572 0.70994 0.15210
 C263 C 0.21730 1.13981 0.87154
 C264 C 0.27782 1.11488 0.83920
 H265 H 0.21990 1.15074 0.92684
 H266 H 0.28419 1.12509 0.78442
 C267 C 0.22075 0.86665 1.12517
 C268 C 0.28127 0.88354 1.15591
 H269 H 0.21483 0.87077 1.06933
 H270 H 0.28893 0.87318 1.21063
 C271 C 0.77759 1.12933 1.13375
 C272 C 0.71804 1.16141 1.11547
 H273 H 0.78198 1.07330 1.12973
 H274 H 0.71173 1.21645 1.12564
 C275 C 0.77940 0.87323 0.86449
 C276 C 0.71956 0.84229 0.88117
 H277 H 0.78390 0.92915 0.86892
 H278 H 0.71330 0.78739 0.87069
   
