data_POSCAR
  _audit_creation_date              2014-09-24
  _audit_creation_method            'ToBaCCo'
  _symmetry_space_group_name_H-M    'P1'
  _symmetry_Int_Tables_number       1
  _symmetry_cell_setting            triclinic
  loop_
  _symmetry_equiv_pos_as_xyz
 x,y,z
_cell_length_a 39.0722
_cell_length_b 38.9962
_cell_length_c 38.9641
_cell_angle_alpha 75.129900
_cell_angle_beta 94.240900
_cell_angle_gamma 79.200500
loop_
  _atom_site_label
  _atom_site_type_symbol
  _atom_site_fract_x
  _atom_site_fract_y
  _atom_site_fract_z
O1 O 0.55155 0.48047 0.02915
 O2 O 0.45682 0.48491 0.03104
 O3 O 0.51004 0.43521 0.02854
 O4 O 0.49765 0.53089 0.03031
 O5 O 0.48932 0.54831 -0.02874
 O6 O 0.50152 0.45317 -0.03051
 O7 O 0.44793 0.50271 -0.02793
 O8 O 0.54289 0.49802 -0.02988
 Cu9 Cu 0.50493 0.48117 0.03568
 Cu10 Cu 0.49451 0.50239 -0.03516
 C11 C 0.56348 0.48845 -0.00067
 C12 C 0.43610 0.49415 0.00195
 C13 C 0.50764 0.42790 -0.00141
 C14 C 0.49154 0.55596 0.00100
 O15 O -0.03647 0.56217 0.49387
 O16 O -0.02883 0.46404 0.50488
 O17 O -0.03242 0.50575 0.54777
 O18 O -0.03392 0.52068 0.45057
 O19 O 0.02373 0.51381 0.45649
 O20 O 0.02540 0.49664 0.55435
 O21 O 0.02889 0.45632 0.50984
 O22 O 0.02126 0.55362 0.50117
 Cu23 Cu -0.03868 0.51395 0.49861
 Cu24 Cu 0.03060 0.50424 0.50606
 C25 C -0.00881 0.57466 0.49626
 C26 C 0.00139 0.44348 0.50882
 C27 C -0.00338 0.49887 0.56771
 C28 C -0.00540 0.51979 0.43684
 O29 O 0.49550 0.02912 0.53332
 O30 O 0.49257 0.03342 0.43740
 O31 O 0.44678 0.03099 0.48289
 O32 O 0.54067 0.03293 0.48722
 O33 O 0.55433 -0.02694 0.50222
 O34 O 0.46016 -0.02880 0.49592
 O35 O 0.50705 -0.02642 0.45174
 O36 O 0.50765 -0.03066 0.54700
 Cu37 Cu 0.49249 0.03762 0.48387
 Cu38 Cu 0.50864 -0.03420 0.50068
 C39 C 0.50175 -0.00159 0.55665
 C40 C 0.49978 0.00411 0.42824
 C41 C 0.43735 0.00079 0.48850
 C42 C 0.56358 0.00341 0.49523
 C43 C 0.50087 -0.02224 0.00710
 C44 C 0.50073 0.00744 -0.02037
 C45 C 0.50194 0.00478 -0.05749
 C46 C 0.50020 0.04384 -0.01492
 C47 C 0.50164 -0.02077 0.04479
 C48 C 0.50013 -0.05796 0.00078
 C49 C 0.53217 -0.01435 -0.06706
 C50 C 0.53389 -0.01475 -0.10267
 C51 C 0.50523 0.00358 -0.12905
 C52 C 0.47481 0.02220 -0.11922
 C53 C 0.47334 0.02310 -0.08376
 C54 C 0.52578 0.06282 -0.02807
 C55 C 0.52562 0.09723 -0.02367
 C56 C 0.49979 0.11346 -0.00610
 C57 C 0.47408 0.09450 0.00703
 C58 C 0.47411 0.06009 0.00238
 C59 C 0.47522 -0.03195 0.06458
 C60 C 0.47552 -0.03102 0.10015
 C61 C 0.50249 -0.01922 0.11679
 C62 C 0.52911 -0.00822 0.09694
 C63 C 0.52876 -0.00913 0.06127
 C64 C 0.47064 -0.06322 -0.01841
 C65 C 0.46957 -0.09755 -0.02266
 C66 C 0.49812 -0.12697 -0.00808
 C67 C 0.52774 -0.12144 0.01077
 C68 C 0.52858 -0.08728 0.01543
 H69 H 0.55458 -0.02832 -0.04707
 H70 H 0.55754 -0.02938 -0.10965
 H71 H 0.45253 0.03680 -0.13918
 H72 H 0.44994 0.03817 -0.07676
 H73 H 0.54612 0.05081 -0.04152
 H74 H 0.54596 0.11103 -0.03372
 H75 H 0.45367 0.04626 0.01205
 H76 H 0.45409 -0.04102 0.05230
 H77 H 0.45439 -0.03918 0.11453
 H78 H 0.55053 0.00045 0.10917
 H79 H 0.54973 -0.00101 0.04658
 H80 H 0.44832 -0.04088 -0.02957
 H81 H 0.44653 -0.10113 -0.03743
 H82 H 0.54990 -0.14378 0.02258
 H83 H 0.55141 -0.08365 0.03051
 H84 H 0.45358 0.10660 0.02021
 C85 C -0.01231 0.49931 0.99381
 C86 C 0.01248 0.50186 1.01882
 C87 C 0.04922 0.50209 1.01173
 C88 C 0.00429 0.50461 1.05464
 C89 C -0.04913 0.49901 1.00066
 C90 C -0.00410 0.49668 0.95791
 C91 C 0.07027 0.47246 1.00383
 C92 C 0.10507 0.47293 0.99788
 C93 C 0.11934 0.50306 0.99970
 C94 C 0.09814 0.53261 1.00767
 C95 C 0.06348 0.53201 1.01384
 C96 C 0.02083 0.47682 1.08509
 C97 C 0.01424 0.47928 1.11919
 C98 C -0.00852 0.50994 1.12346
 C99 C -0.02491 0.53793 1.09291
 C100 C -0.01871 0.53518 1.05869
 C101 C -0.07652 0.52507 0.97766
 C102 C -0.11146 0.52379 0.98178
 C103 C -0.11980 0.49615 1.00881
 C104 C -0.09227 0.47037 1.03228
 C105 C -0.05721 0.47172 1.02816
 C106 C 0.00626 0.52517 0.93384
 C107 C 0.01176 0.52307 0.89929
 C108 C 0.00700 0.49241 0.88825
 C109 C -0.00269 0.46367 0.91285
 C110 C -0.00846 0.46595 0.94719
 H111 H 0.05981 0.44893 1.00254
 H112 H 0.12077 0.44986 0.99162
 H113 H 0.10858 0.55593 1.00978
 H114 H 0.04768 0.55500 1.02015
 H115 H 0.03883 0.45318 1.08238
 H116 H 0.02748 0.45755 1.14233
 H117 H -0.03143 0.55701 1.03541
 H118 H -0.07079 0.54631 0.95627
 H119 H -0.13200 0.54444 0.96368
 H120 H -0.09782 0.44850 1.05309
 H121 H -0.03641 0.45095 1.04576
 H122 H 0.00928 0.54932 0.94156
 H123 H 0.01871 0.54590 0.88090
 H124 H -0.00591 0.43938 0.90556
 H125 H -0.01640 0.44370 0.96549
 H126 H -0.04264 0.56177 1.09555
 C127 C 0.01360 -0.00496 0.50364
 C128 C -0.01407 0.02054 0.50662
 C129 C -0.05020 0.01390 0.50631
 C130 C -0.00982 0.05645 0.51027
 C131 C 0.04971 0.00173 0.50302
 C132 C 0.00935 -0.04112 0.50055
 C133 C -0.06684 0.00638 0.47675
 C134 C -0.10101 0.00040 0.47687
 C135 C -0.11906 0.00189 0.50655
 C136 C -0.10233 0.00963 0.53598
 C137 C -0.06829 0.01579 0.53575
 C138 C -0.02756 0.08801 0.48414
 C139 C -0.02465 0.12217 0.48748
 C140 C -0.00441 0.12540 0.51736
 C141 C 0.01316 0.09374 0.54370
 C142 C 0.01061 0.05948 0.54010
 C143 C 0.07703 -0.02223 0.52796
 C144 C 0.11162 -0.01811 0.52638
 C145 C 0.11966 0.00990 0.49953
 C146 C 0.09214 0.03428 0.47485
 C147 C 0.05745 0.03013 0.47649
 C148 C -0.00279 -0.06517 0.52791
 C149 C -0.00499 -0.09980 0.52521
 C150 C 0.00502 -0.11100 0.49514
 C151 C 0.01672 -0.08653 0.46764
 C152 C 0.01907 -0.05207 0.47046
 H153 H -0.05339 0.00527 0.45360
 H154 H -0.11322 -0.00568 0.45391
 H155 H -0.11582 0.01152 0.55895
 H156 H -0.05590 0.02182 0.55868
 H157 H -0.04362 0.08613 0.46109
 H158 H -0.03882 0.14614 0.46704
 H159 H 0.02417 0.03536 0.56071
 H160 H 0.07155 -0.04433 0.54859
 H161 H 0.13212 -0.03694 0.54614
 H162 H 0.09757 0.05583 0.45361
 H163 H 0.03677 0.04847 0.45656
 H164 H -0.00989 -0.05735 0.55160
 H165 H -0.01360 -0.11815 0.54710
 H166 H 0.02406 -0.09402 0.44387
 H167 H 0.02848 -0.03383 0.44909
 H168 H 0.02899 0.09555 0.56693
 C169 C -0.38462 0.49412 0.96578
 C170 C -0.34874 0.49299 0.96497
 C171 C -0.32580 0.48491 0.99680
 C172 C -0.33946 0.47707 1.02970
 C173 C -0.37537 0.47809 1.03051
 C174 C -0.39839 0.48682 0.99855
 C175 C -0.28799 0.48435 0.99427
 C176 C -0.26567 0.48869 1.01997
 C177 C -0.22828 0.48989 1.01634
 C178 C -0.20447 0.48279 1.04742
 C179 C -0.16922 0.48452 1.04514
 C180 C -0.15707 0.49375 1.01162
 C181 C -0.18093 0.50101 0.98052
 C182 C -0.21610 0.49933 0.98278
 H183 H -0.40157 0.50077 0.94066
 H184 H -0.33892 0.49885 0.93928
 H185 H -0.32260 0.46958 1.05490
 H186 H -0.38510 0.47202 1.05623
 H187 H -0.27872 0.48113 0.96958
 H188 H -0.27480 0.49166 1.04479
 H189 H -0.21319 0.47589 1.07360
 H190 H -0.15161 0.47924 1.06958
 H191 H -0.17237 0.50789 0.95428
 H192 H -0.23361 0.50621 0.95807
 C193 C 0.38706 0.48358 1.03589
 C194 C 0.35168 0.48223 1.03694
 C195 C 0.32829 0.49196 1.00527
 C196 C 0.34110 0.50289 0.97226
 C197 C 0.37658 0.50410 0.97113
 C198 C 0.40015 0.49430 1.00294
 C199 C 0.29123 0.48897 1.00786
 C200 C 0.26441 0.50807 0.98263
 C201 C 0.22741 0.50564 0.98650
 C202 C 0.20054 0.53600 0.96966
 C203 C 0.16544 0.53507 0.97365
 C204 C 0.15644 0.50351 0.99414
 C205 C 0.18322 0.47269 1.01002
 C206 C 0.21836 0.47371 1.00626
 H207 H 0.40420 0.47572 1.06102
 H208 H 0.34254 0.47352 1.06270
 H209 H 0.32411 0.50965 0.94721
 H210 H 0.38556 0.51228 0.94521
 H211 H 0.28578 0.47178 1.03255
 H212 H 0.26917 0.52801 0.95949
 H213 H 0.20679 0.56074 0.95392
 H214 H 0.14528 0.55904 0.96064
 H215 H 0.17706 0.44801 1.02598
 H216 H 0.23828 0.44940 1.01867
 C217 C -0.04422 -0.36430 0.48865
 C218 C -0.04644 -0.32788 0.48794
 C219 C -0.01596 -0.31452 0.49255
 C220 C 0.01694 -0.33858 0.49818
 C221 C 0.01921 -0.37486 0.49866
 C222 C -0.01132 -0.38838 0.49414
 C223 C -0.01959 -0.27599 0.49294
 C224 C 0.00649 -0.25792 0.48746
 C225 C 0.00426 -0.21989 0.48901
 C226 C 0.03132 -0.20268 0.47683
 C227 C 0.03144 -0.16745 0.47871
 C228 C 0.00440 -0.14837 0.49285
 C229 C -0.02274 -0.16549 0.50514
 C230 C -0.02280 -0.20090 0.50340
 H231 H -0.06839 -0.37355 0.48516
 H232 H -0.07213 -0.31008 0.48388
 H233 H 0.04112 -0.33001 0.50321
 H234 H 0.04507 -0.39246 0.50333
 H235 H -0.04501 -0.26216 0.49697
 H236 H 0.03084 -0.27117 0.48057
 H237 H 0.05271 -0.21667 0.46600
 H238 H 0.05315 -0.15541 0.46969
 H239 H -0.04406 -0.15146 0.51599
 H240 H -0.04380 -0.21317 0.51389
 C241 C 0.03649 0.38349 0.50684
 C242 C 0.03918 0.34710 0.50744
 C243 C 0.01039 0.33061 0.51346
 C244 C -0.02139 0.35135 0.51861
 C245 C -0.02424 0.38794 0.51751
 C246 C 0.00465 0.40442 0.51150
 C247 C 0.01368 0.29263 0.51185
 C248 C -0.00465 0.26990 0.53018
 C249 C -0.00239 0.23252 0.52703
 C250 C -0.00821 0.20552 0.55626
 C251 C -0.00786 0.17039 0.55350
 C252 C -0.00242 0.16185 0.52115
 C253 C 0.00341 0.18885 0.49189
 C254 C 0.00351 0.22380 0.49478
 H255 H 0.05915 0.39546 0.50190
 H256 H 0.06382 0.33178 0.50307
 H257 H -0.04438 0.33975 0.52237
 H258 H -0.04915 0.40340 0.52105
 H259 H 0.03276 0.28283 0.49587
 H260 H -0.02103 0.27841 0.54902
 H261 H -0.01317 0.21169 0.58124
 H262 H -0.01284 0.15017 0.57630
 H263 H 0.00768 0.18293 0.46667
 H264 H 0.00716 0.24419 0.47142
 C265 C 0.50561 -0.03728 -0.38110
 C266 C 0.50463 -0.03921 -0.34490
 C267 C 0.50080 -0.00769 -0.33335
 C268 C 0.49730 0.02607 -0.35875
 C269 C 0.49761 0.02816 -0.39510
 C270 C 0.50184 -0.00352 -0.40681
 C271 C 0.49903 -0.01070 -0.29496
 C272 C 0.51194 0.01109 -0.27830
 C273 C 0.51025 0.00781 -0.23984
 C274 C 0.53746 0.01584 -0.21977
 C275 C 0.53623 0.01364 -0.18353
 C276 C 0.50729 0.00422 -0.16695
 C277 C 0.47985 -0.00343 -0.18710
 C278 C 0.48137 -0.00185 -0.22318
 H279 H 0.50876 -0.06233 -0.38889
 H280 H 0.50710 -0.06548 -0.32579
 H281 H 0.49347 0.05096 -0.35069
 H282 H 0.49449 0.05468 -0.41396
 H283 H 0.48850 -0.03280 -0.27963
 H284 H 0.52582 0.03068 -0.29271
 H285 H 0.55980 0.02365 -0.23216
 H286 H 0.55748 0.02010 -0.16861
 H287 H 0.45725 -0.01068 -0.17487
 H288 H 0.45957 -0.00734 -0.23818
 C289 C 0.48849 0.03819 0.36300
 C290 C 0.48919 0.03906 0.32694
 C291 C 0.50145 0.00716 0.31710
 C292 C 0.51375 -0.02560 0.34424
 C293 C 0.51283 -0.02650 0.38019
 C294 C 0.50014 0.00534 0.39000
 C295 C 0.50190 0.00928 0.27855
 C296 C 0.50241 -0.01953 0.26558
 C297 C 0.50259 -0.01815 0.22719
 C298 C 0.49349 -0.04694 0.21576
 C299 C 0.49358 -0.04731 0.18005
 C300 C 0.50292 -0.01888 0.15484
 C301 C 0.51254 0.00976 0.16627
 C302 C 0.51252 0.01011 0.20208
 H303 H 0.47873 0.06322 0.36970
 H304 H 0.47993 0.06472 0.30664
 H305 H 0.52474 -0.05056 0.33807
 H306 H 0.52253 -0.05215 0.40037
 H307 H 0.50008 0.03586 0.26036
 H308 H 0.50101 -0.04533 0.28353
 H309 H 0.48619 -0.06930 0.23455
 H310 H 0.48671 -0.07014 0.17227
 H311 H 0.51976 0.03212 0.14744
 H312 H 0.52073 0.03231 0.20985
 C313 C 0.48422 -0.39564 0.03330
 C314 C 0.48129 -0.35939 0.03351
 C315 C 0.48229 -0.33259 0.00195
 C316 C 0.48493 -0.34244 -0.03018
 C317 C 0.48746 -0.37856 -0.03048
 C318 C 0.48751 -0.40563 0.00131
 C319 C 0.48009 -0.29464 0.00322
 C320 C 0.49634 -0.27189 -0.01823
 C321 C 0.49583 -0.23452 -0.01594
 C322 C 0.52496 -0.21928 -0.02450
 C323 C 0.52566 -0.18429 -0.02207
 C324 C 0.49688 -0.16358 -0.01176
 C325 C 0.46727 -0.17839 -0.00418
 C326 C 0.46677 -0.21361 -0.00611
 H327 H 0.48392 -0.41584 0.05817
 H328 H 0.47891 -0.35237 0.05851
 H329 H 0.48472 -0.32225 -0.05518
 H330 H 0.48975 -0.38533 -0.05560
 H331 H 0.46682 -0.28615 0.02406
 H332 H 0.51271 -0.28168 -0.03644
 H333 H 0.54748 -0.23474 -0.03252
 H334 H 0.54863 -0.17329 -0.02843
 H335 H 0.44478 -0.16294 0.00388
 H336 H 0.44353 -0.22423 -0.00026
 C337 C 0.51508 0.38104 -0.03518
 C338 C 0.51729 0.34539 -0.03689
 C339 C 0.51528 0.31783 -0.00636
 C340 C 0.51233 0.32635 0.02643
 C341 C 0.51050 0.36202 0.02824
 C342 C 0.51142 0.38980 -0.00266
 C343 C 0.51682 0.28070 -0.00991
 C344 C 0.50131 0.25652 0.01075
 C345 C 0.50101 0.22012 0.00566
 C346 C 0.49426 0.19291 0.03417
 C347 C 0.49358 0.15831 0.03039
 C348 C 0.49955 0.15028 -0.00208
 C349 C 0.50558 0.17767 -0.03083
 C350 C 0.50610 0.21224 -0.02715
 H351 H 0.51614 0.40177 -0.05940
 H352 H 0.51992 0.33945 -0.06237
 H353 H 0.51180 0.30557 0.05075
 H354 H 0.50788 0.36793 0.05372
 H355 H 0.53015 0.27397 -0.03141
 H356 H 0.48807 0.26346 0.03227
 H357 H 0.48986 0.19833 0.05958
 H358 H 0.48898 0.13766 0.05305
 H359 H 0.50939 0.17249 -0.05644
 H360 H 0.50982 0.23269 -0.05036
 C361 C -0.38847 0.03800 0.48546
 C362 C -0.35307 0.03920 0.48438
 C363 C -0.32708 0.00708 0.49387
 C364 C -0.33727 -0.02648 0.50421
 C365 C -0.37274 -0.02769 0.50516
 C366 C -0.39874 0.00454 0.49571
 C367 C -0.29000 0.00980 0.49128
 C368 C -0.26253 -0.01590 0.51011
 C369 C -0.22573 -0.01189 0.50807
 C370 C -0.20055 -0.02912 0.53810
 C371 C -0.16584 -0.02494 0.53753
 C372 C -0.15551 -0.00384 0.50666
 C373 C -0.18044 0.01242 0.47617
 C374 C -0.21520 0.00844 0.47683
 H375 H -0.40783 0.06334 0.47782
 H376 H -0.34596 0.06537 0.47609
 H377 H -0.31811 -0.05187 0.51073
 H378 H -0.37983 -0.05391 0.51287
 H379 H -0.28539 0.03497 0.47465
 H380 H -0.26697 -0.03951 0.52951
 H381 H -0.20792 -0.04531 0.56231
 H382 H -0.14702 -0.03827 0.56121
 H383 H -0.17321 0.02885 0.45203
 H384 H -0.23365 0.02113 0.45279
 C385 C 0.38857 -0.03302 0.49208
 C386 C 0.35290 -0.03375 0.49097
 C387 C 0.32738 -0.00153 0.48477
 C388 C 0.33826 0.03171 0.47866
 C389 C 0.37395 0.03245 0.47969
 C390 C 0.39951 0.00008 0.48666
 C391 C 0.28994 -0.00397 0.48443
 C392 C 0.26469 0.02138 0.49067
 C393 C 0.22766 0.01771 0.49218
 C394 C 0.20125 0.04916 0.48668
 C395 C 0.16614 0.04678 0.48877
 C396 C 0.15677 0.01280 0.49680
 C397 C 0.18322 -0.01867 0.50249
 C398 C 0.21825 -0.01632 0.50042
 H399 H 0.40756 -0.05843 0.49733
 H400 H 0.34524 -0.05969 0.49545
 H401 H 0.31945 0.05728 0.47259
 H402 H 0.38151 0.05844 0.47505
 H403 H 0.28346 -0.02833 0.47981
 H404 H 0.27101 0.04588 0.49506
 H405 H 0.20782 0.07567 0.48073
 H406 H 0.14641 0.07148 0.48470
 H407 H 0.17682 -0.04525 0.50845
 H408 H 0.23777 -0.04134 0.50606
 C409 C 0.02395 0.52993 1.38103
 C410 C 0.02348 0.53354 1.34432
 C411 C -0.00680 0.53169 1.32375
 C412 C -0.03716 0.52765 1.34028
 C413 C -0.03683 0.52445 1.37687
 C414 C -0.00614 0.52507 1.39775
 C415 C -0.00593 0.53410 1.28528
 C416 C -0.02450 0.51648 1.26807
 C417 C -0.02147 0.51615 1.23051
 C418 C -0.02569 0.48513 1.22017
 C419 C -0.02182 0.48326 1.18529
 C420 C -0.01441 0.51274 1.15984
 C421 C -0.01142 0.54434 1.16976
 C422 C -0.01476 0.54600 1.20484
 H423 H 0.04792 0.53078 1.39632
 H424 H 0.04708 0.53699 1.33211
 H425 H -0.06126 0.52718 1.32498
 H426 H -0.06051 0.52096 1.38890
 H427 H 0.01268 0.54828 1.27167
 H428 H -0.04025 0.49915 1.28278
 H429 H -0.03124 0.46195 1.23936
 H430 H -0.02461 0.45876 1.17816
 H431 H -0.00569 0.56741 1.15059
 H432 H -0.01227 0.57067 1.21175
 C433 C -0.03521 0.49858 0.62115
 C434 C -0.03550 0.49589 0.65754
 C435 C -0.00401 0.48897 0.68039
 C436 C 0.02804 0.48374 0.66611
 C437 C 0.02832 0.48651 0.62959
 C438 C -0.00333 0.49424 0.60667
 C439 C -0.00616 0.48697 0.71873
 C440 C 0.02010 0.48970 0.74147
 C441 C 0.01662 0.48931 0.77929
 C442 C 0.03985 0.50429 0.79730
 C443 C 0.03699 0.50514 0.83268
 C444 C 0.01085 0.49085 0.85093
 C445 C -0.01197 0.47524 0.83311
 C446 C -0.00896 0.47417 0.79790
 H447 H -0.06008 0.50448 0.60430
 H448 H -0.06055 0.49971 0.66779
 H449 H 0.05298 0.47721 0.68287
 H450 H 0.05334 0.48273 0.61929
 H451 H -0.03145 0.48526 0.72778
 H452 H 0.04449 0.49455 0.73182
 H453 H 0.06011 0.51571 0.78383
 H454 H 0.05542 0.51677 0.84580
 H455 H -0.03260 0.46424 0.84619
 H456 H -0.02664 0.46116 0.78567
   
