data_POSCAR
  _audit_creation_date              2014-09-24
  _audit_creation_method            'ToBaCCo'
  _symmetry_space_group_name_H-M    'P1'
  _symmetry_Int_Tables_number       1
  _symmetry_cell_setting            triclinic
  loop_
  _symmetry_equiv_pos_as_xyz
 x,y,z
_cell_length_a 14.2876
_cell_length_b 14.3387
_cell_length_c 25.2337
_cell_angle_alpha 90.127800
_cell_angle_beta 90.287100
_cell_angle_gamma 91.860700
loop_
  _atom_site_label
  _atom_site_type_symbol
  _atom_site_fract_x
  _atom_site_fract_y
  _atom_site_fract_z
C1 C -0.03082 0.21497 1.02723
 C2 C -0.03089 0.21433 0.97282
 C3 C -0.01037 0.30519 0.95700
 N4 N 0.00267 0.36117 0.99975
 C5 C -0.01021 0.30620 1.04271
 C6 C 0.00465 0.33361 0.90414
 C7 C 0.01848 0.42775 0.88952
 C8 C 0.06087 0.45827 0.84320
 C9 C 0.05731 0.55411 0.84323
 C10 C 0.00980 0.57913 0.88877
 N11 N -0.01238 0.50147 0.91703
 C12 C -0.01487 0.67068 0.90348
 C13 C -0.04201 0.68909 0.95622
 C14 C -0.10007 0.75979 0.97158
 C15 C -0.09993 0.76033 1.02583
 C16 C -0.04156 0.69012 1.04175
 N17 N -0.00744 0.64535 0.99914
 C18 C -0.01369 0.67294 1.09470
 C19 C 0.01152 0.58173 1.10969
 C20 C 0.06010 0.55761 1.15523
 C21 C 0.06331 0.46173 1.15574
 C22 C 0.01985 0.43026 1.10961
 N23 N -0.01134 0.50346 1.08177
 C24 C 0.00514 0.33583 1.09549
 H25 H -0.04233 0.15477 1.05246
 H26 H -0.04253 0.15357 0.94782
 H27 H -0.05419 0.49943 1.04824
 H28 H 0.09242 0.41598 0.81298
 H29 H 0.08704 0.59963 0.81316
 H30 H -0.13763 0.80665 0.94619
 H31 H -0.13745 0.80770 1.05083
 H32 H 0.09538 0.42004 1.18613
 H33 H -0.05443 0.49817 0.95066
 H34 H 0.09083 0.60375 1.18498
 C35 C 0.21197 -0.04464 0.47466
 C36 C 0.21367 -0.04671 0.52899
 C37 C 0.30526 -0.02549 0.54432
 N38 N 0.35931 -0.00999 0.50126
 C39 C 0.30254 -0.02214 0.45861
 C40 C 0.33540 -0.01182 0.59719
 C41 C 0.43005 0.00416 0.61197
 C42 C 0.45954 0.04069 0.66035
 C43 C 0.55575 0.04273 0.65994
 C44 C 0.58270 0.00540 0.61173
 N45 N 0.50538 -0.01764 0.58264
 C46 C 0.67667 -0.00779 0.59589
 C47 C 0.70015 -0.02350 0.54208
 C48 C 0.78370 -0.05971 0.52484
 C49 C 0.78172 -0.05733 0.47063
 C50 C 0.69652 -0.02119 0.45639
 N51 N 0.64644 -0.00075 0.50005
 C52 C 0.66928 -0.00164 0.40383
 C53 C 0.57564 0.01408 0.38925
 C54 C 0.54706 0.04849 0.34068
 C55 C 0.45071 0.04651 0.34107
 C56 C 0.42330 0.01164 0.39003
 N57 N 0.49985 -0.00853 0.41896
 C58 C 0.32959 -0.00553 0.40563
 H59 H 0.15062 -0.05632 0.44989
 H60 H 0.15381 -0.06015 0.55429
 H61 H 0.50040 -0.04528 0.45440
 H62 H 0.41629 0.06443 0.69245
 H63 H 0.60052 0.06951 0.69155
 H64 H 0.84035 -0.08528 0.54882
 H65 H 0.83660 -0.07999 0.44462
 H66 H 0.40599 0.06782 0.30885
 H67 H 0.50391 -0.05443 0.54704
 H68 H 0.59094 0.07159 0.30811
 C69 C 0.13807 0.08323 0.31762
 H70 H 0.10442 0.14799 0.30907
 C71 C 0.21215 0.08240 0.35386
 H72 H 0.23503 0.14628 0.37368
 C73 C 0.14961 -0.07937 0.30271
 H74 H 0.12448 -0.14240 0.28314
 C75 C 0.22430 -0.08319 0.33847
 H76 H 0.25649 -0.14912 0.34638
 N77 N 0.10722 0.00278 0.29360
 C78 C -0.02925 -0.19131 0.22186
 H79 H -0.04720 -0.20094 0.26313
 C80 C -0.03476 -0.26413 0.18844
 H81 H -0.06017 -0.33109 0.20313
 C82 C 0.01919 -0.08648 0.15345
 H83 H 0.03891 -0.01783 0.13932
 C84 C 0.01813 -0.16496 0.11592
 H85 H 0.04159 -0.15096 0.07588
 Zn86 Zn 0.00030 0.00599 0.24900
 N87 N -0.00289 -0.09959 0.20287
 C88 C 0.08809 0.14399 0.18461
 N89 N 0.00605 0.11640 0.20791
 C90 C -0.07433 0.16229 0.19890
 C91 C -0.07496 0.23720 0.16370
 C92 C 0.09034 0.21808 0.14871
 C93 C -0.10827 0.06982 0.33261
 C94 C -0.18195 0.06990 0.36858
 C95 C -0.25743 -0.05650 0.31945
 C96 C -0.18233 -0.05380 0.28412
 N97 N -0.10830 0.00693 0.29217
 H98 H 0.15082 0.10583 0.19224
 H99 H -0.13880 0.13856 0.21748
 H100 H -0.13984 0.27150 0.15539
 H101 H 0.15494 0.23751 0.12871
 H102 H -0.05016 0.11901 0.33764
 H103 H -0.17988 0.11882 0.40137
 H104 H -0.31459 -0.10705 0.31373
 H105 H -0.18311 -0.10085 0.25066
 C106 C -0.00927 -0.25156 0.13161
 C107 C 0.25511 -0.00179 0.36481
 C108 C -0.25656 0.00480 0.36281
 C109 C 0.00768 0.26428 0.13757
 C110 C 0.09038 0.13971 0.81749
 H111 H 0.15319 0.10104 0.81133
 C112 C 0.09125 0.21403 0.85340
 H113 H 0.15487 0.23314 0.87485
 C114 C -0.07087 0.15938 0.79925
 H115 H -0.13435 0.13625 0.77902
 C116 C -0.07283 0.23459 0.83439
 H117 H -0.13773 0.26972 0.84103
 N118 N 0.00950 0.11261 0.79227
 C119 C 0.15390 -0.08510 0.69817
 H120 H 0.12575 -0.14846 0.71585
 C121 C 0.22885 -0.08946 0.66303
 H122 H 0.25829 -0.15614 0.65366
 C123 C 0.14857 0.07884 0.68687
 H124 H 0.11620 0.14406 0.69599
 C125 C 0.22290 0.07751 0.65124
 H126 H 0.24777 0.14166 0.63273
 Zn127 Zn 0.00558 0.00206 0.75106
 N128 N 0.11447 -0.00196 0.70872
 C129 C -0.09384 0.05182 0.66021
 N130 N -0.10096 0.00214 0.70586
 C131 C -0.18126 -0.04646 0.71824
 C132 C -0.25701 -0.04944 0.68287
 C133 C -0.16736 0.05058 0.62376
 C134 C 0.02505 -0.09025 0.84844
 C135 C 0.02222 -0.16468 0.88369
 C136 C -0.03581 -0.26490 0.81311
 C137 C -0.02965 -0.18850 0.77872
 N138 N -0.00051 -0.10295 0.79697
 H139 H -0.03055 0.09186 0.65160
 H140 H -0.18639 -0.08376 0.75534
 H141 H -0.31891 -0.09139 0.69265
 H142 H -0.15971 0.09101 0.58773
 H143 H 0.04872 -0.02245 0.86247
 H144 H 0.04643 -0.15229 0.92392
 H145 H -0.06388 -0.33086 0.79807
 H146 H -0.04975 -0.19711 0.73757
 C147 C 0.26277 -0.00759 0.63869
 C148 C 0.00847 0.26106 0.86252
 C149 C -0.00943 -0.25406 0.86675
 C150 C -0.25014 -0.00195 0.63416
   
