data_POSCAR
  _audit_creation_date              2014-09-24
  _audit_creation_method            'ToBaCCo'
  _symmetry_space_group_name_H-M    'P1'
  _symmetry_Int_Tables_number       1
  _symmetry_cell_setting            triclinic
  loop_
  _symmetry_equiv_pos_as_xyz
 x,y,z
_cell_length_a 31.8420
_cell_length_b 31.7265
_cell_length_c 12.5758
_cell_angle_alpha 89.468800
_cell_angle_beta 90.125900
_cell_angle_gamma 119.967700
loop_
  _atom_site_label
  _atom_site_type_symbol
  _atom_site_fract_x
  _atom_site_fract_y
  _atom_site_fract_z
C1 C 0.11140 0.43539 0.50512
 C2 C 0.13239 0.43707 0.40649
 C3 C 0.17843 0.44175 0.40105
 C4 C 0.20371 0.44329 0.49454
 C5 C 0.18057 0.43945 0.59418
 C6 C 0.13574 0.43780 0.59937
 C7 C 0.25547 0.45387 0.48859
 C8 C 0.28544 0.47285 0.57850
 C9 C 0.33323 0.48319 0.57689
 C10 C 0.35358 0.47747 0.48445
 C11 C 0.32615 0.46105 0.39180
 C12 C 0.27678 0.44815 0.39380
 H13 H 0.07727 0.43534 0.50835
 H14 H 0.19513 0.44694 0.32369
 H15 H 0.19740 0.43935 0.66870
 H16 H 0.27276 0.48075 0.65099
 H17 H 0.39136 0.48680 0.48417
 H18 H 0.25601 0.43438 0.32171
 C19 C 0.54355 -0.33632 0.48969
 C20 C 0.53654 -0.31590 0.39707
 C21 C 0.53697 -0.27184 0.40077
 C22 C 0.54542 -0.24661 0.49688
 C23 C 0.55337 -0.26729 0.59042
 C24 C 0.55124 -0.31267 0.58724
 C25 C 0.54063 -0.20196 0.50010
 C26 C 0.52410 -0.19104 0.59380
 C27 C 0.51558 -0.15211 0.59656
 C28 C 0.52221 -0.12389 0.50575
 C29 C 0.53770 -0.13417 0.41074
 C30 C 0.54798 -0.17244 0.40818
 H31 H 0.54111 -0.37169 0.48646
 H32 H 0.52848 -0.25865 0.32881
 H33 H 0.55980 -0.24921 0.66617
 H34 H 0.51627 -0.21337 0.66460
 H35 H 0.51418 -0.09444 0.50851
 H36 H 0.56058 -0.17942 0.33423
 C37 C 1.33607 0.88201 0.51068
 C38 C 1.31711 0.85727 0.41604
 C39 C 1.27218 0.81498 0.41478
 C40 C 1.24352 0.79701 0.50745
 C41 C 1.26350 0.82283 0.60415
 C42 C 1.31015 0.86462 0.60564
 C43 C 1.19508 0.75028 0.50188
 C44 C 1.17156 0.72424 0.59552
 C45 C 1.12886 0.67912 0.59015
 C46 C 1.10964 0.65833 0.49174
 C47 C 1.13223 0.68242 0.39763
 C48 C 1.17339 0.72888 0.40241
 H49 H 1.37202 0.91399 0.51121
 H50 H 1.26117 0.79601 0.34027
 H51 H 1.24413 0.81085 0.67862
 H52 H 1.18688 0.73729 0.67311
 H53 H 1.07826 0.62197 0.48829
 H54 H 1.18816 0.74672 0.32729
 C55 C 0.89025 0.54913 0.51466
 C56 C 0.86994 0.54833 0.41590
 C57 C 0.82767 0.55146 0.41050
 C58 C 0.80629 0.55764 0.50381
 C59 C 0.82818 0.55899 0.60284
 C60 C 0.86890 0.55320 0.60804
 C61 C 0.76012 0.55971 0.49799
 C62 C 0.72860 0.54750 0.58708
 C63 C 0.68451 0.54735 0.57857
 C64 C 0.67067 0.55753 0.48116
 C65 C 0.70023 0.56795 0.39217
 C66 C 0.74533 0.57098 0.40077
 H67 H 0.92134 0.54381 0.51927
 H68 H 0.81103 0.54703 0.33343
 H69 H 0.81339 0.56316 0.67664
 H70 H 0.73682 0.53633 0.66202
 H71 H 0.63530 0.55456 0.47291
 H72 H 0.76751 0.58057 0.33002
 C73 C 0.45726 0.34689 0.53029
 C74 C 0.46550 0.33263 0.43215
 C75 C 0.46343 0.28764 0.42248
 C76 C 0.45161 0.25576 0.51137
 C77 C 0.44341 0.27121 0.61039
 C78 C 0.44749 0.31703 0.61963
 C79 C 0.45011 0.20792 0.50180
 C80 C 0.46020 0.18624 0.59018
 C81 C 0.46003 0.14212 0.57919
 C82 C 0.45118 0.12013 0.48027
 C83 C 0.44276 0.14165 0.39199
 C84 C 0.44084 0.18442 0.40251
 H85 H 0.46122 0.38278 0.53821
 H86 H 0.47270 0.27876 0.34648
 H87 H 0.43495 0.24855 0.68085
 H88 H 0.46982 0.20406 0.66651
 H89 H 0.45338 0.08728 0.47054
 H90 H 0.43329 0.19950 0.33245
 C91 C 0.65780 0.10719 0.52320
 C92 C 0.67373 0.13083 0.42579
 C93 C 0.72003 0.17216 0.41709
 C94 C 0.75158 0.18913 0.50625
 C95 C 0.73448 0.16352 0.60377
 C96 C 0.68739 0.12417 0.61232
 C97 C 0.80040 0.23476 0.50004
 C98 C 0.82326 0.26172 0.59294
 C99 C 0.86792 0.30507 0.58702
 C100 C 0.88931 0.32314 0.48784
 C101 C 0.86664 0.29832 0.39486
 C102 C 0.82341 0.25370 0.40085
 H103 H 0.62096 0.07698 0.53110
 H104 H 0.72998 0.19144 0.34187
 H105 H 0.75651 0.17442 0.67462
 H106 H 0.80593 0.25077 0.66992
 H107 H 0.92230 0.35827 0.48230
 H108 H 0.80753 0.23517 0.32736
 O109 O 0.94160 0.48749 -0.20342
 O110 O 1.05787 0.54292 0.20373
 O111 O 0.90884 0.47710 0.11952
 O112 O 1.09059 0.57030 -0.12039
 O113 O 0.97717 0.53135 0.18106
 O114 O 1.02213 0.55609 -0.18326
 O115 O 1.08422 0.58440 0.06316
 O116 O 0.91698 0.50150 -0.06059
 C117 C 0.92177 0.50711 -0.15766
 C118 C 1.07900 0.58344 0.16063
 C119 C 0.93287 0.51424 0.17507
 C120 C 1.06628 0.58364 -0.17508
 O121 O 1.05685 0.49616 -0.20945
 O122 O 0.94273 0.43594 0.20267
 O123 O 0.90827 0.41250 -0.11930
 O124 O 1.09124 0.50253 0.11388
 O125 O 1.02312 0.44809 0.17901
 O126 O 0.97627 0.42675 -0.18376
 O127 O 1.08424 0.48182 -0.06970
 O128 O 0.91742 0.39675 0.06083
 Co129 Co 0.99923 0.49145 -0.17518
 Co130 Co 1.00013 0.48969 0.17182
 Co131 Co 0.92116 0.45110 -0.00006
 Co132 Co 1.07928 0.53058 -0.00307
 O133 O 0.99998 0.49069 -0.00164
 C134 C 1.07895 0.47770 -0.16716
 C135 C 0.92236 0.39626 0.15789
 C136 C 0.93197 0.39953 -0.17653
 C137 C 1.06730 0.46508 0.16999
 O138 O 0.45315 0.42564 -0.13312
 O139 O 0.46508 0.50915 0.19756
 O140 O 0.51145 0.42231 0.10042
 O141 O 0.42679 0.54965 -0.09147
 O142 O 0.52128 0.47767 0.21747
 O143 O 0.42772 0.48425 -0.13348
 O144 O 0.41914 0.49126 0.05715
 O145 O 0.51637 0.42118 -0.09946
 C146 C 0.47460 0.40245 -0.13616
 C147 C 0.42323 0.48888 0.15603
 C148 C 0.50855 0.43401 0.19376
 C149 C 0.41422 0.51433 -0.15763
 O150 O 0.51392 0.55223 -0.21477
 O151 O 0.59332 0.56413 0.13012
 O152 O 0.59562 0.50530 -0.09561
 O153 O 0.47175 0.58113 0.09245
 O154 O 0.54154 0.59390 0.11252
 O155 O 0.54155 0.49281 -0.21844
 O156 O 0.51840 0.59549 -0.08052
 O157 O 0.59546 0.49940 0.10433
 Co158 Co 0.48627 0.49022 -0.16130
 Co159 Co 0.52887 0.53428 0.15261
 Co160 Co 0.55066 0.46658 0.00170
 Co161 Co 0.47023 0.54129 -0.01442
 O162 O 0.51189 0.50824 -0.00124
 C163 C 0.52643 0.59302 -0.17651
 C164 C 0.61482 0.54134 0.13937
 C165 C 0.58489 0.50657 -0.19083
 C166 C 0.51132 0.60563 0.13588
 O167 O 0.57442 0.02447 -0.13071
 O168 O 0.49400 -0.03950 0.21055
 O169 O 0.58254 0.09074 0.09727
 O170 O 0.44994 -0.12346 -0.06956
 O171 O 0.52786 0.04875 0.21995
 O172 O 0.51500 -0.05845 -0.11935
 O173 O 0.50985 -0.07096 0.07337
 O174 O 0.58151 0.09382 -0.10317
 C175 C 0.59869 0.06899 -0.13784
 C176 C 0.51302 -0.06276 0.17152
 C177 C 0.57152 0.07769 0.19217
 C178 C 0.48461 -0.10222 -0.13868
 O179 O 0.44731 -0.03956 -0.20103
 O180 O 0.44186 0.03591 0.13509
 O181 O 0.49910 0.09216 -0.09575
 O182 O 0.42102 -0.10532 0.11351
 O183 O 0.40982 -0.04671 0.12835
 O184 O 0.50809 0.04718 -0.21536
 O185 O 0.40571 -0.07561 -0.06172
 O186 O 0.50745 0.10107 0.10305
 Co187 Co 0.50987 -0.00562 -0.15309
 Co188 Co 0.47013 -0.00013 0.16159
 Co189 Co 0.53790 0.08584 0.00060
 Co190 Co 0.46000 -0.06976 0.00207
 O191 O 0.49436 0.00539 0.00666
 C192 C 0.40702 -0.06657 -0.15855
 C193 C 0.46583 0.08032 0.14024
 C194 C 0.49645 0.07870 -0.18986
 C195 C 0.39766 -0.08864 0.15571
 C196 C 1.11110 0.44237 0.31753
 C197 C 1.09148 0.45049 0.24487
 C198 C 0.52692 0.65971 0.30401
 C199 C 0.51893 0.63658 0.22399
 C200 C 0.34308 -0.12645 0.32469
 C201 C 0.36673 -0.11094 0.24498
 C202 C 0.89037 0.53907 0.32241
 C203 C 0.90906 0.52919 0.25060
 C204 C 0.47988 0.36681 0.34482
 C205 C 0.49260 0.39732 0.27552
 C206 C 0.63985 0.11384 0.33879
 C207 C 0.60903 0.09758 0.27099
 C208 C 0.47185 0.12156 -0.33882
 C209 C 0.48275 0.10189 -0.27037
 C210 C 0.65252 0.53370 -0.33880
 C211 C 0.62207 0.52144 -0.27025
 C212 C 0.88834 0.33305 -0.32495
 C213 C 0.90766 0.36118 -0.25272
 C214 C 0.50101 -0.13997 -0.30640
 C215 C 0.49146 -0.12577 -0.22712
 C216 C 0.36098 0.49754 -0.32753
 C217 C 0.38461 0.50688 -0.24804
 C218 C 1.10889 0.65168 -0.32089
 C219 C 1.08998 0.62314 -0.24886
 C220 C 0.88493 0.54284 -0.29311
 C221 C 0.90045 0.52894 -0.22182
 C222 C 0.45044 0.33752 -0.28455
 C223 C 0.45859 0.36333 -0.20908
 C224 C 0.66459 0.10619 -0.28665
 C225 C 0.63795 0.08994 -0.21144
 C226 C 1.11897 0.44692 -0.30797
 C227 C 1.10209 0.45887 -0.23560
 C228 C 0.54930 0.66200 -0.32188
 C229 C 0.54248 0.63386 -0.24912
 C230 C 0.33603 -0.11240 -0.29718
 C231 C 0.36505 -0.09136 -0.22676
 C232 C 0.53650 -0.10848 0.31584
 C233 C 0.52945 -0.08686 0.24446
 C234 C 0.35241 0.46310 0.29593
 C235 C 0.38175 0.47124 0.22603
 C236 C 1.11630 0.65508 0.29945
 C237 C 1.10070 0.62579 0.22795
 C238 C 0.44484 0.12307 0.29019
 C239 C 0.45199 0.10483 0.21439
 C240 C 0.67866 0.56535 0.29084
 C241 C 0.65304 0.55705 0.21471
 C242 C 0.88384 0.32428 0.29548
 C243 C 0.90019 0.35335 0.22332
   
