data_POSCAR
  _audit_creation_date              2014-09-24
  _audit_creation_method            'ToBaCCo'
  _symmetry_space_group_name_H-M    'P1'
  _symmetry_Int_Tables_number       1
  _symmetry_cell_setting            triclinic
  loop_
  _symmetry_equiv_pos_as_xyz
 x,y,z
_cell_length_a 34.9296
_cell_length_b 35.0079
_cell_length_c 34.5615
_cell_angle_alpha 98.118400
_cell_angle_beta 84.444400
_cell_angle_gamma 88.242600
loop_
  _atom_site_label
  _atom_site_type_symbol
  _atom_site_fract_x
  _atom_site_fract_y
  _atom_site_fract_z
O1 O 0.53035 0.52913 0.03670
 O2 O 0.42707 0.52384 0.02512
 O3 O 0.48123 0.47510 0.03953
 O4 O 0.47779 0.57663 0.02182
 O5 O 0.48958 0.55706 -0.04196
 O6 O 0.49433 0.45575 -0.02415
 O7 O 0.44074 0.50256 -0.03797
 O8 O 0.54412 0.50938 -0.02681
 Cu9 Cu 0.47756 0.52798 0.03718
 Cu10 Cu 0.49366 0.50442 -0.03913
 C11 C 0.55487 0.52026 0.00695
 C12 C 0.41609 0.51215 -0.00838
 C13 C 0.48856 0.44815 0.01072
 C14 C 0.48303 0.58410 -0.01316
 O15 O -0.02480 0.53727 0.50994
 O16 O -0.01318 0.43176 0.50160
 O17 O -0.01242 0.48960 0.55773
 O18 O -0.02531 0.48054 0.45243
 O19 O 0.03772 0.47991 0.43811
 O20 O 0.05009 0.49493 0.54363
 O21 O 0.04989 0.43578 0.49103
 O22 O 0.03714 0.54057 0.49193
 Cu23 Cu -0.02530 0.48428 0.50650
 Cu24 Cu 0.05001 0.48829 0.48947
 C25 C 0.00407 0.55710 0.50227
 C26 C 0.02051 0.41603 0.49656
 C27 C 0.02107 0.49399 0.56860
 C28 C 0.00402 0.47840 0.42731
 O29 O 0.50895 0.01034 0.54726
 O30 O 0.51106 0.02225 0.44295
 O31 O 0.45799 0.01290 0.49826
 O32 O 0.56345 0.01980 0.49203
 O33 O 0.57028 -0.04374 0.47759
 O34 O 0.46506 -0.05011 0.47968
 O35 O 0.52068 -0.04076 0.42610
 O36 O 0.51607 -0.05280 0.53060
 Cu37 Cu 0.50981 0.02268 0.49672
 Cu38 Cu 0.51859 -0.05320 0.47669
 C39 C 0.51216 -0.02325 0.55691
 C40 C 0.51618 -0.00724 0.41671
 C41 C 0.44353 -0.01969 0.48971
 C42 C 0.58474 -0.01097 0.48463
 C43 C 0.49734 -0.02643 -0.08958
 C44 C 0.49354 -0.06372 -0.07960
 C45 C 0.48947 -0.07045 -0.04040
 C46 C 0.48667 -0.03842 -0.00995
 C47 C 0.49232 -0.00069 -0.01936
 C48 C 0.49900 0.00515 -0.05919
 C49 C 0.50807 0.04223 -0.06744
 C50 C 0.50681 0.07356 -0.03762
 C51 C 0.49675 0.06913 0.00181
 C52 C 0.49127 0.03135 0.01118
 C53 C 0.47742 -0.04296 0.02960
 C54 C 0.47662 -0.01171 0.05942
 C55 C 0.48476 0.02550 0.05098
 C56 C 0.48563 0.05718 0.08128
 C57 C 0.48845 0.09454 0.07145
 C58 C 0.49305 0.10125 0.03224
 H59 H 0.51674 0.04742 -0.09706
 H60 H 0.51440 0.10126 -0.04582
 H61 H 0.47008 -0.07065 0.03794
 H62 H 0.46884 -0.01698 0.08920
 H63 H 0.49380 -0.08804 -0.10280
 H64 H 0.48707 0.11883 0.09484
 C65 C 0.02514 0.51998 0.92496
 C66 C 0.06213 0.52313 0.93694
 C67 C 0.06956 0.52034 0.97552
 C68 C 0.03862 0.51512 1.00374
 C69 C 0.00072 0.51220 0.99228
 C70 C -0.00603 0.51431 0.95272
 C71 C -0.04358 0.50990 0.94190
 C72 C -0.07416 0.50554 0.96950
 C73 C -0.06830 0.50339 1.00879
 C74 C -0.03045 0.50641 1.02030
 C75 C 0.04454 0.51205 1.04285
 C76 C 0.01388 0.50798 1.07054
 C77 C -0.02381 0.50441 1.05990
 C78 C -0.05522 0.49967 1.08782
 C79 C -0.09230 0.49713 1.07588
 C80 C -0.09935 0.49897 1.03707
 H81 H -0.04998 0.50973 0.91193
 H82 H -0.10248 0.50381 0.95944
 H83 H 0.07291 0.51289 1.05278
 H84 H 0.02034 0.50771 1.10044
 H85 H 0.08585 0.52764 0.91561
 H86 H -0.11631 0.49371 1.09733
 C87 C -0.01755 -0.09541 0.50575
 C88 C -0.05634 -0.08466 0.50492
 C89 C -0.06911 -0.04607 0.50742
 C90 C -0.04177 -0.01699 0.50838
 C91 C -0.00202 -0.02741 0.50787
 C92 C 0.00995 -0.06650 0.50814
 C93 C 0.04875 -0.07528 0.51239
 C94 C 0.07578 -0.04691 0.51345
 C95 C 0.06519 -0.00858 0.51019
 C96 C 0.02573 0.00151 0.50839
 C97 C -0.05304 0.02227 0.51150
 C98 C -0.02584 0.05045 0.51122
 C99 C 0.01378 0.04061 0.50825
 C100 C 0.04176 0.06895 0.50678
 C101 C 0.08057 0.05821 0.50760
 C102 C 0.09263 0.02035 0.51030
 H103 H 0.05865 -0.10408 0.51568
 H104 H 0.10506 -0.05544 0.51714
 H105 H -0.08304 0.03180 0.51446
 H106 H -0.03640 0.08018 0.51417
 H107 H -0.07731 -0.10690 0.50281
 H108 H 0.10201 0.07989 0.50629
 C109 C -0.35290 0.54950 1.04910
 C110 C -0.32454 0.52594 1.02380
 C111 C -0.33707 0.49985 0.99280
 C112 C -0.37624 0.49897 0.98662
 C113 C -0.40377 0.52257 1.01201
 C114 C -0.39178 0.54756 1.04334
 C115 C -0.31056 0.47439 0.96851
 C116 C -0.27191 0.47337 0.97492
 C117 C -0.25797 0.49876 1.00533
 C118 C -0.28442 0.52674 1.02886
 C119 C -0.26982 0.55501 1.05621
 C120 C -0.23099 0.55516 1.06150
 C121 C -0.20527 0.52670 1.04055
 C122 C -0.21833 0.49766 1.01258
 C123 C -0.19121 0.46828 0.99373
 C124 C -0.15274 0.46857 1.00172
 C125 C -0.13998 0.49838 1.02806
 C126 C -0.16644 0.52711 1.04764
 H127 H -0.34621 0.56889 1.07437
 H128 H -0.38546 0.47899 0.96273
 H129 H -0.41261 0.56584 1.06355
 H130 H -0.31990 0.45453 0.94462
 H131 H -0.25336 0.45293 0.95476
 H132 H -0.28759 0.57826 1.07335
 H133 H -0.22106 0.57761 1.08265
 H134 H -0.19899 0.44415 0.97349
 H135 H -0.13279 0.44546 0.98726
 H136 H -0.15667 0.54977 1.06870
 C137 C 0.32544 0.48783 0.94749
 C138 C 0.29692 0.50407 0.97762
 C139 C 0.30920 0.52490 1.01208
 C140 C 0.34859 0.52648 1.01715
 C141 C 0.37666 0.50977 0.98711
 C142 C 0.36448 0.49109 0.95203
 C143 C 0.28213 0.54445 1.04104
 C144 C 0.24310 0.54477 1.03600
 C145 C 0.22949 0.52383 1.00250
 C146 C 0.25668 0.50121 0.97415
 C147 C 0.24277 0.47568 0.94387
 C148 C 0.20363 0.47340 0.94050
 C149 C 0.17699 0.49754 0.96606
 C150 C 0.18950 0.52387 0.99683
 C151 C 0.16153 0.54991 1.01984
 C152 C 0.12275 0.54898 1.01295
 C153 C 0.11045 0.52125 0.98405
 C154 C 0.13783 0.49577 0.96062
 H155 H 0.31849 0.47357 0.91946
 H156 H 0.35733 0.54192 1.04412
 H157 H 0.38518 0.47831 0.92795
 H158 H 0.29125 0.56038 1.06755
 H159 H 0.22398 0.56053 1.05964
 H160 H 0.26149 0.45591 0.92313
 H161 H 0.19418 0.45302 0.91709
 H162 H 0.16902 0.57230 1.04224
 H163 H 0.10226 0.57010 1.03017
 H164 H 0.12856 0.47491 0.93748
 C165 C -0.03981 -0.34364 0.52918
 C166 C -0.01046 -0.32080 0.51496
 C167 C 0.02319 -0.33995 0.49396
 C168 C 0.02843 -0.38028 0.49072
 C169 C -0.00075 -0.40259 0.50565
 C170 C -0.03519 -0.38374 0.52408
 C171 C 0.05115 -0.31877 0.47595
 C172 C 0.04578 -0.27906 0.47722
 C173 C 0.01307 -0.25875 0.49851
 C174 C -0.01403 -0.27969 0.51989
 C175 C -0.04319 -0.25886 0.54632
 C176 C -0.04687 -0.21891 0.55035
 C177 C -0.02284 -0.19841 0.52696
 C178 C 0.00690 -0.21804 0.49995
 C179 C 0.02822 -0.19628 0.47453
 C180 C 0.02044 -0.15663 0.47640
 C181 C -0.00762 -0.13719 0.50463
 C182 C -0.02898 -0.15835 0.52992
 H183 H -0.06725 -0.33137 0.54317
 H184 H 0.05484 -0.39432 0.47540
 H185 H -0.05861 -0.39993 0.53546
 H186 H 0.07704 -0.33315 0.45989
 H187 H 0.06854 -0.26466 0.46251
 H188 H -0.06276 -0.27268 0.56548
 H189 H -0.06943 -0.20399 0.57130
 H190 H 0.04977 -0.20945 0.45169
 H191 H 0.03613 -0.14111 0.45543
 H192 H -0.05129 -0.14361 0.55133
 C193 C 0.05907 0.32387 0.52531
 C194 C 0.03384 0.29629 0.50961
 C195 C 0.00581 0.30860 0.48639
 C196 C 0.00121 0.34781 0.48236
 C197 C 0.02584 0.37475 0.49913
 C198 C 0.05524 0.36238 0.51977
 C199 C -0.01729 0.28171 0.46731
 C200 C -0.01250 0.24260 0.46993
 C201 C 0.01439 0.22918 0.49347
 C202 C 0.03609 0.25683 0.51553
 C203 C 0.05842 0.24441 0.54370
 C204 C 0.06084 0.20590 0.54893
 C205 C 0.04251 0.17812 0.52522
 C206 C 0.01973 0.18912 0.49649
 C207 C 0.00438 0.15943 0.47110
 C208 C 0.01122 0.12059 0.47460
 C209 C 0.03223 0.11016 0.50430
 C210 C 0.04756 0.13920 0.52964
 H211 H 0.08268 0.31635 0.54113
 H212 H -0.02108 0.35733 0.46564
 H213 H 0.07478 0.38286 0.53258
 H214 H -0.03884 0.29088 0.44958
 H215 H -0.03142 0.22359 0.45440
 H216 H 0.07327 0.26415 0.56327
 H217 H 0.07803 0.19767 0.57117
 H218 H -0.01144 0.16526 0.44714
 H219 H 0.00049 0.09853 0.45364
 H220 H 0.06450 0.13128 0.55223
 C221 C 0.52526 -0.06699 -0.35289
 C222 C 0.51409 -0.03590 -0.32270
 C223 C 0.49962 -0.00117 -0.33367
 C224 C 0.49993 0.00318 -0.37348
 C225 C 0.51183 -0.02769 -0.40326
 C226 C 0.52351 -0.06307 -0.39235
 C227 C 0.48467 0.02897 -0.30484
 C228 C 0.48284 0.02502 -0.26527
 C229 C 0.49788 -0.00862 -0.25293
 C230 C 0.51599 -0.03844 -0.28202
 C231 C 0.53652 -0.06905 -0.26951
 C232 C 0.53855 -0.07085 -0.22982
 C233 C 0.51850 -0.04349 -0.20113
 C234 C 0.49664 -0.01284 -0.21233
 C235 C 0.47352 0.01169 -0.18250
 C236 C 0.47346 0.00677 -0.14312
 C237 C 0.49765 -0.02149 -0.13184
 C238 C 0.51983 -0.04683 -0.16123
 H239 H 0.53434 -0.09506 -0.34679
 H240 H 0.48973 0.03044 -0.38116
 H241 H 0.53236 -0.08773 -0.41440
 H242 H 0.47359 0.05567 -0.31297
 H243 H 0.47105 0.04960 -0.24473
 H244 H 0.55283 -0.09117 -0.28993
 H245 H 0.55536 -0.09437 -0.22153
 H246 H 0.45396 0.03386 -0.18892
 H247 H 0.45431 0.02524 -0.12127
 H248 H 0.53787 -0.06952 -0.15305
 C249 C 0.53634 -0.02522 0.30599
 C250 C 0.51594 0.00618 0.29441
 C251 C 0.49471 0.03257 0.32431
 C252 C 0.49577 0.02856 0.36406
 C253 C 0.51639 -0.00250 0.37491
 C254 C 0.53623 -0.02953 0.34557
 C255 C 0.47221 0.06262 0.31443
 C256 C 0.46952 0.06670 0.27540
 C257 C 0.49035 0.04148 0.24450
 C258 C 0.51532 0.01186 0.25426
 C259 C 0.53948 -0.01047 0.22370
 C260 C 0.53863 -0.00480 0.18484
 C261 C 0.51291 0.02242 0.17466
 C262 C 0.48779 0.04545 0.20415
 C263 C 0.46086 0.07118 0.19187
 C264 C 0.45979 0.07441 0.15215
 C265 C 0.48544 0.05230 0.12338
 C266 C 0.51224 0.02670 0.13497
 H267 H 0.55179 -0.04757 0.28518
 H268 H 0.47963 0.04915 0.38662
 H269 H 0.55200 -0.05404 0.35326
 H270 H 0.45602 0.08296 0.33717
 H271 H 0.45166 0.09080 0.27040
 H272 H 0.56040 -0.03188 0.22900
 H273 H 0.55806 -0.02233 0.16242
 H274 H 0.43966 0.08859 0.21210
 H275 H 0.43871 0.09423 0.14381
 H276 H 0.53257 0.00990 0.11285
 C277 C 0.46270 -0.32656 -0.05923
 C278 C 0.47659 -0.29682 -0.03269
 C279 C 0.49458 -0.30772 -0.00058
 C280 C 0.49591 -0.34644 0.00596
 C281 C 0.48143 -0.37531 -0.02026
 C282 C 0.46551 -0.36517 -0.05321
 C283 C 0.51130 -0.27999 0.02476
 C284 C 0.51144 -0.24166 0.01849
 C285 C 0.49340 -0.22921 -0.01266
 C286 C 0.47390 -0.25685 -0.03731
 C287 C 0.45147 -0.24344 -0.06493
 C288 C 0.44887 -0.20451 -0.06895
 C289 C 0.46977 -0.17763 -0.04689
 C290 C 0.49326 -0.18977 -0.01927
 C291 C 0.51643 -0.16207 -0.00014
 C292 C 0.51518 -0.12379 -0.00725
 C293 C 0.48998 -0.11134 -0.03257
 C294 C 0.46760 -0.13866 -0.05261
 H295 H 0.45044 -0.32102 -0.08545
 H296 H 0.50905 -0.35431 0.03107
 H297 H 0.45457 -0.38717 -0.07408
 H298 H 0.52495 -0.28809 0.04946
 H299 H 0.52470 -0.22201 0.03957
 H300 H 0.43432 -0.26229 -0.08294
 H301 H 0.43078 -0.19546 -0.09007
 H302 H 0.53690 -0.16942 0.01935
 H303 H 0.53421 -0.10373 0.00705
 H304 H 0.44870 -0.12959 -0.07305
 C305 C 0.50984 0.35876 0.05639
 C306 C 0.49791 0.32877 0.02874
 C307 C 0.48049 0.33949 -0.00377
 C308 C 0.47795 0.37837 -0.00961
 C309 C 0.49069 0.40750 0.01760
 C310 C 0.50588 0.39747 0.05097
 C311 C 0.46564 0.31140 -0.03029
 C312 C 0.46691 0.27282 -0.02488
 C313 C 0.48454 0.26055 0.00659
 C314 C 0.50210 0.28870 0.03257
 C315 C 0.52421 0.27574 0.06066
 C316 C 0.52828 0.23672 0.06391
 C317 C 0.50920 0.20923 0.04054
 C318 C 0.48614 0.22086 0.01231
 C319 C 0.46481 0.19238 -0.00827
 C320 C 0.46721 0.15395 -0.00175
 C321 C 0.49186 0.14215 0.02442
 C322 C 0.51264 0.17016 0.04564
 H323 H 0.52150 0.35327 0.08294
 H324 H 0.46537 0.38610 -0.03510
 H325 H 0.51550 0.41964 0.07258
 H326 H 0.45242 0.31938 -0.05529
 H327 H 0.45509 0.25292 -0.04686
 H328 H 0.53999 0.29507 0.07969
 H329 H 0.54603 0.22806 0.08550
 H330 H 0.44478 0.19918 -0.02842
 H331 H 0.44935 0.13332 -0.01702
 H332 H 0.53114 0.16159 0.06666
 C333 C -0.31197 0.01631 0.46492
 C334 C -0.29213 -0.00859 0.48601
 C335 C -0.31448 -0.03243 0.50845
 C336 C -0.35444 -0.03330 0.50714
 C337 C -0.37334 -0.00917 0.48547
 C338 C -0.35209 0.01626 0.46514
 C339 C -0.29694 -0.05537 0.53208
 C340 C -0.25755 -0.05499 0.53443
 C341 C -0.23379 -0.03264 0.51192
 C342 C -0.25109 -0.01051 0.48591
 C343 C -0.22672 0.00759 0.45966
 C344 C -0.18681 0.00403 0.45874
 C345 C -0.16965 -0.01604 0.48516
 C346 C -0.19303 -0.03319 0.51326
 C347 C -0.17459 -0.05030 0.54164
 C348 C -0.13461 -0.05263 0.54032
 C349 C -0.11151 -0.03820 0.51080
 C350 C -0.12921 -0.01958 0.48340
 H351 H -0.29737 0.03672 0.44876
 H352 H -0.37112 -0.05234 0.52369
 H353 H -0.36647 0.03556 0.44871
 H354 H -0.31390 -0.07367 0.54923
 H355 H -0.24627 -0.07404 0.55292
 H356 H -0.23769 0.02327 0.43809
 H357 H -0.16920 0.01737 0.43726
 H358 H -0.19027 -0.06165 0.56559
 H359 H -0.12149 -0.06656 0.56216
 H360 H -0.11150 -0.00840 0.46039
 C361 C 0.34444 -0.05118 0.46673
 C362 C 0.31985 -0.02274 0.49112
 C363 C 0.33719 0.00503 0.51709
 C364 C 0.37739 0.00569 0.51644
 C365 C 0.40125 -0.02186 0.49120
 C366 C 0.38445 -0.05076 0.46703
 C367 C 0.31442 0.03231 0.54340
 C368 C 0.27461 0.03284 0.54469
 C369 C 0.25582 0.00663 0.51876
 C370 C 0.27884 -0.02082 0.49068
 C371 C 0.26024 -0.04435 0.46222
 C372 C 0.22061 -0.04103 0.46100
 C373 C 0.19771 -0.01516 0.48882
 C374 C 0.21482 0.00807 0.51894
 C375 C 0.19008 0.03205 0.54790
 C376 C 0.15052 0.03457 0.54549
 C377 C 0.13409 0.01326 0.51447
 C378 C 0.15777 -0.01189 0.48634
 H379 H 0.33367 -0.07439 0.44743
 H380 H 0.39020 0.02768 0.53587
 H381 H 0.40235 -0.07265 0.44760
 H382 H 0.32754 0.05358 0.56332
 H383 H 0.25939 0.05533 0.56547
 H384 H 0.27576 -0.06468 0.43935
 H385 H 0.20774 -0.05897 0.43798
 H386 H 0.20027 0.04904 0.57300
 H387 H 0.13257 0.05386 0.56775
 H388 H 0.14514 -0.02837 0.46217
 C389 C 0.02184 0.45209 1.31700
 C390 C -0.00979 0.47110 1.30387
 C391 C -0.03659 0.49294 1.33269
 C392 C -0.03269 0.49382 1.37284
 C393 C -0.00114 0.47499 1.38517
 C394 C 0.02621 0.45446 1.35701
 C395 C -0.06677 0.51437 1.32135
 C396 C -0.07022 0.51589 1.28193
 C397 C -0.04427 0.49477 1.25211
 C398 C -0.01508 0.47017 1.26323
 C399 C 0.00729 0.44499 1.23342
 C400 C 0.00223 0.44483 1.19400
 C401 C -0.02408 0.47079 1.18261
 C402 C -0.04707 0.49680 1.21147
 C403 C -0.07130 0.52442 1.19840
 C404 C -0.07315 0.52542 1.15845
 C405 C -0.05131 0.49889 1.13014
 C406 C -0.02732 0.47113 1.14244
 H407 H 0.04441 0.43635 1.29704
 H408 H -0.05348 0.51049 1.39458
 H409 H 0.05106 0.44007 1.36601
 H410 H -0.08752 0.53085 1.34323
 H411 H -0.09440 0.53302 1.27564
 H412 H 0.02818 0.42407 1.23979
 H413 H 0.01973 0.42469 1.17213
 H414 H -0.08827 0.54643 1.21829
 H415 H -0.09176 0.54721 1.14951
 H416 H -0.01071 0.45019 1.12060
 C417 C 0.06337 0.48016 0.66219
 C418 C 0.03497 0.49839 0.69156
 C419 C 0.00318 0.51801 0.67929
 C420 C -0.00137 0.51632 0.63915
 C421 C 0.02645 0.49702 0.61062
 C422 C 0.05919 0.47981 0.62241
 C423 C -0.02392 0.53907 0.70711
 C424 C -0.02001 0.54151 0.74701
 C425 C 0.01042 0.52146 0.76073
 C426 C 0.03724 0.49807 0.73257
 C427 C 0.06449 0.47398 0.74627
 C428 C 0.06591 0.47316 0.78612
 C429 C 0.04136 0.49736 0.81392
 C430 C 0.01411 0.52284 0.80175
 C431 C -0.00785 0.54902 0.83122
 C432 C -0.00393 0.54852 0.87102
 C433 C 0.02098 0.52124 0.88274
 C434 C 0.04398 0.49618 0.85395
 H435 H 0.08952 0.46660 0.66902
 H436 H -0.02635 0.53046 0.63002
 H437 H 0.08125 0.46517 0.60071
 H438 H -0.04828 0.55417 0.69794
 H439 H -0.04235 0.55805 0.76661
 H440 H 0.08414 0.45405 0.72674
 H441 H 0.08677 0.45358 0.79528
 H442 H -0.02741 0.57094 0.82439
 H443 H -0.02062 0.56937 0.89282
 H444 H 0.06416 0.47576 0.86288
   
