data_POSCAR
  _audit_creation_date              2014-09-24
  _audit_creation_method            'ToBaCCo'
  _symmetry_space_group_name_H-M    'P1'
  _symmetry_Int_Tables_number       1
  _symmetry_cell_setting            triclinic
  loop_
  _symmetry_equiv_pos_as_xyz
 x,y,z
_cell_length_a 62.0186
_cell_length_b 62.1064
_cell_length_c 27.2131
_cell_angle_alpha 89.838700
_cell_angle_beta 90.135400
_cell_angle_gamma 119.941600
loop_
  _atom_site_label
  _atom_site_type_symbol
  _atom_site_fract_x
  _atom_site_fract_y
  _atom_site_fract_z
C1 C 0.19847 0.50516 0.49879
 C2 C 0.21193 0.51284 0.45455
 C3 C 0.23797 0.52327 0.45627
 C4 C 0.25033 0.52415 0.50071
 C5 C 0.23610 0.51678 0.54446
 C6 C 0.21041 0.50807 0.54415
 C7 C 0.27744 0.53116 0.50124
 C8 C 0.29099 0.53672 0.54582
 C9 C 0.31486 0.53958 0.54769
 C10 C 0.32637 0.53877 0.50421
 C11 C 0.31386 0.53410 0.45919
 C12 C 0.28949 0.53013 0.45791
 H13 H 0.17854 0.49781 0.49815
 H14 H 0.24834 0.53006 0.42252
 H15 H 0.24447 0.51670 0.57913
 H16 H 0.28326 0.53857 0.57994
 H17 H 0.34473 0.54070 0.50571
 H18 H 0.27975 0.52472 0.42324
 C19 C 0.49017 -0.31082 0.50849
 C20 C 0.48344 -0.30501 0.46314
 C21 C 0.47551 -0.28737 0.46220
 C22 C 0.47662 -0.27381 0.50482
 C23 C 0.48282 -0.28076 0.54998
 C24 C 0.48924 -0.29948 0.55233
 C25 C 0.47415 -0.25087 0.50130
 C26 C 0.47062 -0.23984 0.54381
 C27 C 0.47386 -0.21579 0.54213
 C28 C 0.47822 -0.20359 0.49683
 C29 C 0.48002 -0.21471 0.45370
 C30 C 0.47835 -0.23802 0.45607
 H31 H 0.49570 -0.32483 0.50987
 H32 H 0.46939 -0.28367 0.42765
 H33 H 0.48427 -0.27077 0.58330
 H34 H 0.46659 -0.24913 0.57896
 H35 H 0.48040 -0.18517 0.49508
 H36 H 0.48201 -0.24498 0.42269
 C37 C 1.31626 0.79375 0.51214
 C38 C 1.31051 0.78171 0.46633
 C39 C 1.29156 0.75659 0.46417
 C40 C 1.27687 0.74428 0.50591
 C41 C 1.28341 0.75710 0.55126
 C42 C 1.30321 0.78151 0.55455
 C43 C 1.25340 0.71942 0.50132
 C44 C 1.24179 0.70458 0.54331
 C45 C 1.21738 0.68414 0.54103
 C46 C 1.20562 0.67711 0.49495
 C47 C 1.21740 0.69030 0.45235
 C48 C 1.24095 0.71153 0.45565
 H49 H 1.33112 0.81287 0.51528
 H50 H 1.28782 0.74704 0.42940
 H51 H 1.27251 0.74898 0.58401
 H52 H 1.25122 0.70937 0.57836
 H53 H 1.18708 0.66115 0.49175
 H54 H 1.24853 0.72240 0.42263
 C55 C 0.79403 0.47244 0.51326
 C56 C 0.78219 0.46615 0.46745
 C57 C 0.75707 0.45975 0.46430
 C58 C 0.74433 0.46176 0.50572
 C59 C 0.75690 0.46802 0.55147
 C60 C 0.78149 0.47304 0.55531
 C61 C 0.71940 0.46020 0.50028
 C62 C 0.70411 0.45676 0.54167
 C63 C 0.68331 0.46017 0.53815
 C64 C 0.67659 0.46476 0.49159
 C65 C 0.69056 0.46692 0.44990
 C66 C 0.71193 0.46492 0.45426
 H67 H 0.81327 0.47696 0.51641
 H68 H 0.74801 0.45421 0.42896
 H69 H 0.74847 0.47055 0.58398
 H70 H 0.70874 0.45229 0.57710
 H71 H 0.66051 0.46713 0.48731
 H72 H 0.72330 0.46872 0.42185
 C73 C 0.52261 0.31992 0.49258
 C74 C 0.52077 0.30645 0.45040
 C75 C 0.52361 0.28556 0.45398
 C76 C 0.52902 0.27818 0.49957
 C77 C 0.53186 0.29290 0.54149
 C78 C 0.52765 0.31320 0.53875
 C79 C 0.52906 0.25396 0.50368
 C80 C 0.52394 0.24088 0.54897
 C81 C 0.51956 0.21632 0.55095
 C82 C 0.51983 0.20479 0.50685
 C83 C 0.52549 0.21742 0.46204
 C84 C 0.53141 0.24229 0.46103
 H85 H 0.51984 0.33576 0.48898
 H86 H 0.52006 0.27455 0.42119
 H87 H 0.53662 0.28829 0.57665
 H88 H 0.52168 0.24888 0.58236
 H89 H 0.51584 0.18570 0.50704
 H90 H 0.53654 0.25184 0.42613
 C91 C 0.67724 0.20667 0.50757
 C92 C 0.68386 0.21872 0.46201
 C93 C 0.70311 0.24358 0.45984
 C94 C 0.71739 0.25576 0.50215
 C95 C 0.70996 0.24305 0.54768
 C96 C 0.68982 0.21876 0.55045
 C97 C 0.74140 0.28011 0.49791
 C98 C 0.75295 0.29517 0.53970
 C99 C 0.77746 0.31548 0.53738
 C100 C 0.78950 0.32187 0.49156
 C101 C 0.77813 0.30801 0.44950
 C102 C 0.75438 0.28717 0.45273
 H103 H 0.66213 0.18761 0.50979
 H104 H 0.70749 0.25278 0.42455
 H105 H 0.72050 0.25108 0.58088
 H106 H 0.74333 0.29079 0.57451
 H107 H 0.80816 0.33762 0.48819
 H108 H 0.74706 0.27586 0.42022
 O109 O 0.96641 0.51827 -0.08688
 O110 O 0.93825 0.48509 -0.04071
 C111 C 0.94387 0.50183 -0.07457
 O112 O 1.03310 0.47337 -0.08866
 O113 O 1.06210 0.50692 -0.04457
 C114 C 1.05586 0.48960 -0.07731
 O115 O 0.96397 0.44371 -0.09372
 O116 O 0.93703 0.44902 -0.04437
 C117 C 0.94180 0.43879 -0.08111
 O118 O 1.03567 0.55289 -0.08470
 O119 O 1.06315 0.54504 -0.04250
 C120 C 1.05800 0.55743 -0.07437
 Zr121 Zr 1.00087 0.52437 -0.05929
 O122 O 1.00184 0.52757 -0.13675
 O123 O 1.00110 0.55825 -0.05005
 Zr124 Zr 0.99900 0.46919 -0.06384
 O125 O 1.00016 0.47246 -0.14128
 O126 O 0.99487 0.43326 -0.06711
 O127 O 0.97776 0.48644 -0.07055
 O128 O 1.02155 0.50711 -0.07136
 O129 O 1.03676 0.55124 0.08709
 O130 O 1.06374 0.54394 0.04209
 C131 C 1.05896 0.55616 0.07487
 O132 O 0.96516 0.44054 0.08806
 O133 O 0.93762 0.44745 0.04375
 C134 C 0.94283 0.43576 0.07711
 O135 O 1.03445 0.47178 0.08214
 O136 O 1.06261 0.50611 0.03867
 C137 C 1.05700 0.48847 0.07044
 O138 O 0.96764 0.51547 0.09531
 O139 O 0.93885 0.48354 0.04770
 C140 C 0.94494 0.49906 0.08392
 Zr141 Zr 1.00166 0.52272 0.06346
 O142 O 1.00524 0.52441 0.14091
 O143 O 0.99984 0.55587 0.06325
 Zr144 Zr 0.99991 0.46743 0.05914
 O145 O 1.00302 0.46642 0.13648
 O146 O 0.99598 0.43164 0.05325
 Zr147 Zr 0.96291 0.47813 0.00102
 Zr148 Zr 1.03780 0.51365 -0.00112
 O149 O 1.02239 0.50520 0.07000
 O150 O 0.97880 0.48445 0.07187
 O151 O 1.02392 0.53845 0.00173
 O152 O 0.97736 0.45391 -0.00215
 O153 O 0.97932 0.51704 0.00301
 O154 O 1.02175 0.47465 -0.00327
 H155 H 1.03231 0.51254 -0.10090
 H156 H 0.96553 0.43578 -0.00326
 H157 H 1.03351 0.51010 0.09903
 H158 H 0.96825 0.52427 0.00453
 H159 H 1.00816 0.43348 -0.04662
 H160 H 1.01120 0.43353 0.03753
 H161 H 0.99079 0.47036 0.15099
 H162 H 0.99338 0.50773 0.15386
 H163 H 1.01350 0.56802 0.04212
 H164 H 1.00084 0.56436 -0.08359
 H165 H 0.99362 0.51046 -0.14992
 H166 H 0.99959 0.45728 -0.15421
 O167 O 0.55752 0.52026 0.09020
 O168 O 0.55011 0.48694 0.04199
 C169 C 0.56180 0.50268 0.07708
 O170 O 0.44783 0.48527 0.08595
 O171 O 0.45667 0.52095 0.04427
 C172 C 0.44392 0.50346 0.07594
 O173 O 0.48061 0.44888 0.08788
 O174 O 0.51305 0.45260 0.04104
 C175 C 0.49652 0.44210 0.07544
 O176 O 0.52864 0.56032 0.08931
 O177 O 0.49538 0.55680 0.04525
 C178 C 0.51261 0.56726 0.07841
 Zr179 Zr 0.53197 0.53021 0.06233
 O180 O 0.53273 0.53141 0.14001
 O181 O 0.56748 0.56231 0.05690
 Zr182 Zr 0.47570 0.47799 0.06076
 O183 O 0.47674 0.47912 0.13842
 O184 O 0.44160 0.44392 0.05989
 O185 O 0.51365 0.49170 0.07030
 O186 O 0.49420 0.51592 0.07169
 O187 O 0.52922 0.56292 -0.08217
 O188 O 0.49554 0.55810 -0.03804
 C189 C 0.51328 0.56970 -0.06980
 O190 O 0.48167 0.45201 -0.09442
 O191 O 0.51323 0.45382 -0.04709
 C192 C 0.49744 0.44481 -0.08303
 O193 O 0.44831 0.48823 -0.08687
 O194 O 0.45743 0.52260 -0.04060
 C195 C 0.44482 0.50641 -0.07426
 O196 O 0.55669 0.52156 -0.09263
 O197 O 0.54980 0.48770 -0.04659
 C198 C 0.56071 0.50348 -0.08199
 Zr199 Zr 0.53219 0.53184 -0.06033
 O200 O 0.53305 0.53651 -0.13747
 O201 O 0.56871 0.56267 -0.05533
 Zr202 Zr 0.47557 0.47950 -0.06225
 O203 O 0.47209 0.47974 -0.13956
 O204 O 0.44172 0.44523 -0.05831
 Zr205 Zr 0.52047 0.48411 -0.00156
 Zr206 Zr 0.48727 0.52559 0.00168
 O207 O 0.49446 0.51775 -0.06973
 O208 O 0.51360 0.49362 -0.07216
 O209 O 0.52639 0.54748 0.00217
 O210 O 0.48137 0.46281 -0.00190
 O211 O 0.54593 0.52251 0.00012
 O212 O 0.46128 0.48718 0.00012
 H213 H 0.48931 0.52155 0.10152
 H214 H 0.47354 0.44447 -0.00284
 H215 H 0.48990 0.52431 -0.09874
 H216 H 0.56394 0.52807 -0.00033
 H217 H 0.42984 0.44634 0.03922
 H218 H 0.42876 0.44865 -0.04583
 H219 H 0.48873 0.48517 -0.15354
 H220 H 0.52577 0.51980 -0.15225
 H221 H 0.56788 0.57544 -0.03503
 H222 H 0.57334 0.56730 0.09110
 H223 H 0.52248 0.51407 0.15157
 H224 H 0.46107 0.46452 0.14980
 O225 O 0.47715 0.03327 0.09522
 O226 O 0.50912 0.06113 0.04624
 C227 C 0.49364 0.05569 0.08240
 O228 O 0.51985 -0.03494 0.08498
 O229 O 0.48454 -0.06318 0.04400
 C230 C 0.50271 -0.05747 0.07460
 O231 O 0.55105 0.03409 0.09026
 O232 O 0.54466 0.06151 0.04437
 C233 C 0.55591 0.05638 0.07885
 O234 O 0.44098 -0.03588 0.09214
 O235 O 0.44688 -0.06365 0.04674
 C236 C 0.43564 -0.05829 0.08070
 Zr237 Zr 0.46927 -0.00128 0.06544
 O238 O 0.46836 -0.00253 0.14312
 O239 O 0.43557 -0.00063 0.06149
 Zr240 Zr 0.52400 -0.00063 0.06162
 O241 O 0.52356 -0.00160 0.13941
 O242 O 0.55877 0.00106 0.05407
 O243 O 0.50763 0.02114 0.07265
 O244 O 0.48621 -0.02254 0.07306
 O245 O 0.43763 -0.03652 -0.07993
 O246 O 0.44546 -0.06396 -0.03762
 C247 C 0.43271 -0.05884 -0.06867
 O248 O 0.54888 0.03344 -0.09070
 O249 O 0.54368 0.06127 -0.04406
 C250 C 0.55441 0.05585 -0.07891
 O251 O 0.51667 -0.03568 -0.08558
 O252 O 0.48298 -0.06357 -0.04022
 C253 C 0.49987 -0.05813 -0.07359
 O254 O 0.47365 0.03261 -0.08621
 O255 O 0.50751 0.06086 -0.04179
 C256 C 0.49056 0.05515 -0.07525
 Zr257 Zr 0.46716 -0.00171 -0.05729
 O258 O 0.46358 -0.00468 -0.13470
 O259 O 0.43422 0.00045 -0.05213
 Zr260 Zr 0.52195 -0.00111 -0.06129
 O261 O 0.51988 -0.00395 -0.13887
 O262 O 0.55732 0.00152 -0.06183
 Zr263 Zr 0.51400 0.03625 0.00128
 Zr264 Zr 0.47724 -0.03858 0.00276
 O265 O 0.48382 -0.02297 -0.06820
 O266 O 0.50527 0.02067 -0.06973
 O267 O 0.45297 -0.02404 0.00486
 O268 O 0.53770 0.02117 -0.00040
 O269 O 0.47511 0.02049 0.00404
 O270 O 0.51611 -0.02327 0.00030
 H271 H 0.48146 -0.03330 0.10261
 H272 H 0.55593 0.03268 -0.00110
 H273 H 0.47795 -0.03401 -0.09730
 H274 H 0.46811 0.03176 0.00488
 H275 H 0.56524 0.00174 0.08767
 H276 H 0.55660 -0.01115 -0.03871
 H277 H 0.51706 0.00939 -0.15148
 H278 H 0.47978 0.00770 -0.14884
 H279 H 0.42266 -0.01310 -0.03005
 H280 H 0.43058 -0.00033 0.09593
 H281 H 0.48583 0.00489 0.15429
 H282 H 0.53876 -0.00172 0.15025
 C283 C 1.17345 0.50241 0.32437
 N284 N 1.16134 0.49258 0.36712
 N285 N 1.17386 0.49622 0.40882
 C286 C 1.19912 0.50963 0.40978
 N287 N 1.21131 0.51936 0.36666
 N288 N 1.19872 0.51599 0.32479
 C289 C 1.15884 0.49829 0.27930
 N290 N 1.16795 0.51388 0.24004
 N291 N 1.15336 0.51096 0.20146
 C292 C 1.12929 0.49219 0.20070
 N293 N 1.12048 0.47642 0.23954
 N294 N 1.13492 0.47947 0.27810
 C295 C 1.11197 0.48994 0.16144
 N296 N 1.08838 0.47043 0.16212
 N297 N 1.07130 0.46948 0.13120
 C298 C 1.07710 0.48799 0.09824
 N299 N 1.10087 0.50731 0.09663
 N300 N 1.11803 0.50826 0.12768
 C301 C 0.49348 0.66446 0.33656
 N302 N 0.48219 0.67839 0.33424
 N303 N 0.47862 0.68812 0.37505
 C304 C 0.48591 0.68402 0.41972
 N305 N 0.49685 0.66976 0.42151
 N306 N 0.50064 0.66031 0.38093
 C307 C 0.49850 0.65407 0.29254
 N308 N 0.51545 0.64639 0.29520
 N309 N 0.51954 0.63570 0.25689
 C310 C 0.50672 0.63209 0.21442
 N311 N 0.48981 0.63990 0.21143
 N312 N 0.48587 0.65087 0.24979
 C313 C 0.50997 0.61806 0.17459
 N314 N 0.49359 0.60867 0.13663
 N315 N 0.49507 0.59335 0.10426
 C316 C 0.51305 0.58701 0.10864
 N317 N 0.52970 0.59689 0.14591
 N318 N 0.52818 0.61210 0.17823
 C319 C 0.34373 -0.17709 0.34140
 N320 N 0.34848 -0.16628 0.38627
 N321 N 0.33828 -0.17978 0.42639
 C322 C 0.32263 -0.20472 0.42360
 N323 N 0.31805 -0.21561 0.37847
 N324 N 0.32851 -0.20208 0.33814
 C325 C 0.35430 -0.16132 0.29772
 N326 N 0.35671 -0.17053 0.25409
 N327 N 0.36723 -0.15543 0.21565
 C328 C 0.37532 -0.13071 0.21944
 N329 N 0.37258 -0.12172 0.26287
 N330 N 0.36238 -0.13668 0.30125
 C331 C 0.38822 -0.11325 0.17899
 N332 N 0.39266 -0.08961 0.18254
 N333 N 0.40671 -0.07255 0.14952
 C334 C 0.41697 -0.07839 0.11157
 N335 N 0.41218 -0.10220 0.10729
 N336 N 0.39795 -0.11938 0.14036
 C337 C 0.82552 0.47554 0.34216
 N338 N 0.80033 0.46120 0.33973
 N339 N 0.78635 0.45789 0.37944
 C340 C 0.79710 0.46857 0.42306
 N341 N 0.82226 0.48275 0.42514
 N342 N 0.83615 0.48619 0.38560
 C343 C 0.84155 0.48002 0.29920
 N344 N 0.86588 0.49782 0.30178
 N345 N 0.88113 0.50181 0.26430
 C346 C 0.87273 0.48810 0.22271
 N347 N 0.84832 0.47029 0.21981
 N348 N 0.83294 0.46638 0.25738
 C349 C 0.89050 0.49195 0.18333
 N350 N 0.88410 0.47627 0.14437
 N351 N 0.90120 0.47896 0.11140
 C352 C 0.92523 0.49747 0.11620
 N353 N 0.93143 0.51329 0.15471
 N354 N 0.91442 0.51060 0.18756
 C355 C 0.50552 0.33178 0.31938
 N356 N 0.49329 0.33056 0.36147
 N357 N 0.49777 0.32189 0.40266
 C358 C 0.51446 0.31384 0.40334
 N359 N 0.52638 0.31454 0.36098
 N360 N 0.52209 0.32351 0.31974
 C361 C 0.50191 0.34366 0.27582
 N362 N 0.51836 0.35174 0.23790
 N363 N 0.51626 0.36493 0.20126
 C364 C 0.49758 0.37038 0.20125
 N365 N 0.48094 0.36186 0.23869
 N366 N 0.48310 0.34884 0.27529
 C367 C 0.49630 0.38704 0.16437
 N368 N 0.47785 0.39268 0.16732
 N369 N 0.47763 0.40962 0.13771
 C370 C 0.49583 0.42162 0.10385
 N371 N 0.51414 0.41574 0.10018
 N372 N 0.51438 0.39874 0.12998
 C373 C 0.65184 0.17646 0.33481
 N374 N 0.66153 0.20151 0.33357
 N375 N 0.67165 0.21516 0.37388
 C376 C 0.67210 0.20418 0.41693
 N377 N 0.66228 0.17916 0.41783
 N378 N 0.65244 0.16561 0.37767
 C379 C 0.64083 0.16078 0.29124
 N380 N 0.63626 0.13704 0.29206
 N381 N 0.62523 0.12193 0.25430
 C382 C 0.61816 0.12988 0.21420
 N383 N 0.62283 0.15373 0.21302
 N384 N 0.63409 0.16898 0.25085
 C385 C 0.60421 0.11205 0.17495
 N386 N 0.59277 0.11754 0.13834
 N387 N 0.57812 0.10013 0.10612
 C388 C 0.57451 0.07669 0.10934
 N389 N 0.58633 0.07145 0.14538
 N390 N 0.60089 0.08877 0.17748
 C391 C 0.50417 0.17544 -0.32089
 N392 N 0.49985 0.16443 -0.36545
 N393 N 0.50483 0.17776 -0.40634
 C394 C 0.51399 0.20270 -0.40478
 N395 N 0.51796 0.21375 -0.35989
 N396 N 0.51337 0.20040 -0.31865
 C397 C 0.49922 0.15993 -0.27691
 N398 N 0.51323 0.16869 -0.23547
 N399 N 0.51049 0.15322 -0.19867
 C400 C 0.49353 0.12857 -0.20202
 N401 N 0.47925 0.12009 -0.24298
 N402 N 0.48216 0.13541 -0.27976
 C403 C 0.49170 0.11053 -0.16479
 N404 N 0.47351 0.08646 -0.16911
 N405 N 0.47287 0.06913 -0.13942
 C406 C 0.49046 0.07511 -0.10421
 N407 N 0.50854 0.09929 -0.09920
 N408 N 0.50916 0.11672 -0.12901
 C409 C 0.64790 0.46731 -0.33979
 N410 N 0.66546 0.46048 -0.33430
 N411 N 0.67656 0.45746 -0.37362
 C412 C 0.67038 0.46098 -0.41988
 N413 N 0.65236 0.46720 -0.42479
 N414 N 0.64147 0.47040 -0.38574
 C415 C 0.63692 0.47311 -0.29766
 N416 N 0.62637 0.48742 -0.30505
 N417 N 0.61626 0.49315 -0.26798
 C418 C 0.61606 0.48461 -0.22200
 N419 N 0.62653 0.47016 -0.21435
 N420 N 0.63697 0.46465 -0.25154
 C421 C 0.60394 0.49071 -0.18241
 N422 N 0.59609 0.47709 -0.14036
 N423 N 0.58302 0.48161 -0.10715
 C424 C 0.57759 0.50005 -0.11468
 N425 N 0.58588 0.51387 -0.15627
 N426 N 0.59872 0.50925 -0.18947
 C427 C 0.81880 0.35050 -0.33893
 N428 N 0.82886 0.35668 -0.38443
 N429 N 0.81516 0.34593 -0.42400
 C430 C 0.79078 0.32828 -0.42014
 N431 N 0.78052 0.32236 -0.37436
 N432 N 0.79426 0.33333 -0.33447
 C433 C 0.83526 0.36130 -0.29620
 N434 N 0.82655 0.36186 -0.25066
 N435 N 0.84234 0.37231 -0.21310
 C436 C 0.86725 0.38217 -0.21980
 N437 N 0.87574 0.38133 -0.26517
 N438 N 0.86010 0.37122 -0.30259
 C439 C 0.88540 0.39445 -0.18007
 N440 N 0.90913 0.39948 -0.18674
 N441 N 0.92668 0.41267 -0.15389
 C442 C 0.92129 0.42149 -0.11301
 N443 N 0.89744 0.41620 -0.10574
 N444 N 0.87975 0.40280 -0.13865
 C445 C 0.48172 -0.17543 -0.32919
 N446 N 0.46740 -0.20061 -0.32885
 N447 N 0.46456 -0.21367 -0.36970
 C448 C 0.47564 -0.20194 -0.41241
 N449 N 0.48975 -0.17680 -0.41246
 N450 N 0.49279 -0.16384 -0.37174
 C451 C 0.48577 -0.16039 -0.28493
 N452 N 0.50468 -0.13653 -0.28444
 N453 N 0.50812 -0.12193 -0.24614
 C454 C 0.49269 -0.13053 -0.20681
 N455 N 0.47379 -0.15452 -0.20693
 N456 N 0.47046 -0.16926 -0.24528
 C457 C 0.49570 -0.11314 -0.16734
 N458 N 0.47802 -0.11906 -0.13227
 N459 N 0.47981 -0.10188 -0.10050
 C460 C 0.49936 -0.07826 -0.10268
 N461 N 0.51721 -0.07263 -0.13704
 N462 N 0.51542 -0.08971 -0.16867
 C463 C 0.34816 0.53632 -0.32075
 N464 N 0.32319 0.52232 -0.32714
 N465 N 0.31252 0.52429 -0.36814
 C466 C 0.32645 0.54010 -0.40457
 N467 N 0.35144 0.55420 -0.39807
 N468 N 0.36207 0.55250 -0.35672
 C469 C 0.36018 0.53252 -0.27766
 N470 N 0.38286 0.55069 -0.26231
 N471 N 0.39448 0.54657 -0.22533
 C472 C 0.38402 0.52403 -0.20287
 N473 N 0.36131 0.50588 -0.21817
 N474 N 0.34952 0.51011 -0.25464
 C475 C 0.39793 0.51890 -0.16539
 N476 N 0.39416 0.49555 -0.15931
 N477 N 0.40853 0.49131 -0.12892
 C478 C 0.42688 0.51019 -0.10283
 N479 N 0.43029 0.53343 -0.10817
 N480 N 0.41619 0.53775 -0.13911
 C481 C 1.17672 0.65047 -0.33382
 N482 N 1.16605 0.64453 -0.37890
 N483 N 1.17945 0.65486 -0.41908
 C484 C 1.20409 0.67185 -0.41611
 N485 N 1.21486 0.67761 -0.37075
 N486 N 1.20147 0.66701 -0.33037
 C487 C 1.16099 0.63984 -0.29017
 N488 N 1.17038 0.63784 -0.24627
 N489 N 1.15533 0.62725 -0.20782
 C490 C 1.13050 0.61871 -0.21186
 N491 N 1.12132 0.62106 -0.25555
 N492 N 1.13623 0.63129 -0.29395
 C493 C 1.11311 0.60572 -0.17137
 N494 N 1.08954 0.60163 -0.17440
 N495 N 1.07247 0.58736 -0.14160
 C496 C 1.07821 0.57649 -0.10446
 N497 N 1.10197 0.58094 -0.10069
 N498 N 1.11917 0.59541 -0.13348
 C499 C 0.82182 0.49052 -0.31334
 N500 N 0.79737 0.47274 -0.31395
 N501 N 0.78412 0.46775 -0.35530
 C502 C 0.79496 0.48017 -0.39752
 N503 N 0.81928 0.49810 -0.39657
 N504 N 0.83240 0.50326 -0.35526
 C505 C 0.83749 0.49466 -0.26994
 N506 N 0.86109 0.51414 -0.26941
 N507 N 0.87666 0.51664 -0.23333
 C508 C 0.86931 0.49970 -0.19647
 N509 N 0.84554 0.48037 -0.19641
 N510 N 0.82987 0.47792 -0.23252
 C511 C 0.88775 0.50124 -0.16062
 N512 N 0.88204 0.48302 -0.12682
 N513 N 0.89973 0.48349 -0.09804
 C514 C 0.92371 0.50215 -0.10225
 N515 N 0.92925 0.52047 -0.13552
 N516 N 0.91162 0.52003 -0.16412
 C517 C 0.52091 0.34825 -0.33839
 N518 N 0.52836 0.33115 -0.33345
 N519 N 0.53112 0.32006 -0.37305
 C520 C 0.52675 0.32584 -0.41899
 N521 N 0.51984 0.34335 -0.42332
 N522 N 0.51689 0.35421 -0.38402
 C523 C 0.51593 0.35964 -0.29599
 N524 N 0.52559 0.36039 -0.25071
 N525 N 0.52132 0.37180 -0.21356
 C526 C 0.50701 0.38250 -0.22041
 N527 N 0.49720 0.38140 -0.26549
 N528 N 0.50165 0.37030 -0.30253
 C529 C 0.50298 0.39634 -0.18133
 N530 N 0.48614 0.40393 -0.18843
 N531 N 0.48375 0.41853 -0.15592
 C532 C 0.49817 0.42621 -0.11503
 N533 N 0.51483 0.41836 -0.10742
 N534 N 0.51715 0.40360 -0.13996
 C535 C 0.66436 0.17781 -0.31933
 N536 N 0.67158 0.20238 -0.31974
 N537 N 0.68063 0.21581 -0.36070
 C538 C 0.68245 0.20502 -0.40269
 N539 N 0.67546 0.18056 -0.40193
 N540 N 0.66672 0.16726 -0.36102
 C541 C 0.65227 0.16204 -0.27637
 N542 N 0.64787 0.13835 -0.27593
 N543 N 0.63459 0.12279 -0.24012
 C544 C 0.62504 0.13021 -0.20344
 N545 N 0.62972 0.15405 -0.20330
 N546 N 0.64316 0.16973 -0.23916
 C547 C 0.60826 0.11183 -0.16751
 N548 N 0.59599 0.11754 -0.13323
 N549 N 0.57919 0.09991 -0.10386
 C550 C 0.57405 0.07600 -0.10798
 N551 N 0.58655 0.07047 -0.14185
 N552 N 0.60330 0.08802 -0.17100
 C553 C 1.17007 0.49481 -0.32776
 N554 N 1.19529 0.50632 -0.32618
 N555 N 1.20835 0.50997 -0.36734
 C556 C 1.19674 0.50264 -0.41173
 N557 N 1.17149 0.49103 -0.41280
 N558 N 1.15845 0.48704 -0.37173
 C559 C 1.15522 0.49164 -0.28361
 N560 N 1.13056 0.47479 -0.28396
 N561 N 1.11621 0.47309 -0.24626
 C562 C 1.12585 0.48834 -0.20689
 N563 N 1.15061 0.50512 -0.20616
 N564 N 1.16509 0.50666 -0.24383
 C565 C 1.10893 0.48762 -0.16841
 N566 N 1.11614 0.50606 -0.13459
 N567 N 1.09955 0.50641 -0.10384
 C568 C 1.07523 0.48830 -0.10592
 N569 N 1.06829 0.46971 -0.13904
 N570 N 1.08477 0.46938 -0.16965
 C571 C 0.50526 0.67751 -0.31700
 N572 N 0.51109 0.67139 -0.36073
 N573 N 0.50600 0.67897 -0.40260
 C574 C 0.49519 0.69336 -0.40274
 N575 N 0.48974 0.69988 -0.35868
 N576 N 0.49445 0.69189 -0.31657
 C577 C 0.50981 0.66748 -0.27182
 N578 N 0.49490 0.66210 -0.23179
 N579 N 0.49728 0.64983 -0.19369
 C580 C 0.51483 0.64280 -0.19423
 N581 N 0.53005 0.64879 -0.23375
 N582 N 0.52750 0.66075 -0.27187
 C583 C 0.51590 0.62658 -0.15613
 N584 N 0.53432 0.62088 -0.15795
 N585 N 0.53393 0.60355 -0.12860
 C586 C 0.51507 0.59117 -0.09624
 N587 N 0.49684 0.59721 -0.09345
 N588 N 0.49725 0.61464 -0.12294
 C589 C 0.32634 -0.17866 -0.31360
 N590 N 0.32505 -0.16762 -0.35570
 N591 N 0.31715 -0.18049 -0.39724
 C592 C 0.30996 -0.20501 -0.39826
 N593 N 0.31077 -0.21625 -0.35591
 N594 N 0.31897 -0.20326 -0.31434
 C595 C 0.33729 -0.16348 -0.26944
 N596 N 0.34600 -0.17148 -0.23185
 N597 N 0.35839 -0.15635 -0.19457
 C598 C 0.36231 -0.13279 -0.19348
 N599 N 0.35313 -0.12506 -0.23057
 N600 N 0.34094 -0.14007 -0.26787
 C601 C 0.37826 -0.11485 -0.15601
 N602 N 0.38188 -0.09145 -0.15695
 N603 N 0.39848 -0.07400 -0.12742
 C604 C 0.41214 -0.07923 -0.09568
 N605 N 0.40822 -0.10280 -0.09388
 N606 N 0.39154 -0.12032 -0.12355
 C607 C 0.49367 -0.17454 0.32258
 N608 N 0.50501 -0.16305 0.36504
 N609 N 0.50085 -0.17595 0.40644
 C610 C 0.48539 -0.20092 0.40693
 N611 N 0.47430 -0.21256 0.36426
 N612 N 0.47823 -0.19956 0.32283
 C613 C 0.49724 -0.15956 0.27830
 N614 N 0.48082 -0.16837 0.24030
 N615 N 0.48299 -0.15358 0.20265
 C616 C 0.50178 -0.12957 0.20161
 N617 N 0.51839 -0.12103 0.23915
 N618 N 0.51612 -0.13569 0.27682
 C619 C 0.50312 -0.11213 0.16355
 N620 N 0.52243 -0.08846 0.16391
 N621 N 0.52266 -0.07144 0.13383
 C622 C 0.50360 -0.07738 0.10214
 N623 N 0.48444 -0.10121 0.10092
 N624 N 0.48421 -0.11831 0.13112
 C625 C 0.34634 0.52400 0.33293
 N626 N 0.35010 0.51685 0.37778
 N627 N 0.33997 0.52037 0.41778
 C628 C 0.32542 0.53091 0.41448
 N629 N 0.32150 0.53796 0.36952
 N630 N 0.33193 0.53473 0.32945
 C631 C 0.35765 0.51973 0.28944
 N632 N 0.36181 0.53320 0.24750
 N633 N 0.37328 0.52977 0.20935
 C634 C 0.38063 0.51251 0.21172
 N635 N 0.37614 0.49891 0.25341
 N636 N 0.36499 0.50253 0.29157
 C637 C 0.39454 0.50915 0.17173
 N638 N 0.39794 0.48924 0.17293
 N639 N 0.41274 0.48703 0.14060
 C640 C 0.42483 0.50467 0.10576
 N641 N 0.42112 0.52447 0.10379
 N642 N 0.40615 0.52663 0.13617
 C643 C 1.17812 0.66401 0.32036
 N644 N 1.20292 0.67216 0.32197
 N645 N 1.21573 0.68133 0.36355
 C646 C 1.20409 0.68235 0.40503
 N647 N 1.17936 0.67432 0.40315
 N648 N 1.16668 0.66548 0.36159
 C649 C 1.16318 0.65233 0.27619
 N650 N 1.13974 0.64861 0.27328
 N651 N 1.12493 0.63597 0.23605
 C652 C 1.13285 0.62635 0.20037
 N653 N 1.15645 0.63029 0.20280
 N654 N 1.17140 0.64315 0.24003
 C655 C 1.11505 0.61018 0.16290
 N656 N 1.12048 0.59660 0.13134
 N657 N 1.10298 0.57995 0.10151
 C658 C 1.07948 0.57636 0.10235
 N659 N 1.07432 0.59028 0.13324
 N660 N 1.09173 0.60684 0.16285
 C661 C 0.51481 0.17630 0.33338
 N662 N 0.53160 0.20105 0.33380
 N663 N 0.53520 0.21439 0.37455
 C664 C 0.52239 0.20333 0.41635
 N665 N 0.50570 0.17864 0.41554
 N666 N 0.50195 0.16543 0.37494
 C667 C 0.51040 0.16084 0.28974
 N668 N 0.49062 0.13745 0.28934
 N669 N 0.48697 0.12224 0.25206
 C670 C 0.50300 0.12976 0.21370
 N671 N 0.52274 0.15330 0.21361
 N672 N 0.52634 0.16865 0.25099
 C673 C 0.49970 0.11166 0.17569
 N674 N 0.51678 0.11713 0.13958
 N675 N 0.51450 0.09955 0.10842
 C676 C 0.49510 0.07593 0.11245
 N677 N 0.47792 0.07066 0.14807
 N678 N 0.48016 0.08818 0.17901
 C679 C 0.66690 0.48337 0.31836
 N680 N 0.66922 0.49634 0.35994
 N681 N 0.67726 0.49136 0.40137
 C682 C 0.68360 0.47340 0.40274
 N683 N 0.68178 0.46067 0.36092
 N684 N 0.67339 0.46546 0.31945
 C685 C 0.65581 0.48782 0.27462
 N686 N 0.64571 0.47075 0.23802
 N687 N 0.63308 0.47387 0.20152
 C688 C 0.63029 0.49423 0.20039
 N689 N 0.64086 0.51144 0.23643
 N690 N 0.65329 0.50827 0.27289
 C691 C 0.61426 0.49696 0.16410
 N692 N 0.61133 0.51713 0.16654
 N693 N 0.59507 0.51905 0.13766
 C694 C 0.58107 0.50087 0.10509
 N695 N 0.58422 0.48077 0.10185
 N696 N 0.60053 0.47882 0.13100
 C697 C 0.81986 0.33090 0.31996
 N698 N 0.83033 0.32989 0.36305
 N699 N 0.81683 0.32208 0.40387
 C700 C 0.79224 0.31472 0.40313
 N701 N 0.78155 0.31523 0.35981
 N702 N 0.79517 0.32335 0.31894
 C703 C 0.83574 0.34182 0.27670
 N704 N 0.82823 0.35022 0.23780
 N705 N 0.84401 0.36268 0.20140
 C706 C 0.86776 0.36703 0.20262
 N707 N 0.87501 0.35816 0.24101
 N708 N 0.85935 0.34588 0.27740
 C709 C 0.88625 0.38295 0.16601
 N710 N 0.90986 0.38716 0.16947
 N711 N 0.92760 0.40345 0.13998
 C712 C 0.92245 0.41620 0.10585
 N713 N 0.89873 0.41176 0.10173
 N714 N 0.88092 0.39541 0.13136
   
