data_POSCAR
  _audit_creation_date              2014-09-24
  _audit_creation_method            'ToBaCCo'
  _symmetry_space_group_name_H-M    'P1'
  _symmetry_Int_Tables_number       1
  _symmetry_cell_setting            triclinic
  loop_
  _symmetry_equiv_pos_as_xyz
 x,y,z
_cell_length_a 27.9979
_cell_length_b 28.6679
_cell_length_c 27.1013
_cell_angle_alpha 87.326500
_cell_angle_beta 88.566700
_cell_angle_gamma 91.577600
loop_
  _atom_site_label
  _atom_site_type_symbol
  _atom_site_fract_x
  _atom_site_fract_y
  _atom_site_fract_z
C1 C 0.22634 1.24488 0.16359
 C2 C 0.25954 1.20915 0.16513
 C3 C 0.25551 1.17388 0.20166
 C4 C 0.21822 1.17386 0.23716
 C5 C 0.18533 1.20898 0.23559
 C6 C 0.18947 1.24485 0.19852
 C7 C 0.21939 1.28134 0.13000
 N8 N 0.17919 1.30352 0.14343
 C9 C 0.16066 1.28139 0.18557
 C10 C 0.15112 1.19796 0.27200
 N11 N 0.16250 1.15684 0.29557
 C12 C 0.20361 1.14217 0.27449
 C13 C 0.29001 1.14208 0.19179
 N14 N 0.31477 1.15716 0.14993
 C15 C 0.29646 1.19825 0.13364
 H16 H 0.24116 1.29012 0.09709
 H17 H 0.12779 1.28956 0.20465
 H18 H 0.11989 1.21812 0.27942
 H19 H 0.22087 1.10985 0.28455
 H20 H 0.29543 1.10987 0.21301
 H21 H 0.30805 1.21790 0.10018
 C22 C 0.80746 0.73775 0.17881
 C23 C 0.76935 0.76846 0.17599
 C24 C 0.76624 0.80429 0.20833
 C25 C 0.80126 0.80998 0.24390
 C26 C 0.83869 0.77959 0.24666
 C27 C 0.84179 0.74327 0.21398
 C28 C 0.82177 0.70237 0.14960
 N29 N 0.86415 0.68634 0.16628
 C30 C 0.87636 0.71119 0.20574
 C31 C 0.86921 0.79545 0.28151
 N32 N 0.85147 0.83479 0.30007
 C33 C 0.80965 0.84393 0.27727
 C34 C 0.72811 0.83076 0.19446
 N35 N 0.70794 0.81176 0.15455
 C36 C 0.73308 0.77378 0.14303
 H37 H 0.80323 0.69085 0.11763
 H38 H 0.90903 0.70735 0.22594
 H39 H 0.90286 0.78028 0.29148
 H40 H 0.78765 0.87377 0.28270
 H41 H 0.71757 0.86264 0.21098
 H42 H 0.72643 0.75253 0.11178
 C43 C 0.79024 1.25124 -0.15725
 C44 C 0.75546 1.21511 -0.15547
 C45 C 0.75529 1.18242 -0.19137
 C46 C 0.78999 1.18560 -0.22975
 C47 C 0.82436 1.22131 -0.23153
 C48 C 0.82457 1.25437 -0.19490
 C49 C 0.80123 1.28511 -0.12484
 N50 N 0.84156 1.30876 -0.14150
 C51 C 0.85607 1.29024 -0.18465
 C52 C 0.85517 1.21373 -0.27051
 N53 N 0.84059 1.17428 -0.29241
 C54 C 0.80050 1.15690 -0.26762
 C55 C 0.72035 1.14917 -0.17773
 N56 N 0.69943 1.16109 -0.13438
 C57 C 0.72075 1.20133 -0.12066
 H58 H 0.78224 1.29093 -0.09044
 H59 H 0.88802 1.30036 -0.20620
 H60 H 0.88682 1.23471 -0.28131
 H61 H 0.78069 1.12527 -0.27522
 H62 H 0.71258 1.11774 -0.19694
 H63 H 0.71280 1.21836 -0.08669
 C64 C 0.20529 0.77234 -0.19299
 C65 C 0.24091 0.80766 -0.19124
 C66 C 0.24075 0.84578 -0.22449
 C67 C 0.20503 0.84934 -0.25968
 C68 C 0.17008 0.81456 -0.26146
 C69 C 0.17027 0.77580 -0.22798
 C70 C 0.19403 0.73331 -0.16288
 N71 N 0.15291 0.71309 -0.17886
 C72 C 0.13844 0.73891 -0.21873
 C73 C 0.13785 0.82904 -0.29609
 N74 N 0.15235 0.87205 -0.31532
 C75 C 0.19352 0.88449 -0.29324
 C76 C 0.27676 0.87615 -0.21191
 N77 N 0.29886 0.85765 -0.17187
 C78 C 0.27712 0.81565 -0.15885
 H79 H 0.21365 0.72201 -0.13082
 H80 H 0.10598 0.73230 -0.23852
 H81 H 0.10536 0.81013 -0.30456
 H82 H 0.21280 0.91757 -0.29980
 H83 H 0.28522 0.91017 -0.22950
 H84 H 0.28545 0.79323 -0.12722
 C85 C 0.57643 1.03906 -0.00642
 H86 H 0.57796 1.03796 0.03347
 C87 C 0.60919 1.06709 -0.03483
 H88 H 0.63618 1.08683 -0.01616
 C89 C 0.54086 1.01205 -0.07859
 H90 H 0.51477 0.98988 -0.09551
 C91 C 0.57306 1.03951 -0.10847
 H92 H 0.57114 1.03859 -0.14829
 N93 N 0.54279 1.01274 -0.02852
 C94 C 0.42884 0.98950 0.08307
 H95 H 0.42634 0.95173 0.08489
 C96 C 0.39723 1.01492 0.11116
 H97 H 0.37046 0.99645 0.13475
 C98 C 0.46609 1.05938 0.04911
 H99 H 0.49253 1.07663 0.02438
 C100 C 0.43515 1.08621 0.07653
 H101 H 0.43940 1.12383 0.07335
 Zn102 Zn 0.50126 0.97465 0.01334
 N103 N 0.46244 1.01193 0.05286
 C104 C 0.53942 0.93934 0.10325
 N105 N 0.54022 0.93642 0.05330
 C106 C 0.57237 0.90966 0.03013
 C107 C 0.60570 0.88462 0.05732
 C108 C 0.57206 0.91486 0.13188
 C109 C 0.42755 0.96301 -0.05159
 C110 C 0.39399 0.93966 -0.07931
 C111 C 0.42617 0.86635 -0.05020
 C112 C 0.45924 0.89120 -0.02294
 N113 N 0.45954 0.93870 -0.02450
 H114 H 0.51456 0.96182 0.12092
 H115 H 0.57305 0.90899 -0.00977
 H116 H 0.63193 0.86520 0.03753
 H117 H 0.57151 0.91831 0.17153
 H118 H 0.42786 1.00073 -0.05113
 H119 H 0.36823 0.96006 -0.09930
 H120 H 0.42619 0.82852 -0.04855
 H121 H 0.48419 0.87250 -0.00017
 C122 C 0.39960 1.06389 0.10756
 C123 C 0.60739 1.06794 -0.08670
 C124 C 0.39331 0.89058 -0.07927
 C125 C 0.60593 0.88722 0.10906
 C126 C -0.00776 0.56944 1.06256
 H127 H 0.03069 0.57207 1.06531
 C128 C -0.03659 0.59971 1.08806
 H129 H -0.01951 0.62579 1.10973
 C130 C -0.07569 0.53423 1.02750
 H131 H -0.09072 0.50953 1.00287
 C132 C -0.10588 0.56379 1.05236
 H133 H -0.14406 0.56114 1.04704
 N134 N -0.02759 0.53745 1.03315
 C135 C 0.08036 0.43227 1.01668
 H136 H 0.08427 0.43327 0.97682
 C137 C 0.10485 0.39946 1.04522
 H138 H 0.12703 0.37514 1.02657
 C139 C 0.04331 0.46074 1.08840
 H140 H 0.01831 0.48383 1.10496
 C141 C 0.06705 0.42840 1.11839
 H142 H 0.06050 0.42726 1.15800
 Zn143 Zn 0.01465 0.50129 0.99626
 N144 N 0.05038 0.46209 1.03851
 C145 C 0.10332 0.54499 0.96342
 N146 N 0.05510 0.54380 0.95834
 C147 C 0.03337 0.57586 0.92872
 C148 C 0.06029 0.61084 0.90244
 C149 C 0.13168 0.57942 0.93774
 C150 C -0.04826 0.42789 0.97856
 C151 C -0.07386 0.39602 0.95141
 C152 C -0.04013 0.43376 0.87640
 C153 C -0.01513 0.46504 0.90508
 N154 N -0.02000 0.46179 0.95521
 H155 H 0.11980 0.52000 0.98822
 H156 H -0.00517 0.57484 0.92647
 H157 H 0.04165 0.63677 0.88069
 H158 H 0.16998 0.58028 0.94259
 H159 H -0.05044 0.42539 1.01851
 H160 H -0.09500 0.36871 0.97117
 H161 H -0.03585 0.43661 0.83653
 H162 H 0.00853 0.49144 0.88727
 C163 C 0.09834 0.39727 1.09694
 C164 C -0.08652 0.59698 1.08324
 C165 C -0.07038 0.39904 0.89948
 C166 C 0.11030 0.61285 0.90664
 C167 C 1.03796 -0.00352 0.56803
 H168 H 1.03924 0.03403 0.57071
 C169 C 1.06517 -0.03150 0.59942
 H170 H 1.08672 -0.01494 0.62657
 C171 C 1.00564 -0.07035 0.53122
 H172 H 0.98160 -0.08549 0.50544
 C173 C 1.03204 -0.09965 0.56205
 H174 H 1.02845 -0.13715 0.55926
 N175 N 1.00939 -0.02318 0.53438
 C176 C 0.98990 0.08910 0.42290
 H177 H 0.95130 0.09010 0.42293
 C178 C 1.01716 0.11821 0.38967
 H179 H 0.99933 0.14180 0.36426
 C180 C 1.05997 0.05601 0.45495
 H181 H 1.07655 0.03118 0.47981
 C182 C 1.08859 0.08439 0.42226
 H183 H 1.12700 0.08184 0.42371
 Zn184 Zn 0.97197 0.01709 0.49480
 N185 N 1.01155 0.05874 0.45461
 C186 C 0.93622 0.09712 0.54040
 N187 N 0.93283 0.04981 0.53849
 C188 C 0.90358 0.02379 0.57043
 C189 C 0.87615 0.04525 0.60609
 C190 C 0.90955 0.12004 0.57569
 C191 C 0.95941 -0.04200 0.41768
 C192 C 0.93520 -0.06931 0.38459
 C193 C 0.86044 -0.04558 0.42064
 C194 C 0.88617 -0.01881 0.45331
 N195 N 0.93480 -0.01815 0.45173
 H196 H 0.96023 0.11713 0.51520
 H197 H 0.90212 -0.01384 0.56857
 H198 H 0.85333 0.02391 0.63150
 H199 H 0.91248 0.15771 0.57604
 H200 H 0.99807 -0.03987 0.41646
 H201 H 0.95575 -0.08739 0.35748
 H202 H 0.82174 -0.04607 0.42242
 H203 H 0.86724 0.00144 0.47971
 C204 C 1.06709 0.11540 0.38835
 C205 C 1.06263 -0.08035 0.59634
 C206 C 0.88497 -0.07197 0.38639
 C207 C 0.87954 0.09385 0.60968
 C208 C 0.16074 0.33949 1.11600
 C209 C 0.12061 0.36103 1.12900
 H210 H 0.17952 0.35090 1.08196
 H211 H 0.10309 0.35246 1.16438
 C212 C -0.10748 0.65360 1.14671
 C213 C -0.11901 0.62991 1.10685
 H214 H -0.07394 0.64677 1.16434
 H215 H -0.15356 0.63412 1.09056
 C216 C -0.13643 0.34255 0.88426
 C217 C -0.09568 0.36515 0.86886
 H218 H -0.15279 0.35123 0.91917
 H219 H -0.08027 0.35952 0.83273
 C220 C 0.12723 0.67566 0.84164
 C221 C 0.14058 0.65087 0.88205
 H222 H 0.09421 0.66588 0.82435
 H223 H 0.17481 0.65808 0.89807
 C224 C 1.13763 0.13190 0.33233
 C225 C 1.09527 0.14471 0.35095
 H226 H 1.15219 0.09918 0.34565
 H227 H 1.07871 0.17586 0.33637
 C228 C 1.12960 -0.09953 0.65165
 C229 C 1.08886 -0.11215 0.63003
 H230 H 1.14545 -0.06521 0.64251
 H231 H 1.07416 -0.14727 0.63593
 C232 C 0.87483 -0.13949 0.33350
 C233 C 0.85756 -0.10047 0.35199
 H234 H 0.90911 -0.15150 0.34581
 H235 H 0.82202 -0.08942 0.34325
 C236 C 0.86464 0.15596 0.66893
 C237 C 0.85148 0.11551 0.64926
 H238 H 0.89682 0.17431 0.65479
 H239 H 0.82082 0.09551 0.66436
 C240 C 0.35192 1.13380 0.12398
 C241 C 0.36436 1.09000 0.13639
 H242 H 0.36821 1.15185 0.09162
 H243 H 0.34599 1.07106 0.16697
 C244 C 0.66419 1.13494 -0.10419
 C245 C 0.64194 1.09615 -0.11886
 H246 H 0.65542 1.14779 -0.06824
 H247 H 0.64811 1.08502 -0.15600
 C248 C 0.33591 0.88207 -0.14679
 C249 C 0.35748 0.86389 -0.10694
 H250 H 0.34638 0.91678 -0.16123
 H251 H 0.34939 0.82816 -0.09426
 C252 C 0.66989 0.83001 0.12533
 C253 C 0.64281 0.86496 0.13995
 H254 H 0.66330 0.81441 0.09048
 H255 H 0.64747 0.87807 0.17634
   
