data_POSCAR
  _audit_creation_date              2014-09-24
  _audit_creation_method            'ToBaCCo'
  _symmetry_space_group_name_H-M    'P1'
  _symmetry_Int_Tables_number       1
  _symmetry_cell_setting            triclinic
  loop_
  _symmetry_equiv_pos_as_xyz
 x,y,z
_cell_length_a 25.4723
_cell_length_b 25.5169
_cell_length_c 25.6912
_cell_angle_alpha 90.062300
_cell_angle_beta 89.965300
_cell_angle_gamma 89.980500
loop_
  _atom_site_label
  _atom_site_type_symbol
  _atom_site_fract_x
  _atom_site_fract_y
  _atom_site_fract_z
C1 C 0.31827 0.37961 1.38205
 N2 N 0.34070 0.33500 1.40032
 C3 C 0.38509 0.31507 1.37864
 N4 N 0.40654 0.34000 1.33701
 C5 C 0.38450 0.38456 1.31768
 N6 N 0.34066 0.40436 1.34073
 C7 C 1.18430 0.62180 0.88451
 N8 N 1.15912 0.66371 0.90565
 C9 C 1.11493 0.68383 0.88333
 N10 N 1.09574 0.66095 0.83933
 C11 C 1.12072 0.61924 0.81756
 N12 N 1.16490 0.60026 0.84014
 C13 C 0.67947 -0.11541 0.11268
 N14 N 0.65862 -0.09298 0.15612
 C15 C 0.61500 -0.11312 0.17898
 N16 N 0.59221 -0.15647 0.15813
 C17 C 0.61231 -0.17962 0.11482
 N18 N 0.65597 -0.15869 0.09242
 C19 C -0.18030 1.11577 -0.38570
 N20 N -0.16130 1.09426 -0.34107
 C21 C -0.11991 1.11614 -0.31590
 N22 N -0.09800 1.16045 -0.33543
 C23 C -0.11593 1.18236 -0.38019
 N24 N -0.15710 1.15955 -0.40527
 C25 C 0.68349 0.61939 0.61552
 N26 N 0.65898 0.66183 0.59471
 C27 C 0.61667 0.68374 0.61889
 N28 N 0.59864 0.66203 0.66382
 C29 C 0.62244 0.61935 0.68456
 N30 N 0.66504 0.59867 0.66061
 C31 C 0.81586 0.38109 0.11786
 N32 N 0.83814 0.33635 0.09934
 C33 C 0.88042 0.31458 0.12314
 N34 N 0.90014 0.33798 0.16634
 C35 C 0.87911 0.38309 0.18517
 N36 N 0.83700 0.40459 0.16064
 C37 C 0.31320 0.12177 0.88171
 N38 N 0.33329 0.09776 0.83878
 C39 C 0.37654 0.11707 0.81457
 N40 N 0.40004 0.16086 0.83351
 C41 C 0.38066 0.18516 0.87647
 N42 N 0.33716 0.16566 0.90021
 C43 C 0.18416 0.87910 0.38263
 N44 N 0.16298 0.90292 0.34035
 C45 C 0.11877 0.88384 0.31775
 N46 N 0.09509 0.84065 0.33798
 C47 C 0.11586 0.81636 0.38031
 N48 N 0.16055 0.83560 0.40191
 Zn49 Zn 0.01227 1.06353 -0.02967
 Zn50 Zn -0.04239 0.95928 -0.03981
 Zn51 Zn 0.06179 0.96861 0.01462
 Zn52 Zn -0.03322 1.01354 0.06386
 O53 O -0.00058 1.00102 0.00201
 O54 O -0.01693 1.06658 -0.09208
 O55 O -0.01124 0.89714 -0.05556
 O56 O 0.11722 1.00326 -0.01092
 O57 O -0.05811 0.99075 -0.10122
 O58 O 0.08065 1.07616 -0.04030
 O59 O 0.06447 0.90547 -0.01411
 O60 O 0.00118 0.98783 0.11863
 O61 O -0.10471 0.94368 -0.00915
 O62 O 0.07407 0.95791 0.08241
 O63 O -0.09639 0.98483 0.06627
 O64 O -0.04398 1.08156 0.07675
 O65 O -0.01362 1.11856 0.00493
 C66 C -0.04512 1.03560 -0.11867
 C67 C 0.03331 0.87894 -0.04216
 C68 C 0.12073 1.04773 -0.03262
 C69 C 0.04563 0.96584 0.12222
 C70 C -0.12298 0.95698 0.03508
 C71 C -0.03592 1.12171 0.04891
 Zn72 Zn 0.48605 -0.06389 0.46736
 Zn73 Zn 0.54110 0.03997 0.45816
 Zn74 Zn 0.43677 0.03112 0.51222
 Zn75 Zn 0.53098 -0.01472 0.56168
 O76 O 0.49895 -0.00166 0.49967
 O77 O 0.51451 -0.06650 0.40455
 O78 O 0.51029 0.10211 0.44220
 O79 O 0.38148 -0.00334 0.48678
 O80 O 0.55651 0.00894 0.39646
 O81 O 0.41777 -0.07637 0.45719
 O82 O 0.43423 0.09390 0.48303
 O83 O 0.49603 0.01083 0.61666
 O84 O 0.60332 0.05507 0.48911
 O85 O 0.42402 0.04198 0.57993
 O86 O 0.59431 0.01387 0.56442
 O87 O 0.54148 -0.08307 0.57380
 O88 O 0.51195 -0.11923 0.50118
 C89 C 0.54272 -0.03536 0.37823
 C90 C 0.46548 0.12020 0.45491
 C91 C 0.37785 -0.04779 0.46509
 C92 C 0.45176 0.03334 0.62001
 C93 C 0.62125 0.04162 0.53339
 C94 C 0.53376 -0.12294 0.54531
 Zn95 Zn 1.01568 0.43516 0.46939
 Zn96 Zn 1.06492 0.53018 0.51423
 Zn97 Zn 0.96059 0.53894 0.46020
 Zn98 Zn 0.97051 0.48463 0.56375
 O99 O 1.00275 0.49738 0.50173
 O100 O 1.08414 0.42315 0.45820
 O101 O 1.06717 0.59287 0.48498
 O102 O 0.94418 0.50778 0.39909
 O103 O 1.12044 0.49591 0.48842
 O104 O 0.98609 0.43226 0.40702
 O105 O 0.99128 0.60067 0.44386
 O106 O 0.90734 0.51364 0.56640
 O107 O 1.07725 0.54177 0.58201
 O108 O 0.89892 0.55496 0.49116
 O109 O 1.00508 0.51081 0.61864
 O110 O 0.95979 0.41628 0.57605
 O111 O 0.99008 0.37984 0.50376
 C112 C 1.12410 0.45176 0.46603
 C113 C 1.03585 0.61896 0.45678
 C114 C 0.95734 0.46324 0.38105
 C115 C 0.88087 0.54186 0.53543
 C116 C 1.04910 0.53378 0.62200
 C117 C 0.96777 0.37629 0.54773
 Zn118 Zn 0.46908 0.48858 0.93720
 Zn119 Zn 0.56355 0.53362 0.98700
 Zn120 Zn 0.45913 0.54230 1.04109
 Zn121 Zn 0.51440 0.43823 1.03060
 O122 O 0.50129 0.50087 0.99923
 O123 O 0.50416 0.51423 0.88265
 O124 O 0.56561 0.59673 1.01531
 O125 O 0.39689 0.55817 1.01025
 O126 O 0.57659 0.54426 0.91949
 O127 O 0.40620 0.51798 0.93442
 O128 O 0.48982 0.60460 1.05672
 O129 O 0.48557 0.43506 1.09335
 O130 O 0.61893 0.49971 1.01302
 O131 O 0.44398 0.51073 1.10268
 O132 O 0.58290 0.42610 1.04124
 O133 O 0.48884 0.38307 0.99558
 O134 O 0.45806 0.42053 0.92427
 C135 C 0.54860 0.53633 0.87946
 C136 C 0.53417 0.62312 1.04316
 C137 C 0.37931 0.54574 0.96551
 C138 C 0.45761 0.46607 1.12023
 C139 C 0.62272 0.45510 1.03427
 C140 C 0.46636 0.38002 0.95163
 C141 C 1.24284 0.36736 0.43999
 C142 C 1.27150 0.39851 0.40453
 C143 C 1.25155 0.44830 0.39144
 C144 C 1.20451 0.46628 0.41317
 C145 C 1.17551 0.43422 0.44686
 C146 C 1.19482 0.38464 0.46000
 H147 H 1.25648 0.32876 0.45113
 H148 H 1.27233 0.47369 0.36467
 H149 H 1.18987 0.50464 0.40241
 H150 H 1.17281 0.35940 0.48593
 C151 C 0.25722 0.55963 0.88319
 C152 C 0.23075 0.60185 0.90689
 C153 C 0.25259 0.62382 0.95249
 C154 C 0.30013 0.60489 0.97277
 C155 C 0.32698 0.56388 0.94776
 C156 C 0.30452 0.54115 0.90320
 H157 H 0.24202 0.54104 0.84840
 H158 H 0.23347 0.65613 0.97225
 H159 H 0.31648 0.62319 1.00718
 H160 H 0.32386 0.50913 0.88317
 C161 C -0.25071 0.88086 0.04649
 C162 C -0.27378 0.90431 0.09079
 C163 C -0.24787 0.94709 0.11399
 C164 C -0.19967 0.96443 0.09498
 C165 C -0.17595 0.94001 0.05190
 C166 C -0.20241 0.89867 0.02718
 H167 H -0.26937 0.84809 0.02709
 H168 H -0.26407 0.96677 0.14775
 H169 H -0.18063 0.99684 0.11461
 H170 H -0.18514 0.87920 -0.00616
 C171 C 0.74526 0.05192 0.61344
 C172 C 0.77155 0.09407 0.58989
 C173 C 0.74950 0.11694 0.54504
 C174 C 0.70134 0.09910 0.52537
 C175 C 0.67422 0.05837 0.55044
 C176 C 0.69726 0.03446 0.59409
 H177 H 0.76102 0.03310 0.64780
 H178 H 0.76880 0.14940 0.52582
 H179 H 0.68464 0.11818 0.49159
 H180 H 0.67775 0.00254 0.61402
 C181 C 0.45292 0.24612 0.37653
 C182 C 0.40722 0.26848 0.39841
 C183 C 0.38325 0.24256 0.44055
 C184 C 0.40314 0.19532 0.45914
 C185 C 0.44783 0.17239 0.43658
 C186 C 0.47307 0.19864 0.39556
 H187 H 0.47288 0.26481 0.34428
 H188 H 0.34837 0.25817 0.45908
 H189 H 0.38292 0.17644 0.49113
 H190 H 0.50759 0.18189 0.37737
 C191 C 0.94156 0.25833 0.63226
 C192 C 0.90660 0.22905 0.60102
 C193 C 0.89397 0.24833 0.55118
 C194 C 0.91564 0.29531 0.53325
 C195 C 0.94878 0.32494 0.56537
 C196 C 0.96148 0.30631 0.61499
 H197 H 0.95233 0.24521 0.67089
 H198 H 0.86760 0.22706 0.52572
 H199 H 0.90522 0.30940 0.49486
 H200 H 0.98698 0.32881 0.64028
 C201 C 0.04688 0.75245 -0.11957
 C202 C 0.09145 0.72949 -0.09611
 C203 C 0.11368 0.75476 -0.05263
 C204 C 0.09375 0.80239 -0.03479
 C205 C 0.05064 0.82620 -0.05937
 C206 C 0.02663 0.80020 -0.10126
 H207 H 0.02817 0.73426 -0.15284
 H208 H 0.14755 0.73861 -0.03284
 H209 H 0.11280 0.82102 -0.00195
 H210 H -0.00675 0.81751 -0.12087
 C211 C 0.54570 0.75066 1.11875
 C212 C 0.59010 0.77383 1.09513
 C213 C 0.61314 0.74814 1.05233
 C214 C 0.59399 0.69998 1.03517
 C215 C 0.55093 0.67611 1.05983
 C216 C 0.52626 0.70241 1.10114
 H217 H 0.52640 0.76917 1.15154
 H218 H 0.64694 0.76444 1.03253
 H219 H 0.61355 0.68107 1.00275
 H220 H 0.49292 0.68503 1.12078
 C221 C 0.38308 0.45428 1.24808
 C222 C 0.40577 0.40879 1.26952
 C223 C 0.44736 0.38463 1.24278
 C224 C 0.46455 0.40413 1.19505
 C225 C 0.44091 0.44856 1.17273
 C226 C 0.40063 0.47410 1.20021
 H227 H 0.35104 0.47400 1.26771
 H228 H 0.46598 0.34972 1.25802
 H229 H 0.49609 0.38376 1.17524
 H230 H 0.38175 0.50847 1.18409
 C231 C 0.61718 -0.04522 0.25031
 C232 C 0.59451 -0.09037 0.22814
 C233 C 0.55322 -0.11521 0.25463
 C234 C 0.53612 -0.09653 0.30272
 C235 C 0.55956 -0.05227 0.32563
 C236 C 0.59973 -0.02622 0.29855
 H237 H 0.64897 -0.02500 0.23085
 H238 H 0.53466 -0.14991 0.23879
 H239 H 0.50473 -0.11730 0.32227
 H240 H 0.61847 0.00800 0.31516
 C241 C -0.05947 1.11894 -0.23937
 C242 C -0.09982 1.09341 -0.26662
 C243 C -0.12095 1.04692 -0.24576
 C244 C -0.10262 1.02708 -0.19820
 C245 C -0.06308 1.05355 -0.17056
 C246 C -0.04147 1.09938 -0.19205
 H247 H -0.04204 1.15464 -0.25418
 H248 H -0.15197 1.02615 -0.26586
 H249 H -0.12005 0.99172 -0.18262
 H250 H -0.01070 1.12064 -0.17204
 C251 C 1.13813 0.57611 0.73202
 C252 C 1.10192 0.59610 0.76827
 C253 C 1.04811 0.59398 0.75674
 C254 C 1.03084 0.57196 0.70985
 C255 C 1.06718 0.55320 0.67308
 C256 C 1.12098 0.55560 0.68453
 H257 H 1.17988 0.57750 0.73990
 H258 H 1.01946 0.60895 0.78416
 H259 H 0.98914 0.57095 0.70166
 H260 H 1.14973 0.54146 0.65678
 C261 C 0.75405 0.61959 0.54655
 C262 C 0.73179 0.59755 0.59167
 C263 C 0.75755 0.55536 0.61575
 C264 C 0.80517 0.53687 0.59652
 C265 C 0.82836 0.55979 0.55248
 C266 C 0.80189 0.60074 0.52701
 H267 H 0.73511 0.65204 0.52696
 H268 H 0.74157 0.53708 0.65032
 H269 H 0.82421 0.50488 0.61678
 H270 H 0.81882 0.61910 0.49293
 C271 C 0.74177 0.37072 1.05805
 C272 C 0.76995 0.40096 1.09466
 C273 C 0.74987 0.45042 1.10888
 C274 C 0.70290 0.46877 1.08747
 C275 C 0.67416 0.43738 1.05295
 C276 C 0.69380 0.38833 1.03834
 H277 H 0.75556 0.33243 1.04598
 H278 H 0.77033 0.47513 1.13652
 H279 H 0.68805 0.50677 1.09923
 H280 H 0.67202 0.36369 1.01163
 C281 C 0.24695 1.05298 -0.10859
 C282 C 0.26722 1.10247 -0.09464
 C283 C 0.23951 1.13266 -0.05764
 C284 C 0.19177 1.11489 -0.03723
 C285 C 0.17206 1.06571 -0.05152
 C286 C 0.20039 1.03450 -0.08651
 H287 H 0.26705 1.02820 -0.13647
 H288 H 0.25352 1.17094 -0.04582
 H289 H 0.17022 1.13948 -0.01025
 H290 H 0.18549 0.99649 -0.09815
 C291 C 0.25881 -0.13216 0.44161
 C292 C 0.23080 -0.10193 0.40496
 C293 C 0.25118 -0.05274 0.39038
 C294 C 0.29810 -0.03444 0.41174
 C295 C 0.32652 -0.06563 0.44656
 C296 C 0.30681 -0.11459 0.46131
 H297 H 0.24471 -0.17024 0.45387
 H298 H 0.23083 -0.02802 0.36270
 H299 H 0.31311 0.00341 0.39980
 H300 H 0.32851 -0.13909 0.48816
 C301 C 0.60707 -0.25100 0.54967
 C302 C 0.59357 -0.27023 0.59933
 C303 C 0.55782 -0.24114 0.62989
 C304 C 0.53829 -0.19314 0.61233
 C305 C 0.55218 -0.17437 0.56307
 C306 C 0.58580 -0.20400 0.53144
 H307 H 0.63403 -0.27218 0.52471
 H308 H 0.54634 -0.25428 0.66832
 H309 H 0.51228 -0.17065 0.63716
 H310 H 0.59701 -0.18983 0.49328
 C311 C 1.04705 0.74522 0.37918
 C312 C 1.09227 0.76771 0.40141
 C313 C 1.11644 0.74219 0.44347
 C314 C 1.09714 0.69467 0.46178
 C315 C 1.05293 0.67131 0.43881
 C316 C 1.02743 0.69744 0.39786
 H317 H 1.02737 0.76400 0.34685
 H318 H 1.15107 0.75835 0.46189
 H319 H 1.11745 0.67589 0.49376
 H320 H 0.99324 0.68035 0.37945
 C321 C -0.11198 1.24788 0.05505
 C322 C -0.09734 1.26790 0.10411
 C323 C -0.06039 1.23969 0.13394
 C324 C -0.04030 1.19199 0.11602
 C325 C -0.05495 1.17273 0.06712
 C326 C -0.09022 1.20126 0.03643
 H327 H -0.13991 1.26836 0.03065
 H328 H -0.04809 1.25349 0.17190
 H329 H -0.01316 1.17020 0.14019
 H330 H -0.10215 1.18657 -0.00134
 C331 C 0.42648 0.27023 0.86091
 C332 C 0.40530 0.23367 0.89593
 C333 C 0.40649 0.24456 0.94948
 C334 C 0.42837 0.29135 0.96773
 C335 C 0.44789 0.32871 0.93259
 C336 C 0.44684 0.31774 0.87904
 H337 H 0.42576 0.26278 0.81940
 H338 H 0.39055 0.21683 0.97720
 H339 H 0.42840 0.29914 1.00918
 H340 H 0.46167 0.34599 0.85124
 C341 C 0.63903 0.57555 0.76970
 C342 C 0.60335 0.59657 0.73366
 C343 C 0.54950 0.59598 0.74511
 C344 C 0.53156 0.57456 0.79187
 C345 C 0.56736 0.55488 0.82853
 C346 C 0.62123 0.55562 0.81714
 H347 H 0.68079 0.57576 0.76170
 H348 H 0.52131 0.61175 0.71773
 H349 H 0.48984 0.57477 0.80008
 H350 H 0.64949 0.54067 0.84490
 C351 C 0.36069 0.07153 0.72998
 C352 C 0.39610 0.09246 0.76636
 C353 C 0.45006 0.09162 0.75527
 C354 C 0.46830 0.07041 0.70842
 C355 C 0.43274 0.05125 0.67123
 C356 C 0.37880 0.05186 0.68244
 H357 H 0.31886 0.07204 0.73758
 H358 H 0.47807 0.10744 0.78282
 H359 H 0.51007 0.07065 0.70046
 H360 H 0.35068 0.03723 0.65434
 C361 C 0.13522 0.92812 0.23296
 C362 C 0.09940 0.90745 0.26912
 C363 C 0.04561 0.90786 0.25744
 C364 C 0.02795 0.92865 0.21027
 C365 C 0.06398 0.94779 0.17347
 C366 C 0.11772 0.94741 0.18520
 H367 H 0.17697 0.92788 0.24096
 H368 H 0.01733 0.89217 0.28479
 H369 H -0.01371 0.92826 0.20183
 H370 H 0.14616 0.96202 0.15741
 C371 C 0.94247 0.38171 0.25925
 C372 C 0.90066 0.40653 0.23351
 C373 C 0.87907 0.45229 0.25549
 C374 C 0.89814 0.47188 0.30288
 C375 C 0.93889 0.44586 0.32919
 C376 C 0.96119 0.40101 0.30640
 H377 H 0.96038 0.34661 0.24352
 H378 H 0.84692 0.47246 0.23657
 H379 H 0.88021 0.50656 0.31950
 H380 H 0.99296 0.38022 0.32534
   
