data_POSCAR
  _audit_creation_date              2014-09-24
  _audit_creation_method            'ToBaCCo'
  _symmetry_space_group_name_H-M    'P1'
  _symmetry_Int_Tables_number       1
  _symmetry_cell_setting            triclinic
  loop_
  _symmetry_equiv_pos_as_xyz
 x,y,z
_cell_length_a 30.2303
_cell_length_b 29.3338
_cell_length_c 30.3282
_cell_angle_alpha 85.766900
_cell_angle_beta 88.232000
_cell_angle_gamma 95.744400
loop_
  _atom_site_label
  _atom_site_type_symbol
  _atom_site_fract_x
  _atom_site_fract_y
  _atom_site_fract_z
C1 C 0.18778 0.50025 1.05316
 H2 H 0.21137 0.47665 1.06344
 C3 C 0.15488 0.51036 1.08334
 H4 H 0.15378 0.49419 1.11670
 C5 C 0.16057 0.54971 0.99741
 H6 H 0.16266 0.56476 0.96370
 C7 C 0.12716 0.56062 1.02623
 H8 H 0.10448 0.58426 1.01375
 N9 N 0.19019 0.52023 1.01115
 C10 C 0.32401 0.55093 0.97014
 H11 H 0.33372 0.51643 0.97183
 C12 C 0.35644 0.58812 0.97292
 H13 H 0.39075 0.58170 0.97725
 C14 C 0.26791 0.60141 0.96247
 H15 H 0.23341 0.60661 0.95831
 C16 C 0.29909 0.63941 0.96507
 H17 H 0.28776 0.67327 0.96254
 Zn18 Zn 0.23395 0.50879 0.96836
 N19 N 0.28044 0.55809 0.96614
 C20 C 0.22296 0.53570 0.87790
 N21 N 0.20561 0.50838 0.91366
 C22 C 0.16553 0.48300 0.91250
 C23 C 0.14053 0.48555 0.87468
 C24 C 0.19907 0.53928 0.83933
 C25 C 0.28255 0.44521 1.01704
 C26 C 0.30150 0.40398 1.02530
 C27 C 0.26324 0.37411 0.96320
 C28 C 0.24608 0.41627 0.95534
 N29 N 0.25605 0.45096 0.98197
 H30 H 0.25486 0.55560 0.87963
 H31 H 0.15236 0.46186 0.94162
 H32 H 0.10818 0.46598 0.87488
 H33 H 0.21334 0.56189 0.81169
 H34 H 0.29013 0.47320 1.03777
 H35 H 0.32379 0.40043 1.05235
 H36 H 0.25577 0.34744 0.94091
 H37 H 0.22546 0.42134 0.92736
 C38 C 0.34394 0.63303 0.97148
 C39 C 0.12391 0.54105 1.07011
 C40 C 0.29188 0.36790 0.99813
 C41 C 0.15681 0.51467 0.83773
 C42 C 0.81763 0.50618 -0.05243
 H43 H 0.80822 0.54075 -0.05208
 C44 C 0.84867 0.49612 -0.08434
 H45 H 0.86239 0.52298 -0.10882
 C46 C 0.81274 0.42978 -0.01984
 H47 H 0.79871 0.40428 0.00570
 C48 C 0.84430 0.41841 -0.05075
 H49 H 0.85391 0.38378 -0.04910
 N50 N 0.80004 0.47304 -0.02127
 C51 C 0.72236 0.57315 0.03048
 H52 H 0.73403 0.57197 0.06378
 C53 C 0.69591 0.60752 0.01624
 H54 H 0.68770 0.63265 0.03878
 C55 C 0.71693 0.54107 -0.03877
 H56 H 0.72455 0.51468 -0.06000
 C57 C 0.69100 0.57499 -0.05448
 H58 H 0.67876 0.57376 -0.08754
 Zn59 Zn 0.76009 0.48800 0.02353
 N60 N 0.73179 0.54034 0.00315
 C61 C 0.77196 0.50435 0.11472
 N62 N 0.79285 0.49879 0.07532
 C63 C 0.83779 0.49800 0.07222
 C64 C 0.86307 0.50016 0.10988
 C65 C 0.79585 0.50531 0.15348
 C66 C 0.68828 0.42730 0.00063
 C67 C 0.64812 0.39946 0.00828
 C68 C 0.66297 0.39293 0.08610
 C69 C 0.70335 0.41993 0.07681
 N70 N 0.71397 0.43884 0.03499
 H71 H 0.73636 0.50591 0.11648
 H72 H 0.85416 0.49456 0.04066
 H73 H 0.89861 0.49817 0.10690
 H74 H 0.77849 0.50792 0.18480
 H75 H 0.69783 0.44144 -0.03255
 H76 H 0.62691 0.39264 -0.01912
 H77 H 0.65381 0.38028 0.11993
 H78 H 0.72497 0.42722 0.10352
 C79 C 0.67952 0.60840 -0.02661
 C80 C 0.86271 0.45194 -0.08348
 C81 C 0.63415 0.38399 0.05174
 C82 C 0.84187 0.50226 0.15128
 C83 C 0.02353 0.32055 0.42835
 H84 H -0.00976 0.30789 0.44057
 C85 C 0.02969 0.35842 0.39737
 H86 H 0.00077 0.37414 0.38590
 C87 C 0.10115 0.31569 0.42943
 H88 H 0.12897 0.29887 0.44162
 C89 C 0.10899 0.35432 0.39935
 H90 H 0.14302 0.36600 0.38896
 N91 N 0.05897 0.30004 0.44395
 C92 C -0.02730 0.18622 0.50752
 H93 H -0.01636 0.18616 0.54111
 C94 C -0.06698 0.16065 0.49831
 H95 H -0.08666 0.14105 0.52501
 C96 C -0.01554 0.21242 0.43183
 H97 H 0.00502 0.23204 0.40589
 C98 C -0.05547 0.18835 0.42136
 H99 H -0.06563 0.18996 0.38741
 Zn100 Zn 0.04769 0.25065 0.48876
 N101 N -0.00308 0.21229 0.47456
 C102 C 0.04519 0.25182 0.58219
 N103 N 0.03673 0.27550 0.54357
 C104 C 0.02165 0.31763 0.54339
 C105 C 0.01490 0.33774 0.58287
 C106 C 0.03902 0.27084 0.62267
 C107 C 0.09221 0.17083 0.48418
 C108 C 0.12784 0.14418 0.48861
 C109 C 0.17223 0.20988 0.51338
 C110 C 0.13553 0.23504 0.50923
 N111 N 0.09677 0.21551 0.49410
 H112 H 0.05714 0.21832 0.58153
 H113 H 0.01512 0.33610 0.51264
 H114 H 0.00325 0.37153 0.58168
 H115 H 0.04619 0.25153 0.65291
 H116 H 0.06093 0.15577 0.47278
 H117 H 0.12380 0.10874 0.48036
 H118 H 0.20279 0.22606 0.52543
 H119 H 0.13790 0.27022 0.51810
 C120 C -0.08201 0.16281 0.45503
 C121 C 0.07294 0.37659 0.38308
 C122 C 0.16861 0.16389 0.50277
 C123 C 0.02392 0.31460 0.62319
 C124 C 0.91667 0.67489 0.53236
 H125 H 0.90027 0.67861 0.50128
 C126 C 0.90622 0.63541 0.56080
 H127 H 0.88200 0.60866 0.55110
 C128 C 0.96909 0.70504 0.58197
 H129 H 0.99322 0.73248 0.59030
 C130 C 0.96017 0.66581 0.61104
 H131 H 0.97792 0.66315 0.64146
 N132 N 0.94772 0.70863 0.54325
 C133 C 0.91410 0.83669 0.47574
 H134 H 0.94349 0.84843 0.45516
 C135 C 0.87779 0.86272 0.47546
 H136 H 0.87945 0.89449 0.45459
 C137 C 0.87613 0.78141 0.52818
 H138 H 0.87559 0.75014 0.54934
 C139 C 0.83893 0.80589 0.52834
 H140 H 0.81044 0.79305 0.54979
 Zn141 Zn 0.96129 0.76016 0.50189
 N142 N 0.91262 0.79667 0.50174
 C143 C 0.95201 0.75465 0.40848
 N144 N 0.97013 0.73695 0.44572
 C145 C 0.99404 0.70013 0.44461
 C146 C 1.00077 0.67984 0.40515
 C147 C 0.95815 0.73550 0.36811
 C148 C 1.01815 0.83984 0.52335
 C149 C 1.05887 0.86304 0.53376
 C150 C 1.09182 0.79149 0.53265
 C151 C 1.05104 0.77002 0.52138
 N152 N 1.01504 0.79408 0.51712
 H153 H 0.93237 0.78327 0.40992
 H154 H 1.00695 0.68555 0.47471
 H155 H 1.01951 0.65022 0.40530
 H156 H 0.94300 0.74991 0.33915
 H157 H 0.98924 0.85849 0.52039
 H158 H 1.06103 0.89943 0.53848
 H159 H 1.11989 0.77142 0.53570
 H160 H 1.04799 0.73375 0.51679
 C161 C 0.83943 0.84700 0.50160
 C162 C 0.92843 0.63042 0.60055
 C163 C 1.09612 0.83857 0.53902
 C164 C 0.98270 0.69740 0.36620
 C165 C 0.42181 -0.00604 0.30323
 H166 H 0.43892 0.02779 0.29533
 C167 C 0.39034 -0.01303 0.33843
 H168 H 0.38368 0.01567 0.35723
 C169 C 0.41088 -0.08469 0.28952
 H170 H 0.41942 -0.11277 0.27091
 C171 C 0.37925 -0.09323 0.32446
 H172 H 0.36362 -0.12787 0.33166
 N173 N 0.43264 -0.04199 0.28061
 C174 C 0.48767 -0.09061 0.17142
 H175 H 0.47724 -0.06106 0.15274
 C176 C 0.49630 -0.12892 0.14932
 H177 H 0.49286 -0.12761 0.11381
 C178 C 0.50334 -0.12819 0.24002
 H179 H 0.50469 -0.12823 0.27559
 C180 C 0.51317 -0.16715 0.21908
 H181 H 0.52264 -0.19632 0.23918
 Zn182 Zn 0.48407 -0.03423 0.24210
 N183 N 0.49261 -0.09016 0.21582
 C184 C 0.56467 -0.04064 0.29081
 N185 N 0.53328 -0.01375 0.27574
 C186 C 0.53501 0.03115 0.28461
 C187 C 0.56796 0.05024 0.31073
 C188 C 0.59809 -0.02300 0.31763
 C189 C 0.44519 0.03553 0.18729
 C190 C 0.44759 0.06972 0.15213
 C191 C 0.52354 0.05510 0.13644
 C192 C 0.51984 0.02184 0.17175
 N193 N 0.48111 0.01231 0.19605
 H194 H 0.56392 -0.07578 0.28260
 H195 H 0.51065 0.05238 0.27129
 H196 H 0.56764 0.08576 0.31793
 H197 H 0.62235 -0.04501 0.33006
 H198 H 0.41483 0.02756 0.20737
 H199 H 0.41890 0.08803 0.14521
 H200 H 0.55506 0.06207 0.11815
 H201 H 0.54800 0.00321 0.17992
 C202 C 0.51060 -0.16752 0.17279
 C203 C 0.36985 -0.05742 0.35052
 C204 C 0.48706 0.07936 0.12592
 C205 C 0.59980 0.02294 0.32806
 C206 C 0.58017 0.01489 0.70056
 H207 H 0.56271 -0.01887 0.70854
 C208 C 0.61090 0.02223 0.66459
 H209 H 0.61729 -0.00625 0.64537
 C210 C 0.59096 0.09365 0.71399
 H211 H 0.58200 0.12200 0.73189
 C212 C 0.62176 0.10246 0.67854
 H213 H 0.63686 0.13727 0.67112
 N214 N 0.57068 0.05049 0.72433
 C215 C 0.50123 -0.00211 0.84858
 H216 H 0.47684 0.02250 0.84714
 C217 C 0.50196 -0.03270 0.88573
 H218 H 0.47763 -0.03149 0.91244
 C219 C 0.56159 -0.03373 0.81459
 H220 H 0.58490 -0.03368 0.78684
 C221 C 0.56295 -0.06583 0.85114
 H222 H 0.58734 -0.09048 0.85132
 Zn223 Zn 0.52325 0.04242 0.76764
 N224 N 0.53070 -0.00293 0.81399
 C225 C 0.44932 -0.01789 0.74835
 N226 N 0.47075 0.02474 0.73800
 C227 C 0.45853 0.05211 0.70323
 C228 C 0.42438 0.03613 0.67636
 C229 C 0.41530 -0.03524 0.72233
 C230 C 0.55739 0.11170 0.81693
 C231 C 0.55907 0.15074 0.84045
 C232 C 0.48314 0.15954 0.82158
 C233 C 0.48331 0.12075 0.79720
 N234 N 0.52021 0.09779 0.79544
 H235 H 0.45982 -0.03946 0.77565
 H236 H 0.47656 0.08561 0.69529
 H237 H 0.41600 0.05772 0.64796
 H238 H 0.39943 -0.06959 0.73089
 H239 H 0.58582 0.09209 0.81585
 H240 H 0.58891 0.16068 0.85770
 H241 H 0.45340 0.17713 0.82368
 H242 H 0.45376 0.10837 0.78073
 C243 C 0.53311 -0.06510 0.88747
 C244 C 0.63145 0.06673 0.65266
 C245 C 0.52155 0.17502 0.84324
 C246 C 0.40324 -0.00862 0.68506
 C247 C 0.25494 0.03075 0.52063
 C248 C 0.28660 0.02448 0.55874
 C249 C 0.29832 -0.01889 0.56560
 C250 C 0.27726 -0.05222 0.53354
 C251 C 0.27870 0.01404 0.48041
 C252 C 0.28983 -0.02963 0.48688
 C253 C 0.21508 -0.00582 0.53187
 C254 C 0.22704 -0.04923 0.53908
 H255 H 0.29772 0.05181 0.57921
 H256 H 0.28716 -0.08747 0.53850
 H257 H 0.28376 0.03405 0.44886
 H258 H 0.18087 0.00195 0.53447
 C259 C 0.75224 -0.02097 0.48721
 C260 C 0.72930 -0.00322 0.52737
 C261 C 0.71915 0.04076 0.52051
 C262 C 0.73252 0.06293 0.47384
 C263 C 0.72048 -0.01405 0.44927
 C264 C 0.71026 0.02998 0.44214
 C265 C 0.79280 0.01431 0.47557
 C266 C 0.78221 0.05801 0.46813
 H267 H 0.72250 -0.02344 0.55863
 H268 H 0.72448 0.09883 0.46847
 H269 H 0.70779 -0.04147 0.42960
 H270 H 0.82649 0.00534 0.47141
 C271 C 0.41526 0.27387 1.01095
 C272 C 0.43504 0.27152 0.96387
 C273 C 0.47839 0.26322 0.96273
 C274 C 0.49805 0.25743 1.00833
 C275 C 0.42320 0.22775 1.03546
 C276 C 0.46663 0.21894 1.03334
 C277 C 0.44663 0.30961 1.03232
 C278 C 0.48986 0.30083 1.03086
 H279 H 0.41568 0.27345 0.93444
 H280 H 0.53356 0.25069 1.00749
 H281 H 0.39677 0.20332 1.05043
 H282 H 0.43551 0.33858 1.04815
 C283 C 0.56592 0.71611 -0.01791
 C284 C 0.56930 0.76610 -0.03822
 C285 C 0.53849 0.79128 -0.02104
 C286 C 0.50685 0.76423 0.01430
 C287 C 0.56831 0.71994 0.03228
 C288 C 0.53743 0.74534 0.04898
 C289 C 0.51778 0.69666 -0.02467
 C290 C 0.48678 0.72198 -0.00813
 H291 H 0.59433 0.78035 -0.06314
 H292 H 0.48167 0.78456 0.02847
 H293 H 0.59360 0.70596 0.05221
 H294 H 0.50919 0.66607 -0.04183
 C295 C 1.03861 0.50179 0.28057
 C296 C 0.99001 0.48362 0.27365
 C297 C 0.96863 0.51211 0.24598
 C298 C 0.99726 0.55616 0.22837
 C299 C 1.05980 0.51078 0.23377
 C300 C 1.03843 0.53931 0.20648
 C301 C 1.03580 0.54944 0.29729
 C302 C 1.01389 0.57790 0.27023
 H303 H 0.97455 0.45072 0.28792
 H304 H 0.97896 0.57892 0.20644
 H305 H 1.08892 0.49519 0.22308
 H306 H 1.04757 0.55861 0.32916
 C307 C -0.04204 0.50577 0.70840
 C308 C -0.06583 0.49353 0.75363
 C309 C -0.04368 0.46624 0.78163
 C310 C 0.00092 0.45429 0.76203
 C311 C 0.00418 0.52775 0.71875
 C312 C 0.02676 0.50091 0.74672
 C313 C -0.03359 0.45968 0.69088
 C314 C -0.01110 0.43265 0.71876
 H315 H -0.09793 0.50457 0.76220
 H316 H 0.01971 0.43286 0.78485
 H317 H 0.01753 0.56180 0.70553
 H318 H -0.04330 0.45012 0.65845
 C319 C 0.20686 0.13633 0.50629
 C320 C 0.25096 0.15420 0.50283
 C321 C 0.27470 0.11716 0.50705
 C322 C 0.24344 0.07942 0.51319
 O323 O 0.20224 0.09091 0.51242
 H324 H 0.26430 0.18986 0.49719
 H325 H 0.31055 0.11744 0.50609
 C326 C 0.64844 0.64213 -0.04080
 C327 C 0.63710 0.65251 -0.08395
 C328 C 0.60539 0.68219 -0.08131
 C329 C 0.59976 0.68796 -0.03687
 O330 O 0.62588 0.66383 -0.01228
 H331 H 0.64989 0.63976 -0.11386
 H332 H 0.58789 0.69735 -0.10837
 C333 C 0.80076 -0.12596 0.50150
 C334 C 0.75741 -0.14325 0.51313
 C335 C 0.73321 -0.10650 0.50872
 C336 C 0.76356 -0.06955 0.49503
 O337 O 0.80443 -0.08131 0.49038
 H338 H 0.74480 -0.17839 0.52326
 H339 H 0.69780 -0.10640 0.51509
 C340 C 0.31495 0.32591 1.00362
 C341 C 0.29837 0.28294 0.99226
 C342 C 0.33281 0.25640 0.99667
 C343 C 0.36780 0.28510 1.01043
 O344 O 0.35696 0.32720 1.01465
 H345 H 0.26574 0.27270 0.98042
 H346 H 0.33326 0.22120 0.98838
 C347 C 0.87375 0.14060 0.44577
 C348 C 0.84559 0.15865 0.41565
 C349 C 0.80712 0.13008 0.42040
 C350 C 0.81496 0.09651 0.45256
 O351 O 0.85523 0.10277 0.46821
 H352 H 0.85185 0.18972 0.39390
 H353 H 0.77706 0.13314 0.40243
 C354 C 0.37729 0.67245 -0.02188
 C355 C 0.36727 0.71604 -0.01346
 C356 C 0.40698 0.74046 -0.00726
 C357 C 0.43852 0.71024 -0.01230
 O358 O 0.42066 0.66898 -0.02121
 H359 H 0.33498 0.72871 -0.01116
 H360 H 0.41204 0.77615 -0.00014
 C361 C 0.13948 -0.13845 0.55071
 C362 C 0.17070 -0.16044 0.57406
 C363 C 0.20695 -0.12918 0.57408
 C364 C 0.19540 -0.09023 0.55085
 O365 O 0.15421 -0.09550 0.53692
 H366 H 0.16768 -0.19541 0.58877
 H367 H 0.23830 -0.13454 0.58881
 C368 C 0.58840 0.36218 1.06114
 C369 C 0.56242 0.36923 1.09779
 C370 C 0.52139 0.34773 1.09103
 C371 C 0.52560 0.32880 1.05106
 O372 O 0.56610 0.33753 1.03277
 H373 H 0.57184 0.38911 1.12532
 H374 H 0.49202 0.34577 1.11268
 C375 C 0.49091 0.11499 1.08838
 C376 C 0.52269 0.11769 1.05425
 C377 C 0.51711 0.15666 1.02899
 C378 C 0.48219 0.17490 1.04914
 O379 O 0.46578 0.14955 1.08499
 H380 H 0.54727 0.09424 1.04833
 H381 H 0.53625 0.17013 0.99929
 C382 C -0.07938 0.58793 0.63023
 C383 C -0.11672 0.55649 0.63151
 C384 C -0.10849 0.52204 0.66193
 C385 C -0.06678 0.53495 0.67682
 O386 O -0.04924 0.57492 0.65780
 H387 H -0.14626 0.55820 0.61247
 H388 H -0.12977 0.49075 0.67149
 C389 C 0.53333 0.90182 -0.07322
 C390 C 0.51813 0.91016 -0.03144
 C391 C 0.51948 0.87016 -0.00620
 C392 C 0.53558 0.84022 -0.03417
 O393 O 0.54448 0.85936 -0.07487
 H394 H 0.50667 0.94146 -0.02068
 H395 H 0.50937 0.86350 0.02839
 C396 C 1.07910 0.41637 0.35375
 C397 C 1.11943 0.44187 0.34231
 C398 C 1.10946 0.47763 0.31446
 C399 C 1.06405 0.47116 0.31018
 O400 O 1.04553 0.43436 0.33419
 H401 H 1.15222 0.43615 0.35335
 H402 H 1.13256 0.50494 0.29859
 C403 C 0.52272 0.79567 0.14936
 C404 C 0.54223 0.75774 0.16653
 C405 C 0.55071 0.73326 0.13112
 C406 C 0.53531 0.75760 0.09515
 O407 O 0.51840 0.79513 0.10611
 H408 H 0.55056 0.74920 0.20035
 H409 H 0.56621 0.70156 0.13152
 C410 C 0.01802 0.33756 0.66456
 C411 C 0.03020 0.32254 0.70632
 C412 C 0.02052 0.35602 0.73310
 C413 C 0.00307 0.38879 0.70573
 O414 O 0.00152 0.37758 0.66444
 H415 H 0.04503 0.29151 0.71618
 H416 H 0.02579 0.35639 0.76819
 C417 C 0.52175 0.21388 0.87158
 C418 C 0.55947 0.24184 0.88045
 C419 C 0.54703 0.26679 0.91395
 C420 C 0.50263 0.25267 0.92274
 O421 O 0.48708 0.22064 0.89710
 H422 H 0.59265 0.24221 0.86591
 H423 H 0.56830 0.29053 0.93162
 C424 C 0.98818 0.67404 0.32498
 C425 C 0.97564 0.68914 0.28340
 C426 C 0.98468 0.65563 0.25653
 C427 C 1.00212 0.62261 0.28361
 O428 O 1.00443 0.63383 0.32492
 H429 H 0.96119 0.72042 0.27361
 H430 H 0.97877 0.65534 0.22156
 C431 C 1.09084 0.55140 0.10042
 C432 C 1.05807 0.58033 0.09168
 C433 C 1.03383 0.57993 0.13035
 C434 C 1.05337 0.55095 0.15994
 O435 O 1.08777 0.53368 0.14193
 H436 H 1.05194 0.59958 0.06110
 H437 H 1.00539 0.59867 0.13587
 C438 C 0.66078 0.07597 0.61220
 C439 C 0.67434 0.11912 0.59193
 C440 C 0.69824 0.11173 0.55487
 C441 C 0.69768 0.06471 0.55506
 O442 O 0.67507 0.04291 0.58976
 H443 H 0.66707 0.15223 0.60205
 H444 H 0.71419 0.13773 0.53080
 C445 C -0.10333 0.44189 0.88343
 C446 C -0.07620 0.40676 0.88800
 C447 C -0.04936 0.41146 0.85059
 C448 C -0.06227 0.44887 0.82587
 O449 O -0.09488 0.46736 0.84572
 H450 H -0.07553 0.38114 0.91545
 H451 H -0.02399 0.38969 0.84221
 C452 C 0.34149 -0.06616 0.39171
 C453 C 0.32691 -0.10911 0.41182
 C454 C 0.30566 -0.10118 0.45032
 C455 C 0.30865 -0.05406 0.45104
 O456 O 0.33022 -0.03273 0.41554
 H457 H 0.33190 -0.14244 0.40066
 H458 H 0.28970 -0.12687 0.47469
 C459 C 0.12830 0.52073 0.79928
 C460 C 0.13798 0.55221 0.76321
 C461 C 0.10133 0.54869 0.73824
 C462 C 0.07195 0.51530 0.76071
 O463 O 0.08825 0.49818 0.79755
 H464 H 0.16754 0.57584 0.75609
 H465 H 0.09663 0.56837 0.70746
 C466 C 0.63383 0.04172 0.35774
 C467 C 0.64528 0.08792 0.36192
 C468 C 0.67579 0.08980 0.39388
 C469 C 0.68094 0.04464 0.40695
 O470 O 0.65573 0.01539 0.38486
 H471 H 0.63310 0.11703 0.34392
 H472 H 0.69217 0.12070 0.40581
 C473 C 0.86792 0.49926 0.19160
 C474 C 0.85224 0.47787 0.23197
 C475 C 0.88825 0.47902 0.25814
 C476 C 0.92291 0.50150 0.23190
 O477 O 0.91075 0.51368 0.19162
 H478 H 0.81897 0.46204 0.24080
 H479 H 0.88910 0.46550 0.29224
 C480 C 0.37080 -0.02812 0.65403
 C481 C 0.35966 -0.07455 0.65066
 C482 C 0.33122 -0.07741 0.61686
 C483 C 0.32681 -0.03259 0.60197
 O484 O 0.35089 -0.00261 0.62439
 H485 H 0.37156 -0.10316 0.66971
 H486 H 0.31569 -0.10867 0.60486
   
