data_POSCAR
  _audit_creation_date              2014-09-24
  _audit_creation_method            'ToBaCCo'
  _symmetry_space_group_name_H-M    'P1'
  _symmetry_Int_Tables_number       1
  _symmetry_cell_setting            triclinic
  loop_
  _symmetry_equiv_pos_as_xyz
 x,y,z
_cell_length_a 54.0010
_cell_length_b 54.0143
_cell_length_c 54.3124
_cell_angle_alpha 89.936200
_cell_angle_beta 89.807600
_cell_angle_gamma 90.045100
loop_
  _atom_site_label
  _atom_site_type_symbol
  _atom_site_fract_x
  _atom_site_fract_y
  _atom_site_fract_z
C1 C 0.22948 0.51894 1.04535
 H2 H 0.24261 0.53400 1.04442
 C3 C 0.21288 0.51762 1.06510
 H4 H 0.21378 0.53172 1.07923
 C5 C 0.21202 0.48294 1.02760
 H6 H 0.21169 0.46965 1.01271
 C7 C 0.19511 0.48085 1.04698
 H8 H 0.18195 0.46572 1.04672
 N9 N 0.22885 0.50164 1.02720
 C10 C 0.27058 0.54970 0.98416
 H11 H 0.25761 0.54869 0.96909
 C12 C 0.28729 0.56943 0.98531
 H13 H 0.28675 0.58354 0.97116
 C14 C 0.28765 0.53206 1.02027
 H15 H 0.28786 0.51717 1.03361
 C16 C 0.30467 0.55142 1.02214
 H17 H 0.31783 0.55130 1.03713
 Zn18 Zn 0.25011 0.50353 0.99950
 N19 N 0.27101 0.53157 1.00155
 C20 C 0.21282 0.52396 0.97039
 N21 N 0.22969 0.50532 0.97131
 C22 C 0.23077 0.48777 0.95339
 C23 C 0.21456 0.48871 0.93343
 C24 C 0.19627 0.52562 0.95077
 C25 C 0.28815 0.47479 0.97965
 C26 C 0.30500 0.45526 0.97815
 C27 C 0.28643 0.43750 1.01465
 C28 C 0.26992 0.45738 1.01543
 N29 N 0.27099 0.47545 0.99800
 H30 H 0.21210 0.53742 0.98511
 H31 H 0.24389 0.47275 0.95473
 H32 H 0.21563 0.47445 0.91948
 H33 H 0.18293 0.54057 0.95053
 H34 H 0.28886 0.48964 0.96628
 H35 H 0.31856 0.45522 0.96342
 H36 H 0.28535 0.42341 1.02881
 H37 H 0.25656 0.45852 1.03023
 C38 C 0.30475 0.57040 1.00442
 C39 C 0.19526 0.49839 1.06615
 C40 C 0.30436 0.43631 0.99588
 C41 C 0.19691 0.50777 0.93198
 C42 C 0.77269 0.51652 -0.04633
 H43 H 0.75967 0.53162 -0.04487
 C44 C 0.78924 0.51583 -0.06615
 H45 H 0.78853 0.53036 -0.07986
 C46 C 0.79004 0.47986 -0.02978
 H47 H 0.79040 0.46610 -0.01529
 C48 C 0.80692 0.47844 -0.04925
 H49 H 0.82013 0.46338 -0.04961
 N50 N 0.77332 0.49862 -0.02871
 C51 C 0.73281 0.54598 0.01601
 H52 H 0.74597 0.54444 0.03087
 C53 C 0.71638 0.56595 0.01552
 H54 H 0.71732 0.57971 0.02995
 C55 C 0.71499 0.52945 -0.02023
 H56 H 0.71439 0.51490 -0.03389
 C57 C 0.69825 0.54907 -0.02146
 H58 H 0.68489 0.54949 -0.03627
 Zn59 Zn 0.75246 0.49998 -0.00068
 N60 N 0.73189 0.52830 -0.00177
 C61 C 0.77231 0.48288 0.04477
 N62 N 0.77331 0.50085 0.02723
 C63 C 0.79040 0.51930 0.02829
 C64 C 0.80726 0.52034 0.04769
 C65 C 0.78884 0.48318 0.06450
 C66 C 0.73185 0.45432 -0.01713
 C67 C 0.71504 0.43465 -0.01641
 C68 C 0.69723 0.45205 0.02059
 C69 C 0.71434 0.47136 0.01914
 N70 N 0.73126 0.47211 0.00057
 H71 H 0.75901 0.46802 0.04330
 H72 H 0.79105 0.53312 0.01386
 H73 H 0.82076 0.53516 0.04806
 H74 H 0.78782 0.46860 0.07816
 H75 H 0.74504 0.45554 -0.03207
 H76 H 0.71572 0.42078 -0.03077
 H77 H 0.68388 0.45194 0.03550
 H78 H 0.71404 0.48599 0.03273
 C79 C 0.69870 0.56762 -0.00334
 C80 C 0.80675 0.49666 -0.06773
 C81 C 0.69734 0.43338 0.00258
 C82 C 0.80671 0.50204 0.06609
 C83 C -0.01656 0.28740 0.47337
 H84 H -0.02968 0.28847 0.48843
 C85 C -0.01822 0.30401 0.45375
 H86 H -0.03286 0.31770 0.45401
 C87 C 0.01863 0.26839 0.45544
 H88 H 0.03318 0.25470 0.45637
 C89 C 0.01775 0.28468 0.43545
 H90 H 0.03167 0.28304 0.42115
 N91 N 0.00157 0.26999 0.47382
 C92 C -0.02617 0.21173 0.52224
 H93 H -0.01132 0.21086 0.53554
 C94 C -0.04593 0.19511 0.52381
 H95 H -0.04616 0.18158 0.53853
 C96 C -0.04333 0.23007 0.48651
 H97 H -0.04200 0.24335 0.47170
 C98 C -0.06342 0.21379 0.48737
 H99 H -0.07748 0.21500 0.47326
 Zn100 Zn 0.00318 0.24932 0.50189
 N101 N -0.02525 0.22882 0.50386
 C102 C -0.01203 0.26943 0.54794
 N103 N 0.00527 0.27031 0.52970
 C104 C 0.02373 0.28745 0.52995
 C105 C 0.02541 0.30450 0.54917
 C106 C -0.01106 0.28616 0.56751
 C107 C 0.03003 0.20992 0.48265
 C108 C 0.04896 0.19244 0.48093
 C109 C 0.06989 0.21294 0.51447
 C110 C 0.05037 0.22988 0.51575
 N111 N 0.03098 0.22810 0.49990
 H112 H -0.02691 0.25610 0.54714
 H113 H 0.03697 0.28804 0.51497
 H114 H 0.04018 0.31807 0.54885
 H115 H -0.02515 0.28524 0.58171
 H116 H 0.01427 0.20879 0.47045
 H117 H 0.04767 0.17798 0.46721
 H118 H 0.08503 0.21447 0.52740
 H119 H 0.05058 0.24415 0.52964
 C120 C -0.06486 0.19590 0.50613
 C121 C -0.00082 0.30296 0.43439
 C122 C 0.06919 0.19374 0.49706
 C123 C 0.00777 0.30411 0.56824
 C124 C 0.97646 0.71058 0.52499
 H125 H 0.96453 0.70792 0.50925
 C126 C 0.97514 0.69426 0.54487
 H127 H 0.96206 0.67908 0.54421
 C128 C 1.00824 0.73350 0.54453
 H129 H 1.02100 0.74892 0.54434
 C130 C 1.00762 0.71753 0.56480
 H131 H 1.02013 0.72078 0.58000
 N132 N 0.99301 0.72955 0.52503
 C133 C 0.96103 0.78227 0.47332
 H134 H 0.97397 0.78123 0.45810
 C135 C 0.94089 0.79837 0.47202
 H136 H 0.93843 0.80945 0.45559
 C137 C 0.94925 0.76969 0.51348
 H138 H 0.95284 0.75883 0.52980
 C139 C 0.92882 0.78553 0.51295
 H140 H 0.91681 0.78653 0.52892
 Zn141 Zn 0.99437 0.74910 0.49617
 N142 N 0.96507 0.76857 0.49396
 C143 C 0.97774 0.72545 0.45231
 N144 N 0.99643 0.72691 0.46900
 C145 C 1.01629 0.71150 0.46756
 C146 C 1.01819 0.69422 0.44854
 C147 C 0.97890 0.70848 0.43296
 C148 C 1.01931 0.79518 0.49285
 C149 C 1.03950 0.81124 0.49206
 C150 C 1.06641 0.77673 0.50085
 C151 C 1.04568 0.76117 0.50093
 N152 N 1.02263 0.77050 0.49672
 H153 H 0.96156 0.73700 0.45418
 H154 H 1.03049 0.71218 0.48144
 H155 H 1.03415 0.68212 0.44789
 H156 H 0.96374 0.70762 0.42000
 H157 H 1.00102 0.80266 0.49032
 H158 H 1.03636 0.83075 0.48870
 H159 H 1.08458 0.76898 0.50418
 H160 H 1.04804 0.74171 0.50477
 C161 C 0.92465 0.80045 0.49216
 C162 C 0.99108 0.69742 0.56502
 C163 C 1.06342 0.80206 0.49600
 C164 C 0.99932 0.69253 0.43090
 C165 C 0.47076 -0.01847 0.28768
 H166 H 0.48551 -0.03202 0.28792
 C167 C 0.45127 -0.02029 0.30452
 H168 H 0.45116 -0.03544 0.31758
 C169 C 0.45360 0.01809 0.27069
 H170 H 0.45484 0.03329 0.25781
 C171 C 0.43379 0.01704 0.28728
 H172 H 0.41981 0.03139 0.28673
 N173 N 0.47152 0.00041 0.27113
 C174 C 0.52030 -0.02652 0.21292
 H175 H 0.53379 -0.01171 0.21253
 C176 C 0.52214 -0.04602 0.19617
 H177 H 0.53732 -0.04595 0.18309
 C178 C 0.48391 -0.04387 0.23025
 H179 H 0.46875 -0.04270 0.24321
 C180 C 0.48499 -0.06373 0.21382
 H181 H 0.47064 -0.07772 0.21472
 Zn182 Zn 0.49964 0.00223 0.25034
 N183 N 0.50149 -0.02584 0.22958
 C184 C 0.54570 -0.01350 0.27044
 N185 N 0.52765 0.00404 0.27109
 C186 C 0.52823 0.02274 0.28780
 C187 C 0.54762 0.02449 0.30463
 C188 C 0.56545 -0.01248 0.28696
 C189 C 0.47919 0.03102 0.21294
 C190 C 0.47754 0.05047 0.19610
 C191 C 0.51461 0.06811 0.21366
 C192 C 0.51553 0.04831 0.23019
 N193 N 0.49791 0.03031 0.22959
 H194 H 0.54463 -0.02857 0.25744
 H195 H 0.51340 0.03620 0.28818
 H196 H 0.54758 0.03949 0.31784
 H197 H 0.57952 -0.02674 0.28624
 H198 H 0.46566 0.01624 0.21260
 H199 H 0.46253 0.05053 0.18292
 H200 H 0.52894 0.08212 0.21434
 H201 H 0.53060 0.04713 0.24316
 C202 C 0.50425 -0.06501 0.19630
 C203 C 0.43249 -0.00231 0.30457
 C204 C 0.49549 0.06932 0.19621
 C205 C 0.56653 0.00664 0.30446
 C206 C 0.52638 -0.01920 0.71343
 H207 H 0.51225 -0.03341 0.71360
 C208 C 0.54569 -0.02031 0.69633
 H209 H 0.54629 -0.03558 0.68345
 C210 C 0.54221 0.01824 0.72978
 H211 H 0.54051 0.03349 0.74250
 C212 C 0.56185 0.01786 0.71298
 H213 H 0.57522 0.03280 0.71321
 N214 N 0.52505 -0.00022 0.72980
 C215 C 0.47863 -0.02885 0.78906
 H216 H 0.46447 -0.01469 0.78931
 C217 C 0.47783 -0.04814 0.80613
 H218 H 0.46284 -0.04869 0.81941
 C219 C 0.51565 -0.04473 0.77168
 H220 H 0.53061 -0.04304 0.75853
 C221 C 0.51559 -0.06437 0.78846
 H222 H 0.53047 -0.07776 0.78783
 Zn223 Zn 0.49737 0.00041 0.75123
 N224 N 0.49727 -0.02752 0.77224
 C225 C 0.45301 -0.01919 0.73130
 N226 N 0.46872 0.00052 0.73125
 C227 C 0.46529 0.01994 0.71569
 C228 C 0.44509 0.02031 0.69970
 C229 C 0.43280 -0.01977 0.71533
 C230 C 0.51776 0.03012 0.78776
 C231 C 0.51931 0.04962 0.80450
 C232 C 0.48075 0.06556 0.78861
 C233 C 0.47995 0.04571 0.77214
 N234 N 0.49840 0.02859 0.77190
 H235 H 0.45642 -0.03477 0.74330
 H236 H 0.47840 0.03509 0.71560
 H237 H 0.44276 0.03591 0.68739
 H238 H 0.42064 -0.03571 0.71550
 H239 H 0.53194 0.01597 0.78750
 H240 H 0.53488 0.05036 0.81698
 H241 H 0.46579 0.07890 0.78858
 H242 H 0.46433 0.04382 0.75993
 C243 C 0.49654 -0.06619 0.80609
 C244 C 0.56374 -0.00156 0.69588
 C245 C 0.50059 0.06766 0.80516
 C246 C 0.42865 0.00016 0.69925
 C247 C 0.27130 0.01381 0.45748
 H248 H 0.25890 0.02923 0.46007
 C249 C 0.28775 0.01402 0.43755
 H250 H 0.28792 0.02982 0.42527
 C251 C 0.28581 -0.02561 0.46985
 H252 H 0.28458 -0.04131 0.48208
 C253 C 0.30251 -0.02618 0.45021
 H254 H 0.31428 -0.04224 0.44793
 N255 N 0.27096 -0.00561 0.47348
 C256 C 0.20267 0.01691 0.49997
 H257 H 0.19587 -0.00187 0.50028
 C258 C 0.18572 0.03632 0.49888
 H259 H 0.16612 0.03209 0.49825
 C260 C 0.23616 0.04521 0.50087
 H261 H 0.25591 0.04854 0.50149
 C262 C 0.21977 0.06525 0.50020
 H263 H 0.22706 0.08393 0.50028
 Zn264 Zn 0.24946 -0.00614 0.50132
 N265 N 0.22743 0.02154 0.50067
 C266 C 0.26846 0.01385 0.54614
 N267 N 0.26881 -0.00597 0.53067
 C268 C 0.28350 -0.02586 0.53542
 C269 C 0.29909 -0.02603 0.55585
 C270 C 0.28412 0.01465 0.56656
 C271 C 0.21929 -0.04056 0.47779
 C272 C 0.20315 -0.06061 0.47570
 C273 C 0.21120 -0.07080 0.51827
 C274 C 0.22692 -0.05028 0.51966
 N275 N 0.23043 -0.03552 0.49963
 H276 H 0.25633 0.02928 0.54260
 H277 H 0.28309 -0.04175 0.52342
 H278 H 0.31084 -0.04195 0.55903
 H279 H 0.28390 0.03080 0.57836
 H280 H 0.22237 -0.02846 0.46219
 H281 H 0.19397 -0.06393 0.45832
 H282 H 0.20812 -0.08199 0.53455
 H283 H 0.23566 -0.04574 0.53694
 C284 C 0.19417 0.06087 0.49897
 C285 C 0.30386 -0.00606 0.43387
 C286 C 0.19870 -0.07586 0.49620
 C287 C 0.29987 -0.00539 0.57148
 C288 C 0.72773 0.01901 0.54639
 H289 H 0.74109 0.03386 0.54530
 C290 C 0.71093 0.01829 0.56600
 H291 H 0.71179 0.03256 0.57996
 C292 C 0.70982 -0.01702 0.52910
 H293 H 0.70935 -0.03052 0.51440
 C294 C 0.69272 -0.01848 0.54836
 H295 H 0.67922 -0.03330 0.54835
 N296 N 0.72694 0.00143 0.52850
 C297 C 0.78626 0.03081 0.52120
 H298 H 0.78627 0.01602 0.53466
 C299 C 0.80352 0.04997 0.52293
 H300 H 0.81668 0.04979 0.53792
 C301 C 0.76937 0.04842 0.48500
 H302 H 0.75637 0.04749 0.46996
 C303 C 0.78632 0.06795 0.48601
 H304 H 0.78594 0.08199 0.47178
 Zn305 Zn 0.74817 0.00271 0.50075
 N306 N 0.76958 0.03041 0.50251
 C307 C 0.71114 0.02360 0.47152
 N308 N 0.72762 0.00463 0.47263
 C309 C 0.72818 -0.01323 0.45499
 C310 C 0.71185 -0.01227 0.43513
 C311 C 0.69447 0.02529 0.45199
 C312 C 0.76721 -0.04377 0.51682
 C313 C 0.78301 -0.06421 0.51571
 C314 C 0.80126 -0.04720 0.47870
 C315 C 0.78521 -0.02705 0.48059
 N316 N 0.76846 -0.02581 0.49928
 H317 H 0.71079 0.03731 0.48602
 H318 H 0.74093 -0.02854 0.45650
 H319 H 0.71251 -0.02680 0.42143
 H320 H 0.68143 0.04049 0.45159
 H321 H 0.75420 -0.04216 0.53188
 H322 H 0.78175 -0.07827 0.52988
 H323 H 0.81442 -0.04775 0.46364
 H324 H 0.78609 -0.01228 0.46714
 C325 C 0.80380 0.06884 0.50511
 C326 C 0.69304 -0.00060 0.56713
 C327 C 0.80034 -0.06613 0.49644
 C328 C 0.69459 0.00711 0.43350
 C329 C 0.47896 0.21412 1.02884
 H330 H 0.46531 0.21367 1.01431
 C331 C 0.47738 0.19736 1.04836
 H332 H 0.46231 0.18413 1.04872
 C333 C 0.51552 0.23159 1.04545
 H334 H 0.53064 0.24461 1.04400
 C335 C 0.51467 0.21515 1.06531
 H336 H 0.52910 0.21595 1.07908
 N337 N 0.49775 0.23085 1.02779
 C338 C 0.47076 0.28949 0.97969
 H339 H 0.48549 0.28979 0.96614
 C340 C 0.45141 0.30653 0.97815
 H341 H 0.45139 0.31982 0.96321
 C342 C 0.45348 0.27209 1.01595
 H343 H 0.45461 0.25898 1.03092
 C344 C 0.43377 0.28882 1.01513
 H345 H 0.41979 0.28815 1.02945
 Zn346 Zn 0.49931 0.25159 0.99973
 N347 N 0.47140 0.27267 0.99830
 C348 C 0.48263 0.23140 0.95431
 N349 N 0.50050 0.23062 0.97187
 C350 C 0.51907 0.21368 0.97089
 C351 C 0.52034 0.19674 0.95154
 C352 C 0.48314 0.21476 0.93464
 C353 C 0.52853 0.28918 1.01941
 C354 C 0.54816 0.30592 1.02080
 C355 C 0.56545 0.28777 0.98393
 C356 C 0.54546 0.27133 0.98326
 N357 N 0.52758 0.27226 1.00093
 H358 H 0.46768 0.24459 0.95571
 H359 H 0.53280 0.21320 0.98534
 H360 H 0.53524 0.18335 0.95124
 H361 H 0.46863 0.21559 0.92095
 H362 H 0.51382 0.28977 1.03298
 H363 H 0.54843 0.31928 1.03565
 H364 H 0.57939 0.28682 0.96959
 H365 H 0.54409 0.25816 0.96838
 C366 C 0.43262 0.30643 0.99610
 C367 C 0.49546 0.19764 1.06690
 C368 C 0.56693 0.30544 1.00283
 C369 C 0.50213 0.19704 0.93312
 C370 C 0.48331 0.78978 -0.02557
 H371 H 0.46975 0.79022 -0.01086
 C372 C 0.48172 0.80664 -0.04498
 H373 H 0.46674 0.81995 -0.04506
 C374 C 0.51959 0.77213 -0.04279
 H375 H 0.53458 0.75897 -0.04163
 C376 C 0.51874 0.78870 -0.06254
 H377 H 0.53304 0.78787 -0.07653
 N378 N 0.50192 0.77287 -0.02489
 C379 C 0.47384 0.71407 0.02266
 H380 H 0.48845 0.71339 0.03624
 C381 C 0.45415 0.69736 0.02401
 H382 H 0.45374 0.68393 0.03881
 C383 C 0.45720 0.73210 -0.01345
 H384 H 0.45870 0.74532 -0.02831
 C385 C 0.43718 0.71572 -0.01283
 H386 H 0.42334 0.71677 -0.02718
 Zn387 Zn 0.50322 0.75180 0.00293
 N388 N 0.47496 0.73107 0.00422
 C389 C 0.48683 0.77171 0.04871
 N390 N 0.50468 0.77247 0.03099
 C391 C 0.52339 0.78929 0.03192
 C392 C 0.52477 0.80618 0.05130
 C393 C 0.48748 0.78828 0.06843
 C394 C 0.53191 0.71409 -0.01739
 C395 C 0.55132 0.69714 -0.01912
 C396 C 0.56888 0.71468 0.01782
 C397 C 0.54911 0.73134 0.01882
 N398 N 0.53120 0.73081 0.00128
 H399 H 0.47178 0.75862 0.04735
 H400 H 0.53711 0.78976 0.01736
 H401 H 0.53975 0.81950 0.05153
 H402 H 0.47296 0.78749 0.08220
 H403 H 0.51719 0.71382 -0.03086
 H404 H 0.55140 0.68395 -0.03412
 H405 H 0.58285 0.71532 0.03205
 H406 H 0.54793 0.74437 0.03384
 C407 C 0.43551 0.69796 0.00603
 C408 C 0.49963 0.80631 -0.06379
 C409 C 0.57012 0.69720 -0.00130
 C410 C 0.50656 0.80594 0.06984
 C411 C 1.03095 0.47560 0.21230
 H412 H 1.01645 0.46177 0.21176
 C413 C 1.05045 0.47459 0.19541
 H414 H 1.05085 0.45977 0.18202
 C415 C 1.04739 0.51212 0.23003
 H416 H 1.04583 0.52703 0.24316
 C417 C 1.06724 0.51183 0.21347
 H418 H 1.08090 0.52648 0.21431
 N419 N 1.02977 0.49412 0.22917
 C420 C 0.98099 0.46624 0.28702
 H421 H 0.96729 0.48085 0.28728
 C422 C 0.97950 0.44691 0.30402
 H423 H 0.96444 0.44676 0.31723
 C424 C 1.01762 0.44932 0.26982
 H425 H 1.03274 0.45062 0.25682
 C426 C 1.01685 0.42962 0.28650
 H427 H 1.03136 0.41581 0.28592
 Zn428 Zn 1.00139 0.49524 0.24965
 N429 N 0.99980 0.46710 0.27035
 C430 C 0.95561 0.47902 0.22909
 N431 N 0.97362 0.49663 0.22856
 C432 C 0.97316 0.51534 0.21181
 C433 C 0.95391 0.51704 0.19483
 C434 C 0.93599 0.47998 0.21240
 C435 C 1.02071 0.52449 0.28736
 C436 C 1.02169 0.54403 0.30413
 C437 C 0.98445 0.56068 0.28599
 C438 C 0.98423 0.54084 0.26953
 N439 N 1.00226 0.52330 0.27044
 H440 H 0.95660 0.46398 0.24217
 H441 H 0.98794 0.52887 0.21156
 H442 H 0.95402 0.53207 0.18163
 H443 H 0.92192 0.46571 0.21304
 H444 H 1.03457 0.51004 0.28795
 H445 H 1.03649 0.54449 0.31751
 H446 H 0.96981 0.57433 0.28504
 H447 H 0.96937 0.53927 0.25637
 C448 C 0.99769 0.42832 0.30404
 C449 C 1.06886 0.49299 0.19572
 C450 C 1.00331 0.56242 0.30368
 C451 C 0.93500 0.49915 0.19490
 C452 C -0.02588 0.48189 0.78650
 H453 H -0.01090 0.46861 0.78700
 C454 C -0.04528 0.48013 0.80346
 H455 H -0.04509 0.46531 0.81689
 C456 C -0.04375 0.51770 0.76870
 H457 H -0.04284 0.53260 0.75546
 C458 C -0.06351 0.51667 0.78534
 H459 H -0.07774 0.53074 0.78447
 N460 N -0.02550 0.50038 0.76951
 C461 C 0.02290 0.47349 0.71093
 H462 H 0.03618 0.48848 0.71014
 C463 C 0.02466 0.45386 0.69432
 H464 H 0.03950 0.45389 0.68087
 C465 C -0.01293 0.45581 0.72911
 H466 H -0.02785 0.45688 0.74235
 C467 C -0.01188 0.43582 0.71283
 H468 H -0.02596 0.42158 0.71399
 Zn469 Zn 0.00246 0.50231 0.74848
 N470 N 0.00439 0.47407 0.72794
 C471 C 0.04885 0.48719 0.76821
 N472 N 0.03063 0.50453 0.76899
 C473 C 0.03110 0.52323 0.78571
 C474 C 0.05054 0.52511 0.80249
 C475 C 0.06865 0.48834 0.78467
 C476 C -0.01849 0.53027 0.71082
 C477 C -0.02079 0.54967 0.69401
 C478 C 0.01554 0.56864 0.71173
 C479 C 0.01715 0.54883 0.72822
 N480 N 0.00017 0.53023 0.72755
 H481 H 0.04786 0.47213 0.75519
 H482 H 0.01614 0.53652 0.78620
 H483 H 0.05039 0.54006 0.81574
 H484 H 0.08283 0.47421 0.78387
 H485 H -0.03151 0.51504 0.71046
 H486 H -0.03576 0.54921 0.68082
 H487 H 0.02933 0.58319 0.71248
 H488 H 0.03218 0.54820 0.74128
 C489 C 0.00705 0.43471 0.69504
 C490 C -0.06440 0.49775 0.80312
 C491 C -0.00357 0.56919 0.69424
 C492 C 0.06959 0.50741 0.80223
 C493 C 0.12409 0.13877 0.49583
 N494 N 0.10206 0.13519 0.48443
 N495 N 0.08483 0.15279 0.48457
 C496 C 0.08883 0.17463 0.49626
 N497 N 0.11092 0.17822 0.50765
 N498 N 0.12826 0.16065 0.50738
 C499 C 0.14263 0.11890 0.49621
 N500 N 0.16595 0.12304 0.50456
 N501 N 0.18248 0.10471 0.50522
 C502 C 0.17623 0.08153 0.49774
 N503 N 0.15290 0.07750 0.48938
 N504 N 0.13646 0.09583 0.48855
 C505 C 0.64593 0.62471 -0.00385
 N506 N 0.64621 0.60734 -0.02188
 N507 N 0.66311 0.58940 -0.02183
 C508 C 0.68040 0.58808 -0.00376
 N509 N 0.68015 0.60558 0.01421
 N510 N 0.66324 0.62354 0.01417
 C511 C 0.62677 0.64400 -0.00353
 N512 N 0.62599 0.66107 0.01477
 N513 N 0.60816 0.67810 0.01537
 C514 C 0.59041 0.67874 -0.00230
 N515 N 0.59134 0.66169 -0.02066
 N516 N 0.60915 0.64466 -0.02127
 C517 C 0.86878 -0.14552 0.49241
 N518 N 0.88438 -0.14777 0.47291
 N519 N 0.90179 -0.16521 0.47267
 C520 C 0.90433 -0.18110 0.49191
 N521 N 0.88855 -0.17892 0.51133
 N522 N 0.87110 -0.16149 0.51158
 C523 C 0.85038 -0.12552 0.49311
 N524 N 0.83469 -0.12312 0.51253
 N525 N 0.81863 -0.10442 0.51349
 C526 C 0.81767 -0.08736 0.49510
 N527 N 0.83333 -0.08991 0.47563
 N528 N 0.84936 -0.10861 0.47465
 C529 C 0.35709 0.37920 0.99451
 N530 N 0.33960 0.38003 1.01250
 N531 N 0.32272 0.39801 1.01280
 C532 C 0.32267 0.41587 0.99516
 N533 N 0.34014 0.41491 0.97712
 N534 N 0.35701 0.39694 0.97680
 C535 C 0.37618 0.35986 0.99455
 N536 N 0.39393 0.35943 0.97682
 N537 N 0.41168 0.34233 0.97720
 C538 C 0.41241 0.32498 0.99532
 N539 N 0.39452 0.32538 1.01298
 N540 N 0.37676 0.34249 1.01261
 C541 C 0.87746 0.14366 0.50731
 N542 N 0.87849 0.16125 0.48947
 N543 N 0.89665 0.17797 0.48924
 C544 C 0.91450 0.17777 0.50683
 N545 N 0.91332 0.16021 0.52473
 N546 N 0.89518 0.14349 0.52497
 C547 C 0.85790 0.12474 0.50714
 N548 N 0.85721 0.10687 0.52471
 N549 N 0.83990 0.08929 0.52419
 C550 C 0.82260 0.08886 0.50608
 N551 N 0.82327 0.10686 0.48858
 N552 N 0.84058 0.12445 0.48910
 C553 C 0.35846 0.62663 0.00667
 N554 N 0.34128 0.62618 -0.01151
 N555 N 0.32407 0.60850 -0.01209
 C556 C 0.32336 0.59056 0.00548
 N557 N 0.34052 0.59116 0.02372
 N558 N 0.35772 0.60883 0.02431
 C559 C 0.37795 0.64561 0.00690
 N560 N 0.39547 0.64560 0.02475
 N561 N 0.41358 0.66235 0.02460
 C562 C 0.41491 0.67979 0.00658
 N563 N 0.39726 0.67983 -0.01120
 N564 N 0.37914 0.66307 -0.01105
 C565 C 0.12359 -0.14889 0.49387
 N566 N 0.10270 -0.14415 0.48091
 N567 N 0.08369 -0.15984 0.48155
 C568 C 0.08489 -0.18100 0.49500
 N569 N 0.10593 -0.18589 0.50778
 N570 N 0.12489 -0.17006 0.50734
 C571 C 0.14396 -0.13090 0.49381
 N572 N 0.16212 -0.13188 0.51101
 N573 N 0.17976 -0.11461 0.51162
 C574 C 0.18003 -0.09585 0.49491
 N575 N 0.16200 -0.09512 0.47755
 N576 N 0.14426 -0.11223 0.47708
 C577 C 0.64371 0.37704 1.00400
 N578 N 0.66101 0.37781 0.98583
 N579 N 0.67818 0.39555 0.98549
 C580 C 0.67872 0.41320 1.00330
 N581 N 0.66144 0.41228 1.02152
 N582 N 0.64428 0.39456 1.02187
 C583 C 0.62429 0.35799 1.00404
 N584 N 0.60670 0.35772 1.02193
 N585 N 0.58865 0.34090 1.02165
 C586 C 0.58746 0.32368 1.00348
 N587 N 0.60519 0.32392 0.98565
 N588 N 0.62325 0.34074 0.98591
 C589 C 0.49390 0.12590 1.14313
 N590 N 0.47599 0.10827 1.14370
 N591 N 0.47637 0.09048 1.16070
 C592 C 0.49466 0.08960 1.17781
 N593 N 0.51249 0.10737 1.17726
 N594 N 0.51213 0.12517 1.16026
 C595 C 0.49390 0.14500 1.12387
 N596 N 0.51215 0.16227 1.12281
 N597 N 0.51251 0.17912 1.10488
 C598 C 0.49466 0.17938 1.08730
 N599 N 0.47635 0.16214 1.08850
 N600 N 0.47598 0.14529 1.10642
 C601 C -0.00846 0.64515 0.62232
 N602 N 0.00819 0.66398 0.62200
 N603 N 0.00785 0.68080 0.60402
 C604 C -0.00913 0.67941 0.58565
 N605 N -0.02585 0.66061 0.58614
 N606 N -0.02554 0.64383 0.60411
 C607 C -0.00762 0.62600 0.64153
 N608 N -0.02425 0.60717 0.64152
 N609 N -0.02309 0.58931 0.65839
 C610 C -0.00524 0.58953 0.67596
 N611 N 0.01134 0.60849 0.67601
 N612 N 0.01017 0.62638 0.65913
 C613 C 0.49685 0.87773 -0.14028
 N614 N 0.47842 0.89476 -0.14089
 N615 N 0.47823 0.91238 -0.15805
 C616 C 0.49647 0.91371 -0.17530
 N617 N 0.51486 0.89654 -0.17472
 N618 N 0.51505 0.87889 -0.15755
 C619 C 0.49732 0.85876 -0.12089
 N620 N 0.51588 0.84187 -0.11987
 N621 N 0.51652 0.82509 -0.10188
 C622 C 0.49866 0.82456 -0.08419
 N623 N 0.48006 0.84145 -0.08534
 N624 N 0.47940 0.85821 -0.10333
 C625 C 0.99707 0.35380 0.37760
 N626 N 0.97982 0.35429 0.39580
 N627 N 0.98041 0.33776 0.41400
 C628 C 0.99827 0.32004 0.41480
 N629 N 1.01543 0.31954 0.39641
 N630 N 1.01487 0.33609 0.37820
 C631 C 0.99682 0.37256 0.35800
 N632 N 1.01464 0.37286 0.34032
 N633 N 1.01477 0.39038 0.32303
 C634 C 0.99710 0.40829 0.32273
 N635 N 0.97921 0.40782 0.34038
 N636 N 0.97908 0.39033 0.35767
 C637 C 0.50677 0.87873 0.14494
 N638 N 0.48844 0.87947 0.16208
 N639 N 0.48775 0.89750 0.17879
 C640 C 0.50532 0.91556 0.17905
 N641 N 0.52372 0.91462 0.16191
 N642 N 0.52443 0.89660 0.14521
 C643 C 0.50713 0.85934 0.12600
 N644 N 0.52519 0.85902 0.10856
 N645 N 0.52514 0.84191 0.09092
 C646 C 0.50704 0.82444 0.08999
 N647 N 0.48906 0.82474 0.10756
 N648 N 0.48910 0.84185 0.12522
 C649 C 0.00918 0.35783 0.62410
 N650 N -0.00865 0.34011 0.62387
 N651 N -0.00895 0.32291 0.60630
 C652 C 0.00857 0.32275 0.58826
 N653 N 0.02646 0.34044 0.58864
 N654 N 0.02677 0.35764 0.60620
 C655 C 0.00906 0.37729 0.64297
 N656 N 0.02654 0.39535 0.64278
 N657 N 0.02603 0.41341 0.65945
 C658 C 0.00802 0.41417 0.67697
 N659 N -0.00939 0.39598 0.67718
 N660 N -0.00889 0.37791 0.66051
 C661 C 0.50252 0.12460 0.85771
 N662 N 0.52079 0.10740 0.85672
 N663 N 0.52027 0.08949 0.83989
 C664 C 0.50146 0.08804 0.82340
 N665 N 0.48325 0.10536 0.82437
 N666 N 0.48376 0.12329 0.84120
 C667 C 0.50276 0.14386 0.87677
 N668 N 0.48436 0.16092 0.87809
 N669 N 0.48429 0.17795 0.89582
 C670 C 0.50258 0.17859 0.91293
 N671 N 0.52103 0.16156 0.91147
 N672 N 0.52112 0.14454 0.89375
 C673 C 1.00236 0.63882 0.37511
 N674 N 0.98329 0.65513 0.37620
 N675 N 0.98242 0.67229 0.39378
 C676 C 1.00059 0.67383 0.41097
 N677 N 1.01972 0.65754 0.40975
 N678 N 1.02059 0.64037 0.39218
 C679 C 1.00297 0.61946 0.35616
 N680 N 1.02156 0.60258 0.35567
 N681 N 1.02178 0.58462 0.33888
 C682 C 1.00343 0.58283 0.32191
 N683 N 0.98491 0.59985 0.32238
 N684 N 0.98467 0.61780 0.33917
 C685 C 1.14391 0.49466 0.12253
 N686 N 1.14415 0.47738 0.10443
 N687 N 1.16083 0.47850 0.08635
 C688 C 1.17797 0.49696 0.08558
 N689 N 1.17773 0.51416 0.10386
 N690 N 1.16104 0.51305 0.12195
 C691 C 1.12501 0.49380 0.14202
 N692 N 1.12417 0.51150 0.15973
 N693 N 1.10653 0.51108 0.17694
 C694 C 1.08905 0.49297 0.17713
 N695 N 1.09005 0.47521 0.15946
 N696 N 1.10767 0.47561 0.14225
 C697 C 0.62040 -0.00228 0.64270
 N698 N 0.60313 -0.02053 0.64336
 N699 N 0.58529 -0.02039 0.66036
 C700 C 0.58398 -0.00200 0.67736
 N701 N 0.60138 0.01620 0.67671
 N702 N 0.61923 0.01607 0.65972
 C703 C 0.63966 -0.00214 0.62354
 N704 N 0.65683 0.01621 0.62260
 N705 N 0.67390 0.01659 0.60484
 C706 C 0.67448 -0.00134 0.58730
 N707 N 0.65732 -0.01973 0.58837
 N708 N 0.64026 -0.02013 0.60613
 C709 C -0.14027 0.49559 0.87547
 N710 N -0.15768 0.51367 0.87640
 N711 N -0.17464 0.51388 0.89428
 C712 C -0.17486 0.49603 0.91194
 N713 N -0.15746 0.47789 0.91087
 N714 N -0.14050 0.47768 0.89300
 C715 C -0.12108 0.49575 0.85624
 N716 N -0.10325 0.47807 0.85584
 N717 N -0.08542 0.47859 0.83884
 C718 C -0.08469 0.49679 0.82156
 N719 N -0.10266 0.51440 0.82194
 N720 N -0.12050 0.51390 0.83895
 C721 C 0.37575 -0.00487 0.35760
 N722 N 0.39267 -0.02337 0.35599
 N723 N 0.41051 -0.02263 0.33902
 C724 C 0.41215 -0.00340 0.32295
 N725 N 0.39509 0.01503 0.32452
 N726 N 0.37725 0.01433 0.34152
 C727 C 0.35660 -0.00541 0.37686
 N728 N 0.34031 0.01355 0.37939
 N729 N 0.32342 0.01327 0.39734
 C730 C 0.32214 -0.00598 0.41344
 N731 N 0.33840 -0.02497 0.41075
 N732 N 0.35529 -0.02470 0.39283
 C733 C 0.14481 0.50938 0.87474
 N734 N 0.14477 0.52712 0.89241
 N735 N 0.16146 0.52674 0.91041
 C736 C 0.17885 0.50861 0.91148
 N737 N 0.17893 0.49094 0.89368
 N738 N 0.16224 0.49131 0.87567
 C739 C 0.12587 0.50933 0.85540
 N740 N 0.12544 0.49124 0.83809
 N741 N 0.10776 0.49078 0.82105
 C742 C 0.08980 0.50839 0.82064
 N743 N 0.09038 0.52656 0.83791
 N744 N 0.10805 0.52703 0.85496
 C745 C 0.62300 0.00854 0.35743
 N746 N 0.60533 0.02637 0.35690
 N747 N 0.58757 0.02590 0.33994
 C748 C 0.58677 0.00758 0.32283
 N749 N 0.60459 -0.01018 0.32332
 N750 N 0.62235 -0.00971 0.34029
 C751 C 0.64207 0.00862 0.37664
 N752 N 0.65932 -0.00961 0.37765
 N753 N 0.67614 -0.00994 0.39554
 C754 C 0.67638 0.00793 0.41313
 N755 N 0.65917 0.02623 0.41198
 N756 N 0.64234 0.02657 0.39410
 C757 C 0.85951 0.50206 0.12270
 N758 N 0.85942 0.52022 0.10543
 N759 N 0.84252 0.52033 0.08762
 C760 C 0.82504 0.50227 0.08635
 N761 N 0.82511 0.48416 0.10376
 N762 N 0.84201 0.48405 0.12158
 C763 C 0.87862 0.50161 0.14187
 N764 N 0.87917 0.48319 0.15888
 N765 N 0.89693 0.48251 0.17585
 C766 C 0.91483 0.50020 0.17647
 N767 N 0.91413 0.51867 0.15947
 N768 N 0.89639 0.51936 0.14251
 C769 C 0.37085 -0.00189 0.64787
 N770 N 0.38159 0.01995 0.65408
 N771 N 0.39980 0.02064 0.67056
 C772 C 0.40788 -0.00045 0.68157
 N773 N 0.39693 -0.02225 0.67548
 N774 N 0.37884 -0.02297 0.65888
 C775 C 0.35160 -0.00283 0.62887
 N776 N 0.34450 -0.02483 0.61912
 N777 N 0.32785 -0.02566 0.60110
 C778 C 0.31750 -0.00454 0.59226
 N779 N 0.32444 0.01745 0.60223
 N780 N 0.34123 0.01830 0.62013
   
