data_POSCAR
  _audit_creation_date              2014-09-24
  _audit_creation_method            'ToBaCCo'
  _symmetry_space_group_name_H-M    'P1'
  _symmetry_Int_Tables_number       1
  _symmetry_cell_setting            triclinic
  loop_
  _symmetry_equiv_pos_as_xyz
 x,y,z
_cell_length_a 37.5384
_cell_length_b 35.6365
_cell_length_c 35.5130
_cell_angle_alpha 90.084600
_cell_angle_beta 89.966200
_cell_angle_gamma 90.037300
loop_
  _atom_site_label
  _atom_site_type_symbol
  _atom_site_fract_x
  _atom_site_fract_y
  _atom_site_fract_z
C1 C 0.30545 0.30147 0.23631
 H2 H 0.30683 0.30240 0.26673
 C3 C 0.32845 0.32356 0.21480
 H4 H 0.34757 0.34174 0.22861
 C5 C 0.27914 0.27635 0.18101
 H6 H 0.26030 0.25753 0.16792
 C7 C 0.30169 0.29795 0.15845
 H8 H 0.29989 0.29599 0.12807
 N9 N 0.28111 0.27882 0.21922
 C10 C 0.19680 0.26345 0.30245
 H11 H 0.19550 0.23313 0.30344
 C12 C 0.17357 0.28489 0.32441
 H13 H 0.15437 0.27113 0.34252
 C14 C 0.22307 0.31856 0.27731
 H15 H 0.24197 0.33161 0.25852
 C16 C 0.20034 0.34104 0.29881
 H17 H 0.20207 0.37132 0.29680
 Zn18 Zn 0.25133 0.24940 0.25050
 N19 N 0.22121 0.28048 0.27984
 C20 C 0.27947 0.22294 0.32001
 N21 N 0.28144 0.22044 0.28180
 C22 C 0.30612 0.19824 0.26469
 C23 C 0.32954 0.17666 0.28619
 C24 C 0.30241 0.20184 0.34255
 C25 C 0.19700 0.23482 0.19867
 C26 C 0.17410 0.21324 0.17648
 C27 C 0.20170 0.15726 0.20134
 C28 C 0.22410 0.17989 0.22310
 N29 N 0.22166 0.21795 0.22104
 H30 H 0.26034 0.24143 0.33310
 H31 H 0.30751 0.19730 0.23427
 H32 H 0.34894 0.15885 0.27236
 H33 H 0.30061 0.20383 0.37294
 H34 H 0.19527 0.26512 0.19804
 H35 H 0.15468 0.22689 0.15858
 H36 H 0.20389 0.12700 0.20297
 H37 H 0.24322 0.16697 0.24169
 C38 C 0.17547 0.32403 0.32264
 C39 C 0.32645 0.32185 0.17553
 C40 C 0.17658 0.17412 0.17775
 C41 C 0.32757 0.17843 0.32546
 C42 C 0.80290 0.80338 0.23485
 H43 H 0.80447 0.80386 0.26527
 C44 C 0.82562 0.82600 0.21352
 H45 H 0.84470 0.84405 0.22757
 C46 C 0.77643 0.77888 0.17937
 H47 H 0.75765 0.76010 0.16613
 C48 C 0.79863 0.80105 0.15696
 H49 H 0.79655 0.79946 0.12656
 N50 N 0.77864 0.78077 0.21759
 C51 C 0.69458 0.76333 0.30069
 H52 H 0.69358 0.73299 0.30120
 C53 C 0.67116 0.78417 0.32300
 H54 H 0.65213 0.76991 0.34093
 C55 C 0.72030 0.81911 0.27641
 H56 H 0.73908 0.83265 0.25783
 C57 C 0.69733 0.84100 0.29824
 H58 H 0.69875 0.87133 0.29669
 Zn59 Zn 0.74921 0.75063 0.24860
 N60 N 0.71882 0.78099 0.27836
 C61 C 0.77727 0.72330 0.31779
 N62 N 0.77952 0.72149 0.27956
 C63 C 0.80431 0.69956 0.26227
 C64 C 0.82744 0.67745 0.28358
 C65 C 0.79991 0.70166 0.34015
 C66 C 0.69489 0.73610 0.19672
 C67 C 0.67206 0.71450 0.17446
 C68 C 0.70007 0.65856 0.19890
 C69 C 0.72239 0.68119 0.22071
 N70 N 0.71973 0.71925 0.21889
 H71 H 0.75806 0.74157 0.33106
 H72 H 0.80591 0.69912 0.23185
 H73 H 0.84688 0.65979 0.26961
 H74 H 0.79781 0.70303 0.37055
 H75 H 0.69295 0.76638 0.19631
 H76 H 0.65252 0.72813 0.15670
 H77 H 0.70244 0.62830 0.20034
 H78 H 0.74163 0.66827 0.23917
 C79 C 0.67265 0.82335 0.32182
 C80 C 0.82336 0.82490 0.17421
 C81 C 0.67478 0.67539 0.17550
 C82 C 0.82508 0.67841 0.32286
 C83 C 0.80719 0.30063 0.73761
 H84 H 0.80860 0.30144 0.76803
 C85 C 0.83026 0.32272 0.71615
 H86 H 0.84946 0.34076 0.73001
 C87 C 0.78066 0.27595 0.68224
 H88 H 0.76166 0.25733 0.66909
 C89 C 0.80326 0.29755 0.65974
 H90 H 0.80136 0.29577 0.62935
 N91 N 0.78268 0.27824 0.72045
 C92 C 0.69751 0.26362 0.80281
 H93 H 0.69575 0.23332 0.80347
 C94 C 0.67429 0.28521 0.82463
 H95 H 0.65463 0.27158 0.84229
 C96 C 0.72490 0.31855 0.77862
 H97 H 0.74423 0.33148 0.76024
 C98 C 0.70219 0.34118 0.79999
 H99 H 0.70436 0.37145 0.79829
 Zn100 Zn 0.75239 0.24911 0.75152
 N101 N 0.72246 0.28049 0.78075
 C102 C 0.77918 0.22157 0.82118
 N103 N 0.78182 0.21951 0.78300
 C104 C 0.80643 0.19706 0.76612
 C105 C 0.82907 0.17474 0.78780
 C106 C 0.80128 0.19972 0.84395
 C107 C 0.69798 0.23542 0.69947
 C108 C 0.67477 0.21417 0.67730
 C109 C 0.70163 0.15781 0.70220
 C110 C 0.72434 0.18010 0.72392
 N111 N 0.72241 0.21819 0.72185
 H112 H 0.76011 0.24023 0.83411
 H113 H 0.80832 0.19643 0.73572
 H114 H 0.84840 0.15680 0.77397
 H115 H 0.79878 0.20147 0.87433
 H116 H 0.69664 0.26574 0.69884
 H117 H 0.65554 0.22809 0.65939
 H118 H 0.70341 0.12751 0.70384
 H119 H 0.74328 0.16689 0.74252
 C120 C 0.67675 0.32433 0.82326
 C121 C 0.82814 0.32126 0.67687
 C122 C 0.67671 0.17502 0.67863
 C123 C 0.82637 0.17597 0.82711
 C124 C 0.30341 0.80164 0.73613
 H125 H 0.30489 0.80215 0.76655
 C126 C 0.32670 0.82362 0.71483
 H127 H 0.34611 0.84129 0.72883
 C128 C 0.27656 0.77772 0.68060
 H129 H 0.25738 0.75941 0.66733
 C130 C 0.29938 0.79924 0.65825
 H131 H 0.29742 0.79775 0.62785
 N132 N 0.27867 0.77966 0.71882
 C133 C 0.19402 0.76462 0.80176
 H134 H 0.19214 0.73433 0.80216
 C135 C 0.17120 0.78613 0.82413
 H136 H 0.15170 0.77243 0.84194
 C137 C 0.22142 0.81964 0.77778
 H138 H 0.24062 0.83264 0.75930
 C139 C 0.19912 0.84218 0.79972
 H140 H 0.20147 0.87245 0.79834
 Zn141 Zn 0.24852 0.75036 0.74986
 N142 N 0.21881 0.78157 0.77955
 C143 C 0.27594 0.72244 0.81911
 N144 N 0.27826 0.72071 0.78088
 C145 C 0.30290 0.69861 0.76357
 C146 C 0.32591 0.67635 0.78486
 C147 C 0.29844 0.70060 0.84145
 C148 C 0.19404 0.73656 0.69780
 C149 C 0.17102 0.71519 0.67551
 C150 C 0.19808 0.65896 0.70046
 C151 C 0.22060 0.68136 0.72229
 N152 N 0.21851 0.71945 0.72022
 H153 H 0.25683 0.74082 0.83239
 H154 H 0.30454 0.69825 0.73316
 H155 H 0.34529 0.65864 0.77087
 H156 H 0.29633 0.70195 0.87185
 H157 H 0.19256 0.76687 0.69717
 H158 H 0.15181 0.72902 0.65751
 H159 H 0.20004 0.62867 0.70207
 H160 H 0.23956 0.66824 0.74092
 C161 C 0.17389 0.82525 0.82318
 C162 C 0.32455 0.82248 0.67555
 C163 C 0.17319 0.67604 0.67677
 C164 C 0.32354 0.67728 0.82414
 C165 C -0.00131 0.00066 0.00099
 C166 C -0.00091 0.50013 0.49832
 C167 C 0.50068 0.00008 0.50143
 C168 C 0.49935 0.49980 -0.00171
 C169 C 0.06303 -0.06478 -0.06634
 C170 C 0.04942 -0.09741 -0.08399
 C171 C 0.07213 -0.12000 -0.10664
 C172 C 0.10834 -0.10986 -0.11144
 C173 C 0.12195 -0.07723 -0.09373
 C174 C 0.09919 -0.05456 -0.07121
 C175 C 0.11333 -0.02195 -0.05397
 C176 C 0.14901 -0.01219 -0.05855
 C177 C 0.17130 -0.03443 -0.08045
 C178 C 0.15807 -0.06657 -0.09796
 C179 C 0.05792 -0.15249 -0.12402
 C180 C 0.02229 -0.16238 -0.11915
 C181 C 0.00009 -0.14029 -0.09698
 C182 C 0.01335 -0.10815 -0.07953
 C183 C 0.13154 -0.13292 -0.13461
 C184 C 0.15082 -0.15203 -0.15386
 C185 C 0.03998 -0.04190 -0.04288
 C186 C 0.02112 -0.02278 -0.02319
 H187 H 0.09698 -0.00364 -0.03688
 H188 H 0.15938 0.01280 -0.04508
 H189 H 0.19900 -0.02672 -0.08395
 H190 H 0.17644 -0.08294 -0.11477
 H191 H 0.07414 -0.17058 -0.14151
 H192 H 0.01185 -0.18732 -0.13265
 H193 H -0.02756 -0.14809 -0.09327
 H194 H -0.00495 -0.09185 -0.06256
 C195 C 0.06356 0.43445 0.43143
 C196 C 0.05470 0.39642 0.42469
 C197 C 0.07748 0.37369 0.40225
 C198 C 0.10899 0.38914 0.38672
 C199 C 0.11782 0.42721 0.39346
 C200 C 0.09501 0.44995 0.41585
 C201 C 0.10437 0.48792 0.42220
 C202 C 0.13543 0.50300 0.40693
 C203 C 0.15776 0.48076 0.38506
 C204 C 0.14918 0.44330 0.37828
 C205 C 0.06808 0.33572 0.39593
 C206 C 0.03708 0.32065 0.41137
 C207 C 0.01483 0.34287 0.43334
 C208 C 0.02340 0.38034 0.44001
 C209 C 0.13240 0.36589 0.36398
 C210 C 0.15196 0.34672 0.34512
 C211 C 0.04057 0.45754 0.45473
 C212 C 0.02169 0.47675 0.47429
 H213 H 0.08781 0.50636 0.43894
 H214 H 0.14218 0.53209 0.41207
 H215 H 0.18186 0.49261 0.37324
 H216 H 0.16739 0.42715 0.36107
 H217 H 0.08455 0.31731 0.37904
 H218 H 0.03031 0.29155 0.40627
 H219 H -0.00920 0.33103 0.44530
 H220 H 0.00527 0.39652 0.45727
 C221 C 0.56218 -0.06768 0.43358
 C222 C 0.57771 -0.10064 0.44851
 C223 C 0.59970 -0.12350 0.42534
 C224 C 0.60598 -0.11326 0.38738
 C225 C 0.58986 -0.08067 0.37228
 C226 C 0.56791 -0.05779 0.39547
 C227 C 0.55212 -0.02531 0.37980
 C228 C 0.55771 -0.01578 0.34222
 C229 C 0.57918 -0.03815 0.31953
 C230 C 0.59518 -0.07022 0.33425
 C231 C 0.61498 -0.15630 0.44090
 C232 C 0.60864 -0.16627 0.47825
 C233 C 0.58711 -0.14392 0.50089
 C234 C 0.57180 -0.11142 0.48636
 C235 C 0.62935 -0.13595 0.36405
 C236 C 0.64899 -0.15459 0.34476
 C237 C 0.54049 -0.04385 0.45748
 C238 C 0.52253 -0.02399 0.47734
 H239 H 0.53531 -0.00697 0.39636
 H240 H 0.54533 0.00910 0.33067
 H241 H 0.58347 -0.03062 0.29036
 H242 H 0.61164 -0.08673 0.31548
 H243 H 0.63188 -0.17462 0.42439
 H244 H 0.62049 -0.19148 0.48967
 H245 H 0.58223 -0.15179 0.52987
 H246 H 0.55526 -0.09493 0.50507
 C247 C 0.56407 0.43441 -0.06854
 C248 C 0.55601 0.39603 -0.07437
 C249 C 0.57898 0.37345 -0.09673
 C250 C 0.60990 0.38940 -0.11308
 C251 C 0.61792 0.42781 -0.10727
 C252 C 0.59491 0.45040 -0.08495
 C253 C 0.60346 0.48873 -0.07952
 C254 C 0.63393 0.50428 -0.09561
 C255 C 0.65646 0.48220 -0.11740
 C256 C 0.64867 0.44439 -0.12328
 C257 C 0.57038 0.33514 -0.10214
 C258 C 0.53997 0.31959 -0.08588
 C259 C 0.51753 0.34167 -0.06398
 C260 C 0.52533 0.37948 -0.05820
 C261 C 0.63351 0.36628 -0.13571
 C262 C 0.65319 0.34713 -0.15444
 C263 C 0.54092 0.45734 -0.04530
 C264 C 0.52195 0.47647 -0.02575
 H265 H 0.58672 0.50707 -0.06288
 H266 H 0.64006 0.53364 -0.09116
 H267 H 0.68009 0.49442 -0.12985
 H268 H 0.66700 0.42837 -0.14047
 H269 H 0.58702 0.31682 -0.11893
 H270 H 0.53380 0.29023 -0.09030
 H271 H 0.49396 0.32946 -0.05138
 H272 H 0.50708 0.39552 -0.04095
 C273 C -0.06549 0.06797 -0.06435
 C274 C -0.05121 0.08762 -0.09551
 C275 C -0.07381 0.11020 -0.11821
 C276 C -0.11057 0.11295 -0.10962
 C277 C -0.12484 0.09328 -0.07844
 C278 C -0.10221 0.07081 -0.05567
 C279 C -0.11704 0.05155 -0.02454
 C280 C -0.15324 0.05417 -0.01629
 C281 C -0.17540 0.07604 -0.03862
 C282 C -0.16151 0.09548 -0.06934
 C283 C -0.05893 0.12959 -0.14922
 C284 C -0.02275 0.12673 -0.15757
 C285 C -0.00066 0.10464 -0.13538
 C286 C -0.01458 0.08524 -0.10468
 C287 C -0.13366 0.13601 -0.13282
 C288 C -0.15283 0.15519 -0.15207
 C289 C -0.04254 0.04454 -0.04143
 C290 C -0.02373 0.02485 -0.02233
 H291 H -0.10083 0.03438 -0.00621
 H292 H -0.16413 0.03918 0.00759
 H293 H -0.20351 0.07801 -0.03209
 H294 H -0.17980 0.11219 -0.08583
 H295 H -0.07503 0.14711 -0.16733
 H296 H -0.01181 0.14175 -0.18140
 H297 H 0.02742 0.10252 -0.14199
 H298 H 0.00367 0.06841 -0.08824
 C299 C -0.06493 0.56717 0.43255
 C300 C -0.08921 0.59223 0.44984
 C301 C -0.11151 0.61524 0.42724
 C302 C -0.10938 0.61305 0.38748
 C303 C -0.08499 0.58808 0.37020
 C304 C -0.06269 0.56507 0.39280
 C305 C -0.03853 0.54031 0.37490
 C306 C -0.03646 0.53833 0.33577
 C307 C -0.05827 0.56082 0.31366
 C308 C -0.08230 0.58546 0.33052
 C309 C -0.13560 0.64006 0.44518
 C310 C -0.13759 0.64209 0.48431
 C311 C -0.11578 0.61959 0.50640
 C312 C -0.09182 0.59490 0.48953
 C313 C -0.13241 0.63630 0.36442
 C314 C -0.15170 0.65554 0.34540
 C315 C -0.04234 0.54352 0.45563
 C316 C -0.02362 0.52389 0.47488
 H317 H -0.02101 0.52225 0.39090
 H318 H -0.01783 0.51924 0.32254
 H319 H -0.05656 0.55917 0.28328
 H320 H -0.09869 0.60238 0.31213
 H321 H -0.15311 0.65814 0.42920
 H322 H -0.15616 0.66122 0.49756
 H323 H -0.11743 0.62127 0.53679
 H324 H -0.07541 0.57798 0.50791
 C325 C 0.43891 0.06891 0.43525
 C326 C 0.42079 0.09970 0.45161
 C327 C 0.39851 0.12268 0.42897
 C328 C 0.39460 0.11478 0.39009
 C329 C 0.41334 0.08444 0.37359
 C330 C 0.43553 0.06140 0.39626
 C331 C 0.45392 0.03115 0.37920
 C332 C 0.45065 0.02398 0.34078
 C333 C 0.42897 0.04652 0.31859
 C334 C 0.41042 0.07641 0.33466
 C335 C 0.38054 0.15323 0.44598
 C336 C 0.38460 0.16094 0.48423
 C337 C 0.40646 0.13852 0.50634
 C338 C 0.42438 0.10818 0.49038
 C339 C 0.37103 0.13757 0.36717
 C340 C 0.35128 0.15628 0.34815
 C341 C 0.46076 0.04477 0.45856
 C342 C 0.47880 0.02460 0.47794
 H343 H 0.47103 0.01279 0.39532
 H344 H 0.46502 0.00081 0.32818
 H345 H 0.42649 0.04083 0.28876
 H346 H 0.39391 0.09316 0.31624
 H347 H 0.36329 0.17152 0.42993
 H348 H 0.37072 0.18447 0.49677
 H349 H 0.40958 0.14465 0.53603
 H350 H 0.44110 0.09156 0.50873
 C351 C 0.43450 0.56635 -0.06703
 C352 C 0.44730 0.58167 -0.10122
 C353 C 0.42465 0.60452 -0.12358
 C354 C 0.38935 0.61190 -0.11160
 C355 C 0.37656 0.59658 -0.07739
 C356 C 0.39921 0.57371 -0.05505
 C357 C 0.38584 0.55865 -0.02098
 C358 C 0.35108 0.56599 -0.00932
 C359 C 0.32894 0.58837 -0.03116
 C360 C 0.34139 0.60356 -0.06482
 C361 C 0.43802 0.61952 -0.15767
 C362 C 0.47279 0.61215 -0.16931
 C363 C 0.49493 0.58981 -0.14743
 C364 C 0.48248 0.57466 -0.11375
 C365 C 0.36616 0.63516 -0.13447
 C366 C 0.34678 0.65441 -0.15338
 C367 C 0.45756 0.54298 -0.04420
 C368 C 0.47655 0.52351 -0.02509
 H369 H 0.40204 0.54107 -0.00301
 H370 H 0.34129 0.55424 0.01681
 H371 H 0.30196 0.59399 -0.02197
 H372 H 0.32315 0.62080 -0.08083
 H373 H 0.42181 0.63706 -0.17565
 H374 H 0.48259 0.62385 -0.19546
 H375 H 0.52191 0.58417 -0.15660
 H376 H 0.50071 0.55744 -0.09770
 C377 C -0.06641 -0.06595 0.06618
 C378 C -0.10289 -0.06939 0.05665
 C379 C -0.12582 -0.09179 0.07921
 C380 C -0.11208 -0.11082 0.11102
 C381 C -0.07558 -0.10742 0.12051
 C382 C -0.05268 -0.08489 0.09803
 C383 C -0.01630 -0.08186 0.10808
 C384 C -0.00292 -0.10057 0.13945
 C385 C -0.02530 -0.12260 0.16144
 C386 C -0.06123 -0.12609 0.15221
 C387 C -0.16224 -0.09460 0.06925
 C388 C -0.17560 -0.07581 0.03790
 C389 C -0.15314 -0.05401 0.01577
 C390 C -0.11717 -0.05081 0.02486
 C391 C -0.13542 -0.13398 0.13389
 C392 C -0.15478 -0.15327 0.15285
 C393 C -0.04314 -0.04271 0.04338
 C394 C -0.02406 -0.02323 0.02432
 H395 H 0.00215 -0.06506 0.09184
 H396 H 0.02497 -0.09795 0.14674
 H397 H -0.01478 -0.13707 0.18579
 H398 H -0.07759 -0.14352 0.17020
 H399 H -0.18074 -0.11127 0.08555
 H400 H -0.20353 -0.07823 0.03071
 H401 H -0.16362 -0.03953 -0.00860
 H402 H -0.10071 -0.03373 0.00667
 C403 C -0.06327 0.43259 0.56547
 C404 C -0.07154 0.44405 0.60265
 C405 C -0.09332 0.42097 0.62579
 C406 C -0.10668 0.38657 0.61160
 C407 C -0.09812 0.37496 0.57452
 C408 C -0.07636 0.39806 0.55138
 C409 C -0.06822 0.38593 0.51439
 C410 C -0.08114 0.35189 0.50067
 C411 C -0.10239 0.32928 0.52330
 C412 C -0.11089 0.34055 0.55982
 C413 C -0.10125 0.43304 0.66285
 C414 C -0.08801 0.46692 0.67665
 C415 C -0.06670 0.48947 0.65402
 C416 C -0.05849 0.47832 0.61742
 C417 C -0.12953 0.36334 0.63495
 C418 C -0.14871 0.34411 0.65417
 C419 C -0.04135 0.45633 0.54174
 C420 C -0.02312 0.47611 0.52207
 H421 H -0.05185 0.40258 0.49571
 H422 H -0.07465 0.34305 0.47231
 H423 H -0.11236 0.30287 0.51251
 H424 H -0.12751 0.32199 0.57634
 H425 H -0.11769 0.41644 0.68154
 H426 H -0.09432 0.47570 0.70508
 H427 H -0.05647 0.51575 0.66488
 H428 H -0.04180 0.49681 0.60090
 C429 C 0.43569 -0.06609 0.56708
 C430 C 0.40386 -0.05111 0.58229
 C431 C 0.38127 -0.07412 0.60462
 C432 C 0.39067 -0.11197 0.61159
 C433 C 0.42256 -0.12691 0.59641
 C434 C 0.44513 -0.10389 0.57408
 C435 C 0.47685 -0.11943 0.55915
 C436 C 0.48602 -0.15665 0.56610
 C437 C 0.46396 -0.17917 0.58795
 C438 C 0.43255 -0.16462 0.60300
 C439 C 0.34957 -0.05852 0.61952
 C440 C 0.34045 -0.02127 0.61254
 C441 C 0.36253 0.00121 0.59068
 C442 C 0.39390 -0.01338 0.57565
 C443 C 0.36746 -0.13548 0.63425
 C444 C 0.34799 -0.15477 0.65308
 C445 C 0.45862 -0.04267 0.54412
 C446 C 0.47763 -0.02328 0.52492
 H447 H 0.49487 -0.10302 0.54198
 H448 H 0.51038 -0.16807 0.55446
 H449 H 0.47119 -0.20808 0.59327
 H450 H 0.41625 -0.18323 0.61982
 H451 H 0.33153 -0.07488 0.63669
 H452 H 0.31610 -0.00981 0.62415
 H453 H 0.35532 0.03012 0.58533
 H454 H 0.41021 0.00522 0.55882
 C455 C 0.43647 0.43246 0.06504
 C456 C 0.42746 0.44422 0.10193
 C457 C 0.40527 0.42131 0.12478
 C458 C 0.39224 0.38676 0.11060
 C459 C 0.40153 0.37485 0.07382
 C460 C 0.42369 0.39779 0.05096
 C461 C 0.43255 0.38537 0.01425
 C462 C 0.41995 0.35120 0.00054
 C463 C 0.39830 0.32875 0.02290
 C464 C 0.38908 0.34031 0.05913
 C465 C 0.39659 0.43368 0.16156
 C466 C 0.40950 0.46771 0.17535
 C467 C 0.43122 0.49010 0.15300
 C468 C 0.44017 0.47865 0.11668
 C469 C 0.36908 0.36365 0.13371
 C470 C 0.34971 0.34454 0.15281
 C471 C 0.45872 0.45608 0.04155
 C472 C 0.47712 0.47579 0.02201
 H473 H 0.44926 0.40189 -0.00422
 H474 H 0.42700 0.34213 -0.02760
 H475 H 0.38856 0.30223 0.01212
 H476 H 0.37216 0.32187 0.07545
 H477 H 0.37982 0.41722 0.18003
 H478 H 0.40262 0.47673 0.20355
 H479 H 0.44120 0.51649 0.16384
 H480 H 0.45714 0.49702 0.10036
 C481 C 0.06412 0.06505 0.06815
 C482 C 0.05017 0.09536 0.08931
 C483 C 0.07326 0.11765 0.11185
 C484 C 0.11017 0.10951 0.11304
 C485 C 0.12411 0.07916 0.09188
 C486 C 0.10098 0.05679 0.06946
 C487 C 0.11548 0.02647 0.04872
 C488 C 0.15182 0.01864 0.04983
 C489 C 0.17446 0.04061 0.07163
 C490 C 0.16090 0.07051 0.09252
 C491 C 0.05870 0.14782 0.13275
 C492 C 0.02237 0.15574 0.13143
 C493 C -0.00020 0.13394 0.10938
 C494 C 0.01339 0.10407 0.08850
 C495 C 0.13377 0.13234 0.13600
 C496 C 0.15331 0.15136 0.15505
 C497 C 0.04066 0.04256 0.04477
 C498 C 0.02148 0.02374 0.02512
 H499 H 0.09891 0.00846 0.03156
 H500 H 0.16245 -0.00461 0.03373
 H501 H 0.20267 0.03441 0.07242
 H502 H 0.17956 0.08674 0.10911
 H503 H 0.07518 0.16558 0.15031
 H504 H 0.01168 0.17891 0.14760
 H505 H -0.02840 0.14021 0.10845
 H506 H -0.00522 0.08791 0.07178
 C507 C 0.06323 0.56613 0.56523
 C508 C 0.05003 0.58114 0.59941
 C509 C 0.07244 0.60377 0.62238
 C510 C 0.10790 0.61126 0.61098
 C511 C 0.12111 0.59615 0.57680
 C512 C 0.09871 0.57349 0.55387
 C513 C 0.11251 0.55859 0.51989
 C514 C 0.14745 0.56589 0.50885
 C515 C 0.16935 0.58809 0.53123
 C516 C 0.15648 0.60312 0.56484
 C517 C 0.05867 0.61841 0.65648
 C518 C 0.02376 0.61090 0.66757
 C519 C 0.00185 0.58878 0.64510
 C520 C 0.01469 0.57402 0.61137
 C521 C 0.13084 0.63435 0.63442
 C522 C 0.15005 0.65343 0.65378
 C523 C 0.04040 0.54303 0.54178
 C524 C 0.02162 0.52373 0.52219
 H525 H 0.09651 0.54116 0.50154
 H526 H 0.15758 0.55424 0.48279
 H527 H 0.19648 0.59369 0.52253
 H528 H 0.17454 0.62020 0.58130
 H529 H 0.07468 0.63577 0.67490
 H530 H 0.01367 0.62231 0.69374
 H531 H -0.02524 0.58305 0.65382
 H532 H -0.00338 0.55703 0.59482
 C533 C 0.56559 0.06509 0.56846
 C534 C 0.59772 0.05009 0.58284
 C535 C 0.62027 0.07276 0.60560
 C536 C 0.61055 0.11029 0.61380
 C537 C 0.57834 0.12524 0.59948
 C538 C 0.55579 0.10256 0.57674
 C539 C 0.52373 0.11809 0.56271
 C540 C 0.51422 0.15499 0.57093
 C541 C 0.53628 0.17718 0.59316
 C542 C 0.56801 0.16263 0.60735
 C543 C 0.65226 0.05714 0.61967
 C544 C 0.66171 0.02021 0.61147
 C545 C 0.63966 -0.00194 0.58919
 C546 C 0.60800 0.01268 0.57496
 C547 C 0.63376 0.13348 0.63682
 C548 C 0.65324 0.15253 0.65590
 C549 C 0.54272 0.04205 0.54500
 C550 C 0.52374 0.02300 0.52539
 H551 H 0.50570 0.10194 0.54528
 H552 H 0.48961 0.16641 0.55997
 H553 H 0.52878 0.20583 0.59947
 H554 H 0.58428 0.18098 0.62451
 H555 H 0.67029 0.07325 0.63713
 H556 H 0.68627 0.00872 0.62247
 H557 H 0.64712 -0.03061 0.58290
 H558 H 0.59174 -0.00566 0.55777
 C559 C 0.56394 0.56559 0.06487
 C560 C 0.59909 0.57352 0.05277
 C561 C 0.62178 0.59603 0.07552
 C562 C 0.60919 0.61042 0.11026
 C563 C 0.57406 0.60236 0.12241
 C564 C 0.55137 0.57988 0.09963
 C565 C 0.51637 0.57217 0.11233
 C566 C 0.50414 0.58626 0.14660
 C567 C 0.52633 0.60824 0.16889
 C568 C 0.56091 0.61630 0.15707
 C569 C 0.65680 0.60360 0.06282
 C570 C 0.66906 0.58928 0.02864
 C571 C 0.64688 0.56723 0.00642
 C572 C 0.61227 0.55936 0.01820
 C573 C 0.63236 0.63347 0.13347
 C574 C 0.65166 0.65260 0.15267
 C575 C 0.54084 0.54263 0.04161
 C576 C 0.52191 0.52340 0.02212
 H577 H 0.49811 0.55525 0.09595
 H578 H 0.47730 0.58011 0.15588
 H579 H 0.51670 0.61912 0.19549
 H580 H 0.57716 0.63352 0.17539
 H581 H 0.67507 0.62059 0.07912
 H582 H 0.69593 0.59533 0.01937
 H583 H 0.65653 0.55614 -0.02008
 H584 H 0.59603 0.54206 -0.00005
   
