data_POSCAR
  _audit_creation_date              2014-09-24
  _audit_creation_method            'ToBaCCo'
  _symmetry_space_group_name_H-M    'P1'
  _symmetry_Int_Tables_number       1
  _symmetry_cell_setting            triclinic
  loop_
  _symmetry_equiv_pos_as_xyz
 x,y,z
_cell_length_a 31.5271
_cell_length_b 31.3842
_cell_length_c 31.5305
_cell_angle_alpha 91.793900
_cell_angle_beta 92.057500
_cell_angle_gamma 87.123000
loop_
  _atom_site_label
  _atom_site_type_symbol
  _atom_site_fract_x
  _atom_site_fract_y
  _atom_site_fract_z
C1 C -0.00435 0.46228 0.22616
 C2 C 0.03700 0.46471 0.25253
 C3 C 0.03886 0.49892 0.27992
 C4 C -0.00155 0.52900 0.27784
 C5 C -0.03936 0.46546 0.25833
 C6 C -0.03828 0.49977 0.28547
 C7 C -0.00840 0.50511 0.20360
 C8 C -0.00728 0.54033 0.23039
 H9 H 0.06347 0.44173 0.24844
 H10 H -0.00068 0.55668 0.30053
 H11 H -0.06449 0.44308 0.25813
 H12 H -0.00916 0.50763 0.16955
 C13 C 0.02545 0.44337 0.77287
 C14 C -0.01171 0.44140 0.74469
 C15 C -0.01808 0.47669 0.71731
 C16 C 0.01552 0.50744 0.72266
 C17 C 0.06077 0.44749 0.74551
 C18 C 0.05560 0.48204 0.71713
 C19 C 0.02153 0.48478 0.79533
 C20 C 0.01553 0.52082 0.76790
 H21 H -0.03558 0.41810 0.74811
 H22 H 0.01110 0.53301 0.69939
 H23 H 0.09117 0.43032 0.75057
 H24 H 0.02970 0.48834 0.82879
 C25 C 0.21033 0.01223 0.46415
 C26 C 0.23452 0.05329 0.46461
 C27 C 0.26335 0.05797 0.49744
 C28 C 0.26521 0.02008 0.52805
 C29 C 0.24577 -0.02291 0.46563
 C30 C 0.27428 -0.01968 0.49883
 C31 C 0.19062 0.01194 0.50762
 C32 C 0.21864 0.01621 0.54155
 H33 H 0.22966 0.07662 0.44016
 H34 H 0.28893 0.02354 0.55459
 H35 H 0.24841 -0.04866 0.44219
 H36 H 0.15733 0.00626 0.51067
 C37 C 0.76131 -0.01164 0.44696
 C38 C 0.72727 -0.04090 0.44808
 C39 C 0.70508 -0.03958 0.48698
 C40 C 0.71914 -0.00575 0.51646
 C41 C 0.74027 0.03229 0.45539
 C42 C 0.71869 0.03587 0.49182
 C43 C 0.78878 -0.02097 0.48736
 C44 C 0.76685 -0.01742 0.52408
 H45 H 0.72254 -0.06560 0.42416
 H46 H 0.70082 -0.00130 0.54567
 H47 H 0.74526 0.05940 0.43600
 H48 H 0.82196 -0.03143 0.48635
 C49 C 0.43837 0.22293 0.99543
 C50 C 0.44125 0.25098 1.03243
 C51 C 0.47630 0.27844 1.03394
 C52 C 0.50326 0.27134 0.99642
 C53 C 0.43881 0.25041 0.95953
 C54 C 0.47486 0.27627 0.95816
 C55 C 0.47935 0.19901 0.99566
 C56 C 0.51571 0.22528 0.99566
 H57 H 0.42271 0.24569 1.05991
 H58 H 0.53009 0.29263 0.99658
 H59 H 0.41275 0.25192 0.93619
 H60 H 0.48303 0.16561 1.00281
 C61 C 0.46177 0.77305 1.01904
 C62 C 0.46521 0.75070 0.97531
 C63 C 0.50152 0.72634 0.97028
 C64 C 0.53122 0.72580 1.00966
 C65 C 0.46776 0.73701 1.05069
 C66 C 0.50374 0.71221 1.04555
 C67 C 0.50036 0.79660 1.02495
 C68 C 0.53891 0.77087 1.01868
 H69 H 0.44199 0.75592 0.94956
 H70 H 0.55993 0.70419 1.00645
 H71 H 0.44933 0.73458 1.07869
 H72 H 0.49961 0.83097 1.02931
 B73 B 0.98753 1.03942 0.01769
 B74 B 0.98713 1.03536 -0.03648
 B75 B 1.03246 1.01947 -0.00774
 B76 B 1.01689 0.99598 0.03756
 B77 B 0.96256 0.99640 0.03719
 B78 B 0.94330 1.02024 -0.00930
 B79 B 0.99049 0.94603 -0.03291
 B80 B 0.99125 0.95021 0.02217
 B81 B 0.94586 0.96527 -0.00732
 B82 B 0.96118 0.98977 -0.05201
 B83 B 1.01621 0.98888 -0.05124
 B84 B 1.03437 0.96470 -0.00534
 B85 B 0.55203 0.50316 0.47914
 B86 B 0.55164 0.50427 0.53375
 B87 B 0.53554 0.55029 0.50686
 B88 B 0.50842 0.53266 0.46003
 B89 B 0.50763 0.47747 0.46051
 B90 B 0.53427 0.46029 0.50680
 B91 B 0.46254 0.51030 0.52995
 B92 B 0.46354 0.50868 0.47502
 B93 B 0.47900 0.46388 0.50323
 B94 B 0.50618 0.48052 0.54922
 B95 B 0.50746 0.53484 0.54911
 B96 B 0.48078 0.55311 0.50349
 C97 C 0.98625 1.34064 0.15744
 C98 C 0.98006 1.37873 0.13522
 C99 C 0.98351 1.41839 0.15640
 C100 C 0.99367 1.42063 0.20026
 C101 C 1.00006 1.38222 0.22207
 C102 C 0.99653 1.34289 0.20102
 C103 C 0.98263 1.29843 0.13560
 C104 C 0.96281 1.26546 0.15527
 C105 C 0.96231 1.22466 0.13638
 C106 C 0.98173 1.21597 0.09750
 C107 C 1.00029 1.24928 0.07712
 C108 C 1.00073 1.29011 0.09598
 C109 C 0.98336 1.17213 0.07868
 C110 C 1.01983 1.15567 0.05905
 C111 C 1.02054 1.11545 0.03907
 C112 C 0.98626 1.08810 0.04021
 C113 C 0.94875 1.10749 0.05663
 C114 C 0.94744 1.14778 0.07683
 H115 H 0.97170 1.37785 0.10160
 H116 H 0.97738 1.44673 0.13825
 H117 H 1.00746 1.38274 0.25590
 H118 H 1.00219 1.31413 0.21890
 H119 H 0.94801 1.27117 0.18553
 H120 H 0.94772 1.19960 0.15269
 H121 H 1.01468 1.24371 0.04665
 H122 H 1.01633 1.31483 0.08018
 H123 H 1.04750 1.17461 0.05755
 H124 H 1.04631 1.10957 0.01890
 H125 H 0.91883 1.09610 0.04687
 H126 H 0.91739 1.16127 0.08793
 C127 C 0.98801 0.66813 0.18158
 C128 C 0.96789 0.63489 0.15924
 C129 C 0.96863 0.59393 0.17553
 C130 C 0.98980 0.58480 0.21453
 C131 C 1.00879 0.61841 0.23747
 C132 C 1.00811 0.65947 0.22112
 C133 C 0.98856 0.71128 0.16314
 C134 C 1.02531 0.73499 0.16661
 C135 C 1.02648 0.77450 0.14729
 C136 C 0.99089 0.79133 0.12409
 C137 C 0.95393 0.76793 0.12126
 C138 C 0.95277 0.72851 0.14057
 C139 C 0.99249 0.83236 0.10172
 C140 C 0.95689 0.86078 0.09944
 C141 C 0.95721 0.89746 0.07553
 C142 C 0.99306 0.90800 0.05287
 C143 C 1.02906 0.87929 0.05667
 C144 C 1.02883 0.84244 0.08055
 H145 H 0.95228 0.64024 0.12859
 H146 H 0.95247 0.56945 0.15731
 H147 H 1.02498 0.61313 0.26770
 H148 H 1.02328 0.68451 0.23953
 H149 H 1.05359 0.72253 0.18340
 H150 H 1.05530 0.79185 0.15046
 H151 H 0.92610 0.77959 0.10322
 H152 H 0.92377 0.71142 0.13768
 H153 H 0.92838 0.85453 0.11586
 H154 H 0.92829 0.91741 0.07429
 H155 H 1.05706 0.88304 0.03934
 H156 H 1.05669 0.82081 0.08078
 C157 C 1.02562 1.32863 -0.15841
 C158 C 1.04537 1.32922 -0.19734
 C159 C 1.04668 1.36702 -0.21880
 C160 C 1.02953 1.40597 -0.20129
 C161 C 1.00990 1.40497 -0.16175
 C162 C 1.00831 1.36679 -0.14048
 C163 C 1.01924 1.28740 -0.13929
 C164 C 0.97876 1.27799 -0.12633
 C165 C 0.97133 1.23743 -0.11256
 C166 C 1.00434 1.20569 -0.11134
 C167 C 1.04502 1.21531 -0.12363
 C168 C 1.05241 1.25588 -0.13756
 C169 C 0.99664 1.16303 -0.09603
 C170 C 1.01344 1.12616 -0.11639
 C171 C 1.00789 1.08616 -0.09985
 C172 C 0.98712 1.08122 -0.06156
 C173 C 0.96689 1.11894 -0.04476
 C174 C 0.97214 1.15890 -0.06074
 H175 H 1.05766 1.29990 -0.21245
 H176 H 1.05954 1.36516 -0.25022
 H177 H 0.99392 1.43310 -0.14794
 H178 H 0.99238 1.36680 -0.11060
 H179 H 0.95250 1.30154 -0.12830
 H180 H 0.93955 1.23062 -0.10372
 H181 H 1.07113 1.19155 -0.12218
 H182 H 1.08393 1.26261 -0.14729
 H183 H 1.03100 1.12820 -0.14511
 H184 H 1.02123 1.06002 -0.11742
 H185 H 0.94530 1.11860 -0.01972
 H186 H 0.95739 1.18664 -0.04487
 C187 C 1.00244 0.64928 -0.18370
 C188 C 1.00978 0.64095 -0.22682
 C189 C 1.01385 0.59898 -0.24302
 C190 C 1.01104 0.56380 -0.21642
 C191 C 1.00318 0.57283 -0.17312
 C192 C 0.99916 0.61471 -0.15712
 C193 C 0.99848 0.69370 -0.16607
 C194 C 0.96855 0.70471 -0.13511
 C195 C 0.96678 0.74541 -0.11601
 C196 C 0.99475 0.77618 -0.12751
 C197 C 1.02359 0.76589 -0.15962
 C198 C 1.02552 0.72496 -0.17867
 C199 C 0.99477 0.81812 -0.10457
 C200 C 0.99668 0.85613 -0.12604
 C201 C 0.99500 0.89537 -0.10367
 C202 C 0.99146 0.89892 -0.05907
 C203 C 0.99088 0.85955 -0.03860
 C204 C 0.99220 0.82031 -0.06053
 H205 H 1.01207 0.66699 -0.24824
 H206 H 1.02010 0.59514 -0.27630
 H207 H 0.99897 0.54792 -0.15103
 H208 H 0.99382 0.61998 -0.12358
 H209 H 0.94659 0.68171 -0.12544
 H210 H 0.94363 0.75280 -0.09196
 H211 H 1.04565 0.78898 -0.16890
 H212 H 1.04914 0.71736 -0.20219
 H213 H 0.99799 0.85569 -0.16034
 H214 H 0.99333 0.92253 -0.12260
 H215 H 0.98889 0.85701 -0.00565
 H216 H 0.99146 0.79140 -0.04271
 C217 C 1.13248 1.00233 0.34800
 C218 C 1.14973 0.96534 0.36713
 C219 C 1.17146 0.96791 0.40644
 C220 C 1.17825 1.00786 0.42668
 C221 C 1.15637 1.04415 0.40974
 C222 C 1.13407 1.04147 0.37062
 C223 C 1.11595 1.00044 0.30342
 C224 C 1.07683 1.02067 0.29155
 C225 C 1.06255 1.02004 0.24899
 C226 C 1.08755 0.99993 0.21725
 C227 C 1.12668 0.97964 0.22941
 C228 C 1.14054 0.97965 0.27199
 C229 C 1.07296 1.00021 0.17173
 C230 C 1.08164 0.96512 0.14433
 C231 C 1.06627 0.96486 0.10219
 C232 C 1.04137 0.99933 0.08509
 C233 C 1.03355 1.03461 0.11350
 C234 C 1.04940 1.03530 0.15541
 H235 H 1.14733 0.93448 0.35107
 H236 H 1.18401 0.93850 0.41999
 H237 H 1.15807 1.07507 0.42569
 H238 H 1.12008 1.07038 0.35698
 H239 H 1.05719 1.03665 0.31527
 H240 H 1.03176 1.03508 0.24106
 H241 H 1.14715 0.96448 0.20595
 H242 H 1.17117 0.96438 0.28028
 H243 H 1.09923 0.93699 0.15569
 H244 H 1.07369 0.93671 0.08375
 H245 H 1.01290 1.06120 0.10561
 H246 H 1.04223 1.06328 0.17531
 C247 C 1.17480 1.00244 -0.33093
 C248 C 1.21805 0.99499 -0.33943
 C249 C 1.23283 1.00081 -0.38033
 C250 C 1.20471 1.01444 -0.41354
 C251 C 1.16199 1.02446 -0.40381
 C252 C 1.14724 1.01811 -0.36336
 C253 C 1.15746 0.99291 -0.28912
 C254 C 1.12066 0.96965 -0.28775
 C255 C 1.10146 0.96365 -0.24927
 C256 C 1.11809 0.98132 -0.21099
 C257 C 1.15612 1.00299 -0.21207
 C258 C 1.17574 1.00852 -0.25075
 C259 C 1.09372 0.98001 -0.17121
 C260 C 1.11378 0.97609 -0.13103
 C261 C 1.08993 0.97766 -0.09411
 C262 C 1.04489 0.98349 -0.09525
 C263 C 1.02600 0.98650 -0.13649
 C264 C 1.04940 0.98488 -0.17323
 H265 H 1.24009 0.98319 -0.31488
 H266 H 1.26597 0.99329 -0.38596
 H267 H 1.13945 1.03695 -0.42750
 H268 H 1.11397 1.02528 -0.35743
 H269 H 1.10634 0.95652 -0.31672
 H270 H 1.07295 0.94577 -0.24967
 H271 H 1.16971 1.01731 -0.18335
 H272 H 1.20409 1.02661 -0.25091
 H273 H 1.14807 0.97254 -0.12791
 H274 H 1.10812 0.97778 -0.06473
 H275 H 0.99278 0.99159 -0.14161
 H276 H 1.03241 0.98915 -0.20338
 C277 C 0.83086 0.99453 0.33129
 C278 C 0.84683 1.01215 0.36965
 C279 C 0.82473 1.00894 0.40685
 C280 C 0.78639 0.98769 0.40664
 C281 C 0.77047 0.97047 0.36780
 C282 C 0.79288 0.97310 0.33094
 C283 C 0.85233 0.99992 0.29115
 C284 C 0.82794 1.00804 0.25393
 C285 C 0.84736 1.01058 0.21537
 C286 C 0.89175 1.00602 0.21320
 C287 C 0.91642 0.99935 0.25065
 C288 C 0.89681 0.99618 0.28936
 C289 C 0.91150 1.00650 0.17150
 C290 C 0.94579 0.97884 0.16171
 C291 C 0.96124 0.97686 0.12085
 C292 C 0.94253 1.00057 0.08653
 C293 C 0.90982 1.03024 0.09928
 C294 C 0.89462 1.03320 0.14016
 H295 H 0.87563 1.02962 0.37065
 H296 H 0.83706 1.02413 0.43571
 H297 H 0.74011 0.95611 0.36474
 H298 H 0.77994 0.95890 0.30183
 H299 H 0.79365 1.01208 0.25448
 H300 H 0.82738 1.01508 0.18705
 H301 H 0.95076 0.99632 0.25000
 H302 H 0.91635 0.98985 0.31762
 H303 H 0.96039 0.95789 0.18530
 H304 H 0.98847 0.95571 0.11756
 H305 H 0.89373 1.05206 0.07946
 H306 H 0.86911 1.05654 0.14706
 C307 C 0.82275 0.96815 -0.35034
 C308 C 0.77963 0.96063 -0.35859
 C309 C 0.76198 0.96353 -0.39965
 C310 C 0.78667 0.97518 -0.43327
 C311 C 0.83013 0.98118 -0.42530
 C312 C 0.84804 0.97709 -0.38450
 C313 C 0.84067 0.96931 -0.30612
 C314 C 0.87203 0.99808 -0.29432
 C315 C 0.88798 1.00073 -0.25269
 C316 C 0.87213 0.97569 -0.22124
 C317 C 0.84093 0.94667 -0.23290
 C318 C 0.82564 0.94324 -0.27496
 C319 C 0.88888 0.97986 -0.17680
 C320 C 0.89439 0.94441 -0.15095
 C321 C 0.91464 0.94811 -0.11101
 C322 C 0.93172 0.98681 -0.09592
 C323 C 0.92320 1.02249 -0.12145
 C324 C 0.90177 1.01933 -0.16061
 H325 H 0.75901 0.95386 -0.33320
 H326 H 0.72880 0.95702 -0.40463
 H327 H 0.85029 0.99031 -0.45018
 H328 H 0.88167 0.98178 -0.37970
 H329 H 0.88388 1.01934 -0.31700
 H330 H 0.91292 1.02254 -0.24530
 H331 H 0.82786 0.92700 -0.20950
 H332 H 0.80201 0.92020 -0.28296
 H333 H 0.88448 0.91334 -0.16198
 H334 H 0.91726 0.91978 -0.09255
 H335 H 0.93565 1.05267 -0.11389
 H336 H 0.89682 1.04787 -0.17893
 C337 C 1.32136 1.15812 -0.01016
 C338 C 1.32201 1.20233 -0.00327
 C339 C 1.36031 1.22255 -0.00120
 C340 C 1.39965 1.19932 -0.00574
 C341 C 1.39857 1.15470 -0.01349
 C342 C 1.35991 1.13442 -0.01510
 C343 C 1.28023 1.13727 -0.01221
 C344 C 1.27477 1.10044 0.01076
 C345 C 1.23493 1.08283 0.01127
 C346 C 1.20004 1.10148 -0.01157
 C347 C 1.20582 1.13762 -0.03543
 C348 C 1.24548 1.15543 -0.03561
 C349 C 1.15764 1.08349 -0.01023
 C350 C 1.13263 1.07821 -0.04725
 C351 C 1.09334 1.05981 -0.04598
 C352 C 1.07756 1.04469 -0.00826
 C353 C 1.10195 1.05421 0.02924
 C354 C 1.14150 1.07214 0.02825
 H355 H 1.29276 1.22136 0.00091
 H356 H 1.35924 1.25690 0.00382
 H357 H 1.42692 1.13499 -0.01927
 H358 H 1.36003 1.10026 -0.02118
 H359 H 1.30101 1.08601 0.02922
 H360 H 1.23133 1.05463 0.02950
 H361 H 1.17940 1.15268 -0.05316
 H362 H 1.24898 1.18362 -0.05388
 H363 H 1.14391 1.08730 -0.07758
 H364 H 1.07705 1.05601 -0.07567
 H365 H 1.09106 1.04862 0.06005
 H366 H 1.15921 1.07777 0.05781
 C367 C 0.64188 1.16898 -0.00973
 C368 C 0.60643 1.14613 -0.02306
 C369 C 0.56540 1.16475 -0.02118
 C370 C 0.55800 1.20735 -0.00640
 C371 C 0.59386 1.23077 0.00553
 C372 C 0.63508 1.21172 0.00427
 C373 C 0.68545 1.14782 -0.01021
 C374 C 0.72109 1.17055 -0.01977
 C375 C 0.76166 1.15015 -0.02068
 C376 C 0.76766 1.10639 -0.01235
 C377 C 0.73197 1.08372 -0.00296
 C378 C 0.69162 1.10417 -0.00154
 C379 C 0.81088 1.08456 -0.01290
 C380 C 0.82223 1.05159 0.01479
 C381 C 0.86270 1.03143 0.01429
 C382 C 0.89502 1.04444 -0.01171
 C383 C 0.88156 1.07521 -0.04174
 C384 C 0.84092 1.09547 -0.04187
 H385 H 0.61027 1.11373 -0.03562
 H386 H 0.53971 1.14561 -0.03300
 H387 H 0.59065 1.26326 0.01763
 H388 H 0.66154 1.23030 0.01525
 H389 H 0.71764 1.20403 -0.02709
 H390 H 0.78841 1.16883 -0.02751
 H391 H 0.73497 1.04989 0.00293
 H392 H 0.66525 1.08562 0.00671
 H393 H 0.79997 1.04110 0.03714
 H394 H 0.86814 1.00427 0.03429
 H395 H 0.90138 1.08431 -0.06601
 H396 H 0.83281 1.11914 -0.06545
 C397 C 1.33793 0.83732 0.00552
 C398 C 1.34437 0.80386 0.03376
 C399 C 1.38468 0.78491 0.04085
 C400 C 1.42007 0.79955 0.02052
 C401 C 1.41376 0.83486 -0.00593
 C402 C 1.37314 0.85358 -0.01333
 C403 C 1.29428 0.85415 -0.00465
 C404 C 1.28528 0.89820 -0.00724
 C405 C 1.24338 0.91406 -0.01218
 C406 C 1.20977 0.88615 -0.01434
 C407 C 1.21893 0.84201 -0.01454
 C408 C 1.26087 0.82613 -0.00982
 C409 C 1.16549 0.90333 -0.01178
 C410 C 1.13229 0.88623 -0.03640
 C411 C 1.09078 0.90386 -0.03342
 C412 C 1.08098 0.93895 -0.00543
 C413 C 1.11513 0.95410 0.01966
 C414 C 1.15622 0.93688 0.01684
 H415 H 1.31787 0.79137 0.04952
 H416 H 1.38675 0.75728 0.06038
 H417 H 1.43994 0.84625 -0.02302
 H418 H 1.36903 0.87934 -0.03538
 H419 H 1.31039 0.92047 -0.00353
 H420 H 1.23709 0.94829 -0.01278
 H421 H 1.19362 0.81986 -0.01616
 H422 H 1.26710 0.79191 -0.00907
 H423 H 1.13864 0.86025 -0.05907
 H424 H 1.06795 0.89110 -0.05538
 H425 H 1.11112 0.97947 0.04225
 H426 H 1.18088 0.94993 0.03747
 C427 C 0.65925 0.82378 0.00706
 C428 C 0.64958 0.78537 -0.01424
 C429 C 0.61041 0.76767 -0.00979
 C430 C 0.57908 0.78827 0.01549
 C431 C 0.58855 0.82721 0.03628
 C432 C 0.62828 0.84440 0.03256
 C433 C 0.70127 0.84232 0.00203
 C434 C 0.70499 0.88675 0.00203
 C435 C 0.74437 0.90401 -0.00314
 C436 C 0.78099 0.87733 -0.00928
 C437 C 0.77720 0.83289 -0.00962
 C438 C 0.73799 0.81564 -0.00357
 C439 C 0.82292 0.89607 -0.01408
 C440 C 0.86065 0.87562 0.00112
 C441 C 0.89920 0.89550 -0.00031
 C442 C 0.90161 0.93803 -0.01265
 C443 C 0.86441 0.95460 -0.03431
 C444 C 0.82581 0.93483 -0.03412
 H445 H 0.67190 0.76929 -0.03540
 H446 H 0.60433 0.73897 -0.02840
 H447 H 0.56594 0.84386 0.05672
 H448 H 0.63482 0.87363 0.05017
 H449 H 0.67742 0.90837 0.00557
 H450 H 0.74609 0.93840 -0.00184
 H451 H 0.80440 0.81121 -0.01487
 H452 H 0.73664 0.78128 -0.00303
 H453 H 0.86071 0.84446 0.01486
 H454 H 0.92640 0.87642 0.00856
 H455 H 0.86409 0.98332 -0.05198
 H456 H 0.79824 0.95012 -0.04980
 C457 C 0.84941 0.51381 0.35776
 C458 C 0.87551 0.47620 0.35921
 C459 C 0.91414 0.47326 0.33889
 C460 C 0.92766 0.50766 0.31628
 C461 C 0.90350 0.54640 0.31735
 C462 C 0.86462 0.54946 0.33791
 C463 C 0.80532 0.51411 0.37368
 C464 C 0.77138 0.53558 0.35171
 C465 C 0.72951 0.53265 0.36431
 C466 C 0.72051 0.50778 0.39886
 C467 C 0.75429 0.48676 0.42118
 C468 C 0.79618 0.49014 0.40898
 C469 C 0.67629 0.50500 0.41286
 C470 C 0.66009 0.46581 0.42242
 C471 C 0.61962 0.46431 0.43923
 C472 C 0.59603 0.50173 0.45154
 C473 C 0.60994 0.53946 0.43462
 C474 C 0.64961 0.54163 0.41675
 H475 H 0.86498 0.44793 0.37367
 H476 H 0.93232 0.44303 0.33854
 H477 H 0.91318 0.57326 0.29990
 H478 H 0.84577 0.57923 0.33692
 H479 H 0.77694 0.55362 0.32391
 H480 H 0.70403 0.54909 0.34644
 H481 H 0.74829 0.46814 0.44849
 H482 H 0.82143 0.47382 0.42722
 H483 H 0.67853 0.43631 0.41650
 H484 H 0.60792 0.43347 0.44267
 H485 H 0.58930 0.56785 0.43400
 H486 H 0.65964 0.57221 0.40693
 C487 C 0.16041 0.51147 0.34350
 C488 C 0.14047 0.47249 0.34247
 C489 C 0.09957 0.46945 0.32468
 C490 C 0.07770 0.50519 0.30698
 C491 C 0.09639 0.54487 0.31057
 C492 C 0.13745 0.54803 0.32881
 C493 C 0.20576 0.51294 0.35767
 C494 C 0.21953 0.54465 0.38656
 C495 C 0.26210 0.54455 0.40091
 C496 C 0.29201 0.51311 0.38615
 C497 C 0.27820 0.48204 0.35640
 C498 C 0.23560 0.48184 0.34253
 C499 C 0.33692 0.51194 0.40291
 C500 C 0.35950 0.47311 0.41032
 C501 C 0.39994 0.47228 0.43011
 C502 C 0.41911 0.50998 0.44503
 C503 C 0.39725 0.54868 0.43368
 C504 C 0.35715 0.54971 0.41331
 H505 H 0.15702 0.44404 0.35447
 H506 H 0.08563 0.43856 0.32314
 H507 H 0.08054 0.57280 0.29701
 H508 H 0.15212 0.57853 0.32936
 H509 H 0.19712 0.56880 0.39893
 H510 H 0.27129 0.56851 0.42444
 H511 H 0.30033 0.45787 0.34364
 H512 H 0.22595 0.45743 0.31964
 H513 H 0.34564 0.44303 0.40177
 H514 H 0.41617 0.44159 0.43201
 H515 H 0.40722 0.57878 0.44553
 H516 H 0.34125 0.58044 0.40737
 C517 C 0.85799 0.49039 0.66195
 C518 C 0.87988 0.52680 0.67576
 C519 C 0.92240 0.52306 0.69059
 C520 C 0.94327 0.48260 0.69390
 C521 C 0.92223 0.44677 0.67768
 C522 C 0.88071 0.45071 0.66124
 C523 C 0.81177 0.49309 0.64897
 C524 C 0.78625 0.45784 0.65307
 C525 C 0.74390 0.45901 0.63814
 C526 C 0.72523 0.49597 0.61988
 C527 C 0.74988 0.53216 0.61851
 C528 C 0.79260 0.53051 0.63203
 C529 C 0.68151 0.49642 0.59976
 C530 C 0.67219 0.52146 0.56449
 C531 C 0.63209 0.52244 0.54493
 C532 C 0.59850 0.49976 0.55911
 C533 C 0.60978 0.47040 0.59127
 C534 C 0.64984 0.46991 0.61247
 H535 H 0.86385 0.55805 0.67708
 H536 H 0.93730 0.55141 0.70301
 H537 H 0.93793 0.41526 0.67779
 H538 H 0.86637 0.42220 0.64861
 H539 H 0.79890 0.42887 0.66752
 H540 H 0.72643 0.43037 0.63987
 H541 H 0.73648 0.56187 0.60616
 H542 H 0.81065 0.55843 0.62809
 H543 H 0.69639 0.53920 0.55041
 H544 H 0.62889 0.53852 0.51643
 H545 H 0.58930 0.44543 0.59837
 H546 H 0.65599 0.44801 0.63802
 C547 C 0.16527 0.50334 0.65028
 C548 C 0.15180 0.46203 0.65469
 C549 C 0.11420 0.45554 0.67449
 C550 C 0.08856 0.49023 0.69008
 C551 C 0.10005 0.53193 0.68212
 C552 C 0.13884 0.53843 0.66324
 C553 C 0.20796 0.50841 0.63402
 C554 C 0.23878 0.52985 0.65856
 C555 C 0.28088 0.52927 0.64562
 C556 C 0.29234 0.50769 0.60775
 C557 C 0.26130 0.48674 0.58313
 C558 C 0.21960 0.48694 0.59622
 C559 C 0.33534 0.50990 0.59122
 C560 C 0.33912 0.52371 0.55021
 C561 C 0.37869 0.52552 0.53296
 C562 C 0.41684 0.51270 0.55464
 C563 C 0.41238 0.50055 0.59722
 C564 C 0.37233 0.49927 0.61527
 H565 H 0.17144 0.43451 0.64458
 H566 H 0.10560 0.42292 0.67832
 H567 H 0.08131 0.55938 0.69366
 H568 H 0.14868 0.57064 0.65964
 H569 H 0.23052 0.54593 0.68824
 H570 H 0.30427 0.54614 0.66469
 H571 H 0.26946 0.47006 0.55371
 H572 H 0.19640 0.46987 0.57707
 H573 H 0.31121 0.53437 0.53159
 H574 H 0.37838 0.54084 0.50397
 H575 H 0.43931 0.49472 0.61819
 H576 H 0.37030 0.48980 0.64784
 C577 C 0.52456 0.63826 0.15424
 C578 C 0.49356 0.62696 0.12336
 C579 C 0.48955 0.64833 0.08529
 C580 C 0.51694 0.68068 0.07725
 C581 C 0.55076 0.68889 0.10582
 C582 C 0.55451 0.66786 0.14429
 C583 C 0.52231 0.62321 0.19808
 C584 C 0.55938 0.61287 0.22230
 C585 C 0.55675 0.60066 0.26428
 C586 C 0.51700 0.59853 0.28280
 C587 C 0.47998 0.60909 0.25865
 C588 C 0.48261 0.62139 0.21678
 C589 C 0.51425 0.58343 0.32652
 C590 C 0.48449 0.60134 0.35454
 C591 C 0.48186 0.58563 0.39538
 C592 C 0.51004 0.55291 0.41125
 C593 C 0.53707 0.53349 0.38016
 C594 C 0.53998 0.54877 0.33963
 H595 H 0.47078 0.60347 0.12973
 H596 H 0.46317 0.64186 0.06345
 H597 H 0.57172 0.71430 0.10021
 H598 H 0.57865 0.67730 0.16750
 H599 H 0.59036 0.61401 0.20874
 H600 H 0.58585 0.59300 0.28235
 H601 H 0.44893 0.60720 0.27187
 H602 H 0.45348 0.63013 0.19923
 H603 H 0.46290 0.62746 0.34489
 H604 H 0.45678 0.59980 0.41299
 H605 H 0.55522 0.50424 0.38523
 H606 H 0.56133 0.53206 0.31787
 C607 C 0.52439 0.67519 0.84610
 C608 C 0.51679 0.71927 0.85300
 C609 C 0.51112 0.73598 0.89384
 C610 C 0.51350 0.70902 0.92851
 C611 C 0.52427 0.66552 0.92235
 C612 C 0.52946 0.64856 0.88121
 C613 C 0.52349 0.65705 0.80230
 C614 C 0.55210 0.62357 0.79014
 C615 C 0.54988 0.60599 0.74895
 C616 C 0.51896 0.62157 0.71935
 C617 C 0.49059 0.65520 0.73148
 C618 C 0.49274 0.67266 0.77255
 C619 C 0.51583 0.60236 0.67612
 C620 C 0.47619 0.59474 0.65679
 C621 C 0.47339 0.57537 0.61651
 C622 C 0.50988 0.56127 0.59473
 C623 C 0.54950 0.57267 0.61345
 C624 C 0.55246 0.59214 0.65362
 H625 H 0.51393 0.74066 0.82665
 H626 H 0.50370 0.76987 0.89832
 H627 H 0.52635 0.64446 0.94899
 H628 H 0.53523 0.61445 0.87674
 H629 H 0.57619 0.61109 0.81242
 H630 H 0.57187 0.57976 0.74041
 H631 H 0.46676 0.66810 0.70916
 H632 H 0.46976 0.69794 0.78124
 H633 H 0.44714 0.60335 0.67300
 H634 H 0.44226 0.57245 0.60308
 H635 H 0.57870 0.56724 0.59731
 H636 H 0.58347 0.59960 0.66687
 C637 C 0.49763 0.34341 0.15382
 C638 C 0.45700 0.33264 0.13876
 C639 C 0.45036 0.31479 0.09840
 C640 C 0.48429 0.30400 0.07142
 C641 C 0.52508 0.31645 0.08529
 C642 C 0.53169 0.33567 0.12615
 C643 C 0.50280 0.36246 0.19813
 C644 C 0.53974 0.35512 0.22405
 C645 C 0.54181 0.37077 0.26661
 C646 C 0.50671 0.39353 0.28460
 C647 C 0.46993 0.40009 0.25845
 C648 C 0.46860 0.38634 0.21605
 C649 C 0.50774 0.41218 0.32937
 C650 C 0.48158 0.44827 0.33906
 C651 C 0.48006 0.46580 0.37994
 C652 C 0.50636 0.45049 0.41399
 C653 C 0.53327 0.41429 0.40408
 C654 C 0.53367 0.39518 0.36277
 H655 H 0.42965 0.33690 0.15846
 H656 H 0.41779 0.30918 0.08877
 H657 H 0.55228 0.30960 0.06589
 H658 H 0.56346 0.34412 0.13610
 H659 H 0.56679 0.33671 0.21179
 H660 H 0.57096 0.36520 0.28520
 H661 H 0.44133 0.41579 0.27048
 H662 H 0.43999 0.39443 0.19748
 H663 H 0.46293 0.46481 0.31467
 H664 H 0.46077 0.49475 0.38255
 H665 H 0.55304 0.39931 0.42843
 H666 H 0.55402 0.36691 0.35730
 C667 C 0.49713 0.33799 0.84196
 C668 C 0.51744 0.35172 0.88026
 C669 C 0.51132 0.33118 0.91873
 C670 C 0.48376 0.29713 0.91998
 C671 C 0.46453 0.28344 0.88092
 C672 C 0.47086 0.30350 0.84312
 C673 C 0.50190 0.35912 0.80056
 C674 C 0.50407 0.33445 0.76247
 C675 C 0.50351 0.35378 0.72301
 C676 C 0.50116 0.39842 0.72032
 C677 C 0.50026 0.42321 0.75843
 C678 C 0.50064 0.40381 0.79803
 C679 C 0.50087 0.41888 0.67804
 C680 C 0.52405 0.45489 0.67264
 C681 C 0.52541 0.47320 0.63296
 C682 C 0.50465 0.45656 0.59591
 C683 C 0.47939 0.42148 0.60278
 C684 C 0.47815 0.40253 0.64255
 H685 H 0.53818 0.37820 0.88045
 H686 H 0.52695 0.34325 0.94741
 H687 H 0.44527 0.25592 0.87836
 H688 H 0.45445 0.29201 0.81457
 H689 H 0.50593 0.29994 0.76314
 H690 H 0.50531 0.33368 0.69452
 H691 H 0.49822 0.45771 0.75761
 H692 H 0.49842 0.42380 0.82655
 H693 H 0.54247 0.46842 0.69893
 H694 H 0.54575 0.49898 0.63187
 H695 H 0.45945 0.40849 0.57822
 H696 H 0.45859 0.37549 0.64567
 C697 C 0.65118 0.84927 0.53039
 C698 C 0.63832 0.88940 0.54766
 C699 C 0.65575 0.92647 0.53337
 C700 C 0.68531 0.92397 0.50066
 C701 C 0.69711 0.88316 0.48341
 C702 C 0.68043 0.84667 0.49812
 C703 C 0.63379 0.80931 0.54367
 C704 C 0.66184 0.77451 0.55329
 C705 C 0.64717 0.73341 0.55371
 C706 C 0.60415 0.72650 0.54464
 C707 C 0.57544 0.76179 0.53874
 C708 C 0.59021 0.80303 0.53827
 C709 C 0.58994 0.68261 0.53758
 C710 C 0.55211 0.67076 0.55344
 C711 C 0.53742 0.63041 0.54400
 C712 C 0.55861 0.59860 0.51752
 C713 C 0.59822 0.61224 0.50363
 C714 C 0.61319 0.65279 0.51307
 H715 H 0.61525 0.89194 0.57236
 H716 H 0.64515 0.95694 0.54726
 H717 H 0.72122 0.87821 0.46004
 H718 H 0.69051 0.81601 0.48409
 H719 H 0.69561 0.77886 0.55768
 H720 H 0.66972 0.70682 0.55924
 H721 H 0.54209 0.75724 0.53156
 H722 H 0.56820 0.82942 0.53030
 H723 H 0.53331 0.69296 0.57299
 H724 H 0.50728 0.62635 0.55729
 H725 H 0.62069 0.59386 0.48616
 H726 H 0.64307 0.66107 0.50029
 C727 C 0.67905 0.16281 0.53096
 C728 C 0.72153 0.15263 0.52137
 C729 C 0.73468 0.11079 0.51081
 C730 C 0.70569 0.07822 0.50974
 C731 C 0.66405 0.08749 0.52242
 C732 C 0.65070 0.12967 0.53284
 C733 C 0.66376 0.20812 0.53481
 C734 C 0.63468 0.22186 0.56562
 C735 C 0.61790 0.26395 0.56651
 C736 C 0.62956 0.29294 0.53630
 C737 C 0.65982 0.27951 0.50653
 C738 C 0.67672 0.23759 0.50579
 C739 C 0.60747 0.33561 0.53306
 C740 C 0.62901 0.37152 0.52251
 C741 C 0.60666 0.41048 0.51559
 C742 C 0.56176 0.41476 0.51614
 C743 C 0.54222 0.37945 0.53217
 C744 C 0.56390 0.34049 0.53910
 H745 H 0.74428 0.17732 0.52067
 H746 H 0.76730 0.10402 0.50203
 H747 H 0.64137 0.06265 0.52194
 H748 H 0.61771 0.13668 0.54004
 H749 H 0.62462 0.19995 0.58869
 H750 H 0.59522 0.27359 0.59038
 H751 H 0.66894 0.30081 0.48245
 H752 H 0.69861 0.22774 0.48124
 H753 H 0.66325 0.36972 0.52023
 H754 H 0.62562 0.43733 0.51129
 H755 H 0.50985 0.38074 0.54002
 H756 H 0.54605 0.31396 0.54852
 C757 C 0.35718 0.86768 0.51066
 C758 C 0.35048 0.88800 0.47159
 C759 C 0.32737 0.92692 0.46894
 C760 C 0.30854 0.94634 0.50484
 C761 C 0.31741 0.92809 0.54444
 C762 C 0.34175 0.88938 0.54741
 C763 C 0.37742 0.82318 0.51196
 C764 C 0.36785 0.79471 0.54356
 C765 C 0.38384 0.75213 0.54234
 C766 C 0.40878 0.73589 0.50863
 C767 C 0.41863 0.76467 0.47738
 C768 C 0.40427 0.80752 0.47965
 C769 C 0.42463 0.68967 0.50595
 C770 C 0.45967 0.67681 0.48157
 C771 C 0.47472 0.63425 0.47931
 C772 C 0.45704 0.60176 0.50226
 C773 C 0.42236 0.61536 0.52724
 C774 C 0.40579 0.65775 0.52819
 H775 H 0.36080 0.87304 0.44215
 H776 H 0.32197 0.94057 0.43797
 H777 H 0.30351 0.94223 0.57271
 H778 H 0.34718 0.87597 0.57842
 H779 H 0.34709 0.80473 0.56894
 H780 H 0.37620 0.73222 0.56805
 H781 H 0.43686 0.75449 0.45023
 H782 H 0.41410 0.82807 0.45533
 H783 H 0.47733 0.69957 0.46533
 H784 H 0.50327 0.62784 0.46187
 H785 H 0.40796 0.59459 0.54769
 H786 H 0.37835 0.66513 0.54712
 C787 C 0.33283 0.17407 0.50204
 C788 C 0.32248 0.15480 0.54004
 C789 C 0.30153 0.11608 0.53910
 C790 C 0.29064 0.09567 0.50020
 C791 C 0.30298 0.11384 0.46260
 C792 C 0.32292 0.15252 0.46343
 C793 C 0.35290 0.21661 0.50177
 C794 C 0.37883 0.22657 0.46833
 C795 C 0.39505 0.26702 0.46578
 C796 C 0.38753 0.29886 0.49746
 C797 C 0.36237 0.28874 0.53153
 C798 C 0.34504 0.24842 0.53345
 C799 C 0.40723 0.34148 0.49557
 C800 C 0.38877 0.37871 0.51456
 C801 C 0.40963 0.41733 0.51573
 C802 C 0.45040 0.42052 0.49879
 C803 C 0.46558 0.38400 0.47566
 C804 C 0.44562 0.34527 0.47522
 H805 H 0.33020 0.16972 0.57055
 H806 H 0.29259 0.10295 0.56866
 H807 H 0.29634 0.09862 0.43197
 H808 H 0.32924 0.16599 0.43329
 H809 H 0.38691 0.20309 0.44372
 H810 H 0.41333 0.27313 0.43844
 H811 H 0.35629 0.31174 0.55713
 H812 H 0.32494 0.24257 0.55954
 H813 H 0.35815 0.37819 0.52894
 H814 H 0.39339 0.44347 0.53132
 H815 H 0.49575 0.38314 0.46164
 H816 H 0.46190 0.31787 0.46042
   
