data_POSCAR
  _audit_creation_date              2014-09-24
  _audit_creation_method            'ToBaCCo'
  _symmetry_space_group_name_H-M    'P1'
  _symmetry_Int_Tables_number       1
  _symmetry_cell_setting            triclinic
  loop_
  _symmetry_equiv_pos_as_xyz
 x,y,z
_cell_length_a 40.9668
_cell_length_b 41.0426
_cell_length_c 37.1082
_cell_angle_alpha 90.079200
_cell_angle_beta 89.921200
_cell_angle_gamma 120.144900
loop_
  _atom_site_label
  _atom_site_type_symbol
  _atom_site_fract_x
  _atom_site_fract_y
  _atom_site_fract_z
O1 O 0.00089 0.53153 -0.04607
 O2 O 0.04661 0.49101 0.00867
 O3 O 0.00068 0.46827 -0.04644
 O4 O 0.04692 0.55433 0.00910
 O5 O -0.00197 0.52983 0.04620
 O6 O -0.04813 0.44380 -0.00926
 O7 O -0.00221 0.46655 0.04586
 O8 O -0.04801 0.50702 -0.00897
 Cu9 Cu 0.02870 0.51378 -0.02243
 Cu10 Cu -0.03001 0.48436 0.02220
 C11 C -0.03151 0.52565 -0.03706
 C12 C 0.03013 0.47232 0.03673
 C13 C -0.03173 0.44167 -0.03744
 C14 C 0.03049 0.55638 0.03730
 O15 O 0.46781 0.46930 -0.04622
 O16 O 0.50861 0.55583 0.00843
 O17 O 0.53116 0.53245 -0.04670
 O18 O 0.44509 0.49254 0.00888
 O19 O 0.46955 0.46840 0.04604
 O20 O 0.55570 0.50835 -0.00961
 O21 O 0.53313 0.53175 0.04559
 O22 O 0.49229 0.44514 -0.00912
 Cu23 Cu 0.48569 0.51498 -0.02261
 Cu24 Cu 0.51513 0.48599 0.02201
 C25 C 0.47364 0.44285 -0.03721
 C26 C 0.52740 0.55824 0.03645
 C27 C 0.55772 0.52666 -0.03786
 C28 C 0.44294 0.47407 0.03704
 O29 O 0.53350 1.00215 0.04584
 O30 O 0.49334 1.04798 -0.00949
 O31 O 0.47019 1.00207 0.04572
 O32 O 0.55667 1.04807 -0.00921
 O33 O 0.53236 0.99938 -0.04643
 O34 O 0.44583 0.95327 0.00862
 O35 O 0.46898 0.99918 -0.04658
 O36 O 0.50919 0.95345 0.00862
 Cu37 Cu 0.51585 1.02998 0.02196
 Cu38 Cu 0.48661 0.97140 -0.02269
 C39 C 0.52775 0.96986 0.03677
 C40 C 0.47483 1.03152 -0.03765
 C41 C 0.44364 0.96967 0.03675
 C42 C 0.55896 1.03170 -0.03732
 O43 O 1.04768 0.55477 0.49092
 O44 O 1.00183 0.46841 0.54586
 O45 O 1.04769 0.49162 0.49062
 O46 O 1.00170 0.53152 0.54619
 O47 O 0.95278 0.50705 0.50921
 O48 O 0.99884 0.46719 0.45355
 O49 O 0.95297 0.44398 0.50879
 O50 O 0.99876 0.53031 0.45394
 Cu51 Cu 1.02966 0.51407 0.52213
 Cu52 Cu 0.97091 0.48469 0.47764
 C53 C 1.03118 0.55688 0.46287
 C54 C 0.96946 0.44180 0.53681
 C55 C 1.03125 0.47305 0.46247
 C56 C 0.96925 0.52557 0.53736
 O57 O 0.53199 0.53099 0.45350
 O58 O 0.49177 0.44489 0.50885
 O59 O 0.46849 0.46757 0.45379
 O60 O 0.55509 0.50820 0.50863
 O61 O 0.53076 0.53258 0.54581
 O62 O 0.44426 0.49196 0.49105
 O63 O 0.46751 0.46931 0.54605
 O64 O 0.50768 0.55534 0.49074
 Cu65 Cu 0.51428 0.48547 0.47740
 Cu66 Cu 0.48510 0.51477 0.52213
 C67 C 0.52626 0.55752 0.46257
 C68 C 0.47332 0.44281 0.53708
 C69 C 0.44193 0.47326 0.46297
 C70 C 0.55728 0.52676 0.53679
 O71 O 0.50770 -0.04751 0.49081
 O72 O 0.46688 -0.00186 0.54547
 O73 O 0.44431 -0.04772 0.49014
 O74 O 0.53023 -0.00171 0.54600
 O75 O 0.55499 0.04706 0.50893
 O76 O 0.46910 0.00112 0.45318
 O77 O 0.49169 0.04699 0.50851
 O78 O 0.53245 0.00126 0.45374
 Cu79 Cu 0.48474 -0.02962 0.52184
 Cu80 Cu 0.51452 0.02903 0.47736
 C81 C 0.52661 -0.03103 0.46284
 C82 C 0.47288 0.03052 0.53654
 C83 C 0.44244 -0.03129 0.46193
 C84 C 0.55694 0.03063 0.53709
 C85 C 0.31967 0.44206 0.23192
 C86 C 0.31948 0.44194 0.26889
 C87 C 0.28233 0.42806 0.27943
 N88 N 0.25982 0.41945 0.25019
 C89 C 0.28263 0.42823 0.22111
 C90 C 0.26957 0.42259 0.31552
 C91 C 0.23297 0.41471 0.32531
 C92 C 0.21677 0.40219 0.35899
 C93 C 0.18324 0.40231 0.35895
 C94 C 0.17990 0.41489 0.32524
 N95 N 0.21021 0.42217 0.30486
 C96 C 0.15137 0.42289 0.31531
 C97 C 0.14423 0.42810 0.27914
 C98 C 0.12102 0.44182 0.26833
 C99 C 0.12108 0.44166 0.23137
 C100 C 0.14433 0.42787 0.22081
 N101 N 0.15824 0.41934 0.25005
 C102 C 0.15160 0.42240 0.18472
 C103 C 0.18032 0.41458 0.17493
 C104 C 0.18394 0.40204 0.14124
 C105 C 0.21763 0.40224 0.14129
 C106 C 0.23362 0.41487 0.17500
 N107 N 0.21061 0.42212 0.19539
 C108 C 0.27023 0.42294 0.18494
 H109 H 0.34436 0.45163 0.21502
 H110 H 0.34399 0.45142 0.28598
 H111 H 0.21772 0.43650 0.21978
 H112 H 0.22838 0.39466 0.38154
 H113 H 0.16396 0.39488 0.38145
 H114 H 0.10592 0.45135 0.28525
 H115 H 0.10604 0.45106 0.21428
 H116 H 0.22945 0.39481 0.11878
 H117 H 0.21753 0.43652 0.28048
 H118 H 0.16473 0.39445 0.11868
 C119 C 0.55871 0.68055 0.23074
 C120 C 0.55851 0.68036 0.26770
 C121 C 0.57231 0.71732 0.27857
 N122 N 0.58117 0.74009 0.24952
 C123 C 0.57263 0.71763 0.22024
 C124 C 0.57750 0.72970 0.31476
 C125 C 0.58551 0.76622 0.32476
 C126 C 0.59801 0.78217 0.35851
 C127 C 0.59815 0.81577 0.35861
 C128 C 0.58571 0.81938 0.32491
 N129 N 0.57828 0.78917 0.30440
 C130 C 0.57787 0.84802 0.31514
 C131 C 0.57256 0.85530 0.27905
 C132 C 0.55877 0.87851 0.26850
 C133 C 0.55882 0.87863 0.23153
 C134 C 0.57264 0.85549 0.22073
 N135 N 0.58127 0.84148 0.24981
 C136 C 0.57806 0.84843 0.18456
 C137 C 0.58607 0.81992 0.17460
 C138 C 0.59877 0.81659 0.14090
 C139 C 0.59885 0.78309 0.14080
 C140 C 0.58617 0.76692 0.17445
 N141 N 0.57866 0.78964 0.19492
 C142 C 0.57820 0.73036 0.18418
 H143 H 0.54927 0.65608 0.21361
 H144 H 0.54888 0.65572 0.28457
 H145 H 0.56419 0.78233 0.21928
 H146 H 0.60539 0.77038 0.38102
 H147 H 0.60564 0.83492 0.38121
 H148 H 0.54924 0.89349 0.28558
 H149 H 0.54934 0.89370 0.21462
 H150 H 0.60645 0.77150 0.11824
 H151 H 0.56398 0.78208 0.27998
 H152 H 0.60633 0.83586 0.11843
 C153 C 0.30276 0.89842 0.26839
 C154 C 0.30264 0.89837 0.23144
 C155 C 0.27618 0.86215 0.22083
 N156 N 0.26005 0.84012 0.25000
 C157 C 0.27637 0.86223 0.27910
 C158 C 0.27047 0.84891 0.18496
 C159 C 0.24032 0.81329 0.17453
 C160 C 0.23835 0.79562 0.14205
 C161 C 0.20477 0.76202 0.14210
 C162 C 0.18712 0.76005 0.17460
 N163 N 0.20878 0.79162 0.19406
 C164 C 0.15152 0.72988 0.18513
 C165 C 0.13837 0.72434 0.22103
 C166 C 0.10214 0.69793 0.23178
 C167 C 0.10220 0.69804 0.26873
 C168 C 0.13848 0.72450 0.27930
 N169 N 0.16052 0.74065 0.25011
 C170 C 0.15177 0.73018 0.31513
 C171 C 0.18742 0.76033 0.32555
 C172 C 0.20516 0.76232 0.35796
 C173 C 0.23877 0.79589 0.35792
 C174 C 0.24068 0.81352 0.32548
 N175 N 0.20906 0.79184 0.30606
 C176 C 0.27084 0.84909 0.31498
 H177 H 0.32087 0.92212 0.28544
 H178 H 0.32064 0.92202 0.21431
 H179 H 0.20129 0.79951 0.28226
 H180 H 0.25912 0.80565 0.12065
 H181 H 0.19475 0.74124 0.12075
 H182 H 0.07840 0.67982 0.21475
 H183 H 0.07853 0.68002 0.28588
 H184 H 0.25960 0.80592 0.37923
 H185 H 0.20109 0.79933 0.21792
 H186 H 0.19516 0.74158 0.37931
 C187 C 0.69778 0.59594 0.73162
 C188 C 0.69760 0.59584 0.76858
 C189 C 0.72388 0.58597 0.77928
 N190 N 0.74019 0.58016 0.75017
 C191 C 0.72416 0.58613 0.72101
 C192 C 0.72933 0.57833 0.81515
 C193 C 0.75940 0.57285 0.82565
 C194 C 0.76121 0.55710 0.85810
 C195 C 0.79476 0.55710 0.85814
 C196 C 0.81255 0.57284 0.82571
 N197 N 0.79101 0.58276 0.80622
 C198 C 0.84817 0.57831 0.81529
 C199 C 0.86149 0.58590 0.77945
 C200 C 0.89774 0.59566 0.76886
 C201 C 0.89785 0.59563 0.73191
 C202 C 0.86166 0.58585 0.72118
 N203 N 0.83951 0.58004 0.75027
 C204 C 0.84855 0.57827 0.68529
 C205 C 0.81302 0.57291 0.67476
 C206 C 0.79539 0.55726 0.64226
 C207 C 0.76189 0.55736 0.64222
 C208 C 0.75995 0.57307 0.67470
 N209 N 0.79143 0.58286 0.69423
 C210 C 0.72989 0.57862 0.68513
 H211 H 0.67987 0.60166 0.71450
 H212 H 0.67954 0.60146 0.78563
 H213 H 0.79914 0.59828 0.71809
 H214 H 0.74036 0.54632 0.87943
 H215 H 0.80467 0.54633 0.87951
 H216 H 0.92137 0.60128 0.78600
 H217 H 0.92157 0.60123 0.71487
 H218 H 0.74116 0.54667 0.62082
 H219 H 0.79885 0.59822 0.78241
 H220 H 0.80537 0.54647 0.62090
 C221 C 0.40359 0.10183 0.73119
 C222 C 0.40381 0.10190 0.76814
 C223 C 0.41365 0.13806 0.77883
 N224 N 0.41933 0.16004 0.74972
 C225 C 0.41332 0.13797 0.72056
 C226 C 0.42140 0.15130 0.81469
 C227 C 0.42681 0.18680 0.82520
 C228 C 0.44263 0.20455 0.85762
 C229 C 0.44251 0.23798 0.85768
 C230 C 0.42663 0.23977 0.82530
 N231 N 0.41674 0.20827 0.80580
 C232 C 0.42102 0.26973 0.81491
 C233 C 0.41333 0.27528 0.77908
 C234 C 0.40346 0.30157 0.76853
 C235 C 0.40343 0.30161 0.73158
 C236 C 0.41328 0.27533 0.72081
 N237 N 0.41920 0.25917 0.74988
 C238 C 0.42084 0.26978 0.68490
 C239 C 0.42624 0.23970 0.67434
 C240 C 0.44188 0.23776 0.64181
 C241 C 0.44184 0.20425 0.64174
 C242 C 0.42619 0.18662 0.67425
 N243 N 0.41636 0.20822 0.69381
 C244 C 0.42074 0.15111 0.68468
 H245 H 0.39787 0.07817 0.71407
 H246 H 0.39828 0.07829 0.78520
 H247 H 0.40097 0.20049 0.71770
 H248 H 0.45354 0.19469 0.87891
 H249 H 0.45331 0.25876 0.87903
 H250 H 0.39780 0.31952 0.78569
 H251 H 0.39774 0.31958 0.71456
 H252 H 0.45254 0.19426 0.62031
 H253 H 0.40119 0.20046 0.78203
 H254 H 0.45261 0.25849 0.62044
 C255 C 0.67973 0.12174 0.76942
 C256 C 0.67958 0.12165 0.73245
 C257 C 0.71664 0.14490 0.72162
 N258 N 0.73942 0.15897 0.75069
 C259 C 0.71687 0.14506 0.77995
 C260 C 0.72909 0.15202 0.68545
 C261 C 0.76575 0.18058 0.67549
 C262 C 0.78178 0.18394 0.64178
 C263 C 0.81550 0.21748 0.64170
 C264 C 0.81910 0.23367 0.67536
 N265 N 0.78877 0.21090 0.69584
 C266 C 0.84784 0.27028 0.68511
 C267 C 0.85509 0.28305 0.72118
 C268 C 0.87838 0.32015 0.73170
 C269 C 0.87840 0.32037 0.76866
 C270 C 0.85513 0.28339 0.77951
 N271 N 0.84112 0.26059 0.75045
 C272 C 0.84793 0.27104 0.81569
 C273 C 0.81933 0.23445 0.82566
 C274 C 0.81592 0.21854 0.85938
 C275 C 0.78235 0.18484 0.85946
 C276 C 0.76621 0.18115 0.82579
 N277 N 0.78903 0.21139 0.80530
 C278 C 0.72958 0.15237 0.81602
 H279 H 0.65518 0.10668 0.78652
 H280 H 0.65491 0.10650 0.71555
 H281 H 0.78176 0.21842 0.78091
 H282 H 0.76996 0.16465 0.61930
 H283 H 0.83474 0.22910 0.61913
 H284 H 0.89347 0.34462 0.71459
 H285 H 0.89350 0.34504 0.78555
 H286 H 0.77069 0.16569 0.88204
 H287 H 0.78164 0.21819 0.72021
 H288 H 0.83519 0.23041 0.88188
 C289 C 0.08762 0.44027 0.10371
 C290 C 0.06922 0.41030 0.12798
 C291 C 0.09008 0.40365 0.15379
 C292 C 0.04923 0.45898 0.05944
 C293 C 0.14778 0.45649 0.13061
 C294 C 0.12695 0.46304 0.10482
 C295 C 0.06624 0.44951 0.07927
 C296 C 0.12946 0.42708 0.15559
 H297 H 0.03878 0.39264 0.12747
 H298 H 0.07552 0.38084 0.17287
 H299 H 0.17811 0.47493 0.13173
 H300 H 0.14144 0.48644 0.08632
 C301 C 0.55999 0.64823 0.10319
 C302 C 0.59002 0.65996 0.12745
 C303 C 0.59681 0.68758 0.15322
 C304 C 0.54092 0.59083 0.05908
 C305 C 0.54402 0.69229 0.13002
 C306 C 0.53732 0.66479 0.10426
 C307 C 0.55056 0.61745 0.07883
 C308 C 0.57346 0.70350 0.15501
 H309 H 0.60760 0.64718 0.12697
 H310 H 0.61964 0.69593 0.17230
 H311 H 0.52563 0.70415 0.13113
 H312 H 0.51388 0.65577 0.08577
 C313 C 0.35642 0.91293 0.10676
 C314 C 0.36470 0.89818 0.13709
 C315 C 0.33670 0.87757 0.16251
 C316 C 0.41148 0.95042 0.05996
 C317 C 0.29179 0.88639 0.12749
 C318 C 0.31991 0.90705 0.10196
 C319 C 0.38567 0.93362 0.08069
 C320 C 0.30007 0.87156 0.15795
 H321 H 0.39280 0.90246 0.14101
 H322 H 0.34348 0.86608 0.18570
 H323 H 0.26361 0.88187 0.12355
 H324 H 0.31320 0.91828 0.07852
 C325 C 0.91259 0.55604 0.60741
 C326 C 0.89765 0.53310 0.63785
 C327 C 0.87704 0.54057 0.66315
 C328 C 0.95004 0.53838 0.56070
 C329 C 0.88623 0.59423 0.62784
 C330 C 0.90689 0.58667 0.60242
 C331 C 0.93327 0.54738 0.58143
 C332 C 0.87120 0.57120 0.65838
 H333 H 0.90178 0.50927 0.64192
 H334 H 0.86540 0.52236 0.68640
 H335 H 0.88186 0.61788 0.62372
 H336 H 0.91826 0.60454 0.57892
 C337 C 0.44288 0.35579 0.60705
 C338 C 0.41222 0.31931 0.60208
 C339 C 0.40472 0.29116 0.62749
 C340 C 0.46048 0.41079 0.56036
 C341 C 0.45849 0.33602 0.66275
 C342 C 0.46591 0.36403 0.63745
 C343 C 0.45149 0.38504 0.58107
 C344 C 0.42784 0.29940 0.65801
 H345 H 0.39428 0.31261 0.57860
 H346 H 0.38104 0.26302 0.62340
 H347 H 0.47677 0.34278 0.68598
 H348 H 0.48975 0.39211 0.64151
 C349 C 0.64644 0.08808 0.60463
 C350 C 0.65799 0.06971 0.62889
 C351 C 0.68570 0.09053 0.65465
 C352 C 0.58930 0.04975 0.56009
 C353 C 0.69084 0.14815 0.63149
 C354 C 0.66324 0.12736 0.60575
 C355 C 0.61577 0.06674 0.58008
 C356 C 0.70192 0.12987 0.65644
 H357 H 0.64505 0.03932 0.62838
 H358 H 0.69395 0.07600 0.67368
 H359 H 0.70293 0.17844 0.63258
 H360 H 0.65438 0.14183 0.58726
 C361 C 0.44402 0.08778 0.89248
 C362 C 0.46686 0.10252 0.86191
 C363 C 0.45925 0.12296 0.83663
 C364 C 0.46192 0.05063 0.93911
 C365 C 0.40566 0.11397 0.87223
 C366 C 0.41336 0.09349 0.89762
 C367 C 0.45281 0.06728 0.91843
 C368 C 0.42859 0.12881 0.84155
 H369 H 0.49071 0.09838 0.85770
 H370 H 0.47739 0.13445 0.81326
 H371 H 0.38199 0.11836 0.87647
 H372 H 0.39556 0.08227 0.92123
 C373 C 0.64311 0.55630 0.89316
 C374 C 0.67969 0.58685 0.89817
 C375 C 0.70789 0.59435 0.87270
 C376 C 0.58800 0.53866 0.93997
 C377 C 0.66291 0.54083 0.83728
 C378 C 0.63484 0.53340 0.86264
 C379 C 0.61380 0.54767 0.91921
 C380 C 0.69962 0.57136 0.84207
 H381 H 0.68640 0.60469 0.92174
 H382 H 0.73610 0.61793 0.87684
 H383 H 0.65613 0.52264 0.81397
 H384 H 0.60669 0.50965 0.85855
 C385 C 0.91179 0.35377 0.89645
 C386 C 0.93025 0.34222 0.87222
 C387 C 0.90946 0.31448 0.84648
 C388 C 0.95009 0.41104 0.94085
 C389 C 0.85166 0.30932 0.86962
 C390 C 0.87243 0.33695 0.89534
 C391 C 0.93310 0.38451 0.92095
 C392 C 0.87005 0.29824 0.84469
 H393 H 0.96071 0.35518 0.87273
 H394 H 0.92408 0.30623 0.82746
 H395 H 0.82132 0.29722 0.86853
 H396 H 0.85788 0.34582 0.91382
 C397 C 0.55931 0.91171 0.39609
 C398 C 0.53657 0.87244 0.39489
 C399 C 0.54336 0.85170 0.36914
 C400 C 0.54014 0.94994 0.44020
 C401 C 0.59639 0.90937 0.34620
 C402 C 0.58950 0.93013 0.37196
 C403 C 0.54981 0.93300 0.42045
 C404 C 0.57298 0.87005 0.34429
 H405 H 0.51300 0.85794 0.41327
 H406 H 0.52493 0.82143 0.36793
 H407 H 0.61936 0.92394 0.32722
 H408 H 0.60714 0.96053 0.37254
 C409 C 0.35185 0.44078 0.39631
 C410 C 0.33532 0.46347 0.39530
 C411 C 0.30777 0.45678 0.36961
 C412 C 0.40933 0.45978 0.44034
 C413 C 0.31236 0.40397 0.34636
 C414 C 0.34003 0.41075 0.37206
 C415 C 0.38267 0.45018 0.42061
 C416 C 0.29647 0.42733 0.34463
 H417 H 0.34442 0.48691 0.41379
 H418 H 0.29594 0.47517 0.36854
 H419 H 0.30394 0.38113 0.32727
 H420 H 0.35278 0.39316 0.37250
 C421 C 0.08779 0.64413 0.39310
 C422 C 0.10266 0.63602 0.36266
 C423 C 0.12327 0.66405 0.33733
 C424 C 0.05035 0.58902 0.43972
 C425 C 0.11422 0.70868 0.37264
 C426 C 0.09356 0.68051 0.39808
 C427 C 0.06712 0.61484 0.41906
 C428 C 0.12916 0.70056 0.34208
 H429 H 0.09847 0.60802 0.35860
 H430 H 0.13485 0.65740 0.31406
 H431 H 0.11865 0.73675 0.37673
 H432 H 0.08224 0.68709 0.42160
 C433 C 0.91193 0.55622 0.89325
 C434 C 0.90628 0.58689 0.89819
 C435 C 0.88568 0.59440 0.87276
 C436 C 0.94933 0.53859 0.93983
 C437 C 0.87645 0.54059 0.83754
 C438 C 0.89700 0.53316 0.86287
 C439 C 0.93258 0.54762 0.91920
 C440 C 0.87068 0.57127 0.84225
 H441 H 0.91765 0.60485 0.92167
 H442 H 0.88134 0.61809 0.87681
 H443 H 0.86483 0.52230 0.81431
 H444 H 0.90110 0.50930 0.85884
 C445 C 0.44301 0.35563 0.89299
 C446 C 0.46606 0.36390 0.86255
 C447 C 0.45866 0.33592 0.83718
 C448 C 0.46065 0.41069 0.93966
 C449 C 0.40488 0.29102 0.87245
 C450 C 0.41236 0.31914 0.89793
 C451 C 0.45160 0.38487 0.91899
 C452 C 0.42801 0.29931 0.84189
 H453 H 0.48990 0.39199 0.85852
 H454 H 0.47694 0.34269 0.81392
 H455 H 0.38121 0.26287 0.87651
 H456 H 0.39441 0.31244 0.92144
 C457 C 0.64723 0.08832 0.89699
 C458 C 0.66384 0.12757 0.89589
 C459 C 0.69140 0.14843 0.87014
 C460 C 0.58975 0.04987 0.94115
 C461 C 0.68665 0.09092 0.84697
 C462 C 0.65897 0.07004 0.87274
 C463 C 0.61641 0.06691 0.92136
 C464 C 0.70263 0.13022 0.84517
 H465 H 0.65480 0.14197 0.91437
 H466 H 0.70330 0.17869 0.86901
 H467 H 0.69502 0.07646 0.82790
 H468 H 0.64615 0.03966 0.87324
 C469 C 0.08759 0.44168 0.39621
 C470 C 0.12696 0.46425 0.39505
 C471 C 0.14770 0.45742 0.36929
 C472 C 0.04938 0.46061 0.44071
 C473 C 0.08985 0.40474 0.34617
 C474 C 0.06909 0.41167 0.37196
 C475 C 0.06632 0.45108 0.42076
 C476 C 0.12927 0.42795 0.34435
 H477 H 0.14154 0.48767 0.41354
 H478 H 0.17805 0.47569 0.36817
 H479 H 0.07521 0.38188 0.32715
 H480 H 0.03863 0.39415 0.37250
 C481 C 0.55858 0.64712 0.39540
 C482 C 0.53597 0.66374 0.39432
 C483 C 0.54285 0.69133 0.36864
 C484 C 0.53959 0.58993 0.43973
 C485 C 0.59566 0.68653 0.34550
 C486 C 0.58869 0.65883 0.37119
 C487 C 0.54914 0.61643 0.41985
 C488 C 0.57241 0.70257 0.34373
 H489 H 0.51248 0.65476 0.41278
 H490 H 0.52455 0.70328 0.36757
 H491 H 0.61860 0.69489 0.32649
 H492 H 0.60624 0.64602 0.37168
 C493 C 0.35711 0.91318 0.39292
 C494 C 0.36531 0.89855 0.36237
 C495 C 0.33723 0.87794 0.33703
 C496 C 0.41221 0.95052 0.43974
 C497 C 0.29237 0.88654 0.37253
 C498 C 0.32058 0.90719 0.39798
 C499 C 0.38642 0.93379 0.41896
 C500 C 0.30057 0.87180 0.34188
 H501 H 0.39342 0.90290 0.35824
 H502 H 0.34396 0.86652 0.31370
 H503 H 0.26419 0.88193 0.37671
 H504 H 0.31391 0.91832 0.42158
 C505 C 0.55976 0.91243 0.10390
 C506 C 0.58973 0.93078 0.12824
 C507 C 0.59651 0.90994 0.15393
 C508 C 0.54101 0.95077 0.05961
 C509 C 0.54380 0.85232 0.13053
 C510 C 0.53711 0.87313 0.10486
 C511 C 0.55047 0.93377 0.07948
 C512 C 0.57321 0.87059 0.15557
 H513 H 0.60731 0.96119 0.12786
 H514 H 0.61933 0.92447 0.17304
 H515 H 0.52546 0.82202 0.13151
 H516 H 0.51372 0.85867 0.08630
 C517 C 0.35309 0.44180 0.10427
 C518 C 0.34136 0.41178 0.12848
 C519 C 0.31355 0.40482 0.15416
 C520 C 0.41048 0.46078 0.05994
 C521 C 0.30867 0.45743 0.13101
 C522 C 0.33637 0.46430 0.10534
 C523 C 0.38390 0.45124 0.07983
 C524 C 0.29743 0.42798 0.15593
 H525 H 0.35425 0.39431 0.12799
 H526 H 0.30518 0.38197 0.17318
 H527 H 0.29665 0.47566 0.13209
 H528 H 0.34536 0.48772 0.08688
 C529 C 0.08733 0.64358 0.10729
 C530 C 0.09319 0.67998 0.10229
 C531 C 0.11391 0.70822 0.12769
 C532 C 0.04977 0.58843 0.06060
 C533 C 0.12282 0.66362 0.16301
 C534 C 0.10216 0.63552 0.13772
 C535 C 0.06660 0.61423 0.08132
 C536 C 0.12883 0.70016 0.15824
 H537 H 0.08191 0.68654 0.07879
 H538 H 0.11841 0.73630 0.12357
 H539 H 0.13438 0.65699 0.18627
 H540 H 0.09790 0.60750 0.14180
 C541 C 0.44244 0.08714 0.60646
 C542 C 0.46567 0.10212 0.63672
 C543 C 0.45837 0.12272 0.66214
 C544 C 0.45993 0.04969 0.55970
 C545 C 0.40431 0.11344 0.62726
 C546 C 0.41170 0.09279 0.60173
 C547 C 0.45094 0.06646 0.58041
 C548 C 0.42763 0.12850 0.65765
 H549 H 0.48958 0.09802 0.64058
 H550 H 0.47679 0.13440 0.68527
 H551 H 0.38057 0.11778 0.62337
 H552 H 0.39361 0.08138 0.57835
 C553 C 0.64428 0.55705 0.60684
 C554 C 0.68087 0.58766 0.60210
 C555 C 0.70888 0.59502 0.62766
 C556 C 0.58940 0.53963 0.55999
 C557 C 0.66369 0.54120 0.66261
 C558 C 0.63581 0.53392 0.63716
 C559 C 0.61514 0.54858 0.58074
 C560 C 0.70040 0.57180 0.65810
 H561 H 0.68773 0.60567 0.57867
 H562 H 0.73712 0.61865 0.62375
 H563 H 0.65676 0.52285 0.68579
 H564 H 0.60764 0.51012 0.64104
 C565 C 0.91191 0.35220 0.60395
 C566 C 0.87257 0.33556 0.60510
 C567 C 0.85172 0.30816 0.63094
 C568 C 0.95034 0.40934 0.55958
 C569 C 0.90940 0.31316 0.65410
 C570 C 0.93027 0.34068 0.62824
 C571 C 0.93331 0.38283 0.57945
 C572 C 0.87002 0.29714 0.65594
 H573 H 0.85811 0.34443 0.58659
 H574 H 0.82140 0.29622 0.63209
 H575 H 0.92393 0.30495 0.67319
 H576 H 0.96072 0.35352 0.62771
   
