data_POSCAR
  _audit_creation_date              2014-09-24
  _audit_creation_method            'ToBaCCo'
  _symmetry_space_group_name_H-M    'P1'
  _symmetry_Int_Tables_number       1
  _symmetry_cell_setting            triclinic
  loop_
  _symmetry_equiv_pos_as_xyz
 x,y,z
_cell_length_a 51.8619
_cell_length_b 52.0331
_cell_length_c 52.2852
_cell_angle_alpha 90.161500
_cell_angle_beta 90.098700
_cell_angle_gamma 89.925300
loop_
  _atom_site_label
  _atom_site_type_symbol
  _atom_site_fract_x
  _atom_site_fract_y
  _atom_site_fract_z
N1 N 0.14374 0.16069 0.21568
 N2 N 0.16438 0.14627 0.21822
 C3 C 0.16337 0.13397 0.24080
 C4 C 0.14059 0.14075 0.25315
 C5 C 0.12866 0.15781 0.23640
 H6 H 0.17786 0.12053 0.24726
 H7 H 0.11037 0.16747 0.23882
 Cu8 Cu 0.18929 0.14336 0.19060
 Cu9 Cu 0.13782 0.18134 0.18508
 Cu10 Cu 0.19364 0.19270 0.15000
 N11 N 0.21506 0.14369 0.16364
 N12 N 0.21706 0.16323 0.14792
 C13 C 0.23692 0.15898 0.13185
 C14 C 0.24784 0.13519 0.13756
 C15 C 0.23326 0.12618 0.15795
 H16 H 0.24260 0.17220 0.11699
 H17 H 0.23576 0.10837 0.16821
 N18 N 0.16225 0.21421 0.14722
 N19 N 0.14083 0.20926 0.15986
 C20 C 0.12275 0.22662 0.15332
 C21 C 0.13318 0.24341 0.13560
 C22 C 0.15833 0.23488 0.13223
 H23 H 0.10354 0.22723 0.16129
 H24 H 0.17262 0.24281 0.11949
 H25 H 0.16512 0.16765 0.15865
 H26 H 0.17607 0.18813 0.18588
 N27 N -0.15165 0.82882 0.22631
 N28 N -0.16745 0.84853 0.22499
 C29 C -0.16402 0.86357 0.24570
 C30 C -0.14502 0.85271 0.26092
 C31 C -0.13765 0.83062 0.24794
 H32 H -0.17463 0.88109 0.24937
 H33 H -0.12283 0.81712 0.25352
 Cu34 Cu -0.19068 0.85300 0.19617
 Cu35 Cu -0.14998 0.80279 0.19946
 Cu36 Cu -0.19621 0.80654 0.15162
 N37 N -0.21933 0.85232 0.17223
 N38 N -0.22109 0.83457 0.15442
 C39 C -0.24224 0.83907 0.14015
 C40 C -0.25470 0.86079 0.14964
 C41 C -0.23944 0.86856 0.17014
 H42 H -0.24822 0.82705 0.12434
 H43 H -0.24236 0.88497 0.18251
 N44 N -0.16929 0.77971 0.15245
 N45 N -0.15159 0.77840 0.17058
 C46 C -0.13606 0.75819 0.16585
 C47 C -0.14442 0.74606 0.14376
 C48 C -0.16555 0.76026 0.13581
 H49 H -0.12007 0.75247 0.17784
 H50 H -0.17722 0.75680 0.11901
 H51 H -0.16526 0.82385 0.16953
 H52 H -0.18873 0.80664 0.19043
 N53 N -0.14611 0.16289 -0.21329
 N54 N -0.16389 0.14491 -0.21275
 C55 C -0.15890 0.12751 -0.23121
 C56 C -0.13691 0.13503 -0.24414
 C57 C -0.12934 0.15763 -0.23225
 H58 H -0.17062 0.11083 -0.23525
 H59 H -0.11265 0.16916 -0.23678
 Cu60 Cu -0.19234 0.14650 -0.18858
 Cu61 Cu -0.14552 0.19127 -0.18877
 Cu62 Cu -0.19555 0.19356 -0.14484
 N63 N -0.22041 0.14806 -0.16394
 N64 N -0.22181 0.16697 -0.14732
 C65 C -0.24323 0.16421 -0.13315
 C66 C -0.25614 0.14222 -0.14114
 C67 C -0.24088 0.13247 -0.16078
 H68 H -0.24868 0.17719 -0.11795
 H69 H -0.24448 0.11554 -0.17222
 N70 N -0.16726 0.21870 -0.14528
 N71 N -0.14842 0.21824 -0.16221
 C72 C -0.13209 0.23778 -0.15715
 C73 C -0.14102 0.25098 -0.13587
 C74 C -0.16334 0.23833 -0.12894
 H75 H -0.11459 0.24168 -0.16764
 H76 H -0.17579 0.24310 -0.11307
 H77 H -0.16541 0.17241 -0.16037
 H78 H -0.18478 0.19242 -0.18296
 N79 N 0.14636 0.83835 -0.21675
 N80 N 0.16666 0.85320 -0.21923
 C81 C 0.16265 0.86944 -0.23890
 C82 C 0.13849 0.86451 -0.24922
 C83 C 0.12878 0.84462 -0.23461
 H84 H 0.17612 0.88401 -0.24500
 H85 H 0.11039 0.83515 -0.23698
 Cu86 Cu 0.19617 0.85037 -0.19618
 Cu87 Cu 0.14426 0.81163 -0.19102
 Cu88 Cu 0.19442 0.80747 -0.14770
 N89 N 0.22300 0.84897 -0.17000
 N90 N 0.22199 0.83255 -0.15101
 C91 C 0.24238 0.83628 -0.13550
 C92 C 0.25726 0.85618 -0.14524
 C93 C 0.24420 0.86368 -0.16727
 H94 H 0.24597 0.82518 -0.11845
 H95 H 0.24936 0.87899 -0.18018
 N96 N 0.16480 0.78377 -0.14746
 N97 N 0.14548 0.78571 -0.16377
 C98 C 0.12808 0.76725 -0.15867
 C99 C 0.13688 0.75287 -0.13823
 C100 C 0.16028 0.76388 -0.13163
 H101 H 0.11047 0.76421 -0.16932
 H102 H 0.17289 0.75803 -0.11623
 H103 H 0.16736 0.83098 -0.16493
 H104 H 0.18351 0.80643 -0.18571
 N105 N 0.16456 1.14745 0.78389
 N106 N 0.14545 1.16384 0.78653
 C107 C 0.12794 1.15960 0.76797
 C108 C 0.13657 1.13947 0.75283
 C109 C 0.15990 1.13226 0.76356
 H110 H 0.11043 1.17062 0.76549
 H111 H 0.17247 1.11693 0.75724
 Cu112 Cu 0.14505 1.18933 0.81373
 Cu113 Cu 0.19395 1.14693 0.80697
 Cu114 Cu 0.19801 1.19684 0.85042
 N115 N 0.14988 1.21937 0.83535
 N116 N 0.17062 1.22222 0.84952
 C117 C 0.16886 1.24434 0.86273
 C118 C 0.14572 1.25609 0.85657
 C119 C 0.13415 1.23964 0.83909
 H120 H 0.18315 1.25104 0.87624
 H121 H 0.11575 1.24220 0.82971
 N122 N 0.22376 1.16924 0.84841
 N123 N 0.22213 1.15000 0.83202
 C124 C 0.24238 1.13417 0.83558
 C125 C 0.25753 1.14404 0.85508
 C126 C 0.24509 1.16626 0.86275
 H127 H 0.24596 1.11689 0.82463
 H128 H 0.25091 1.17911 0.87796
 H129 H 0.17719 1.16520 0.83792
 H130 H 0.19175 1.18617 0.81270
 N131 N 0.83337 0.84886 0.77641
 N132 N 0.85123 0.83093 0.77725
 C133 C 0.86763 0.83434 0.75760
 C134 C 0.85967 0.85561 0.74377
 C135 C 0.83787 0.86433 0.75636
 H136 H 0.88418 0.82234 0.75366
 H137 H 0.82579 0.88040 0.75103
 Cu138 Cu 0.85092 0.80476 0.80377
 Cu139 Cu 0.80525 0.85057 0.80093
 Cu140 Cu 0.80467 0.80449 0.84871
 N141 N 0.85070 0.77933 0.83099
 N142 N 0.83232 0.77915 0.84826
 C143 C 0.83609 0.75924 0.86420
 C144 C 0.85808 0.74620 0.85662
 C145 C 0.86690 0.75958 0.83549
 H146 H 0.82371 0.75461 0.88013
 H147 H 0.88351 0.75490 0.82391
 N148 N 0.77841 0.83175 0.84589
 N149 N 0.77844 0.84909 0.82752
 C150 C 0.75782 0.86458 0.83044
 C151 C 0.74420 0.85670 0.85175
 C152 C 0.75785 0.83586 0.86106
 H153 H 0.75321 0.88061 0.81815
 H154 H 0.75294 0.82431 0.87749
 H155 H 0.82504 0.83322 0.83055
 H156 H 0.80485 0.81189 0.80988
 N157 N 0.16616 0.85338 1.22154
 N158 N 0.14678 0.83724 1.21996
 C159 C 0.13163 0.84015 1.24064
 C160 C 0.14208 0.85920 1.25605
 C161 C 0.16404 0.86712 1.24326
 H162 H 0.11433 0.82916 1.24417
 H163 H 0.17724 0.88212 1.24903
 Cu164 Cu 0.14270 0.81434 1.19085
 Cu165 Cu 0.19228 0.85581 1.19508
 Cu166 Cu 0.19063 0.80954 1.14750
 N167 N 0.14418 0.78637 1.16627
 N168 N 0.16305 0.78426 1.14965
 C169 C 0.15886 0.76349 1.13481
 C170 C 0.13604 0.75205 1.14246
 C171 C 0.12731 0.76710 1.16253
 H172 H 0.17108 0.75764 1.11910
 H173 H 0.10996 0.76429 1.17360
 N174 N 0.21677 0.83698 1.14875
 N175 N 0.21697 0.85491 1.16664
 C176 C 0.23616 0.87155 1.16182
 C177 C 0.24878 0.86372 1.13987
 C178 C 0.23602 0.84166 1.13212
 H179 H 0.24069 0.88812 1.17347
 H180 H 0.24003 0.83029 1.11526
 H181 H 0.17179 0.83997 1.16470
 H182 H 0.18920 0.81705 1.18626
 N183 N 0.84021 1.14752 1.21597
 N184 N 0.85845 1.16492 1.21430
 C185 C 0.87541 1.16146 1.23350
 C186 C 0.86732 1.14084 1.24805
 C187 C 0.84485 1.13250 1.23638
 H188 H 0.89227 1.17321 1.23681
 H189 H 0.83300 1.11642 1.24203
 Cu190 Cu 0.85831 1.19064 1.18748
 Cu191 Cu 0.81225 1.14528 1.19123
 Cu192 Cu 0.80975 1.19220 1.14449
 N193 N 0.85601 1.21721 1.16160
 N194 N 0.83685 1.21810 1.14514
 C195 C 0.84026 1.23834 1.12950
 C196 C 0.86287 1.25069 1.13645
 C197 C 0.87228 1.23673 1.15693
 H198 H 0.82760 1.24327 1.11381
 H199 H 0.88970 1.24054 1.16764
 N200 N 0.78424 1.16432 1.14701
 N201 N 0.78547 1.14624 1.16461
 C202 C 0.76633 1.12927 1.16059
 C203 C 0.75229 1.13699 1.13944
 C204 C 0.76414 1.15939 1.13140
 H205 H 0.76292 1.11244 1.17216
 H206 H 0.75900 1.17079 1.11491
 H207 H 0.83098 1.16319 1.16123
 H208 H 0.81198 1.18436 1.18325
 O209 O 0.46368 1.04786 1.04241
 O210 O 0.43581 1.02112 1.02111
 C211 C 0.44058 1.04029 1.03631
 O212 O 0.53579 1.04090 0.95138
 O213 O 0.56447 1.01921 0.97690
 C214 C 0.55908 1.03455 0.95814
 O215 O 0.46312 1.04221 0.95401
 O216 O 0.43562 1.01814 0.97845
 C217 C 0.44016 1.03510 0.96093
 O218 O 0.53623 1.04651 1.04485
 O219 O 0.56466 1.02222 1.02147
 C220 C 0.55946 1.03981 1.03833
 Zr221 Zr 0.50012 1.03277 1.03156
 O222 O 0.50228 1.07335 1.03043
 O223 O 0.49729 1.03383 1.07195
 Zr224 Zr 0.49976 1.02947 0.96691
 O225 O 0.50204 1.07009 0.96583
 O226 O 0.49667 1.02819 0.92657
 O227 O 0.47688 1.03578 0.99908
 O228 O 0.52225 1.03617 0.99884
 O229 O 0.53803 0.95684 1.04929
 O230 O 0.56542 0.97954 1.02350
 C231 C 0.56098 0.96350 1.04187
 O232 O 0.46465 0.94902 0.95873
 O233 O 0.43633 0.97410 0.98142
 C234 C 0.44146 0.95561 0.96557
 O235 O 0.53738 0.95223 0.95602
 O236 O 0.56514 0.97689 0.97980
 C237 C 0.56044 0.95947 0.96268
 O238 O 0.46541 0.95274 1.04684
 O239 O 0.43668 0.97640 1.02323
 C240 C 0.44209 0.95892 1.04001
 Zr241 Zr 0.50135 0.96793 1.03479
 O242 O 0.50500 0.92758 1.03806
 O243 O 0.49845 0.97128 1.07505
 Zr244 Zr 0.50089 0.96444 0.97003
 O245 O 0.50444 0.92397 0.97226
 O246 O 0.49777 0.96217 0.92971
 Zr247 Zr 0.46233 0.99803 1.00102
 Zr248 Zr 0.53873 0.99926 1.00052
 O249 O 0.52348 0.96184 1.00250
 O250 O 0.47834 0.96079 1.00277
 O251 O 0.52381 1.00099 1.03798
 O252 O 0.47800 0.99633 0.96394
 O253 O 0.47829 1.00022 1.03797
 O254 O 0.52318 0.99704 0.96331
 H255 H 0.53376 1.05132 0.99791
 H256 H 0.46629 0.99525 0.94899
 H257 H 0.53535 0.94692 1.00318
 H258 H 0.46643 1.00079 1.05280
 H259 H 0.50999 1.01612 0.92032
 H260 H 0.51202 0.97239 0.92239
 H261 H 0.48961 0.91752 0.98222
 H262 H 0.49282 0.91982 1.02569
 H263 H 0.51385 0.98069 1.08116
 H264 H 0.51274 1.02517 1.07896
 H265 H 0.48938 1.07928 1.01780
 H266 H 0.48631 1.07701 0.97405
 O267 O 0.04774 0.46307 -0.04357
 O268 O 0.02151 0.43615 -0.02079
 C269 C 0.03967 0.44033 -0.03722
 O270 O 0.04739 0.53508 0.04807
 O271 O 0.02545 0.56418 0.02339
 C272 C 0.04176 0.55845 0.04130
 O273 O 0.04684 0.46273 0.04491
 O274 O 0.02093 0.43579 0.02151
 C275 C 0.03919 0.43995 0.03801
 O276 O 0.04896 0.53545 -0.04509
 O277 O 0.02611 0.56438 -0.02094
 C278 C 0.04297 0.55878 -0.03837
 Zr279 Zr 0.03493 0.49980 -0.03120
 O280 O 0.07573 0.50076 -0.02983
 O281 O 0.03589 0.49720 -0.07160
 Zr282 Zr 0.03343 0.49953 0.03361
 O283 O 0.07415 0.50046 0.03592
 O284 O 0.03099 0.49638 0.07391
 O285 O 0.03826 0.47663 0.00111
 O286 O 0.03991 0.52167 0.00144
 O287 O -0.04050 0.53937 -0.04704
 O288 O -0.01681 0.56630 -0.02139
 C289 C -0.03302 0.56211 -0.03983
 O290 O -0.04838 0.46692 0.04296
 O291 O -0.02399 0.43786 0.02046
 C292 C -0.04236 0.44357 0.03628
 O293 O -0.04248 0.53919 0.04637
 O294 O -0.01705 0.56620 0.02273
 C295 C -0.03435 0.56196 0.04009
 O296 O -0.04568 0.46716 -0.04572
 O297 O -0.02297 0.43806 -0.02174
 C298 C -0.03999 0.44379 -0.03899
 Zr299 Zr -0.03034 0.50267 -0.03256
 O300 O -0.07092 0.50731 -0.03260
 O301 O -0.03025 0.50021 -0.07297
 Zr302 Zr -0.03157 0.50246 0.03214
 O303 O -0.07210 0.50716 0.03202
 O304 O -0.03174 0.49923 0.07250
 Zr305 Zr -0.00001 0.46305 0.00017
 Zr306 Zr 0.00334 0.53918 0.00068
 O307 O -0.03466 0.52506 -0.00015
 O308 O -0.03698 0.47993 -0.00052
 O309 O 0.00339 0.52409 -0.03678
 O310 O -0.00013 0.47857 0.03735
 O311 O 0.00143 0.47906 -0.03672
 O312 O 0.00186 0.52392 0.03797
 H313 H 0.05552 0.53263 0.00179
 H314 H -0.00094 0.46661 0.05204
 H315 H -0.04923 0.53739 -0.00034
 H316 H 0.00123 0.46757 -0.05186
 H317 H 0.02322 0.51246 0.08049
 H318 H -0.02149 0.51367 0.07945
 H319 H -0.07922 0.49460 0.01967
 H320 H -0.07845 0.49209 -0.02415
 H321 H -0.01810 0.51335 -0.07932
 H322 H 0.02589 0.51186 -0.07843
 H323 H 0.08158 0.48524 -0.02059
 H324 H 0.08078 0.48816 0.02307
 O325 O 1.04874 -0.04085 0.53535
 O326 O 1.02427 -0.01797 0.56393
 C327 C 1.04242 -0.03424 0.55852
 O328 O 1.04386 0.05020 0.46312
 O329 O 1.01974 0.02503 0.43615
 C330 C 1.03633 0.04316 0.44042
 O331 O 1.04878 0.04789 0.53519
 O332 O 1.02471 0.02485 0.56381
 C333 C 1.04263 0.04124 0.55835
 O334 O 1.04341 -0.04389 0.46337
 O335 O 1.01893 -0.01933 0.43622
 C336 C 1.03560 -0.03736 0.44065
 Zr337 Zr 1.03287 -0.02907 0.49976
 O338 O 1.07344 -0.02899 0.49539
 O339 O 1.03313 -0.06963 0.50285
 Zr340 Zr 1.03284 0.03601 0.49961
 O341 O 1.07341 0.03618 0.49535
 O342 O 1.03257 0.07660 0.50250
 O343 O 1.03866 0.00357 0.52228
 O344 O 1.03680 0.00333 0.47737
 O345 O 0.95413 -0.04346 0.46604
 O346 O 0.97634 -0.01844 0.43761
 C347 C 0.95989 -0.03634 0.44291
 O348 O 0.95442 0.04850 0.53809
 O349 O 0.97997 0.02512 0.56525
 C350 C 0.96199 0.04189 0.56086
 O351 O 0.95407 0.05018 0.46610
 O352 O 0.97686 0.02558 0.43757
 C353 C 0.96017 0.04331 0.44296
 O354 O 0.95425 -0.04076 0.53833
 O355 O 0.97991 -0.01718 0.56536
 C356 C 0.96174 -0.03373 0.56104
 Zr357 Zr 0.96772 -0.02918 0.50180
 O358 O 0.92695 -0.03001 0.50036
 O359 O 0.96875 -0.06975 0.50475
 Zr360 Zr 0.96755 0.03598 0.50171
 O361 O 0.92675 0.03577 0.50025
 O362 O 0.96757 0.07658 0.50436
 Zr363 Zr 1.00151 0.00367 0.53860
 Zr364 Zr 0.99893 0.00332 0.46289
 O365 O 0.96214 0.00333 0.47982
 O366 O 0.96335 0.00353 0.52463
 O367 O 0.99951 -0.03421 0.47801
 O368 O 1.00096 0.04081 0.52281
 O369 O 1.00104 -0.03366 0.52300
 O370 O 0.99940 0.04094 0.47790
 H371 H 1.05144 0.00315 0.46521
 H372 H 1.00141 0.05587 0.53444
 H373 H 0.94661 0.00334 0.46877
 H374 H 1.00140 -0.04862 0.53469
 H375 H 1.02199 0.08324 0.48821
 H376 H 0.97775 0.08319 0.48982
 H377 H 0.92056 0.02581 0.51511
 H378 H 0.92058 -0.01808 0.51367
 H379 H 0.97727 -0.07649 0.48920
 H380 H 1.02159 -0.07644 0.48938
 H381 H 1.08072 -0.01859 0.50951
 H382 H 1.08069 0.02527 0.50903
 C383 C 1.14637 0.11510 0.29215
 C384 C 1.13687 0.10547 0.31522
 C385 C 1.11193 0.11163 0.32346
 C386 C 1.09698 0.12856 0.30868
 C387 C 1.10653 0.13846 0.28573
 C388 C 1.13128 0.13161 0.27683
 C389 C 1.10220 0.10028 0.34756
 C390 C 1.07724 0.09470 0.35121
 C391 C 1.06746 0.08169 0.37443
 C392 C 1.04536 0.06633 0.37236
 C393 C 1.03549 0.05369 0.39372
 C394 C 1.04720 0.05651 0.41785
 C395 C 1.06911 0.07227 0.42006
 C396 C 1.07920 0.08468 0.39855
 H397 H 1.16562 0.10947 0.28656
 H398 H 1.14891 0.09272 0.32644
 H399 H 1.07794 0.13437 0.31490
 H400 H 1.09418 0.15123 0.27498
 H401 H 1.11628 0.09453 0.36176
 H402 H 1.06363 0.09800 0.33583
 H403 H 1.03584 0.06387 0.35406
 H404 H 1.01851 0.04185 0.39134
 H405 H 1.07852 0.07494 0.43838
 H406 H 1.09589 0.09693 0.40096
 C407 C 0.88084 -0.15269 0.30125
 C408 C 0.89152 -0.14281 0.32380
 C409 C 0.88767 -0.11702 0.33064
 C410 C 0.87205 -0.10149 0.31497
 C411 C 0.86124 -0.11140 0.29252
 C412 C 0.86574 -0.13704 0.28522
 C413 C 0.90004 -0.10688 0.35416
 C414 C 0.90778 -0.08239 0.35620
 C415 C 0.92130 -0.07173 0.37884
 C416 C 0.93685 -0.04999 0.37550
 C417 C 0.94948 -0.03876 0.39626
 C418 C 0.94665 -0.04884 0.42103
 C419 C 0.93093 -0.07054 0.42449
 C420 C 0.91837 -0.08191 0.40359
 H421 H 0.88442 -0.17261 0.29647
 H422 H 0.90322 -0.15523 0.33571
 H423 H 0.86797 -0.08173 0.32008
 H424 H 0.84965 -0.09877 0.28077
 H425 H 0.90448 -0.12039 0.36926
 H426 H 0.90553 -0.06976 0.33992
 H427 H 0.93932 -0.04167 0.35669
 H428 H 0.96129 -0.02196 0.39286
 H429 H 0.92826 -0.07870 0.44333
 H430 H 0.90600 -0.09827 0.40700
 C431 C 0.87147 0.09541 0.72978
 C432 C 0.88303 0.08290 0.70906
 C433 C 0.89851 0.09654 0.69184
 C434 C 0.90280 0.12290 0.69612
 C435 C 0.89149 0.13536 0.71704
 C436 C 0.87554 0.12178 0.73398
 C437 C 0.91053 0.08256 0.67019
 C438 C 0.91572 0.09368 0.64767
 C439 C 0.92727 0.07962 0.62580
 C440 C 0.92193 0.08795 0.60086
 C441 C 0.93283 0.07546 0.57976
 C442 C 0.94974 0.05460 0.58319
 C443 C 0.95532 0.04644 0.60823
 C444 C 0.94419 0.05876 0.62930
 H445 H 0.85958 0.08431 0.74265
 H446 H 0.87965 0.06254 0.70631
 H447 H 0.91518 0.13386 0.68360
 H448 H 0.89500 0.15568 0.71975
 H449 H 0.91375 0.06213 0.67249
 H450 H 0.91005 0.11347 0.64455
 H451 H 0.90914 0.10411 0.59767
 H452 H 0.92823 0.08238 0.56078
 H453 H 0.96846 0.03062 0.61161
 H454 H 0.94936 0.05230 0.64829
 C455 C 1.09879 -0.12429 0.72576
 C456 C 1.08657 -0.11226 0.70519
 C457 C 1.10087 -0.09846 0.68712
 C458 C 1.12774 -0.09638 0.69040
 C459 C 1.13997 -0.10826 0.71115
 C460 C 1.12564 -0.12249 0.72897
 C461 C 1.08696 -0.08583 0.66577
 C462 C 1.09779 -0.08051 0.64311
 C463 C 1.08333 -0.06845 0.62176
 C464 C 1.09114 -0.07325 0.59650
 C465 C 1.07784 -0.06230 0.57591
 C466 C 1.05661 -0.04601 0.58020
 C467 C 1.04913 -0.04082 0.60555
 C468 C 1.06235 -0.05185 0.62608
 H469 H 1.08707 -0.13475 0.73929
 H470 H 1.06583 -0.11390 0.70329
 H471 H 1.13932 -0.08527 0.67728
 H472 H 1.16066 -0.10645 0.71306
 H473 H 1.06658 -0.08218 0.66848
 H474 H 1.11744 -0.08647 0.63942
 H475 H 1.10742 -0.08573 0.59267
 H476 H 1.08425 -0.06655 0.55666
 H477 H 1.03304 -0.02817 0.60961
 H478 H 1.05630 -0.04697 0.64528
 C479 C 0.27618 1.09765 1.13250
 C480 C 0.29682 1.08526 1.12054
 C481 C 0.31117 1.09771 1.10161
 C482 C 0.30406 1.12273 1.09436
 C483 C 0.28315 1.13509 1.10610
 C484 C 0.26890 1.12281 1.12551
 C485 C 0.33277 1.08365 1.08934
 C486 C 0.35375 1.09527 1.07987
 C487 C 0.37568 1.08082 1.06864
 C488 C 0.40060 1.09116 1.07029
 C489 C 0.42172 1.07797 1.06000
 C490 C 0.41828 1.05429 1.04740
 C491 C 0.39322 1.04418 1.04533
 C492 C 0.37217 1.05726 1.05583
 H493 H 0.26591 1.08709 1.14704
 H494 H 0.30175 1.06587 1.12628
 H495 H 0.31428 1.13265 1.07931
 H496 H 0.27841 1.15433 1.09989
 H497 H 0.33203 1.06285 1.08971
 H498 H 0.35577 1.11590 1.08185
 H499 H 0.40378 1.10939 1.07986
 H500 H 0.44071 1.08642 1.06177
 H501 H 0.38984 1.02606 1.03564
 H502 H 0.35313 1.04907 1.05352
 C503 C 0.29399 0.88590 0.85210
 C504 C 0.31655 0.89632 0.86253
 C505 C 0.32572 0.88814 0.88637
 C506 C 0.31234 0.86867 0.89931
 C507 C 0.28994 0.85802 0.88882
 C508 C 0.28019 0.86660 0.86512
 C509 C 0.34947 0.89991 0.89699
 C510 C 0.35352 0.90273 0.92218
 C511 C 0.37649 0.91582 0.93290
 C512 C 0.37414 0.92903 0.95619
 C513 C 0.39524 0.94193 0.96676
 C514 C 0.41935 0.94142 0.95450
 C515 C 0.42192 0.92759 0.93152
 C516 C 0.40066 0.91499 0.92074
 H517 H 0.28766 0.89305 0.83375
 H518 H 0.32668 0.91113 0.85206
 H519 H 0.31930 0.86136 0.91741
 H520 H 0.28034 0.84319 0.89964
 H521 H 0.36308 0.90807 0.88360
 H522 H 0.33864 0.89696 0.93549
 H523 H 0.35580 0.92972 0.96605
 H524 H 0.39270 0.95221 0.98462
 H525 H 0.44026 0.92679 0.92168
 H526 H 0.40328 0.90438 0.90310
 C527 C 0.71077 0.89296 1.15381
 C528 C 0.68829 0.90457 1.14453
 C529 C 0.67723 0.89645 1.12144
 C530 C 0.68852 0.87581 1.10818
 C531 C 0.71075 0.86389 1.11760
 C532 C 0.72247 0.87242 1.14045
 C533 C 0.65379 0.90952 1.11179
 C534 C 0.64951 0.91305 1.08676
 C535 C 0.62674 0.92680 1.07654
 C536 C 0.62911 0.93997 1.05332
 C537 C 0.60790 0.95241 1.04250
 C538 C 0.58361 0.95147 1.05437
 C539 C 0.58117 0.93821 1.07763
 C540 C 0.60256 0.92608 1.08870
 H541 H 0.71865 0.90009 1.17161
 H542 H 0.67974 0.92028 1.15522
 H543 H 0.68004 0.86864 1.09062
 H544 H 0.71878 0.84823 1.10655
 H545 H 0.64075 0.91792 1.12565
 H546 H 0.66402 0.90696 1.07313
 H547 H 0.64749 0.94065 1.04351
 H548 H 0.61047 0.96233 1.02451
 H549 H 0.56270 0.93708 1.08720
 H550 H 0.59997 0.91558 1.10635
 C551 C 0.70627 1.14568 0.88717
 C552 C 0.68331 1.13566 0.89689
 C553 C 0.67424 1.11167 0.88874
 C554 C 0.68813 1.09817 0.86995
 C555 C 0.71094 1.10830 0.85995
 C556 C 0.72057 1.13215 0.86855
 C557 C 0.65024 1.10138 0.90008
 C558 C 0.64633 1.07618 0.90356
 C559 C 0.62347 1.06589 0.91697
 C560 C 0.62611 1.04319 0.93111
 C561 C 0.60520 1.03310 0.94449
 C562 C 0.58099 1.04527 0.94362
 C563 C 0.57810 1.06762 0.92886
 C564 C 0.59918 1.07793 0.91574
 H565 H 0.71246 1.16419 0.89428
 H566 H 0.67281 1.14655 0.91119
 H567 H 0.68129 1.07989 0.86273
 H568 H 0.72100 1.09710 0.84565
 H569 H 0.63647 1.11506 0.90770
 H570 H 0.66136 1.06267 0.89840
 H571 H 0.64455 1.03343 0.93213
 H572 H 0.60795 1.01563 0.95538
 H573 H 0.55963 1.07729 0.92767
 H574 H 0.59635 1.09510 0.90444
 C575 C 0.09313 0.26798 0.12392
 C576 C 0.08075 0.28867 0.11209
 C577 C 0.09499 0.30760 0.09934
 C578 C 0.12199 0.30501 0.09810
 C579 C 0.13439 0.28422 0.10983
 C580 C 0.12012 0.26549 0.12300
 C581 C 0.08096 0.32926 0.08712
 C582 C 0.09162 0.35235 0.08285
 C583 C 0.07743 0.37433 0.07140
 C584 C 0.08626 0.39936 0.07627
 C585 C 0.07375 0.42062 0.06564
 C586 C 0.05221 0.41736 0.04959
 C587 C 0.04351 0.39226 0.04445
 C588 C 0.05598 0.37098 0.05519
 H589 H 0.08142 0.25382 0.13354
 H590 H 0.05992 0.28999 0.11309
 H591 H 0.13360 0.31875 0.08775
 H592 H 0.15517 0.28295 0.10865
 H593 H 0.06071 0.32640 0.08298
 H594 H 0.11114 0.35595 0.08926
 H595 H 0.10286 0.40249 0.08849
 H596 H 0.08114 0.43962 0.06987
 H597 H 0.02711 0.38900 0.03200
 H598 H 0.04904 0.35200 0.05030
 C599 C -0.13438 0.27785 -0.09667
 C600 C -0.12312 0.29862 -0.08394
 C601 C -0.10659 0.31541 -0.09689
 C602 C -0.10102 0.31067 -0.12282
 C603 C -0.11207 0.28966 -0.13551
 C604 C -0.12900 0.27313 -0.12259
 C605 C -0.09477 0.33691 -0.08246
 C606 C -0.08767 0.35912 -0.09331
 C607 C -0.07607 0.38058 -0.07857
 C608 C -0.07924 0.40584 -0.08739
 C609 C -0.06805 0.42648 -0.07425
 C610 C -0.05310 0.42222 -0.05221
 C611 C -0.04988 0.39688 -0.04345
 C612 C -0.06118 0.37630 -0.05648
 H613 H -0.14700 0.26527 -0.08602
 H614 H -0.12747 0.30166 -0.06389
 H615 H -0.08778 0.32283 -0.13321
 H616 H -0.10753 0.28650 -0.15548
 H617 H -0.09323 0.33478 -0.06191
 H618 H -0.09162 0.36230 -0.11339
 H619 H -0.09044 0.40961 -0.10448
 H620 H -0.07076 0.44572 -0.08164
 H621 H -0.03837 0.39285 -0.02662
 H622 H -0.05765 0.35704 -0.04954
 C623 C 0.09724 0.72708 -0.12898
 C624 C 0.08496 0.70612 -0.11768
 C625 C 0.09912 0.68795 -0.10373
 C626 C 0.12586 0.69147 -0.10078
 C627 C 0.13813 0.71261 -0.11189
 C628 C 0.12396 0.73058 -0.12621
 C629 C 0.08521 0.66632 -0.09166
 C630 C 0.09614 0.64350 -0.08671
 C631 C 0.08195 0.62207 -0.07455
 C632 C 0.08957 0.59666 -0.07959
 C633 C 0.07678 0.57604 -0.06813
 C634 C 0.05632 0.58045 -0.05106
 C635 C 0.04892 0.60593 -0.04580
 C636 C 0.06158 0.62650 -0.05737
 H637 H 0.08567 0.74073 -0.13958
 H638 H 0.06430 0.70401 -0.11996
 H639 H 0.13728 0.67824 -0.08954
 H640 H 0.15874 0.71473 -0.10941
 H641 H 0.06485 0.66902 -0.08793
 H642 H 0.11575 0.63984 -0.09280
 H643 H 0.10537 0.59277 -0.09257
 H644 H 0.08308 0.55667 -0.07250
 H645 H 0.03341 0.61009 -0.03258
 H646 H 0.05570 0.64582 -0.05236
 C647 C -0.14814 0.70797 0.11444
 C648 C -0.13783 0.68579 0.10325
 C649 C -0.11243 0.67817 0.10856
 C650 C -0.09767 0.69289 0.12579
 C651 C -0.10804 0.71494 0.13713
 C652 C -0.13338 0.72277 0.13155
 C653 C -0.10220 0.65452 0.09639
 C654 C -0.07711 0.65117 0.09118
 C655 C -0.06681 0.62799 0.07822
 C656 C -0.04422 0.63021 0.06371
 C657 C -0.03381 0.60882 0.05123
 C658 C -0.04552 0.58456 0.05338
 C659 C -0.06790 0.58222 0.06833
 C660 C -0.07849 0.60371 0.08059
 H661 H -0.16782 0.71325 0.10994
 H662 H -0.14967 0.67465 0.09024
 H663 H -0.07826 0.68720 0.13091
 H664 H -0.09610 0.72591 0.15016
 H665 H -0.11603 0.64023 0.09015
 H666 H -0.06370 0.66663 0.09507
 H667 H -0.03472 0.64863 0.06179
 H668 H -0.01647 0.61130 0.04001
 H669 H -0.07734 0.56380 0.07047
 H670 H -0.09552 0.60116 0.09222
 C671 C 1.09721 0.13199 0.72596
 C672 C 1.08501 0.12095 0.70479
 C673 C 1.09903 0.10609 0.68724
 C674 C 1.12551 0.10205 0.69149
 C675 C 1.13768 0.11295 0.71275
 C676 C 1.12369 0.12808 0.73020
 C677 C 1.08524 0.09417 0.66545
 C678 C 1.09670 0.08807 0.64328
 C679 C 1.08264 0.07595 0.62177
 C680 C 1.09102 0.08026 0.59665
 C681 C 1.07804 0.06912 0.57594
 C682 C 1.05663 0.05312 0.58004
 C683 C 1.04864 0.04838 0.60529
 C684 C 1.06150 0.05962 0.62591
 H685 H 1.08578 0.14324 0.73918
 H686 H 1.06453 0.12408 0.70208
 H687 H 1.13678 0.09008 0.67878
 H688 H 1.15810 0.10956 0.71540
 H689 H 1.06465 0.09143 0.66748
 H690 H 1.11668 0.09320 0.64019
 H691 H 1.10748 0.09251 0.59303
 H692 H 1.08483 0.07298 0.55676
 H693 H 1.03238 0.03596 0.60921
 H694 H 1.05507 0.05512 0.64506
 C695 C 0.88802 -0.14853 0.70509
 C696 C 0.89896 -0.13827 0.68293
 C697 C 0.89399 -0.11276 0.67585
 C698 C 0.87727 -0.09786 0.69100
 C699 C 0.86618 -0.10817 0.71302
 C700 C 0.87150 -0.13357 0.72039
 C701 C 0.90601 -0.10242 0.65237
 C702 C 0.91198 -0.07751 0.64969
 C703 C 0.92467 -0.06702 0.62666
 C704 C 0.94028 -0.04520 0.62926
 C705 C 0.95246 -0.03456 0.60800
 C706 C 0.94888 -0.04524 0.58351
 C707 C 0.93288 -0.06687 0.58082
 C708 C 0.92093 -0.07771 0.60218
 H709 H 0.89232 -0.16827 0.71003
 H710 H 0.91156 -0.15021 0.67139
 H711 H 0.87240 -0.07836 0.68572
 H712 H 0.85363 -0.09608 0.72439
 H713 H 0.91144 -0.11601 0.63760
 H714 H 0.90891 -0.06443 0.66555
 H715 H 0.94326 -0.03648 0.64787
 H716 H 0.96456 -0.01784 0.61076
 H717 H 0.92967 -0.07551 0.56222
 H718 H 0.90842 -0.09411 0.59940
 C719 C 1.14722 -0.11550 0.29663
 C720 C 1.13721 -0.10517 0.31923
 C721 C 1.11138 -0.10929 0.32591
 C722 C 1.09593 -0.12476 0.30998
 C723 C 1.10597 -0.13518 0.28744
 C724 C 1.13166 -0.13046 0.28037
 C725 C 1.10130 -0.09740 0.34962
 C726 C 1.07648 -0.09080 0.35250
 C727 C 1.06650 -0.07748 0.37549
 C728 C 1.04461 -0.06184 0.37301
 C729 C 1.03469 -0.04872 0.39413
 C730 C 1.04626 -0.05128 0.41834
 C731 C 1.06788 -0.06738 0.42095
 C732 C 1.07792 -0.08036 0.39975
 H733 H 1.16720 -0.11177 0.29202
 H734 H 1.14958 -0.09357 0.33133
 H735 H 1.07615 -0.12903 0.31494
 H736 H 1.09342 -0.14664 0.27545
 H737 H 1.11514 -0.09226 0.36429
 H738 H 1.06318 -0.09356 0.33674
 H739 H 1.03531 -0.05954 0.35459
 H740 H 1.01784 -0.03670 0.39149
 H741 H 1.07712 -0.06988 0.43937
 H742 H 1.09435 -0.09289 0.40252
 C743 C 0.90663 0.13397 0.27503
 C744 C 0.91892 0.12329 0.29628
 C745 C 0.90497 0.10871 0.31400
 C746 C 0.87851 0.10450 0.30980
 C747 C 0.86628 0.11495 0.28838
 C748 C 0.88019 0.12986 0.27082
 C749 C 0.91886 0.09713 0.33585
 C750 C 0.90757 0.09185 0.35826
 C751 C 0.92162 0.07972 0.37971
 C752 C 0.91387 0.08486 0.40490
 C753 C 0.92658 0.07336 0.42552
 C754 C 0.94705 0.05613 0.42129
 C755 C 0.95451 0.05070 0.39600
 C756 C 0.94196 0.06235 0.37545
 H757 H 0.91799 0.14504 0.26167
 H758 H 0.93939 0.12648 0.29892
 H759 H 0.86734 0.09270 0.32268
 H760 H 0.84589 0.11145 0.28567
 H761 H 0.93937 0.09390 0.33364
 H762 H 0.88774 0.09754 0.36149
 H763 H 0.89804 0.09794 0.40863
 H764 H 0.92019 0.07778 0.44475
 H765 H 0.96995 0.03726 0.39199
 H766 H 0.94786 0.05725 0.35625
 C767 C 0.15166 0.29758 -0.11968
 C768 C 0.14179 0.32006 -0.10881
 C769 C 0.11542 0.32571 -0.11049
 C770 C 0.09917 0.30891 -0.12414
 C771 C 0.10907 0.28648 -0.13513
 C772 C 0.13537 0.28040 -0.13276
 C773 C 0.10562 0.34934 -0.09805
 C774 C 0.08150 0.35143 -0.08915
 C775 C 0.07181 0.37450 -0.07564
 C776 C 0.05108 0.37174 -0.05870
 C777 C 0.04099 0.39304 -0.04589
 C778 C 0.05125 0.41770 -0.04998
 C779 C 0.07196 0.42051 -0.06704
 C780 C 0.08212 0.39915 -0.07979
 H781 H 0.17208 0.29377 -0.11781
 H782 H 0.15473 0.33287 -0.09867
 H783 H 0.07888 0.31310 -0.12655
 H784 H 0.09598 0.27376 -0.14513
 H785 H 0.11931 0.36465 -0.09457
 H786 H 0.06867 0.33507 -0.09037
 H787 H 0.04267 0.35300 -0.05532
 H788 H 0.02491 0.39016 -0.03303
 H789 H 0.08017 0.43925 -0.07076
 H790 H 0.09760 0.40215 -0.09329
 C791 C -0.09843 0.27779 0.12742
 C792 C -0.08667 0.29872 0.11563
 C793 C -0.10112 0.31575 0.10060
 C794 C -0.12765 0.31118 0.09720
 C795 C -0.13941 0.29005 0.10886
 C796 C -0.12492 0.27318 0.12415
 C797 C -0.08755 0.33725 0.08800
 C798 C -0.09897 0.35937 0.08136
 C799 C -0.08453 0.38068 0.06935
 C800 C -0.09231 0.40612 0.07385
 C801 C -0.07868 0.42663 0.06315
 C802 C -0.05716 0.42202 0.04745
 C803 C -0.04981 0.39647 0.04244
 C804 C -0.06334 0.37605 0.05323
 H805 H -0.08659 0.26500 0.13874
 H806 H -0.06616 0.30165 0.11831
 H807 H -0.13925 0.32353 0.08517
 H808 H -0.15985 0.28702 0.10597
 H809 H -0.06692 0.33521 0.08546
 H810 H -0.11899 0.36268 0.08624
 H811 H -0.10872 0.41015 0.08602
 H812 H -0.08501 0.44605 0.06718
 H813 H -0.03352 0.39218 0.03021
 H814 H -0.05731 0.35666 0.04866
 C815 C -0.14590 0.70678 -0.11620
 C816 C -0.13546 0.68454 -0.10541
 C817 C -0.10961 0.67790 -0.10964
 C818 C -0.09449 0.69363 -0.12550
 C819 C -0.10500 0.71579 -0.13648
 C820 C -0.13078 0.72268 -0.13184
 C821 C -0.09929 0.65420 -0.09779
 C822 C -0.07441 0.65133 -0.09140
 C823 C -0.06429 0.62811 -0.07852
 C824 C -0.04275 0.63054 -0.06246
 C825 C -0.03269 0.60915 -0.04982
 C826 C -0.04371 0.58471 -0.05334
 C827 C -0.06493 0.58215 -0.06991
 C828 C -0.07517 0.60363 -0.08235
 H829 H -0.16592 0.71129 -0.11249
 H830 H -0.14757 0.67258 -0.09349
 H831 H -0.07469 0.68870 -0.12981
 H832 H -0.09281 0.72760 -0.14841
 H833 H -0.11300 0.63940 -0.09272
 H834 H -0.06119 0.66718 -0.09409
 H835 H -0.03387 0.64913 -0.05944
 H836 H -0.01618 0.61178 -0.03739
 H837 H -0.07373 0.56356 -0.07319
 H838 H -0.09131 0.60093 -0.09522
 C839 C 0.09652 0.72562 0.13437
 C840 C 0.08415 0.70464 0.12306
 C841 C 0.09811 0.68681 0.10845
 C842 C 0.12473 0.69059 0.10495
 C843 C 0.13707 0.71174 0.11606
 C844 C 0.12311 0.72944 0.13094
 C845 C 0.08411 0.66529 0.09619
 C846 C 0.09511 0.64260 0.09076
 C847 C 0.08086 0.62133 0.07834
 C848 C 0.08829 0.59588 0.08324
 C849 C 0.07539 0.57538 0.07155
 C850 C 0.05504 0.57999 0.05436
 C851 C 0.04787 0.60553 0.04919
 C852 C 0.06061 0.62597 0.06103
 H853 H 0.08511 0.73908 0.14538
 H854 H 0.06358 0.70230 0.12578
 H855 H 0.13595 0.67761 0.09319
 H856 H 0.15756 0.71414 0.11304
 H857 H 0.06370 0.66794 0.09266
 H858 H 0.11480 0.63895 0.09666
 H859 H 0.10403 0.59185 0.09628
 H860 H 0.08155 0.55596 0.07579
 H861 H 0.03250 0.60982 0.03582
 H862 H 0.05494 0.64536 0.05612
 C863 C 0.29856 1.14873 0.87991
 C864 C 0.32096 1.13838 0.89058
 C865 C 0.32664 1.11220 0.88772
 C866 C 0.30996 1.09665 0.87315
 C867 C 0.28764 1.10705 0.86230
 C868 C 0.28157 1.13314 0.86581
 C869 C 0.35018 1.10185 0.89991
 C870 C 0.35197 1.07754 0.90810
 C871 C 0.37489 1.06741 0.92159
 C872 C 0.37171 1.04686 0.93857
 C873 C 0.39284 1.03661 0.95159
 C874 C 0.41773 1.04651 0.94763
 C875 C 0.42097 1.06693 0.93040
 C876 C 0.39978 1.07727 0.91748
 H877 H 0.29469 1.16899 0.88263
 H878 H 0.33368 1.15079 0.90147
 H879 H 0.31418 1.07653 0.86990
 H880 H 0.27500 1.09452 0.85150
 H881 H 0.36565 1.11523 0.90391
 H882 H 0.33544 1.06496 0.90643
 H883 H 0.35276 1.03880 0.94189
 H884 H 0.38966 1.02074 0.96457
 H885 H 0.43991 1.07486 0.92678
 H886 H 0.40307 1.09262 0.90396
 C887 C 0.27530 0.90291 1.13156
 C888 C 0.29597 0.91523 1.11976
 C889 C 0.31275 0.90151 1.10376
 C890 C 0.30808 0.87527 1.09920
 C891 C 0.28720 0.86298 1.11080
 C892 C 0.27071 0.87664 1.12724
 C893 C 0.33429 0.91542 1.09157
 C894 C 0.35662 0.90416 1.08515
 C895 C 0.37824 0.91856 1.07361
 C896 C 0.40360 0.91027 1.07800
 C897 C 0.42443 0.92351 1.06739
 C898 C 0.42023 0.94513 1.05185
 C899 C 0.39476 0.95318 1.04718
 C900 C 0.37400 0.94004 1.05789
 H901 H 0.26273 0.91410 1.14378
 H902 H 0.29900 0.93552 1.12333
 H903 H 0.32024 0.86429 1.08638
 H904 H 0.28414 0.84273 1.10708
 H905 H 0.33216 0.93600 1.08931
 H906 H 0.35983 0.88414 1.08983
 H907 H 0.40732 0.89364 1.08988
 H908 H 0.44379 0.91667 1.07118
 H909 H 0.39079 0.96963 1.03515
 H910 H 0.35467 0.94649 1.05342
 C911 C 0.72621 1.09720 1.13184
 C912 C 0.70570 1.08431 1.12016
 C913 C 0.68855 1.09748 1.10410
 C914 C 0.69267 1.12378 1.09942
 C915 C 0.71333 1.13663 1.11094
 C916 C 0.73026 1.12350 1.12736
 C917 C 0.66721 1.08304 1.09192
 C918 C 0.64483 1.09401 1.08511
 C919 C 0.62333 1.07948 1.07331
 C920 C 0.59803 1.08842 1.07665
 C921 C 0.57725 1.07540 1.06557
 C922 C 0.58140 1.05332 1.05056
 C923 C 0.60679 1.04454 1.04696
 C924 C 0.62754 1.05747 1.05819
 H925 H 0.73913 1.08638 1.14402
 H926 H 0.70313 1.06399 1.12382
 H927 H 0.68029 1.13439 1.08654
 H928 H 0.71594 1.15688 1.10704
 H929 H 0.66959 1.06246 1.08988
 H930 H 0.64147 1.11406 1.08957
 H931 H 0.59432 1.10548 1.08800
 H932 H 0.55797 1.08282 1.06857
 H933 H 0.61070 1.02769 1.03539
 H934 H 0.64684 1.05046 1.05454
 C935 C 0.70431 0.88362 0.84711
 C936 C 0.68185 0.89447 0.85723
 C937 C 0.67518 0.89043 0.88289
 C938 C 0.69105 0.87473 0.89811
 C939 C 0.71337 0.86371 0.88794
 C940 C 0.72034 0.86815 0.86238
 C941 C 0.65144 0.90245 0.89312
 C942 C 0.64931 0.90978 0.91760
 C943 C 0.62617 0.92266 0.92810
 C944 C 0.62921 0.93927 0.94902
 C945 C 0.60791 0.95144 0.95991
 C946 C 0.58292 0.94690 0.95043
 C947 C 0.57981 0.93010 0.92955
 C948 C 0.60124 0.91810 0.91844
 H949 H 0.70893 0.88716 0.82726
 H950 H 0.66982 0.90633 0.84508
 H951 H 0.68614 0.87067 0.91780
 H952 H 0.72528 0.85193 0.90026
 H953 H 0.63610 0.90683 0.87974
 H954 H 0.66575 0.90777 0.93024
 H955 H 0.64819 0.94296 0.95689
 H956 H 0.61107 0.96424 0.97597
 H957 H 0.56084 0.92613 0.92183
 H958 H 0.59817 0.90488 0.90272
   
