data_POSCAR
  _audit_creation_date              2014-09-24
  _audit_creation_method            'ToBaCCo'
  _symmetry_space_group_name_H-M    'P1'
  _symmetry_Int_Tables_number       1
  _symmetry_cell_setting            triclinic
  loop_
  _symmetry_equiv_pos_as_xyz
 x,y,z
_cell_length_a 56.8408
_cell_length_b 56.0266
_cell_length_c 56.8161
_cell_angle_alpha 89.988100
_cell_angle_beta 89.998900
_cell_angle_gamma 89.988300
loop_
  _atom_site_label
  _atom_site_type_symbol
  _atom_site_fract_x
  _atom_site_fract_y
  _atom_site_fract_z
C1 C 0.60724 0.62489 0.64318
 C2 C 0.58968 0.64250 0.64294
 C3 C 0.58936 0.66023 0.62539
 C4 C 0.60695 0.66011 0.60795
 C5 C 0.62462 0.64261 0.60796
 C6 C 0.62477 0.62493 0.62563
 C7 C 0.60750 0.60725 0.66071
 C8 C 0.62509 0.58948 0.66106
 C9 C 0.64253 0.58976 0.64338
 C10 C 0.64246 0.60730 0.62575
 C11 C 0.65986 0.60746 0.60823
 C12 C 0.65987 0.62502 0.59051
 C13 C 0.64212 0.64255 0.59056
 H14 H 0.57626 0.64235 0.65649
 H15 H 0.60695 0.67364 0.59432
 H16 H 0.59388 0.60748 0.67407
 H17 H 0.65626 0.57633 0.64321
 H18 H 0.67341 0.59384 0.60843
 H19 H 0.64188 0.65619 0.57704
 C20 C 0.89322 0.37491 0.14267
 C21 C 0.91074 0.35728 0.14239
 C22 C 0.91108 0.33951 0.12479
 C23 C 0.89339 0.33980 0.10736
 C24 C 0.87577 0.35734 0.10745
 C25 C 0.87566 0.37496 0.12515
 C26 C 0.89300 0.39251 0.16024
 C27 C 0.87545 0.41023 0.16058
 C28 C 0.85800 0.41012 0.14300
 C29 C 0.85800 0.39264 0.12532
 C30 C 0.84058 0.39258 0.10783
 C31 C 0.84053 0.37506 0.09007
 C32 C 0.85824 0.35750 0.09006
 H33 H 0.92411 0.35750 0.15600
 H34 H 0.89321 0.32638 0.09363
 H35 H 0.90655 0.39236 0.17365
 H36 H 0.84437 0.42365 0.14302
 H37 H 0.82707 0.40622 0.10808
 H38 H 0.85843 0.34389 0.07651
 C39 C 0.39272 0.12489 -0.14310
 C40 C 0.41029 0.14249 -0.14286
 C41 C 0.41062 0.16020 -0.12530
 C42 C 0.39303 0.16008 -0.10787
 C43 C 0.37536 0.14260 -0.10788
 C44 C 0.37519 0.12493 -0.12556
 C45 C 0.39246 0.10727 -0.16064
 C46 C 0.37486 0.08951 -0.16100
 C47 C 0.35743 0.08979 -0.14331
 C48 C 0.35750 0.10732 -0.12568
 C49 C 0.34010 0.10747 -0.10816
 C50 C 0.34010 0.12503 -0.09043
 C51 C 0.35785 0.14254 -0.09047
 H52 H 0.42371 0.14234 -0.15641
 H53 H 0.39304 0.17360 -0.09422
 H54 H 0.40608 0.10749 -0.17400
 H55 H 0.34369 0.07637 -0.14315
 H56 H 0.32655 0.09387 -0.10836
 H57 H 0.35810 0.15617 -0.07695
 C58 C 0.10668 0.87486 0.35742
 C59 C 0.08917 0.85722 0.35769
 C60 C 0.08882 0.83946 0.37530
 C61 C 0.10649 0.83975 0.39274
 C62 C 0.12411 0.85729 0.39267
 C63 C 0.12422 0.87491 0.37496
 C64 C 0.10691 0.89246 0.33985
 C65 C 0.12445 0.91018 0.33951
 C66 C 0.14188 0.91007 0.35710
 C67 C 0.14187 0.89259 0.37479
 C68 C 0.15927 0.89254 0.39230
 C69 C 0.15932 0.87502 0.41006
 C70 C 0.14162 0.85746 0.41007
 H71 H 0.07581 0.85744 0.34407
 H72 H 0.10667 0.82633 0.40649
 H73 H 0.09337 0.89230 0.32642
 H74 H 0.15551 0.92360 0.35709
 H75 H 0.17278 0.90618 0.39205
 H76 H 0.14142 0.84385 0.42363
 N77 N 0.09725 0.16275 0.11340
 N78 N 0.08774 0.15271 0.13204
 C79 C 0.06864 0.16536 0.13850
 C80 C 0.06610 0.18424 0.12307
 C81 C 0.08453 0.18208 0.10736
 H82 H 0.05739 0.16122 0.15330
 H83 H 0.08837 0.19371 0.09266
 Cu84 Cu 0.10128 0.12415 0.14606
 Cu85 Cu 0.12537 0.15006 0.09838
 Cu86 Cu 0.15048 0.09977 0.12355
 N87 N 0.11592 0.09627 0.16029
 N88 N 0.13515 0.08683 0.15141
 C89 C 0.14152 0.06788 0.16452
 C90 C 0.12543 0.06535 0.18256
 C91 C 0.10942 0.08363 0.17940
 H92 H 0.15672 0.05676 0.16121
 H93 H 0.09423 0.08738 0.19024
 N94 N 0.16340 0.11545 0.09533
 N95 N 0.15384 0.13461 0.08574
 C96 C 0.16660 0.14101 0.06678
 C97 C 0.18502 0.12513 0.06438
 C98 C 0.18250 0.10917 0.08272
 H99 H 0.16283 0.15607 0.05550
 H100 H 0.19377 0.09411 0.08652
 H101 H 0.12081 0.11505 0.10888
 H102 H 0.13903 0.13446 0.12841
 N103 N 0.40168 0.83723 0.61449
 N104 N 0.41087 0.84698 0.63343
 C105 C 0.42998 0.83434 0.63992
 C106 C 0.43284 0.81576 0.62419
 C107 C 0.41460 0.81810 0.60829
 H108 H 0.44103 0.83829 0.65491
 H109 H 0.41103 0.80672 0.59334
 Cu110 Cu 0.39692 0.87520 0.64769
 Cu111 Cu 0.37368 0.85004 0.59929
 Cu112 Cu 0.34852 0.90035 0.62443
 N113 N 0.38265 0.90342 0.66164
 N114 N 0.36372 0.91316 0.65244
 C115 C 0.35751 0.93229 0.66535
 C116 C 0.37341 0.93464 0.68359
 C117 C 0.38913 0.91605 0.68074
 H118 H 0.34256 0.94368 0.66177
 H119 H 0.40413 0.91211 0.69179
 N120 N 0.33576 0.88477 0.59608
 N121 N 0.34534 0.86562 0.58651
 C122 C 0.33265 0.85928 0.56747
 C123 C 0.31428 0.87519 0.56500
 C124 C 0.31673 0.89111 0.58338
 H125 H 0.33644 0.84422 0.55620
 H126 H 0.30546 0.90617 0.58716
 H127 H 0.37833 0.88490 0.61021
 H128 H 0.35946 0.86549 0.62910
 N129 N 0.90270 0.66272 0.38666
 N130 N 0.91220 0.65269 0.36802
 C131 C 0.93131 0.66533 0.36155
 C132 C 0.93385 0.68420 0.37699
 C133 C 0.91543 0.68204 0.39269
 H134 H 0.94255 0.66120 0.34675
 H135 H 0.91159 0.69367 0.40739
 Cu136 Cu 0.89866 0.62414 0.35400
 Cu137 Cu 0.87458 0.65004 0.40168
 Cu138 Cu 0.84946 0.59977 0.37651
 N139 N 0.88402 0.59627 0.33976
 N140 N 0.86479 0.58684 0.34865
 C141 C 0.85841 0.56790 0.33554
 C142 C 0.87450 0.56537 0.31749
 C143 C 0.89051 0.58364 0.32065
 H144 H 0.84322 0.55678 0.33885
 H145 H 0.90570 0.58739 0.30981
 N146 N 0.83655 0.61545 0.40473
 N147 N 0.84612 0.63459 0.41432
 C148 C 0.83335 0.64099 0.43329
 C149 C 0.81494 0.62512 0.43569
 C150 C 0.81746 0.60917 0.41735
 H151 H 0.83713 0.65604 0.44457
 H152 H 0.80618 0.59411 0.41355
 H153 H 0.87914 0.61503 0.39118
 H154 H 0.86092 0.63446 0.37165
 N155 N 0.59859 0.33684 -0.11471
 N156 N 0.58968 0.34628 -0.13393
 C157 C 0.57058 0.33365 -0.14041
 C158 C 0.56744 0.31537 -0.12439
 C159 C 0.58549 0.31789 -0.10831
 H160 H 0.55973 0.33740 -0.15560
 H161 H 0.58882 0.30677 -0.09311
 Cu162 Cu 0.60389 0.37416 -0.14860
 Cu163 Cu 0.62644 0.34978 -0.09940
 Cu164 Cu 0.65157 0.40006 -0.12455
 N165 N 0.61788 0.40271 -0.16216
 N166 N 0.63652 0.41275 -0.15267
 C167 C 0.64254 0.43207 -0.16541
 C168 C 0.62682 0.43424 -0.18383
 C169 C 0.61140 0.41536 -0.18127
 H170 H 0.65723 0.44370 -0.16158
 H171 H 0.59660 0.41122 -0.19250
 N172 N 0.66423 0.38461 -0.09609
 N173 N 0.65466 0.36545 -0.08651
 C174 C 0.66729 0.35918 -0.06741
 C175 C 0.68562 0.37513 -0.06491
 C176 C 0.68319 0.39101 -0.08334
 H177 H 0.66351 0.34411 -0.05613
 H178 H 0.69447 0.40607 -0.08712
 H179 H 0.62157 0.38447 -0.11085
 H180 H 0.64107 0.36505 -0.12910
 N181 N -0.03745 0.30478 0.14120
 C182 C -0.03721 0.28778 0.12426
 N183 N -0.05415 0.28797 0.10749
 N184 N -0.07084 0.30467 0.10767
 C185 C -0.07125 0.32184 0.12461
 N186 N -0.05415 0.32148 0.14137
 C187 C -0.01923 0.26980 0.12407
 C188 C -0.00413 0.25469 0.12390
 C189 C 0.01383 0.23669 0.12370
 N190 N 0.01395 0.21918 0.14018
 N191 N 0.03062 0.20246 0.13999
 C192 C 0.04773 0.20269 0.12330
 N193 N 0.04756 0.22025 0.10682
 N194 N 0.03088 0.23697 0.10702
 N195 N 0.55357 0.71262 0.60823
 C196 C 0.53663 0.71272 0.62502
 N197 N 0.53693 0.69567 0.64193
 N198 N 0.55367 0.67902 0.64205
 C199 C 0.57072 0.67879 0.62526
 N200 N 0.57030 0.69596 0.60835
 C201 C 0.51860 0.73065 0.62488
 C202 C 0.50345 0.74571 0.62476
 C203 C 0.48540 0.76361 0.62462
 N204 N 0.46857 0.76354 0.60771
 N205 N 0.45181 0.78017 0.60757
 C206 C 0.45132 0.79743 0.62434
 N207 N 0.46820 0.79745 0.64126
 N208 N 0.48497 0.78082 0.64139
 N209 N 1.03740 0.80471 0.35885
 C210 C 1.03715 0.78771 0.37580
 N211 N 1.05407 0.78790 0.39258
 N212 N 1.07075 0.80461 0.39242
 C213 C 1.07117 0.82178 0.37547
 N214 N 1.05408 0.82142 0.35869
 C215 C 1.01918 0.76972 0.37598
 C216 C 1.00409 0.75461 0.37614
 C217 C 0.98613 0.73662 0.37634
 N218 N 0.98600 0.71912 0.35986
 N219 N 0.96933 0.70241 0.36006
 C220 C 0.95223 0.70264 0.37675
 N221 N 0.95240 0.72019 0.39323
 N222 N 0.96908 0.73691 0.39303
 N223 N 0.46306 0.19560 -0.14185
 C224 C 0.46338 0.21264 -0.12494
 N225 N 0.44646 0.21255 -0.10814
 N226 N 0.42971 0.19591 -0.10826
 C227 C 0.42927 0.17875 -0.12518
 N228 N 0.44631 0.17896 -0.14197
 C229 C 0.48143 0.23054 -0.12481
 C230 C 0.49661 0.24557 -0.12471
 C231 C 0.51469 0.26344 -0.12461
 N232 N 0.53129 0.26359 -0.10747
 N233 N 0.54810 0.28016 -0.10740
 C234 C 0.54887 0.29712 -0.12445
 N235 N 0.53222 0.29692 -0.14159
 N236 N 0.51540 0.28035 -0.14166
 N237 N 0.10790 -0.05443 0.28702
 C238 C 0.12480 -0.03738 0.28670
 N239 N 0.14159 -0.03747 0.30363
 N240 N 0.14147 -0.05410 0.32039
 C241 C 0.12457 -0.07127 0.32084
 N242 N 0.10779 -0.07107 0.30379
 C243 C 0.12493 -0.01948 0.26863
 C244 C 0.12504 -0.00446 0.25344
 C245 C 0.12516 0.01341 0.23535
 N246 N 0.10811 0.03032 0.23461
 N247 N 0.10820 0.04690 0.21778
 C248 C 0.12534 0.04710 0.20114
 N249 N 0.14239 0.03014 0.20193
 N250 N 0.14230 0.01357 0.21875
 N251 N 0.60864 0.55475 -0.28747
 C252 C 0.62558 0.53774 -0.28721
 N253 N 0.64235 0.53792 -0.30415
 N254 N 0.64219 0.55463 -0.32084
 C255 C 0.62526 0.57180 -0.32127
 N256 N 0.60849 0.57145 -0.30417
 C257 C 0.62576 0.51976 -0.26923
 C258 C 0.62592 0.50465 -0.25412
 C259 C 0.62614 0.48666 -0.23614
 N260 N 0.64283 0.48695 -0.21909
 N261 N 0.64304 0.47023 -0.20241
 C262 C 0.62657 0.45268 -0.20221
 N263 N 0.60988 0.45245 -0.21931
 N264 N 0.60966 0.46916 -0.23600
 N265 N 0.35760 1.03799 0.80419
 C266 C 0.37437 1.03782 0.78725
 N267 N 0.39131 1.05482 0.78752
 N268 N 0.39146 1.07150 0.80423
 C269 C 0.37469 1.07185 0.82133
 N270 N 0.35776 1.05468 0.82089
 C271 C 0.37419 1.01986 0.76925
 C272 C 0.37405 1.00478 0.75412
 C273 C 0.37388 0.98684 0.73610
 N274 N 0.39064 0.96963 0.73568
 N275 N 0.39049 0.95297 0.71893
 C276 C 0.37357 0.95299 0.70206
 N277 N 0.35681 0.97025 0.70254
 N278 N 0.35696 0.98690 0.71928
 N279 N 0.85831 0.46259 0.19644
 C280 C 0.87511 0.46267 0.21337
 N281 N 0.89202 0.44562 0.21303
 N282 N 0.89212 0.42899 0.19628
 C283 C 0.87533 0.42878 0.17924
 N284 N 0.85843 0.44595 0.17969
 C285 C 0.87498 0.48057 0.23143
 C286 C 0.87488 0.49559 0.24661
 C287 C 0.87476 0.51345 0.26471
 N288 N 0.89181 0.53036 0.26544
 N289 N 0.89172 0.54693 0.28227
 C290 C 0.87458 0.54713 0.29892
 N291 N 0.85754 0.53017 0.29813
 N292 N 0.85763 0.51361 0.28130
 N293 N 0.30495 0.14200 -0.03820
 C294 C 0.28787 0.12513 -0.03818
 N295 N 0.28786 0.10823 -0.05523
 N296 N 0.30444 0.10820 -0.07181
 C297 C 0.32164 0.12506 -0.07196
 N298 N 0.32152 0.14197 -0.05478
 C299 C 0.27001 0.12517 -0.02032
 C300 C 0.25501 0.12518 -0.00533
 C301 C 0.23713 0.12519 0.01251
 N302 N 0.23705 0.10822 0.02953
 N303 N 0.22043 0.10821 0.04607
 C304 C 0.20336 0.12516 0.04615
 N305 N 0.20350 0.14213 0.02908
 N306 N 0.22011 0.14214 0.01253
 N307 N 0.69503 0.64201 0.53829
 C308 C 0.71210 0.62513 0.53826
 N309 N 0.71210 0.60821 0.55531
 N310 N 0.69553 0.60818 0.57189
 C311 C 0.67833 0.62506 0.57204
 N312 N 0.67846 0.64197 0.55487
 C313 C 0.72996 0.62516 0.52040
 C314 C 0.74496 0.62518 0.50541
 C315 C 0.76283 0.62518 0.48757
 N316 N 0.77985 0.64213 0.48754
 N317 N 0.79646 0.64212 0.47099
 C318 C 0.79661 0.62515 0.45392
 N319 N 0.77953 0.60820 0.45401
 N320 N 0.76292 0.60822 0.47056
 N321 N 0.80528 0.35825 0.03785
 C322 C 0.78824 0.37516 0.03787
 N323 N 0.78828 0.39204 0.05495
 N324 N 0.80487 0.39201 0.07151
 C325 C 0.82204 0.37510 0.07162
 N326 N 0.82187 0.35823 0.05442
 C327 C 0.77037 0.37520 0.02003
 C328 C 0.75537 0.37521 0.00503
 C329 C 0.73752 0.37521 -0.01283
 N330 N 0.72052 0.35824 -0.01289
 N331 N 0.70396 0.35822 -0.02950
 C332 C 0.70386 0.37517 -0.04659
 N333 N 0.72091 0.39214 -0.04647
 N334 N 0.73747 0.39216 -0.02986
 N335 N 0.21154 0.89201 0.44521
 C336 C 0.21158 0.87513 0.46230
 N337 N 0.19454 0.85822 0.46232
 N338 N 0.17796 0.85819 0.44574
 C339 C 0.17780 0.87507 0.42853
 N340 N 0.19496 0.89197 0.42864
 C341 C 0.22945 0.87516 0.48014
 C342 C 0.24445 0.87517 0.49514
 C343 C 0.26230 0.87518 0.51299
 N344 N 0.27932 0.85822 0.51306
 N345 N 0.29590 0.85823 0.52965
 C346 C 0.29600 0.87519 0.54671
 N347 N 0.27893 0.89215 0.54659
 N348 N 0.26236 0.89215 0.53001
   
