data_POSCAR
  _audit_creation_date              2014-09-24
  _audit_creation_method            'ToBaCCo'
  _symmetry_space_group_name_H-M    'P1'
  _symmetry_Int_Tables_number       1
  _symmetry_cell_setting            triclinic
  loop_
  _symmetry_equiv_pos_as_xyz
 x,y,z
_cell_length_a 50.0053
_cell_length_b 50.0047
_cell_length_c 39.9661
_cell_angle_alpha 89.965300
_cell_angle_beta 89.965200
_cell_angle_gamma 90.019000
loop_
  _atom_site_label
  _atom_site_type_symbol
  _atom_site_fract_x
  _atom_site_fract_y
  _atom_site_fract_z
O1 O -0.02593 0.30592 0.03198
 O2 O 0.02668 0.30570 -0.03306
 O3 O -0.02578 0.30579 -0.03318
 O4 O 0.02652 0.30595 0.03210
 O5 O 0.02629 0.26173 0.03212
 O6 O -0.02562 0.26156 -0.03273
 O7 O 0.02643 0.26148 -0.03261
 O8 O -0.02576 0.26169 0.03200
 Cu9 Cu 0.00038 0.31034 -0.00057
 Cu10 Cu 0.00033 0.25719 -0.00028
 C11 C -0.03486 0.28374 0.04271
 C12 C 0.03558 0.28346 -0.04355
 C13 C -0.03467 0.28355 -0.04371
 C14 C 0.03537 0.28377 0.04287
 O15 O 0.52613 0.80556 0.46730
 O16 O 0.47378 0.80562 0.53261
 O17 O 0.52624 0.80551 0.53246
 O18 O 0.47367 0.80557 0.46745
 O19 O 0.47382 0.76134 0.46769
 O20 O 0.52597 0.76129 0.53229
 O21 O 0.47391 0.76139 0.53244
 O22 O 0.52587 0.76133 0.46755
 Cu23 Cu 0.49996 0.81006 0.49995
 Cu24 Cu 0.49989 0.75691 0.50000
 C25 C 0.53497 0.78334 0.45666
 C26 C 0.46487 0.78343 0.54329
 C27 C 0.53511 0.78330 0.54309
 C28 C 0.46474 0.78337 0.45685
 O29 O 1.02711 0.69526 0.03259
 O30 O 0.97462 0.69516 -0.03251
 O31 O 1.02708 0.69526 -0.03257
 O32 O 0.97464 0.69514 0.03264
 O33 O 0.97477 0.73937 0.03241
 O34 O 1.02680 0.73948 -0.03238
 O35 O 0.97474 0.73938 -0.03233
 O36 O 1.02683 0.73948 0.03236
 Cu37 Cu 1.00087 0.69071 0.00004
 Cu38 Cu 1.00078 0.74385 0.00001
 C39 C 1.03597 0.71748 0.04321
 C40 C 0.96569 0.71735 -0.04315
 C41 C 1.03593 0.71748 -0.04323
 C42 C 0.96572 0.71733 0.04327
 O43 O 0.52605 0.19363 0.53302
 O44 O 0.47374 0.19359 0.46774
 O45 O 0.52619 0.19368 0.46787
 O46 O 0.47359 0.19360 0.53291
 O47 O 0.47376 0.23783 0.53268
 O48 O 0.52595 0.23791 0.46806
 O49 O 0.47391 0.23781 0.46794
 O50 O 0.52581 0.23786 0.53279
 Cu51 Cu 0.49989 0.18913 0.50039
 Cu52 Cu 0.49985 0.24228 0.50037
 C53 C 0.53490 0.21585 0.54366
 C54 C 0.46486 0.21579 0.45708
 C55 C 0.53508 0.21590 0.45725
 C56 C 0.46466 0.21580 0.54351
 O57 O 0.69410 0.02584 -0.03180
 O58 O 0.69431 -0.02678 0.03322
 O59 O 0.69420 0.02569 0.03335
 O60 O 0.69412 -0.02661 -0.03194
 O61 O 0.73835 -0.02634 -0.03191
 O62 O 0.73843 0.02555 0.03296
 O63 O 0.73853 -0.02650 0.03283
 O64 O 0.73833 0.02570 -0.03177
 Cu65 Cu 0.68968 -0.00047 0.00073
 Cu66 Cu 0.74284 -0.00039 0.00051
 C67 C 0.71628 0.03478 -0.04251
 C68 C 0.71655 -0.03566 0.04374
 C69 C 0.71642 0.03459 0.04391
 C70 C 0.71631 -0.03543 -0.04269
 O71 O 0.19440 0.47383 0.53312
 O72 O 0.19433 0.52619 0.46782
 O73 O 0.19445 0.47373 0.46797
 O74 O 0.19437 0.52629 0.53299
 O75 O 0.23859 0.52617 0.53276
 O76 O 0.23868 0.47402 0.46815
 O77 O 0.23856 0.52607 0.46800
 O78 O 0.23863 0.47411 0.53289
 Cu79 Cu 0.18989 0.50000 0.50048
 Cu80 Cu 0.24304 0.50010 0.50045
 C81 C 0.21662 0.46499 0.54377
 C82 C 0.21652 0.53510 0.45714
 C83 C 0.21668 0.46487 0.45734
 C84 C 0.21656 0.53524 0.54359
 O85 O 0.30465 0.97386 -0.03382
 O86 O 0.30495 1.02635 0.03127
 O87 O 0.30500 0.97390 0.03133
 O88 O 0.30463 1.02633 -0.03389
 O89 O 0.26042 1.02608 -0.03330
 O90 O 0.26078 0.97406 0.03151
 O91 O 0.26072 1.02611 0.03144
 O92 O 0.26043 0.97401 -0.03323
 Cu93 Cu 0.30930 1.00011 -0.00132
 Cu94 Cu 0.25616 1.00006 -0.00086
 C95 C 0.28239 0.96492 -0.04425
 C96 C 0.28279 1.03523 0.04209
 C97 C 0.28286 0.96500 0.04218
 C98 C 0.28237 1.03520 -0.04434
 O99 O 0.80628 0.47387 0.46717
 O100 O 0.80637 0.52619 0.53242
 O101 O 0.80626 0.47374 0.53232
 O102 O 0.80632 0.52632 0.46726
 O103 O 0.76209 0.52616 0.46753
 O104 O 0.76203 0.47399 0.53216
 O105 O 0.76214 0.52604 0.53226
 O106 O 0.76205 0.47411 0.46743
 Cu107 Cu 0.81080 0.50003 0.49979
 Cu108 Cu 0.75765 0.50008 0.49985
 C109 C 0.78406 0.46502 0.45655
 C110 C 0.78417 0.53508 0.54310
 C111 C 0.78404 0.46485 0.54296
 C112 C 0.78412 0.53525 0.45667
 C113 C 0.24283 0.20836 0.19390
 C114 C 0.21973 0.21969 0.18038
 C115 C 0.20849 0.24281 0.19397
 C116 C 0.22051 0.25518 0.22192
 C117 C 0.24402 0.24386 0.23592
 C118 C 0.25526 0.22034 0.22186
 C119 C 0.27854 0.20946 0.23612
 C120 C 0.29060 0.22147 0.26371
 C121 C 0.27980 0.24478 0.27801
 C122 C 0.25630 0.25609 0.26401
 C123 C 0.20971 0.27848 0.23622
 C124 C 0.22177 0.29049 0.26381
 C125 C 0.24506 0.27962 0.27806
 C126 C 0.25748 0.29160 0.30602
 C127 C 0.28058 0.28027 0.31955
 C128 C 0.29182 0.25715 0.30597
 H129 H 0.28763 0.19155 0.22603
 H130 H 0.30850 0.21232 0.27376
 H131 H 0.19181 0.28763 0.22617
 H132 H 0.21268 0.30841 0.27390
 H133 H 0.21032 0.21033 0.15888
 H134 H 0.28999 0.28962 0.34105
 C135 C 0.74292 0.70857 0.30557
 C136 C 0.71972 0.71974 0.31907
 C137 C 0.70839 0.74284 0.30552
 C138 C 0.72043 0.75535 0.27763
 C139 C 0.74404 0.74420 0.26367
 C140 C 0.75536 0.72069 0.27769
 C141 C 0.77874 0.70998 0.26347
 C142 C 0.79082 0.72213 0.23596
 C143 C 0.77994 0.74541 0.22169
 C144 C 0.75634 0.75657 0.23565
 C145 C 0.70956 0.77864 0.26336
 C146 C 0.72164 0.79079 0.23585
 C147 C 0.74502 0.78008 0.22163
 C148 C 0.75747 0.79219 0.19375
 C149 C 0.78067 0.78102 0.18026
 C150 C 0.79199 0.75792 0.19381
 H151 H 0.78789 0.69208 0.27354
 H152 H 0.80880 0.71310 0.22594
 H153 H 0.69158 0.78767 0.27339
 H154 H 0.71249 0.80868 0.22578
 H155 H 0.71030 0.71028 0.34051
 H156 H 0.79009 0.79049 0.15881
 C157 C 0.79187 0.24267 0.19405
 C158 C 0.78065 0.21949 0.18059
 C159 C 0.75756 0.20816 0.19420
 C160 C 0.74511 0.22019 0.22212
 C161 C 0.75632 0.24377 0.23605
 C162 C 0.77982 0.25509 0.22197
 C163 C 0.79059 0.27844 0.23617
 C164 C 0.77850 0.29050 0.26372
 C165 C 0.75522 0.27962 0.27804
 C166 C 0.74401 0.25605 0.26410
 C167 C 0.72183 0.20932 0.23644
 C168 C 0.70974 0.22138 0.26398
 C169 C 0.72050 0.24473 0.27817
 C170 C 0.70845 0.25716 0.30609
 C171 C 0.71968 0.28033 0.31956
 C172 C 0.74278 0.29164 0.30596
 H173 H 0.80848 0.28759 0.22606
 H174 H 0.78758 0.30845 0.27373
 H175 H 0.71276 0.19136 0.22643
 H176 H 0.69184 0.21223 0.27408
 H177 H 0.79007 0.21008 0.15912
 H178 H 0.71026 0.28973 0.34104
 C179 C 0.20801 0.75733 0.19367
 C180 C 0.21929 0.78047 0.18011
 C181 C 0.24243 0.79174 0.19362
 C182 C 0.25486 0.77971 0.22154
 C183 C 0.24360 0.75616 0.23558
 C184 C 0.22005 0.74490 0.22159
 C185 C 0.20924 0.72158 0.23588
 C186 C 0.22132 0.70951 0.26342
 C187 C 0.24464 0.72034 0.27766
 C188 C 0.25589 0.74388 0.26363
 C189 C 0.27817 0.79053 0.23578
 C190 C 0.29025 0.77847 0.26333
 C191 C 0.27943 0.75515 0.27762
 C192 C 0.29147 0.74272 0.30555
 C193 C 0.28020 0.71958 0.31910
 C194 C 0.25708 0.70830 0.30558
 H195 H 0.19131 0.71247 0.22584
 H196 H 0.21221 0.69158 0.27350
 H197 H 0.28728 0.80846 0.22570
 H198 H 0.30817 0.78759 0.27337
 H199 H 0.20988 0.78988 0.15864
 H200 H 0.28961 0.71017 0.34057
 C201 C 0.79181 0.24235 0.80592
 C202 C 0.78050 0.21926 0.81954
 C203 C 0.75732 0.20803 0.80609
 C204 C 0.74489 0.22007 0.77817
 C205 C 0.75620 0.24358 0.76409
 C206 C 0.77978 0.25480 0.77801
 C207 C 0.79064 0.27808 0.76369
 C208 C 0.77857 0.29017 0.73615
 C209 C 0.75521 0.27939 0.72197
 C210 C 0.74391 0.25589 0.73604
 C211 C 0.72154 0.20930 0.76398
 C212 C 0.70947 0.22138 0.73644
 C213 C 0.72033 0.24466 0.72211
 C214 C 0.70831 0.25711 0.69419
 C215 C 0.71961 0.28021 0.68059
 C216 C 0.74278 0.29145 0.69406
 H217 H 0.80860 0.28716 0.77369
 H218 H 0.78771 0.30807 0.72605
 H219 H 0.71239 0.19140 0.77409
 H220 H 0.69152 0.21230 0.72644
 H221 H 0.78991 0.20984 0.84101
 H222 H 0.71020 0.28963 0.65912
 C223 C 0.29145 0.74305 0.69457
 C224 C 0.28019 0.71988 0.68113
 C225 C 0.25703 0.70866 0.69468
 C226 C 0.24456 0.72078 0.72252
 C227 C 0.25581 0.74437 0.73642
 C228 C 0.27937 0.75558 0.72239
 C229 C 0.29017 0.77895 0.73653
 C230 C 0.27806 0.79112 0.76398
 C231 C 0.25472 0.78034 0.77827
 C232 C 0.24348 0.75675 0.76438
 C233 C 0.22123 0.71001 0.73681
 C234 C 0.20913 0.72216 0.76429
 C235 C 0.21993 0.74552 0.77843
 C236 C 0.20786 0.75804 0.80627
 C237 C 0.21910 0.78123 0.81968
 C238 C 0.24225 0.79248 0.80610
 H239 H 0.30812 0.78802 0.72645
 H240 H 0.28715 0.80908 0.77395
 H241 H 0.21213 0.69205 0.72684
 H242 H 0.19119 0.71308 0.77438
 H243 H 0.28963 0.71041 0.65972
 H244 H 0.20966 0.79070 0.84109
 C245 C 0.24185 0.20777 0.80629
 C246 C 0.21876 0.21912 0.81985
 C247 C 0.20763 0.24235 0.80638
 C248 C 0.21977 0.25479 0.77851
 C249 C 0.24327 0.24345 0.76449
 C250 C 0.25438 0.21981 0.77843
 C251 C 0.27766 0.20892 0.76417
 C252 C 0.28984 0.22100 0.73668
 C253 C 0.27917 0.24441 0.72248
 C254 C 0.25567 0.25575 0.73649
 C255 C 0.20910 0.27819 0.76431
 C256 C 0.22127 0.29027 0.73681
 C257 C 0.24455 0.27938 0.72255
 C258 C 0.25709 0.29142 0.69468
 C259 C 0.28018 0.28008 0.68114
 C260 C 0.29131 0.25685 0.69462
 H261 H 0.28666 0.19092 0.77418
 H262 H 0.30773 0.21183 0.72661
 H263 H 0.19121 0.28737 0.77438
 H264 H 0.21227 0.30827 0.72680
 H265 H 0.20927 0.20970 0.84128
 H266 H 0.28967 0.28950 0.65971
 C267 C 0.74306 0.70830 0.69401
 C268 C 0.71989 0.71952 0.68052
 C269 C 0.70859 0.74262 0.69407
 C270 C 0.72063 0.75507 0.72196
 C271 C 0.74422 0.74387 0.73591
 C272 C 0.75551 0.72036 0.72189
 C273 C 0.77887 0.70960 0.73608
 C274 C 0.79096 0.72169 0.76358
 C275 C 0.78012 0.74497 0.77787
 C276 C 0.75653 0.75618 0.76393
 C277 C 0.70979 0.77835 0.73625
 C278 C 0.72187 0.79044 0.76377
 C279 C 0.74523 0.77967 0.77796
 C280 C 0.75767 0.79172 0.80585
 C281 C 0.78085 0.78052 0.81932
 C282 C 0.79217 0.75743 0.80575
 H283 H 0.78800 0.69170 0.72600
 H284 H 0.80892 0.71263 0.77359
 H285 H 0.69183 0.78742 0.72624
 H286 H 0.71273 0.80833 0.77386
 H287 H 0.71047 0.71008 0.65908
 H288 H 0.79026 0.78995 0.84077
 C289 C 0.24771 0.12952 0.11749
 C290 C 0.27155 0.12658 0.09316
 C291 C 0.27657 0.09834 0.10696
 C292 C 0.25277 0.10101 0.13106
 C293 C 0.26687 0.14068 0.14410
 C294 C 0.27187 0.11247 0.15801
 C295 C 0.29068 0.13805 0.12002
 C296 C 0.29581 0.10940 0.13354
 C297 C 0.28053 0.07517 0.08509
 C298 C 0.28233 0.05661 0.06599
 C299 C 0.25999 0.16456 0.16349
 C300 C 0.25292 0.18442 0.17808
 H301 H 0.22786 0.13802 0.11106
 H302 H 0.27146 0.13217 0.06627
 H303 H 0.23721 0.08555 0.13539
 H304 H 0.27193 0.10695 0.18492
 H305 H 0.30620 0.15356 0.11571
 H306 H 0.31565 0.10084 0.13988
 C307 C 0.74897 0.62986 0.61706
 C308 C 0.77349 0.62655 0.59387
 C309 C 0.77757 0.59820 0.60779
 C310 C 0.75310 0.60124 0.63074
 C311 C 0.76748 0.64061 0.64461
 C312 C 0.77156 0.61229 0.65863
 C313 C 0.79197 0.63762 0.62168
 C314 C 0.79618 0.60885 0.63532
 C315 C 0.78172 0.57500 0.58605
 C316 C 0.78363 0.55644 0.56700
 C317 C 0.76041 0.66451 0.66381
 C318 C 0.75321 0.68438 0.67827
 H319 H 0.72948 0.63872 0.60971
 H320 H 0.77431 0.63219 0.56702
 H321 H 0.73716 0.58604 0.63425
 H322 H 0.77070 0.60671 0.68550
 H323 H 0.80788 0.65286 0.61820
 H324 H 0.81565 0.59992 0.64257
 C325 C 0.75155 0.87044 0.11639
 C326 C 0.72695 0.87385 0.09338
 C327 C 0.72310 0.90226 0.10718
 C328 C 0.74765 0.89912 0.12995
 C329 C 0.73308 0.85988 0.14416
 C330 C 0.72924 0.88826 0.15805
 C331 C 0.70852 0.86296 0.12141
 C332 C 0.70455 0.89180 0.13492
 C333 C 0.71902 0.92546 0.08537
 C334 C 0.71715 0.94404 0.06628
 C335 C 0.74010 0.83598 0.16345
 C336 C 0.74728 0.81611 0.17797
 H337 H 0.77095 0.86144 0.10894
 H338 H 0.72598 0.86814 0.06657
 H339 H 0.76371 0.91423 0.13325
 H340 H 0.73025 0.89390 0.18488
 H341 H 0.69250 0.84782 0.11813
 H342 H 0.68516 0.90087 0.14227
 C343 C 0.20852 0.36251 0.62258
 C344 C 0.20461 0.39132 0.63619
 C345 C 0.22319 0.40180 0.60849
 C346 C 0.22698 0.37341 0.59460
 C347 C 0.23308 0.35933 0.64532
 C348 C 0.25156 0.36991 0.61759
 C349 C 0.22930 0.38769 0.65931
 C350 C 0.24773 0.39857 0.63124
 C351 C 0.21911 0.42503 0.58674
 C352 C 0.21721 0.44361 0.56768
 C353 C 0.24001 0.33537 0.66452
 C354 C 0.24708 0.31544 0.67898
 H355 H 0.19247 0.34740 0.61926
 H356 H 0.18524 0.40042 0.64357
 H357 H 0.22599 0.36776 0.56777
 H358 H 0.27095 0.36088 0.61011
 H359 H 0.23032 0.39327 0.68616
 H360 H 0.26382 0.41363 0.63458
 C361 C 0.88847 0.26612 0.15719
 C362 C 0.89655 0.25051 0.12530
 C363 C 0.90190 0.27719 0.10740
 C364 C 0.89421 0.29295 0.13896
 C365 C 0.85953 0.26711 0.14438
 C366 C 0.86480 0.29382 0.12651
 C367 C 0.86733 0.25143 0.11279
 C368 C 0.87294 0.27816 0.09464
 C369 C 0.92512 0.28132 0.08561
 C370 C 0.94371 0.28322 0.06656
 C371 C 0.83563 0.26005 0.16368
 C372 C 0.81578 0.25285 0.17823
 H373 H 0.89458 0.26111 0.18314
 H374 H 0.90983 0.23274 0.12459
 H375 H 0.90555 0.31008 0.14946
 H376 H 0.85146 0.31155 0.12726
 H377 H 0.85606 0.23428 0.10220
 H378 H 0.86678 0.28315 0.06870
 C379 C 0.38765 0.77099 0.65898
 C380 C 0.39851 0.75250 0.63099
 C381 C 0.40172 0.77699 0.60810
 C382 C 0.39125 0.79563 0.63572
 C383 C 0.35928 0.76715 0.64504
 C384 C 0.36243 0.79166 0.62217
 C385 C 0.36984 0.74861 0.61740
 C386 C 0.37332 0.77314 0.59427
 C387 C 0.42493 0.78103 0.58631
 C388 C 0.44350 0.78289 0.56722
 C389 C 0.33534 0.76022 0.66431
 C390 C 0.31543 0.75312 0.67881
 H391 H 0.39325 0.77004 0.68582
 H392 H 0.41358 0.73644 0.63440
 H393 H 0.40035 0.81502 0.64300
 H394 H 0.34732 0.80769 0.61879
 H395 H 0.36081 0.72920 0.61003
 H396 H 0.36765 0.77406 0.56744
 C397 C 0.13669 0.70837 0.12203
 C398 C 0.10764 0.70547 0.13531
 C399 C 0.09792 0.72369 0.10683
 C400 C 0.12654 0.72648 0.09326
 C401 C 0.14027 0.73332 0.14399
 C402 C 0.13045 0.75146 0.11548
 C403 C 0.11167 0.73055 0.15765
 C404 C 0.10156 0.74863 0.12881
 C405 C 0.07476 0.71978 0.08494
 C406 C 0.05622 0.71802 0.06580
 C407 C 0.16417 0.74016 0.16336
 C408 C 0.18405 0.74723 0.17792
 H409 H 0.15141 0.69188 0.11948
 H410 H 0.09798 0.68650 0.14320
 H411 H 0.13244 0.72477 0.06656
 H412 H 0.14004 0.77044 0.10749
 H413 H 0.10584 0.73229 0.18436
 H414 H 0.08689 0.76516 0.13139
 C415 C 0.63713 0.20777 0.62298
 C416 C 0.60822 0.20443 0.63657
 C417 C 0.59806 0.22258 0.60827
 C418 C 0.62654 0.22580 0.59439
 C419 C 0.64051 0.23273 0.64498
 C420 C 0.63024 0.25079 0.61665
 C421 C 0.61205 0.22952 0.65895
 C422 C 0.60149 0.24752 0.63029
 C423 C 0.57484 0.21840 0.58657
 C424 C 0.55626 0.21644 0.56755
 C425 C 0.66444 0.23981 0.66411
 C426 C 0.68434 0.24699 0.67852
 H427 H 0.65207 0.19150 0.62021
 H428 H 0.59888 0.18531 0.64449
 H429 H 0.63227 0.22423 0.56763
 H430 H 0.63952 0.26992 0.60863
 H431 H 0.60639 0.23112 0.68573
 H432 H 0.58660 0.26383 0.63308
 C433 C 0.72974 0.14079 0.89403
 C434 C 0.70469 0.12275 0.89075
 C435 C 0.72281 0.09800 0.89277
 C436 C 0.74775 0.11574 0.89632
 C437 C 0.73291 0.14038 0.85580
 C438 C 0.75100 0.11560 0.85786
 C439 C 0.70793 0.12272 0.85211
 C440 C 0.72597 0.09751 0.85453
 C441 C 0.71869 0.07479 0.91457
 C442 C 0.71680 0.05620 0.93363
 C443 C 0.73996 0.16426 0.83648
 C444 C 0.74715 0.18411 0.82192
 H445 H 0.73137 0.15882 0.91010
 H446 H 0.68559 0.12543 0.90452
 H447 H 0.76410 0.11267 0.91470
 H448 H 0.77011 0.11290 0.84413
 H449 H 0.69164 0.12589 0.83368
 H450 H 0.72436 0.07945 0.83852
 C451 C 0.22896 0.61218 0.34132
 C452 C 0.24745 0.60131 0.36929
 C453 C 0.22298 0.59818 0.39222
 C454 C 0.20433 0.60865 0.36462
 C455 C 0.23286 0.64056 0.35519
 C456 C 0.20837 0.63748 0.37811
 C457 C 0.25141 0.62999 0.38283
 C458 C 0.22690 0.62659 0.40600
 C459 C 0.21892 0.57500 0.41407
 C460 C 0.21706 0.55645 0.43319
 C461 C 0.23982 0.66447 0.33588
 C462 C 0.24696 0.68435 0.32135
 H463 H 0.22987 0.60655 0.31448
 H464 H 0.26348 0.58621 0.36588
 H465 H 0.18492 0.59958 0.35739
 H466 H 0.19238 0.65263 0.38150
 H467 H 0.27085 0.63899 0.39015
 H468 H 0.22602 0.63229 0.43282
 C469 C 0.26943 0.88887 0.84157
 C470 C 0.25121 0.89932 0.87007
 C471 C 0.27599 0.90284 0.89235
 C472 C 0.29436 0.89279 0.86421
 C473 C 0.26628 0.86038 0.85544
 C474 C 0.29107 0.86385 0.87770
 C475 C 0.24799 0.87053 0.88362
 C476 C 0.27282 0.87432 0.90613
 C477 C 0.27997 0.92607 0.91414
 C478 C 0.28179 0.94464 0.93321
 C479 C 0.25940 0.83642 0.83620
 C480 C 0.25233 0.81649 0.82175
 H481 H 0.26798 0.89457 0.81478
 H482 H 0.23485 0.91414 0.86715
 H483 H 0.31349 0.90223 0.85648
 H484 H 0.30740 0.84899 0.88060
 H485 H 0.22885 0.86116 0.89144
 H486 H 0.27424 0.86856 0.93290
 C487 C 0.79203 0.36273 0.37736
 C488 C 0.79552 0.39162 0.36376
 C489 C 0.77730 0.40187 0.39194
 C490 C 0.77393 0.37341 0.40582
 C491 C 0.76715 0.35943 0.35521
 C492 C 0.74902 0.36978 0.38341
 C493 C 0.77051 0.38786 0.34123
 C494 C 0.75244 0.39851 0.36976
 C495 C 0.78149 0.42508 0.41363
 C496 C 0.78345 0.44365 0.43266
 C497 C 0.76007 0.33550 0.33607
 C498 C 0.75289 0.31561 0.32165
 H499 H 0.80824 0.34774 0.38024
 H500 H 0.81471 0.40089 0.35594
 H501 H 0.77537 0.36769 0.43260
 H502 H 0.72982 0.36057 0.39132
 H503 H 0.76903 0.39351 0.31443
 H504 H 0.73619 0.41345 0.36686
 C505 C 0.12861 0.24776 0.88259
 C506 C 0.12579 0.27162 0.90689
 C507 C 0.09763 0.27686 0.89299
 C508 C 0.10018 0.25304 0.86893
 C509 C 0.14000 0.26683 0.85600
 C510 C 0.11187 0.27205 0.84199
 C511 C 0.13749 0.29066 0.88004
 C512 C 0.10892 0.29602 0.86642
 C513 C 0.07444 0.28097 0.91481
 C514 C 0.05587 0.28285 0.93390
 C515 C 0.16388 0.25977 0.83669
 C516 C 0.18373 0.25256 0.82216
 H517 H 0.13693 0.22784 0.88908
 H518 H 0.13129 0.27147 0.93379
 H519 H 0.08461 0.23761 0.86457
 H520 H 0.10643 0.27217 0.81507
 H521 H 0.15311 0.30605 0.88438
 H522 H 0.10053 0.31593 0.86003
 C523 C 0.63289 0.75132 0.38669
 C524 C 0.62707 0.77810 0.40458
 C525 C 0.59811 0.77679 0.39187
 C526 C 0.60367 0.75007 0.37423
 C527 C 0.64054 0.76690 0.35495
 C528 C 0.61160 0.76558 0.34217
 C529 C 0.63506 0.79365 0.37255
 C530 C 0.60566 0.79245 0.36014
 C531 C 0.57490 0.78086 0.41365
 C532 C 0.55634 0.78276 0.43273
 C533 C 0.66448 0.75996 0.33571
 C534 C 0.68439 0.75287 0.32124
 H535 H 0.64431 0.73433 0.39744
 H536 H 0.63321 0.78328 0.43047
 H537 H 0.59053 0.73218 0.37514
 H538 H 0.60552 0.76037 0.31628
 H539 H 0.64825 0.81150 0.37161
 H540 H 0.59416 0.80943 0.34948
 C541 C 0.86205 0.73927 0.89287
 C542 C 0.87473 0.71137 0.89818
 C543 C 0.90248 0.72370 0.89215
 C544 C 0.89005 0.75151 0.88710
 C545 C 0.86004 0.73347 0.85520
 C546 C 0.88778 0.74579 0.84918
 C547 C 0.87238 0.70560 0.86015
 C548 C 0.90058 0.71785 0.85448
 C549 C 0.92570 0.71971 0.91393
 C550 C 0.94428 0.71787 0.93298
 C551 C 0.83610 0.74033 0.83594
 C552 C 0.81618 0.74739 0.82145
 H553 H 0.84598 0.74816 0.90848
 H554 H 0.86962 0.69717 0.91856
 H555 H 0.89752 0.77036 0.89839
 H556 H 0.89290 0.76001 0.82882
 H557 H 0.86482 0.68681 0.84882
 H558 H 0.91670 0.70898 0.83895
 C559 C 0.36210 0.20849 0.37901
 C560 C 0.39075 0.20355 0.36535
 C561 C 0.40181 0.22246 0.39229
 C562 C 0.37358 0.22727 0.40623
 C563 C 0.35945 0.23261 0.35541
 C564 C 0.37061 0.25142 0.38239
 C565 C 0.38765 0.22780 0.34137
 C566 C 0.39911 0.24656 0.36868
 C567 C 0.42498 0.21828 0.41407
 C568 C 0.44352 0.21635 0.43315
 C569 C 0.33558 0.23971 0.33618
 C570 C 0.31573 0.24695 0.32171
 H571 H 0.34661 0.19291 0.38301
 H572 H 0.39933 0.18380 0.35861
 H573 H 0.36801 0.22702 0.43313
 H574 H 0.36210 0.27119 0.38923
 H575 H 0.39314 0.22809 0.31446
 H576 H 0.41456 0.26218 0.36466
 C577 C 0.73604 0.86029 0.89369
 C578 C 0.75027 0.88759 0.89040
 C579 C 0.72296 0.90158 0.89242
 C580 C 0.70864 0.87454 0.89599
 C581 C 0.73315 0.85929 0.85544
 C582 C 0.70579 0.87319 0.85736
 C583 C 0.74746 0.88633 0.85190
 C584 C 0.72004 0.90068 0.85417
 C585 C 0.71879 0.92472 0.91425
 C586 C 0.71687 0.94325 0.93336
 C587 C 0.74025 0.83544 0.83616
 C588 C 0.74748 0.81561 0.82164
 H589 H 0.74270 0.84345 0.90976
 H590 H 0.76853 0.89373 0.90419
 H591 H 0.69261 0.86996 0.91436
 H592 H 0.68760 0.86696 0.84351
 H593 H 0.76351 0.89093 0.83357
 H594 H 0.71339 0.91757 0.83818
 C595 C 0.25127 0.38419 0.35740
 C596 C 0.22611 0.40212 0.35437
 C597 C 0.22331 0.40168 0.39265
 C598 C 0.24838 0.38409 0.39591
 C599 C 0.23330 0.35930 0.35569
 C600 C 0.23049 0.35893 0.39397
 C601 C 0.20819 0.37680 0.35231
 C602 C 0.20531 0.37680 0.39099
 C603 C 0.21921 0.42487 0.41444
 C604 C 0.21729 0.44345 0.43349
 C605 C 0.24027 0.33541 0.33638
 C606 C 0.24739 0.31554 0.32183
 H607 H 0.27024 0.38699 0.34339
 H608 H 0.22425 0.42015 0.33832
 H609 H 0.26488 0.38729 0.41404
 H610 H 0.23237 0.34094 0.41008
 H611 H 0.19175 0.37350 0.33412
 H612 H 0.18636 0.37403 0.40505
 C613 C 0.27050 0.14031 0.89355
 C614 C 0.25170 0.11595 0.89720
 C615 C 0.27580 0.09730 0.89230
 C616 C 0.29472 0.12137 0.88893
 C617 C 0.26585 0.13981 0.85556
 C618 C 0.29000 0.12124 0.85053
 C619 C 0.24697 0.11572 0.85899
 C620 C 0.27116 0.09673 0.85431
 C621 C 0.27986 0.07406 0.91403
 C622 C 0.28173 0.05547 0.93310
 C623 C 0.25891 0.16379 0.83640
 C624 C 0.25184 0.18374 0.82198
 H625 H 0.27015 0.15848 0.90950
 H626 H 0.23597 0.11357 0.91660
 H627 H 0.31441 0.12341 0.90148
 H628 H 0.30566 0.12373 0.83108
 H629 H 0.22726 0.11364 0.84649
 H630 H 0.27149 0.07853 0.83842
 C631 C 0.77167 0.64144 0.39317
 C632 C 0.75312 0.61685 0.39656
 C633 C 0.77748 0.59848 0.39200
 C634 C 0.79615 0.62278 0.38889
 C635 C 0.76736 0.64089 0.35512
 C636 C 0.79177 0.62260 0.35042
 C637 C 0.74874 0.61657 0.35828
 C638 C 0.77318 0.59786 0.35394
 C639 C 0.78163 0.57527 0.41377
 C640 C 0.78355 0.55667 0.43281
 C641 C 0.76030 0.66479 0.33585
 C642 C 0.75310 0.68465 0.32134
 H643 H 0.77097 0.65959 0.40912
 H644 H 0.73725 0.61429 0.41574
 H645 H 0.81570 0.62506 0.40171
 H646 H 0.80757 0.62527 0.33119
 H647 H 0.72917 0.61426 0.34551
 H648 H 0.77387 0.57968 0.33806
 C649 C 0.11127 0.73414 0.84303
 C650 C 0.10585 0.70761 0.86209
 C651 C 0.09785 0.72390 0.89311
 C652 C 0.10287 0.75028 0.87439
 C653 C 0.14018 0.73381 0.85599
 C654 C 0.13207 0.75002 0.88703
 C655 C 0.13523 0.70741 0.87468
 C656 C 0.12678 0.72359 0.90600
 C657 C 0.07469 0.71987 0.91499
 C658 C 0.05616 0.71804 0.93415
 C659 C 0.16406 0.74079 0.83665
 C660 C 0.18393 0.74793 0.82209
 H661 H 0.10517 0.73854 0.81690
 H662 H 0.09477 0.69011 0.85210
 H663 H 0.08934 0.76787 0.87448
 H664 H 0.14308 0.76753 0.89712
 H665 H 0.14881 0.68985 0.87455
 H666 H 0.13294 0.71922 0.93212
 C667 C 0.63711 0.20747 0.37713
 C668 C 0.62695 0.22518 0.40626
 C669 C 0.59835 0.22264 0.39262
 C670 C 0.60808 0.20480 0.36377
 C671 C 0.64076 0.23273 0.35570
 C672 C 0.61218 0.23020 0.34196
 C673 C 0.63092 0.25047 0.38457
 C674 C 0.60205 0.24788 0.37116
 C675 C 0.57512 0.21847 0.41438
 C676 C 0.55652 0.21652 0.43340
 C677 C 0.66466 0.23979 0.33643
 C678 C 0.68452 0.24698 0.32190
 H679 H 0.65180 0.19092 0.37935
 H680 H 0.63281 0.22309 0.43293
 H681 H 0.59839 0.18597 0.35548
 H682 H 0.60638 0.23232 0.31529
 H683 H 0.64054 0.26932 0.39296
 H684 H 0.58741 0.26446 0.36892
 C685 C 0.88801 0.27046 0.84098
 C686 C 0.89162 0.29525 0.86395
 C687 C 0.90215 0.27679 0.89173
 C688 C 0.89893 0.25216 0.86912
 C689 C 0.85966 0.26668 0.85506
 C690 C 0.87029 0.24831 0.88287
 C691 C 0.86282 0.29132 0.87765
 C692 C 0.87377 0.27298 0.90571
 C693 C 0.92538 0.28096 0.91339
 C694 C 0.94396 0.28293 0.93241
 C695 C 0.83571 0.25962 0.83596
 C696 C 0.81580 0.25245 0.82158
 H697 H 0.89357 0.26936 0.81412
 H698 H 0.90068 0.31460 0.85644
 H699 H 0.91402 0.23609 0.86582
 H700 H 0.86129 0.22893 0.89048
 H701 H 0.84769 0.30735 0.88093
 H702 H 0.86814 0.27406 0.93255
 C703 C 0.36931 0.74878 0.38343
 C704 C 0.39811 0.75200 0.36997
 C705 C 0.40156 0.77685 0.39214
 C706 C 0.37301 0.77368 0.40584
 C707 C 0.35918 0.76696 0.35514
 C708 C 0.36257 0.79183 0.37729
 C709 C 0.38770 0.77012 0.34134
 C710 C 0.39153 0.79512 0.36387
 C711 C 0.42475 0.78092 0.41394
 C712 C 0.44333 0.78281 0.43299
 C713 C 0.33529 0.75999 0.33583
 C714 C 0.31542 0.75286 0.32130
 H715 H 0.35995 0.72965 0.39132
 H716 H 0.41296 0.73565 0.36717
 H717 H 0.36720 0.77518 0.43259
 H718 H 0.34768 0.80814 0.38007
 H719 H 0.39345 0.76859 0.31458
 H720 H 0.40096 0.81424 0.35609
 C721 C 0.29047 0.86205 0.11990
 C722 C 0.27138 0.87370 0.09312
 C723 C 0.27656 0.90187 0.10702
 C724 C 0.29578 0.89063 0.13351
 C725 C 0.26668 0.85947 0.14402
 C726 C 0.27185 0.88760 0.15802
 C727 C 0.24755 0.87080 0.11749
 C728 C 0.25278 0.89924 0.13116
 C729 C 0.28060 0.92507 0.08520
 C730 C 0.28242 0.94363 0.06610
 C731 C 0.25970 0.83556 0.16332
 C732 C 0.25255 0.81568 0.17784
 H733 H 0.30590 0.84648 0.11550
 H734 H 0.27121 0.86821 0.06621
 H735 H 0.31568 0.89908 0.13984
 H736 H 0.27198 0.89302 0.18495
 H737 H 0.22764 0.86242 0.11107
 H738 H 0.23732 0.91477 0.13557
 C739 C 0.79233 0.36268 0.62276
 C740 C 0.77447 0.37301 0.59386
 C741 C 0.77730 0.40158 0.60757
 C742 C 0.79527 0.39167 0.63619
 C743 C 0.76720 0.35915 0.64446
 C744 C 0.77001 0.38769 0.65826
 C745 C 0.74932 0.36916 0.61582
 C746 C 0.75219 0.39798 0.62929
 C747 C 0.78147 0.42480 0.58583
 C748 C 0.78343 0.44341 0.56681
 C749 C 0.76014 0.33524 0.66372
 C750 C 0.75294 0.31537 0.67825
 H751 H 0.80876 0.34789 0.62032
 H752 H 0.77635 0.36720 0.56716
 H753 H 0.81423 0.40122 0.64430
 H754 H 0.76811 0.39344 0.68498
 H755 H 0.73034 0.35968 0.60762
 H756 H 0.73572 0.41273 0.63177
 C757 C 0.70856 0.13709 0.12258
 C758 C 0.72685 0.12618 0.09446
 C759 C 0.72314 0.09779 0.10845
 C760 C 0.70473 0.10828 0.13629
 C761 C 0.73325 0.14030 0.14508
 C762 C 0.72955 0.11194 0.15918
 C763 C 0.75157 0.12971 0.11721
 C764 C 0.74782 0.10106 0.13097
 C765 C 0.71897 0.07455 0.08679
 C766 C 0.71702 0.05596 0.06779
 C767 C 0.74031 0.16426 0.16417
 C768 C 0.74747 0.18417 0.17855
 H769 H 0.69249 0.15218 0.11937
 H770 H 0.72570 0.13181 0.06762
 H771 H 0.68540 0.09917 0.14388
 H772 H 0.73073 0.10638 0.18603
 H773 H 0.77091 0.13875 0.10953
 H774 H 0.76392 0.08600 0.13420
 C775 C 0.20805 0.63749 0.62294
 C776 C 0.22629 0.62696 0.59452
 C777 C 0.22301 0.59845 0.60827
 C778 C 0.20465 0.60856 0.63641
 C779 C 0.23285 0.64086 0.64522
 C780 C 0.22958 0.61237 0.65907
 C781 C 0.25111 0.63065 0.61706
 C782 C 0.24779 0.60188 0.63058
 C783 C 0.21896 0.57524 0.58649
 C784 C 0.21710 0.55665 0.56745
 C785 C 0.23979 0.66478 0.66450
 C786 C 0.24691 0.68468 0.67899
 H787 H 0.19178 0.65241 0.62003
 H788 H 0.22491 0.63275 0.56775
 H789 H 0.18549 0.59918 0.64410
 H790 H 0.23100 0.60666 0.68585
 H791 H 0.27029 0.63996 0.60927
 H792 H 0.26409 0.58700 0.63351
 C793 C 0.86970 0.75151 0.11559
 C794 C 0.89855 0.74913 0.12910
 C795 C 0.90243 0.72384 0.10783
 C796 C 0.87384 0.72617 0.09409
 C797 C 0.85991 0.73381 0.14455
 C798 C 0.86372 0.70850 0.12331
 C799 C 0.88847 0.73149 0.15839
 C800 C 0.89274 0.70605 0.13677
 C801 C 0.92569 0.71975 0.08615
 C802 C 0.94431 0.71786 0.06714
 C803 C 0.83593 0.74078 0.16370
 C804 C 0.81600 0.74789 0.17812
 H805 H 0.86000 0.77028 0.10705
 H806 H 0.91311 0.76581 0.13127
 H807 H 0.86805 0.72395 0.06742
 H808 H 0.84912 0.69186 0.12117
 H809 H 0.89420 0.73375 0.18507
 H810 H 0.90252 0.68730 0.14522
 C811 C 0.38739 0.22867 0.65900
 C812 C 0.39097 0.20390 0.63600
 C813 C 0.40141 0.22239 0.60817
 C814 C 0.39823 0.24700 0.63081
 C815 C 0.35900 0.23241 0.64508
 C816 C 0.36954 0.25081 0.61723
 C817 C 0.36213 0.20778 0.62246
 C818 C 0.37299 0.22615 0.59434
 C819 C 0.42463 0.21826 0.58640
 C820 C 0.44323 0.21636 0.56737
 C821 C 0.33510 0.23946 0.66435
 C822 C 0.31523 0.24666 0.67886
 H823 H 0.39303 0.22978 0.68583
 H824 H 0.40007 0.18456 0.64346
 H825 H 0.41330 0.26310 0.63403
 H826 H 0.36051 0.27017 0.60967
 H827 H 0.34701 0.19172 0.61926
 H828 H 0.36729 0.22507 0.56754
 C829 C 0.12960 0.24831 0.11773
 C830 C 0.10112 0.25328 0.13145
 C831 C 0.09843 0.27727 0.10765
 C832 C 0.12664 0.27234 0.09370
 C833 C 0.14082 0.26724 0.14454
 C834 C 0.13818 0.29125 0.12076
 C835 C 0.11264 0.27216 0.15860
 C836 C 0.10955 0.29630 0.13443
 C837 C 0.07526 0.28138 0.08587
 C838 C 0.05671 0.28326 0.06680
 C839 C 0.16471 0.26019 0.16377
 C840 C 0.18457 0.25299 0.17824
 H841 H 0.13807 0.22850 0.11104
 H842 H 0.08565 0.23771 0.13562
 H843 H 0.13218 0.27245 0.06680
 H844 H 0.15369 0.30678 0.11661
 H845 H 0.10718 0.27201 0.18552
 H846 H 0.10101 0.31609 0.14103
 C847 C 0.63722 0.79185 0.62280
 C848 C 0.62694 0.77390 0.59398
 C849 C 0.59836 0.77669 0.60770
 C850 C 0.60822 0.79475 0.63624
 C851 C 0.64078 0.76678 0.64459
 C852 C 0.61224 0.76955 0.65840
 C853 C 0.63082 0.74880 0.61603
 C854 C 0.60198 0.75164 0.62951
 C855 C 0.57514 0.78078 0.58594
 C856 C 0.55654 0.78270 0.56693
 C857 C 0.66471 0.75982 0.66385
 C858 C 0.68461 0.75271 0.67834
 H859 H 0.65198 0.80831 0.62029
 H860 H 0.63276 0.77572 0.56726
 H861 H 0.59864 0.81371 0.64429
 H862 H 0.60648 0.76770 0.68513
 H863 H 0.64033 0.72983 0.60788
 H864 H 0.58726 0.73514 0.63205
   
