data_POSCAR
  _audit_creation_date              2014-09-24
  _audit_creation_method            'ToBaCCo'
  _symmetry_space_group_name_H-M    'P1'
  _symmetry_Int_Tables_number       1
  _symmetry_cell_setting            triclinic
  loop_
  _symmetry_equiv_pos_as_xyz
 x,y,z
_cell_length_a 34.2184
_cell_length_b 22.0433
_cell_length_c 13.4560
_cell_angle_alpha 90.036600
_cell_angle_beta 89.952900
_cell_angle_gamma 89.965600
loop_
  _atom_site_label
  _atom_site_type_symbol
  _atom_site_fract_x
  _atom_site_fract_y
  _atom_site_fract_z
C1 C 0.65880 0.33565 0.49612
 C2 C 0.67499 0.31716 0.58703
 C3 C 0.70930 0.28170 0.58553
 C4 C 0.72974 0.26970 0.49614
 C5 C 0.71410 0.29388 0.40745
 C6 C 0.67830 0.32475 0.40657
 C7 C 0.76727 0.23327 0.49528
 C8 C 0.78241 0.20884 0.40587
 C9 C 0.81875 0.17868 0.40255
 C10 C 0.83861 0.16839 0.49228
 C11 C 0.82267 0.18721 0.58296
 C12 C 0.78834 0.22191 0.58356
 H13 H 0.63245 0.36267 0.49457
 H14 H 0.71918 0.26241 0.65451
 H15 H 0.72934 0.28924 0.33782
 H16 H 0.76632 0.21394 0.33795
 H17 H 0.86509 0.14162 0.49295
 H18 H 0.77873 0.23969 0.65409
 C19 C 0.16040 0.83956 0.50586
 C20 C 0.17724 0.82073 0.59613
 C21 C 0.21163 0.78588 0.59284
 C22 C 0.23220 0.77563 0.50333
 C23 C 0.21578 0.79906 0.41500
 C24 C 0.17954 0.82915 0.41520
 C25 C 0.27048 0.74112 0.50312
 C26 C 0.28665 0.71742 0.41464
 C27 C 0.32269 0.68680 0.41441
 C28 C 0.34190 0.67619 0.50483
 C29 C 0.32534 0.69542 0.59531
 C30 C 0.29117 0.73082 0.59237
 H31 H 0.13375 0.86592 0.50578
 H32 H 0.22140 0.76531 0.66092
 H33 H 0.23074 0.79411 0.34502
 H34 H 0.27162 0.72249 0.34486
 H35 H 0.36837 0.64939 0.50443
 H36 H 0.28161 0.75167 0.66050
 C37 C 0.33822 0.34251 -0.50658
 C38 C 0.32217 0.32187 -0.59615
 C39 C 0.28825 0.28621 -0.59418
 C40 C 0.26786 0.27499 -0.50458
 C41 C 0.28357 0.29976 -0.41623
 C42 C 0.31911 0.33159 -0.41624
 C43 C 0.23030 0.23882 -0.50359
 C44 C 0.21532 0.21381 -0.41463
 C45 C 0.17911 0.18316 -0.41172
 C46 C 0.15919 0.17332 -0.50186
 C47 C 0.17504 0.19320 -0.59225
 C48 C 0.20911 0.22833 -0.59181
 H49 H 0.36441 0.37004 -0.50759
 H50 H 0.27845 0.26738 -0.66378
 H51 H 0.26853 0.29487 -0.34635
 H52 H 0.23149 0.21895 -0.34682
 H53 H 0.13277 0.14643 -0.50312
 H54 H 0.21851 0.24721 -0.66172
 C55 C -0.15958 0.83780 -0.50368
 C56 C -0.17935 0.82807 -0.59378
 C57 C -0.21532 0.79681 -0.59157
 C58 C -0.23023 0.77136 -0.50283
 C59 C -0.20919 0.78199 -0.41429
 C60 C -0.17525 0.81740 -0.41370
 C61 C -0.26759 0.73476 -0.50241
 C62 C -0.28805 0.72325 -0.41299
 C63 C -0.32184 0.68736 -0.41165
 C64 C -0.33758 0.66657 -0.50119
 C65 C -0.31848 0.67768 -0.59119
 C66 C -0.28307 0.70988 -0.59107
 H67 H -0.13343 0.86527 -0.50203
 H68 H -0.23137 0.79167 -0.65963
 H69 H -0.21858 0.76305 -0.34440
 H70 H -0.27842 0.74196 -0.34315
 H71 H -0.36356 0.63858 -0.50036
 H72 H -0.26797 0.71491 -0.66089
 O73 O -0.05561 0.90384 0.18344
 O74 O -0.09790 0.95402 0.07966
 C75 C -0.09052 0.91778 0.15282
 O76 O 0.05338 1.11690 0.17185
 O77 O 0.09716 1.06000 0.08166
 C78 C 0.08865 1.10138 0.14683
 O79 O -0.05660 1.10924 0.17675
 O80 O -0.09842 1.05633 0.07546
 C81 C -0.09137 1.09400 0.14693
 O82 O 0.05478 0.89930 0.18026
 O83 O 0.09757 0.95492 0.08545
 C84 C 0.08987 0.91540 0.15390
 Zr85 Zr -0.00016 0.93008 0.12592
 O86 O 0.00245 0.92714 0.28298
 O87 O -0.00121 0.83442 0.11665
 Zr88 Zr -0.00099 1.08379 0.11961
 O89 O 0.00210 1.09150 0.27611
 O90 O -0.00578 1.17932 0.10802
 O91 O -0.03537 1.00679 0.14113
 O92 O 0.03304 1.00761 0.14210
 O93 O 0.05619 0.89394 -0.17249
 O94 O 0.09865 0.95203 -0.08033
 C95 C 0.09103 0.91029 -0.14568
 O96 O -0.05413 1.10690 -0.19109
 O97 O -0.09720 1.05431 -0.09265
 C98 C -0.08922 1.09223 -0.16331
 O99 O 0.05563 1.11120 -0.18309
 O100 O 0.09802 1.05754 -0.08428
 C101 C 0.09055 1.09638 -0.15397
 O102 O -0.05310 0.89699 -0.18355
 O103 O -0.09674 0.95162 -0.08967
 C104 C -0.08833 0.91206 -0.15766
 Zr105 Zr 0.00114 0.92643 -0.12509
 O106 O 0.00590 0.92169 -0.28176
 O107 O -0.00183 0.83064 -0.11651
 Zr108 Zr 0.00053 1.07979 -0.13158
 O109 O 0.00500 1.07958 -0.28850
 O110 O -0.00346 1.17566 -0.13045
 Zr111 Zr -0.05789 1.00433 -0.00474
 Zr112 Zr 0.05819 1.00569 -0.00072
 O113 O 0.03473 1.00313 -0.14524
 O114 O -0.03391 1.00246 -0.14906
 O115 O 0.03554 0.91690 0.00210
 O116 O -0.03423 1.09248 -0.00744
 O117 O -0.03349 0.91675 -0.00017
 O118 O 0.03471 1.09408 -0.00522
 H119 H 0.04992 1.00862 0.20186
 H120 H -0.05219 1.12774 -0.00887
 H121 H 0.05235 1.00226 -0.20368
 H122 H -0.05111 0.88109 0.00065
 H123 H 0.01876 1.19449 0.07809
 H124 H 0.02003 1.19141 -0.09629
 H125 H -0.01535 1.05188 -0.31421
 H126 H -0.01399 0.94932 -0.30989
 H127 H 0.01936 0.81712 -0.07165
 H128 H -0.00203 0.81965 0.18614
 H129 H -0.01611 0.95788 0.30828
 H130 H -0.01504 1.05975 0.30416
 O131 O 0.55292 0.40229 -0.19254
 O132 O 0.59663 0.45211 -0.09213
 C133 C 0.58817 0.41483 -0.16336
 O134 O 0.44582 0.61777 -0.17463
 O135 O 0.40238 0.56193 -0.08176
 C136 C 0.41070 0.60306 -0.14749
 O137 O 0.55511 0.61120 -0.18325
 O138 O 0.59771 0.55477 -0.08944
 C139 C 0.59004 0.59479 -0.15709
 O140 O 0.44323 0.40099 -0.18407
 O141 O 0.40145 0.45651 -0.08603
 C142 C 0.40847 0.41729 -0.15553
 Zr143 Zr 0.49866 0.43004 -0.13143
 O144 O 0.49799 0.42321 -0.28823
 O145 O 0.49839 0.33457 -0.11795
 Zr146 Zr 0.50029 0.58365 -0.12584
 O147 O 0.49661 0.58758 -0.28273
 O148 O 0.50500 0.67932 -0.11785
 O149 O 0.53413 0.50621 -0.14917
 O150 O 0.46563 0.50806 -0.14608
 O151 O 0.44457 0.39484 0.16919
 O152 O 0.40180 0.45384 0.07961
 C153 C 0.40958 0.41175 0.14407
 O154 O 0.55689 0.60492 0.18236
 O155 O 0.59858 0.55267 0.07949
 C156 C 0.59165 0.58943 0.15235
 O157 O 0.44653 0.61279 0.17971
 O158 O 0.40315 0.55917 0.08384
 C159 C 0.41129 0.59817 0.15273
 O160 O 0.55474 0.39848 0.17600
 O161 O 0.59751 0.45218 0.07844
 C162 C 0.58980 0.41384 0.14835
 Zr163 Zr 0.49961 0.42654 0.11912
 O164 O 0.49598 0.42043 0.27577
 O165 O 0.50258 0.33077 0.10937
 Zr166 Zr 0.50110 0.58030 0.12531
 O167 O 0.49785 0.58151 0.28237
 O168 O 0.50605 0.67605 0.12308
 Zr169 Zr 0.55790 0.50366 -0.00476
 Zr170 Zr 0.44184 0.50679 -0.00192
 O171 O 0.46667 0.50396 0.14118
 O172 O 0.53506 0.50232 0.14091
 O173 O 0.46395 0.41752 -0.00587
 O174 O 0.53475 0.59214 -0.00069
 O175 O 0.53318 0.41632 -0.00741
 O176 O 0.46584 0.59481 0.00101
 H177 H 0.44797 0.50961 -0.20429
 H178 H 0.55287 0.62719 0.00026
 H179 H 0.44954 0.50340 0.20055
 H180 H 0.55075 0.38058 -0.00853
 H181 H 0.48189 0.69454 -0.08129
 H182 H 0.48199 0.69234 0.09231
 H183 H 0.51746 0.55235 0.30744
 H184 H 0.51467 0.45013 0.30345
 H185 H 0.47984 0.31713 0.06981
 H186 H 0.49875 0.31855 -0.18674
 H187 H 0.48976 0.46310 -0.31424
 H188 H 0.51614 0.55876 -0.30964
 N189 N 0.34002 0.37970 0.15863
 N190 N 0.31725 0.35462 0.22649
 C191 C 0.33888 0.34156 0.30756
 C192 C 0.37730 0.35829 0.28956
 C193 C 0.37665 0.38242 0.19461
 H194 H 0.40185 0.35635 0.34014
 H195 H 0.33033 0.39590 0.09001
 H196 H 0.28705 0.34961 0.21891
 N197 N -0.15959 0.88408 0.16100
 N198 N -0.18439 0.85814 0.23130
 C199 C -0.16384 0.85069 0.31624
 C200 C -0.12555 0.87046 0.30044
 C201 C -0.12427 0.89074 0.20324
 H202 H -0.10141 0.87047 0.35231
 H203 H -0.16767 0.89619 0.08887
 H204 H -0.21407 0.85044 0.21906
 N205 N 0.66267 0.61118 0.16975
 N206 N 0.68642 0.63479 0.23674
 C207 C 0.66506 0.65322 0.31540
 C208 C 0.62588 0.64140 0.29687
 C209 C 0.62573 0.61462 0.20402
 H210 H 0.60110 0.64942 0.34516
 H211 H 0.67183 0.59212 0.10255
 H212 H 0.71680 0.63597 0.22961
 N213 N 0.15782 1.13455 0.16275
 N214 N 0.18027 1.15996 0.23082
 C215 C 0.15840 1.17284 0.31170
 C216 C 0.12010 1.15551 0.29333
 C217 C 0.12112 1.13137 0.19822
 H218 H 0.09543 1.15714 0.34365
 H219 H 0.16781 1.11830 0.09439
 H220 H 0.21046 1.16528 0.22347
 N221 N 0.65425 0.36849 -0.16593
 N222 N 0.67784 0.33851 -0.23479
 C223 C 0.65845 0.33685 -0.32231
 C224 C 0.62191 0.36402 -0.30956
 C225 C 0.62072 0.38331 -0.21182
 H226 H 0.59905 0.37033 -0.36403
 H227 H 0.66181 0.37736 -0.09215
 H228 H 0.70662 0.32541 -0.22065
 N229 N 0.15805 0.86697 -0.15284
 N230 N 0.18156 0.83975 -0.22494
 C231 C 0.16135 0.83869 -0.31144
 C232 C 0.12451 0.86363 -0.29502
 C233 C 0.12379 0.88056 -0.19588
 H234 H 0.10114 0.87002 -0.34811
 H235 H 0.16620 0.87516 -0.07928
 H236 H 0.21075 0.82799 -0.21331
 N237 N 0.34436 0.64879 -0.15393
 N238 N 0.32111 0.67674 -0.22568
 C239 C 0.34121 0.67717 -0.31244
 C240 C 0.37777 0.65109 -0.29650
 C241 C 0.37839 0.63409 -0.19739
 H242 H 0.40095 0.64386 -0.34990
 H243 H 0.33616 0.64077 -0.08034
 H244 H 0.29208 0.68933 -0.21364
 N245 N -0.15869 1.12432 -0.17609
 N246 N -0.18156 1.15134 -0.24152
 C247 C -0.16020 1.16569 -0.32246
 C248 C -0.12181 1.14760 -0.30695
 C249 C -0.12227 1.12134 -0.21363
 H250 H -0.09738 1.15051 -0.35785
 H251 H -0.16817 1.10727 -0.10782
 H252 H -0.21167 1.15686 -0.23244
 N253 N 0.65958 0.62682 -0.16919
 N254 N 0.68253 0.65322 -0.23521
 C255 C 0.66118 0.66710 -0.31631
 C256 C 0.62278 0.64955 -0.30035
 C257 C 0.62317 0.62393 -0.20669
 H258 H 0.59842 0.65208 -0.35143
 H259 H 0.66898 0.61005 -0.10066
 H260 H 0.71266 0.65855 -0.22651
 N261 N 0.15966 1.13004 -0.16414
 N262 N 0.18440 1.15463 -0.23593
 C263 C 0.16363 1.16160 -0.32073
 C264 C 0.12524 1.14279 -0.30328
 C265 C 0.12412 1.12374 -0.20512
 H266 H 0.10103 1.14228 -0.35492
 H267 H 0.16803 1.11799 -0.09221
 H268 H 0.21421 1.16162 -0.22462
 N269 N 0.33749 0.39579 -0.17492
 N270 N 0.31391 0.37350 -0.24349
 C271 C 0.33549 0.35552 -0.32214
 C272 C 0.37466 0.36627 -0.30186
 C273 C 0.37457 0.39187 -0.20789
 H274 H 0.39958 0.35853 -0.34983
 H275 H 0.32812 0.41456 -0.10769
 H276 H 0.28349 0.37295 -0.23735
 N277 N -0.15743 0.87830 -0.17094
 N278 N -0.18001 0.85147 -0.23727
 C279 C -0.15841 0.83806 -0.31829
 C280 C -0.12017 0.85646 -0.30188
 C281 C -0.12098 0.88199 -0.20797
 H282 H -0.09569 0.85456 -0.35276
 H283 H -0.16717 0.89493 -0.10257
 H284 H -0.21011 0.84560 -0.22880
 N285 N 0.34082 0.62270 0.17266
 N286 N 0.31747 0.64564 0.24125
 C287 C 0.33916 0.66300 0.31996
 C288 C 0.37828 0.65104 0.29954
 C289 C 0.37794 0.62541 0.20546
 H290 H 0.40325 0.65775 0.34758
 H291 H 0.33120 0.60404 0.10563
 H292 H 0.28706 0.64677 0.23514
 N293 N -0.16070 1.12656 0.15523
 N294 N -0.18586 1.15084 0.22642
 C295 C -0.16542 1.15783 0.31169
 C296 C -0.12688 1.13951 0.29521
 C297 C -0.12531 1.12052 0.19730
 H298 H -0.10279 1.13931 0.34723
 H299 H -0.16866 1.11472 0.08288
 H300 H -0.21565 1.15763 0.21445
 N301 N 0.66049 0.39104 0.16717
 N302 N 0.68391 0.36746 0.23485
 C303 C 0.66213 0.34863 0.31248
 C304 C 0.62302 0.36011 0.29248
 C305 C 0.62338 0.38720 0.19993
 H306 H 0.59800 0.35220 0.33997
 H307 H 0.67003 0.41078 0.10089
 H308 H 0.71434 0.36695 0.22910
 N309 N 0.16063 0.89289 0.17373
 N310 N 0.18424 0.87053 0.24213
 C311 C 0.16277 0.85259 0.32093
 C312 C 0.12351 0.86356 0.30075
 C313 C 0.12354 0.88921 0.20668
 H314 H 0.09862 0.85615 0.34890
 H315 H 0.17003 0.91175 0.10666
 H316 H 0.21465 0.87013 0.23583
   
