data_POSCAR
  _audit_creation_date              2014-09-24
  _audit_creation_method            'ToBaCCo'
  _symmetry_space_group_name_H-M    'P1'
  _symmetry_Int_Tables_number       1
  _symmetry_cell_setting            triclinic
  loop_
  _symmetry_equiv_pos_as_xyz
 x,y,z
_cell_length_a 15.5682
_cell_length_b 16.6788
_cell_length_c 15.9485
_cell_angle_alpha 89.666300
_cell_angle_beta 90.271600
_cell_angle_gamma 90.085200
loop_
  _atom_site_label
  _atom_site_type_symbol
  _atom_site_fract_x
  _atom_site_fract_y
  _atom_site_fract_z
C1 C 0.46207 1.01212 -0.57782
 C2 C 0.54268 0.97229 -0.57682
 C3 C 0.57806 0.94876 -0.49952
 C4 C 0.54017 0.96956 -0.42341
 C5 C 0.45959 1.00713 -0.42539
 C6 C 0.42254 1.02863 -0.50140
 H7 H 0.35710 1.05079 -0.50042
 H8 H 0.64313 0.92608 -0.49838
 C9 C -0.54686 1.42698 0.01170
 C10 C -0.45815 1.42819 -0.00930
 C11 C -0.41640 1.50276 -0.01609
 C12 C -0.45855 1.57658 -0.00634
 C13 C -0.54744 1.57632 0.01376
 C14 C -0.58855 1.50129 0.02181
 H15 H -0.65785 1.50074 0.02730
 H16 H -0.34744 1.50332 -0.02536
 C17 C 0.00492 0.42867 0.44910
 C18 C -0.00526 0.42480 0.53859
 C19 C -0.00413 0.49742 0.58398
 C20 C 0.00108 0.57412 0.54655
 C21 C -0.00172 0.57839 0.45741
 C22 C 0.00298 0.50627 0.41209
 H23 H 0.00124 0.51163 0.34438
 H24 H -0.00753 0.49392 0.65181
 O25 O -0.22300 1.00380 -0.10532
 O26 O 0.21632 0.99603 -0.11532
 O27 O -0.00532 1.10626 -0.22107
 O28 O -0.00429 0.89301 -0.21699
 O29 O 0.00302 0.79435 -0.11460
 O30 O -0.00439 1.20738 -0.12221
 O31 O 0.11126 0.99755 -0.21749
 O32 O -0.12330 0.99903 -0.21156
 Zr33 Zr -0.00385 1.00039 -0.14828
 O34 O 0.07490 0.92681 -0.07757
 O35 O -0.07902 1.07516 -0.07693
 C36 C -0.20107 1.00010 -0.18274
 C37 C 0.19027 0.99578 -0.19177
 C38 C -0.00574 1.18109 -0.19958
 C39 C 0.00019 0.81878 -0.19289
 H40 H 0.11134 1.10781 -0.11597
 O41 O 0.07467 1.07441 -0.07927
 H42 H -0.11571 0.89359 -0.10752
 O43 O -0.07807 0.92809 -0.07308
 O44 O 0.22368 1.00436 0.10241
 O45 O -0.21710 1.00125 0.11289
 O46 O 0.11987 1.20758 -0.00061
 O47 O 0.11841 0.79499 0.00306
 O48 O -0.11867 0.79504 0.00391
 O49 O -0.11831 1.20897 -0.00690
 O50 O 0.00388 1.11044 0.21624
 O51 O 0.00684 0.89828 0.21997
 O52 O 0.00540 1.20926 0.11382
 O53 O -0.00385 0.79747 0.12133
 O54 O 0.22150 1.10699 -0.00614
 O55 O -0.22045 1.10870 0.00089
 O56 O -0.22036 0.89566 0.00917
 O57 O 0.22042 0.89509 -0.00665
 O58 O 0.12442 1.01155 0.20885
 O59 O -0.11206 0.99688 0.21507
 Zr60 Zr 0.14807 1.00127 -0.00442
 Zr61 Zr -0.14807 1.00234 0.00242
 Zr62 Zr 0.00027 1.14565 -0.00330
 Zr63 Zr -0.00004 0.85828 0.00211
 Zr64 Zr 0.00404 1.00366 0.14679
 O65 O -0.07494 0.92924 0.07826
 O66 O 0.07911 1.07610 0.07200
 C67 C 0.20221 1.01025 0.17971
 C68 C -0.19126 0.99681 0.18931
 C69 C 0.19877 1.18135 -0.00168
 C70 C 0.19738 0.82076 -0.00121
 C71 C -0.19745 0.82113 0.00718
 C72 C -0.19733 1.18307 -0.00452
 C73 C 0.00576 1.18474 0.19222
 C74 C 0.00037 0.82369 0.19860
 H75 H -0.11103 1.11009 0.11116
 O76 O -0.07439 1.07630 0.07534
 H77 H 0.11639 0.89651 0.11105
 O78 O 0.07844 0.92943 0.07489
 C79 C 0.40767 0.96082 0.28952
 C80 C 0.41121 1.02194 0.34980
 C81 C 0.35035 1.08471 0.34549
 C82 C 0.28074 1.08004 0.29122
 C83 C 0.27353 1.01487 0.23759
 C84 C 0.33910 0.95761 0.23353
 H85 H 0.45249 0.91127 0.29045
 H86 H 0.35401 1.13530 0.38769
 H87 H 0.23255 1.12688 0.29123
 H88 H 0.33496 0.90834 0.18965
 C89 C -0.39394 1.04011 0.30312
 C90 C -0.40154 0.97146 0.35420
 C91 C -0.34061 0.90929 0.34592
 C92 C -0.26924 0.91932 0.29515
 C93 C -0.25942 0.99027 0.24977
 C94 C -0.32322 1.04918 0.25119
 H95 H -0.43819 1.08984 0.30808
 H96 H -0.34662 0.85397 0.38141
 H97 H -0.22247 0.87150 0.29033
 H98 H -0.31700 1.10305 0.21358
 C99 C -0.40816 1.03290 -0.29572
 C100 C -0.40858 0.96706 -0.35080
 C101 C -0.34425 0.90811 -0.34196
 C102 C -0.27508 0.92051 -0.28867
 C103 C -0.27122 0.99007 -0.24085
 C104 C -0.33977 1.04400 -0.24076
 H105 H -0.45544 1.08022 -0.30035
 H106 H -0.34517 0.85419 -0.37954
 H107 H -0.22475 0.87587 -0.28449
 H108 H -0.33840 1.09636 -0.20081
 C109 C 0.38144 0.93509 -0.31402
 C110 C 0.40226 1.00800 -0.35308
 C111 C 0.35353 1.07694 -0.33723
 C112 C 0.28104 1.07169 -0.28739
 C113 C 0.25790 0.99790 -0.25246
 C114 C 0.30951 0.93025 -0.26311
 H115 H 0.41784 0.88123 -0.32670
 H116 H 0.36913 1.13351 -0.36729
 H117 H 0.24341 1.12500 -0.27549
 H118 H 0.29334 0.87386 -0.23297
 C119 C 0.33075 1.35566 0.07323
 C120 C 0.40068 1.35717 0.01675
 C121 C 0.40733 1.29391 -0.04116
 C122 C 0.34223 1.23562 -0.04661
 C123 C 0.26907 1.24024 0.00467
 C124 C 0.26527 1.29928 0.06601
 H125 H 0.32511 1.40023 0.12206
 H126 H 0.45867 1.29255 -0.08660
 H127 H 0.34706 1.18904 -0.09341
 H128 H 0.21158 1.30160 0.10875
 C129 C 0.32780 0.64472 0.07344
 C130 C 0.39952 0.64554 0.01910
 C131 C 0.40753 0.71069 -0.03712
 C132 C 0.34225 0.76856 -0.04328
 C133 C 0.26742 0.76170 0.00545
 C134 C 0.26204 0.70065 0.06535
 H135 H 0.32102 0.59875 0.12126
 H136 H 0.46021 0.71399 -0.08098
 H137 H 0.34847 0.81677 -0.08865
 H138 H 0.20695 0.69645 0.10644
 C139 C -0.39918 0.70315 0.05845
 C140 C -0.40228 0.64907 -0.00882
 C141 C -0.33988 0.65556 -0.07223
 C142 C -0.27250 0.71039 -0.06559
 C143 C -0.26758 0.76204 0.00302
 C144 C -0.33295 0.76021 0.06356
 H145 H -0.44554 0.69895 0.10869
 H146 H -0.34104 0.61517 -0.12518
 H147 H -0.22417 0.71268 -0.11424
 H148 H -0.33091 0.80096 0.11619
 C149 C -0.40001 1.29762 0.04845
 C150 C -0.40159 1.35622 -0.01519
 C151 C -0.33782 1.35394 -0.07765
 C152 C -0.27066 1.29869 -0.07311
 C153 C -0.26759 1.24217 -0.00816
 C154 C -0.33434 1.24013 0.05094
 H155 H -0.44714 1.29840 0.09814
 H156 H -0.33769 1.39780 -0.12802
 H157 H -0.22113 1.30001 -0.12034
 H158 H -0.33373 1.19601 0.10089
 C159 C 0.05875 1.37220 0.31626
 C160 C 0.01250 1.36219 0.39240
 C161 C -0.03115 1.28868 0.40334
 C162 C -0.03273 1.23097 0.33876
 C163 C 0.00803 1.24530 0.26101
 C164 C 0.05458 1.31625 0.25141
 H165 H 0.09873 1.42446 0.30583
 H166 H -0.06900 1.27727 0.45875
 H167 H -0.06862 1.17607 0.34857
 H168 H 0.08899 1.32820 0.19389
 C169 C 0.05376 1.29426 -0.40079
 C170 C -0.01275 1.35099 -0.40718
 C171 C -0.07852 1.34820 -0.34645
 C172 C -0.07510 1.29455 -0.27850
 C173 C -0.00737 1.23998 -0.27037
 C174 C 0.05545 1.23834 -0.33393
 H175 H 0.10621 1.29552 -0.44512
 H176 H -0.13048 1.39130 -0.34905
 H177 H -0.12555 1.29568 -0.23223
 H178 H 0.10761 1.19559 -0.33011
 C179 C -0.04542 0.71175 -0.40036
 C180 C 0.00794 0.64402 -0.39417
 C181 C 0.06102 0.63677 -0.32221
 C182 C 0.05695 0.69195 -0.25637
 C183 C 0.00218 0.75826 -0.26154
 C184 C -0.04716 0.76880 -0.33541
 H185 H -0.08810 0.71918 -0.45359
 H186 H 0.10421 0.58626 -0.31553
 H187 H 0.09749 0.68323 -0.20169
 H188 H -0.08912 0.82017 -0.34186
 C189 C -0.07361 0.65410 0.34078
 C190 C -0.01023 0.65281 0.40453
 C191 C 0.05424 0.71184 0.40229
 C192 C 0.05697 0.76821 0.33599
 C193 C -0.00284 0.76491 0.26923
 C194 C -0.06911 0.70827 0.27343
 H195 H -0.12404 0.60926 0.34042
 H196 H 0.10478 0.71178 0.44917
 H197 H 0.10796 0.81246 0.33500
 H198 H -0.11743 0.70579 0.22440
   
