data_POSCAR
  _audit_creation_date              2014-09-24
  _audit_creation_method            'ToBaCCo'
  _symmetry_space_group_name_H-M    'P1'
  _symmetry_Int_Tables_number       1
  _symmetry_cell_setting            triclinic
  loop_
  _symmetry_equiv_pos_as_xyz
 x,y,z
_cell_length_a 18.0378
_cell_length_b 18.0600
_cell_length_c 16.8895
_cell_angle_alpha 88.570200
_cell_angle_beta 90.388700
_cell_angle_gamma 88.811300
loop_
  _atom_site_label
  _atom_site_type_symbol
  _atom_site_fract_x
  _atom_site_fract_y
  _atom_site_fract_z
O1 O 0.58047 0.14418 -0.01277
 O2 O 0.43810 -0.09443 -0.14515
 O3 O 0.61199 0.02120 -0.12120
 O4 O 0.34314 0.08641 -0.02856
 O5 O 0.57081 -0.09087 -0.13358
 O6 O 0.43900 0.15753 -0.02895
 O7 O 0.39497 0.01499 -0.14054
 O8 O 0.68195 0.07008 -0.00517
 C9 C 0.65146 0.13618 -0.00638
 C10 C 0.40574 -0.04147 -0.17914
 C11 C 0.60140 -0.03400 -0.16330
 C12 C 0.37016 0.14980 -0.03624
 O13 O 0.41842 0.08813 0.11085
 O14 O 0.55930 -0.13957 0.02083
 O15 O 0.62031 -0.01513 0.09064
 O16 O 0.31902 -0.06774 -0.04512
 O17 O 0.41606 -0.13620 0.00246
 O18 O 0.55902 0.07989 0.13112
 O19 O 0.36886 -0.01550 0.07239
 O20 O 0.65510 -0.08309 -0.02245
 Co21 Co 0.49924 0.10734 0.04467
 Co22 Co 0.49731 -0.10603 -0.05896
 Co23 Co 0.60887 0.00638 -0.01447
 Co24 Co 0.39046 -0.00333 -0.03301
 O25 O 0.49896 0.00274 -0.01450
 C26 C 0.37344 0.03543 0.12170
 C27 C 0.62809 -0.14004 0.00882
 C28 C 0.60472 0.02765 0.14487
 C29 C 0.34648 -0.13133 -0.01833
 O30 O -0.14662 0.42322 -0.05110
 O31 O 0.06816 0.56571 0.15546
 O32 O -0.00869 0.41434 0.14623
 O33 O -0.07738 0.65202 -0.02367
 O34 O 0.10469 0.43329 0.14275
 O35 O -0.15214 0.56101 -0.03724
 O36 O -0.03370 0.61202 0.10955
 O37 O -0.10941 0.38960 0.06523
 C38 C -0.15730 0.38895 0.01277
 C39 C 0.00773 0.59917 0.16699
 C40 C 0.05069 0.41289 0.18164
 C41 C -0.14183 0.62754 -0.02288
 O42 O -0.04853 0.57250 -0.14892
 O43 O 0.15174 0.45847 -0.00239
 O44 O -0.02087 0.34648 -0.05474
 O45 O 0.05808 0.68899 0.03228
 O46 O 0.13518 0.59458 0.01601
 O47 O -0.04011 0.43083 -0.15041
 O48 O 0.04693 0.61583 -0.08879
 O49 O 0.08736 0.36143 0.02883
 Co50 Co -0.08762 0.49796 -0.08734
 Co51 Co 0.10365 0.51188 0.07158
 Co52 Co -0.01096 0.38718 0.04427
 Co53 Co 0.00773 0.60702 0.01203
 O54 O -0.00268 0.49692 0.00711
 C55 C 0.00811 0.61179 -0.15018
 C56 C 0.14338 0.38976 -0.00382
 C57 C -0.02434 0.36542 -0.12782
 C58 C 0.12652 0.66262 0.03376
 O59 O -0.01446 -0.14969 0.44938
 O60 O 0.16128 0.04170 0.50474
 O61 O 0.07788 -0.00294 0.34626
 O62 O 0.05682 -0.11072 0.60989
 O63 O 0.10801 0.10095 0.38649
 O64 O -0.05229 -0.14294 0.58653
 O65 O 0.12525 0.00142 0.61959
 O66 O -0.02249 -0.07983 0.34537
 C67 C -0.00202 -0.13989 0.37797
 C68 C 0.17671 0.01681 0.57183
 C69 C 0.12330 0.04684 0.34587
 C70 C 0.00940 -0.15873 0.61608
 O71 O -0.14601 -0.03193 0.54950
 O72 O 0.00642 0.16699 0.47591
 O73 O -0.11421 0.04116 0.38752
 O74 O -0.00757 0.07594 0.64773
 O75 O 0.08176 0.12884 0.59263
 O76 O -0.13658 -0.07004 0.40940
 O77 O -0.07198 -0.03243 0.65077
 O78 O -0.01825 0.11970 0.36359
 Co79 Co -0.07754 -0.08727 0.49804
 Co80 Co 0.07981 0.09839 0.49034
 Co81 Co -0.01751 0.01795 0.37242
 Co82 Co 0.02403 -0.01512 0.61976
 O83 O 0.00280 0.00339 0.49535
 C84 C -0.13481 -0.01823 0.62064
 C85 C -0.02131 0.17368 0.40883
 C86 C -0.15849 -0.00883 0.38254
 C87 C 0.03300 0.12938 0.64359
 C88 C -0.30004 0.20053 -0.00992
 C89 C -0.32425 0.26937 -0.02902
 C90 C -0.27245 0.33155 -0.03287
 C91 C -0.22082 0.34009 0.02330
 H92 H -0.38110 0.27933 -0.04808
 H93 H -0.27558 0.36903 -0.08390
 H94 H -0.24165 0.19039 0.00267
 H95 H -0.22099 0.30450 0.07596
 C96 C 0.29863 0.81445 -0.00664
 C97 C 0.31564 0.74272 0.02175
 C98 C 0.25987 0.69041 0.03311
 C99 C 0.18476 0.71106 0.03928
 H100 H 0.37307 0.72497 0.02906
 H101 H 0.27610 0.63239 0.03783
 H102 H 0.24225 0.82801 -0.02488
 H103 H 0.16902 0.76823 0.04891
 C104 C 0.32059 0.21578 -0.04744
 C105 C 0.24690 0.20860 -0.05459
 C106 C 0.19024 0.26805 -0.04379
 C107 C 0.20295 0.34030 -0.03361
 H108 H 0.22492 0.15357 -0.06020
 H109 H 0.13393 0.24882 -0.03827
 H110 H 0.34444 0.26982 -0.04150
 H111 H 0.25769 0.36244 -0.04178
 C112 C -0.32374 0.79484 0.02625
 C113 C -0.25013 0.80328 0.02888
 C114 C -0.19410 0.74322 0.02587
 C115 C -0.20510 0.67773 -0.00732
 H116 H -0.22813 0.85867 0.02958
 H117 H -0.13848 0.75790 0.04323
 H118 H -0.34795 0.74059 0.03096
 H119 H -0.25991 0.66188 -0.02604
 C120 C -0.01034 -0.36879 0.24361
 C121 C 0.03628 -0.32151 0.27605
 C122 C 0.01059 -0.26904 0.33583
 C123 C 0.03067 -0.19835 0.32962
 H124 H 0.09000 -0.31295 0.24909
 H125 H -0.03085 -0.28567 0.37855
 H126 H -0.06711 -0.37098 0.26401
 H127 H 0.06601 -0.18105 0.28117
 C128 C -0.01234 0.30965 0.81173
 C129 C -0.01389 0.23708 0.82938
 C130 C -0.00854 0.17981 0.76911
 C131 C 0.02824 0.18872 0.70106
 H132 H -0.02493 0.21841 0.88954
 H133 H -0.03343 0.12708 0.78342
 H134 H -0.00722 0.32902 0.75087
 H135 H 0.05846 0.23881 0.68865
 C136 C 0.05799 0.37919 0.26153
 C137 C -0.00115 0.35214 0.29898
 C138 C 0.00792 0.29742 0.36429
 C139 C -0.04360 0.24618 0.37557
 H140 H -0.05610 0.36131 0.27364
 H141 H 0.06200 0.28996 0.39221
 H142 H 0.11323 0.36875 0.28548
 H143 H -0.09457 0.24962 0.34117
 C144 C 0.02179 -0.34822 0.78340
 C145 C 0.07651 -0.29407 0.77630
 C146 C 0.07700 -0.23803 0.71620
 C147 C 0.01831 -0.22380 0.66231
 H148 H 0.11892 -0.29188 0.82191
 H149 H 0.12199 -0.19923 0.71761
 H150 H -0.01597 -0.35585 0.73450
 H151 H -0.02867 -0.25981 0.66198
 C152 C 0.37453 -0.05269 0.75080
 C153 C 0.33484 0.00028 0.70699
 C154 C 0.27441 -0.02203 0.66312
 C155 C 0.24982 0.01788 0.59705
 H156 H 0.34914 0.05825 0.70866
 H157 H 0.24586 -0.07208 0.68077
 H158 H 0.37426 -0.10927 0.73028
 H159 H 0.28806 0.05344 0.56557
 C160 C -0.35863 0.01731 0.22303
 C161 C -0.31945 -0.04504 0.24124
 C162 C -0.26577 -0.05376 0.30775
 C163 C -0.22718 0.00272 0.33548
 H164 H -0.32325 -0.09197 0.20277
 H165 H -0.24896 -0.10990 0.32474
 H166 H -0.35948 0.06322 0.26304
 H167 H -0.23993 0.05872 0.31454
 C168 C 0.32341 0.03537 0.19021
 C169 C 0.27138 -0.01642 0.19869
 C170 C 0.21034 -0.01446 0.25645
 C171 C 0.18958 0.04577 0.29589
 H172 H 0.27096 -0.06260 0.15895
 H173 H 0.17773 -0.06403 0.26200
 H174 H 0.32677 0.08086 0.23038
 H175 H 0.22006 0.09652 0.29051
 C176 C -0.36556 -0.03840 0.75747
 C177 C -0.31295 0.00802 0.73414
 C178 C -0.26353 -0.01006 0.66808
 C179 C -0.19307 0.01035 0.67224
 H180 H -0.29862 0.05381 0.77132
 H181 H -0.28132 -0.04738 0.62272
 H182 H -0.37698 -0.08658 0.72272
 H183 H -0.17495 0.04208 0.72227
   
