data_POSCAR
  _audit_creation_date              2014-09-24
  _audit_creation_method            'ToBaCCo'
  _symmetry_space_group_name_H-M    'P1'
  _symmetry_Int_Tables_number       1
  _symmetry_cell_setting            triclinic
  loop_
  _symmetry_equiv_pos_as_xyz
 x,y,z
_cell_length_a 33.5014
_cell_length_b 33.5020
_cell_length_c 33.4337
_cell_angle_alpha 90.139500
_cell_angle_beta 90.141900
_cell_angle_gamma 89.999200
loop_
  _atom_site_label
  _atom_site_type_symbol
  _atom_site_fract_x
  _atom_site_fract_y
  _atom_site_fract_z
O1 O 0.55637 0.09982 0.00251
 O2 O 0.60025 0.04732 0.00213
 C3 C 0.59230 0.08520 0.00284
 O4 O 0.44448 -0.00360 0.10207
 O5 O 0.40041 -0.00163 0.04957
 C6 C 0.40850 -0.00325 0.08749
 O7 O 0.55599 0.00212 0.10212
 O8 O 0.59971 0.00031 0.04974
 C9 C 0.59204 0.00187 0.08778
 O10 O 0.44451 0.10016 -0.00287
 O11 O 0.40036 0.04801 0.00023
 C12 C 0.40851 0.08578 -0.00202
 Zr13 Zr 0.50016 0.07070 0.00187
 O14 O 0.49606 0.11179 0.04999
 O15 O 0.50185 0.11937 -0.03820
 Zr16 Zr 0.50017 -0.00099 0.07244
 O17 O 0.49639 0.04197 0.11879
 O18 O 0.50223 -0.04873 0.11360
 O19 O 0.53593 0.04038 0.04273
 O20 O 0.46526 0.04007 0.04231
 O21 O 0.44414 0.00223 -0.09986
 O22 O 0.40021 0.00069 -0.04747
 C23 C 0.40821 0.00214 -0.08536
 O24 O 0.55613 -0.10096 -0.00188
 O25 O 0.60014 -0.04854 -0.00018
 C26 C 0.59210 -0.08640 -0.00173
 O27 O 0.44415 -0.10106 0.00337
 O28 O 0.40009 -0.04872 0.00053
 C29 C 0.40816 -0.08656 0.00245
 O30 O 0.55607 -0.00264 -0.09940
 O31 O 0.60021 -0.00128 -0.04687
 C32 C 0.59209 -0.00254 -0.08481
 Zr33 Zr 0.49999 -0.00026 -0.07022
 O34 O 0.49560 -0.04482 -0.11504
 O35 O 0.50389 0.04446 -0.11468
 Zr36 Zr 0.50009 -0.07173 0.00074
 O37 O 0.49564 -0.11616 -0.04420
 O38 O 0.50387 -0.11621 0.04542
 Zr39 Zr 0.55960 -0.00055 0.00105
 Zr40 Zr 0.44038 -0.00046 0.00106
 O41 O 0.46530 -0.04112 -0.03999
 O42 O 0.53565 -0.04161 -0.04041
 O43 O 0.46455 0.04088 -0.03983
 O44 O 0.53507 -0.04149 0.04175
 O45 O 0.53468 0.04048 -0.03949
 O46 O 0.46433 -0.04179 0.04200
 H47 H 0.44711 0.05654 0.05889
 H48 H 0.55320 -0.05806 0.05826
 H49 H 0.44738 -0.05770 -0.05682
 H50 H 0.55267 0.05692 -0.05617
 H51 H 0.50232 -0.03639 0.14057
 H52 H 0.48477 -0.10883 0.06672
 H53 H 0.51792 -0.11199 -0.06308
 H54 H 0.51810 -0.06354 -0.11115
 H55 H 0.48147 0.06322 -0.11040
 H56 H 0.50601 0.10816 -0.06520
 H57 H 0.52212 0.11225 0.06397
 H58 H 0.51565 0.06339 0.11244
 O59 O -0.00153 0.55510 -0.10190
 O60 O -0.00101 0.59910 -0.04934
 C61 C -0.00180 0.59106 -0.08729
 O62 O -0.10082 0.44353 0.00218
 O63 O -0.04836 0.39970 0.00018
 C64 C -0.08621 0.40763 0.00192
 O65 O -0.10044 0.55546 -0.00303
 O66 O -0.04806 0.59958 -0.00155
 C67 C -0.08592 0.59147 -0.00280
 O68 O 0.00411 0.44357 -0.10189
 O69 O 0.00111 0.39974 -0.04967
 C70 C 0.00334 0.40748 -0.08765
 Zr71 Zr -0.00088 0.49920 -0.07235
 O72 O -0.04903 0.49469 -0.11337
 O73 O 0.03914 0.50102 -0.12107
 Zr74 Zr -0.07131 0.49928 -0.00084
 O75 O -0.11558 0.49471 -0.04592
 O76 O -0.11598 0.50377 0.04361
 O77 O -0.04166 0.53510 -0.04210
 O78 O -0.04112 0.46420 -0.04173
 O79 O 0.10030 0.44332 -0.00372
 O80 O 0.04798 0.39920 -0.00209
 C81 C 0.08581 0.40732 -0.00356
 O82 O 0.00296 0.55532 0.09996
 O83 O 0.00094 0.59923 0.04754
 C84 C 0.00260 0.59125 0.08544
 O85 O -0.00197 0.44327 0.09938
 O86 O -0.00049 0.39914 0.04684
 C87 C -0.00180 0.40726 0.08478
 O88 O 0.10072 0.55525 0.00123
 O89 O 0.04830 0.59914 -0.00015
 C90 C 0.08616 0.59117 0.00120
 Zr91 Zr 0.07117 0.49947 -0.00124
 O92 O 0.11596 0.49523 0.04334
 O93 O 0.11544 0.50336 -0.04615
 Zr94 Zr 0.00038 0.49943 0.07034
 O95 O 0.04523 0.49506 0.11484
 O96 O -0.04402 0.50385 0.11510
 Zr97 Zr -0.00015 0.55900 -0.00094
 Zr98 Zr 0.00010 0.43981 -0.00100
 O99 O 0.04110 0.46477 0.03975
 O100 O 0.04130 0.53518 0.04014
 O101 O 0.04086 0.46388 -0.04248
 O102 O -0.04067 0.53407 0.04002
 O103 O 0.04035 0.53399 -0.04201
 O104 O -0.04093 0.46373 0.04035
 H105 H -0.05751 0.44580 -0.05820
 H106 H -0.05720 0.55203 0.05676
 H107 H 0.05777 0.44679 0.05632
 H108 H 0.05702 0.55194 -0.05852
 H109 H -0.11098 0.48239 0.06335
 H110 H -0.06259 0.48119 0.11138
 H111 H 0.06400 0.51748 0.11082
 H112 H 0.11181 0.51746 0.06240
 H113 H 0.11146 0.48058 -0.06465
 H114 H 0.06614 0.50461 -0.10973
 H115 H -0.06316 0.52062 -0.11367
 H116 H -0.11196 0.51749 -0.06433
 O117 O 0.09980 -0.00085 0.44422
 O118 O 0.04740 -0.00055 0.40007
 C119 C 0.08527 -0.00122 0.40818
 O120 O -0.00365 -0.10026 0.55591
 O121 O -0.00196 -0.04777 0.59998
 C122 C -0.00341 -0.08566 0.59193
 O123 O 0.00125 -0.10020 0.44393
 O124 O -0.00108 -0.04794 0.39981
 C125 C 0.00063 -0.08576 0.40788
 O126 O 0.09958 0.00452 0.55605
 O127 O 0.04749 0.00075 0.60023
 C128 C 0.08525 0.00331 0.59211
 Zr129 Zr 0.07024 -0.00027 0.50012
 O130 O 0.11134 -0.04819 0.50441
 O131 O 0.11887 0.03990 0.49852
 Zr132 Zr -0.00114 -0.07080 0.50006
 O133 O 0.04342 -0.11542 0.50444
 O134 O -0.04603 -0.11510 0.49555
 O135 O 0.04002 -0.04113 0.46411
 O136 O 0.03972 -0.04051 0.53512
 O137 O 0.00183 0.10082 0.55641
 O138 O 0.00042 0.04859 0.60059
 C139 C 0.00178 0.08640 0.59248
 O140 O -0.10143 0.00303 0.44378
 O141 O -0.04918 0.00074 0.39972
 C142 C -0.08700 0.00247 0.40774
 O143 O -0.10168 -0.00168 0.55580
 O144 O -0.04925 0.00011 0.59991
 C145 C -0.08711 -0.00136 0.59184
 O146 O -0.00301 0.10114 0.44423
 O147 O -0.00174 0.04869 0.40011
 C148 C -0.00292 0.08656 0.40819
 Zr149 Zr -0.00077 0.07161 0.50011
 O150 O -0.04547 0.11607 0.50441
 O151 O 0.04383 0.11621 0.49636
 Zr152 Zr -0.07211 0.00059 0.49996
 O153 O -0.11645 0.04543 0.50430
 O154 O -0.11663 -0.04406 0.49543
 Zr155 Zr -0.00096 0.00033 0.44023
 Zr156 Zr -0.00080 0.00068 0.55985
 O157 O -0.04157 0.04143 0.53485
 O158 O -0.04204 0.04162 0.46422
 O159 O 0.04054 0.04149 0.53564
 O160 O -0.04185 -0.04032 0.46521
 O161 O 0.03996 0.04091 0.46543
 O162 O -0.04210 -0.04048 0.53584
 H163 H 0.05623 -0.05699 0.55335
 H164 H -0.05857 -0.05696 0.44726
 H165 H -0.05812 0.05812 0.55285
 H166 H 0.05646 0.05760 0.44749
 H167 H -0.06470 -0.11102 0.51805
 H168 H -0.11267 -0.06274 0.51796
 H169 H -0.11243 0.06411 0.48181
 H170 H -0.06411 0.11220 0.48174
 H171 H 0.06263 0.11198 0.51884
 H172 H 0.10761 0.06682 0.49443
 H173 H 0.11152 -0.06242 0.47844
 H174 H 0.06248 -0.11115 0.48232
 C175 C -0.34915 0.18201 0.00364
 C176 C -0.30980 0.16808 0.00376
 C177 C -0.30230 0.12698 0.00374
 C178 C -0.33410 0.09989 0.00358
 C179 C -0.37383 0.11365 0.00340
 C180 C -0.38094 0.15506 0.00348
 C181 C -0.27739 0.19626 0.00384
 C182 C -0.25112 0.22084 0.00389
 C183 C -0.22141 0.25069 0.00394
 C184 C -0.19695 0.27706 0.00396
 C185 C -0.16886 0.30955 0.00391
 C186 C -0.12776 0.30215 0.00312
 C187 C -0.10074 0.33401 0.00271
 C188 C -0.11459 0.37371 0.00307
 C189 C -0.15600 0.38073 0.00404
 C190 C -0.18287 0.34887 0.00444
 H191 H -0.35528 0.21377 0.00363
 H192 H -0.27192 0.11588 0.00381
 H193 H -0.32754 0.06823 0.00351
 H194 H -0.41107 0.16675 0.00332
 H195 H -0.11660 0.27180 0.00270
 H196 H -0.06909 0.32751 0.00197
 H197 H -0.16774 0.41084 0.00431
 H198 H -0.21464 0.35494 0.00503
 C199 C 0.34977 0.81651 0.00448
 C200 C 0.31039 0.83034 0.00369
 C201 C 0.30283 0.87142 0.00271
 C202 C 0.33458 0.89857 0.00244
 C203 C 0.37434 0.88491 0.00314
 C204 C 0.38152 0.84352 0.00422
 C205 C 0.27800 0.80211 0.00375
 C206 C 0.25170 0.77755 0.00375
 C207 C 0.22190 0.74776 0.00371
 C208 C 0.19734 0.72146 0.00361
 C209 C 0.16913 0.68905 0.00339
 C210 C 0.12803 0.69656 0.00269
 C211 C 0.10092 0.66478 0.00215
 C212 C 0.11464 0.62503 0.00228
 C213 C 0.15604 0.61790 0.00314
 C214 C 0.18302 0.64968 0.00368
 H215 H 0.35596 0.78477 0.00521
 H216 H 0.27243 0.88245 0.00208
 H217 H 0.32795 0.93020 0.00161
 H218 H 0.41167 0.83190 0.00475
 H219 H 0.11696 0.72694 0.00246
 H220 H 0.06927 0.67136 0.00151
 H221 H 0.16771 0.58776 0.00328
 H222 H 0.21477 0.64352 0.00422
 C223 C 0.30321 0.12781 -0.00307
 C224 C 0.31077 0.16888 -0.00422
 C225 C 0.35014 0.18272 -0.00502
 C226 C 0.38190 0.15571 -0.00457
 C227 C 0.37472 0.11433 -0.00328
 C228 C 0.33495 0.10067 -0.00261
 C229 C 0.27836 0.19708 -0.00442
 C230 C 0.25199 0.22157 -0.00458
 C231 C 0.22209 0.25124 -0.00475
 C232 C 0.19743 0.27743 -0.00488
 C233 C 0.16910 0.30973 -0.00498
 C234 C 0.18285 0.34914 -0.00571
 C235 C 0.15576 0.38082 -0.00549
 C236 C 0.11439 0.37355 -0.00450
 C237 C 0.10081 0.33376 -0.00394
 C238 C 0.12804 0.30207 -0.00416
 H239 H 0.27282 0.11678 -0.00241
 H240 H 0.35633 0.21445 -0.00587
 H241 H 0.41206 0.16732 -0.00504
 H242 H 0.32832 0.06905 -0.00158
 H243 H 0.21457 0.35541 -0.00633
 H244 H 0.16732 0.41100 -0.00592
 H245 H 0.06920 0.32706 -0.00317
 H246 H 0.11708 0.27165 -0.00358
 C247 C -0.34952 0.81670 -0.00419
 C248 C -0.31014 0.83055 -0.00371
 C249 C -0.30257 0.87164 -0.00296
 C250 C -0.33432 0.89879 -0.00253
 C251 C -0.37408 0.88510 -0.00283
 C252 C -0.38126 0.84371 -0.00377
 C253 C -0.27777 0.80231 -0.00381
 C254 C -0.25152 0.77772 -0.00383
 C255 C -0.22178 0.74790 -0.00384
 C256 C -0.19725 0.72158 -0.00383
 C257 C -0.16903 0.68919 -0.00382
 C258 C -0.12795 0.69677 -0.00316
 C259 C -0.10080 0.66503 -0.00300
 C260 C -0.11446 0.62527 -0.00348
 C261 C -0.15586 0.61807 -0.00423
 C262 C -0.18288 0.64981 -0.00439
 H263 H -0.35571 0.78496 -0.00476
 H264 H -0.27218 0.88267 -0.00258
 H265 H -0.32770 0.93042 -0.00183
 H266 H -0.41141 0.83207 -0.00401
 H267 H -0.11692 0.72717 -0.00270
 H268 H -0.06916 0.67167 -0.00240
 H269 H -0.16747 0.58791 -0.00457
 H270 H -0.21462 0.64361 -0.00487
 C271 C 0.00336 -0.30331 0.12741
 C272 C 0.00404 -0.31073 0.16858
 C273 C 0.00464 -0.35005 0.18251
 C274 C 0.00441 -0.38190 0.15548
 C275 C 0.00355 -0.37486 0.11400
 C276 C 0.00313 -0.33515 0.10024
 C277 C 0.00388 -0.27824 0.19681
 C278 C 0.00366 -0.25186 0.22136
 C279 C 0.00335 -0.22196 0.25115
 C280 C 0.00305 -0.19732 0.27747
 C281 C 0.00265 -0.16903 0.30991
 C282 C 0.00312 -0.18280 0.34936
 C283 C 0.00258 -0.15573 0.38118
 C284 C 0.00152 -0.11435 0.37399
 C285 C 0.00113 -0.10076 0.33415
 C286 C 0.00168 -0.12797 0.30233
 H287 H 0.00288 -0.27295 0.11631
 H288 H 0.00514 -0.35613 0.21433
 H289 H 0.00473 -0.41202 0.16716
 H290 H 0.00246 -0.32863 0.06854
 H291 H 0.00385 -0.21453 0.35555
 H292 H 0.00290 -0.16729 0.41139
 H293 H 0.00035 -0.06914 0.32752
 H294 H 0.00131 -0.11699 0.27187
 C295 C 0.00668 0.35130 0.81758
 C296 C 0.00527 0.31203 0.83147
 C297 C 0.00378 0.30467 0.87258
 C298 C 0.00346 0.33649 0.89978
 C299 C 0.00454 0.37648 0.88625
 C300 C 0.00638 0.38321 0.84454
 C301 C 0.00503 0.27951 0.80323
 C302 C 0.00474 0.25308 0.77869
 C303 C 0.00437 0.22311 0.74894
 C304 C 0.00405 0.19838 0.72268
 C305 C 0.00369 0.16996 0.69030
 C306 C 0.00263 0.12891 0.69797
 C307 C 0.00218 0.10159 0.66622
 C308 C 0.00277 0.11507 0.62633
 C309 C 0.00391 0.15642 0.61906
 C310 C 0.00436 0.18359 0.65080
 H311 H 0.00783 0.35732 0.78577
 H312 H 0.00270 0.27432 0.88366
 H313 H 0.00212 0.32949 0.93138
 H314 H 0.00731 0.41314 0.83237
 H315 H 0.00206 0.11804 0.72845
 H316 H 0.00125 0.06999 0.67295
 H317 H 0.00434 0.16789 0.58882
 H318 H 0.00514 0.21529 0.64451
 C319 C -0.00278 0.30205 0.12696
 C320 C -0.00348 0.30977 0.16812
 C321 C -0.00392 0.34920 0.18194
 C322 C -0.00354 0.38084 0.15484
 C323 C -0.00270 0.37352 0.11337
 C324 C -0.00240 0.33371 0.09971
 C325 C -0.00361 0.27751 0.19647
 C326 C -0.00369 0.25137 0.22117
 C327 C -0.00376 0.22177 0.25114
 C328 C -0.00381 0.19737 0.27758
 C329 C -0.00386 0.16930 0.31010
 C330 C -0.00441 0.18331 0.34954
 C331 C -0.00430 0.15642 0.38140
 C332 C -0.00362 0.11499 0.37428
 C333 C -0.00320 0.10116 0.33445
 C334 C -0.00331 0.12818 0.30260
 H335 H -0.00244 0.27162 0.11594
 H336 H -0.00446 0.35551 0.21374
 H337 H -0.00379 0.41103 0.16646
 H338 H -0.00177 0.32697 0.06802
 H339 H -0.00482 0.21508 0.35568
 H340 H -0.00460 0.16816 0.41160
 H341 H -0.00264 0.06950 0.32785
 H342 H -0.00287 0.11702 0.27216
 C343 C -0.00280 -0.30351 0.87119
 C344 C -0.00285 -0.31093 0.82997
 C345 C -0.00274 -0.35026 0.81586
 C346 C -0.00251 -0.38212 0.84274
 C347 C -0.00238 -0.37507 0.88426
 C348 C -0.00257 -0.33535 0.89820
 C349 C -0.00302 -0.27841 0.80192
 C350 C -0.00317 -0.25195 0.77756
 C351 C -0.00339 -0.22192 0.74802
 C352 C -0.00361 -0.19717 0.72191
 C353 C -0.00392 -0.16882 0.68963
 C354 C -0.00482 -0.18259 0.65012
 C355 C -0.00490 -0.15554 0.61843
 C356 C -0.00410 -0.11415 0.62577
 C357 C -0.00335 -0.10053 0.66566
 C358 C -0.00328 -0.12774 0.69738
 H359 H -0.00289 -0.27316 0.88244
 H360 H -0.00278 -0.35634 0.78401
 H361 H -0.00236 -0.41224 0.83093
 H362 H -0.00248 -0.32882 0.92994
 H363 H -0.00531 -0.21433 0.64378
 H364 H -0.00541 -0.16714 0.58817
 H365 H -0.00267 -0.06890 0.67241
 H366 H -0.00259 -0.11676 0.72788
 C367 C 0.34964 0.00467 0.81752
 C368 C 0.31030 0.00408 0.83138
 C369 C 0.30282 0.00316 0.87254
 C370 C 0.33462 0.00273 0.89974
 C371 C 0.37435 0.00319 0.88605
 C372 C 0.38145 0.00424 0.84458
 C373 C 0.27786 0.00428 0.80310
 C374 C 0.25150 0.00443 0.77851
 C375 C 0.22162 0.00459 0.74870
 C376 C 0.19698 0.00473 0.72238
 C377 C 0.16864 0.00484 0.68997
 C378 C 0.12760 0.00370 0.69759
 C379 C 0.10034 0.00347 0.66580
 C380 C 0.11388 0.00437 0.62596
 C381 C 0.15523 0.00569 0.61873
 C382 C 0.18235 0.00590 0.65051
 H383 H 0.35576 0.00537 0.78571
 H384 H 0.27245 0.00268 0.88358
 H385 H 0.32806 0.00191 0.93144
 H386 H 0.41158 0.00460 0.83295
 H387 H 0.11668 0.00285 0.72805
 H388 H 0.06874 0.00244 0.67247
 H389 H 0.16674 0.00634 0.58850
 H390 H 0.21406 0.00675 0.64429
 C391 C -0.35166 0.00465 0.18251
 C392 C -0.31240 0.00393 0.16854
 C393 C -0.30509 0.00288 0.12740
 C394 C -0.33695 0.00240 0.10024
 C395 C -0.37693 0.00290 0.11385
 C396 C -0.38361 0.00418 0.15560
 C397 C -0.27984 0.00405 0.19674
 C398 C -0.25340 0.00408 0.22128
 C399 C -0.22344 0.00406 0.25104
 C400 C -0.19875 0.00402 0.27734
 C401 C -0.17040 0.00394 0.30978
 C402 C -0.12933 0.00312 0.30219
 C403 C -0.10209 0.00281 0.33401
 C404 C -0.11563 0.00330 0.37386
 C405 C -0.15701 0.00423 0.38106
 C406 C -0.18412 0.00453 0.34925
 H407 H -0.35765 0.00547 0.21434
 H408 H -0.27475 0.00233 0.11627
 H409 H -0.32999 0.00148 0.06861
 H410 H -0.41353 0.00465 0.16782
 H411 H -0.11837 0.00264 0.27174
 H412 H -0.07047 0.00209 0.32738
 H413 H -0.16858 0.00459 0.41128
 H414 H -0.21585 0.00513 0.35547
 C415 C 0.30310 -0.00326 0.12902
 C416 C 0.31053 -0.00406 0.17022
 C417 C 0.34986 -0.00499 0.18432
 C418 C 0.38170 -0.00499 0.15744
 C419 C 0.37465 -0.00405 0.11593
 C420 C 0.33493 -0.00326 0.10201
 C421 C 0.27802 -0.00376 0.19827
 C422 C 0.25156 -0.00349 0.22262
 C423 C 0.22154 -0.00317 0.25215
 C424 C 0.19682 -0.00291 0.27828
 C425 C 0.16849 -0.00260 0.31056
 C426 C 0.18227 -0.00243 0.35007
 C427 C 0.15521 -0.00207 0.38176
 C428 C 0.11382 -0.00187 0.37439
 C429 C 0.10020 -0.00210 0.33449
 C430 C 0.12741 -0.00246 0.30279
 H431 H 0.27275 -0.00251 0.11779
 H432 H 0.35593 -0.00559 0.21617
 H433 H 0.41183 -0.00556 0.16923
 H434 H 0.32839 -0.00248 0.07028
 H435 H 0.21400 -0.00253 0.35642
 H436 H 0.16679 -0.00190 0.41202
 H437 H 0.06856 -0.00196 0.32772
 H438 H 0.11644 -0.00259 0.27228
 C439 C -0.34981 -0.00431 0.81802
 C440 C -0.31038 -0.00384 0.83186
 C441 C -0.30269 -0.00329 0.87303
 C442 C -0.33435 -0.00307 0.90027
 C443 C -0.37416 -0.00338 0.88659
 C444 C -0.38147 -0.00410 0.84511
 C445 C -0.27811 -0.00373 0.80351
 C446 C -0.25195 -0.00359 0.77881
 C447 C -0.22233 -0.00338 0.74886
 C448 C -0.19792 -0.00318 0.72242
 C449 C -0.16985 -0.00295 0.68990
 C450 C -0.12873 -0.00212 0.69741
 C451 C -0.10172 -0.00175 0.66555
 C452 C -0.11555 -0.00218 0.62573
 C453 C -0.15697 -0.00310 0.61859
 C454 C -0.18385 -0.00347 0.65045
 H455 H -0.35611 -0.00473 0.78622
 H456 H -0.27226 -0.00291 0.88407
 H457 H -0.32763 -0.00252 0.93197
 H458 H -0.41166 -0.00435 0.83348
 H459 H -0.11756 -0.00167 0.72784
 H460 H -0.07006 -0.00102 0.67214
 H461 H -0.16871 -0.00341 0.58838
 H462 H -0.21562 -0.00406 0.64430
   
