data_POSCAR
  _audit_creation_date              2014-09-24
  _audit_creation_method            'ToBaCCo'
  _symmetry_space_group_name_H-M    'P1'
  _symmetry_Int_Tables_number       1
  _symmetry_cell_setting            triclinic
  loop_
  _symmetry_equiv_pos_as_xyz
 x,y,z
_cell_length_a 29.3694
_cell_length_b 29.2331
_cell_length_c 18.3856
_cell_angle_alpha 90.104500
_cell_angle_beta 89.804000
_cell_angle_gamma 95.257900
loop_
  _atom_site_label
  _atom_site_type_symbol
  _atom_site_fract_x
  _atom_site_fract_y
  _atom_site_fract_z
C1 C -0.05069 0.26198 0.00604
 C2 C -0.03402 0.26607 -0.06689
 C3 C 0.01320 0.26453 -0.07920
 C4 C 0.04391 0.25438 -0.02376
 C5 C 0.02603 0.24715 0.04802
 C6 C -0.02064 0.25019 0.06107
 H7 H -0.03272 0.24647 0.11671
 H8 H 0.02544 0.26826 -0.13448
 C9 C 0.46195 0.78425 0.52798
 C10 C 0.47419 0.78069 0.45355
 C11 C 0.52085 0.78319 0.43506
 C12 C 0.55542 0.78770 0.48771
 C13 C 0.54299 0.78706 0.56239
 C14 C 0.49638 0.78603 0.58087
 H15 H 0.48650 0.78729 0.63764
 H16 H 0.53070 0.78240 0.37824
 C17 C 1.03644 0.71804 0.06255
 C18 C 1.04830 0.71395 -0.01223
 C19 C 1.01411 0.71482 -0.06520
 C20 C 0.96779 0.71771 -0.04729
 C21 C 0.95540 0.71658 0.02751
 C22 C 0.98968 0.71777 0.08046
 H23 H 0.97918 0.71831 0.13703
 H24 H 1.02419 0.71303 -0.12185
 C25 C 0.52960 0.23233 0.54367
 C26 C 0.54086 0.24155 0.46966
 C27 C 0.50554 0.24163 0.41815
 C28 C 0.45933 0.23386 0.43786
 C29 C 0.44825 0.22343 0.51144
 C30 C 0.48342 0.22291 0.56288
 H31 H 0.47457 0.21595 0.61938
 H32 H 0.51391 0.25088 0.36228
 C33 C 0.71563 -0.03913 0.03550
 C34 C 0.74317 -0.02949 -0.02760
 C35 C 0.75046 0.01638 -0.05189
 C36 C 0.73252 0.05255 -0.01467
 C37 C 0.70670 0.04295 0.04938
 C38 C 0.69703 -0.00256 0.07184
 H39 H 0.67645 -0.00921 0.12047
 H40 H 0.77000 0.02423 -0.10113
 C41 C 0.22030 0.45697 0.56188
 C42 C 0.21239 0.44370 0.48851
 C43 C 0.20837 0.47783 0.43589
 C44 C 0.21014 0.52464 0.45460
 C45 C 0.21248 0.53688 0.52929
 C46 C 0.21935 0.50313 0.58122
 H47 H 0.22384 0.51276 0.63792
 H48 H 0.20468 0.46772 0.37933
 C49 C 0.26794 1.04260 0.02000
 C50 C 0.26483 1.02781 -0.05424
 C51 C 0.27068 0.98193 -0.07085
 C52 C 0.28145 0.95044 -0.01783
 C53 C 0.28371 0.96423 0.05595
 C54 C 0.27877 1.01046 0.07314
 H55 H 0.27942 1.02025 0.12993
 H56 H 0.26964 0.97109 -0.12735
 C57 C 0.77984 0.54215 0.54829
 C58 C 0.78844 0.55655 0.47535
 C59 C 0.79334 0.52356 0.42098
 C60 C 0.79198 0.47657 0.43688
 C61 C 0.78714 0.46219 0.51024
 C62 C 0.78008 0.49498 0.56417
 H63 H 0.77555 0.48347 0.61988
 H64 H 0.79845 0.53479 0.36510
 O65 O 0.23831 0.16938 0.22764
 O66 O 0.21607 0.25702 0.36317
 O67 O 0.16775 0.21136 0.26416
 O68 O 0.28852 0.21734 0.32263
 O69 O 0.30616 0.27092 0.24019
 O70 O 0.18501 0.26912 0.18866
 O71 O 0.23664 0.31243 0.28496
 O72 O 0.25133 0.22430 0.14577
 Cu73 Cu 0.22616 0.20837 0.30279
 Cu74 Cu 0.24715 0.27460 0.20680
 C75 C 0.24645 0.18199 0.16264
 C76 C 0.22256 0.29939 0.34757
 C77 C 0.15590 0.23920 0.21613
 C78 C 0.31787 0.24547 0.29144
 O79 O 0.76410 0.82807 0.20907
 O80 O 0.79748 0.74160 0.34034
 O81 O 0.82310 0.76626 0.20937
 O82 O 0.73739 0.80175 0.34064
 O83 O 0.68626 0.74927 0.29560
 O84 O 0.77091 0.71587 0.16183
 O85 O 0.74628 0.69018 0.29271
 O86 O 0.71038 0.77747 0.16612
 Cu87 Cu 0.78569 0.78968 0.27916
 Cu88 Cu 0.72344 0.72817 0.22373
 C89 C 0.73080 0.81769 0.16643
 C90 C 0.77750 0.70117 0.33885
 C91 C 0.81164 0.73464 0.16373
 C92 C 0.69742 0.78090 0.34133
 O93 O 0.80966 0.25157 0.19553
 O94 O 0.71954 0.24567 0.33409
 O95 O 0.73962 0.19194 0.22550
 O96 O 0.78384 0.30572 0.29744
 O97 O 0.73959 0.33953 0.22101
 O98 O 0.69489 0.22653 0.15123
 O99 O 0.67422 0.27904 0.25891
 O100 O 0.76562 0.28636 0.12036
 Cu101 Cu 0.76769 0.24486 0.27020
 Cu102 Cu 0.71398 0.28570 0.17978
 C103 C 0.80371 0.27121 0.13535
 C104 C 0.68220 0.26247 0.32093
 C105 C 0.70919 0.19007 0.17619
 C106 C 0.76869 0.34177 0.27190
 O107 O 0.25474 0.67299 0.23801
 O108 O 0.27453 0.79170 0.17090
 O109 O 0.32515 0.73688 0.23772
 O110 O 0.20707 0.72954 0.17067
 O111 O 0.18422 0.75423 0.27723
 O112 O 0.30223 0.76070 0.34473
 O113 O 0.25409 0.81760 0.27803
 O114 O 0.23360 0.69872 0.34485
 Cu115 Cu 0.26805 0.72992 0.19392
 Cu116 Cu 0.24115 0.76049 0.32180
 C117 C 0.24005 0.66563 0.30240
 C118 C 0.26778 0.82484 0.21309
 C119 C 0.33388 0.75066 0.30214
 C120 C 0.17551 0.74047 0.21274
 O121 O 0.68497 0.26886 0.74456
 O122 O 0.80578 0.28305 0.79785
 O123 O 0.75631 0.32288 0.70366
 O124 O 0.73631 0.23351 0.84181
 O125 O 0.75089 0.17992 0.76241
 O126 O 0.77536 0.27108 0.62432
 O127 O 0.82204 0.23012 0.71810
 O128 O 0.70050 0.21807 0.66128
 Cu129 Cu 0.74373 0.28241 0.77940
 Cu130 Cu 0.76276 0.21932 0.68278
 C131 C 0.67210 0.24164 0.69322
 C132 C 0.83415 0.25828 0.76863
 C133 C 0.77078 0.31261 0.64124
 C134 C 0.74223 0.19211 0.82711
 O135 O 0.22948 0.70287 0.84600
 O136 O 0.32281 0.74035 0.71790
 O137 O 0.29581 0.76817 0.84534
 O138 O 0.25618 0.67530 0.71837
 O139 O 0.21071 0.72094 0.66472
 O140 O 0.25044 0.81342 0.79053
 O141 O 0.27770 0.78600 0.66350
 O142 O 0.18474 0.74906 0.79192
 Cu143 Cu 0.28062 0.71700 0.78717
 Cu144 Cu 0.22651 0.77193 0.72199
 C145 C 0.19145 0.72021 0.84149
 C146 C 0.31605 0.76935 0.66856
 C147 C 0.27899 0.80651 0.84009
 C148 C 0.22690 0.68233 0.66987
 O149 O 0.27420 0.31247 0.76263
 O150 O 0.27994 0.19277 0.81808
 O151 O 0.31860 0.24447 0.71772
 O152 O 0.23116 0.25656 0.85899
 O153 O 0.17686 0.23720 0.77886
 O154 O 0.26378 0.22062 0.64080
 O155 O 0.22460 0.17040 0.74116
 O156 O 0.22036 0.29034 0.68318
 Cu157 Cu 0.28136 0.25440 0.79724
 Cu158 Cu 0.21583 0.22780 0.70298
 C159 C 0.24695 0.32175 0.71260
 C160 C 0.25322 0.16126 0.78952
 C161 C 0.30581 0.22891 0.65577
 C162 C 0.18916 0.24803 0.84306
 O163 O 0.71350 0.77814 0.67708
 O164 O 0.82854 0.75978 0.74056
 O165 O 0.76625 0.71128 0.66992
 O166 O 0.77590 0.82559 0.75718
 O167 O 0.74294 0.79638 0.85706
 O168 O 0.73898 0.68149 0.77327
 O169 O 0.79930 0.73383 0.84517
 O170 O 0.68350 0.74806 0.77850
 Cu171 Cu 0.77352 0.77205 0.70080
 Cu172 Cu 0.73787 0.73662 0.82336
 C173 C 0.67899 0.76617 0.71654
 C174 C 0.83352 0.74378 0.80375
 C175 C 0.75265 0.67657 0.70831
 C176 C 0.76147 0.83045 0.82189
 N177 N 0.22551 0.15069 0.04443
 N178 N 0.22953 0.11316 0.00560
 C179 C 0.25555 0.08598 0.04378
 C180 C 0.26568 0.10782 0.10977
 N181 N 0.24727 0.14822 0.10679
 H182 H 0.28546 0.09648 0.15476
 N183 N 0.75811 0.59463 0.72072
 N184 N 0.76671 0.55906 0.67995
 C185 C 0.77002 0.57341 0.61006
 C186 C 0.76209 0.61958 0.60993
 N187 N 0.75532 0.63130 0.67970
 H188 H 0.76063 0.64284 0.56475
 N189 N 0.67049 0.86242 0.12727
 N190 N 0.66526 0.90157 0.09373
 C191 C 0.70631 0.91687 0.06541
 C192 C 0.73741 0.88604 0.08451
 N193 N 0.71345 0.85256 0.12276
 H194 H 0.77412 0.88954 0.07678
 N195 N 0.28428 0.39801 0.69037
 N196 N 0.27849 0.43416 0.64924
 C197 C 0.23728 0.42610 0.61712
 C198 C 0.21732 0.38448 0.64195
 N199 N 0.24806 0.36772 0.68611
 H200 H 0.18391 0.36769 0.62980
 N201 N 0.84193 0.30503 0.02784
 N202 N 0.88109 0.30369 -0.00776
 C203 C 0.90537 0.27327 0.02699
 C204 C 0.88011 0.25725 0.08693
 N205 N 0.84067 0.27713 0.08446
 H206 H 0.88867 0.23243 0.12712
 N207 N 0.34883 0.81443 0.56627
 N208 N 0.38689 0.81897 0.52685
 C209 C 0.41468 0.78877 0.55352
 C210 C 0.39279 0.76634 0.61175
 N211 N 0.35174 0.78305 0.61750
 H212 H 0.40540 0.74033 0.64623
 N213 N 0.09326 0.73022 0.23087
 N214 N 0.05568 0.72300 0.19146
 C215 C 0.06823 0.72349 0.12046
 C216 C 0.11544 0.73230 0.11835
 N217 N 0.12938 0.73573 0.18781
 H218 H 0.13802 0.73795 0.07223
 N219 N 0.59371 0.26034 0.70518
 N220 N 0.55564 0.25883 0.66661
 C221 C 0.56332 0.23649 0.60411
 C222 C 0.60739 0.22296 0.60691
 N223 N 0.62529 0.23927 0.67030
 H224 H 0.62544 0.20539 0.56544
 N225 N 0.74770 0.17371 0.95423
 N226 N 0.74689 0.13783 0.99786
 C227 C 0.74024 0.09995 0.95602
 C228 C 0.73776 0.11395 0.88418
 N229 N 0.74192 0.16022 0.88596
 H230 H 0.73182 0.09282 0.83614
 N231 N 0.21226 0.58539 0.28482
 N232 N 0.20226 0.54792 0.32431
 C233 C 0.21270 0.55877 0.39419
 C234 C 0.23044 0.60435 0.39554
 N235 N 0.22913 0.61954 0.32678
 H236 H 0.24470 0.62442 0.44082
 N237 N 0.32393 0.84221 0.94066
 N238 N 0.32524 0.88015 0.98072
 C239 C 0.29139 0.90443 0.95639
 C240 C 0.26999 0.88066 0.89956
 N241 N 0.29109 0.84222 0.89152
 H242 H 0.24149 0.89018 0.86747
 N243 N 0.81040 0.41773 0.26944
 N244 N 0.81760 0.45410 0.31250
 C245 C 0.79452 0.44411 0.37507
 C246 C 0.77208 0.40069 0.36809
 N247 N 0.78359 0.38535 0.30245
 H248 H 0.74877 0.38233 0.40597
 N249 N 0.16105 0.23510 0.96611
 N250 N 0.12214 0.23501 1.00257
 C251 C 0.09029 0.24953 0.95737
 C252 C 0.11156 0.25759 0.89029
 N253 N 0.15530 0.24877 0.89869
 H254 H 0.09741 0.26879 0.83985
 N255 N 0.67178 0.82579 0.44369
 N256 N 0.63479 0.82818 0.48474
 C257 C 0.60325 0.79500 0.46112
 C258 C 0.62188 0.77284 0.40331
 N259 N 0.66461 0.79283 0.39445
 H260 H 0.60581 0.74507 0.37065
 N261 N 0.91217 0.72699 0.78471
 N262 N 0.94832 0.71899 0.82384
 C263 C 0.93686 0.72264 0.89490
 C264 C 0.89207 0.73415 0.89725
 N265 N 0.87815 0.73588 0.82805
 H266 H 0.87169 0.74318 0.94307
 N267 N 0.39250 0.28771 0.30598
 N268 N 0.43001 0.28586 0.34525
 C269 C 0.42515 0.24628 0.38342
 C270 C 0.38359 0.22325 0.36422
 N271 N 0.36409 0.25059 0.31702
 H272 H 0.36898 0.18969 0.38082
 N273 N 0.79901 0.90741 0.83658
 N274 N 0.79602 0.94438 0.87732
 C275 C 0.76124 0.93488 0.92487
 C276 C 0.74270 0.89035 0.91111
 N277 N 0.76729 0.87468 0.85589
 H278 H 0.71285 0.87198 0.93549
 N279 N 0.18802 0.32286 0.45983
 N280 N 0.18456 0.36048 0.49871
 C281 C 0.20918 0.39517 0.46442
 C282 C 0.22680 0.37781 0.40138
 N283 N 0.21324 0.33259 0.40127
 H284 H 0.24751 0.39608 0.36003
 N285 N 0.23065 0.07906 0.78497
 N286 N 0.23298 0.04254 0.82687
 C287 C 0.25764 0.05648 0.88618
 C288 C 0.27268 0.10222 0.87678
 N289 N 0.25404 0.11518 0.81446
 H290 H 0.29394 0.12444 0.91264
 N291 N 0.82314 0.67459 0.43857
 N292 N 0.82663 0.63677 0.47719
 C293 C 0.79401 0.60505 0.45249
 C294 C 0.77124 0.62419 0.39640
 N295 N 0.79011 0.66762 0.38985
 H296 H 0.74401 0.60792 0.36312
 N297 N 0.15711 0.67490 0.94273
 N298 N 0.11974 0.67268 0.98389
 C299 C 0.09459 0.70622 0.96081
 C300 C 0.11716 0.72816 0.90285
 N301 N 0.15605 0.70790 0.89367
 H302 H 0.10635 0.75617 0.87065
 N303 N 0.65778 0.28423 0.44113
 N304 N 0.62068 0.27975 0.48255
 C305 C 0.58803 0.25491 0.44412
 C306 C 0.60589 0.24560 0.37669
 N307 N 0.64936 0.26400 0.37762
 H308 H 0.58943 0.22642 0.33207
 N309 N 0.91664 0.27727 0.75974
 N310 N 0.95240 0.28102 0.80394
 C311 C 0.93743 0.26759 0.87108
 C312 C 0.89121 0.25370 0.86502
 N313 N 0.87971 0.26102 0.79583
 H314 H 0.86794 0.23816 0.90558
 N315 N 0.41512 0.76985 0.28288
 N316 N 0.45248 0.77975 0.32198
 C317 C 0.44078 0.77376 0.39278
 C318 C 0.39472 0.75871 0.39522
 N319 N 0.38017 0.75727 0.32602
 H320 H 0.37351 0.74881 0.44170
 N321 N 0.29213 0.90641 0.22693
 N322 N 0.29825 0.94375 0.18594
 C323 C 0.28623 0.93128 0.11726
 C324 C 0.27164 0.88491 0.11826
 N325 N 0.27630 0.87084 0.18702
 H326 H 0.25690 0.86358 0.07468
 N327 N 0.81280 0.34559 0.53652
 N328 N 0.81877 0.38517 0.50121
 C329 C 0.79125 0.41398 0.53307
 C330 C 0.76899 0.39093 0.59035
 N331 N 0.78296 0.34841 0.59001
 H332 H 0.74468 0.40355 0.62811
 N333 N 0.65449 0.14149 0.10512
 N334 N 0.65193 0.10129 0.07129
 C335 C 0.68852 0.08000 0.09224
 C336 C 0.71363 0.10858 0.14048
 N337 N 0.69145 0.14672 0.14643
 H338 H 0.74771 0.10482 0.16049
 N339 N 0.17973 0.64884 0.57093
 N340 N 0.17513 0.61066 0.53157
 C341 C 0.20664 0.58362 0.55607
 C342 C 0.23005 0.60601 0.61254
 N343 N 0.21245 0.64654 0.61976
 H344 H 0.25754 0.59426 0.64463
 N345 N 0.83804 0.68374 0.07039
 N346 N 0.87574 0.67767 0.03305
 C347 C 0.90763 0.71125 0.05401
 C348 C 0.88860 0.73751 0.10645
 N349 N 0.84508 0.71953 0.11449
 H350 H 0.90477 0.76677 0.13571
 N351 N 0.33104 0.18841 0.55020
 N352 N 0.36841 0.18557 0.51073
 C353 C 0.40078 0.21630 0.53824
 C354 C 0.38263 0.23704 0.59783
 N355 N 0.33895 0.21915 0.60253
 H356 H 0.39934 0.26270 0.63373
 N357 N 0.08111 0.19778 0.19806
 N358 N 0.04634 0.19821 0.15232
 C359 C 0.05397 0.23664 0.11193
 C360 C 0.09346 0.26083 0.13679
 N361 N 0.11004 0.23481 0.18897
 H362 H 0.11067 0.29201 0.11426
 N363 N 0.60147 0.78702 0.73340
 N364 N 0.56544 0.79427 0.69343
 C365 C 0.57616 0.78595 0.62331
 C366 C 0.62015 0.77258 0.62216
 N367 N 0.63457 0.77414 0.69139
 H368 H 0.63948 0.76080 0.57681
   
