data_POSCAR
  _audit_creation_date              2014-09-24
  _audit_creation_method            'ToBaCCo'
  _symmetry_space_group_name_H-M    'P1'
  _symmetry_Int_Tables_number       1
  _symmetry_cell_setting            triclinic
  loop_
  _symmetry_equiv_pos_as_xyz
 x,y,z
_cell_length_a 44.2352
_cell_length_b 44.2352
_cell_length_c 44.2352
_cell_angle_alpha 89.996600
_cell_angle_beta 89.956200
_cell_angle_gamma 89.930900
loop_
  _atom_site_label
  _atom_site_type_symbol
  _atom_site_fract_x
  _atom_site_fract_y
  _atom_site_fract_z
Zn1 Zn 0.77398 0.72611 0.77395
 Zn2 Zn 0.77396 0.77394 0.72613
 Zn3 Zn 0.72616 0.72616 0.72617
 Zn4 Zn 0.72614 0.77397 0.77399
 O5 O 0.75006 0.75004 0.75006
 O6 O 0.81353 0.73228 0.76773
 O7 O 0.76777 0.76775 0.68658
 O8 O 0.73237 0.68660 0.73235
 O9 O 0.81351 0.76772 0.73229
 O10 O 0.76781 0.68657 0.76775
 O11 O 0.73234 0.73235 0.68661
 O12 O 0.68659 0.76781 0.76783
 O13 O 0.76774 0.81349 0.73232
 O14 O 0.68661 0.73238 0.73240
 O15 O 0.73232 0.81352 0.76779
 O16 O 0.73234 0.76777 0.81353
 O17 O 0.76779 0.73230 0.81350
 C18 C 0.82742 0.74999 0.75000
 C19 C 0.75006 0.75005 0.67270
 C20 C 0.75009 0.67269 0.75005
 C21 C 0.67270 0.75010 0.75013
 C22 C 0.75002 0.82740 0.75005
 C23 C 0.75007 0.75003 0.82741
 Zn24 Zn 0.22617 0.72610 0.72606
 Zn25 Zn 0.22613 0.77390 0.77389
 Zn26 Zn 0.27397 0.72604 0.77386
 Zn27 Zn 0.27397 0.77388 0.72605
 O28 O 0.25006 0.74998 0.74997
 O29 O 0.18662 0.73232 0.73227
 O30 O 0.23232 0.76769 0.81344
 O31 O 0.26780 0.68649 0.76765
 O32 O 0.18659 0.76774 0.76772
 O33 O 0.23237 0.68654 0.73223
 O34 O 0.26776 0.73221 0.81341
 O35 O 0.31352 0.76767 0.73224
 O36 O 0.23231 0.81344 0.76771
 O37 O 0.31352 0.73221 0.76766
 O38 O 0.26775 0.81343 0.73225
 O39 O 0.26781 0.76769 0.68650
 O40 O 0.23238 0.73230 0.68651
 C41 C 0.17271 0.75004 0.75000
 C42 C 0.25003 0.74994 0.82732
 C43 C 0.25009 0.67262 0.74993
 C44 C 0.32742 0.74994 0.74996
 C45 C 0.25002 0.82733 0.74998
 C46 C 0.25010 0.75000 0.67261
 Zn47 Zn 0.72610 0.22614 0.77394
 Zn48 Zn 0.77393 0.22612 0.72610
 Zn49 Zn 0.72609 0.27397 0.72612
 Zn50 Zn 0.77389 0.27394 0.77392
 O51 O 0.75000 0.25004 0.75002
 O52 O 0.73232 0.18659 0.76774
 O53 O 0.76774 0.23232 0.68655
 O54 O 0.68654 0.26780 0.73233
 O55 O 0.76777 0.18658 0.73230
 O56 O 0.68655 0.23236 0.76776
 O57 O 0.73229 0.26777 0.68657
 O58 O 0.76768 0.31349 0.76773
 O59 O 0.81348 0.23230 0.73227
 O60 O 0.73226 0.31351 0.73231
 O61 O 0.81345 0.26772 0.76771
 O62 O 0.76769 0.26774 0.81348
 O63 O 0.73227 0.23233 0.81348
 C64 C 0.75005 0.17269 0.75002
 C65 C 0.75002 0.25004 0.67267
 C66 C 0.67265 0.25009 0.75005
 C67 C 0.74996 0.32740 0.75002
 C68 C 0.82736 0.25000 0.74998
 C69 C 0.74998 0.25003 0.82738
 Zn70 Zn 0.27395 0.22605 0.72605
 Zn71 Zn 0.22609 0.22608 0.77387
 Zn72 Zn 0.27388 0.27388 0.77387
 Zn73 Zn 0.22609 0.27389 0.72605
 O74 O 0.25000 0.24997 0.74996
 O75 O 0.26778 0.18651 0.73225
 O76 O 0.23226 0.23226 0.81342
 O77 O 0.31343 0.26767 0.76767
 O78 O 0.23232 0.18653 0.76768
 O79 O 0.31349 0.23223 0.73224
 O80 O 0.26766 0.26769 0.81342
 O81 O 0.23226 0.31344 0.73223
 O82 O 0.18654 0.23229 0.76769
 O83 O 0.26766 0.31343 0.76767
 O84 O 0.18654 0.26773 0.73225
 O85 O 0.23230 0.26769 0.68650
 O86 O 0.26777 0.23224 0.68650
 C87 C 0.25006 0.17262 0.74996
 C88 C 0.24995 0.24997 0.82732
 C89 C 0.32736 0.24995 0.74995
 C90 C 0.24995 0.32733 0.74994
 C91 C 0.17265 0.25002 0.74997
 C92 C 0.25004 0.24996 0.67260
 Zn93 Zn 0.72615 0.72612 0.22615
 Zn94 Zn 0.77396 0.77390 0.22615
 Zn95 Zn 0.72610 0.77394 0.27397
 Zn96 Zn 0.77393 0.72607 0.27397
 O97 O 0.75004 0.75001 0.25006
 O98 O 0.73238 0.73231 0.18660
 O99 O 0.76773 0.81345 0.23233
 O100 O 0.68655 0.76777 0.26778
 O101 O 0.76781 0.76770 0.18660
 O102 O 0.68660 0.73234 0.23234
 O103 O 0.73227 0.81348 0.26776
 O104 O 0.76771 0.73227 0.31352
 O105 O 0.81350 0.76768 0.23235
 O106 O 0.73227 0.76774 0.31352
 O107 O 0.81349 0.73223 0.26778
 O108 O 0.76776 0.68653 0.26778
 O109 O 0.73235 0.68657 0.23234
 C110 C 0.75011 0.75000 0.17270
 C111 C 0.74999 0.82736 0.25004
 C112 C 0.67268 0.75006 0.25006
 C113 C 0.74998 0.75001 0.32741
 C114 C 0.82739 0.74995 0.25007
 C115 C 0.75006 0.67265 0.25006
 Zn116 Zn 0.27396 0.77379 0.22606
 Zn117 Zn 0.22615 0.72602 0.22605
 Zn118 Zn 0.27394 0.72595 0.27386
 Zn119 Zn 0.22611 0.77382 0.27389
 O120 O 0.25004 0.74990 0.24997
 O121 O 0.26780 0.76761 0.18651
 O122 O 0.23235 0.68646 0.23223
 O123 O 0.31349 0.73212 0.26768
 O124 O 0.23237 0.73222 0.18650
 O125 O 0.31350 0.76758 0.23226
 O126 O 0.26776 0.68641 0.26766
 O127 O 0.23228 0.76761 0.31344
 O128 O 0.18660 0.73225 0.23225
 O129 O 0.26772 0.73213 0.31341
 O130 O 0.18656 0.76766 0.26771
 O131 O 0.23229 0.81337 0.26770
 O132 O 0.26774 0.81335 0.23226
 C133 C 0.25010 0.74992 0.17261
 C134 C 0.25006 0.67254 0.24994
 C135 C 0.32739 0.74984 0.24997
 C136 C 0.25000 0.74987 0.32732
 C137 C 0.17268 0.74996 0.24998
 C138 C 0.25001 0.82725 0.24998
 Zn139 Zn 0.72601 0.27392 0.22611
 Zn140 Zn 0.77387 0.22608 0.22612
 Zn141 Zn 0.77380 0.27392 0.27392
 Zn142 Zn 0.72601 0.22612 0.27394
 O143 O 0.74992 0.25001 0.25002
 O144 O 0.73223 0.26771 0.18656
 O145 O 0.81341 0.23226 0.23230
 O146 O 0.76757 0.31347 0.26772
 O147 O 0.76769 0.23226 0.18657
 O148 O 0.73216 0.31347 0.23228
 O149 O 0.81335 0.26771 0.26772
 O150 O 0.73218 0.23231 0.31349
 O151 O 0.76770 0.18653 0.23233
 O152 O 0.76759 0.26773 0.31347
 O153 O 0.73224 0.18656 0.26776
 O154 O 0.68646 0.23232 0.26775
 O155 O 0.68646 0.26774 0.23230
 C156 C 0.74997 0.24998 0.17267
 C157 C 0.82728 0.24999 0.25000
 C158 C 0.74985 0.32736 0.24999
 C159 C 0.74988 0.25002 0.32738
 C160 C 0.74998 0.17265 0.25005
 C161 C 0.67256 0.25003 0.25003
 Zn162 Zn 0.22601 0.27382 0.22605
 Zn163 Zn 0.27386 0.22596 0.22605
 Zn164 Zn 0.27381 0.27380 0.27385
 Zn165 Zn 0.22601 0.22601 0.27389
 O166 O 0.24992 0.24990 0.24996
 O167 O 0.23222 0.26760 0.18650
 O168 O 0.31340 0.23213 0.23223
 O169 O 0.26760 0.31335 0.26765
 O170 O 0.26767 0.23214 0.18650
 O171 O 0.23219 0.31336 0.23222
 O172 O 0.31336 0.26758 0.26765
 O173 O 0.23220 0.23220 0.31343
 O174 O 0.26768 0.18642 0.23226
 O175 O 0.26761 0.26762 0.31341
 O176 O 0.23222 0.18646 0.26770
 O177 O 0.18646 0.23224 0.26772
 O178 O 0.18646 0.26766 0.23227
 C179 C 0.24995 0.24987 0.17261
 C180 C 0.32728 0.24984 0.24993
 C181 C 0.24989 0.32725 0.24993
 C182 C 0.24990 0.24991 0.32732
 C183 C 0.24995 0.17254 0.24998
 C184 C 0.17257 0.24996 0.25000
 C185 C -0.14016 0.74998 0.74999
 C186 C -0.11291 0.74999 0.74999
 C187 C -0.08037 0.75000 0.75001
 C188 C -0.06456 0.77590 0.75889
 C189 C -0.03296 0.77594 0.75890
 C190 C -0.01673 0.75003 0.75004
 C191 C -0.03285 0.72410 0.74116
 C192 C -0.06445 0.72411 0.74114
 C193 C 0.01685 0.75005 0.75005
 C194 C 0.03306 0.72458 0.76013
 C195 C 0.06467 0.72462 0.76013
 C196 C 0.08049 0.75007 0.75004
 C197 C 0.06460 0.77551 0.73996
 C198 C 0.03299 0.77553 0.73996
 C199 C 0.11303 0.75007 0.75002
 C200 C 0.14028 0.75006 0.75001
 H201 H -0.07666 0.79603 0.76587
 H202 H -0.02122 0.79612 0.76623
 H203 H -0.02102 0.70394 0.73384
 H204 H -0.07647 0.70397 0.73415
 H205 H 0.02130 0.70478 0.76840
 H206 H 0.07675 0.70484 0.76806
 H207 H 0.07663 0.79530 0.73202
 H208 H 0.02118 0.79532 0.73169
 C209 C 0.75000 -0.14017 0.75004
 C210 C 0.75000 -0.11292 0.75004
 C211 C 0.75002 -0.08039 0.75004
 C212 C 0.76614 -0.06455 0.72791
 C213 C 0.76618 -0.03294 0.72789
 C214 C 0.75005 -0.01675 0.75004
 C215 C 0.73390 -0.03289 0.77220
 C216 C 0.73391 -0.06450 0.77218
 C217 C 0.75006 0.01683 0.75004
 C218 C 0.72341 0.03305 0.75642
 C219 C 0.72344 0.06465 0.75639
 C220 C 0.75007 0.08048 0.75003
 C221 C 0.77669 0.06458 0.74367
 C222 C 0.77671 0.03297 0.74366
 C223 C 0.75008 0.11301 0.75002
 C224 C 0.75007 0.14026 0.75001
 H225 H 0.77862 -0.07663 0.71061
 H226 H 0.77850 -0.02118 0.71031
 H227 H 0.72159 -0.02109 0.78978
 H228 H 0.72143 -0.07654 0.78947
 H229 H 0.70245 0.02129 0.76102
 H230 H 0.70269 0.07674 0.76126
 H231 H 0.79746 0.07660 0.73880
 H232 H 0.79767 0.02115 0.73906
 C233 C 0.75007 0.75003 -0.14016
 C234 C 0.75009 0.75002 -0.11291
 C235 C 0.75011 0.75003 -0.08038
 C236 C 0.72534 0.76167 -0.06448
 C237 C 0.72533 0.76170 -0.03287
 C238 C 0.75015 0.75004 -0.01673
 C239 C 0.77495 0.73837 -0.03294
 C240 C 0.77490 0.73839 -0.06455
 C241 C 0.75017 0.75004 0.01685
 C242 C 0.76148 0.72506 0.03301
 C243 C 0.76146 0.72508 0.06461
 C244 C 0.75017 0.75002 0.08049
 C245 C 0.73889 0.77498 0.06464
 C246 C 0.73887 0.77501 0.03303
 C247 C 0.75016 0.75001 0.11302
 C248 C 0.75014 0.75000 0.14027
 H249 H 0.70598 0.77066 -0.07651
 H250 H 0.70575 0.77047 -0.02106
 H251 H 0.79454 0.72960 -0.02118
 H252 H 0.79424 0.72939 -0.07663
 H253 H 0.76996 0.70535 0.02121
 H254 H 0.77017 0.70561 0.07666
 H255 H 0.73018 0.79444 0.07671
 H256 H 0.73038 0.79472 0.02126
 C257 C 0.64028 0.75013 0.75015
 C258 C 0.61303 0.75013 0.75016
 C259 C 0.58049 0.75012 0.75018
 C260 C 0.56459 0.77579 0.74071
 C261 C 0.53299 0.77579 0.74069
 C262 C 0.51685 0.75007 0.75015
 C263 C 0.53306 0.72437 0.75963
 C264 C 0.56467 0.72442 0.75964
 C265 C 0.48327 0.75004 0.75012
 C266 C 0.46717 0.72432 0.74060
 C267 C 0.43556 0.72432 0.74056
 C268 C 0.41963 0.74998 0.75004
 C269 C 0.43542 0.77566 0.75955
 C270 C 0.46702 0.77572 0.75959
 C271 C 0.38709 0.74995 0.75000
 C272 C 0.35984 0.74994 0.74997
 H273 H 0.57662 0.79577 0.73325
 H274 H 0.52117 0.79577 0.73290
 H275 H 0.52131 0.70437 0.76741
 H276 H 0.57676 0.70446 0.76710
 H277 H 0.47901 0.70435 0.73281
 H278 H 0.42356 0.70435 0.73307
 H279 H 0.42330 0.79562 0.76701
 H280 H 0.47875 0.79572 0.76741
 C281 C 0.25000 -0.14024 0.74998
 C282 C 0.24999 -0.11299 0.74999
 C283 C 0.25000 -0.08046 0.74999
 C284 C 0.26612 -0.06462 0.72785
 C285 C 0.26616 -0.03301 0.72783
 C286 C 0.25003 -0.01681 0.74999
 C287 C 0.23389 -0.03296 0.77214
 C288 C 0.23390 -0.06457 0.77213
 C289 C 0.25004 0.01677 0.74999
 C290 C 0.22340 0.03298 0.75637
 C291 C 0.22344 0.06459 0.75635
 C292 C 0.25007 0.08041 0.74998
 C293 C 0.27669 0.06450 0.74362
 C294 C 0.27670 0.03290 0.74360
 C295 C 0.25007 0.11294 0.74997
 C296 C 0.25007 0.14019 0.74996
 H297 H 0.27859 -0.07670 0.71055
 H298 H 0.27847 -0.02125 0.71025
 H299 H 0.22158 -0.02116 0.78972
 H300 H 0.22141 -0.07661 0.78942
 H301 H 0.20244 0.02123 0.76097
 H302 H 0.20268 0.07668 0.76121
 H303 H 0.29745 0.07653 0.73874
 H304 H 0.29765 0.02108 0.73900
 C305 C 0.25003 0.74993 -0.14025
 C306 C 0.25004 0.74992 -0.11300
 C307 C 0.25006 0.74993 -0.08047
 C308 C 0.22528 0.76155 -0.06457
 C309 C 0.22528 0.76158 -0.03296
 C310 C 0.25012 0.74995 -0.01683
 C311 C 0.27492 0.73831 -0.03303
 C312 C 0.27487 0.73832 -0.06464
 C313 C 0.25014 0.74995 0.01675
 C314 C 0.26148 0.72500 0.03292
 C315 C 0.26147 0.72502 0.06452
 C316 C 0.25015 0.74995 0.08040
 C317 C 0.23884 0.77489 0.06455
 C318 C 0.23881 0.77491 0.03294
 C319 C 0.25014 0.74994 0.11293
 C320 C 0.25013 0.74992 0.14018
 H321 H 0.20592 0.77051 -0.07660
 H322 H 0.20569 0.77033 -0.02115
 H323 H 0.29453 0.72956 -0.02128
 H324 H 0.29422 0.72935 -0.07673
 H325 H 0.26999 0.70529 0.02112
 H326 H 0.27020 0.70555 0.07657
 H327 H 0.23010 0.79434 0.07661
 H328 H 0.23029 0.79462 0.02116
 C329 C -0.14022 0.24999 0.74995
 C330 C -0.11296 0.24999 0.74994
 C331 C -0.08043 0.25000 0.74995
 C332 C -0.06461 0.27589 0.75884
 C333 C -0.03301 0.27593 0.75884
 C334 C -0.01679 0.25001 0.74995
 C335 C -0.03292 0.22409 0.74106
 C336 C -0.06452 0.22412 0.74106
 C337 C 0.01679 0.25002 0.74996
 C338 C 0.03299 0.22454 0.76003
 C339 C 0.06460 0.22458 0.76003
 C340 C 0.08043 0.25003 0.74996
 C341 C 0.06455 0.27548 0.73989
 C342 C 0.03294 0.27551 0.73989
 C343 C 0.11297 0.25004 0.74996
 C344 C 0.14022 0.25003 0.74997
 H345 H -0.07671 0.29602 0.76585
 H346 H -0.02126 0.29609 0.76618
 H347 H -0.02110 0.20394 0.73372
 H348 H -0.07655 0.20398 0.73405
 H349 H 0.02123 0.20474 0.76828
 H350 H 0.07668 0.20479 0.76796
 H351 H 0.07658 0.29528 0.73196
 H352 H 0.02113 0.29531 0.73163
 C353 C 0.75010 0.64026 0.75004
 C354 C 0.75010 0.61301 0.75004
 C355 C 0.75008 0.58048 0.75005
 C356 C 0.72274 0.56467 0.74845
 C357 C 0.72269 0.53306 0.74846
 C358 C 0.75003 0.51683 0.75005
 C359 C 0.77739 0.53296 0.75165
 C360 C 0.77739 0.56456 0.75166
 C361 C 0.75001 0.48325 0.75004
 C362 C 0.77185 0.46705 0.73348
 C363 C 0.77180 0.43544 0.73348
 C364 C 0.74997 0.41961 0.75002
 C365 C 0.72816 0.43551 0.76657
 C366 C 0.72815 0.46711 0.76658
 C367 C 0.74995 0.38708 0.75001
 C368 C 0.74995 0.35982 0.75001
 H369 H 0.70147 0.57676 0.74711
 H370 H 0.70129 0.52132 0.74681
 H371 H 0.79878 0.52113 0.75329
 H372 H 0.79867 0.57658 0.75299
 H373 H 0.78872 0.47881 0.72021
 H374 H 0.78873 0.42336 0.72052
 H375 H 0.71121 0.42347 0.77952
 H376 H 0.71130 0.47892 0.77986
 C377 C 0.74996 0.25002 -0.14020
 C378 C 0.74996 0.25002 -0.11294
 C379 C 0.74998 0.25003 -0.08041
 C380 C 0.72526 0.26181 -0.06452
 C381 C 0.72525 0.26183 -0.03291
 C382 C 0.75000 0.25002 -0.01677
 C383 C 0.77473 0.23822 -0.03297
 C384 C 0.77470 0.23825 -0.06457
 C385 C 0.75000 0.25001 0.01681
 C386 C 0.76117 0.22497 0.03297
 C387 C 0.76115 0.22498 0.06458
 C388 C 0.75000 0.24999 0.08045
 C389 C 0.73886 0.27500 0.06461
 C390 C 0.73884 0.27504 0.03300
 C391 C 0.74999 0.24997 0.11299
 C392 C 0.74998 0.24997 0.14024
 H393 H 0.70597 0.27090 -0.07656
 H394 H 0.70571 0.27070 -0.02111
 H395 H 0.79428 0.22934 -0.02120
 H396 H 0.79399 0.22915 -0.07665
 H397 H 0.76955 0.20522 0.02117
 H398 H 0.76975 0.20546 0.07662
 H399 H 0.73025 0.29452 0.07668
 H400 H 0.73046 0.29480 0.02123
 C401 C 0.64022 0.25010 0.75005
 C402 C 0.61297 0.25009 0.75004
 C403 C 0.58043 0.25007 0.75006
 C404 C 0.56453 0.27574 0.74059
 C405 C 0.53293 0.27575 0.74058
 C406 C 0.51679 0.25003 0.75004
 C407 C 0.53301 0.22433 0.75951
 C408 C 0.56461 0.22438 0.75952
 C409 C 0.48321 0.25000 0.75003
 C410 C 0.46710 0.22429 0.74051
 C411 C 0.43549 0.22430 0.74049
 C412 C 0.41957 0.24996 0.74999
 C413 C 0.43537 0.27564 0.75950
 C414 C 0.46698 0.27569 0.75952
 C415 C 0.38704 0.24994 0.74996
 C416 C 0.35978 0.24994 0.74995
 H417 H 0.57656 0.29573 0.73313
 H418 H 0.52111 0.29574 0.73279
 H419 H 0.52125 0.20432 0.76729
 H420 H 0.57670 0.20441 0.76697
 H421 H 0.47893 0.20432 0.73270
 H422 H 0.42348 0.20433 0.73300
 H423 H 0.42327 0.29559 0.76698
 H424 H 0.47871 0.29567 0.76734
 C425 C 0.25010 0.64020 0.74992
 C426 C 0.25009 0.61294 0.74989
 C427 C 0.25007 0.58041 0.74988
 C428 C 0.22274 0.56460 0.74827
 C429 C 0.22269 0.53299 0.74827
 C430 C 0.25003 0.51677 0.74986
 C431 C 0.27739 0.53289 0.75146
 C432 C 0.27738 0.56449 0.75147
 C433 C 0.25000 0.48319 0.74987
 C434 C 0.27184 0.46697 0.73332
 C435 C 0.27178 0.43536 0.73334
 C436 C 0.24996 0.41954 0.74989
 C437 C 0.22815 0.43545 0.76642
 C438 C 0.22814 0.46706 0.76642
 C439 C 0.24994 0.38701 0.74990
 C440 C 0.24994 0.35976 0.74992
 H441 H 0.20147 0.57670 0.74694
 H442 H 0.20129 0.52125 0.74662
 H443 H 0.29877 0.52106 0.75310
 H444 H 0.29867 0.57651 0.75281
 H445 H 0.28871 0.47872 0.72004
 H446 H 0.28872 0.42327 0.72038
 H447 H 0.21120 0.42343 0.77938
 H448 H 0.21129 0.47888 0.77970
 C449 C 0.24994 0.24995 -0.14026
 C450 C 0.24993 0.24995 -0.11301
 C451 C 0.24995 0.24995 -0.08047
 C452 C 0.22521 0.26166 -0.06458
 C453 C 0.22520 0.26167 -0.03297
 C454 C 0.24997 0.24993 -0.01683
 C455 C 0.27474 0.23820 -0.03303
 C456 C 0.27471 0.23823 -0.06464
 C457 C 0.24998 0.24991 0.01675
 C458 C 0.26122 0.22490 0.03290
 C459 C 0.26120 0.22491 0.06451
 C460 C 0.24998 0.24988 0.08039
 C461 C 0.23877 0.27487 0.06455
 C462 C 0.23875 0.27491 0.03295
 C463 C 0.24996 0.24986 0.11293
 C464 C 0.24995 0.24985 0.14018
 H465 H 0.20588 0.27071 -0.07661
 H466 H 0.20563 0.27049 -0.02116
 H467 H 0.29431 0.22936 -0.02127
 H468 H 0.29402 0.22919 -0.07672
 H469 H 0.26965 0.20517 0.02111
 H470 H 0.26985 0.20540 0.07656
 H471 H 0.23011 0.29435 0.07663
 H472 H 0.23032 0.29465 0.02118
 C473 C -0.14018 0.74993 0.25008
 C474 C -0.11293 0.74993 0.25008
 C475 C -0.08040 0.74993 0.25010
 C476 C -0.06458 0.77582 0.25899
 C477 C -0.03298 0.77587 0.25900
 C478 C -0.01675 0.74996 0.25011
 C479 C -0.03288 0.72403 0.24122
 C480 C -0.06449 0.72405 0.24121
 C481 C 0.01683 0.74997 0.25010
 C482 C 0.03304 0.72450 0.26015
 C483 C 0.06465 0.72454 0.26013
 C484 C 0.08047 0.74999 0.25005
 C485 C 0.06457 0.77544 0.24000
 C486 C 0.03296 0.77546 0.24002
 C487 C 0.11300 0.75000 0.25001
 C488 C 0.14026 0.74999 0.24999
 H489 H -0.07668 0.79596 0.26600
 H490 H -0.02123 0.79603 0.26633
 H491 H -0.02106 0.70388 0.23388
 H492 H -0.07651 0.70391 0.23420
 H493 H 0.02128 0.70469 0.26841
 H494 H 0.07673 0.70474 0.26804
 H495 H 0.07660 0.79524 0.23207
 H496 H 0.02115 0.79526 0.23178
 C497 C 0.74997 -0.14021 0.25002
 C498 C 0.74997 -0.11296 0.25001
 C499 C 0.74997 -0.08043 0.25002
 C500 C 0.76598 -0.06458 0.22782
 C501 C 0.76602 -0.03297 0.22781
 C502 C 0.74998 -0.01678 0.25004
 C503 C 0.73394 -0.03294 0.27226
 C504 C 0.73396 -0.06455 0.27223
 C505 C 0.74998 0.01680 0.25005
 C506 C 0.72336 0.03300 0.25655
 C507 C 0.72339 0.06461 0.25654
 C508 C 0.74999 0.08044 0.25006
 C509 C 0.77658 0.06454 0.24357
 C510 C 0.77661 0.03294 0.24355
 C511 C 0.74999 0.11297 0.25006
 C512 C 0.74999 0.14023 0.25006
 H513 H 0.77839 -0.07665 0.21046
 H514 H 0.77825 -0.02120 0.21018
 H515 H 0.72170 -0.02115 0.28990
 H516 H 0.72155 -0.07660 0.28958
 H517 H 0.70242 0.02124 0.26124
 H518 H 0.70265 0.07669 0.26150
 H519 H 0.79732 0.07658 0.23861
 H520 H 0.79754 0.02113 0.23885
 C521 C 0.75005 0.75004 0.64028
 C522 C 0.75004 0.75003 0.61302
 C523 C 0.75004 0.75004 0.58049
 C524 C 0.73876 0.77500 0.56464
 C525 C 0.73873 0.77502 0.53303
 C526 C 0.75001 0.75004 0.51685
 C527 C 0.76130 0.72506 0.53301
 C528 C 0.76129 0.72508 0.56462
 C529 C 0.75000 0.75004 0.48327
 C530 C 0.77479 0.73835 0.46707
 C531 C 0.77475 0.73836 0.43546
 C532 C 0.74997 0.75002 0.41963
 C533 C 0.72520 0.76169 0.43551
 C534 C 0.72519 0.76172 0.46712
 C535 C 0.74996 0.75001 0.38709
 C536 C 0.74996 0.75000 0.35984
 H537 H 0.73007 0.79447 0.57671
 H538 H 0.73025 0.79474 0.52126
 H539 H 0.76977 0.70534 0.52122
 H540 H 0.76999 0.70560 0.57666
 H541 H 0.79437 0.72956 0.47883
 H542 H 0.79408 0.72935 0.42338
 H543 H 0.70586 0.77069 0.42348
 H544 H 0.70562 0.77051 0.47893
 C545 C 0.64026 0.75007 0.25007
 C546 C 0.61300 0.75007 0.25008
 C547 C 0.58047 0.75004 0.25009
 C548 C 0.56456 0.77574 0.24073
 C549 C 0.53295 0.77574 0.24073
 C550 C 0.51683 0.74997 0.25009
 C551 C 0.53305 0.72424 0.25946
 C552 C 0.56466 0.72430 0.25946
 C553 C 0.48325 0.74993 0.25008
 C554 C 0.46714 0.72425 0.24047
 C555 C 0.43554 0.72425 0.24045
 C556 C 0.41961 0.74987 0.25004
 C557 C 0.43540 0.77552 0.25965
 C558 C 0.46700 0.77558 0.25967
 C559 C 0.38707 0.74984 0.25001
 C560 C 0.35982 0.74983 0.24999
 H561 H 0.57658 0.79576 0.23335
 H562 H 0.52113 0.79575 0.23302
 H563 H 0.52131 0.70420 0.26716
 H564 H 0.57676 0.70431 0.26683
 H565 H 0.47898 0.70432 0.23259
 H566 H 0.42353 0.70431 0.23289
 H567 H 0.42328 0.79544 0.26720
 H568 H 0.47873 0.79554 0.26757
 C569 C 0.24999 -0.14032 0.24998
 C570 C 0.24998 -0.11307 0.25000
 C571 C 0.24998 -0.08054 0.25001
 C572 C 0.26610 -0.06469 0.22788
 C573 C 0.26613 -0.03308 0.22787
 C574 C 0.24999 -0.01689 0.25003
 C575 C 0.23385 -0.03305 0.27218
 C576 C 0.23387 -0.06466 0.27215
 C577 C 0.24998 0.01669 0.25003
 C578 C 0.22333 0.03289 0.25641
 C579 C 0.22334 0.06449 0.25639
 C580 C 0.24996 0.08033 0.25002
 C581 C 0.27659 0.06444 0.24366
 C582 C 0.27663 0.03283 0.24365
 C583 C 0.24995 0.11286 0.25001
 C584 C 0.24996 0.14012 0.24999
 H585 H 0.27858 -0.07676 0.21058
 H586 H 0.27844 -0.02131 0.21029
 H587 H 0.22154 -0.02126 0.28976
 H588 H 0.22139 -0.07671 0.28945
 H589 H 0.20237 0.02112 0.26102
 H590 H 0.20258 0.07657 0.26126
 H591 H 0.29735 0.07648 0.23879
 H592 H 0.29759 0.02103 0.23905
 C593 C 0.25012 0.74999 0.64018
 C594 C 0.25012 0.74999 0.61293
 C595 C 0.25011 0.74998 0.58040
 C596 C 0.23877 0.77490 0.56453
 C597 C 0.23873 0.77490 0.53293
 C598 C 0.25008 0.74994 0.51675
 C599 C 0.26145 0.72501 0.53293
 C600 C 0.26145 0.72505 0.56454
 C601 C 0.25006 0.74992 0.48317
 C602 C 0.27488 0.73830 0.46697
 C603 C 0.27483 0.73830 0.43537
 C604 C 0.25001 0.74988 0.41953
 C605 C 0.22521 0.76147 0.43542
 C606 C 0.22521 0.76152 0.46703
 C607 C 0.24999 0.74986 0.38700
 C608 C 0.24999 0.74986 0.35975
 H609 H 0.23002 0.79435 0.57659
 H610 H 0.23019 0.79458 0.52114
 H611 H 0.26998 0.70530 0.52115
 H612 H 0.27021 0.70560 0.57660
 H613 H 0.29449 0.72958 0.47874
 H614 H 0.29419 0.72934 0.42329
 H615 H 0.20584 0.77041 0.42339
 H616 H 0.20561 0.77025 0.47884
 C617 C -0.14030 0.24998 0.24999
 C618 C -0.11304 0.24999 0.24999
 C619 C -0.08051 0.24999 0.25001
 C620 C -0.06469 0.27588 0.25889
 C621 C -0.03309 0.27592 0.25890
 C622 C -0.01687 0.25000 0.25003
 C623 C -0.03300 0.22408 0.24115
 C624 C -0.06460 0.22410 0.24113
 C625 C 0.01671 0.25001 0.25004
 C626 C 0.03291 0.22453 0.26012
 C627 C 0.06452 0.22456 0.26012
 C628 C 0.08035 0.25001 0.25003
 C629 C 0.06447 0.27545 0.23995
 C630 C 0.03286 0.27548 0.23995
 C631 C 0.11289 0.25000 0.25001
 C632 C 0.14014 0.24999 0.25001
 H633 H -0.07679 0.29602 0.26588
 H634 H -0.02134 0.29608 0.26623
 H635 H -0.02118 0.20392 0.23382
 H636 H -0.07663 0.20396 0.23413
 H637 H 0.02114 0.20473 0.26839
 H638 H 0.07659 0.20477 0.26806
 H639 H 0.07651 0.29524 0.23201
 H640 H 0.02106 0.29528 0.23168
 C641 C 0.75005 0.64023 0.25006
 C642 C 0.75004 0.61297 0.25005
 C643 C 0.75000 0.58044 0.25004
 C644 C 0.72265 0.56464 0.24872
 C645 C 0.72258 0.53304 0.24871
 C646 C 0.74993 0.51680 0.25000
 C647 C 0.77731 0.53290 0.25132
 C648 C 0.77732 0.56451 0.25134
 C649 C 0.74989 0.48322 0.24998
 C650 C 0.77154 0.46701 0.23319
 C651 C 0.77149 0.43540 0.23319
 C652 C 0.74984 0.41958 0.24997
 C653 C 0.72821 0.43548 0.26674
 C654 C 0.72820 0.46708 0.26676
 C655 C 0.74982 0.38704 0.24997
 C656 C 0.74983 0.35979 0.24998
 H657 H 0.70137 0.57675 0.24762
 H658 H 0.70116 0.52130 0.24729
 H659 H 0.79871 0.52107 0.25273
 H660 H 0.79863 0.57652 0.25246
 H661 H 0.78827 0.47876 0.21974
 H662 H 0.78828 0.42331 0.22005
 H663 H 0.71140 0.42345 0.27988
 H664 H 0.71150 0.47890 0.28022
 C665 C 0.75001 0.25004 0.64024
 C666 C 0.75000 0.25003 0.61299
 C667 C 0.74999 0.25004 0.58045
 C668 C 0.73867 0.27497 0.56461
 C669 C 0.73863 0.27500 0.53300
 C670 C 0.74996 0.25004 0.51681
 C671 C 0.76131 0.22509 0.53297
 C672 C 0.76130 0.22510 0.56458
 C673 C 0.74994 0.25005 0.48323
 C674 C 0.77475 0.23841 0.46703
 C675 C 0.77471 0.23843 0.43542
 C676 C 0.74990 0.25004 0.41959
 C677 C 0.72511 0.26166 0.43549
 C678 C 0.72511 0.26168 0.46709
 C679 C 0.74987 0.25003 0.38706
 C680 C 0.74987 0.25002 0.35980
 H681 H 0.72994 0.29443 0.57668
 H682 H 0.73011 0.29470 0.52123
 H683 H 0.76981 0.20538 0.52117
 H684 H 0.77004 0.20564 0.57662
 H685 H 0.79436 0.22967 0.47878
 H686 H 0.79405 0.22946 0.42334
 H687 H 0.70575 0.27062 0.42345
 H688 H 0.70552 0.27043 0.47890
 C689 C 0.64014 0.25004 0.25001
 C690 C 0.61289 0.25002 0.25000
 C691 C 0.58035 0.25000 0.25001
 C692 C 0.56445 0.27567 0.24054
 C693 C 0.53284 0.27567 0.24053
 C694 C 0.51671 0.24994 0.24998
 C695 C 0.53293 0.22424 0.25945
 C696 C 0.56453 0.22430 0.25947
 C697 C 0.48313 0.24991 0.24997
 C698 C 0.46702 0.22420 0.24045
 C699 C 0.43542 0.22421 0.24043
 C700 C 0.41949 0.24986 0.24993
 C701 C 0.43529 0.27554 0.25945
 C702 C 0.46689 0.27560 0.25946
 C703 C 0.38696 0.24984 0.24992
 C704 C 0.35970 0.24983 0.24992
 H705 H 0.57647 0.29565 0.23309
 H706 H 0.52103 0.29565 0.23274
 H707 H 0.52118 0.20424 0.26723
 H708 H 0.57663 0.20434 0.26692
 H709 H 0.47886 0.20424 0.23264
 H710 H 0.42341 0.20424 0.23294
 H711 H 0.42318 0.29549 0.26693
 H712 H 0.47863 0.29558 0.26729
 C713 C 0.25005 0.64012 0.24993
 C714 C 0.25005 0.61286 0.24990
 C715 C 0.25003 0.58033 0.24988
 C716 C 0.22269 0.56452 0.24833
 C717 C 0.22264 0.53291 0.24833
 C718 C 0.24999 0.51669 0.24986
 C719 C 0.27735 0.53281 0.25140
 C720 C 0.27735 0.56441 0.25142
 C721 C 0.24996 0.48311 0.24986
 C722 C 0.27176 0.46689 0.23326
 C723 C 0.27170 0.43528 0.23327
 C724 C 0.24991 0.41947 0.24987
 C725 C 0.22814 0.43537 0.26646
 C726 C 0.22814 0.46698 0.26647
 C727 C 0.24989 0.38693 0.24988
 C728 C 0.24988 0.35968 0.24990
 H729 H 0.20142 0.57662 0.24705
 H730 H 0.20124 0.52117 0.24673
 H731 H 0.29874 0.52098 0.25299
 H732 H 0.29863 0.57643 0.25271
 H733 H 0.28860 0.47864 0.21994
 H734 H 0.28861 0.42319 0.22028
 H735 H 0.21122 0.42335 0.27946
 H736 H 0.21131 0.47879 0.27978
 C737 C 0.25004 0.24994 0.64018
 C738 C 0.25006 0.24994 0.61293
 C739 C 0.25006 0.24994 0.58039
 C740 C 0.23863 0.27483 0.56454
 C741 C 0.23859 0.27485 0.53294
 C742 C 0.25002 0.24994 0.51675
 C743 C 0.26148 0.22503 0.53291
 C744 C 0.26147 0.22505 0.56452
 C745 C 0.25000 0.24993 0.48317
 C746 C 0.27486 0.23840 0.46696
 C747 C 0.27481 0.23841 0.43535
 C748 C 0.24995 0.24992 0.41953
 C749 C 0.22511 0.26142 0.43543
 C750 C 0.22512 0.26146 0.46703
 C751 C 0.24992 0.24991 0.38699
 C752 C 0.24990 0.24991 0.35974
 H753 H 0.22981 0.29425 0.57661
 H754 H 0.22998 0.29451 0.52116
 H755 H 0.27007 0.20536 0.52112
 H756 H 0.27030 0.20563 0.57657
 H757 H 0.29450 0.22974 0.47872
 H758 H 0.29419 0.22953 0.42327
 H759 H 0.20571 0.27030 0.42340
 H760 H 0.20549 0.27012 0.47885
   
