data_POSCAR
  _audit_creation_date              2014-09-24
  _audit_creation_method            'ToBaCCo'
  _symmetry_space_group_name_H-M    'P1'
  _symmetry_Int_Tables_number       1
  _symmetry_cell_setting            triclinic
  loop_
  _symmetry_equiv_pos_as_xyz
 x,y,z
_cell_length_a 44.6096
_cell_length_b 44.7099
_cell_length_c 44.7145
_cell_angle_alpha 102.027000
_cell_angle_beta 77.371400
_cell_angle_gamma 76.475500
loop_
  _atom_site_label
  _atom_site_type_symbol
  _atom_site_fract_x
  _atom_site_fract_y
  _atom_site_fract_z
C1 C 0.50301 0.48063 0.00278
 C2 C 0.47983 0.50355 -0.00201
 C3 C 0.44769 0.49968 -0.00237
 C4 C 0.48533 0.53396 -0.00682
 C5 C 0.53347 0.48636 0.00725
 C6 C 0.49949 0.44846 0.00326
 C7 C 0.43525 0.50487 -0.02774
 C8 C 0.40444 0.50289 -0.02768
 C9 C 0.38556 0.49589 -0.00213
 C10 C 0.39784 0.49061 0.02326
 C11 C 0.42869 0.49260 0.02318
 C12 C 0.51155 0.53381 -0.03101
 C13 C 0.51636 0.56260 -0.03534
 C14 C 0.49486 0.59179 -0.01576
 C15 C 0.46849 0.59208 0.00808
 C16 C 0.46368 0.56334 0.01246
 C17 C 0.53316 0.51251 0.03120
 C18 C 0.56202 0.51743 0.03527
 C19 C 0.59142 0.49613 0.01565
 C20 C 0.59185 0.46986 -0.00798
 C21 C 0.56306 0.46494 -0.01210
 C22 C 0.50493 0.43592 0.02855
 C23 C 0.50354 0.40501 0.02844
 C24 C 0.49689 0.38619 0.00297
 C25 C 0.49132 0.39855 -0.02230
 C26 C 0.49272 0.42949 -0.02223
 H27 H 0.44942 0.51055 -0.04756
 H28 H 0.39531 0.50717 -0.04746
 H29 H 0.38350 0.48538 0.04333
 H30 H 0.43755 0.48916 0.04329
 H31 H 0.52818 0.51141 -0.04654
 H32 H 0.53675 0.56211 -0.05398
 H33 H 0.44323 0.56397 0.03110
 H34 H 0.51060 0.52896 0.04678
 H35 H 0.56140 0.53774 0.05375
 H36 H 0.61446 0.45318 -0.02323
 H37 H 0.56381 0.44455 -0.03056
 H38 H 0.51043 0.45005 0.04830
 H39 H 0.50805 0.39564 0.04803
 H40 H 0.48639 0.38410 -0.04225
 H41 H 0.48913 0.43842 -0.04230
 H42 H 0.45166 0.61454 0.02331
 C43 C -0.00369 0.52425 0.52505
 C44 C -0.00787 0.50145 0.50220
 C45 C -0.00853 0.46952 0.50650
 C46 C -0.01180 0.50708 0.47149
 C47 C 0.00065 0.55472 0.51929
 C48 C -0.00342 0.52000 0.55709
 C49 C 0.01700 0.45003 0.51374
 C50 C 0.01659 0.41953 0.51648
 C51 C -0.00921 0.40816 0.51180
 C52 C -0.03467 0.42745 0.50453
 C53 C -0.03429 0.45792 0.50180
 C54 C 0.00818 0.48530 0.44268
 C55 C 0.00425 0.48973 0.41363
 C56 C -0.01983 0.51587 0.41302
 C57 C -0.03997 0.53763 0.44164
 C58 C -0.03607 0.53321 0.47078
 C59 C -0.01930 0.58398 0.54047
 C60 C -0.01536 0.61282 0.53551
 C61 C 0.00871 0.61273 0.50946
 C62 C 0.02895 0.58365 0.48841
 C63 C 0.02504 0.55475 0.49337
 C64 C -0.02911 0.51305 0.57599
 C65 C -0.02876 0.50967 0.60631
 C66 C -0.00288 0.51344 0.61812
 C67 C 0.02263 0.52063 0.59952
 C68 C 0.02232 0.52400 0.56921
 H69 H 0.03740 0.45827 0.51681
 H70 H 0.03651 0.40469 0.52189
 H71 H -0.05467 0.41883 0.50072
 H72 H -0.05408 0.47249 0.49599
 H73 H 0.02689 0.46491 0.44274
 H74 H 0.01990 0.47269 0.39162
 H75 H -0.05213 0.54993 0.49274
 H76 H -0.03810 0.58446 0.56069
 H77 H -0.03108 0.63519 0.55199
 H78 H 0.04776 0.58331 0.46827
 H79 H 0.04109 0.53243 0.47711
 H80 H -0.04950 0.51051 0.56735
 H81 H -0.04873 0.50433 0.62061
 H82 H 0.04270 0.52375 0.60850
 H83 H 0.04225 0.52956 0.55511
 H84 H -0.05880 0.55784 0.44143
 C85 C 0.52446 -0.00497 0.47464
 C86 C 0.50131 -0.00870 0.49787
 C87 C 0.50647 -0.01175 0.52897
 C88 C 0.46938 -0.00954 0.49364
 C89 C 0.52066 -0.00544 0.44235
 C90 C 0.55483 -0.00023 0.48030
 C91 C 0.53264 -0.03549 0.53046
 C92 C 0.53670 -0.03849 0.55996
 C93 C 0.51450 -0.01796 0.58823
 C94 C 0.48829 0.00557 0.58684
 C95 C 0.48425 0.00858 0.55740
 C96 C 0.45756 -0.03497 0.49913
 C97 C 0.42704 -0.03544 0.49650
 C98 C 0.40793 -0.01040 0.48854
 C99 C 0.41953 0.01507 0.48305
 C100 C 0.45007 0.01558 0.48570
 C101 C 0.52501 0.01976 0.42932
 C102 C 0.52208 0.01938 0.39878
 C103 C 0.51498 -0.00629 0.38082
 C104 C 0.51085 -0.03163 0.39353
 C105 C 0.51380 -0.03130 0.42410
 C106 C 0.55442 0.02464 0.50564
 C107 C 0.58322 0.02894 0.51052
 C108 C 0.61268 0.00860 0.48996
 C109 C 0.61319 -0.01596 0.46445
 C110 C 0.58443 -0.02028 0.45959
 H111 H 0.54971 -0.05181 0.50881
 H112 H 0.55700 -0.05692 0.56067
 H113 H 0.47087 0.02156 0.60850
 H114 H 0.46383 0.02689 0.55676
 H115 H 0.47199 -0.05443 0.50549
 H116 H 0.41822 -0.05518 0.50095
 H117 H 0.45848 0.03573 0.48201
 H118 H 0.53051 0.03980 0.44291
 H119 H 0.52545 0.03905 0.38912
 H120 H 0.50557 -0.05172 0.37975
 H121 H 0.51100 -0.05127 0.43343
 H122 H 0.53182 0.04075 0.52150
 H123 H 0.58245 0.04816 0.53025
 H124 H 0.63580 -0.03182 0.44829
 H125 H 0.58523 -0.03944 0.43982
 H126 H 0.40482 0.03469 0.47713
 O127 O 0.48844 -0.01515 -0.05369
 O128 O 0.48364 -0.00654 0.03117
 O129 O 0.48447 0.03151 -0.00589
 O130 O 0.48717 -0.05306 -0.01658
 O131 O 0.54020 -0.06685 -0.02848
 O132 O 0.53750 0.01786 -0.01783
 O133 O 0.53668 -0.02024 0.01920
 O134 O 0.54147 -0.02889 -0.06556
 Cu135 Cu 0.48058 -0.00943 -0.01004
 Cu136 Cu 0.54431 -0.02590 -0.02435
 C137 C 0.51577 -0.02333 -0.07392
 C138 C 0.50939 -0.01212 0.03947
 C139 C 0.51052 0.03895 -0.01025
 C140 C 0.51409 -0.07422 -0.02418
 O141 O -0.06533 0.54041 1.02677
 O142 O 0.02001 0.53588 1.01706
 O143 O -0.01719 0.53557 0.97934
 O144 O -0.02830 0.54115 1.06456
 O145 O -0.01571 0.48843 1.05366
 O146 O -0.00464 0.48285 0.96836
 O147 O 0.03251 0.48316 1.00611
 O148 O -0.05268 0.48768 1.01585
 Cu149 Cu -0.02395 0.54357 1.02302
 Cu150 Cu -0.00885 0.48022 1.00989
 C151 C -0.07337 0.51476 1.02279
 C152 C 0.04064 0.50875 1.01012
 C153 C -0.00927 0.50831 0.95950
 C154 C -0.02376 0.51573 1.07348
 O155 O 0.01608 -0.04135 0.47211
 O156 O 0.00506 0.04408 0.47748
 O157 O 0.05324 -0.00413 0.47237
 O158 O -0.03217 0.00695 0.47695
 O159 O -0.04415 0.01799 0.52948
 O160 O 0.04136 0.00694 0.52490
 O161 O -0.00689 0.05509 0.53002
 O162 O 0.00417 -0.03025 0.52464
 Cu163 Cu 0.01173 0.00025 0.46942
 Cu164 Cu -0.00260 0.01352 0.53256
 C165 C 0.01189 -0.05019 0.49750
 C166 C -0.00253 0.06396 0.50465
 C167 C 0.06168 -0.00021 0.49787
 C168 C -0.05256 0.01424 0.50395
 C169 C -0.37877 0.50096 1.01973
 C170 C -0.35348 0.50446 1.02269
 C171 C -0.32293 0.50801 1.02566
 C172 C -0.31390 0.53476 1.02014
 C173 C -0.28366 0.53750 1.02176
 C174 C -0.26203 0.51348 1.02893
 C175 C -0.27152 0.48687 1.03482
 C176 C -0.30174 0.48417 1.03316
 C177 C -0.22940 0.51566 1.02940
 C178 C -0.21544 0.50606 1.05252
 C179 C -0.18422 0.50696 1.05213
 C180 C -0.16657 0.51747 1.02867
 C181 C -0.18037 0.52743 1.00582
 C182 C -0.21157 0.52657 1.00617
 C183 C -0.13393 0.51707 1.02735
 C184 C -0.10638 0.51626 1.02562
 H185 H -0.33012 0.55336 1.01432
 H186 H -0.27723 0.55845 1.01749
 H187 H -0.25527 0.46776 1.03995
 H188 H -0.30842 0.46328 1.03732
 H189 H -0.22868 0.49791 1.07093
 H190 H -0.17378 0.49920 1.06994
 H191 H -0.16686 0.53545 0.98745
 H192 H -0.22143 0.53369 0.98779
 C193 C 0.35631 0.49520 0.99835
 C194 C 0.32923 0.49503 0.99865
 C195 C 0.29682 0.49541 0.99889
 C196 C 0.28418 0.50468 0.97509
 C197 C 0.25247 0.50582 0.97564
 C198 C 0.23293 0.49769 1.00004
 C199 C 0.24594 0.48820 1.02376
 C200 C 0.27766 0.48710 1.02317
 C201 C 0.19905 0.49940 1.00094
 C202 C 0.18576 0.47574 1.00952
 C203 C 0.15377 0.47760 1.01074
 C204 C 0.13461 0.50309 1.00342
 C205 C 0.14762 0.52669 0.99475
 C206 C 0.17962 0.52486 0.99348
 C207 C 0.10150 0.50524 1.00530
 C208 C 0.07373 0.50694 1.00725
 H209 H 0.29881 0.51112 0.95615
 H210 H 0.24332 0.51281 0.95682
 H211 H 0.23140 0.48220 1.04308
 H212 H 0.28715 0.48003 1.04179
 H213 H 0.20019 0.45563 1.01500
 H214 H 0.14396 0.45918 1.01745
 H215 H 0.13297 0.54661 0.98917
 H216 H 0.18899 0.54367 0.98722
 C217 C 0.01258 -0.35743 0.50458
 C218 C 0.01529 -0.33208 0.50108
 C219 C 0.01788 -0.30144 0.49759
 C220 C 0.04204 -0.28978 0.50656
 C221 C 0.04357 -0.25932 0.50468
 C222 C 0.02088 -0.24009 0.49381
 C223 C -0.00303 -0.25224 0.48442
 C224 C -0.00451 -0.28269 0.48634
 C225 C 0.02150 -0.20715 0.49319
 C226 C 0.01493 -0.19507 0.46791
 C227 C 0.01421 -0.16359 0.46808
 C228 C 0.02005 -0.14381 0.49347
 C229 C 0.02699 -0.15571 0.51853
 C230 C 0.02775 -0.18717 0.51841
 C231 C 0.01785 -0.11098 0.49440
 C232 C 0.01544 -0.08331 0.49560
 H233 H 0.05950 -0.30410 0.51531
 H234 H 0.06248 -0.25080 0.51171
 H235 H -0.02111 -0.23787 0.47639
 H236 H -0.02343 -0.29141 0.47952
 H237 H 0.01040 -0.20997 0.44799
 H238 H 0.00880 -0.15461 0.44857
 H239 H 0.03136 -0.14054 0.53840
 H240 H 0.03241 -0.19559 0.53843
 C241 C -0.00928 0.37641 0.51354
 C242 C -0.00951 0.34973 0.51451
 C243 C -0.00989 0.31778 0.51513
 C244 C -0.03803 0.30894 0.51552
 C245 C -0.03823 0.27766 0.51521
 C246 C -0.01022 0.25479 0.51452
 C247 C 0.01790 0.26399 0.51436
 C248 C 0.01804 0.29528 0.51464
 C249 C -0.01018 0.22138 0.51356
 C250 C 0.00626 0.20467 0.53139
 C251 C 0.00687 0.17299 0.52992
 C252 C -0.00891 0.15759 0.51065
 C253 C -0.02553 0.17405 0.49299
 C254 C -0.02620 0.20576 0.49444
 C255 C -0.00741 0.12470 0.50852
 C256 C -0.00556 0.09702 0.50673
 H257 H -0.05979 0.32619 0.51591
 H258 H -0.06034 0.27141 0.51575
 H259 H 0.03995 0.24684 0.51340
 H260 H 0.04000 0.30183 0.51418
 H261 H 0.01846 0.21617 0.54664
 H262 H 0.01978 0.16047 0.54372
 H263 H -0.03771 0.16230 0.47787
 H264 H -0.03871 0.21783 0.48011
 C265 C 0.51801 -0.02094 -0.38292
 C266 C 0.52044 -0.02308 -0.35707
 C267 C 0.52255 -0.02499 -0.32582
 C268 C 0.52386 0.00172 -0.30394
 C269 C 0.52454 0.00045 -0.27312
 C270 C 0.52385 -0.02758 -0.26373
 C271 C 0.52283 -0.05443 -0.28600
 C272 C 0.52218 -0.05311 -0.31684
 C273 C 0.52351 -0.02852 -0.23064
 C274 C 0.50355 -0.04350 -0.21418
 C275 C 0.50240 -0.04337 -0.18264
 C276 C 0.52122 -0.02835 -0.16717
 C277 C 0.54141 -0.01370 -0.18344
 C278 C 0.54258 -0.01377 -0.21495
 C279 C 0.51930 -0.02725 -0.13439
 C280 C 0.51766 -0.02577 -0.10682
 H281 H 0.52395 0.02367 -0.31058
 H282 H 0.52486 0.02166 -0.25642
 H283 H 0.52267 -0.07646 -0.27961
 H284 H 0.52114 -0.07392 -0.33359
 H285 H 0.48827 -0.05468 -0.22544
 H286 H 0.48658 -0.05467 -0.17022
 H287 H 0.55612 -0.00203 -0.17171
 H288 H 0.55849 -0.00240 -0.22710
 C289 C 0.51243 -0.00673 0.34920
 C290 C 0.51057 -0.00687 0.32268
 C291 C 0.50867 -0.00688 0.29095
 C292 C 0.49761 0.02204 0.28381
 C293 C 0.49643 0.02213 0.25284
 C294 C 0.50631 -0.00675 0.22856
 C295 C 0.51722 -0.03571 0.23603
 C296 C 0.51840 -0.03574 0.26702
 C297 C 0.50563 -0.00668 0.19549
 C298 C 0.49581 -0.03008 0.17703
 C299 C 0.49585 -0.03041 0.14569
 C300 C 0.50568 -0.00740 0.13236
 C301 C 0.51527 0.01612 0.15059
 C302 C 0.51523 0.01651 0.18195
 C303 C 0.50661 -0.00841 0.09977
 C304 C 0.50770 -0.00978 0.07232
 H305 H 0.48999 0.04452 0.30217
 H306 H 0.48755 0.04477 0.24794
 H307 H 0.52541 -0.05829 0.21779
 H308 H 0.52715 -0.05825 0.27225
 H309 H 0.48788 -0.04799 0.18690
 H310 H 0.48834 -0.04871 0.13180
 H311 H 0.52307 0.03396 0.14046
 H312 H 0.52331 0.03458 0.19539
 C313 C 0.49966 -0.37848 -0.02007
 C314 C 0.50322 -0.35330 -0.02324
 C315 C 0.50690 -0.32290 -0.02648
 C316 C 0.52450 -0.30789 -0.00922
 C317 C 0.52692 -0.27772 -0.01125
 C318 C 0.51168 -0.26211 -0.03056
 C319 C 0.49439 -0.27760 -0.04815
 C320 C 0.49202 -0.30778 -0.04609
 C321 C 0.51303 -0.22944 -0.03159
 C322 C 0.48549 -0.20619 -0.03135
 C323 C 0.48636 -0.17510 -0.03110
 C324 C 0.51472 -0.16679 -0.03115
 C325 C 0.54235 -0.18981 -0.03177
 C326 C 0.54154 -0.22094 -0.03200
 C327 C 0.51508 -0.13438 -0.02946
 C328 C 0.51489 -0.10701 -0.02741
 H329 H 0.53598 -0.31931 0.00616
 H330 H 0.54003 -0.26626 0.00291
 H331 H 0.48273 -0.26639 -0.06352
 H332 H 0.47835 -0.31919 -0.05957
 H333 H 0.46306 -0.21183 -0.03056
 H334 H 0.46478 -0.15742 -0.03043
 H335 H 0.56444 -0.18363 -0.03181
 H336 H 0.56322 -0.23839 -0.03258
 C337 C 0.49695 0.35386 0.00232
 C338 C 0.49760 0.32665 0.00187
 C339 C 0.49900 0.29405 0.00137
 C340 C 0.47179 0.28357 0.00136
 C341 C 0.47330 0.25184 0.00080
 C342 C 0.50209 0.23017 0.00021
 C343 C 0.52927 0.24100 0.00031
 C344 C 0.52770 0.27271 0.00090
 C345 C 0.50387 0.19637 -0.00076
 C346 C 0.53114 0.17138 -0.02021
 C347 C 0.53268 0.13955 -0.02139
 C348 C 0.50706 0.13223 -0.00315
 C349 C 0.47988 0.15689 0.01639
 C350 C 0.47827 0.18876 0.01760
 C351 C 0.50839 0.09938 -0.00506
 C352 C 0.50944 0.07181 -0.00713
 H353 H 0.44947 0.29987 0.00166
 H354 H 0.45209 0.24415 0.00032
 H355 H 0.55165 0.22503 0.00030
 H356 H 0.54887 0.28060 0.00102
 H357 H 0.55104 0.17641 -0.03494
 H358 H 0.55376 0.12064 -0.03674
 H359 H 0.45991 0.15149 0.03061
 H360 H 0.45714 0.20746 0.03310
 C361 C -0.35918 0.01263 0.49454
 C362 C -0.33395 0.01571 0.49811
 C363 C -0.30345 0.01872 0.50173
 C364 C -0.29117 0.04190 0.49108
 C365 C -0.26080 0.04377 0.49315
 C366 C -0.24232 0.02242 0.50590
 C367 C -0.25510 -0.00050 0.51697
 C368 C -0.28545 -0.00233 0.51485
 C369 C -0.20945 0.02332 0.50676
 C370 C -0.19839 0.01862 0.53308
 C371 C -0.16695 0.01809 0.53318
 C372 C -0.14618 0.02226 0.50703
 C373 C -0.15708 0.02737 0.48093
 C374 C -0.18850 0.02793 0.48078
 C375 C -0.11337 0.02015 0.50643
 C376 C -0.08570 0.01778 0.50552
 H377 H -0.30491 0.05831 0.48087
 H378 H -0.25178 0.06190 0.48479
 H379 H -0.24129 -0.01756 0.52648
 H380 H -0.29466 -0.02048 0.52300
 H381 H -0.21406 0.01538 0.55358
 H382 H -0.15875 0.01411 0.55351
 H383 H -0.14113 0.03044 0.46048
 H384 H -0.19613 0.03114 0.45998
 C385 C 0.37608 -0.01046 0.48704
 C386 C 0.34925 -0.01056 0.48633
 C387 C 0.31709 -0.01066 0.48611
 C388 C 0.29875 0.01153 0.47433
 C389 C 0.26715 0.01204 0.47503
 C390 C 0.25348 -0.00966 0.48758
 C391 C 0.27224 -0.03207 0.49908
 C392 C 0.30382 -0.03252 0.49837
 C393 C 0.21964 -0.00858 0.48915
 C394 C 0.21094 -0.03699 0.48209
 C395 C 0.17897 -0.03584 0.48389
 C396 C 0.15535 -0.00632 0.49279
 C397 C 0.16377 0.02204 0.49984
 C398 C 0.19568 0.02096 0.49803
 C399 C 0.12245 -0.00497 0.49459
 C400 C 0.09476 -0.00319 0.49611
 H401 H 0.30881 0.02853 0.46475
 H402 H 0.25346 0.02928 0.46561
 H403 H 0.26228 -0.04880 0.50925
 H404 H 0.31779 -0.04970 0.50767
 H405 H 0.22889 -0.06007 0.47484
 H406 H 0.17272 -0.05794 0.47828
 H407 H 0.14564 0.04502 0.50682
 H408 H 0.20154 0.04323 0.50406
 C409 C -0.02396 0.51985 1.38293
 C410 C -0.02686 0.52240 1.35733
 C411 C -0.02963 0.52454 1.32634
 C412 C -0.05262 0.51341 1.31429
 C413 C -0.05414 0.51384 1.28348
 C414 C -0.03263 0.52540 1.26430
 C415 C -0.00992 0.53698 1.27683
 C416 C -0.00843 0.53650 1.30764
 C417 C -0.03320 0.52455 1.23106
 C418 C -0.02858 0.54999 1.21846
 C419 C -0.02785 0.54855 1.18677
 C420 C -0.03174 0.52171 1.16727
 C421 C -0.03674 0.49645 1.17966
 C422 C -0.03750 0.49784 1.21135
 C423 C -0.02960 0.51968 1.13430
 C424 C -0.02724 0.51789 1.10657
 H425 H -0.06913 0.50407 1.32857
 H426 H -0.07214 0.50514 1.27465
 H427 H 0.00725 0.54562 1.26253
 H428 H 0.00959 0.54498 1.31667
 H429 H -0.02559 0.57103 1.23314
 H430 H -0.02399 0.56826 1.17741
 H431 H -0.03962 0.47549 1.16472
 H432 H -0.04066 0.47769 1.22021
 C433 C -0.00268 0.51053 0.64953
 C434 C -0.00240 0.50841 0.67591
 C435 C -0.00201 0.50629 0.70749
 C436 C -0.03062 0.50974 0.73017
 C437 C -0.03040 0.50849 0.76110
 C438 C -0.00151 0.50379 0.76977
 C439 C 0.02716 0.50014 0.74673
 C440 C 0.02688 0.50138 0.71580
 C441 C -0.00142 0.50324 0.80285
 C442 C 0.01741 0.51869 0.81822
 C443 C 0.01678 0.51894 0.84968
 C444 C -0.00259 0.50373 0.86615
 C445 C -0.02116 0.48803 0.85097
 C446 C -0.02059 0.48776 0.81953
 C447 C -0.00418 0.50497 0.89889
 C448 C -0.00612 0.50633 0.92648
 H449 H -0.05315 0.51370 0.72403
 H450 H -0.05293 0.51183 0.77840
 H451 H 0.04983 0.49610 0.75256
 H452 H 0.04918 0.49864 0.69841
 H453 H 0.03209 0.53117 0.80617
 H454 H 0.03112 0.53132 0.86126
 H455 H -0.03624 0.47616 0.86351
 H456 H -0.03502 0.47531 0.80822
   
