data_POSCAR
  _audit_creation_date              2014-09-24
  _audit_creation_method            'ToBaCCo'
  _symmetry_space_group_name_H-M    'P1'
  _symmetry_Int_Tables_number       1
  _symmetry_cell_setting            triclinic
  loop_
  _symmetry_equiv_pos_as_xyz
 x,y,z
_cell_length_a 18.3162
_cell_length_b 17.6664
_cell_length_c 17.9853
_cell_angle_alpha 87.585200
_cell_angle_beta 91.361100
_cell_angle_gamma 92.363500
loop_
  _atom_site_label
  _atom_site_type_symbol
  _atom_site_fract_x
  _atom_site_fract_y
  _atom_site_fract_z
Si1 Si 1.23380 0.26424 0.25382
 Si2 Si 0.73449 -0.23497 0.25362
 Si3 Si 0.73339 0.26456 -0.24652
 Si4 Si 1.23375 -0.23521 -0.24646
 Si5 Si 0.27181 0.24078 0.74570
 Si6 Si 0.77114 0.74068 0.74623
 Si7 Si 0.77113 0.24069 0.24605
 Si8 Si 0.26999 0.74079 0.24566
 O9 O 1.11783 0.07007 0.09986
 O10 O 0.85385 -0.07496 0.04054
 O11 O 0.93982 0.14635 0.04360
 O12 O 1.07671 -0.15781 0.06198
 O13 O 0.88887 0.04312 0.08273
 O14 O 1.11437 -0.06035 0.11517
 O15 O 0.94775 -0.12677 0.09506
 O16 O 1.07267 0.15859 0.02957
 C17 C 1.10509 0.13707 0.08821
 C18 C 0.88121 -0.11340 0.09432
 C19 C 0.90062 0.11151 0.09018
 C20 C 1.11412 -0.12909 0.11175
 O21 O 1.14614 -0.07463 -0.03401
 O22 O 0.82303 0.05807 -0.04407
 O23 O 1.06001 0.11244 -0.10792
 O24 O 0.91483 -0.14142 -0.04765
 O25 O 0.90042 -0.03494 -0.10191
 O26 O 1.15271 0.06788 -0.04356
 O27 O 1.04683 -0.13779 -0.07481
 O28 O 0.92403 0.10214 -0.09868
 Co29 Co 1.12221 -0.00007 0.03138
 Co30 Co 0.90047 0.00615 -0.00868
 Co31 Co 0.99934 0.11704 -0.02962
 Co32 Co 0.99653 -0.12737 0.00904
 O33 O 1.00787 -0.00465 0.00489
 C34 C 1.11372 -0.11897 -0.07950
 C35 C 0.85514 0.10715 -0.09128
 C36 C 1.12728 0.10411 -0.09959
 C37 C 0.89488 -0.10491 -0.10387
 O38 O 1.11968 0.57181 0.59724
 O39 O 0.85336 0.42636 0.54036
 O40 O 0.93923 0.64755 0.54244
 O41 O 1.07604 0.34418 0.56027
 O42 O 0.88909 0.54408 0.58199
 O43 O 1.11440 0.44168 0.61299
 O44 O 0.94763 0.37538 0.59466
 O45 O 1.07209 0.66044 0.52873
 C46 C 1.10577 0.63865 0.58656
 C47 C 0.88085 0.38788 0.59409
 C48 C 0.90047 0.61251 0.58932
 C49 C 1.11320 0.37294 0.61002
 O50 O 1.14539 0.42632 0.46392
 O51 O 0.82311 0.55917 0.45537
 O52 O 1.06031 0.61534 0.39067
 O53 O 0.91384 0.36002 0.45209
 O54 O 0.89999 0.46604 0.39723
 O55 O 1.15314 0.56910 0.45358
 O56 O 1.04542 0.36406 0.42376
 O57 O 0.92407 0.60302 0.40034
 Co58 Co 1.12252 0.50133 0.52899
 Co59 Co 0.90034 0.50716 0.49053
 Co60 Co 0.99914 0.61874 0.46916
 Co61 Co 0.99587 0.37453 0.50806
 O62 O 1.00790 0.49707 0.50346
 C63 C 1.11243 0.38209 0.41879
 C64 C 0.85526 0.60800 0.40805
 C65 C 1.12770 0.60665 0.39831
 C66 C 0.89412 0.39610 0.39561
 O67 O 0.61486 0.06898 0.59939
 O68 O 0.35192 -0.07706 0.53891
 O69 O 0.43757 0.14475 0.54207
 O70 O 0.57505 -0.15853 0.55937
 O71 O 0.38545 0.04162 0.58011
 O72 O 0.61017 -0.06128 0.61402
 O73 O 0.44627 -0.12838 0.59310
 O74 O 0.57050 0.15780 0.52897
 C75 C 0.60315 0.13624 0.58761
 C76 C 0.37975 -0.11502 0.59278
 C77 C 0.39782 0.10992 0.58810
 C78 C 0.61077 -0.12981 0.61017
 O79 O 0.64387 -0.07520 0.46498
 O80 O 0.32075 0.05547 0.45330
 O81 O 0.55866 0.11207 0.39107
 O82 O 0.41268 -0.14382 0.45062
 O83 O 0.39822 -0.03787 0.39565
 O84 O 0.65079 0.06705 0.45601
 O85 O 0.54493 -0.13802 0.42286
 O86 O 0.42244 0.09998 0.40000
 Co87 Co 0.61948 -0.00103 0.53056
 Co88 Co 0.39794 0.00395 0.48892
 Co89 Co 0.49738 0.11591 0.46908
 Co90 Co 0.49470 -0.12851 0.50690
 O91 O 0.50553 -0.00577 0.50312
 C92 C 0.61187 -0.11912 0.41883
 C93 C 0.35353 0.10501 0.40709
 C94 C 0.62588 0.10357 0.39990
 C95 C 0.39232 -0.10800 0.39412
 O96 O 0.61637 0.57076 0.10038
 O97 O 0.35184 0.42642 0.04192
 O98 O 0.43684 0.64798 0.04524
 O99 O 0.57464 0.34358 0.06044
 O100 O 0.38611 0.54469 0.08412
 O101 O 0.61113 0.44044 0.11499
 O102 O 0.44628 0.37438 0.09528
 O103 O 0.57005 0.65996 0.03160
 C104 C 0.60367 0.63789 0.08934
 C105 C 0.37974 0.38773 0.09525
 C106 C 0.39726 0.61326 0.09171
 C107 C 0.61106 0.37187 0.11098
 O108 O 0.64331 0.42654 -0.03463
 O109 O 0.32071 0.55939 -0.04300
 O110 O 0.55810 0.61532 -0.10637
 O111 O 0.41190 0.36028 -0.04687
 O112 O 0.39788 0.46655 -0.10115
 O113 O 0.65062 0.56896 -0.04299
 O114 O 0.54371 0.36464 -0.07602
 O115 O 0.42201 0.60366 -0.09727
 Co116 Co 0.61981 0.50085 0.03155
 Co117 Co 0.39799 0.50760 -0.00765
 Co118 Co 0.49694 0.61885 -0.02810
 Co119 Co 0.49415 0.37430 0.00872
 O120 O 0.50547 0.49698 0.00550
 C121 C 0.61079 0.38272 -0.08062
 C122 C 0.35309 0.60832 -0.09015
 C123 C 0.62532 0.60609 -0.09847
 C124 C 0.39252 0.39657 -0.10330
 C125 C 1.17178 0.22124 0.18704
 C126 C 1.13731 0.18778 0.14028
 C127 C 1.17148 0.72207 0.68670
 C128 C 1.13734 0.68901 0.63939
 C129 C 0.67122 0.22052 0.68649
 C130 C 0.63635 0.18692 0.63975
 C131 C 0.67190 0.72165 0.18759
 C132 C 0.63678 0.68824 0.14126
 C133 C 0.79692 -0.17910 0.19597
 C134 C 0.83587 -0.14705 0.15101
 C135 C 0.79628 0.32088 0.69563
 C136 C 0.83541 0.35337 0.65078
 C137 C 0.29636 -0.17977 0.69573
 C138 C 0.33496 -0.14813 0.65021
 C139 C 0.29621 0.32073 0.19677
 C140 C 0.33489 0.35339 0.15197
 C141 C 0.78133 0.19564 -0.18652
 C142 C 0.81375 0.15387 -0.14336
 C143 C 0.78184 0.69615 0.31311
 C144 C 0.81402 0.65444 0.35618
 C145 C 0.28096 0.19479 0.31288
 C146 C 0.31285 0.15241 0.35557
 C147 C 0.28045 0.69572 -0.18651
 C148 C 0.31215 0.65426 -0.14278
 C149 C 1.18613 -0.17984 -0.18373
 C150 C 1.15383 -0.14968 -0.13688
 C151 C 1.18523 0.31929 0.31606
 C152 C 1.15244 0.35010 0.36210
 C153 C 0.68602 -0.17993 0.31591
 C154 C 0.65281 -0.14982 0.36210
 C155 C 0.68437 0.32002 -0.18383
 C156 C 0.65136 0.35085 -0.13760
 C157 C 1.21696 0.17882 -0.19225
 C158 C 1.17673 0.14228 -0.15097
 C159 C 1.21759 0.68187 0.30483
 C160 C 1.17732 0.64515 0.34645
 C161 C 0.71631 0.17840 0.30797
 C162 C 0.67582 0.14179 0.34896
 C163 C 0.71584 0.67919 -0.19157
 C164 C 0.67510 0.64346 -0.15013
 C165 C 0.82387 -0.18870 -0.20173
 C166 C 0.85680 -0.14564 -0.16137
 C167 C 0.82360 0.31153 0.29805
 C168 C 0.85627 0.35498 0.33823
 C169 C 0.32078 -0.19317 0.29637
 C170 C 0.35393 -0.14975 0.33675
 C171 C 0.32409 0.31175 -0.20211
 C172 C 0.35589 0.35540 -0.16145
 C173 C 1.20798 -0.20919 0.19234
 C174 C 1.16410 -0.17308 0.15641
 C175 C 1.20608 0.29276 0.69027
 C176 C 1.16245 0.32893 0.65464
 C177 C 0.70509 -0.20814 0.69044
 C178 C 0.66082 -0.17293 0.65469
 C179 C 0.70505 0.29223 0.19049
 C180 C 0.66094 0.32803 0.15509
 C181 C 0.82840 0.18667 0.18739
 C182 C 0.86333 0.15160 0.14522
 C183 C 0.82835 0.68686 0.68728
 C184 C 0.86326 0.65223 0.64471
 C185 C 0.32778 0.18583 0.68651
 C186 C 0.36150 0.15013 0.64380
 C187 C 0.32409 0.68898 0.18931
 C188 C 0.35924 0.65363 0.14695
   
