data_POSCAR
  _audit_creation_date              2014-09-24
  _audit_creation_method            'ToBaCCo'
  _symmetry_space_group_name_H-M    'P1'
  _symmetry_Int_Tables_number       1
  _symmetry_cell_setting            triclinic
  loop_
  _symmetry_equiv_pos_as_xyz
 x,y,z
_cell_length_a 59.9213
_cell_length_b 31.8614
_cell_length_c 25.4748
_cell_angle_alpha 89.941700
_cell_angle_beta 89.849400
_cell_angle_gamma 90.099900
loop_
  _atom_site_label
  _atom_site_type_symbol
  _atom_site_fract_x
  _atom_site_fract_y
  _atom_site_fract_z
C1 C 0.70780 0.29030 0.55024
 C2 C 0.69771 0.29902 0.50179
 C3 C 0.70725 0.28653 0.45435
 C4 C 0.72799 0.26561 0.45423
 C5 C 0.73883 0.25684 0.50248
 C6 C 0.72874 0.26922 0.55070
 C7 C 0.74085 0.26378 0.59739
 C8 C 0.76176 0.24506 0.59731
 C9 C 0.77172 0.23086 0.55054
 C10 C 0.76027 0.23742 0.50231
 C11 C 0.73837 0.25425 0.40696
 C12 C 0.75944 0.23617 0.40664
 C13 C 0.77072 0.22704 0.45369
 C14 C 0.79294 0.21148 0.45354
 C15 C 0.80398 0.20639 0.50155
 C16 C 0.79375 0.21443 0.55003
 H17 H 0.73482 0.27569 0.63449
 H18 H 0.77045 0.24383 0.63438
 H19 H 0.73060 0.26049 0.36946
 H20 H 0.76699 0.23095 0.36870
 H21 H 0.68165 0.31472 0.50082
 H22 H 0.82063 0.19299 0.50122
 C23 C 0.20857 0.78847 0.55169
 C24 C 0.19729 0.79619 0.50480
 C25 C 0.20664 0.78563 0.45628
 C26 C 0.22784 0.76626 0.45434
 C27 C 0.23949 0.75809 0.50175
 C28 C 0.22987 0.76956 0.55058
 C29 C 0.24198 0.76276 0.59686
 C30 C 0.26311 0.74470 0.59541
 C31 C 0.27276 0.73140 0.54774
 C32 C 0.26090 0.73897 0.50025
 C33 C 0.23762 0.75464 0.40635
 C34 C 0.25870 0.73651 0.40473
 C35 C 0.27067 0.72871 0.45109
 C36 C 0.29243 0.71203 0.44947
 C37 C 0.30405 0.70543 0.49610
 C38 C 0.29459 0.71383 0.54551
 H39 H 0.23540 0.77217 0.63467
 H40 H 0.27196 0.74249 0.63217
 H41 H 0.22913 0.75971 0.36946
 H42 H 0.26562 0.72900 0.36661
 H43 H 0.18097 0.81088 0.50608
 H44 H 0.32059 0.69174 0.49361
 C45 C 0.29135 0.28629 -0.54833
 C46 C 0.30200 0.29443 -0.50072
 C47 C 0.29183 0.28583 -0.45249
 C48 C 0.27055 0.26649 -0.45152
 C49 C 0.25971 0.25650 -0.49954
 C50 C 0.27008 0.26693 -0.54812
 C51 C 0.25836 0.26012 -0.59491
 C52 C 0.23702 0.24305 -0.59441
 C53 C 0.22646 0.23143 -0.54711
 C54 C 0.23784 0.23878 -0.49893
 C55 C 0.25927 0.25933 -0.40407
 C56 C 0.23788 0.24245 -0.40339
 C57 C 0.22691 0.23109 -0.45011
 C58 C 0.20452 0.21634 -0.44966
 C59 C 0.19352 0.21062 -0.49766
 C60 C 0.20404 0.21673 -0.54628
 H61 H 0.26527 0.26915 -0.63253
 H62 H 0.22860 0.24090 -0.63174
 H63 H 0.26654 0.26798 -0.36681
 H64 H 0.22976 0.24023 -0.36560
 H65 H 0.31824 0.30956 -0.50119
 H66 H 0.17667 0.19804 -0.49716
 C67 C -0.29106 0.70043 -0.45005
 C68 C -0.30138 0.69133 -0.49794
 C69 C -0.29315 0.70625 -0.54612
 C70 C -0.27313 0.73034 -0.54660
 C71 C -0.26181 0.73845 -0.49863
 C72 C -0.27086 0.72375 -0.45029
 C73 C -0.25902 0.73139 -0.40366
 C74 C -0.23979 0.75566 -0.40360
 C75 C -0.23085 0.77161 -0.45050
 C76 C -0.24172 0.76256 -0.49873
 C77 C -0.26516 0.74967 -0.59267
 C78 C -0.24568 0.77343 -0.59268
 C79 C -0.23306 0.77891 -0.54673
 C80 C -0.21314 0.80343 -0.54637
 C81 C -0.20317 0.81242 -0.49779
 C82 C -0.21164 0.79731 -0.45035
 H83 H -0.26444 0.71864 -0.36641
 H84 H -0.23211 0.76184 -0.36606
 H85 H -0.27425 0.74798 -0.62916
 H86 H -0.24113 0.78873 -0.62905
 H87 H -0.31680 0.67339 -0.49758
 H88 H -0.18774 0.83025 -0.49659
 O89 O -0.03129 0.92612 0.09995
 O90 O -0.05609 0.96097 0.04717
 C91 C -0.05142 0.93612 0.08597
 O92 O 0.03012 1.07404 0.09427
 O93 O 0.05532 1.03493 0.04741
 C94 C 0.05036 1.06365 0.08164
 O95 O -0.03208 1.06892 0.09715
 O96 O -0.05648 1.03074 0.04701
 C97 C -0.05210 1.05769 0.08373
 O98 O 0.03108 0.92153 0.09395
 O99 O 0.05590 0.96205 0.04748
 C100 C 0.05123 0.93309 0.08167
 Zr101 Zr -0.00020 0.94361 0.06718
 O102 O 0.00194 0.93859 0.14971
 O103 O -0.00280 0.87743 0.06169
 Zr104 Zr -0.00072 1.04977 0.06782
 O105 O 0.00130 1.04999 0.15083
 O106 O -0.00352 1.11601 0.06637
 O107 O -0.02031 0.99633 0.07751
 O108 O 0.01882 0.99707 0.07788
 O109 O 0.03217 0.92235 -0.09003
 O110 O 0.05636 0.96244 -0.04150
 C111 C 0.05216 0.93391 -0.07641
 O112 O -0.03099 1.06944 -0.09474
 O113 O -0.05597 1.03109 -0.04608
 C114 C -0.05117 1.05821 -0.08247
 O115 O 0.03130 1.07437 -0.08832
 O116 O 0.05598 1.03458 -0.04121
 C117 C 0.05142 1.06364 -0.07521
 O118 O -0.03026 0.92737 -0.09902
 O119 O -0.05561 0.96103 -0.04616
 C120 C -0.05052 0.93673 -0.08519
 Zr121 Zr 0.00053 0.94407 -0.06433
 O122 O 0.00342 0.93890 -0.14676
 O123 O -0.00217 0.87792 -0.05927
 Zr124 Zr 0.00004 1.05023 -0.06396
 O125 O 0.00288 1.05141 -0.14684
 O126 O -0.00291 1.11645 -0.06266
 Zr127 Zr -0.03361 0.99628 0.00089
 Zr128 Zr 0.03331 0.99771 0.00252
 O129 O 0.01965 0.99763 -0.07356
 O130 O -0.01946 0.99689 -0.07510
 O131 O 0.02036 0.93607 0.00189
 O132 O -0.01996 1.05718 0.00148
 O133 O -0.01957 0.93578 0.00089
 O134 O 0.01967 1.05869 0.00245
 H135 H 0.02858 0.99730 0.10921
 H136 H -0.03021 1.08156 0.00131
 H137 H 0.02967 0.99807 -0.10456
 H138 H -0.02996 0.91154 0.00058
 H139 H 0.00958 1.12722 0.04721
 H140 H 0.00988 1.12769 -0.04261
 H141 H -0.00938 1.03409 -0.16122
 H142 H -0.00337 0.96443 -0.16183
 H143 H 0.01203 0.86723 -0.04480
 H144 H 0.01150 0.86675 0.04752
 H145 H -0.00561 0.96351 0.16440
 H146 H -0.01135 1.03324 0.16453
 O147 O 0.46865 0.42852 0.09898
 O148 O 0.44435 0.46266 0.04428
 C149 C 0.44868 0.43844 0.08390
 O150 O 0.53122 0.57372 0.09234
 O151 O 0.55633 0.53339 0.04692
 C152 C 0.55148 0.56244 0.08060
 O153 O 0.46860 0.57068 0.09440
 O154 O 0.44440 0.53250 0.04382
 C155 C 0.44865 0.55949 0.08057
 O156 O 0.53092 0.42206 0.09402
 O157 O 0.55602 0.46194 0.04762
 C158 C 0.55115 0.43326 0.08195
 Zr159 Zr 0.49987 0.44439 0.06600
 O160 O 0.50147 0.43829 0.14851
 O161 O 0.49687 0.37834 0.06008
 Zr162 Zr 0.49997 0.55075 0.06602
 O163 O 0.50135 0.55172 0.14907
 O164 O 0.49745 0.61706 0.06479
 O165 O 0.48007 0.49765 0.07539
 O166 O 0.51907 0.49765 0.07692
 O167 O 0.53285 0.42130 -0.08978
 O168 O 0.55692 0.46161 -0.04120
 C169 C 0.55280 0.43271 -0.07571
 O170 O 0.47022 0.56980 -0.09709
 O171 O 0.44486 0.53192 -0.04868
 C172 C 0.44992 0.55888 -0.08511
 O173 O 0.53278 0.57429 -0.09006
 O174 O 0.55680 0.53415 -0.04144
 C175 C 0.55272 0.56297 -0.07606
 O176 O 0.47029 0.42787 -0.10003
 O177 O 0.44489 0.46266 -0.04822
 C178 C 0.45000 0.43787 -0.08683
 Zr179 Zr 0.50126 0.44427 -0.06556
 O180 O 0.50491 0.43977 -0.14794
 O181 O 0.49831 0.37811 -0.06092
 Zr182 Zr 0.50131 0.55064 -0.06599
 O183 O 0.50451 0.55125 -0.14878
 O184 O 0.49865 0.61690 -0.06518
 Zr185 Zr 0.46726 0.49746 -0.00174
 Zr186 Zr 0.53388 0.49769 0.00181
 O187 O 0.52067 0.49751 -0.07463
 O188 O 0.48164 0.49746 -0.07739
 O189 O 0.52069 0.43627 0.00131
 O190 O 0.48110 0.55822 -0.00103
 O191 O 0.48084 0.43661 -0.00076
 O192 O 0.52066 0.55901 0.00100
 H193 H 0.52860 0.49779 0.10864
 H194 H 0.47093 0.58272 -0.00162
 H195 H 0.53090 0.49757 -0.10523
 H196 H 0.47030 0.41261 -0.00111
 H197 H 0.51060 0.62806 0.04565
 H198 H 0.51140 0.62802 -0.04486
 H199 H 0.49211 0.53438 -0.16329
 H200 H 0.49693 0.46397 -0.16321
 H201 H 0.51214 0.36723 -0.04470
 H202 H 0.51131 0.36738 0.04713
 H203 H 0.49605 0.46506 0.16337
 H204 H 0.48881 0.53444 0.16236
 C205 C 0.32840 0.33500 0.32055
 C206 C 0.32003 0.36179 0.35958
 C207 C 0.30703 0.34592 0.40046
 C208 C 0.30230 0.30285 0.40359
 C209 C 0.31002 0.27605 0.36377
 C210 C 0.32280 0.29213 0.32212
 C211 C 0.34456 0.35148 0.28179
 N212 N 0.34686 0.33399 0.23342
 N213 N 0.36233 0.34821 0.20000
 C214 C 0.37622 0.38001 0.21408
 N215 N 0.37385 0.39743 0.26231
 N216 N 0.35826 0.38363 0.29534
 C217 C 0.39452 0.39401 0.17951
 C218 C 0.41523 0.40416 0.20170
 C219 C 0.43282 0.41773 0.17012
 C220 C 0.42994 0.42253 0.11581
 C221 C 0.40913 0.41293 0.09342
 C222 C 0.39161 0.39806 0.12503
 H223 H 0.32399 0.39497 0.35919
 H224 H 0.30127 0.36708 0.43086
 H225 H 0.30681 0.24263 0.36593
 H226 H 0.32924 0.27078 0.29273
 H227 H 0.41788 0.40122 0.24358
 H228 H 0.44862 0.42532 0.18842
 H229 H 0.40653 0.41651 0.05160
 H230 H 0.37569 0.39069 0.10724
 C231 C -0.17420 0.84625 0.32492
 C232 C -0.17892 0.87272 0.36739
 C233 C -0.19279 0.85934 0.40801
 C234 C -0.20227 0.81879 0.40785
 C235 C -0.19825 0.79289 0.36390
 C236 C -0.18453 0.80669 0.32260
 C237 C -0.15697 0.85893 0.28644
 N238 N -0.15734 0.84529 0.23588
 N239 N -0.14121 0.85644 0.20234
 C240 C -0.12399 0.88109 0.21843
 N241 N -0.12367 0.89453 0.26891
 N242 N -0.13986 0.88385 0.30210
 C243 C -0.10550 0.89258 0.18281
 C244 C -0.08390 0.89695 0.20320
 C245 C -0.06631 0.90981 0.17109
 C246 C -0.07000 0.91950 0.11806
 C247 C -0.09161 0.91500 0.09738
 C248 C -0.10920 0.90102 0.12940
 H249 H -0.17143 0.90362 0.36984
 H250 H -0.19585 0.88075 0.44025
 H251 H -0.20440 0.76092 0.36296
 H252 H -0.18092 0.78549 0.29049
 H253 H -0.08060 0.89051 0.24421
 H254 H -0.04990 0.91341 0.18828
 H255 H -0.09489 0.92240 0.05662
 H256 H -0.12577 0.89811 0.11292
 C257 C 0.66585 0.67741 0.32317
 C258 C 0.65703 0.69647 0.36828
 C259 C 0.67069 0.70630 0.41056
 C260 C 0.69377 0.69840 0.40877
 C261 C 0.70279 0.67995 0.36314
 C262 C 0.68891 0.66930 0.32086
 C263 C 0.65055 0.66479 0.28038
 N264 N 0.65659 0.63573 0.24403
 N265 N 0.64196 0.62227 0.20836
 C266 C 0.62076 0.63743 0.20752
 N267 N 0.61493 0.66698 0.24331
 N268 N 0.62947 0.68030 0.27894
 C269 C 0.60380 0.62039 0.17091
 C270 C 0.58197 0.63647 0.17145
 C271 C 0.56531 0.61822 0.14097
 C272 C 0.56995 0.58348 0.10891
 C273 C 0.59199 0.56832 0.10656
 C274 C 0.60874 0.58661 0.13735
 H275 H 0.63936 0.70297 0.37163
 H276 H 0.66316 0.72068 0.44482
 H277 H 0.72037 0.67222 0.36101
 H278 H 0.69617 0.65438 0.28668
 H279 H 0.57752 0.66268 0.19635
 H280 H 0.54859 0.63093 0.14336
 H281 H 0.59621 0.54164 0.08217
 H282 H 0.62543 0.57365 0.13587
 C283 C 0.16417 1.18363 0.32241
 C284 C 0.15595 1.21040 0.36173
 C285 C 0.16929 1.22191 0.40408
 C286 C 0.19146 1.20771 0.40804
 C287 C 0.19983 1.18139 0.36817
 C288 C 0.18632 1.16949 0.32585
 C289 C 0.14913 1.16930 0.27984
 N290 N 0.15487 1.13727 0.24726
 N291 N 0.14045 1.12273 0.21176
 C292 C 0.11973 1.13971 0.20739
 N293 N 0.11424 1.17218 0.23932
 N294 N 0.12858 1.18662 0.27471
 C295 C 0.10276 1.12197 0.17126
 C296 C 0.08105 1.13866 0.17104
 C297 C 0.06429 1.12044 0.14080
 C298 C 0.06877 1.08510 0.10963
 C299 C 0.09063 1.06918 0.10821
 C300 C 0.10746 1.08728 0.13896
 H301 H 0.13894 1.22183 0.36061
 H302 H 0.16224 1.24234 0.43379
 H303 H 0.21649 1.16844 0.37091
 H304 H 0.19311 1.14861 0.29639
 H305 H 0.07677 1.16530 0.19537
 H306 H 0.04768 1.13371 0.14273
 H307 H 0.09457 1.04193 0.08461
 H308 H 0.12395 1.07346 0.13827
 C309 C 0.67001 0.32830 -0.31719
 C310 C 0.67522 0.35687 -0.35732
 C311 C 0.68792 0.34434 -0.40048
 C312 C 0.69643 0.30326 -0.40386
 C313 C 0.69165 0.27489 -0.36286
 C314 C 0.67835 0.28718 -0.32027
 C315 C 0.65499 0.34115 -0.27403
 N316 N 0.64083 0.31306 -0.25149
 N317 N 0.62600 0.32542 -0.21564
 C318 C 0.62490 0.36625 -0.20052
 N319 N 0.63934 0.39417 -0.22237
 N320 N 0.65401 0.38191 -0.25861
 C321 C 0.60730 0.38070 -0.16402
 C322 C 0.61027 0.41736 -0.13427
 C323 C 0.59290 0.43291 -0.10326
 C324 C 0.57198 0.41290 -0.10262
 C325 C 0.56926 0.37545 -0.13102
 C326 C 0.58681 0.35935 -0.16110
 H327 H 0.66884 0.38864 -0.35623
 H328 H 0.69138 0.36705 -0.43114
 H329 H 0.69738 0.24269 -0.36488
 H330 H 0.67443 0.26447 -0.28993
 H331 H 0.62593 0.43437 -0.13551
 H332 H 0.59559 0.46151 -0.08132
 H333 H 0.55342 0.35899 -0.13088
 H334 H 0.58402 0.33113 -0.18383
 C335 C 0.17097 0.82499 -0.31262
 C336 C 0.18448 0.85440 -0.33907
 C337 C 0.19739 0.84218 -0.38221
 C338 C 0.19723 0.80034 -0.39904
 C339 C 0.18451 0.77058 -0.37168
 C340 C 0.17146 0.78278 -0.32883
 C341 C 0.15529 0.83865 -0.27094
 N342 N 0.13834 0.81315 -0.25536
 N343 N 0.12318 0.82634 -0.22083
 C344 C 0.12438 0.86555 -0.20019
 N345 N 0.14154 0.89088 -0.21513
 N346 N 0.15664 0.87774 -0.24990
 C347 C 0.10659 0.88118 -0.16479
 C348 C 0.10965 0.91805 -0.13543
 C349 C 0.09220 0.93435 -0.10514
 C350 C 0.07124 0.91447 -0.10421
 C351 C 0.06837 0.87706 -0.13255
 C352 C 0.08590 0.86040 -0.16213
 H353 H 0.18443 0.88715 -0.32778
 H354 H 0.20701 0.86551 -0.40342
 H355 H 0.18413 0.73821 -0.38462
 H356 H 0.16133 0.75933 -0.30920
 H357 H 0.12544 0.93463 -0.13637
 H358 H 0.09494 0.96324 -0.08376
 H359 H 0.05246 0.86088 -0.13244
 H360 H 0.08299 0.83191 -0.18424
 C361 C 0.33568 0.67895 -0.32613
 C362 C 0.31301 0.66749 -0.32655
 C363 C 0.29909 0.68014 -0.36783
 C364 C 0.30760 0.70441 -0.40968
 C365 C 0.33027 0.71599 -0.40860
 C366 C 0.34400 0.70388 -0.36729
 C367 C 0.35112 0.66383 -0.28480
 N368 N 0.37223 0.67912 -0.28257
 N369 N 0.38680 0.66412 -0.24811
 C370 C 0.38098 0.63306 -0.21425
 N371 N 0.35974 0.61799 -0.21585
 N372 N 0.34509 0.63310 -0.25044
 C373 C 0.39798 0.61507 -0.17844
 C374 C 0.39280 0.58237 -0.14323
 C375 C 0.40951 0.56440 -0.11195
 C376 C 0.43169 0.57872 -0.11549
 C377 C 0.43665 0.61191 -0.14995
 C378 C 0.42007 0.62983 -0.18083
 H379 H 0.30611 0.64811 -0.29555
 H380 H 0.28196 0.66924 -0.36822
 H381 H 0.33743 0.73486 -0.43984
 H382 H 0.36135 0.71335 -0.36845
 H383 H 0.37594 0.57031 -0.14034
 H384 H 0.40513 0.53885 -0.08578
 H385 H 0.45349 0.62397 -0.15358
 H386 H 0.42476 0.65496 -0.20732
 C387 C -0.16613 1.18057 -0.31962
 C388 C -0.18868 1.16834 -0.32127
 C389 C -0.20237 1.18100 -0.36299
 C390 C -0.19371 1.20582 -0.40416
 C391 C -0.17123 1.21851 -0.40154
 C392 C -0.15776 1.20647 -0.35976
 C393 C -0.15078 1.16511 -0.27831
 N394 N -0.12988 1.18124 -0.27483
 N395 N -0.11525 1.16577 -0.24087
 C396 C -0.12078 1.13336 -0.20878
 N397 N -0.14184 1.11749 -0.21149
 N398 N -0.15656 1.13307 -0.24560
 C399 C -0.10360 1.11483 -0.17389
 C400 C -0.10859 1.08182 -0.13899
 C401 C -0.09172 1.06363 -0.10837
 C402 C -0.06956 1.07801 -0.11236
 C403 C -0.06477 1.11132 -0.14675
 C404 C -0.08150 1.12949 -0.17689
 H405 H -0.19562 1.14828 -0.29100
 H406 H -0.21939 1.16953 -0.36441
 H407 H -0.16400 1.23796 -0.43211
 H408 H -0.14050 1.21657 -0.35994
 H409 H -0.12544 1.06978 -0.13573
 H410 H -0.09596 1.03793 -0.08232
 H411 H -0.04794 1.12334 -0.15088
 H412 H -0.07693 1.15472 -0.20331
 C413 C 0.67122 0.66411 -0.31668
 C414 C 0.67707 0.63450 -0.35504
 C415 C 0.68984 0.64636 -0.39851
 C416 C 0.69781 0.68776 -0.40368
 C417 C 0.69237 0.71712 -0.36439
 C418 C 0.67905 0.70547 -0.32159
 C419 C 0.65591 0.65226 -0.27363
 N420 N 0.64138 0.68066 -0.25332
 N421 N 0.62631 0.66909 -0.21754
 C422 C 0.62535 0.62879 -0.20023
 N423 N 0.64016 0.60061 -0.21983
 N424 N 0.65506 0.61206 -0.25601
 C425 C 0.60757 0.61495 -0.16383
 C426 C 0.61067 0.57950 -0.13193
 C427 C 0.59313 0.56388 -0.10138
 C428 C 0.57195 0.58276 -0.10311
 C429 C 0.56906 0.61901 -0.13384
 C430 C 0.58677 0.63521 -0.16345
 H431 H 0.67109 0.60246 -0.35246
 H432 H 0.69365 0.62301 -0.42811
 H433 H 0.69750 0.74962 -0.36806
 H434 H 0.67466 0.72893 -0.29264
 H435 H 0.62659 0.56344 -0.13121
 H436 H 0.59596 0.53615 -0.07783
 H437 H 0.55297 0.63437 -0.13586
 H438 H 0.58388 0.66249 -0.18787
 C439 C 0.16540 1.18369 -0.31648
 C440 C 0.15717 1.21086 -0.35525
 C441 C 0.17029 1.22210 -0.39818
 C442 C 0.19231 1.20737 -0.40330
 C443 C 0.20080 1.18077 -0.36386
 C444 C 0.18745 1.16895 -0.32098
 C445 C 0.15041 1.16956 -0.27353
 N446 N 0.15584 1.13668 -0.24203
 N447 N 0.14141 1.12235 -0.20624
 C448 C 0.12099 1.14036 -0.20047
 N449 N 0.11578 1.17361 -0.23141
 N450 N 0.13015 1.18785 -0.26710
 C451 C 0.10405 1.12277 -0.16392
 C452 C 0.08243 1.13977 -0.16272
 C453 C 0.06569 1.12121 -0.13253
 C454 C 0.07007 1.08525 -0.10240
 C455 C 0.09195 1.06927 -0.10142
 C456 C 0.10876 1.08777 -0.13212
 H457 H 0.14027 1.22274 -0.35333
 H458 H 0.16318 1.24273 -0.42754
 H459 H 0.21738 1.16755 -0.36738
 H460 H 0.19423 1.14769 -0.29196
 H461 H 0.07816 1.16688 -0.18627
 H462 H 0.04912 1.13466 -0.13369
 H463 H 0.09594 1.04179 -0.07828
 H464 H 0.12530 1.07411 -0.13185
 C465 C 0.33046 0.33283 -0.32348
 C466 C 0.32452 0.29013 -0.32493
 C467 C 0.31123 0.27462 -0.36582
 C468 C 0.30330 0.30185 -0.40494
 C469 C 0.30836 0.34478 -0.40181
 C470 C 0.32192 0.36006 -0.36179
 C471 C 0.34699 0.34874 -0.28542
 N472 N 0.36109 0.38013 -0.29973
 N473 N 0.37677 0.39373 -0.26704
 C474 C 0.37885 0.37687 -0.21839
 N475 N 0.36459 0.34576 -0.20363
 N476 N 0.34904 0.33173 -0.23670
 C477 C 0.39696 0.39124 -0.18363
 C478 C 0.39372 0.39526 -0.12922
 C479 C 0.41091 0.41075 -0.09737
 C480 C 0.43175 0.42105 -0.11934
 C481 C 0.43502 0.41628 -0.17355
 C482 C 0.41771 0.40209 -0.20545
 H483 H 0.33107 0.26846 -0.29608
 H484 H 0.30774 0.24131 -0.36796
 H485 H 0.30240 0.36629 -0.43161
 H486 H 0.32613 0.39313 -0.36144
 H487 H 0.37777 0.38747 -0.11164
 H488 H 0.40802 0.41440 -0.05563
 H489 H 0.45085 0.42452 -0.19151
 H490 H 0.42060 0.39933 -0.24730
 C491 C -0.17185 0.83770 -0.31988
 C492 C -0.17557 0.79464 -0.32797
 C493 C -0.18917 0.78109 -0.36930
 C494 C -0.19980 0.81048 -0.40189
 C495 C -0.19686 0.85346 -0.39202
 C496 C -0.18290 0.86694 -0.35171
 C497 C -0.15497 0.85236 -0.28206
 N498 N -0.14187 0.88577 -0.29430
 N499 N -0.12580 0.89824 -0.26193
 C500 C -0.12237 0.87816 -0.21570
 N501 N -0.13563 0.84501 -0.20298
 N502 N -0.15154 0.83211 -0.23581
 C503 C -0.10397 0.89142 -0.18131
 C504 C -0.10682 0.89398 -0.12668
 C505 C -0.08945 0.90884 -0.09498
 C506 C -0.06882 0.91991 -0.11745
 C507 C -0.06586 0.91616 -0.17188
 C508 C -0.08338 0.90266 -0.20360
 H509 H -0.16699 0.77154 -0.30424
 H510 H -0.19079 0.74780 -0.37698
 H511 H -0.20475 0.87663 -0.41698
 H512 H -0.18034 0.90030 -0.34612
 H513 H -0.12263 0.88560 -0.10881
 H514 H -0.09205 0.91142 -0.05301
 H515 H -0.05014 0.92474 -0.19010
 H516 H -0.08080 0.90075 -0.24563
 C517 C 0.33085 0.67688 0.31422
 C518 C 0.33574 0.71387 0.34210
 C519 C 0.32262 0.72607 0.38469
 C520 C 0.30418 0.70189 0.39997
 C521 C 0.29865 0.66582 0.37127
 C522 C 0.31187 0.65340 0.32861
 C523 C 0.34646 0.66178 0.27307
 N524 N 0.34298 0.62481 0.24773
 N525 N 0.35802 0.61004 0.21379
 C526 C 0.37719 0.63158 0.20393
 N527 N 0.38045 0.66877 0.22870
 N528 N 0.36544 0.68353 0.26246
 C529 C 0.39484 0.61411 0.16942
 C530 C 0.41605 0.63296 0.16815
 C531 C 0.43329 0.61548 0.13860
 C532 C 0.42975 0.57889 0.10907
 C533 C 0.40840 0.56050 0.10905
 C534 C 0.39113 0.57783 0.13920
 H535 H 0.35018 0.73278 0.33219
 H536 H 0.32722 0.75377 0.40681
 H537 H 0.28458 0.64657 0.38307
 H538 H 0.30762 0.62476 0.30805
 H539 H 0.41958 0.66082 0.19099
 H540 H 0.44950 0.63054 0.13932
 H541 H 0.40521 0.53214 0.08688
 H542 H 0.37497 0.56257 0.13931
 C543 C -0.16782 1.17602 0.32203
 C544 C -0.15983 1.20486 0.35919
 C545 C -0.17303 1.21704 0.40149
 C546 C -0.19491 1.20164 0.40748
 C547 C -0.20318 1.17341 0.36962
 C548 C -0.18974 1.16066 0.32738
 C549 C -0.15267 1.16100 0.27997
 N550 N -0.15756 1.12655 0.25066
 N551 N -0.14287 1.11165 0.21589
 C552 C -0.12272 1.13065 0.20907
 N553 N -0.11809 1.16543 0.23775
 N554 N -0.13270 1.18023 0.27238
 C555 C -0.10542 1.11297 0.17368
 C556 C -0.08402 1.13108 0.17258
 C557 C -0.06700 1.11342 0.14265
 C558 C -0.07086 1.07725 0.11257
 C559 C -0.09242 1.05966 0.11214
 C560 C -0.10953 1.07728 0.14264
 H561 H -0.14303 1.21730 0.35658
 H562 H -0.16609 1.23883 0.42976
 H563 H -0.21963 1.15968 0.37402
 H564 H -0.19634 1.13822 0.29954
 H565 H -0.08017 1.15861 0.19576
 H566 H -0.05067 1.12803 0.14352
 H567 H -0.09590 1.03175 0.08934
 H568 H -0.12585 1.06262 0.14249
 C569 C 0.66716 0.31807 0.32064
 C570 C 0.66163 0.28358 0.35275
 C571 C 0.67515 0.27260 0.39512
 C572 C 0.69456 0.29550 0.40590
 C573 C 0.70062 0.32903 0.37311
 C574 C 0.68704 0.34019 0.33070
 C575 C 0.65154 0.33215 0.27912
 N576 N 0.65588 0.36692 0.24980
 N577 N 0.64106 0.38091 0.21497
 C578 C 0.62128 0.36073 0.20809
 N579 N 0.61710 0.32576 0.23699
 N580 N 0.63189 0.31178 0.27170
 C581 C 0.60401 0.37759 0.17226
 C582 C 0.58258 0.35955 0.17156
 C583 C 0.56562 0.37708 0.14132
 C584 C 0.56967 0.41294 0.11062
 C585 C 0.59128 0.43019 0.10970
 C586 C 0.60827 0.41277 0.14036
 H587 H 0.64652 0.26569 0.34612
 H588 H 0.67021 0.24678 0.42033
 H589 H 0.71550 0.34720 0.38125
 H590 H 0.69183 0.36680 0.30669
 H591 H 0.57870 0.33236 0.19543
 H592 H 0.54921 0.36280 0.14264
 H593 H 0.59493 0.45783 0.08640
 H594 H 0.62461 0.42732 0.13971
 C595 C 0.16609 0.81868 0.32385
 C596 C 0.18663 0.83907 0.33230
 C597 C 0.20021 0.82750 0.37450
 C598 C 0.19351 0.79535 0.40875
 C599 C 0.17331 0.77440 0.39988
 C600 C 0.15979 0.78577 0.35772
 C601 C 0.15074 0.83270 0.28178
 N602 N 0.13104 0.81254 0.27412
 N603 N 0.11652 0.82630 0.23869
 C604 C 0.12101 0.86085 0.20926
 N605 N 0.14084 0.88081 0.21637
 N606 N 0.15541 0.86700 0.25190
 C607 C 0.10395 0.87758 0.17271
 C608 C 0.10817 0.91335 0.14179
 C609 C 0.09128 0.93071 0.11069
 C610 C 0.06982 0.91281 0.11024
 C611 C 0.06585 0.87639 0.13996
 C612 C 0.08271 0.85888 0.17053
 H613 H 0.19201 0.86446 0.30697
 H614 H 0.21571 0.84419 0.38120
 H615 H 0.16787 0.74967 0.42620
 H616 H 0.14412 0.76935 0.35249
 H617 H 0.12436 0.92847 0.14240
 H618 H 0.09484 0.95886 0.08833
 H619 H 0.04954 0.86167 0.14037
 H620 H 0.07886 0.83121 0.19357
   
