data_POSCAR
  _audit_creation_date              2014-09-24
  _audit_creation_method            'ToBaCCo'
  _symmetry_space_group_name_H-M    'P1'
  _symmetry_Int_Tables_number       1
  _symmetry_cell_setting            triclinic
  loop_
  _symmetry_equiv_pos_as_xyz
 x,y,z
_cell_length_a 36.1307
_cell_length_b 36.0538
_cell_length_c 38.1160
_cell_angle_alpha 90.162300
_cell_angle_beta 89.922500
_cell_angle_gamma 118.785900
loop_
  _atom_site_label
  _atom_site_type_symbol
  _atom_site_fract_x
  _atom_site_fract_y
  _atom_site_fract_z
C1 C -0.00054 0.49074 1.34487
 C2 C 0.03747 0.51822 1.32768
 C3 C 0.03697 0.52053 1.29078
 C4 C 0.00054 0.49447 1.27102
 C5 C -0.03646 0.46652 1.28929
 C6 C -0.03807 0.46523 1.32623
 C7 C 0.00105 0.49660 1.23151
 C8 C -0.03684 0.48259 1.21223
 C9 C -0.03671 0.48291 1.17540
 C10 C 0.00191 0.50060 1.15758
 C11 C 0.04011 0.51627 1.17585
 C12 C 0.03940 0.51266 1.21255
 H13 H -0.00095 0.48931 1.37309
 H14 H 0.06468 0.54436 1.27765
 H15 H -0.06383 0.44413 1.27484
 H16 H -0.06685 0.47079 1.22544
 H17 H 0.00224 0.50208 1.12917
 H18 H 0.06909 0.52296 1.22594
 C19 C 0.50444 0.50383 1.34664
 C20 C 0.48749 0.52669 1.32927
 C21 C 0.49093 0.52968 1.29238
 C22 C 0.50649 0.50681 1.27273
 C23 C 0.52079 0.48231 1.29134
 C24 C 0.52180 0.48190 1.32826
 C25 C 0.50692 0.50756 1.23305
 C26 C 0.53166 0.49389 1.21370
 C27 C 0.53058 0.49240 1.17691
 C28 C 0.50694 0.50758 1.15887
 C29 C 0.48334 0.52280 1.17705
 C30 C 0.48240 0.52152 1.21385
 H31 H 0.50715 0.50608 1.37488
 H32 H 0.47971 0.54848 1.27896
 H33 H 0.52942 0.46164 1.27729
 H34 H 0.55251 0.48469 1.22665
 H35 H 0.50677 0.50738 1.13045
 H36 H 0.46153 0.53073 1.22681
 C37 C 0.48757 0.99742 1.34240
 C38 C 0.46585 0.95990 1.32332
 C39 C 0.46751 0.96113 1.28664
 C40 C 0.49301 0.99922 1.26846
 C41 C 0.51602 1.03644 1.28876
 C42 C 0.51202 1.03647 1.32565
 C43 C 0.49492 1.00023 1.22875
 C44 C 0.51157 1.03888 1.21010
 C45 C 0.51371 1.03999 1.17332
 C46 C 0.49647 1.00191 1.15452
 C47 C 0.47840 0.96302 1.17198
 C48 C 0.47931 0.96246 1.20879
 H49 H 0.48705 0.99547 1.37074
 H50 H 0.44800 0.93189 1.27300
 H51 H 0.53587 1.06597 1.27598
 H52 H 0.52226 1.06871 1.22340
 H53 H 0.49779 1.00249 1.12612
 H54 H 0.46692 0.93203 1.22126
 C55 C 0.99934 0.50184 0.65581
 C56 C 0.96199 0.47576 0.67389
 C57 C 0.96276 0.47330 0.71052
 C58 C 0.99992 0.49861 0.72976
 C59 C 1.03681 0.52566 0.71079
 C60 C 1.03760 0.52646 0.67376
 C61 C 1.00034 0.49678 0.76928
 C62 C 1.03869 0.51143 0.78795
 C63 C 1.03944 0.51071 0.82474
 C64 C 1.00125 0.49248 0.84322
 C65 C 0.96262 0.47628 0.82554
 C66 C 0.96243 0.47998 0.78889
 H67 H 0.99829 0.50148 0.62748
 H68 H 0.93410 0.45079 0.72342
 H69 H 1.06479 0.54776 0.72472
 H70 H 1.06843 0.52290 0.77436
 H71 H 1.00154 0.49184 0.87163
 H72 H 0.93233 0.46911 0.77611
 C73 C 0.50438 0.50400 0.65261
 C74 C 0.52906 0.48994 0.67063
 C75 C 0.52975 0.49099 0.70744
 C76 C 0.50365 0.50284 0.72676
 C77 C 0.47814 0.51559 0.70772
 C78 C 0.47938 0.51755 0.67092
 C79 C 0.50261 0.50125 0.76631
 C80 C 0.48614 0.52327 0.78609
 C81 C 0.48286 0.51976 0.82278
 C82 C 0.49915 0.49671 0.84029
 C83 C 0.51703 0.47578 0.82164
 C84 C 0.51745 0.47705 0.78485
 H85 H 0.50449 0.50422 0.62420
 H86 H 0.55128 0.48280 0.72052
 H87 H 0.45630 0.52332 0.72094
 H88 H 0.47511 0.54285 0.77344
 H89 H 0.49870 0.49586 0.86871
 H90 H 0.52872 0.45816 0.77122
 C91 C 0.49850 0.00294 0.65870
 C92 C 0.51433 0.04077 0.67766
 C93 C 0.51368 0.03948 0.71435
 C94 C 0.50017 0.00104 0.73262
 C95 C 0.48568 -0.03660 0.71261
 C96 C 0.48262 -0.03650 0.67560
 C97 C 0.50069 0.00035 0.77225
 C98 C 0.47559 -0.03724 0.79125
 C99 C 0.47610 -0.03831 0.82832
 C100 C 0.50022 0.00019 0.84633
 C101 C 0.52449 0.03809 0.82827
 C102 C 0.52582 0.03761 0.79157
 H103 H 0.50075 0.00481 0.63038
 H104 H 0.52330 0.06889 0.72816
 H105 H 0.47525 -0.06627 0.72587
 H106 H 0.45374 -0.06549 0.77746
 H107 H 0.50142 0.00107 0.87466
 H108 H 0.54712 0.06674 0.77855
 O109 O 0.39720 0.65838 0.96928
 O110 O 0.39181 0.72738 0.95860
 C111 C 0.37059 0.74632 0.95303
 O112 O 0.33754 0.73896 0.97007
 O113 O 0.26939 0.66630 0.95998
 C114 C 0.25147 0.62687 0.95406
 O115 O 0.25968 0.60135 0.97080
 O116 O 0.33252 0.60486 0.95916
 C117 C 0.37169 0.62525 0.95275
 O118 O 0.39594 0.67022 1.03904
 O119 O 0.39400 0.74090 1.02819
 C120 C 0.36722 0.74701 1.04523
 O121 O 0.32779 0.72652 1.03984
 O122 O 0.25782 0.65538 1.02988
 C123 C 0.25300 0.62293 1.04659
 O124 O 0.27395 0.60388 1.04028
 O125 O 0.34525 0.60405 1.02866
 C126 C 0.37746 0.63089 1.04533
 Cr127 Cr 0.39232 0.69795 0.99880
 Cr128 Cr 0.29941 0.69561 0.99993
 Cr129 Cr 0.30398 0.60597 0.99971
 O130 O 0.33191 0.66653 0.99949
 O131 O 0.60554 0.34376 0.96997
 O132 O 0.60836 0.27305 0.96141
 C133 C 0.62865 0.25297 0.95651
 O134 O 0.66134 0.25979 0.97382
 O135 O 0.73093 0.33040 0.96215
 C136 C 0.74980 0.36940 0.95466
 O137 O 0.74260 0.39662 0.96985
 O138 O 0.67065 0.39506 0.95786
 C139 C 0.63129 0.37541 0.95219
 O140 O 0.60769 0.33528 1.03995
 O141 O 0.60649 0.26265 1.03124
 C142 C 0.63254 0.25607 1.04875
 O143 O 0.67197 0.27534 1.04333
 O144 O 0.74311 0.34461 1.03168
 C145 C 0.74958 0.37863 1.04681
 O146 O 0.72995 0.39866 1.03925
 O147 O 0.65954 0.40018 1.02734
 C148 C 0.62745 0.37493 1.04497
 Cr149 Cr 0.60943 0.30490 1.00065
 Cr150 Cr 0.70062 0.30379 1.00268
 Cr151 Cr 0.69947 0.39519 0.99864
 O152 O 0.66989 0.33463 1.00067
 O153 O 0.66576 0.39862 0.52520
 O154 O 0.73326 0.39101 0.53633
 C155 C 0.75044 0.36858 0.54372
 O156 O 0.74142 0.33388 0.52851
 O157 O 0.66794 0.26832 0.54120
 C158 C 0.62878 0.25175 0.54740
 O159 O 0.60388 0.26026 0.53011
 O160 O 0.61127 0.33560 0.53872
 C161 C 0.63302 0.37524 0.54304
 O162 O 0.67480 0.39178 0.45563
 O163 O 0.74417 0.38734 0.46676
 C164 C 0.74863 0.35836 0.45158
 O165 O 0.72723 0.31953 0.45918
 O166 O 0.65499 0.25239 0.47178
 C167 C 0.62305 0.24833 0.45478
 O168 O 0.60530 0.27073 0.46019
 O169 O 0.60854 0.34417 0.46896
 C170 C 0.63531 0.37483 0.45085
 Cr171 Cr 0.70319 0.38978 0.49607
 Cr172 Cr 0.69681 0.29491 0.50011
 Cr173 Cr 0.60965 0.30370 0.49945
 O174 O 0.66994 0.32948 0.49853
 O175 O 0.32781 0.60708 0.53996
 O176 O 0.25649 0.60806 0.52999
 C177 C 0.25101 0.63494 0.54773
 O178 O 0.27168 0.67443 0.54269
 O179 O 0.34132 0.74497 0.53094
 C180 C 0.37409 0.75019 0.54729
 O181 O 0.39299 0.72916 0.54086
 O182 O 0.39359 0.65799 0.52867
 C183 C 0.36725 0.62538 0.54535
 O184 O 0.33900 0.60560 0.47030
 O185 O 0.26958 0.61025 0.46016
 C186 C 0.24961 0.63060 0.45544
 O187 O 0.25607 0.66294 0.47332
 O188 O 0.32747 0.73126 0.46154
 C189 C 0.36657 0.75010 0.45486
 O190 O 0.39336 0.74331 0.47124
 O191 O 0.39106 0.67079 0.45929
 C192 C 0.37170 0.63138 0.45350
 Cr193 Cr 0.29938 0.61008 0.50013
 Cr194 Cr 0.30032 0.70219 0.50209
 Cr195 Cr 0.39040 0.69921 0.50006
 O196 O 0.33008 0.67049 0.50080
 C197 C 0.42520 0.58126 0.38783
 C198 C 0.44428 0.59913 0.35582
 C199 C 0.46488 0.58145 0.33634
 C200 C 0.46707 0.54554 0.34870
 C201 C 0.44726 0.52800 0.38113
 C202 C 0.42670 0.54568 0.40032
 C203 C 0.40531 0.59988 0.40892
 C204 C 0.38933 0.61460 0.42833
 H205 H 0.44376 0.62708 0.34610
 H206 H 0.48051 0.59741 0.31245
 H207 H 0.44595 0.49946 0.39140
 H208 H 0.41185 0.53144 0.42503
 C209 C 0.40804 0.84607 0.38403
 C210 C 0.43132 0.84813 0.35401
 C211 C 0.44852 0.88450 0.33314
 C212 C 0.44278 0.91922 0.34230
 C213 C 0.41796 0.91613 0.37172
 C214 C 0.40074 0.87979 0.39244
 C215 C 0.39355 0.81072 0.40755
 C216 C 0.38146 0.78239 0.42858
 H217 H 0.43721 0.82220 0.34733
 H218 H 0.46785 0.88626 0.31080
 H219 H 0.41273 0.94227 0.37914
 H220 H 0.38268 0.87846 0.41557
 C221 C 0.14982 0.58354 0.38793
 C222 C 0.11090 0.57471 0.40232
 C223 C 0.07413 0.55453 0.38227
 C224 C 0.07530 0.54236 0.34713
 C225 C 0.11533 0.55330 0.33253
 C226 C 0.15210 0.57340 0.35285
 C227 C 0.18673 0.60119 0.40999
 C228 C 0.21624 0.61502 0.42998
 H229 H 0.10884 0.58299 0.42935
 H230 H 0.04504 0.54946 0.39447
 H231 H 0.11838 0.54411 0.30610
 H232 H 0.18213 0.57999 0.34144
 C233 C 0.58145 0.42379 0.38501
 C234 C 0.54807 0.42747 0.39997
 C235 C 0.52777 0.44557 0.38111
 C236 C 0.54048 0.46070 0.34658
 C237 C 0.57350 0.45541 0.33145
 C238 C 0.59385 0.43734 0.35059
 C239 C 0.60296 0.40675 0.40577
 C240 C 0.61911 0.39237 0.42524
 H241 H 0.53778 0.41649 0.42648
 H242 H 0.50137 0.44655 0.39362
 H243 H 0.58552 0.46725 0.30553
 H244 H 0.61977 0.43471 0.33875
 C245 C 0.56947 0.14910 0.38682
 C246 C 0.58776 0.14723 0.35499
 C247 C 0.56892 0.11041 0.33448
 C248 C 0.53147 0.07449 0.34570
 C249 C 0.51337 0.07755 0.37781
 C250 C 0.53219 0.11432 0.39801
 C251 C 0.58932 0.18578 0.40907
 C252 C 0.60503 0.21511 0.42924
 H253 H 0.61695 0.17396 0.34627
 H254 H 0.58517 0.10987 0.31081
 H255 H 0.48367 0.05214 0.38711
 H256 H 0.51759 0.11556 0.42253
 C257 C 0.84771 0.39877 0.38373
 C258 C 0.84679 0.41166 0.34934
 C259 C 0.88408 0.43175 0.32969
 C260 C 0.92334 0.44004 0.34437
 C261 C 0.92302 0.42471 0.37856
 C262 C 0.88570 0.40450 0.39794
 C263 C 0.81076 0.38268 0.40570
 C264 C 0.78143 0.37079 0.42579
 H265 H 0.81751 0.40755 0.33812
 H266 H 0.88219 0.44333 0.30397
 H267 H 0.95141 0.42766 0.39058
 H268 H 0.88671 0.39417 0.42442
 C269 C 0.58579 0.43218 1.11492
 C270 C 0.56537 0.41377 1.14644
 C271 C 0.54894 0.43428 1.16746
 C272 C 0.55258 0.47332 1.15702
 C273 C 0.57441 0.49217 1.12590
 C274 C 0.59085 0.47170 1.10501
 C275 C 0.60010 0.41014 1.09174
 C276 C 0.61223 0.39303 1.07102
 H277 H 0.56124 0.38317 1.15433
 H278 H 0.53190 0.41884 1.19111
 H279 H 0.57810 0.52242 1.11743
 H280 H 0.60676 0.48631 1.08073
 C281 C 0.84880 0.42795 1.11479
 C282 C 0.85247 0.45321 1.14398
 C283 C 0.88950 0.47086 1.16416
 C284 C 0.92325 0.46358 1.15513
 C285 C 0.91886 0.43766 1.12605
 C286 C 0.88197 0.42006 1.10607
 C287 C 0.81192 0.41091 1.09271
 C288 C 0.78255 0.39627 1.07257
 H289 H 0.82702 0.45964 1.15089
 H290 H 0.89212 0.49088 1.18629
 H291 H 0.94400 0.43090 1.11881
 H292 H 0.87946 0.40052 1.08358
 C293 C 0.57654 0.15640 1.11568
 C294 C 0.59438 0.15152 1.14672
 C295 C 0.57339 0.11404 1.16604
 C296 C 0.53442 0.08098 1.15438
 C297 C 0.51638 0.08664 1.12358
 C298 C 0.53732 0.12407 1.10440
 C299 C 0.59870 0.19354 1.09428
 C300 C 0.61547 0.22312 1.07452
 H301 H 0.62478 0.17628 1.15562
 H302 H 0.58821 0.11038 1.18948
 H303 H 0.48619 0.06198 1.11422
 H304 H 0.52319 0.12755 1.08044
 C305 C 0.42416 0.57907 1.11550
 C306 C 0.41987 0.53968 1.10598
 C307 C 0.43780 0.52062 1.12669
 C308 C 0.46035 0.54075 1.15725
 C309 C 0.46331 0.57968 1.16732
 C310 C 0.44540 0.59880 1.14646
 C311 C 0.40810 0.59951 1.09243
 C312 C 0.39445 0.61500 1.07164
 H313 H 0.40336 0.52406 1.08213
 H314 H 0.43456 0.49039 1.11854
 H315 H 0.48083 0.59604 1.19057
 H316 H 0.44894 0.62932 1.15405
 C317 C 0.15502 0.57422 1.11587
 C318 C 0.12285 0.58434 1.10938
 C319 C 0.08595 0.56599 1.12936
 C320 C 0.08055 0.53710 1.15618
 C321 C 0.11343 0.52778 1.16318
 C322 C 0.15044 0.54616 1.14300
 C323 C 0.19147 0.59136 1.09328
 C324 C 0.22045 0.60582 1.07275
 H325 H 0.12603 0.60600 1.08849
 H326 H 0.06146 0.57426 1.12374
 H327 H 0.11000 0.50545 1.18353
 H328 H 0.17509 0.53796 1.14814
 C329 C 0.41668 0.84770 1.11215
 C330 C 0.44277 0.85067 1.14037
 C331 C 0.46286 0.88807 1.16006
 C332 C 0.45722 0.92299 1.15155
 C333 C 0.43064 0.91945 1.12334
 C334 C 0.41058 0.88212 1.10380
 C335 C 0.39793 0.81047 1.09034
 C336 C 0.38312 0.78062 1.07058
 H337 H 0.44802 0.82433 1.14685
 H338 H 0.48341 0.88999 1.18145
 H339 H 0.42516 0.94555 1.11651
 H340 H 0.39060 0.88024 1.08194
 C341 C 0.59023 0.43410 0.61040
 C342 C 0.57016 0.41564 0.64200
 C343 C 0.55151 0.43463 0.66220
 C344 C 0.55256 0.47228 0.65093
 C345 C 0.57385 0.49122 0.61962
 C346 C 0.59251 0.47220 0.59950
 C347 C 0.60624 0.41287 0.58802
 C348 C 0.61881 0.39532 0.56815
 H349 H 0.56800 0.38604 0.65059
 H350 H 0.53490 0.41903 0.68595
 H351 H 0.57561 0.52043 0.61049
 H352 H 0.60797 0.48676 0.57506
 C353 C 0.57249 0.15575 0.61791
 C354 C 0.59187 0.15226 0.64859
 C355 C 0.57210 0.11550 0.66895
 C356 C 0.53288 0.08174 0.65867
 C357 C 0.51307 0.08621 0.62847
 C358 C 0.53277 0.12294 0.60827
 C359 C 0.59402 0.19150 0.59492
 C360 C 0.61080 0.21991 0.57405
 H361 H 0.62268 0.17739 0.65624
 H362 H 0.58825 0.11274 0.69190
 H363 H 0.48267 0.06092 0.62015
 H364 H 0.51746 0.12530 0.58460
 C365 C 0.84839 0.41346 0.61293
 C366 C 0.84847 0.43329 0.64457
 C367 C 0.88502 0.45217 0.66518
 C368 C 0.92195 0.45163 0.65418
 C369 C 0.92107 0.43039 0.62294
 C370 C 0.88454 0.41149 0.60246
 C371 C 0.81231 0.39713 0.59002
 C372 C 0.78334 0.38397 0.56954
 H373 H 0.82068 0.43509 0.65286
 H374 H 0.88495 0.46862 0.68898
 H375 H 0.94887 0.42900 0.61409
 H376 H 0.88479 0.39614 0.57804
 C377 C 0.41509 0.57065 0.61176
 C378 C 0.41398 0.53313 0.60054
 C379 C 0.43383 0.51513 0.62025
 C380 C 0.45516 0.53450 0.65149
 C381 C 0.45512 0.57159 0.66307
 C382 C 0.43529 0.58960 0.64326
 C383 C 0.39744 0.59064 0.58984
 C384 C 0.38335 0.60693 0.57024
 H385 H 0.39842 0.51818 0.57620
 H386 H 0.43284 0.48627 0.61091
 H387 H 0.47167 0.58745 0.68682
 H388 H 0.43652 0.61875 0.65211
 C389 C 0.42563 0.85023 0.61484
 C390 C 0.44404 0.85063 0.64718
 C391 C 0.46274 0.88768 0.66748
 C392 C 0.46368 0.92533 0.65560
 C393 C 0.44438 0.92379 0.62293
 C394 C 0.42574 0.88682 0.60293
 C395 C 0.40723 0.81298 0.59300
 C396 C 0.39190 0.78340 0.57298
 H397 H 0.44442 0.82246 0.65653
 H398 H 0.47794 0.88683 0.69164
 H399 H 0.44193 0.95060 0.61300
 H400 H 0.41122 0.88678 0.57806
 C401 C 0.15113 0.58961 0.61492
 C402 C 0.11313 0.58392 0.60078
 C403 C 0.07603 0.56457 0.62048
 C404 C 0.07598 0.55015 0.65497
 C405 C 0.11522 0.55800 0.66939
 C406 C 0.15229 0.57728 0.64943
 C407 C 0.18817 0.60632 0.59310
 C408 C 0.21774 0.61960 0.57322
 H409 H 0.11200 0.59392 0.57419
 H410 H 0.04766 0.56174 0.60852
 H411 H 0.11731 0.54691 0.69527
 H412 H 0.18161 0.58144 0.66061
 C413 C 0.42194 0.57530 0.88370
 C414 C 0.44965 0.59863 0.85667
 C415 C 0.46921 0.58056 0.83636
 C416 C 0.46140 0.53906 0.84311
 C417 C 0.43298 0.51576 0.86996
 C418 C 0.41346 0.53378 0.89009
 C419 C 0.40367 0.59417 0.90632
 C420 C 0.38871 0.60885 0.92677
 H421 H 0.45663 0.63092 0.85167
 H422 H 0.49116 0.59930 0.81601
 H423 H 0.42587 0.48353 0.87538
 H424 H 0.39213 0.51547 0.91097
 C425 C 0.15377 0.57093 0.88508
 C426 C 0.14954 0.59053 0.85486
 C427 C 0.11292 0.57025 0.83444
 C428 C 0.08006 0.53022 0.84417
 C429 C 0.08521 0.51031 0.87401
 C430 C 0.12181 0.53056 0.89430
 C431 C 0.18978 0.59257 0.90776
 C432 C 0.21868 0.60927 0.92817
 H433 H 0.17405 0.62182 0.84754
 H434 H 0.10961 0.58651 0.81180
 H435 H 0.06067 0.47930 0.88189
 H436 H 0.12482 0.51506 0.91759
 C437 C 0.41562 0.84707 0.88652
 C438 C 0.42739 0.84648 0.85167
 C439 C 0.44597 0.88389 0.83202
 C440 C 0.45366 0.92295 0.84706
 C441 C 0.44002 0.92235 0.88198
 C442 C 0.42138 0.88493 0.90136
 C443 C 0.39910 0.80958 0.90792
 C444 C 0.38587 0.77975 0.92759
 H445 H 0.42320 0.81730 0.83991
 H446 H 0.45650 0.88221 0.80577
 H447 H 0.44272 0.95048 0.89451
 H448 H 0.41183 0.88567 0.92820
 C449 C 0.57619 0.41833 0.88177
 C450 C 0.53588 0.41157 0.89087
 C451 C 0.51596 0.42899 0.87060
 C452 C 0.53616 0.45351 0.84091
 C453 C 0.57608 0.45896 0.83123
 C454 C 0.59605 0.44156 0.85165
 C455 C 0.59761 0.40323 0.90471
 C456 C 0.61406 0.39066 0.92555
 H457 H 0.52020 0.39358 0.91411
 H458 H 0.48502 0.42385 0.87843
 H459 H 0.59252 0.47803 0.80868
 H460 H 0.62732 0.44710 0.84445
 C461 C 0.84815 0.41574 0.88585
 C462 C 0.85191 0.44357 0.85880
 C463 C 0.88888 0.46295 0.83870
 C464 C 0.92256 0.45487 0.84566
 C465 C 0.91810 0.42630 0.87250
 C466 C 0.88120 0.40695 0.89244
 C467 C 0.81178 0.39817 0.90846
 C468 C 0.78266 0.38432 0.92881
 H469 H 0.82663 0.45087 0.85368
 H470 H 0.89157 0.48506 0.81839
 H471 H 0.94327 0.41899 0.87809
 H472 H 0.87869 0.38558 0.91337
 C473 C 0.58390 0.15296 0.88876
 C474 C 0.56311 0.15158 0.85742
 C475 C 0.54506 0.11463 0.83709
 C476 C 0.54741 0.07854 0.84797
 C477 C 0.56942 0.08069 0.87898
 C478 C 0.58749 0.11764 0.89921
 C479 C 0.59991 0.18967 0.91119
 C480 C 0.61302 0.21928 0.93119
 H481 H 0.56004 0.17868 0.84912
 H482 H 0.52794 0.11376 0.81353
 H483 H 0.57223 0.05362 0.88779
 H484 H 0.60360 0.11838 0.92338
   
