data_POSCAR
  _audit_creation_date              2014-09-24
  _audit_creation_method            'ToBaCCo'
  _symmetry_space_group_name_H-M    'P1'
  _symmetry_Int_Tables_number       1
  _symmetry_cell_setting            triclinic
  loop_
  _symmetry_equiv_pos_as_xyz
 x,y,z
_cell_length_a 28.0875
_cell_length_b 28.0746
_cell_length_c 30.5903
_cell_angle_alpha 90.104200
_cell_angle_beta 89.947300
_cell_angle_gamma 120.051500
loop_
  _atom_site_label
  _atom_site_type_symbol
  _atom_site_fract_x
  _atom_site_fract_y
  _atom_site_fract_z
O1 O 0.05333 0.56679 1.29137
 O2 O -0.05497 0.51259 1.20734
 O3 O -0.05359 0.51189 1.29248
 O4 O 0.05205 0.56493 1.20620
 O5 O 0.05352 0.48699 1.20739
 O6 O -0.05503 0.43249 1.29087
 O7 O -0.05339 0.43475 1.20569
 O8 O 0.05194 0.48741 1.29250
 Cu9 Cu -0.00080 0.54696 1.24936
 Cu10 Cu -0.00076 0.45249 1.24909
 C11 C 0.07070 0.53622 1.30655
 C12 C -0.07230 0.46469 1.19183
 C13 C -0.07238 0.46303 1.30621
 C14 C 0.07090 0.53497 1.19230
 O15 O 0.43236 0.48782 1.29271
 O16 O 0.48680 0.43367 1.20868
 O17 O 0.48699 0.43539 1.29387
 O18 O 0.43446 0.48827 1.20749
 O19 O 0.51243 0.56773 1.20905
 O20 O 0.56642 0.51339 1.29270
 O21 O 0.56479 0.51310 1.20755
 O22 O 0.51178 0.56574 1.29431
 Cu23 Cu 0.45224 0.45339 1.25068
 Cu24 Cu 0.54674 0.54790 1.25093
 C25 C 0.46288 0.53577 1.30818
 C26 C 0.53482 0.46427 1.19352
 C27 C 0.53581 0.46537 1.30778
 C28 C 0.46454 0.53712 1.19369
 O29 O 0.51234 0.94546 1.29334
 O30 O 0.56695 1.05407 1.20954
 O31 O 0.56463 1.05256 1.29480
 O32 O 0.51194 0.94705 1.20814
 O33 O 0.43255 0.94554 1.20956
 O34 O 0.48691 1.05430 1.29318
 O35 O 0.48758 1.05258 1.20803
 O36 O 0.43461 0.94716 1.29484
 Cu37 Cu 0.54685 0.99978 1.25148
 Cu38 Cu 0.45252 0.99988 1.25141
 C39 C 0.46444 0.92814 1.30874
 C40 C 0.53643 1.07139 1.19416
 C41 C 0.53478 1.07164 1.30860
 C42 C 0.46314 0.92824 1.19424
 O43 O 0.94651 0.51304 0.70740
 O44 O 1.05516 0.56753 0.79099
 O45 O 1.05355 0.56548 0.70572
 O46 O 0.94812 0.51258 0.79261
 O47 O 0.94675 0.43323 0.79116
 O48 O 1.05514 0.48765 0.70701
 O49 O 1.05376 0.48816 0.79225
 O50 O 0.94801 0.43513 0.70591
 Cu51 Cu 1.00084 0.54755 0.74919
 Cu52 Cu 1.00093 0.45316 0.74905
 C53 C 0.92912 0.46507 0.69213
 C54 C 1.07254 0.53700 0.80619
 C55 C 1.07249 0.53558 0.69167
 C56 C 0.92937 0.46377 0.80653
 O57 O 0.48701 0.43265 0.70815
 O58 O 0.43317 0.48715 0.79195
 O59 O 0.43499 0.48758 0.70679
 O60 O 0.48775 0.43482 0.79331
 O61 O 0.56718 0.51282 0.79199
 O62 O 0.51310 0.56692 0.70801
 O63 O 0.51261 0.56516 0.79320
 O64 O 0.56511 0.51201 0.70682
 Cu65 Cu 0.45281 0.45264 0.75005
 Cu66 Cu 0.54742 0.54714 0.74999
 C67 C 0.53497 0.46316 0.69293
 C68 C 0.46382 0.53515 0.80713
 C69 C 0.46509 0.53636 0.69282
 C70 C 0.53658 0.46487 0.80724
 O71 O 0.56694 0.05344 0.70749
 O72 O 0.51292 -0.05492 0.79110
 O73 O 0.51207 -0.05357 0.70586
 O74 O 0.56511 0.05210 0.79265
 O75 O 0.48716 0.05347 0.79149
 O76 O 0.43270 -0.05513 0.70750
 O77 O 0.43500 -0.05349 0.79268
 O78 O 0.48755 0.05194 0.70631
 Cu79 Cu 0.54715 -0.00076 0.74925
 Cu80 Cu 0.45269 -0.00082 0.74950
 C81 C 0.53634 0.07076 0.69237
 C82 C 0.46506 -0.07221 0.80647
 C83 C 0.46319 -0.07250 0.69198
 C84 C 0.53513 0.07088 0.80670
 O85 O 0.41694 0.65566 0.96268
 O86 O 0.41498 0.74640 0.95078
 C87 C 0.38815 0.77034 0.94185
 O88 O 0.34535 0.76176 0.96252
 O89 O 0.25461 0.66895 0.95035
 C90 C 0.23062 0.61808 0.94141
 O91 O 0.23917 0.58391 0.96214
 O92 O 0.33196 0.58598 0.95059
 C93 C 0.38284 0.61284 0.94189
 O94 O 0.41454 0.66894 1.04985
 O95 O 0.41671 0.76176 1.03799
 C96 C 0.38249 0.77036 1.05867
 O97 O 0.33168 0.74638 1.04967
 O98 O 0.23889 0.65563 1.03747
 C99 C 0.23010 0.61279 1.05813
 O100 O 0.25411 0.58594 1.04937
 O101 O 0.34485 0.58390 1.03782
 C102 C 0.38760 0.61806 1.05864
 Cr103 Cr 0.41256 0.70658 1.00032
 Cr104 Cr 0.29425 0.70657 1.00001
 Cr105 Cr 0.29414 0.58816 0.99999
 O106 O 0.33365 0.66710 1.00011
 O107 O 0.58379 0.34406 0.96225
 O108 O 0.58558 0.25298 0.95136
 C109 C 0.61290 0.22962 0.94196
 O110 O 0.65629 0.23905 0.96209
 O111 O 0.74742 0.33198 0.95121
 C112 C 0.77078 0.38268 0.94183
 O113 O 0.76138 0.41670 0.96199
 O114 O 0.66849 0.41476 0.95128
 C115 C 0.61776 0.38740 0.94203
 O116 O 0.58577 0.33216 1.04966
 O117 O 0.58379 0.23917 1.03879
 C118 C 0.61776 0.22980 1.05894
 O119 O 0.66845 0.25314 1.04955
 O120 O 0.76134 0.34422 1.03869
 C121 C 0.77087 0.38774 1.05878
 O122 O 0.74760 0.41511 1.04942
 O123 O 0.65650 0.41688 1.03874
 C124 C 0.61309 0.38293 1.05893
 Cr125 Cr 0.58809 0.29377 1.00051
 Cr126 Cr 0.70670 0.29377 1.00038
 Cr127 Cr 0.70681 0.41251 1.00036
 O128 O 0.66721 0.33335 1.00043
 O129 O 0.65504 0.41586 0.53755
 O130 O 0.74581 0.41389 0.54909
 C131 C 0.76976 0.38702 0.55785
 O132 O 0.76089 0.34409 0.53716
 O133 O 0.66806 0.25325 0.54886
 C134 C 0.61725 0.22933 0.55781
 O135 O 0.58309 0.23807 0.53728
 O136 O 0.58514 0.33087 0.54916
 C137 C 0.61213 0.38172 0.55813
 O138 O 0.66796 0.41389 0.45034
 O139 O 0.76074 0.41591 0.46186
 C140 C 0.76943 0.38178 0.44113
 O141 O 0.74557 0.33094 0.44996
 O142 O 0.65485 0.23809 0.46164
 C143 C 0.61185 0.22916 0.44114
 O144 O 0.58493 0.25304 0.45012
 O145 O 0.58302 0.34393 0.46198
 C146 C 0.61711 0.38696 0.44148
 Cr147 Cr 0.70576 0.41163 0.49970
 Cr148 Cr 0.70572 0.29322 0.49941
 Cr149 Cr 0.58730 0.29311 0.49963
 O150 O 0.66625 0.33265 0.49957
 O151 O 0.34356 0.58352 0.53836
 O152 O 0.25241 0.58519 0.54874
 C153 C 0.22950 0.61283 0.55851
 O154 O 0.23940 0.65662 0.53880
 O155 O 0.33233 0.74789 0.54889
 C156 C 0.38291 0.77078 0.55853
 O157 O 0.41675 0.76092 0.53866
 O158 O 0.41500 0.66804 0.54855
 C159 C 0.38733 0.61744 0.55815
 O160 O 0.33211 0.58520 0.45088
 O161 O 0.23925 0.58346 0.46126
 C162 C 0.22942 0.61735 0.44152
 O163 O 0.25237 0.66796 0.45122
 O164 O 0.34353 0.76093 0.46135
 C165 C 0.38729 0.77089 0.44152
 O166 O 0.41495 0.74798 0.45109
 O167 O 0.41659 0.65673 0.46096
 C168 C 0.38269 0.61289 0.44118
 Cr169 Cr 0.29354 0.58777 0.49981
 Cr170 Cr 0.29361 0.70664 0.50006
 Cr171 Cr 0.41241 0.70670 0.49981
 O172 O 0.33319 0.66704 0.49989
 N173 N 0.47520 0.60560 0.35934
 C174 C 0.44260 0.55546 0.34087
 N175 N 0.38999 0.52456 0.35529
 N176 N 0.37076 0.54301 0.38696
 C177 C 0.40348 0.59299 0.40557
 N178 N 0.45604 0.62393 0.39115
 N179 N 0.47553 0.86647 0.35578
 C180 C 0.44470 0.88822 0.34140
 N181 N 0.39464 0.87075 0.35987
 N182 N 0.37630 0.83328 0.39164
 C183 C 0.40718 0.81162 0.40601
 N184 N 0.45708 0.82882 0.38740
 N185 N 0.12852 0.52428 0.36054
 C186 C 0.11267 0.55753 0.34106
 N187 N 0.13567 0.61064 0.35452
 N188 N 0.17313 0.62983 0.38631
 C189 C 0.18883 0.59653 0.40593
 N190 N 0.16585 0.54342 0.39243
 N191 N 0.61046 0.47420 0.35482
 C192 C 0.55712 0.44450 0.34197
 N193 N 0.52371 0.39558 0.36170
 N194 N 0.54291 0.37716 0.39330
 C195 C 0.59625 0.40689 0.40619
 N196 N 0.62971 0.45569 0.38630
 N197 N 0.60438 0.12889 0.35979
 C198 C 0.55447 0.11165 0.34116
 N199 N 0.52378 0.13369 0.35531
 N200 N 0.54224 0.17147 0.38690
 C201 C 0.59197 0.18842 0.40569
 N202 N 0.62270 0.16646 0.39155
 N203 N 0.86223 0.38835 0.35344
 C204 C 0.88569 0.44167 0.34060
 N205 N 0.87044 0.47509 0.36070
 N206 N 0.83323 0.45591 0.39265
 C207 C 0.80981 0.40260 0.40553
 N208 N 0.82487 0.36912 0.38527
 N209 N 0.60472 0.47627 1.13945
 C210 C 0.55568 0.44294 1.15909
 N211 N 0.52581 0.38968 1.14591
 N212 N 0.54427 0.37045 1.11424
 C213 C 0.59320 0.40383 1.09445
 N214 N 0.62309 0.45710 1.10767
 N215 N 0.87055 0.39503 1.14050
 C216 C 0.88789 0.44505 1.15911
 N217 N 0.86614 0.47589 1.14479
 N218 N 0.82857 0.45748 1.11308
 C219 C 0.81151 0.40763 1.09433
 N220 N 0.83318 0.37675 1.10864
 N221 N 0.52456 0.12891 1.13979
 C222 C 0.55782 0.11334 1.15961
 N223 N 0.61101 0.13651 1.14641
 N224 N 0.63024 0.17387 1.11457
 C225 C 0.59691 0.18928 1.09460
 N226 N 0.54372 0.16613 1.10784
 N227 N 0.39535 0.52488 1.13911
 C228 C 0.44398 0.55839 1.15924
 N229 N 0.47380 0.61172 1.14639
 N230 N 0.45567 0.63086 1.11454
 C231 C 0.40716 0.59729 1.09426
 N232 N 0.37731 0.54396 1.10715
 N233 N 0.12836 0.60451 1.13813
 C234 C 0.11301 0.55575 1.15804
 N235 N 0.13661 0.52603 1.14520
 N236 N 0.17424 0.54438 1.11357
 C237 C 0.18942 0.59302 1.09350
 N238 N 0.16584 0.62277 1.10637
 N239 N 0.47542 0.87126 1.13958
 C240 C 0.44191 0.88638 1.15966
 N241 N 0.38866 0.86292 1.14663
 N242 N 0.36959 0.82566 1.11464
 C243 C 0.40317 0.81072 1.09440
 N244 N 0.45641 0.83416 1.10748
 N245 N 0.52564 0.38841 0.64559
 C246 C 0.55556 0.44174 0.65854
 N247 N 0.60434 0.47511 0.63861
 N248 N 0.62243 0.45588 0.60671
 C249 C 0.59250 0.40256 0.59371
 N250 N 0.54384 0.36912 0.61381
 N251 N 0.52412 0.12802 0.63817
 C252 C 0.55758 0.11274 0.65803
 N253 N 0.61086 0.13626 0.64505
 N254 N 0.63001 0.17373 0.61332
 C255 C 0.59649 0.18883 0.59330
 N256 N 0.54322 0.16533 0.60632
 N257 N 0.87155 0.39543 0.63785
 C258 C 0.88696 0.44424 0.65784
 N259 N 0.86335 0.47395 0.64508
 N260 N 0.82570 0.45554 0.61344
 C261 C 0.81046 0.40685 0.59329
 N262 N 0.83405 0.37712 0.60609
 N263 N 0.47454 0.61077 0.64503
 C264 C 0.44438 0.55766 0.65838
 N265 N 0.39522 0.52442 0.63888
 N266 N 0.37698 0.54354 0.60706
 C267 C 0.40715 0.59664 0.59367
 N268 N 0.45622 0.62994 0.61332
 N269 N 0.47546 0.87023 0.64061
 C270 C 0.44290 0.88766 0.65920
 N271 N 0.39032 0.86602 0.64476
 N272 N 0.37108 0.82850 0.61296
 C273 C 0.40376 0.81136 0.59422
 N274 N 0.45629 0.83290 0.60865
 N275 N 0.12981 0.60542 0.64055
 C276 C 0.11237 0.55532 0.65892
 N277 N 0.13407 0.52448 0.64434
 N278 N 0.17166 0.54296 0.61263
 C279 C 0.18883 0.59289 0.59412
 N280 N 0.16721 0.62378 0.60870
 N281 N 0.47610 0.60466 0.86158
 C282 C 0.44260 0.55591 0.84154
 N283 N 0.38928 0.52616 0.85441
 N284 N 0.37011 0.54448 0.88619
 C285 C 0.40367 0.59310 0.90638
 N286 N 0.45699 0.62288 0.89348
 N287 N 0.12963 0.52486 0.86068
 C288 C 0.11447 0.55833 0.84066
 N289 N 0.13797 0.61165 0.85366
 N290 N 0.17530 0.63083 0.88555
 C291 C 0.19027 0.59730 0.90572
 N292 N 0.16679 0.54398 0.89268
 N293 N 0.47438 0.86268 0.85397
 C294 C 0.44454 0.88605 0.84100
 N295 N 0.39594 0.87096 0.86112
 N296 N 0.37793 0.83396 0.89319
 C297 C 0.40779 0.81061 0.90620
 N298 N 0.45627 0.82552 0.88593
 N299 N 0.52455 0.39527 0.86145
 C300 C 0.55789 0.44421 0.84169
 N301 N 0.61110 0.47419 0.85483
 N302 N 0.63030 0.45594 0.88657
 C303 C 0.59691 0.40711 0.90647
 N304 N 0.54370 0.37710 0.89330
 N305 N 0.86423 0.38926 0.85435
 C306 C 0.88740 0.44244 0.84113
 N307 N 0.87177 0.47576 0.86093
 N308 N 0.83451 0.45665 0.89289
 C309 C 0.81135 0.40347 0.90615
 N310 N 0.82682 0.37010 0.88620
 N311 N 0.52594 0.13609 0.85456
 C312 C 0.55588 0.11290 0.84126
 N313 N 0.60484 0.12854 0.86097
 N314 N 0.62306 0.16585 0.89295
 C315 C 0.59309 0.18902 0.90629
 N316 N 0.54425 0.17354 0.88643
   
