data_POSCAR
  _audit_creation_date              2014-09-24
  _audit_creation_method            'ToBaCCo'
  _symmetry_space_group_name_H-M    'P1'
  _symmetry_Int_Tables_number       1
  _symmetry_cell_setting            triclinic
  loop_
  _symmetry_equiv_pos_as_xyz
 x,y,z
_cell_length_a 45.5759
_cell_length_b 45.6934
_cell_length_c 36.3263
_cell_angle_alpha 89.930300
_cell_angle_beta 90.029500
_cell_angle_gamma 90.017300
loop_
  _atom_site_label
  _atom_site_type_symbol
  _atom_site_fract_x
  _atom_site_fract_y
  _atom_site_fract_z
C1 C 1.27540 0.21886 0.26648
 C2 C 1.25197 0.23411 0.25033
 C3 C 1.22928 0.21849 0.23307
 C4 C 1.23028 0.18783 0.23155
 C5 C 1.25361 0.17274 0.24805
 C6 C 1.27612 0.18824 0.26567
 C7 C 1.25193 0.26639 0.25064
 C8 C 1.27526 0.28171 0.23436
 C9 C 1.27588 0.31233 0.23507
 C10 C 1.25338 0.32778 0.25274
 C11 C 1.23015 0.31263 0.26937
 C12 C 1.22924 0.28196 0.26794
 H13 H 1.29288 0.23090 0.27996
 H14 H 1.21132 0.23018 0.22013
 H15 H 1.29272 0.26971 0.22082
 H16 H 1.21136 0.27022 0.28096
 H17 H 1.25424 0.14901 0.24706
 H18 H 1.25393 0.35151 0.25365
 C19 C 0.77230 -0.28245 0.26789
 C20 C 0.74954 -0.26684 0.25072
 C21 C 0.72611 -0.28210 0.23466
 C22 C 0.72542 -0.31268 0.23547
 C23 C 0.74794 -0.32822 0.25297
 C24 C 0.77133 -0.31314 0.26942
 C25 C 0.74951 -0.23456 0.25038
 C26 C 0.77226 -0.21890 0.23327
 C27 C 0.77122 -0.18824 0.23169
 C28 C 0.74779 -0.17320 0.24798
 C29 C 0.72527 -0.18875 0.26543
 C30 C 0.72601 -0.21934 0.26632
 H31 H 0.79025 -0.27069 0.28075
 H32 H 0.70856 -0.27013 0.22121
 H33 H 0.79028 -0.23056 0.22047
 H34 H 0.70846 -0.23133 0.27972
 H35 H 0.74719 -0.35195 0.25384
 H36 H 0.74706 -0.14949 0.24699
 C37 C 0.77260 0.21916 -0.23300
 C38 C 0.74988 0.23468 -0.25041
 C39 C 0.72646 0.21931 -0.26637
 C40 C 0.72576 0.18874 -0.26520
 C41 C 0.74825 0.17333 -0.24747
 C42 C 0.77159 0.18851 -0.23116
 C43 C 0.74984 0.26694 -0.25105
 C44 C 0.77252 0.28251 -0.26844
 C45 C 0.77144 0.31317 -0.27033
 C46 C 0.74804 0.32828 -0.25404
 C47 C 0.72560 0.31280 -0.23632
 C48 C 0.72639 0.28222 -0.23514
 H49 H 0.79055 0.23094 -0.22019
 H50 H 0.70894 0.23120 -0.27999
 H51 H 0.79049 0.27071 -0.28119
 H52 H 0.70890 0.27029 -0.22154
 H53 H 0.74755 0.14962 -0.24627
 H54 H 0.74720 0.35200 -0.25519
 C55 C 1.27439 -0.28179 -0.23369
 C56 C 1.25088 -0.26652 -0.24958
 C57 C 1.22811 -0.28210 -0.26671
 C58 C 1.22915 -0.31274 -0.26838
 C59 C 1.25258 -0.32787 -0.25217
 C60 C 1.27514 -0.31238 -0.23468
 C61 C 1.25090 -0.23428 -0.24923
 C62 C 1.27444 -0.21904 -0.26509
 C63 C 1.27521 -0.18847 -0.26417
 C64 C 1.25268 -0.17294 -0.24680
 C65 C 1.22922 -0.18801 -0.23060
 C66 C 1.22813 -0.21866 -0.23218
 H67 H 1.29193 -0.26977 -0.22030
 H68 H 1.21009 -0.27039 -0.27948
 H69 H 1.29199 -0.23101 -0.27846
 H70 H 1.21009 -0.23034 -0.21943
 H71 H 1.25324 -0.35159 -0.25330
 H72 H 1.25344 -0.14923 -0.24580
 C73 C 0.21853 0.27355 0.73629
 C74 C 0.23408 0.24986 0.75128
 C75 C 0.21866 0.22607 0.76625
 C76 C 0.18790 0.22608 0.76663
 C77 C 0.17248 0.24969 0.75121
 C78 C 0.18781 0.27335 0.73585
 C79 C 0.26645 0.24994 0.75123
 C80 C 0.28193 0.27220 0.76947
 C81 C 0.31269 0.27210 0.76969
 C82 C 0.32801 0.25013 0.75095
 C83 C 0.31268 0.22809 0.73238
 C84 C 0.28195 0.22779 0.73286
 H85 H 0.23038 0.29183 0.72435
 H86 H 0.23066 0.20787 0.77816
 H87 H 0.27001 0.28922 0.78391
 H88 H 0.27011 0.21069 0.71847
 H89 H 0.14867 0.24969 0.75112
 H90 H 0.35182 0.25014 0.75076
 C91 C 0.71714 0.77229 0.73186
 C92 C 0.73261 0.75006 0.75023
 C93 C 0.71709 0.72782 0.76850
 C94 C 0.68633 0.72800 0.76876
 C95 C 0.67103 0.75004 0.75002
 C96 C 0.68639 0.77208 0.73139
 C97 C 0.76498 0.75006 0.75028
 C98 C 0.78047 0.77374 0.76536
 C99 C 0.81121 0.77364 0.76574
 C100 C 0.82657 0.75010 0.75023
 C101 C 0.81120 0.72654 0.73475
 C102 C 0.78047 0.72640 0.73519
 H103 H 0.72909 0.78936 0.71748
 H104 H 0.72899 0.71074 0.78294
 H105 H 0.76859 0.79193 0.77737
 H106 H 0.76858 0.70820 0.72316
 H107 H 0.64720 0.75003 0.74994
 H108 H 0.85036 0.75012 0.75021
 C109 C 0.71808 0.27217 0.23097
 C110 C 0.73359 0.25002 0.24942
 C111 C 0.71811 0.22785 0.26785
 C112 C 0.68739 0.22804 0.26817
 C113 C 0.67205 0.24997 0.24939
 C114 C 0.68736 0.27193 0.23063
 C115 C 0.76592 0.25006 0.24946
 C116 C 0.78137 0.27391 0.26412
 C117 C 0.81209 0.27381 0.26458
 C118 C 0.82749 0.25010 0.24958
 C119 C 0.81214 0.22637 0.23452
 C120 C 0.78142 0.22622 0.23486
 H121 H 0.72992 0.28923 0.21645
 H122 H 0.72997 0.21081 0.28240
 H123 H 0.76947 0.29223 0.27578
 H124 H 0.76955 0.20788 0.22315
 H125 H 0.64825 0.24995 0.24939
 H126 H 0.85128 0.25012 0.24964
 C127 C 0.21796 0.77361 0.23504
 C128 C 0.23341 0.74989 0.25012
 C129 C 0.21793 0.72621 0.26521
 C130 C 0.18717 0.72634 0.26566
 C131 C 0.17181 0.74996 0.25016
 C132 C 0.18721 0.77354 0.23464
 C133 C 0.26576 0.74986 0.25011
 C134 C 0.28129 0.77193 0.26865
 C135 C 0.31201 0.77170 0.26897
 C136 C 0.32730 0.74982 0.25008
 C137 C 0.31195 0.72797 0.23121
 C138 C 0.28122 0.72778 0.23156
 H139 H 0.22995 0.79178 0.22305
 H140 H 0.22988 0.70800 0.27720
 H141 H 0.26946 0.78891 0.28325
 H142 H 0.26934 0.71081 0.21696
 H143 H 0.14799 0.74998 0.25018
 H144 H 0.35111 0.74981 0.25007
 N145 N 0.96995 0.05171 0.04013
 N146 N 0.95122 0.07277 0.04797
 N147 N 1.03166 0.03132 0.06581
 N148 N 1.05181 0.03707 0.09092
 N149 N 1.03159 0.05159 0.04014
 N150 N 1.05169 0.07163 0.04711
 N151 N 0.97004 0.03176 0.06618
 N152 N 0.95139 0.03891 0.09256
 C153 C 0.93948 0.06437 0.08050
 C154 C 1.06434 0.06217 0.07871
 N155 N 1.03128 -0.05193 0.03987
 N156 N 1.04981 -0.07318 0.04775
 N157 N 0.96971 -0.03157 0.06595
 N158 N 0.94965 -0.03736 0.09114
 N159 N 0.96964 -0.05175 0.04024
 N160 N 0.94952 -0.07177 0.04724
 N161 N 1.03134 -0.03205 0.06596
 N162 N 1.04988 -0.03946 0.09239
 Mn163 Mn 1.00069 -0.00013 0.06633
 C164 C 1.06160 -0.06499 0.08032
 C165 C 0.93703 -0.06239 0.07893
 N166 N 1.03132 0.05178 -0.03918
 N167 N 1.04995 0.07293 -0.04711
 N168 N 0.96952 0.03162 -0.06487
 N169 N 0.94939 0.03750 -0.08997
 N170 N 0.96968 0.05182 -0.03918
 N171 N 0.94965 0.07194 -0.04611
 N172 N 1.03115 0.03193 -0.06529
 N173 N 1.04964 0.03926 -0.09181
 Mn174 Mn 1.00063 0.05193 0.00048
 C175 C 1.06156 0.06471 -0.07976
 C176 C 0.93697 0.06261 -0.07772
 N177 N 0.96951 -0.05169 -0.03908
 N178 N 0.95085 -0.07283 -0.04697
 N179 N 1.03118 -0.03144 -0.06510
 N180 N 1.05127 -0.03718 -0.09024
 N181 N 1.03114 -0.05171 -0.03943
 N182 N 1.05121 -0.07174 -0.04641
 N183 N 0.96955 -0.03175 -0.06516
 N184 N 0.95095 -0.03901 -0.09158
 Mn185 Mn 1.00039 -0.05197 0.00039
 Mn186 Mn 1.00035 0.00009 -0.06546
 Cl187 Cl 1.00052 -0.00002 0.00043
 C188 C 0.93910 -0.06451 -0.07953
 C189 C 1.06379 -0.06228 -0.07803
 N190 N 0.96931 0.53178 0.43408
 N191 N 0.94922 0.53753 0.40887
 N192 N 1.03087 0.55210 0.46035
 N193 N 1.04944 0.57333 0.45250
 N194 N 1.03094 0.53221 0.43427
 N195 N 1.04952 0.53959 0.40789
 N196 N 0.96923 0.55197 0.45978
 N197 N 0.94909 0.57196 0.45275
 C198 C 0.93659 0.56255 0.42106
 C199 C 1.06125 0.56512 0.41997
 N200 N 1.03060 0.53161 0.56530
 N201 N 1.05070 0.53729 0.59048
 N202 N 0.96900 0.55193 0.53910
 N203 N 0.95041 0.57311 0.54698
 N204 N 0.96898 0.53198 0.56516
 N205 N 0.95040 0.53927 0.59156
 N206 N 1.03063 0.55189 0.53965
 N207 N 1.05077 0.57187 0.54668
 Mn208 Mn 0.99994 0.55217 0.49972
 C209 C 1.06331 0.56235 0.57832
 C210 C 0.93862 0.56480 0.57951
 N211 N 1.03117 0.46884 0.43444
 N212 N 1.05136 0.46309 0.40942
 N213 N 0.96938 0.44850 0.45991
 N214 N 0.95065 0.42744 0.45197
 N215 N 0.96954 0.46845 0.43386
 N216 N 0.95094 0.46131 0.40739
 N217 N 1.03102 0.44857 0.46010
 N218 N 1.05113 0.42853 0.45322
 Mn219 Mn 1.00024 0.50032 0.43380
 C220 C 1.06385 0.43799 0.42168
 C221 C 0.93899 0.43585 0.41940
 N222 N 0.96884 0.46862 0.56489
 N223 N 0.94865 0.46280 0.58989
 N224 N 1.03064 0.44838 0.53943
 N225 N 1.04922 0.42721 0.54747
 N226 N 1.03047 0.46826 0.56552
 N227 N 1.04890 0.46093 0.59211
 N228 N 0.96900 0.44841 0.53922
 N229 N 0.94890 0.42833 0.54607
 Mn230 Mn 0.99972 0.50012 0.56557
 Mn231 Mn 1.00001 0.44826 0.49966
 Cl232 Cl 0.99998 0.50022 0.49969
 C233 C 0.93618 0.43772 0.57762
 C234 C 1.06079 0.43545 0.58015
 N235 N 0.55208 0.03054 0.53966
 N236 N 0.57305 0.04947 0.54718
 N237 N 0.53172 -0.03086 0.56579
 N238 N 0.53737 -0.05105 0.59083
 N239 N 0.55194 -0.03091 0.54007
 N240 N 0.57187 -0.05113 0.54689
 N241 N 0.53210 0.03058 0.56569
 N242 N 0.53912 0.04951 0.59173
 C243 C 0.56454 0.06144 0.57948
 C244 C 0.56238 -0.06370 0.57850
 N245 N 0.44830 -0.03068 0.54006
 N246 N 0.42748 -0.04977 0.54767
 N247 N 0.46870 0.03081 0.56566
 N248 N 0.46309 0.05103 0.59060
 N249 N 0.44838 0.03075 0.54003
 N250 N 0.42842 0.05094 0.54683
 N251 N 0.46836 -0.03062 0.56601
 N252 N 0.46157 -0.04963 0.59209
 Mn253 Mn 0.50022 -0.00002 0.56617
 C254 C 0.43619 -0.06171 0.57995
 C255 C 0.43800 0.06360 0.57831
 N256 N 0.55180 -0.03097 0.46085
 N257 N 0.57269 -0.04995 0.45324
 N258 N 0.53156 0.03052 0.43485
 N259 N 0.53714 0.05079 0.40991
 N260 N 0.55188 0.03046 0.46048
 N261 N 0.57180 0.05069 0.45369
 N262 N 0.53176 -0.03091 0.43487
 N263 N 0.53865 -0.04981 0.40876
 Mn264 Mn 0.55215 -0.00022 0.50026
 C265 C 0.56407 -0.06185 0.42093
 C266 C 0.56221 0.06337 0.42221
 N267 N 0.44819 0.03061 0.46082
 N268 N 0.42725 0.04954 0.45314
 N269 N 0.46836 -0.03094 0.43516
 N270 N 0.46266 -0.05120 0.41030
 N271 N 0.44813 -0.03083 0.46087
 N272 N 0.42814 -0.05103 0.45422
 N273 N 0.46815 0.03050 0.43476
 N274 N 0.46114 0.04934 0.40854
 Mn275 Mn 0.44801 -0.00004 0.50045
 Mn276 Mn 0.49996 -0.00020 0.43453
 Cl277 Cl 0.50008 -0.00012 0.50035
 C278 C 0.43575 0.06137 0.42070
 C279 C 0.43760 -0.06374 0.42273
 N280 N 0.55134 0.53091 0.03855
 N281 N 0.57233 0.54977 0.04627
 N282 N 0.53110 0.46938 0.06443
 N283 N 0.53674 0.44910 0.08934
 N284 N 0.55137 0.46948 0.03876
 N285 N 0.57131 0.44925 0.04548
 N286 N 0.53134 0.53080 0.06456
 N287 N 0.53837 0.54956 0.09079
 C288 C 0.56381 0.56156 0.07868
 C289 C 0.56178 0.43654 0.07696
 N290 N 0.44768 0.46933 0.03865
 N291 N 0.42668 0.45048 0.04642
 N292 N 0.46795 0.53085 0.06439
 N293 N 0.46229 0.55106 0.08931
 N294 N 0.44767 0.53078 0.03871
 N295 N 0.42768 0.55095 0.04546
 N296 N 0.46770 0.46941 0.06465
 N297 N 0.46069 0.45063 0.09092
 Mn298 Mn 0.49953 0.50011 0.06489
 C299 C 0.43522 0.43866 0.07885
 C300 C 0.43721 0.56361 0.07696
 N301 N 0.55141 0.46952 -0.04042
 N302 N 0.57242 0.45068 -0.04807
 N303 N 0.53105 0.53096 -0.06638
 N304 N 0.53671 0.55116 -0.09139
 N305 N 0.55131 0.53096 -0.04067
 N306 N 0.57127 0.55117 -0.04748
 N307 N 0.53139 0.46952 -0.06643
 N308 N 0.53843 0.45072 -0.09260
 Mn309 Mn 0.55158 0.50022 -0.00094
 C310 C 0.56389 0.43880 -0.08044
 C311 C 0.56176 0.56378 -0.07906
 N312 N 0.44767 0.53073 -0.04048
 N313 N 0.42681 0.54977 -0.04803
 N314 N 0.46798 0.46927 -0.06626
 N315 N 0.46232 0.44904 -0.09118
 N316 N 0.44772 0.46930 -0.04057
 N317 N 0.42777 0.44907 -0.04730
 N318 N 0.46767 0.53070 -0.06648
 N319 N 0.46078 0.54970 -0.09255
 Mn320 Mn 0.44745 0.50003 -0.00093
 Mn321 Mn 0.49952 0.50011 -0.06677
 Cl322 Cl 0.49952 0.50012 -0.00094
 C323 C 0.43541 0.56173 -0.08034
 C324 C 0.43727 0.43643 -0.07881
 C325 C 1.11907 0.12110 0.10451
 C326 C 1.12950 0.11072 0.13834
 C327 C 1.11909 0.08408 0.15227
 C328 C 1.09814 0.06803 0.13264
 C329 C 1.20791 0.17175 0.21213
 C330 C 1.09813 0.10510 0.08485
 C331 C 1.15074 0.12748 0.15880
 C332 C 1.16856 0.14156 0.17582
 C333 C 1.18962 0.15796 0.19554
 C334 C 1.08733 0.07848 0.09882
 H335 H 1.12700 0.14166 0.09343
 H336 H 1.12703 0.07580 0.17840
 H337 H 1.09022 0.04761 0.14407
 H338 H 1.09022 0.11368 0.05888
 C339 C 1.11811 0.62106 0.60436
 C340 C 1.12842 0.61058 0.63820
 C341 C 1.11792 0.58396 0.65205
 C342 C 1.09699 0.56801 0.63232
 C343 C 1.20676 0.67125 0.71225
 C344 C 1.09718 0.60515 0.58460
 C345 C 1.14962 0.62724 0.65876
 C346 C 1.16742 0.64123 0.67585
 C347 C 1.18847 0.65753 0.69564
 C348 C 1.08629 0.57855 0.59850
 H349 H 1.12612 0.64161 0.59336
 H350 H 1.12579 0.57563 0.67818
 H351 H 1.08898 0.54759 0.64368
 H352 H 1.08934 0.61379 0.55862
 C353 C 0.59483 0.10675 0.65809
 C354 C 0.62124 0.11665 0.64280
 C355 C 0.62813 0.10990 0.60628
 C356 C 0.60914 0.09268 0.58536
 C357 C 0.70221 0.17326 0.71706
 C358 C 0.57571 0.08951 0.63712
 C359 C 0.64207 0.13264 0.66469
 C360 C 0.66043 0.14561 0.68209
 C361 C 0.68272 0.16052 0.70140
 C362 C 0.58296 0.08194 0.60074
 H363 H 0.58931 0.11185 0.68637
 H364 H 0.64850 0.11746 0.59419
 H365 H 0.61527 0.08726 0.55739
 H366 H 0.55570 0.08148 0.64963
 C367 C 0.59426 0.60614 0.15787
 C368 C 0.62069 0.61610 0.14270
 C369 C 0.62754 0.60964 0.10608
 C370 C 0.60849 0.59264 0.08495
 C371 C 0.70184 0.67197 0.21758
 C372 C 0.57507 0.58913 0.13668
 C373 C 0.64159 0.63185 0.16478
 C374 C 0.65999 0.64464 0.18233
 C375 C 0.68232 0.65936 0.20180
 C376 C 0.58229 0.58185 0.10019
 H377 H 0.58877 0.61102 0.18622
 H378 H 0.64793 0.61724 0.09406
 H379 H 0.61459 0.58744 0.05690
 H380 H 0.55505 0.58106 0.14911
 C381 C 0.88250 -0.08442 0.15265
 C382 C 0.87197 -0.11097 0.13869
 C383 C 0.88225 -0.12126 0.10478
 C384 C 0.90316 -0.10524 0.08508
 C385 C 0.79361 -0.17212 0.21239
 C386 C 0.90342 -0.06836 0.13298
 C387 C 0.85076 -0.12775 0.15917
 C388 C 0.83295 -0.14185 0.17618
 C389 C 0.81190 -0.15829 0.19586
 C390 C 0.91407 -0.07871 0.09909
 H391 H 0.87467 -0.07622 0.17884
 H392 H 0.87422 -0.14175 0.09367
 H393 H 0.91095 -0.11375 0.05905
 H394 H 0.91144 -0.04800 0.14444
 C395 C 0.88131 0.41579 0.65095
 C396 C 0.87098 0.38913 0.63709
 C397 C 0.88149 0.37873 0.60335
 C398 C 0.90244 0.39475 0.58372
 C399 C 0.79258 0.32833 0.71116
 C400 C 0.90227 0.43185 0.63136
 C401 C 0.84975 0.37237 0.65756
 C402 C 0.83193 0.35835 0.67463
 C403 C 0.81087 0.34203 0.69446
 C404 C 0.91316 0.42139 0.59764
 H405 H 0.87330 0.42408 0.67701
 H406 H 0.87361 0.35815 0.59233
 H407 H 0.91043 0.38616 0.55782
 H408 H 0.91013 0.45229 0.64274
 C409 C 0.40633 -0.10698 0.65887
 C410 C 0.37998 -0.11710 0.64364
 C411 C 0.37305 -0.11058 0.60704
 C412 C 0.39191 -0.09332 0.58598
 C413 C 0.29888 -0.17315 0.71817
 C414 C 0.42533 -0.08971 0.63775
 C415 C 0.35919 -0.13297 0.66569
 C416 C 0.34081 -0.14581 0.68319
 C417 C 0.31845 -0.16055 0.70253
 C418 C 0.41800 -0.08233 0.60131
 H419 H 0.41187 -0.11190 0.68721
 H420 H 0.35271 -0.11831 0.59501
 H421 H 0.38574 -0.08805 0.55796
 H422 H 0.44528 -0.08148 0.65022
 C423 C 0.37158 0.39042 0.10631
 C424 C 0.37858 0.38372 0.14285
 C425 C 0.40507 0.39363 0.15795
 C426 C 0.42415 0.41080 0.13678
 C427 C 0.29804 0.32698 0.21792
 C428 C 0.39053 0.40757 0.08520
 C429 C 0.35783 0.36772 0.16492
 C430 C 0.33957 0.35473 0.18249
 C431 C 0.31741 0.33976 0.20203
 C432 C 0.41679 0.41829 0.10037
 H433 H 0.35116 0.38285 0.09435
 H434 H 0.41069 0.38858 0.18623
 H435 H 0.44422 0.41881 0.14916
 H436 H 0.38431 0.41293 0.05721
 C437 C 0.88236 0.08480 -0.15129
 C438 C 0.87208 0.11146 -0.13740
 C439 C 0.88253 0.12177 -0.10358
 C440 C 0.90338 0.10567 -0.08388
 C441 C 0.79394 0.17254 -0.21159
 C442 C 0.90322 0.06865 -0.13163
 C443 C 0.85093 0.12830 -0.15791
 C444 C 0.83318 0.14241 -0.17501
 C445 C 0.81219 0.15879 -0.19487
 C446 C 0.91405 0.07902 -0.09782
 H447 H 0.87438 0.07658 -0.17741
 H448 H 0.87469 0.14235 -0.09254
 H449 H 0.91133 0.11419 -0.05792
 H450 H 0.91104 0.04821 -0.14303
 C451 C 0.88186 0.58435 0.34740
 C452 C 0.87129 0.61088 0.36135
 C453 C 0.88162 0.62124 0.39521
 C454 C 0.90262 0.60531 0.41490
 C455 C 0.79255 0.67165 0.28771
 C456 C 0.90287 0.56838 0.36705
 C457 C 0.84997 0.62756 0.34090
 C458 C 0.83208 0.64157 0.32390
 C459 C 0.81093 0.65790 0.30424
 C460 C 0.91357 0.57879 0.40091
 H461 H 0.87399 0.57610 0.32125
 H462 H 0.87356 0.64172 0.40631
 H463 H 0.91045 0.61387 0.44090
 H464 H 0.91091 0.54803 0.35561
 C465 C 0.40552 0.10663 0.34182
 C466 C 0.37917 0.11668 0.35710
 C467 C 0.37230 0.10999 0.39367
 C468 C 0.39124 0.09272 0.41465
 C469 C 0.29839 0.17363 0.28266
 C470 C 0.42459 0.08934 0.36286
 C471 C 0.35839 0.13277 0.33517
 C472 C 0.34008 0.14584 0.31775
 C473 C 0.31784 0.16085 0.29839
 C474 C 0.41736 0.08186 0.39930
 H475 H 0.41104 0.11167 0.31351
 H476 H 0.35198 0.11766 0.40577
 H477 H 0.38512 0.08737 0.44267
 H478 H 0.44455 0.08122 0.35036
 C479 C 0.40520 0.60688 -0.15919
 C480 C 0.37889 0.61696 -0.14385
 C481 C 0.37210 0.61046 -0.10722
 C482 C 0.39107 0.59326 -0.08622
 C483 C 0.29754 0.67305 -0.21799
 C484 C 0.42430 0.58967 -0.13814
 C485 C 0.35801 0.63281 -0.16582
 C486 C 0.33956 0.64564 -0.18322
 C487 C 0.31714 0.66040 -0.20245
 C488 C 0.41712 0.58230 -0.10165
 H489 H 0.41062 0.61179 -0.18756
 H490 H 0.35181 0.61817 -0.09510
 H491 H 0.38501 0.58800 -0.05816
 H492 H 0.44421 0.58147 -0.15069
 C493 C 1.11836 -0.12119 -0.10386
 C494 C 1.12869 -0.11082 -0.13772
 C495 C 1.11829 -0.08420 -0.15166
 C496 C 1.09742 -0.06813 -0.13200
 C497 C 1.20685 -0.17193 -0.21135
 C498 C 1.09750 -0.10518 -0.08416
 C499 C 1.14983 -0.12760 -0.15819
 C500 C 1.16758 -0.14170 -0.17520
 C501 C 1.18857 -0.15812 -0.19485
 C502 C 1.08671 -0.07857 -0.09815
 H503 H 1.12630 -0.14175 -0.09278
 H504 H 1.12618 -0.07594 -0.17782
 H505 H 1.08949 -0.04771 -0.14343
 H506 H 1.08965 -0.11374 -0.05816
 C507 C 1.11880 0.41616 0.34841
 C508 C 1.12918 0.38952 0.36236
 C509 C 1.11866 0.37910 0.39612
 C510 C 1.09766 0.39508 0.41568
 C511 C 1.20776 0.32865 0.28879
 C512 C 1.09779 0.43218 0.36794
 C513 C 1.15048 0.37279 0.34199
 C514 C 1.16834 0.35875 0.32503
 C515 C 1.18945 0.34240 0.30535
 C516 C 1.08690 0.42170 0.40168
 H517 H 1.12682 0.42447 0.32234
 H518 H 1.12656 0.35854 0.40723
 H519 H 1.08967 0.38647 0.44160
 H520 H 1.08991 0.45261 0.35648
 C521 C 0.62743 -0.11048 0.39400
 C522 C 0.62057 -0.11705 0.35741
 C523 C 0.59421 -0.10697 0.34210
 C524 C 0.57514 -0.08975 0.36313
 C525 C 0.70163 -0.17341 0.28315
 C526 C 0.60850 -0.09327 0.41497
 C527 C 0.64139 -0.13299 0.33547
 C528 C 0.65976 -0.14591 0.31807
 C529 C 0.68209 -0.16075 0.29878
 C530 C 0.58239 -0.08235 0.39958
 H531 H 0.64776 -0.11817 0.40611
 H532 H 0.58871 -0.11192 0.31377
 H533 H 0.55519 -0.08158 0.35061
 H534 H 0.61462 -0.08799 0.44300
 C535 C 0.59434 0.39407 -0.15942
 C536 C 0.62077 0.38416 -0.14418
 C537 C 0.62762 0.39070 -0.10757
 C538 C 0.60856 0.40773 -0.08653
 C539 C 0.70198 0.32818 -0.21861
 C540 C 0.57515 0.41111 -0.13832
 C541 C 0.64167 0.36838 -0.16617
 C542 C 0.66009 0.35557 -0.18362
 C543 C 0.68245 0.34081 -0.20295
 C544 C 0.58236 0.41848 -0.10185
 H545 H 0.58885 0.38913 -0.18777
 H546 H 0.64800 0.38314 -0.09550
 H547 H 0.61466 0.41300 -0.05849
 H548 H 0.55513 0.41915 -0.15081
 C549 C 1.10940 0.12875 -0.10699
 C550 C 1.11591 0.12220 -0.14369
 C551 C 1.10589 0.09591 -0.15908
 C552 C 1.08888 0.07658 -0.13800
 C553 C 1.17311 0.20361 -0.21699
 C554 C 1.09242 0.10956 -0.08599
 C555 C 1.13195 0.14315 -0.16551
 C556 C 1.14504 0.16160 -0.18271
 C557 C 1.16018 0.18401 -0.20170
 C558 C 1.08165 0.08346 -0.10139
 H559 H 1.11703 0.14900 -0.09477
 H560 H 1.11078 0.09061 -0.18747
 H561 H 1.08083 0.05666 -0.15058
 H562 H 1.08727 0.11544 -0.05785
 C563 C 1.10866 0.62944 0.39261
 C564 C 1.11540 0.62273 0.35602
 C565 C 1.10571 0.59628 0.34079
 C566 C 1.08878 0.57691 0.36189
 C567 C 1.17235 0.70398 0.28220
 C568 C 1.09175 0.61020 0.41366
 C569 C 1.13135 0.64369 0.33412
 C570 C 1.14437 0.66211 0.31680
 C571 C 1.15944 0.68445 0.29765
 C572 C 1.08129 0.58393 0.39839
 H573 H 1.11604 0.64982 0.40471
 H574 H 1.11079 0.59086 0.31248
 H575 H 1.08097 0.55685 0.34943
 H576 H 1.08640 0.61619 0.44170
 C577 C 0.58379 0.11825 0.34900
 C578 C 0.61044 0.12865 0.36299
 C579 C 0.62090 0.11829 0.39679
 C580 C 0.60494 0.09732 0.41638
 C581 C 0.67145 0.20610 0.28828
 C582 C 0.56779 0.09727 0.36856
 C583 C 0.62722 0.14972 0.34249
 C584 C 0.64132 0.16735 0.32532
 C585 C 0.65771 0.18810 0.30529
 C586 C 0.57834 0.08648 0.40231
 H587 H 0.57550 0.12617 0.32287
 H588 H 0.64148 0.12625 0.40786
 H589 H 0.61357 0.08939 0.44232
 H590 H 0.54736 0.08929 0.35710
 C591 C 0.58356 0.61865 -0.15232
 C592 C 0.61015 0.62914 -0.13822
 C593 C 0.62051 0.61878 -0.10436
 C594 C 0.60452 0.59778 -0.08483
 C595 C 0.67119 0.70711 -0.21236
 C596 C 0.56753 0.59764 -0.13281
 C597 C 0.62694 0.65033 -0.15862
 C598 C 0.64104 0.66807 -0.17565
 C599 C 0.65744 0.68898 -0.19551
 C600 C 0.57797 0.58688 -0.09898
 H601 H 0.57532 0.62656 -0.17848
 H602 H 0.64104 0.62678 -0.09318
 H603 H 0.61309 0.58989 -0.05884
 H604 H 0.54715 0.58963 -0.14436
 C605 C 0.89434 -0.09537 -0.15866
 C606 C 0.88445 -0.12175 -0.14334
 C607 C 0.89120 -0.12850 -0.10673
 C608 C 0.90828 -0.10939 -0.08576
 C609 C 0.82690 -0.20270 -0.21687
 C610 C 0.91145 -0.07613 -0.13762
 C611 C 0.86830 -0.14260 -0.16515
 C612 C 0.85511 -0.16094 -0.18239
 C613 C 0.83988 -0.18322 -0.20147
 C614 C 0.91892 -0.08319 -0.10110
 H615 H 0.88927 -0.08991 -0.18698
 H616 H 0.88367 -0.14882 -0.09456
 H617 H 0.91361 -0.11542 -0.05770
 H618 H 0.91940 -0.05612 -0.15015
 C619 C 0.89457 0.40518 0.33998
 C620 C 0.88452 0.37884 0.35525
 C621 C 0.89098 0.37210 0.39193
 C622 C 0.90798 0.39116 0.41304
 C623 C 0.82769 0.29760 0.28168
 C624 C 0.91159 0.42438 0.36116
 C625 C 0.86857 0.35799 0.33329
 C626 C 0.85557 0.33959 0.31599
 C627 C 0.84054 0.31721 0.29695
 C628 C 0.91881 0.41729 0.39774
 H629 H 0.88970 0.41061 0.31159
 H630 H 0.88332 0.35181 0.40404
 H631 H 0.91313 0.38514 0.44116
 H632 H 0.91969 0.44433 0.34867
 C633 C 0.37874 -0.11861 0.39758
 C634 C 0.38913 -0.12904 0.36382
 C635 C 0.41578 -0.11867 0.34978
 C636 C 0.43184 -0.09770 0.36923
 C637 C 0.32801 -0.20644 0.28915
 C638 C 0.39476 -0.09764 0.41707
 C639 C 0.37229 -0.15012 0.34340
 C640 C 0.35817 -0.16774 0.32625
 C641 C 0.34177 -0.18848 0.30620
 C642 C 0.42137 -0.08684 0.40295
 H643 H 0.35816 -0.12652 0.40871
 H644 H 0.42403 -0.12664 0.32368
 H645 H 0.45227 -0.08977 0.35772
 H646 H 0.38618 -0.08967 0.44299
 C647 C 0.37854 0.38139 -0.10386
 C648 C 0.38888 0.37101 -0.13767
 C649 C 0.41546 0.38149 -0.15181
 C650 C 0.43149 0.40252 -0.13240
 C651 C 0.32781 0.29300 -0.21150
 C652 C 0.39453 0.40241 -0.08442
 C653 C 0.37208 0.34981 -0.15797
 C654 C 0.35796 0.33206 -0.17493
 C655 C 0.34156 0.31114 -0.19471
 C656 C 0.42107 0.41331 -0.09862
 H657 H 0.35802 0.37339 -0.09265
 H658 H 0.42367 0.37356 -0.17794
 H659 H 0.45186 0.41053 -0.14398
 H660 H 0.38598 0.41032 -0.05846
 C661 C 1.10592 -0.09625 0.15960
 C662 C 1.11562 -0.12269 0.14435
 C663 C 1.10892 -0.12934 0.10773
 C664 C 1.09205 -0.11008 0.08666
 C665 C 1.17243 -0.20406 0.21813
 C666 C 1.08903 -0.07685 0.13847
 C667 C 1.13152 -0.14368 0.16626
 C668 C 1.14452 -0.16212 0.18357
 C669 C 1.15955 -0.18450 0.20271
 C670 C 1.08160 -0.08383 0.10194
 H671 H 1.11097 -0.09086 0.18794
 H672 H 1.11631 -0.14971 0.09561
 H673 H 1.08674 -0.11604 0.05859
 H674 H 1.08123 -0.05681 0.15096
 C675 C 1.10840 0.37136 0.60783
 C676 C 1.11495 0.37806 0.64449
 C677 C 1.10502 0.40443 0.65969
 C678 C 1.08807 0.42372 0.63848
 C679 C 1.17211 0.29700 0.71845
 C680 C 1.09147 0.39052 0.58668
 C681 C 1.13095 0.35717 0.66646
 C682 C 1.14403 0.33880 0.68381
 C683 C 1.15916 0.31650 0.70299
 C684 C 1.08080 0.41671 0.60191
 H685 H 1.11596 0.35105 0.59575
 H686 H 1.10995 0.40985 0.68806
 H687 H 1.08010 0.44372 0.65092
 H688 H 1.08629 0.38453 0.55858
 C689 C 0.62102 -0.11876 0.60396
 C690 C 0.61061 -0.12909 0.63780
 C691 C 0.58403 -0.11857 0.65182
 C692 C 0.56806 -0.09755 0.63226
 C693 C 0.67133 -0.20705 0.71238
 C694 C 0.60509 -0.09775 0.58437
 C695 C 0.62734 -0.15029 0.65827
 C696 C 0.64136 -0.16803 0.67540
 C697 C 0.65766 -0.18894 0.69540
 C698 C 0.57855 -0.08681 0.59845
 H699 H 0.64155 -0.12680 0.59284
 H700 H 0.57576 -0.12645 0.67797
 H701 H 0.54769 -0.08951 0.64375
 H702 H 0.61369 -0.08988 0.55839
 C703 C 0.62054 0.38165 0.10218
 C704 C 0.61017 0.37126 0.13600
 C705 C 0.58355 0.38163 0.15006
 C706 C 0.56750 0.40260 0.13056
 C707 C 0.67138 0.29385 0.21054
 C708 C 0.60453 0.40262 0.08265
 C709 C 0.62701 0.35020 0.15644
 C710 C 0.64116 0.33258 0.17357
 C711 C 0.65760 0.31184 0.19356
 C712 C 0.57796 0.41343 0.09679
 H713 H 0.64111 0.37372 0.09105
 H714 H 0.57533 0.37368 0.17620
 H715 H 0.54710 0.41055 0.14208
 H716 H 0.61310 0.41057 0.05670
 C717 C 0.89487 0.09504 0.15967
 C718 C 0.88486 0.12136 0.14433
 C719 C 0.89140 0.12810 0.10768
 C720 C 0.90846 0.10904 0.08667
 C721 C 0.82779 0.20259 0.21752
 C722 C 0.91195 0.07585 0.13859
 C723 C 0.86884 0.14222 0.16618
 C724 C 0.85578 0.16061 0.18339
 C725 C 0.84070 0.18299 0.20233
 C726 C 0.91926 0.08293 0.10204
 H727 H 0.88993 0.08962 0.18804
 H728 H 0.88377 0.14838 0.09551
 H729 H 0.91367 0.11505 0.05857
 H730 H 0.92002 0.05590 0.15113
 C731 C 0.89395 0.59563 0.65864
 C732 C 0.88420 0.62209 0.64342
 C733 C 0.89101 0.62892 0.60686
 C734 C 0.90802 0.60980 0.58584
 C735 C 0.82686 0.70293 0.71728
 C736 C 0.91098 0.57638 0.63756
 C737 C 0.86811 0.64293 0.66530
 C738 C 0.85498 0.66125 0.68261
 C739 C 0.83981 0.68349 0.70179
 C740 C 0.91852 0.58352 0.60110
 H741 H 0.88882 0.59011 0.68693
 H742 H 0.88359 0.64931 0.59477
 H743 H 0.91340 0.61589 0.55783
 H744 H 0.91882 0.55630 0.65003
 C745 C 0.37921 0.11839 0.60380
 C746 C 0.38966 0.12874 0.63759
 C747 C 0.41634 0.11835 0.65154
 C748 C 0.43236 0.09743 0.63197
 C749 C 0.32864 0.20616 0.71228
 C750 C 0.39518 0.09747 0.58420
 C751 C 0.37287 0.14980 0.65809
 C752 C 0.35877 0.16742 0.67525
 C753 C 0.34239 0.18817 0.69528
 C754 C 0.42182 0.08665 0.59823
 H755 H 0.35860 0.12632 0.59274
 H756 H 0.42465 0.12626 0.67765
 H757 H 0.45281 0.08948 0.64342
 H758 H 0.38655 0.08956 0.55828
 C759 C 0.41551 0.61839 0.15011
 C760 C 0.38884 0.62877 0.13613
 C761 C 0.37840 0.61840 0.10235
 C762 C 0.39438 0.59747 0.08278
 C763 C 0.32788 0.70610 0.21099
 C764 C 0.43154 0.59746 0.13058
 C765 C 0.37204 0.64982 0.15662
 C766 C 0.35796 0.66742 0.17382
 C767 C 0.34160 0.68814 0.19391
 C768 C 0.42101 0.58666 0.09684
 H769 H 0.42381 0.62631 0.17622
 H770 H 0.35780 0.62632 0.09127
 H771 H 0.38576 0.58955 0.05686
 H772 H 0.45198 0.58952 0.14204
   
