data_POSCAR
  _audit_creation_date              2014-09-24
  _audit_creation_method            'ToBaCCo'
  _symmetry_space_group_name_H-M    'P1'
  _symmetry_Int_Tables_number       1
  _symmetry_cell_setting            triclinic
  loop_
  _symmetry_equiv_pos_as_xyz
 x,y,z
_cell_length_a 28.0228
_cell_length_b 28.0738
_cell_length_c 27.9867
_cell_angle_alpha 89.884800
_cell_angle_beta 90.043700
_cell_angle_gamma 89.956300
loop_
  _atom_site_label
  _atom_site_type_symbol
  _atom_site_fract_x
  _atom_site_fract_y
  _atom_site_fract_z
N1 N 0.55134 0.09657 0.02241
 N2 N 0.58578 0.12400 0.03893
 N3 N 0.45171 0.09686 -0.02494
 N4 N 0.41732 0.12420 -0.04205
 N5 N 0.45104 0.09684 0.02197
 N6 N 0.41603 0.12384 0.03805
 N7 N 0.55211 0.09551 -0.02447
 N8 N 0.58731 0.12199 -0.04113
 C9 C 0.60811 0.13941 -0.00110
 C10 C 0.39519 0.14058 -0.00229
 N11 N 0.45075 -0.02359 -0.09542
 N12 N 0.41579 -0.04019 -0.12229
 N13 N 0.55153 0.02201 -0.09632
 N14 N 0.58572 0.03760 -0.12480
 N15 N 0.55144 -0.02466 -0.09452
 N16 N 0.58815 -0.04254 -0.12281
 N17 N 0.45146 0.02315 -0.09663
 N18 N 0.41731 0.03962 -0.12464
 Mn19 Mn 0.50173 0.05979 -0.06097
 C20 C 0.39514 -0.00030 -0.14019
 C21 C 0.60814 -0.00228 -0.14073
 N22 N 0.45052 0.02557 0.09618
 N23 N 0.41575 0.04278 0.12287
 N24 N 0.55024 -0.02164 0.09789
 N25 N 0.58382 -0.03769 0.12696
 N26 N 0.55095 0.02503 0.09592
 N27 N 0.58751 0.04240 0.12470
 N28 N 0.44991 -0.02117 0.09664
 N29 N 0.41450 -0.03707 0.12329
 Mn30 Mn 0.50093 0.06138 0.05951
 C31 C 0.39341 0.00325 0.13934
 C32 C 0.60664 0.00190 0.14306
 N33 N 0.55041 -0.09589 -0.02086
 N34 N 0.58538 -0.12288 -0.03703
 N35 N 0.45003 -0.09495 0.02544
 N36 N 0.41543 -0.12207 0.04227
 N37 N 0.44982 -0.09505 -0.02146
 N38 N 0.41486 -0.12195 -0.03783
 N39 N 0.55019 -0.09558 0.02605
 N40 N 0.58471 -0.12279 0.04308
 Mn41 Mn 0.50056 -0.06019 -0.05847
 Mn42 Mn 0.50012 -0.05872 0.06191
 Cl43 Cl 0.50081 0.00055 0.00048
 C44 C 0.60655 -0.13936 0.00325
 C45 C 0.39358 -0.13845 0.00237
 N46 N 0.09705 0.45076 0.02379
 N47 N 0.12456 0.41640 0.04060
 N48 N 0.09704 0.55039 -0.02330
 N49 N 0.12451 0.58479 -0.03991
 N50 N 0.09621 0.55099 0.02358
 N51 N 0.12287 0.58602 0.04017
 N52 N 0.09666 0.45023 -0.02312
 N53 N 0.12362 0.41536 -0.03951
 C54 C 0.14068 0.39443 0.00066
 C55 C 0.14018 0.60691 0.00010
 N56 N -0.02207 0.55083 -0.09728
 N57 N -0.03816 0.58465 -0.12597
 N58 N 0.02449 0.45040 -0.09645
 N59 N 0.04114 0.41528 -0.12298
 N60 N -0.02234 0.45096 -0.09735
 N61 N -0.03884 0.41650 -0.12473
 N62 N 0.02472 0.55092 -0.09604
 N63 N 0.04213 0.58745 -0.12487
 Mn64 Mn 0.06110 0.50042 -0.06015
 C65 C 0.00151 0.60709 -0.14254
 C66 C 0.00117 0.39437 -0.14031
 N67 N 0.02299 0.55059 0.09567
 N68 N 0.03897 0.58581 0.12242
 N69 N -0.02309 0.44956 0.09509
 N70 N -0.03962 0.41465 0.12205
 N71 N 0.02375 0.45037 0.09610
 N72 N 0.04035 0.41620 0.12401
 N73 N -0.02384 0.54972 0.09577
 N74 N -0.04102 0.58412 0.12285
 Mn75 Mn 0.06039 0.50073 0.06019
 C76 C -0.00141 0.60650 0.13905
 C77 C 0.00040 0.39401 0.13973
 N78 N -0.09547 0.45058 -0.02524
 N79 N -0.12252 0.41610 -0.04226
 N80 N -0.09563 0.55013 0.02226
 N81 N -0.12266 0.58481 0.03898
 N82 N -0.09552 0.55052 -0.02466
 N83 N -0.12287 0.58516 -0.04113
 N84 N -0.09518 0.44973 0.02166
 N85 N -0.12178 0.41444 0.03783
 Mn86 Mn -0.05923 0.50080 -0.06151
 Mn87 Mn -0.05984 0.49972 0.05906
 Cl88 Cl 0.00062 0.50040 -0.00058
 C89 C -0.13850 0.39368 -0.00249
 C90 C -0.13933 0.60645 -0.00098
 N91 N 0.02194 0.09576 0.45071
 N92 N 0.03803 0.12273 0.41558
 N93 N -0.02327 0.09450 0.55238
 N94 N -0.03917 0.12121 0.58773
 N95 N 0.02354 0.09490 0.55117
 N96 N 0.04079 0.12213 0.58544
 N97 N -0.02489 0.09642 0.45185
 N98 N -0.04193 0.12415 0.41770
 C99 C -0.00223 0.14013 0.39519
 C100 C 0.00126 0.13807 0.60818
 N101 N -0.09663 -0.02465 0.55092
 N102 N -0.12434 -0.04183 0.58495
 N103 N -0.09779 0.02383 0.45186
 N104 N -0.12604 0.04095 0.41817
 N105 N -0.09701 -0.02291 0.45047
 N106 N -0.12431 -0.03886 0.41556
 N107 N -0.09591 0.02208 0.55234
 N108 N -0.12273 0.03797 0.58765
 Mn109 Mn -0.06086 0.05960 0.50216
 C110 C -0.14009 -0.00234 0.60779
 C111 C -0.14207 0.00140 0.39562
 N112 N 0.09586 0.02209 0.54979
 N113 N 0.12305 0.03826 0.58470
 N114 N 0.09508 -0.02355 0.44906
 N115 N 0.12241 -0.03975 0.41433
 N116 N 0.09457 0.02320 0.44907
 N117 N 0.12130 0.04009 0.41411
 N118 N 0.09604 -0.02467 0.54930
 N119 N 0.12372 -0.04159 0.58353
 Mn120 Mn 0.05937 0.05936 0.50014
 C121 C 0.14012 -0.00190 0.60552
 C122 C 0.13829 0.00036 0.39263
 N123 N -0.02440 -0.09553 0.44885
 N124 N -0.04113 -0.12225 0.41387
 N125 N 0.02314 -0.09738 0.54906
 N126 N 0.03995 -0.12561 0.58287
 N127 N -0.02372 -0.09697 0.54965
 N128 N -0.04005 -0.12444 0.58431
 N129 N 0.02244 -0.09596 0.44892
 N130 N 0.03886 -0.12321 0.41429
 Mn131 Mn -0.06082 -0.06042 0.49993
 Mn132 Mn 0.05953 -0.06075 0.49913
 Cl133 Cl -0.00071 -0.00054 0.50034
 C134 C -0.00119 -0.13914 0.39250
 C135 C 0.00012 -0.14196 0.60479
 C136 C -0.27708 0.24096 -0.00177
 C137 C -0.28735 0.21386 -0.04279
 C138 C -0.32446 0.18059 -0.04253
 C139 C -0.35157 0.17317 -0.00107
 C140 C -0.34068 0.19919 0.04026
 C141 C -0.30414 0.23297 0.03983
 C142 C -0.23951 0.27847 -0.00268
 C143 C -0.21225 0.28849 0.03837
 C144 C -0.17915 0.32570 0.03833
 C145 C -0.17197 0.35316 -0.00297
 C146 C -0.19799 0.34243 -0.04441
 C147 C -0.23167 0.30576 -0.04418
 H148 H -0.33189 0.16063 -0.07477
 H149 H -0.36124 0.19433 0.07266
 H150 H -0.15914 0.33297 0.07063
 H151 H -0.19327 0.36325 -0.07668
 H152 H -0.29802 0.25369 0.07181
 H153 H -0.21647 0.26762 0.07065
 H154 H -0.26670 0.21826 -0.07516
 H155 H -0.25247 0.29977 -0.07620
 C156 C 0.27900 0.75963 0.00193
 C157 C 0.28938 0.78667 -0.03919
 C158 C 0.32637 0.82006 -0.03895
 C159 C 0.35326 0.82776 0.00262
 C160 C 0.34219 0.80193 0.04411
 C161 C 0.30576 0.76796 0.04369
 C162 C 0.24162 0.72188 0.00092
 C163 C 0.21416 0.71163 0.04178
 C164 C 0.18098 0.67446 0.04146
 C165 C 0.17394 0.64724 0.00006
 C166 C 0.20029 0.65809 -0.04113
 C167 C 0.23403 0.69470 -0.04062
 H168 H 0.33390 0.83989 -0.07131
 H169 H 0.36257 0.80702 0.07659
 H170 H 0.16074 0.66708 0.07359
 H171 H 0.19573 0.63745 -0.07347
 H172 H 0.29953 0.74736 0.07580
 H173 H 0.21820 0.73236 0.07410
 H174 H 0.26894 0.78210 -0.07169
 H175 H 0.25501 0.70079 -0.07249
 C176 C 0.28043 0.24242 -0.00168
 C177 C 0.30738 0.23452 -0.04338
 C178 C 0.34390 0.20057 -0.04393
 C179 C 0.35481 0.17435 -0.00263
 C180 C 0.32772 0.18165 0.03886
 C181 C 0.29068 0.21501 0.03923
 C182 C 0.24287 0.28002 -0.00049
 C183 C 0.23501 0.30685 0.04123
 C184 C 0.20099 0.34326 0.04192
 C185 C 0.17462 0.35422 0.00072
 C186 C 0.18193 0.32732 -0.04085
 C187 C 0.21539 0.29037 -0.04135
 H188 H 0.36445 0.19578 -0.07633
 H189 H 0.33513 0.16152 0.07108
 H190 H 0.19623 0.36367 0.07437
 H191 H 0.16170 0.33479 -0.07300
 H192 H 0.27009 0.21925 0.07165
 H193 H 0.25599 0.30063 0.07312
 H194 H 0.30121 0.25542 -0.07532
 H195 H 0.21963 0.26990 -0.07380
 C196 C -0.27875 0.75876 0.00230
 C197 C -0.28885 0.78648 -0.03846
 C198 C -0.32587 0.81985 -0.03797
 C199 C -0.35306 0.82690 0.00349
 C200 C -0.34226 0.80042 0.04466
 C201 C -0.30580 0.76643 0.04397
 C202 C -0.24128 0.72107 0.00093
 C203 C -0.21406 0.71019 0.04183
 C204 C -0.18070 0.67314 0.04111
 C205 C -0.17322 0.64670 -0.00071
 C206 C -0.19933 0.65818 -0.04193
 C207 C -0.23327 0.69466 -0.04104
 H208 H -0.33319 0.84020 -0.07008
 H209 H -0.36290 0.80502 0.07703
 H210 H -0.16068 0.66525 0.07329
 H211 H -0.19444 0.63812 -0.07458
 H212 H -0.29975 0.74531 0.07579
 H213 H -0.21841 0.73032 0.07448
 H214 H -0.26817 0.78245 -0.07084
 H215 H -0.25406 0.70125 -0.07298
 C216 C -0.00234 -0.27833 0.24014
 C217 C -0.04359 -0.30582 0.23228
 C218 C -0.04358 -0.34248 0.19858
 C219 C -0.00214 -0.35301 0.17256
 C220 C 0.03890 -0.32535 0.17974
 C221 C 0.03869 -0.28815 0.21284
 C222 C -0.00164 -0.24085 0.27776
 C223 C 0.03996 -0.23258 0.30470
 C224 C 0.04028 -0.19876 0.34121
 C225 C -0.00117 -0.17300 0.35224
 C226 C -0.04267 -0.18073 0.32530
 C227 C -0.04282 -0.21402 0.28819
 H228 H -0.07566 -0.36344 0.19386
 H229 H 0.07119 -0.33246 0.15971
 H230 H 0.07271 -0.19368 0.36165
 H231 H -0.07500 -0.16097 0.33285
 H232 H 0.07078 -0.26712 0.21703
 H233 H 0.07207 -0.25309 0.29850
 H234 H -0.07559 -0.30000 0.25309
 H235 H -0.07522 -0.21864 0.26765
 C236 C 0.00154 0.27859 0.75924
 C237 C -0.03998 0.30574 0.76696
 C238 C -0.04028 0.34267 0.80032
 C239 C 0.00111 0.35385 0.82618
 C240 C 0.04253 0.32671 0.81898
 C241 C 0.04265 0.28922 0.78614
 C242 C 0.00223 0.24049 0.72225
 C243 C 0.04351 0.23215 0.69488
 C244 C 0.04350 0.19799 0.65864
 C245 C 0.00204 0.17194 0.64841
 C246 C -0.03902 0.17958 0.67600
 C247 C -0.03883 0.21318 0.71278
 H248 H -0.07264 0.36324 0.80501
 H249 H 0.07481 0.33436 0.83883
 H250 H 0.07560 0.19293 0.63772
 H251 H -0.07134 0.15958 0.66913
 H252 H 0.07499 0.26855 0.78194
 H253 H 0.07553 0.25294 0.70045
 H254 H -0.07204 0.29936 0.74637
 H255 H -0.07094 0.21776 0.73375
 C256 C -0.00077 0.27985 0.24260
 C257 C 0.04092 0.30662 0.23448
 C258 C 0.04156 0.34297 0.20030
 C259 C 0.00035 0.35393 0.17398
 C260 C -0.04121 0.32711 0.18158
 C261 C -0.04167 0.29024 0.21525
 C262 C -0.00184 0.24225 0.28030
 C263 C -0.04334 0.23441 0.30754
 C264 C -0.04379 0.20044 0.34413
 C265 C -0.00258 0.17408 0.35483
 C266 C 0.03872 0.18133 0.32746
 C267 C 0.03899 0.21474 0.29036
 H268 H 0.07401 0.36330 0.19534
 H269 H -0.07337 0.33459 0.16142
 H270 H -0.07605 0.19570 0.36488
 H271 H 0.07087 0.16110 0.33469
 H272 H -0.07412 0.26983 0.21971
 H273 H -0.07521 0.25537 0.30151
 H274 H 0.07285 0.30039 0.25536
 H275 H 0.07127 0.21894 0.26956
 C276 C 0.00033 -0.28229 0.75688
 C277 C -0.04242 -0.30457 0.77092
 C278 C -0.04228 -0.34064 0.80547
 C279 C 0.00084 -0.35638 0.82607
 C280 C 0.04351 -0.33360 0.81244
 C281 C 0.04313 -0.29676 0.77886
 C282 C 0.00056 -0.24513 0.71864
 C283 C 0.03991 -0.24060 0.68766
 C284 C 0.04007 -0.20636 0.65141
 C285 C 0.00048 -0.17662 0.64443
 C286 C -0.03896 -0.18094 0.67496
 C287 C -0.03871 -0.21444 0.71203
 H288 H -0.07600 -0.35706 0.81481
 H289 H 0.07749 -0.34393 0.82783
 H290 H 0.07075 -0.20400 0.62800
 H291 H -0.06979 -0.15807 0.67046
 H292 H 0.07662 -0.27964 0.77022
 H293 H 0.07034 -0.26417 0.69059
 H294 H -0.07605 -0.29511 0.75442
 H295 H -0.06925 -0.21598 0.73562
 C296 C 0.28051 -0.00107 0.75745
 C297 C 0.30774 0.04033 0.76517
 C298 C 0.34428 0.04079 0.79915
 C299 C 0.35500 -0.00032 0.82565
 C300 C 0.32778 -0.04162 0.81842
 C301 C 0.29069 -0.04189 0.78496
 C302 C 0.24270 -0.00192 0.71997
 C303 C 0.23437 -0.04338 0.69301
 C304 C 0.20025 -0.04365 0.65657
 C305 C 0.17425 -0.00229 0.64571
 C306 C 0.18199 0.03899 0.67278
 C307 C 0.21555 0.03908 0.70976
 H308 H 0.36492 0.07304 0.80383
 H309 H 0.33508 -0.07369 0.83873
 H310 H 0.19513 -0.07591 0.63605
 H311 H 0.16204 0.07125 0.66541
 H312 H 0.26994 -0.07412 0.78079
 H313 H 0.25507 -0.07538 0.69914
 H314 H 0.30171 0.07216 0.74414
 H315 H 0.22013 0.07134 0.73036
 C316 C -0.28274 0.00127 0.24377
 C317 C -0.29702 0.04381 0.22129
 C318 C -0.33385 0.04398 0.18767
 C319 C -0.35689 0.00135 0.17457
 C320 C -0.34143 -0.04152 0.19577
 C321 C -0.30530 -0.04145 0.23029
 C322 C -0.24541 0.00173 0.28185
 C323 C -0.21468 -0.03744 0.28857
 C324 C -0.18103 -0.03753 0.32550
 C325 C -0.17663 0.00193 0.35586
 C326 C -0.20637 0.04148 0.34872
 C327 C -0.24073 0.04118 0.31254
 H328 H -0.34397 0.07778 0.17185
 H329 H -0.35806 -0.07519 0.18685
 H330 H -0.15817 -0.06834 0.33010
 H331 H -0.20395 0.07218 0.37197
 H332 H -0.29597 -0.07487 0.24722
 H333 H -0.21632 -0.06804 0.26518
 H334 H -0.27970 0.07724 0.22953
 H335 H -0.26430 0.07158 0.30945
 C336 C 0.27772 0.00331 0.24015
 C337 C 0.28782 -0.03746 0.21273
 C338 C 0.32514 -0.03730 0.17966
 C339 C 0.35263 0.00385 0.17261
 C340 C 0.34175 0.04508 0.19867
 C341 C 0.30497 0.04472 0.23237
 C342 C 0.24019 0.00212 0.27782
 C343 C 0.21297 0.04294 0.28840
 C344 C 0.17960 0.04233 0.32551
 C345 C 0.17217 0.00070 0.35231
 C346 C 0.19832 -0.04040 0.34114
 C347 C 0.23223 -0.03961 0.30461
 H348 H 0.33250 -0.06943 0.15960
 H349 H 0.36259 0.07723 0.19403
 H350 H 0.15954 0.07440 0.33319
 H351 H 0.19348 -0.07290 0.36148
 H352 H 0.29889 0.07654 0.25326
 H353 H 0.21735 0.07543 0.26798
 H354 H 0.26696 -0.06964 0.21682
 H355 H 0.25306 -0.07145 0.29829
 C356 C -0.28020 -0.00242 0.75991
 C357 C -0.29511 -0.04494 0.78197
 C358 C -0.33229 -0.04490 0.81519
 C359 C -0.35500 -0.00208 0.82828
 C360 C -0.33884 0.04074 0.80757
 C361 C -0.30242 0.04046 0.77345
 C362 C -0.24272 -0.00301 0.72202
 C363 C -0.21180 0.03602 0.71554
 C364 C -0.17835 0.03621 0.67848
 C365 C -0.17428 -0.00303 0.64781
 C366 C -0.20407 -0.04251 0.65482
 C367 C -0.23827 -0.04230 0.69110
 H368 H -0.34295 -0.07866 0.83068
 H369 H -0.35518 0.07456 0.81651
 H370 H -0.15541 0.06694 0.67400
 H371 H -0.20188 -0.07306 0.63134
 H372 H -0.29265 0.07389 0.75683
 H373 H -0.21323 0.06647 0.73913
 H374 H -0.27809 -0.07853 0.77368
 H375 H -0.26195 -0.07258 0.69401
   
