data_POSCAR
  _audit_creation_date              2014-09-24
  _audit_creation_method            'ToBaCCo'
  _symmetry_space_group_name_H-M    'P1'
  _symmetry_Int_Tables_number       1
  _symmetry_cell_setting            triclinic
  loop_
  _symmetry_equiv_pos_as_xyz
 x,y,z
_cell_length_a 53.9530
_cell_length_b 53.6041
_cell_length_c 53.5924
_cell_angle_alpha 89.997500
_cell_angle_beta 89.963700
_cell_angle_gamma 90.006700
loop_
  _atom_site_label
  _atom_site_type_symbol
  _atom_site_fract_x
  _atom_site_fract_y
  _atom_site_fract_z
C1 C 0.21222 0.51974 1.03085
 H2 H 0.21218 0.53406 1.01662
 C3 C 0.19531 0.52091 1.05052
 H4 H 0.18246 0.53641 1.05116
 C5 C 0.22884 0.48197 1.04651
 H6 H 0.24160 0.46657 1.04460
 C7 C 0.21217 0.48232 1.06649
 H8 H 0.21267 0.46716 1.07983
 N9 N 0.22863 0.50058 1.02927
 C10 C 0.28701 0.52966 0.98110
 H11 H 0.28715 0.51537 0.96685
 C12 C 0.30387 0.54936 0.97990
 H13 H 0.31687 0.55008 0.96452
 C14 C 0.27019 0.54548 1.01876
 H15 H 0.25738 0.54363 1.03414
 C16 C 0.28680 0.56549 1.01834
 H17 H 0.28633 0.57899 1.03336
 Zn18 Zn 0.24957 0.49984 1.00095
 N19 N 0.27051 0.52815 1.00022
 C20 C 0.22910 0.51764 0.95523
 N21 N 0.22871 0.49912 0.97258
 C22 C 0.21222 0.48002 0.97104
 C23 C 0.19542 0.47882 0.95129
 C24 C 0.21256 0.51722 0.93518
 C25 C 0.28688 0.46988 1.02082
 C26 C 0.30370 0.45015 1.02198
 C27 C 0.28669 0.43415 0.98349
 C28 C 0.27012 0.45418 0.98311
 N29 N 0.27044 0.47147 1.00168
 H30 H 0.24192 0.53300 0.95711
 H31 H 0.21203 0.46577 0.98534
 H32 H 0.18243 0.46345 0.95055
 H33 H 0.21309 0.53222 0.92166
 H34 H 0.28701 0.48413 1.03511
 H35 H 0.31667 0.44937 1.03737
 H36 H 0.28623 0.42069 0.96843
 H37 H 0.25735 0.45610 0.96772
 C38 C 0.30401 0.56758 0.99875
 C39 C 0.19494 0.50194 1.06871
 C40 C 0.30385 0.43198 1.00308
 C41 C 0.19536 0.49765 0.93305
 C42 C 0.78735 0.51980 -0.02944
 H43 H 0.78754 0.53404 -0.01513
 C44 C 0.80419 0.52097 -0.04917
 H45 H 0.81722 0.53632 -0.04990
 C46 C 0.77044 0.48221 -0.04526
 H47 H 0.75761 0.46686 -0.04340
 C48 C 0.78703 0.48260 -0.06530
 H49 H 0.78652 0.46759 -0.07881
 N50 N 0.77083 0.50072 -0.02791
 C51 C 0.71259 0.52987 0.02038
 H52 H 0.71242 0.51556 0.03462
 C53 C 0.69576 0.54959 0.02159
 H54 H 0.68276 0.55032 0.03697
 C55 C 0.72944 0.54569 -0.01726
 H56 H 0.74225 0.54383 -0.03264
 C57 C 0.71287 0.56572 -0.01683
 H58 H 0.71336 0.57923 -0.03184
 Zn59 Zn 0.74994 0.49997 0.00046
 N60 N 0.72908 0.52834 0.00126
 C61 C 0.77052 0.51764 0.04616
 N62 N 0.77084 0.49915 0.02878
 C63 C 0.78731 0.48002 0.03025
 C64 C 0.80415 0.47876 0.04996
 C65 C 0.78711 0.51716 0.06618
 C66 C 0.71249 0.47020 -0.01941
 C67 C 0.69562 0.45050 -0.02061
 C68 C 0.71272 0.43429 0.01776
 C69 C 0.72933 0.45429 0.01818
 N70 N 0.72899 0.47167 -0.00031
 H71 H 0.75773 0.53302 0.04434
 H72 H 0.78745 0.46580 0.01593
 H73 H 0.81713 0.46338 0.05065
 H74 H 0.78664 0.53214 0.07972
 H75 H 0.71234 0.48452 -0.03363
 H76 H 0.68261 0.44982 -0.03597
 H77 H 0.71320 0.42075 0.03274
 H78 H 0.74216 0.45611 0.03354
 C79 C 0.69566 0.56782 0.00275
 C80 C 0.80427 0.50214 -0.06740
 C81 C 0.69550 0.43224 -0.00180
 C82 C 0.80429 0.49756 0.06823
 C83 C -0.01989 0.28701 0.46989
 H84 H -0.03393 0.28722 0.48431
 C85 C -0.02118 0.30396 0.45017
 H86 H -0.03649 0.31701 0.44968
 C87 C 0.01730 0.26994 0.45378
 H88 H 0.03253 0.25699 0.45552
 C89 C 0.01683 0.28662 0.43375
 H90 H 0.03172 0.28593 0.42021
 N91 N -0.00096 0.27035 0.47127
 C92 C -0.02916 0.21144 0.51970
 H93 H -0.01460 0.21106 0.53357
 C94 C -0.04884 0.19463 0.52128
 H95 H -0.04927 0.18141 0.53656
 C96 C -0.04574 0.22888 0.48268
 H97 H -0.04423 0.24193 0.46740
 C98 C -0.06577 0.21236 0.48351
 H99 H -0.07960 0.21312 0.46890
 Zn100 Zn 0.00009 0.24929 0.49960
 N101 N -0.02804 0.22823 0.50073
 C102 C -0.01710 0.26966 0.54556
 N103 N 0.00110 0.27027 0.52798
 C104 C 0.01995 0.28703 0.52936
 C105 C 0.02122 0.30388 0.54917
 C106 C -0.01660 0.28624 0.56567
 C107 C 0.02948 0.21159 0.47941
 C108 C 0.04920 0.19482 0.47784
 C109 C 0.06601 0.21251 0.51568
 C110 C 0.04595 0.22898 0.51650
 N111 N 0.02828 0.22833 0.49842
 H112 H -0.03228 0.25665 0.54382
 H113 H 0.03393 0.28740 0.51488
 H114 H 0.03638 0.31710 0.54979
 H115 H -0.03134 0.28553 0.57937
 H116 H 0.01495 0.21120 0.46551
 H117 H 0.04969 0.18164 0.46255
 H118 H 0.07980 0.21328 0.53033
 H119 H 0.04438 0.24200 0.53180
 C120 C -0.06748 0.19488 0.50299
 C121 C -0.00256 0.30410 0.43173
 C122 C 0.06779 0.19507 0.49618
 C123 C 0.00272 0.30371 0.56763
 C124 C 0.98020 0.71271 0.52988
 H125 H 0.96624 0.71236 0.51540
 C126 C 0.97892 0.69582 0.54965
 H127 H 0.96377 0.68259 0.55025
 C128 C 1.01723 0.73006 0.54609
 H129 H 1.03241 0.74308 0.54437
 C130 C 1.01672 0.71344 0.56617
 H131 H 1.03145 0.71413 0.57986
 N132 N 0.99906 0.72948 0.52852
 C133 C 0.97086 0.78826 0.48000
 H134 H 0.98544 0.78866 0.46614
 C135 C 0.95116 0.80504 0.47840
 H136 H 0.95074 0.81826 0.46313
 C137 C 0.95422 0.77079 0.51701
 H138 H 0.95573 0.75774 0.53228
 C139 C 0.93418 0.78729 0.51617
 H140 H 0.92033 0.78650 0.53077
 Zn141 Zn 1.00013 0.75048 0.50015
 N142 N 0.97196 0.77148 0.49897
 C143 C 0.98305 0.72999 0.45423
 N144 N 1.00122 0.72945 0.47181
 C145 C 1.02008 0.71269 0.47048
 C146 C 1.02138 0.69579 0.45072
 C147 C 0.98358 0.71336 0.43417
 C148 C 1.02937 0.78831 0.52026
 C149 C 1.04906 0.80511 0.52184
 C150 C 1.06605 0.78732 0.48411
 C151 C 1.04602 0.77081 0.48328
 N152 N 1.02827 0.77150 0.50131
 H153 H 0.96786 0.74300 0.45593
 H154 H 1.03404 0.71237 0.48496
 H155 H 1.03654 0.68257 0.45014
 H156 H 0.96885 0.71402 0.42047
 H157 H 1.01478 0.78872 0.53412
 H158 H 1.04947 0.81835 0.53709
 H159 H 1.07991 0.78653 0.46951
 H160 H 1.04453 0.75774 0.46802
 C161 C 0.93249 0.80477 0.49670
 C162 C 0.99741 0.69595 0.56811
 C163 C 1.06773 0.80483 0.50356
 C164 C 1.00290 0.69589 0.43226
 C165 C 0.47080 -0.02094 0.28833
 H166 H 0.48534 -0.03484 0.28873
 C167 C 0.45108 -0.02248 0.30512
 H168 H 0.45059 -0.03776 0.31833
 C169 C 0.45433 0.01613 0.27089
 H170 H 0.45591 0.03140 0.25785
 C171 C 0.43427 0.01534 0.28738
 H172 H 0.42048 0.02998 0.28660
 N173 N 0.47200 -0.00196 0.27156
 C174 C 0.52018 -0.03056 0.21286
 H175 H 0.53422 -0.01615 0.21263
 C176 C 0.52145 -0.05028 0.19592
 H177 H 0.53676 -0.05079 0.18284
 C178 C 0.48299 -0.04663 0.22999
 H179 H 0.46776 -0.04487 0.24296
 C180 C 0.48345 -0.06666 0.21331
 H181 H 0.46856 -0.08019 0.21402
 Zn182 Zn 0.50019 -0.00082 0.25057
 N183 N 0.50125 -0.02916 0.22954
 C184 C 0.54604 -0.01770 0.27098
 N185 N 0.52832 0.00034 0.27162
 C186 C 0.52942 0.01932 0.28839
 C187 C 0.54910 0.02093 0.30519
 C188 C 0.56606 -0.01684 0.28748
 C189 C 0.48033 0.02889 0.21280
 C190 C 0.47903 0.04868 0.19593
 C191 C 0.51683 0.06522 0.21354
 C192 C 0.51735 0.04512 0.23014
 N193 N 0.49918 0.02754 0.22956
 H194 H 0.54454 -0.03298 0.25794
 H195 H 0.51485 0.03318 0.28877
 H196 H 0.54952 0.03621 0.31839
 H197 H 0.57991 -0.03144 0.28672
 H198 H 0.46636 0.01440 0.21245
 H199 H 0.46387 0.04928 0.18272
 H200 H 0.53155 0.07892 0.21424
 H201 H 0.53253 0.04341 0.24315
 C202 C 0.50283 -0.06871 0.19580
 C203 C 0.43249 -0.00414 0.30485
 C204 C 0.49751 0.06715 0.19608
 C205 C 0.56776 0.00265 0.30495
 C206 C 0.52927 -0.02033 0.71159
 H207 H 0.51470 -0.03419 0.71119
 C208 C 0.54899 -0.02191 0.69480
 H209 H 0.54944 -0.03717 0.68159
 C210 C 0.54585 0.01668 0.72906
 H211 H 0.54432 0.03195 0.74211
 C212 C 0.56591 0.01585 0.71257
 H213 H 0.57974 0.03046 0.71335
 N214 N 0.52813 -0.00136 0.72838
 C215 C 0.47998 -0.02986 0.78717
 H216 H 0.46602 -0.01538 0.78750
 C217 C 0.47867 -0.04962 0.80408
 H218 H 0.46350 -0.05020 0.81730
 C219 C 0.51703 -0.04611 0.76987
 H220 H 0.53223 -0.04442 0.75685
 C221 C 0.51649 -0.06618 0.78650
 H222 H 0.53122 -0.07988 0.78583
 Zn223 Zn 0.49995 -0.00019 0.74939
 N224 N 0.49886 -0.02853 0.77042
 C225 C 0.45407 -0.01704 0.72905
 N226 N 0.47182 0.00097 0.72836
 C227 C 0.47073 0.01993 0.71155
 C228 C 0.45104 0.02152 0.69476
 C229 C 0.43404 -0.01620 0.71255
 C230 C 0.51984 0.02953 0.78716
 C231 C 0.52111 0.04931 0.80404
 C232 C 0.48331 0.06583 0.78642
 C233 C 0.48281 0.04574 0.76981
 N234 N 0.50099 0.02817 0.77039
 H235 H 0.45556 -0.03230 0.74212
 H236 H 0.48531 0.03378 0.71114
 H237 H 0.45063 0.03678 0.68153
 H238 H 0.42018 -0.03078 0.71335
 H239 H 0.53381 0.01506 0.78751
 H240 H 0.53626 0.04992 0.81726
 H241 H 0.46857 0.07951 0.78573
 H242 H 0.46764 0.04402 0.75679
 C243 C 0.49716 -0.06809 0.80398
 C244 C 0.56764 -0.00361 0.69508
 C245 C 0.50261 0.06777 0.80390
 C246 C 0.43236 0.00326 0.69505
 Si247 Si 0.25006 -0.00005 0.50001
 Si248 Si 0.75011 -0.00018 0.49996
 Si249 Si 0.49976 0.25032 1.00026
 Si250 Si 0.49976 0.74951 0.00050
 Si251 Si 1.00016 0.49936 0.24988
 Si252 Si 0.00014 0.49960 0.75069
 C253 C 0.12559 0.14262 0.49420
 N254 N 0.12419 0.15955 0.51298
 N255 N 0.10599 0.17635 0.51349
 C256 C 0.08848 0.17687 0.49528
 N257 N 0.09004 0.15997 0.47645
 N258 N 0.10822 0.14318 0.47592
 C259 C 0.14509 0.12349 0.49401
 N260 N 0.14594 0.10621 0.47552
 N261 N 0.16303 0.08829 0.47575
 C262 C 0.17992 0.08698 0.49447
 N263 N 0.17917 0.10436 0.51290
 N264 N 0.16207 0.12229 0.51267
 C265 C 0.19801 0.06653 0.49523
 N266 N 0.21447 0.06464 0.51430
 N267 N 0.23013 0.04543 0.51548
 C268 C 0.22984 0.02751 0.49763
 N269 N 0.21352 0.02943 0.47851
 N270 N 0.19789 0.04862 0.47731
 C271 C 0.64265 0.62520 0.00364
 N272 N 0.64408 0.60860 0.02270
 N273 N 0.66105 0.59057 0.02250
 C274 C 0.67729 0.58839 0.00324
 N275 N 0.67591 0.60514 -0.01577
 N276 N 0.65891 0.62318 -0.01559
 C277 C 0.62334 0.64451 0.00362
 N278 N 0.62106 0.66064 -0.01580
 N279 N 0.60299 0.67761 -0.01604
 C280 C 0.58657 0.67905 0.00313
 N281 N 0.58896 0.66300 0.02257
 N282 N 0.60700 0.64606 0.02281
 C283 C 0.56607 0.69706 0.00264
 N284 N 0.54940 0.69767 0.02161
 N285 N 0.53028 0.71335 0.02096
 C286 C 0.52714 0.72900 0.00136
 N287 N 0.54382 0.72854 -0.01759
 N288 N 0.56298 0.71283 -0.01696
 C289 C 0.87470 -0.14277 0.49459
 N290 N 0.87605 -0.15970 0.51339
 N291 N 0.89425 -0.17650 0.51394
 C292 C 0.91181 -0.17703 0.49575
 N293 N 0.91031 -0.16013 0.47691
 N294 N 0.89213 -0.14334 0.47634
 C295 C 0.85521 -0.12365 0.49436
 N296 N 0.85439 -0.10640 0.47584
 N297 N 0.83729 -0.08848 0.47601
 C298 C 0.82036 -0.08716 0.49471
 N299 N 0.82106 -0.10451 0.51316
 N300 N 0.83818 -0.12243 0.51299
 C301 C 0.80225 -0.06671 0.49540
 N302 N 0.78574 -0.06479 0.51445
 N303 N 0.77007 -0.04561 0.51557
 C304 C 0.77037 -0.02772 0.49767
 N305 N 0.78674 -0.02967 0.47858
 N306 N 0.80240 -0.04885 0.47744
 C307 C 0.35685 0.37459 1.00382
 N308 N 0.34060 0.37666 0.98461
 N309 N 0.32360 0.39470 0.98447
 C310 C 0.32221 0.41140 1.00352
 N311 N 0.33844 0.40918 1.02276
 N312 N 0.35541 0.39115 1.02292
 C313 C 0.37615 0.35527 1.00374
 N314 N 0.39250 0.35369 1.02291
 N315 N 0.41054 0.33675 1.02262
 C316 C 0.41292 0.32074 1.00314
 N317 N 0.39650 0.32221 0.98400
 N318 N 0.37843 0.33918 0.98430
 C319 C 0.43342 0.30273 1.00260
 N320 N 0.43650 0.28698 0.98297
 N321 N 0.45566 0.27128 0.98228
 C322 C 0.47236 0.27081 1.00119
 N323 N 0.46924 0.28644 1.02082
 N324 N 0.45011 0.30210 1.02153
 C325 C 0.87472 0.14241 0.50514
 N326 N 0.87610 0.15932 0.48633
 N327 N 0.89430 0.17612 0.48576
 C328 C 0.91185 0.17667 0.50394
 N329 N 0.91032 0.15979 0.52279
 N330 N 0.89214 0.14299 0.52338
 C331 C 0.85522 0.12330 0.50540
 N332 N 0.85438 0.10606 0.52394
 N333 N 0.83727 0.08816 0.52380
 C334 C 0.82034 0.08682 0.50511
 N335 N 0.82107 0.10414 0.48664
 N336 N 0.83820 0.12207 0.48678
 C337 C 0.80223 0.06638 0.50445
 N338 N 0.78573 0.06444 0.48541
 N339 N 0.77006 0.04525 0.48432
 C340 C 0.77035 0.02738 0.50223
 N341 N 0.78670 0.02935 0.52131
 N342 N 0.80235 0.04853 0.52243
 C343 C 0.35701 0.62497 -0.00221
 N344 N 0.34076 0.62297 0.01703
 N345 N 0.32376 0.60492 0.01724
 C346 C 0.32238 0.58815 -0.00175
 N347 N 0.33862 0.59031 -0.02101
 N348 N 0.35558 0.60835 -0.02125
 C349 C 0.37631 0.64431 -0.00223
 N350 N 0.39264 0.64584 -0.02144
 N351 N 0.41066 0.66281 -0.02125
 C352 C 0.41303 0.67890 -0.00185
 N353 N 0.39663 0.67748 0.01733
 N354 N 0.37858 0.66049 0.01714
 C355 C 0.43351 0.69695 -0.00143
 N356 N 0.43659 0.71279 0.01812
 N357 N 0.45572 0.72854 0.01869
 C358 C 0.47239 0.72896 -0.00027
 N359 N 0.46927 0.71324 -0.01981
 N360 N 0.45017 0.69753 -0.02040
 C361 C 0.12550 -0.14268 0.50561
 N362 N 0.10805 -0.14322 0.52384
 N363 N 0.08988 -0.16002 0.52329
 C364 C 0.08840 -0.17696 0.50448
 N365 N 0.10599 -0.17646 0.48631
 N366 N 0.12417 -0.15964 0.48685
 C367 C 0.14499 -0.12355 0.50582
 N368 N 0.16204 -0.12237 0.48721
 N369 N 0.17915 -0.10443 0.48701
 C370 C 0.17983 -0.08704 0.50542
 N371 N 0.16287 -0.08832 0.52410
 N372 N 0.14577 -0.10625 0.52430
 C373 C 0.19793 -0.06658 0.50469
 N374 N 0.19776 -0.04867 0.52260
 N375 N 0.21341 -0.02949 0.52143
 C376 C 0.22980 -0.02758 0.50235
 N377 N 0.23013 -0.04552 0.48451
 N378 N 0.21446 -0.06471 0.48566
 C379 C 0.64249 0.37486 0.99725
 N380 N 0.64389 0.39152 0.97825
 N381 N 0.66086 0.40956 0.97847
 C382 C 0.67712 0.41168 0.99770
 N383 N 0.67577 0.39487 1.01665
 N384 N 0.65877 0.37682 1.01645
 C385 C 0.62319 0.35553 0.99725
 N386 N 0.62095 0.33932 1.01661
 N387 N 0.60290 0.32233 1.01683
 C388 C 0.58646 0.32095 0.99769
 N389 N 0.58880 0.33707 0.97831
 N390 N 0.60682 0.35404 0.97810
 C391 C 0.56598 0.30290 0.99816
 N392 N 0.54928 0.30234 0.97924
 N393 N 0.53019 0.28663 0.97987
 C394 C 0.52711 0.27089 0.99941
 N395 N 0.54381 0.27129 1.01832
 N396 N 0.56294 0.28704 1.01770
 C397 C 0.49638 0.12495 1.14317
 N398 N 0.51535 0.12303 1.15968
 N399 N 0.51561 0.10485 1.17663
 C400 C 0.49693 0.08785 1.17773
 N401 N 0.47792 0.08992 1.16124
 N402 N 0.47765 0.10810 1.14431
 C403 C 0.49636 0.14444 1.12390
 N404 N 0.47742 0.14595 1.10732
 N405 N 0.47765 0.16306 1.08932
 C406 C 0.49682 0.17932 1.08721
 N407 N 0.51573 0.17792 1.10386
 N408 N 0.51550 0.16079 1.12190
 C409 C 0.49733 0.19751 1.06672
 N410 N 0.51673 0.21342 1.06385
 N411 N 0.51743 0.22925 1.04467
 C412 C 0.49875 0.22970 1.02774
 N413 N 0.47934 0.21392 1.03066
 N414 N 0.47863 0.19811 1.04981
 C415 C -0.00358 0.64288 0.62576
 N416 N 0.01537 0.65943 0.62386
 N417 N 0.01557 0.67644 0.60572
 C418 C -0.00313 0.67755 0.58877
 N419 N -0.02211 0.66103 0.59082
 N420 N -0.02234 0.64404 0.60895
 C421 C -0.00354 0.62355 0.64519
 N422 N -0.02245 0.60692 0.64667
 N423 N -0.02217 0.58886 0.66373
 C424 C -0.00297 0.58673 0.67993
 N425 N 0.01591 0.60343 0.67855
 N426 N 0.01563 0.62153 0.66148
 C427 C -0.00240 0.56618 0.69805
 N428 N 0.01702 0.56330 0.71392
 N429 N 0.01776 0.54408 0.72969
 C430 C -0.00090 0.52712 0.73013
 N431 N -0.02033 0.53005 0.71439
 N432 N -0.02109 0.54924 0.69864
 C433 C 0.49607 0.87429 -0.14292
 N434 N 0.51503 0.87616 -0.15947
 N435 N 0.51527 0.89429 -0.17649
 C436 C 0.49658 0.91126 -0.17761
 N437 N 0.47758 0.90924 -0.16109
 N438 N 0.47732 0.89112 -0.14409
 C439 C 0.49608 0.85487 -0.12358
 N440 N 0.47715 0.85341 -0.10695
 N441 N 0.47741 0.83637 -0.08888
 C442 C 0.49660 0.82014 -0.08675
 N443 N 0.51549 0.82149 -0.10345
 N444 N 0.51523 0.83855 -0.12156
 C445 C 0.49716 0.80204 -0.06618
 N446 N 0.51658 0.78617 -0.06329
 N447 N 0.51732 0.77042 -0.04405
 C448 C 0.49867 0.77001 -0.02707
 N449 N 0.47924 0.78576 -0.03000
 N450 N 0.47848 0.80148 -0.04921
 C451 C 0.99644 0.35628 0.37506
 N452 N 1.01508 0.33936 0.37659
 N453 N 1.01530 0.32236 0.39474
 C454 C 0.99693 0.32161 0.41214
 N455 N 0.97824 0.33854 0.41040
 N456 N 0.97799 0.35551 0.39225
 C457 C 0.99647 0.37558 0.35560
 N458 N 0.97775 0.39244 0.35437
 N459 N 0.97802 0.41047 0.33729
 C460 C 0.99703 0.41234 0.32079
 N461 N 1.01573 0.39541 0.32192
 N462 N 1.01544 0.37734 0.33902
 C463 C 0.99760 0.43286 0.30263
 N464 N 1.01693 0.43560 0.28660
 N465 N 1.01767 0.45480 0.27078
 C466 C 0.99911 0.47186 0.27049
 N467 N 0.97977 0.46907 0.28639
 N468 N 0.97902 0.44991 0.30218
 C469 C 0.50376 0.87465 0.14361
 N470 N 0.52222 0.89181 0.14435
 N471 N 0.52200 0.90995 0.16133
 C472 C 0.50333 0.91171 0.17829
 N473 N 0.48495 0.89433 0.17757
 N474 N 0.48514 0.87619 0.16056
 C475 C 0.50370 0.85520 0.12429
 N476 N 0.48471 0.83865 0.12257
 N477 N 0.48439 0.82156 0.10449
 C478 C 0.50306 0.82042 0.08752
 N479 N 0.52208 0.83688 0.08935
 N480 N 0.52239 0.85396 0.10739
 C481 C 0.50245 0.80227 0.06699
 N482 N 0.52101 0.80178 0.04990
 N483 N 0.52021 0.78600 0.03074
 C484 C 0.50086 0.77013 0.02799
 N485 N 0.48232 0.77046 0.04509
 N486 N 0.48310 0.78627 0.06429
 C487 C 0.00376 0.35660 0.62545
 N488 N 0.02253 0.35547 0.60863
 N489 N 0.02228 0.33854 0.59045
 C490 C 0.00327 0.32205 0.58835
 N491 N -0.01544 0.32314 0.60531
 N492 N -0.01522 0.34009 0.62351
 C493 C 0.00375 0.37586 0.64495
 N494 N -0.01543 0.37787 0.66126
 N495 N -0.01569 0.39591 0.67839
 C496 C 0.00323 0.41257 0.67981
 N497 N 0.02244 0.41045 0.66359
 N498 N 0.02270 0.39244 0.64648
 C499 C 0.00268 0.43307 0.69798
 N500 N 0.02139 0.44998 0.69860
 N501 N 0.02065 0.46915 0.71438
 C502 C 0.00120 0.47208 0.73013
 N503 N -0.01748 0.45515 0.72966
 N504 N -0.01676 0.43595 0.71385
 C505 C 0.50359 0.12546 0.85692
 N506 N 0.52236 0.10866 0.85575
 N507 N 0.52214 0.09052 0.83878
 C508 C 0.50315 0.08844 0.82228
 N509 N 0.48443 0.10538 0.82340
 N510 N 0.48463 0.12353 0.84040
 C511 C 0.50354 0.14490 0.87624
 N512 N 0.48435 0.16117 0.87829
 N513 N 0.48406 0.17825 0.89637
 C514 C 0.50296 0.17966 0.91304
 N515 N 0.52219 0.16347 0.91089
 N516 N 0.52247 0.14642 0.89283
 C517 C 0.50238 0.19777 0.93360
 N518 N 0.52108 0.19838 0.95051
 N519 N 0.52030 0.21411 0.96972
 C520 C 0.50084 0.22981 0.97269
 N521 N 0.48217 0.22936 0.95576
 N522 N 0.48292 0.21360 0.93652
 C523 C 1.00394 0.64277 0.37465
 N524 N 1.02269 0.64395 0.39147
 N525 N 1.02245 0.66095 0.40958
 C526 C 1.00346 0.67747 0.41162
 N527 N 0.98477 0.67633 0.39465
 N528 N 0.98499 0.65931 0.37653
 C529 C 1.00392 0.62342 0.35524
 N530 N 0.98475 0.62138 0.33895
 N531 N 0.98447 0.60327 0.32189
 C532 C 1.00335 0.58658 0.32053
 N533 N 1.02256 0.58873 0.33673
 N534 N 1.02283 0.60680 0.35377
 C535 C 1.00278 0.56601 0.30243
 N536 N 1.02146 0.54907 0.30184
 N537 N 1.02069 0.52986 0.28612
 C538 C 1.00125 0.52692 0.27040
 N539 N 0.98259 0.54387 0.27083
 N540 N 0.98334 0.56311 0.28659
 C541 C 1.14279 0.50271 0.12512
 N542 N 1.15946 0.48382 0.12345
 N543 N 1.17645 0.48367 0.10539
 C544 C 1.17744 0.50236 0.08822
 N545 N 1.16077 0.52128 0.09011
 N546 N 1.14381 0.52146 0.10816
 C547 C 1.12350 0.50264 0.14448
 N548 N 1.10689 0.52160 0.14580
 N549 N 1.08888 0.52133 0.16279
 C550 C 1.08679 0.50208 0.17911
 N551 N 1.10347 0.48314 0.17790
 N552 N 1.12151 0.48342 0.16089
 C553 C 1.06633 0.50157 0.19720
 N554 N 1.06342 0.48207 0.21314
 N555 N 1.04430 0.48142 0.22891
 C556 C 1.02748 0.50023 0.22926
 N557 N 1.03044 0.51972 0.21344
 N558 N 1.04952 0.52039 0.19769
 C559 C 0.62547 -0.00566 0.64261
 N560 N 0.60806 -0.02392 0.64318
 N561 N 0.58987 -0.02337 0.65997
 C562 C 0.58833 -0.00454 0.67687
 N563 N 0.60587 0.01366 0.67635
 N564 N 0.62408 0.01312 0.65954
 C565 C 0.64497 -0.00588 0.62348
 N566 N 0.66198 0.01276 0.62226
 N567 N 0.67911 0.01295 0.60433
 C568 C 0.67985 -0.00550 0.58698
 N569 N 0.66294 -0.02420 0.58830
 N570 N 0.64582 -0.02439 0.60622
 C571 C 0.69796 -0.00479 0.56653
 N572 N 0.69785 -0.02274 0.54866
 N573 N 0.71351 -0.02159 0.52947
 C574 C 0.72986 -0.00249 0.52751
 N575 N 0.73013 0.01540 0.54540
 N576 N 0.71445 0.01427 0.56460
 C577 C -0.14272 0.50293 0.87516
 N578 N -0.15902 0.48374 0.87719
 N579 N -0.17601 0.48359 0.89525
 C580 C -0.17736 0.50259 0.91200
 N581 N -0.16108 0.52181 0.90982
 N582 N -0.14412 0.52198 0.89177
 C583 C -0.12342 0.50287 0.85582
 N584 N -0.10705 0.52203 0.85427
 N585 N -0.08902 0.52177 0.83730
 C586 C -0.08666 0.50233 0.82124
 N587 N -0.10311 0.48320 0.82269
 N588 N -0.12117 0.48347 0.83968
 C589 C -0.06616 0.50182 0.80320
 N590 N -0.06310 0.48223 0.78741
 N591 N -0.04395 0.48157 0.77168
 C592 C -0.02724 0.50048 0.77123
 N593 N -0.03035 0.52007 0.78690
 N594 N -0.04947 0.52075 0.80260
 C595 C 0.37468 -0.00602 0.35735
 N596 N 0.37609 0.01273 0.34039
 N597 N 0.39429 0.01321 0.32357
 C598 C 0.41180 -0.00501 0.32306
 N599 N 0.41024 -0.02381 0.34000
 N600 N 0.39205 -0.02431 0.35680
 C601 C 0.35518 -0.00617 0.37648
 N602 N 0.35432 -0.02464 0.39379
 N603 N 0.33721 -0.02438 0.41172
 C604 C 0.32033 -0.00566 0.41301
 N605 N 0.32108 0.01274 0.39560
 N606 N 0.33820 0.01249 0.37766
 C607 C 0.30222 -0.00487 0.43346
 N608 N 0.28575 0.01420 0.43533
 N609 N 0.27007 0.01540 0.45453
 C610 C 0.27033 -0.00244 0.47247
 N611 N 0.28667 -0.02155 0.47057
 N612 N 0.30232 -0.02277 0.45139
 C613 C 0.14258 0.49667 0.87548
 N614 N 0.14395 0.47764 0.89211
 N615 N 0.16084 0.47788 0.91021
 C616 C 0.17706 0.49714 0.91242
 N617 N 0.17574 0.51612 0.89564
 N618 N 0.15882 0.51591 0.87753
 C619 C 0.12336 0.49666 0.85608
 N620 N 0.12113 0.51604 0.83990
 N621 N 0.10314 0.51624 0.82286
 C622 C 0.08675 0.49706 0.82138
 N623 N 0.08908 0.47765 0.83748
 N624 N 0.10704 0.47745 0.85450
 C625 C 0.06632 0.49751 0.80329
 N626 N 0.04965 0.47855 0.80267
 N627 N 0.03058 0.47917 0.78694
 C628 C 0.02749 0.49875 0.77124
 N629 N 0.04417 0.51769 0.77171
 N630 N 0.06327 0.51708 0.78748
 C631 C 0.62554 0.00487 0.35739
 N632 N 0.62419 -0.01395 0.34049
 N633 N 0.60599 -0.01454 0.32369
 C634 C 0.58842 0.00362 0.32315
 N635 N 0.58992 0.02248 0.34002
 N636 N 0.60810 0.02310 0.35680
 C637 C 0.64504 0.00515 0.37650
 N638 N 0.64585 0.02370 0.39373
 N639 N 0.66295 0.02357 0.41163
 C640 C 0.67990 0.00490 0.41297
 N641 N 0.67920 -0.01357 0.39565
 N642 N 0.66208 -0.01345 0.37773
 C643 C 0.69801 0.00426 0.43341
 N644 N 0.71453 -0.01476 0.43534
 N645 N 0.73020 -0.01584 0.45453
 C646 C 0.72988 0.00207 0.47240
 N647 N 0.71350 0.02114 0.47043
 N648 N 0.69785 0.02223 0.45126
 C649 C 0.85726 0.49648 0.12562
 N650 N 0.85582 0.47747 0.10897
 N651 N 0.83886 0.47774 0.09093
 C652 C 0.82265 0.49701 0.08880
 N653 N 0.82404 0.51597 0.10560
 N654 N 0.84103 0.51572 0.12365
 C655 C 0.87656 0.49644 0.14494
 N656 N 0.87885 0.51581 0.16113
 N657 N 0.89691 0.51600 0.17810
 C658 C 0.91330 0.49682 0.17949
 N659 N 0.91090 0.47743 0.16340
 N660 N 0.89288 0.47724 0.14644
 C661 C 0.93380 0.49726 0.19751
 N662 N 0.95046 0.47830 0.19807
 N663 N 0.96959 0.47893 0.21373
 C664 C 0.97274 0.49850 0.22941
 N665 N 0.95607 0.51744 0.22901
 N666 N 0.93691 0.51683 0.21331
 C667 C 0.37457 0.00539 0.64261
 N668 N 0.39202 0.02361 0.64315
 N669 N 0.41020 0.02303 0.65993
 C670 C 0.41169 0.00421 0.67685
 N671 N 0.39410 -0.01395 0.67636
 N672 N 0.37591 -0.01338 0.65956
 C673 C 0.35507 0.00564 0.62350
 N674 N 0.33802 -0.01296 0.62232
 N675 N 0.32091 -0.01314 0.60440
 C676 C 0.32022 0.00529 0.58702
 N677 N 0.33718 0.02396 0.58831
 N678 N 0.35428 0.02413 0.60622
 C679 C 0.30212 0.00459 0.56658
 N680 N 0.30230 0.02251 0.54867
 N681 N 0.28666 0.02136 0.52949
 C682 C 0.27027 0.00229 0.52757
 N683 N 0.26994 -0.01557 0.54549
 N684 N 0.28559 -0.01443 0.56469
   
