data_POSCAR
  _audit_creation_date              2014-09-24
  _audit_creation_method            'ToBaCCo'
  _symmetry_space_group_name_H-M    'P1'
  _symmetry_Int_Tables_number       1
  _symmetry_cell_setting            triclinic
  loop_
  _symmetry_equiv_pos_as_xyz
 x,y,z
_cell_length_a 37.2385
_cell_length_b 9.9328
_cell_length_c 15.2857
_cell_angle_alpha 92.029300
_cell_angle_beta 89.519100
_cell_angle_gamma 88.222300
loop_
  _atom_site_label
  _atom_site_type_symbol
  _atom_site_fract_x
  _atom_site_fract_y
  _atom_site_fract_z
C1 C 0.63387 0.04948 0.50663
 C2 C 0.65103 0.02639 0.58667
 C3 C 0.68877 0.01248 0.58610
 C4 C 0.70934 0.03570 0.51046
 C5 C 0.69097 0.05700 0.43140
 C6 C 0.65327 0.06114 0.42841
 C7 C 0.74942 0.04948 0.51635
 C8 C 0.77170 0.03969 0.44049
 C9 C 0.80809 0.07451 0.44407
 C10 C 0.82294 0.10203 0.52668
 C11 C 0.80212 0.10734 0.60309
 C12 C 0.76538 0.08439 0.59758
 H13 H 0.60525 0.07031 0.50562
 H14 H 0.70212 -0.01723 0.64505
 H15 H 0.70563 0.07405 0.37204
 H16 H 0.76047 0.01223 0.37790
 H17 H 0.85161 0.11465 0.53267
 H18 H 0.74957 0.09885 0.65690
 C19 C 0.17577 0.89310 0.47529
 C20 C 0.19065 0.92177 0.55794
 C21 C 0.22678 0.95973 0.56119
 C22 C 0.24891 0.95254 0.48532
 C23 C 0.23297 0.91911 0.40388
 C24 C 0.19637 0.89286 0.39839
 C25 C 0.28891 0.96718 0.49161
 C26 C 0.30927 0.99668 0.41687
 C27 C 0.34677 0.98078 0.41605
 C28 C 0.36419 0.95162 0.49426
 C29 C 0.34533 0.93675 0.57319
 C30 C 0.30745 0.93930 0.56984
 H31 H 0.14727 0.87654 0.46964
 H32 H 0.23809 0.98737 0.62367
 H33 H 0.24879 0.90811 0.34436
 H34 H 0.29611 1.02694 0.35771
 H35 H 0.39268 0.92793 0.49178
 H36 H 0.29249 0.91882 0.62801
 C37 C 0.32277 0.43178 -0.48027
 C38 C 0.30571 0.45504 -0.55958
 C39 C 0.26824 0.47597 -0.55997
 C40 C 0.24724 0.45990 -0.48299
 C41 C 0.26564 0.42965 -0.40482
 C42 C 0.30317 0.41759 -0.40315
 C43 C 0.20663 0.46250 -0.48523
 C44 C 0.18582 0.47058 -0.40694
 C45 C 0.14831 0.45383 -0.40735
 C46 C 0.13145 0.43885 -0.48895
 C47 C 0.15079 0.43845 -0.56782
 C48 C 0.18824 0.44797 -0.56534
 H49 H 0.35185 0.42236 -0.47885
 H50 H 0.25609 0.49996 -0.62147
 H51 H 0.25141 0.40922 -0.34521
 H52 H 0.19846 0.49298 -0.34519
 H53 H 0.10329 0.41613 -0.49197
 H54 H 0.20261 0.44115 -0.62675
 C55 C -0.13257 0.55690 -0.51263
 C56 C -0.14928 0.54055 -0.59423
 C57 C -0.18676 0.52374 -0.59501
 C58 C -0.20770 0.53352 -0.51701
 C59 C -0.18948 0.55018 -0.43670
 C60 C -0.15202 0.55949 -0.43395
 C61 C -0.24828 0.53700 -0.51986
 C62 C -0.26931 0.52142 -0.44310
 C63 C -0.30663 0.54578 -0.44312
 C64 C -0.32368 0.57192 -0.52218
 C65 C -0.30404 0.58309 -0.59982
 C66 C -0.26652 0.56801 -0.59810
 H67 H -0.10444 0.58014 -0.50965
 H68 H -0.19930 0.50084 -0.65685
 H69 H -0.20400 0.55942 -0.37551
 H70 H -0.25720 0.49556 -0.38186
 H71 H -0.35269 0.58495 -0.52296
 H72 H -0.25212 0.58703 -0.65770
 O73 O -0.02685 0.71716 0.15041
 O74 O -0.07588 0.79640 0.07598
 C75 C -0.06104 0.72098 0.13405
 O76 O 0.03106 1.27020 0.16751
 O77 O 0.07811 1.19585 0.07880
 C78 C 0.06466 1.26834 0.14421
 O79 O -0.06213 1.14843 0.18250
 O80 O -0.09334 1.00583 0.09226
 C81 C -0.09080 1.08389 0.16175
 O82 O 0.06959 0.80821 0.13723
 O83 O 0.09649 0.97637 0.06417
 C84 C 0.09722 0.87918 0.11891
 Zr85 Zr 0.01546 0.82712 0.09750
 O86 O 0.02200 0.80369 0.23353
 O87 O 0.02877 0.61996 0.07401
 Zr88 Zr -0.01193 1.15660 0.11890
 O89 O -0.00912 1.17400 0.25679
 O90 O -0.03364 1.35618 0.11887
 O91 O -0.02791 0.95828 0.12771
 O92 O 0.03135 1.02183 0.12351
 O93 O 0.06387 0.83587 -0.17403
 O94 O 0.09363 0.99067 -0.08951
 C95 C 0.09203 0.90464 -0.15522
 O96 O -0.06879 1.18536 -0.14327
 O97 O -0.09635 1.02308 -0.06623
 C98 C -0.09660 1.11636 -0.12373
 O99 O 0.02622 1.29399 -0.14395
 O100 O 0.07559 1.20785 -0.07389
 C101 C 0.06056 1.28775 -0.12914
 O102 O -0.03182 0.74287 -0.17403
 O103 O -0.07841 0.81006 -0.08185
 C104 C -0.06530 0.74313 -0.14999
 Zr105 Zr 0.01174 0.84483 -0.11872
 O106 O 0.01360 0.83734 -0.25704
 O107 O 0.02568 0.63654 -0.11855
 Zr108 Zr -0.01560 1.17476 -0.09715
 O109 O -0.01676 1.20580 -0.23331
 O110 O -0.03554 1.37472 -0.07251
 Zr111 Zr -0.05168 0.94585 0.00289
 Zr112 Zr 0.05150 1.05580 -0.00282
 O113 O 0.02690 1.04218 -0.12655
 O114 O -0.03237 0.97919 -0.12440
 O115 O 0.04708 0.84452 -0.01416
 O116 O -0.04637 1.15598 0.01438
 O117 O -0.01513 0.78039 -0.01044
 O118 O 0.01557 1.22418 0.01081
 H119 H 0.04667 1.03298 0.17576
 H120 H -0.06874 1.21232 0.02096
 H121 H 0.04003 1.06169 -0.18105
 H122 H -0.02505 0.68893 -0.01441
 H123 H -0.01387 1.41639 0.10514
 H124 H -0.01529 1.42899 -0.05155
 H125 H -0.02492 1.12148 -0.26190
 H126 H -0.00323 0.90886 -0.27644
 H127 H 0.05156 0.62747 -0.10492
 H128 H 0.05361 0.61249 0.05047
 H129 H 0.00232 0.85670 0.26350
 H130 H -0.00432 1.08203 0.27727
 O131 O 0.43766 0.37391 0.17709
 O132 O 0.40658 0.51855 0.08952
 C133 C 0.40887 0.44256 0.15687
 O134 O 0.56840 0.69479 0.13820
 O135 O 0.59648 0.51574 0.06444
 C136 C 0.59636 0.61675 0.12078
 O137 O 0.47164 0.80050 0.15144
 O138 O 0.42332 0.72442 0.07425
 C139 C 0.43756 0.80141 0.13401
 O140 O 0.53231 0.24314 0.16631
 O141 O 0.57929 0.30222 0.07887
 C142 C 0.56606 0.23847 0.14389
 Zr143 Zr 0.48903 0.36013 0.11778
 O144 O 0.49219 0.36713 0.25601
 O145 O 0.47156 0.16010 0.11593
 Zr146 Zr 0.51472 0.68306 0.09530
 O147 O 0.52076 0.73392 0.22962
 O148 O 0.52671 0.88414 0.06670
 O149 O 0.47194 0.56180 0.12586
 O150 O 0.53149 0.48857 0.12225
 O151 O 0.52815 0.18598 -0.14374
 O152 O 0.57707 0.27240 -0.07379
 C153 C 0.56241 0.18844 -0.12874
 O154 O 0.46731 0.74521 -0.17501
 O155 O 0.42089 0.69453 -0.08352
 C156 C 0.43373 0.75231 -0.15138
 O157 O 0.56400 0.63712 -0.17448
 O158 O 0.59426 0.48577 -0.08991
 C159 C 0.59258 0.56657 -0.15486
 O160 O 0.43343 0.31559 -0.14928
 O161 O 0.40444 0.48719 -0.07011
 C162 C 0.40517 0.39089 -0.12994
 Zr163 Zr 0.48578 0.31757 -0.09802
 O164 O 0.48402 0.26421 -0.23291
 O165 O 0.46653 0.12482 -0.07075
 Zr166 Zr 0.51150 0.64045 -0.12081
 O167 O 0.51328 0.62334 -0.25917
 O168 O 0.52425 0.84641 -0.12541
 Zr169 Zr 0.44833 0.56367 0.00093
 Zr170 Zr 0.55214 0.43675 -0.00367
 O171 O 0.52779 0.43977 -0.12767
 O172 O 0.46815 0.51269 -0.12607
 O173 O 0.51706 0.27591 0.01022
 O174 O 0.48403 0.72198 -0.01279
 O175 O 0.45464 0.35405 0.01284
 O176 O 0.54669 0.64759 -0.01579
 H177 H 0.54648 0.48002 0.17510
 H178 H 0.47355 0.81454 -0.01661
 H179 H 0.54141 0.41211 -0.18161
 H180 H 0.43259 0.30145 0.01829
 H181 H 0.55268 0.88650 0.05280
 H182 H 0.54923 0.85538 -0.10496
 H183 H 0.49232 0.57112 -0.27789
 H184 H 0.48793 0.34767 -0.26444
 H185 H 0.48686 0.07078 -0.04756
 H186 H 0.47092 0.13536 0.17798
 H187 H 0.48486 0.45975 0.27608
 H188 H 0.51330 0.65489 0.26191
 C189 C 0.32507 0.53963 0.29278
 C190 C 0.32771 0.44434 0.35857
 C191 C 0.35373 0.33940 0.34928
 C192 C 0.37846 0.33563 0.28062
 C193 C 0.37783 0.43563 0.21813
 C194 C 0.34988 0.53461 0.22258
 H195 H 0.30506 0.62109 0.29783
 H196 H 0.35593 0.26267 0.39765
 H197 H 0.39922 0.25711 0.27863
 H198 H 0.34822 0.61132 0.17434
 C199 C -0.14419 0.61147 0.25281
 C200 C -0.12884 0.55441 0.32775
 C201 C -0.09139 0.52649 0.32633
 C202 C -0.06970 0.57038 0.25914
 C203 C -0.08465 0.64279 0.19055
 C204 C -0.12227 0.65563 0.18526
 H205 H -0.17268 0.63515 0.24946
 H206 H -0.07835 0.47342 0.37856
 H207 H -0.04090 0.55426 0.26402
 H208 H -0.13471 0.70823 0.13203
 C209 C 0.64861 0.71217 0.32129
 C210 C 0.67654 0.61414 0.31851
 C211 C 0.68246 0.53605 0.24089
 C212 C 0.65844 0.54655 0.17089
 C213 C 0.62803 0.63417 0.17815
 C214 C 0.62468 0.72178 0.25214
 H215 H 0.64383 0.77538 0.37966
 H216 H 0.70401 0.46026 0.23685
 H217 H 0.66221 0.47934 0.11404
 H218 H 0.60166 0.78992 0.26018
 C219 C 0.09608 1.47021 0.33948
 C220 C 0.13138 1.41787 0.34807
 C221 C 0.14651 1.33781 0.27859
 C222 C 0.12576 1.30185 0.20611
 C223 C 0.08928 1.34140 0.20301
 C224 C 0.07520 1.43171 0.26817
 H225 H 0.08405 1.53726 0.38968
 H226 H 0.17354 1.29538 0.28238
 H227 H 0.13749 1.23474 0.15589
 H228 H 0.04738 1.46683 0.26665
 C229 C 0.59374 0.00403 -0.33397
 C230 C 0.63076 0.03097 -0.33393
 C231 C 0.64584 0.07676 -0.25407
 C232 C 0.62383 0.11328 -0.18195
 C233 C 0.58637 0.10432 -0.18762
 C234 C 0.57194 0.03972 -0.26185
 H235 H 0.58110 -0.04207 -0.39051
 H236 H 0.67398 0.09930 -0.24901
 H237 H 0.63590 0.16008 -0.12478
 H238 H 0.54328 0.02657 -0.26751
 C239 C 0.17460 0.98854 -0.28795
 C240 C 0.16954 0.90879 -0.36514
 C241 C 0.14202 0.81447 -0.36461
 C242 C 0.11889 0.80716 -0.29341
 C243 C 0.12211 0.89343 -0.21955
 C244 C 0.15093 0.98157 -0.21628
 H245 H 0.19501 1.06364 -0.28455
 H246 H 0.13806 0.74482 -0.41947
 H247 H 0.09714 0.73797 -0.29850
 H248 H 0.15409 1.05008 -0.16041
 C249 C 0.40073 0.95132 -0.34065
 C250 C 0.36483 0.91029 -0.34906
 C251 C 0.35028 0.83775 -0.27982
 C252 C 0.37200 0.79612 -0.21076
 C253 C 0.40869 0.82418 -0.20951
 C254 C 0.42231 0.90798 -0.27269
 H255 H 0.41270 1.01699 -0.38698
 H256 H 0.32311 0.80284 -0.28112
 H257 H 0.36058 0.73482 -0.16132
 H258 H 0.45017 0.93627 -0.27162
 C259 C -0.15404 1.23528 -0.30773
 C260 C -0.17989 1.13569 -0.31230
 C261 C -0.18349 1.05015 -0.24167
 C262 C -0.15860 1.05385 -0.17317
 C263 C -0.12943 1.14032 -0.17610
 C264 C -0.12905 1.23743 -0.24062
 H265 H -0.15121 1.30393 -0.36048
 H266 H -0.20357 0.97356 -0.24294
 H267 H -0.16071 0.98281 -0.12155
 H268 H -0.10766 1.30827 -0.24347
 C269 C 0.64757 0.66720 -0.34805
 C270 C 0.67187 0.55730 -0.36057
 C271 C 0.67368 0.45891 -0.29663
 C272 C 0.64966 0.46631 -0.22485
 C273 C 0.62357 0.57194 -0.21635
 C274 C 0.62385 0.67436 -0.27712
 H275 H 0.64600 0.74555 -0.39538
 H276 H 0.69229 0.37326 -0.30448
 H277 H 0.65021 0.38594 -0.17895
 H278 H 0.60435 0.75704 -0.27219
 C279 C 0.14347 1.38681 -0.25322
 C280 C 0.12796 1.44120 -0.32886
 C281 C 0.09056 1.47018 -0.32687
 C282 C 0.06912 1.43231 -0.25738
 C283 C 0.08417 1.36357 -0.18727
 C284 C 0.12178 1.34765 -0.18370
 H285 H 0.17190 1.36158 -0.25041
 H286 H 0.07735 1.52102 -0.37977
 H287 H 0.04034 1.44961 -0.26166
 H288 H 0.13435 1.29608 -0.13016
 C289 C 0.31777 0.46703 -0.24529
 C290 C 0.32291 0.38687 -0.32219
 C291 C 0.35087 0.28891 -0.32589
 C292 C 0.37577 0.28197 -0.25873
 C293 C 0.37325 0.37255 -0.18604
 C294 C 0.34269 0.45907 -0.17718
 H295 H 0.29616 0.54254 -0.24066
 H296 H 0.35496 0.22419 -0.38387
 H297 H 0.39860 0.21264 -0.26727
 H298 H 0.33936 0.52698 -0.12058
 C299 C -0.14758 0.66713 -0.28223
 C300 C -0.13261 0.58361 -0.35022
 C301 C -0.09719 0.53262 -0.34130
 C302 C -0.07600 0.57631 -0.27186
 C303 C -0.08996 0.66982 -0.20852
 C304 C -0.12654 0.70773 -0.21124
 H305 H -0.17473 0.70837 -0.28621
 H306 H -0.08526 0.46293 -0.39015
 H307 H -0.04813 0.54181 -0.27018
 H308 H -0.13818 0.77614 -0.16175
 C309 C 0.40469 1.00218 0.33315
 C310 C 0.36789 0.97406 0.33256
 C311 C 0.35334 0.91755 0.25541
 C312 C 0.37579 0.87596 0.18516
 C313 C 0.41323 0.88511 0.19215
 C314 C 0.42721 0.95542 0.26483
 H315 H 0.41667 1.05232 0.38924
 H316 H 0.32517 0.89453 0.25160
 H317 H 0.36408 0.82590 0.12871
 H318 H 0.45587 0.96572 0.27242
 C319 C -0.17507 1.00581 0.29070
 C320 C -0.17025 1.08556 0.36791
 C321 C -0.14215 1.17765 0.36867
 C322 C -0.11802 1.18157 0.29933
 C323 C -0.12097 1.09468 0.22577
 C324 C -0.15050 1.00994 0.22055
 H325 H -0.19609 0.93320 0.28619
 H326 H -0.13848 1.24815 0.42325
 H327 H -0.09605 1.24979 0.30530
 H328 H -0.15372 0.94262 0.16417
 C329 C 0.64757 0.17076 0.28168
 C330 C 0.63346 0.08827 0.34583
 C331 C 0.59880 0.03845 0.33333
 C332 C 0.57781 0.07840 0.26315
 C333 C 0.59106 0.16808 0.20280
 C334 C 0.62673 0.20843 0.21031
 H335 H 0.67384 0.21315 0.28867
 H336 H 0.58737 -0.02957 0.37902
 H337 H 0.55058 0.04363 0.25837
 H338 H 0.63769 0.27683 0.16444
 C339 C 0.18204 0.95384 0.24354
 C340 C 0.17854 0.86619 0.31313
 C341 C 0.15357 0.76370 0.30596
 C342 C 0.12963 0.75879 0.23645
 C343 C 0.12988 0.85689 0.17250
 C344 C 0.15801 0.94840 0.17321
 H345 H 0.20138 1.03301 0.24686
 H346 H 0.15079 0.69363 0.35789
 H347 H 0.10895 0.68493 0.23689
 H348 H 0.15983 1.02190 0.12301
   
