data_POSCAR
  _audit_creation_date              2014-09-24
  _audit_creation_method            'ToBaCCo'
  _symmetry_space_group_name_H-M    'P1'
  _symmetry_Int_Tables_number       1
  _symmetry_cell_setting            triclinic
  loop_
  _symmetry_equiv_pos_as_xyz
 x,y,z
_cell_length_a 37.2533
_cell_length_b 40.0096
_cell_length_c 39.3039
_cell_angle_alpha 88.506800
_cell_angle_beta 84.987400
_cell_angle_gamma 87.384500
loop_
  _atom_site_label
  _atom_site_type_symbol
  _atom_site_fract_x
  _atom_site_fract_y
  _atom_site_fract_z
C1 C 0.15948 1.25433 0.19334
 C2 C 0.19175 1.24027 0.17715
 C3 C 0.20726 1.20998 0.18883
 C4 C 0.19036 1.19333 0.21731
 C5 C 0.15776 1.20608 0.23406
 C6 C 0.14313 1.23694 0.22197
 H7 H 0.20553 1.25300 0.15557
 H8 H 0.20217 1.16954 0.22524
 H9 H 0.11844 1.24726 0.23465
 C10 C 0.80327 0.77757 0.21364
 C11 C 0.81325 0.78834 0.24530
 C12 C 0.80016 0.81930 0.25866
 C13 C 0.77566 0.83907 0.24077
 C14 C 0.76434 0.82841 0.20994
 C15 C 0.77820 0.79788 0.19659
 H16 H 0.83280 0.77368 0.25885
 H17 H 0.76576 0.86316 0.25051
 H18 H 0.76890 0.78997 0.17286
 C19 C 0.81907 1.24772 -0.19295
 C20 C 0.83900 1.22710 -0.21718
 C21 C 0.82674 1.19600 -0.22558
 C22 C 0.79408 1.18511 -0.20991
 C23 C 0.77383 1.20476 -0.18553
 C24 C 0.78609 1.23604 -0.17750
 H25 H 0.86518 1.23407 -0.22855
 H26 H 0.78492 1.16081 -0.21598
 H27 H 0.76951 1.25106 -0.15923
 C28 C 0.23179 0.74491 -0.20278
 C29 C 0.26120 0.75879 -0.18856
 C30 C 0.27856 0.78660 -0.20376
 C31 C 0.26639 0.80091 -0.23387
 C32 C 0.23674 0.78830 -0.24809
 C33 C 0.21994 0.76031 -0.23281
 H34 H 0.26927 0.74969 -0.16411
 H35 H 0.27924 0.82254 -0.24575
 H36 H 0.19824 0.75030 -0.24540
 C37 C 0.53321 1.05636 -0.01632
 H38 H 0.51417 1.06939 0.00157
 C39 C 0.56250 1.07316 -0.03233
 H40 H 0.56564 1.09917 -0.02675
 C41 C 0.55389 1.00608 -0.04363
 H42 H 0.55057 0.97976 -0.04749
 C43 C 0.58328 1.02182 -0.06015
 H44 H 0.60213 1.00750 -0.07723
 N45 N 0.52960 1.02336 -0.02222
 C46 C 0.44840 1.00927 0.06009
 H47 H 0.46105 0.98651 0.06966
 C48 C 0.41978 1.02490 0.07974
 H49 H 0.41119 1.01446 0.10467
 C50 C 0.44247 1.04932 0.01519
 H51 H 0.45071 1.05796 -0.01049
 C52 C 0.41400 1.06606 0.03423
 H53 H 0.40053 1.08776 0.02319
 Zn54 Zn 0.49417 0.99662 0.00064
 N55 N 0.45919 1.02162 0.02845
 C56 C 0.53493 0.97882 0.05449
 N57 N 0.51976 0.96577 0.02786
 C58 C 0.52542 0.93296 0.01991
 C59 C 0.54699 0.91184 0.03936
 C60 C 0.55619 0.95857 0.07484
 C61 C 0.47088 0.98570 -0.06463
 C62 C 0.45052 0.97102 -0.08794
 C63 C 0.42743 0.93354 -0.04286
 C64 C 0.44771 0.94934 -0.02026
 N65 N 0.46924 0.97460 -0.03153
 H66 H 0.53052 1.00515 0.05984
 H67 H 0.51421 0.92335 -0.00212
 H68 H 0.55202 0.88605 0.03202
 H69 H 0.56730 0.96950 0.09631
 H70 H 0.48728 1.00650 -0.07282
 H71 H 0.45182 0.98026 -0.11415
 H72 H 0.41026 0.91357 -0.03352
 H73 H 0.44615 0.94163 0.00639
 C74 C 0.40206 1.05350 0.06673
 C75 C 0.58827 1.05566 -0.05422
 C76 C 0.42853 0.94458 -0.07709
 C77 C 0.56289 0.92462 0.06720
 C78 C -0.03855 0.55405 1.04553
 H79 H -0.01760 0.53929 1.05705
 C80 C -0.05656 0.58055 1.06342
 H81 H -0.04909 0.58587 1.08865
 C82 C -0.07126 0.56688 0.99747
 H83 H -0.07614 0.56188 0.97139
 C84 C -0.09043 0.59297 1.01460
 H85 H -0.11080 0.60718 1.00166
 N86 N -0.04603 0.54796 1.01306
 C87 C 0.04830 0.48579 1.00040
 H88 H 0.05953 0.50030 0.97883
 C89 C 0.07037 0.46221 1.01634
 H90 H 0.09865 0.45948 1.00737
 C91 C -0.00241 0.47038 1.03714
 H92 H -0.03107 0.47312 1.04437
 C93 C 0.01871 0.44649 1.05383
 H94 H 0.00605 0.43088 1.07392
 Zn95 Zn -0.01872 0.51651 0.98537
 N96 N 0.01255 0.48924 1.01079
 C97 C 0.03170 0.56280 0.96363
 N98 N 0.00817 0.54187 0.95174
 C99 C 0.00300 0.54120 0.91792
 C100 C 0.02234 0.56204 0.89452
 C101 C 0.05184 0.58365 0.94118
 C102 C -0.08505 0.48708 0.97510
 C103 C -0.10633 0.46340 0.96212
 C104 C -0.05322 0.44040 0.92974
 C105 C -0.03296 0.46447 0.94338
 N106 N -0.04908 0.48728 0.96548
 H107 H 0.03465 0.56335 0.99075
 H108 H -0.01655 0.52504 0.90911
 H109 H 0.01797 0.56137 0.86767
 H110 H 0.07023 0.60034 0.95121
 H111 H -0.09721 0.50464 0.99357
 H112 H -0.13490 0.46360 0.97010
 H113 H -0.03970 0.42201 0.91278
 H114 H -0.00415 0.46463 0.93685
 C115 C 0.05550 0.44174 1.04302
 C116 C -0.08265 0.60076 1.04778
 C117 C -0.09039 0.43950 0.93928
 C118 C 0.04722 0.58350 0.90615
 C119 C 1.07464 -0.04394 0.54308
 H120 H 1.08905 -0.02512 0.52790
 C121 C 1.09176 -0.06213 0.56844
 H122 H 1.11934 -0.05704 0.57247
 C123 C 1.02037 -0.07149 0.55810
 H124 H 0.99230 -0.07452 0.55428
 C125 C 1.03648 -0.09050 0.58325
 H126 H 1.02070 -0.10868 0.59807
 N127 N 1.03950 -0.04885 0.53857
 C128 C 1.03367 0.03867 0.47613
 H129 H 1.01032 0.04948 0.49075
 C130 C 1.05367 0.05881 0.45276
 H131 H 1.04606 0.08516 0.45048
 C132 C 1.07095 -0.00890 0.46016
 H133 H 1.07693 -0.03552 0.46272
 C134 C 1.09175 0.01037 0.43645
 H135 H 1.11373 -0.00163 0.42076
 Zn136 Zn 1.01280 -0.02241 0.50833
 N137 N 1.04261 0.00547 0.47950
 C138 C 0.99344 0.02708 0.55528
 N139 N 0.97924 0.00387 0.53636
 C140 C 0.94323 -0.00116 0.53927
 C141 C 0.91990 0.01811 0.56156
 C142 C 0.97112 0.04734 0.57721
 C143 C 0.99924 -0.08301 0.47683
 C144 C 0.98393 -0.10266 0.45354
 C145 C 0.94844 -0.05404 0.43640
 C146 C 0.96477 -0.03522 0.45969
 N147 N 0.98939 -0.04995 0.47954
 H148 H 1.02226 0.03012 0.55295
 H149 H 0.93262 -0.02059 0.52493
 H150 H 0.89148 0.01312 0.56407
 H151 H 0.98318 0.06646 0.59088
 H152 H 1.01972 -0.09402 0.49201
 H153 H 0.99225 -0.12887 0.45147
 H154 H 0.92921 -0.04185 0.42049
 H155 H 0.95816 -0.00869 0.46169
 C156 C 1.08293 0.04466 0.43227
 C157 C 1.07248 -0.08556 0.58922
 C158 C 0.95825 -0.08814 0.43294
 C159 C 0.93374 0.04292 0.58089
 C160 C 0.14820 0.29378 1.14557
 C161 C 0.13073 0.32260 1.13262
 C162 C 0.10790 0.34302 1.15474
 C163 C 0.10349 0.33463 1.18957
 C164 C 0.12086 0.30590 1.20235
 C165 C 0.14324 0.28455 1.18062
 C166 C 0.08947 0.37123 1.14163
 C167 C 0.09342 0.37911 1.10654
 C168 C 0.11672 0.35890 1.08448
 C169 C 0.13525 0.33085 1.09764
 C170 C 0.12072 0.36680 1.04946
 C171 C 0.10133 0.39409 1.03626
 C172 C 0.07758 0.41408 1.05778
 C173 C 0.07402 0.40656 1.09305
 H174 H 0.16392 0.27775 1.12760
 H175 H 0.08648 0.35028 1.20703
 H176 H 0.11736 0.30128 1.22964
 H177 H 0.07170 0.38674 1.15864
 H178 H 0.15284 0.31522 1.08059
 H179 H 0.13844 0.35157 1.03219
 H180 H 0.10419 0.39900 1.00895
 H181 H 0.05607 0.42199 1.10994
 C182 C -0.17509 0.74580 1.16263
 C183 C -0.15848 0.71719 1.14730
 C184 C -0.14812 0.68949 1.16775
 C185 C -0.15392 0.69128 1.20338
 C186 C -0.16967 0.72026 1.21860
 C187 C -0.18090 0.74796 1.19852
 C188 C -0.13181 0.66070 1.15224
 C189 C -0.12489 0.65972 1.11654
 C190 C -0.13448 0.68791 1.09629
 C191 C -0.15153 0.71625 1.11172
 C192 C -0.12661 0.68749 1.06086
 C193 C -0.10949 0.65939 1.04544
 C194 C -0.10049 0.63070 1.06497
 C195 C -0.10829 0.63117 1.10072
 H196 H -0.18162 0.76705 1.14632
 H197 H -0.14614 0.67030 1.21954
 H198 H -0.17425 0.72024 1.24617
 H199 H -0.12411 0.63930 1.16793
 H200 H -0.15907 0.73772 1.09604
 H201 H -0.13335 0.70907 1.04504
 H202 H -0.10288 0.66044 1.01808
 H203 H -0.10180 0.60932 1.11624
 C204 C -0.17577 0.29123 0.84970
 C205 C -0.15977 0.31998 0.86005
 C206 C -0.13517 0.33684 0.83703
 C207 C -0.12758 0.32513 0.80385
 C208 C -0.14324 0.29635 0.79380
 C209 C -0.16716 0.27839 0.81663
 C210 C -0.11797 0.36472 0.84771
 C211 C -0.12463 0.37564 0.88138
 C212 C -0.14966 0.35909 0.90432
 C213 C -0.16722 0.33150 0.89346
 C214 C -0.15618 0.37003 0.93797
 C215 C -0.13745 0.39659 0.94907
 C216 C -0.11193 0.41280 0.92670
 C217 C -0.10606 0.40242 0.89268
 H218 H -0.19304 0.27790 0.86848
 H219 H -0.10918 0.33806 0.78569
 H220 H -0.13700 0.28881 0.76765
 H221 H -0.09881 0.37743 0.83006
 H222 H -0.18612 0.31861 0.91121
 H223 H -0.17527 0.35765 0.95590
 H224 H -0.14221 0.40382 0.97549
 H225 H -0.08681 0.41502 0.87508
 C226 C 0.17750 0.71140 0.80906
 C227 C 0.15959 0.68512 0.82664
 C228 C 0.17813 0.66395 0.84916
 C229 C 0.21450 0.66869 0.85290
 C230 C 0.23223 0.69473 0.83527
 C231 C 0.21405 0.71714 0.81348
 C232 C 0.15992 0.63870 0.86803
 C233 C 0.12325 0.63444 0.86478
 C234 C 0.10483 0.65496 0.84154
 C235 C 0.12311 0.68018 0.82260
 C236 C 0.06823 0.65031 0.83813
 C237 C 0.04976 0.62626 0.85834
 C238 C 0.06754 0.60658 0.88236
 C239 C 0.10450 0.61043 0.88500
 H240 H 0.16190 0.72828 0.79356
 H241 H 0.22932 0.65228 0.86960
 H242 H 0.26064 0.69645 0.83835
 H243 H 0.17412 0.62280 0.88569
 H244 H 0.10883 0.69625 0.80516
 H245 H 0.05371 0.66570 0.82034
 H246 H 0.02125 0.62382 0.85603
 H247 H 0.11851 0.59502 0.90318
 C248 C 1.15842 0.16513 0.28249
 C249 C 1.14013 0.14619 0.30859
 C250 C 1.10223 0.14991 0.31430
 C251 C 1.08329 0.17247 0.29399
 C252 C 1.10152 0.19104 0.26795
 C253 C 1.13948 0.18779 0.26144
 C254 C 1.08377 0.13086 0.34005
 C255 C 1.10273 0.10796 0.36017
 C256 C 1.14068 0.10419 0.35462
 C257 C 1.15917 0.12345 0.32896
 C258 C 1.15942 0.08104 0.37471
 C259 C 1.14072 0.06171 0.39996
 C260 C 1.10298 0.06531 0.40571
 C261 C 1.08421 0.08857 0.38562
 H262 H 1.18757 0.16272 0.27956
 H263 H 1.05416 0.17538 0.29785
 H264 H 1.08513 0.20662 0.25197
 H265 H 1.05463 0.13373 0.34431
 H266 H 1.18830 0.12051 0.32465
 H267 H 1.18851 0.07782 0.37085
 H268 H 1.15582 0.04417 0.41528
 H269 H 1.05504 0.09117 0.38937
 C270 C 1.18479 -0.18482 0.72421
 C271 C 1.17010 -0.16730 0.69700
 C272 C 1.19237 -0.15968 0.66706
 C273 C 1.22918 -0.16935 0.66518
 C274 C 1.24376 -0.18628 0.69275
 C275 C 1.22163 -0.19431 0.72233
 C276 C 1.17751 -0.14233 0.63970
 C277 C 1.14082 -0.13201 0.64221
 C278 C 1.11887 -0.13919 0.67249
 C279 C 1.13356 -0.15698 0.69953
 C280 C 1.08253 -0.12832 0.67539
 C281 C 1.06785 -0.11065 0.64851
 C282 C 1.08900 -0.10385 0.61787
 C283 C 1.12568 -0.11456 0.61502
 H284 H 1.16774 -0.19050 0.74724
 H285 H 1.24672 -0.16363 0.64252
 H286 H 1.27225 -0.19339 0.69091
 H287 H 1.19450 -0.13664 0.61663
 H288 H 1.11658 -0.16259 0.72264
 H289 H 1.06547 -0.13329 0.69857
 H290 H 1.03984 -0.10199 0.65195
 H291 H 1.14234 -0.10973 0.59156
 C292 C 0.85075 -0.17126 0.29511
 C293 C 0.86435 -0.15638 0.32298
 C294 C 0.84077 -0.13763 0.34616
 C295 C 0.80383 -0.13500 0.34164
 C296 C 0.79051 -0.14993 0.31386
 C297 C 0.81384 -0.16773 0.28999
 C298 C 0.85456 -0.12130 0.37304
 C299 C 0.89166 -0.12345 0.37702
 C300 C 0.91509 -0.14300 0.35442
 C301 C 0.90129 -0.15932 0.32755
 C302 C 0.95207 -0.14550 0.35876
 C303 C 0.96588 -0.12824 0.38480
 C304 C 0.94302 -0.10800 0.40680
 C305 C 0.90582 -0.10596 0.40296
 H306 H 0.86917 -0.18448 0.27670
 H307 H 0.78531 -0.12099 0.35932
 H308 H 0.76189 -0.14727 0.31085
 H309 H 0.83652 -0.10652 0.39051
 H310 H 0.91937 -0.17388 0.30992
 H311 H 0.97039 -0.16045 0.34176
 H312 H 0.99466 -0.12997 0.38718
 H313 H 0.88798 -0.09067 0.42009
 C314 C 0.83514 0.16035 0.72262
 C315 C 0.85670 0.13905 0.70062
 C316 C 0.89261 0.13049 0.70768
 C317 C 0.90657 0.14385 0.73612
 C318 C 0.88518 0.16552 0.75745
 C319 C 0.84935 0.17379 0.75101
 C320 C 0.91412 0.10891 0.68609
 C321 C 0.90055 0.09641 0.65701
 C322 C 0.86495 0.10545 0.64950
 C323 C 0.84307 0.12641 0.67157
 C324 C 0.85199 0.09359 0.61984
 C325 C 0.87420 0.07329 0.59763
 C326 C 0.90967 0.06392 0.60490
 C327 C 0.92234 0.07535 0.63508
 H328 H 0.80753 0.16688 0.71750
 H329 H 0.93405 0.13763 0.74182
 H330 H 0.89643 0.17545 0.77939
 H331 H 0.94158 0.10222 0.69167
 H332 H 0.81566 0.13319 0.66593
 H333 H 0.82484 0.10043 0.61353
 H334 H 0.86373 0.06547 0.57441
 H335 H 0.94921 0.06786 0.64168
 C336 C 0.24364 1.16038 0.16455
 C337 C 0.27452 1.14614 0.14654
 C338 C 0.30260 1.16676 0.13358
 C339 C 0.29952 1.20123 0.13942
 C340 C 0.26884 1.21518 0.15773
 C341 C 0.24048 1.19499 0.17032
 C342 C 0.33320 1.15261 0.11499
 C343 C 0.33624 1.11801 0.10954
 C344 C 0.30837 1.09736 0.12309
 C345 C 0.27762 1.11157 0.14127
 C346 C 0.31172 1.06275 0.11828
 C347 C 0.34235 1.04865 0.10020
 C348 C 0.37001 1.06890 0.08625
 C349 C 0.36675 1.10365 0.09090
 H350 H 0.22179 1.14454 0.17355
 H351 H 0.32087 1.21741 0.12990
 H352 H 0.26741 1.24181 0.16221
 H353 H 0.35464 1.16847 0.10484
 H354 H 0.25618 1.09571 0.15141
 H355 H 0.29065 1.04658 0.12853
 H356 H 0.34422 1.02185 0.09662
 H357 H 0.38816 1.11935 0.08042
 C358 C 0.74260 1.15906 -0.15226
 C359 C 0.71199 1.14585 -0.13454
 C360 C 0.67913 1.16509 -0.13154
 C361 C 0.67777 1.19759 -0.14589
 C362 C 0.70860 1.21072 -0.16326
 C363 C 0.74110 1.19143 -0.16686
 C364 C 0.64827 1.15146 -0.11440
 C365 C 0.65001 1.11891 -0.10014
 C366 C 0.68317 1.10007 -0.10271
 C367 C 0.71387 1.11362 -0.11988
 C368 C 0.68513 1.06776 -0.08831
 C369 C 0.65440 1.05383 -0.07207
 C370 C 0.62098 1.07182 -0.07000
 C371 C 0.61909 1.10466 -0.08369
 H372 H 0.76779 1.14428 -0.15445
 H373 H 0.65288 1.21278 -0.14377
 H374 H 0.70695 1.23575 -0.17436
 H375 H 0.62295 1.16607 -0.11234
 H376 H 0.73918 1.09898 -0.12203
 H377 H 0.71041 1.05314 -0.08979
 H378 H 0.65682 1.02883 -0.06106
 H379 H 0.59347 1.11874 -0.08236
 C380 C 0.30901 0.83699 -0.18499
 C381 C 0.33428 0.85151 -0.16608
 C382 C 0.35846 0.83078 -0.14830
 C383 C 0.35783 0.79594 -0.15076
 C384 C 0.33273 0.78169 -0.16976
 C385 C 0.30759 0.80196 -0.18653
 C386 C 0.38243 0.84516 -0.12788
 C387 C 0.38260 0.88003 -0.12511
 C388 C 0.35926 0.90081 -0.14382
 C389 C 0.33519 0.88641 -0.16410
 C390 C 0.36006 0.93568 -0.14155
 C391 C 0.38324 0.94986 -0.12044
 C392 C 0.40570 0.92942 -0.10095
 C393 C 0.40546 0.89449 -0.10359
 H394 H 0.28959 0.85299 -0.19739
 H395 H 0.37642 0.77968 -0.13760
 H396 H 0.33273 0.75469 -0.17104
 H397 H 0.40057 0.82922 -0.11381
 H398 H 0.31687 0.90235 -0.17798
 H399 H 0.34250 0.95197 -0.15583
 H400 H 0.38297 0.97683 -0.11860
 H401 H 0.42305 0.87865 -0.08886
 C402 C 0.70936 0.83596 0.17755
 C403 C 0.68602 0.85598 0.15860
 C404 C 0.69272 0.89024 0.15259
 C405 C 0.72224 0.90398 0.16609
 C406 C 0.74514 0.88394 0.18514
 C407 C 0.73909 0.84978 0.19084
 C408 C 0.66989 0.91021 0.13316
 C409 C 0.64018 0.89649 0.11995
 C410 C 0.63310 0.86240 0.12637
 C411 C 0.65616 0.84230 0.14553
 C412 C 0.60304 0.84900 0.11348
 C413 C 0.58018 0.86917 0.09441
 C414 C 0.58709 0.90309 0.08761
 C415 C 0.61739 0.91644 0.10044
 H416 H 0.70433 0.80968 0.18216
 H417 H 0.72773 0.93019 0.16177
 H418 H 0.76808 0.89500 0.19488
 H419 H 0.67520 0.93643 0.12840
 H420 H 0.65087 0.81608 0.15027
 H421 H 0.59708 0.82296 0.11830
 H422 H 0.55682 0.85827 0.08536
 H423 H 0.62361 0.94232 0.09491
   
