data_POSCAR
  _audit_creation_date              2014-09-24
  _audit_creation_method            'ToBaCCo'
  _symmetry_space_group_name_H-M    'P1'
  _symmetry_Int_Tables_number       1
  _symmetry_cell_setting            triclinic
  loop_
  _symmetry_equiv_pos_as_xyz
 x,y,z
_cell_length_a 38.1696
_cell_length_b 36.4956
_cell_length_c 36.4714
_cell_angle_alpha 90.122400
_cell_angle_beta 90.130400
_cell_angle_gamma 90.012100
loop_
  _atom_site_label
  _atom_site_type_symbol
  _atom_site_fract_x
  _atom_site_fract_y
  _atom_site_fract_z
C1 C 0.30528 0.30234 0.23557
 H2 H 0.30788 0.30259 0.26511
 C3 C 0.32738 0.32402 0.21423
 H4 H 0.34653 0.34138 0.22765
 C5 C 0.27705 0.27938 0.18235
 H6 H 0.25774 0.26159 0.16997
 C7 C 0.29858 0.30066 0.15997
 H8 H 0.29563 0.29888 0.13049
 N9 N 0.28053 0.28079 0.21946
 C10 C 0.19495 0.26511 0.29684
 H11 H 0.19033 0.23609 0.29331
 C12 C 0.17220 0.28578 0.31852
 H13 H 0.15038 0.27232 0.33180
 C14 C 0.22758 0.31818 0.28189
 H15 H 0.24880 0.33096 0.26724
 C16 C 0.20545 0.33990 0.30327
 H17 H 0.21050 0.36902 0.30535
 Zn18 Zn 0.25167 0.25134 0.24992
 N19 N 0.22235 0.28136 0.27947
 C20 C 0.26710 0.20428 0.30973
 N21 N 0.28072 0.22136 0.27986
 C22 C 0.31491 0.21674 0.27040
 C23 C 0.33695 0.19481 0.29166
 C24 C 0.28823 0.18214 0.33179
 C25 C 0.19585 0.23736 0.20181
 C26 C 0.17338 0.21616 0.18021
 C27 C 0.20598 0.16228 0.19806
 C28 C 0.22780 0.18452 0.21936
 N29 N 0.22245 0.22132 0.22072
 H30 H 0.23982 0.20765 0.31653
 H31 H 0.32515 0.22980 0.24614
 H32 H 0.36418 0.19198 0.28393
 H33 H 0.27679 0.16856 0.35526
 H34 H 0.19218 0.26671 0.20350
 H35 H 0.15266 0.22949 0.16494
 H36 H 0.21041 0.13298 0.19761
 H37 H 0.24904 0.17236 0.23476
 C38 C 0.17739 0.32371 0.32207
 C39 C 0.32415 0.32341 0.17588
 C40 C 0.17832 0.17806 0.17811
 C41 C 0.32370 0.17725 0.32291
 C42 C 0.80404 0.80154 0.23616
 H43 H 0.80532 0.80250 0.26579
 C44 C 0.82652 0.82333 0.21537
 H45 H 0.84391 0.84162 0.23001
 C46 C 0.77814 0.77729 0.18240
 H47 H 0.75985 0.75865 0.16959
 C48 C 0.80004 0.79862 0.16048
 H49 H 0.79818 0.79493 0.13113
 N50 N 0.78014 0.77949 0.21952
 C51 C 0.69708 0.76394 0.30001
 H52 H 0.69568 0.73433 0.30043
 C53 C 0.67432 0.78459 0.32168
 H54 H 0.65526 0.77065 0.33859
 C55 C 0.72306 0.81795 0.27651
 H56 H 0.74179 0.83089 0.25857
 C57 C 0.70076 0.83968 0.29769
 H58 H 0.70314 0.86921 0.29634
 Zn59 Zn 0.75081 0.75062 0.24974
 N60 N 0.72115 0.78078 0.27839
 C61 C 0.77791 0.72408 0.31741
 N62 N 0.78023 0.72203 0.28026
 C63 C 0.80441 0.70020 0.26377
 C64 C 0.82680 0.67842 0.28479
 C65 C 0.79976 0.70277 0.33949
 C66 C 0.69753 0.73655 0.19882
 C67 C 0.67507 0.71552 0.17702
 C68 C 0.70192 0.66086 0.20157
 C69 C 0.72385 0.68293 0.22292
 N70 N 0.72162 0.72007 0.22081
 H71 H 0.75925 0.74235 0.33008
 H72 H 0.80603 0.69948 0.23416
 H73 H 0.84531 0.66060 0.27110
 H74 H 0.79763 0.70492 0.36902
 H75 H 0.69598 0.76614 0.19807
 H76 H 0.65658 0.72919 0.15913
 H77 H 0.70393 0.63136 0.20383
 H78 H 0.74243 0.67029 0.24131
 C79 C 0.67609 0.82302 0.32082
 C80 C 0.82484 0.82251 0.17665
 C81 C 0.67721 0.67712 0.17810
 C82 C 0.82449 0.67937 0.32322
 C83 C 0.80372 0.29952 0.73622
 H84 H 0.80523 0.30060 0.76583
 C85 C 0.82610 0.32115 0.71513
 H86 H 0.84449 0.33923 0.72877
 C87 C 0.77755 0.27483 0.68263
 H88 H 0.75904 0.25629 0.67002
 C89 C 0.79940 0.29599 0.66049
 H90 H 0.79741 0.29345 0.63098
 N91 N 0.77973 0.27734 0.71979
 C92 C 0.69698 0.26295 0.80082
 H93 H 0.69555 0.23336 0.80172
 C94 C 0.67434 0.28398 0.82228
 H95 H 0.65534 0.27032 0.83951
 C96 C 0.72287 0.31656 0.77632
 H97 H 0.74151 0.32920 0.75808
 C98 C 0.70070 0.33864 0.79727
 H99 H 0.70309 0.36814 0.79543
 Zn100 Zn 0.75043 0.24885 0.75039
 N101 N 0.72095 0.27943 0.77880
 C102 C 0.77786 0.22307 0.81815
 N103 N 0.77990 0.22053 0.78110
 C104 C 0.80397 0.19856 0.76487
 C105 C 0.82659 0.17714 0.78599
 C106 C 0.79988 0.20217 0.84044
 C107 C 0.69691 0.23453 0.69988
 C108 C 0.67434 0.21344 0.67828
 C109 C 0.70119 0.15886 0.70301
 C110 C 0.72324 0.18100 0.72414
 N111 N 0.72106 0.21813 0.72185
 H112 H 0.75946 0.24175 0.83065
 H113 H 0.80525 0.19727 0.73526
 H114 H 0.84365 0.15881 0.77116
 H115 H 0.79784 0.20680 0.86960
 H116 H 0.69541 0.26412 0.69897
 H117 H 0.65581 0.22706 0.66039
 H118 H 0.70317 0.12936 0.70539
 H119 H 0.74189 0.16842 0.74251
 C120 C 0.67612 0.32239 0.82078
 C121 C 0.82397 0.31970 0.67670
 C122 C 0.67642 0.17504 0.67955
 C123 C 0.82503 0.17814 0.82486
 C124 C 0.30195 0.80120 0.73631
 H125 H 0.30346 0.80218 0.76593
 C126 C 0.32449 0.82271 0.71530
 H127 H 0.34299 0.84062 0.72899
 C128 C 0.27570 0.77677 0.68264
 H129 H 0.25713 0.75834 0.66998
 C130 C 0.29772 0.79781 0.66057
 H131 H 0.29577 0.79531 0.63105
 N132 N 0.27787 0.77917 0.71980
 C133 C 0.19536 0.76424 0.80101
 H134 H 0.19393 0.73464 0.80170
 C135 C 0.17279 0.78510 0.82271
 H136 H 0.15385 0.77132 0.83991
 C137 C 0.22117 0.81803 0.77682
 H138 H 0.23977 0.83080 0.75861
 C139 C 0.19907 0.83996 0.79801
 H140 H 0.20146 0.86947 0.79638
 Zn141 Zn 0.24869 0.75051 0.75035
 N142 N 0.21926 0.78088 0.77903
 C143 C 0.27635 0.72430 0.81793
 N144 N 0.27834 0.72211 0.78075
 C145 C 0.30247 0.70035 0.76410
 C146 C 0.32521 0.67884 0.78497
 C147 C 0.29857 0.70323 0.83986
 C148 C 0.19513 0.73613 0.69982
 C149 C 0.17264 0.71495 0.67820
 C150 C 0.19969 0.66047 0.70291
 C151 C 0.22164 0.68269 0.72407
 N152 N 0.21934 0.71981 0.72178
 H153 H 0.25771 0.74250 0.83071
 H154 H 0.30382 0.69953 0.73448
 H155 H 0.34371 0.66110 0.77115
 H156 H 0.29673 0.70551 0.86940
 H157 H 0.19352 0.76571 0.69892
 H158 H 0.15407 0.72850 0.66031
 H159 H 0.20177 0.63098 0.70528
 H160 H 0.24032 0.67017 0.74244
 C161 C 0.17457 0.82352 0.82149
 C162 C 0.32244 0.82130 0.67686
 C163 C 0.17488 0.67656 0.67944
 C164 C 0.32331 0.67997 0.82341
 Si165 Si -0.00013 0.00106 0.00107
 Si166 Si -0.00081 0.49900 0.50007
 Si167 Si 0.49950 -0.00140 0.50031
 Si168 Si 0.50052 0.50074 -0.00143
 C169 C 0.12189 -0.14228 -0.09716
 C170 C 0.10716 -0.11015 -0.11129
 C171 C 0.11423 -0.09979 -0.14745
 C172 C 0.13605 -0.12139 -0.16937
 C173 C 0.15109 -0.15369 -0.15540
 C174 C 0.14369 -0.16393 -0.11904
 C175 C 0.08502 -0.08769 -0.08861
 C176 C 0.06660 -0.06881 -0.06954
 C177 C 0.04518 -0.04664 -0.04713
 C178 C 0.02702 -0.02765 -0.02794
 H179 H 0.11668 -0.15049 -0.06917
 H180 H 0.10289 -0.07502 -0.15869
 H181 H 0.14085 -0.11302 -0.19738
 H182 H 0.15522 -0.18837 -0.10733
 C183 C 0.12063 0.40255 0.35504
 C184 C 0.10877 0.38921 0.38875
 C185 C 0.11917 0.35442 0.40061
 C186 C 0.14139 0.33306 0.37890
 C187 C 0.15356 0.34627 0.34501
 C188 C 0.14287 0.38125 0.33330
 C189 C 0.08615 0.41132 0.41125
 C190 C 0.06732 0.42993 0.43014
 C191 C 0.04542 0.45182 0.45232
 C192 C 0.02686 0.47059 0.47132
 H193 H 0.11267 0.42941 0.34555
 H194 H 0.11023 0.34388 0.42672
 H195 H 0.14949 0.30645 0.38889
 H196 H 0.15138 0.39198 0.30714
 C197 C 0.62269 -0.14360 0.40199
 C198 C 0.60801 -0.11138 0.38802
 C199 C 0.61539 -0.10066 0.35203
 C200 C 0.63743 -0.12201 0.33011
 C201 C 0.65240 -0.15442 0.34393
 C202 C 0.64472 -0.16501 0.38012
 C203 C 0.58561 -0.08919 0.41069
 C204 C 0.56697 -0.07054 0.42976
 C205 C 0.54530 -0.04863 0.45216
 C206 C 0.52693 -0.02985 0.47134
 H207 H 0.61724 -0.15209 0.42985
 H208 H 0.60410 -0.07581 0.34091
 H209 H 0.64246 -0.11338 0.30223
 H210 H 0.65619 -0.18953 0.39171
 C211 C 0.62311 0.35719 -0.09837
 C212 C 0.60841 0.38919 -0.11281
 C213 C 0.61562 0.39928 -0.14901
 C214 C 0.63754 0.37753 -0.17068
 C215 C 0.65254 0.34534 -0.15638
 C216 C 0.64501 0.33538 -0.11998
 C217 C 0.58615 0.41180 -0.09040
 C218 C 0.56763 0.43078 -0.07154
 C219 C 0.54609 0.45303 -0.04934
 C220 C 0.52782 0.47205 -0.03030
 H221 H 0.61779 0.34919 -0.07034
 H222 H 0.60431 0.42396 -0.16050
 H223 H 0.64245 0.38568 -0.19873
 H224 H 0.65651 0.31104 -0.10803
 C225 C -0.10021 0.11955 -0.14594
 C226 C -0.10873 0.11284 -0.10942
 C227 C -0.13917 0.12793 -0.09470
 C228 C -0.16112 0.14965 -0.11633
 C229 C -0.15329 0.15698 -0.15370
 C230 C -0.12202 0.14121 -0.16781
 C231 C -0.08635 0.09029 -0.08705
 C232 C -0.06773 0.07134 -0.06826
 C233 C -0.04606 0.04906 -0.04621
 C234 C -0.02766 0.02997 -0.02736
 H235 H -0.07642 0.10826 -0.15755
 H236 H -0.14623 0.12256 -0.06645
 H237 H -0.18506 0.15878 -0.10353
 H238 H -0.11282 0.14660 -0.19524
 C239 C -0.09530 0.62881 0.35850
 C240 C -0.10875 0.61151 0.38965
 C241 C -0.14393 0.61642 0.39914
 C242 C -0.16562 0.63852 0.37759
 C243 C -0.15239 0.65603 0.34619
 C244 C -0.11695 0.65092 0.33688
 C245 C -0.08651 0.58868 0.41187
 C246 C -0.06802 0.56951 0.43058
 C247 C -0.04650 0.54705 0.45259
 C248 C -0.02822 0.52787 0.47148
 H249 H -0.06807 0.62528 0.35095
 H250 H -0.15464 0.60306 0.42314
 H251 H -0.19288 0.64149 0.38521
 H252 H -0.10587 0.66438 0.31316
 C253 C 0.39336 0.10874 0.35164
 C254 C 0.39049 0.10994 0.38986
 C255 C 0.36576 0.13303 0.40623
 C256 C 0.34399 0.15488 0.38449
 C257 C 0.34671 0.15393 0.34602
 C258 C 0.37165 0.13059 0.32984
 C259 C 0.41286 0.08744 0.41227
 C260 C 0.43156 0.06857 0.43106
 C261 C 0.45336 0.04641 0.45307
 C262 C 0.47188 0.02741 0.47189
 H263 H 0.41234 0.09087 0.33867
 H264 H 0.36337 0.13423 0.43581
 H265 H 0.32539 0.17289 0.39779
 H266 H 0.37406 0.12886 0.30031
 C267 C 0.40435 0.63035 -0.14212
 C268 C 0.39141 0.61302 -0.11075
 C269 C 0.35630 0.61765 -0.10082
 C270 C 0.33417 0.63948 -0.12216
 C271 C 0.34690 0.65698 -0.15379
 C272 C 0.38227 0.65218 -0.16353
 C273 C 0.41406 0.59038 -0.08880
 C274 C 0.43286 0.57133 -0.07032
 C275 C 0.45466 0.54894 -0.04855
 C276 C 0.47310 0.52975 -0.02984
 H277 H 0.43152 0.62702 -0.15000
 H278 H 0.34598 0.60426 -0.07665
 H279 H 0.30699 0.64222 -0.11421
 H280 H 0.39295 0.66566 -0.18744
 C281 C -0.09858 -0.12016 0.14691
 C282 C -0.10855 -0.11067 0.11132
 C283 C -0.14041 -0.12324 0.09724
 C284 C -0.16229 -0.14522 0.11859
 C285 C -0.15281 -0.15521 0.15479
 C286 C -0.12036 -0.14211 0.16844
 C287 C -0.08616 -0.08797 0.08922
 C288 C -0.06755 -0.06894 0.07057
 C289 C -0.04592 -0.04665 0.04860
 C290 C -0.02756 -0.02761 0.02972
 H291 H -0.07377 -0.11080 0.15799
 H292 H -0.14855 -0.11577 0.06977
 H293 H -0.18724 -0.15293 0.10682
 H294 H -0.11073 -0.14973 0.19524
 C295 C -0.09576 0.37003 0.64158
 C296 C -0.10909 0.38688 0.61006
 C297 C -0.14422 0.38173 0.60027
 C298 C -0.16596 0.35985 0.62188
 C299 C -0.15285 0.34281 0.65366
 C300 C -0.11747 0.34815 0.66326
 C301 C -0.08680 0.40953 0.58781
 C302 C -0.06825 0.42857 0.56912
 C303 C -0.04666 0.45093 0.54717
 C304 C -0.02831 0.47008 0.52839
 H305 H -0.06858 0.37376 0.64936
 H306 H -0.15483 0.39474 0.57599
 H307 H -0.19317 0.35669 0.61403
 H308 H -0.10648 0.33504 0.68728
 C309 C 0.40338 -0.12942 0.64197
 C310 C 0.39035 -0.11244 0.61039
 C311 C 0.35519 -0.11714 0.60049
 C312 C 0.33312 -0.13871 0.62206
 C313 C 0.34594 -0.15588 0.65389
 C314 C 0.38134 -0.15099 0.66361
 C315 C 0.41297 -0.09011 0.58819
 C316 C 0.43176 -0.07132 0.56951
 C317 C 0.45357 -0.04920 0.54756
 C318 C 0.47203 -0.03021 0.52876
 H319 H 0.43058 -0.12603 0.64984
 H320 H 0.34481 -0.10403 0.57615
 H321 H 0.30590 -0.14154 0.61411
 H322 H 0.39211 -0.16421 0.68767
 C323 C 0.40491 0.37188 0.13951
 C324 C 0.39132 0.38980 0.10873
 C325 C 0.35583 0.38596 0.09979
 C326 C 0.33398 0.36432 0.12155
 C327 C 0.34737 0.34625 0.15262
 C328 C 0.38311 0.35026 0.16134
 C329 C 0.41375 0.41220 0.08638
 C330 C 0.43248 0.43102 0.06766
 C331 C 0.45431 0.45313 0.04573
 C332 C 0.47285 0.47208 0.02696
 H333 H 0.43237 0.37459 0.14662
 H334 H 0.34502 0.39979 0.07607
 H335 H 0.30652 0.36216 0.11439
 H336 H 0.39430 0.33631 0.18477
 C337 C 0.09643 0.14012 0.13247
 C338 C 0.11024 0.11123 0.11177
 C339 C 0.14626 0.10413 0.11275
 C340 C 0.16841 0.12581 0.13434
 C341 C 0.15479 0.15495 0.15524
 C342 C 0.11853 0.16186 0.15406
 C343 C 0.08751 0.08893 0.08945
 C344 C 0.06856 0.07021 0.07069
 C345 C 0.04649 0.04826 0.04864
 C346 C 0.02778 0.02947 0.02973
 H347 H 0.06857 0.14580 0.13198
 H348 H 0.15724 0.08190 0.09674
 H349 H 0.19624 0.12009 0.13428
 H350 H 0.10719 0.18377 0.17020
 C351 C 0.09428 0.64105 0.62950
 C352 C 0.10755 0.60965 0.61238
 C353 C 0.14275 0.60006 0.61721
 C354 C 0.16463 0.62177 0.63905
 C355 C 0.15157 0.65343 0.65636
 C356 C 0.11612 0.66283 0.65135
 C357 C 0.08514 0.58731 0.58975
 C358 C 0.06652 0.56852 0.57072
 C359 C 0.04489 0.54645 0.54833
 C360 C 0.02656 0.52754 0.52914
 H361 H 0.06704 0.64867 0.62602
 H362 H 0.15332 0.57587 0.60398
 H363 H 0.19188 0.61407 0.64196
 H364 H 0.10518 0.68675 0.66467
 C365 C 0.59560 0.14000 0.62966
 C366 C 0.60869 0.10854 0.61250
 C367 C 0.64383 0.09872 0.61733
 C368 C 0.66584 0.12027 0.63919
 C369 C 0.65297 0.15201 0.65652
 C370 C 0.61757 0.16162 0.65152
 C371 C 0.58614 0.08637 0.58984
 C372 C 0.56738 0.06775 0.57079
 C373 C 0.54557 0.04585 0.54841
 C374 C 0.52709 0.02707 0.52925
 H375 H 0.56841 0.14780 0.62618
 H376 H 0.65426 0.07448 0.60408
 H377 H 0.69305 0.11241 0.64210
 H378 H 0.60676 0.18560 0.66486
 C379 C 0.59654 0.64206 0.12797
 C380 C 0.60971 0.61065 0.11078
 C381 C 0.64487 0.60092 0.11560
 C382 C 0.66681 0.62249 0.13752
 C383 C 0.65385 0.65415 0.15491
 C384 C 0.61844 0.66369 0.14989
 C385 C 0.58720 0.58844 0.08812
 C386 C 0.56848 0.56977 0.06907
 C387 C 0.54669 0.54785 0.04671
 C388 C 0.52819 0.52908 0.02755
 H389 H 0.56933 0.64979 0.12450
 H390 H 0.65536 0.57672 0.10232
 H391 H 0.69404 0.61468 0.14044
 H392 H 0.60757 0.68761 0.16328
   
