data_POSCAR
  _audit_creation_date              2014-09-24
  _audit_creation_method            'ToBaCCo'
  _symmetry_space_group_name_H-M    'P1'
  _symmetry_Int_Tables_number       1
  _symmetry_cell_setting            triclinic
  loop_
  _symmetry_equiv_pos_as_xyz
 x,y,z
_cell_length_a 47.7367
_cell_length_b 46.7999
_cell_length_c 43.9496
_cell_angle_alpha 84.397800
_cell_angle_beta 93.733000
_cell_angle_gamma 89.771600
loop_
  _atom_site_label
  _atom_site_type_symbol
  _atom_site_fract_x
  _atom_site_fract_y
  _atom_site_fract_z
N1 N 0.58302 0.69350 0.60257
 N2 N 0.57068 0.67966 0.62544
 C3 C 0.54834 0.69517 0.63186
 C4 C 0.54660 0.71989 0.61177
 C5 C 0.56882 0.71807 0.59347
 H6 H 0.53411 0.68872 0.64937
 H7 H 0.57420 0.73353 0.57490
 Cu8 Cu 0.58458 0.64232 0.64379
 Cu9 Cu 0.61657 0.67879 0.58631
 Cu10 Cu 0.64277 0.61317 0.61990
 N11 N 0.59959 0.60555 0.66252
 N12 N 0.62266 0.59457 0.65344
 C13 C 0.62869 0.56944 0.67026
 C14 C 0.60813 0.56432 0.69090
 C15 C 0.58999 0.58760 0.68530
 H16 H 0.64648 0.55587 0.66727
 H17 H 0.57129 0.59118 0.69710
 N18 N 0.66013 0.63527 0.58567
 N19 N 0.65031 0.66040 0.57310
 C20 C 0.66673 0.67012 0.55060
 C21 C 0.68767 0.65009 0.54878
 C22 C 0.68292 0.62825 0.57135
 H23 H 0.66364 0.69018 0.53633
 H24 H 0.69522 0.60881 0.57703
 H25 H 0.60884 0.63577 0.59776
 H26 H 0.63081 0.65455 0.62621
 N27 N 0.92673 0.34442 0.11247
 N28 N 0.94310 0.36063 0.12864
 C29 C 0.96878 0.34841 0.13335
 C30 C 0.96843 0.32308 0.11964
 C31 C 0.94136 0.32116 0.10655
 H32 H 0.98633 0.35710 0.14618
 H33 H 0.93298 0.30447 0.09334
 Cu34 Cu 0.92942 0.39567 0.14311
 Cu35 Cu 0.88821 0.35561 0.09889
 Cu36 Cu 0.86061 0.41233 0.13223
 N37 N 0.91186 0.42264 0.16712
 N38 N 0.88487 0.42867 0.16317
 C39 C 0.87814 0.44718 0.18316
 C40 C 0.90226 0.45306 0.20058
 C41 C 0.92328 0.43724 0.18971
 H42 H 0.85729 0.45577 0.18472
 H43 H 0.94515 0.43615 0.19792
 N44 N 0.83959 0.39281 0.10046
 N45 N 0.84984 0.37072 0.08811
 C46 C 0.83099 0.36286 0.06637
 C47 C 0.80791 0.38104 0.06499
 C48 C 0.81408 0.39972 0.08682
 H49 H 0.83436 0.34609 0.05171
 H50 H 0.80122 0.41757 0.09170
 H51 H 0.89064 0.39896 0.10411
 H52 H 0.88346 0.37418 0.13891
 N53 N 0.41176 0.16943 -0.09915
 N54 N 0.42466 0.15924 -0.12139
 C55 C 0.44762 0.17507 -0.12691
 C56 C 0.44919 0.19617 -0.10691
 C57 C 0.42621 0.19190 -0.08957
 H58 H 0.46235 0.17122 -0.14375
 H59 H 0.42046 0.20426 -0.07134
 Cu60 Cu 0.41069 0.12567 -0.14019
 Cu61 Cu 0.37717 0.15290 -0.08434
 Cu62 Cu 0.35130 0.09381 -0.11857
 N63 N 0.39588 0.09260 -0.15933
 N64 N 0.37239 0.08052 -0.15102
 C65 C 0.36672 0.05839 -0.16776
 C66 C 0.38789 0.05646 -0.18754
 C67 C 0.40607 0.07839 -0.18152
 H68 H 0.34879 0.04452 -0.16532
 H69 H 0.42525 0.08352 -0.19257
 N70 N 0.33293 0.11038 -0.08538
 N71 N 0.34249 0.13314 -0.07262
 C72 C 0.32535 0.13915 -0.05083
 C73 C 0.30416 0.11907 -0.04982
 C74 C 0.30965 0.10118 -0.07187
 H75 H 0.32838 0.15642 -0.03636
 H76 H 0.29755 0.08270 -0.07747
 H77 H 0.38476 0.11175 -0.09514
 H78 H 0.36399 0.13610 -0.12450
 N79 N 0.09320 0.79739 0.37444
 N80 N 0.07431 0.81347 0.35753
 C81 C 0.05028 0.79872 0.35478
 C82 C 0.05456 0.77175 0.37055
 C83 C 0.08207 0.77161 0.38254
 H84 H 0.03146 0.80684 0.34172
 H85 H 0.09307 0.75421 0.39647
 Cu86 Cu 0.08397 0.85123 0.33891
 Cu87 Cu 0.13061 0.81154 0.38508
 Cu88 Cu 0.13503 0.88587 0.37522
 N89 N 0.09418 0.89001 0.32402
 N90 N 0.11469 0.90329 0.33809
 C91 C 0.11820 0.92928 0.32293
 C92 C 0.09890 0.93234 0.29788
 C93 C 0.08389 0.90711 0.29937
 H94 H 0.13370 0.94464 0.32967
 H95 H 0.06715 0.90146 0.28334
 N96 N 0.16115 0.86154 0.40309
 N97 N 0.16023 0.83322 0.40584
 C98 C 0.18088 0.82285 0.42633
 C99 C 0.19538 0.84573 0.43701
 C100 C 0.18238 0.86997 0.42170
 H101 H 0.18456 0.80033 0.43367
 H102 H 0.18780 0.89210 0.42392
 H103 H 0.11123 0.84955 0.38781
 H104 H 0.13405 0.84898 0.35498
 C105 C 0.10354 0.15266 0.11764
 C106 C 0.12630 0.15771 0.09915
 C107 C 0.14896 0.13829 0.10142
 C108 C 0.14930 0.11433 0.12337
 C109 C 0.12670 0.10894 0.14188
 C110 C 0.10366 0.12802 0.13856
 H111 H 0.12603 0.17624 0.08230
 H112 H 0.16724 0.09983 0.12627
 H113 H 0.08629 0.12451 0.15310
 C114 C 0.38641 0.86370 0.63865
 C115 C 0.36623 0.86436 0.61381
 C116 C 0.34372 0.88412 0.61112
 C117 C 0.34195 0.90365 0.63319
 C118 C 0.36203 0.90341 0.65797
 C119 C 0.38396 0.88301 0.66084
 H120 H 0.36801 0.84940 0.59678
 H121 H 0.32481 0.91915 0.63110
 H122 H 0.39913 0.88197 0.68035
 C123 C 0.88599 0.63636 0.38273
 C124 C 0.88756 0.61402 0.36373
 C125 C 0.86835 0.59131 0.36563
 C126 C 0.84763 0.59118 0.38686
 C127 C 0.84558 0.61350 0.40570
 C128 C 0.86482 0.63613 0.40341
 H129 H 0.90294 0.61512 0.34665
 H130 H 0.83270 0.57377 0.38841
 H131 H 0.86395 0.65326 0.41821
 C132 C 0.61073 0.34188 -0.13423
 C133 C 0.63143 0.33820 -0.10986
 C134 C 0.65334 0.35790 -0.10750
 C135 C 0.65482 0.38109 -0.13017
 C136 C 0.63434 0.38506 -0.15458
 C137 C 0.61245 0.36522 -0.15661
 H138 H 0.63078 0.31987 -0.09286
 H139 H 0.67210 0.39598 -0.12912
 H140 H 0.59691 0.36763 -0.17580
 C141 C -0.00890 0.30419 0.11946
 C142 C -0.01116 0.27764 0.10758
 C143 C 0.01313 0.25816 0.10790
 N144 N 0.00909 0.22999 0.10423
 N145 N 0.03089 0.21204 0.10478
 C146 C 0.05756 0.22169 0.10874
 N147 N 0.06161 0.24993 0.11200
 N148 N 0.03980 0.26782 0.11173
 C149 C 0.08183 0.20212 0.10954
 C150 C 0.07915 0.17246 0.11519
 H151 H -0.03136 0.27021 0.09909
 H152 H 0.10245 0.21140 0.10752
 H153 H 0.01115 0.31029 0.12978
 H154 H 0.05888 0.16364 0.12044
 C155 C 0.52535 0.74300 0.60893
 C156 C 0.50673 0.74627 0.63150
 C157 C 0.48505 0.76900 0.62796
 N158 N 0.47048 0.77457 0.65225
 N159 N 0.45055 0.79486 0.64922
 C160 C 0.44436 0.81020 0.62172
 N161 N 0.45883 0.80452 0.59741
 N162 N 0.47886 0.78436 0.60048
 C163 C 0.42194 0.83213 0.61773
 C164 C 0.40964 0.84238 0.64252
 H165 H 0.50833 0.73218 0.65261
 H166 H 0.41551 0.84093 0.59462
 H167 H 0.52481 0.75822 0.58868
 H168 H 0.41814 0.83556 0.66556
 C169 C 1.03591 0.74895 0.37382
 C170 C 1.00763 0.75134 0.36357
 C171 C 0.98852 0.72685 0.36678
 N172 N 0.96034 0.73140 0.36430
 N173 N 0.94276 0.70940 0.36698
 C174 C 0.95273 0.68200 0.37196
 N175 N 0.98090 0.67742 0.37413
 N176 N 0.99849 0.69945 0.37173
 C177 C 0.93357 0.65751 0.37441
 C178 C 0.90551 0.66077 0.38050
 H179 H 0.99883 0.77186 0.35396
 H180 H 0.94204 0.63628 0.37260
 H181 H 1.04376 0.72876 0.38551
 H182 H 0.89799 0.68154 0.38558
 C183 C 0.47090 0.21809 -0.10356
 C184 C 0.49001 0.22477 -0.12578
 C185 C 0.51207 0.24625 -0.12220
 N186 N 0.52675 0.25580 -0.14653
 N187 N 0.54699 0.27505 -0.14362
 C188 C 0.55343 0.28531 -0.11618
 N189 N 0.53889 0.27561 -0.09180
 N190 N 0.51852 0.25650 -0.09476
 C191 C 0.57606 0.30618 -0.11248
 C192 C 0.58779 0.32105 -0.13755
 H193 H 0.48840 0.21449 -0.14684
 H194 H 0.58292 0.31062 -0.08946
 H195 H 0.47136 0.22971 -0.08340
 H196 H 0.57885 0.31854 -0.16042
 C197 C 0.09515 -0.04337 0.27401
 C198 C 0.11531 -0.02211 0.27017
 C199 C 0.11234 0.00168 0.24571
 N200 N 0.13466 0.01864 0.23961
 N201 N 0.13246 0.04024 0.21749
 C202 C 0.10779 0.04579 0.20071
 N203 N 0.08539 0.02898 0.20696
 N204 N 0.08764 0.00724 0.22899
 C205 C 0.10507 0.06982 0.17645
 C206 C 0.12852 0.08409 0.16547
 H207 H 0.13453 -0.02346 0.28476
 H208 H 0.08426 0.07572 0.16651
 H209 H 0.07668 -0.04298 0.25829
 H210 H 0.14925 0.07608 0.17368
 C211 C 0.60540 0.54091 -0.28727
 C212 C 0.62554 0.51901 -0.28144
 C213 C 0.62226 0.49439 -0.25851
 N214 N 0.64456 0.47689 -0.24927
 N215 N 0.64198 0.45447 -0.22855
 C216 C 0.61693 0.44859 -0.21646
 N217 N 0.59455 0.46593 -0.22590
 N218 N 0.59718 0.48848 -0.24648
 C219 C 0.61378 0.42384 -0.19363
 C220 C 0.63696 0.40949 -0.17816
 H221 H 0.64479 0.52017 -0.29320
 H222 H 0.59278 0.41771 -0.18788
 H223 H 0.58701 0.54015 -0.27401
 H224 H 0.65779 0.41765 -0.18195
 C225 C 0.39129 1.03541 0.79014
 C226 C 0.36974 1.01714 0.78181
 C227 C 0.37315 0.99595 0.75968
 N228 N 0.35041 0.98189 0.74878
 N229 N 0.35311 0.96259 0.72877
 C230 C 0.37871 0.95652 0.71905
 N231 N 0.40148 0.97043 0.73012
 N232 N 0.39876 0.98985 0.75001
 C233 C 0.38205 0.93520 0.69703
 C234 C 0.35908 0.92420 0.68085
 H235 H 0.34944 1.01880 0.79116
 H236 H 0.40315 0.92906 0.69252
 H237 H 0.41110 1.03480 0.77952
 H238 H 0.33827 0.93254 0.68355
 C239 C 0.90545 0.47208 0.22535
 C240 C 0.88234 0.48347 0.23797
 C241 C 0.88507 0.50307 0.26216
 N242 N 0.86179 0.51145 0.27517
 N243 N 0.86368 0.52965 0.29667
 C244 C 0.88894 0.54020 0.30595
 N245 N 0.91225 0.53184 0.29292
 N246 N 0.91037 0.51356 0.27145
 C247 C 0.89113 0.56110 0.32892
 C248 C 0.86801 0.56851 0.34451
 H249 H 0.86134 0.47772 0.23014
 H250 H 0.91136 0.57068 0.33353
 H251 H 0.92648 0.47681 0.23410
 H252 H 0.84863 0.55688 0.34128
 C253 C 0.28110 0.11585 -0.02916
 C254 C 0.27384 0.13706 -0.01085
 C255 C 0.25102 0.13294 0.01007
 N256 N 0.24125 0.15545 0.02373
 N257 N 0.22065 0.15186 0.04279
 C258 C 0.20920 0.12557 0.04899
 N259 N 0.21910 0.10307 0.03550
 N260 N 0.23956 0.10669 0.01633
 C261 C 0.18670 0.12094 0.07019
 C262 C 0.17209 0.14345 0.08079
 H263 H 0.28468 0.15737 -0.01228
 H264 H 0.18068 0.09899 0.07654
 H265 H 0.26911 0.09624 -0.02890
 H266 H 0.17632 0.16535 0.07203
 C267 C 0.70998 0.65229 0.52711
 C268 C 0.72744 0.62916 0.52324
 C269 C 0.74939 0.63129 0.50118
 N270 N 0.76319 0.60726 0.49523
 N271 N 0.78306 0.60877 0.47522
 C272 C 0.78994 0.63441 0.46050
 N273 N 0.77628 0.65847 0.46661
 N274 N 0.75632 0.65694 0.48652
 C275 C 0.81190 0.63645 0.43843
 C276 C 0.82358 0.61212 0.42799
 H277 H 0.72451 0.60858 0.53608
 H278 H 0.81816 0.65764 0.42943
 H279 H 0.71211 0.67248 0.51321
 H280 H 0.81529 0.59122 0.43525
 C281 C 0.78313 0.38286 0.04315
 C282 C 0.77647 0.36161 0.02385
 C283 C 0.75294 0.36516 0.00040
 N284 N 0.74423 0.34258 -0.01483
 N285 N 0.72340 0.34580 -0.03665
 C286 C 0.71066 0.37178 -0.04415
 N287 N 0.71946 0.39435 -0.02902
 N288 N 0.74015 0.39109 -0.00709
 C289 C 0.68836 0.37609 -0.06888
 C290 C 0.67499 0.35331 -0.08183
 H291 H 0.78873 0.34193 0.02590
 H292 H 0.68186 0.39794 -0.07661
 H293 H 0.76976 0.40172 0.04224
 H294 H 0.67953 0.33153 -0.07194
 C295 C 0.21881 0.84394 0.46066
 C296 C 0.22980 0.86818 0.47300
 C297 C 0.25220 0.86635 0.49774
 N298 N 0.26038 0.89042 0.51062
 N299 N 0.28037 0.88914 0.53333
 C300 C 0.29297 0.86372 0.54399
 N301 N 0.28490 0.83967 0.53100
 N302 N 0.26486 0.84094 0.50833
 C303 C 0.31497 0.86191 0.56917
 C304 C 0.32207 0.88540 0.58530
 H305 H 0.22126 0.88922 0.46499
 H306 H 0.32497 0.84124 0.57575
 H307 H 0.22694 0.82284 0.46923
 H308 H 0.31025 0.90526 0.57983
   
