data_POSCAR
  _audit_creation_date              2014-09-24
  _audit_creation_method            'ToBaCCo'
  _symmetry_space_group_name_H-M    'P1'
  _symmetry_Int_Tables_number       1
  _symmetry_cell_setting            triclinic
  loop_
  _symmetry_equiv_pos_as_xyz
 x,y,z
_cell_length_a 24.4045
_cell_length_b 24.4448
_cell_length_c 45.5041
_cell_angle_alpha 86.609200
_cell_angle_beta 91.675400
_cell_angle_gamma 120.393100
loop_
  _atom_site_label
  _atom_site_type_symbol
  _atom_site_fract_x
  _atom_site_fract_y
  _atom_site_fract_z
C1 C 0.02475 0.10284 0.54109
 H2 H 0.06833 0.10148 0.54051
 C3 C 0.02115 0.14643 0.55813
 H4 H 0.06194 0.17858 0.57088
 C5 C -0.08095 0.06403 0.52429
 H6 H -0.11997 0.03271 0.51054
 C7 C -0.08653 0.10717 0.54106
 H8 H -0.13013 0.10872 0.54044
 N9 N -0.02577 0.06283 0.52463
 C10 C 0.01451 -0.08727 0.50900
 H11 H 0.01825 -0.08309 0.48524
 C12 C 0.01628 -0.13727 0.52465
 H13 H 0.02215 -0.17133 0.51297
 C14 C -0.00196 -0.05054 0.55315
 H15 H -0.01148 -0.01817 0.56407
 C16 C -0.00047 -0.09982 0.56962
 H17 H -0.00780 -0.10458 0.59322
 Zn18 Zn -0.01089 0.01183 0.50025
 N19 N 0.00491 -0.04554 0.52336
 C20 C 0.11529 0.06899 0.47696
 N21 N 0.05939 0.06880 0.47648
 C22 C 0.05258 0.11371 0.46041
 C23 C 0.10317 0.16140 0.44391
 C24 C 0.16733 0.11611 0.46072
 C25 C -0.13582 -0.08406 0.49046
 C26 C -0.18591 -0.13016 0.47437
 C27 C -0.12472 -0.08109 0.42984
 C28 C -0.07579 -0.03597 0.44678
 N29 N -0.08186 -0.03873 0.47656
 H30 H 0.12002 0.03366 0.49041
 H31 H 0.00789 0.11294 0.46087
 H32 H 0.09742 0.19732 0.43144
 H33 H 0.21201 0.11667 0.46142
 H34 H -0.13869 -0.08605 0.51421
 H35 H -0.22778 -0.16726 0.48582
 H36 H -0.11840 -0.07962 0.40626
 H37 H -0.03188 -0.00082 0.43624
 C38 C 0.00774 -0.14410 0.55518
 C39 C -0.03476 0.14897 0.55797
 C40 C -0.17984 -0.12934 0.44381
 C41 C 0.16116 0.16290 0.44420
 C42 C 1.12549 0.05402 0.12507
 H43 H 1.12452 0.09779 0.12501
 C44 C 1.17078 0.05094 0.10841
 H45 H 1.20467 0.09234 0.09531
 C46 C 1.08372 -0.05285 0.14303
 H47 H 1.05049 -0.09260 0.15704
 C48 C 1.12847 -0.05793 0.12666
 H49 H 1.12935 -0.10187 0.12785
 N50 N 1.08316 0.00264 0.14190
 C51 C 0.93085 0.04191 0.15543
 H52 H 0.93212 0.04412 0.17913
 C53 C 0.88236 0.04413 0.13931
 H54 H 0.84655 0.04884 0.15056
 C55 C 0.97324 0.02853 0.11195
 H56 H 1.00717 0.01994 0.10151
 C57 C 0.92556 0.03054 0.09502
 H58 H 0.92359 0.02451 0.07154
 Zn59 Zn 1.02921 0.01615 0.16551
 N60 N 0.97459 0.03352 0.14164
 C61 C 1.08312 0.14029 0.18794
 N62 N 1.08328 0.08460 0.18883
 C63 C 1.12630 0.07652 0.20532
 C64 C 1.17148 0.12547 0.22191
 C65 C 1.12776 0.19071 0.20426
 C66 C 0.93184 -0.10928 0.17625
 C67 C 0.88400 -0.16049 0.19270
 C68 C 0.92804 -0.10244 0.23668
 C69 C 0.97503 -0.05229 0.21943
 N70 N 0.97565 -0.05631 0.18974
 H71 H 1.04933 0.14606 0.17420
 H72 H 1.12586 0.03206 0.20521
 H73 H 1.20584 0.11868 0.23478
 H74 H 1.12800 0.23521 0.20330
 H75 H 0.93249 -0.11054 0.15254
 H76 H 0.84807 -0.20166 0.18169
 H77 H 0.92661 -0.09806 0.26017
 H78 H 1.00898 -0.00914 0.22964
 C79 C 0.87914 0.03733 0.10890
 C80 C 1.17257 -0.00535 0.10934
 C81 C 0.88152 -0.15652 0.22312
 C82 C 1.17247 0.18316 0.22128
 C83 C 0.04992 0.93604 0.87408
 H84 H 0.00484 0.89210 0.87353
 C85 C 0.09990 0.93845 0.89070
 H86 H 0.09329 0.89637 0.90316
 C87 C 0.11427 1.04399 0.85762
 H88 H 0.11987 1.08442 0.84415
 C89 C 0.16572 1.04842 0.87397
 H90 H 0.21085 1.09254 0.87333
 N91 N 0.05785 0.98824 0.85798
 C92 C -0.13621 0.94669 0.84325
 H93 H -0.13872 0.94573 0.81949
 C94 C -0.18612 0.94321 0.85912
 H95 H -0.22753 0.93874 0.84755
 C96 C -0.07714 0.95851 0.88714
 H97 H -0.03361 0.96711 0.89785
 C98 C -0.12592 0.95520 0.90385
 H99 H -0.12003 0.96022 0.92743
 Zn100 Zn -0.01162 0.97539 0.83395
 N101 N -0.08278 0.95506 0.85736
 C102 C -0.08229 0.85269 0.80969
 N103 N -0.02680 0.90934 0.80954
 C104 C 0.02389 0.92000 0.79328
 C105 C 0.02017 0.87270 0.77626
 C106 C -0.08799 0.80382 0.79293
 C107 C 0.01544 1.10071 0.82525
 C108 C 0.01767 1.15273 0.80962
 C109 C 0.00084 1.09847 0.76462
 C110 C -0.00113 1.04743 0.78107
 N111 N 0.00550 1.04919 0.81087
 H112 H -0.12145 0.84486 0.82328
 H113 H 0.06770 0.96515 0.79401
 H114 H 0.06111 0.88146 0.76369
 H115 H -0.13183 0.75845 0.79341
 H116 H 0.01895 1.10015 0.84901
 H117 H 0.02369 1.19276 0.82131
 H118 H -0.00643 1.09592 0.74102
 H119 H -0.01096 1.00537 0.77014
 C120 C -0.18039 0.94870 0.88965
 C121 C 0.15843 0.99494 0.89049
 C122 C 0.00927 1.15109 0.77908
 C123 C -0.03603 0.81396 0.77624
 C124 C 0.45698 -0.00999 -0.01644
 C125 C 0.46148 -0.00491 0.01446
 C126 C 0.51440 -0.00106 0.02929
 C127 C 0.56231 -0.00354 0.01416
 C128 C 0.55623 -0.01181 -0.01654
 C129 C 0.50402 -0.01413 -0.03146
 H130 H 0.49996 -0.01915 -0.05508
 H131 H 0.51840 0.00402 0.05289
 C132 C -0.02737 0.43652 0.65216
 C133 C -0.02572 0.43502 0.68330
 C134 C -0.02691 0.48334 0.69793
 C135 C -0.02764 0.53414 0.68227
 C136 C -0.02607 0.53727 0.65113
 C137 C -0.02698 0.48789 0.63650
 H138 H -0.02678 0.48976 0.61263
 H139 H -0.02665 0.48170 0.72181
 C140 C 0.56491 0.56677 0.31905
 C141 C 0.55725 0.57027 0.34948
 C142 C 0.50395 0.52079 0.36426
 C143 C 0.45766 0.46850 0.34933
 C144 C 0.46305 0.46736 0.31852
 C145 C 0.51737 0.51566 0.30393
 H146 H 0.52190 0.51451 0.28037
 H147 H 0.49958 0.52207 0.38782
 C148 C -0.03456 0.28730 0.60406
 C149 C -0.08272 0.30231 0.60068
 C150 C -0.07989 0.35136 0.61619
 C151 C -0.03727 0.19630 0.57428
 C152 C 0.01961 0.37095 0.63835
 C153 C 0.01669 0.32183 0.62285
 C154 C -0.03693 0.23731 0.58789
 C155 C -0.02900 0.38567 0.63533
 H156 H -0.12241 0.27610 0.58610
 H157 H -0.11776 0.36212 0.61356
 H158 H 0.05963 0.39739 0.65272
 H159 H 0.05443 0.31087 0.62547
 C160 C 0.72885 0.70763 0.27052
 C161 C 0.71219 0.64373 0.27126
 C162 C 0.65862 0.59801 0.28700
 C163 C 0.82869 0.79459 0.24000
 C164 C 0.63790 0.67989 0.30125
 C165 C 0.69156 0.72561 0.28552
 C166 C 0.78351 0.75464 0.25400
 C167 C 0.62130 0.61576 0.30228
 H168 H 0.74055 0.62927 0.25965
 H169 H 0.64652 0.54877 0.28750
 H170 H 0.60926 0.69442 0.31254
 H171 H 0.70383 0.77490 0.28495
 C172 C 0.30514 -0.00628 -0.06465
 C173 C 0.29147 -0.05445 -0.04288
 C174 C 0.34082 -0.05663 -0.02749
 C175 C 0.21107 -0.00341 -0.09364
 C176 C 0.41773 0.03719 -0.05581
 C177 C 0.36836 0.03928 -0.07121
 C178 C 0.25427 -0.00406 -0.08041
 C179 C 0.40431 -0.01033 -0.03361
 H180 H 0.24271 -0.09018 -0.03777
 H181 H 0.32956 -0.09402 -0.01066
 H182 H 0.46641 0.07331 -0.06082
 H183 H 0.37947 0.07657 -0.08809
 C184 C -0.00916 0.69947 0.60111
 C185 C -0.06142 0.66344 0.61979
 C186 C -0.06786 0.60981 0.63575
 C187 C 0.00316 0.80138 0.57139
 C188 C 0.02992 0.62776 0.61415
 C189 C 0.03625 0.68128 0.59819
 C190 C -0.00212 0.75507 0.58495
 C191 C -0.02178 0.59203 0.63330
 H192 H -0.09700 0.67695 0.62210
 H193 H -0.10840 0.58249 0.65017
 H194 H 0.06596 0.61482 0.61200
 H195 H 0.07676 0.70869 0.58374
 C196 C 0.31282 0.32522 0.26765
 C197 C 0.37506 0.33735 0.26487
 C198 C 0.42410 0.38375 0.28134
 C199 C 0.22069 0.23453 0.23748
 C200 C 0.34877 0.40627 0.30331
 C201 C 0.29980 0.35985 0.28686
 C202 C 0.26229 0.27638 0.25117
 C203 C 0.41125 0.41822 0.30090
 H204 H 0.38561 0.31071 0.25010
 H205 H 0.47188 0.39223 0.27913
 H206 H 0.33798 0.43300 0.31791
 H207 H 0.25184 0.35089 0.28915
 C208 C 0.69115 -0.03409 -0.06514
 C209 C 0.71135 0.02106 -0.04984
 C210 C 0.66750 0.02892 -0.03422
 C211 C 0.77489 -0.04733 -0.09489
 C212 C 0.58302 -0.07341 -0.04928
 C213 C 0.62687 -0.08117 -0.06491
 C214 C 0.73634 -0.04195 -0.08129
 C215 C 0.60306 -0.01858 -0.03361
 H216 H 0.76095 0.05796 -0.05001
 H217 H 0.68376 0.07188 -0.02258
 H218 H 0.53352 -0.11053 -0.04907
 H219 H 0.61070 -0.12391 -0.07675
 C220 C 0.31336 -0.00644 0.06359
 C221 C 0.33044 -0.05258 0.06991
 C222 C 0.37944 -0.05129 0.05417
 C223 C 0.22109 -0.00776 0.09323
 C224 C 0.39505 0.04285 0.02596
 C225 C 0.34597 0.04147 0.04170
 C226 C 0.26283 -0.00780 0.07973
 C227 C 0.41162 -0.00399 0.03186
 H228 H 0.30571 -0.08968 0.08688
 H229 H 0.39159 -0.08779 0.05901
 H230 H 0.41979 0.08009 0.00906
 H231 H 0.33338 0.07763 0.03676
 C232 C 0.69270 0.72770 0.39849
 C233 C 0.62883 0.71134 0.39768
 C234 C 0.58479 0.65975 0.38186
 C235 C 0.77695 0.82420 0.42874
 C236 C 0.66827 0.64033 0.36777
 C237 C 0.71229 0.69199 0.38357
 C238 C 0.73810 0.78053 0.41491
 C239 C 0.60425 0.62418 0.36658
 H240 H 0.61311 0.73848 0.40923
 H241 H 0.53560 0.64795 0.38124
 H242 H 0.68406 0.61298 0.35648
 H243 H 0.76155 0.70401 0.38420
 C244 C -0.00790 0.29037 0.73324
 C245 C 0.03729 0.35450 0.73613
 C246 C 0.03066 0.40147 0.72020
 C247 C 0.00475 0.20105 0.76291
 C248 C -0.06699 0.32035 0.69871
 C249 C -0.06025 0.27338 0.71463
 C250 C -0.00062 0.24201 0.74938
 C251 C -0.02113 0.38475 0.70111
 H252 H 0.07785 0.36818 0.75052
 H253 H 0.06654 0.45088 0.72232
 H254 H -0.10759 0.30654 0.68434
 H255 H -0.09568 0.22387 0.71235
 C256 C 0.72551 0.01893 0.06245
 C257 C 0.68818 -0.03619 0.04713
 C258 C 0.63458 -0.04408 0.03156
 C259 C 0.82586 0.03255 0.09236
 C260 C 0.65541 0.05818 0.04670
 C261 C 0.70889 0.06597 0.06227
 C262 C 0.78038 0.02683 0.07865
 C263 C 0.61813 0.00334 0.03103
 H264 H 0.70044 -0.07305 0.04726
 H265 H 0.60601 -0.08703 0.01991
 H266 H 0.64344 0.09525 0.04656
 H267 H 0.73729 0.10868 0.07413
 C268 C 0.30879 0.31068 0.39892
 C269 C 0.32001 0.37220 0.40204
 C270 C 0.36865 0.42373 0.38602
 C271 C 0.21432 0.21382 0.42831
 C272 C 0.39524 0.35233 0.36384
 C273 C 0.34660 0.30089 0.37984
 C274 C 0.25782 0.25762 0.41495
 C275 C 0.40629 0.41413 0.36657
 H276 H 0.29095 0.38027 0.41673
 H277 H 0.37639 0.47093 0.38848
 H278 H 0.42436 0.34399 0.34933
 H279 H 0.33842 0.25354 0.37729
 C280 C -0.03561 0.67579 0.73028
 C281 C 0.01568 0.69321 0.71145
 C282 C 0.01887 0.64714 0.69600
 C283 C -0.03863 0.76398 0.75998
 C284 C -0.08045 0.56594 0.71827
 C285 C -0.08354 0.61204 0.73374
 C286 C -0.03821 0.72331 0.74641
 C287 C -0.02953 0.58322 0.69909
 H288 H 0.05326 0.74237 0.70877
 H289 H 0.05891 0.66127 0.68160
 H290 H -0.11815 0.51685 0.72096
 H291 H -0.12326 0.59801 0.74836
   
