data_POSCAR
  _audit_creation_date              2014-09-24
  _audit_creation_method            'ToBaCCo'
  _symmetry_space_group_name_H-M    'P1'
  _symmetry_Int_Tables_number       1
  _symmetry_cell_setting            triclinic
  loop_
  _symmetry_equiv_pos_as_xyz
 x,y,z
_cell_length_a 34.7778
_cell_length_b 34.8187
_cell_length_c 35.1077
_cell_angle_alpha 88.556000
_cell_angle_beta 89.127500
_cell_angle_gamma 89.455400
loop_
  _atom_site_label
  _atom_site_type_symbol
  _atom_site_fract_x
  _atom_site_fract_y
  _atom_site_fract_z
Si1 Si 0.73128 0.62170 0.99139
 Si2 Si 0.77222 0.38245 0.50239
 Si3 Si 0.23018 -0.12993 0.00593
 Si4 Si 0.27144 0.11196 0.49521
 Si5 Si 0.11685 0.50409 0.24373
 Si6 Si -0.12808 0.00480 0.26633
 Si7 Si 0.37434 0.49701 0.73304
 Si8 Si 0.61770 1.00200 0.76849
 Si9 Si 0.00123 0.24998 -0.11614
 Si10 Si 0.49276 0.25211 0.12166
 Si11 Si 1.00810 0.75966 0.62211
 Si12 Si 0.51408 0.74376 0.37516
 C13 C 0.43877 -0.04948 0.28404
 H14 H 0.43910 -0.02273 0.29903
 C15 C 0.45971 -0.08108 0.29807
 H16 H 0.47601 -0.07803 0.32381
 C17 C 0.41370 -0.08675 0.23485
 H18 H 0.39487 -0.08929 0.21089
 C19 C 0.43453 -0.11893 0.24762
 H20 H 0.43207 -0.14556 0.23263
 N21 N 0.41535 -0.05314 0.25370
 C22 C 0.38188 0.05880 0.20556
 H23 H 0.35232 0.05199 0.19973
 C24 C 0.39666 0.09396 0.19287
 H25 H 0.37825 0.11388 0.17731
 C26 C 0.44210 0.04016 0.23104
 H27 H 0.45973 0.01908 0.24582
 C28 C 0.45821 0.07508 0.21857
 H29 H 0.48817 0.08062 0.22411
 Zn30 Zn 0.37964 -0.01308 0.24164
 N31 N 0.40436 0.03289 0.22473
 C32 C 0.32783 0.03032 0.28584
 N33 N 0.34950 -0.00237 0.28589
 C34 C 0.35219 -0.02516 0.31787
 C35 C 0.33501 -0.01384 0.35211
 C36 C 0.31027 0.04271 0.31935
 C37 C 0.36385 -0.02885 0.16620
 C38 C 0.34262 -0.04112 0.13551
 C39 C 0.28902 -0.05325 0.17867
 C40 C 0.31121 -0.04030 0.20857
 N41 N 0.34801 -0.02885 0.20184
 H42 H 0.32540 0.04780 0.26020
 H43 H 0.36846 -0.05171 0.31723
 H44 H 0.33835 -0.03184 0.37747
 H45 H 0.29511 0.07001 0.31890
 H46 H 0.39326 -0.01971 0.16178
 H47 H 0.35601 -0.04174 0.10748
 H48 H 0.25991 -0.06276 0.18442
 H49 H 0.29933 -0.04004 0.23721
 C50 C 0.43524 0.10263 0.19947
 C51 C 0.45691 -0.11678 0.28047
 C52 C 0.30483 -0.05388 0.14161
 C53 C 0.31460 0.02109 0.35337
 C54 C 0.07236 1.04186 0.79265
 H55 H 0.06878 1.01331 0.80496
 C56 C 0.05215 1.07266 0.80820
 H57 H 0.03212 1.06718 0.83157
 C58 C 0.10467 1.08383 0.74900
 H59 H 0.12624 1.08830 0.72692
 C60 C 0.08527 1.11554 0.76395
 H61 H 0.09221 1.14403 0.75303
 N62 N 0.09854 1.04793 0.76401
 C63 C 0.12545 0.93672 0.71545
 H64 H 0.15581 0.94139 0.71060
 C65 C 0.10872 0.90377 0.70177
 H66 H 0.12659 0.88326 0.68681
 C67 C 0.06502 0.95948 0.73772
 H68 H 0.04790 0.98156 0.75099
 C69 C 0.04696 0.92679 0.72431
 H70 H 0.01617 0.92380 0.72805
 Zn71 Zn 0.13162 1.00667 0.74992
 N72 N 0.10379 0.96350 0.73366
 C73 C 0.18260 0.95881 0.79294
 N74 N 0.16159 0.99198 0.79303
 C75 C 0.15864 1.01327 0.82498
 C76 C 0.17446 0.99986 0.85917
 C77 C 0.19902 0.94442 0.82648
 C78 C 0.14364 1.03023 0.67534
 C79 C 0.16371 1.03963 0.64186
 C80 C 0.22324 1.03134 0.67589
 C81 C 0.20188 1.02223 0.70896
 N82 N 0.16281 1.02193 0.70798
 H83 H 0.18536 0.94250 0.76735
 H84 H 0.14294 1.04016 0.82446
 H85 H 0.17061 1.01656 0.88457
 H86 H 0.21372 0.91687 0.82622
 H87 H 0.11254 1.02941 0.67543
 H88 H 0.14765 1.04705 0.61651
 H89 H 0.25433 1.03109 0.67697
 H90 H 0.21645 1.01498 0.73520
 C91 C 0.06902 0.89830 0.70630
 C92 C 0.05940 1.11028 0.79471
 C93 C 0.20409 1.04009 0.64168
 C94 C 0.19390 0.96439 0.86046
 C95 C 0.58237 0.52656 0.30257
 H96 H 0.58260 0.49965 0.31866
 C97 C 0.56582 0.55933 0.31843
 H98 H 0.55266 0.55724 0.34655
 C99 C 0.60070 0.56232 0.24700
 H100 H 0.61531 0.56367 0.21964
 C101 C 0.58436 0.59571 0.26169
 H102 H 0.58664 0.62243 0.24539
 N103 N 0.59997 0.52879 0.26777
 C104 C 0.61710 0.41421 0.22316
 H105 H 0.64793 0.41575 0.21886
 C106 C 0.59733 0.38219 0.21140
 H107 H 0.61320 0.35940 0.19758
 C108 C 0.55910 0.44339 0.24458
 H109 H 0.54445 0.46761 0.25711
 C110 C 0.53799 0.41178 0.23290
 H111 H 0.50705 0.41176 0.23677
 Zn112 Zn 0.62926 0.48620 0.25116
 N113 N 0.59796 0.44393 0.23946
 C114 C 0.65934 0.43534 0.30645
 N115 N 0.66285 0.47146 0.29124
 C116 C 0.68659 0.49741 0.30698
 C117 C 0.70832 0.48707 0.33905
 C118 C 0.68050 0.42384 0.33806
 C119 C 0.63365 0.49840 0.17372
 C120 C 0.64755 0.51176 0.13856
 C121 C 0.70695 0.52860 0.16847
 C122 C 0.69197 0.51433 0.20330
 N123 N 0.65553 0.50042 0.20533
 H124 H 0.63922 0.41551 0.29496
 H125 H 0.68792 0.52640 0.29525
 H126 H 0.72704 0.50793 0.35136
 H127 H 0.67650 0.39514 0.34998
 H128 H 0.60467 0.48753 0.17604
 H129 H 0.62924 0.51032 0.11397
 H130 H 0.73521 0.54140 0.16755
 H131 H 0.70886 0.51579 0.22879
 C132 C 0.55722 0.38067 0.21597
 C133 C 0.56746 0.59469 0.29825
 C134 C 0.68412 0.52833 0.13575
 C135 C 0.70545 0.44971 0.35481
 C136 C 0.91873 0.46213 0.81032
 H137 H 0.90463 0.48289 0.82827
 C138 C 0.93498 0.42917 0.82693
 H139 H 0.93321 0.42490 0.85757
 C140 C 0.93756 0.44198 0.74880
 H141 H 0.93780 0.44656 0.71831
 C142 C 0.95446 0.40856 0.76432
 H143 H 0.96738 0.38768 0.74558
 N144 N 0.91905 0.46736 0.77180
 C145 C 0.89715 0.57861 0.71680
 H146 H 0.86666 0.57500 0.71258
 C147 C 0.91487 0.61243 0.70467
 H148 H 0.89797 0.63458 0.69036
 C149 C 0.95611 0.55357 0.74033
 H150 H 0.97175 0.53050 0.75455
 C151 C 0.97526 0.58701 0.72806
 H152 H 1.00583 0.58959 0.73268
 Zn153 Zn 0.88802 0.50807 0.75160
 N154 N 0.91767 0.55033 0.73475
 C155 C 0.85829 0.56110 0.80364
 N156 N 0.85370 0.52490 0.79085
 C157 C 0.82773 0.50061 0.80778
 C158 C 0.80468 0.51284 0.83835
 C159 C 0.83593 0.57443 0.83378
 C160 C 0.88292 0.48705 0.67609
 C161 C 0.86622 0.47488 0.64267
 C162 C 0.80466 0.47366 0.67540
 C163 C 0.82263 0.48588 0.70831
 N164 N 0.86130 0.49145 0.70831
 H165 H 0.88009 0.57959 0.79131
 H166 H 0.82541 0.47152 0.79803
 H167 H 0.78406 0.49330 0.85145
 H168 H 0.84077 0.60313 0.84377
 H169 H 0.91335 0.49308 0.67631
 H170 H 0.88438 0.47031 0.61785
 H171 H 0.77392 0.46900 0.67601
 H172 H 0.80561 0.49075 0.73372
 C173 C 0.95431 0.61710 0.71047
 C174 C 0.95199 0.40130 0.80375
 C175 C 0.82663 0.46756 0.64209
 C176 C 0.80857 0.55035 0.85151
 C177 C 0.28396 0.44822 -0.05084
 H178 H 0.29390 0.45862 -0.02397
 C179 C 0.29744 0.46498 -0.08516
 H180 H 0.31771 0.48838 -0.08462
 C181 C 0.24818 0.40290 -0.08461
 H182 H 0.23025 0.37774 -0.08443
 C183 C 0.26136 0.41834 -0.11934
 H184 H 0.25301 0.40526 -0.14561
 N185 N 0.25990 0.41760 -0.05121
 C186 C 0.22545 0.39851 0.06776
 H187 H 0.23025 0.36776 0.06783
 C188 C 0.21236 0.41597 0.10074
 H189 H 0.20672 0.39830 0.12599
 C190 C 0.22537 0.45824 0.03382
 H191 H 0.22991 0.47433 0.00743
 C192 C 0.21179 0.47698 0.06634
 H193 H 0.20631 0.50764 0.06490
 Zn194 Zn 0.24746 0.38908 -0.00600
 N195 N 0.23184 0.41963 0.03526
 C196 C 0.31419 0.37716 0.03562
 N197 N 0.29224 0.36100 0.00868
 C198 C 0.30333 0.32765 -0.00793
 C199 C 0.33631 0.30790 0.00451
 C200 C 0.34772 0.35898 0.04812
 C201 C 0.17305 0.37806 -0.02737
 C202 C 0.13966 0.35924 -0.03739
 C203 C 0.17054 0.29875 -0.02098
 C204 C 0.20345 0.31886 -0.01105
 N205 N 0.20444 0.35778 -0.01551
 H206 H 0.30577 0.40440 0.04742
 H207 H 0.28658 0.31625 -0.03066
 H208 H 0.34442 0.28088 -0.00810
 H209 H 0.36447 0.37197 0.07007
 H210 H 0.17444 0.40904 -0.03009
 H211 H 0.11571 0.37599 -0.04838
 H212 H 0.17036 0.26773 -0.01801
 H213 H 0.22800 0.30329 -0.00000
 C214 C 0.20517 0.45566 0.10036
 C215 C 0.28681 0.44927 -0.11984
 C216 C 0.13829 0.31900 -0.03491
 C217 C 0.35878 0.32368 0.03295
 C218 C 0.78998 0.06600 1.05155
 H219 H 0.80413 0.06275 1.02414
 C220 C 0.80458 0.04694 1.08372
 H221 H 0.82984 0.02877 1.08082
 C222 C 0.74073 0.09472 1.08878
 H223 H 0.71583 0.11330 1.09077
 C224 C 0.75423 0.07602 1.12170
 H225 H 0.74011 0.08124 1.14880
 N226 N 0.75995 0.09103 1.05496
 C227 C 0.75391 0.09279 0.93658
 H228 H 0.77905 0.11048 0.93277
 C229 C 0.73911 0.07421 0.90525
 H230 H 0.75270 0.07844 0.87753
 C231 C 0.70464 0.06714 0.97674
 H232 H 0.69087 0.06532 1.00456
 C233 C 0.68889 0.04811 0.94625
 H234 H 0.66325 0.03113 0.95097
 Zn235 Zn 0.74845 0.12262 1.01157
 N236 N 0.73546 0.09041 0.97102
 C237 C 0.78805 0.17746 0.96697
 N238 N 0.79174 0.15293 0.99745
 C239 C 0.82582 0.14893 1.01579
 C240 C 0.85873 0.16722 1.00136
 C241 C 0.82015 0.19637 0.95165
 C242 C 0.67509 0.15600 0.99854
 C243 C 0.64204 0.17703 1.00778
 C244 C 0.67429 0.20003 1.06305
 C245 C 0.70700 0.17908 1.05232
 N246 N 0.70615 0.15605 1.02166
 H247 H 0.76044 0.18086 0.95344
 H248 H 0.82805 0.13057 1.04087
 H249 H 0.88601 0.16186 1.01505
 H250 H 0.81686 0.21473 0.92654
 H251 H 0.67551 0.13916 0.97315
 H252 H 0.61750 0.17592 0.98926
 H253 H 0.67485 0.21584 1.08918
 H254 H 0.73245 0.17958 1.06963
 C255 C 0.70527 0.05280 0.90961
 C256 C 0.78757 0.05312 1.11961
 C257 C 0.64073 0.19828 1.04126
 C258 C 0.85637 0.19023 0.96807
 C259 C 0.28723 0.56586 0.52222
 H260 H 0.30033 0.56230 0.49437
 C261 C 0.30094 0.54442 0.55334
 H262 H 0.32384 0.52370 0.54878
 C263 C 0.24259 0.59821 0.56192
 H264 H 0.22015 0.61949 0.56541
 C265 C 0.25588 0.57781 0.59398
 H266 H 0.24385 0.58438 0.62170
 N267 N 0.25958 0.59325 0.52717
 C268 C 0.22782 0.62216 0.40908
 H269 H 0.22987 0.65298 0.40879
 C270 C 0.21438 0.60437 0.37682
 H271 H 0.20674 0.62201 0.35221
 C272 C 0.23094 0.56251 0.44272
 H273 H 0.23619 0.54629 0.46875
 C274 C 0.21769 0.54345 0.41093
 H275 H 0.21385 0.51264 0.41276
 Zn276 Zn 0.24949 0.62846 0.48579
 N277 N 0.23563 0.60131 0.44139
 C278 C 0.29509 0.68597 0.44789
 N279 N 0.29479 0.65809 0.47578
 C280 C 0.32701 0.65015 0.49620
 C281 C 0.36183 0.66765 0.48648
 C282 C 0.32942 0.70400 0.43698
 C283 C 0.17364 0.65784 0.48228
 C284 C 0.14172 0.67880 0.49478
 C285 C 0.18153 0.70759 0.54185
 C286 C 0.21296 0.68677 0.52775
 N287 N 0.20822 0.66153 0.49934
 H288 H 0.26895 0.69387 0.43348
 H289 H 0.32621 0.62967 0.51972
 H290 H 0.38724 0.66005 0.50255
 H291 H 0.32932 0.72438 0.41318
 H292 H 0.17024 0.63755 0.45987
 H293 H 0.11453 0.67503 0.48084
 H294 H 0.18560 0.72544 0.56621
 H295 H 0.24078 0.68915 0.54084
 C296 C 0.20870 0.56452 0.37753
 C297 C 0.28655 0.55157 0.59017
 C298 C 0.14497 0.70308 0.52592
 C299 C 0.36370 0.69392 0.45556
 C300 C 0.79236 0.93749 0.48252
 H301 H 0.80774 0.93534 0.50905
 C302 C 0.80806 0.95842 0.45171
 H303 H 0.83526 0.97279 0.45488
 C304 C 0.74001 0.91865 0.44501
 H305 H 0.71428 0.90195 0.44199
 C306 C 0.75444 0.93965 0.41362
 H307 H 0.73967 0.93881 0.38672
 N308 N 0.75963 0.91704 0.47828
 C309 C 0.70843 0.88289 0.58786
 H310 H 0.70192 0.85340 0.58168
 C311 C 0.69516 0.89854 0.62184
 H312 H 0.67814 0.88091 0.64140
 C313 C 0.73674 0.94205 0.56873
 H314 H 0.75275 0.95898 0.54789
 C315 C 0.72404 0.95888 0.60247
 H316 H 0.73077 0.98864 0.60732
 Zn317 Zn 0.74561 0.88042 0.51691
 N318 N 0.72897 0.90459 0.56218
 C319 C 0.79156 0.83021 0.56189
 N320 N 0.78928 0.84893 0.52754
 C321 C 0.81905 0.84787 0.50193
 C322 C 0.85358 0.82942 0.51142
 C323 C 0.82541 0.81125 0.57245
 C324 C 0.66905 0.86612 0.49908
 C325 C 0.63858 0.84643 0.48341
 C326 C 0.68250 0.79445 0.46877
 C327 C 0.71212 0.81502 0.48504
 N328 N 0.70498 0.85039 0.49923
 H329 H 0.76766 0.83110 0.58180
 H330 H 0.81644 0.86215 0.47439
 H331 H 0.87731 0.82972 0.49108
 H332 H 0.82716 0.79807 0.60065
 H333 H 0.66433 0.89447 0.51027
 H334 H 0.61043 0.85995 0.48242
 H335 H 0.68870 0.76661 0.45692
 H336 H 0.74100 0.80326 0.48534
 C337 C 0.70288 0.93705 0.62956
 C338 C 0.78963 0.95860 0.41641
 C339 C 0.64526 0.81039 0.46741
 C340 C 0.85732 0.81150 0.54743
 C341 C -0.01382 0.29784 0.43167
 H342 H 0.01315 0.31251 0.42670
 C343 C -0.04349 0.31578 0.45195
 H344 H -0.03912 0.34420 0.46288
 C345 C -0.05339 0.24422 0.42102
 H346 H -0.05775 0.21703 0.40772
 C347 C -0.08362 0.26086 0.44160
 H348 H -0.11095 0.24627 0.44386
 N349 N -0.01958 0.26316 0.41583
 C350 C 0.08884 0.20850 0.38427
 H351 H 0.08291 0.20343 0.35466
 C352 C 0.12305 0.19507 0.40002
 H353 H 0.14321 0.17920 0.38246
 C354 C 0.06894 0.23430 0.44332
 H355 H 0.04763 0.24952 0.45999
 C356 C 0.10276 0.22093 0.46042
 H357 H 0.10738 0.22603 0.49030
 Zn358 Zn 0.01797 0.24519 0.38077
 N359 N 0.06288 0.22814 0.40578
 C360 C 0.06765 0.29451 0.33834
 N361 N 0.03017 0.28666 0.34664
 C362 C 0.00142 0.31036 0.33405
 C363 C 0.01007 0.34404 0.31314
 C364 C 0.07747 0.32728 0.31696
 C365 C -0.00518 0.16937 0.37494
 C366 C -0.02046 0.13714 0.35814
 C367 C -0.02657 0.17411 0.29932
 C368 C -0.01110 0.20571 0.31730
 N369 N -0.00145 0.20293 0.35465
 H370 H 0.09026 0.27606 0.34911
 H371 H -0.02814 0.30382 0.34147
 H372 H -0.01293 0.36321 0.30412
 H373 H 0.10755 0.33345 0.31151
 H374 H 0.00302 0.16795 0.40455
 H375 H -0.02453 0.11117 0.37529
 H376 H -0.03459 0.17689 0.26969
 H377 H -0.00738 0.23258 0.30163
 C378 C 0.13038 0.20128 0.43853
 C379 C -0.07922 0.29762 0.45623
 C380 C -0.03188 0.13936 0.31996
 C381 C 0.04860 0.35282 0.30460
 C382 C 1.01010 0.79987 0.07704
 H383 H 0.98294 0.81527 0.07649
 C384 C 1.04247 0.81559 0.05861
 H385 H 1.03989 0.84289 0.04336
 C386 C 1.04703 0.74654 0.09919
 H387 H 1.04930 0.72041 0.11619
 C388 C 1.07990 0.76099 0.08093
 H389 H 1.10692 0.74560 0.08405
 N390 N 1.01304 0.76616 0.09726
 C391 C 0.89933 0.71775 0.11943
 H392 H 0.90177 0.71381 0.14997
 C393 C 0.86685 0.70474 0.10117
 H394 H 0.84468 0.69024 0.11788
 C395 C 0.92646 0.73997 0.06068
 H396 H 0.94997 0.75346 0.04512
 C397 C 0.89435 0.72727 0.04115
 H398 H 0.89329 0.73137 0.01051
 Zn399 Zn 0.97083 0.74962 0.12815
 N400 N 0.92823 0.73504 0.09916
 C401 C 0.91983 0.80517 0.15696
 N402 N 0.95628 0.79099 0.15955
 C403 C 0.98278 0.80808 0.18154
 C404 C 0.97278 0.84065 0.20228
 C405 C 0.90862 0.83731 0.17726
 C406 C 0.99160 0.67330 0.13626
 C407 C 1.00600 0.63987 0.15358
 C408 C 1.00591 0.67234 0.21361
 C409 C 0.99156 0.70536 0.19502
 N410 N 0.98578 0.70547 0.15680
 H411 H 0.89947 0.79226 0.13840
 H412 H 1.01185 0.79679 0.18242
 H413 H 0.99410 0.85400 0.21965
 H414 H 0.87963 0.84844 0.17410
 H415 H 0.98651 0.67421 0.10593
 H416 H 1.01242 0.61540 0.13608
 H417 H 1.01120 0.67292 0.24390
 H418 H 0.98606 0.73107 0.21090
 C419 C 0.86404 0.70926 0.06148
 C420 C 1.07809 0.79632 0.06096
 C421 C 1.01416 0.63926 0.19263
 C422 C 0.93516 0.85553 0.20030
 C423 C 0.55546 0.29376 0.55635
 H424 H 0.52733 0.30611 0.55103
 C425 C 0.58799 0.30970 0.53854
 H426 H 0.58462 0.33408 0.51908
 C427 C 0.59423 0.24828 0.58980
 H428 H 0.59678 0.22534 0.61091
 C429 C 0.62747 0.26317 0.57245
 H430 H 0.65523 0.25140 0.58039
 N431 N 0.55920 0.26410 0.58198
 C432 C 0.44532 0.21741 0.60319
 H433 H 0.44620 0.21912 0.63389
 C434 C 0.41301 0.20287 0.58606
 H435 H 0.38937 0.19273 0.60393
 C436 C 0.47595 0.22781 0.54305
 H437 H 0.50066 0.23764 0.52663
 C438 C 0.44395 0.21320 0.52457
 H439 H 0.44413 0.21194 0.49379
 Zn440 Zn 0.51549 0.24949 0.61136
 N441 N 0.47575 0.22984 0.58171
 C442 C 0.46344 0.30967 0.62052
 N443 N 0.49594 0.29399 0.63561
 C444 C 0.51397 0.31095 0.66488
 C445 C 0.49762 0.34345 0.68184
 C446 C 0.44659 0.34215 0.63607
 C447 C 0.53797 0.17553 0.62890
 C448 C 0.54715 0.14286 0.65068
 C449 C 0.53615 0.17928 0.70757
 C450 C 0.52673 0.21133 0.68457
 N451 N 0.52845 0.20900 0.64594
 H452 H 0.45057 0.29729 0.59594
 H453 H 0.54072 0.29903 0.67539
 H454 H 0.51147 0.35574 0.70604
 H455 H 0.42086 0.35401 0.62318
 H456 H 0.53856 0.17436 0.59813
 H457 H 0.55550 0.11677 0.63644
 H458 H 0.53505 0.18150 0.73828
 H459 H 0.51790 0.23777 0.69765
 C460 C 0.41180 0.20085 0.54626
 C461 C 0.62466 0.29497 0.54729
 C462 C 0.54654 0.14451 0.69054
 C463 C 0.46297 0.35897 0.66782
 C464 C 0.42697 0.74829 0.93693
 H465 H 0.45034 0.73435 0.95190
 C466 C 0.39363 0.75881 0.95713
 H467 H 0.39154 0.75245 0.98743
 C468 C 0.40165 0.77517 0.87988
 H469 H 0.40563 0.78329 0.85019
 C470 C 0.36792 0.78595 0.89880
 H471 H 0.34613 0.80191 0.88319
 N472 N 0.43032 0.75649 0.89890
 C473 C 0.55061 0.75162 0.89988
 H474 H 0.55217 0.77782 0.88283
 C475 C 0.58375 0.73750 0.91751
 H476 H 0.61041 0.75303 0.91367
 C477 C 0.51494 0.69807 0.92309
 H478 H 0.48836 0.68216 0.92398
 C479 C 0.54738 0.68293 0.94117
 H480 H 0.54521 0.65579 0.95677
 Zn481 Zn 0.47595 0.74625 0.87012
 N482 N 0.51736 0.73131 0.90204
 C483 C 0.48473 0.82502 0.86375
 N484 N 0.48983 0.79223 0.84402
 C485 C 0.50850 0.79236 0.80968
 C486 C 0.52429 0.82647 0.79464
 C487 C 0.49973 0.85957 0.84973
 C488 C 0.43415 0.70590 0.81526
 C489 C 0.42426 0.67383 0.79461
 C490 C 0.48349 0.64299 0.81399
 C491 C 0.49225 0.67570 0.83430
 N492 N 0.46706 0.70587 0.83568
 H493 H 0.47039 0.82400 0.89129
 H494 H 0.51279 0.76571 0.79495
 H495 H 0.54077 0.82583 0.76825
 H496 H 0.49602 0.88516 0.86635
 H497 H 0.41466 0.73009 0.81606
 H498 H 0.39691 0.67384 0.78030
 H499 H 0.50349 0.61897 0.81401
 H500 H 0.51888 0.67647 0.84966
 C501 C 0.58268 0.70211 0.93746
 C502 C 0.36362 0.77804 0.93799
 C503 C 0.44862 0.64139 0.79455
 C504 C 0.52089 0.86041 0.81537
 C505 C 0.52192 -0.18212 0.33980
 C506 C 0.50108 -0.21642 0.34106
 C507 C 0.46784 -0.21906 0.31930
 C508 C 0.45433 -0.18718 0.29835
 C509 C 0.47413 -0.15206 0.29839
 C510 C 0.50873 -0.15033 0.31848
 H511 H 0.54777 -0.17924 0.35615
 H512 H 0.45113 -0.24517 0.32016
 H513 H 0.42729 -0.18957 0.28380
 H514 H 0.52516 -0.12408 0.31857
 C515 C 0.94950 0.31000 0.86388
 C516 C 0.98542 0.29325 0.85581
 C517 C 1.01041 0.31173 0.82966
 C518 C 0.99948 0.34657 0.81180
 C519 C 0.96377 0.36368 0.82066
 C520 C 0.93879 0.34474 0.84649
 H521 H 0.92988 0.29710 0.88453
 H522 H 1.03860 0.29964 0.82367
 H523 H 1.01928 0.36072 0.79205
 H524 H 0.91091 0.35703 0.85346
 C525 C 0.01911 1.20991 0.81538
 C526 C 0.01739 1.20851 0.85528
 C527 C 0.02767 1.17455 0.87490
 C528 C 0.04064 1.14265 0.85512
 C529 C 0.04320 1.14384 0.81510
 C530 C 0.03206 1.17780 0.79538
 H531 H 0.01061 1.23567 0.79970
 H532 H 0.02631 1.17291 0.90575
 H533 H 0.04969 1.11739 0.87133
 H534 H 0.03332 1.17949 0.76456
 C535 C 0.55104 0.67142 0.37145
 C536 C 0.53061 0.69956 0.35068
 C537 C 0.52257 0.69349 0.31231
 C538 C 0.53423 0.65930 0.29518
 C539 C 0.55409 0.63069 0.31623
 C540 C 0.56252 0.63728 0.35451
 H541 H 0.55815 0.67580 0.40094
 H542 H 0.50710 0.71486 0.29558
 H543 H 0.52735 0.65504 0.26562
 H544 H 0.57861 0.61628 0.37122
 C545 C 0.48748 0.32502 0.15734
 C546 C 0.50544 0.28878 0.15703
 C547 C 0.53608 0.28113 0.18159
 C548 C 0.55140 0.31051 0.20287
 C549 C 0.53602 0.34798 0.20021
 C550 C 0.50281 0.35452 0.17860
 H551 H 0.46272 0.33129 0.13999
 H552 H 0.54976 0.25304 0.18245
 H553 H 0.57640 0.30435 0.22008
 H554 H 0.49010 0.38297 0.17620
 C555 C 0.05570 0.79653 0.67377
 C556 C 0.02271 0.80047 0.65162
 C557 C 0.00235 0.83543 0.65115
 C558 C 0.01650 0.86696 0.67026
 C559 C 0.05104 0.86383 0.69040
 C560 C 0.06987 0.82795 0.69289
 H561 H 0.07135 0.76949 0.67512
 H562 H -0.02392 0.83891 0.63536
 H563 H 0.00130 0.89418 0.66789
 H564 H 0.09607 0.82441 0.70893
 C565 C 0.96804 0.72123 0.68193
 C566 C 0.99851 0.71843 0.65560
 C567 C 1.01901 0.68365 0.65302
 C568 C 1.00625 0.65090 0.67311
 C569 C 0.97303 0.65272 0.69621
 C570 C 0.95509 0.68853 0.70180
 H571 H 0.95254 0.74812 0.68511
 H572 H 1.04383 0.68109 0.63438
 H573 H 1.02084 0.62373 0.66868
 H574 H 0.92990 0.69080 0.72016
 C575 C 0.44314 0.20784 0.16981
 C576 C 0.47788 0.20798 0.14911
 C577 C 0.50066 0.17449 0.14885
 C578 C 0.48747 0.14055 0.16642
 C579 C 0.45137 0.13958 0.18486
 C580 C 0.42977 0.17385 0.18722
 H581 H 0.42566 0.23368 0.17132
 H582 H 0.52844 0.17412 0.13467
 H583 H 0.50488 0.11472 0.16430
 H584 H 0.40223 0.17420 0.20203
 C585 C 0.34604 0.44431 -0.21034
 C586 C 0.34481 0.48238 -0.22430
 C587 C 0.32388 0.50994 -0.20383
 C588 C 0.30486 0.49954 -0.16961
 C589 C 0.30593 0.46126 -0.15604
 C590 C 0.32638 0.43377 -0.17689
 H591 H 0.36273 0.42252 -0.22458
 H592 H 0.32307 0.53962 -0.21381
 H593 H 0.28932 0.52120 -0.15382
 H594 H 0.32804 0.40420 -0.16662
 C595 C 0.80865 1.00725 0.31997
 C596 C 0.84611 0.99414 0.31209
 C597 C 0.86576 0.97247 0.33990
 C598 C 0.84771 0.96229 0.37431
 C599 C 0.80952 0.97354 0.38162
 C600 C 0.79018 0.99644 0.35431
 H601 H 0.79369 1.02582 0.29991
 H602 H 0.89496 0.96262 0.33472
 H603 H 0.86318 0.94435 0.39467
 H604 H 0.76086 1.00586 0.35959
 C605 C 0.80472 0.01271 1.21970
 C606 C 0.84432 0.01877 1.22309
 C607 C 0.86523 0.03353 1.19169
 C608 C 0.84676 0.04388 1.15801
 C609 C 0.80689 0.03935 1.15481
 C610 C 0.78598 0.02350 1.18594
 H611 H 0.78834 -0.00090 1.24257
 H612 H 0.89602 0.03743 1.19330
 H613 H 0.86361 0.05632 1.13471
 H614 H 0.75530 0.01909 1.18394
 C615 C 0.36602 0.51915 0.65644
 C616 C 0.34588 0.51112 0.69048
 C617 C 0.30568 0.51399 0.69129
 C618 C 0.28596 0.52602 0.65843
 C619 C 0.30629 0.53524 0.62439
 C620 C 0.34658 0.53133 0.62390
 H621 H 0.39712 0.51696 0.65528
 H622 H 0.28963 0.50743 0.71725
 H623 H 0.25492 0.52831 0.65973
 H624 H 0.36341 0.53898 0.59870
 C625 C 0.14182 0.50347 0.32060
 C626 C 0.14834 0.51791 0.28347
 C627 C 0.17740 0.54494 0.27678
 C628 C 0.19834 0.55883 0.30711
 C629 C 0.19045 0.54600 0.34473
 C630 C 0.16255 0.51746 0.35098
 H631 H 0.11983 0.48240 0.32663
 H632 H 0.18306 0.55623 0.24824
 H633 H 0.22013 0.58026 0.30119
 H634 H 0.15539 0.50720 0.37954
 C635 C 0.62544 0.03261 0.84132
 C636 C 0.64544 0.01628 0.81072
 C637 C 0.68542 0.01145 0.81257
 C638 C 0.70512 0.02274 0.84493
 C639 C 0.68497 0.03885 0.87583
 C640 C 0.64491 0.04366 0.87356
 H641 H 0.59458 0.03692 0.84020
 H642 H 0.70141 -0.00094 0.78915
 H643 H 0.73601 0.01876 0.84590
 H644 H 0.62866 0.05685 0.89639
 C645 C 0.65265 1.00712 0.69495
 C646 C 0.64919 0.98520 0.72887
 C647 C 0.66645 0.94874 0.73121
 C648 C 0.68521 0.93354 0.69936
 C649 C 0.68703 0.95466 0.66466
 C650 C 0.67134 0.99200 0.66314
 H651 H 0.63994 1.03551 0.69243
 H652 H 0.66417 0.93146 0.75722
 H653 H 0.69762 0.90496 0.70166
 H654 H 0.67196 1.00894 0.63686
 C655 C 0.13639 0.50980 0.16456
 C656 C 0.14754 0.49598 0.20066
 C657 C 0.18082 0.47324 0.20389
 C658 C 0.20099 0.46199 0.17127
 C659 C 0.18829 0.47346 0.13483
 C660 C 0.15660 0.49861 0.13186
 H661 H 0.11117 0.52784 0.16125
 H662 H 0.19015 0.46267 0.23155
 H663 H 0.22574 0.44313 0.17446
 H664 H 0.14608 0.50781 0.10420
 C665 C -0.17286 0.32059 0.50826
 C666 C -0.18197 0.35656 0.49178
 C667 C -0.15538 0.37448 0.46693
 C668 C -0.12131 0.35580 0.45670
 C669 C -0.11312 0.31875 0.47118
 C670 C -0.13894 0.30143 0.49745
 H671 H -0.19184 0.30722 0.52923
 H672 H -0.16123 0.40277 0.45474
 H673 H -0.10203 0.36975 0.43629
 H674 H -0.13288 0.27309 0.50943
 C675 C 0.26219 0.81311 0.95839
 C676 C 0.26752 0.83436 0.99124
 C677 C 0.30321 0.83263 1.00934
 C678 C 0.33391 0.81212 0.99333
 C679 C 0.32946 0.79314 0.95885
 C680 C 0.29289 0.79269 0.94229
 H681 H 0.23498 0.81434 0.94379
 H682 H 0.30825 0.84882 1.03463
 H683 H 0.36176 0.81327 1.00661
 H684 H 0.28848 0.77791 0.91596
 C685 C 1.17680 0.80840 0.01463
 C686 C 1.18381 0.84734 0.02066
 C687 C 1.15581 0.86941 0.03946
 C688 C 1.12102 0.85311 0.05142
 C689 C 1.11379 0.81414 0.04540
 C690 C 1.14204 0.79193 0.02685
 H691 H 1.19813 0.79052 0.00087
 H692 H 1.16116 0.89914 0.04576
 H693 H 1.10030 0.87068 0.06656
 H694 H 1.13729 0.76177 0.02196
 C695 C 0.72657 0.31405 0.51120
 C696 C 0.72837 0.35406 0.51423
 C697 C 0.69532 0.37452 0.52526
 C698 C 0.66147 0.35531 0.53498
 C699 C 0.65985 0.31511 0.53362
 C700 C 0.69265 0.29462 0.52131
 H701 H 0.75093 0.29778 0.50075
 H702 H 0.69585 0.40553 0.52703
 H703 H 0.63688 0.37189 0.54469
 H704 H 0.69194 0.26364 0.51938
 C705 C 0.34934 0.13744 0.48722
 C706 C 0.31318 0.14332 0.50450
 C707 C 0.30869 0.17232 0.53114
 C708 C 0.34051 0.19264 0.54307
 C709 C 0.37745 0.18441 0.52841
 C710 C 0.38135 0.15767 0.49927
 H711 H 0.35343 0.11640 0.46545
 H712 H 0.28082 0.17802 0.54410
 H713 H 0.33643 0.21388 0.56482
 H714 H 0.40938 0.15094 0.48721
 C715 C 0.76326 0.67469 0.04162
 C716 C 0.76959 0.65354 0.00869
 C717 C 0.80626 0.65336 -0.00853
 C718 C 0.83653 0.67296 0.00768
 C719 C 0.83077 0.69293 0.04159
 C720 C 0.79355 0.69433 0.05791
 H721 H 0.73523 0.67491 0.05549
 H722 H 0.81222 0.63686 -0.03364
 H723 H 0.86488 0.67082 -0.00530
 H724 H 0.78808 0.70987 0.08380
 C725 C 0.68206 0.68722 0.97963
 C726 C 0.68753 0.64773 0.97479
 C727 C 0.65891 0.62646 0.95755
 C728 C 0.62482 0.64414 0.94595
 C729 C 0.61869 0.68361 0.95119
 C730 C 0.64780 0.70509 0.96790
 H731 H 0.70394 0.70418 0.99265
 H732 H 0.66280 0.59594 0.95336
 H733 H 0.60347 0.62697 0.93228
 H734 H 0.64390 0.73557 0.97223
 C735 C 0.23349 0.16796 0.44952
 C736 C 0.23063 0.14450 0.48242
 C737 C 0.19615 0.14411 0.50369
 C738 C 0.16394 0.16432 0.49043
 C739 C 0.16583 0.18526 0.45577
 C740 C 0.20123 0.18790 0.43605
 H741 H 0.26012 0.16918 0.43314
 H742 H 0.19342 0.12725 0.52982
 H743 H 0.13706 0.16192 0.50626
 H744 H 0.20360 0.20446 0.40960
 C745 C 0.60101 0.08190 0.76117
 C746 C 0.59026 0.04492 0.75063
 C747 C 0.56241 0.04100 0.72260
 C748 C 0.54673 0.07349 0.70427
 C749 C 0.55864 0.11048 0.71372
 C750 C 0.58511 0.11440 0.74310
 H751 H 0.62318 0.08596 0.78189
 H752 H 0.55398 0.01294 0.71355
 H753 H 0.52615 0.06968 0.68187
 H754 H 0.59521 0.14252 0.75057
 C755 C 1.08767 0.58036 0.24762
 C756 C 1.08170 0.54352 0.23377
 C757 C 1.05049 0.53731 0.21003
 C758 C 1.02701 0.56807 0.19829
 C759 C 1.03449 0.60560 0.21007
 C760 C 1.06440 0.61115 0.23578
 H761 H 1.11124 0.58597 0.26631
 H762 H 1.04519 0.50894 0.19940
 H763 H 1.00372 0.56266 0.17909
 H764 H 1.07125 0.63962 0.24518
 C765 C 0.87256 0.92601 0.25338
 C766 C 0.89509 0.95913 0.25204
 C767 C 0.93233 0.95759 0.23632
 C768 C 0.94640 0.92328 0.22100
 C769 C 0.92317 0.89037 0.22105
 C770 C 0.88654 0.89191 0.23837
 H771 H 0.84357 0.92675 0.26509
 H772 H 0.94982 0.98313 0.23443
 H773 H 0.97459 0.92300 0.20748
 H774 H 0.86820 0.86693 0.23932
 C775 C 0.38290 0.42410 0.70242
 C776 C 0.40301 0.45521 0.71641
 C777 C 0.44332 0.45460 0.71556
 C778 C 0.46324 0.42301 0.70050
 C779 C 0.44295 0.39182 0.68610
 C780 C 0.40254 0.39257 0.68800
 H781 H 0.35174 0.42416 0.70264
 H782 H 0.45932 0.47866 0.72581
 H783 H 0.49435 0.42347 0.69914
 H784 H 0.38592 0.36875 0.67810
 C785 C 0.42594 0.53635 0.77976
 C786 C 0.40330 0.53890 0.74713
 C787 C 0.39880 0.57456 0.72816
 C788 C 0.41536 0.60746 0.74241
 C789 C 0.43630 0.60554 0.77630
 C790 C 0.44234 0.56941 0.79429
 H791 H 0.42937 0.50915 0.79504
 H792 H 0.38117 0.57770 0.70321
 H793 H 0.41071 0.63467 0.72751
 H794 H 0.45796 0.56697 0.82068
 C795 C -0.10568 0.08235 0.26768
 C796 C -0.09490 0.04443 0.27704
 C797 C -0.06198 0.03754 0.29873
 C798 C -0.04041 0.06832 0.31142
 C799 C -0.05171 0.10648 0.30287
 C800 C -0.08419 0.11307 0.28024
 H801 H -0.13167 0.08845 0.25198
 H802 H -0.05357 0.00847 0.30676
 H803 H -0.01535 0.06230 0.32858
 H804 H -0.09417 0.14203 0.27382
 C805 C 0.06104 0.45926 0.28424
 C806 C 0.09091 0.45894 0.25694
 C807 C 0.10294 0.42385 0.24181
 C808 C 0.08760 0.38938 0.25595
 C809 C 0.05954 0.38939 0.28511
 C810 C 0.04539 0.42469 0.29824
 H811 H 0.05111 0.48612 0.29599
 H812 H 0.12525 0.42260 0.22017
 H813 H 0.09858 0.36255 0.24501
 H814 H 0.02385 0.42544 0.32082
 C815 C 0.58334 0.94833 0.82074
 C816 C 0.58573 0.96107 0.78260
 C817 C 0.56651 0.94050 0.75486
 C818 C 0.54493 0.90797 0.76524
 C819 C 0.54229 0.89554 0.80359
 C820 C 0.56176 0.91616 0.83113
 H821 H 0.59876 0.96239 0.84278
 H822 H 0.56908 0.94879 0.72504
 H823 H 0.53047 0.89249 0.74335
 H824 H 0.56130 0.90669 0.86076
 C825 C 0.74456 0.56741 0.05217
 C826 C 0.71714 0.58983 0.03258
 C827 C 0.67934 0.59142 0.04683
 C828 C 0.66895 0.57104 0.07989
 C829 C 0.69610 0.54853 0.09979
 C830 C 0.73413 0.54686 0.08562
 H831 H 0.77413 0.56652 0.04209
 H832 H 0.65769 0.60932 0.03339
 H833 H 0.63971 0.57394 0.09056
 H834 H 0.75571 0.52984 0.10041
 C835 C 0.22790 1.05703 0.53696
 C836 C 0.25793 1.08338 0.53877
 C837 C 0.27400 1.09096 0.57416
 C838 C 0.25775 1.07532 0.60767
 C839 C 0.22549 1.05141 0.60623
 C840 C 0.21184 1.04111 0.57038
 H841 H 0.21543 1.05044 0.50983
 H842 H 0.29781 1.11041 0.57637
 H843 H 0.26909 1.08377 0.63472
 H844 H 0.18777 1.02184 0.56820
 C845 C 0.18893 0.92644 0.96240
 C846 C 0.22231 0.90369 0.96443
 C847 C 0.24858 0.90463 0.93366
 C848 C 0.24020 0.92563 0.90034
 C849 C 0.20560 0.94653 0.89737
 C850 C 0.18057 0.94760 0.92916
 H851 H 0.16846 0.92693 0.98578
 H852 H 0.27526 0.88849 0.93483
 H853 H 0.26042 0.92493 0.87660
 H854 H 0.15358 0.96328 0.92773
 C855 C 0.74442 0.44507 0.45549
 C856 C 0.75821 0.40712 0.45723
 C857 C 0.75795 0.38497 0.42454
 C858 C 0.74303 0.39990 0.39072
 C859 C 0.72716 0.43712 0.38904
 C860 C 0.72896 0.46007 0.42144
 H861 H 0.74400 0.46235 0.48069
 H862 H 0.76830 0.35552 0.42539
 H863 H 0.74264 0.38177 0.36611
 H864 H 0.71664 0.48875 0.42101
 C865 C 0.80856 0.44387 0.53879
 C866 C 0.78274 0.41343 0.54316
 C867 C 0.76920 0.40287 0.57972
 C868 C 0.78209 0.42173 0.61164
 C869 C 0.80912 0.45134 0.60769
 C870 C 0.82154 0.46284 0.57079
 H871 H 0.81971 0.45208 0.51082
 H872 H 0.75014 0.37872 0.58403
 H873 H 0.77249 0.41164 0.63958
 H874 H 0.84203 0.48585 0.56673
 C875 C 0.26640 -0.06853 0.04259
 C876 C 0.24815 -0.10402 0.04748
 C877 C 0.24648 -0.12181 0.08370
 C878 C 0.26355 -0.10468 0.11467
 C879 C 0.28306 -0.06973 0.10973
 C880 C 0.28386 -0.05153 0.07350
 H881 H 0.26828 -0.05456 0.01474
 H882 H 0.23291 -0.14951 0.08783
 H883 H 0.26295 -0.11958 0.14212
 H884 H 0.29853 -0.02447 0.06899
 C885 C 0.31258 0.05378 0.45568
 C886 C 0.28065 0.07860 0.45527
 C887 C 0.25644 0.07917 0.42368
 C888 C 0.26624 0.05851 0.39138
 C889 C 0.30044 0.03677 0.39005
 C890 C 0.32276 0.03339 0.42312
 H891 H 0.33083 0.05180 0.48038
 H892 H 0.23034 0.09622 0.42328
 H893 H 0.24761 0.06053 0.36697
 H894 H 0.34920 0.01673 0.42321
 C895 C 0.75422 0.61871 0.91488
 C896 C 0.74987 0.59682 0.94864
 C897 C 0.76150 0.55817 0.94955
 C898 C 0.77922 0.54220 0.91736
 C899 C 0.78529 0.56479 0.88401
 C900 C 0.77153 0.60285 0.88286
 H901 H 0.74518 0.64857 0.91357
 H902 H 0.75816 0.54078 0.97533
 H903 H 0.78965 0.51282 0.91910
 H904 H 0.77505 0.62074 0.85739
 C905 C 0.04348 0.71456 0.56569
 C906 C 0.04710 0.74725 0.58765
 C907 C 0.08106 0.76856 0.58499
 C908 C 0.11224 0.75544 0.56319
 C909 C 0.11009 0.72057 0.54391
 C910 C 0.07483 0.70092 0.54457
 H911 H 0.01716 0.69815 0.56683
 H912 H 0.08404 0.79482 0.60041
 H913 H 0.13833 0.77215 0.56226
 H914 H 0.07184 0.67385 0.53050
 C915 C 0.53491 0.21018 1.06694
 C916 C 0.53582 0.24123 1.09145
 C917 C 0.57004 0.26176 1.09479
 C918 C 0.60379 0.24913 1.07676
 C919 C 0.60392 0.21568 1.05509
 C920 C 0.56872 0.19712 1.04938
 H921 H 0.50855 0.19441 1.06342
 H922 H 0.57118 0.28694 1.11210
 H923 H 0.62997 0.26503 1.08064
 H924 H 0.56748 0.17119 1.03312
 C925 C 0.95606 0.23229 0.95089
 C926 C 0.95885 0.23148 0.91108
 C927 C 0.92838 0.21700 0.89034
 C928 C 0.89517 0.20402 0.90895
 C929 C 0.89169 0.20519 0.94882
 C930 C 0.92263 0.21922 0.96970
 H931 H 0.97941 0.24318 0.96740
 H932 H 0.93017 0.21597 0.85955
 H933 H 0.87238 0.19249 0.89207
 H934 H 0.92080 0.22047 1.00045
 C935 C 0.46784 0.69490 0.42232
 C936 C 0.47083 0.73140 0.40492
 C937 C 0.43969 0.75715 0.40765
 C938 C 0.40523 0.74566 0.42540
 C939 C 0.40142 0.70823 0.44091
 C940 C 0.43349 0.68334 0.43995
 H941 H 0.49144 0.67458 0.42120
 H942 H 0.44156 0.78588 0.39533
 H943 H 0.38138 0.76584 0.42639
 H944 H 0.43158 0.65419 0.45127
 C945 C 0.59156 0.75997 0.39047
 C946 C 0.55392 0.75994 0.40527
 C947 C 0.54651 0.77466 0.44143
 C948 C 0.57639 0.79017 0.46222
 C949 C 0.61410 0.79094 0.44717
 C950 C 0.62146 0.77512 0.41132
 H951 H 0.59768 0.74913 0.36236
 H952 H 0.51756 0.77514 0.45318
 H953 H 0.56997 0.80199 0.48986
 H954 H 0.65008 0.77585 0.39875
 C955 C 0.03572 0.29714 -0.06206
 C956 C 0.04138 0.26611 -0.08620
 C957 C 0.07845 0.25050 -0.09077
 C958 C 0.10963 0.26646 -0.07242
 C959 C 0.10440 0.29861 -0.04947
 C960 C 0.06693 0.31323 -0.04376
 H961 H 0.00738 0.30983 -0.05848
 H962 H 0.08388 0.22710 -0.10982
 H963 H 0.13815 0.25493 -0.07791
 H964 H 0.06194 0.33779 -0.02596
 C965 C 0.45895 0.30532 0.06966
 C966 C 0.45420 0.27006 0.08924
 C967 C 0.41979 0.24990 0.08532
 C968 C 0.38933 0.26638 0.06484
 C969 C 0.39291 0.30328 0.04822
 C970 C 0.42829 0.32219 0.04992
 H971 H 0.48569 0.32083 0.07144
 H972 H 0.41589 0.22195 0.09882
 H973 H 0.36234 0.25123 0.06368
 H974 H 0.43176 0.35051 0.03692
 C975 C 0.96345 0.80368 0.56972
 C976 C 0.96402 0.77146 0.59444
 C977 C 0.93066 0.74943 0.59921
 C978 C 0.89631 0.76149 0.58249
 C979 C 0.89482 0.79553 0.56021
 C980 C 0.92905 0.81583 0.55293
 H981 H 0.98916 0.82055 0.56496
 H982 H 0.93061 0.72333 0.61648
 H983 H 0.87065 0.74465 0.58767
 H984 H 0.92887 0.84217 0.53586
   
