data_POSCAR
  _audit_creation_date              2014-09-24
  _audit_creation_method            'ToBaCCo'
  _symmetry_space_group_name_H-M    'P1'
  _symmetry_Int_Tables_number       1
  _symmetry_cell_setting            triclinic
  loop_
  _symmetry_equiv_pos_as_xyz
 x,y,z
_cell_length_a 18.3767
_cell_length_b 18.4044
_cell_length_c 26.9753
_cell_angle_alpha 85.750800
_cell_angle_beta 89.333200
_cell_angle_gamma 85.820100
loop_
  _atom_site_label
  _atom_site_type_symbol
  _atom_site_fract_x
  _atom_site_fract_y
  _atom_site_fract_z
C1 C -0.01676 0.35050 0.95348
 C2 C -0.01981 0.30684 0.99799
 C3 C -0.01754 0.33537 1.04494
 C4 C -0.01070 0.41185 1.04668
 C5 C -0.00732 0.45721 1.00169
 C6 C -0.01031 0.42625 0.95509
 C7 C -0.00709 0.47189 0.91117
 C8 C 0.00002 0.54624 0.91262
 C9 C 0.00275 0.57860 0.95808
 C10 C -0.00081 0.53386 1.00318
 C11 C -0.00891 0.44489 1.09203
 C12 C -0.00113 0.51920 1.09346
 C13 C 0.00227 0.56542 1.04964
 C14 C 0.01118 0.64157 1.05082
 C15 C 0.01456 0.68417 1.00539
 C16 C 0.00962 0.65445 0.95940
 H17 H -0.01022 0.45077 0.87495
 H18 H 0.00413 0.57780 0.87739
 H19 H -0.01397 0.41440 1.12747
 H20 H 0.00284 0.53902 1.12991
 H21 H -0.01753 0.24841 0.99523
 H22 H 0.01464 0.74297 1.00553
 C23 C 0.34452 0.03138 0.54235
 C24 C 0.30820 0.02973 0.49711
 C25 C 0.34606 0.02627 0.45193
 C26 C 0.42313 0.02407 0.45161
 C27 C 0.46116 0.02615 0.49690
 C28 C 0.42168 0.03033 0.54236
 C29 C 0.46041 0.03367 0.58663
 C30 C 0.53618 0.03064 0.58666
 C31 C 0.57654 0.02460 0.54239
 C32 C 0.53889 0.02235 0.49689
 C33 C 0.46317 0.01669 0.40745
 C34 C 0.53901 0.01128 0.40750
 C35 C 0.57861 0.01470 0.45164
 C36 C 0.65635 0.00689 0.45246
 C37 C 0.69173 0.01047 0.49811
 C38 C 0.65356 0.01922 0.54268
 H39 H 0.43267 0.03890 0.62190
 H40 H 0.56269 0.03188 0.62215
 H41 H 0.43629 0.01301 0.37234
 H42 H 0.56538 0.00278 0.37226
 H43 H 0.24923 0.02953 0.49698
 H44 H 0.75058 0.01129 0.49888
 C45 C 0.12799 0.03362 0.29331
 H46 H 0.11322 0.08135 0.26894
 C47 C 0.18327 0.03646 0.32825
 H48 H 0.20871 0.08720 0.33085
 C49 C 0.11169 -0.08936 0.32054
 H50 H 0.08474 -0.13881 0.31685
 C51 C 0.16604 -0.08884 0.35605
 H52 H 0.17920 -0.13759 0.38022
 N53 N 0.09151 -0.02791 0.29138
 C54 C -0.03172 -0.16212 0.20920
 H55 H -0.08254 -0.15484 0.22944
 C56 C -0.02392 -0.21422 0.17391
 H57 H -0.06919 -0.24668 0.16745
 C58 C 0.08598 -0.12309 0.18930
 H59 H 0.12739 -0.08545 0.19432
 C60 C 0.09577 -0.17375 0.15349
 H61 H 0.14534 -0.17543 0.13133
 Zn62 Zn 0.00758 -0.03280 0.25128
 N63 N 0.02222 -0.11674 0.21516
 C64 C -0.01733 0.03447 0.15619
 N65 N -0.00696 0.04956 0.20412
 C66 C -0.01048 0.11993 0.21712
 C67 C -0.02166 0.17815 0.18082
 C68 C -0.02974 0.09051 0.11918
 C69 C -0.07700 -0.09642 0.32837
 C70 C -0.13075 -0.09736 0.36525
 C71 C -0.18454 0.01717 0.32816
 C72 C -0.12921 0.01623 0.29211
 N73 N -0.07551 -0.03894 0.29374
 H74 H -0.01722 -0.02125 0.14634
 H75 H -0.00550 0.13098 0.25571
 H76 H -0.02467 0.23362 0.19187
 H77 H -0.03767 0.07697 0.08130
 H78 H -0.03542 -0.14085 0.32832
 H79 H -0.12920 -0.14211 0.39376
 H80 H -0.22426 0.06359 0.32775
 H81 H -0.12781 0.06116 0.26412
 C82 C 0.03987 -0.21888 0.14461
 C83 C 0.20154 -0.02505 0.36100
 C84 C -0.18450 -0.03947 0.36606
 C85 C -0.03096 0.16328 0.13101
 C86 C 0.02171 0.15835 0.78882
 H87 H 0.06727 0.15953 0.76317
 C88 C 0.01149 0.21245 0.82251
 H89 H 0.04958 0.25450 0.82147
 C90 C -0.07954 0.09883 0.82273
 H91 H -0.11365 0.05327 0.82332
 C92 C -0.09189 0.15174 0.85691
 H93 H -0.13602 0.14655 0.88363
 N94 N -0.02321 0.10269 0.78982
 C95 C 0.06918 0.09548 0.67309
 H96 H 0.02037 0.13210 0.67311
 C97 C 0.12264 0.10620 0.63671
 H98 H 0.11471 0.15163 0.60893
 C99 C 0.13655 -0.01033 0.70789
 H100 H 0.14054 -0.05700 0.73472
 C101 C 0.19140 -0.00183 0.67197
 H102 H 0.23668 -0.04270 0.67212
 Zn103 Zn -0.00410 0.02280 0.75015
 N104 N 0.07679 0.03784 0.70759
 C105 C -0.07365 -0.04295 0.67690
 N106 N -0.08364 0.01135 0.70829
 C107 C -0.14535 0.05698 0.70680
 C108 C -0.20012 0.04885 0.67241
 C109 C -0.12682 -0.05319 0.64222
 C110 C 0.06911 -0.06313 0.82691
 C111 C 0.08039 -0.12135 0.86288
 C112 C -0.02360 -0.17561 0.83104
 C113 C -0.03270 -0.11645 0.79557
 N114 N 0.01330 -0.06169 0.79416
 H115 H -0.02356 -0.07777 0.67844
 H116 H -0.15156 0.10076 0.73141
 H117 H -0.24794 0.08663 0.67180
 H118 H -0.11716 -0.09629 0.61717
 H119 H 0.10405 -0.01818 0.82564
 H120 H 0.12456 -0.12089 0.88908
 H121 H -0.06255 -0.21680 0.83160
 H122 H -0.07808 -0.11337 0.77025
 C123 C 0.18442 0.05692 0.63535
 C124 C -0.04545 0.20890 0.85782
 C125 C 0.03346 -0.17843 0.86571
 C126 C -0.19079 -0.00666 0.63911
 C127 C 0.01153 -0.32319 0.09584
 C128 C 0.04601 -0.26213 0.10048
 H129 H -0.01598 -0.34602 0.12829
 H130 H 0.08205 -0.24296 0.07104
 C131 C -0.01612 0.28656 0.08839
 C132 C -0.04346 0.22055 0.09002
 H133 H 0.01026 0.30125 0.12134
 H134 H -0.07389 0.20501 0.05886
 C135 C 0.30075 0.02793 0.58912
 C136 C 0.23582 0.06556 0.59278
 H137 H 0.32194 -0.00763 0.62006
 H138 H 0.21832 0.10412 0.56215
 C139 C -0.30373 0.02669 0.58833
 C140 C -0.24293 -0.01633 0.59886
 H141 H -0.32174 0.06956 0.61182
 H142 H -0.22869 -0.06018 0.57500
 C143 C 0.00397 -0.29483 0.91370
 C144 C 0.04346 -0.23621 0.90715
 H145 H -0.03528 -0.30552 0.88624
 H146 H 0.08464 -0.22906 0.93449
 C147 C -0.01313 0.31352 0.90614
 C148 C -0.05508 0.25855 0.89880
 H149 H 0.02720 0.32969 0.87892
 H150 H -0.09685 0.24642 0.92629
 C151 C -0.30065 -0.00098 0.40889
 C152 C -0.23386 -0.03623 0.40966
 H153 H -0.32212 0.02022 0.37323
 H154 H -0.21445 -0.06661 0.44346
 C155 C 0.30307 0.02419 0.40590
 C156 C 0.25168 -0.02335 0.40338
 H157 H 0.31452 0.06137 0.37427
 H158 H 0.24567 -0.06346 0.43444
   
