data_POSCAR
  _audit_creation_date              2014-09-24
  _audit_creation_method            'ToBaCCo'
  _symmetry_space_group_name_H-M    'P1'
  _symmetry_Int_Tables_number       1
  _symmetry_cell_setting            triclinic
  loop_
  _symmetry_equiv_pos_as_xyz
 x,y,z
_cell_length_a 50.2842
_cell_length_b 49.7850
_cell_length_c 50.3665
_cell_angle_alpha 90.196700
_cell_angle_beta 90.084300
_cell_angle_gamma 89.449300
loop_
  _atom_site_label
  _atom_site_type_symbol
  _atom_site_fract_x
  _atom_site_fract_y
  _atom_site_fract_z
N1 N 0.29126 0.36868 1.35628
 N2 N 0.28958 0.34785 1.37208
 C3 C 0.26968 0.35219 1.38955
 C4 C 0.25826 0.37726 1.38443
 C5 C 0.27273 0.38700 1.36313
 H6 H 0.26406 0.33808 1.40474
 H7 H 0.26982 0.40576 1.35280
 Cu8 Cu 0.31343 0.31699 1.36812
 Cu9 Cu 0.31631 0.37022 1.32710
 Cu10 Cu 0.36486 0.32098 1.32500
 N11 N 0.34347 0.29199 1.36919
 N12 N 0.36385 0.29425 1.35309
 C13 C 0.38173 0.27474 1.35850
 C14 C 0.37199 0.25904 1.37900
 C15 C 0.34755 0.27075 1.38522
 H16 H 0.40003 0.27183 1.34762
 H17 H 0.33377 0.26461 1.40042
 N18 N 0.36210 0.34973 1.29829
 N19 N 0.34331 0.36836 1.29905
 C20 C 0.34585 0.38452 1.27788
 C21 C 0.36731 0.37571 1.26295
 C22 C 0.37720 0.35361 1.27658
 H23 H 0.33298 0.40148 1.27365
 H24 H 0.39377 0.34091 1.27079
 H25 H 0.32471 0.32935 1.32276
 H26 H 0.34441 0.34814 1.34836
 N27 N 1.19904 0.62018 0.86253
 N28 N 1.19200 0.63418 0.88358
 C29 C 1.20982 0.63003 0.90310
 C30 C 1.22922 0.61254 0.89378
 C31 C 1.22175 0.60670 0.86791
 H32 H 1.20904 0.63960 0.92239
 H33 H 1.23190 0.59346 0.85412
 Cu34 Cu 1.16104 0.65757 0.88349
 Cu35 Cu 1.17770 0.62005 0.83018
 Cu36 Cu 1.12828 0.66868 0.82630
 N37 N 1.13797 0.68856 0.87885
 N38 N 1.12542 0.69314 0.85643
 C39 C 1.11160 0.71632 0.85853
 C40 C 1.11575 0.72703 0.88374
 C41 C 1.13266 0.70862 0.89601
 H42 H 1.09965 0.72470 0.84270
 H43 H 1.14103 0.70971 0.91575
 N44 N 1.13457 0.64184 0.79816
 N45 N 1.15355 0.62340 0.79947
 C46 C 1.15204 0.60746 0.77787
 C47 C 1.13097 0.61619 0.76228
 C48 C 1.12045 0.63809 0.77578
 H49 H 1.16468 0.59015 0.77428
 H50 H 1.10350 0.65021 0.76996
 H51 H 1.16747 0.65987 0.83596
 H52 H 1.14207 0.63430 0.84552
 N53 N 0.70108 -0.12422 0.14034
 N54 N 0.70196 -0.14466 0.12379
 C55 C 0.72254 -0.14140 0.10700
 C56 C 0.73516 -0.11755 0.11336
 C57 C 0.72091 -0.10727 0.13465
 H58 H 0.72795 -0.15531 0.09136
 H59 H 0.72501 -0.08913 0.14571
 Cu60 Cu 0.67609 -0.17346 0.12625
 Cu61 Cu 0.67520 -0.12151 0.16889
 Cu62 Cu 0.63082 -0.17394 0.17545
 N63 N 0.65060 -0.20246 0.12969
 N64 N 0.63328 -0.20277 0.14917
 C65 C 0.61785 -0.22459 0.14661
 C66 C 0.62573 -0.23883 0.12411
 C67 C 0.64672 -0.22403 0.11400
 H68 H 0.60166 -0.22919 0.15987
 H69 H 0.65824 -0.22836 0.09640
 N70 N 0.63144 -0.14276 0.19983
 N71 N 0.64774 -0.12240 0.19665
 C72 C 0.64275 -0.10383 0.21553
 C73 C 0.62246 -0.11294 0.23152
 C74 C 0.61581 -0.13774 0.22104
 H75 H 0.65341 -0.08522 0.21783
 H76 H 0.60040 -0.15090 0.22811
 H77 H 0.67005 -0.16250 0.17309
 H78 H 0.64577 -0.14445 0.15129
 N79 N -0.20523 1.13864 -0.34911
 N80 N -0.20478 1.15774 -0.36705
 C81 C -0.22624 1.15547 -0.38286
 C82 C -0.24096 1.13372 -0.37452
 C83 C -0.22694 1.12348 -0.35303
 H84 H -0.23069 1.16852 -0.39941
 H85 H -0.23229 1.10650 -0.34091
 Cu86 Cu -0.17637 1.18389 -0.36823
 Cu87 Cu -0.17786 1.13532 -0.32180
 Cu88 Cu -0.12793 1.18292 -0.32225
 N89 N -0.14841 1.21059 -0.36781
 N90 N -0.12965 1.21028 -0.34968
 C91 C -0.11328 1.23110 -0.35370
 C92 C -0.12220 1.24542 -0.37568
 C93 C -0.14462 1.23161 -0.38406
 H94 H -0.09619 1.23534 -0.34142
 H95 H -0.15750 1.23654 -0.40054
 N96 N -0.12949 1.15372 -0.29609
 N97 N -0.14837 1.13551 -0.29586
 C98 C -0.14383 1.11848 -0.27555
 C99 C -0.12098 1.12639 -0.26232
 C100 C -0.11249 1.14879 -0.27601
 H101 H -0.15640 1.10176 -0.27058
 H102 H -0.09508 1.16061 -0.27179
 H103 H -0.16848 1.17558 -0.32119
 H104 H -0.14789 1.15327 -0.34302
 N105 N 0.69411 0.62299 0.64372
 N106 N 0.69203 0.64282 0.62669
 C107 C 0.71163 0.64039 0.60856
 C108 C 0.72672 0.61774 0.61456
 C109 C 0.71496 0.60728 0.63705
 H110 H 0.71448 0.65385 0.59204
 H111 H 0.72120 0.58966 0.64796
 Cu112 Cu 0.66358 0.66954 0.62976
 Cu113 Cu 0.66980 0.61875 0.67332
 Cu114 Cu 0.61826 0.66502 0.67879
 N115 N 0.63378 0.69472 0.63261
 N116 N 0.61631 0.69299 0.65190
 C117 C 0.59811 0.71283 0.64930
 C118 C 0.60437 0.72781 0.62709
 C119 C 0.62716 0.71566 0.61700
 H120 H 0.58141 0.71591 0.66248
 H121 H 0.63830 0.72182 0.59976
 N122 N 0.62359 0.63525 0.70402
 N123 N 0.64329 0.61769 0.70195
 C124 C 0.64166 0.59997 0.72201
 C125 C 0.61982 0.60659 0.73748
 C126 C 0.60886 0.62911 0.72543
 H127 H 0.65523 0.58329 0.72497
 H128 H 0.59158 0.64038 0.73193
 H129 H 0.63768 0.63730 0.65495
 H130 H 0.65884 0.65878 0.67675
 N131 N 0.80398 0.37588 0.14199
 N132 N 0.80446 0.35600 0.12479
 C133 C 0.78327 0.35839 0.10850
 C134 C 0.76878 0.38106 0.11592
 C135 C 0.78261 0.39155 0.13731
 H136 H 0.77882 0.34476 0.09239
 H137 H 0.77741 0.40908 0.14895
 Cu138 Cu 0.83299 0.32927 0.12551
 Cu139 Cu 0.83061 0.38003 0.16963
 Cu140 Cu 0.88124 0.33249 0.17186
 N141 N 0.86183 0.30292 0.12681
 N142 N 0.88087 0.30469 0.14463
 C143 C 0.89878 0.28489 0.14049
 C144 C 0.89049 0.26974 0.11901
 C145 C 0.86690 0.28171 0.11086
 H146 H 0.91645 0.28164 0.15235
 H147 H 0.85471 0.27574 0.09419
 N148 N 0.87811 0.36222 0.19759
 N149 N 0.85925 0.38077 0.19620
 C150 C 0.86270 0.39862 0.21601
 C151 C 0.88463 0.39080 0.23072
 C152 C 0.89390 0.36761 0.21853
 H153 H 0.84986 0.41571 0.21989
 H154 H 0.91102 0.35574 0.22437
 H155 H 0.86116 0.36076 0.14948
 H156 H 0.84073 0.33973 0.17218
 N157 N 0.29854 0.13115 0.85436
 N158 N 0.30243 0.14754 0.87448
 C159 C 0.28196 0.14558 0.89154
 C160 C 0.26428 0.12681 0.88171
 C161 C 0.27554 0.11804 0.85806
 H162 H 0.28020 0.15688 0.90984
 H163 H 0.26739 0.10359 0.84429
 Cu164 Cu 0.33375 0.17003 0.87683
 Cu165 Cu 0.32319 0.12875 0.82450
 Cu166 Cu 0.37251 0.17661 0.82302
 N167 N 0.35921 0.19901 0.87389
 N168 N 0.37343 0.20219 0.85227
 C169 C 0.38892 0.22389 0.85521
 C170 C 0.38440 0.23476 0.88013
 C171 C 0.36544 0.21841 0.89149
 H172 H 0.40306 0.23079 0.84065
 H173 H 0.35667 0.22062 0.91098
 N174 N 0.36864 0.14886 0.79542
 N175 N 0.35019 0.13021 0.79608
 C176 C 0.35356 0.11366 0.77505
 C177 C 0.37521 0.12234 0.76044
 C178 C 0.38419 0.14470 0.77408
 H179 H 0.34119 0.09655 0.77075
 H180 H 0.40125 0.15675 0.76925
 H181 H 0.35670 0.14379 0.84275
 H182 H 0.33237 0.16870 0.82869
 N183 N 0.21044 0.86585 0.35274
 N184 N 0.20913 0.84540 0.36910
 C185 C 0.22825 0.84776 0.38767
 C186 C 0.24233 0.87099 0.38278
 C187 C 0.23042 0.88195 0.36041
 H188 H 0.23152 0.83379 0.40374
 H189 H 0.23601 0.90012 0.35024
 Cu190 Cu 0.18218 0.81806 0.36463
 Cu191 Cu 0.18625 0.87002 0.32265
 Cu192 Cu 0.13746 0.82161 0.31531
 N193 N 0.15525 0.79072 0.36015
 N194 N 0.13726 0.79266 0.34127
 C195 C 0.12057 0.77175 0.34301
 C196 C 0.12868 0.75573 0.36397
 C197 C 0.15076 0.76838 0.37437
 H198 H 0.10404 0.76822 0.32974
 H199 H 0.16239 0.76196 0.39131
 N200 N 0.14112 0.85235 0.29104
 N201 N 0.15986 0.87058 0.29357
 C202 C 0.15757 0.88832 0.27353
 C203 C 0.13633 0.88098 0.25762
 C204 C 0.12640 0.85809 0.26940
 H205 H 0.17036 0.90540 0.27077
 H206 H 0.10998 0.84612 0.26241
 H207 H 0.15494 0.84992 0.33963
 H208 H 0.17763 0.82976 0.31792
 Zn209 Zn 0.03523 0.98356 0.00127
 Zn210 Zn 0.00565 1.03261 -0.01595
 Zn211 Zn -0.01867 0.97831 -0.02362
 Zn212 Zn -0.01296 1.00136 0.03077
 O213 O 0.00230 0.99895 -0.00194
 O214 O 0.06116 1.00443 -0.01109
 O215 O -0.01261 1.03635 -0.04622
 O216 O -0.00139 0.94930 -0.03623
 O217 O 0.03946 1.04100 -0.02383
 O218 O 0.03809 0.95302 -0.01720
 O219 O -0.03072 0.99644 -0.05201
 O220 O -0.04298 0.98270 0.03318
 O221 O -0.00703 1.05850 0.00560
 O222 O -0.04764 0.96567 -0.00710
 O223 O -0.02175 1.03501 0.03965
 O224 O 0.00803 0.98890 0.05671
 O225 O 0.04388 0.97539 0.03494
 C226 C 0.06100 1.02768 -0.02136
 C227 C -0.02712 1.02046 -0.05952
 C228 C 0.02208 0.94056 -0.03223
 C229 C -0.05581 0.96861 0.01659
 C230 C -0.01858 1.05729 0.02797
 C231 C 0.03111 0.97836 0.05651
 Zn232 Zn 0.49033 0.00455 0.46624
 Zn233 Zn 0.48156 -0.02163 0.51916
 Zn234 Zn 0.53660 -0.01461 0.49754
 Zn235 Zn 0.50590 0.03330 0.51554
 O236 O 0.50350 0.00035 0.49971
 O237 O 0.46018 -0.01308 0.46163
 O238 O 0.49847 -0.05161 0.53099
 O239 O 0.54655 -0.02242 0.46427
 O240 O 0.45316 -0.03284 0.50022
 O241 O 0.51219 -0.00789 0.44084
 O242 O 0.53880 -0.04552 0.51481
 O243 O 0.53909 0.04137 0.52571
 O244 O 0.46814 -0.00480 0.54807
 O245 O 0.56194 0.00595 0.51172
 O246 O 0.48603 0.03550 0.54479
 O247 O 0.49469 0.06032 0.49469
 O248 O 0.48259 0.03873 0.45827
 C249 C 0.44622 -0.02791 0.47641
 C250 C 0.52244 -0.05941 0.52793
 C251 C 0.53488 -0.01920 0.44214
 C252 C 0.56094 0.02862 0.52330
 C253 C 0.47113 0.01901 0.55672
 C254 C 0.48497 0.06036 0.47141
 Zn255 Zn 0.96389 0.49205 0.49724
 Zn256 Zn 1.01767 0.48767 0.52253
 Zn257 Zn 1.01206 0.50698 0.46668
 Zn258 Zn 0.99331 0.54169 0.51110
 O259 O 0.99676 0.50707 0.49945
 O260 O 0.96080 0.46340 0.51807
 O261 O 1.04679 0.47347 0.50694
 O262 O 0.99137 0.49254 0.44169
 O263 O 1.00039 0.45983 0.53696
 O264 O 0.95584 0.48068 0.46445
 O265 O 1.04222 0.48793 0.46573
 O266 O 1.00566 0.56574 0.48791
 O267 O 1.02940 0.50770 0.54979
 O268 O 1.02027 0.53983 0.45523
 O269 O 1.01126 0.54740 0.54117
 O270 O 0.95953 0.55131 0.51780
 O271 O 0.93769 0.51454 0.50706
 C272 C 0.97680 0.45153 0.53371
 C273 C 1.05500 0.47471 0.48314
 C274 C 0.96860 0.48185 0.44278
 C275 C 1.01673 0.56292 0.46543
 C276 C 1.02561 0.53228 0.55566
 C277 C 0.93789 0.53859 0.51550
 Zn278 Zn 0.51479 0.49907 1.03876
 Zn279 Zn 0.51897 0.47799 0.98302
 Zn280 Zn 0.46568 0.48500 1.00907
 Zn281 Zn 0.49679 0.53305 0.99392
 O282 O 0.49910 0.49870 1.00612
 O283 O 0.54459 0.47951 1.03944
 O284 O 0.50057 0.45004 0.96982
 O285 O 0.45771 0.47463 1.04219
 O286 O 0.54818 0.46382 0.99843
 O287 O 0.49426 0.48525 1.06408
 O288 O 0.46113 0.45614 0.98855
 O289 O 0.46339 0.54356 0.98701
 O290 O 0.53043 0.49677 0.95471
 O291 O 0.44024 0.50807 0.99886
 O292 O 0.51413 0.53723 0.96354
 O293 O 0.51045 0.55731 1.01631
 O294 O 0.52382 0.53206 1.04983
 C295 C 0.55685 0.46566 1.02207
 C296 C 0.47655 0.44312 0.97318
 C297 C 0.47109 0.47539 1.06357
 C298 C 0.44135 0.53164 0.98945
 C299 C 0.52724 0.52137 0.94865
 C300 C 0.52133 0.55491 1.03894
 C301 C 1.22810 0.41586 0.38968
 C302 C 1.20583 0.42796 0.40122
 C303 C 1.19109 0.41465 0.42064
 C304 C 1.19944 0.38885 0.42865
 C305 C 1.22190 0.37668 0.41715
 C306 C 1.23640 0.38983 0.39715
 C307 C 1.16653 0.42806 0.43053
 C308 C 1.15232 0.42020 0.45162
 C309 C 1.12724 0.43403 0.45947
 C310 C 1.11923 0.43390 0.48617
 C311 C 1.09577 0.44708 0.49403
 C312 C 1.07979 0.46049 0.47524
 C313 C 1.08755 0.46004 0.44845
 C314 C 1.11084 0.44685 0.44063
 H315 H 1.23851 0.42718 0.37476
 H316 H 1.19992 0.44784 0.39463
 H317 H 1.18844 0.37762 0.44323
 H318 H 1.22735 0.35669 0.42363
 H319 H 1.16011 0.44583 0.41987
 H320 H 1.15946 0.40402 0.46408
 H321 H 1.13132 0.42386 0.50101
 H322 H 1.09024 0.44689 0.51479
 H323 H 1.07550 0.46976 0.43338
 H324 H 1.11567 0.44643 0.41971
 C325 C 0.25315 0.60227 0.93621
 C326 C 0.27558 0.59309 0.94998
 C327 C 0.29839 0.58471 0.93618
 C328 C 0.29814 0.58493 0.90825
 C329 C 0.27558 0.59376 0.89447
 C330 C 0.25293 0.60269 0.90831
 C331 C 0.32169 0.57484 0.95133
 C332 C 0.34668 0.57784 0.94275
 C333 C 0.37016 0.56711 0.95708
 C334 C 0.39490 0.57923 0.95316
 C335 C 0.41789 0.56839 0.96466
 C336 C 0.41666 0.54490 0.97999
 C337 C 0.39179 0.53303 0.98433
 C338 C 0.36877 0.54400 0.97301
 H339 H 0.23587 0.60868 0.94743
 H340 H 0.27521 0.59278 0.97148
 H341 H 0.31517 0.57786 0.89701
 H342 H 0.27601 0.59386 0.87299
 H343 H 0.31808 0.56593 0.97056
 H344 H 0.35026 0.58924 0.92484
 H345 H 0.39650 0.59692 0.94083
 H346 H 0.43676 0.57792 0.96078
 H347 H 0.39020 0.51482 0.99590
 H348 H 0.35016 0.53370 0.97590
 C349 C -0.23399 0.92096 0.10612
 C350 C -0.21082 0.93179 0.09556
 C351 C -0.19389 0.91621 0.07948
 C352 C -0.20077 0.88939 0.07405
 C353 C -0.22405 0.87853 0.08462
 C354 C -0.24080 0.89413 0.10100
 C355 C -0.16877 0.92843 0.07018
 C356 C -0.15387 0.91883 0.05013
 C357 C -0.12861 0.93156 0.04192
 C358 C -0.11978 0.92858 0.01564
 C359 C -0.09614 0.94054 0.00730
 C360 C -0.08071 0.95555 0.02520
 C361 C -0.08928 0.95800 0.05166
 C362 C -0.11284 0.94606 0.05997
 H363 H -0.24649 0.93374 0.11834
 H364 H -0.20601 0.95247 0.10014
 H365 H -0.18798 0.87644 0.06233
 H366 H -0.22850 0.85771 0.08049
 H367 H -0.16285 0.94683 0.07995
 H368 H -0.16074 0.90195 0.03850
 H369 H -0.13138 0.91723 0.00143
 H370 H -0.09001 0.93811 -0.01318
 H371 H -0.07772 0.96909 0.06608
 H372 H -0.11835 0.94794 0.08064
 C373 C 0.71854 0.14033 0.59706
 C374 C 0.69507 0.13090 0.58563
 C375 C 0.68657 0.10461 0.59032
 C376 C 0.70165 0.08811 0.60742
 C377 C 0.72507 0.09761 0.61900
 C378 C 0.73391 0.12376 0.61376
 C379 C 0.66163 0.09542 0.57764
 C380 C 0.65679 0.06957 0.57204
 C381 C 0.63214 0.06026 0.55883
 C382 C 0.63264 0.03549 0.54546
 C383 C 0.60969 0.02550 0.53345
 C384 C 0.58558 0.03997 0.53476
 C385 C 0.58504 0.06481 0.54812
 C386 C 0.60803 0.07483 0.56010
 H387 H 0.72445 0.16073 0.59292
 H388 H 0.68364 0.14413 0.57283
 H389 H 0.69529 0.06800 0.61220
 H390 H 0.73636 0.08433 0.63181
 H391 H 0.64761 0.11076 0.57133
 H392 H 0.67201 0.05458 0.57603
 H393 H 0.65087 0.02377 0.54435
 H394 H 0.61078 0.00624 0.52345
 H395 H 0.56674 0.07634 0.54972
 H396 H 0.60658 0.09361 0.57088
 C397 C 0.36972 0.21965 0.40811
 C398 C 0.38120 0.19622 0.41845
 C399 C 0.40736 0.18887 0.41198
 C400 C 0.42183 0.20518 0.39464
 C401 C 0.41023 0.22832 0.38383
 C402 C 0.38392 0.23597 0.39033
 C403 C 0.41851 0.16340 0.42241
 C404 C 0.44427 0.16015 0.42858
 C405 C 0.45497 0.13449 0.43897
 C406 C 0.47470 0.13479 0.45869
 C407 C 0.48459 0.11071 0.46924
 C408 C 0.47546 0.08590 0.45967
 C409 C 0.45636 0.08565 0.43927
 C410 C 0.44608 0.10969 0.42915
 H411 H 0.34944 0.22436 0.41364
 H412 H 0.36960 0.18380 0.43162
 H413 H 0.44190 0.19972 0.38886
 H414 H 0.42214 0.24015 0.37047
 H415 H 0.40478 0.14724 0.42628
 H416 H 0.45758 0.17710 0.42745
 H417 H 0.48202 0.15369 0.46634
 H418 H 0.49941 0.11149 0.48485
 H419 H 0.44895 0.06684 0.43149
 H420 H 0.43134 0.10888 0.41347
 C421 C 0.87762 0.28047 0.59019
 C422 C 0.88828 0.30372 0.57928
 C423 C 0.91036 0.31618 0.59085
 C424 C 0.92170 0.30465 0.61374
 C425 C 0.91112 0.28126 0.62465
 C426 C 0.88879 0.26880 0.61314
 C427 C 0.92021 0.34122 0.57839
 C428 C 0.94139 0.35524 0.58664
 C429 C 0.94995 0.38035 0.57351
 C430 C 0.97668 0.38807 0.57529
 C431 C 0.98548 0.41135 0.56267
 C432 C 0.96762 0.42745 0.54809
 C433 C 0.94072 0.42013 0.54698
 C434 C 0.93194 0.39699 0.55967
 H435 H 0.86059 0.27184 0.58036
 H436 H 0.87905 0.31208 0.56165
 H437 H 0.93860 0.31346 0.62360
 H438 H 0.92050 0.27327 0.64230
 H439 H 0.90943 0.34813 0.56107
 H440 H 0.95361 0.34796 0.60277
 H441 H 0.99088 0.37581 0.58614
 H442 H 1.00630 0.41653 0.56402
 H443 H 0.92635 0.43232 0.53630
 H444 H 0.91096 0.39249 0.55879
 C445 C 0.11184 0.75921 -0.07946
 C446 C 0.10226 0.78344 -0.06907
 C447 C 0.08608 0.80047 -0.08434
 C448 C 0.07981 0.79284 -0.11050
 C449 C 0.08936 0.76855 -0.12095
 C450 C 0.10564 0.75133 -0.10564
 C451 C 0.07721 0.82632 -0.07248
 C452 C 0.05676 0.84114 -0.08162
 C453 C 0.04840 0.86685 -0.06910
 C454 C 0.02200 0.87574 -0.07206
 C455 C 0.01337 0.89972 -0.06020
 C456 C 0.03109 0.91539 -0.04526
 C457 C 0.05768 0.90679 -0.04283
 C458 C 0.06629 0.88292 -0.05474
 H459 H 0.12418 0.74690 -0.06672
 H460 H 0.10756 0.78889 -0.04891
 H461 H 0.06805 0.80573 -0.12326
 H462 H 0.08410 0.76366 -0.14120
 H463 H 0.08747 0.83271 -0.05467
 H464 H 0.04475 0.83373 -0.09785
 H465 H 0.00791 0.86391 -0.08331
 H466 H -0.00721 0.90587 -0.06259
 H467 H 0.07195 0.91859 -0.03180
 H468 H 0.08706 0.87739 -0.05290
 C469 C 0.62357 0.72673 1.08912
 C470 C 0.61180 0.70397 1.07805
 C471 C 0.59085 0.69110 1.09099
 C472 C 0.58167 0.70162 1.11526
 C473 C 0.59328 0.72455 1.12630
 C474 C 0.61439 0.73761 1.11337
 C475 C 0.57840 0.66761 1.07792
 C476 C 0.56553 0.64831 1.09111
 C477 C 0.55364 0.62480 1.07756
 C478 C 0.55194 0.60033 1.09118
 C479 C 0.54131 0.57765 1.07876
 C480 C 0.53173 0.57910 1.05255
 C481 C 0.53272 0.60383 1.03921
 C482 C 0.54354 0.62642 1.05155
 H483 H 0.63961 0.73582 1.07821
 H484 H 0.61914 0.69637 1.05923
 H485 H 0.56510 0.69265 1.12550
 H486 H 0.58539 0.73193 1.14492
 H487 H 0.58116 0.66557 1.05668
 H488 H 0.56500 0.64875 1.11259
 H489 H 0.55930 0.59865 1.11134
 H490 H 0.54070 0.55895 1.08966
 H491 H 0.52535 0.60570 1.01908
 H492 H 0.54371 0.64517 1.04075
 C493 C 0.36092 0.40486 1.22289
 C494 C 0.37016 0.41603 1.19928
 C495 C 0.39588 0.41019 1.19010
 C496 C 0.41199 0.39222 1.20466
 C497 C 0.40268 0.38092 1.22824
 C498 C 0.37711 0.38728 1.23773
 C499 C 0.40490 0.42268 1.16505
 C500 C 0.43057 0.42713 1.15958
 C501 C 0.43979 0.44022 1.13489
 C502 C 0.46488 0.45230 1.13487
 C503 C 0.47478 0.46417 1.11189
 C504 C 0.45988 0.46405 1.08825
 C505 C 0.43472 0.45198 1.08822
 C506 C 0.42479 0.44011 1.11126
 H507 H 0.34096 0.40988 1.22930
 H508 H 0.35724 0.42952 1.18827
 H509 H 0.43162 0.38653 1.19778
 H510 H 0.41566 0.36741 1.23909
 H511 H 0.38967 0.42984 1.15155
 H512 H 0.44554 0.42229 1.17432
 H513 H 0.47691 0.45251 1.15273
 H514 H 0.49429 0.47317 1.11259
 H515 H 0.42285 0.45130 1.07027
 H516 H 0.40572 0.43031 1.11019
 C517 C 0.61175 -0.07094 0.25699
 C518 C 0.60105 -0.05778 0.27914
 C519 C 0.58969 -0.07247 0.29986
 C520 C 0.58838 -0.10061 0.29762
 C521 C 0.59871 -0.11375 0.27525
 C522 C 0.61074 -0.09907 0.25484
 C523 C 0.57878 -0.05789 0.32314
 C524 C 0.57947 -0.06813 0.34771
 C525 C 0.56887 -0.05375 0.37128
 C526 C 0.57975 -0.05952 0.39630
 C527 C 0.56934 -0.04751 0.41920
 C528 C 0.54746 -0.02980 0.41761
 C529 C 0.53668 -0.02382 0.39252
 C530 C 0.54730 -0.03562 0.36957
 H531 H 0.62056 -0.05904 0.24142
 H532 H 0.60200 -0.03608 0.28028
 H533 H 0.57910 -0.11245 0.31295
 H534 H 0.59763 -0.13543 0.27414
 H535 H 0.57151 -0.03759 0.32012
 H536 H 0.58928 -0.08731 0.35100
 H537 H 0.59626 -0.07354 0.39815
 H538 H 0.57799 -0.05271 0.43823
 H539 H 0.51971 -0.01040 0.39065
 H540 H 0.53799 -0.03121 0.35067
 C541 C -0.08802 1.12739 -0.22490
 C542 C -0.07595 1.11582 -0.20270
 C543 C -0.08391 1.09063 -0.19341
 C544 C -0.10417 1.07701 -0.20714
 C545 C -0.11628 1.08862 -0.22944
 C546 C -0.10835 1.11397 -0.23860
 C547 C -0.07014 1.07953 -0.16970
 C548 C -0.07918 1.05918 -0.15491
 C549 C -0.06530 1.04958 -0.13065
 C550 C -0.06900 1.02302 -0.12229
 C551 C -0.05648 1.01341 -0.09933
 C552 C -0.04016 1.03031 -0.08408
 C553 C -0.03675 1.05701 -0.09228
 C554 C -0.04924 1.06659 -0.11519
 H555 H -0.08142 1.14700 -0.23108
 H556 H -0.06038 1.12678 -0.19259
 H557 H -0.11054 1.05727 -0.20118
 H558 H -0.13162 1.07751 -0.23964
 H559 H -0.05174 1.08911 -0.16404
 H560 H -0.09717 1.04890 -0.16053
 H561 H -0.08150 1.00960 -0.13366
 H562 H -0.05966 0.99278 -0.09348
 H563 H -0.02460 1.07068 -0.08083
 H564 H -0.04669 1.08748 -0.12029
 C565 C 1.13659 0.58585 0.72266
 C566 C 1.12675 0.57419 0.69937
 C567 C 1.10101 0.58039 0.69030
 C568 C 1.08505 0.59806 0.70539
 C569 C 1.09490 0.60978 0.72857
 C570 C 1.12080 0.60389 0.73746
 C571 C 1.09116 0.56749 0.66563
 C572 C 1.07171 0.57826 0.65069
 C573 C 1.06105 0.56577 0.62616
 C574 C 1.04619 0.58195 0.60876
 C575 C 1.03488 0.57111 0.58585
 C576 C 1.03803 0.54368 0.57983
 C577 C 1.05289 0.52738 0.59723
 C578 C 1.06420 0.53825 0.62023
 H579 H 1.15663 0.58089 0.72890
 H580 H 1.13937 0.56043 0.68827
 H581 H 1.06472 0.60253 0.69978
 H582 H 1.08193 0.62306 0.73974
 H583 H 1.10112 0.54925 0.65920
 H584 H 1.06364 0.59777 0.65600
 H585 H 1.04327 0.60314 0.61292
 H586 H 1.02354 0.58425 0.57291
 H587 H 1.05552 0.50613 0.59325
 H588 H 1.07482 0.52486 0.63346
 C589 C 0.75877 0.58022 0.60461
 C590 C 0.78114 0.56990 0.59161
 C591 C 0.79575 0.58590 0.57414
 C592 C 0.78702 0.61240 0.56933
 C593 C 0.76448 0.62272 0.58228
 C594 C 0.75024 0.60681 0.60025
 C595 C 0.81955 0.57392 0.56120
 C596 C 0.83986 0.58830 0.55174
 C597 C 0.86443 0.57566 0.54098
 C598 C 0.88841 0.58979 0.54248
 C599 C 0.91222 0.57797 0.53383
 C600 C 0.91251 0.55179 0.52325
 C601 C 0.88833 0.53804 0.52081
 C602 C 0.86455 0.54986 0.52946
 H603 H 0.74810 0.56719 0.61793
 H604 H 0.78723 0.54934 0.59546
 H605 H 0.79727 0.62514 0.55542
 H606 H 0.75844 0.64325 0.57839
 H607 H 0.82113 0.55222 0.56134
 H608 H 0.83958 0.60994 0.55384
 H609 H 0.88882 0.60980 0.55098
 H610 H 0.93046 0.58919 0.53582
 H611 H 0.88779 0.51799 0.51243
 H612 H 0.84634 0.53871 0.52700
 C613 C 0.73406 0.41721 1.11172
 C614 C 0.71011 0.42707 1.10155
 C615 C 0.69528 0.41194 1.08340
 C616 C 0.70499 0.38654 1.07552
 C617 C 0.72904 0.37660 1.08576
 C618 C 0.74376 0.39176 1.10415
 C619 C 0.66933 0.42303 1.07451
 C620 C 0.65591 0.41463 1.05304
 C621 C 0.62997 0.42673 1.04537
 C622 C 0.62248 0.42741 1.01852
 C623 C 0.59856 0.43976 1.01079
 C624 C 0.58167 0.45153 1.02986
 C625 C 0.58878 0.44996 1.05680
 C626 C 0.61251 0.43755 1.06449
 H627 H 0.74483 0.42969 1.12557
 H628 H 0.70308 0.44666 1.10804
 H629 H 0.69385 0.37394 1.06206
 H630 H 0.73574 0.35683 1.07964
 H631 H 0.66144 0.43979 1.08588
 H632 H 0.66459 0.39972 1.03991
 H633 H 0.63542 0.41889 1.00346
 H634 H 0.59353 0.44049 0.98989
 H635 H 0.57596 0.45833 1.07204
 H636 H 0.61698 0.43635 1.08547
 C637 C 0.22617 1.13409 -0.08680
 C638 C 0.20231 1.12585 -0.07529
 C639 C 0.19085 1.10130 -0.08251
 C640 C 0.20336 1.08548 -0.10215
 C641 C 0.22709 1.09383 -0.11384
 C642 C 0.23888 1.11814 -0.10617
 C643 C 0.16560 1.09316 -0.06978
 C644 C 0.15899 1.06737 -0.06630
 C645 C 0.13397 1.05866 -0.05347
 C646 C 0.13313 1.03291 -0.04230
 C647 C 0.10967 1.02321 -0.03123
 C648 C 0.08629 1.03894 -0.03134
 C649 C 0.08713 1.06485 -0.04233
 C650 C 0.11071 1.07463 -0.05330
 H651 H 0.23446 1.15311 -0.08069
 H652 H 0.19292 1.13856 -0.06046
 H653 H 0.19469 1.06683 -0.10883
 H654 H 0.23629 1.08106 -0.12870
 H655 H 0.15295 1.10892 -0.06177
 H656 H 0.17300 1.05176 -0.07202
 H657 H 0.15069 1.02013 -0.04231
 H658 H 0.10974 1.00312 -0.02306
 H659 H 0.06943 1.07741 -0.04292
 H660 H 0.11035 1.09431 -0.06232
 C661 C 0.27958 -0.13487 0.41561
 C662 C 0.30155 -0.12492 0.42944
 C663 C 0.30972 -0.09832 0.42588
 C664 C 0.29480 -0.08151 0.40893
 C665 C 0.27292 -0.09148 0.39505
 C666 C 0.26520 -0.11834 0.39801
 C667 C 0.33376 -0.08879 0.44007
 C668 C 0.34887 -0.06889 0.43075
 C669 C 0.37381 -0.05952 0.44337
 C670 C 0.39113 -0.04418 0.42794
 C671 C 0.41462 -0.03425 0.43870
 C672 C 0.42142 -0.03927 0.46531
 C673 C 0.40414 -0.05463 0.48091
 C674 C 0.38048 -0.06462 0.47009
 H675 H 0.27424 -0.15566 0.41840
 H676 H 0.31251 -0.13821 0.44256
 H677 H 0.29972 -0.06056 0.40648
 H678 H 0.26196 -0.07799 0.38217
 H679 H 0.33998 -0.09978 0.45753
 H680 H 0.34365 -0.05975 0.41196
 H681 H 0.38649 -0.03983 0.40738
 H682 H 0.42740 -0.02247 0.42607
 H683 H 0.40872 -0.05867 0.50154
 H684 H 0.36740 -0.07580 0.48287
 C685 C 0.57186 -0.23384 0.63239
 C686 C 0.55911 -0.21077 0.62263
 C687 C 0.56441 -0.20152 0.59691
 C688 C 0.58195 -0.21649 0.58073
 C689 C 0.59474 -0.23945 0.59051
 C690 C 0.59010 -0.24825 0.61655
 C691 C 0.55142 -0.17632 0.58758
 C692 C 0.56250 -0.16056 0.56918
 C693 C 0.55119 -0.13459 0.55986
 C694 C 0.56813 -0.11728 0.54616
 C695 C 0.55873 -0.09292 0.53617
 C696 C 0.53198 -0.08516 0.53945
 C697 C 0.51486 -0.10239 0.55322
 C698 C 0.52434 -0.12694 0.56331
 H699 H 0.56776 -0.24000 0.65254
 H700 H 0.54550 -0.19980 0.63541
 H701 H 0.58571 -0.21075 0.56040
 H702 H 0.60813 -0.25038 0.57750
 H703 H 0.53334 -0.16992 0.59744
 H704 H 0.58180 -0.16613 0.56130
 H705 H 0.58884 -0.12264 0.54309
 H706 H 0.57254 -0.08022 0.52568
 H707 H 0.49411 -0.09705 0.55594
 H708 H 0.51046 -0.13995 0.57323
 C709 C 1.13175 0.71153 0.38727
 C710 C 1.12019 0.68799 0.39659
 C711 C 1.09299 0.68334 0.39280
 C712 C 1.07766 0.70228 0.37867
 C713 C 1.08934 0.72566 0.36897
 C714 C 1.11643 0.73064 0.37344
 C715 C 1.08140 0.65843 0.40346
 C716 C 1.05640 0.65717 0.41250
 C717 C 1.04575 0.63275 0.42511
 C718 C 1.02740 0.63547 0.44591
 C719 C 1.01783 0.61279 0.45896
 C720 C 1.02605 0.58691 0.45106
 C721 C 1.04372 0.58418 0.42960
 C722 C 1.05356 0.60687 0.41680
 H723 H 1.15276 0.71462 0.39069
 H724 H 1.13243 0.67354 0.40718
 H725 H 1.05676 0.69893 0.37485
 H726 H 1.07705 0.74002 0.35836
 H727 H 1.09459 0.64127 0.40587
 H728 H 1.04408 0.67514 0.41275
 H729 H 1.02093 0.65522 0.45247
 H730 H 1.00407 0.61553 0.47528
 H731 H 1.05031 0.56451 0.42295
 H732 H 1.06713 0.60410 0.40033
 C733 C -0.06826 1.24268 0.11003
 C734 C -0.05537 1.22037 0.09888
 C735 C -0.06990 1.20080 0.08521
 C736 C -0.09752 1.20435 0.08213
 C737 C -0.11035 1.22688 0.09292
 C738 C -0.09588 1.24614 0.10718
 C739 C -0.05576 1.17724 0.07392
 C740 C -0.06681 1.15291 0.07275
 C741 C -0.05290 1.12898 0.06195
 C742 C -0.05951 1.10361 0.07180
 C743 C -0.04770 1.08042 0.06130
 C744 C -0.02940 1.08208 0.04031
 C745 C -0.02271 1.10752 0.03045
 C746 C -0.03428 1.13077 0.04122
 H747 H -0.05652 1.25738 0.12060
 H748 H -0.03404 1.21818 0.10124
 H749 H -0.10917 1.18994 0.07109
 H750 H -0.13165 1.22900 0.09040
 H751 H -0.03523 1.17972 0.06801
 H752 H -0.08634 1.14999 0.08129
 H753 H -0.07393 1.10173 0.08762
 H754 H -0.05345 1.06113 0.06920
 H755 H -0.00880 1.10942 0.01419
 H756 H -0.02924 1.15001 0.03274
 C757 C 0.40179 0.25967 0.91969
 C758 C 0.41500 0.28158 0.93090
 C759 C 0.42357 0.30279 0.91488
 C760 C 0.41937 0.30142 0.88731
 C761 C 0.40674 0.27923 0.87604
 C762 C 0.39767 0.25824 0.89214
 C763 C 0.43714 0.32589 0.92725
 C764 C 0.43269 0.35116 0.91927
 C765 C 0.44455 0.37449 0.93287
 C766 C 0.42874 0.39734 0.93751
 C767 C 0.43919 0.41954 0.95078
 C768 C 0.46594 0.41964 0.95885
 C769 C 0.48207 0.39708 0.95347
 C770 C 0.47136 0.37450 0.94087
 H771 H 0.39527 0.24362 0.93251
 H772 H 0.41819 0.28217 0.95217
 H773 H 0.42622 0.31729 0.87444
 H774 H 0.40379 0.27864 0.85474
 H775 H 0.44940 0.32223 0.94461
 H776 H 0.41813 0.35507 0.90384
 H777 H 0.40809 0.39779 0.93132
 H778 H 0.42642 0.43678 0.95452
 H779 H 0.50275 0.39673 0.95951
 H780 H 0.48405 0.35722 0.93708
 C781 C 0.62680 0.57418 0.77508
 C782 C 0.61799 0.56153 0.79815
 C783 C 0.59268 0.56727 0.80849
 C784 C 0.57594 0.58527 0.79471
 C785 C 0.58475 0.59794 0.77169
 C786 C 0.61036 0.59274 0.76169
 C787 C 0.58425 0.55399 0.83338
 C788 C 0.56649 0.56517 0.85001
 C789 C 0.55789 0.55308 0.87543
 C790 C 0.54522 0.56984 0.89402
 C791 C 0.53573 0.55954 0.91785
 C792 C 0.53853 0.53207 0.92371
 C793 C 0.55137 0.51518 0.90523
 C794 C 0.56090 0.52554 0.88125
 H795 H 0.64666 0.56966 0.76804
 H796 H 0.63118 0.54756 0.80823
 H797 H 0.55588 0.58941 0.80140
 H798 H 0.57130 0.61161 0.76162
 H799 H 0.59422 0.53543 0.83874
 H800 H 0.55856 0.58493 0.84552
 H801 H 0.54252 0.59107 0.89004
 H802 H 0.52595 0.57316 0.93159
 H803 H 0.55365 0.49390 0.90908
 H804 H 0.56996 0.51178 0.86721
 C805 C 0.40638 0.12420 0.72169
 C806 C 0.41813 0.11281 0.69921
 C807 C 0.41075 0.08727 0.69018
 C808 C 0.39116 0.07323 0.70433
 C809 C 0.37938 0.08467 0.72698
 C810 C 0.38696 0.11026 0.73602
 C811 C 0.42455 0.07634 0.66636
 C812 C 0.41650 0.05518 0.65193
 C813 C 0.43060 0.04617 0.62749
 C814 C 0.42874 0.01927 0.61924
 C815 C 0.44188 0.01027 0.59630
 C816 C 0.45701 0.02810 0.58104
 C817 C 0.45840 0.05512 0.58904
 C818 C 0.44525 0.06409 0.61182
 H819 H 0.41262 0.14404 0.72768
 H820 H 0.43310 0.12416 0.68875
 H821 H 0.38514 0.05331 0.69843
 H822 H 0.36465 0.07321 0.73759
 H823 H 0.44231 0.08680 0.66033
 H824 H 0.39935 0.04383 0.65799
 H825 H 0.41730 0.00512 0.63073
 H826 H 0.44025 -0.01064 0.59058
 H827 H 0.46950 0.06953 0.57754
 H828 H 0.44627 0.08523 0.61670
 C829 C 0.14264 0.91255 0.21934
 C830 C 0.13355 0.92464 0.19594
 C831 C 0.10813 0.91905 0.18596
 C832 C 0.09214 0.90062 0.19958
 C833 C 0.10126 0.88844 0.22287
 C834 C 0.12661 0.89426 0.23306
 C835 C 0.09930 0.93185 0.16085
 C836 C 0.07360 0.93631 0.15502
 C837 C 0.06414 0.94834 0.12978
 C838 C 0.03868 0.96010 0.12912
 C839 C 0.02824 0.97035 0.10549
 C840 C 0.04294 0.96884 0.08180
 C841 C 0.06854 0.95724 0.08244
 C842 C 0.07904 0.94705 0.10615
 H843 H 0.16240 0.91727 0.22638
 H844 H 0.14639 0.93851 0.18565
 H845 H 0.07277 0.89510 0.19208
 H846 H 0.08833 0.87449 0.23286
 H847 H 0.11456 0.93871 0.14741
 H848 H 0.05862 0.93180 0.16973
 H849 H 0.02670 0.96117 0.14697
 H850 H 0.00843 0.97907 0.10573
 H851 H 0.08031 0.95559 0.06451
 H852 H 0.09843 0.93748 0.10565
 C853 C 0.89164 0.43190 0.25844
 C854 C 0.90166 0.44454 0.28108
 C855 C 0.91503 0.42961 0.30060
 C856 C 0.91896 0.40187 0.29673
 C857 C 0.90935 0.38930 0.27385
 C858 C 0.89540 0.40416 0.25460
 C859 C 0.92537 0.44357 0.32433
 C860 C 0.92620 0.43202 0.34829
 C861 C 0.93656 0.44590 0.37208
 C862 C 0.92599 0.43970 0.39705
 C863 C 0.93592 0.45190 0.41999
 C864 C 0.95705 0.47010 0.41842
 C865 C 0.96773 0.47618 0.39341
 C866 C 0.95754 0.46428 0.37045
 H867 H 0.88125 0.44391 0.24377
 H868 H 0.89868 0.46599 0.28354
 H869 H 0.92979 0.38995 0.31115
 H870 H 0.91251 0.36789 0.27142
 H871 H 0.93104 0.46439 0.32222
 H872 H 0.91788 0.41221 0.35091
 H873 H 0.90997 0.42542 0.39878
 H874 H 0.92744 0.44664 0.43901
 H875 H 0.98410 0.49003 0.39158
 H876 H 0.96658 0.46895 0.35155
   
