data_POSCAR
  _audit_creation_date              2014-09-24
  _audit_creation_method            'ToBaCCo'
  _symmetry_space_group_name_H-M    'P1'
  _symmetry_Int_Tables_number       1
  _symmetry_cell_setting            triclinic
  loop_
  _symmetry_equiv_pos_as_xyz
 x,y,z
_cell_length_a 57.9665
_cell_length_b 56.0248
_cell_length_c 57.4884
_cell_angle_alpha 91.652900
_cell_angle_beta 88.664400
_cell_angle_gamma 90.008600
loop_
  _atom_site_label
  _atom_site_type_symbol
  _atom_site_fract_x
  _atom_site_fract_y
  _atom_site_fract_z
C1 C 0.61348 0.64194 0.62005
 C2 C 0.63300 0.63082 0.60975
 C3 C 0.64170 0.61025 0.61903
 C4 C 0.63114 0.60068 0.63889
 C5 C 0.61188 0.61157 0.64894
 C6 C 0.60305 0.63243 0.63957
 C7 C 0.60121 0.66201 0.61474
 N8 N 0.58369 0.66499 0.63069
 C9 C 0.58472 0.64697 0.64596
 C10 C 0.60515 0.59834 0.66768
 N11 N 0.62001 0.57964 0.66959
 C12 C 0.63601 0.58114 0.65188
 C13 C 0.66045 0.60325 0.60535
 N14 N 0.66340 0.61918 0.58815
 C15 C 0.64671 0.63613 0.59075
 H16 H 0.60495 0.67378 0.60053
 H17 H 0.57285 0.64448 0.66050
 H18 H 0.59083 0.60275 0.67941
 H19 H 0.64991 0.56866 0.64805
 H20 H 0.67129 0.58784 0.60785
 H21 H 0.64450 0.65103 0.57943
 C22 C 0.88706 0.35564 0.10730
 C23 C 0.86819 0.36705 0.09757
 C24 C 0.85899 0.38747 0.10823
 C25 C 0.86841 0.39663 0.12889
 C26 C 0.88696 0.38529 0.13852
 C27 C 0.89622 0.36455 0.12772
 C28 C 0.89978 0.33584 0.10048
 N29 N 0.91642 0.33218 0.11640
 C30 C 0.91415 0.34981 0.13318
 C31 C 0.89280 0.39834 0.15815
 N32 N 0.87819 0.41724 0.16073
 C33 C 0.86316 0.41628 0.14293
 C34 C 0.84103 0.39477 0.09490
 N35 N 0.83900 0.37915 0.07653
 C36 C 0.85556 0.36214 0.07804
 H37 H 0.89652 0.32466 0.08526
 H38 H 0.92516 0.35249 0.14796
 H39 H 0.90663 0.39431 0.16975
 H40 H 0.84972 0.42923 0.14012
 H41 H 0.83001 0.41009 0.09851
 H42 H 0.85834 0.34738 0.06572
 C43 C 0.38182 0.14854 -0.10662
 C44 C 0.36080 0.13986 -0.09775
 C45 C 0.34988 0.12107 -0.10909
 C46 C 0.35972 0.11085 -0.12956
 C47 C 0.38046 0.11930 -0.13821
 C48 C 0.39153 0.13840 -0.12678
 C49 C 0.39632 0.16654 -0.09926
 N50 N 0.41445 0.16771 -0.11460
 C51 C 0.41164 0.15057 -0.13150
 C52 C 0.38601 0.10586 -0.15794
 N53 N 0.36899 0.08947 -0.16178
 C54 C 0.35281 0.09263 -0.14433
 C55 C 0.33003 0.11621 -0.09652
 N56 N 0.32857 0.13171 -0.07793
 C57 C 0.34729 0.14629 -0.07858
 H58 H 0.39368 0.17821 -0.08410
 H59 H 0.42347 0.14709 -0.14605
 H60 H 0.40109 0.10857 -0.16897
 H61 H 0.33736 0.08208 -0.14189
 H62 H 0.31745 0.10256 -0.10071
 H63 H 0.35098 0.16030 -0.06585
 C64 C 0.11942 0.85014 0.39044
 C65 C 0.14037 0.85881 0.39901
 C66 C 0.15143 0.87756 0.38829
 C67 C 0.14180 0.88773 0.36874
 C68 C 0.12116 0.87923 0.36037
 C69 C 0.11001 0.86012 0.37115
 C70 C 0.10478 0.83227 0.39743
 N71 N 0.08670 0.83080 0.38267
 C72 C 0.08997 0.84793 0.36651
 C73 C 0.11573 0.89273 0.34166
 N74 N 0.13271 0.90922 0.33817
 C75 C 0.14877 0.90604 0.35479
 C76 C 0.17115 0.88242 0.40043
 N77 N 0.17239 0.86697 0.41814
 C78 C 0.15365 0.85242 0.41737
 H79 H 0.10775 0.82076 0.41184
 H80 H 0.07839 0.85196 0.35267
 H81 H 0.10072 0.89004 0.33107
 H82 H 0.16413 0.91668 0.35730
 H83 H 0.18379 0.89604 0.39652
 H84 H 0.14979 0.83844 0.42948
 N85 N 0.09058 0.15351 0.12128
 N86 N 0.08153 0.14465 0.14035
 C87 C 0.06340 0.15822 0.14754
 C88 C 0.06082 0.17635 0.13197
 C89 C 0.07833 0.17277 0.11549
 H90 H 0.05269 0.15506 0.16278
 H91 H 0.08216 0.18369 0.10068
 Cu92 Cu 0.09404 0.11599 0.15365
 Cu93 Cu 0.11820 0.14012 0.10602
 Cu94 Cu 0.14207 0.09028 0.13055
 N95 N 0.10761 0.08796 0.16713
 N96 N 0.12676 0.07843 0.15841
 C97 C 0.13269 0.05978 0.17126
 C98 C 0.11624 0.05732 0.18884
 C99 C 0.10054 0.07548 0.18567
 H100 H 0.14759 0.04851 0.16779
 H101 H 0.08530 0.07943 0.19627
 N102 N 0.15501 0.10486 0.10233
 N103 N 0.14613 0.12405 0.09318
 C104 C 0.15905 0.12991 0.07442
 C105 C 0.17678 0.11351 0.07149
 C106 C 0.17364 0.09786 0.08945
 H107 H 0.15566 0.14482 0.06348
 H108 H 0.18438 0.08269 0.09305
 H109 H 0.11324 0.10550 0.11654
 H110 H 0.13126 0.12529 0.13548
 N111 N 0.40968 0.84505 0.60596
 N112 N 0.41910 0.85439 0.62471
 C113 C 0.43749 0.84113 0.63012
 C114 C 0.43981 0.82257 0.61381
 C115 C 0.42188 0.82568 0.59869
 H116 H 0.44850 0.84477 0.64472
 H117 H 0.41772 0.81441 0.58380
 Cu118 Cu 0.40627 0.88291 0.64016
 Cu119 Cu 0.38194 0.85826 0.59278
 Cu120 Cu 0.35873 0.90899 0.62038
 N121 N 0.39351 0.91168 0.65520
 N122 N 0.37447 0.92134 0.64778
 C123 C 0.36882 0.94031 0.66164
 C124 C 0.38534 0.94284 0.67852
 C125 C 0.40079 0.92440 0.67386
 H126 H 0.35397 0.95164 0.65944
 H127 H 0.41593 0.92034 0.68365
 N128 N 0.34538 0.89384 0.59241
 N129 N 0.35396 0.87431 0.58214
 C130 C 0.34087 0.86822 0.56384
 C131 C 0.32335 0.88484 0.56239
 C132 C 0.32678 0.90083 0.58076
 H133 H 0.34406 0.85308 0.55213
 H134 H 0.31631 0.91627 0.58542
 H135 H 0.38732 0.89303 0.60436
 H136 H 0.36895 0.87388 0.62330
 N137 N 0.89663 0.66988 0.38113
 N138 N 0.90327 0.66094 0.36067
 C139 C 0.92163 0.67333 0.35280
 C140 C 0.92689 0.69079 0.36934
 C141 C 0.91070 0.68804 0.38712
 H142 H 0.93079 0.66968 0.33649
 H143 H 0.90900 0.69879 0.40299
 Cu144 Cu 0.88803 0.63317 0.34700
 Cu145 Cu 0.86952 0.65820 0.39793
 Cu146 Cu 0.83820 0.61336 0.37023
 N147 N 0.87232 0.60541 0.33383
 N148 N 0.85270 0.59788 0.34289
 C149 C 0.84534 0.57883 0.33035
 C150 C 0.86135 0.57396 0.31258
 C151 C 0.87826 0.59120 0.31537
 H152 H 0.82968 0.56904 0.33411
 H153 H 0.89358 0.59340 0.30456
 N154 N 0.82950 0.62702 0.40115
 N155 N 0.84138 0.64410 0.41168
 C156 C 0.83080 0.64997 0.43215
 C157 C 0.81148 0.63573 0.43476
 C158 C 0.81125 0.62131 0.41483
 H159 H 0.83671 0.66358 0.44432
 H160 H 0.79847 0.60798 0.41041
 H161 H 0.86937 0.62357 0.38382
 H162 H 0.85343 0.64710 0.36834
 N163 N 0.60081 0.33464 -0.11627
 N164 N 0.59125 0.34664 -0.13283
 C165 C 0.57202 0.33524 -0.13965
 C166 C 0.56922 0.31510 -0.12647
 C167 C 0.58781 0.31534 -0.11176
 H168 H 0.56075 0.34129 -0.15300
 H169 H 0.59180 0.30220 -0.09905
 Cu170 Cu 0.60444 0.37627 -0.14371
 Cu171 Cu 0.62968 0.34465 -0.10234
 Cu172 Cu 0.65765 0.39252 -0.12726
 N173 N 0.62193 0.40049 -0.15990
 N174 N 0.64295 0.40638 -0.15384
 C175 C 0.65109 0.42319 -0.16815
 C176 C 0.63417 0.42824 -0.18390
 C177 C 0.61588 0.41349 -0.17811
 H178 H 0.66787 0.43149 -0.16690
 H179 H 0.59951 0.41211 -0.18669
 N180 N 0.66956 0.37606 -0.10017
 N181 N 0.65906 0.35760 -0.09088
 C182 C 0.67138 0.35023 -0.07285
 C183 C 0.69045 0.36489 -0.07055
 C184 C 0.68871 0.38109 -0.08814
 H185 H 0.66660 0.33560 -0.06188
 H186 H 0.70061 0.39537 -0.09197
 H187 H 0.62851 0.38060 -0.10961
 H188 H 0.64132 0.36006 -0.13270
 C189 C -0.04541 0.28353 0.09374
 C190 C -0.03324 0.27739 0.11373
 C191 C -0.03921 0.28948 0.13499
 C192 C -0.05566 0.30792 0.13570
 C193 C -0.06743 0.31421 0.11561
 C194 C -0.06222 0.30139 0.09474
 C195 C -0.02887 0.28302 0.15556
 C196 C -0.01300 0.26447 0.15561
 C197 C -0.00623 0.25206 0.13485
 C198 C -0.01570 0.25940 0.11343
 C199 C -0.00691 0.24896 0.09240
 C200 C 0.01012 0.23153 0.09229
 C201 C 0.01856 0.22323 0.11308
 C202 C 0.01014 0.23293 0.13470
 C203 C 0.01822 0.22277 0.15527
 C204 C 0.03441 0.20430 0.15428
 C205 C 0.04333 0.19556 0.13288
 C206 C 0.03533 0.20511 0.11233
 H207 H -0.04272 0.27452 0.07709
 H208 H -0.05985 0.31665 0.15230
 H209 H -0.07056 0.30552 0.07872
 H210 H -0.03329 0.29225 0.17189
 H211 H -0.00573 0.26078 0.17220
 H212 H -0.01231 0.25448 0.07557
 H213 H 0.01656 0.22426 0.07570
 H214 H 0.01197 0.22829 0.17239
 H215 H 0.04022 0.19706 0.17040
 H216 H 0.04178 0.19804 0.09567
 C217 C 0.54265 0.71220 0.65351
 C218 C 0.53418 0.72181 0.63283
 C219 C 0.54223 0.71152 0.61131
 C220 C 0.55869 0.69310 0.61074
 C221 C 0.56701 0.68403 0.63138
 C222 C 0.55870 0.69361 0.65270
 C223 C 0.53375 0.71955 0.59044
 C224 C 0.51710 0.73734 0.59035
 C225 C 0.50853 0.74827 0.61124
 C226 C 0.51784 0.74098 0.63278
 C227 C 0.51081 0.75336 0.65349
 C228 C 0.49485 0.77180 0.65331
 C229 C 0.48486 0.77840 0.63263
 C230 C 0.49125 0.76655 0.61132
 C231 C 0.47978 0.77333 0.59103
 C232 C 0.46312 0.79135 0.59194
 C233 C 0.45739 0.80338 0.61296
 C234 C 0.46837 0.79678 0.63324
 H235 H 0.53695 0.71830 0.67062
 H236 H 0.56470 0.68541 0.59418
 H237 H 0.56488 0.68685 0.66888
 H238 H 0.53992 0.71183 0.57394
 H239 H 0.51166 0.74253 0.57344
 H240 H 0.51774 0.74960 0.67020
 H241 H 0.49012 0.78088 0.66964
 H242 H 0.48292 0.76479 0.57424
 H243 H 0.45485 0.79604 0.57600
 H244 H 0.46374 0.80563 0.64971
 C245 C 1.04498 0.78688 0.40565
 C246 C 1.03088 0.78222 0.38630
 C247 C 1.03656 0.79377 0.36535
 C248 C 1.05481 0.81024 0.36438
 C249 C 1.06863 0.81498 0.38381
 C250 C 1.06350 0.80275 0.40433
 C251 C 1.02414 0.78870 0.34531
 C252 C 1.00648 0.77196 0.34542
 C253 C 1.00002 0.76007 0.36588
 C254 C 1.01168 0.76615 0.38691
 C255 C 1.00346 0.75638 0.40790
 C256 C 0.98493 0.74068 0.40827
 C257 C 0.97428 0.73350 0.38774
 C258 C 0.98195 0.74267 0.36616
 C259 C 0.97145 0.73366 0.34570
 C260 C 0.95378 0.71676 0.34682
 C261 C 0.94576 0.70850 0.36827
 C262 C 0.95607 0.71699 0.38867
 H263 H 1.04250 0.77814 0.42197
 H264 H 1.05873 0.81854 0.34799
 H265 H 1.07334 0.80580 0.41988
 H266 H 1.02831 0.79756 0.32923
 H267 H 0.99771 0.76924 0.32924
 H268 H 1.01057 0.76110 0.42455
 H269 H 0.97907 0.73383 0.42484
 H270 H 0.97686 0.73884 0.32852
 H271 H 0.94618 0.71034 0.33079
 H272 H 0.95029 0.71027 0.40532
 C273 C 0.46067 0.20738 -0.09052
 C274 C 0.47044 0.21742 -0.11084
 C275 C 0.46060 0.21091 -0.13248
 C276 C 0.44249 0.19429 -0.13360
 C277 C 0.43324 0.18442 -0.11334
 C278 C 0.44233 0.19127 -0.09183
 C279 C 0.46875 0.22110 -0.15291
 C280 C 0.48619 0.23808 -0.15240
 C281 C 0.49664 0.24517 -0.13136
 C282 C 0.48930 0.23392 -0.11040
 C283 C 0.50133 0.23921 -0.08980
 C284 C 0.51948 0.25537 -0.08950
 C285 C 0.52605 0.26738 -0.10949
 C286 C 0.51450 0.26281 -0.13064
 C287 C 0.52110 0.27643 -0.15008
 C288 C 0.53870 0.29338 -0.14860
 C289 C 0.55049 0.29722 -0.12786
 C290 C 0.54407 0.28411 -0.10837
 H291 H 0.46643 0.21197 -0.07329
 H292 H 0.43516 0.18943 -0.15025
 H293 H 0.43536 0.18390 -0.07595
 H294 H 0.46139 0.21609 -0.16952
 H295 H 0.49153 0.24488 -0.16900
 H296 H 0.49752 0.23065 -0.07363
 H297 H 0.52833 0.25869 -0.07332
 H298 H 0.51270 0.27484 -0.16656
 H299 H 0.54326 0.30334 -0.16390
 H300 H 0.55278 0.28731 -0.09208
 C301 C 0.15509 -0.04571 0.29764
 C302 C 0.13509 -0.03938 0.28561
 C303 C 0.11400 -0.05024 0.29233
 C304 C 0.11338 -0.06762 0.30947
 C305 C 0.13344 -0.07403 0.32118
 C306 C 0.15420 -0.06250 0.31511
 C307 C 0.09350 -0.04356 0.28208
 C308 C 0.09333 -0.02595 0.26559
 C309 C 0.11390 -0.01473 0.25812
 C310 C 0.13524 -0.02236 0.26751
 C311 C 0.15602 -0.01314 0.25812
 C312 C 0.15598 0.00342 0.24062
 C313 C 0.13529 0.01202 0.23223
 C314 C 0.11392 0.00349 0.24118
 C315 C 0.09347 0.01390 0.23303
 C316 C 0.09432 0.03147 0.21629
 C317 C 0.11547 0.03906 0.20690
 C318 C 0.13590 0.02925 0.21495
 H319 H 0.17166 -0.03763 0.29434
 H320 H 0.09690 -0.07535 0.31425
 H321 H 0.17020 -0.06682 0.32332
 H322 H 0.07729 -0.05186 0.28706
 H323 H 0.07679 -0.02202 0.25845
 H324 H 0.17275 -0.01896 0.26345
 H325 H 0.17237 0.00978 0.23376
 H326 H 0.07655 0.00928 0.23961
 H327 H 0.07829 0.03890 0.21044
 H328 H 0.15237 0.03543 0.20814
 C329 C 0.59765 0.54158 -0.28344
 C330 C 0.61686 0.52696 -0.27907
 C331 C 0.63750 0.53101 -0.29202
 C332 C 0.63833 0.54820 -0.30935
 C333 C 0.61904 0.56256 -0.31373
 C334 C 0.59881 0.55902 -0.30027
 C335 C 0.65736 0.51805 -0.28748
 C336 C 0.65738 0.50146 -0.27000
 C337 C 0.63723 0.49663 -0.25669
 C338 C 0.61639 0.50882 -0.26202
 C339 C 0.59571 0.50216 -0.25047
 C340 C 0.59546 0.48473 -0.23380
 C341 C 0.61581 0.47365 -0.22750
 C342 C 0.63708 0.47968 -0.23851
 C343 C 0.65736 0.46877 -0.23053
 C344 C 0.65636 0.45226 -0.21279
 C345 C 0.63519 0.44585 -0.20257
 C346 C 0.61498 0.45662 -0.21005
 H347 H 0.58155 0.54038 -0.27382
 H348 H 0.65449 0.55092 -0.31869
 H349 H 0.58335 0.56926 -0.30298
 H350 H 0.67321 0.52098 -0.29738
 H351 H 0.67341 0.49218 -0.26777
 H352 H 0.57919 0.50964 -0.25439
 H353 H 0.57913 0.48008 -0.22554
 H354 H 0.67434 0.47297 -0.23725
 H355 H 0.67225 0.44428 -0.20723
 H356 H 0.59855 0.45216 -0.20188
 C357 C 0.34660 1.04500 0.79562
 C358 C 0.36662 1.03876 0.78229
 C359 C 0.38773 1.04942 0.78885
 C360 C 0.38835 1.06655 0.80716
 C361 C 0.36827 1.07290 0.82017
 C362 C 0.34748 1.06155 0.81420
 C363 C 0.40824 1.04279 0.77725
 C364 C 0.40839 1.02541 0.75954
 C365 C 0.38779 1.01440 0.75219
 C366 C 0.36645 1.02201 0.76302
 C367 C 0.34567 1.01303 0.75390
 C368 C 0.34570 0.99669 0.73529
 C369 C 0.36637 0.98808 0.72543
 C370 C 0.38775 0.99640 0.73401
 C371 C 0.40819 0.98598 0.72428
 C372 C 0.40730 0.96855 0.70646
 C373 C 0.38615 0.96112 0.69754
 C374 C 0.36574 0.97100 0.70709
 H375 H 0.33000 1.03704 0.79249
 H376 H 0.40485 1.07413 0.81176
 H377 H 0.33147 1.06582 0.82338
 H378 H 0.42447 1.05094 0.78210
 H379 H 0.42495 1.02150 0.75142
 H380 H 0.32894 1.01887 0.76034
 H381 H 0.32930 0.99050 0.72872
 H382 H 0.42511 0.99047 0.73041
 H383 H 0.42332 0.96106 0.69946
 H384 H 0.34926 0.96494 0.70062
 C385 C 0.90081 0.46117 0.20496
 C386 C 0.88037 0.47218 0.21404
 C387 C 0.85903 0.46378 0.20542
 C388 C 0.85845 0.44587 0.18783
 C389 C 0.87887 0.43549 0.17884
 C390 C 0.89998 0.44314 0.18774
 C391 C 0.83834 0.47323 0.21441
 C392 C 0.83822 0.49072 0.23201
 C393 C 0.85895 0.49989 0.24110
 C394 C 0.88038 0.49100 0.23144
 C395 C 0.90107 0.50154 0.23917
 C396 C 0.90094 0.51980 0.25599
 C397 C 0.88028 0.52804 0.26618
 C398 C 0.85898 0.51800 0.25921
 C399 C 0.83864 0.52641 0.27090
 C400 C 0.83951 0.54435 0.28824
 C401 C 0.86056 0.55465 0.29448
 C402 C 0.88089 0.54632 0.28339
 H403 H 0.91773 0.46579 0.21099
 H404 H 0.84203 0.43967 0.18135
 H405 H 0.91599 0.43537 0.18106
 H406 H 0.82198 0.46693 0.20784
 H407 H 0.82146 0.49710 0.23775
 H408 H 0.91780 0.49648 0.23213
 H409 H 0.91727 0.52747 0.26119
 H410 H 0.82179 0.51930 0.26735
 H411 H 0.82352 0.55037 0.29657
 H412 H 0.89734 0.55380 0.28841
 C413 C 0.28478 0.15501 -0.03401
 C414 C 0.27427 0.13379 -0.02612
 C415 C 0.28284 0.11173 -0.03548
 C416 C 0.30043 0.11122 -0.05270
 C417 C 0.31039 0.13240 -0.06046
 C418 C 0.30258 0.15422 -0.05081
 C419 C 0.27393 0.09027 -0.02755
 C420 C 0.25694 0.09006 -0.01015
 C421 C 0.24771 0.11148 -0.00029
 C422 C 0.25586 0.13368 -0.00907
 C423 C 0.24504 0.15498 -0.00086
 C424 C 0.22728 0.15471 0.01575
 C425 C 0.21992 0.13335 0.02530
 C426 C 0.23027 0.11143 0.01777
 C427 C 0.22292 0.09044 0.02893
 C428 C 0.20573 0.09124 0.04635
 C429 C 0.19512 0.11284 0.05314
 C430 C 0.20231 0.13384 0.04251
 H431 H 0.28000 0.17249 -0.02726
 H432 H 0.30678 0.09425 -0.05976
 H433 H 0.31012 0.17081 -0.05651
 H434 H 0.28034 0.07336 -0.03473
 H435 H 0.25095 0.07269 -0.00522
 H436 H 0.24950 0.17224 -0.00740
 H437 H 0.21936 0.17150 0.02135
 H438 H 0.23041 0.07316 0.02498
 H439 H 0.20057 0.07475 0.05435
 H440 H 0.19453 0.15074 0.04799
 C441 C 0.70460 0.59534 0.54199
 C442 C 0.71499 0.61643 0.53362
 C443 C 0.70844 0.63845 0.54466
 C444 C 0.69139 0.63921 0.56241
 C445 C 0.68101 0.61821 0.57011
 C446 C 0.68798 0.59631 0.55998
 C447 C 0.71893 0.65963 0.53797
 C448 C 0.73607 0.65954 0.52071
 C449 C 0.74306 0.63818 0.50894
 C450 C 0.73174 0.61641 0.51492
 C451 C 0.73713 0.59547 0.50162
 C452 C 0.75325 0.59566 0.48339
 C453 C 0.76511 0.61650 0.47800
 C454 C 0.76061 0.63796 0.49099
 C455 C 0.77406 0.65825 0.48557
 C456 C 0.79066 0.65734 0.46757
 C457 C 0.79434 0.63634 0.45425
 C458 C 0.78154 0.61594 0.45963
 H459 H 0.70917 0.57778 0.53531
 H460 H 0.68640 0.65617 0.57059
 H461 H 0.68024 0.57985 0.56576
 H462 H 0.71394 0.67652 0.54630
 H463 H 0.74305 0.67674 0.51650
 H464 H 0.72864 0.57866 0.50442
 H465 H 0.75658 0.57921 0.47348
 H466 H 0.77252 0.67501 0.49513
 H467 H 0.80039 0.67334 0.46386
 H468 H 0.78463 0.59944 0.44973
 C469 C 0.79842 0.40344 0.03327
 C470 C 0.78856 0.38243 0.02344
 C471 C 0.79557 0.36023 0.03221
 C472 C 0.81236 0.35929 0.04938
 C473 C 0.82205 0.38025 0.05870
 C474 C 0.81480 0.40228 0.05064
 C475 C 0.78571 0.33904 0.02395
 C476 C 0.76865 0.33930 0.00742
 C477 C 0.76104 0.36087 -0.00195
 C478 C 0.77180 0.38270 0.00554
 C479 C 0.76573 0.40398 -0.00540
 C480 C 0.74934 0.40410 -0.02261
 C481 C 0.73792 0.38320 -0.02931
 C482 C 0.74331 0.36132 -0.01887
 C483 C 0.73040 0.34089 -0.02558
 C484 C 0.71331 0.34216 -0.04222
 C485 C 0.70856 0.36370 -0.05288
 C486 C 0.72099 0.38415 -0.04635
 H487 H 0.79358 0.42110 0.02829
 H488 H 0.81755 0.34220 0.05592
 H489 H 0.82203 0.41871 0.05765
 H490 H 0.79109 0.32201 0.03050
 H491 H 0.76213 0.32210 0.00192
 H492 H 0.77377 0.42089 -0.00144
 H493 H 0.74538 0.42086 -0.03062
 H494 H 0.73271 0.32372 -0.01801
 H495 H 0.70392 0.32608 -0.04689
 H496 H 0.71714 0.40104 -0.05415
 C497 C 0.21562 0.84356 0.45922
 C498 C 0.22623 0.86474 0.46778
 C499 C 0.21791 0.88681 0.45985
 C500 C 0.20047 0.88737 0.44333
 C501 C 0.19041 0.86623 0.43489
 C502 C 0.19798 0.84439 0.44314
 C503 C 0.22694 0.90825 0.46850
 C504 C 0.24381 0.90842 0.48523
 C505 C 0.25279 0.88698 0.49368
 C506 C 0.24450 0.86479 0.48413
 C507 C 0.25504 0.84344 0.49092
 C508 C 0.27267 0.84366 0.50685
 C509 C 0.28018 0.86503 0.51711
 C510 C 0.27012 0.88699 0.51103
 C511 C 0.27763 0.90801 0.52287
 C512 C 0.29472 0.90718 0.53953
 C513 C 0.30506 0.88552 0.54489
 C514 C 0.29769 0.86449 0.53358
 H515 H 0.22021 0.82607 0.46489
 H516 H 0.19431 0.90436 0.43738
 H517 H 0.19038 0.82783 0.43687
 H518 H 0.22073 0.92517 0.46241
 H519 H 0.24991 0.92577 0.49078
 H520 H 0.25045 0.82617 0.48375
 H521 H 0.28037 0.82682 0.51135
 H522 H 0.27036 0.92535 0.52003
 H523 H 0.30004 0.92370 0.54806
 H524 H 0.30526 0.84755 0.53796
   
