data_POSCAR
  _audit_creation_date              2014-09-24
  _audit_creation_method            'ToBaCCo'
  _symmetry_space_group_name_H-M    'P1'
  _symmetry_Int_Tables_number       1
  _symmetry_cell_setting            triclinic
  loop_
  _symmetry_equiv_pos_as_xyz
 x,y,z
_cell_length_a 32.4982
_cell_length_b 45.3698
_cell_length_c 31.6749
_cell_angle_alpha 89.924800
_cell_angle_beta 89.804700
_cell_angle_gamma 90.153100
loop_
  _atom_site_label
  _atom_site_type_symbol
  _atom_site_fract_x
  _atom_site_fract_y
  _atom_site_fract_z
O1 O 0.24749 0.27815 0.19418
 O2 O 0.29892 0.22032 0.25631
 O3 O 0.24216 0.22098 0.19782
 O4 O 0.30446 0.27742 0.25144
 O5 O 0.25748 0.28054 0.30165
 O6 O 0.19422 0.22513 0.24681
 O7 O 0.25010 0.22328 0.30475
 O8 O 0.20040 0.28243 0.24408
 Cu9 Cu 0.27803 0.24876 0.21999
 Cu10 Cu 0.22078 0.25329 0.27927
 C11 C 0.21526 0.29034 0.20868
 C12 C 0.28308 0.21179 0.29099
 C13 C 0.20741 0.21339 0.21295
 C14 C 0.29169 0.28861 0.28578
 O15 O 0.74846 0.22300 0.18507
 O16 O 0.68729 0.27306 0.25153
 O17 O 0.74068 0.28008 0.19054
 O18 O 0.69547 0.21633 0.24639
 O19 O 0.74403 0.21952 0.29457
 O20 O 0.79322 0.27945 0.23453
 O21 O 0.73935 0.27691 0.29581
 O22 O 0.79712 0.22228 0.23353
 Cu23 Cu 0.71294 0.24800 0.21366
 Cu24 Cu 0.77346 0.24978 0.26931
 C25 C 0.78287 0.21362 0.19836
 C26 C 0.70306 0.28380 0.28477
 C27 C 0.77519 0.29021 0.20255
 C28 C 0.71167 0.20724 0.28049
 O29 O 0.80093 0.72241 0.74997
 O30 O 0.73883 0.77938 0.69749
 O31 O 0.80210 0.78019 0.74804
 O32 O 0.73815 0.72219 0.70004
 O33 O 0.69680 0.72304 0.75541
 O34 O 0.76033 0.78145 0.80293
 O35 O 0.69707 0.78061 0.75250
 O36 O 0.75989 0.72425 0.80558
 Cu37 Cu 0.77427 0.75102 0.71844
 Cu38 Cu 0.72432 0.75253 0.78459
 C39 C 0.79083 0.71343 0.78659
 C40 C 0.70717 0.78962 0.71588
 C41 C 0.79221 0.79085 0.78377
 C42 C 0.70674 0.71250 0.71965
 O43 O 0.26304 0.71775 0.70399
 O44 O 0.19908 0.77429 0.75509
 O45 O 0.25635 0.77472 0.69643
 O46 O 0.20694 0.71775 0.76206
 O47 O 0.25445 0.72392 0.81076
 O48 O 0.30325 0.78169 0.74570
 O49 O 0.24694 0.78092 0.80351
 O50 O 0.31142 0.72485 0.75171
 Cu51 Cu 0.22661 0.74560 0.72444
 Cu52 Cu 0.28381 0.75337 0.78285
 C53 C 0.29819 0.71173 0.71902
 C54 C 0.21197 0.78712 0.78813
 C55 C 0.28820 0.78798 0.70987
 C56 C 0.22208 0.71104 0.79773
 C57 C 1.02381 0.02596 0.01468
 C58 C 0.98070 0.02334 0.01928
 C59 C 0.95994 0.00001 -0.00030
 C60 C 0.98102 -0.02080 -0.02493
 C61 C 1.02440 -0.01849 -0.02927
 C62 C 1.04503 0.00501 -0.00953
 H63 H 1.07825 0.00656 -0.01199
 H64 H 0.92675 -0.00147 0.00280
 C65 C 0.52488 0.51667 0.53299
 C66 C 0.48135 0.51555 0.53548
 C67 C 0.46035 0.49285 0.51444
 C68 C 0.48132 0.47154 0.49059
 C69 C 0.52487 0.47265 0.48814
 C70 C 0.54587 0.49523 0.50944
 H71 H 0.57921 0.49589 0.50832
 H72 H 0.42700 0.49228 0.51549
 C73 C -0.02317 0.47940 0.02264
 C74 C 0.02027 0.48121 0.02655
 C75 C 0.04174 0.50384 0.00565
 C76 C 0.02090 0.52530 -0.01781
 C77 C -0.02255 0.52464 -0.01925
 C78 C -0.04402 0.50149 0.00021
 H79 H -0.07728 0.50072 -0.00217
 H80 H 0.07503 0.50469 0.00755
 C81 C 0.47719 0.97955 0.52143
 C82 C 0.51971 0.97515 0.51433
 C83 C 0.54107 0.99456 0.48754
 C84 C 0.52114 1.01836 0.46810
 C85 C 0.47880 1.02334 0.47642
 C86 C 0.45740 1.00369 0.50287
 H87 H 0.42491 1.00712 0.50898
 H88 H 0.57362 0.99116 0.48179
 C89 C 1.14618 0.18192 0.21003
 C90 C 1.12281 0.16027 0.18978
 C91 C 1.13577 0.14850 0.15123
 C92 C 1.17277 0.15846 0.13307
 C93 C 1.19654 0.17981 0.15350
 C94 C 1.18356 0.19193 0.19229
 N95 N 1.11118 0.12619 0.13156
 N96 N 1.11788 0.11747 0.09400
 C97 C 1.09378 0.09468 0.07483
 C98 C 1.09826 0.08932 0.03156
 C99 C 1.07529 0.06715 0.01197
 C100 C 1.04765 0.04980 0.03555
 C101 C 1.04381 0.05482 0.07915
 C102 C 1.06634 0.07727 0.09859
 H103 H 1.13505 0.19055 0.23981
 H104 H 1.09438 0.15271 0.20412
 H105 H 1.18353 0.14954 0.10335
 H106 H 1.22502 0.18686 0.13872
 H107 H 1.11945 0.10249 0.01295
 H108 H 1.07894 0.06359 -0.02164
 H109 H 1.02371 0.04117 0.09827
 H110 H 1.06276 0.08071 0.13221
 C111 C 0.64987 0.67503 0.72380
 C112 C 0.62724 0.65187 0.70617
 C113 C 0.63600 0.64193 0.66533
 C114 C 0.66778 0.65549 0.64212
 C115 C 0.69054 0.67851 0.65974
 C116 C 0.68190 0.68853 0.70080
 N117 N 0.61245 0.61808 0.64812
 N118 N 0.61777 0.60936 0.61033
 C119 C 0.59480 0.58556 0.59233
 C120 C 0.59995 0.57942 0.54940
 C121 C 0.57749 0.55683 0.53036
 C122 C 0.54953 0.53990 0.55412
 C123 C 0.54513 0.54553 0.59752
 C124 C 0.56737 0.56838 0.61649
 H125 H 0.64252 0.68218 0.75554
 H126 H 0.60283 0.64161 0.72438
 H127 H 0.67520 0.64821 0.61047
 H128 H 0.71498 0.68843 0.64117
 H129 H 0.62110 0.59245 0.53054
 H130 H 0.58140 0.55286 0.49687
 H131 H 0.52419 0.53245 0.61655
 H132 H 0.56315 0.57259 0.64985
 C133 C -0.22904 0.33553 0.15762
 C134 C -0.21008 0.35882 0.13595
 C135 C -0.16712 0.36093 0.13427
 C136 C -0.14318 0.33980 0.15529
 C137 C -0.16207 0.31701 0.17788
 C138 C -0.20515 0.31456 0.17903
 N139 N -0.14834 0.38493 0.11193
 N140 N -0.11146 0.38333 0.09850
 C141 C -0.09131 0.40751 0.07797
 C142 C -0.05638 0.40199 0.05335
 C143 C -0.03502 0.42521 0.03424
 C144 C -0.04735 0.45453 0.04086
 C145 C -0.08281 0.46000 0.06514
 C146 C -0.10480 0.43666 0.08335
 H147 H -0.26231 0.33419 0.15826
 H148 H -0.22885 0.37507 0.12005
 H149 H -0.10992 0.34119 0.15476
 H150 H -0.14299 0.30105 0.19403
 H151 H -0.04580 0.37960 0.04886
 H152 H -0.00852 0.42029 0.01471
 H153 H -0.09299 0.48238 0.07071
 H154 H -0.13159 0.44142 0.10254
 C155 C 0.30366 0.81056 0.63945
 C156 C 0.32395 0.83152 0.61450
 C157 C 0.34817 0.85341 0.63322
 C158 C 0.35226 0.85401 0.67735
 C159 C 0.33274 0.83269 0.70226
 C160 C 0.30820 0.81079 0.68355
 N161 N 0.36923 0.87423 0.60683
 N162 N 0.38388 0.89817 0.62138
 C163 C 0.40642 0.91842 0.59539
 C164 C 0.41231 0.94735 0.60949
 C165 C 0.43468 0.96749 0.58502
 C166 C 0.45239 0.95860 0.54667
 C167 C 0.44670 0.92958 0.53258
 C168 C 0.42360 0.90964 0.55661
 H169 H 0.28515 0.79380 0.62422
 H170 H 0.32073 0.83077 0.58050
 H171 H 0.37110 0.87060 0.69248
 H172 H 0.33666 0.83340 0.73619
 H173 H 0.39936 0.95431 0.63938
 H174 H 0.43891 0.98981 0.59633
 H175 H 0.46017 0.92244 0.50299
 H176 H 0.41974 0.88731 0.54529
 C177 C -0.16308 0.66949 -0.21757
 C178 C -0.14182 0.64636 -0.19835
 C179 C -0.14135 0.64365 -0.15435
 C180 C -0.16284 0.66421 -0.12959
 C181 C -0.18491 0.68696 -0.14882
 C182 C -0.18513 0.68985 -0.19299
 N183 N -0.11949 0.61963 -0.13559
 N184 N -0.10928 0.61978 -0.09685
 C185 C -0.08835 0.59549 -0.07773
 C186 C -0.06662 0.60017 -0.04026
 C187 C -0.04520 0.57706 -0.02127
 C188 C -0.04613 0.54876 -0.03903
 C189 C -0.06884 0.54379 -0.07593
 C190 C -0.08943 0.56711 -0.09552
 H191 H -0.16303 0.67108 -0.25170
 H192 H -0.12548 0.63059 -0.21775
 H193 H -0.16313 0.66241 -0.09551
 H194 H -0.20164 0.70237 -0.12915
 H195 H -0.06572 0.62190 -0.02619
 H196 H -0.02789 0.58119 0.00730
 H197 H -0.06982 0.52205 -0.08996
 H198 H -0.10640 0.56297 -0.12427
 C199 C 0.27923 1.16912 0.34071
 C200 C 0.29795 1.14647 0.36353
 C201 C 0.34072 1.14312 0.36263
 C202 C 0.36470 1.16237 0.33786
 C203 C 0.34590 1.18453 0.31408
 C204 C 0.30302 1.18821 0.31555
 N205 N 0.35901 1.11961 0.38610
 N206 N 0.39663 1.12023 0.39706
 C207 C 0.41544 1.09611 0.41879
 C208 C 0.45220 1.10089 0.44061
 C209 C 0.47204 1.07752 0.46078
 C210 C 0.45619 1.04872 0.45799
 C211 C 0.41888 1.04408 0.43669
 C212 C 0.39851 1.06760 0.41744
 H213 H 0.24608 1.17140 0.34212
 H214 H 0.27916 1.13165 0.38230
 H215 H 0.39781 1.15995 0.33639
 H216 H 0.36488 1.19903 0.29498
 H217 H 0.46543 1.12280 0.44204
 H218 H 0.50016 1.08184 0.47795
 H219 H 0.40601 1.02211 0.43410
 H220 H 0.37021 1.06339 0.40053
 C221 C 1.14291 -0.19334 -0.19161
 C222 C 1.11832 -0.17282 -0.17048
 C223 C 1.13631 -0.14891 -0.14956
 C224 C 1.17935 -0.14597 -0.14927
 C225 C 1.20401 -0.16694 -0.16934
 C226 C 1.18597 -0.19069 -0.19089
 N227 N 1.11046 -0.12825 -0.12812
 N228 N 1.12240 -0.10206 -0.12055
 C229 C 1.09732 -0.08165 -0.09772
 C230 C 1.10384 -0.05143 -0.10337
 C231 C 1.07974 -0.03098 -0.08160
 C232 C 1.04932 -0.04048 -0.05294
 C233 C 1.04382 -0.07091 -0.04630
 C234 C 1.06711 -0.09134 -0.06907
 H235 H 1.12834 -0.21161 -0.20776
 H236 H 1.08518 -0.17536 -0.17074
 H237 H 1.19387 -0.12779 -0.13292
 H238 H 1.23716 -0.16445 -0.16841
 H239 H 1.12724 -0.04372 -0.12519
 H240 H 1.08475 -0.00769 -0.08725
 H241 H 1.02161 -0.07887 -0.02341
 H242 H 1.06216 -0.11465 -0.06366
 C243 C 0.63580 0.30182 0.31282
 C244 C 0.61277 0.32124 0.33759
 C245 C 0.63221 0.34404 0.35961
 C246 C 0.67527 0.34676 0.35759
 C247 C 0.69846 0.32683 0.33378
 C248 C 0.67885 0.30440 0.31081
 N249 N 0.60770 0.36416 0.38365
 N250 N 0.62058 0.38988 0.39276
 C251 C 0.59653 0.40998 0.41730
 C252 C 0.60447 0.44018 0.41384
 C253 C 0.58091 0.46044 0.43655
 C254 C 0.54954 0.45074 0.46398
 C255 C 0.54266 0.42028 0.46858
 C256 C 0.56547 0.40006 0.44486
 H257 H 0.62003 0.28455 0.29563
 H258 H 0.57963 0.31888 0.33903
 H259 H 0.69093 0.36411 0.37468
 H260 H 0.73161 0.32926 0.33267
 H261 H 0.62846 0.44806 0.39283
 H262 H 0.58696 0.48375 0.43243
 H263 H 0.51961 0.41212 0.49044
 H264 H 0.55933 0.37673 0.44850
 C265 C 0.85100 -0.17523 -0.21912
 C266 C 0.87484 -0.15302 -0.20065
 C267 C 0.86507 -0.14228 -0.16050
 C268 C 0.83079 -0.15385 -0.13896
 C269 C 0.80667 -0.17582 -0.15745
 C270 C 0.81646 -0.18694 -0.19779
 N271 N 0.89019 -0.11965 -0.14228
 N272 N 0.88530 -0.11136 -0.10422
 C273 C 0.90967 -0.08858 -0.08543
 C274 C 0.90544 -0.08329 -0.04215
 C275 C 0.92871 -0.06132 -0.02259
 C276 C 0.95652 -0.04413 -0.04615
 C277 C 0.96024 -0.04908 -0.08980
 C278 C 0.93725 -0.07133 -0.10929
 H279 H 0.85961 -0.18307 -0.25019
 H280 H 0.90117 -0.14426 -0.21760
 H281 H 0.82248 -0.14584 -0.10792
 H282 H 0.78043 -0.18415 -0.13989
 H283 H 0.88421 -0.09639 -0.02349
 H284 H 0.92528 -0.05790 0.01108
 H285 H 0.98094 -0.03575 -0.10875
 H286 H 0.94076 -0.07486 -0.14289
 C287 C 0.35143 0.32365 0.28715
 C288 C 0.37504 0.34517 0.30736
 C289 C 0.36484 0.35450 0.34813
 C290 C 0.33038 0.34215 0.36853
 C291 C 0.30652 0.32080 0.34823
 C292 C 0.31685 0.31126 0.30734
 N293 N 0.38980 0.37651 0.36801
 N294 N 0.38436 0.38398 0.40633
 C295 C 0.40893 0.40611 0.42640
 C296 C 0.40388 0.41085 0.46973
 C297 C 0.42748 0.43209 0.49048
 C298 C 0.45648 0.44904 0.46809
 C299 C 0.46101 0.44468 0.42441
 C300 C 0.43766 0.42319 0.40373
 H301 H 0.36013 0.31685 0.25560
 H302 H 0.40148 0.35455 0.29129
 H303 H 0.32179 0.34907 0.40004
 H304 H 0.28011 0.31167 0.36463
 H305 H 0.38177 0.39789 0.48748
 H306 H 0.42339 0.43514 0.52415
 H307 H 0.48266 0.45787 0.40639
 H308 H 0.44185 0.42008 0.37012
 C309 C 0.21744 0.68233 -0.13672
 C310 C 0.19724 0.66124 -0.11179
 C311 C 0.16225 0.64670 -0.12690
 C312 C 0.14752 0.65352 -0.16738
 C313 C 0.16737 0.67468 -0.19218
 C314 C 0.20263 0.68946 -0.17726
 N315 N 0.14190 0.62535 -0.10071
 N316 N 0.11205 0.61003 -0.11466
 C317 C 0.09037 0.58880 -0.08956
 C318 C 0.06051 0.57132 -0.10906
 C319 C 0.03828 0.55056 -0.08578
 C320 C 0.04505 0.54729 -0.04227
 C321 C 0.07535 0.56462 -0.02267
 C322 C 0.09791 0.58529 -0.04615
 H323 H 0.24441 0.69317 -0.12400
 H324 H 0.20889 0.65620 -0.08063
 H325 H 0.12046 0.64266 -0.17980
 H326 H 0.15489 0.67940 -0.22313
 H327 H 0.05461 0.57374 -0.14252
 H328 H 0.01588 0.53690 -0.10180
 H329 H 0.08119 0.56235 0.01082
 H330 H 0.12088 0.59862 -0.03042
 C331 C 0.71091 1.17385 0.34118
 C332 C 0.69264 1.15084 0.36387
 C333 C 0.65715 1.13701 0.34882
 C334 C 0.64003 1.14633 0.31041
 C335 C 0.65811 1.16945 0.28767
 C336 C 0.69375 1.18366 0.30284
 N337 N 0.63851 1.11425 0.37380
 N338 N 0.60706 1.09991 0.36153
 C339 C 0.58782 1.07796 0.38752
 C340 C 0.55346 1.06280 0.37211
 C341 C 0.53245 1.04262 0.39774
 C342 C 0.54534 1.03762 0.43942
 C343 C 0.58063 1.05206 0.45439
 C344 C 0.60170 1.07213 0.42870
 H345 H 0.73829 1.18408 0.35402
 H346 H 0.70604 1.14387 0.39350
 H347 H 0.61247 1.13600 0.29821
 H348 H 0.64395 1.17623 0.25833
 H349 H 0.54254 1.06703 0.34042
 H350 H 0.50558 1.03142 0.38545
 H351 H 0.59106 1.04849 0.48643
 H352 H 0.62823 1.08353 0.44134
 C353 C 0.20912 0.32152 0.14358
 C354 C 0.18970 0.34369 0.12038
 C355 C 0.15597 0.35875 0.13729
 C356 C 0.14170 0.35138 0.17790
 C357 C 0.16097 0.32913 0.20108
 C358 C 0.19490 0.31394 0.18416
 N359 N 0.13648 0.38108 0.11244
 N360 N 0.10663 0.39633 0.12651
 C361 C 0.08661 0.41827 0.10142
 C362 C 0.05443 0.43451 0.11929
 C363 C 0.03335 0.45542 0.09527
 C364 C 0.04395 0.46014 0.05276
 C365 C 0.07682 0.44431 0.03508
 C366 C 0.09798 0.42347 0.05917
 H367 H 0.23513 0.31024 0.12962
 H368 H 0.20092 0.34914 0.08910
 H369 H 0.11559 0.36267 0.19163
 H370 H 0.14930 0.32386 0.23225
 H371 H 0.04549 0.43078 0.15182
 H372 H 0.00844 0.46767 0.10966
 H373 H 0.08547 0.44762 0.00236
 H374 H 0.12278 0.41120 0.04465
 C375 C 0.65046 0.82703 0.71639
 C376 C 0.62688 0.84852 0.69614
 C377 C 0.63394 0.85540 0.65366
 C378 C 0.66514 0.84057 0.63149
 C379 C 0.68899 0.81924 0.65176
 C380 C 0.68189 0.81221 0.69444
 N381 N 0.60945 0.87773 0.63401
 N382 N 0.61195 0.88339 0.59471
 C383 C 0.58804 0.90612 0.57526
 C384 C 0.58981 0.90954 0.53136
 C385 C 0.56734 0.93181 0.51148
 C386 C 0.54278 0.95106 0.53534
 C387 C 0.54135 0.94778 0.57944
 C388 C 0.56354 0.92537 0.59925
 H389 H 0.64429 0.82218 0.74929
 H390 H 0.60298 0.85985 0.71359
 H391 H 0.67129 0.84557 0.59864
 H392 H 0.71289 0.80819 0.63395
 H393 H 0.60868 0.89491 0.51255
 H394 H 0.56901 0.93398 0.47746
 H395 H 0.52346 0.96281 0.59861
 H396 H 0.56197 0.92337 0.63328
 C397 C 0.80212 0.19158 0.12872
 C398 C 0.82463 0.17142 0.10462
 C399 C 0.85083 0.15122 0.12428
 C400 C 0.85513 0.15184 0.16839
 C401 C 0.83344 0.17246 0.19241
 C402 C 0.80647 0.19234 0.17282
 N403 N 0.87290 0.13044 0.09893
 N404 N 0.88747 0.10685 0.11461
 C405 C 0.91049 0.08627 0.08987
 C406 C 0.91494 0.05738 0.10469
 C407 C 0.93717 0.03674 0.08127
 C408 C 0.95629 0.04505 0.04331
 C409 C 0.95222 0.07406 0.02855
 C410 C 0.92914 0.09452 0.05151
 H411 H 0.78171 0.20680 0.11286
 H412 H 0.82120 0.17122 0.07063
 H413 H 0.87550 0.13658 0.18420
 H414 H 0.83725 0.17257 0.22637
 H415 H 0.90080 0.05082 0.13426
 H416 H 0.94014 0.01443 0.09306
 H417 H 0.96683 0.08075 -0.00073
 H418 H 0.92635 0.11682 0.03967
 C419 C 0.36698 0.69152 0.69872
 C420 C 0.39114 0.67079 0.67744
 C421 C 0.37266 0.64712 0.65640
 C422 C 0.32956 0.64461 0.65621
 C423 C 0.30536 0.66576 0.67646
 C424 C 0.32386 0.68931 0.69806
 N425 N 0.39802 0.62623 0.63478
 N426 N 0.38527 0.60032 0.62664
 C427 C 0.40976 0.57963 0.60365
 C428 C 0.40198 0.54950 0.60863
 C429 C 0.42554 0.52876 0.58680
 C430 C 0.45670 0.53789 0.55877
 C431 C 0.46338 0.56825 0.55263
 C432 C 0.44063 0.58896 0.57547
 H433 H 0.38192 0.70962 0.71491
 H434 H 0.42432 0.67301 0.67765
 H435 H 0.31464 0.62662 0.63981
 H436 H 0.27217 0.66358 0.67556
 H437 H 0.37803 0.54208 0.63003
 H438 H 0.41958 0.50553 0.59199
 H439 H 0.48621 0.57594 0.53018
 H440 H 0.44654 0.61220 0.57054
   
