data_POSCAR
  _audit_creation_date              2014-09-24
  _audit_creation_method            'ToBaCCo'
  _symmetry_space_group_name_H-M    'P1'
  _symmetry_Int_Tables_number       1
  _symmetry_cell_setting            triclinic
  loop_
  _symmetry_equiv_pos_as_xyz
 x,y,z
_cell_length_a 44.0738
_cell_length_b 48.2874
_cell_length_c 25.9060
_cell_angle_alpha 89.879900
_cell_angle_beta 89.928700
_cell_angle_gamma 90.018800
loop_
  _atom_site_label
  _atom_site_type_symbol
  _atom_site_fract_x
  _atom_site_fract_y
  _atom_site_fract_z
C1 C 1.27793 0.22092 0.25733
 C2 C 1.25161 0.23403 0.23889
 C3 C 1.22762 0.21789 0.21993
 C4 C 1.22965 0.18903 0.21970
 C5 C 1.25575 0.17599 0.23855
 C6 C 1.27992 0.19192 0.25753
 C7 C 1.24845 0.26448 0.24067
 C8 C 1.27164 0.28183 0.22192
 C9 C 1.26769 0.31065 0.22195
 C10 C 1.24089 0.32215 0.24128
 C11 C 1.21793 0.30502 0.26034
 C12 C 1.22161 0.27631 0.26004
 H13 H 1.29639 0.23323 0.27276
 H14 H 1.20730 0.22781 0.20528
 H15 H 1.29228 0.27291 0.20634
 H16 H 1.20369 0.26319 0.27513
 H17 H 1.25708 0.15355 0.23892
 H18 H 1.23781 0.34446 0.24138
 C19 C 0.77638 -0.27751 0.27233
 C20 C 0.74997 -0.26603 0.25062
 C21 C 0.72688 -0.28371 0.23281
 C22 C 0.73049 -0.31248 0.23612
 C23 C 0.75681 -0.32366 0.25766
 C24 C 0.77973 -0.30623 0.27576
 C25 C 0.74719 -0.23564 0.24537
 C26 C 0.77185 -0.22015 0.22673
 C27 C 0.77009 -0.19132 0.22349
 C28 C 0.74356 -0.17767 0.23881
 C29 C 0.71875 -0.19295 0.25730
 C30 C 0.72049 -0.22189 0.26027
 H31 H 0.79424 -0.26410 0.28656
 H32 H 0.70661 -0.27516 0.21530
 H33 H 0.79248 -0.23054 0.21472
 H34 H 0.70148 -0.23359 0.27554
 H35 H 0.75955 -0.34598 0.25983
 H36 H 0.74235 -0.15526 0.23696
 C37 C 0.77289 0.22094 -0.21940
 C38 C 0.74917 0.23699 -0.23977
 C39 C 0.72280 0.22379 -0.25777
 C40 C 0.72053 0.19484 -0.25618
 C41 C 0.74440 0.17903 -0.23593
 C42 C 0.77056 0.19212 -0.21750
 C43 C 0.75273 0.26736 -0.24382
 C44 C 0.77997 0.27854 -0.26313
 C45 C 0.78399 0.30721 -0.26565
 C46 C 0.76094 0.32491 -0.24894
 C47 C 0.73380 0.31405 -0.22975
 C48 C 0.72952 0.28531 -0.22743
 H49 H 0.79327 0.23091 -0.20513
 H50 H 0.70455 0.23591 -0.27437
 H51 H 0.79790 0.26491 -0.27642
 H52 H 0.70858 0.27698 -0.21184
 H53 H 0.74279 0.15662 -0.23515
 H54 H 0.76414 0.34720 -0.25056
 C55 C 1.27247 -0.28200 -0.22483
 C56 C 1.24962 -0.26447 -0.24404
 C57 C 1.22340 -0.27610 -0.26601
 C58 C 1.22001 -0.30480 -0.26837
 C59 C 1.24262 -0.32212 -0.24893
 C60 C 1.26879 -0.31081 -0.22705
 C61 C 1.25247 -0.23407 -0.24014
 C62 C 1.27925 -0.22054 -0.25535
 C63 C 1.28101 -0.19158 -0.25386
 C64 C 1.25613 -0.17606 -0.23652
 C65 C 1.22952 -0.18952 -0.22087
 C66 C 1.22775 -0.21836 -0.22265
 H67 H 1.29261 -0.27324 -0.20721
 H68 H 1.20573 -0.26285 -0.28140
 H69 H 1.29831 -0.23244 -0.26978
 H70 H 1.20704 -0.22861 -0.21044
 H71 H 1.23971 -0.34443 -0.25057
 H72 H 1.25735 -0.15363 -0.23583
 C73 C 0.21752 0.27191 0.73301
 C74 C 0.23484 0.24983 0.75285
 C75 C 0.21988 0.22610 0.77183
 C76 C 0.18804 0.22477 0.77149
 C77 C 0.17117 0.24687 0.75154
 C78 C 0.18582 0.27036 0.73227
 C79 C 0.26840 0.25209 0.75479
 C80 C 0.28198 0.27646 0.77332
 C81 C 0.31361 0.27920 0.77440
 C82 C 0.33197 0.25749 0.75647
 C83 C 0.31868 0.23305 0.73782
 C84 C 0.28697 0.23033 0.73740
 H85 H 0.22870 0.29022 0.71793
 H86 H 0.23293 0.20911 0.78787
 H87 H 0.26785 0.29324 0.78732
 H88 H 0.27676 0.21156 0.72249
 H89 H 0.14656 0.24591 0.75131
 H90 H 0.35648 0.25959 0.75681
 C91 C 0.71043 0.77003 0.73075
 C92 C 0.72923 0.74793 0.74593
 C93 C 0.71589 0.72332 0.76410
 C94 C 0.68430 0.72062 0.76691
 C95 C 0.66567 0.74267 0.75119
 C96 C 0.67869 0.76740 0.73297
 C97 C 0.76277 0.75008 0.74203
 C98 C 0.77825 0.77354 0.76076
 C99 C 0.81007 0.77465 0.75882
 C100 C 0.82642 0.75263 0.73761
 C101 C 0.81129 0.72939 0.71862
 C102 C 0.77960 0.72806 0.72084
 H103 H 0.72051 0.78898 0.71614
 H104 H 0.73020 0.70628 0.77648
 H105 H 0.76570 0.79047 0.77797
 H106 H 0.76806 0.70991 0.70605
 H107 H 0.64117 0.74054 0.75294
 H108 H 0.85102 0.75344 0.73645
 C109 C 0.71838 0.27833 0.23334
 C110 C 0.73171 0.25363 0.25097
 C111 C 0.71289 0.23185 0.26776
 C112 C 0.68122 0.23489 0.26758
 C113 C 0.66821 0.25968 0.24986
 C114 C 0.68682 0.28138 0.23261
 C115 C 0.76523 0.25099 0.25239
 C116 C 0.78299 0.27283 0.27189
 C117 C 0.81467 0.27094 0.27192
 C118 C 0.82884 0.24734 0.25239
 C119 C 0.81153 0.22551 0.23284
 C120 C 0.77975 0.22716 0.23310
 H121 H 0.73260 0.29515 0.21966
 H122 H 0.72289 0.21280 0.28196
 H123 H 0.77219 0.29124 0.28719
 H124 H 0.76645 0.21034 0.21721
 H125 H 0.64375 0.26208 0.24960
 H126 H 0.85342 0.24606 0.25198
 C127 C 0.21986 0.77477 0.23637
 C128 C 0.23564 0.75139 0.25485
 C129 C 0.21917 0.72920 0.27641
 C130 C 0.18746 0.73027 0.27927
 C131 C 0.17200 0.75343 0.26045
 C132 C 0.18803 0.77562 0.23882
 C133 C 0.26914 0.74945 0.25013
 C134 C 0.28799 0.77139 0.26584
 C135 C 0.31969 0.76884 0.26300
 C136 C 0.33263 0.74443 0.24355
 C137 C 0.31398 0.72259 0.22726
 C138 C 0.28242 0.72514 0.23075
 H139 H 0.23225 0.79178 0.21890
 H140 H 0.23106 0.71113 0.29091
 H141 H 0.27802 0.79012 0.28142
 H142 H 0.26814 0.70818 0.21803
 H143 H 0.14737 0.75403 0.26203
 H144 H 0.35710 0.74237 0.24137
 O145 O 0.94600 -0.04000 -0.09456
 O146 O 0.97335 -0.07102 -0.04577
 C147 C 0.95332 -0.06494 -0.08069
 O148 O 1.05559 0.03706 -0.08877
 O149 O 1.02583 0.06770 -0.04361
 C150 C 1.04772 0.06187 -0.07530
 O151 O 1.05250 -0.03983 -0.09438
 O152 O 1.02538 -0.07095 -0.04526
 C153 C 1.04544 -0.06475 -0.08016
 O154 O 0.94292 0.03692 -0.08827
 O155 O 0.97167 0.06768 -0.04156
 C156 C 0.95009 0.06171 -0.07372
 Zr157 Zr 0.96124 -0.00154 -0.06536
 O158 O 0.96488 -0.00020 -0.14676
 O159 O 0.91325 -0.00254 -0.06214
 Zr160 Zr 1.03736 -0.00146 -0.06530
 O161 O 1.03404 -0.00015 -0.14673
 O162 O 1.08533 -0.00245 -0.06157
 O163 O 0.99929 -0.02645 -0.07539
 O164 O 0.99929 0.02304 -0.07425
 O165 O 0.94347 0.03705 0.08849
 O166 O 0.97319 0.06801 0.04351
 C167 C 0.95142 0.06197 0.07534
 O168 O 1.05226 -0.04098 0.09325
 O169 O 1.02461 -0.07154 0.04428
 C170 C 1.04473 -0.06578 0.07914
 O171 O 1.05571 0.03599 0.08877
 O172 O 1.02704 0.06726 0.04302
 C173 C 1.04862 0.06093 0.07493
 O174 O 0.94560 -0.04031 0.09320
 O175 O 0.97282 -0.07121 0.04412
 C176 C 0.95266 -0.06517 0.07888
 Zr177 Zr 0.96088 -0.00176 0.06466
 O178 O 0.95948 0.00064 0.14619
 O179 O 0.91307 -0.00256 0.05833
 Zr180 Zr 1.03735 -0.00217 0.06483
 O181 O 1.03805 0.00027 0.14640
 O182 O 1.08520 -0.00348 0.05910
 Zr183 Zr 0.99908 -0.04332 -0.00041
 Zr184 Zr 0.99935 0.03980 0.00041
 O185 O 0.99926 0.02222 0.07468
 O186 O 0.99898 -0.02684 0.07488
 O187 O 0.95531 0.02301 -0.00012
 O188 O 1.04278 -0.02600 -0.00046
 O189 O 0.95548 -0.02584 -0.00050
 O190 O 1.04328 0.02284 0.00006
 H191 H 0.99919 0.03582 -0.10423
 H192 H 1.06081 -0.03825 -0.00046
 H193 H 0.99938 0.03470 0.10501
 H194 H 0.93740 -0.03803 -0.00080
 H195 H 1.09291 -0.00277 -0.09758
 H196 H 1.09298 -0.00398 0.09497
 H197 H 1.02498 -0.01478 0.15976
 H198 H 0.97319 -0.01386 0.15969
 H199 H 0.90512 -0.00263 0.09414
 H200 H 0.90582 -0.00290 -0.09821
 H201 H 0.94392 0.00052 -0.16042
 H202 H 1.05505 0.00039 -0.16027
 O203 O 0.94826 0.46095 0.40511
 O204 O 0.97583 0.43036 0.45446
 C205 C 0.95586 0.43614 0.41934
 O206 O 1.05755 0.53862 0.41060
 O207 O 1.02815 0.56915 0.45668
 C208 C 1.04983 0.56340 0.42460
 O209 O 1.05418 0.46153 0.40458
 O210 O 1.02711 0.43063 0.45414
 C211 C 1.04678 0.43665 0.41866
 O212 O 0.94509 0.53815 0.41027
 O213 O 0.97407 0.56900 0.45637
 C214 C 0.95263 0.56300 0.42414
 Zr215 Zr 0.96316 0.49962 0.43395
 O216 O 0.96657 0.50068 0.35250
 O217 O 0.91519 0.49848 0.43753
 Zr218 Zr 1.03934 0.50002 0.43401
 O219 O 1.03609 0.50131 0.35256
 O220 O 1.08731 0.49902 0.43762
 O221 O 1.00138 0.47494 0.42420
 O222 O 1.00115 0.52431 0.42480
 O223 O 0.94456 0.53793 0.58788
 O224 O 0.97374 0.56882 0.54206
 C225 C 0.95211 0.56281 0.57407
 O226 O 1.05454 0.46101 0.59284
 O227 O 1.02723 0.43030 0.54361
 C228 C 1.04712 0.43616 0.57873
 O229 O 1.05675 0.53839 0.58840
 O230 O 1.02744 0.56911 0.54252
 C231 C 1.04886 0.56320 0.57483
 O232 O 0.94856 0.46083 0.59361
 O233 O 0.97598 0.43026 0.54430
 C234 C 0.95621 0.43604 0.57966
 Zr235 Zr 0.96287 0.49955 0.56406
 O236 O 0.96138 0.50233 0.64554
 O237 O 0.91509 0.49802 0.55750
 Zr238 Zr 1.03943 0.49977 0.56413
 O239 O 1.04065 0.50229 0.64567
 O240 O 1.08725 0.49898 0.55771
 Zr241 Zr 1.00140 0.45829 0.49933
 Zr242 Zr 1.00100 0.54127 0.49928
 O243 O 1.00102 0.52384 0.57372
 O244 O 1.00126 0.47491 0.57449
 O245 O 0.95707 0.52423 0.49899
 O246 O 1.04502 0.47573 0.49901
 O247 O 0.95761 0.47535 0.49910
 O248 O 1.04510 0.52460 0.49916
 H249 H 1.00120 0.53703 0.39471
 H250 H 1.06302 0.46345 0.49879
 H251 H 1.00081 0.53629 0.60408
 H252 H 0.93974 0.46291 0.49917
 H253 H 1.09485 0.49854 0.40160
 H254 H 1.09515 0.49871 0.59351
 H255 H 1.02742 0.48742 0.65931
 H256 H 0.97569 0.48839 0.65927
 H257 H 0.90708 0.49754 0.59327
 H258 H 0.90771 0.49815 0.40150
 H259 H 0.94557 0.50126 0.33898
 H260 H 1.05710 0.50197 0.33905
 O261 O 0.55376 -0.03815 0.59479
 O262 O 0.52620 -0.06870 0.54559
 C263 C 0.54612 -0.06302 0.58085
 O264 O 0.44455 0.03940 0.59098
 O265 O 0.47359 0.07021 0.54458
 C266 C 0.45229 0.06433 0.57743
 O267 O 0.44753 -0.03781 0.59544
 O268 O 0.47425 -0.06863 0.54528
 C269 C 0.45465 -0.06267 0.58103
 O270 O 0.55673 0.03908 0.58960
 O271 O 0.52785 0.07013 0.54350
 C272 C 0.54929 0.06401 0.57587
 Zr273 Zr 0.53864 0.00063 0.56577
 O274 O 0.53535 0.00141 0.64724
 O275 O 0.58661 -0.00037 0.56196
 Zr276 Zr 0.46241 0.00079 0.56634
 O277 O 0.46580 0.00155 0.64779
 O278 O 0.41445 -0.00012 0.56275
 O279 O 0.50052 -0.02426 0.57573
 O280 O 0.50058 0.02516 0.57535
 O281 O 0.55534 0.04006 0.41005
 O282 O 0.52616 0.07057 0.45656
 C283 C 0.54740 0.06490 0.42357
 O284 O 0.44687 -0.03792 0.40734
 O285 O 0.47478 -0.06864 0.45563
 C286 C 0.45468 -0.06283 0.42075
 O287 O 0.44407 0.03931 0.41238
 O288 O 0.47287 0.07026 0.45853
 C289 C 0.45146 0.06419 0.42611
 O290 O 0.55282 -0.03717 0.40526
 O291 O 0.52651 -0.06836 0.45541
 C292 C 0.54592 -0.06214 0.41951
 Zr293 Zr 0.53858 0.00121 0.43587
 O294 O 0.54271 0.00220 0.35458
 O295 O 0.58621 0.00070 0.44525
 Zr296 Zr 0.46196 0.00083 0.43635
 O297 O 0.46061 0.00337 0.35479
 O298 O 0.41417 -0.00026 0.44319
 Zr299 Zr 0.50046 -0.04076 0.50058
 Zr300 Zr 0.50034 0.04247 0.50100
 O301 O 0.50011 0.02520 0.42654
 O302 O 0.50034 -0.02367 0.42554
 O303 O 0.54443 0.02572 0.50086
 O304 O 0.45676 -0.02344 0.50132
 O305 O 0.54414 -0.02339 0.50053
 O306 O 0.45634 0.02554 0.50142
 H307 H 0.50069 0.03774 0.60553
 H308 H 0.43876 -0.03575 0.50136
 H309 H 0.49979 0.03775 0.39624
 H310 H 0.56206 -0.03577 0.50041
 H311 H 0.40693 -0.00065 0.59879
 H312 H 0.40614 -0.00055 0.40747
 H313 H 0.47372 -0.01158 0.34119
 H314 H 0.52213 0.00519 0.34066
 H315 H 0.59488 0.00005 0.40997
 H316 H 0.59415 -0.00087 0.59795
 H317 H 0.55636 0.00205 0.66067
 H318 H 0.44480 0.00209 0.66140
 O319 O 0.54207 0.54835 0.09420
 O320 O 0.57613 0.52400 0.04450
 C321 C 0.56937 0.54194 0.07991
 O322 O 0.45816 0.44835 0.08648
 O323 O 0.42404 0.47502 0.04127
 C324 C 0.43086 0.45508 0.07281
 O325 O 0.54218 0.45130 0.09184
 O326 O 0.57621 0.47640 0.04320
 C327 C 0.56947 0.45774 0.07766
 O328 O 0.45798 0.55136 0.08853
 O329 O 0.42388 0.52551 0.04181
 C330 C 0.43071 0.54514 0.07412
 Zr331 Zr 0.49992 0.53467 0.06501
 O332 O 0.49865 0.53064 0.14632
 O333 O 0.50097 0.57851 0.06314
 Zr334 Zr 0.50018 0.46540 0.06333
 O335 O 0.49903 0.46801 0.14482
 O336 O 0.50143 0.42164 0.05888
 O337 O 0.52748 0.50007 0.07395
 O338 O 0.47304 0.49986 0.07341
 O339 O 0.45748 0.55151 -0.08972
 O340 O 0.42373 0.52489 -0.04353
 C341 C 0.43030 0.54459 -0.07572
 O342 O 0.54289 0.45309 -0.09573
 O343 O 0.57658 0.47809 -0.04663
 C344 C 0.57009 0.45991 -0.08169
 O345 O 0.45870 0.44923 -0.09034
 O346 O 0.42423 0.47473 -0.04374
 C347 C 0.43134 0.45516 -0.07597
 O348 O 0.54146 0.55007 -0.09435
 O349 O 0.57589 0.52549 -0.04592
 C350 C 0.56885 0.54405 -0.08033
 Zr351 Zr 0.49971 0.53589 -0.06486
 O352 O 0.49971 0.53995 -0.14620
 O353 O 0.49974 0.57931 -0.05443
 Zr354 Zr 0.50041 0.46627 -0.06672
 O355 O 0.49776 0.46648 -0.14830
 O356 O 0.50212 0.42255 -0.06239
 Zr357 Zr 0.54573 0.50084 -0.00117
 Zr358 Zr 0.45433 0.50025 -0.00099
 O359 O 0.47333 0.50088 -0.07539
 O360 O 0.52726 0.50138 -0.07624
 O361 O 0.47273 0.54046 0.00019
 O362 O 0.52683 0.46094 -0.00185
 O363 O 0.52637 0.54053 0.00006
 O364 O 0.47336 0.46031 -0.00182
 H365 H 0.45904 0.49966 0.10338
 H366 H 0.54027 0.44450 -0.00233
 H367 H 0.45931 0.50069 -0.10524
 H368 H 0.53969 0.55705 0.00057
 H369 H 0.50175 0.41450 0.09475
 H370 H 0.50273 0.41579 -0.09849
 H371 H 0.51375 0.47918 -0.16106
 H372 H 0.49107 0.52274 -0.16056
 H373 H 0.50049 0.58754 -0.08948
 H374 H 0.50162 0.58496 0.09940
 H375 H 0.49796 0.54964 0.16055
 H376 H 0.49826 0.44876 0.15803
 C377 C 1.13287 0.13220 0.09638
 C378 C 1.13063 0.15714 0.13379
 C379 C 1.15681 0.14481 0.16557
 C380 C 1.15940 0.12018 0.12846
 C381 C 1.11038 0.11625 0.13069
 C382 C 1.13660 0.10400 0.16248
 C383 C 1.10770 0.14087 0.16780
 C384 C 1.13432 0.12886 0.19987
 C385 C 1.18298 0.16026 0.18495
 C386 C 1.20446 0.17307 0.20085
 C387 C 1.08583 0.09879 0.11112
 C388 C 1.06751 0.08255 0.09473
 H389 H 1.13192 0.13345 0.05361
 H390 H 1.12854 0.17920 0.12218
 H391 H 1.18091 0.11180 0.11255
 H392 H 1.13877 0.08195 0.17414
 H393 H 1.08616 0.14921 0.18366
 H394 H 1.13528 0.12760 0.24263
 C395 C 1.09895 0.64449 0.67626
 C396 C 1.12833 0.63443 0.70322
 C397 C 1.14667 0.65523 0.67088
 C398 C 1.11774 0.66567 0.64422
 C399 C 1.10414 0.62284 0.63386
 C400 C 1.12246 0.64363 0.60144
 C401 C 1.13313 0.61256 0.66055
 C402 C 1.15173 0.63355 0.62848
 C403 C 1.17164 0.67146 0.69189
 C404 C 1.19329 0.68311 0.70973
 C405 C 1.08221 0.60318 0.61326
 C406 C 1.06599 0.58551 0.59598
 H407 H 1.07694 0.64872 0.69558
 H408 H 1.13108 0.63086 0.74531
 H409 H 1.11179 0.68775 0.63781
 H410 H 1.11971 0.64714 0.55933
 H411 H 1.13921 0.59052 0.66707
 H412 H 1.17370 0.62924 0.60908
 C413 C 0.62917 0.13901 0.60819
 C414 C 0.62346 0.16375 0.64506
 C415 C 0.64860 0.15276 0.68071
 C416 C 0.65462 0.12834 0.64418
 C417 C 0.60606 0.12181 0.63902
 C418 C 0.63124 0.11093 0.67469
 C419 C 0.59991 0.14621 0.67553
 C420 C 0.62549 0.13555 0.71153
 C421 C 0.67329 0.16884 0.70378
 C422 C 0.69444 0.18111 0.72235
 C423 C 0.58373 0.10304 0.61604
 C424 C 0.56700 0.08604 0.59745
 H425 H 0.63041 0.14027 0.56544
 H426 H 0.62057 0.18569 0.63314
 H427 H 0.67735 0.12112 0.63152
 H428 H 0.63424 0.08901 0.68667
 H429 H 0.57715 0.15336 0.68811
 H430 H 0.62425 0.13427 0.75427
 C431 C 0.65450 0.58883 0.18828
 C432 C 0.68032 0.60315 0.15752
 C433 C 0.66979 0.63128 0.17865
 C434 C 0.64434 0.61729 0.20974
 C435 C 0.63335 0.59306 0.14191
 C436 C 0.62286 0.62120 0.16305
 C437 C 0.65880 0.60705 0.11082
 C438 C 0.64863 0.63549 0.13230
 C439 C 0.69033 0.65233 0.19903
 C440 C 0.70803 0.66897 0.21587
 C441 C 0.61216 0.57276 0.12087
 C442 C 0.59340 0.55758 0.10267
 H443 H 0.65670 0.56940 0.21094
 H444 H 0.70424 0.59603 0.15546
 H445 H 0.63858 0.62183 0.25058
 H446 H 0.59895 0.62835 0.16512
 H447 H 0.66454 0.60253 0.06996
 H448 H 0.64641 0.65490 0.10960
 C449 C 0.87249 -0.14009 0.10408
 C450 C 0.87334 -0.16180 0.14827
 C451 C 0.84468 -0.14858 0.17144
 C452 C 0.84346 -0.12718 0.12758
 C453 C 0.89182 -0.12057 0.13731
 C454 C 0.86310 -0.10745 0.16052
 C455 C 0.89312 -0.14195 0.18120
 C456 C 0.86399 -0.12906 0.20467
 C457 C 0.81798 -0.16361 0.19012
 C458 C 0.79597 -0.17598 0.20534
 C459 C 0.91650 -0.10325 0.11755
 C460 C 0.93459 -0.08697 0.10036
 H461 H 0.87633 -0.14450 0.06254
 H462 H 0.87718 -0.18436 0.14343
 H463 H 0.82279 -0.12122 0.10580
 H464 H 0.85915 -0.08490 0.16542
 H465 H 0.91383 -0.14786 0.20292
 H466 H 0.86013 -0.12462 0.24619
 C467 C 0.90219 0.36324 0.69626
 C468 C 0.86880 0.37232 0.70398
 C469 C 0.85826 0.34513 0.67914
 C470 C 0.89125 0.33565 0.67173
 C471 C 0.90180 0.37671 0.64254
 C472 C 0.89133 0.34953 0.61757
 C473 C 0.86877 0.38601 0.65008
 C474 C 0.85797 0.35864 0.62546
 C475 C 0.83255 0.32940 0.69923
 C476 C 0.81015 0.31823 0.71569
 C477 C 0.92397 0.39610 0.62137
 C478 C 0.93996 0.41368 0.60290
 H479 H 0.92068 0.36535 0.72504
 H480 H 0.85922 0.38152 0.73971
 H481 H 0.90010 0.31469 0.68087
 H482 H 0.90093 0.34040 0.58181
 H483 H 0.85973 0.40692 0.64096
 H484 H 0.83951 0.35659 0.59659
 C485 C 0.37860 -0.14027 0.61705
 C486 C 0.38279 -0.16195 0.66073
 C487 C 0.35484 -0.14993 0.68827
 C488 C 0.35033 -0.12857 0.64495
 C489 C 0.39858 -0.11995 0.64739
 C490 C 0.37057 -0.10806 0.67497
 C491 C 0.40321 -0.14128 0.69073
 C492 C 0.37480 -0.12962 0.71862
 C493 C 0.32941 -0.16557 0.71016
 C494 C 0.30766 -0.17768 0.72715
 C495 C 0.42124 -0.10160 0.62409
 C496 C 0.43781 -0.08474 0.60450
 H497 H 0.38045 -0.14448 0.57506
 H498 H 0.38749 -0.18432 0.65516
 H499 H 0.32835 -0.12345 0.62637
 H500 H 0.36576 -0.08570 0.68062
 H501 H 0.42524 -0.14633 0.70920
 H502 H 0.37293 -0.12538 0.76060
 C503 C 0.34713 0.38296 0.09519
 C504 C 0.35612 0.35829 0.13031
 C505 C 0.32871 0.36459 0.16495
 C506 C 0.31936 0.38894 0.13015
 C507 C 0.36628 0.40227 0.12913
 C508 C 0.33887 0.40858 0.16375
 C509 C 0.37561 0.37791 0.16391
 C510 C 0.34787 0.38391 0.19885
 C511 C 0.30751 0.34399 0.18527
 C512 C 0.28931 0.32780 0.20236
 C513 C 0.38793 0.42262 0.10931
 C514 C 0.40685 0.43827 0.09283
 H515 H 0.34704 0.38288 0.05233
 H516 H 0.36297 0.33740 0.11686
 H517 H 0.29595 0.39318 0.11646
 H518 H 0.33202 0.42948 0.17718
 H519 H 0.39901 0.37366 0.17761
 H520 H 0.34797 0.38399 0.24170
 C521 C 0.88984 0.13623 -0.17674
 C522 C 0.85867 0.12434 -0.19319
 C523 C 0.84283 0.14735 -0.16247
 C524 C 0.87359 0.15957 -0.14630
 C525 C 0.88884 0.11799 -0.12815
 C526 C 0.87301 0.14099 -0.09736
 C527 C 0.85803 0.10586 -0.14436
 C528 C 0.84187 0.12909 -0.11390
 C529 C 0.81689 0.16317 -0.18180
 C530 C 0.79558 0.17615 -0.19794
 C531 C 0.91315 0.10011 -0.10896
 C532 C 0.93131 0.08359 -0.09297
 H533 H 0.90986 0.13900 -0.20228
 H534 H 0.85243 0.11760 -0.23273
 H535 H 0.87964 0.18188 -0.14733
 H536 H 0.87925 0.14767 -0.05779
 H537 H 0.85189 0.08357 -0.14340
 H538 H 0.82187 0.12628 -0.08833
 C539 C 0.87805 0.64302 0.40104
 C540 C 0.88196 0.66524 0.35816
 C541 C 0.85267 0.65474 0.33279
 C542 C 0.84841 0.63288 0.37530
 C543 C 0.89597 0.62245 0.36770
 C544 C 0.86663 0.61211 0.34229
 C545 C 0.90036 0.64428 0.32518
 C546 C 0.87062 0.63416 0.29953
 C547 C 0.82730 0.67090 0.31286
 C548 C 0.80532 0.68242 0.29578
 C549 C 0.91836 0.60283 0.38718
 C550 C 0.93499 0.58522 0.40367
 H551 H 0.88144 0.64640 0.44302
 H552 H 0.88788 0.68733 0.36442
 H553 H 0.82679 0.62837 0.39569
 H554 H 0.86057 0.59006 0.33594
 H555 H 0.92202 0.64870 0.30486
 H556 H 0.86724 0.63071 0.25757
 C557 C 0.39722 0.13669 0.31041
 C558 C 0.36541 0.12590 0.29486
 C559 C 0.35103 0.15150 0.32005
 C560 C 0.38245 0.16264 0.33527
 C561 C 0.39420 0.12141 0.36224
 C562 C 0.37985 0.14701 0.38753
 C563 C 0.36274 0.11040 0.34694
 C564 C 0.34808 0.13620 0.37186
 C565 C 0.32603 0.16714 0.29675
 C566 C 0.30469 0.17909 0.27804
 C567 C 0.41682 0.10303 0.38559
 C568 C 0.43372 0.08620 0.40441
 H569 H 0.41771 0.13673 0.28545
 H570 H 0.35921 0.11734 0.25656
 H571 H 0.39025 0.18433 0.33016
 H572 H 0.38606 0.15550 0.42587
 H573 H 0.35482 0.08873 0.35197
 H574 H 0.32761 0.13611 0.39689
 C575 C 0.35941 0.60164 -0.19056
 C576 C 0.32508 0.60344 -0.17817
 C577 C 0.32868 0.63471 -0.16910
 C578 C 0.36265 0.63321 -0.18181
 C579 C 0.36571 0.59678 -0.13298
 C580 C 0.36929 0.62806 -0.12391
 C581 C 0.33174 0.59826 -0.12022
 C582 C 0.33497 0.62987 -0.11150
 C583 C 0.30786 0.65549 -0.18964
 C584 C 0.29000 0.67185 -0.20702
 C585 C 0.38718 0.57644 -0.11291
 C586 C 0.40612 0.56096 -0.09613
 H587 H 0.36966 0.58972 -0.22277
 H588 H 0.30663 0.59361 -0.20079
 H589 H 0.37511 0.64785 -0.20724
 H590 H 0.38773 0.63791 -0.10128
 H591 H 0.31931 0.58362 -0.09475
 H592 H 0.32474 0.64179 -0.07928
 C593 C 1.11767 -0.11975 -0.19468
 C594 C 1.15060 -0.11545 -0.17555
 C595 C 1.15437 -0.14697 -0.17151
 C596 C 1.12182 -0.15159 -0.19095
 C597 C 1.10667 -0.11954 -0.13840
 C598 C 1.11037 -0.15108 -0.13425
 C599 C 1.13927 -0.11502 -0.11906
 C600 C 1.14337 -0.14676 -0.11522
 C601 C 1.18134 -0.16174 -0.18944
 C602 C 1.20353 -0.17404 -0.20387
 C603 C 1.08174 -0.10253 -0.11891
 C604 C 1.06353 -0.08642 -0.10175
 H605 H 1.10675 -0.10853 -0.22715
 H606 H 1.16742 -0.10095 -0.19260
 H607 H 1.11501 -0.16681 -0.22082
 H608 H 1.09351 -0.16552 -0.11715
 H609 H 1.14618 -0.09982 -0.08920
 H610 H 1.15430 -0.15796 -0.08272
 C611 C 1.10992 0.37615 0.29784
 C612 C 1.14366 0.37698 0.31399
 C613 C 1.14363 0.34524 0.31775
 C614 C 1.11019 0.34407 0.30124
 C615 C 1.10089 0.37739 0.35503
 C616 C 1.10071 0.34566 0.35896
 C617 C 1.13436 0.37844 0.37138
 C618 C 1.13461 0.34648 0.37496
 C619 C 1.16884 0.32904 0.29724
 C620 C 1.19077 0.31731 0.28044
 C621 C 1.07903 0.39690 0.37659
 C622 C 1.06313 0.41443 0.39527
 H623 H 1.09949 0.38855 0.26640
 H624 H 1.16160 0.38969 0.29535
 H625 H 1.10061 0.32968 0.27215
 H626 H 1.08271 0.33306 0.37771
 H627 H 1.14407 0.39279 0.40044
 H628 H 1.14507 0.33410 0.40641
 C629 C 0.60669 -0.12410 0.29515
 C630 C 0.64111 -0.11919 0.30278
 C631 C 0.64527 -0.15024 0.31356
 C632 C 0.61119 -0.15550 0.30559
 C633 C 0.60181 -0.11956 0.35326
 C634 C 0.60590 -0.15061 0.36417
 C635 C 0.63592 -0.11442 0.36109
 C636 C 0.64036 -0.14568 0.37166
 C637 C 0.67054 -0.16631 0.29231
 C638 C 0.69218 -0.17875 0.27580
 C639 C 0.57928 -0.10096 0.37617
 C640 C 0.56277 -0.08406 0.39569
 H641 H 0.59255 -0.11507 0.26394
 H642 H 0.65584 -0.10640 0.27739
 H643 H 0.60134 -0.17260 0.28247
 H644 H 0.59114 -0.16333 0.38962
 H645 H 0.64590 -0.09735 0.38417
 H646 H 0.65449 -0.15468 0.40291
 C647 C 0.65537 0.39093 -0.10752
 C648 C 0.64583 0.36516 -0.13903
 C649 C 0.67213 0.37073 -0.17652
 C650 C 0.68202 0.39621 -0.14531
 C651 C 0.63495 0.40896 -0.14189
 C652 C 0.66124 0.41458 -0.17937
 C653 C 0.62509 0.38347 -0.17309
 C654 C 0.65172 0.38875 -0.21091
 C655 C 0.69306 0.34961 -0.19556
 C656 C 0.71104 0.33284 -0.21114
 C657 C 0.61338 0.42925 -0.12179
 C658 C 0.59436 0.44438 -0.10413
 H659 H 0.65668 0.39213 -0.06479
 H660 H 0.63971 0.34463 -0.12270
 H661 H 0.70571 0.40114 -0.13405
 H662 H 0.66734 0.43512 -0.19565
 H663 H 0.60141 0.37851 -0.18435
 H664 H 0.65041 0.38753 -0.25364
 C665 C 1.09125 0.14904 -0.16534
 C666 C 1.11215 0.16771 -0.13230
 C667 C 1.13833 0.16207 -0.17010
 C668 C 1.11771 0.14372 -0.20344
 C669 C 1.10149 0.12389 -0.13347
 C670 C 1.12768 0.11824 -0.17125
 C671 C 1.12211 0.14223 -0.10009
 C672 C 1.14861 0.13693 -0.13821
 C673 C 1.15804 0.18386 -0.19090
 C674 C 1.17295 0.20259 -0.20840
 C675 C 1.08122 0.10243 -0.11309
 C676 C 1.06528 0.08429 -0.09609
 H677 H 1.06746 0.15381 -0.17626
 H678 H 1.10601 0.18830 -0.11643
 H679 H 1.11617 0.14452 -0.24619
 H680 H 1.13380 0.09764 -0.18712
 H681 H 1.12363 0.14141 -0.05734
 H682 H 1.17239 0.13217 -0.12730
 C683 C 1.13668 0.62770 0.37476
 C684 C 1.13943 0.63696 0.31764
 C685 C 1.13716 0.66727 0.33510
 C686 C 1.13470 0.65837 0.39191
 C687 C 1.10198 0.62714 0.36895
 C688 C 1.09971 0.65745 0.38642
 C689 C 1.10445 0.63605 0.31216
 C690 C 1.10246 0.66670 0.32931
 C691 C 1.15630 0.68978 0.31567
 C692 C 1.17136 0.70861 0.29897
 C693 C 1.08262 0.60469 0.38798
 C694 C 1.06721 0.58599 0.40420
 H695 H 1.15051 0.61138 0.39367
 H696 H 1.15601 0.62877 0.28923
 H697 H 1.14737 0.66775 0.42449
 H698 H 1.08313 0.66562 0.41486
 H699 H 1.09177 0.62665 0.27959
 H700 H 1.08861 0.68302 0.31041
 C701 C 0.62397 0.12643 0.32739
 C702 C 0.61200 0.14923 0.29049
 C703 C 0.62806 0.17121 0.32352
 C704 C 0.64028 0.14873 0.36010
 C705 C 0.59548 0.13000 0.36102
 C706 C 0.61155 0.15198 0.39403
 C707 C 0.58322 0.15246 0.32446
 C708 C 0.59957 0.17480 0.35716
 C709 C 0.64661 0.19406 0.30298
 C710 C 0.66219 0.21271 0.28657
 C711 C 0.57772 0.10687 0.38247
 C712 C 0.56359 0.08776 0.40077
 H713 H 0.63386 0.10631 0.31531
 H714 H 0.61235 0.14831 0.24769
 H715 H 0.66392 0.14739 0.37461
 H716 H 0.61120 0.15290 0.43684
 H717 H 0.55957 0.15378 0.30998
 H718 H 0.58969 0.19491 0.36924
 C719 C 0.64392 0.62356 -0.10968
 C720 C 0.66692 0.62487 -0.15504
 C721 C 0.64880 0.64906 -0.17843
 C722 C 0.62609 0.64809 -0.13343
 C723 C 0.62443 0.60332 -0.14115
 C724 C 0.60643 0.62758 -0.16460
 C725 C 0.64712 0.60420 -0.18620
 C726 C 0.62930 0.62883 -0.20989
 C727 C 0.66157 0.67502 -0.19876
 C728 C 0.67198 0.69649 -0.21506
 C729 C 0.60833 0.57920 -0.11984
 C730 C 0.59207 0.56150 -0.10187
 H731 H 0.64990 0.62113 -0.06830
 H732 H 0.69199 0.62407 -0.15129
 H733 H 0.61746 0.66633 -0.11194
 H734 H 0.58136 0.62850 -0.16843
 H735 H 0.65570 0.58592 -0.20762
 H736 H 0.62330 0.63127 -0.25125
 C737 C 0.87372 -0.11930 -0.17985
 C738 C 0.88305 -0.14421 -0.21398
 C739 C 0.86257 -0.16303 -0.18108
 C740 C 0.85294 -0.13847 -0.14728
 C741 C 0.90024 -0.12595 -0.14338
 C742 C 0.87976 -0.14478 -0.11047
 C743 C 0.90987 -0.15052 -0.17717
 C744 C 0.88909 -0.16967 -0.14459
 C745 C 0.84222 -0.18417 -0.20221
 C746 C 0.82666 -0.20238 -0.21984
 C747 C 0.92071 -0.10499 -0.12198
 C748 C 0.93647 -0.08714 -0.10364
 H749 H 0.86766 -0.09835 -0.19421
 H750 H 0.88413 -0.14415 -0.25679
 H751 H 0.82933 -0.13372 -0.13523
 H752 H 0.87869 -0.14483 -0.06765
 H753 H 0.93348 -0.15527 -0.18921
 H754 H 0.89516 -0.19062 -0.13021
 C755 C 0.87031 0.37524 0.35671
 C756 C 0.87131 0.36266 0.30179
 C757 C 0.86892 0.33362 0.32575
 C758 C 0.86762 0.34586 0.38036
 C759 C 0.90504 0.37290 0.35960
 C760 C 0.90264 0.34386 0.38356
 C761 C 0.90636 0.36067 0.30498
 C762 C 0.90366 0.33126 0.32863
 C763 C 0.84895 0.31164 0.30693
 C764 C 0.83295 0.29329 0.29122
 C765 C 0.92452 0.39502 0.37928
 C766 C 0.93955 0.41358 0.39673
 H767 H 0.85682 0.39359 0.36849
 H768 H 0.85815 0.37014 0.26802
 H769 H 0.85146 0.33955 0.41112
 H770 H 0.91578 0.33638 0.41736
 H771 H 0.92253 0.36699 0.27425
 H772 H 0.91712 0.31290 0.31690
 C773 C 0.37744 -0.12322 0.32502
 C774 C 0.38856 -0.14500 0.28544
 C775 C 0.37365 -0.16791 0.31808
 C776 C 0.36227 -0.14644 0.35734
 C777 C 0.40688 -0.12730 0.35589
 C778 C 0.39196 -0.15021 0.38850
 C779 C 0.41830 -0.14875 0.31664
 C780 C 0.40309 -0.17201 0.34896
 C781 C 0.35472 -0.19049 0.29762
 C782 C 0.33889 -0.20900 0.28148
 C783 C 0.42486 -0.10448 0.37782
 C784 C 0.43892 -0.08556 0.39680
 H785 H 0.36702 -0.10293 0.31533
 H786 H 0.38700 -0.14305 0.24282
 H787 H 0.33906 -0.14566 0.37395
 H788 H 0.39351 -0.15218 0.43112
 H789 H 0.44153 -0.14950 0.30007
 H790 H 0.41349 -0.19229 0.35865
 C791 C 0.35372 0.39455 -0.17932
 C792 C 0.37115 0.36917 -0.20081
 C793 C 0.35017 0.34988 -0.16987
 C794 C 0.33242 0.37483 -0.14865
 C795 C 0.37534 0.39519 -0.13287
 C796 C 0.35437 0.37590 -0.10187
 C797 C 0.39296 0.37017 -0.15414
 C798 C 0.37181 0.35059 -0.12345
 C799 C 0.33695 0.32423 -0.19042
 C800 C 0.32622 0.30303 -0.20709
 C801 C 0.39177 0.41922 -0.11228
 C802 C 0.40815 0.43709 -0.09549
 H803 H 0.34635 0.41286 -0.20202
 H804 H 0.37803 0.36614 -0.24165
 H805 H 0.30733 0.37644 -0.14660
 H806 H 0.34754 0.37894 -0.06101
 H807 H 0.41805 0.36844 -0.15626
 H808 H 0.37922 0.33230 -0.10070
 C809 C 1.08858 -0.15101 0.17697
 C810 C 1.10880 -0.17063 0.14451
 C811 C 1.13586 -0.16366 0.17956
 C812 C 1.11595 -0.14438 0.21236
 C813 C 1.09786 -0.12689 0.14160
 C814 C 1.12492 -0.11993 0.17664
 C815 C 1.11777 -0.14618 0.10880
 C816 C 1.14514 -0.13955 0.14417
 C817 C 1.15639 -0.18465 0.20084
 C818 C 1.17207 -0.20277 0.21857
 C819 C 1.07726 -0.10603 0.12010
 C820 C 1.06148 -0.08816 0.10181
 H821 H 1.06513 -0.15552 0.19019
 H822 H 1.10242 -0.19172 0.13143
 H823 H 1.11549 -0.14380 0.25519
 H824 H 1.13129 -0.09883 0.18971
 H825 H 1.11823 -0.14675 0.06596
 H826 H 1.16859 -0.13504 0.13094
 C827 C 1.10453 0.36832 0.69775
 C828 C 1.09920 0.33687 0.69016
 C829 C 1.13287 0.33349 0.67601
 C830 C 1.13850 0.36458 0.68393
 C831 C 1.09750 0.37295 0.64033
 C832 C 1.13117 0.36956 0.62619
 C833 C 1.09187 0.34186 0.63240
 C834 C 1.12583 0.33814 0.61859
 C835 C 1.15239 0.31138 0.69582
 C836 C 1.16800 0.29290 0.71226
 C837 C 1.07833 0.39511 0.61974
 C838 C 1.06344 0.41366 0.60173
 H839 H 1.09552 0.38096 0.73007
 H840 H 1.08628 0.32317 0.71672
 H841 H 1.15792 0.37368 0.70526
 H842 H 1.14410 0.38326 0.59963
 H843 H 1.07246 0.33278 0.61103
 H844 H 1.13484 0.32552 0.58625
 C845 C 0.58063 -0.15270 0.67565
 C846 C 0.59996 -0.17281 0.64259
 C847 C 0.62626 -0.16956 0.68106
 C848 C 0.60722 -0.14980 0.71445
 C849 C 0.59352 -0.12821 0.64456
 C850 C 0.61982 -0.12496 0.68303
 C851 C 0.61257 -0.14799 0.61123
 C852 C 0.63910 -0.14505 0.64996
 C853 C 0.64494 -0.19255 0.70074
 C854 C 0.66063 -0.21137 0.71621
 C855 C 0.57578 -0.10502 0.62324
 C856 C 0.56184 -0.08589 0.60461
 H857 H 0.55640 -0.15564 0.68604
 H858 H 0.59195 -0.19271 0.62609
 H859 H 0.60518 -0.15075 0.75713
 H860 H 0.62784 -0.10507 0.69952
 H861 H 0.61463 -0.14706 0.56854
 H862 H 0.66333 -0.14208 0.63953
 C863 C 0.64224 0.37742 0.10639
 C864 C 0.66803 0.37668 0.14707
 C865 C 0.65056 0.35409 0.17672
 C866 C 0.62507 0.35450 0.13638
 C867 C 0.62584 0.39945 0.13881
 C868 C 0.60850 0.37679 0.16852
 C869 C 0.65133 0.39915 0.17920
 C870 C 0.63417 0.37610 0.20918
 C871 C 0.66343 0.32829 0.19732
 C872 C 0.67384 0.30688 0.21370
 C873 C 0.60949 0.42328 0.11721
 C874 C 0.59297 0.44068 0.09911
 H875 H 0.64552 0.37823 0.06391
 H876 H 0.69270 0.37631 0.13843
 H877 H 0.61430 0.33595 0.11900
 H878 H 0.58383 0.37704 0.17725
 H879 H 0.66204 0.41775 0.19650
 H880 H 0.63087 0.37526 0.25164
 C881 C 0.87100 0.13615 0.10536
 C882 C 0.85115 0.13283 0.15442
 C883 C 0.86140 0.16166 0.17220
 C884 C 0.88094 0.16533 0.12347
 C885 C 0.89801 0.12366 0.13478
 C886 C 0.90824 0.15249 0.15254
 C887 C 0.87847 0.11998 0.18349
 C888 C 0.88842 0.14916 0.20157
 C889 C 0.84184 0.18336 0.19341
 C890 C 0.82708 0.20204 0.21123
 C891 C 0.91815 0.10230 0.11396
 C892 C 0.93398 0.08425 0.09658
 H893 H 0.86413 0.13061 0.06547
 H894 H 0.82747 0.12499 0.15544
 H895 H 0.88168 0.18420 0.09895
 H896 H 0.93190 0.16034 0.15155
 H897 H 0.87774 0.10111 0.20800
 H898 H 0.89532 0.15471 0.24143
 C899 C 0.91047 0.65274 0.65509
 C900 C 0.88814 0.66954 0.62114
 C901 C 0.86355 0.66577 0.66267
 C902 C 0.88559 0.64932 0.69691
 C903 C 0.89927 0.62601 0.62937
 C904 C 0.87468 0.62224 0.67088
 C905 C 0.87724 0.64246 0.59509
 C906 C 0.85234 0.63905 0.63693
 C907 C 0.84406 0.68807 0.68176
 C908 C 0.82867 0.70671 0.69815
 C909 C 0.91892 0.60375 0.61061
 C910 C 0.93452 0.58521 0.59450
 H911 H 0.93457 0.65812 0.66241
 H912 H 0.89341 0.68924 0.60085
 H913 H 0.88878 0.65238 0.73901
 H914 H 0.86941 0.60255 0.69119
 H915 H 0.87406 0.63939 0.55298
 H916 H 0.82824 0.63367 0.62963
 C917 C 0.36913 0.12836 0.64701
 C918 C 0.37268 0.14029 0.70215
 C919 C 0.37135 0.16973 0.67954
 C920 C 0.36755 0.15811 0.62471
 C921 C 0.40382 0.12888 0.64069
 C922 C 0.40250 0.15832 0.61807
 C923 C 0.40764 0.14049 0.69553
 C924 C 0.40605 0.17028 0.67323
 C925 C 0.35292 0.19241 0.70089
 C926 C 0.33749 0.21095 0.71800
 C927 C 0.42160 0.10597 0.61865
 C928 C 0.43583 0.08703 0.60011
 H929 H 0.35407 0.11091 0.63604
 H930 H 0.36024 0.13306 0.73695
 H931 H 0.35090 0.16555 0.59571
 H932 H 0.41493 0.16554 0.58326
 H933 H 0.42430 0.13303 0.72448
 H934 H 0.42109 0.18774 0.68420
 C935 C 0.34348 0.61613 0.11582
 C936 C 0.33604 0.62128 0.17365
 C937 C 0.35012 0.65035 0.16921
 C938 C 0.35727 0.64561 0.11182
 C939 C 0.37472 0.60489 0.13168
 C940 C 0.38868 0.63402 0.12733
 C941 C 0.36758 0.60964 0.18907
 C942 C 0.38135 0.63906 0.18491
 C943 C 0.33729 0.67610 0.19010
 C944 C 0.32692 0.69735 0.20714
 C945 C 0.39095 0.58082 0.11072
 C946 C 0.40734 0.56301 0.09370
 H947 H 0.32802 0.60644 0.08730
 H948 H 0.31422 0.61633 0.19302
 H949 H 0.35302 0.66067 0.08021
 H950 H 0.41050 0.63909 0.10802
 H951 H 0.37186 0.59457 0.22066
 H952 H 0.39688 0.64872 0.21338
   
