data_POSCAR
  _audit_creation_date              2014-09-24
  _audit_creation_method            'ToBaCCo'
  _symmetry_space_group_name_H-M    'P1'
  _symmetry_Int_Tables_number       1
  _symmetry_cell_setting            triclinic
  loop_
  _symmetry_equiv_pos_as_xyz
 x,y,z
_cell_length_a 21.0442
_cell_length_b 20.7871
_cell_length_c 20.6266
_cell_angle_alpha 90.889200
_cell_angle_beta 82.868000
_cell_angle_gamma 89.029900
loop_
  _atom_site_label
  _atom_site_type_symbol
  _atom_site_fract_x
  _atom_site_fract_y
  _atom_site_fract_z
C1 C 0.66175 0.37783 -0.04337
 C2 C 0.69382 0.43401 -0.03970
 C3 C 0.64817 0.48209 -0.02120
 N4 N 0.58894 0.45658 -0.01598
 C5 C 0.59704 0.39288 -0.03022
 C6 C 0.66116 0.54786 -0.00886
 C7 C 0.61160 0.59384 0.01206
 C8 C 0.62047 0.64839 0.04936
 C9 C 0.56322 0.68126 0.05915
 C10 C 0.51996 0.64599 0.02832
 N11 N 0.54949 0.59192 0.00043
 C12 C 0.45495 0.66493 0.02740
 C13 C 0.40710 0.62035 0.01611
 C14 C 0.34560 0.63646 0.00388
 C15 C 0.31290 0.58045 0.00257
 C16 C 0.35604 0.53098 0.01099
 N17 N 0.41379 0.55568 0.01881
 C18 C 0.34183 0.46459 0.01145
 C19 C 0.38930 0.41535 -0.00231
 C20 C 0.37609 0.35377 -0.02289
 C21 C 0.43341 0.32151 -0.03644
 C22 C 0.48090 0.36376 -0.02355
 N23 N 0.45349 0.42113 -0.00276
 C24 C 0.54735 0.34797 -0.03330
 H25 H 0.68453 0.33146 -0.05515
 H26 H 0.74511 0.43737 -0.05047
 H27 H 0.47683 0.46061 0.01348
 H28 H 0.66346 0.66236 0.06936
 H29 H 0.55415 0.72524 0.08782
 H30 H 0.32592 0.68357 -0.00444
 H31 H 0.26365 0.57804 -0.00646
 H32 H 0.43903 0.27294 -0.05614
 H33 H 0.52980 0.55884 -0.02952
 H34 H 0.33014 0.33468 -0.03094
 C35 C -0.01440 0.57108 0.70096
 C36 C -0.01459 0.63021 0.67308
 C37 C -0.00666 0.62035 0.60581
 N38 N 0.00313 0.55654 0.59242
 C39 C -0.00189 0.52618 0.65043
 C40 C -0.00134 0.66891 0.55735
 C41 C 0.01574 0.65074 0.49084
 C42 C 0.05087 0.68663 0.44315
 C43 C 0.04678 0.65633 0.38409
 C44 C 0.00918 0.60295 0.39717
 N45 N -0.00803 0.59888 0.46233
 C46 C -0.01303 0.56171 0.35016
 C47 C -0.02831 0.49758 0.36562
 C48 C -0.06191 0.45598 0.32983
 C49 C -0.05854 0.39662 0.35776
 C50 C -0.02289 0.40415 0.40940
 N51 N -0.00514 0.46592 0.41450
 C52 C -0.00231 0.35470 0.44837
 C53 C 0.01737 0.36922 0.50996
 C54 C 0.05235 0.32841 0.54529
 C55 C 0.05526 0.35815 0.60479
 C56 C 0.02245 0.41647 0.60400
 N57 N 0.00023 0.42335 0.54579
 C58 C 0.00958 0.45934 0.65796
 H59 H -0.02062 0.56391 0.75300
 H60 H -0.01537 0.67453 0.70097
 H61 H -0.03152 0.45929 0.53444
 H62 H 0.07760 0.72972 0.44959
 H63 H 0.06917 0.67193 0.33705
 H64 H -0.08645 0.46699 0.28817
 H65 H -0.08022 0.35320 0.34199
 H66 H 0.07878 0.33893 0.64427
 H67 H -0.04135 0.56715 0.48504
 H68 H 0.07365 0.28201 0.53022
 C69 C 0.30995 -0.04500 0.57408
 C70 C 0.33631 -0.04696 0.63156
 C71 C 0.39754 -0.02270 0.61900
 N72 N 0.40982 -0.00748 0.55523
 C73 C 0.35597 -0.01991 0.52799
 C74 C 0.44273 -0.02025 0.66455
 C75 C 0.50916 -0.02909 0.64301
 C76 C 0.55228 -0.06040 0.67807
 C77 C 0.61150 -0.05586 0.64297
 C78 C 0.60366 -0.02187 0.58720
 N79 N 0.54071 -0.00748 0.58626
 C80 C 0.65491 -0.00754 0.53848
 C81 C 0.64657 -0.01038 0.47142
 C82 C 0.69300 -0.02833 0.42025
 C83 C 0.66471 -0.02446 0.36403
 C84 C 0.60232 -0.00295 0.38220
 N85 N 0.59102 0.00415 0.44794
 C86 C 0.55762 0.01362 0.33904
 C87 C 0.49205 0.02479 0.36185
 C88 C 0.44882 0.05662 0.32737
 C89 C 0.38935 0.05058 0.36221
 C90 C 0.39779 0.01575 0.41732
 N91 N 0.46065 0.00106 0.41749
 C92 C 0.34740 -0.00618 0.46278
 H93 H 0.26283 -0.06166 0.56714
 H94 H 0.31408 -0.06768 0.67636
 H95 H 0.47954 -0.03032 0.44943
 H96 H 0.54236 -0.08673 0.72286
 H97 H 0.65535 -0.07720 0.65600
 H98 H 0.74114 -0.04627 0.42247
 H99 H 0.68753 -0.03772 0.31571
 H100 H 0.34480 0.06936 0.34830
 H101 H 0.52173 0.02166 0.55253
 H102 H 0.45873 0.08135 0.28157
 O103 O 0.42158 0.02406 -0.05277
 O104 O 0.48984 0.02855 0.10296
 O105 O 0.48758 0.10730 0.00589
 O106 O 0.42916 -0.05565 0.04242
 O107 O 0.52148 -0.09664 -0.00424
 O108 O 0.57638 0.06587 -0.04846
 O109 O 0.58304 -0.00657 0.05247
 O110 O 0.51155 -0.01974 -0.10202
 Cu111 Cu 0.44793 0.03026 0.02954
 Cu112 Cu 0.55729 -0.01881 -0.03027
 C113 C 0.45473 0.00122 -0.10383
 C114 C 0.54811 0.01271 0.10409
 C115 C 0.54130 0.11420 -0.02865
 C116 C 0.46576 -0.10386 0.02585
 O117 O -0.06189 0.57870 0.97475
 O118 O 0.10104 0.51999 0.99156
 O119 O 0.02583 0.51316 0.90062
 O120 O 0.01233 0.58584 1.06548
 O121 O -0.02447 0.49413 1.10654
 O122 O -0.01397 0.42256 0.94139
 O123 O 0.06196 0.42911 1.03242
 O124 O -0.10135 0.48831 1.01637
 Cu125 Cu 0.02351 0.55842 0.97882
 Cu126 Cu -0.02347 0.44933 1.02820
 C127 C -0.10937 0.54358 0.99288
 C128 C 0.10916 0.46497 1.01543
 C129 C 0.00740 0.45606 0.89284
 C130 C -0.00806 0.55196 1.11408
 O131 O -0.01271 -0.09178 0.47709
 O132 O -0.00914 0.07284 0.41297
 O133 O 0.07566 -0.01898 0.42043
 O134 O -0.09749 -0.00052 0.47288
 O135 O -0.07730 0.03845 0.56838
 O136 O 0.09569 0.01895 0.51628
 O137 O 0.00914 0.11114 0.50931
 O138 O 0.00383 -0.05287 0.57384
 Cu139 Cu -0.01274 -0.01306 0.43598
 Cu140 Cu 0.01075 0.03300 0.55129
 C141 C -0.00686 -0.09988 0.53691
 C142 C 0.00019 0.11994 0.45035
 C143 C 0.11509 -0.00377 0.45966
 C144 C -0.11676 0.02081 0.53013
 C145 C -0.27428 0.56837 0.98589
 C146 C -0.25370 0.62852 0.96507
 C147 C -0.18898 0.62747 0.96525
 C148 C -0.17445 0.56707 0.98625
 O149 O -0.22570 0.53130 0.99874
 H150 H -0.28216 0.66785 0.94937
 H151 H -0.15624 0.66579 0.95100
 C152 C 0.27358 0.44470 1.02424
 C153 C 0.25241 0.39571 1.06566
 C154 C 0.18767 0.39465 1.06570
 C155 C 0.17398 0.44366 1.02516
 O156 O 0.22575 0.47382 0.99989
 H157 H 0.28083 0.36525 1.09346
 H158 H 0.15426 0.36367 1.09382
 C159 C -0.01406 -0.26470 0.57342
 C160 C -0.05399 -0.24035 0.62727
 C161 C -0.05310 -0.17520 0.62245
 C162 C -0.01559 -0.16392 0.56470
 O163 O 0.00676 -0.21747 0.53418
 H164 H -0.08554 -0.26593 0.66287
 H165 H -0.08039 -0.14029 0.65457
 C166 C 0.00046 0.28649 0.42431
 C167 C 0.01412 0.26656 0.35967
 C168 C 0.01365 0.20098 0.36040
 C169 C 0.00120 0.18564 0.42536
 O170 O -0.00681 0.23710 0.46412
 H171 H 0.02492 0.29611 0.31714
 H172 H 0.02349 0.16828 0.31889
 C173 C 0.42220 -0.01145 -0.26721
 C174 C 0.36261 0.01215 -0.23945
 C175 C 0.36615 0.01865 -0.17409
 C176 C 0.42755 -0.00031 -0.16618
 O177 O 0.46155 -0.01750 -0.22206
 H178 H 0.32227 0.02722 -0.26360
 H179 H 0.32912 0.03711 -0.13704
 C180 C 0.57868 0.01971 0.26744
 C181 C 0.63649 0.04358 0.23932
 C182 C 0.63435 0.04083 0.17344
 C183 C 0.57481 0.01744 0.16627
 O184 O 0.54100 0.00484 0.22280
 H185 H 0.67494 0.06258 0.26374
 H186 H 0.67039 0.05698 0.13545
 C187 C 0.43777 -0.26953 0.04083
 C188 C 0.38138 -0.24706 0.07652
 C189 C 0.38465 -0.18175 0.07612
 C190 C 0.44289 -0.16884 0.04103
 O191 O 0.47557 -0.22167 0.02035
 H192 H 0.34299 -0.27480 0.10144
 H193 H 0.34897 -0.14760 0.09882
 C194 C 0.56501 0.27943 -0.04969
 C195 C 0.60410 0.25800 -0.10485
 C196 C 0.60321 0.19250 -0.10250
 C197 C 0.56219 0.17895 -0.04720
 O198 O 0.53881 0.23136 -0.01524
 H199 H 0.62881 0.28671 -0.14306
 H200 H 0.62699 0.15872 -0.13837
 C201 C -0.28413 0.00633 0.55784
 C202 C -0.27422 0.02866 0.61956
 C203 C -0.21030 0.03865 0.61677
 C204 C -0.18544 0.02259 0.55371
 O205 O -0.22981 0.00407 0.51771
 H206 H -0.30942 0.03868 0.66149
 H207 H -0.18479 0.05519 0.65614
 C208 C 0.28330 -0.01426 0.44059
 C209 C 0.27388 -0.04236 0.38150
 C210 C 0.20935 -0.04139 0.38047
 C211 C 0.18403 -0.01315 0.43913
 O212 O 0.22866 0.00335 0.47582
 H213 H 0.30991 -0.06180 0.34398
 H214 H 0.18373 -0.05976 0.34197
 C215 C -0.01535 0.58346 1.28204
 C216 C -0.02590 0.64598 1.26326
 C217 C -0.02287 0.64322 1.19678
 C218 C -0.01228 0.57918 1.18028
 O219 O -0.00771 0.54303 1.23149
 H220 H -0.03545 0.68841 1.29421
 H221 H -0.02934 0.68266 1.16446
 C222 C 0.00798 0.43262 0.72481
 C223 C -0.02023 0.37528 0.74424
 C224 C -0.02017 0.37380 0.81032
 C225 C 0.00773 0.43042 0.82627
 O226 O 0.02551 0.46551 0.77467
 H227 H -0.04187 0.34068 0.71437
 H228 H -0.04174 0.33804 0.84328
   
