data_POSCAR
  _audit_creation_date              2014-09-24
  _audit_creation_method            'ToBaCCo'
  _symmetry_space_group_name_H-M    'P1'
  _symmetry_Int_Tables_number       1
  _symmetry_cell_setting            triclinic
  loop_
  _symmetry_equiv_pos_as_xyz
 x,y,z
_cell_length_a 29.3720
_cell_length_b 29.3492
_cell_length_c 48.1695
_cell_angle_alpha 82.141500
_cell_angle_beta 99.645900
_cell_angle_gamma 87.939900
loop_
  _atom_site_label
  _atom_site_type_symbol
  _atom_site_fract_x
  _atom_site_fract_y
  _atom_site_fract_z
O1 O 0.01274 0.52642 1.02989
 O2 O 0.02653 0.44924 0.97737
 O3 O 0.02823 0.53819 0.97795
 O4 O 0.01133 0.43832 1.02948
 O5 O -0.06386 0.44587 1.01358
 O6 O -0.04684 0.54597 0.96196
 O7 O -0.04861 0.45682 0.96139
 O8 O -0.06244 0.53413 1.01396
 Cu9 Cu 0.02726 0.48727 1.00514
 Cu10 Cu -0.06295 0.49645 0.98599
 C11 C -0.02721 0.54336 1.03101
 C12 C -0.00870 0.43941 0.96057
 C13 C -0.00640 0.55972 0.96135
 C14 C -0.02916 0.42517 1.03052
 O15 O 0.45973 -0.02559 0.47741
 O16 O 0.56316 -0.01471 0.53034
 O17 O 0.47510 -0.01452 0.53070
 O18 O 0.54873 -0.02595 0.47706
 O19 O 0.54290 0.04943 0.46448
 O20 O 0.46903 0.06091 0.51824
 O21 O 0.55730 0.06065 0.51787
 O22 O 0.45364 0.04979 0.46484
 Cu23 Cu 0.51224 -0.02775 0.50500
 Cu24 Cu 0.50508 0.06274 0.48997
 C25 C 0.43860 0.01025 0.46229
 C26 C 0.57794 0.02482 0.53335
 C27 C 0.45964 0.02512 0.53378
 C28 C 0.55893 0.00976 0.46181
 C29 C -0.05970 -0.10172 0.23258
 C30 C -0.09516 -0.09997 0.25267
 C31 C -0.09294 -0.06247 0.26663
 C32 C -0.05524 -0.03006 0.25937
 C33 C -0.06840 -0.05531 0.21300
 C34 C -0.06574 -0.01782 0.22683
 C35 C -0.01292 -0.09832 0.25165
 C36 C -0.01025 -0.06087 0.26554
 H37 H -0.12134 -0.12439 0.25489
 H38 H -0.05334 0.00046 0.27068
 H39 H -0.07396 -0.05262 0.19002
 H40 H 0.01537 -0.12409 0.25420
 C41 C 0.11849 0.04399 0.73921
 C42 C 0.11775 0.00010 0.76043
 C43 C 0.07913 -0.00274 0.77265
 C44 C 0.04510 0.03993 0.76319
 C45 C 0.07283 0.04592 0.71828
 C46 C 0.03444 0.04365 0.73062
 C47 C 0.11256 0.08316 0.75670
 C48 C 0.07398 0.08153 0.76902
 H49 H 0.14558 -0.02648 0.76521
 H50 H 0.01358 0.03799 0.77301
 H51 H 0.07130 0.04939 0.69546
 H52 H 0.13787 0.10834 0.76069
 C53 C 0.00105 -0.38606 0.09126
 C54 C -0.04266 -0.36663 0.09243
 C55 C -0.08145 -0.37691 0.07370
 C56 C -0.07654 -0.40638 0.05376
 C57 C -0.03267 -0.42587 0.05230
 C58 C 0.00606 -0.41551 0.07136
 C59 C -0.04735 -0.33518 0.11236
 C60 C -0.05056 -0.30825 0.12880
 C61 C -0.05345 -0.27594 0.14767
 C62 C -0.05513 -0.24753 0.16338
 C63 C -0.05613 -0.21254 0.18151
 C64 C -0.08855 -0.21247 0.19971
 C65 C -0.09008 -0.17750 0.21667
 C66 C -0.05909 -0.14188 0.21557
 C67 C -0.02633 -0.14294 0.19732
 C68 C -0.02490 -0.17784 0.18047
 H69 H 0.03133 -0.37822 0.10562
 H70 H -0.11543 -0.36192 0.07438
 H71 H -0.10703 -0.41368 0.03942
 H72 H 0.04029 -0.42996 0.07082
 H73 H -0.11290 -0.23928 0.20066
 H74 H -0.11584 -0.17889 0.23022
 H75 H -0.00196 -0.11622 0.19592
 H76 H 0.00038 -0.17752 0.16645
 C77 C -0.08647 0.33257 0.07313
 C78 C -0.04825 0.30988 0.09184
 C79 C -0.00391 0.32498 0.09059
 C80 C 0.00230 0.36253 0.07067
 C81 C -0.03585 0.38550 0.05167
 C82 C -0.08036 0.37018 0.05317
 C83 C -0.05423 0.27030 0.11180
 C84 C -0.05860 0.23656 0.12822
 C85 C -0.06299 0.19623 0.14695
 C86 C -0.06613 0.16096 0.16238
 C87 C -0.06913 0.11778 0.17994
 C88 C -0.04006 0.10662 0.20639
 C89 C -0.04009 0.06292 0.22218
 C90 C -0.06903 0.02983 0.21157
 C91 C -0.09912 0.04186 0.18539
 C92 C -0.09911 0.08554 0.16969
 H93 H -0.12094 0.32104 0.07385
 H94 H 0.02593 0.30756 0.10491
 H95 H 0.03699 0.37347 0.07011
 H96 H -0.11043 0.38712 0.03888
 H97 H -0.01649 0.13124 0.21444
 H98 H -0.01611 0.05445 0.24207
 H99 H -0.12225 0.01730 0.17687
 H100 H -0.12174 0.09380 0.14924
 C101 C 0.39245 -0.00594 0.59364
 C102 C 0.37464 0.03739 0.59707
 C103 C 0.38482 0.07685 0.57993
 C104 C 0.41262 0.07298 0.55935
 C105 C 0.43050 0.02950 0.55566
 C106 C 0.42020 -0.00991 0.57311
 C107 C 0.34499 0.04101 0.61770
 C108 C 0.31958 0.04316 0.63475
 C109 C 0.28903 0.04466 0.65433
 C110 C 0.26209 0.04507 0.67062
 C111 C 0.22879 0.04451 0.68940
 C112 C 0.21852 0.08396 0.70105
 C113 C 0.18397 0.08404 0.71784
 C114 C 0.15948 0.04428 0.72352
 C115 C 0.17025 0.00493 0.71149
 C116 C 0.20475 0.00496 0.69479
 H117 H 0.38466 -0.03672 0.60675
 H118 H 0.37109 0.11056 0.58235
 H119 H 0.41993 0.10397 0.54628
 H120 H 0.43344 -0.04388 0.57085
 H121 H 0.23643 0.11504 0.69659
 H122 H 0.17578 0.11587 0.72529
 H123 H 0.15110 -0.02569 0.71447
 H124 H 0.21194 -0.02559 0.68554
 C125 C -0.32031 -0.00674 0.59127
 C126 C -0.30344 0.03652 0.59449
 C127 C -0.32620 0.07602 0.57762
 C128 C -0.36561 0.07230 0.55746
 C129 C -0.38281 0.02883 0.55383
 C130 C -0.35964 -0.01064 0.57115
 C131 C -0.26184 0.04001 0.61445
 C132 C -0.22636 0.04213 0.63078
 C133 C -0.18399 0.04366 0.64930
 C134 C -0.14700 0.04413 0.66447
 C135 C -0.10186 0.04365 0.68161
 C136 C -0.09510 0.06550 0.70595
 C137 C -0.05075 0.06528 0.72211
 C138 C -0.01274 0.04335 0.71398
 C139 C -0.02006 0.02117 0.68965
 C140 C -0.06428 0.02137 0.67360
 H141 H -0.30282 -0.03756 0.60417
 H142 H -0.31329 0.10967 0.57988
 H143 H -0.38233 0.10351 0.54463
 H144 H -0.37165 -0.04470 0.56914
 H145 H -0.12398 0.08293 0.71231
 H146 H -0.04608 0.08305 0.74057
 H147 H 0.00834 0.00324 0.68313
 H148 H -0.06914 0.00418 0.65489
 C149 C 0.05083 -0.34436 0.92444
 C150 C 0.01278 -0.31948 0.90685
 C151 C -0.03158 -0.33536 0.90678
 C152 C -0.03798 -0.37569 0.92449
 C153 C 0.00004 -0.40079 0.94264
 C154 C 0.04462 -0.38466 0.94217
 C155 C 0.01937 -0.27739 0.88916
 C156 C 0.02547 -0.24214 0.87456
 C157 C 0.03331 -0.20101 0.85756
 C158 C 0.04060 -0.16615 0.84300
 C159 C 0.05003 -0.12501 0.82545
 C160 C 0.03401 -0.08165 0.83004
 C161 C 0.04352 -0.04181 0.81297
 C162 C 0.06940 -0.04480 0.79115
 C163 C 0.08512 -0.08868 0.78666
 C164 C 0.07556 -0.12839 0.80371
 H165 H 0.08534 -0.33240 0.92463
 H166 H -0.06129 -0.31638 0.89319
 H167 H -0.07281 -0.38683 0.92412
 H168 H 0.07482 -0.40282 0.95572
 H169 H 0.01424 -0.07861 0.84685
 H170 H 0.03107 -0.00881 0.81715
 H171 H 0.10416 -0.09250 0.76965
 H172 H 0.08794 -0.16178 0.79985
 C173 C 0.04575 0.35494 0.92094
 C174 C 0.00699 0.34237 0.90312
 C175 C -0.03683 0.36229 0.90360
 C176 C -0.04196 0.39434 0.92202
 C177 C -0.00323 0.40685 0.94024
 C178 C 0.04073 0.38695 0.93936
 C179 C 0.01232 0.30856 0.88468
 C180 C 0.01746 0.28003 0.86949
 C181 C 0.02434 0.24651 0.85194
 C182 C 0.03102 0.21793 0.83708
 C183 C 0.04008 0.18398 0.81944
 C184 C 0.02804 0.13852 0.82588
 C185 C 0.03853 0.10525 0.80932
 C186 C 0.06145 0.11696 0.78618
 C187 C 0.07269 0.16299 0.77962
 C188 C 0.06215 0.19617 0.79616
 H189 H 0.07984 0.33974 0.92074
 H190 H -0.06708 0.35280 0.88990
 H191 H -0.07627 0.40898 0.92219
 H192 H 0.07124 0.39577 0.95310
 H193 H 0.01104 0.12865 0.84390
 H194 H 0.02963 0.07030 0.81511
 H195 H 0.08943 0.17351 0.76160
 H196 H 0.07149 0.23129 0.79090
 C197 C -0.35999 -0.04309 0.41983
 C198 C -0.34642 -0.00391 0.40400
 C199 C -0.36476 0.03975 0.40646
 C200 C -0.39616 0.04425 0.42493
 C201 C -0.40957 0.00507 0.44122
 C202 C -0.39133 -0.03868 0.43830
 C203 C -0.31302 -0.00869 0.38568
 C204 C -0.28477 -0.01349 0.37064
 C205 C -0.25153 -0.02004 0.35327
 C206 C -0.22317 -0.02646 0.33857
 C207 C -0.18950 -0.03516 0.32107
 C208 C -0.17338 0.00130 0.30416
 C209 C -0.14149 -0.00751 0.28669
 C210 C -0.12544 -0.05296 0.28589
 C211 C -0.14146 -0.08931 0.30320
 C212 C -0.17327 -0.08043 0.32065
 H213 H -0.34601 -0.07705 0.41809
 H214 H -0.35448 0.07032 0.39431
 H215 H -0.40950 0.07842 0.42671
 H216 H -0.40088 -0.06954 0.45052
 H217 H -0.18581 0.03647 0.30425
 H218 H -0.13035 0.02114 0.27332
 H219 H -0.12925 -0.12461 0.30337
 H220 H -0.18537 -0.10892 0.33372
 C221 C 0.32934 0.04099 0.40736
 C222 C 0.31227 -0.00250 0.40504
 C223 C 0.33704 -0.04183 0.42090
 C224 C 0.37846 -0.03773 0.43923
 C225 C 0.39572 0.00586 0.44196
 C226 C 0.37080 0.04519 0.42569
 C227 C 0.26916 -0.00696 0.38663
 C228 C 0.23312 -0.01143 0.37136
 C229 C 0.19113 -0.01756 0.35354
 C230 C 0.15561 -0.02360 0.33825
 C231 C 0.11378 -0.03186 0.31979
 C232 C 0.07043 -0.02054 0.32629
 C233 C 0.02997 -0.02973 0.30857
 C234 C 0.03246 -0.05053 0.28420
 C235 C 0.07620 -0.06141 0.27775
 C236 C 0.11652 -0.05215 0.29544
 H237 H 0.31046 0.07167 0.39516
 H238 H 0.32418 -0.07567 0.41926
 H239 H 0.39673 -0.06869 0.45145
 H240 H 0.38309 0.07923 0.42732
 H241 H 0.06791 -0.00497 0.34515
 H242 H -0.00315 -0.02145 0.31428
 H243 H 0.07930 -0.07667 0.25887
 H244 H 0.14986 -0.06095 0.29015
   
