data_POSCAR
  _audit_creation_date              2014-09-24
  _audit_creation_method            'ToBaCCo'
  _symmetry_space_group_name_H-M    'P1'
  _symmetry_Int_Tables_number       1
  _symmetry_cell_setting            triclinic
  loop_
  _symmetry_equiv_pos_as_xyz
 x,y,z
_cell_length_a 39.6215
_cell_length_b 39.5964
_cell_length_c 39.6197
_cell_angle_alpha 89.972800
_cell_angle_beta 90.001200
_cell_angle_gamma 90.001900
loop_
  _atom_site_label
  _atom_site_type_symbol
  _atom_site_fract_x
  _atom_site_fract_y
  _atom_site_fract_z
N1 N 0.58345 0.68036 0.61092
 N2 N 0.57027 0.66651 0.63814
 C3 C 0.54292 0.68499 0.64761
 C4 C 0.53769 0.71162 0.62490
 C5 C 0.56441 0.70756 0.60197
 H6 H 0.52751 0.67885 0.66912
 H7 H 0.57043 0.72345 0.58074
 Cu8 Cu 0.59154 0.62516 0.65870
 Cu9 Cu 0.62491 0.66083 0.58917
 Cu10 Cu 0.66074 0.58924 0.62511
 N11 N 0.61139 0.58317 0.67974
 N12 N 0.63866 0.56984 0.66666
 C13 C 0.64767 0.54173 0.68561
 C14 C 0.62535 0.53566 0.71345
 C15 C 0.60249 0.56396 0.70778
 H16 H 0.66916 0.52693 0.67926
 H17 H 0.58080 0.57103 0.72287
 N18 N 0.68034 0.61138 0.58328
 N19 N 0.66673 0.63865 0.56965
 C20 C 0.68530 0.64757 0.54214
 C21 C 0.71210 0.62500 0.53791
 C22 C 0.70784 0.60244 0.56471
 H23 H 0.67956 0.66899 0.52646
 H24 H 0.72353 0.58101 0.57046
 H25 H 0.61840 0.61146 0.60454
 H26 H 0.64535 0.63848 0.63161
 N27 N 0.91738 0.31889 0.11101
 N28 N 0.93074 0.33292 0.13801
 C29 C 0.95815 0.31415 0.14777
 C30 C 0.96235 0.28586 0.12634
 C31 C 0.93597 0.29100 0.10273
 H32 H 0.97345 0.32066 0.16922
 H33 H 0.93007 0.27579 0.08095
 Cu34 Cu 0.90901 0.37455 0.15884
 Cu35 Cu 0.87545 0.33892 0.08929
 Cu36 Cu 0.83936 0.41069 0.12507
 N37 N 0.88875 0.41673 0.17938
 N38 N 0.86129 0.43021 0.16638
 C39 C 0.85234 0.45752 0.18515
 C40 C 0.87499 0.46221 0.21162
 C41 C 0.89801 0.43533 0.20692
 H42 H 0.83085 0.47312 0.17938
 H43 H 0.91916 0.42893 0.22278
 N44 N 0.81975 0.38854 0.08330
 N45 N 0.83340 0.36127 0.06969
 C46 C 0.81472 0.35231 0.04230
 C47 C 0.78774 0.37503 0.03813
 C48 C 0.79228 0.39759 0.06462
 H49 H 0.82047 0.33099 0.02647
 H50 H 0.77651 0.41896 0.07048
 H51 H 0.88165 0.38847 0.10471
 H52 H 0.85461 0.36148 0.13162
 N53 N 0.41654 0.18031 -0.11088
 N54 N 0.42956 0.16644 -0.13778
 C55 C 0.45704 0.18499 -0.14750
 C56 C 0.46216 0.21167 -0.12480
 C57 C 0.43549 0.20760 -0.10188
 H58 H 0.47234 0.17882 -0.16900
 H59 H 0.42955 0.22349 -0.08067
 Cu60 Cu 0.40882 0.12524 -0.15922
 Cu61 Cu 0.37508 0.16077 -0.08919
 Cu62 Cu 0.33928 0.08927 -0.12508
 N63 N 0.38841 0.08315 -0.17929
 N64 N 0.36115 0.06980 -0.16644
 C65 C 0.35215 0.04241 -0.18509
 C66 C 0.37536 0.03766 -0.21147
 C67 C 0.39777 0.06465 -0.20703
 H68 H 0.33073 0.02676 -0.17931
 H69 H 0.41900 0.07102 -0.22266
 N70 N 0.31966 0.11139 -0.08328
 N71 N 0.33326 0.13865 -0.06966
 C72 C 0.31470 0.14757 -0.04215
 C73 C 0.28790 0.12499 -0.03790
 C74 C 0.29216 0.10244 -0.06471
 H75 H 0.32044 0.16899 -0.02646
 H76 H 0.27648 0.08101 -0.07046
 H77 H 0.38168 0.11151 -0.10472
 H78 H 0.35475 0.13847 -0.13167
 N79 N 0.08327 0.81971 0.38897
 N80 N 0.07023 0.83350 0.36188
 C81 C 0.04208 0.81450 0.35277
 C82 C 0.03562 0.78625 0.37592
 C83 C 0.06377 0.79188 0.39798
 H84 H 0.02754 0.82132 0.33081
 H85 H 0.07040 0.77652 0.41919
 Cu86 Cu 0.09189 0.87525 0.34130
 Cu87 Cu 0.12492 0.83924 0.41081
 Cu88 Cu 0.16066 0.91128 0.37458
 N89 N 0.11177 0.91769 0.31977
 N90 N 0.13886 0.93186 0.33263
 C91 C 0.14713 0.95939 0.31312
 C92 C 0.12374 0.96381 0.28564
 C93 C 0.10243 0.93561 0.29185
 H94 H 0.16922 0.97418 0.31896
 H95 H 0.08121 0.92826 0.27677
 N96 N 0.18038 0.88869 0.41657
 N97 N 0.16677 0.86140 0.43026
 C98 C 0.18530 0.85246 0.45781
 C99 C 0.21210 0.87501 0.46208
 C100 C 0.20786 0.89758 0.43524
 H101 H 0.17955 0.83102 0.47353
 H102 H 0.22355 0.91900 0.42956
 H103 H 0.11842 0.88852 0.39546
 H104 H 0.14539 0.86153 0.36843
 N105 N 0.08288 0.18068 0.11150
 N106 N 0.06941 0.16707 0.13865
 C107 C 0.04160 0.18586 0.14776
 C108 C 0.03693 0.21341 0.12499
 C109 C 0.06426 0.20815 0.10273
 H110 H 0.02649 0.17925 0.16926
 H111 H 0.07028 0.22358 0.08112
 Cu112 Cu 0.09134 0.12475 0.15862
 Cu113 Cu 0.12469 0.16091 0.08943
 Cu114 Cu 0.16059 0.08876 0.12543
 N115 N 0.11178 0.08244 0.18029
 N116 N 0.13880 0.06821 0.16735
 C117 C 0.14713 0.04066 0.18684
 C118 C 0.12377 0.03615 0.21431
 C119 C 0.10241 0.06437 0.20814
 H120 H 0.16923 0.02587 0.18101
 H121 H 0.08124 0.07171 0.22326
 N122 N 0.18031 0.11134 0.08344
 N123 N 0.16665 0.13861 0.06976
 C124 C 0.18524 0.14755 0.04221
 C125 C 0.21206 0.12500 0.03794
 C126 C 0.20781 0.10245 0.06478
 H127 H 0.17953 0.16898 0.02648
 H128 H 0.22353 0.08102 0.07044
 H129 H 0.11841 0.11151 0.10458
 H130 H 0.14535 0.13846 0.13158
 N131 N 0.41663 0.81973 0.61083
 N132 N 0.42973 0.83361 0.63786
 C133 C 0.45717 0.81512 0.64748
 C134 C 0.46232 0.78839 0.62485
 C135 C 0.43560 0.79243 0.60192
 H136 H 0.47248 0.82116 0.66910
 H137 H 0.42955 0.77653 0.58076
 Cu138 Cu 0.40859 0.87477 0.65898
 Cu139 Cu 0.37511 0.83920 0.58915
 Cu140 Cu 0.33927 0.91077 0.62507
 N141 N 0.38860 0.91688 0.67939
 N142 N 0.36125 0.93026 0.66643
 C143 C 0.35225 0.95758 0.68514
 C144 C 0.37533 0.96219 0.71171
 C145 C 0.39792 0.93541 0.70703
 H146 H 0.33080 0.97315 0.67933
 H147 H 0.41911 0.92902 0.72282
 N148 N 0.31965 0.88860 0.58329
 N149 N 0.33325 0.86133 0.56967
 C150 C 0.31470 0.85243 0.54216
 C151 C 0.28791 0.87500 0.53791
 C152 C 0.29216 0.89756 0.56471
 H153 H 0.32045 0.83101 0.52646
 H154 H 0.27648 0.91899 0.57046
 H155 H 0.38160 0.88849 0.60465
 H156 H 0.35458 0.86149 0.63159
 N157 N 0.91664 0.68052 0.38925
 N158 N 0.92911 0.66694 0.36183
 C159 C 0.95709 0.68483 0.35288
 C160 C 0.96351 0.71210 0.37554
 C161 C 0.93587 0.70782 0.39834
 H162 H 0.97226 0.67880 0.33102
 H163 H 0.92960 0.72373 0.41931
 Cu164 Cu 0.90936 0.62440 0.34199
 Cu165 Cu 0.87511 0.66084 0.41087
 Cu166 Cu 0.83925 0.58924 0.37490
 N167 N 0.88804 0.58374 0.32001
 N168 N 0.86118 0.56988 0.33342
 C169 C 0.85231 0.54245 0.31482
 C170 C 0.87530 0.53762 0.28846
 C171 C 0.89788 0.56471 0.29283
 H172 H 0.83084 0.52683 0.32063
 H173 H 0.91916 0.57104 0.27720
 N174 N 0.81965 0.61140 0.41673
 N175 N 0.83325 0.63867 0.43035
 C176 C 0.81470 0.64758 0.45786
 C177 C 0.78790 0.62500 0.46210
 C178 C 0.79216 0.60244 0.43529
 H179 H 0.82044 0.66899 0.47355
 H180 H 0.77647 0.58101 0.42955
 H181 H 0.88160 0.61147 0.39544
 H182 H 0.85466 0.63849 0.36837
 N183 N 0.58345 0.31965 -0.11095
 N184 N 0.57025 0.33350 -0.13816
 C185 C 0.54293 0.31496 -0.14766
 C186 C 0.53776 0.28831 -0.12493
 C187 C 0.56444 0.29242 -0.10201
 H188 H 0.52748 0.32114 -0.16913
 H189 H 0.57044 0.27658 -0.08074
 Cu190 Cu 0.59157 0.37482 -0.15871
 Cu191 Cu 0.62491 0.33918 -0.08918
 Cu192 Cu 0.66075 0.41076 -0.12511
 N193 N 0.61136 0.41672 -0.17966
 N194 N 0.63881 0.43017 -0.16655
 C195 C 0.64744 0.45763 -0.18513
 C196 C 0.62470 0.46283 -0.21223
 C197 C 0.60209 0.43517 -0.20730
 H198 H 0.66911 0.47317 -0.17937
 H199 H 0.58080 0.42895 -0.22283
 N200 N 0.68033 0.38864 -0.08329
 N201 N 0.66675 0.36137 -0.06965
 C202 C 0.68524 0.35199 -0.04207
 C203 C 0.71234 0.37418 -0.03803
 C204 C 0.70760 0.39728 -0.06449
 H205 H 0.67953 0.33100 -0.02646
 H206 H 0.72353 0.41898 -0.07043
 H207 H 0.61839 0.38854 -0.10454
 H208 H 0.64534 0.36152 -0.13161
 N209 N -0.01267 0.26176 0.12591
 N210 N 0.01214 0.24215 0.12046
 N211 N 0.51151 0.73829 0.62624
 N212 N 0.48854 0.76176 0.62671
 N213 N 1.01124 0.76279 0.37481
 N214 N 0.99128 0.73963 0.36881
 N215 N 0.48846 0.23826 -0.12649
 N216 N 0.51150 0.26166 -0.12606
 N217 N 0.12532 -0.01633 0.25257
 N218 N 0.12574 0.01641 0.24743
 N219 N 0.62456 0.51205 -0.26252
 N220 N 0.62741 0.49097 -0.23981
 N221 N 0.37377 1.01165 0.76164
 N222 N 0.37415 0.98856 0.73825
 N223 N 0.87505 0.48854 0.23822
 N224 N 0.87314 0.51150 0.26169
 N225 N 0.26157 0.12500 -0.01157
 N226 N 0.23841 0.12502 0.01158
 N227 N 0.73843 0.62499 0.51158
 N228 N 0.76157 0.62500 0.48842
 N229 N 0.76175 0.37253 0.01127
 N230 N 0.73863 0.37893 -0.01163
 N231 N 0.23842 0.87501 0.48842
 N232 N 0.26158 0.87500 0.51158
   
