data_POSCAR
  _audit_creation_date              2014-09-24
  _audit_creation_method            'ToBaCCo'
  _symmetry_space_group_name_H-M    'P1'
  _symmetry_Int_Tables_number       1
  _symmetry_cell_setting            triclinic
  loop_
  _symmetry_equiv_pos_as_xyz
 x,y,z
_cell_length_a 27.4897
_cell_length_b 27.4884
_cell_length_c 27.4655
_cell_angle_alpha 89.943800
_cell_angle_beta 90.166100
_cell_angle_gamma 90.000000
loop_
  _atom_site_label
  _atom_site_type_symbol
  _atom_site_fract_x
  _atom_site_fract_y
  _atom_site_fract_z
O1 O -0.12581 0.06573 0.00110
 O2 O 0.12464 0.06572 -0.00187
 O3 O -0.00223 0.12501 0.06553
 O4 O 0.00099 0.12543 -0.06630
 O5 O 0.00097 0.06619 -0.12582
 O6 O -0.00226 0.06543 0.12492
 O7 O 0.06528 0.12519 -0.00193
 O8 O -0.06638 0.12514 0.00132
 Zr9 Zr -0.00058 0.08560 -0.00043
 O10 O 0.04353 0.04422 -0.04457
 O11 O -0.04468 0.04392 0.04357
 C12 C -0.11121 0.11055 0.00211
 C13 C 0.11012 0.11060 -0.00271
 C14 C -0.00308 0.11032 0.11039
 C15 C 0.00178 0.11106 -0.11127
 H16 H 0.06411 0.06445 0.06447
 O17 O 0.04331 0.04374 0.04364
 H18 H -0.06537 0.06483 -0.06531
 O19 O -0.04461 0.04401 -0.04451
 O20 O 0.12446 -0.06592 0.00147
 O21 O -0.12601 -0.06594 -0.00249
 O22 O 0.06521 -0.00219 0.12494
 O23 O 0.06516 0.00182 -0.12574
 O24 O -0.06650 -0.00141 -0.12597
 O25 O -0.06640 0.00142 0.12469
 O26 O 0.00090 -0.12557 0.06545
 O27 O -0.00259 -0.12510 -0.06640
 O28 O 0.00099 -0.06630 0.12493
 O29 O -0.00251 -0.06552 -0.12581
 O30 O 0.12457 -0.00198 0.06559
 O31 O -0.12584 0.00155 0.06507
 O32 O -0.12587 -0.00165 -0.06667
 O33 O 0.12458 0.00159 -0.06612
 O34 O 0.06502 -0.12533 0.00138
 O35 O -0.06668 -0.12538 -0.00234
 Zr36 Zr 0.08495 -0.00009 -0.00034
 Zr37 Zr -0.08629 -0.00010 -0.00069
 Zr38 Zr -0.00062 -0.00033 0.08525
 Zr39 Zr -0.00067 0.00021 -0.08621
 Zr40 Zr -0.00079 -0.08576 -0.00046
 O41 O -0.04479 -0.04407 -0.04479
 O42 O 0.04345 -0.04433 0.04373
 C43 C 0.10986 -0.11074 0.00233
 C44 C -0.11157 -0.11085 -0.00326
 C45 C 0.11002 -0.00299 0.11041
 C46 C 0.11003 0.00251 -0.11105
 C47 C -0.11134 -0.00234 -0.11153
 C48 C -0.11124 0.00232 0.10998
 C49 C 0.00175 -0.11119 0.11042
 C50 C -0.00344 -0.11037 -0.11124
 H51 H -0.06543 -0.06495 0.06413
 O52 O -0.04467 -0.04415 0.04342
 H53 H 0.06391 -0.06466 -0.06510
 O54 O 0.04315 -0.04393 -0.04436
 O55 O 0.37489 0.56645 0.00196
 O56 O 0.62541 0.56657 -0.00090
 O57 O 0.49849 0.62577 0.06670
 O58 O 0.50193 0.62592 -0.06503
 O59 O 0.50186 0.56666 -0.12463
 O60 O 0.49846 0.56622 0.12601
 O61 O 0.56599 0.62597 -0.00084
 O62 O 0.43433 0.62585 0.00232
 Zr63 Zr 0.50014 0.58628 0.00072
 O64 O 0.54413 0.54484 -0.04349
 O65 O 0.45594 0.54465 0.04458
 C66 C 0.38950 0.61126 0.00300
 C67 C 0.61087 0.61145 -0.00171
 C68 C 0.49767 0.61115 0.11160
 C69 C 0.50283 0.61141 -0.10989
 H70 H 0.56490 0.56525 0.06556
 O71 O 0.54412 0.54452 0.04471
 H72 H 0.43539 0.56552 -0.06432
 O73 O 0.45615 0.54469 -0.04352
 O74 O 0.62526 0.43486 0.00243
 O75 O 0.37476 0.43480 -0.00170
 O76 O 0.56598 0.49861 0.12597
 O77 O 0.56580 0.50255 -0.12476
 O78 O 0.43408 0.49935 -0.12515
 O79 O 0.43426 0.50207 0.12561
 O80 O 0.50177 0.37531 0.06604
 O81 O 0.49837 0.37550 -0.06567
 O82 O 0.50185 0.43456 0.12564
 O83 O 0.49831 0.43504 -0.12505
 O84 O 0.62536 0.49879 0.06669
 O85 O 0.37483 0.50215 0.06597
 O86 O 0.37471 0.49923 -0.06587
 O87 O 0.62527 0.50251 -0.06515
 O88 O 0.56580 0.37546 0.00215
 O89 O 0.43417 0.37539 -0.00162
 Zr90 Zr 0.58574 0.50070 0.00068
 Zr91 Zr 0.41439 0.50063 0.00017
 Zr92 Zr 0.50011 0.50049 0.08619
 Zr93 Zr 0.49998 0.50078 -0.08527
 Zr94 Zr 0.50000 0.41503 0.00026
 O95 O 0.45581 0.45656 -0.04398
 O96 O 0.54416 0.45647 0.04461
 C97 C 0.61064 0.39003 0.00318
 C98 C 0.38932 0.38994 -0.00255
 C99 C 0.61085 0.49781 0.11156
 C100 C 0.61067 0.50338 -0.11008
 C101 C 0.38917 0.49855 -0.11078
 C102 C 0.38941 0.50290 0.11090
 C103 C 0.50268 0.38977 0.11094
 C104 C 0.49753 0.39015 -0.11055
 H105 H 0.43537 0.43581 0.06491
 O106 O 0.45613 0.45664 0.04423
 H107 H 0.56473 0.43610 -0.06424
 O108 O 0.54399 0.45682 -0.04348
 O109 O -0.12552 0.56612 0.50150
 O110 O 0.12497 0.56594 0.49823
 O111 O -0.00192 0.62541 0.56544
 O112 O 0.00124 0.62544 0.43363
 O113 O 0.00116 0.56595 0.37432
 O114 O -0.00174 0.56608 0.62509
 O115 O 0.06554 0.62537 0.49794
 O116 O -0.06614 0.62550 0.50130
 Zr117 Zr -0.00028 0.58583 0.49967
 O118 O 0.04383 0.54422 0.45575
 O119 O -0.04418 0.54432 0.54401
 C120 C -0.11103 0.61101 0.50222
 C121 C 0.11037 0.61077 0.49719
 C122 C -0.00271 0.61087 0.61033
 C123 C 0.00197 0.61087 0.38873
 H124 H 0.06457 0.56494 0.56461
 O125 O 0.04376 0.54415 0.54387
 H126 H -0.06513 0.56486 0.43496
 O127 O -0.04432 0.54411 0.45579
 O128 O 0.12508 0.43430 0.50196
 O129 O -0.12541 0.43441 0.49825
 O130 O 0.06600 0.49872 0.62552
 O131 O 0.06539 0.50176 0.37471
 O132 O -0.06636 0.49829 0.37456
 O133 O -0.06574 0.50197 0.62533
 O134 O 0.00152 0.37488 0.56625
 O135 O -0.00201 0.37487 0.43443
 O136 O 0.00170 0.43433 0.62560
 O137 O -0.00218 0.43420 0.37479
 O138 O 0.12527 0.49868 0.56609
 O139 O -0.12530 0.50200 0.56583
 O140 O -0.12562 0.49842 0.43402
 O141 O 0.12490 0.50175 0.43427
 O142 O 0.06567 0.37488 0.50204
 O143 O -0.06598 0.37499 0.49843
 Zr144 Zr 0.08544 0.50013 0.50012
 Zr145 Zr -0.08587 0.50024 0.49993
 Zr146 Zr 0.00002 0.50018 0.58576
 Zr147 Zr -0.00041 0.50012 0.41422
 Zr148 Zr -0.00016 0.41451 0.50024
 O149 O -0.04437 0.45605 0.45594
 O150 O 0.04410 0.45600 0.54439
 C151 C 0.11053 0.38944 0.50287
 C152 C -0.11081 0.38958 0.49744
 C153 C 0.11085 0.49796 0.61101
 C154 C 0.11026 0.50257 0.38936
 C155 C -0.11118 0.49749 0.38913
 C156 C -0.11063 0.50284 0.61073
 C157 C 0.00241 0.38943 0.61115
 C158 C -0.00296 0.38937 0.38950
 H159 H -0.06478 0.43554 0.56484
 O160 O -0.04406 0.45628 0.54405
 H161 H 0.06435 0.43541 0.43547
 O162 O 0.04362 0.45620 0.45617
 O163 O 0.37520 0.06523 0.50158
 O164 O 0.62566 0.06528 0.49808
 O165 O 0.49893 0.12487 0.56558
 O166 O 0.50198 0.12452 0.43386
 O167 O 0.50188 0.06500 0.37454
 O168 O 0.49909 0.06557 0.62520
 O169 O 0.56620 0.12466 0.49794
 O170 O 0.43457 0.12468 0.50140
 Zr171 Zr 0.50042 0.08508 0.49982
 O172 O 0.54444 0.04346 0.45578
 O173 O 0.45641 0.04369 0.54410
 C174 C 0.38973 0.11010 0.50232
 C175 C 0.61103 0.11010 0.49709
 C176 C 0.49821 0.11040 0.61052
 C177 C 0.50276 0.10985 0.38904
 H178 H 0.56535 0.06431 0.56459
 O179 O 0.54456 0.04349 0.54385
 H180 H 0.43558 0.06401 0.43509
 O181 O 0.45642 0.04328 0.45591
 O182 O 0.62590 -0.06641 0.50184
 O183 O 0.37539 -0.06641 0.49839
 O184 O 0.56661 -0.00194 0.62533
 O185 O 0.56596 0.00103 0.37467
 O186 O 0.43436 -0.00256 0.37471
 O187 O 0.43498 0.00126 0.62537
 O188 O 0.50262 -0.12557 0.56603
 O189 O 0.49880 -0.12598 0.43428
 O190 O 0.50268 -0.06603 0.62535
 O191 O 0.49856 -0.06664 0.37470
 O192 O 0.62589 -0.00213 0.56590
 O193 O 0.37541 0.00108 0.56590
 O194 O 0.37513 -0.00242 0.43420
 O195 O 0.62555 0.00115 0.43413
 O196 O 0.56653 -0.12586 0.50189
 O197 O 0.43485 -0.12580 0.49844
 Zr198 Zr 0.58617 -0.00057 0.50000
 Zr199 Zr 0.41488 -0.00058 0.50003
 Zr200 Zr 0.50071 -0.00033 0.58568
 Zr201 Zr 0.50028 -0.00075 0.41428
 Zr202 Zr 0.50065 -0.08622 0.50009
 O203 O 0.45630 -0.04478 0.45594
 O204 O 0.54476 -0.04456 0.54424
 C205 C 0.61140 -0.11130 0.50272
 C206 C 0.39000 -0.11123 0.49755
 C207 C 0.61141 -0.00283 0.61076
 C208 C 0.61083 0.00195 0.38926
 C209 C 0.38959 -0.00338 0.38934
 C210 C 0.39007 0.00199 0.61080
 C211 C 0.50360 -0.11084 0.61082
 C212 C 0.49783 -0.11150 0.38933
 H213 H 0.43608 -0.06519 0.56484
 O214 O 0.45678 -0.04445 0.54402
 H215 H 0.56516 -0.06538 0.43532
 O216 O 0.54444 -0.04459 0.45605
 C217 C 0.21499 0.21538 -0.00516
 N218 N 0.20260 0.26306 -0.00817
 N219 N 0.23687 0.29737 -0.00818
 C220 C 0.28456 0.28504 -0.00518
 N221 N 0.29695 0.23736 -0.00219
 N222 N 0.26268 0.20305 -0.00218
 C223 C 0.17806 0.17846 -0.00459
 C224 C 0.14704 0.14746 -0.00387
 C225 C 0.32144 0.32200 -0.00461
 C226 C 0.35243 0.35304 -0.00383
 C227 C 0.21529 -0.28488 0.49455
 N228 N 0.20305 -0.23711 0.49328
 N229 N 0.23748 -0.20299 0.49336
 C230 C 0.28514 -0.21565 0.49472
 N231 N 0.29738 -0.26342 0.49596
 N232 N 0.26295 -0.29754 0.49588
 C233 C 0.17827 -0.32157 0.49512
 C234 C 0.14721 -0.35244 0.49590
 C235 C 0.32214 -0.17894 0.49541
 C236 C 0.35318 -0.14805 0.49626
 C237 C 0.78540 0.78619 -0.00519
 N238 N 0.79778 0.73845 -0.00711
 N239 N 0.76350 0.70414 -0.00684
 C240 C 0.71577 0.71649 -0.00462
 N241 N 0.70340 0.76423 -0.00273
 N242 N 0.73768 0.79854 -0.00300
 C243 C 0.82239 0.82317 -0.00489
 C244 C 0.85345 0.85421 -0.00430
 C245 C 0.67883 0.67948 -0.00384
 C246 C 0.64780 0.64842 -0.00297
 C247 C 0.78476 0.28473 0.49450
 N248 N 0.79737 0.23705 0.49550
 N249 N 0.76321 0.20266 0.49543
 C250 C 0.71545 0.21496 0.49434
 N251 N 0.70284 0.26264 0.49330
 N252 N 0.73700 0.29703 0.49338
 C253 C 0.82149 0.32171 0.49521
 C254 C 0.85239 0.35274 0.49610
 C255 C 0.67871 0.17799 0.49493
 C256 C 0.64781 0.14696 0.49575
 C257 C 0.78433 0.21534 0.00527
 N258 N 0.73664 0.20314 0.00200
 N259 N 0.70248 0.23753 0.00218
 C260 C 0.71501 0.28512 0.00565
 N261 N 0.76271 0.29731 0.00895
 N262 N 0.79687 0.26293 0.00876
 C263 C 0.82109 0.17840 0.00446
 C264 C 0.85200 0.14739 0.00351
 C265 C 0.67831 0.32211 0.00517
 C266 C 0.64742 0.35317 0.00444
 C267 C 0.78605 -0.28595 0.50477
 N268 N 0.73835 -0.29828 0.50740
 N269 N 0.70407 -0.26396 0.50752
 C270 C 0.71642 -0.21625 0.50501
 N271 N 0.76413 -0.20391 0.50240
 N272 N 0.79841 -0.23823 0.50228
 C273 C 0.82300 -0.32296 0.50413
 C274 C 0.85403 -0.35403 0.50335
 C275 C 0.67943 -0.17927 0.50457
 C276 C 0.64838 -0.14823 0.50390
 C277 C 0.21534 0.28458 0.50524
 N278 N 0.26309 0.29698 0.50466
 N279 N 0.29736 0.26268 0.50454
 C280 C 0.28492 0.21493 0.50500
 N281 N 0.23716 0.20253 0.50561
 N282 N 0.20289 0.23683 0.50573
 C283 C 0.17843 0.32152 0.50477
 C284 C 0.14742 0.35254 0.50407
 C285 C 0.32182 0.17799 0.50434
 C286 C 0.35282 0.14697 0.50354
 C287 C 0.21473 0.78486 0.00535
 N288 N 0.26238 0.79750 0.00736
 N289 N 0.29680 0.76338 0.00746
 C290 C 0.28459 0.71562 0.00554
 N291 N 0.23694 0.70298 0.00355
 N292 N 0.20251 0.73710 0.00346
 C293 C 0.17774 0.82156 0.00461
 C294 C 0.14669 0.85246 0.00371
 C295 C 0.32161 0.67895 0.00500
 C296 C 0.35267 0.64807 0.00424
 C297 C -0.00510 0.21469 0.21552
 N298 N 0.02822 0.21363 0.25201
 N299 N 0.02823 0.24790 0.28628
 C300 C -0.00509 0.28427 0.28510
 N301 N -0.03843 0.28533 0.24862
 N302 N -0.03844 0.25105 0.21433
 C303 C -0.00480 0.17797 0.17845
 C304 C -0.00419 0.14709 0.14735
 C305 C -0.00477 0.32134 0.32182
 C306 C -0.00414 0.35243 0.35271
 C307 C 0.49593 0.28549 0.78437
 N308 N 0.45974 0.25200 0.78241
 N309 N 0.45986 0.21762 0.74821
 C310 C 0.49618 0.21570 0.71493
 N311 N 0.53236 0.24920 0.71690
 N312 N 0.53224 0.28356 0.75109
 C313 C 0.49606 0.32235 0.82139
 C314 C 0.49653 0.35331 0.85247
 C315 C 0.49652 0.17855 0.67821
 C316 C 0.49713 0.14740 0.64733
 C317 C -0.00572 0.78543 0.78386
 N318 N -0.03081 0.74349 0.79049
 N319 N -0.03067 0.70918 0.75626
 C320 C -0.00544 0.71584 0.71444
 N321 N 0.01963 0.75779 0.70781
 N322 N 0.01949 0.79209 0.74203
 C323 C -0.00535 0.82209 0.82084
 C324 C -0.00467 0.85293 0.85189
 C325 C -0.00484 0.67881 0.67784
 C326 C -0.00401 0.64774 0.64702
 C327 C 0.49588 -0.28630 0.21494
 N328 N 0.53178 -0.28478 0.24890
 N329 N 0.53178 -0.25052 0.28321
 C330 C 0.49589 -0.21669 0.28464
 N331 N 0.45997 -0.21820 0.25070
 N332 N 0.45996 -0.25248 0.21637
 C333 C 0.49612 -0.32309 0.17780
 C334 C 0.49668 -0.35401 0.14664
 C335 C 0.49614 -0.17960 0.32149
 C336 C 0.49672 -0.14849 0.35245
 C337 C 0.00345 0.78545 0.21342
 N338 N -0.03511 0.75506 0.21839
 N339 N -0.03508 0.72075 0.25274
 C340 C 0.00352 0.71572 0.28323
 N341 N 0.04209 0.74611 0.27827
 N342 N 0.04206 0.78043 0.24391
 C343 C 0.00323 0.82260 0.17646
 C344 C 0.00270 0.85375 0.14541
 C345 C 0.00338 0.67881 0.32043
 C346 C 0.00292 0.64780 0.35162
 C347 C 0.50602 -0.28395 0.78578
 N348 N 0.52572 -0.29323 0.74156
 N349 N 0.52585 -0.25907 0.70713
 C350 C 0.50629 -0.21469 0.71598
 N351 N 0.48662 -0.20541 0.76021
 N352 N 0.48649 -0.23956 0.79463
 C353 C 0.50526 -0.32079 0.82252
 C354 C 0.50430 -0.35177 0.85342
 C355 C 0.50579 -0.17822 0.67887
 C356 C 0.50498 -0.14747 0.64772
 C357 C 0.50494 0.28439 0.21497
 N358 N 0.47531 0.24518 0.21073
 N359 N 0.47532 0.21071 0.24485
 C360 C 0.50497 0.21443 0.28421
 N361 N 0.53463 0.25363 0.28845
 N362 N 0.53462 0.28811 0.25432
 C363 C 0.50456 0.32161 0.17845
 C364 C 0.50389 0.35281 0.14766
 C365 C 0.50458 0.17758 0.32110
 C366 C 0.50391 0.14662 0.35213
 C367 C 0.00367 0.21455 0.78600
 N368 N 0.04174 0.21875 0.75494
 N369 N 0.04185 0.25317 0.72068
 C370 C 0.00391 0.28447 0.71642
 N371 N -0.03414 0.28027 0.74749
 N372 N -0.03426 0.24586 0.78173
 C373 C 0.00336 0.17733 0.82283
 C374 C 0.00278 0.14613 0.85381
 C375 C 0.00382 0.32144 0.67934
 C376 C 0.00339 0.35249 0.64821
 C377 C 0.21457 -0.00547 0.21545
 N378 N 0.25269 -0.03663 0.21253
 N379 N 0.28709 -0.03668 0.24681
 C380 C 0.28434 -0.00557 0.28500
 N381 N 0.24621 0.02556 0.28792
 N382 N 0.21182 0.02561 0.25365
 C383 C 0.17779 -0.00503 0.17842
 C384 C 0.14685 -0.00429 0.14733
 C385 C 0.32149 -0.00525 0.32166
 C386 C 0.35264 -0.00460 0.35254
 C387 C 0.28604 0.49697 0.78590
 N388 N 0.27008 0.53937 0.76624
 N389 N 0.23569 0.53927 0.73191
 C390 C 0.21618 0.49677 0.71614
 N391 N 0.23214 0.45434 0.73579
 N392 N 0.26653 0.45444 0.77014
 C393 C 0.32310 0.49717 0.82298
 C394 C 0.35419 0.49767 0.85413
 C395 C 0.17906 0.49676 0.67912
 C396 C 0.14791 0.49711 0.64804
 C397 C 0.78593 -0.00410 0.78539
 N398 N 0.77056 0.03828 0.76526
 N399 N 0.73626 0.03819 0.73089
 C400 C 0.71632 -0.00427 0.71563
 N401 N 0.73168 -0.04667 0.73575
 N402 N 0.76600 -0.04658 0.77013
 C403 C 0.82280 -0.00389 0.82239
 C404 C 0.85379 -0.00334 0.85349
 C405 C 0.67938 -0.00424 0.67869
 C406 C 0.64833 -0.00381 0.64766
 C407 C -0.28639 0.49562 0.21485
 N408 N -0.25069 0.46155 0.21443
 N409 N -0.21629 0.46150 0.24874
 C410 C -0.21655 0.49552 0.28449
 N411 N -0.25226 0.52956 0.28490
 N412 N -0.28665 0.52961 0.25060
 C413 C -0.32325 0.49598 0.17773
 C414 C -0.35425 0.49666 0.14659
 C415 C -0.17936 0.49576 0.32127
 C416 C -0.14818 0.49635 0.35223
 C417 C 0.21533 0.00406 0.78470
 N418 N 0.24597 -0.03435 0.78032
 N419 N 0.28041 -0.03441 0.74626
 C420 C 0.28529 0.00393 0.71555
 N421 N 0.25465 0.04236 0.71993
 N422 N 0.22020 0.04243 0.75400
 C423 C 0.17813 0.00396 0.82131
 C424 C 0.14698 0.00350 0.85214
 C425 C 0.32223 0.00365 0.67869
 C426 C 0.35324 0.00307 0.64772
 C427 C 0.28459 0.50438 0.21537
 N428 N 0.26808 0.54689 0.23414
 N429 N 0.23376 0.54685 0.26832
 C430 C 0.21494 0.50429 0.28475
 N431 N 0.23147 0.46180 0.26598
 N432 N 0.26577 0.46184 0.23180
 C433 C 0.32153 0.50431 0.17859
 C434 C 0.35255 0.50387 0.14768
 C435 C 0.17805 0.50413 0.32157
 C436 C 0.14707 0.50361 0.35252
 C437 C 0.78427 0.00392 0.21462
 N438 N 0.76948 0.04628 0.23507
 N439 N 0.73536 0.04623 0.26944
 C440 C 0.71504 0.00381 0.28435
 N441 N 0.72984 -0.03853 0.26389
 N442 N 0.76396 -0.03847 0.22953
 C443 C 0.82104 0.00385 0.17773
 C444 C 0.85196 0.00337 0.14676
 C445 C 0.67837 0.00363 0.32133
 C446 C 0.64754 0.00307 0.35238
 C447 C -0.28444 0.50516 0.78539
 N448 N -0.25115 0.46881 0.78351
 N449 N -0.21694 0.46872 0.74923
 C450 C -0.21498 0.50499 0.71578
 N451 N -0.24827 0.54137 0.71765
 N452 N -0.28248 0.54145 0.75195
 C453 C -0.32143 0.50500 0.82216
 C454 C -0.35246 0.50448 0.85309
 C455 C -0.17828 0.50466 0.67872
 C456 C -0.14741 0.50402 0.64764
   
