data_POSCAR
  _audit_creation_date              2014-09-24
  _audit_creation_method            'ToBaCCo'
  _symmetry_space_group_name_H-M    'P1'
  _symmetry_Int_Tables_number       1
  _symmetry_cell_setting            triclinic
  loop_
  _symmetry_equiv_pos_as_xyz
 x,y,z
_cell_length_a 41.3771
_cell_length_b 41.4244
_cell_length_c 41.4439
_cell_angle_alpha 90.019900
_cell_angle_beta 90.020700
_cell_angle_gamma 90.022900
loop_
  _atom_site_label
  _atom_site_type_symbol
  _atom_site_fract_x
  _atom_site_fract_y
  _atom_site_fract_z
O1 O 0.36800 0.32438 -0.03184
 O2 O 0.32366 0.36850 0.03068
 O3 O 0.36813 0.32411 0.03046
 O4 O 0.32356 0.36888 -0.03161
 O5 O 0.28552 0.33138 -0.03202
 O6 O 0.33054 0.28615 0.03058
 O7 O 0.28559 0.33100 0.03079
 O8 O 0.33042 0.28640 -0.03224
 Cu9 Cu 0.34961 0.35023 -0.00057
 Cu10 Cu 0.30417 0.30488 -0.00075
 C11 C 0.35706 0.29779 -0.04230
 C12 C 0.29701 0.35754 0.04103
 C13 C 0.35720 0.29745 0.04076
 C14 C 0.29686 0.35805 -0.04203
 O15 O 0.67645 0.63154 0.03058
 O16 O 0.63209 0.67570 -0.03189
 O17 O 0.67643 0.63112 -0.03172
 O18 O 0.63207 0.67602 0.03041
 O19 O 0.66974 0.71391 0.03048
 O20 O 0.71455 0.66853 -0.03217
 O21 O 0.66974 0.71361 -0.03233
 O22 O 0.71459 0.66895 0.03064
 Cu23 Cu 0.65048 0.64984 -0.00065
 Cu24 Cu 0.69602 0.69509 -0.00088
 C25 C 0.70313 0.64244 0.04090
 C26 C 0.64306 0.70226 -0.04237
 C27 C 0.70313 0.64188 -0.04216
 C28 C 0.64307 0.70267 0.04069
 O29 O 0.63201 0.32434 1.03181
 O30 O 0.67639 0.36854 0.96938
 O31 O 0.63194 0.32411 0.96951
 O32 O 0.67639 0.36890 1.03167
 O33 O 0.71447 0.33147 1.03208
 O34 O 0.66955 0.28619 0.96940
 O35 O 0.71448 0.33109 0.96928
 O36 O 0.66962 0.28641 1.03222
 Cu37 Cu 0.65041 0.35023 1.00059
 Cu38 Cu 0.69588 0.30495 1.00077
 C39 C 0.64296 0.29776 1.04227
 C40 C 0.70305 0.35762 0.95905
 C41 C 0.64290 0.29747 0.95920
 C42 C 0.70308 0.35811 1.04210
 O43 O 0.36832 0.67551 1.03205
 O44 O 0.32380 0.63125 0.96966
 O45 O 0.36827 0.67569 0.96975
 O46 O 0.32391 0.63093 1.03196
 O47 O 0.28584 0.66837 1.03241
 O48 O 0.33067 0.71361 0.96968
 O49 O 0.28573 0.66870 0.96960
 O50 O 0.33071 0.71343 1.03249
 Cu51 Cu 0.34985 0.64958 1.00085
 Cu52 Cu 0.30438 0.69487 1.00108
 C53 C 0.35740 0.70210 1.04251
 C54 C 0.29712 0.64215 0.95935
 C55 C 0.35731 0.70233 0.95945
 C56 C 0.29723 0.64172 1.04241
 O57 O -0.03176 0.36798 0.32401
 O58 O 0.03083 0.32397 0.36840
 O59 O 0.03064 0.36835 0.32395
 O60 O -0.03156 0.32363 0.36847
 O61 O -0.03169 0.28561 0.33101
 O62 O 0.03104 0.33078 0.28604
 O63 O 0.03122 0.28591 0.33096
 O64 O -0.03187 0.33043 0.28606
 Cu65 Cu -0.00048 0.34975 0.34997
 Cu66 Cu -0.00031 0.30433 0.30468
 C67 C -0.04211 0.35699 0.29740
 C68 C 0.04131 0.29736 0.35753
 C69 C 0.04108 0.35746 0.29734
 C70 C -0.04187 0.29693 0.35762
 O71 O 0.03102 0.67563 0.63139
 O72 O -0.03167 0.63174 0.67579
 O73 O -0.03137 0.67597 0.63119
 O74 O 0.03073 0.63135 0.67595
 O75 O 0.03113 0.66902 0.71377
 O76 O -0.03149 0.71409 0.66856
 O77 O -0.03178 0.66940 0.71363
 O78 O 0.03141 0.71378 0.66874
 Cu79 Cu -0.00033 0.64989 0.64983
 Cu80 Cu -0.00017 0.69543 0.69501
 C81 C 0.04152 0.70226 0.64221
 C82 C -0.04204 0.64280 0.70234
 C83 C -0.04166 0.70270 0.64196
 C84 C 0.04116 0.64230 0.70255
 O85 O 1.03162 0.63184 0.32405
 O86 O 0.96909 0.67590 0.36848
 O87 O 0.96923 0.63155 0.32398
 O88 O 1.03148 0.67609 0.36862
 O89 O 1.03167 0.71417 0.33125
 O90 O 0.96889 0.66916 0.28613
 O91 O 0.96877 0.71399 0.33110
 O92 O 1.03180 0.66945 0.28619
 Cu93 Cu 1.00036 0.65007 0.35004
 Cu94 Cu 1.00027 0.69555 0.30483
 C95 C 1.04200 0.64285 0.29748
 C96 C 0.95865 0.70253 0.35765
 C97 C 0.95881 0.64248 0.29739
 C98 C 1.04183 0.70279 0.35783
 O99 O 0.96878 0.32420 0.63103
 O100 O 1.03134 0.36819 0.67564
 O101 O 1.03118 0.32395 0.63101
 O102 O 0.96893 0.36852 0.67560
 O103 O 0.96849 0.33087 0.71341
 O104 O 1.03126 0.28584 0.66835
 O105 O 1.03141 0.33054 0.71346
 O106 O 0.96835 0.28608 0.66837
 Cu107 Cu 1.00008 0.34999 0.64957
 Cu108 Cu 0.99986 0.30447 0.69473
 C109 C 0.95829 0.29756 0.64180
 C110 C 1.04167 0.35714 0.70223
 C111 C 1.04147 0.29722 0.64179
 C112 C 0.95847 0.35757 0.70217
 O113 O 0.36803 0.03154 0.32415
 O114 O 0.32378 -0.03115 0.36819
 O115 O 0.36840 -0.03079 0.32394
 O116 O 0.32362 0.03118 0.36862
 O117 O 0.28561 0.03144 0.33109
 O118 O 0.33088 -0.03104 0.28592
 O119 O 0.28579 -0.03140 0.33064
 O120 O 0.33050 0.03180 0.28615
 Cu121 Cu 0.34972 0.00020 0.34999
 Cu122 Cu 0.30435 0.00020 0.30460
 C123 C 0.35709 0.04198 0.29757
 C124 C 0.29717 -0.04160 0.35719
 C125 C 0.35756 -0.04111 0.29726
 C126 C 0.29692 0.04151 0.35775
 O127 O 0.63195 0.03140 0.67593
 O128 O 0.67630 -0.03127 0.63195
 O129 O 0.63170 -0.03093 0.67621
 O130 O 0.67629 0.03105 0.63137
 O131 O 0.71434 0.03152 0.66885
 O132 O 0.66925 -0.03098 0.71419
 O133 O 0.71433 -0.03131 0.66946
 O134 O 0.66954 0.03186 0.71388
 Cu135 Cu 0.65029 0.00005 0.65010
 Cu136 Cu 0.69572 0.00030 0.69544
 C137 C 0.64291 0.04194 0.70248
 C138 C 0.70294 -0.04161 0.64294
 C139 C 0.64259 -0.04116 0.70290
 C140 C 0.70298 0.04148 0.64218
 O141 O 0.32332 1.03106 0.63209
 O142 O 0.36770 0.96859 0.67630
 O143 O 0.32336 0.96873 0.63174
 O144 O 0.36792 1.03091 0.67636
 O145 O 0.33038 1.03111 0.71433
 O146 O 0.28531 0.96841 0.66920
 O147 O 0.33013 0.96827 0.71424
 O148 O 0.28531 1.03125 0.66959
 Cu149 Cu 0.34935 0.99983 0.65036
 Cu150 Cu 0.30393 0.99974 0.69568
 C151 C 0.29669 1.04144 0.64304
 C152 C 0.35676 0.95816 0.70288
 C153 C 0.29668 0.95834 0.64257
 C154 C 0.35703 1.04126 0.70300
 O155 O 0.63237 0.96914 0.32421
 O156 O 0.67663 1.03160 0.36870
 O157 O 0.63207 1.03148 0.32433
 O158 O 0.67670 0.96926 0.36880
 O159 O 0.71478 0.96912 0.33137
 O160 O 0.66966 1.03186 0.28641
 O161 O 0.71469 1.03197 0.33125
 O162 O 0.66998 0.96901 0.28630
 Cu163 Cu 0.65067 1.00036 0.35027
 Cu164 Cu 0.69613 1.00050 0.30500
 C165 C 0.64335 0.95881 0.29760
 C166 C 0.70328 1.04206 0.35784
 C167 C 0.64297 1.04190 0.29773
 C168 C 0.70341 0.95894 0.35795
 C169 C 0.87234 0.77489 0.53007
 C170 C 0.88401 0.76325 0.50070
 C171 C 0.87228 0.77487 0.47135
 C172 C 0.84802 0.79881 0.47098
 C173 C 0.83583 0.81080 0.50068
 C174 C 0.84802 0.79880 0.53040
 C175 C 0.83571 0.81113 0.55951
 C176 C 0.81192 0.83494 0.55947
 C177 C 0.79965 0.84726 0.53033
 C178 C 0.81165 0.83507 0.50064
 C179 C 0.83579 0.81117 0.44184
 C180 C 0.81208 0.83504 0.44181
 C181 C 0.79975 0.84734 0.47091
 C182 C 0.77593 0.87175 0.47122
 C183 C 0.76427 0.88342 0.50058
 C184 C 0.77580 0.87160 0.52995
 H185 H 0.84444 0.80247 0.58256
 H186 H 0.80325 0.84369 0.58251
 H187 H 0.84455 0.80250 0.41880
 H188 H 0.80348 0.84383 0.41875
 H189 H 0.90286 0.74501 0.50068
 H190 H 0.74610 0.90233 0.50059
 C191 C 0.22407 0.12828 0.52992
 C192 C 0.23565 0.11652 0.50056
 C193 C 0.22406 0.12824 0.47119
 C194 C 0.20024 0.15264 0.47087
 C195 C 0.18828 0.16488 0.50060
 C196 C 0.20023 0.15264 0.53029
 C197 C 0.18791 0.16493 0.55943
 C198 C 0.16414 0.18875 0.55945
 C199 C 0.15188 0.20112 0.53034
 C200 C 0.16411 0.18915 0.50062
 C201 C 0.18796 0.16499 0.44176
 C202 C 0.16424 0.18884 0.44179
 C203 C 0.15196 0.20117 0.47092
 C204 C 0.12770 0.22510 0.47128
 C205 C 0.11594 0.23671 0.50063
 C206 C 0.12757 0.22505 0.53000
 H207 H 0.19654 0.15614 0.58247
 H208 H 0.15537 0.19740 0.58250
 H209 H 0.19659 0.15623 0.41871
 H210 H 0.15552 0.19754 0.41874
 H211 H 0.25383 0.09761 0.50057
 H212 H 0.09708 0.25494 0.50060
 C213 C 0.12804 0.77450 0.52855
 C214 C 0.11630 0.76292 0.49917
 C215 C 0.12797 0.77463 0.46983
 C216 C 0.15231 0.79854 0.46955
 C217 C 0.16450 0.81050 0.49930
 C218 C 0.15231 0.79844 0.52897
 C219 C 0.16455 0.81075 0.55814
 C220 C 0.18827 0.83463 0.55823
 C221 C 0.20059 0.84700 0.52915
 C222 C 0.18868 0.83477 0.49940
 C223 C 0.16460 0.81094 0.44048
 C224 C 0.18839 0.83476 0.44056
 C225 C 0.20067 0.84704 0.46973
 C226 C 0.22452 0.87141 0.47017
 C227 C 0.23605 0.88317 0.49956
 C228 C 0.22440 0.87143 0.52889
 H229 H 0.15580 0.80204 0.58116
 H230 H 0.19687 0.84338 0.58131
 H231 H 0.15587 0.80231 0.41740
 H232 H 0.19706 0.84357 0.41754
 H233 H 0.09744 0.74469 0.49914
 H234 H 0.25421 0.90210 0.49961
 C235 C 0.87201 0.22472 0.46934
 C236 C 0.88367 0.23646 0.49868
 C237 C 0.87193 0.22492 0.52806
 C238 C 0.84767 0.20097 0.52848
 C239 C 0.83549 0.18887 0.49881
 C240 C 0.84769 0.20078 0.46905
 C241 C 0.83539 0.18834 0.43998
 C242 C 0.81160 0.16451 0.44006
 C243 C 0.79931 0.15228 0.46923
 C244 C 0.81130 0.16458 0.49889
 C245 C 0.83542 0.18870 0.55764
 C246 C 0.81170 0.16482 0.55773
 C247 C 0.79938 0.15241 0.52865
 C248 C 0.77555 0.12800 0.52839
 C249 C 0.76390 0.11622 0.49906
 C250 C 0.77544 0.12792 0.46967
 H251 H 0.84413 0.19694 0.41691
 H252 H 0.80293 0.15567 0.41704
 H253 H 0.84417 0.19745 0.58067
 H254 H 0.80309 0.15611 0.58081
 H255 H 0.90252 0.25472 0.49866
 H256 H 0.74571 0.09730 0.49911
 C257 C 0.52914 0.77499 0.87177
 C258 C 0.49976 0.76342 0.88358
 C259 C 0.47032 0.77511 0.87202
 C260 C 0.46996 0.79900 0.84772
 C261 C 0.49971 0.81096 0.83546
 C262 C 0.52947 0.79892 0.84755
 C263 C 0.55864 0.81125 0.83526
 C264 C 0.55864 0.83512 0.81158
 C265 C 0.52947 0.84746 0.79935
 C266 C 0.49971 0.83521 0.81131
 C267 C 0.44079 0.81135 0.83550
 C268 C 0.44079 0.83514 0.81172
 C269 C 0.46996 0.84742 0.79939
 C270 C 0.47030 0.87174 0.77554
 C271 C 0.49970 0.88354 0.76398
 C272 C 0.52912 0.87186 0.77557
 H273 H 0.58174 0.80256 0.84394
 H274 H 0.58172 0.84389 0.80294
 H275 H 0.41771 0.80272 0.84428
 H276 H 0.41770 0.84391 0.80311
 H277 H 0.49980 0.74519 0.90241
 H278 H 0.49967 0.90244 0.74582
 C279 C 0.52936 0.12871 0.22510
 C280 C 0.49995 0.11703 0.23673
 C281 C 0.47054 0.12870 0.22509
 C282 C 0.47015 0.15292 0.20114
 C283 C 0.49989 0.16513 0.18917
 C284 C 0.52967 0.15300 0.20120
 C285 C 0.55881 0.16533 0.18890
 C286 C 0.55877 0.18908 0.16510
 C287 C 0.52958 0.20129 0.15275
 C288 C 0.49984 0.18927 0.16490
 C289 C 0.44096 0.16509 0.18875
 C290 C 0.44092 0.18877 0.16487
 C291 C 0.47007 0.20112 0.15259
 C292 C 0.47039 0.22490 0.12818
 C293 C 0.49980 0.23657 0.11655
 C294 C 0.52921 0.22511 0.12841
 H295 H 0.58191 0.15665 0.19758
 H296 H 0.58185 0.19777 0.15637
 H297 H 0.41788 0.15632 0.19740
 H298 H 0.41782 0.19732 0.15605
 H299 H 0.49995 0.09820 0.25496
 H300 H 0.49982 0.25472 0.09764
 C301 C 0.52966 0.22500 0.87177
 C302 C 0.50026 0.23669 0.88339
 C303 C 0.47085 0.22517 0.87159
 C304 C 0.47046 0.20127 0.84731
 C305 C 0.50019 0.18925 0.83515
 C306 C 0.52997 0.20117 0.84740
 C307 C 0.55912 0.18883 0.83511
 C308 C 0.55906 0.16509 0.81128
 C309 C 0.52987 0.15284 0.79896
 C310 C 0.50014 0.16503 0.81095
 C311 C 0.44126 0.18897 0.83504
 C312 C 0.44121 0.16514 0.81131
 C313 C 0.47035 0.15281 0.79901
 C314 C 0.47065 0.12843 0.77520
 C315 C 0.50004 0.11677 0.76353
 C316 C 0.52946 0.12854 0.77507
 H317 H 0.58222 0.19743 0.84389
 H318 H 0.58214 0.15632 0.80262
 H319 H 0.41819 0.19766 0.84377
 H320 H 0.41811 0.15639 0.80269
 H321 H 0.50027 0.25489 0.90227
 H322 H 0.50002 0.09788 0.74535
 C323 C 0.47126 0.77525 0.12833
 C324 C 0.50066 0.76374 0.11651
 C325 C 0.53008 0.77550 0.12806
 C326 C 0.53043 0.79941 0.15237
 C327 C 0.50066 0.81131 0.16464
 C328 C 0.47091 0.79921 0.15256
 C329 C 0.44173 0.81148 0.16486
 C330 C 0.44172 0.83536 0.18855
 C331 C 0.47087 0.84776 0.20078
 C332 C 0.50064 0.83558 0.18880
 C333 C 0.55959 0.81183 0.16458
 C334 C 0.55957 0.83563 0.18837
 C335 C 0.53039 0.84785 0.20072
 C336 C 0.53002 0.87218 0.22458
 C337 C 0.50062 0.88391 0.23616
 C338 C 0.47120 0.87216 0.22458
 H339 H 0.41865 0.80273 0.15619
 H340 H 0.41862 0.84408 0.19720
 H341 H 0.58267 0.80324 0.15579
 H342 H 0.58265 0.84445 0.19697
 H343 H 0.50064 0.74550 0.09769
 H344 H 0.50062 0.90281 0.25433
 C345 C 0.77517 0.52969 0.87207
 C346 C 0.76365 0.50031 0.88385
 C347 C 0.77525 0.47094 0.87211
 C348 C 0.79902 0.47057 0.84770
 C349 C 0.81091 0.50027 0.83541
 C350 C 0.79894 0.53002 0.84763
 C351 C 0.81118 0.55913 0.83524
 C352 C 0.83486 0.55909 0.81134
 C353 C 0.84713 0.52994 0.79902
 C354 C 0.83502 0.50023 0.81109
 C355 C 0.81132 0.44141 0.83542
 C356 C 0.83503 0.44138 0.81155
 C357 C 0.84724 0.47049 0.79912
 C358 C 0.87149 0.47081 0.77515
 C359 C 0.88308 0.50020 0.76344
 C360 C 0.87135 0.52956 0.77505
 H361 H 0.80255 0.58220 0.84399
 H362 H 0.84355 0.58215 0.80261
 H363 H 0.80273 0.41836 0.84425
 H364 H 0.84378 0.41831 0.80291
 H365 H 0.74552 0.50030 0.90280
 H366 H 0.90190 0.50021 0.74517
 C367 C 0.12826 0.47076 0.22462
 C368 C 0.11666 0.50014 0.23632
 C369 C 0.12848 0.52950 0.22477
 C370 C 0.15278 0.52987 0.20089
 C371 C 0.16488 0.50016 0.18883
 C372 C 0.15259 0.47042 0.20073
 C373 C 0.16480 0.44130 0.18833
 C374 C 0.18859 0.44133 0.16453
 C375 C 0.20098 0.47048 0.15232
 C376 C 0.18908 0.50019 0.16460
 C377 C 0.16512 0.55902 0.18863
 C378 C 0.18888 0.55905 0.16482
 C379 C 0.20113 0.52993 0.15244
 C380 C 0.22498 0.52960 0.12808
 C381 C 0.23651 0.50022 0.11631
 C382 C 0.22483 0.47085 0.12799
 H383 H 0.15599 0.41824 0.19691
 H384 H 0.19718 0.41828 0.15571
 H385 H 0.15643 0.58208 0.19736
 H386 H 0.19758 0.58212 0.15611
 H387 H 0.09779 0.50016 0.25453
 H388 H 0.25470 0.50020 0.09742
 C389 C 0.87147 0.47042 0.22475
 C390 C 0.88327 0.49978 0.23634
 C391 C 0.87168 0.52916 0.22464
 C392 C 0.84739 0.52950 0.20070
 C393 C 0.83511 0.49976 0.18875
 C394 C 0.84721 0.47005 0.20082
 C395 C 0.83488 0.44090 0.18852
 C396 C 0.81116 0.44087 0.16464
 C397 C 0.79894 0.47000 0.15226
 C398 C 0.81095 0.49973 0.16447
 C399 C 0.83519 0.55862 0.18829
 C400 C 0.81144 0.55859 0.16445
 C401 C 0.79908 0.52944 0.15219
 C402 C 0.77526 0.52907 0.12780
 C403 C 0.76361 0.49971 0.11607
 C404 C 0.77513 0.47033 0.12785
 H405 H 0.84356 0.41784 0.19724
 H406 H 0.80248 0.41781 0.15590
 H407 H 0.84398 0.58168 0.19691
 H408 H 0.80286 0.58165 0.15563
 H409 H 0.90212 0.49976 0.25458
 H410 H 0.74546 0.49972 0.09714
 C411 C 0.12819 0.47031 0.77543
 C412 C 0.11644 0.49968 0.76387
 C413 C 0.12806 0.52906 0.77560
 C414 C 0.15235 0.52937 0.79956
 C415 C 0.16458 0.49962 0.81149
 C416 C 0.15244 0.46992 0.79939
 C417 C 0.16473 0.44076 0.81167
 C418 C 0.18845 0.44072 0.83554
 C419 C 0.20072 0.46983 0.84795
 C420 C 0.18874 0.49958 0.83578
 C421 C 0.16459 0.55848 0.81200
 C422 C 0.18834 0.55844 0.83585
 C423 C 0.20066 0.52928 0.84808
 C424 C 0.22450 0.52889 0.87246
 C425 C 0.23611 0.49951 0.88415
 C426 C 0.22455 0.47014 0.87236
 H427 H 0.15602 0.41771 0.80292
 H428 H 0.19710 0.41765 0.84426
 H429 H 0.15582 0.58155 0.80340
 H430 H 0.19695 0.58149 0.84469
 H431 H 0.09761 0.49968 0.74561
 H432 H 0.25428 0.49951 0.90307
 C433 C 0.27905 0.37675 0.06352
 C434 C 0.26490 0.39525 0.08092
 C435 C 0.24957 0.41939 0.09938
 C436 C 0.23764 0.44190 0.11341
 C437 C 0.72109 0.62322 0.06337
 C438 C 0.73523 0.60470 0.08075
 C439 C 0.75054 0.58054 0.09920
 C440 C 0.76246 0.55803 0.11322
 C441 C 0.72102 0.37684 0.93658
 C442 C 0.73517 0.39535 0.91919
 C443 C 0.75050 0.41949 0.90073
 C444 C 0.76243 0.44199 0.88670
 C445 C 0.27909 0.62291 0.93691
 C446 C 0.26486 0.60442 0.91954
 C447 C 0.24942 0.58031 0.90108
 C448 C 0.23739 0.55783 0.88705
 C449 C 0.06373 0.27947 0.37689
 C450 C 0.08103 0.26534 0.39551
 C451 C 0.09935 0.25001 0.41976
 C452 C 0.11324 0.23803 0.44232
 C453 C 0.06396 0.72011 0.62285
 C454 C 0.08128 0.73422 0.60424
 C455 C 0.09963 0.74955 0.58001
 C456 C 0.11355 0.76154 0.55747
 C457 C 0.93626 0.72044 0.37701
 C458 C 0.91897 0.73459 0.39562
 C459 C 0.90065 0.74995 0.41985
 C460 C 0.88675 0.76194 0.44240
 C461 C 0.93590 0.27966 0.62237
 C462 C 0.91862 0.26548 0.60374
 C463 C 0.90031 0.25005 0.57952
 C464 C 0.88640 0.23797 0.55699
 C465 C 0.37636 0.06446 0.27965
 C466 C 0.39489 0.08182 0.26547
 C467 C 0.41905 0.10023 0.25006
 C468 C 0.44156 0.11420 0.23802
 C469 C 0.62362 0.06440 0.72038
 C470 C 0.60508 0.08175 0.73458
 C471 C 0.58094 0.10013 0.75002
 C472 C 0.55843 0.11408 0.76209
 C473 C 0.37606 0.93576 0.72085
 C474 C 0.39461 0.91845 0.73508
 C475 C 0.41878 0.90010 0.75054
 C476 C 0.44130 0.88619 0.76260
 C477 C 0.62410 0.93640 0.27953
 C478 C 0.60560 0.91907 0.26522
 C479 C 0.58149 0.90067 0.24967
 C480 C 0.55901 0.88669 0.23755
 C481 C 0.37641 0.27983 0.93533
 C482 C 0.39503 0.26564 0.91809
 C483 C 0.41929 0.25021 0.89983
 C484 C 0.44186 0.23816 0.88599
 C485 C 0.62369 0.72025 0.93530
 C486 C 0.60505 0.73447 0.91809
 C487 C 0.58077 0.74991 0.89989
 C488 C 0.55817 0.76198 0.88610
 C489 C 0.37680 0.72013 0.06481
 C490 C 0.39543 0.73442 0.08200
 C491 C 0.41968 0.74998 0.10020
 C492 C 0.44225 0.76215 0.11400
 C493 C 0.62362 0.27979 0.06463
 C494 C 0.60501 0.26558 0.08188
 C495 C 0.58077 0.25015 0.10015
 C496 C 0.55821 0.23809 0.11400
 C497 C 0.27869 0.06391 0.62384
 C498 C 0.26447 0.08130 0.60538
 C499 C 0.24902 0.09975 0.58130
 C500 C 0.23698 0.11375 0.55885
 C501 C 0.72033 0.06327 0.37610
 C502 C 0.73468 0.08073 0.39444
 C503 C 0.75027 0.09926 0.41840
 C504 C 0.76243 0.11334 0.44078
 C505 C 0.72095 0.93589 0.62379
 C506 C 0.73522 0.91850 0.60537
 C507 C 0.75072 0.90006 0.58132
 C508 C 0.76282 0.88608 0.55887
 C509 C 0.27920 0.93588 0.37635
 C510 C 0.26498 0.91846 0.39479
 C511 C 0.24953 0.89999 0.41884
 C512 C 0.23747 0.88596 0.44128
 C513 C 0.06410 0.37632 0.72034
 C514 C 0.08144 0.39478 0.73467
 C515 C 0.09981 0.41888 0.75023
 C516 C 0.11375 0.44136 0.76238
 C517 C 0.06444 0.62365 0.27946
 C518 C 0.08178 0.60514 0.26523
 C519 C 0.10013 0.58098 0.24979
 C520 C 0.11404 0.55847 0.23774
 C521 C 0.93545 0.37621 0.27939
 C522 C 0.91813 0.39474 0.26517
 C523 C 0.89979 0.41892 0.24975
 C524 C 0.88589 0.44145 0.23771
 C525 C 0.93547 0.62365 0.72036
 C526 C 0.91811 0.60516 0.73460
 C527 C 0.89973 0.58103 0.75004
 C528 C 0.88579 0.55852 0.76208
 C529 C 0.72019 0.62348 0.93673
 C530 C 0.73451 0.60505 0.91932
 C531 C 0.75009 0.58105 0.90077
 C532 C 0.76222 0.55865 0.88667
 C533 C 0.27973 0.37641 0.93689
 C534 C 0.26534 0.39480 0.91950
 C535 C 0.24970 0.41878 0.90098
 C536 C 0.23753 0.44118 0.88691
 C537 C 0.28015 0.62335 0.06353
 C538 C 0.26579 0.60494 0.08093
 C539 C 0.25017 0.58095 0.09946
 C540 C 0.23799 0.55855 0.11353
 C541 C 0.72016 0.37649 0.06322
 C542 C 0.73449 0.39492 0.08063
 C543 C 0.75005 0.41895 0.09917
 C544 C 0.76217 0.44137 0.11325
 C545 C 0.93720 0.71981 0.62364
 C546 C 0.91974 0.73418 0.60529
 C547 C 0.90113 0.74979 0.58136
 C548 C 0.88697 0.76194 0.55901
 C549 C 0.93695 0.27977 0.37586
 C550 C 0.91945 0.26538 0.39415
 C551 C 0.90081 0.24975 0.41804
 C552 C 0.88664 0.23761 0.44039
 C553 C 0.06264 0.28011 0.62351
 C554 C 0.08012 0.26574 0.60518
 C555 C 0.09875 0.25013 0.58127
 C556 C 0.11292 0.23799 0.55892
 C557 C 0.06303 0.71987 0.37613
 C558 C 0.08053 0.73418 0.39450
 C559 C 0.09917 0.74970 0.41847
 C560 C 0.11333 0.76177 0.44087
 C561 C 0.62324 0.93649 0.72099
 C562 C 0.60470 0.91914 0.73524
 C563 C 0.58058 0.90063 0.75068
 C564 C 0.55811 0.88652 0.76270
 C565 C 0.37698 0.93657 0.27920
 C566 C 0.39556 0.91926 0.26496
 C567 C 0.41971 0.90081 0.24951
 C568 C 0.44220 0.88675 0.23747
 C569 C 0.62358 0.06428 0.27972
 C570 C 0.60501 0.08162 0.26550
 C571 C 0.58086 0.10009 0.25005
 C572 C 0.55836 0.11414 0.23801
 C573 C 0.37638 0.06368 0.72100
 C574 C 0.39495 0.08108 0.73516
 C575 C 0.41912 0.09963 0.75049
 C576 C 0.44163 0.11376 0.76242
 C577 C 0.62386 0.72080 0.06312
 C578 C 0.60544 0.73510 0.08056
 C579 C 0.58145 0.75061 0.09918
 C580 C 0.55905 0.76266 0.11336
 C581 C 0.37649 0.27938 0.06318
 C582 C 0.39495 0.26514 0.08062
 C583 C 0.41898 0.24969 0.09925
 C584 C 0.44141 0.23769 0.11345
 C585 C 0.62364 0.27941 0.93674
 C586 C 0.60517 0.26519 0.91929
 C587 C 0.58111 0.24978 0.90066
 C588 C 0.55866 0.23780 0.88648
 C589 C 0.37654 0.72041 0.93700
 C590 C 0.39497 0.73469 0.91955
 C591 C 0.41896 0.75018 0.90092
 C592 C 0.44137 0.76224 0.88673
 C593 C 0.72145 0.93653 0.37726
 C594 C 0.73567 0.91913 0.39577
 C595 C 0.75110 0.90057 0.41984
 C596 C 0.76310 0.88643 0.44227
 C597 C 0.27867 0.93596 0.62318
 C598 C 0.26450 0.91860 0.60459
 C599 C 0.24914 0.90012 0.58040
 C600 C 0.23720 0.88605 0.55789
 C601 C 0.27882 0.06382 0.37713
 C602 C 0.26454 0.08112 0.39568
 C603 C 0.24904 0.09958 0.41979
 C604 C 0.23697 0.11364 0.44224
 C605 C 0.72103 0.06377 0.62272
 C606 C 0.73525 0.08104 0.60410
 C607 C 0.75067 0.09944 0.57990
 C608 C 0.76269 0.11345 0.55739
 C609 C 0.93639 0.62316 0.27932
 C610 C 0.91900 0.60464 0.26506
 C611 C 0.90047 0.58056 0.24958
 C612 C 0.88635 0.55812 0.23753
 C613 C 0.93607 0.37690 0.72024
 C614 C 0.91870 0.39539 0.73454
 C615 C 0.90019 0.41944 0.75009
 C616 C 0.88609 0.44186 0.76220
 C617 C 0.06352 0.62297 0.72067
 C618 C 0.08087 0.60448 0.73500
 C619 C 0.09937 0.58044 0.75056
 C620 C 0.11346 0.55802 0.76268
 C621 C 0.06349 0.37683 0.27931
 C622 C 0.08088 0.39533 0.26506
 C623 C 0.09944 0.41939 0.24957
 C624 C 0.11358 0.44180 0.23750
   
