data_POSCAR
  _audit_creation_date              2014-09-24
  _audit_creation_method            'ToBaCCo'
  _symmetry_space_group_name_H-M    'P1'
  _symmetry_Int_Tables_number       1
  _symmetry_cell_setting            triclinic
  loop_
  _symmetry_equiv_pos_as_xyz
 x,y,z
_cell_length_a 29.8940
_cell_length_b 30.0153
_cell_length_c 29.9381
_cell_angle_alpha 89.920200
_cell_angle_beta 89.949800
_cell_angle_gamma 90.073500
loop_
  _atom_site_label
  _atom_site_type_symbol
  _atom_site_fract_x
  _atom_site_fract_y
  _atom_site_fract_z
C1 C 0.51750 1.02064 -0.49664
 C2 C 0.47232 1.02401 -0.49544
 C3 C 0.44428 1.02676 -0.53608
 C4 C 0.44735 1.02333 -0.45288
 C5 C 0.54445 1.01908 -0.45510
 C6 C 0.54287 1.01821 -0.53913
 C7 C 0.41427 1.06212 -0.54043
 C8 C 0.38253 1.06239 -0.57441
 C9 C 0.37928 1.02683 -0.60537
 C10 C 0.41176 0.99244 -0.60186
 C11 C 0.44339 0.99228 -0.56744
 C12 C 0.44522 1.06118 -0.42559
 C13 C 0.41642 1.06179 -0.38872
 C14 C 0.39004 1.02431 -0.37853
 C15 C 0.39364 0.98598 -0.40509
 C16 C 0.42174 0.98569 -0.44222
 C17 C 0.53978 0.98406 -0.42430
 C18 C 0.56761 0.98180 -0.38683
 C19 C 0.60090 1.01421 -0.37994
 C20 C 0.60503 1.04945 -0.41063
 C21 C 0.57717 1.05175 -0.44790
 C22 C 0.57211 0.98239 -0.54590
 C23 C 0.59927 0.98083 -0.58369
 C24 C 0.59805 1.01531 -0.61545
 C25 C 0.56787 1.05071 -0.60930
 C26 C 0.54061 1.05227 -0.57126
 H27 H 0.41490 1.08944 -0.51681
 H28 H 0.36153 1.09159 -0.57648
 H29 H 0.41116 0.96335 -0.62304
 H30 H 0.46580 0.96415 -0.56404
 H31 H 0.46452 1.09063 -0.43384
 H32 H 0.41417 1.09166 -0.36860
 H33 H 0.42279 0.95643 -0.46336
 H34 H 0.51541 0.95794 -0.42987
 H35 H 0.56410 0.95395 -0.36406
 H36 H 0.62999 1.07519 -0.40590
 H37 H 0.58133 1.07890 -0.47143
 H38 H 0.57426 0.95577 -0.52152
 H39 H 0.62161 0.95277 -0.58790
 H40 H 0.56655 1.07793 -0.63304
 H41 H 0.51876 1.08058 -0.56626
 H42 H 0.37323 0.95692 -0.39825
 C43 C -0.48108 1.49512 -0.02081
 C44 C -0.52631 1.49338 -0.02068
 C45 C -0.55132 1.45105 -0.02273
 C46 C -0.55362 1.53418 -0.01770
 C47 C -0.45665 1.53778 -0.01556
 C48 C -0.45286 1.45483 -0.02491
 C49 C -0.56345 1.43271 -0.06400
 C50 C -0.59336 1.39684 -0.06577
 C51 C -0.61130 1.37875 -0.02624
 C52 C -0.59767 1.39630 0.01507
 C53 C -0.56826 1.43242 0.01675
 C54 C -0.57187 1.55272 -0.05659
 C55 C -0.59898 1.59044 -0.05406
 C56 C -0.60903 1.60957 -0.01246
 C57 C -0.59078 1.59081 0.02651
 C58 C -0.56297 1.55348 0.02386
 C59 C -0.42860 1.54353 0.02131
 C60 C -0.40209 1.58157 0.02517
 C61 C -0.40257 1.61505 -0.00810
 C62 C -0.43222 1.60942 -0.04451
 C63 C -0.45854 1.57105 -0.04833
 C64 C -0.45125 1.42297 0.00936
 C65 C -0.41873 1.38946 0.00866
 C66 C -0.38707 1.38761 -0.02612
 C67 C -0.38998 1.41864 -0.06118
 C68 C -0.42243 1.45200 -0.06045
 H69 H -0.55109 1.44723 -0.09477
 H70 H -0.60316 1.38377 -0.09802
 H71 H -0.61141 1.38346 0.04600
 H72 H -0.55978 1.44682 0.04881
 H73 H -0.56512 1.53787 -0.08885
 H74 H -0.61309 1.60403 -0.08447
 H75 H -0.54922 1.53926 0.05414
 H76 H -0.42696 1.51823 0.04710
 H77 H -0.38199 1.58474 0.05500
 H78 H -0.43334 1.63303 -0.07179
 H79 H -0.47919 1.56662 -0.07769
 H80 H -0.47357 1.42539 0.03774
 H81 H -0.41699 1.36635 0.03641
 H82 H -0.36653 1.41767 -0.08875
 H83 H -0.42292 1.47661 -0.08696
 H84 H -0.59803 1.60511 0.05891
 C85 C 0.02070 0.49348 0.52525
 C86 C 0.02051 0.49359 0.47996
 C87 C 0.02338 0.45229 0.45332
 C88 C 0.01652 0.53538 0.45413
 C89 C 0.01663 0.53525 0.55151
 C90 C 0.02513 0.45196 0.55178
 C91 C 0.06475 0.43707 0.43776
 C92 C 0.06685 0.40260 0.40639
 C93 C 0.02745 0.38217 0.39000
 C94 C -0.01393 0.39686 0.40757
 C95 C -0.01585 0.43184 0.43825
 C96 C 0.05451 0.55401 0.43395
 C97 C 0.05082 0.59243 0.40788
 C98 C 0.00889 0.61225 0.40076
 C99 C -0.02920 0.59346 0.42097
 C100 C -0.02534 0.55541 0.44776
 C101 C -0.01797 0.53934 0.58274
 C102 C -0.02024 0.57631 0.61085
 C103 C 0.01231 0.61048 0.60879
 C104 C 0.04645 0.60646 0.57624
 C105 C 0.04878 0.56912 0.54840
 C106 C -0.00924 0.42023 0.55296
 C107 C -0.00824 0.38543 0.58417
 C108 C 0.02688 0.38198 0.61572
 C109 C 0.06224 0.41317 0.61253
 C110 C 0.06117 0.44764 0.58123
 H111 H 0.09539 0.45279 0.44892
 H112 H 0.09963 0.39176 0.39568
 H113 H -0.04541 0.38383 0.39550
 H114 H -0.04816 0.44408 0.44907
 H115 H 0.08701 0.53873 0.43838
 H116 H 0.08056 0.60601 0.39225
 H117 H -0.05499 0.54113 0.46292
 H118 H -0.04322 0.51356 0.58558
 H119 H -0.04843 0.57818 0.63341
 H120 H 0.07325 0.63056 0.57378
 H121 H 0.07666 0.56593 0.52554
 H122 H -0.03813 0.42379 0.53150
 H123 H -0.03694 0.36353 0.58533
 H124 H 0.09131 0.41117 0.63389
 H125 H 0.08805 0.47189 0.58080
 H126 H -0.06185 0.60824 0.41600
 O127 O -0.11780 0.99552 -0.05773
 O128 O 0.11187 0.98738 -0.05556
 O129 O -0.00335 1.05097 -0.11215
 O130 O -0.00163 0.93052 -0.11042
 O131 O -0.00391 0.87705 -0.05509
 O132 O -0.00198 1.10649 -0.05894
 O133 O 0.05826 0.98937 -0.11088
 O134 O -0.06270 0.99389 -0.11158
 Zr135 Zr -0.00264 0.99136 -0.07490
 O136 O 0.03663 0.95051 -0.03612
 O137 O -0.04268 1.03309 -0.03769
 C138 C -0.10418 0.99585 -0.09894
 C139 C 0.09936 0.98737 -0.09699
 C140 C -0.00314 1.09246 -0.10001
 C141 C -0.00218 0.88945 -0.09664
 H142 H 0.05767 1.04980 -0.05620
 O143 O 0.03801 1.03148 -0.03696
 H144 H -0.06362 0.93348 -0.05550
 O145 O -0.04427 0.95233 -0.03654
 O146 O 0.11120 0.99171 0.06413
 O147 O -0.11881 0.99408 0.06328
 O148 O 0.05983 1.10609 0.00308
 O149 O 0.05454 0.87655 0.00498
 O150 O -0.06622 0.87911 0.00667
 O151 O -0.06221 1.10832 0.00001
 O152 O -0.00208 1.05384 0.11769
 O153 O -0.00673 0.93370 0.11950
 O154 O 0.00064 1.10803 0.06295
 O155 O -0.00874 0.87880 0.06571
 O156 O 0.11266 1.05014 0.00539
 O157 O -0.11708 1.05425 0.00071
 O158 O -0.11973 0.93429 0.00497
 O159 O 0.11013 0.92983 0.00353
 O160 O 0.05685 0.99465 0.11868
 O161 O -0.06452 0.99342 0.11790
 Zr162 Zr 0.07491 0.99079 0.00411
 Zr163 Zr -0.08188 0.99376 0.00304
 Zr164 Zr -0.00181 1.07127 0.00247
 Zr165 Zr -0.00508 0.91408 0.00478
 Zr166 Zr -0.00376 0.99342 0.08212
 O167 O -0.04503 0.95330 0.04451
 O168 O 0.03770 1.03276 0.04376
 C169 C 0.09824 0.99364 0.10538
 C170 C -0.10586 0.99364 0.10469
 C171 C 0.10081 1.09172 0.00473
 C172 C 0.09619 0.88884 0.00405
 C173 C -0.10735 0.89288 0.00678
 C174 C -0.10378 1.09536 -0.00049
 C175 C -0.00003 1.09495 0.10440
 C176 C -0.00916 0.89238 0.10688
 H177 H -0.06192 1.05353 0.06166
 O178 O -0.04306 1.03395 0.04298
 H179 H 0.05429 0.93265 0.06439
 O180 O 0.03582 0.95180 0.04486
 C181 C 0.30517 1.04961 0.36990
 C182 C 0.27014 1.04700 0.33926
 C183 C 0.27393 1.02064 0.30124
 C184 C 0.31339 0.99655 0.29397
 C185 C 0.34850 0.99861 0.32471
 C186 C 0.34545 1.02528 0.36370
 N187 N 0.23723 1.01891 0.27064
 N188 N 0.24003 0.99865 0.23348
 C189 C 0.20353 0.99679 0.20270
 C190 C 0.21122 0.97951 0.16011
 C191 C 0.17688 0.97833 0.12866
 C192 C 0.13388 0.99398 0.13952
 C193 C 0.12589 1.01049 0.18269
 C194 C 0.16056 1.01216 0.21403
 H195 H 0.29869 1.06889 0.39963
 H196 H 0.23961 1.06540 0.34542
 H197 H 0.31724 0.97614 0.26443
 H198 H 0.37856 0.98062 0.31611
 H199 H 0.24414 0.96743 0.15111
 H200 H 0.18402 0.96503 0.09580
 H201 H 0.09315 1.02286 0.19194
 H202 H 0.15384 1.02550 0.24693
 C203 C -0.38399 1.02667 0.30312
 C204 C -0.35366 1.02528 0.26746
 C205 C -0.30918 1.01251 0.27462
 C206 C -0.29525 1.00135 0.31803
 C207 C -0.32543 1.00259 0.35351
 C208 C -0.37019 1.01498 0.34647
 N209 N -0.27868 1.01095 0.23767
 N210 N -0.23787 1.00036 0.24336
 C211 C -0.20604 0.99821 0.20773
 C212 C -0.16157 0.98852 0.21820
 C213 C -0.12916 0.98670 0.18472
 C214 C -0.14077 0.99435 0.13983
 C215 C -0.18571 1.00357 0.12928
 C216 C -0.21812 1.00562 0.16300
 H217 H -0.41835 1.03612 0.29673
 H218 H -0.36483 1.03399 0.23418
 H219 H -0.26103 0.99159 0.32460
 H220 H -0.31360 0.99420 0.38665
 H221 H -0.15195 0.98264 0.25258
 H222 H -0.09498 0.97931 0.19409
 H223 H -0.19575 1.00979 0.09509
 H224 H -0.25241 1.01308 0.15416
 C225 C -0.38247 0.99843 -0.29910
 C226 C -0.35223 0.99526 -0.26356
 C227 C -0.30667 1.00379 -0.27037
 C228 C -0.29159 1.01560 -0.31326
 C229 C -0.32171 1.01894 -0.34866
 C230 C -0.36748 1.01051 -0.34199
 N231 N -0.27629 1.00036 -0.23352
 N232 N -0.23446 1.00622 -0.23885
 C233 C -0.20292 1.00336 -0.20306
 C234 C -0.15751 1.00840 -0.21294
 C235 C -0.12551 1.00585 -0.17916
 C236 C -0.13845 0.99838 -0.13457
 C237 C -0.18425 0.99353 -0.12466
 C238 C -0.21627 0.99589 -0.15866
 H239 H -0.41760 0.99204 -0.29296
 H240 H -0.36429 0.98618 -0.23067
 H241 H -0.25654 1.02225 -0.31950
 H242 H -0.30907 1.02760 -0.38146
 H243 H -0.14690 1.01428 -0.24705
 H244 H -0.09063 1.01001 -0.18805
 H245 H -0.19535 0.98768 -0.09071
 H246 H -0.25128 0.99197 -0.15028
 C247 C 0.32577 1.06105 -0.33998
 C248 C 0.29064 1.05978 -0.30917
 C249 C 0.28604 1.02360 -0.28000
 C250 C 0.31756 0.98892 -0.28128
 C251 C 0.35234 0.98989 -0.31242
 C252 C 0.35643 1.02571 -0.34236
 N253 N 0.24846 1.02209 -0.25039
 N254 N 0.24519 0.99266 -0.21996
 C255 C 0.20736 0.99020 -0.19082
 C256 C 0.21088 0.96528 -0.15152
 C257 C 0.17535 0.96373 -0.12134
 C258 C 0.13526 0.98628 -0.13063
 C259 C 0.13107 1.00990 -0.17092
 C260 C 0.16708 1.01224 -0.20068
 H261 H 0.32796 1.08874 -0.36312
 H262 H 0.26654 1.08667 -0.30847
 H263 H 0.31471 0.96059 -0.25904
 H264 H 0.37569 0.96235 -0.31360
 H265 H 0.24167 0.94793 -0.14379
 H266 H 0.17925 0.94510 -0.09058
 H267 H 0.10055 1.02775 -0.17863
 H268 H 0.16355 1.03133 -0.23117
 C269 C 0.31727 1.34799 -0.05736
 C270 C 0.28218 1.31716 -0.05632
 C271 C 0.28293 1.28148 -0.02620
 C272 C 0.31967 1.27658 0.00268
 C273 C 0.35458 1.30763 0.00198
 C274 C 0.35358 1.34383 -0.02783
 N275 N 0.24569 1.25138 -0.02491
 N276 N 0.24607 1.21621 -0.00111
 C277 C 0.20876 1.18629 0.00095
 C278 C 0.21455 1.14466 0.02112
 C279 C 0.17930 1.11411 0.02273
 C280 C 0.13726 1.12506 0.00481
 C281 C 0.13111 1.16737 -0.01443
 C282 C 0.16669 1.19766 -0.01666
 H283 H 0.31533 1.37588 -0.08025
 H284 H 0.25404 1.32134 -0.07869
 H285 H 0.32107 1.24925 0.02627
 H286 H 0.38227 1.30352 0.02492
 H287 H 0.24672 1.13562 0.03503
 H288 H 0.18496 1.08189 0.03805
 H289 H 0.09914 1.17660 -0.02869
 H290 H 0.16136 1.22983 -0.03214
 C291 C 0.36592 0.68492 -0.03811
 C292 C 0.33536 0.72012 -0.03723
 C293 C 0.29818 0.71850 -0.00884
 C294 C 0.29259 0.68182 0.01989
 C295 C 0.32354 0.64697 0.01958
 C296 C 0.36012 0.64795 -0.00986
 N297 N 0.26623 0.75396 -0.01037
 N298 N 0.22786 0.75038 0.00773
 C299 C 0.19564 0.78559 0.00647
 C300 C 0.15183 0.77668 0.02025
 C301 C 0.11935 0.81008 0.01901
 C302 C 0.13044 0.85332 0.00455
 C303 C 0.17466 0.86231 -0.00885
 C304 C 0.20694 0.82865 -0.00821
 H305 H 0.39405 0.68648 -0.06089
 H306 H 0.34009 0.74828 -0.05940
 H307 H 0.26423 0.67997 0.04233
 H308 H 0.31825 0.61865 0.04143
 H309 H 0.14277 0.74364 0.03171
 H310 H 0.08571 0.80216 0.02990
 H311 H 0.18424 0.89525 -0.02014
 H312 H 0.24069 0.83634 -0.01886
 C313 C -0.38298 0.69300 -0.02717
 C314 C -0.35287 0.72873 -0.02584
 C315 C -0.31198 0.72458 -0.00367
 C316 C -0.30182 0.68449 0.01813
 C317 C -0.33185 0.64893 0.01727
 C318 C -0.37302 0.65215 -0.00575
 N319 N -0.28082 0.76090 -0.00448
 N320 N -0.24137 0.75646 0.01081
 C321 C -0.20902 0.79161 0.01034
 C322 C -0.16519 0.78184 0.02318
 C323 C -0.13222 0.81476 0.02210
 C324 C -0.14272 0.85840 0.00858
 C325 C -0.18705 0.86837 -0.00363
 C326 C -0.21995 0.83516 -0.00300
 H327 H -0.41453 0.69827 -0.04398
 H328 H -0.36129 0.75965 -0.04250
 H329 H -0.27029 0.68032 0.03539
 H330 H -0.32118 0.61824 0.03288
 H331 H -0.15646 0.74840 0.03361
 H332 H -0.09852 0.80601 0.03199
 H333 H -0.19616 0.90163 -0.01432
 H334 H -0.25373 0.84345 -0.01296
 C335 C -0.30601 1.36859 -0.03633
 C336 C -0.27044 1.33851 -0.03422
 C337 C -0.27767 1.29454 -0.02055
 C338 C -0.32120 1.28086 -0.00892
 C339 C -0.35682 1.31097 -0.01089
 C340 C -0.34963 1.35517 -0.02469
 N341 N -0.24046 1.26452 -0.01873
 N342 N -0.24538 1.22391 -0.00758
 C343 C -0.20894 1.19307 -0.00553
 C344 C -0.21834 1.14871 0.00494
 C345 C -0.18412 1.11727 0.00671
 C346 C -0.13945 1.12963 -0.00180
 C347 C -0.12990 1.17446 -0.01185
 C348 C -0.16443 1.20598 -0.01384
 H349 H -0.29924 1.40262 -0.04636
 H350 H -0.23708 1.34952 -0.04312
 H351 H -0.32771 1.24698 0.00171
 H352 H -0.39006 1.29958 -0.00203
 H353 H -0.25245 1.13843 0.01152
 H354 H -0.19282 1.08318 0.01490
 H355 H -0.09592 1.18505 -0.01864
 H356 H -0.15639 1.24022 -0.02194
 C357 C 0.06430 1.34860 0.32414
 C358 C 0.06435 1.31800 0.28890
 C359 C 0.03000 1.28671 0.28465
 C360 C -0.00463 1.28623 0.31634
 C361 C -0.00524 1.31718 0.35118
 C362 C 0.02908 1.34932 0.35577
 N363 N 0.03066 1.25612 0.24786
 N364 N 0.00419 1.22291 0.24625
 C365 C 0.00347 1.19207 0.20976
 C366 C -0.01931 1.15176 0.21535
 C367 C -0.02039 1.12040 0.18101
 C368 C 0.00061 1.12919 0.13988
 C369 C 0.02267 1.17016 0.13380
 C370 C 0.02449 1.20127 0.16869
 H371 H 0.09086 1.37307 0.32481
 H372 H 0.09119 1.31889 0.26459
 H373 H -0.03150 1.26213 0.31401
 H374 H -0.03219 1.31469 0.37518
 H375 H -0.03585 1.14441 0.24671
 H376 H -0.03798 1.08929 0.18654
 H377 H 0.03924 1.17768 0.10249
 H378 H 0.04203 1.23243 0.16355
 C379 C 0.04809 1.35740 -0.30836
 C380 C 0.04571 1.32668 -0.27335
 C381 C 0.02152 1.28720 -0.27805
 C382 C -0.00044 1.27857 -0.31855
 C383 C 0.00149 1.30942 -0.35364
 C384 C 0.02581 1.34967 -0.34935
 N385 N 0.01967 1.25675 -0.24114
 N386 N 0.00089 1.21878 -0.24395
 C387 C -0.00096 1.18841 -0.20699
 C388 C -0.01693 1.14523 -0.21424
 C389 C -0.01797 1.11425 -0.17939
 C390 C -0.00350 1.12611 -0.13628
 C391 C 0.01163 1.16985 -0.12878
 C392 C 0.01315 1.20070 -0.16390
 H393 H 0.06575 1.38817 -0.30189
 H394 H 0.06252 1.33390 -0.24215
 H395 H -0.01917 1.24802 -0.32312
 H396 H -0.01504 1.30061 -0.38450
 H397 H -0.02806 1.13538 -0.24720
 H398 H -0.03016 1.08095 -0.18623
 H399 H 0.02314 1.17995 -0.09603
 H400 H 0.02545 1.23400 -0.15742
 C401 C 0.03111 0.68842 -0.37142
 C402 C 0.03073 0.72368 -0.34085
 C403 C 0.01130 0.71839 -0.29871
 C404 C -0.00848 0.67746 -0.28759
 C405 C -0.00861 0.64233 -0.31811
 C406 C 0.01141 0.64685 -0.36073
 N407 N 0.01224 0.75474 -0.26766
 N408 N -0.00087 0.74996 -0.22746
 C409 C -0.00065 0.78554 -0.19563
 C410 C -0.01177 0.77597 -0.15128
 C411 C -0.01201 0.80963 -0.11912
 C412 C -0.00147 0.85381 -0.13090
 C413 C 0.00952 0.86341 -0.17563
 C414 C 0.01011 0.82952 -0.20773
 H415 H 0.04559 0.69470 -0.40394
 H416 H 0.04578 0.75523 -0.35002
 H417 H -0.02359 0.67240 -0.25510
 H418 H -0.02269 0.61105 -0.30692
 H419 H -0.02021 0.74221 -0.14159
 H420 H -0.02086 0.80103 -0.08510
 H421 H 0.01794 0.89703 -0.18581
 H422 H 0.01874 0.83771 -0.24190
 C423 C 0.03424 0.68774 0.37537
 C424 C 0.03236 0.72340 0.34534
 C425 C 0.00189 0.72292 0.30988
 C426 C -0.02798 0.68694 0.30567
 C427 C -0.02664 0.65161 0.33615
 C428 C 0.00497 0.65137 0.37084
 N429 N 0.00284 0.75854 0.27798
 N430 N -0.01746 0.75590 0.24072
 C431 C -0.01622 0.79105 0.20833
 C432 C -0.03196 0.78258 0.16519
 C433 C -0.02964 0.81548 0.13221
 C434 C -0.01217 0.85785 0.14209
 C435 C 0.00273 0.86664 0.18576
 C436 C 0.00105 0.83341 0.21855
 H437 H 0.05871 0.68840 0.40203
 H438 H 0.05546 0.75098 0.34901
 H439 H -0.05200 0.68593 0.27865
 H440 H -0.04933 0.62379 0.33180
 H441 H -0.04542 0.75010 0.15694
 H442 H -0.04171 0.80779 0.09900
 H443 H 0.01644 0.89892 0.19436
 H444 H 0.01326 0.84078 0.25176
   
