data_POSCAR
  _audit_creation_date              2014-09-24
  _audit_creation_method            'ToBaCCo'
  _symmetry_space_group_name_H-M    'P1'
  _symmetry_Int_Tables_number       1
  _symmetry_cell_setting            triclinic
  loop_
  _symmetry_equiv_pos_as_xyz
 x,y,z
_cell_length_a 13.2596
_cell_length_b 12.0284
_cell_length_c 16.5705
_cell_angle_alpha 89.222600
_cell_angle_beta 88.868300
_cell_angle_gamma 91.291300
loop_
  _atom_site_label
  _atom_site_type_symbol
  _atom_site_fract_x
  _atom_site_fract_y
  _atom_site_fract_z
O1 O 0.19124 0.04752 0.09328
 O2 O -0.24003 -0.07601 0.04586
 O3 O -0.05867 0.21546 0.09044
 O4 O 0.04336 -0.18680 0.11598
 O5 O -0.15109 0.07462 0.11706
 O6 O 0.17981 -0.15111 0.05300
 O7 O -0.12271 -0.14628 0.10976
 O8 O 0.12004 0.20198 0.05704
 C9 C 0.17651 0.14818 0.10333
 C10 C -0.21461 -0.13952 0.10078
 C11 C -0.11687 0.16543 0.13920
 C12 C 0.13601 -0.18868 0.11441
 O13 O 0.16166 -0.09311 -0.09484
 O14 O -0.24494 0.13361 -0.01720
 O15 O 0.06494 0.16701 -0.10103
 O16 O -0.12631 -0.18476 -0.05442
 O17 O -0.16695 -0.01744 -0.08883
 O18 O 0.20166 0.10689 -0.05905
 O19 O 0.05623 -0.22541 -0.04916
 O20 O -0.10002 0.18825 -0.07121
 Co21 Co 0.16587 -0.01968 -0.00045
 Co22 Co -0.14977 0.03454 0.01273
 Co23 Co 0.00599 0.17627 -0.00354
 Co24 Co -0.03484 -0.17165 0.02852
 O25 O 0.00045 -0.00179 0.01162
 C26 C 0.12180 -0.18833 -0.10095
 C27 C -0.19469 0.19127 -0.07308
 C28 C 0.15542 0.15647 -0.11296
 C29 C -0.16925 -0.11935 -0.10236
 O30 O 0.41869 0.29215 0.42380
 O31 O 0.58896 0.72533 0.45425
 O32 O 0.29322 0.61452 0.45807
 O33 O 0.71349 0.40317 0.47110
 O34 O 0.42620 0.69159 0.41574
 O35 O 0.59165 0.33896 0.40673
 O36 O 0.66933 0.58413 0.41653
 O37 O 0.33589 0.43950 0.39412
 C38 C 0.36553 0.34615 0.37553
 C39 C 0.63548 0.67664 0.39906
 C40 C 0.33856 0.66505 0.40240
 C41 C 0.68352 0.35487 0.40981
 O42 O 0.61739 0.31220 0.57255
 O43 O 0.36004 0.68175 0.57752
 O44 O 0.31254 0.33602 0.53439
 O45 O 0.67253 0.66306 0.56574
 O46 O 0.52947 0.68221 0.61655
 O47 O 0.44495 0.29099 0.59076
 O48 O 0.65841 0.47219 0.61941
 O49 O 0.30515 0.51551 0.60238
 Co50 Co 0.51624 0.32577 0.49901
 Co51 Co 0.47769 0.67865 0.51583
 Co52 Co 0.32931 0.47951 0.49833
 Co53 Co 0.65873 0.52783 0.51760
 O54 O 0.49492 0.50263 0.50769
 C55 C 0.64837 0.37026 0.62988
 C56 C 0.31348 0.61350 0.62365
 C57 C 0.35238 0.29130 0.59315
 C58 C 0.62098 0.69648 0.62307
 C59 C 0.32750 0.24863 0.16008
 C60 C 0.22822 0.20388 0.16910
 C61 C 0.17959 0.20265 0.24462
 C62 C 0.22645 0.24849 0.31089
 C63 C 0.32427 0.29383 0.30377
 C64 C 0.37638 0.29372 0.22840
 C65 C 0.37958 0.24858 0.08496
 C66 C 0.47832 0.29062 0.07779
 C67 C 0.52637 0.33413 0.14478
 C68 C 0.47574 0.33694 0.21934
 H69 H 0.34473 0.21569 0.03156
 H70 H 0.51772 0.28936 0.02000
 H71 H 0.60300 0.36666 0.13883
 H72 H 0.51481 0.37322 0.26948
 H73 H 0.10456 0.16587 0.25227
 H74 H 0.18604 0.24857 0.36841
 C75 C 0.63939 0.86023 0.20321
 C76 C 0.71599 0.80450 0.16031
 C77 C 0.74756 0.70227 0.18986
 C78 C 0.71616 0.66299 0.26500
 C79 C 0.65572 0.72619 0.31660
 C80 C 0.61335 0.82576 0.28427
 C81 C 0.58829 0.94915 0.16758
 C82 C 0.51849 1.00919 0.21180
 C83 C 0.49874 0.98223 0.29230
 C84 C 0.54534 0.89186 0.32822
 H85 H 0.59837 0.97002 0.10464
 H86 H 0.47987 1.07710 0.18351
 H87 H 0.44585 1.03073 0.32693
 H88 H 0.52632 0.87649 0.39018
 H89 H 0.80230 0.65470 0.15658
 H90 H 0.74335 0.58315 0.28364
 C91 C 0.80118 0.19211 0.77235
 C92 C 0.76030 0.22627 0.84911
 C93 C 0.68151 0.30167 0.85051
 C94 C 0.64607 0.34777 0.77886
 C95 C 0.68577 0.31665 0.70361
 C96 C 0.76175 0.23625 0.69957
 C97 C 0.88156 0.11649 0.76491
 C98 C 0.91775 0.08186 0.69023
 C99 C 0.87813 0.12430 0.62004
 C100 C 0.80270 0.20231 0.62426
 H101 H 0.92115 0.08410 0.81495
 H102 H 0.97884 0.02373 0.68695
 H103 H 0.90805 0.09924 0.56198
 H104 H 0.77902 0.23622 0.56739
 H105 H 0.65025 0.32887 0.90760
 H106 H 0.58708 0.40858 0.78210
 C107 C 0.20562 0.64206 0.83961
 C108 C 0.15560 0.74439 0.83011
 C109 C 0.15524 0.79640 0.75403
 C110 C 0.20532 0.75121 0.68830
 C111 C 0.25851 0.65262 0.69615
 C112 C 0.25920 0.59672 0.77236
 C113 C 0.20831 0.58678 0.91524
 C114 C 0.26417 0.49093 0.92518
 C115 C 0.31913 0.44900 0.86053
 C116 C 0.31673 0.50074 0.78477
 H117 H 0.16823 0.61716 0.96753
 H118 H 0.26612 0.44996 0.98371
 H119 H 0.36447 0.37631 0.86931
 H120 H 0.36230 0.46607 0.73703
 H121 H 0.11860 0.87538 0.74607
 H122 H 0.20394 0.79505 0.63077
 C123 C 0.14852 0.25672 0.75702
 C124 C 0.20096 0.19569 0.81771
 C125 C 0.30179 0.16837 0.80100
 C126 C 0.34803 0.19541 0.72689
 C127 C 0.29389 0.24396 0.66401
 C128 C 0.19000 0.26457 0.67729
 C129 C 0.05835 0.31475 0.77277
 C130 C 0.00333 0.36058 0.71024
 C131 C 0.03444 0.34591 0.63077
 C132 C 0.12630 0.29645 0.61425
 H133 H 0.03058 0.32955 0.83287
 H134 H -0.06580 0.40359 0.72345
 H135 H -0.01205 0.37397 0.58187
 H136 H 0.14544 0.28101 0.55197
 H137 H 0.34635 0.12678 0.84586
 H138 H 0.42749 0.17837 0.71900
 C139 C 0.66919 0.86180 0.81697
 C140 C 0.77234 0.83656 0.82893
 C141 C 0.82095 0.76732 0.77440
 C142 C 0.77031 0.72461 0.70839
 C143 C 0.66910 0.75001 0.69370
 C144 C 0.61821 0.82214 0.74748
 C145 C 0.61423 0.92287 0.87410
 C146 C 0.51500 0.95237 0.86118
 C147 C 0.46753 0.92060 0.79107
 C148 C 0.51825 0.85675 0.73456
 H149 H 0.64607 0.94532 0.93030
 H150 H 0.47509 1.00025 0.90586
 H151 H 0.39058 0.94437 0.78061
 H152 H 0.47745 0.83747 0.68102
 H153 H 0.89913 0.74624 0.78286
 H154 H 0.81103 0.66986 0.66866
 C155 C 0.28786 0.71558 0.17719
 C156 C 0.19116 0.76431 0.18383
 C157 C 0.14445 0.77118 0.26036
 C158 C 0.19260 0.73655 0.32973
 C159 C 0.28981 0.69449 0.32559
 C160 C 0.33748 0.68078 0.24877
 C161 C 0.33528 0.69654 0.10146
 C162 C 0.42955 0.64821 0.09627
 C163 C 0.47771 0.61507 0.16580
 C164 C 0.43178 0.62918 0.24110
 H165 H 0.30035 0.71538 0.04503
 H166 H 0.46465 0.63465 0.03779
 H167 H 0.55037 0.57627 0.16130
 H168 H 0.47058 0.59722 0.29257
 H169 H 0.07036 0.80657 0.26706
 H170 H 0.15445 0.74568 0.38763
 C171 C 0.89225 0.31021 0.24550
 C172 C 0.85283 0.20907 0.21147
 C173 C 0.77215 0.15407 0.25348
 C174 C 0.72181 0.20227 0.31771
 C175 C 0.75190 0.30569 0.34733
 C176 C 0.84125 0.35792 0.31391
 C177 C 0.98225 0.36425 0.21596
 C178 C 1.01887 0.46203 0.24986
 C179 C 0.96793 0.50878 0.31424
 C180 C 0.88071 0.45734 0.34602
 H181 H 1.02902 0.33138 0.16884
 H182 H 1.08790 0.50125 0.22635
 H183 H 0.99644 0.58512 0.34015
 H184 H 0.84444 0.49789 0.39517
 H185 H 0.74229 0.07482 0.23373
 H186 H 0.65649 0.15828 0.34376
   
