data_POSCAR
  _audit_creation_date              2014-09-24
  _audit_creation_method            'ToBaCCo'
  _symmetry_space_group_name_H-M    'P1'
  _symmetry_Int_Tables_number       1
  _symmetry_cell_setting            triclinic
  loop_
  _symmetry_equiv_pos_as_xyz
 x,y,z
_cell_length_a 23.0206
_cell_length_b 22.9554
_cell_length_c 23.0616
_cell_angle_alpha 92.888000
_cell_angle_beta 90.348700
_cell_angle_gamma 87.305500
loop_
  _atom_site_label
  _atom_site_type_symbol
  _atom_site_fract_x
  _atom_site_fract_y
  _atom_site_fract_z
C1 C 0.57849 0.37157 -0.07021
 C2 C 0.62039 0.41193 -0.06238
 C3 C 0.60373 0.44728 -0.01420
 N4 N 0.55229 0.43152 0.00619
 C5 C 0.53750 0.38481 -0.02738
 C6 C 0.63445 0.49326 0.01234
 C7 C 0.60112 0.54524 0.02929
 C8 C 0.61822 0.59162 0.06562
 C9 C 0.57492 0.63473 0.06380
 C10 C 0.53399 0.61543 0.02394
 N11 N 0.54892 0.56015 0.00513
 C12 C 0.48792 0.64990 -0.00007
 C13 C 0.43331 0.62373 -0.00991
 C14 C 0.38265 0.65027 -0.03124
 C15 C 0.34108 0.60953 -0.03216
 C16 C 0.36568 0.56017 -0.00796
 N17 N 0.42224 0.56881 0.00478
 C18 C 0.33581 0.50883 0.00306
 C19 C 0.36517 0.45221 -0.00043
 C20 C 0.33816 0.39910 -0.00298
 C21 C 0.38080 0.35542 -0.00767
 C22 C 0.43336 0.38211 -0.00899
 N23 N 0.42330 0.44093 -0.00592
 C24 C 0.48866 0.35259 -0.01713
 H25 H 0.57767 0.33690 -0.10377
 H26 H 0.65814 0.41537 -0.08951
 H27 H 0.45479 0.47134 -0.00904
 H28 H 0.65774 0.59643 0.09019
 H29 H 0.57505 0.67675 0.08728
 H30 H 0.37439 0.69437 -0.04410
 H31 H 0.29775 0.61595 -0.04974
 H32 H 0.37294 0.30940 -0.01268
 H33 H 0.52841 0.53707 -0.02872
 H34 H 0.29232 0.39125 -0.00480
 C35 C 0.03198 0.60859 0.65962
 C36 C 0.03061 0.64931 0.61824
 C37 C 0.00905 0.62254 0.56774
 N38 N -0.00532 0.56750 0.57872
 C39 C 0.00784 0.55901 0.63506
 C40 C -0.00131 0.64854 0.51336
 C41 C -0.02555 0.61379 0.46756
 C42 C -0.06580 0.63262 0.42690
 C43 C -0.06776 0.58923 0.38379
 C44 C -0.03110 0.54331 0.40081
 N45 N -0.00661 0.55857 0.45269
 C46 C -0.01409 0.49161 0.36749
 C47 C 0.01235 0.44542 0.39742
 C48 C 0.05967 0.40951 0.37959
 C49 C 0.06797 0.36921 0.42126
 C50 C 0.02612 0.38293 0.46316
 N51 N -0.00721 0.42994 0.44916
 C52 C 0.01649 0.35094 0.51214
 C53 C 0.00902 0.38067 0.56743
 C54 C 0.00841 0.35418 0.61996
 C55 C 0.00388 0.39799 0.66254
 C56 C 0.00078 0.45097 0.63553
 N57 N 0.00580 0.43952 0.57746
 C58 C -0.00294 0.50767 0.66482
 H59 H 0.04971 0.61518 0.70284
 H60 H 0.04329 0.69356 0.62649
 H61 H 0.00839 0.46991 0.54603
 H62 H -0.08946 0.67449 0.42682
 H63 H -0.09269 0.59343 0.34450
 H64 H 0.08623 0.41273 0.34145
 H65 H 0.10126 0.33430 0.42134
 H66 H 0.00612 0.39036 0.70831
 H67 H 0.02757 0.53581 0.47289
 H68 H 0.01371 0.30822 0.62781
 C69 C 0.39073 -0.07754 0.56841
 C70 C 0.43285 -0.07714 0.61077
 C71 C 0.46649 -0.03009 0.60114
 N72 N 0.44745 -0.00247 0.55383
 C73 C 0.40055 -0.03093 0.53453
 C74 C 0.51212 -0.01048 0.63706
 C75 C 0.56551 0.00322 0.61064
 C76 C 0.61606 0.01851 0.63963
 C77 C 0.65768 0.02415 0.59830
 C78 C 0.63266 0.01076 0.54462
 N79 N 0.57650 -0.00175 0.55276
 C80 C 0.66190 0.01058 0.49009
 C81 C 0.63010 0.02326 0.43860
 C82 C 0.65052 0.05443 0.39356
 C83 C 0.60840 0.05433 0.35132
 C84 C 0.56324 0.02320 0.37153
 N85 N 0.57592 0.00590 0.42566
 C86 C 0.51167 0.01100 0.33976
 C87 C 0.45718 0.00950 0.36850
 C88 C 0.40335 0.02152 0.34324
 C89 C 0.36198 0.01546 0.38482
 C90 C 0.39125 0.00106 0.43528
 N91 N 0.44918 -0.00289 0.42455
 C92 C 0.36508 -0.01262 0.48840
 H93 H 0.35681 -0.10847 0.56293
 H94 H 0.43818 -0.10768 0.64488
 H95 H 0.48091 -0.01835 0.45263
 H96 H 0.62394 0.02337 0.68577
 H97 H 0.70153 0.03692 0.60747
 H98 H 0.69108 0.07625 0.39176
 H99 H 0.61029 0.07624 0.31097
 H100 H 0.31571 0.01960 0.37712
 H101 H 0.54870 -0.01820 0.52115
 H102 H 0.39413 0.03401 0.29945
 O103 O 0.45515 -0.00306 -0.09283
 O104 O 0.45994 0.00491 0.06753
 O105 O 0.45464 0.08101 -0.01303
 O106 O 0.45411 -0.07885 -0.01284
 O107 O 0.55007 -0.08414 -0.01581
 O108 O 0.55066 0.07657 -0.01395
 O109 O 0.55587 -0.00152 0.06475
 O110 O 0.55115 -0.00640 -0.09455
 Cu111 Cu 0.44636 0.00152 -0.01248
 Cu112 Cu 0.56153 -0.00435 -0.01513
 C113 C 0.50263 -0.00571 -0.12095
 C114 C 0.50889 0.00229 0.09346
 C115 C 0.50253 0.10614 -0.01371
 C116 C 0.50184 -0.10884 -0.01416
 O117 O -0.10148 0.54693 1.02168
 O118 O 0.05790 0.55631 1.02293
 O119 O -0.02294 0.55603 0.94213
 O120 O -0.02197 0.54646 1.10113
 O121 O -0.01121 0.45043 1.09037
 O122 O -0.01217 0.45996 0.93207
 O123 O 0.06770 0.46024 1.01196
 O124 O -0.09119 0.45090 1.01046
 Cu125 Cu -0.02298 0.56118 1.02290
 Cu126 Cu -0.01070 0.44575 1.01018
 C127 C -0.12346 0.49725 1.01589
 C128 C 0.08999 0.50977 1.01782
 C129 C -0.01791 0.50946 0.91000
 C130 C -0.01653 0.49670 1.12279
 O131 O 0.01405 -0.08583 0.45116
 O132 O 0.01260 0.07477 0.45058
 O133 O 0.09308 -0.00822 0.44993
 O134 O -0.06635 -0.00338 0.44552
 O135 O -0.06891 0.00348 0.54131
 O136 O 0.09156 -0.00463 0.54579
 O137 O 0.01204 0.07955 0.54645
 O138 O 0.01124 -0.08020 0.54698
 Cu139 Cu 0.01358 -0.00616 0.43970
 Cu140 Cu 0.01118 0.00013 0.55475
 C141 C 0.01243 -0.11034 0.49933
 C142 C 0.01257 0.10449 0.49862
 C143 C 0.11959 -0.00751 0.49833
 C144 C -0.09497 0.00061 0.49250
 C145 C -0.30205 0.49090 1.01477
 C146 C -0.27553 0.50795 1.07451
 C147 C -0.21652 0.51095 1.07446
 C148 C -0.18849 0.49379 1.01544
 C149 C -0.21079 0.43294 0.99965
 C150 C -0.26978 0.43104 1.00039
 C151 C -0.27723 0.53266 0.97206
 C152 C -0.21843 0.53406 0.97235
 H153 H -0.29999 0.51097 1.11472
 H154 H -0.19178 0.51899 1.11401
 H155 H -0.18296 0.39354 0.99456
 H156 H -0.28992 0.38925 0.99932
 H157 H -0.30400 0.55868 0.94319
 H158 H -0.19521 0.56111 0.94387
 C159 C 0.26880 0.51265 1.01079
 C160 C 0.24565 0.47342 1.05726
 C161 C 0.18654 0.47238 1.05942
 C162 C 0.15516 0.51242 1.01668
 C163 C 0.17961 0.57265 1.03123
 C164 C 0.23889 0.57252 1.02956
 C165 C 0.23859 0.49374 0.95380
 C166 C 0.17991 0.49334 0.95696
 H167 H 0.27332 0.45099 1.08813
 H168 H 0.16427 0.44844 1.09134
 H169 H 0.15345 0.61040 1.04767
 H170 H 0.26177 0.60967 1.04727
 H171 H 0.26187 0.48155 0.91388
 H172 H 0.15335 0.48064 0.91989
 C173 C 0.00503 -0.28887 0.50703
 C174 C 0.00584 -0.26729 0.44424
 C175 C 0.00731 -0.20832 0.44114
 C176 C 0.01050 -0.17561 0.50073
 C177 C -0.04219 -0.19434 0.53416
 C178 C -0.04495 -0.25290 0.53754
 C179 C 0.06163 -0.26370 0.53199
 C180 C 0.06372 -0.20452 0.53009
 H181 H 0.01267 -0.29556 0.40552
 H182 H 0.01228 -0.18795 0.40011
 H183 H -0.07507 -0.16390 0.55330
 H184 H -0.08027 -0.27220 0.55969
 H185 H 0.09904 -0.29044 0.54532
 H186 H 0.10197 -0.18125 0.54337
 C187 C 0.01520 0.28394 0.50566
 C188 C 0.06914 0.25301 0.53181
 C189 C 0.06813 0.19375 0.52891
 C190 C 0.01340 0.16997 0.49976
 C191 C -0.03782 0.20009 0.53349
 C192 C -0.03734 0.25939 0.53593
 C193 C 0.01069 0.25636 0.44310
 C194 C 0.01050 0.19698 0.44015
 H195 H 0.10546 0.27600 0.55056
 H196 H 0.10360 0.16618 0.54515
 H197 H -0.07289 0.17686 0.55168
 H198 H -0.07244 0.28648 0.55582
 H199 H 0.00267 0.28073 0.40459
 H200 H 0.00446 0.17220 0.39940
 C201 C 0.50625 -0.00868 -0.29976
 C202 C 0.52520 0.04878 -0.26905
 C203 C 0.52438 0.04901 -0.21004
 C204 C 0.50232 -0.00707 -0.18621
 C205 C 0.44269 -0.01393 -0.21536
 C206 C 0.44438 -0.01389 -0.27442
 C207 C 0.54340 -0.05769 -0.27251
 C208 C 0.54135 -0.05683 -0.21364
 H209 H 0.53572 0.08718 -0.29180
 H210 H 0.53492 0.08712 -0.18287
 H211 H 0.40200 -0.01388 -0.19183
 H212 H 0.40435 -0.01107 -0.29933
 H213 H 0.56873 -0.09098 -0.29771
 H214 H 0.56486 -0.08933 -0.18880
 C215 C 0.51279 0.00729 0.27262
 C216 C 0.57162 -0.01208 0.24399
 C217 C 0.57093 -0.01292 0.18489
 C218 C 0.51103 0.00368 0.15888
 C219 C 0.47005 -0.03858 0.18531
 C220 C 0.47153 -0.03737 0.24439
 C221 C 0.49517 0.06579 0.24628
 C222 C 0.49400 0.06384 0.18723
 H223 H 0.60935 -0.02868 0.26747
 H224 H 0.60841 -0.02856 0.15928
 H225 H 0.44449 -0.06914 0.15975
 H226 H 0.44771 -0.06772 0.26866
 H227 H 0.48464 0.10562 0.27221
 H228 H 0.48252 0.10196 0.16282
 C229 C 0.49421 -0.28747 -0.00656
 C230 C 0.55709 -0.26567 -0.00782
 C231 C 0.56016 -0.20669 -0.00937
 C232 C 0.50046 -0.17417 -0.01221
 C233 C 0.47072 -0.20342 -0.06512
 C234 C 0.46885 -0.26262 -0.06295
 C235 C 0.46397 -0.25137 0.04348
 C236 C 0.46732 -0.19281 0.04063
 H237 H 0.59583 -0.29384 -0.01487
 H238 H 0.60122 -0.18620 -0.01463
 H239 H 0.45717 -0.18037 -0.10326
 H240 H 0.45528 -0.28955 -0.10019
 H241 H 0.44201 -0.27059 0.07891
 H242 H 0.44833 -0.16230 0.07354
 C243 C 0.49528 0.28561 -0.01607
 C244 C 0.55802 0.25828 -0.01269
 C245 C 0.56106 0.19890 -0.01256
 C246 C 0.50134 0.17164 -0.01447
 C247 C 0.46839 0.20173 0.03724
 C248 C 0.46587 0.26102 0.03686
 C249 C 0.46822 0.25449 -0.06951
 C250 C 0.47122 0.19524 -0.06860
 H251 H 0.59672 0.28285 -0.00558
 H252 H 0.60201 0.17427 -0.00741
 H253 H 0.45075 0.17849 0.07251
 H254 H 0.44645 0.28810 0.07222
 H255 H 0.44883 0.27734 -0.10544
 H256 H 0.45442 0.16754 -0.10378
 C257 C -0.27439 0.00642 0.48902
 C258 C -0.24733 0.06513 0.50523
 C259 C -0.18822 0.06278 0.50628
 C260 C -0.16043 0.00215 0.49051
 C261 C -0.18715 -0.03889 0.53242
 C262 C -0.24632 -0.03750 0.53103
 C263 C -0.24585 -0.01480 0.43055
 C264 C -0.18665 -0.01585 0.43111
 H265 H -0.27280 0.10542 0.51492
 H266 H -0.16337 0.10098 0.51681
 H267 H -0.16174 -0.06909 0.55832
 H268 H -0.27072 -0.06744 0.55527
 H269 H -0.26946 -0.03242 0.39328
 H270 H -0.16114 -0.03270 0.39400
 C271 C 0.29845 -0.01087 0.49450
 C272 C 0.27106 -0.05990 0.45736
 C273 C 0.21208 -0.05901 0.45946
 C274 C 0.18489 -0.00908 0.49851
 C275 C 0.21415 -0.01586 0.55801
 C276 C 0.27332 -0.01607 0.55618
 C277 C 0.26811 0.04642 0.47538
 C278 C 0.20901 0.04686 0.47641
 H279 H 0.29627 -0.09315 0.43202
 H280 H 0.18702 -0.09150 0.43595
 H281 H 0.19066 -0.01606 0.59865
 H282 H 0.29858 -0.01390 0.59597
 H283 H 0.29122 0.08448 0.46438
 H284 H 0.18198 0.08488 0.46565
 C285 C -0.01654 0.48950 1.30072
 C286 C 0.02652 0.53142 1.27674
 C287 C 0.02668 0.53314 1.21807
 C288 C -0.01646 0.49301 1.18758
 C289 C -0.00103 0.43201 1.20946
 C290 C -0.00208 0.42988 1.26830
 C291 C -0.07609 0.50692 1.27416
 C292 C -0.07569 0.51012 1.21531
 H293 H 0.05521 0.55731 1.30401
 H294 H 0.05542 0.56037 1.19535
 H295 H 0.00429 0.39273 1.18142
 H296 H -0.00096 0.38813 1.28831
 H297 H -0.11645 0.50987 1.29842
 H298 H -0.11513 0.51833 1.19044
 C299 C -0.01072 0.51171 0.73164
 C300 C 0.04645 0.49354 0.76186
 C301 C 0.04324 0.49338 0.82043
 C302 C -0.01673 0.51195 0.84501
 C303 C -0.03170 0.57194 0.82057
 C304 C -0.02997 0.57156 0.76140
 C305 C -0.05700 0.47209 0.75470
 C306 C -0.05922 0.47131 0.81369
 H307 H 0.08653 0.48171 0.73867
 H308 H 0.08043 0.48127 0.84702
 H309 H -0.04841 0.60964 0.84665
 H310 H -0.04787 0.60845 0.73847
 H311 H -0.08772 0.44921 0.72706
 H312 H -0.09106 0.44716 0.83592
   
