data_POSCAR
  _audit_creation_date              2014-09-24
  _audit_creation_method            'ToBaCCo'
  _symmetry_space_group_name_H-M    'P1'
  _symmetry_Int_Tables_number       1
  _symmetry_cell_setting            triclinic
  loop_
  _symmetry_equiv_pos_as_xyz
 x,y,z
_cell_length_a 23.8053
_cell_length_b 24.0469
_cell_length_c 38.2627
_cell_angle_alpha 89.847700
_cell_angle_beta 92.054000
_cell_angle_gamma 97.404300
loop_
  _atom_site_label
  _atom_site_type_symbol
  _atom_site_fract_x
  _atom_site_fract_y
  _atom_site_fract_z
C1 C 0.00601 0.38589 1.03515
 C2 C 0.01700 0.36031 1.00363
 C3 C 0.01139 0.38668 0.97142
 C4 C 0.00050 0.44303 0.97034
 C5 C -0.00656 0.47171 1.00194
 C6 C -0.00506 0.44283 1.03443
 C7 C -0.01188 0.47274 1.06517
 C8 C -0.02403 0.52765 1.06400
 C9 C -0.02315 0.55809 1.03253
 C10 C -0.01523 0.52938 1.00098
 C11 C -0.00298 0.47150 0.93846
 C12 C -0.01292 0.52709 0.93747
 C13 C -0.01683 0.55778 0.96837
 C14 C -0.02671 0.61481 0.96736
 C15 C -0.03943 0.64050 0.99846
 C16 C -0.03366 0.61516 1.03132
 H17 H -0.00768 0.45451 1.09077
 H18 H -0.03488 0.54537 1.08836
 H19 H 0.00196 0.45111 0.91380
 H20 H -0.01869 0.54527 0.91194
 H21 H 0.02465 0.31676 1.00364
 H22 H -0.04663 0.68414 0.99746
 C23 C 0.61807 -0.00613 0.46838
 C24 C 0.64963 0.00144 0.49979
 C25 C 0.62406 -0.00081 0.53241
 C26 C 0.56366 -0.00594 0.53300
 C27 C 0.53104 -0.01252 0.50095
 C28 C 0.55839 -0.01309 0.46862
 C29 C 0.52548 -0.01848 0.43729
 C30 C 0.46673 -0.02226 0.43750
 C31 C 0.43862 -0.02053 0.46905
 C32 C 0.47087 -0.01670 0.50110
 C33 C 0.53493 0.00029 0.56404
 C34 C 0.47603 -0.00583 0.56429
 C35 C 0.44314 -0.01528 0.53320
 C36 C 0.38327 -0.02036 0.53313
 C37 C 0.35222 -0.02350 0.50135
 C38 C 0.37901 -0.02232 0.46942
 H39 H 0.54493 -0.01877 0.41217
 H40 H 0.44351 -0.02643 0.41261
 H41 H 0.55741 0.01197 0.58846
 H42 H 0.45656 -0.00111 0.58906
 H43 H 0.69547 0.00546 0.49860
 H44 H 0.30643 -0.02535 0.50145
 C45 C 0.07171 -0.06678 0.27673
 H46 H 0.05163 -0.10075 0.26058
 C47 C 0.11597 -0.07657 0.29997
 H48 H 0.12909 -0.11801 0.30133
 C49 C 0.08047 0.02834 0.29426
 H50 H 0.06701 0.06939 0.29172
 C51 C 0.12544 0.02061 0.31744
 H52 H 0.14536 0.05567 0.33308
 N53 N 0.05347 -0.01540 0.27509
 C54 C -0.03378 -0.04983 0.18026
 H55 H -0.02379 -0.00694 0.17184
 C56 C -0.04588 -0.09191 0.15513
 H57 H -0.04476 -0.08095 0.12766
 C58 C -0.04627 -0.11667 0.22586
 H59 H -0.04697 -0.12595 0.25353
 C60 C -0.05694 -0.16037 0.20148
 H61 H -0.06531 -0.20332 0.21041
 Zn62 Zn -0.01207 -0.00288 0.24733
 N63 N -0.03335 -0.06271 0.21493
 C64 C 0.05751 0.08086 0.21134
 N65 N 0.00393 0.06411 0.22163
 C66 C -0.04005 0.09169 0.21106
 C67 C -0.03126 0.13729 0.18840
 C68 C 0.06827 0.12644 0.18878
 C69 C -0.06408 0.04897 0.30043
 C70 C -0.10584 0.05748 0.32372
 C71 C -0.16520 -0.02220 0.29834
 C72 C -0.12199 -0.02935 0.27555
 N73 N -0.07230 0.00570 0.27727
 H74 H 0.09166 0.05783 0.21983
 H75 H -0.08239 0.07696 0.21925
 H76 H -0.06724 0.15748 0.17941
 H77 H 0.11131 0.13888 0.18104
 H78 H -0.02494 0.07710 0.30093
 H79 H -0.09670 0.09106 0.34261
 H80 H -0.20426 -0.05079 0.29673
 H81 H -0.12830 -0.06293 0.25657
 C82 C -0.05664 -0.14796 0.16567
 C83 C 0.14258 -0.03277 0.32125
 C84 C -0.15747 0.02171 0.32293
 C85 C 0.02323 0.15441 0.17620
 C86 C -0.00150 0.11080 0.78031
 H87 H -0.03056 0.11152 0.75803
 C88 C 0.00567 0.15584 0.80375
 H89 H -0.01861 0.19049 0.79937
 C90 C 0.06627 0.06571 0.81258
 H91 H 0.08997 0.03058 0.81585
 C92 C 0.07465 0.10970 0.83668
 H93 H 0.10374 0.10662 0.85874
 N94 N 0.02827 0.06662 0.78528
 C95 C 0.10131 -0.04221 0.71535
 H96 H 0.07615 -0.08195 0.72045
 C97 C 0.14566 -0.03961 0.69216
 H98 H 0.15471 -0.07769 0.67970
 C99 C 0.11724 0.05640 0.72324
 H100 H 0.10482 0.09386 0.73464
 C101 C 0.16155 0.06093 0.70012
 H102 H 0.18387 0.10197 0.69466
 Zn103 Zn 0.01934 0.00498 0.75382
 N104 N 0.08744 0.00558 0.72982
 C105 C -0.02688 0.01327 0.68568
 N106 N -0.04009 0.01252 0.72001
 C107 C -0.09372 0.01769 0.72967
 C108 C -0.13669 0.02245 0.70431
 C109 C -0.06812 0.01895 0.65964
 C110 C 0.04792 -0.08255 0.79755
 C111 C 0.03780 -0.12821 0.82018
 C112 C -0.06205 -0.13355 0.80504
 C113 C -0.04996 -0.08841 0.78234
 N114 N 0.00412 -0.06271 0.77977
 H115 H 0.01573 0.00936 0.67825
 H116 H -0.10314 0.01839 0.75710
 H117 H -0.17922 0.02619 0.71232
 H118 H -0.05670 0.01871 0.63250
 H119 H 0.09072 -0.06216 0.79475
 H120 H 0.07295 -0.14236 0.83493
 H121 H -0.10554 -0.15254 0.80732
 H122 H -0.08424 -0.07328 0.76761
 C123 C 0.17504 0.01272 0.68337
 C124 C 0.04419 0.15578 0.83245
 C125 C -0.01799 -0.15307 0.82492
 C126 C -0.12382 0.02359 0.66882
 C127 C -0.06958 -0.27133 0.08648
 C128 C -0.03306 -0.27441 0.11576
 N129 N 0.00233 -0.31433 0.11697
 C130 C 0.00250 -0.35181 0.09040
 C131 C -0.03525 -0.35013 0.06114
 N132 N -0.06959 -0.30879 0.06006
 N133 N -0.10293 -0.22965 0.08426
 C134 C -0.10092 -0.19040 0.10993
 C135 C -0.06403 -0.19303 0.13924
 N136 N -0.03116 -0.23537 0.14152
 H137 H 0.03419 -0.38027 0.09139
 H138 H -0.12736 -0.15711 0.10734
 C139 C 0.04039 0.27704 0.09604
 C140 C -0.00269 0.27601 0.12007
 N141 N -0.04159 0.31237 0.11625
 C142 C -0.03915 0.35007 0.08957
 C143 C 0.00452 0.35182 0.06539
 N144 N 0.04254 0.31415 0.06927
 N145 N 0.07833 0.23968 0.09912
 C146 C 0.07509 0.20098 0.12515
 C147 C 0.03147 0.19913 0.14928
 N148 N -0.00638 0.23705 0.14591
 H149 H -0.07287 0.37599 0.08623
 H150 H 0.10510 0.17086 0.12597
 C151 C 0.28608 0.02155 0.59889
 C152 C 0.28371 -0.02331 0.62257
 N153 N 0.31572 -0.06524 0.61742
 C154 C 0.34965 -0.06450 0.58948
 C155 C 0.35120 -0.02011 0.56544
 N156 N 0.31917 0.02184 0.57076
 N157 N 0.25413 0.06342 0.60387
 C158 C 0.21955 0.06246 0.63140
 C159 C 0.21609 0.01713 0.65497
 N160 N 0.24844 -0.02481 0.64981
 H161 H 0.37422 -0.09871 0.58559
 H162 H 0.19358 0.09585 0.63404
 C163 C -0.24796 0.03262 0.58788
 C164 C -0.26070 0.00011 0.61767
 N165 N -0.31198 -0.03170 0.61922
 C166 C -0.35131 -0.03217 0.59243
 C167 C -0.33916 0.00119 0.56249
 N168 N -0.28699 0.03206 0.56123
 N169 N -0.19620 0.06306 0.58555
 C170 C -0.15608 0.06192 0.61157
 C171 C -0.16812 0.02865 0.64135
 N172 N -0.22062 -0.00115 0.64379
 H173 H -0.39013 -0.06080 0.59381
 H174 H -0.11511 0.08663 0.60897
 C175 C -0.04879 -0.27415 0.90482
 C176 C -0.00282 -0.27500 0.88304
 N177 N 0.03326 -0.31369 0.88861
 C178 C 0.02544 -0.35171 0.91497
 C179 C -0.02056 -0.35095 0.93722
 N180 N -0.05594 -0.31122 0.93156
 N181 N -0.08487 -0.23544 0.89943
 C182 C -0.07692 -0.19721 0.87327
 C183 C -0.03012 -0.19699 0.85176
 N184 N 0.00592 -0.23609 0.85732
 H185 H 0.05671 -0.38006 0.91960
 H186 H -0.10582 -0.16618 0.87008
 C187 C 0.05666 0.28462 0.90907
 C188 C 0.00824 0.27333 0.88700
 N189 N -0.03666 0.30179 0.89144
 C190 C -0.03555 0.34068 0.91728
 C191 C 0.01258 0.35153 0.93981
 N192 N 0.05755 0.32290 0.93515
 N193 N 0.10129 0.25578 0.90481
 C194 C 0.09939 0.21533 0.87988
 C195 C 0.05009 0.20231 0.85837
 N196 N 0.00602 0.23252 0.86236
 H197 H -0.07256 0.36156 0.92100
 H198 H 0.13614 0.19385 0.87703
 C199 C -0.27871 0.03621 0.40001
 C200 C -0.27769 -0.01446 0.38211
 N201 N -0.31364 -0.06039 0.39108
 C202 C -0.34997 -0.05807 0.41755
 C203 C -0.34989 -0.00774 0.43613
 N204 N -0.31414 0.03827 0.42683
 N205 N -0.24293 0.08210 0.39107
 C206 C -0.20508 0.07943 0.36557
 C207 C -0.20183 0.02802 0.34854
 N208 N -0.23922 -0.01746 0.35704
 H209 H -0.37724 -0.09553 0.42486
 H210 H -0.17792 0.11722 0.35894
 C211 C 0.26367 -0.05618 0.40201
 C212 C 0.26871 -0.00692 0.38196
 N213 N 0.31135 0.03483 0.38964
 C214 C 0.34892 0.02979 0.41672
 C215 C 0.34325 -0.01896 0.43731
 N216 N 0.30050 -0.06082 0.42947
 N217 N 0.22095 -0.09783 0.39435
 C218 C 0.18265 -0.09234 0.36774
 C219 C 0.18659 -0.04243 0.34812
 N220 N 0.22987 -0.00095 0.35583
 H221 H 0.38191 0.06408 0.42281
 H222 H 0.14832 -0.12579 0.36285
   
