data_POSCAR
  _audit_creation_date              2014-09-24
  _audit_creation_method            'ToBaCCo'
  _symmetry_space_group_name_H-M    'P1'
  _symmetry_Int_Tables_number       1
  _symmetry_cell_setting            triclinic
  loop_
  _symmetry_equiv_pos_as_xyz
 x,y,z
_cell_length_a 39.7440
_cell_length_b 39.7930
_cell_length_c 39.7776
_cell_angle_alpha 93.684300
_cell_angle_beta 82.961400
_cell_angle_gamma 89.936700
loop_
  _atom_site_label
  _atom_site_type_symbol
  _atom_site_fract_x
  _atom_site_fract_y
  _atom_site_fract_z
C1 C 0.56264 0.41513 -0.01791
 C2 C 0.58677 0.43966 -0.01753
 C3 C 0.57030 0.46911 -0.00380
 N4 N 0.53668 0.46345 0.00311
 C5 C 0.53193 0.43048 -0.00553
 C6 C 0.58591 0.50022 0.00420
 C7 C 0.56615 0.53021 0.01066
 C8 C 0.57424 0.55828 0.03055
 C9 C 0.55009 0.58244 0.02835
 C10 C 0.52775 0.56861 0.00719
 N11 N 0.53723 0.53642 -0.00281
 C12 C 0.49999 0.58584 -0.00341
 C13 C 0.47144 0.56754 -0.01229
 C14 C 0.44660 0.57902 -0.03057
 C15 C 0.42239 0.55452 -0.03066
 C16 C 0.43345 0.52865 -0.01298
 N17 N 0.46352 0.53648 -0.00199
 C18 C 0.41505 0.49925 -0.00537
 C19 C 0.43093 0.47011 0.00408
 C20 C 0.41429 0.44275 0.01805
 C21 C 0.43850 0.41834 0.01947
 C22 C 0.46943 0.43169 0.00694
 N23 N 0.46453 0.46329 -0.00227
 C24 C 0.50058 0.41385 0.00054
 H25 H 0.56754 0.38908 -0.02650
 H26 H 0.61330 0.43587 -0.02682
 H27 H 0.48243 0.47770 -0.01614
 H28 H 0.59498 0.56097 0.04574
 H29 H 0.54883 0.60712 0.04157
 H30 H 0.44603 0.60225 -0.04317
 H31 H 0.39954 0.55543 -0.04284
 H32 H 0.43341 0.39345 0.02811
 H33 H 0.52649 0.52076 -0.02060
 H34 H 0.38741 0.44020 0.02583
 C35 C 0.01920 0.56380 0.58584
 C36 C 0.01752 0.58756 0.56268
 C37 C 0.00355 0.57202 0.53541
 N38 N -0.00229 0.53919 0.54092
 C39 C 0.00741 0.53407 0.57165
 C40 C -0.00481 0.58788 0.50646
 C41 C -0.01275 0.56831 0.47737
 C42 C -0.03232 0.57929 0.45350
 C43 C -0.03153 0.55416 0.42814
 C44 C -0.01199 0.52824 0.43734
 N45 N -0.00102 0.53676 0.46764
 C46 C -0.00308 0.49853 0.41681
 C47 C 0.00583 0.46846 0.43063
 C48 C 0.01781 0.43927 0.41214
 C49 C 0.01959 0.41523 0.43509
 C50 C 0.00939 0.43073 0.46696
 N51 N 0.00081 0.46319 0.46406
 C52 C 0.00519 0.41446 0.49772
 C53 C -0.00065 0.43216 0.53005
 C54 C -0.00841 0.41718 0.56056
 C55 C -0.00907 0.44225 0.58596
 C56 C -0.00169 0.47211 0.57051
 N57 N 0.00371 0.46564 0.53644
 C58 C 0.00346 0.50351 0.58795
 H59 H 0.02854 0.56820 0.61012
 H60 H 0.02635 0.61310 0.56578
 H61 H 0.01370 0.48244 0.51902
 H62 H -0.04607 0.60285 0.45427
 H63 H -0.04417 0.55481 0.40558
 H64 H 0.02427 0.43536 0.38496
 H65 H 0.02727 0.38932 0.42870
 H66 H -0.01319 0.43833 0.61278
 H67 H 0.01670 0.52347 0.47897
 H68 H -0.01198 0.39075 0.56458
 C69 C 0.41108 0.01128 0.56552
 C70 C 0.43415 0.01176 0.58850
 C71 C 0.46436 -0.00119 0.57125
 N72 N 0.46056 -0.00853 0.53824
 C73 C 0.42809 -0.00083 0.53464
 C74 C 0.49456 -0.00792 0.58549
 C75 C 0.52518 -0.01509 0.56383
 C76 C 0.55149 -0.03510 0.57144
 C77 C 0.57737 -0.03323 0.54547
 C78 C 0.56632 -0.01210 0.52256
 N79 N 0.53403 -0.00194 0.53343
 C80 C 0.58640 -0.00115 0.49336
 C81 C 0.57073 0.00713 0.46479
 C82 C 0.58511 0.02504 0.43787
 C83 C 0.56195 0.02508 0.41497
 C84 C 0.53402 0.00770 0.42882
 N85 N 0.53931 -0.00308 0.45929
 C86 C 0.50482 0.00049 0.41287
 C87 C 0.47425 -0.00974 0.43129
 C88 C 0.44709 -0.02402 0.41702
 C89 C 0.42101 -0.02602 0.44287
 C90 C 0.43309 -0.01347 0.47246
 N91 N 0.46567 -0.00381 0.46513
 C92 C 0.41331 -0.00731 0.50436
 H93 H 0.38488 0.01920 0.57122
 H94 H 0.42887 0.02118 0.61470
 H95 H 0.47971 0.01015 0.48145
 H96 H 0.55192 -0.04992 0.59327
 H97 H 0.60146 -0.04635 0.54355
 H98 H 0.60931 0.03757 0.43508
 H99 H 0.56509 0.03715 0.39118
 H100 H 0.39588 -0.03495 0.43966
 H101 H 0.52026 0.01596 0.52259
 H102 H 0.44578 -0.03156 0.39060
 O103 O 0.47281 -0.00244 -0.04340
 O104 O 0.47582 0.00180 0.04903
 O105 O 0.47429 0.04594 0.00407
 O106 O 0.47427 -0.04672 0.00201
 O107 O 0.53026 -0.04738 -0.00641
 O108 O 0.53024 0.04527 -0.00570
 O109 O 0.53180 0.00130 0.04037
 O110 O 0.52880 -0.00347 -0.05205
 Cu111 Cu 0.46868 -0.00032 0.00375
 Cu112 Cu 0.53590 -0.00112 -0.00677
 C113 C 0.50031 -0.00367 -0.06345
 C114 C 0.50431 0.00231 0.06042
 C115 C 0.50226 0.06134 -0.00060
 C116 C 0.50224 -0.06281 -0.00241
 O117 O -0.04699 0.53197 1.00705
 O118 O 0.04615 0.53011 1.00180
 O119 O 0.00302 0.53117 0.95783
 O120 O -0.00319 0.53085 1.05092
 O121 O -0.00320 0.47521 1.04711
 O122 O 0.00038 0.47561 0.95429
 O123 O 0.04562 0.47450 0.99673
 O124 O -0.04766 0.47635 1.00458
 Cu125 Cu -0.00025 0.53663 1.00477
 Cu126 Cu -0.00118 0.46981 1.00029
 C127 C -0.06317 0.50446 1.00686
 C128 C 0.06173 0.50200 0.99824
 C129 C 0.00240 0.50343 0.94028
 C130 C -0.00399 0.50296 1.06482
 O131 O 0.00157 -0.04836 0.47224
 O132 O 0.00645 0.04387 0.46959
 O133 O 0.04984 -0.00472 0.47280
 O134 O -0.04228 -0.00036 0.46916
 O135 O -0.05118 0.00338 0.52521
 O136 O 0.04096 0.00310 0.52869
 O137 O -0.00494 0.04917 0.52546
 O138 O -0.00582 -0.04311 0.52830
 Cu139 Cu 0.00477 -0.00284 0.46530
 Cu140 Cu -0.00607 0.00364 0.53255
 C141 C -0.00264 -0.06143 0.50073
 C142 C 0.00118 0.06220 0.49708
 C143 C 0.06105 -0.00127 0.50135
 C144 C -0.06241 0.00186 0.49662
 C145 C -0.31086 0.50377 1.01092
 N146 N -0.32797 0.53171 1.00457
 N147 N -0.36118 0.53056 1.00260
 C148 C -0.37875 0.50147 1.00685
 N149 N -0.36140 0.47371 1.01358
 N150 N -0.32820 0.47477 1.01549
 C151 C -0.27407 0.50455 1.01205
 N152 N -0.25681 0.47582 1.01569
 N153 N -0.22332 0.47620 1.01582
 C154 C -0.20586 0.50532 1.01240
 N155 N -0.22313 0.53411 1.00893
 N156 N -0.25664 0.53372 1.00871
 C157 C -0.16883 0.50539 1.01172
 N158 N -0.15123 0.53458 1.00989
 N159 N -0.11756 0.53438 1.00862
 C160 C -0.10029 0.50497 1.00903
 N161 N -0.11791 0.47582 1.01091
 N162 N -0.15156 0.47603 1.01228
 C163 C 0.30971 0.49984 0.99183
 N164 N 0.32533 0.52695 1.00520
 N165 N 0.35872 0.52671 1.00601
 C166 C 0.37783 0.49941 0.99334
 N167 N 0.36219 0.47237 0.97973
 N168 N 0.32874 0.47253 0.97908
 C169 C 0.27280 0.50004 0.99158
 N170 N 0.25638 0.47173 0.98211
 N171 N 0.22279 0.47190 0.98254
 C172 C 0.20445 0.50045 0.99230
 N173 N 0.22090 0.52877 1.00161
 N174 N 0.25444 0.52855 1.00134
 C175 C 0.16740 0.50073 0.99324
 N176 N 0.14966 0.53004 1.00002
 N177 N 0.11602 0.53041 1.00136
 C178 C 0.09885 0.50146 0.99612
 N179 N 0.11657 0.47211 0.98934
 N180 N 0.15026 0.47176 0.98784
 C181 C -0.00722 -0.30804 0.50556
 N182 N -0.00094 -0.32755 0.47623
 N183 N -0.00030 -0.36097 0.47664
 C184 C -0.00589 -0.37643 0.50633
 N185 N -0.01241 -0.35665 0.53561
 N186 N -0.01301 -0.32319 0.53528
 C187 C -0.00731 -0.27118 0.50507
 N188 N -0.01242 -0.25146 0.53442
 N189 N -0.01203 -0.21801 0.53387
 C190 C -0.00653 -0.20308 0.50396
 N191 N -0.00150 -0.22281 0.47462
 N192 N -0.00187 -0.25624 0.47517
 C193 C -0.00576 -0.16624 0.50324
 N194 N -0.00070 -0.15152 0.47321
 N195 N 0.00024 -0.11812 0.47245
 C196 C -0.00381 -0.09821 0.50170
 N197 N -0.00888 -0.11292 0.53175
 N198 N -0.00985 -0.14634 0.53251
 C199 C 0.00443 0.30885 0.49424
 N200 N 0.03243 0.32535 0.48117
 N201 N 0.03278 0.35890 0.48224
 C202 C 0.00500 0.37712 0.49609
 N203 N -0.02308 0.36054 0.50880
 N204 N -0.02329 0.32705 0.50810
 C205 C 0.00414 0.27197 0.49406
 N206 N -0.01903 0.25631 0.51550
 N207 N -0.01922 0.22287 0.51580
 C208 C 0.00348 0.20384 0.49437
 N209 N 0.02654 0.21947 0.47273
 N210 N 0.02700 0.25297 0.47272
 C211 C 0.00311 0.16702 0.49491
 N212 N 0.01818 0.14729 0.46815
 N213 N 0.01744 0.11383 0.46869
 C214 C 0.00195 0.09897 0.49619
 N215 N -0.01291 0.11872 0.52302
 N216 N -0.01252 0.15213 0.52230
 C217 C 0.49533 -0.00927 -0.31039
 N218 N 0.52427 -0.00430 -0.33123
 N219 N 0.52388 -0.00394 -0.36463
 C220 C 0.49460 -0.00856 -0.37878
 N221 N 0.46572 -0.01372 -0.35768
 N222 N 0.46602 -0.01401 -0.32423
 C223 C 0.49581 -0.00920 -0.27349
 N224 N 0.46663 -0.01199 -0.25222
 N225 N 0.46718 -0.01150 -0.21875
 C226 C 0.49693 -0.00828 -0.20534
 N227 N 0.52608 -0.00558 -0.22663
 N228 N 0.52553 -0.00599 -0.26007
 C229 C 0.49766 -0.00743 -0.16843
 N230 N 0.52766 -0.00570 -0.15537
 N231 N 0.52846 -0.00464 -0.12194
 C232 C 0.49929 -0.00519 -0.10030
 N233 N 0.46927 -0.00693 -0.11335
 N234 N 0.46847 -0.00807 -0.14681
 C235 C 0.50784 0.00683 0.30744
 N236 N 0.48069 0.01883 0.32890
 N237 N 0.47997 0.01727 0.36233
 C238 C 0.50627 0.00343 0.37561
 N239 N 0.53353 -0.00838 0.35409
 N240 N 0.53433 -0.00665 0.32065
 C241 C 0.50802 0.00757 0.27052
 N242 N 0.53625 -0.00137 0.24897
 N243 N 0.53604 -0.00141 0.21548
 C244 C 0.50754 0.00730 0.20232
 N245 N 0.47935 0.01627 0.22389
 N246 N 0.47961 0.01648 0.25736
 C247 C 0.50693 0.00647 0.16541
 N248 N 0.47725 0.01054 0.15244
 N249 N 0.47646 0.00924 0.11900
 C250 C 0.50536 0.00400 0.09727
 N251 N 0.53509 0.00008 0.11021
 N252 N 0.53584 0.00119 0.14368
 C253 C 0.50113 -0.31001 -0.00373
 N254 N 0.53052 -0.32789 -0.00653
 N255 N 0.53012 -0.36137 -0.00647
 C256 C 0.50036 -0.37847 -0.00366
 N257 N 0.47103 -0.36028 -0.00082
 N258 N 0.47137 -0.32683 -0.00086
 C259 C 0.50143 -0.27309 -0.00371
 N260 N 0.47191 -0.25531 -0.00032
 N261 N 0.47211 -0.22182 -0.00023
 C262 C 0.50184 -0.20488 -0.00355
 N263 N 0.53138 -0.22267 -0.00697
 N264 N 0.53118 -0.25616 -0.00704
 C265 C 0.50199 -0.16795 -0.00336
 N266 N 0.53168 -0.15095 -0.00714
 N267 N 0.53177 -0.11745 -0.00689
 C268 C 0.50217 -0.09972 -0.00283
 N269 N 0.47249 -0.11672 0.00095
 N270 N 0.47240 -0.15022 0.00067
 C271 C 0.50062 0.30834 0.00035
 N272 N 0.51320 0.32392 -0.02781
 N273 N 0.51288 0.35739 -0.02783
 C274 C 0.50039 0.37655 0.00043
 N275 N 0.48796 0.36093 0.02864
 N276 N 0.48786 0.32744 0.02854
 C277 C 0.50093 0.27146 0.00035
 N278 N 0.47989 0.25546 0.02354
 N279 N 0.48005 0.22196 0.02339
 C280 C 0.50158 0.20330 0.00034
 N281 N 0.52277 0.21931 -0.02271
 N282 N 0.52230 0.25278 -0.02284
 C283 C 0.50185 0.16641 0.00025
 N284 N 0.52912 0.14826 -0.01496
 N285 N 0.52938 0.11478 -0.01498
 C286 C 0.50221 0.09822 -0.00017
 N287 N 0.47486 0.11636 0.01487
 N288 N 0.47478 0.14987 0.01527
 C289 C -0.30927 0.00243 0.49253
 N290 N -0.32312 -0.00051 0.46298
 N291 N -0.35667 -0.00152 0.46317
 C292 C -0.37782 0.00037 0.49285
 N293 N -0.36365 0.00342 0.52234
 N294 N -0.33016 0.00442 0.52221
 C295 C -0.27232 0.00308 0.49262
 N296 N -0.25888 0.00566 0.52243
 N297 N -0.22542 0.00587 0.52276
 C298 C -0.20413 0.00351 0.49328
 N299 N -0.21754 0.00099 0.46343
 N300 N -0.25105 0.00078 0.46310
 C301 C -0.16724 0.00339 0.49390
 N302 N -0.14561 0.00093 0.46462
 N303 N -0.11217 0.00054 0.46541
 C304 C -0.09919 0.00257 0.49550
 N305 N -0.12083 0.00506 0.52474
 N306 N -0.15423 0.00546 0.52395
 C307 C 0.30736 -0.00725 0.50741
 N308 N 0.32365 0.02068 0.51805
 N309 N 0.35728 0.02063 0.51713
 C310 C 0.37581 -0.00747 0.50598
 N311 N 0.35942 -0.03551 0.49573
 N312 N 0.32584 -0.03534 0.49621
 C313 C 0.27045 -0.00688 0.50732
 N314 N 0.25551 -0.02946 0.48694
 N315 N 0.22210 -0.02866 0.48619
 C316 C 0.20237 -0.00554 0.50612
 N317 N 0.21727 0.01686 0.52673
 N318 N 0.25074 0.01635 0.52715
 C319 C 0.16562 -0.00455 0.50505
 N320 N 0.14459 0.01049 0.53119
 N321 N 0.11121 0.01133 0.53015
 C322 C 0.09773 -0.00242 0.50272
 N323 N 0.11878 -0.01727 0.47651
 N324 N 0.15210 -0.01850 0.47775
 C325 C -0.00715 0.50050 1.31193
 N326 N 0.00662 0.52639 1.32931
 N327 N 0.00793 0.52564 1.36254
 C328 C -0.00457 0.49902 1.37970
 N329 N -0.01868 0.47329 1.36232
 N330 N -0.01980 0.47394 1.32903
 C331 C -0.00794 0.50111 1.27520
 N332 N -0.01703 0.47337 1.25686
 N333 N -0.01706 0.47377 1.22340
 C334 C -0.00818 0.50199 1.20711
 N335 N 0.00072 0.52978 1.22548
 N336 N 0.00094 0.52932 1.25890
 C337 C -0.00770 0.50233 1.17019
 N338 N -0.00270 0.53150 1.15445
 N339 N -0.00178 0.53175 1.12088
 C340 C -0.00563 0.50279 1.10183
 N341 N -0.01062 0.47361 1.11756
 N342 N -0.01173 0.47339 1.15115
 C343 C 0.00442 0.50490 0.69336
 N344 N 0.03210 0.51471 0.67298
 N345 N 0.03188 0.51424 0.63948
 C346 C 0.00383 0.50443 0.62523
 N347 N -0.02392 0.49493 0.64571
 N348 N -0.02355 0.49494 0.67913
 C349 C 0.00474 0.50468 0.73015
 N350 N -0.01705 0.48485 0.74880
 N351 N -0.01676 0.48440 0.78221
 C352 C 0.00501 0.50410 0.79823
 N353 N 0.02667 0.52410 0.77962
 N354 N 0.02670 0.52421 0.74612
 C355 C 0.00491 0.50380 0.83506
 N356 N 0.01711 0.53031 0.85294
 N357 N 0.01628 0.53025 0.88653
 C358 C 0.00368 0.50347 0.90332
 N359 N -0.00823 0.47685 0.88540
 N360 N -0.00783 0.47711 0.85189
   
