data_POSCAR
  _audit_creation_date              2014-09-24
  _audit_creation_method            'ToBaCCo'
  _symmetry_space_group_name_H-M    'P1'
  _symmetry_Int_Tables_number       1
  _symmetry_cell_setting            triclinic
  loop_
  _symmetry_equiv_pos_as_xyz
 x,y,z
_cell_length_a 34.0873
_cell_length_b 34.1466
_cell_length_c 34.0301
_cell_angle_alpha 89.937100
_cell_angle_beta 89.989200
_cell_angle_gamma 90.019500
loop_
  _atom_site_label
  _atom_site_type_symbol
  _atom_site_fract_x
  _atom_site_fract_y
  _atom_site_fract_z
N1 N 0.54158 0.07852 0.01921
 N2 N 0.57030 0.10054 0.03291
 N3 N 0.45926 0.07839 -0.01965
 N4 N 0.43048 0.10024 -0.03353
 N5 N 0.45905 0.07849 0.01892
 N6 N 0.43015 0.10044 0.03234
 N7 N 0.54178 0.07841 -0.01936
 N8 N 0.57063 0.10039 -0.03296
 C9 C 0.58828 0.11390 0.00002
 C10 C 0.41247 0.11373 -0.00074
 N11 N 0.45936 -0.01986 -0.07891
 N12 N 0.43047 -0.03356 -0.10075
 N13 N 0.54198 0.01851 -0.07900
 N14 N 0.57063 0.03197 -0.10140
 N15 N 0.54186 -0.01988 -0.07863
 N16 N 0.57220 -0.03394 -0.10211
 N17 N 0.45943 0.01857 -0.07921
 N18 N 0.43060 0.03208 -0.10127
 Mn19 Mn 0.50063 0.04880 -0.04963
 C20 C 0.41268 -0.00081 -0.11444
 C21 C 0.58906 -0.00044 -0.11540
 N22 N 0.45888 0.01899 0.07906
 N23 N 0.42998 0.03262 0.10093
 N24 N 0.54152 -0.01929 0.07957
 N25 N 0.57013 -0.03276 0.10199
 N26 N 0.54140 0.01911 0.07923
 N27 N 0.57169 0.03316 0.10278
 N28 N 0.45899 -0.01946 0.07934
 N29 N 0.43017 -0.03302 0.10140
 Mn30 Mn 0.50021 0.04910 0.04944
 C31 C 0.41221 -0.00018 0.11458
 C32 C 0.58853 -0.00036 0.11606
 N33 N 0.54172 -0.07924 -0.01865
 N34 N 0.57060 -0.10106 -0.03227
 N35 N 0.45917 -0.07932 0.01975
 N36 N 0.43035 -0.10134 0.03335
 N37 N 0.45923 -0.07929 -0.01882
 N38 N 0.43048 -0.10125 -0.03252
 N39 N 0.54172 -0.07920 0.01992
 N40 N 0.57061 -0.10106 0.03360
 Mn41 Mn 0.50053 -0.04988 -0.04907
 Mn42 Mn 0.50036 -0.04965 0.04998
 Cl43 Cl 0.50041 -0.00041 0.00018
 C44 C 0.58848 -0.11441 0.00066
 C45 C 0.41259 -0.11473 0.00037
 N46 N 0.07923 0.45793 0.01864
 N47 N 0.10116 0.42906 0.03219
 N48 N 0.07966 0.54036 -0.01986
 N49 N 0.10163 0.56913 -0.03354
 N50 N 0.07972 0.54032 0.01872
 N51 N 0.10176 0.56905 0.03233
 N52 N 0.07911 0.45799 -0.01993
 N53 N 0.10091 0.42918 -0.03368
 C54 C 0.11439 0.41126 -0.00082
 C55 C 0.11515 0.58688 -0.00064
 N56 N -0.01854 0.54115 -0.07972
 N57 N -0.03198 0.56987 -0.10199
 N58 N 0.01932 0.45846 -0.07977
 N59 N 0.03267 0.42955 -0.10175
 N60 N -0.01918 0.45877 -0.07972
 N61 N -0.03308 0.43009 -0.10162
 N62 N 0.01992 0.54085 -0.07959
 N63 N 0.03405 0.57112 -0.10314
 Mn64 Mn 0.04983 0.49941 -0.05012
 C65 C 0.00050 0.58814 -0.11619
 C66 C -0.00039 0.41200 -0.11510
 N67 N 0.01995 0.54059 0.07865
 N68 N 0.03364 0.56926 0.10077
 N69 N -0.01904 0.45842 0.07848
 N70 N -0.03287 0.42962 0.10035
 N71 N 0.01947 0.45820 0.07855
 N72 N 0.03288 0.42925 0.10048
 N73 N -0.01855 0.54077 0.07854
 N74 N -0.03212 0.56953 0.10052
 Mn75 Mn 0.04993 0.49926 0.04897
 C76 C 0.00077 0.58717 0.11412
 C77 C -0.00014 0.41156 0.11381
 N78 N -0.07890 0.45902 -0.01988
 N79 N -0.10099 0.43032 -0.03349
 N80 N -0.07830 0.54130 0.01876
 N81 N -0.10015 0.57013 0.03245
 N82 N -0.07826 0.54141 -0.01981
 N83 N -0.10006 0.57033 -0.03342
 N84 N -0.07878 0.45893 0.01869
 N85 N -0.10077 0.43018 0.03238
 Mn86 Mn -0.04904 0.50010 -0.05010
 Mn87 Mn -0.04898 0.49985 0.04894
 Cl88 Cl 0.00044 0.49965 -0.00057
 C89 C -0.11436 0.41247 -0.00051
 C90 C -0.11344 0.58811 -0.00048
 N91 N 0.01812 0.07753 0.45841
 N92 N 0.03184 0.09948 0.42954
 N93 N -0.02079 0.07803 0.54081
 N94 N -0.03459 0.10008 0.56948
 N95 N 0.01772 0.07801 0.54108
 N96 N 0.03117 0.10007 0.56991
 N97 N -0.02038 0.07739 0.45817
 N98 N -0.03392 0.09920 0.42917
 C99 C -0.00100 0.11270 0.41143
 C100 C -0.00182 0.11356 0.58749
 N101 N -0.08057 -0.01996 0.54148
 N102 N -0.10254 -0.03320 0.57056
 N103 N -0.08019 0.01775 0.45836
 N104 N -0.10212 0.03104 0.42930
 N105 N -0.08020 -0.02068 0.45881
 N106 N -0.10210 -0.03460 0.43006
 N107 N -0.08051 0.01847 0.54101
 N108 N -0.10238 0.03244 0.56974
 Mn109 Mn -0.05078 0.04823 0.49957
 C110 C -0.11587 -0.00013 0.58803
 C111 C -0.11550 -0.00199 0.41178
 N112 N 0.07749 0.01831 0.54182
 N113 N 0.09955 0.03199 0.57059
 N114 N 0.07784 -0.02056 0.45935
 N115 N 0.09997 -0.03422 0.43062
 N116 N 0.07780 0.01788 0.45917
 N117 N 0.09983 0.03143 0.43032
 N118 N 0.07743 -0.02013 0.54202
 N119 N 0.09939 -0.03366 0.57092
 Mn120 Mn 0.04811 0.04826 0.50013
 C121 C 0.11291 -0.00081 0.58862
 C122 C 0.11340 -0.00140 0.41265
 N123 N -0.02050 -0.08027 0.45952
 N124 N -0.03405 -0.10227 0.43069
 N125 N 0.01767 -0.07978 0.54227
 N126 N 0.03111 -0.10178 0.57122
 N127 N -0.02084 -0.07965 0.54217
 N128 N -0.03464 -0.10154 0.57100
 N129 N 0.01801 -0.08025 0.45960
 N130 N 0.03171 -0.10228 0.43086
 Mn131 Mn -0.05085 -0.05046 0.50051
 Mn132 Mn 0.04807 -0.05051 0.50080
 Cl133 Cl -0.00136 -0.00113 0.50025
 C134 C -0.00113 -0.11573 0.41296
 C135 C -0.00190 -0.11505 0.58901
 C136 C -0.31608 0.19609 0.00064
 C137 C -0.33137 0.18135 0.03608
 C138 C -0.36205 0.15421 0.03583
 C139 C -0.37811 0.14123 0.00016
 C140 C -0.36240 0.15531 -0.03529
 C141 C -0.33170 0.18247 -0.03506
 C142 C -0.28477 0.22636 0.00098
 C143 C -0.25393 0.22526 -0.02643
 C144 C -0.22503 0.25435 -0.02651
 C145 C -0.22634 0.28516 0.00082
 C146 C -0.25708 0.28611 0.02833
 C147 C -0.28594 0.25708 0.02841
 C148 C -0.19624 0.31662 0.00035
 C149 C -0.18146 0.33188 0.03573
 C150 C -0.15444 0.36266 0.03540
 C151 C -0.14163 0.37884 -0.00032
 C152 C -0.15578 0.36318 -0.03573
 C153 C -0.18281 0.33237 -0.03540
 H154 H -0.31955 0.19079 0.06404
 H155 H -0.37342 0.14366 0.06362
 H156 H -0.37422 0.14579 -0.06324
 H157 H -0.32086 0.19357 -0.06284
 H158 H -0.25194 0.20168 -0.04759
 H159 H -0.20143 0.25252 -0.04773
 H160 H -0.25933 0.30983 0.04930
 H161 H -0.30969 0.25917 0.04943
 H162 H -0.19076 0.31997 0.06373
 H163 H -0.14384 0.37398 0.06314
 H164 H -0.14639 0.37509 -0.06370
 H165 H -0.19395 0.32153 -0.06313
 C166 C 0.31689 0.80319 -0.00062
 C167 C 0.33255 0.81656 0.03516
 C168 C 0.36329 0.84369 0.03554
 C169 C 0.37896 0.85798 0.00015
 C170 C 0.36284 0.84525 -0.03559
 C171 C 0.33214 0.81815 -0.03597
 C172 C 0.28556 0.77295 -0.00116
 C173 C 0.28674 0.74238 -0.02875
 C174 C 0.25785 0.71339 -0.02889
 C175 C 0.22706 0.71425 -0.00144
 C176 C 0.22573 0.74492 0.02606
 C177 C 0.25467 0.77396 0.02620
 C178 C 0.19696 0.68278 -0.00114
 C179 C 0.18347 0.66694 0.03454
 C180 C 0.15645 0.63612 0.03473
 C181 C 0.14239 0.62054 -0.00074
 C182 C 0.15526 0.63680 -0.03639
 C183 C 0.18226 0.66760 -0.03659
 H184 H 0.32172 0.80529 0.06287
 H185 H 0.37517 0.85301 0.06352
 H186 H 0.37417 0.85597 -0.06332
 H187 H 0.32028 0.80890 -0.06399
 H188 H 0.31053 0.74037 -0.04974
 H189 H 0.26011 0.68977 -0.04997
 H190 H 0.20209 0.74667 0.04724
 H191 H 0.25268 0.79743 0.04748
 H192 H 0.19455 0.67770 0.06232
 H193 H 0.14702 0.62414 0.06266
 H194 H 0.14472 0.62553 -0.06419
 H195 H 0.19161 0.67959 -0.06454
 C196 C 0.31640 0.19534 -0.00188
 C197 C 0.33206 0.18191 0.03391
 C198 C 0.36291 0.15495 0.03430
 C199 C 0.37874 0.14088 -0.00107
 C200 C 0.36266 0.15368 -0.03682
 C201 C 0.33182 0.18063 -0.03723
 C202 C 0.28492 0.22541 -0.00237
 C203 C 0.28595 0.25611 -0.02988
 C204 C 0.25699 0.28502 -0.02986
 C205 C 0.22627 0.28394 -0.00233
 C206 C 0.22506 0.25311 0.02505
 C207 C 0.25407 0.22415 0.02503
 C208 C 0.19613 0.31535 -0.00183
 C209 C 0.18274 0.33100 0.03395
 C210 C 0.15573 0.36180 0.03432
 C211 C 0.14156 0.37756 -0.00107
 C212 C 0.15430 0.36146 -0.03680
 C213 C 0.18130 0.33069 -0.03718
 H214 H 0.32112 0.19301 0.06162
 H215 H 0.37475 0.14557 0.06230
 H216 H 0.37412 0.14313 -0.06454
 H217 H 0.31999 0.18993 -0.06525
 H218 H 0.30970 0.25831 -0.05090
 H219 H 0.25915 0.30876 -0.05087
 H220 H 0.20147 0.25119 0.04628
 H221 H 0.25217 0.20057 0.04625
 H222 H 0.19392 0.32010 0.06166
 H223 H 0.14639 0.37365 0.06230
 H224 H 0.14368 0.37287 -0.06453
 H225 H 0.19057 0.31886 -0.06520
 C226 C -0.31548 0.80397 -0.00019
 C227 C -0.33126 0.81725 0.03558
 C228 C -0.36211 0.84424 0.03592
 C229 C -0.37776 0.85848 0.00051
 C230 C -0.36150 0.84585 -0.03520
 C231 C -0.33069 0.81889 -0.03555
 C232 C -0.28406 0.77384 -0.00071
 C233 C -0.28510 0.74331 -0.02835
 C234 C -0.25611 0.71444 -0.02851
 C235 C -0.22536 0.71537 -0.00103
 C236 C -0.22418 0.74598 0.02653
 C237 C -0.25322 0.77491 0.02670
 C238 C -0.19516 0.68402 -0.00078
 C239 C -0.18168 0.66812 0.03487
 C240 C -0.15465 0.63733 0.03500
 C241 C -0.14057 0.62183 -0.00051
 C242 C -0.15339 0.63819 -0.03612
 C243 C -0.18039 0.66896 -0.03626
 H244 H -0.32045 0.80600 0.06329
 H245 H -0.37409 0.85349 0.06388
 H246 H -0.37281 0.85653 -0.06295
 H247 H -0.31874 0.80972 -0.06355
 H248 H -0.30886 0.74124 -0.04937
 H249 H -0.25827 0.69085 -0.04964
 H250 H -0.20058 0.74778 0.04774
 H251 H -0.25134 0.79834 0.04802
 H252 H -0.19280 0.67879 0.06267
 H253 H -0.14526 0.62527 0.06290
 H254 H -0.14282 0.62698 -0.06394
 H255 H -0.18973 0.68099 -0.06419
 C256 C -0.00016 -0.31737 0.19643
 C257 C 0.03556 -0.33314 0.18315
 C258 C 0.03594 -0.36380 0.15594
 C259 C 0.00061 -0.37928 0.14148
 C260 C -0.03505 -0.36304 0.15412
 C261 C -0.03544 -0.33242 0.18129
 C262 C -0.00074 -0.28612 0.22675
 C263 C -0.02845 -0.28724 0.25732
 C264 C -0.02871 -0.25837 0.28634
 C265 C -0.00127 -0.22766 0.28551
 C266 C 0.02636 -0.22640 0.25485
 C267 C 0.02663 -0.25533 0.22579
 C268 C -0.00115 -0.19755 0.31698
 C269 C 0.03439 -0.18405 0.33298
 C270 C 0.03442 -0.15703 0.36381
 C271 C -0.00108 -0.14297 0.37928
 C272 C -0.03658 -0.15586 0.36286
 C273 C -0.03662 -0.18286 0.33204
 H274 H 0.06321 -0.32244 0.19455
 H275 H 0.06386 -0.37578 0.14669
 H276 H -0.06274 -0.37421 0.14327
 H277 H -0.06340 -0.32047 0.19046
 H278 H -0.04945 -0.31096 0.25929
 H279 H -0.04989 -0.26058 0.30995
 H280 H 0.04754 -0.20283 0.25312
 H281 H 0.04801 -0.25339 0.20232
 H282 H 0.06219 -0.19512 0.32232
 H283 H 0.06223 -0.14758 0.37591
 H284 H -0.06439 -0.14533 0.37404
 H285 H -0.06446 -0.19223 0.31994
 C286 C -0.00198 0.31599 0.80325
 C287 C -0.03719 0.33159 0.81798
 C288 C -0.03662 0.36241 0.84493
 C289 C -0.00085 0.37831 0.85772
 C290 C 0.03439 0.36230 0.84363
 C291 C 0.03383 0.33145 0.81666
 C292 C -0.00266 0.28448 0.77319
 C293 C 0.02443 0.25348 0.77460
 C294 C 0.02425 0.22442 0.74567
 C295 C -0.00302 0.22574 0.71471
 C296 C -0.03025 0.25660 0.71349
 C297 C -0.03008 0.28562 0.74237
 C298 C -0.00266 0.19557 0.68330
 C299 C -0.03802 0.18098 0.66786
 C300 C -0.03772 0.15391 0.63710
 C301 C -0.00207 0.14087 0.62112
 C302 C 0.03330 0.15484 0.63696
 C303 C 0.03301 0.18192 0.66774
 H304 H -0.06522 0.31991 0.80869
 H305 H -0.06424 0.37402 0.85550
 H306 H 0.06240 0.37399 0.85300
 H307 H 0.06143 0.32035 0.80554
 H308 H 0.04556 0.25151 0.79827
 H309 H 0.04525 0.20072 0.74771
 H310 H -0.05117 0.25884 0.68965
 H311 H -0.05087 0.30948 0.74006
 H312 H -0.06595 0.19047 0.67962
 H313 H -0.06543 0.14344 0.62562
 H314 H 0.06122 0.14528 0.62520
 H315 H 0.06072 0.19292 0.67869
 C316 C -0.00127 0.31532 0.19542
 C317 C 0.03446 0.33107 0.18209
 C318 C 0.03485 0.36199 0.15512
 C319 C -0.00046 0.37778 0.14095
 C320 C -0.03615 0.36160 0.15366
 C321 C -0.03655 0.33070 0.18060
 C322 C -0.00178 0.28377 0.22551
 C323 C -0.02933 0.28463 0.25622
 C324 C -0.02938 0.25558 0.28513
 C325 C -0.00187 0.22495 0.28404
 C326 C 0.02558 0.22394 0.25323
 C327 C 0.02562 0.25303 0.22426
 C328 C -0.00150 0.19468 0.31542
 C329 C 0.03414 0.18128 0.33129
 C330 C 0.03436 0.15417 0.36212
 C331 C -0.00105 0.13992 0.37767
 C332 C -0.03664 0.15267 0.36132
 C333 C -0.03687 0.17976 0.33053
 H334 H 0.06212 0.32016 0.19326
 H335 H 0.06281 0.37390 0.14582
 H336 H -0.06382 0.37303 0.14303
 H337 H -0.06453 0.31879 0.18983
 H338 H -0.05035 0.30830 0.25843
 H339 H -0.05043 0.25759 0.30887
 H340 H 0.04680 0.20043 0.25131
 H341 H 0.04687 0.25128 0.20068
 H342 H 0.06186 0.19252 0.32057
 H343 H 0.06223 0.14482 0.37417
 H344 H -0.06438 0.14199 0.37255
 H345 H -0.06478 0.18904 0.31851
 C346 C -0.00235 -0.31805 0.80471
 C347 C -0.03734 -0.33425 0.81931
 C348 C -0.03645 -0.36529 0.84610
 C349 C -0.00044 -0.38104 0.85897
 C350 C 0.03459 -0.36418 0.84481
 C351 C 0.03359 -0.33314 0.81803
 C352 C -0.00331 -0.28625 0.77488
 C353 C 0.02361 -0.25509 0.77646
 C354 C 0.02345 -0.22594 0.74756
 C355 C -0.00364 -0.22729 0.71646
 C356 C -0.03080 -0.25824 0.71512
 C357 C -0.03064 -0.28737 0.74397
 C358 C -0.00313 -0.19710 0.68500
 C359 C -0.03840 -0.18250 0.66939
 C360 C -0.03796 -0.15540 0.63860
 C361 C -0.00224 -0.14234 0.62273
 C362 C 0.03305 -0.15631 0.63875
 C363 C 0.03262 -0.18341 0.66957
 H364 H -0.06550 -0.32283 0.81007
 H365 H -0.06415 -0.37703 0.85641
 H366 H 0.06299 -0.37519 0.85391
 H367 H 0.06106 -0.32158 0.80700
 H368 H 0.04464 -0.25310 0.80021
 H369 H 0.04437 -0.20217 0.74971
 H370 H -0.05160 -0.26049 0.69118
 H371 H -0.05130 -0.31133 0.74153
 H372 H -0.06639 -0.19202 0.68104
 H373 H -0.06562 -0.14495 0.62699
 H374 H 0.06102 -0.14674 0.62708
 H375 H 0.06028 -0.19441 0.68067
 C376 C 0.31635 -0.00154 0.80396
 C377 C 0.33230 0.03405 0.81721
 C378 C 0.36325 0.03432 0.84415
 C379 C 0.37888 -0.00099 0.85840
 C380 C 0.36252 -0.03655 0.84577
 C381 C 0.33158 -0.03683 0.81884
 C382 C 0.28473 -0.00193 0.77393
 C383 C 0.28546 -0.02945 0.74326
 C384 C 0.25632 -0.02941 0.71443
 C385 C 0.22573 -0.00184 0.71555
 C386 C 0.22486 0.02558 0.74631
 C387 C 0.25404 0.02554 0.77519
 C388 C 0.19534 -0.00142 0.68427
 C389 C 0.18193 0.03418 0.66840
 C390 C 0.15467 0.03444 0.63769
 C391 C 0.14029 -0.00089 0.62226
 C392 C 0.15305 -0.03644 0.63861
 C393 C 0.18027 -0.03671 0.66928
 H394 H 0.32150 0.06171 0.80598
 H395 H 0.37531 0.06218 0.85339
 H396 H 0.37382 -0.06422 0.85646
 H397 H 0.31952 -0.06471 0.80969
 H398 H 0.30909 -0.05052 0.74104
 H399 H 0.25823 -0.05045 0.69073
 H400 H 0.20138 0.04685 0.74826
 H401 H 0.25239 0.04677 0.79874
 H402 H 0.19327 0.06183 0.67903
 H403 H 0.14533 0.06228 0.62563
 H404 H 0.14226 -0.06412 0.62747
 H405 H 0.18954 -0.06458 0.68131
 C406 C -0.31781 -0.00323 0.19541
 C407 C -0.33414 -0.03816 0.18100
 C408 C -0.36513 -0.03728 0.15412
 C409 C -0.38070 -0.00133 0.14098
 C410 C -0.36370 0.03364 0.15496
 C411 C -0.33272 0.03265 0.18182
 C412 C -0.28608 -0.00416 0.22532
 C413 C -0.25475 0.02258 0.22363
 C414 C -0.22570 0.02251 0.25264
 C415 C -0.22732 -0.00431 0.28396
 C416 C -0.25842 -0.03131 0.28539
 C417 C -0.28745 -0.03124 0.25643
 C418 C -0.19725 -0.00367 0.31554
 C419 C -0.18281 -0.03881 0.33149
 C420 C -0.15581 -0.03822 0.36238
 C421 C -0.14270 -0.00249 0.37799
 C422 C -0.15653 0.03266 0.36165
 C423 C -0.18352 0.03209 0.33072
 H424 H -0.32287 -0.06628 0.19046
 H425 H -0.37699 -0.06492 0.14396
 H426 H -0.37457 0.06199 0.14565
 H427 H -0.32106 0.06007 0.19270
 H428 H -0.25256 0.04341 0.19972
 H429 H -0.20180 0.04329 0.25041
 H430 H -0.26086 -0.05190 0.30949
 H431 H -0.31154 -0.05176 0.25895
 H432 H -0.19236 -0.06680 0.32004
 H433 H -0.14547 -0.06579 0.37425
 H434 H -0.14691 0.06064 0.37312
 H435 H -0.19441 0.05965 0.31936
 C436 C 0.31615 0.00018 0.19654
 C437 C 0.33209 -0.03535 0.18314
 C438 C 0.36294 -0.03548 0.15606
 C439 C 0.37848 -0.00010 0.14184
 C440 C 0.36211 0.03539 0.15462
 C441 C 0.33128 0.03554 0.18168
 C442 C 0.28467 0.00041 0.22674
 C443 C 0.28550 0.02785 0.25748
 C444 C 0.25650 0.02765 0.28647
 C445 C 0.22596 0.00001 0.28544
 C446 C 0.22500 -0.02734 0.25461
 C447 C 0.25404 -0.02714 0.22557
 C448 C 0.19568 -0.00053 0.31684
 C449 C 0.18237 -0.03618 0.33271
 C450 C 0.15518 -0.03654 0.36350
 C451 C 0.14077 -0.00126 0.37899
 C452 C 0.15346 0.03433 0.36266
 C453 C 0.18062 0.03470 0.33192
 H454 H 0.32139 -0.06305 0.19434
 H455 H 0.37500 -0.06329 0.14671
 H456 H 0.37335 0.06311 0.14396
 H457 H 0.31922 0.06337 0.19097
 H458 H 0.30909 0.04898 0.25963
 H459 H 0.25848 0.04865 0.31021
 H460 H 0.20156 -0.04867 0.25274
 H461 H 0.25231 -0.04832 0.20198
 H462 H 0.19372 -0.06379 0.32201
 H463 H 0.14589 -0.06441 0.37554
 H464 H 0.14265 0.06198 0.37385
 H465 H 0.18981 0.06261 0.31989
 C466 C -0.31731 0.00221 0.80520
 C467 C -0.33225 -0.03363 0.81890
 C468 C -0.36320 -0.03453 0.84580
 C469 C -0.38015 0.00048 0.85970
 C470 C -0.36455 0.03639 0.84647
 C471 C -0.33358 0.03719 0.81955
 C472 C -0.28567 0.00302 0.77519
 C473 C -0.28711 0.02997 0.74399
 C474 C -0.25821 0.02986 0.71489
 C475 C -0.22718 0.00279 0.71628
 C476 C -0.22549 -0.02390 0.74770
 C477 C -0.25440 -0.02378 0.77685
 C478 C -0.19726 0.00197 0.68457
 C479 C -0.18375 -0.03387 0.66940
 C480 C -0.15688 -0.03460 0.63835
 C481 C -0.14298 0.00048 0.62189
 C482 C -0.15589 0.03629 0.63749
 C483 C -0.18275 0.03703 0.66849
 H484 H -0.32064 -0.06109 0.80807
 H485 H -0.37409 -0.06286 0.85518
 H486 H -0.37638 0.06406 0.85656
 H487 H -0.32228 0.06527 0.80999
 H488 H -0.31116 0.05053 0.74150
 H489 H -0.26070 0.05037 0.69072
 H490 H -0.20164 -0.04472 0.74989
 H491 H -0.25217 -0.04452 0.80083
 H492 H -0.19470 -0.06137 0.68088
 H493 H -0.14742 -0.06262 0.62689
 H494 H -0.14547 0.06380 0.62553
 H495 H -0.19214 0.06508 0.67993
   
