data_POSCAR
  _audit_creation_date              2014-09-24
  _audit_creation_method            'ToBaCCo'
  _symmetry_space_group_name_H-M    'P1'
  _symmetry_Int_Tables_number       1
  _symmetry_cell_setting            triclinic
  loop_
  _symmetry_equiv_pos_as_xyz
 x,y,z
_cell_length_a 40.3613
_cell_length_b 40.3612
_cell_length_c 40.3612
_cell_angle_alpha 90.001200
_cell_angle_beta 89.977500
_cell_angle_gamma 89.980700
loop_
  _atom_site_label
  _atom_site_type_symbol
  _atom_site_fract_x
  _atom_site_fract_y
  _atom_site_fract_z
O1 O 0.54500 0.49998 0.02738
 O2 O 0.45366 0.50000 0.02740
 O3 O 0.49934 0.45440 0.02740
 O4 O 0.49933 0.54558 0.02740
 O5 O 0.49934 0.54558 -0.02740
 O6 O 0.49935 0.45440 -0.02740
 O7 O 0.45368 0.50000 -0.02739
 O8 O 0.54501 0.49998 -0.02741
 Cu9 Cu 0.49933 0.49999 0.03292
 Cu10 Cu 0.49934 0.49999 -0.03293
 C11 C 0.56042 0.49998 -0.00002
 C12 C 0.43824 0.50000 0.00001
 C13 C 0.49936 0.43901 -0.00000
 C14 C 0.49935 0.56096 -0.00000
 O15 O -0.02741 0.54634 0.50001
 O16 O -0.02741 0.45500 0.50001
 O17 O -0.02742 0.50066 0.54560
 O18 O -0.02741 0.50066 0.45442
 O19 O 0.02739 0.50065 0.45441
 O20 O 0.02738 0.50065 0.54559
 O21 O 0.02738 0.45499 0.49999
 O22 O 0.02737 0.54632 0.50000
 Cu23 Cu -0.03294 0.50067 0.50001
 Cu24 Cu 0.03291 0.50065 0.49999
 C25 C -0.00002 0.56176 0.50000
 C26 C -0.00001 0.43957 0.50000
 C27 C -0.00002 0.50065 0.56098
 C28 C -0.00000 0.50065 0.43903
 O29 O 0.49999 0.02738 0.54635
 O30 O 0.50002 0.02738 0.45501
 O31 O 0.45441 0.02740 0.50068
 O32 O 0.54559 0.02738 0.50067
 O33 O 0.54560 -0.02742 0.50068
 O34 O 0.45442 -0.02740 0.50068
 O35 O 0.50003 -0.02741 0.45502
 O36 O 0.50000 -0.02740 0.54635
 Cu37 Cu 0.50000 0.03291 0.50068
 Cu38 Cu 0.50001 -0.03294 0.50068
 C39 C 0.49999 -0.00001 0.56178
 C40 C 0.50003 -0.00002 0.43960
 C41 C 0.43903 0.00000 0.50067
 C42 C 0.56098 -0.00002 0.50067
 O43 O 0.47266 -0.00001 -0.04593
 O44 O 0.47264 -0.00001 0.04541
 O45 O 0.47263 0.04558 -0.00026
 O46 O 0.47265 -0.04560 -0.00026
 O47 O 0.52745 -0.04561 -0.00027
 O48 O 0.52743 0.04558 -0.00027
 O49 O 0.52743 -0.00002 0.04540
 O50 O 0.52745 -0.00002 -0.04594
 Cu51 Cu 0.46712 -0.00001 -0.00026
 Cu52 Cu 0.53297 -0.00002 -0.00027
 C53 C 0.50006 -0.00002 -0.06136
 C54 C 0.50003 -0.00001 0.06082
 C55 C 0.50002 0.06096 -0.00025
 C56 C 0.50005 -0.06099 -0.00026
 O57 O -0.04539 0.52732 1.00002
 O58 O 0.04595 0.52731 0.99999
 O59 O 0.00028 0.52733 0.95442
 O60 O 0.00027 0.52733 1.04559
 O61 O 0.00028 0.47253 1.04559
 O62 O 0.00029 0.47253 0.95441
 O63 O 0.04596 0.47252 0.99998
 O64 O -0.04538 0.47253 1.00001
 Cu65 Cu 0.00028 0.53285 1.00000
 Cu66 Cu 0.00029 0.46700 1.00000
 C67 C -0.06080 0.49992 1.00002
 C68 C 0.06137 0.49991 0.99998
 C69 C 0.00028 0.49994 0.93903
 C70 C 0.00027 0.49993 1.06098
 O71 O 0.00002 -0.04596 0.47255
 O72 O 0.00000 0.04538 0.47254
 O73 O 0.04561 -0.00029 0.47254
 O74 O -0.04558 -0.00028 0.47255
 O75 O -0.04559 -0.00028 0.52735
 O76 O 0.04559 -0.00028 0.52734
 O77 O -0.00001 0.04539 0.52733
 O78 O 0.00001 -0.04595 0.52734
 Cu79 Cu 0.00002 -0.00029 0.46701
 Cu80 Cu -0.00000 -0.00028 0.53287
 C81 C 0.00002 -0.06138 0.49995
 C82 C -0.00001 0.06080 0.49993
 C83 C 0.06098 -0.00028 0.49994
 C84 C -0.06097 -0.00027 0.49995
 C85 C -0.40400 0.49997 0.99997
 C86 C -0.37412 0.49996 0.99998
 C87 C -0.33842 0.49996 0.99999
 C88 C -0.32103 0.52838 1.00960
 C89 C -0.28638 0.52841 1.00961
 C90 C -0.26861 0.49996 1.00001
 C91 C -0.28634 0.47152 0.99040
 C92 C -0.32100 0.47155 0.99039
 C93 C -0.23177 0.49996 1.00003
 C94 C -0.21402 0.47203 1.01106
 C95 C -0.17937 0.47206 1.01107
 C96 C -0.16196 0.49994 1.00004
 C97 C -0.17936 0.52784 0.98902
 C98 C -0.21402 0.52788 0.98901
 C99 C -0.12626 0.49993 1.00004
 C100 C -0.09637 0.49992 1.00002
 H101 H -0.33426 0.55048 1.01717
 H102 H -0.27348 0.55055 1.01755
 H103 H -0.27342 0.44938 0.98246
 H104 H -0.33419 0.44945 0.98281
 H105 H -0.22693 0.45033 1.02010
 H106 H -0.16616 0.45035 1.01975
 H107 H -0.16615 0.54953 0.98034
 H108 H -0.22692 0.54959 0.97996
 C109 C 0.40459 0.50000 1.00001
 C110 C 0.37469 0.50000 1.00003
 C111 C 0.33900 0.49998 1.00004
 C112 C 0.32157 0.52817 0.98981
 C113 C 0.28692 0.52819 0.98981
 C114 C 0.26919 0.49995 1.00004
 C115 C 0.28695 0.47174 1.01027
 C116 C 0.32161 0.47179 1.01028
 C117 C 0.23235 0.49994 1.00003
 C118 C 0.21462 0.47177 0.98962
 C119 C 0.17997 0.47179 0.98961
 C120 C 0.16253 0.49991 1.00000
 C121 C 0.17991 0.52805 1.01041
 C122 C 0.21457 0.52810 1.01043
 C123 C 0.12684 0.49989 0.99998
 C124 C 0.09695 0.49990 0.99998
 H125 H 0.33477 0.55011 0.98175
 H126 H 0.27400 0.55014 0.98138
 H127 H 0.27406 0.44978 1.01870
 H128 H 0.33483 0.44986 1.01834
 H129 H 0.22755 0.44987 0.98107
 H130 H 0.16678 0.44990 0.98141
 H131 H 0.16668 0.54993 1.01860
 H132 H 0.22745 0.55000 1.01899
 C133 C -0.00003 -0.40459 0.50000
 C134 C -0.00001 -0.37469 0.49999
 C135 C 0.00000 -0.33900 0.50000
 C136 C 0.01794 -0.32160 0.47596
 C137 C 0.01798 -0.28694 0.47594
 C138 C 0.00002 -0.26919 0.50000
 C139 C -0.01796 -0.28693 0.52406
 C140 C -0.01793 -0.32158 0.52404
 C141 C 0.00002 -0.23235 0.50000
 C142 C -0.02923 -0.21458 0.50678
 C143 C -0.02920 -0.17993 0.50675
 C144 C 0.00002 -0.16253 0.49998
 C145 C 0.02924 -0.17995 0.49323
 C146 C 0.02927 -0.21461 0.49322
 C147 C 0.00002 -0.12684 0.49997
 C148 C 0.00001 -0.09695 0.49995
 H149 H 0.03184 -0.33482 0.45717
 H150 H 0.03170 -0.27404 0.45684
 H151 H -0.03167 -0.27401 0.54317
 H152 H -0.03184 -0.33479 0.54283
 H153 H -0.05224 -0.22748 0.51166
 H154 H -0.05200 -0.16671 0.51191
 H155 H 0.05203 -0.16675 0.48806
 H156 H 0.05228 -0.22752 0.48835
 C157 C -0.00001 0.40400 0.50000
 C158 C 0.00000 0.37411 0.49999
 C159 C 0.00001 0.33842 0.50000
 C160 C -0.02392 0.32102 0.51808
 C161 C -0.02395 0.28636 0.51809
 C162 C 0.00001 0.26861 0.50000
 C163 C 0.02398 0.28635 0.48191
 C164 C 0.02395 0.32100 0.48192
 C165 C 0.00001 0.23177 0.49998
 C166 C 0.02998 0.21400 0.50163
 C167 C 0.02994 0.17934 0.50163
 C168 C -0.00001 0.16196 0.49996
 C169 C -0.02995 0.17938 0.49830
 C170 C -0.02998 0.21404 0.49833
 C171 C -0.00002 0.12626 0.49994
 C172 C -0.00001 0.09637 0.49993
 H173 H -0.04251 0.33424 0.53225
 H174 H -0.04245 0.27346 0.53261
 H175 H 0.04248 0.27344 0.46738
 H176 H 0.04254 0.33421 0.46775
 H177 H 0.05343 0.22689 0.50337
 H178 H 0.05326 0.16612 0.50301
 H179 H -0.05328 0.16619 0.49690
 H180 H -0.05342 0.22696 0.49660
 C181 C 0.49998 -0.00001 -0.40457
 C182 C 0.49999 0.00001 -0.37467
 C183 C 0.50001 0.00002 -0.33898
 C184 C 0.47298 0.01301 -0.32155
 C185 C 0.47298 0.01304 -0.28689
 C186 C 0.50005 0.00002 -0.26917
 C187 C 0.52710 -0.01299 -0.28694
 C188 C 0.52706 -0.01297 -0.32160
 C189 C 0.50007 0.00002 -0.23233
 C190 C 0.51234 -0.02739 -0.21459
 C191 C 0.51232 -0.02737 -0.17993
 C192 C 0.50007 0.00001 -0.16251
 C193 C 0.48783 0.02739 -0.17991
 C194 C 0.48780 0.02743 -0.21456
 C195 C 0.50006 -0.00001 -0.12682
 C196 C 0.50007 -0.00002 -0.09693
 H197 H 0.45187 0.02304 -0.33474
 H198 H 0.45160 0.02283 -0.27396
 H199 H 0.54849 -0.02279 -0.27405
 H200 H 0.54816 -0.02301 -0.33483
 H201 H 0.52154 -0.04903 -0.22751
 H202 H 0.52177 -0.04875 -0.16673
 H203 H 0.47838 0.04877 -0.16669
 H204 H 0.47860 0.04907 -0.22746
 C205 C 0.50003 -0.00002 0.40402
 C206 C 0.50002 -0.00001 0.37413
 C207 C 0.50004 0.00001 0.33844
 C208 C 0.47290 0.01278 0.32104
 C209 C 0.47288 0.01281 0.28639
 C210 C 0.50005 0.00002 0.26863
 C211 C 0.52721 -0.01278 0.28637
 C212 C 0.52718 -0.01276 0.32102
 C213 C 0.50005 0.00002 0.23179
 C214 C 0.51253 -0.02729 0.21404
 C215 C 0.51250 -0.02727 0.17938
 C216 C 0.50003 0.00000 0.16198
 C217 C 0.48757 0.02729 0.17939
 C218 C 0.48755 0.02732 0.21404
 C219 C 0.50002 -0.00001 0.12628
 C220 C 0.50003 -0.00002 0.09639
 H221 H 0.45171 0.02264 0.33426
 H222 H 0.45142 0.02243 0.27349
 H223 H 0.54867 -0.02239 0.27345
 H224 H 0.54837 -0.02262 0.33423
 H225 H 0.52191 -0.04886 0.22694
 H226 H 0.52212 -0.04858 0.16617
 H227 H 0.47794 0.04859 0.16618
 H228 H 0.47818 0.04889 0.22695
 C229 C 0.49940 -0.40354 -0.00000
 C230 C 0.49946 -0.37370 -0.00001
 C231 C 0.49955 -0.33808 -0.00002
 C232 C 0.52887 -0.32081 -0.00663
 C233 C 0.52899 -0.28619 -0.00666
 C234 C 0.49974 -0.26839 -0.00005
 C235 C 0.47039 -0.28600 0.00658
 C236 C 0.47033 -0.32063 0.00658
 C237 C 0.49984 -0.23163 -0.00007
 C238 C 0.48203 -0.21386 0.02407
 C239 C 0.48213 -0.17924 0.02402
 C240 C 0.49998 -0.16194 -0.00015
 C241 C 0.51777 -0.17937 -0.02427
 C242 C 0.51773 -0.21400 -0.02425
 C243 C 0.50003 -0.12632 -0.00020
 C244 C 0.50005 -0.09648 -0.00023
 H245 H 0.55165 -0.33411 -0.01167
 H246 H 0.55205 -0.27333 -0.01142
 H247 H 0.44740 -0.27301 0.01133
 H248 H 0.44748 -0.33378 0.01163
 H249 H 0.46838 -0.22673 0.04325
 H250 H 0.46836 -0.16596 0.04286
 H251 H 0.53159 -0.16620 -0.04315
 H252 H 0.53131 -0.22698 -0.04341
 C253 C 0.49940 0.40352 -0.00000
 C254 C 0.49945 0.37368 -0.00000
 C255 C 0.49953 0.33806 -0.00000
 C256 C 0.46962 0.32064 -0.00181
 C257 C 0.46967 0.28601 -0.00181
 C258 C 0.49970 0.26837 -0.00003
 C259 C 0.52964 0.28613 0.00177
 C260 C 0.52952 0.32076 0.00180
 C261 C 0.49978 0.23161 -0.00006
 C262 C 0.52369 0.21396 -0.01832
 C263 C 0.52372 0.17934 -0.01835
 C264 C 0.49992 0.16192 -0.00014
 C265 C 0.47605 0.17922 0.01812
 C266 C 0.47595 0.21385 0.01817
 C267 C 0.49998 0.12630 -0.00019
 C268 C 0.50001 0.09646 -0.00022
 H269 H 0.44628 0.33381 -0.00330
 H270 H 0.44627 0.27304 -0.00365
 H271 H 0.55310 0.27325 0.00360
 H272 H 0.55281 0.33403 0.00330
 H273 H 0.54208 0.22694 -0.03292
 H274 H 0.54225 0.16616 -0.03264
 H275 H 0.45757 0.16595 0.03237
 H276 H 0.45751 0.22672 0.03280
 C277 C -0.40352 -0.00003 0.50062
 C278 C -0.37368 -0.00005 0.50057
 C279 C -0.33806 -0.00008 0.50049
 C280 C -0.32067 0.02824 0.51030
 C281 C -0.28604 0.02825 0.51020
 C282 C -0.26837 -0.00013 0.50030
 C283 C -0.28611 -0.02849 0.49049
 C284 C -0.32074 -0.02843 0.49058
 C285 C -0.23161 -0.00017 0.50020
 C286 C -0.21390 -0.02810 0.51124
 C287 C -0.17928 -0.02809 0.51117
 C288 C -0.16192 -0.00022 0.50005
 C289 C -0.17929 0.02767 0.48900
 C290 C -0.21392 0.02774 0.48908
 C291 C -0.12630 -0.00024 0.49999
 C292 C -0.09646 -0.00026 0.49997
 H293 H -0.33386 0.05029 0.51810
 H294 H -0.27309 0.05030 0.51829
 H295 H -0.27322 -0.05056 0.48232
 H296 H -0.33399 -0.05045 0.48285
 H297 H -0.22682 -0.04977 0.52035
 H298 H -0.16605 -0.04978 0.51986
 H299 H -0.16607 0.04934 0.48026
 H300 H -0.22685 0.04943 0.48003
 C301 C 0.40354 0.00001 0.50063
 C302 C 0.37370 -0.00000 0.50057
 C303 C 0.33808 -0.00002 0.50049
 C304 C 0.32072 0.02808 0.48995
 C305 C 0.28610 0.02809 0.48985
 C306 C 0.26839 -0.00007 0.50028
 C307 C 0.28609 -0.02820 0.51082
 C308 C 0.32071 -0.02814 0.51092
 C309 C 0.23163 -0.00010 0.50017
 C310 C 0.21399 -0.02827 0.48967
 C311 C 0.17936 -0.02828 0.48959
 C312 C 0.16194 -0.00017 0.50001
 C313 C 0.17923 0.02797 0.51050
 C314 C 0.21386 0.02804 0.51058
 C315 C 0.12632 -0.00022 0.49996
 C316 C 0.09647 -0.00025 0.49994
 H317 H 0.33395 0.04995 0.48174
 H318 H 0.27318 0.04996 0.48120
 H319 H 0.27316 -0.05009 0.51939
 H320 H 0.33393 -0.04999 0.51921
 H321 H 0.22697 -0.05014 0.48111
 H322 H 0.16619 -0.05016 0.48133
 H323 H 0.16596 0.04982 0.51870
 H324 H 0.22673 0.04994 0.51920
 C325 C 0.00001 0.50060 1.40353
 C326 C 0.00002 0.50054 1.37369
 C327 C 0.00004 0.50045 1.33807
 C328 C -0.01228 0.52776 1.32064
 C329 C -0.01228 0.52769 1.28601
 C330 C 0.00008 0.50026 1.26838
 C331 C 0.01242 0.47293 1.28616
 C332 C 0.01238 0.47304 1.32079
 C333 C 0.00011 0.50017 1.23162
 C334 C 0.02737 0.48747 1.21396
 C335 C 0.02738 0.48742 1.17934
 C336 C 0.00018 0.50001 1.16193
 C337 C -0.02706 0.51267 1.17925
 C338 C -0.02712 0.51277 1.21388
 C339 C 0.00022 0.49996 1.12631
 C340 C 0.00025 0.49993 1.09647
 H341 H -0.02180 0.54914 1.33380
 H342 H -0.02154 0.54926 1.27303
 H343 H 0.02170 0.45129 1.27330
 H344 H 0.02188 0.45174 1.33407
 H345 H 0.04887 0.47800 1.22692
 H346 H 0.04863 0.47765 1.16615
 H347 H -0.04829 0.52239 1.16600
 H348 H -0.04864 0.52231 1.22677
 C349 C -0.00003 0.50060 0.59647
 C350 C -0.00002 0.50054 0.62631
 C351 C -0.00000 0.50045 0.66193
 C352 C -0.01210 0.52786 0.67938
 C353 C -0.01210 0.52779 0.71400
 C354 C 0.00005 0.50027 0.73162
 C355 C 0.01216 0.47283 0.71383
 C356 C 0.01211 0.47295 0.67921
 C357 C 0.00009 0.50018 0.76838
 C358 C 0.02725 0.48727 0.78601
 C359 C 0.02726 0.48722 0.82064
 C360 C 0.00017 0.50003 0.83807
 C361 C -0.02697 0.51291 0.82078
 C362 C -0.02704 0.51301 0.78615
 C363 C 0.00022 0.49997 0.87369
 C364 C 0.00025 0.49995 0.90353
 H365 H -0.02145 0.54931 0.66622
 H366 H -0.02118 0.54944 0.72699
 H367 H 0.02127 0.45112 0.72669
 H368 H 0.02145 0.45156 0.66592
 H369 H 0.04866 0.47761 0.77304
 H370 H 0.04844 0.47727 0.83381
 H371 H -0.04811 0.52280 0.83406
 H372 H -0.04848 0.52271 0.77328
   
