data_POSCAR
  _audit_creation_date              2014-09-24
  _audit_creation_method            'ToBaCCo'
  _symmetry_space_group_name_H-M    'P1'
  _symmetry_Int_Tables_number       1
  _symmetry_cell_setting            triclinic
  loop_
  _symmetry_equiv_pos_as_xyz
 x,y,z
_cell_length_a 43.6392
_cell_length_b 43.9556
_cell_length_c 44.3673
_cell_angle_alpha 92.399000
_cell_angle_beta 87.156200
_cell_angle_gamma 94.061500
loop_
  _atom_site_label
  _atom_site_type_symbol
  _atom_site_fract_x
  _atom_site_fract_y
  _atom_site_fract_z
N1 N 0.14077 0.22144 0.19804
 N2 N 0.14369 0.19736 0.21424
 C3 C 0.11676 0.19036 0.22940
 C4 C 0.09589 0.21058 0.22170
 C5 C 0.11173 0.22984 0.20172
 H6 H 0.11264 0.17199 0.24489
 H7 H 0.10293 0.24900 0.19122
 Cu8 Cu 0.18227 0.17659 0.21482
 Cu9 Cu 0.17470 0.24099 0.17337
 Cu10 Cu 0.24068 0.20668 0.17185
 N11 N 0.22471 0.16767 0.22065
 N12 N 0.24792 0.18050 0.20463
 C13 C 0.27421 0.16936 0.21252
 C14 C 0.26696 0.14803 0.23419
 C15 C 0.23536 0.14742 0.23881
 H16 H 0.29669 0.17484 0.20197
 H17 H 0.22109 0.13270 0.25352
 N18 N 0.23260 0.23485 0.14107
 N19 N 0.20696 0.24896 0.14229
 C20 C 0.20729 0.26767 0.11900
 C21 C 0.23437 0.26459 0.10204
 C22 C 0.24988 0.24359 0.11656
 H23 H 0.18883 0.28167 0.11428
 H24 H 0.27200 0.23528 0.10969
 H25 H 0.18499 0.19648 0.17249
 H26 H 0.19796 0.21967 0.20627
 N27 N 0.66733 0.71527 0.70062
 N28 N 0.66813 0.69026 0.71601
 C29 C 0.64336 0.68840 0.73559
 C30 C 0.62628 0.71323 0.73174
 C31 C 0.64211 0.72963 0.70952
 H32 H 0.63739 0.66972 0.75037
 H33 H 0.63515 0.75014 0.69996
 Cu34 Cu 0.69957 0.66021 0.70668
 Cu35 Cu 0.69735 0.72708 0.66816
 Cu36 Cu 0.74344 0.67336 0.64291
 N37 N 0.73247 0.63393 0.69280
 N38 N 0.74853 0.63893 0.66739
 C39 C 0.76914 0.61780 0.66277
 C40 C 0.76615 0.59842 0.68647
 C41 C 0.74264 0.60920 0.70532
 H42 H 0.78583 0.61711 0.64394
 H43 H 0.73387 0.59999 0.72653
 N44 N 0.74726 0.71372 0.62674
 N45 N 0.72901 0.73486 0.63656
 C46 C 0.73507 0.75984 0.62013
 C47 C 0.75846 0.75389 0.59903
 C48 C 0.76573 0.72449 0.60388
 H49 H 0.72267 0.78031 0.62258
 H50 H 0.78230 0.71148 0.59091
 H51 H 0.69262 0.67900 0.66636
 H52 H 0.72422 0.69732 0.68945
 N53 N 0.36667 0.79803 0.74467
 N54 N 0.35075 0.80601 0.76931
 C55 C 0.36498 0.79772 0.79359
 C56 C 0.39133 0.78396 0.78361
 C57 C 0.39183 0.78462 0.75242
 H58 H 0.35701 0.80171 0.81679
 H59 H 0.40907 0.77597 0.73658
 Cu60 Cu 0.31372 0.82768 0.76737
 Cu61 Cu 0.35333 0.80633 0.70466
 Cu62 Cu 0.27764 0.82593 0.70248
 N63 N 0.28164 0.85494 0.76129
 N64 N 0.26662 0.85366 0.73624
 C65 C 0.24537 0.87457 0.73837
 C66 C 0.24775 0.89004 0.76610
 C67 C 0.27093 0.87697 0.78004
 H68 H 0.23018 0.87884 0.72070
 H69 H 0.27958 0.88323 0.80204
 N70 N 0.30077 0.80958 0.66693
 N71 N 0.32998 0.80362 0.66751
 C72 C 0.33919 0.79228 0.64019
 C73 C 0.31461 0.79091 0.62163
 C74 C 0.29058 0.80210 0.63923
 H75 H 0.36158 0.78388 0.63472
 H76 H 0.26722 0.80372 0.63270
 H77 H 0.32085 0.83856 0.71389
 H78 H 0.30908 0.79759 0.72007
 N79 N 0.82492 0.24659 0.23434
 N80 N 0.81210 0.26112 0.25766
 C81 C 0.82736 0.25677 0.28251
 C82 C 0.85165 0.23927 0.27427
 C83 C 0.84944 0.23298 0.24352
 H84 H 0.82268 0.26766 0.30442
 H85 H 0.86486 0.22023 0.22885
 Cu86 Cu 0.78122 0.28966 0.25287
 Cu87 Cu 0.80858 0.24724 0.19401
 Cu88 Cu 0.75391 0.29975 0.18548
 N89 N 0.76288 0.32703 0.24433
 N90 N 0.75151 0.33070 0.21796
 C91 C 0.73904 0.35786 0.21836
 C92 C 0.74346 0.37209 0.24633
 C93 C 0.75870 0.35198 0.26226
 H94 H 0.72782 0.36665 0.19967
 H95 H 0.76567 0.35499 0.28532
 N96 N 0.76813 0.27225 0.15247
 N97 N 0.78825 0.25163 0.15557
 C98 C 0.79164 0.23560 0.12912
 C99 C 0.77322 0.24727 0.10852
 C100 C 0.75885 0.27049 0.12399
 H101 H 0.80646 0.21701 0.12504
 H102 H 0.74236 0.28468 0.11523
 H103 H 0.79644 0.29178 0.19966
 H104 H 0.76584 0.26080 0.20690
 N105 N 0.82634 0.72408 0.25847
 N106 N 0.81764 0.69635 0.24820
 C107 C 0.83540 0.68927 0.22358
 C108 C 0.85668 0.71341 0.21863
 C109 C 0.85042 0.73509 0.24108
 H110 H 0.83424 0.66750 0.21125
 H111 H 0.86309 0.75684 0.24492
 Cu112 Cu 0.78633 0.66984 0.26939
 Cu113 Cu 0.80700 0.74311 0.29489
 Cu114 Cu 0.75190 0.70004 0.33238
 N115 N 0.75078 0.64949 0.28951
 N116 N 0.73671 0.66119 0.31372
 C117 C 0.71291 0.64169 0.32236
 C118 C 0.71265 0.61642 0.30268
 C119 C 0.73694 0.62213 0.28221
 H120 H 0.69738 0.64529 0.34174
 H121 H 0.74394 0.60747 0.26330
 N122 N 0.76225 0.74266 0.34422
 N123 N 0.78236 0.75992 0.32834
 C124 C 0.78539 0.78793 0.34178
 C125 C 0.76659 0.78805 0.36770
 C126 C 0.75224 0.75901 0.36866
 H127 H 0.80159 0.80620 0.33443
 H128 H 0.73636 0.75026 0.38623
 H129 H 0.80196 0.69776 0.30480
 H130 H 0.77171 0.71232 0.28193
 N131 N 0.35112 0.22567 -0.22984
 N132 N 0.34076 0.19880 -0.24072
 C133 C 0.35882 0.19070 -0.26480
 C134 C 0.38213 0.21338 -0.26867
 C135 C 0.37666 0.23520 -0.24603
 H136 H 0.35570 0.16956 -0.27803
 H137 H 0.38989 0.25660 -0.24194
 Cu138 Cu 0.30598 0.17578 -0.22136
 Cu139 Cu 0.33033 0.24647 -0.19590
 Cu140 Cu 0.25985 0.21269 -0.17218
 N141 N 0.26525 0.15825 -0.20906
 N142 N 0.24664 0.17364 -0.19099
 C143 C 0.22001 0.15680 -0.18638
 C144 C 0.22218 0.12924 -0.20211
 C145 C 0.25118 0.13081 -0.21629
 H146 H 0.20082 0.16364 -0.17191
 H147 H 0.26120 0.11337 -0.23077
 N148 N 0.27460 0.25391 -0.15834
 N149 N 0.30142 0.26706 -0.16748
 C150 C 0.30549 0.29452 -0.15293
 C151 C 0.28025 0.29838 -0.13344
 C152 C 0.26118 0.27231 -0.13745
 H153 H 0.32595 0.30980 -0.15508
 H154 H 0.23962 0.26679 -0.12519
 H155 H 0.30687 0.20988 -0.17591
 H156 H 0.28906 0.22622 -0.20839
 N157 N 0.66999 0.26156 -0.23821
 N158 N 0.66978 0.28884 -0.24927
 C159 C 0.64495 0.28948 -0.26629
 C160 C 0.62871 0.26115 -0.26499
 C161 C 0.64535 0.24417 -0.24709
 H162 H 0.63859 0.30929 -0.27758
 H163 H 0.63969 0.22094 -0.24049
 Cu164 Cu 0.70141 0.32094 -0.23804
 Cu165 Cu 0.70124 0.25060 -0.21204
 Cu166 Cu 0.72844 0.30795 -0.16745
 N167 N 0.72521 0.35263 -0.21413
 N168 N 0.73448 0.34774 -0.18694
 C169 C 0.75231 0.37212 -0.17743
 C170 C 0.75455 0.39334 -0.19961
 C171 C 0.73697 0.38038 -0.22259
 H172 H 0.76469 0.37340 -0.15683
 H173 H 0.73447 0.38961 -0.24449
 N174 N 0.73170 0.26542 -0.15768
 N175 N 0.72232 0.24292 -0.17618
 C176 C 0.72614 0.21613 -0.16384
 C177 C 0.73818 0.22214 -0.13587
 C178 C 0.74148 0.25367 -0.13257
 H179 H 0.71891 0.19399 -0.17364
 H180 H 0.74951 0.26701 -0.11313
 H181 H 0.69309 0.30361 -0.19748
 H182 H 0.73286 0.29840 -0.21338
 N183 N 0.11736 0.78936 0.30645
 N184 N 0.12660 0.80656 0.28378
 C185 C 0.10952 0.79844 0.25985
 C186 C 0.08855 0.77485 0.26821
 C187 C 0.09410 0.76976 0.29789
 H188 H 0.11184 0.80911 0.23825
 H189 H 0.08184 0.75332 0.31235
 Cu190 Cu 0.15926 0.83844 0.28882
 Cu191 Cu 0.13506 0.79492 0.34584
 Cu192 Cu 0.20700 0.83438 0.34537
 N193 N 0.18908 0.87176 0.29859
 N194 N 0.20939 0.86946 0.31920
 C195 C 0.22919 0.89450 0.31889
 C196 C 0.22003 0.91367 0.29748
 C197 C 0.19446 0.89860 0.28524
 H198 H 0.24824 0.89868 0.33356
 H199 H 0.18129 0.90622 0.26730
 N200 N 0.19174 0.80664 0.37777
 N201 N 0.16381 0.79290 0.37827
 C202 C 0.15988 0.77545 0.40249
 C203 C 0.18652 0.77820 0.41809
 C204 C 0.20636 0.79822 0.40191
 H205 H 0.13959 0.76066 0.40763
 H206 H 0.22984 0.80545 0.40687
 H207 H 0.16135 0.83663 0.34357
 H208 H 0.17658 0.80225 0.32373
 N209 N 0.45850 0.41457 0.47215
 N210 N 0.45320 0.43484 0.49410
 C211 C 0.46108 0.42410 0.52038
 C212 C 0.47170 0.39548 0.51456
 C213 C 0.46959 0.38999 0.48378
 H214 H 0.45947 0.43628 0.54204
 H215 H 0.47645 0.37008 0.47067
 Cu216 Cu 0.43681 0.47342 0.48607
 Cu217 Cu 0.45287 0.42324 0.42998
 Cu218 Cu 0.46028 0.50115 0.41921
 N219 N 0.42450 0.51244 0.47396
 N220 N 0.43534 0.52428 0.44853
 C221 C 0.42340 0.55139 0.44571
 C222 C 0.40343 0.55621 0.47032
 C223 C 0.40459 0.53107 0.48778
 H224 H 0.42720 0.56537 0.42620
 H225 H 0.39137 0.52634 0.50853
 N226 N 0.46920 0.47033 0.38705
 N227 N 0.46355 0.44071 0.39042
 C228 C 0.46983 0.42578 0.36396
 C229 C 0.48037 0.44707 0.34319
 C230 C 0.47981 0.47504 0.35852
 H231 H 0.46855 0.40121 0.36058
 H232 H 0.48653 0.49716 0.34956
 H233 H 0.47235 0.46411 0.44298
 H234 H 0.43179 0.46498 0.43177
 N235 N -0.01424 -0.08379 0.98755
 N236 N -0.02779 -0.07160 1.01179
 C237 C -0.01737 -0.08358 1.03644
 C238 C 0.00326 -0.10478 1.02705
 C239 C 0.00465 -0.10456 0.99589
 H240 H -0.02616 -0.07937 1.05932
 H241 H 0.01733 -0.11926 0.98044
 Cu242 Cu -0.06272 -0.04702 1.00860
 Cu243 Cu -0.02426 -0.07379 0.94702
 Cu244 Cu -0.07406 -0.01604 0.94259
 N245 N -0.09728 -0.02241 1.00391
 N246 N -0.10166 -0.01018 0.97805
 C247 C -0.12730 0.00525 0.98088
 C248 C -0.13980 0.00208 1.00994
 C249 C -0.12029 -0.01566 1.02390
 H250 H -0.13673 0.01690 0.96283
 H251 H -0.12292 -0.02333 1.04677
 N252 N -0.04919 -0.03131 0.90751
 N253 N -0.02958 -0.05259 0.90950
 C254 C -0.01384 -0.05588 0.88278
 C255 C -0.02449 -0.03614 0.86293
 C256 C -0.04710 -0.02114 0.87919
 H257 H 0.00447 -0.07101 0.87827
 H258 H -0.06019 -0.00336 0.87126
 H259 H -0.03509 -0.03143 0.96209
 H260 H -0.06857 -0.05918 0.95484
 N261 N 1.01174 0.60433 0.96374
 N262 N 1.02440 0.59896 0.98909
 C263 C 1.02657 0.62479 1.00641
 C264 C 1.01476 0.64764 0.99104
 C265 C 1.00543 0.63394 0.96404
 H266 H 1.03680 0.62694 1.02818
 H267 H 0.99512 0.64469 0.94592
 Cu268 Cu 1.03922 0.55951 0.99627
 Cu269 Cu 1.00463 0.57195 0.93284
 Cu270 Cu 1.05312 0.51285 0.93614
 N271 N 1.06714 0.52741 0.99785
 N272 N 1.07363 0.50989 0.97398
 C273 C 1.09642 0.49233 0.98030
 C274 C 1.10458 0.49949 1.00964
 C275 C 1.08548 0.52172 1.02012
 H276 H 1.10721 0.47665 0.96435
 H277 H 1.08625 0.53422 1.04162
 N278 N 1.02959 0.51967 0.90036
 N279 N 1.01020 0.54137 0.89957
 C280 C 0.99666 0.53917 0.87283
 C281 C 1.00833 0.51510 0.85601
 C282 C 1.02916 0.50333 0.87401
 H283 H 0.97995 0.55420 0.86594
 H284 H 1.04264 0.48400 0.86838
 H285 H 1.01418 0.53208 0.95373
 H286 H 1.04696 0.55906 0.94176
 N287 N 0.52992 0.11494 0.45979
 N288 N 0.55110 0.11288 0.47977
 C289 C 0.55359 0.13926 0.49646
 C290 C 0.53345 0.15883 0.48596
 C291 C 0.51897 0.14279 0.46276
 H292 H 0.56919 0.14407 0.51452
 H293 H 0.50157 0.15091 0.44916
 Cu294 Cu 0.57466 0.07623 0.48228
 Cu295 Cu 0.51767 0.08171 0.43071
 Cu296 Cu 0.55604 0.01877 0.43324
 N297 N 0.58738 0.03496 0.48707
 N298 N 0.57790 0.01216 0.46896
 C299 C 0.58947 -0.01362 0.47711
 C300 C 0.60792 -0.00652 0.50105
 C301 C 0.60636 0.02456 0.50681
 H302 H 0.58649 -0.03551 0.46516
 H303 H 0.61853 0.03857 0.52359
 N304 N 0.52497 0.02193 0.40428
 N305 N 0.50924 0.04629 0.40370
 C306 C 0.48952 0.04251 0.38118
 C307 C 0.49345 0.01435 0.36696
 C308 C 0.51607 0.00193 0.38215
 H309 H 0.47427 0.05933 0.37497
 H310 H 0.52558 -0.01989 0.37718
 H311 H 0.53407 0.05810 0.46575
 H312 H 0.56265 0.07478 0.43743
 N313 N -0.00244 0.09688 0.52614
 N314 N -0.02747 0.09666 0.51082
 C315 C -0.02424 0.11907 0.49092
 C316 C 0.00418 0.13440 0.49436
 C317 C 0.01744 0.11981 0.51689
 H318 H -0.04156 0.12423 0.47563
 H319 H 0.03978 0.12561 0.52588
 Cu320 Cu -0.06248 0.06762 0.51828
 Cu321 Cu 0.00130 0.06695 0.55651
 Cu322 Cu -0.06165 0.02860 0.58500
 N323 N -0.09897 0.04534 0.53642
 N324 N -0.09866 0.02976 0.56122
 C325 C -0.12692 0.01610 0.56677
 C326 C -0.14585 0.02431 0.54486
 C327 C -0.12754 0.04292 0.52615
 H328 H -0.13335 0.00160 0.58548
 H329 H -0.13442 0.05345 0.50617
 N330 N -0.02061 0.02154 0.59783
 N331 N 0.00428 0.03534 0.58532
 C332 C 0.02914 0.02657 0.59849
 C333 C 0.01927 0.00683 0.62090
 C334 C -0.01245 0.00418 0.62006
 H335 H 0.05257 0.03524 0.59347
 H336 H -0.02839 -0.00889 0.63478
 H337 H -0.04346 0.03408 0.54272
 H338 H -0.05424 0.07006 0.56306
 N339 N 0.50983 0.53628 0.00148
 N340 N 0.48643 0.55315 0.00765
 C341 C 0.49010 0.57840 -0.00848
 C342 C 0.51691 0.57706 -0.02619
 C343 C 0.52896 0.54998 -0.01945
 H344 H 0.47418 0.59623 -0.00764
 H345 H 0.55038 0.54142 -0.02830
 Cu346 Cu 0.45250 0.54116 0.03569
 Cu347 Cu 0.51391 0.49971 0.02381
 Cu348 Cu 0.45129 0.46764 0.05988
 N349 N 0.41484 0.51861 0.05173
 N350 N 0.41403 0.48973 0.05897
 C351 C 0.38460 0.47907 0.06358
 C352 C 0.36603 0.50253 0.05917
 C353 C 0.38587 0.52729 0.05191
 H354 H 0.37728 0.45569 0.06845
 H355 H 0.37958 0.54913 0.04472
 N356 N 0.49265 0.46013 0.07131
 N357 N 0.51724 0.47209 0.05661
 C358 C 0.54242 0.46595 0.07095
 C359 C 0.53300 0.44983 0.09625
 C360 C 0.50131 0.44638 0.09575
 H361 H 0.56553 0.47501 0.06504
 H362 H 0.48565 0.43646 0.11290
 H363 H 0.45817 0.49720 0.02281
 H364 H 0.47196 0.51009 0.06073
 N365 N 0.50875 -0.13528 0.02772
 N366 N 0.52982 -0.12693 0.00693
 C367 C 0.53621 -0.15147 -0.01093
 C368 C 0.51853 -0.17645 -0.00014
 C369 C 0.50144 -0.16538 0.02435
 H370 H 0.55330 -0.15138 -0.02945
 H371 H 0.48503 -0.17829 0.03876
 Cu372 Cu 0.54870 -0.08521 0.00724
 Cu373 Cu 0.49255 -0.10609 0.05708
 Cu374 Cu 0.54456 -0.05159 0.07973
 N375 N 0.57620 -0.05028 0.02020
 N376 N 0.57648 -0.03911 0.04833
 C377 C 0.59923 -0.01675 0.05021
 C378 C 0.61335 -0.01355 0.02180
 C379 C 0.59810 -0.03496 0.00334
 H380 H 0.60413 -0.00283 0.07031
 H381 H 0.60280 -0.03927 -0.02057
 N382 N 0.50428 -0.05820 0.10107
 N383 N 0.48358 -0.07893 0.09113
 C384 C 0.45781 -0.07834 0.10890
 C385 C 0.46265 -0.05637 0.13155
 C386 C 0.49246 -0.04405 0.12615
 H387 H 0.43724 -0.09316 0.10592
 H388 H 0.50441 -0.02592 0.13912
 H389 H 0.52295 -0.06054 0.04057
 H390 H 0.54731 -0.09079 0.05216
 N391 N 1.05727 0.40438 0.49264
 N392 N 1.07135 0.42025 0.47096
 C393 C 1.07195 0.40297 0.44520
 C394 C 1.05771 0.37467 0.45126
 C395 C 1.04864 0.37629 0.48155
 H396 H 1.08281 0.41009 0.42396
 H397 H 1.03682 0.35839 0.49459
 Cu398 Cu 1.09026 0.46065 0.47935
 Cu399 Cu 1.05193 0.42139 0.53356
 Cu400 Cu 1.07959 0.49657 0.54705
 N401 N 1.11860 0.49351 0.49330
 N402 N 1.11486 0.50806 0.51960
 C403 C 1.13882 0.52896 0.52310
 C404 C 1.15854 0.52675 0.49770
 C405 C 1.14495 0.50411 0.47943
 H406 H 1.14227 0.54359 0.54303
 H407 H 1.15404 0.49534 0.45791
 N408 N 1.05042 0.47441 0.57550
 N409 N 1.03994 0.44590 0.56982
 C410 C 1.01763 0.43808 0.59056
 C411 C 1.01415 0.46249 0.61060
 C412 C 1.03541 0.48522 0.60064
 H413 H 1.00375 0.41669 0.59023
 H414 H 1.03811 0.50844 0.60966
 H415 H 1.05180 0.46609 0.52049
 H416 H 1.08910 0.45430 0.53360
 C417 C 0.32043 -0.00609 0.27846
 C418 C 0.34574 0.01443 0.27207
 C419 C 0.34128 0.04522 0.26810
 C420 C 0.31153 0.05573 0.26964
 C421 C 0.28633 0.03484 0.27609
 C422 C 0.29057 0.00396 0.28029
 C423 C 0.37620 0.00297 0.26484
 C424 C 0.38281 -0.00918 0.23573
 C425 C 0.41183 -0.01970 0.22789
 C426 C 0.43398 -0.01873 0.24980
 C427 C 0.42753 -0.00697 0.27917
 C428 C 0.39863 0.00434 0.28648
 H429 H 0.32384 -0.03013 0.28011
 H430 H 0.36095 0.06060 0.26216
 H431 H 0.36543 -0.01006 0.21904
 H432 H 0.39325 0.01331 0.30908
 H433 H 0.26315 0.04206 0.27701
 H434 H 0.45615 -0.02760 0.24421
 C435 C 0.15041 -0.03430 0.76900
 C436 C 0.12866 -0.01242 0.76764
 C437 C 0.13672 0.01821 0.77547
 C438 C 0.16642 0.02733 0.78439
 C439 C 0.18779 0.00523 0.78651
 C440 C 0.17992 -0.02558 0.77903
 C441 C 0.09750 -0.02073 0.75741
 C442 C 0.07266 -0.02392 0.77853
 C443 C 0.04230 -0.02623 0.76906
 C444 C 0.03714 -0.02539 0.73806
 C445 C 0.06194 -0.02217 0.71659
 C446 C 0.09209 -0.02032 0.72663
 H447 H 0.14414 -0.05803 0.76319
 H448 H 0.11999 0.03510 0.77397
 H449 H 0.07703 -0.02288 0.80237
 H450 H 0.11149 -0.01671 0.71067
 H451 H 0.21054 0.01190 0.79420
 H452 H 0.01374 -0.02678 0.73094
 C453 C 0.65545 0.45533 0.25143
 C454 C 0.63175 0.47529 0.25381
 C455 C 0.63653 0.50399 0.26847
 C456 C 0.66530 0.51315 0.27979
 C457 C 0.68877 0.49278 0.27772
 C458 C 0.68389 0.46364 0.26394
 C459 C 0.60171 0.46545 0.24174
 C460 C 0.57586 0.46149 0.26137
 C461 C 0.54766 0.44954 0.25054
 C462 C 0.54525 0.44263 0.21951
 C463 C 0.57087 0.44780 0.19929
 C464 C 0.59922 0.45849 0.21085
 H465 H 0.65110 0.43283 0.24101
 H466 H 0.61827 0.51954 0.27013
 H467 H 0.57814 0.46622 0.28534
 H468 H 0.61933 0.46205 0.19578
 H469 H 0.71078 0.49955 0.28710
 H470 H 0.52342 0.43346 0.21130
 C471 C 0.85598 0.48073 0.76459
 C472 C 0.87357 0.49874 0.74385
 C473 C 0.85870 0.51783 0.72567
 C474 C 0.82665 0.51916 0.72792
 C475 C 0.80914 0.50035 0.74806
 C476 C 0.82371 0.48079 0.76619
 C477 C 0.90705 0.49566 0.73891
 C478 C 0.91901 0.48875 0.70967
 C479 C 0.95040 0.48489 0.70419
 C480 C 0.97009 0.48816 0.72830
 C481 C 0.95855 0.49479 0.75782
 C482 C 0.92691 0.49856 0.76299
 H483 H 0.86717 0.46518 0.77807
 H484 H 0.87221 0.53179 0.70962
 H485 H 0.90370 0.48572 0.69112
 H486 H 0.91764 0.50317 0.78567
 H487 H 0.78430 0.50041 0.74917
 H488 H 0.99425 0.48451 0.72427
 C489 C 0.24768 0.38053 -0.02546
 C490 C 0.23933 0.38586 0.00517
 C491 C 0.23816 0.36186 0.02517
 C492 C 0.24571 0.33262 0.01478
 C493 C 0.25335 0.32743 -0.01594
 C494 C 0.25433 0.35116 -0.03622
 C495 C 0.23573 0.41715 0.01715
 C496 C 0.20686 0.42940 0.01922
 C497 C 0.20382 0.45887 0.03200
 C498 C 0.22989 0.47601 0.04224
 C499 C 0.25899 0.46423 0.03963
 C500 C 0.26162 0.43456 0.02723
 H501 H 0.24939 0.39922 -0.04075
 H502 H 0.23309 0.36642 0.04901
 H503 H 0.18683 0.41590 0.01150
 H504 H 0.28381 0.42496 0.02479
 H505 H 0.25963 0.30498 -0.02387
 H506 H 0.22754 0.49886 0.05176
 C507 C 0.74715 0.13955 -0.03147
 C508 C 0.74945 0.13221 -0.00131
 C509 C 0.75616 0.15536 0.02053
 C510 C 0.75975 0.18602 0.01245
 C511 C 0.75758 0.19305 -0.01796
 C512 C 0.75137 0.16997 -0.04019
 C513 C 0.74376 0.10031 0.00750
 C514 C 0.76804 0.08416 0.01647
 C515 C 0.76296 0.05351 0.02408
 C516 C 0.73305 0.03942 0.02393
 C517 C 0.70874 0.05518 0.01403
 C518 C 0.71433 0.08554 0.00558
 H519 H 0.74188 0.12144 -0.04811
 H520 H 0.75711 0.14949 0.04390
 H521 H 0.79106 0.09514 0.01674
 H522 H 0.69574 0.09765 -0.00245
 H523 H 0.76055 0.21665 -0.02402
 H524 H 0.72920 0.01558 0.02917
 C525 C 0.24173 0.69398 0.49386
 C526 C 0.26513 0.68166 0.50907
 C527 C 0.28358 0.70100 0.52774
 C528 C 0.27889 0.73216 0.53131
 C529 C 0.25592 0.74441 0.51544
 C530 C 0.23747 0.72536 0.49645
 C531 C 0.27187 0.64920 0.50395
 C532 C 0.30252 0.64177 0.49846
 C533 C 0.30962 0.61153 0.49243
 C534 C 0.28576 0.58853 0.49155
 C535 C 0.25497 0.59542 0.49635
 C536 C 0.24807 0.62580 0.50297
 H537 H 0.22781 0.67952 0.47874
 H538 H 0.30145 0.69175 0.53999
 H539 H 0.32096 0.65963 0.49822
 H540 H 0.22432 0.63130 0.50634
 H541 H 0.25253 0.76859 0.51772
 H542 H 0.29100 0.56523 0.48580
 C543 C 0.75341 0.87261 0.47789
 C544 C 0.75152 0.87951 0.50908
 C545 C 0.75833 0.85763 0.52942
 C546 C 0.76730 0.82896 0.51859
 C547 C 0.76908 0.82236 0.48741
 C548 C 0.76185 0.84388 0.46691
 C549 C 0.74197 0.90958 0.52012
 C550 C 0.71093 0.91572 0.52020
 C551 C 0.70172 0.94535 0.52682
 C552 C 0.72421 0.96881 0.53363
 C553 C 0.75542 0.96287 0.53374
 C554 C 0.76410 0.93303 0.52731
 H555 H 0.74793 0.88946 0.46221
 H556 H 0.75684 0.86295 0.55349
 H557 H 0.69413 0.89754 0.51388
 H558 H 0.78818 0.92836 0.52602
 H559 H 0.77604 0.80027 0.47911
 H560 H 0.71773 0.99187 0.53840
 C561 C -0.03621 0.22164 0.34152
 C562 C -0.00446 0.22160 0.34455
 C563 C 0.01501 0.21738 0.31897
 C564 C 0.00301 0.21381 0.29017
 C565 C -0.02886 0.21433 0.28727
 C566 C -0.04877 0.21851 0.31285
 C567 C 0.00874 0.23102 0.37362
 C568 C 0.00935 0.21041 0.39680
 C569 C 0.02228 0.21989 0.42435
 C570 C 0.03367 0.25037 0.42867
 C571 C 0.03246 0.27132 0.40580
 C572 C 0.02048 0.26127 0.37812
 H573 H -0.05090 0.22593 0.36142
 H574 H 0.03964 0.21881 0.32142
 H575 H 0.00055 0.18698 0.39305
 H576 H 0.01955 0.27721 0.36026
 H577 H -0.03771 0.21264 0.26491
 H578 H 0.04351 0.25773 0.44990
 C579 C -0.02722 0.73749 0.14238
 C580 C 0.00352 0.74861 0.13770
 C581 C 0.02280 0.75249 0.16228
 C582 C 0.01137 0.74463 0.19136
 C583 C -0.01966 0.73443 0.19565
 C584 C -0.03909 0.73118 0.17143
 C585 C 0.01434 0.75746 0.10710
 C586 C 0.02010 0.78838 0.10104
 C587 C 0.02392 0.79788 0.07113
 C588 C 0.02366 0.77563 0.04734
 C589 C 0.01858 0.74446 0.05317
 C590 C 0.01375 0.73563 0.08320
 H591 H -0.04227 0.73502 0.12359
 H592 H 0.04660 0.76078 0.15859
 H593 H 0.01923 0.80516 0.11960
 H594 H 0.00802 0.71191 0.08805
 H595 H -0.02876 0.72883 0.21804
 H596 H 0.02686 0.78240 0.02419
 C597 C 0.48267 0.24779 0.64317
 C598 C 0.51193 0.25924 0.63278
 C599 C 0.53665 0.26064 0.65199
 C600 C 0.53211 0.25017 0.68148
 C601 C 0.50250 0.23954 0.69184
 C602 C 0.47779 0.23829 0.67279
 C603 C 0.51625 0.26879 0.60142
 C604 C 0.51030 0.29854 0.59455
 C605 C 0.50948 0.30687 0.56442
 C606 C 0.51547 0.28500 0.54121
 C607 C 0.52124 0.25498 0.54776
 C608 C 0.52181 0.24710 0.57808
 H609 H 0.46366 0.24631 0.62824
 H610 H 0.55948 0.26845 0.64361
 H611 H 0.50490 0.31475 0.61277
 H612 H 0.52487 0.22381 0.58369
 H613 H 0.49890 0.23107 0.71441
 H614 H 0.51503 0.29095 0.51787
 C615 C 0.49155 0.73029 0.85027
 C616 C 0.52016 0.71869 0.85417
 C617 C 0.54087 0.71535 0.82927
 C618 C 0.53340 0.72451 0.80067
 C619 C 0.50448 0.73598 0.79720
 C620 C 0.48333 0.73897 0.82188
 C621 C 0.52844 0.71175 0.88488
 C622 C 0.53419 0.68188 0.89199
 C623 C 0.53622 0.67443 0.92226
 C624 C 0.53379 0.69729 0.94511
 C625 C 0.52915 0.72735 0.93822
 C626 C 0.52660 0.73447 0.90801
 H627 H 0.47569 0.73275 0.86965
 H628 H 0.56323 0.70721 0.83263
 H629 H 0.53469 0.66407 0.87437
 H630 H 0.52152 0.75731 0.90255
 H631 H 0.49895 0.74323 0.77527
 H632 H 0.53505 0.69152 0.96848
 N633 N 0.01785 0.22620 0.23820
 N634 N 0.04238 0.22622 0.21937
 C635 C 0.06412 0.21269 0.23348
 C636 C 0.05227 0.20438 0.26150
 N637 N 0.02335 0.21335 0.26370
 H638 H 0.06405 0.19420 0.27904
 N639 N 0.55405 0.74250 0.75226
 N640 N 0.57845 0.74032 0.73363
 C641 C 0.59627 0.72053 0.74549
 C642 C 0.58202 0.71055 0.77212
 N643 N 0.55566 0.72496 0.77560
 H644 H 0.59037 0.69498 0.78758
 N645 N 0.43541 0.75901 0.84214
 N646 N 0.41073 0.77113 0.83294
 C647 C 0.41386 0.77176 0.80263
 C648 C 0.44127 0.75960 0.79347
 N649 N 0.45416 0.75191 0.81888
 H650 H 0.45067 0.75682 0.77059
 N651 N -0.09872 0.23372 0.33249
 N652 N -0.12570 0.23992 0.32283
 C653 C -0.12513 0.23288 0.29298
 C654 C -0.09696 0.22187 0.28464
 N655 N -0.08090 0.22307 0.30998
 H656 H -0.08858 0.21547 0.26208
 N657 N -0.08708 0.70236 0.15896
 N658 N -0.11526 0.69687 0.17100
 C659 C -0.11693 0.71396 0.19692
 C660 C -0.08904 0.72986 0.20059
 N661 N -0.07100 0.72192 0.17655
 H662 H -0.08224 0.74503 0.21931
 N663 N 0.43364 0.20139 0.66996
 N664 N 0.40784 0.19364 0.68568
 C665 C 0.40605 0.21383 0.70936
 C666 C 0.43166 0.23414 0.70781
 N667 N 0.44820 0.22554 0.68294
 H668 H 0.43798 0.25292 0.72335
 N669 N 0.55996 0.22194 0.71553
 N670 N 0.58594 0.22398 0.72978
 C671 C 0.60071 0.25100 0.72300
 C672 C 0.58294 0.26554 0.70377
 N673 N 0.55767 0.24652 0.69979
 H674 H 0.58768 0.28757 0.69388
 N675 N 0.02484 0.72912 0.24064
 N676 N 0.04488 0.73648 0.26156
 C677 C 0.06423 0.75903 0.25060
 C678 C 0.05554 0.76521 0.22204
 N679 N 0.03073 0.74604 0.21674
 H680 H 0.06536 0.78271 0.20729
 N681 N 0.32983 0.10661 0.25354
 N682 N 0.31893 0.13161 0.24379
 C683 C 0.28805 0.12742 0.24614
 C684 C 0.28034 0.09913 0.25764
 N685 N 0.30710 0.08664 0.26186
 H686 H 0.25747 0.08822 0.26060
 N687 N 0.82358 0.54486 0.68097
 N688 N 0.80797 0.56584 0.66931
 C689 C 0.78603 0.57335 0.69020
 C690 C 0.78848 0.55601 0.71518
 N691 N 0.81233 0.53860 0.70843
 H692 H 0.77558 0.55725 0.73662
 N693 N 0.81390 0.45196 0.81178
 N694 N 0.79576 0.42866 0.82160
 C695 C 0.77575 0.42093 0.79989
 C696 C 0.78202 0.44048 0.77647
 N697 N 0.80596 0.45949 0.78481
 H698 H 0.77175 0.43960 0.75470
 N699 N 0.23939 -0.01546 0.26681
 N700 N 0.22015 -0.03981 0.27044
 C701 C 0.23326 -0.05800 0.28907
 C702 C 0.26132 -0.04404 0.29679
 N703 N 0.26427 -0.01755 0.28230
 H704 H 0.27823 -0.05260 0.31073
 N705 N 0.21985 -0.04704 0.80614
 N706 N 0.23831 -0.06972 0.80344
 C707 C 0.23176 -0.08534 0.77749
 C708 C 0.20836 -0.07170 0.76442
 N709 N 0.20168 -0.04786 0.78306
 H710 H 0.19787 -0.07786 0.74322
 N711 N 0.72717 0.44171 0.28577
 N712 N 0.74332 0.41729 0.28213
 C713 C 0.73306 0.40168 0.25741
 C714 C 0.71020 0.41719 0.24598
 N715 N 0.70705 0.44201 0.26440
 H716 H 0.69664 0.41052 0.22672
 N717 N 0.65120 0.55879 0.30946
 N718 N 0.66326 0.58663 0.31642
 C719 C 0.69168 0.58884 0.30294
 C720 C 0.69677 0.56162 0.28774
 N721 N 0.67110 0.54345 0.29240
 H722 H 0.71684 0.55582 0.27393
 N723 N 0.15493 0.07852 0.80292
 N724 N 0.16903 0.10599 0.80689
 C725 C 0.19863 0.10371 0.79737
 C726 C 0.20236 0.07396 0.78762
 N727 N 0.17456 0.05895 0.79153
 H728 H 0.22312 0.06430 0.77840
 N729 N 0.26854 0.28763 0.03146
 N730 N 0.26656 0.26928 0.05450
 C731 C 0.24420 0.27916 0.07372
 C732 C 0.23254 0.30423 0.06187
 N733 N 0.24840 0.30876 0.03545
 H734 H 0.21438 0.31771 0.07143
 N735 N 0.79354 0.78474 0.53205
 N736 N 0.79184 0.76419 0.55315
 C737 C 0.77036 0.77279 0.57403
 C738 C 0.75906 0.79941 0.56526
 N739 N 0.77408 0.80604 0.53888
 H740 H 0.74024 0.81141 0.57574
 N741 N 0.77281 0.85621 0.41407
 N742 N 0.77455 0.84205 0.38711
 C743 C 0.76567 0.81244 0.39127
 C744 C 0.75858 0.80883 0.42151
 N745 N 0.76347 0.83660 0.43504
 H746 H 0.75156 0.78786 0.43268
 N747 N 0.28334 0.36389 -0.08315
 N748 N 0.29137 0.35032 -0.10937
 C749 C 0.27629 0.32245 -0.10994
 C750 C 0.25888 0.31934 -0.08344
 N751 N 0.26395 0.34555 -0.06724
 H752 H 0.24504 0.29937 -0.07603
 N753 N 0.74389 0.15610 -0.09334
 N754 N 0.74038 0.16907 -0.11923
 C755 C 0.74293 0.19945 -0.11351
 C756 C 0.74809 0.20475 -0.08329
 N757 N 0.74846 0.17704 -0.07135
 H758 H 0.75012 0.22664 -0.07125
 N759 N 0.18674 0.72479 0.47616
 N760 N 0.17253 0.73836 0.45531
 C761 C 0.19255 0.76038 0.44424
 C762 C 0.21953 0.76012 0.45922
 N763 N 0.21486 0.73761 0.47898
 H764 H 0.24098 0.77348 0.45488
 N765 N 0.32772 0.74870 0.55274
 N766 N 0.33809 0.76411 0.57685
 C767 C 0.31367 0.77630 0.59128
 C768 C 0.28795 0.76816 0.57505
 N769 N 0.29775 0.75094 0.55118
 H770 H 0.26420 0.77199 0.58133
 N771 N 0.75425 0.23815 0.03153
 N772 N 0.75728 0.25510 0.05670
 C773 C 0.76868 0.23744 0.07695
 C774 C 0.77249 0.20901 0.06345
 N775 N 0.76308 0.21036 0.03505
 H776 H 0.78037 0.18921 0.07362
 N777 N 0.49719 0.35925 0.57821
 N778 N 0.48686 0.38325 0.56588
 C779 C 0.48351 0.37563 0.53644
 C780 C 0.49219 0.34633 0.53105
 N781 N 0.50063 0.33677 0.55771
 H782 H 0.49137 0.33314 0.50995
 N783 N 0.02582 0.85186 0.08677
 N784 N 0.02030 0.87841 0.07586
 C785 C 0.01576 0.87323 0.04625
 C786 C 0.01860 0.84269 0.03930
 N787 N 0.02474 0.82996 0.06528
 H788 H 0.01347 0.83068 0.01816
 N789 N 0.00820 0.72793 0.00104
 N790 N 0.00646 0.70252 -0.01619
 C791 C 0.01356 0.67982 0.00115
 C792 C 0.01973 0.69203 0.02948
 N793 N 0.01609 0.72212 0.02859
 H794 H 0.02627 0.68013 0.04877
 N795 N 0.51173 0.23509 0.49681
 N796 N 0.51426 0.20985 0.47981
 C797 C 0.52809 0.19025 0.49631
 C798 C 0.53400 0.20423 0.52405
 N799 N 0.52329 0.23225 0.52352
 H800 H 0.54424 0.19460 0.54289
 N801 N 0.04626 0.20109 0.46780
 N802 N 0.04238 0.17849 0.48675
 C803 C 0.01719 0.16127 0.47846
 C804 C 0.00577 0.17389 0.45377
 N805 N 0.02458 0.19872 0.44780
 H806 H -0.01449 0.16612 0.44175
 N807 N 0.55422 0.62270 0.91616
 N808 N 0.55001 0.59623 0.92972
 C809 C 0.52961 0.60046 0.95313
 C810 C 0.52155 0.63011 0.95360
 N811 N 0.53740 0.64330 0.93035
 H812 H 0.50542 0.64100 0.96914
 N813 N 0.51134 0.74281 0.98905
 N814 N 0.50774 0.76792 1.00598
 C815 C 0.51867 0.79153 0.98925
 C816 C 0.52905 0.78019 0.96144
 N817 N 0.52400 0.74964 0.96221
 H818 H 0.53896 0.79289 0.94252
 N819 N 0.05314 0.32116 0.38881
 N820 N 0.06013 0.34905 0.40008
 C821 C 0.05389 0.34826 0.43011
 C822 C 0.04305 0.31906 0.43697
 N823 N 0.04298 0.30279 0.41060
 H824 H 0.03534 0.31069 0.45885
 N825 N 0.36076 0.62217 0.46884
 N826 N 0.38620 0.60801 0.46211
 C827 C 0.38212 0.58049 0.47457
 C828 C 0.35346 0.57810 0.48901
 N829 N 0.34077 0.60451 0.48482
 H830 H 0.34244 0.55856 0.50028
 N831 N 0.78917 0.01542 0.04986
 N832 N 0.81508 0.00131 0.04679
 C833 C 0.83115 0.01312 0.02273
 C834 C 0.81452 0.03512 0.01133
 N835 N 0.78856 0.03591 0.02890
 H836 H 0.82016 0.04849 -0.00839
 N837 N 0.66432 0.04092 -0.01573
 N838 N 0.63897 0.02247 -0.01472
 C839 C 0.63774 0.00917 0.01218
 C840 C 0.66327 0.01983 0.02764
 N841 N 0.67926 0.03958 0.00939
 H842 H 0.66989 0.01340 0.04957
 N843 N 0.23432 0.54936 0.47061
 N844 N 0.20910 0.53089 0.47018
 C845 C 0.18918 0.54182 0.49141
 C846 C 0.20294 0.56792 0.50491
 N847 N 0.23118 0.57176 0.49117
 H848 H 0.19355 0.58243 0.52286
 N849 N 0.16596 0.49025 0.05748
 N850 N 0.13940 0.50140 0.05234
 C851 C 0.13089 0.48965 0.02522
 C852 C 0.15299 0.47069 0.01392
 N853 N 0.17449 0.47177 0.03475
 H854 H 0.15435 0.45893 -0.00798
 N855 N 0.64753 0.93006 0.52064
 N856 N 0.62188 0.94211 0.51394
 C857 C 0.62817 0.97253 0.51364
 C858 C 0.65856 0.97881 0.52022
 N859 N 0.66998 0.95161 0.52430
 H860 H 0.67159 1.00063 0.51901
 N861 N 0.77565 1.01516 0.52639
 N862 N 0.80177 1.03220 0.52857
 C863 C 0.82162 1.01498 0.54120
 C864 C 0.80701 0.98678 0.54661
 N865 N 0.77834 0.98776 0.53692
 H866 H 0.81673 0.96713 0.55530
 N867 N 0.28706 0.51327 0.05014
 N868 N 0.31537 0.52448 0.05538
 C869 C 0.33254 0.50037 0.05705
 C870 C 0.31400 0.47408 0.05264
 N871 N 0.28574 0.48304 0.04820
 H872 H 0.32084 0.45087 0.05160
 N873 N 0.50385 0.41760 0.27033
 N874 N 0.48573 0.41575 0.29519
 C875 C 0.49279 0.44104 0.31240
 C876 C 0.51571 0.45839 0.29750
 N877 N 0.52210 0.44299 0.27138
 H878 H 0.52768 0.47935 0.30557
 N879 N -0.00955 -0.01438 0.78676
 N880 N -0.02791 -0.01626 0.81143
 C881 C -0.01274 -0.03045 0.83188
 C882 C 0.01558 -0.03710 0.81905
 N883 N 0.01671 -0.02666 0.79085
 H884 H 0.03373 -0.04788 0.82941
 N885 N 0.07972 -0.01532 0.66416
 N886 N 0.06930 -0.00748 0.63827
 C887 C 0.03878 -0.00542 0.64284
 C888 C 0.03075 -0.01224 0.67238
 N889 N 0.05706 -0.01816 0.68510
 H890 H 0.00843 -0.01064 0.68381
 N891 N 0.59217 0.44437 0.14743
 N892 N 0.58299 0.44490 0.11946
 C893 C 0.55207 0.44420 0.12147
 C894 C 0.54253 0.44323 0.15154
 N895 N 0.56828 0.44352 0.16712
 H896 H 0.51939 0.44504 0.16107
 N897 N 0.39708 -0.04638 0.18100
 N898 N 0.40984 -0.05661 0.15519
 C899 C 0.44018 -0.04851 0.15583
 C900 C 0.44573 -0.03307 0.18290
 N901 N 0.41822 -0.03232 0.19803
 H902 H 0.46758 -0.02359 0.19084
 N903 N 0.94547 0.45523 0.65706
 N904 N 0.96188 0.44840 0.63214
 C905 C 0.98923 0.46449 0.63392
 C906 C 0.98922 0.48138 0.66087
 N907 N 0.96143 0.47485 0.67467
 H908 H 1.00764 0.49639 0.66976
 N909 N 1.00381 0.48026 0.78232
 N910 N 1.01758 0.48486 0.80823
 C911 C 1.00076 0.50415 0.82537
 C912 C 0.97612 0.51118 0.80924
 N913 N 0.97885 0.49574 0.78247
 H914 H 0.95813 0.52604 0.81627
 N915 N 0.47062 -0.02870 0.30125
 N916 N 0.48842 -0.02393 0.32451
 C917 C 0.47878 0.00086 0.34007
 C918 C 0.45439 0.01117 0.32574
 N919 N 0.45002 -0.00794 0.30158
 H920 H 0.44153 0.03084 0.33194
   
