data_POSCAR
  _audit_creation_date              2014-09-24
  _audit_creation_method            'ToBaCCo'
  _symmetry_space_group_name_H-M    'P1'
  _symmetry_Int_Tables_number       1
  _symmetry_cell_setting            triclinic
  loop_
  _symmetry_equiv_pos_as_xyz
 x,y,z
_cell_length_a 28.0171
_cell_length_b 28.1184
_cell_length_c 67.0927
_cell_angle_alpha 85.185200
_cell_angle_beta 92.490400
_cell_angle_gamma 120.114200
loop_
  _atom_site_label
  _atom_site_type_symbol
  _atom_site_fract_x
  _atom_site_fract_y
  _atom_site_fract_z
C1 C 0.01050 0.10231 0.52602
 H2 H 0.04942 0.10305 0.52554
 C3 C 0.00507 0.13763 0.53790
 H4 H 0.03985 0.16560 0.54669
 C5 C -0.08216 0.06542 0.51489
 H6 H -0.11569 0.03766 0.50568
 C7 C -0.08936 0.10025 0.52663
 H8 H -0.12863 0.09903 0.52658
 N9 N -0.03281 0.06693 0.51494
 C10 C 0.00355 -0.06348 0.50642
 H11 H 0.00672 -0.06061 0.49030
 C12 C 0.00535 -0.10650 0.51784
 H13 H 0.01047 -0.13658 0.51054
 C14 C -0.01057 -0.02999 0.53561
 H15 H -0.01874 -0.00139 0.54244
 C16 C -0.00894 -0.07225 0.54755
 H17 H -0.01508 -0.07549 0.56355
 Zn18 Zn -0.01799 0.02367 0.49896
 N19 N -0.00479 -0.02662 0.51541
 C20 C 0.09160 0.07157 0.48334
 N21 N 0.04404 0.07358 0.48320
 C22 C 0.03928 0.11393 0.47223
 C23 C 0.08314 0.15404 0.46054
 C24 C 0.13667 0.11109 0.47181
 C25 C -0.12569 -0.05994 0.49108
 C26 C -0.16815 -0.09826 0.47949
 C27 C -0.11276 -0.05121 0.44996
 C28 C -0.07139 -0.01394 0.46210
 N29 N -0.07827 -0.01924 0.48228
 H30 H 0.09479 0.03973 0.49247
 H31 H 0.00120 0.11487 0.47262
 H32 H 0.07886 0.18593 0.45182
 H33 H 0.17448 0.10941 0.47193
 H34 H -0.12953 -0.06393 0.50720
 H35 H -0.20502 -0.13150 0.48674
 H36 H -0.10600 -0.04744 0.43397
 H37 H -0.03291 0.01761 0.45543
 C38 C -0.00173 -0.11129 0.53857
 C39 C -0.04522 0.13666 0.53822
 C40 C -0.16122 -0.09435 0.45875
 C41 C 0.13226 0.15266 0.46033
 C42 C 1.13622 0.05848 0.14015
 H43 H 1.13740 0.09747 0.14047
 C44 C 1.17378 0.05456 0.12843
 H45 H 1.20392 0.09056 0.11959
 C46 C 1.09579 -0.03597 0.15149
 H47 H 1.06571 -0.07085 0.16069
 C48 C 1.13277 -0.04170 0.13992
 H49 H 1.13087 -0.08116 0.14008
 N50 N 1.09799 0.01356 0.15124
 C51 C 0.96522 0.04835 0.15876
 H52 H 0.96444 0.04846 0.17486
 C53 C 0.92425 0.05167 0.14711
 H54 H 0.89211 0.05490 0.15422
 C55 C 1.00569 0.04011 0.12986
 H56 H 1.03615 0.03353 0.12323
 C57 C 0.96561 0.04340 0.11769
 H58 H 0.96590 0.04010 0.10172
 Zn59 Zn 1.05119 0.02581 0.16685
 N60 N 1.00449 0.04208 0.15003
 C61 C 1.09565 0.13207 0.18230
 N62 N 1.09772 0.08467 0.18261
 C63 C 1.13568 0.07780 0.19386
 C64 C 1.17311 0.11920 0.20568
 C65 C 1.13251 0.17470 0.19396
 C66 C 0.96505 -0.08263 0.17463
 C67 C 0.92374 -0.12692 0.18612
 C68 C 0.96452 -0.07760 0.21569
 C69 C 1.00494 -0.03423 0.20368
 N70 N 1.00417 -0.03723 0.18351
 H71 H 1.06577 0.13700 0.17298
 H72 H 1.13677 0.03994 0.19359
 H73 H 1.20307 0.11322 0.21463
 H74 H 1.13075 0.21236 0.19373
 H75 H 0.96464 -0.08338 0.15853
 H76 H 0.89169 -0.16214 0.17888
 H77 H 0.96443 -0.07413 0.23165
 H78 H 1.03528 0.00270 0.21042
 C79 C 0.92402 0.04830 0.12642
 C80 C 1.17206 0.00407 0.12828
 C81 C 0.92305 -0.12392 0.20680
 C82 C 1.17153 0.16805 0.20575
 C83 C 0.03540 0.92236 0.86120
 H84 H -0.00268 0.88337 0.86071
 C85 C 0.07912 0.92607 0.87302
 H86 H 0.07472 0.88990 0.88176
 C87 C 0.08790 1.01701 0.85014
 H88 H 0.09122 1.05204 0.84099
 C89 C 0.13282 1.02252 0.86181
 H90 H 0.17064 1.06196 0.86177
 N91 N 0.04031 0.96748 0.85018
 C92 C -0.12912 0.93184 0.84160
 H93 H -0.13258 0.93214 0.82547
 C94 C -0.17165 0.92811 0.85298
 H95 H -0.20822 0.92494 0.84560
 C96 C -0.07559 0.93964 0.87082
 H97 H -0.03734 0.94629 0.87768
 C98 C -0.11708 0.93592 0.88275
 H99 H -0.11074 0.93894 0.89876
 Zn100 Zn -0.02142 0.95548 0.83419
 N101 N -0.08202 0.93815 0.85062
 C102 C -0.08527 0.84966 0.81814
 N103 N -0.03595 0.89749 0.81819
 C104 C 0.00749 0.90539 0.80723
 C105 C 0.00221 0.86462 0.79538
 C106 C -0.09233 0.80761 0.80643
 C107 C 0.00020 1.06415 0.82683
 C108 C 0.00228 1.10912 0.81544
 C109 C -0.01127 1.06102 0.78565
 C110 C -0.01320 1.01696 0.79757
 N111 N -0.00789 1.01910 0.81779
 H112 H -0.11889 0.84391 0.82725
 H113 H 0.04640 0.94355 0.80779
 H114 H 0.03708 0.87140 0.78670
 H115 H -0.13158 0.76957 0.80641
 H116 H 0.00294 1.06421 0.84296
 H117 H 0.00720 1.14421 0.82277
 H118 H -0.01704 1.05835 0.76962
 H119 H -0.02124 0.98028 0.79069
 C120 C -0.16514 0.93107 0.87373
 C121 C 0.12825 0.97653 0.87334
 C122 C -0.00425 1.10715 0.79468
 C123 C -0.04808 0.81531 0.79497
 O124 O 0.44327 -0.05999 -0.01615
 O125 O 0.54711 -0.04894 0.02190
 O126 O 0.45275 -0.05159 0.02226
 O127 O 0.53487 -0.06293 -0.01627
 O128 O 0.58034 0.02770 -0.02218
 O129 O 0.49738 0.03910 0.01652
 O130 O 0.59174 0.04169 0.01599
 O131 O 0.48884 0.03070 -0.02189
 Cu132 Cu 0.49002 -0.06498 0.00351
 Cu133 Cu 0.54418 0.04392 -0.00347
 C134 C 0.44853 -0.01625 -0.02535
 C135 C 0.58705 -0.00153 0.02531
 C136 C 0.46077 -0.00459 0.02583
 C137 C 0.57149 -0.01976 -0.02570
 O138 O -0.08662 0.40580 0.68607
 O139 O -0.08621 0.50653 0.64683
 O140 O -0.08899 0.41225 0.64716
 O141 O -0.08963 0.49717 0.68574
 O142 O 0.00162 0.54322 0.68601
 O143 O 0.00226 0.45751 0.64732
 O144 O 0.00504 0.55166 0.64715
 O145 O 0.00463 0.45198 0.68618
 Cu146 Cu -0.09705 0.45084 0.66643
 Cu147 Cu 0.01256 0.50568 0.66668
 C148 C -0.04080 0.41197 0.69267
 C149 C -0.04025 0.54629 0.64045
 C150 C -0.04347 0.42019 0.64079
 C151 C -0.04432 0.53466 0.69233
 O152 O 0.58261 0.55543 0.35548
 O153 O 0.49836 0.45975 0.31721
 O154 O 0.59253 0.55173 0.31732
 O155 O 0.49147 0.46037 0.35567
 O156 O 0.44519 0.50485 0.35007
 O157 O 0.54725 0.59714 0.31155
 O158 O 0.45308 0.50523 0.31163
 O159 O 0.53643 0.59994 0.34973
 Cu160 Cu 0.54589 0.50235 0.33700
 Cu161 Cu 0.49094 0.55637 0.33019
 C162 C 0.57368 0.59400 0.35899
 C163 C 0.46125 0.46637 0.30803
 C164 C 0.58722 0.58987 0.30799
 C165 C 0.45108 0.46673 0.35926
 C166 C -0.05054 0.17347 0.55040
 C167 C -0.05258 0.20516 0.56090
 C168 C -0.05278 0.24354 0.57375
 C169 C -0.01285 0.29957 0.57126
 C170 C -0.01088 0.33651 0.58444
 C171 C -0.04880 0.31756 0.60018
 C172 C -0.08909 0.26163 0.60253
 C173 C -0.09105 0.22469 0.58936
 C174 C -0.04585 0.35504 0.61417
 C175 C -0.04409 0.38548 0.62617
 H176 H 0.01717 0.31452 0.55932
 H177 H 0.02049 0.37964 0.58250
 H178 H -0.11856 0.24652 0.61467
 H179 H -0.12186 0.18141 0.59150
 C180 C 0.87774 0.83414 0.21873
 C181 C 0.83944 0.80063 0.22899
 C182 C 0.79365 0.76226 0.24154
 C183 C 0.79476 0.71800 0.25237
 C184 C 0.75135 0.68237 0.26528
 C185 C 0.70668 0.69086 0.26744
 C186 C 0.70532 0.73479 0.25646
 C187 C 0.74872 0.77041 0.24354
 C188 C 0.66324 0.65545 0.28136
 C189 C 0.62784 0.62571 0.29334
 H190 H 0.82940 0.71146 0.25101
 H191 H 0.75291 0.64863 0.27375
 H192 H 0.67110 0.74185 0.25806
 H193 H 0.74757 0.80466 0.23531
 C194 C 0.17350 -0.01965 -0.11453
 C195 C 0.21020 -0.01841 -0.10411
 C196 C 0.25272 -0.01867 -0.09136
 C197 C 0.29825 0.03102 -0.08605
 C198 C 0.33848 0.03041 -0.07311
 C199 C 0.33336 -0.01987 -0.06543
 C200 C 0.28807 -0.06954 -0.07087
 C201 C 0.24785 -0.06893 -0.08381
 C202 C 0.37379 -0.02026 -0.05154
 C203 C 0.40777 -0.01938 -0.03969
 H204 H 0.30236 0.07011 -0.09175
 H205 H 0.37327 0.06907 -0.06894
 H206 H 0.28360 -0.10864 -0.06498
 H207 H 0.21273 -0.10760 -0.08779
 C208 C -0.00548 0.84198 0.55051
 C209 C -0.01028 0.80259 0.56082
 C210 C -0.01732 0.75559 0.57349
 C211 C 0.02652 0.74526 0.57661
 C212 C 0.02005 0.70072 0.58954
 C213 C -0.03028 0.66632 0.59939
 C214 C -0.07429 0.67631 0.59610
 C215 C -0.06783 0.72083 0.58317
 C216 C -0.03578 0.62238 0.61350
 C217 C -0.03892 0.58680 0.62564
 H218 H 0.06579 0.77194 0.56925
 H219 H 0.05445 0.69353 0.59206
 H220 H -0.11328 0.65016 0.60371
 H221 H -0.10196 0.72853 0.58090
 C222 C 0.21021 0.21083 0.21793
 C223 C 0.24327 0.24540 0.22843
 C224 C 0.28308 0.28537 0.24126
 C225 C 0.27329 0.32482 0.24866
 C226 C 0.31111 0.36223 0.26174
 C227 C 0.35885 0.36032 0.26750
 C228 C 0.36891 0.32121 0.25996
 C229 C 0.33109 0.28381 0.24687
 C230 C 0.39655 0.39757 0.28156
 C231 C 0.42693 0.42883 0.29355
 H232 H 0.23624 0.32628 0.24447
 H233 H 0.30288 0.39225 0.26752
 H234 H 0.40563 0.31931 0.26434
 H235 H 0.33899 0.25335 0.24128
 C236 C 0.79699 -0.06630 -0.11506
 C237 C 0.76509 -0.06206 -0.10487
 C238 C 0.72886 -0.05513 -0.09238
 C239 C 0.73283 -0.00343 -0.09228
 C240 C 0.69992 0.00437 -0.07933
 C241 C 0.66292 -0.03950 -0.06643
 C242 C 0.65847 -0.09138 -0.06670
 C243 C 0.69139 -0.09917 -0.07964
 C244 C 0.63071 -0.03112 -0.05246
 C245 C 0.60380 -0.02510 -0.04043
 H246 H 0.76189 0.03099 -0.10199
 H247 H 0.70382 0.04468 -0.07921
 H248 H 0.63008 -0.12556 -0.05674
 H249 H 0.68818 -0.13923 -0.07951
 C250 C 0.21081 -0.00001 0.11617
 C251 C 0.24390 -0.00154 0.10573
 C252 C 0.28369 -0.00175 0.09293
 C253 C 0.33194 0.04771 0.08750
 C254 C 0.36963 0.04811 0.07439
 C255 C 0.35921 -0.00095 0.06664
 C256 C 0.31126 -0.05050 0.07224
 C257 C 0.27357 -0.05091 0.08535
 C258 C 0.39668 -0.00049 0.05251
 C259 C 0.42681 -0.00137 0.04044
 H260 H 0.34009 0.08599 0.09324
 H261 H 0.40651 0.08666 0.07013
 H262 H 0.30275 -0.08867 0.06631
 H263 H 0.23634 -0.08934 0.08940
 C264 C 0.80231 0.86734 0.44778
 C265 C 0.77014 0.83179 0.43741
 C266 C 0.73350 0.78946 0.42466
 C267 C 0.71550 0.73394 0.43038
 C268 C 0.68239 0.69309 0.41747
 C269 C 0.66727 0.70766 0.39876
 C270 C 0.68486 0.76312 0.39313
 C271 C 0.71793 0.80392 0.40604
 C272 C 0.63429 0.66610 0.38518
 C273 C 0.60672 0.63242 0.37343
 H274 H 0.72757 0.72233 0.44470
 H275 H 0.66904 0.65034 0.42197
 H276 H 0.67343 0.77485 0.37870
 H277 H 0.73189 0.84674 0.40140
 C278 C -0.00768 0.15030 0.78274
 C279 C -0.01223 0.18506 0.77244
 C280 C -0.01902 0.22518 0.75977
 C281 C 0.02522 0.27903 0.75648
 C282 C 0.01895 0.31719 0.74353
 C283 C -0.03155 0.30167 0.73382
 C284 C -0.07596 0.24800 0.73728
 C285 C -0.06970 0.20985 0.75024
 C286 C -0.03685 0.34015 0.71966
 C287 C -0.03977 0.37267 0.70750
 H288 H 0.06462 0.29129 0.76373
 H289 H 0.05364 0.35853 0.74088
 H290 H -0.11510 0.23548 0.72978
 H291 H -0.10414 0.16827 0.75264
 C292 C 0.87908 0.04540 0.11432
 C293 C 0.84106 0.04109 0.10394
 C294 C 0.79559 0.03435 0.09128
 C295 C 0.74364 -0.01310 0.09399
 C296 C 0.70010 -0.02106 0.08105
 C297 C 0.70838 0.01840 0.06534
 C298 C 0.76018 0.06609 0.06276
 C299 C 0.80369 0.07403 0.07568
 C300 C 0.66428 0.00979 0.05161
 C301 C 0.62834 0.00373 0.03979
 H302 H 0.73699 -0.04419 0.10594
 H303 H 0.66025 -0.05810 0.08318
 H304 H 0.76705 0.09683 0.05064
 H305 H 0.84373 0.11072 0.07338
 C306 C 0.17765 0.19423 0.44834
 C307 C 0.21443 0.22981 0.43802
 C308 C 0.25703 0.27274 0.42539
 C309 C 0.25613 0.32160 0.42013
 C310 C 0.29615 0.36257 0.40721
 C311 C 0.33724 0.35484 0.39951
 C312 C 0.33844 0.30621 0.40492
 C313 C 0.29842 0.26523 0.41783
 C314 C 0.37727 0.39589 0.38561
 C315 C 0.41085 0.42908 0.37371
 H316 H 0.22419 0.32775 0.42585
 H317 H 0.29473 0.39993 0.40308
 H318 H 0.36995 0.29975 0.39899
 H319 H 0.29940 0.22756 0.42175
 C320 C -0.05330 0.77315 0.78280
 C321 C -0.05529 0.73941 0.77232
 C322 C -0.05537 0.70083 0.75949
 C323 C -0.01534 0.68486 0.76204
 C324 C -0.01311 0.65006 0.74885
 C325 C -0.05088 0.63113 0.73303
 C326 C -0.09132 0.64657 0.73061
 C327 C -0.09355 0.68138 0.74380
 C328 C -0.04756 0.59688 0.71899
 C329 C -0.04543 0.56845 0.70697
 H330 H 0.01459 0.69993 0.77405
 H331 H 0.01837 0.63845 0.75084
 H332 H -0.12070 0.63221 0.71841
 H333 H -0.12447 0.69370 0.74161
   
