data_POSCAR
  _audit_creation_date              2014-09-24
  _audit_creation_method            'ToBaCCo'
  _symmetry_space_group_name_H-M    'P1'
  _symmetry_Int_Tables_number       1
  _symmetry_cell_setting            triclinic
  loop_
  _symmetry_equiv_pos_as_xyz
 x,y,z
_cell_length_a 51.6447
_cell_length_b 51.6852
_cell_length_c 14.7904
_cell_angle_alpha 90.086200
_cell_angle_beta 90.002700
_cell_angle_gamma 119.866000
loop_
  _atom_site_label
  _atom_site_type_symbol
  _atom_site_fract_x
  _atom_site_fract_y
  _atom_site_fract_z
C1 C 0.22505 0.49811 0.45305
 C2 C 0.22504 0.49795 0.54865
 C3 C 0.24886 0.49840 0.59567
 C4 C 0.27266 0.49887 0.54873
 C5 C 0.27264 0.49903 0.45339
 C6 C 0.24895 0.49871 0.40631
 H7 H 0.24909 0.49877 0.33292
 H8 H 0.24880 0.49822 0.66911
 C9 C 0.50158 -0.27272 0.45087
 C10 C 0.50153 -0.27264 0.54624
 C11 C 0.50186 -0.24893 0.59340
 C12 C 0.50237 -0.22512 0.54665
 C13 C 0.50243 -0.22520 0.45122
 C14 C 0.50198 -0.24898 0.40409
 H15 H 0.50208 -0.24887 0.33070
 H16 H 0.50188 -0.24900 0.66679
 C17 C 1.27236 0.77552 0.44800
 C18 C 1.27230 0.77543 0.54341
 C19 C 1.24884 0.75190 0.59036
 C20 C 1.22529 0.72844 0.54347
 C21 C 1.22532 0.72850 0.44822
 C22 C 1.24883 0.75195 0.40114
 H23 H 1.24867 0.75188 0.32775
 H24 H 1.24884 0.75194 0.66371
 C25 C 0.77441 0.50175 0.45578
 C26 C 0.77446 0.50177 0.55115
 C27 C 0.75103 0.50204 0.59829
 C28 C 0.72761 0.50240 0.55140
 C29 C 0.72762 0.50239 0.45597
 C30 C 0.75097 0.50201 0.40898
 H31 H 0.75099 0.50205 0.33563
 H32 H 0.75110 0.50210 0.67172
 C33 C 0.49796 0.27257 0.45608
 C34 C 0.49792 0.27259 0.55150
 C35 C 0.49832 0.24924 0.59853
 C36 C 0.49864 0.22583 0.55149
 C37 C 0.49870 0.22588 0.45613
 C38 C 0.49841 0.24924 0.40920
 H39 H 0.49838 0.24918 0.33584
 H40 H 0.49823 0.24921 0.67196
 C41 C 0.72723 0.22654 0.45312
 C42 C 0.72730 0.22658 0.54837
 C43 C 0.75075 0.25012 0.59551
 C44 C 0.77424 0.27364 0.54856
 C45 C 0.77415 0.27359 0.45315
 C46 C 0.75064 0.25007 0.40614
 H47 H 0.75062 0.25001 0.33280
 H48 H 0.75074 0.25002 0.66890
 O49 O 0.95882 0.43507 0.16664
 O50 O 0.92564 0.44110 0.07816
 C51 C 0.93200 0.42817 0.14238
 O52 O 1.04206 0.56788 0.15562
 O53 O 1.07506 0.55968 0.07329
 C54 C 1.06883 0.57433 0.13221
 O55 O 0.95850 0.52413 0.16404
 O56 O 0.92551 0.48433 0.07755
 C57 C 0.93174 0.50397 0.14061
 O58 O 1.04225 0.47424 0.15789
 O59 O 1.07508 0.51515 0.07511
 C60 C 1.06900 0.49453 0.13470
 Zr61 Zr 1.00038 0.46718 0.11135
 O62 O 1.00117 0.46376 0.25365
 O63 O 0.99948 0.42611 0.09542
 Zr64 Zr 1.00018 0.53262 0.11154
 O65 O 1.00311 0.53452 0.25440
 O66 O 0.99686 0.57183 0.10874
 O67 O 0.97379 0.48670 0.12947
 O68 O 1.02614 0.51288 0.12823
 O69 O 1.04194 0.47380 -0.16179
 O70 O 1.07484 0.51468 -0.07876
 C71 C 1.06867 0.49399 -0.13822
 O72 O 0.95824 0.52390 -0.16775
 O73 O 0.92538 0.48418 -0.08116
 C74 C 0.93151 0.50378 -0.14404
 O75 O 1.04191 0.56754 -0.16117
 O76 O 1.07497 0.55953 -0.07874
 C77 C 1.06873 0.57405 -0.13802
 O78 O 0.95855 0.43483 -0.17077
 O79 O 0.92551 0.44090 -0.08180
 C80 C 0.93175 0.42789 -0.14617
 Zr81 Zr 1.00016 0.46685 -0.11519
 O82 O 1.00170 0.46386 -0.25738
 O83 O 0.99728 0.42462 -0.10421
 Zr84 Zr 1.00006 0.53241 -0.11615
 O85 O 1.00288 0.53417 -0.25904
 O86 O 0.99683 0.57168 -0.11318
 Zr87 Zr 0.95544 0.47749 -0.00202
 Zr88 Zr 1.04480 0.52217 -0.00227
 O89 O 1.02592 0.51252 -0.13269
 O90 O 0.97361 0.48641 -0.13373
 O91 O 1.02726 0.47558 -0.00191
 O92 O 0.97400 0.52414 -0.00222
 O93 O 0.97385 0.44919 -0.00172
 O94 O 1.02689 0.55099 -0.00241
 H95 H 1.03952 0.51972 0.18158
 H96 H 0.96046 0.53258 -0.00208
 H97 H 1.03919 0.51918 -0.18622
 H98 H 0.96007 0.42733 -0.00165
 H99 H 1.01430 0.58719 0.07511
 H100 H 1.01445 0.58713 -0.08023
 H101 H 0.98622 0.51526 -0.28268
 H102 H 1.00242 0.48192 -0.28222
 H103 H 1.01572 0.42761 -0.07422
 H104 H 0.99895 0.41859 0.15733
 H105 H 1.00587 0.48334 0.27871
 H106 H 0.98720 0.51514 0.27775
 O107 O 0.43474 0.47666 0.16718
 O108 O 0.44084 0.51580 0.07865
 C109 C 0.42785 0.49657 0.14276
 O110 O 0.56761 0.52591 0.15813
 O111 O 0.55959 0.48481 0.07580
 C112 C 0.57413 0.50560 0.13497
 O113 O 0.52379 0.56583 0.16533
 O114 O 0.48405 0.55906 0.07835
 C115 C 0.50363 0.57249 0.14157
 O116 O 0.47402 0.43234 0.15846
 O117 O 0.51506 0.44027 0.07594
 C118 C 0.49434 0.42581 0.13532
 Zr119 Zr 0.46692 0.46713 0.11222
 O120 O 0.46329 0.46278 0.25444
 O121 O 0.42584 0.42713 0.09591
 Zr122 Zr 0.53240 0.53261 0.11319
 O123 O 0.53409 0.53163 0.25609
 O124 O 0.57163 0.57499 0.11042
 O125 O 0.48639 0.51315 0.13053
 O126 O 0.51262 0.48698 0.12983
 O127 O 0.47418 0.43229 -0.16056
 O128 O 0.51516 0.44036 -0.07752
 C129 C 0.49448 0.42582 -0.13702
 O130 O 0.52397 0.56567 -0.16648
 O131 O 0.48408 0.55891 -0.08037
 C132 C 0.50376 0.57227 -0.14310
 O133 O 0.56777 0.52577 -0.15901
 O134 O 0.55956 0.48470 -0.07681
 C135 C 0.57423 0.50545 -0.13575
 O136 O 0.43488 0.47663 -0.17026
 O137 O 0.44079 0.51568 -0.08136
 C138 C 0.42785 0.49646 -0.14581
 Zr139 Zr 0.46694 0.46703 -0.11426
 O140 O 0.46413 0.46250 -0.25646
 O141 O 0.42470 0.42779 -0.10364
 Zr142 Zr 0.53251 0.53247 -0.11453
 O143 O 0.53452 0.53140 -0.25738
 O144 O 0.57174 0.57486 -0.11122
 Zr145 Zr 0.47734 0.52230 -0.00111
 Zr146 Zr 0.52214 0.47762 -0.00047
 O147 O 0.51267 0.48685 -0.13111
 O148 O 0.48649 0.51304 -0.13267
 O149 O 0.47552 0.44866 -0.00082
 O150 O 0.52403 0.55028 -0.00079
 O151 O 0.44907 0.47571 -0.00108
 O152 O 0.55096 0.52421 -0.00045
 H153 H 0.51936 0.48038 0.18325
 H154 H 0.53244 0.57219 -0.00070
 H155 H 0.51943 0.48027 -0.18461
 H156 H 0.42718 0.46767 -0.00124
 H157 H 0.58709 0.57281 0.07738
 H158 H 0.58717 0.57270 -0.07794
 H159 H 0.51561 0.52914 -0.28133
 H160 H 0.48223 0.47977 -0.28117
 H161 H 0.42772 0.41234 -0.07390
 H162 H 0.41826 0.42010 0.15774
 H163 H 0.48262 0.47806 0.27976
 H164 H 0.51467 0.52828 0.27919
 O165 O 0.47646 0.04154 0.16768
 O166 O 0.51559 0.07458 0.07927
 C167 C 0.49634 0.06831 0.14352
 O168 O 0.52624 -0.04179 0.15651
 O169 O 0.48518 -0.07464 0.07401
 C170 C 0.50599 -0.06849 0.13298
 O171 O 0.56578 0.04157 0.16468
 O172 O 0.55892 0.07456 0.07832
 C173 C 0.57236 0.06833 0.14128
 O174 O 0.43225 -0.04191 0.15807
 O175 O 0.44027 -0.07483 0.07461
 C176 C 0.42575 -0.06869 0.13439
 Zr177 Zr 0.46704 -0.00004 0.11215
 O178 O 0.46277 -0.00084 0.25445
 O179 O 0.42693 0.00105 0.09642
 Zr180 Zr 0.53262 -0.00008 0.11221
 O181 O 0.53148 -0.00291 0.25507
 O182 O 0.57510 0.00309 0.10935
 O183 O 0.51308 0.02643 0.13029
 O184 O 0.48696 -0.02591 0.12883
 O185 O 0.43225 -0.04178 -0.16062
 O186 O 0.44027 -0.07477 -0.07791
 C187 C 0.42577 -0.06853 -0.13727
 O188 O 0.56571 0.04164 -0.16714
 O189 O 0.55884 0.07460 -0.08029
 C190 C 0.57228 0.06838 -0.14331
 O191 O 0.52583 -0.04197 -0.16088
 O192 O 0.48487 -0.07483 -0.07833
 C193 C 0.50558 -0.06872 -0.13771
 O194 O 0.47646 0.04169 -0.16980
 O195 O 0.51549 0.07465 -0.08070
 C196 C 0.49626 0.06845 -0.14505
 Zr197 Zr 0.46695 0.00010 -0.11441
 O198 O 0.46232 -0.00156 -0.25656
 O199 O 0.42762 0.00312 -0.10350
 Zr200 Zr 0.53250 -0.00008 -0.11564
 O201 O 0.53143 -0.00299 -0.25854
 O202 O 0.57496 0.00301 -0.11278
 Zr203 Zr 0.52219 0.04469 -0.00115
 Zr204 Zr 0.47765 -0.04455 -0.00179
 O205 O 0.48684 -0.02577 -0.13217
 O206 O 0.51297 0.02649 -0.13295
 O207 O 0.44860 -0.02689 -0.00126
 O208 O 0.55027 0.02599 -0.00156
 O209 O 0.47555 0.02644 -0.00080
 O210 O 0.52429 -0.02683 -0.00193
 H211 H 0.48039 -0.03930 0.18202
 H212 H 0.57219 0.03946 -0.00146
 H213 H 0.48024 -0.03906 -0.18575
 H214 H 0.46746 0.04027 -0.00062
 H215 H 0.57308 -0.01427 0.07509
 H216 H 0.57280 -0.01464 -0.08010
 H217 H 0.52920 0.01371 -0.28213
 H218 H 0.47982 -0.00200 -0.28154
 H219 H 0.41220 -0.01528 -0.07373
 H220 H 0.41991 0.00154 0.15837
 H221 H 0.47771 -0.00550 0.27944
 H222 H 0.52815 0.01315 0.27840
 C223 C 1.20216 0.49750 0.40442
 C224 C 1.18198 0.49691 0.36155
 C225 C 1.15829 0.49621 0.31155
 C226 C 1.13801 0.49564 0.26935
 C227 C 1.11413 0.49506 0.22083
 C228 C 1.09361 0.49470 0.18062
 C229 C 0.50156 0.70456 0.40301
 C230 C 0.50165 0.68444 0.36170
 C231 C 0.50190 0.66080 0.31418
 C232 C 0.50222 0.64059 0.27414
 C233 C 0.50268 0.61688 0.22767
 C234 C 0.50311 0.59663 0.18828
 C235 C 0.29480 -0.20172 0.39998
 C236 C 0.31455 -0.18159 0.35775
 C237 C 0.33772 -0.15792 0.30859
 C238 C 0.35757 -0.13764 0.26712
 C239 C 0.38101 -0.11376 0.21940
 C240 C 0.40125 -0.09325 0.17979
 C241 C 0.79830 0.50177 0.40471
 C242 C 0.81842 0.50192 0.36300
 C243 C 0.84218 0.50222 0.31495
 C244 C 0.86260 0.50257 0.27443
 C245 C 0.88663 0.50305 0.22744
 C246 C 0.90721 0.50348 0.18765
 C247 C 0.49731 0.29604 0.40475
 C248 C 0.49669 0.31555 0.36187
 C249 C 0.49595 0.33842 0.31183
 C250 C 0.49535 0.35805 0.26961
 C251 C 0.49477 0.38127 0.22114
 C252 C 0.49444 0.40140 0.18103
 C253 C 0.70348 0.20246 0.40265
 C254 C 0.68355 0.18215 0.36146
 C255 C 0.66013 0.15820 0.31406
 C256 C 0.64008 0.13765 0.27406
 C257 C 0.61654 0.11349 0.22760
 C258 C 0.59640 0.09285 0.18815
 C259 C 0.49861 0.20313 -0.40102
 C260 C 0.49847 0.18282 -0.36054
 C261 C 0.49816 0.15876 -0.31444
 C262 C 0.49780 0.13808 -0.27566
 C263 C 0.49728 0.11378 -0.23050
 C264 C 0.49681 0.09303 -0.19178
 C265 C 0.70528 0.50296 -0.40052
 C266 C 0.68559 0.50351 -0.35819
 C267 C 0.66249 0.50417 -0.30898
 C268 C 0.64264 0.50469 -0.26754
 C269 C 0.61917 0.50518 -0.22000
 C270 C 0.59885 0.50544 -0.18066
 C271 C 0.79702 0.29618 -0.40383
 C272 C 0.81738 0.31623 -0.36314
 C273 C 0.84146 0.33985 -0.31671
 C274 C 0.86215 0.36006 -0.27764
 C275 C 0.88645 0.38374 -0.23214
 C276 C 0.90719 0.40393 -0.19315
 C277 C 0.50298 -0.20217 -0.40515
 C278 C 0.50356 -0.18191 -0.36261
 C279 C 0.50425 -0.15815 -0.31302
 C280 C 0.50479 -0.13780 -0.27119
 C281 C 0.50531 -0.11386 -0.22309
 C282 C 0.50558 -0.09332 -0.18325
 C283 C 0.29541 0.49886 -0.40371
 C284 C 0.31562 0.49873 -0.36309
 C285 C 0.33941 0.49843 -0.31671
 C286 C 0.35974 0.49806 -0.27764
 C287 C 0.38355 0.49754 -0.23208
 C288 C 0.40382 0.49705 -0.19299
 C289 C 1.20127 0.70474 -0.40566
 C290 C 1.18121 0.68504 -0.36312
 C291 C 1.15764 0.66196 -0.31345
 C292 C 1.13745 0.64218 -0.27153
 C293 C 1.11366 0.61880 -0.22336
 C294 C 1.09323 0.59858 -0.18350
 C295 C 0.79716 0.50180 -0.40132
 C296 C 0.81743 0.50194 -0.36049
 C297 C 0.84138 0.50222 -0.31380
 C298 C 0.86198 0.50254 -0.27452
 C299 C 0.88619 0.50298 -0.22897
 C300 C 0.90691 0.50337 -0.19022
 C301 C 0.49731 0.29490 -0.40056
 C302 C 0.49672 0.31459 -0.35852
 C303 C 0.49601 0.33771 -0.30977
 C304 C 0.49544 0.35756 -0.26867
 C305 C 0.49489 0.38102 -0.22145
 C306 C 0.49458 0.40130 -0.18217
 C307 C 0.70360 0.20254 -0.40136
 C308 C 0.68367 0.18224 -0.36051
 C309 C 0.66022 0.15828 -0.31368
 C310 C 0.64013 0.13771 -0.27424
 C311 C 0.61653 0.11354 -0.22850
 C312 C 0.59634 0.09289 -0.18960
 C313 C 1.20213 0.49717 -0.40297
 C314 C 1.18187 0.49643 -0.36056
 C315 C 1.15809 0.49556 -0.31142
 C316 C 1.13770 0.49490 -0.27007
 C317 C 1.11373 0.49428 -0.22267
 C318 C 1.09318 0.49398 -0.18333
 C319 C 0.50150 0.70354 -0.40305
 C320 C 0.50163 0.68355 -0.36183
 C321 C 0.50194 0.66008 -0.31460
 C322 C 0.50232 0.63999 -0.27483
 C323 C 0.50284 0.61643 -0.22876
 C324 C 0.50329 0.59628 -0.18960
 C325 C 0.29582 -0.20068 -0.40530
 C326 C 0.31540 -0.18069 -0.36249
 C327 C 0.33830 -0.15722 -0.31267
 C328 C 0.35797 -0.13707 -0.27066
 C329 C 0.38122 -0.11335 -0.22253
 C330 C 0.40136 -0.09294 -0.18269
 C331 C 0.50320 -0.20110 0.40004
 C332 C 0.50388 -0.18098 0.35724
 C333 C 0.50469 -0.15740 0.30739
 C334 C 0.50529 -0.13718 0.26539
 C335 C 0.50584 -0.11340 0.21738
 C336 C 0.50608 -0.09296 0.17781
 C337 C 0.29654 0.49914 0.40264
 C338 C 0.31660 0.49906 0.36153
 C339 C 0.34015 0.49877 0.31453
 C340 C 0.36030 0.49839 0.27494
 C341 C 0.38388 0.49781 0.22898
 C342 C 0.40399 0.49725 0.18973
 C343 C 1.20135 0.70493 0.39746
 C344 C 1.18128 0.68529 0.35504
 C345 C 1.15772 0.66229 0.30568
 C346 C 1.13751 0.64253 0.26406
 C347 C 1.11372 0.61917 0.21640
 C348 C 1.09328 0.59891 0.17701
 C349 C 0.49873 0.20202 0.40527
 C350 C 0.49861 0.18186 0.36401
 C351 C 0.49833 0.15802 0.31674
 C352 C 0.49797 0.13752 0.27688
 C353 C 0.49745 0.11341 0.23054
 C354 C 0.49695 0.09279 0.19094
 C355 C 0.70412 0.50300 0.40467
 C356 C 0.68459 0.50358 0.36168
 C357 C 0.66172 0.50428 0.31147
 C358 C 0.64208 0.50483 0.26911
 C359 C 0.61883 0.50536 0.22055
 C360 C 0.59865 0.50562 0.18047
 C361 C 0.79807 0.29730 0.40242
 C362 C 0.81830 0.31723 0.36140
 C363 C 0.84222 0.34069 0.31449
 C364 C 0.86277 0.36077 0.27496
 C365 C 0.88692 0.38429 0.22895
 C366 C 0.90754 0.40435 0.18960
   
