data_POSCAR
  _audit_creation_date              2014-09-24
  _audit_creation_method            'ToBaCCo'
  _symmetry_space_group_name_H-M    'P1'
  _symmetry_Int_Tables_number       1
  _symmetry_cell_setting            triclinic
  loop_
  _symmetry_equiv_pos_as_xyz
 x,y,z
_cell_length_a 41.8909
_cell_length_b 41.2812
_cell_length_c 47.6819
_cell_angle_alpha 89.760100
_cell_angle_beta 90.323100
_cell_angle_gamma 123.732200
loop_
  _atom_site_label
  _atom_site_type_symbol
  _atom_site_fract_x
  _atom_site_fract_y
  _atom_site_fract_z
C1 C -0.02613 0.52155 1.33546
 C2 C 0.01290 0.54777 1.33586
 C3 C 0.02710 0.54054 1.31217
 N4 N -0.00203 0.51139 1.29701
 C5 C -0.03450 0.49963 1.31134
 C6 C 0.06636 0.55942 1.30515
 C7 C 0.07800 0.56089 1.27700
 C8 C 0.11435 0.57133 1.26882
 C9 C 0.11440 0.57073 1.24007
 C10 C 0.07804 0.55949 1.23129
 N11 N 0.05596 0.55355 1.25388
 C12 C 0.06696 0.55645 1.20288
 C13 C 0.02824 0.53561 1.19385
 C14 C 0.01647 0.53442 1.16651
 C15 C -0.02246 0.50795 1.16593
 C16 C -0.03384 0.49453 1.19325
 N17 N -0.00240 0.51120 1.21008
 C18 C -0.07144 0.46390 1.20185
 C19 C -0.07952 0.45077 1.23018
 C20 C -0.11200 0.41594 1.23948
 C21 C -0.11207 0.41752 1.26825
 C22 C -0.07977 0.45304 1.27594
 N23 N -0.05994 0.47298 1.25277
 C24 C -0.07127 0.46790 1.30349
 H25 H -0.04606 0.51922 1.35098
 H26 H 0.02892 0.56988 1.35166
 H27 H -0.03762 0.50230 1.25243
 H28 H 0.13843 0.57825 1.28202
 H29 H 0.13845 0.57735 1.22711
 H30 H 0.03414 0.54994 1.14851
 H31 H -0.03943 0.49867 1.14695
 H32 H -0.13395 0.39538 1.28193
 H33 H 0.02870 0.54847 1.25347
 H34 H -0.13423 0.39192 1.22720
 C35 C 0.49122 0.49810 1.16385
 C36 C 0.51113 0.48068 1.16497
 C37 C 0.52262 0.48285 1.19263
 N38 N 0.51081 0.50149 1.20826
 C39 C 0.49148 0.51074 1.19078
 C40 C 0.54769 0.47248 1.20244
 C41 C 0.55689 0.47333 1.23112
 C42 C 0.58805 0.47333 1.24107
 C43 C 0.58545 0.47151 1.26982
 C44 C 0.55217 0.46934 1.27671
 N45 N 0.53528 0.47117 1.25298
 C46 C 0.53778 0.46570 1.30425
 C47 C 0.51599 0.48136 1.31092
 C48 C 0.49727 0.47632 1.33618
 C49 C 0.48304 0.49916 1.33494
 C50 C 0.49265 0.51674 1.30883
 N51 N 0.51279 0.50594 1.29413
 C52 C 0.48462 0.54396 1.29966
 C53 C 0.48546 0.55365 1.27113
 C54 C 0.48407 0.58450 1.26128
 C55 C 0.48155 0.58143 1.23256
 C56 C 0.48231 0.54926 1.22560
 N57 N 0.48453 0.53241 1.24925
 C58 C 0.47874 0.53488 1.19816
 H59 H 0.47972 0.50266 1.14500
 H60 H 0.51757 0.46924 1.14712
 H61 H 0.48110 0.50548 1.25055
 H62 H 0.61056 0.47478 1.22893
 H63 H 0.60623 0.47247 1.28398
 H64 H 0.49386 0.45811 1.35381
 H65 H 0.46697 0.50210 1.35128
 H66 H 0.47944 0.60082 1.21852
 H67 H 0.50842 0.46707 1.25175
 H68 H 0.48429 0.60667 1.27347
 C69 C 0.52784 1.01474 1.32876
 C70 C 0.51356 0.97590 1.32678
 C71 C 0.48747 0.96136 1.30472
 N72 N 0.48636 0.99039 1.29252
 C73 C 0.51079 1.02295 1.30738
 C74 C 0.46393 0.92170 1.29665
 C75 C 0.44781 0.91093 1.26935
 C76 C 0.41816 0.87369 1.26139
 C77 C 0.41230 0.87512 1.23322
 C78 C 0.43811 0.91326 1.22466
 N79 N 0.45975 0.93492 1.24679
 C80 C 0.44242 0.92620 1.19663
 C81 C 0.46222 0.96582 1.18867
 C82 C 0.46512 0.97859 1.16136
 C83 C 0.48251 1.01803 1.16261
 C84 C 0.49063 1.02865 1.19069
 N85 N 0.47721 0.99629 1.20657
 C86 C 0.50506 1.06646 1.20167
 C87 C 0.50279 1.07191 1.23075
 C88 C 0.49892 1.10029 1.24246
 C89 C 0.50197 1.09823 1.27103
 C90 C 0.50855 1.06930 1.27610
 N91 N 0.50808 1.05277 1.25147
 C92 C 0.51651 1.05960 1.30265
 H93 H 0.54902 1.03483 1.34382
 H94 H 0.52184 0.96032 1.33996
 H95 H 0.51564 1.03281 1.24879
 H96 H 0.40202 0.84799 1.27440
 H97 H 0.39130 0.85066 1.22056
 H98 H 0.45394 0.96116 1.14251
 H99 H 0.48577 1.03586 1.14478
 H100 H 0.49943 1.11604 1.28624
 H101 H 0.48384 0.96335 1.24605
 H102 H 0.49375 1.12012 1.23176
 C103 C 0.98817 0.50560 0.66642
 C104 C 1.02741 0.52958 0.66746
 C105 C 1.03844 0.52567 0.69411
 N106 N 1.00710 0.50098 0.70963
 C107 C 0.97642 0.48863 0.69266
 C108 C 1.07676 0.54340 0.70366
 C109 C 1.08590 0.54694 0.73261
 C110 C 1.11982 0.55352 0.74350
 C111 C 1.11832 0.55643 0.77201
 C112 C 1.08357 0.55174 0.77796
 N113 N 1.06380 0.54566 0.75378
 C114 C 1.07143 0.55410 0.80513
 C115 C 1.03262 0.53983 0.81072
 C116 C 1.01965 0.55102 0.83298
 C117 C 0.98034 0.52864 0.83155
 C118 C 0.97063 0.50471 0.80838
 N119 N 1.00260 0.51182 0.79550
 C120 C 0.93291 0.47492 0.80044
 C121 C 0.92410 0.45815 0.77348
 C122 C 0.89027 0.42358 0.76606
 C123 C 0.89186 0.41931 0.73759
 C124 C 0.92644 0.45162 0.72843
 N125 N 0.94603 0.47495 0.75048
 C126 C 0.93805 0.46073 0.70017
 H127 H 0.97029 0.50165 0.64855
 H128 H 1.04556 0.54809 0.65053
 H129 H 0.97079 0.50297 0.74941
 H130 H 1.14308 0.55531 0.73218
 H131 H 1.14026 0.56086 0.78662
 H132 H 1.03671 0.57325 0.84848
 H133 H 0.96115 0.52999 0.84586
 H134 H 0.86981 0.39539 0.72506
 H135 H 1.03836 0.54435 0.75157
 H136 H 0.86677 0.40364 0.77969
 C137 C 0.55146 0.55879 0.66151
 C138 C 0.56559 0.53581 0.66362
 C139 C 0.55291 0.51634 0.68905
 N140 N 0.53167 0.52679 0.70257
 C141 C 0.53073 0.55271 0.68575
 C142 C 0.55901 0.48779 0.69879
 C143 C 0.55168 0.47415 0.72676
 C144 C 0.54769 0.44014 0.73581
 C145 C 0.54299 0.43849 0.76445
 C146 C 0.54495 0.47191 0.77219
 N147 N 0.54992 0.49332 0.74902
 C148 C 0.54436 0.48322 0.80009
 C149 C 0.53678 0.51171 0.80647
 C150 C 0.54232 0.52890 0.83254
 C151 C 0.52897 0.55254 0.83048
 C152 C 0.51544 0.54880 0.80331
 N153 N 0.52035 0.52393 0.78863
 C154 C 0.49668 0.56618 0.79288
 C155 C 0.49023 0.56786 0.76396
 C156 C 0.46566 0.57728 0.75296
 C157 C 0.46924 0.57805 0.72429
 C158 C 0.49596 0.56913 0.71853
 N159 N 0.50862 0.56297 0.74284
 C160 C 0.50968 0.56932 0.69148
 H161 H 0.55612 0.57794 0.64418
 H162 H 0.58328 0.53382 0.64820
 H163 H 0.53158 0.55998 0.74501
 H164 H 0.54797 0.41865 0.72308
 H165 H 0.53871 0.41527 0.77795
 H166 H 0.55477 0.52496 0.85111
 H167 H 0.52921 0.57040 0.84714
 H168 H 0.45400 0.58465 0.70941
 H169 H 0.55614 0.52148 0.74874
 H170 H 0.44714 0.58315 0.76438
 C171 C 0.47019 -0.02859 0.66640
 C172 C 0.49760 0.01068 0.66638
 C173 C 0.51421 0.01980 0.69282
 N174 N 0.49849 -0.01280 0.70872
 C175 C 0.47184 -0.04256 0.69253
 C176 C 0.54533 0.05696 0.70140
 C177 C 0.55693 0.06595 0.72971
 C178 C 0.59079 0.09917 0.73899
 C179 C 0.58863 0.09944 0.76779
 C180 C 0.55350 0.06645 0.77525
 N181 N 0.53447 0.04621 0.75195
 C182 C 0.53774 0.05815 0.80244
 C183 C 0.50492 0.02162 0.80996
 C184 C 0.48410 0.01386 0.83440
 C185 C 0.45627 -0.02531 0.83433
 C186 C 0.46182 -0.04049 0.81035
 N187 N 0.49129 -0.01161 0.79532
 C188 C 0.44153 -0.08046 0.80306
 C189 C 0.44179 -0.09241 0.77524
 C190 C 0.43246 -0.12922 0.76790
 C191 C 0.43510 -0.12965 0.73931
 C192 C 0.44597 -0.09310 0.72967
 N193 N 0.45033 -0.07038 0.75177
 C194 C 0.45045 -0.08221 0.70096
 H195 H 0.45119 -0.04481 0.64907
 H196 H 0.50424 0.03005 0.64881
 H197 H 0.45530 -0.04273 0.75067
 H198 H 0.61405 0.12160 0.72634
 H199 H 0.60987 0.12211 0.78155
 H200 H 0.48827 0.03414 0.85059
 H201 H 0.43448 -0.04071 0.85022
 H202 H 0.43025 -0.15408 0.72714
 H203 H 0.50570 0.02338 0.75101
 H204 H 0.42527 -0.15324 0.78168
 O205 O 0.38427 0.65011 0.96590
 O206 O 0.39123 0.71582 0.97648
 C207 C 0.36792 0.72202 0.96469
 O208 O 0.33273 0.70377 0.97107
 O209 O 0.26696 0.63883 0.98077
 C210 C 0.25785 0.60818 0.96747
 O211 O 0.27322 0.58946 0.97199
 O212 O 0.33557 0.58954 0.97617
 C213 C 0.36409 0.61376 0.96116
 O214 O 0.39067 0.64016 1.02087
 O215 O 0.39365 0.70379 1.03162
 C216 C 0.37742 0.72087 1.03864
 O217 O 0.34727 0.71473 1.02671
 O218 O 0.28205 0.64870 1.03627
 C219 C 0.26378 0.61264 1.04188
 O220 O 0.26777 0.58884 1.02817
 O221 O 0.33144 0.59187 1.03272
 C222 C 0.36755 0.61078 1.03572
 Cr223 Cr 0.38772 0.67632 0.99882
 Cr224 Cr 0.30825 0.67539 1.00363
 Cr225 Cr 0.30322 0.59216 1.00222
 O226 O 0.33296 0.64794 1.00152
 O227 O 0.60525 0.32245 0.96206
 O228 O 0.61296 0.26541 0.97331
 C229 C 0.64024 0.26728 0.96012
 O230 O 0.67523 0.29097 0.96653
 O231 O 0.73362 0.36147 0.97682
 C232 C 0.73492 0.38761 0.96171
 O233 O 0.71289 0.39923 0.96532
 O234 O 0.64455 0.38568 0.97188
 C235 C 0.61914 0.35794 0.95663
 O236 O 0.59800 0.33156 1.01746
 O237 O 0.60930 0.27661 1.02867
 C238 C 0.63132 0.26563 1.03506
 O239 O 0.66224 0.27704 1.02206
 O240 O 0.71871 0.34873 1.03211
 C241 C 0.73215 0.38437 1.03650
 O242 O 0.72355 0.40396 1.02144
 O243 O 0.65385 0.38660 1.02805
 C244 C 0.61828 0.36217 1.03213
 Cr245 Cr 0.60836 0.30042 0.99546
 Cr246 Cr 0.69617 0.32017 0.99932
 Cr247 Cr 0.68292 0.39184 0.99670
 O248 O 0.66248 0.33745 0.99724
 O249 O 0.65053 0.38796 0.52249
 O250 O 0.71199 0.39087 0.53711
 C251 C 0.72766 0.37361 0.54522
 O252 O 0.72423 0.34497 0.53221
 O253 O 0.65871 0.27766 0.53415
 C254 C 0.62252 0.25843 0.53649
 O255 O 0.60120 0.26335 0.52050
 O256 O 0.60130 0.32601 0.52667
 C257 C 0.61890 0.36154 0.53346
 O258 O 0.66994 0.39051 0.46793
 O259 O 0.73276 0.39687 0.48283
 C260 C 0.74084 0.37501 0.47067
 O261 O 0.72351 0.33890 0.47565
 O262 O 0.65950 0.27072 0.47762
 C263 C 0.63224 0.26383 0.46137
 O264 O 0.61235 0.27793 0.46499
 O265 O 0.60952 0.33892 0.47075
 C266 C 0.63588 0.36992 0.45875
 Cr267 Cr 0.69017 0.38932 0.50255
 Cr268 Cr 0.69037 0.30903 0.50479
 Cr269 Cr 0.60831 0.30280 0.49595
 O270 O 0.66296 0.33369 0.50117
 O271 O 0.34275 0.59143 0.51416
 O272 O 0.28311 0.59019 0.53155
 C273 C 0.26766 0.60720 0.54042
 O274 O 0.27235 0.63731 0.52880
 O275 O 0.33954 0.70249 0.53420
 C276 C 0.37582 0.72152 0.53580
 O277 O 0.39630 0.71704 0.51876
 O278 O 0.39322 0.65215 0.52121
 C279 C 0.37472 0.61581 0.52579
 O280 O 0.32287 0.59474 0.46081
 O281 O 0.26169 0.59027 0.47817
 C282 C 0.25528 0.61434 0.46741
 O283 O 0.27499 0.65034 0.47321
 O284 O 0.34051 0.71693 0.47913
 C285 C 0.36699 0.72448 0.46213
 O286 O 0.38455 0.70750 0.46284
 O287 O 0.38424 0.64418 0.46495
 C288 C 0.35711 0.61457 0.45207
 Cr289 Cr 0.30381 0.59386 0.49621
 Cr290 Cr 0.30782 0.67571 0.50361
 Cr291 Cr 0.38745 0.67902 0.49216
 O292 O 0.33307 0.64956 0.49738
 C293 C 0.47645 0.56384 0.32149
 C294 C 0.44414 0.56552 0.32045
 C295 C 0.43393 0.58185 0.34358
 C296 C 0.39540 0.56883 0.34730
 C297 C 0.38454 0.58213 0.36987
 C298 C 0.41222 0.60890 0.38912
 C299 C 0.45098 0.62335 0.38455
 C300 C 0.46180 0.61001 0.36203
 C301 C 0.40204 0.62244 0.41410
 C302 C 0.36554 0.60182 0.42605
 H303 H 0.42419 0.55164 0.30310
 H304 H 0.37352 0.54775 0.33301
 H305 H 0.35456 0.57145 0.37198
 H306 H 0.47294 0.64457 0.39872
 H307 H 0.49198 0.62194 0.35916
 H308 H 0.42487 0.64844 0.42457
 H309 H 0.49390 0.57302 0.34032
 H310 H 0.34256 0.57491 0.41676
 C311 C 0.45564 0.89158 0.31572
 C312 C 0.45261 0.89412 0.34473
 C313 C 0.44189 0.86173 0.36430
 C314 C 0.42560 0.86080 0.39013
 C315 C 0.41447 0.83050 0.40909
 C316 C 0.41945 0.80037 0.40258
 C317 C 0.43709 0.80203 0.37721
 C318 C 0.44817 0.83237 0.35817
 C319 C 0.40743 0.76762 0.42214
 C320 C 0.37777 0.75519 0.44132
 H321 H 0.45417 0.91925 0.35323
 H322 H 0.42119 0.88348 0.39561
 H323 H 0.40249 0.83117 0.42894
 H324 H 0.44197 0.77960 0.37200
 H325 H 0.46199 0.83290 0.33892
 H326 H 0.42146 0.75216 0.42080
 H327 H 0.44697 0.86349 0.30740
 H328 H 0.36168 0.76856 0.44137
 C329 C 0.09513 0.57702 0.32617
 C330 C 0.08969 0.56332 0.35380
 C331 C 0.12118 0.57955 0.37465
 C332 C 0.11909 0.55538 0.39633
 C333 C 0.14889 0.56915 0.41583
 C334 C 0.18140 0.60757 0.41409
 C335 C 0.18274 0.63226 0.39314
 C336 C 0.15299 0.61842 0.37353
 C337 C 0.21389 0.62286 0.43400
 C338 C 0.22289 0.59897 0.44772
 H339 H 0.06279 0.53677 0.35944
 H340 H 0.09454 0.52555 0.39795
 H341 H 0.14610 0.54971 0.43235
 H342 H 0.20713 0.66220 0.39172
 H343 H 0.15489 0.63829 0.35773
 H344 H 0.23248 0.65413 0.43683
 H345 H 0.12414 0.59928 0.32005
 H346 H 0.20629 0.56799 0.44357
 C347 C 0.54688 0.44905 0.32635
 C348 C 0.55685 0.42205 0.32335
 C349 C 0.56421 0.40583 0.34829
 C350 C 0.59645 0.40372 0.34912
 C351 C 0.60502 0.39073 0.37338
 C352 C 0.58087 0.37883 0.39691
 C353 C 0.54762 0.37913 0.39551
 C354 C 0.53954 0.39292 0.37152
 C355 C 0.58952 0.36566 0.42297
 C356 C 0.62694 0.38290 0.43288
 H357 H 0.55923 0.41226 0.30296
 H358 H 0.61552 0.41311 0.33127
 H359 H 0.63032 0.38976 0.37365
 H360 H 0.52836 0.36955 0.41325
 H361 H 0.51397 0.39343 0.37109
 H362 H 0.56574 0.34385 0.43564
 H363 H 0.54443 0.45608 0.34771
 H364 H 0.65051 0.40717 0.42155
 C365 C 0.52839 0.08516 0.32579
 C366 C 0.55108 0.12576 0.32396
 C367 C 0.56095 0.15007 0.34928
 C368 C 0.59833 0.18302 0.35299
 C369 C 0.60798 0.20586 0.37715
 C370 C 0.58003 0.19659 0.39756
 C371 C 0.54241 0.16430 0.39340
 C372 C 0.53303 0.14091 0.36966
 C373 C 0.58886 0.22112 0.42261
 C374 C 0.62365 0.23837 0.43704
 H375 H 0.56458 0.13984 0.30430
 H376 H 0.62013 0.19075 0.33736
 H377 H 0.63701 0.23119 0.37957
 H378 H 0.52034 0.15698 0.40870
 H379 H 0.50380 0.11604 0.36697
 H380 H 0.56641 0.22386 0.43085
 H381 H 0.52257 0.07281 0.34672
 H382 H 0.64470 0.23240 0.43074
 C383 C 0.89734 0.44998 0.32447
 C384 C 0.90172 0.43788 0.35075
 C385 C 0.87135 0.42115 0.37234
 C386 C 0.84504 0.43205 0.37428
 C387 C 0.81744 0.41678 0.39550
 C388 C 0.81556 0.39027 0.41514
 C389 C 0.84155 0.37910 0.41298
 C390 C 0.86955 0.39485 0.39203
 C391 C 0.78615 0.37303 0.43745
 C392 C 0.77163 0.39297 0.44961
 H393 H 0.92801 0.43960 0.35527
 H394 H 0.84613 0.45285 0.35976
 H395 H 0.79730 0.42537 0.39622
 H396 H 0.84051 0.35855 0.42777
 H397 H 0.88966 0.38619 0.39103
 H398 H 0.77683 0.34441 0.44531
 H399 H 0.86958 0.44375 0.31821
 H400 H 0.78333 0.42290 0.44370
 C401 C 0.56824 0.46397 1.18167
 C402 C 0.54873 0.43089 1.16478
 C403 C 0.56718 0.42293 1.14186
 C404 C 0.54417 0.39854 1.11982
 C405 C 0.56041 0.39095 1.09739
 C406 C 0.60014 0.40720 1.09676
 C407 C 0.62312 0.43141 1.11892
 C408 C 0.60687 0.43908 1.14132
 C409 C 0.61874 0.40023 1.07332
 C410 C 0.59887 0.36915 1.05460
 H411 H 0.51788 0.41152 1.16712
 H412 H 0.51354 0.38585 1.11969
 H413 H 0.54171 0.37299 1.08047
 H414 H 0.65377 0.44424 1.11900
 H415 H 0.62548 0.45724 1.15823
 H416 H 0.64966 0.41948 1.07146
 H417 H 0.59892 0.48447 1.17985
 H418 H 0.56838 0.34806 1.05700
 C419 C 0.89837 0.44450 1.18201
 C420 C 0.89077 0.46397 1.16176
 C421 C 0.85943 0.44340 1.14087
 C422 C 0.84391 0.46285 1.12890
 C423 C 0.81502 0.44469 1.10854
 C424 C 0.80148 0.40673 1.09933
 C425 C 0.81696 0.38727 1.11146
 C426 C 0.84572 0.40539 1.13191
 C427 C 0.77168 0.38645 1.07719
 C428 C 0.75979 0.40490 1.05950
 H429 H 0.90661 0.49548 1.16246
 H430 H 0.85403 0.49217 1.13545
 H431 H 0.80348 0.46061 1.10039
 H432 H 0.80720 0.35810 1.10478
 H433 H 0.85770 0.38985 1.14015
 H434 H 0.75977 0.35580 1.07383
 H435 H 0.87652 0.41395 1.18477
 H436 H 0.77182 0.43567 1.06158
 C437 C 0.52005 0.09929 1.18373
 C438 C 0.54085 0.10407 1.15943
 C439 C 0.55372 0.13591 1.13879
 C440 C 0.58005 0.14129 1.11822
 C441 C 0.59146 0.16928 1.09724
 C442 C 0.57692 0.19289 1.09641
 C443 C 0.55027 0.18729 1.11682
 C444 C 0.53871 0.15910 1.13782
 C445 C 0.58780 0.22233 1.07404
 C446 C 0.62111 0.23782 1.05814
 H447 H 0.54929 0.08397 1.15564
 H448 H 0.59148 0.12332 1.11812
 H449 H 0.61085 0.17138 1.08138
 H450 H 0.53816 0.20464 1.11642
 H451 H 0.51743 0.15507 1.15272
 H452 H 0.56938 0.23271 1.07036
 H453 H 0.52066 0.12448 1.19067
 H454 H 0.64120 0.22987 1.06279
 C455 C 0.46479 0.54922 1.17586
 C456 C 0.43092 0.52381 1.16112
 C457 C 0.41442 0.53652 1.13954
 C458 C 0.37665 0.50996 1.13020
 C459 C 0.36014 0.52073 1.10973
 C460 C 0.38118 0.55817 1.09793
 C461 C 0.41885 0.58495 1.10754
 C462 C 0.43540 0.57415 1.12783
 C463 C 0.36309 0.56863 1.07603
 C464 C 0.38460 0.59887 1.05698
 H465 H 0.41518 0.49308 1.16633
 H466 H 0.35981 0.48076 1.13881
 H467 H 0.33098 0.49962 1.10289
 H468 H 0.43574 0.61452 1.09977
 H469 H 0.46473 0.59550 1.13390
 H470 H 0.33207 0.55129 1.07431
 H471 H 0.47982 0.58032 1.17308
 H472 H 0.41558 0.61479 1.05727
 C473 C 0.09824 0.57567 1.18179
 C474 C 0.10070 0.55489 1.15983
 C475 C 0.13279 0.57187 1.13946
 C476 C 0.13643 0.54652 1.12237
 C477 C 0.16593 0.56098 1.10268
 C478 C 0.19274 0.60139 1.09967
 C479 C 0.18874 0.62678 1.11646
 C480 C 0.15914 0.61230 1.13612
 C481 C 0.22398 0.61815 1.07855
 C482 C 0.23575 0.59661 1.06491
 H483 H 0.07857 0.52406 1.15822
 H484 H 0.11623 0.51529 1.12417
 H485 H 0.16687 0.54023 1.08961
 H486 H 0.20854 0.65802 1.11428
 H487 H 0.15684 0.63300 1.14819
 H488 H 0.23820 0.64876 1.07345
 H489 H 0.12182 0.60527 1.18600
 H490 H 0.22327 0.56645 1.07038
 C491 C 0.42313 0.89611 1.17451
 C492 C 0.44455 0.89049 1.15525
 C493 C 0.42729 0.85947 1.13371
 C494 C 0.45029 0.84866 1.12121
 C495 C 0.43520 0.81961 1.10071
 C496 C 0.39661 0.80077 1.09222
 C497 C 0.37385 0.81215 1.10433
 C498 C 0.38893 0.84115 1.12484
 C499 C 0.37943 0.77040 1.07017
 C500 C 0.39504 0.74979 1.06135
 H501 H 0.47558 0.90881 1.15692
 H502 H 0.48009 0.86274 1.12736
 H503 H 0.45414 0.81271 1.09131
 H504 H 0.34423 0.79858 1.09785
 H505 H 0.37056 0.84948 1.13323
 H506 H 0.35266 0.76339 1.06083
 H507 H 0.39226 0.87630 1.17534
 H508 H 0.42058 0.75453 1.07125
 C509 C 0.57433 0.47165 0.67928
 C510 C 0.55780 0.45670 0.65303
 C511 C 0.57420 0.44329 0.63226
 C512 C 0.55018 0.41654 0.61158
 C513 C 0.56505 0.40448 0.59096
 C514 C 0.60449 0.41941 0.59044
 C515 C 0.62861 0.44668 0.61084
 C516 C 0.61366 0.45837 0.63165
 C517 C 0.62150 0.40836 0.56839
 C518 C 0.60116 0.37234 0.55484
 H519 H 0.53145 0.45442 0.64762
 H520 H 0.51980 0.40503 0.61132
 H521 H 0.54578 0.38429 0.57508
 H522 H 0.65916 0.45900 0.61065
 H523 H 0.63325 0.47997 0.64672
 H524 H 0.65174 0.42843 0.56381
 H525 H 0.59754 0.46940 0.68661
 H526 H 0.57199 0.35051 0.56107
 C527 C 0.56751 0.08753 0.67997
 C528 C 0.55127 0.10443 0.66544
 C529 C 0.57109 0.13467 0.64335
 C530 C 0.55308 0.15256 0.63298
 C531 C 0.56990 0.18041 0.61162
 C532 C 0.60516 0.19084 0.59994
 C533 C 0.62350 0.17343 0.61055
 C534 C 0.60660 0.14543 0.63186
 C535 C 0.62386 0.22015 0.57721
 C536 C 0.60360 0.22877 0.55868
 H537 H 0.52208 0.09475 0.67065
 H538 H 0.52582 0.14501 0.64147
 H539 H 0.55540 0.19402 0.60469
 H540 H 0.65077 0.18108 0.60201
 H541 H 0.62135 0.13212 0.63879
 H542 H 0.65447 0.23432 0.57427
 H543 H 0.59745 0.09833 0.67751
 H544 H 0.57268 0.21302 0.56008
 C545 C 0.90982 0.43987 0.67716
 C546 C 0.87422 0.43532 0.67664
 C547 C 0.84707 0.41779 0.65273
 C548 C 0.81904 0.42612 0.64940
 C549 C 0.79363 0.41115 0.62665
 C550 C 0.79573 0.38739 0.60667
 C551 C 0.82277 0.37781 0.61062
 C552 C 0.84819 0.39280 0.63337
 C553 C 0.77019 0.37181 0.58174
 C554 C 0.75139 0.38835 0.57079
 H555 H 0.86716 0.44756 0.69368
 H556 H 0.81707 0.44467 0.66431
 H557 H 0.77228 0.41804 0.62506
 H558 H 0.82452 0.35898 0.59587
 H559 H 0.86833 0.38440 0.63575
 H560 H 0.76779 0.34765 0.57069
 H561 H 0.91936 0.43208 0.65891
 H562 H 0.75488 0.41372 0.58057
 C563 C 0.50126 0.58793 0.66847
 C564 C 0.48460 0.56873 0.64322
 C565 C 0.47092 0.58391 0.62131
 C566 C 0.44408 0.55785 0.60148
 C567 C 0.42933 0.57055 0.58106
 C568 C 0.44116 0.60981 0.58005
 C569 C 0.46912 0.63616 0.59920
 C570 C 0.48389 0.62345 0.61961
 C571 C 0.42548 0.62443 0.55933
 C572 C 0.39058 0.60043 0.54531
 H573 H 0.47865 0.53983 0.64037
 H574 H 0.43413 0.52738 0.60197
 H575 H 0.40898 0.54951 0.56607
 H576 H 0.47929 0.66669 0.59856
 H577 H 0.50559 0.64480 0.63379
 H578 H 0.44110 0.65563 0.55607
 H579 H 0.50370 0.61483 0.67316
 H580 H 0.37339 0.56942 0.54924
 C581 C 0.43283 0.88739 0.68093
 C582 C 0.44781 0.88946 0.65433
 C583 C 0.42920 0.85651 0.63433
 C584 C 0.45162 0.85432 0.61367
 C585 C 0.43505 0.82364 0.59443
 C586 C 0.39549 0.79445 0.59546
 C587 C 0.37297 0.79717 0.61576
 C588 C 0.38954 0.82785 0.63497
 C589 C 0.37631 0.76194 0.57508
 C590 C 0.39574 0.75119 0.55780
 H591 H 0.47595 0.91453 0.64894
 H592 H 0.48212 0.87640 0.61244
 H593 H 0.45332 0.82356 0.57858
 H594 H 0.34233 0.77553 0.61669
 H595 H 0.37103 0.82930 0.64990
 H596 H 0.34529 0.74577 0.57356
 H597 H 0.40867 0.85922 0.68757
 H598 H 0.42647 0.76552 0.55958
 C599 C 0.10744 0.55835 0.68447
 C600 C 0.10454 0.54190 0.65826
 C601 C 0.13696 0.55925 0.63847
 C602 C 0.13991 0.53506 0.61963
 C603 C 0.16970 0.55092 0.60011
 C604 C 0.19677 0.59141 0.59892
 C605 C 0.19346 0.61561 0.61750
 C606 C 0.16397 0.59972 0.63722
 C607 C 0.22688 0.60946 0.57727
 C608 C 0.24183 0.59027 0.56460
 H609 H 0.07879 0.51404 0.65287
 H610 H 0.11905 0.50385 0.61997
 H611 H 0.17069 0.53154 0.58548
 H612 H 0.21360 0.64693 0.61662
 H613 H 0.16177 0.61924 0.65091
 H614 H 0.23778 0.63917 0.57114
 H615 H 0.13590 0.58135 0.69141
 H616 H 0.23399 0.56200 0.57217
 C617 C 0.48290 0.58343 0.81281
 C618 C 0.46084 0.56285 0.83620
 C619 C 0.44655 0.57840 0.85708
 C620 C 0.41931 0.55256 0.87671
 C621 C 0.40583 0.56585 0.89744
 C622 C 0.41924 0.60552 0.89897
 C623 C 0.44674 0.63146 0.87948
 C624 C 0.46031 0.61816 0.85876
 C625 C 0.40672 0.62119 0.92120
 C626 C 0.37413 0.59802 0.93769
 H627 H 0.45318 0.53329 0.83913
 H628 H 0.40864 0.52190 0.87620
 H629 H 0.38566 0.54493 0.91250
 H630 H 0.45801 0.66224 0.88040
 H631 H 0.48206 0.63934 0.84461
 H632 H 0.42391 0.65238 0.92467
 H633 H 0.48758 0.61120 0.80738
 H634 H 0.35532 0.56710 0.93378
 C635 C 0.09932 0.57088 0.82674
 C636 C 0.09184 0.55807 0.85459
 C637 C 0.12287 0.57315 0.87566
 C638 C 0.12192 0.54760 0.89563
 C639 C 0.15171 0.56088 0.91514
 C640 C 0.18259 0.60020 0.91528
 C641 C 0.18280 0.62603 0.89597
 C642 C 0.15339 0.61259 0.87612
 C643 C 0.21409 0.61525 0.93596
 C644 C 0.22730 0.59298 0.94618
 H645 H 0.06388 0.53285 0.86016
 H646 H 0.09841 0.51718 0.89582
 H647 H 0.15022 0.54053 0.93033
 H648 H 0.20603 0.65657 0.89601
 H649 H 0.15433 0.63309 0.86135
 H650 H 0.22862 0.64547 0.94225
 H651 H 0.12913 0.59110 0.82110
 H652 H 0.21560 0.56404 0.93794
 C653 C 0.42113 0.89001 0.82351
 C654 C 0.43261 0.89357 0.85157
 C655 C 0.41345 0.86081 0.87177
 C656 C 0.43489 0.86054 0.89434
 C657 C 0.41843 0.82955 0.91331
 C658 C 0.37998 0.79810 0.91015
 C659 C 0.35798 0.79914 0.88831
 C660 C 0.37454 0.83013 0.86919
 C661 C 0.36219 0.76454 0.92969
 C662 C 0.38373 0.75279 0.94327
 H663 H 0.45949 0.91951 0.85815
 H664 H 0.46469 0.88418 0.89711
 H665 H 0.43584 0.83059 0.93057
 H666 H 0.32808 0.77566 0.88581
 H667 H 0.35675 0.83007 0.85263
 H668 H 0.33142 0.74813 0.93283
 H669 H 0.39832 0.86133 0.81651
 H670 H 0.41393 0.76726 0.93849
 C671 C 0.54944 0.46352 0.82425
 C672 C 0.57784 0.45574 0.82556
 C673 C 0.58536 0.44146 0.85160
 C674 C 0.59518 0.41410 0.85013
 C675 C 0.60309 0.40090 0.87462
 C676 C 0.60220 0.41567 0.90093
 C677 C 0.59317 0.44364 0.90228
 C678 C 0.58443 0.45614 0.87791
 C679 C 0.61296 0.40442 0.92698
 C680 C 0.60522 0.36729 0.93146
 H681 H 0.59506 0.46024 0.80727
 H682 H 0.59657 0.40284 0.83001
 H683 H 0.61098 0.38008 0.87288
 H684 H 0.59291 0.45585 0.92228
 H685 H 0.57799 0.47809 0.87959
 H686 H 0.62632 0.42582 0.94361
 H687 H 0.53215 0.45795 0.84272
 H688 H 0.58852 0.34450 0.91620
 C689 C 0.90116 0.46040 0.82088
 C690 C 0.90469 0.45101 0.84835
 C691 C 0.87424 0.43680 0.86970
 C692 C 0.84440 0.44285 0.86748
 C693 C 0.81659 0.42945 0.88846
 C694 C 0.81830 0.41003 0.91216
 C695 C 0.84815 0.40416 0.91429
 C696 C 0.87596 0.41764 0.89341
 C697 C 0.78915 0.39431 0.93462
 C698 C 0.76367 0.40552 0.93920
 H699 H 0.93081 0.45310 0.85425
 H700 H 0.84260 0.45830 0.84983
 H701 H 0.79370 0.43396 0.88576
 H702 H 0.85008 0.38918 0.93227
 H703 H 0.89878 0.41284 0.89572
 H704 H 0.78837 0.37326 0.94877
 H705 H 0.87385 0.45405 0.81334
 H706 H 0.76475 0.42782 0.92644
 C707 C 0.55707 0.08882 0.82409
 C708 C 0.54087 0.10865 0.83321
 C709 C 0.55622 0.13702 0.85662
 C710 C 0.59342 0.15377 0.86770
 C711 C 0.60604 0.17954 0.89038
 C712 C 0.58184 0.18939 0.90230
 C713 C 0.54493 0.17291 0.89101
 C714 C 0.53236 0.14722 0.86838
 C715 C 0.59328 0.21585 0.92670
 C716 C 0.63094 0.24054 0.93647
 H717 H 0.51392 0.10093 0.82372
 H718 H 0.61307 0.14732 0.85903
 H719 H 0.63448 0.19105 0.89862
 H720 H 0.52564 0.17990 0.89976
 H721 H 0.50362 0.13487 0.86027
 H722 H 0.57084 0.21690 0.93693
 H723 H 0.58384 0.09498 0.83261
 H724 H 0.65446 0.24183 0.92605
   
