data_POSCAR
  _audit_creation_date              2014-09-24
  _audit_creation_method            'ToBaCCo'
  _symmetry_space_group_name_H-M    'P1'
  _symmetry_Int_Tables_number       1
  _symmetry_cell_setting            triclinic
  loop_
  _symmetry_equiv_pos_as_xyz
 x,y,z
_cell_length_a 29.7548
_cell_length_b 29.1943
_cell_length_c 16.5964
_cell_angle_alpha 90.891800
_cell_angle_beta 90.019200
_cell_angle_gamma 121.177100
loop_
  _atom_site_label
  _atom_site_type_symbol
  _atom_site_fract_x
  _atom_site_fract_y
  _atom_site_fract_z
O1 O -0.01981 0.55690 -0.11492
 O2 O 0.06767 0.50881 -0.05481
 O3 O -0.02777 0.46388 -0.11144
 O4 O 0.07527 0.60242 -0.05496
 O5 O 0.04590 0.58861 0.06998
 O6 O -0.06098 0.45392 0.01042
 O7 O 0.03551 0.49636 0.06832
 O8 O -0.04682 0.55020 0.01077
 Cu9 Cu 0.02705 0.53422 -0.09655
 Cu10 Cu -0.01020 0.52036 0.05217
 C11 C -0.04747 0.56251 -0.06198
 C12 C 0.06654 0.49480 0.01747
 C13 C -0.06273 0.43573 -0.06031
 C14 C 0.07835 0.61867 0.01754
 O15 O 0.51775 0.54997 0.04472
 O16 O 0.43519 0.42028 -0.05864
 O17 O 0.41884 0.47224 0.05562
 O18 O 0.53538 0.49475 -0.06087
 O19 O 0.54899 0.44861 0.02994
 O20 O 0.43515 0.42700 0.14451
 O21 O 0.45523 0.38036 0.03482
 O22 O 0.53629 0.51015 0.13998
 Cu23 Cu 0.47485 0.48860 -0.01391
 Cu24 Cu 0.49700 0.44018 0.09888
 C25 C 0.54151 0.55215 0.10922
 C26 C 0.43219 0.37860 -0.03059
 C27 C 0.40660 0.44427 0.11892
 C28 C 0.56117 0.47393 -0.03562
 O29 O 0.55419 0.99610 -0.12630
 O30 O 0.45016 0.94260 0.02330
 O31 O 0.48809 1.02077 -0.07753
 O32 O 0.51559 0.91547 -0.02643
 O33 O 0.57358 0.96818 0.06621
 O34 O 0.54470 1.07316 0.01673
 O35 O 0.50818 0.99287 0.11774
 O36 O 0.61247 1.04929 -0.03429
 Cu37 Cu 0.49644 0.96311 -0.06110
 Cu38 Cu 0.56573 1.02641 0.05083
 C39 C 0.60009 1.03356 -0.10700
 C40 C 0.46185 0.95741 0.09636
 C41 C 0.51257 1.06544 -0.03999
 C42 C 0.54761 0.92308 0.03015
 O43 O 1.05651 0.60834 0.44383
 O44 O 0.98088 0.48863 0.56649
 O45 O 1.05583 0.52065 0.45088
 O46 O 0.99732 0.58633 0.56410
 O47 O 0.92814 0.54859 0.48238
 O48 O 0.98724 0.48352 0.36875
 O49 O 0.91393 0.45764 0.48094
 O50 O 0.98888 0.57794 0.36001
 Cu51 Cu 1.02840 0.55225 0.51540
 Cu52 Cu 0.94965 0.51329 0.41174
 C53 C 1.03485 0.61409 0.38199
 C54 C 0.93376 0.45426 0.54644
 C55 C 1.03162 0.49094 0.39026
 C56 C 0.95232 0.57756 0.54396
 O57 O 0.50923 0.52470 0.42947
 O58 O 0.43418 0.38627 0.49887
 O59 O 0.40958 0.45267 0.43557
 O60 O 0.53198 0.46110 0.49907
 O61 O 0.52824 0.49654 0.61578
 O62 O 0.39852 0.47351 0.55951
 O63 O 0.43481 0.41575 0.62253
 O64 O 0.49705 0.55395 0.54628
 Cu65 Cu 0.47126 0.45309 0.45337
 Cu66 Cu 0.46306 0.48781 0.59792
 C67 C 0.51605 0.56277 0.47569
 C68 C 0.42479 0.37768 0.57339
 C69 C 0.38279 0.46071 0.48713
 C70 C 0.55137 0.48127 0.56796
 O71 O 0.51326 -0.07574 0.49072
 O72 O 0.51369 0.03231 0.60652
 O73 O 0.44848 -0.05132 0.53266
 O74 O 0.59176 0.01644 0.55779
 O75 O 0.60506 0.06356 0.44822
 O76 O 0.46073 -0.00859 0.41850
 O77 O 0.53112 0.07915 0.49538
 O78 O 0.53430 -0.02815 0.37981
 Cu79 Cu 0.51858 -0.02244 0.55840
 Cu80 Cu 0.53413 0.03104 0.42405
 C81 C 0.52208 -0.07119 0.41567
 C82 C 0.52146 0.07369 0.57034
 C83 C 0.43013 -0.04256 0.46959
 C84 C 0.62271 0.05203 0.50915
 C85 C 0.17424 0.44779 0.19004
 C86 C 0.15913 0.44750 0.27138
 C87 C 0.19083 0.44697 0.33355
 C88 C 0.23521 0.44324 0.31726
 C89 C 0.24753 0.43896 0.23585
 C90 C 0.21796 0.44302 0.17379
 H91 H 0.22906 0.44195 0.11192
 H92 H 0.18040 0.44911 0.39542
 C93 C 0.58703 0.72401 0.23330
 C94 C 0.57180 0.72446 0.31363
 C95 C 0.55484 0.75942 0.33638
 C96 C 0.55245 0.79379 0.28036
 C97 C 0.56793 0.79347 0.19978
 C98 C 0.58616 0.75934 0.17810
 H99 H 0.59629 0.75753 0.11583
 H100 H 0.54221 0.75902 0.39780
 C101 C 0.28947 0.85016 0.23207
 C102 C 0.26953 0.84707 0.31070
 C103 C 0.21586 0.81130 0.32366
 C104 C 0.18217 0.77795 0.26159
 C105 C 0.20204 0.78198 0.18274
 C106 C 0.25509 0.81951 0.16886
 H107 H 0.27100 0.82131 0.10943
 H108 H 0.20020 0.80799 0.38369
 C109 C 0.81743 0.58214 0.71540
 C110 C 0.81495 0.58203 0.80062
 C111 C 0.76606 0.56173 0.83788
 C112 C 0.71908 0.53764 0.79322
 C113 C 0.72143 0.53718 0.70820
 C114 C 0.77057 0.56059 0.67060
 H115 H 0.77225 0.56038 0.60534
 H116 H 0.76386 0.55932 0.90305
 C117 C 0.41321 0.22466 0.72209
 C118 C 0.41084 0.22629 0.80724
 C119 C 0.43034 0.20007 0.85301
 C120 C 0.45479 0.17498 0.81685
 C121 C 0.45808 0.17434 0.73200
 C122 C 0.43544 0.19730 0.68593
 H123 H 0.43950 0.19799 0.62092
 H124 H 0.42895 0.20163 0.91825
 C125 C 0.76697 0.18950 0.65977
 C126 C 0.74987 0.17868 0.74062
 C127 C 0.77572 0.21886 0.79986
 C128 C 0.81364 0.27155 0.77934
 C129 C 0.82460 0.28382 0.69647
 C130 C 0.80338 0.24217 0.63820
 H131 H 0.81315 0.25108 0.57522
 H132 H 0.76448 0.20933 0.86211
 N133 N 0.14137 0.43238 0.04675
 N134 N 0.11410 0.44588 0.00029
 C135 C 0.10167 0.47688 0.04394
 C136 C 0.12277 0.48459 0.12038
 C137 C 0.14678 0.45472 0.12075
 H138 H 0.12012 0.50820 0.16896
 H139 H 0.15443 0.40688 0.02841
 H140 H 0.10254 0.43228 -0.05902
 N141 N 0.63221 0.68976 0.14676
 N142 N 0.61994 0.64312 0.11401
 C143 C 0.57547 0.60441 0.14768
 C144 C 0.55865 0.62732 0.20426
 C145 C 0.59559 0.68161 0.20169
 H146 H 0.52095 0.60839 0.23387
 H147 H 0.66273 0.72672 0.12720
 H148 H 0.63921 0.63855 0.06474
 N149 N 0.38336 0.87842 0.25796
 N150 N 0.42935 0.90933 0.22401
 C151 C 0.42184 0.93015 0.15724
 C152 C 0.36909 0.91208 0.14810
 C153 C 0.34616 0.88044 0.21444
 H154 H 0.34995 0.91959 0.09898
 H155 H 0.37762 0.85526 0.30860
 H156 H 0.46459 0.91331 0.24350
 N157 N 0.91507 0.64050 0.69436
 N158 N 0.95085 0.63898 0.64899
 C159 C 0.92626 0.59827 0.59510
 C160 C 0.87263 0.57283 0.60653
 C161 C 0.86709 0.60004 0.67123
 H162 H 0.84236 0.53624 0.57751
 H163 H 0.92379 0.66760 0.74216
 H164 H 0.99137 0.66412 0.65705
 N165 N 0.37538 0.23813 0.59656
 N166 N 0.37856 0.27862 0.55698
 C167 C 0.40484 0.32337 0.60300
 C168 C 0.41933 0.31088 0.67491
 C169 C 0.39973 0.25620 0.66863
 H170 H 0.44501 0.33852 0.72140
 H171 H 0.35896 0.19931 0.57284
 H172 H 0.36509 0.27595 0.49796
 N173 N 0.74262 0.09896 0.61096
 N174 N 0.70254 0.06071 0.56938
 C175 C 0.67922 0.08230 0.52819
 C176 C 0.70745 0.13739 0.54157
 C177 C 0.74570 0.14593 0.59792
 H178 H 0.69383 0.16455 0.52920
 H179 H 0.76277 0.09177 0.65577
 H180 H 0.68741 0.01989 0.57765
 N181 N 0.51534 0.18732 0.92983
 N182 N 0.53060 0.15630 0.97131
 C183 C 0.50549 0.10704 0.93692
 C184 C 0.47414 0.10550 0.87339
 C185 C 0.48188 0.15659 0.87042
 H186 H 0.44822 0.07126 0.83567
 H187 H 0.52793 0.22725 0.94354
 H188 H 0.55719 0.16992 1.01961
 N189 N 0.66574 0.46265 0.88373
 N190 N 0.62362 0.44702 0.93537
 C191 C 0.60283 0.47749 0.92034
 C192 C 0.63113 0.51322 0.85937
 C193 C 0.67044 0.50274 0.83843
 H194 H 0.62700 0.54594 0.83938
 H195 H 0.69175 0.44873 0.88598
 H196 H 0.61179 0.41752 0.97884
 N197 N 0.81778 0.31025 0.91758
 N198 N 0.85299 0.35556 0.96287
 C199 C 0.89573 0.38494 0.91748
 C200 C 0.88958 0.35870 0.84412
 C201 C 0.83984 0.31249 0.84553
 H202 H 0.91763 0.37221 0.79558
 H203 H 0.78006 0.28180 0.93628
 H204 H 0.84535 0.36556 1.01983
 N205 N 0.47695 0.79933 0.33006
 N206 N 0.46930 0.83473 0.36808
 C207 C 0.51471 0.88224 0.36964
 C208 C 0.55321 0.87702 0.33139
 C209 C 0.52739 0.82365 0.30665
 H210 H 0.59481 0.90635 0.32858
 H211 H 0.44881 0.75858 0.32422
 H212 H 0.43406 0.82591 0.39512
 N213 N 0.24965 0.42617 0.46044
 N214 N 0.28883 0.43206 0.50607
 C215 C 0.33284 0.45468 0.46193
 C216 C 0.32172 0.46484 0.38599
 C217 C 0.26811 0.44507 0.38636
 H218 H 0.34914 0.48325 0.33722
 H219 H 0.21070 0.40756 0.47929
 H220 H 0.28480 0.41849 0.56500
 N221 N 0.08405 0.72172 0.24235
 N222 N 0.04514 0.67735 0.27342
 C223 C 0.06427 0.66321 0.33561
 C224 C 0.11719 0.70014 0.34508
 C225 C 0.12847 0.73604 0.28407
 H226 H 0.14453 0.69888 0.38672
 H227 H 0.08048 0.74048 0.19176
 H228 H 0.00669 0.65655 0.25086
 N229 N 0.86776 0.61492 0.92811
 N230 N 0.90312 0.60827 0.96550
 C231 C 0.91858 0.58270 0.91493
 C232 C 0.89210 0.57255 0.84235
 C233 C 0.85997 0.59353 0.85308
 H234 H 0.89234 0.54858 0.79211
 H235 H 0.84766 0.63163 0.95504
 H236 H 0.91495 0.61943 1.02545
 N237 N 0.35918 0.27208 0.82732
 N238 N 0.36574 0.31380 0.87004
 C239 C 0.40536 0.32839 0.92302
 C240 C 0.42478 0.29489 0.91394
 C241 C 0.39561 0.26064 0.85116
 H242 H 0.45981 0.29943 0.94181
 H243 H 0.33199 0.25381 0.78020
 H244 H 0.34507 0.33326 0.86033
 N245 N 0.65696 0.10603 0.71635
 N246 N 0.61858 0.06586 0.75505
 C247 C 0.63636 0.06284 0.82798
 C248 C 0.68909 0.10226 0.83536
 C249 C 0.70099 0.12830 0.76204
 H250 H 0.71380 0.11323 0.88861
 H251 H 0.65084 0.12140 0.66411
 H252 H 0.57953 0.04498 0.73517
 N253 N 0.06353 0.41613 0.25503
 N254 N 0.02850 0.42968 0.28699
 C255 C 0.05382 0.46652 0.34614
 C256 C 0.10505 0.47729 0.35317
 C257 C 0.11001 0.44612 0.29362
 H258 H 0.13565 0.50629 0.39323
 H259 H 0.05481 0.38851 0.20799
 H260 H -0.01015 0.41391 0.26702
 N261 N 0.61432 0.68193 0.38439
 N262 N 0.59938 0.63914 0.42825
 C263 C 0.54838 0.61754 0.44691
 C264 C 0.52984 0.64788 0.41324
 C265 C 0.57299 0.68821 0.37358
 H266 H 0.48953 0.63823 0.40949
 H267 H 0.65129 0.70437 0.35818
 H268 H 0.62282 0.62305 0.44057
 N269 N 0.29756 0.85255 0.45373
 N270 N 0.34315 0.88411 0.49916
 C271 C 0.37621 0.92628 0.45422
 C272 C 0.35134 0.92467 0.38252
 C273 C 0.30355 0.87609 0.38206
 H274 H 0.36891 0.95175 0.33285
 H275 H 0.26819 0.81386 0.46895
 H276 H 0.35209 0.87215 0.55281
 N277 N 0.53469 0.79633 0.06346
 N278 N 0.53034 0.83046 0.01779
 C279 C 0.55185 0.87786 0.05732
 C280 C 0.57058 0.87372 0.13177
 C281 C 0.55833 0.82098 0.13365
 H282 H 0.58921 0.90442 0.17815
 H283 H 0.52014 0.75626 0.04756
 H284 H 0.51159 0.82081 -0.03847
 N285 N 0.29481 0.38924 0.24821
 N286 N 0.33701 0.39144 0.21845
 C287 C 0.35832 0.43018 0.16309
 C288 C 0.32817 0.45369 0.15703
 C289 C 0.28877 0.42713 0.21343
 H290 H 0.33504 0.48667 0.11953
 H291 H 0.27107 0.36265 0.29245
 H292 H 0.35092 0.36678 0.23616
 N293 N 0.17536 0.75825 0.03732
 N294 N 0.14408 0.71504 -0.00689
 C295 C 0.11948 0.67298 0.04224
 C296 C 0.13625 0.68982 0.12057
 C297 C 0.17102 0.74448 0.11548
 H298 H 0.12495 0.66516 0.17343
 H299 H 0.19872 0.79657 0.01416
 H300 H 0.13896 0.71482 -0.06919
 N301 N 0.53246 0.19477 0.64241
 N302 N 0.54837 0.16819 0.59763
 C303 C 0.51909 0.11596 0.61513
 C304 C 0.48284 0.10877 0.67363
 C305 C 0.49270 0.15999 0.68928
 H306 H 0.45054 0.07122 0.69471
 H307 H 0.54680 0.23570 0.63776
 H308 H 0.57748 0.18542 0.55388
 N309 N 0.66947 0.47890 0.59143
 N310 N 0.62511 0.46491 0.55327
 C311 C 0.60102 0.48663 0.59305
 C312 C 0.63105 0.51553 0.65933
 C313 C 0.67412 0.50946 0.65637
 H314 H 0.62399 0.54017 0.70031
 H315 H 0.69633 0.46818 0.57251
 H316 H 0.61208 0.44143 0.50057
 N317 N 0.84233 0.37708 0.69778
 N318 N 0.87163 0.42194 0.65885
 C319 C 0.89995 0.41372 0.60376
 C320 C 0.88821 0.36133 0.60691
 C321 C 0.85194 0.33963 0.66862
 H322 H 0.90339 0.34179 0.56948
 H323 H 0.81546 0.37210 0.74235
 H324 H 0.87131 0.45720 0.66878
   
