data_POSCAR
  _audit_creation_date              2014-09-24
  _audit_creation_method            'ToBaCCo'
  _symmetry_space_group_name_H-M    'P1'
  _symmetry_Int_Tables_number       1
  _symmetry_cell_setting            triclinic
  loop_
  _symmetry_equiv_pos_as_xyz
 x,y,z
_cell_length_a 32.3060
_cell_length_b 34.0389
_cell_length_c 23.3577
_cell_angle_alpha 89.992500
_cell_angle_beta 90.109700
_cell_angle_gamma 90.004400
loop_
  _atom_site_label
  _atom_site_type_symbol
  _atom_site_fract_x
  _atom_site_fract_y
  _atom_site_fract_z
C1 C 0.17211 0.25355 0.13981
 C2 C 0.18164 0.21825 0.16836
 C3 C 0.21125 0.21949 0.21285
 C4 C 0.23322 0.25425 0.22602
 C5 C 0.22238 0.28899 0.19665
 C6 C 0.19056 0.28918 0.15569
 C7 C 0.26688 0.25417 0.27071
 C8 C 0.27779 0.28884 0.30023
 C9 C 0.30936 0.28880 0.34156
 C10 C 0.32743 0.25306 0.35760
 C11 C 0.31786 0.21785 0.32889
 C12 C 0.28860 0.21927 0.28400
 H13 H 0.14796 0.25396 0.10755
 H14 H 0.21809 0.19315 0.23644
 H15 H 0.23858 0.31616 0.20492
 H16 H 0.26182 0.31611 0.29184
 H17 H 0.35138 0.25329 0.39016
 H18 H 0.28180 0.19296 0.26030
 C19 C 0.83016 0.24851 0.14399
 C20 C 0.81218 0.28412 0.16055
 C21 C 0.77980 0.28383 0.20057
 C22 C 0.76754 0.24872 0.22822
 C23 C 0.78836 0.21364 0.21317
 C24 C 0.81862 0.21319 0.17008
 C25 C 0.73392 0.24879 0.27301
 C26 C 0.71273 0.21384 0.28778
 C27 C 0.68329 0.21292 0.33241
 C28 C 0.67317 0.24854 0.35956
 C29 C 0.69085 0.28412 0.34229
 C30 C 0.72249 0.28379 0.30133
 H31 H 0.85490 0.24848 0.11271
 H32 H 0.76434 0.31129 0.20919
 H33 H 0.78140 0.18632 0.23444
 H34 H 0.71994 0.18713 0.26545
 H35 H 0.64911 0.24917 0.39182
 H36 H 0.73804 0.31117 0.29250
 C37 C 0.67102 0.74969 0.64283
 C38 C 0.68958 0.71448 0.65993
 C39 C 0.72189 0.71554 0.70003
 C40 C 0.73316 0.75081 0.72799
 C41 C 0.71222 0.78565 0.71195
 C42 C 0.68207 0.78540 0.66838
 C43 C 0.76583 0.75075 0.77423
 C44 C 0.78724 0.78542 0.78989
 C45 C 0.81674 0.78557 0.83479
 C46 C 0.82635 0.74954 0.86138
 C47 C 0.80789 0.71442 0.84374
 C48 C 0.77622 0.71558 0.80287
 H49 H 0.64625 0.74907 0.61147
 H50 H 0.73798 0.68840 0.70870
 H51 H 0.71902 0.81316 0.73286
 H52 H 0.78026 0.81234 0.76787
 H53 H 0.85052 0.74818 0.89355
 H54 H 0.75993 0.68857 0.79412
 C55 C 0.32813 0.75075 0.64031
 C56 C 0.30912 0.78607 0.65594
 C57 C 0.27668 0.78539 0.69579
 C58 C 0.26543 0.75034 0.72426
 C59 C 0.28693 0.71552 0.70991
 C60 C 0.31742 0.71538 0.66705
 C61 C 0.23223 0.75038 0.76947
 C62 C 0.21059 0.71564 0.78387
 C63 C 0.18117 0.71493 0.82862
 C64 C 0.17189 0.75056 0.85646
 C65 C 0.19039 0.78591 0.83980
 C66 C 0.22178 0.78530 0.79856
 H67 H 0.35303 0.75106 0.60927
 H68 H 0.26040 0.81252 0.70389
 H69 H 0.28030 0.68830 0.73171
 H70 H 0.21747 0.68901 0.76105
 H71 H 0.14796 0.75146 0.88888
 H72 H 0.23798 0.81241 0.79003
 O73 O 1.04483 -0.04772 0.03424
 O74 O 0.96150 0.02200 0.06810
 O75 O 0.96497 -0.05056 0.02991
 O76 O 1.04147 0.02557 0.06822
 O77 O 1.04092 0.04644 -0.02130
 O78 O 0.96467 -0.02929 -0.05939
 O79 O 0.96147 0.04288 -0.02141
 O80 O 1.04521 -0.02691 -0.05528
 Cu81 Cu 1.00315 -0.01481 0.05906
 Cu82 Cu 1.00314 0.01023 -0.04839
 C83 C 1.05876 -0.04972 -0.01644
 C84 C 0.94797 0.04499 0.02958
 C85 C 0.95227 -0.05323 -0.02150
 C86 C 1.05337 0.04966 0.03006
 O87 O 0.46083 0.47146 0.44416
 O88 O 0.54233 0.54389 0.47444
 O89 O 0.54171 0.47020 0.44342
 O90 O 0.46260 0.54432 0.47888
 O91 O 0.46391 0.52500 0.56910
 O92 O 0.54248 0.45073 0.53357
 O93 O 0.54420 0.52450 0.56462
 O94 O 0.46223 0.45184 0.53424
 Cu95 Cu 0.50171 0.50923 0.45111
 Cu96 Cu 0.50333 0.48607 0.55942
 C97 C 0.44784 0.44908 0.48371
 C98 C 0.55666 0.54707 0.52485
 C99 C 0.55532 0.44758 0.48245
 C100 C 0.45033 0.54775 0.53030
 O101 O -0.04276 0.54450 0.02681
 O102 O 0.04066 0.47360 0.05499
 O103 O 0.03660 0.54682 0.02020
 O104 O -0.04019 0.47096 0.05749
 O105 O -0.04182 0.45173 -0.03275
 O106 O 0.03550 0.52690 -0.06975
 O107 O 0.03828 0.45369 -0.03490
 O108 O -0.04483 0.52548 -0.06353
 Cu109 Cu -0.00107 0.51069 0.04901
 Cu110 Cu -0.00336 0.48753 -0.05927
 C111 C -0.05749 0.54763 -0.02338
 C112 C 0.05327 0.45113 0.01531
 C113 C 0.04845 0.55032 -0.03141
 C114 C -0.05396 0.44828 0.01866
 O115 O 0.45726 0.95287 0.46537
 O116 O 0.53887 1.02487 0.43329
 O117 O 0.53741 0.95243 0.47095
 O118 O 0.45884 1.02632 0.43132
 O119 O 0.45764 1.04695 0.52094
 O120 O 0.53560 0.97322 0.56043
 O121 O 0.53686 1.04586 0.52271
 O122 O 0.45504 0.97374 0.55480
 Cu123 Cu 0.49825 0.98693 0.44131
 Cu124 Cu 0.49614 1.01180 0.54881
 C125 C 0.44260 0.95063 0.51565
 C126 C 0.55092 1.04839 0.47205
 C127 C 0.54951 0.94994 0.52265
 C128 C 0.44581 1.05001 0.46929
 C129 C 1.12296 0.14875 0.08055
 C130 C 1.11995 0.11597 0.11650
 N131 N 1.13801 0.11701 0.16893
 C132 C 1.15897 0.14936 0.18724
 C133 C 1.16142 0.18305 0.15175
 N134 N 1.14300 0.18130 0.09916
 N135 N 1.10543 0.14775 0.02778
 C136 C 1.08444 0.11550 0.00954
 C137 C 1.08008 0.08294 0.04618
 N138 N 1.09817 0.08399 0.09894
 H139 H 1.17159 0.14883 0.23002
 H140 H 1.07019 0.11585 -0.03243
 C141 C 0.63471 0.64203 0.56817
 C142 C 0.62912 0.61058 0.60624
 N143 N 0.64634 0.61225 0.65920
 C144 C 0.66823 0.64429 0.67632
 C145 C 0.67242 0.67668 0.63919
 N146 N 0.65568 0.67443 0.58570
 N147 N 0.61730 0.64050 0.51532
 C148 C 0.59380 0.60927 0.49916
 C149 C 0.58656 0.57847 0.53810
 N150 N 0.60484 0.57980 0.59067
 H151 H 0.68028 0.64523 0.71955
 H152 H 0.57964 0.60928 0.45713
 C153 C -0.13201 0.35433 0.06655
 C154 C -0.12561 0.38620 0.10360
 N155 N -0.14260 0.38560 0.15668
 C156 C -0.16506 0.35419 0.17488
 C157 C -0.17010 0.32139 0.13876
 N158 N -0.15356 0.32260 0.08515
 N159 N -0.11495 0.35481 0.01353
 C160 C -0.09113 0.38548 -0.00387
 C161 C -0.08323 0.41680 0.03394
 N162 N -0.10105 0.41646 0.08677
 H163 H -0.17694 0.35406 0.21816
 H164 H -0.07740 0.38474 -0.04609
 C165 C 0.36385 0.85689 0.56169
 C166 C 0.36939 0.88903 0.59852
 N167 N 0.35198 0.88840 0.65134
 C168 C 0.33001 0.85670 0.66955
 C169 C 0.32597 0.82360 0.63376
 N170 N 0.34283 0.82485 0.58034
 N171 N 0.38146 0.85736 0.50902
 C172 C 0.40515 0.88819 0.49187
 C173 C 0.41239 0.91968 0.52965
 N174 N 0.39386 0.91941 0.58201
 H175 H 0.31784 0.85657 0.71267
 H176 H 0.41949 0.88734 0.45005
 C177 C -0.13719 0.64168 -0.06499
 C178 C -0.13123 0.61055 -0.10348
 N179 N -0.14846 0.61237 -0.15641
 C180 C -0.17065 0.64433 -0.17314
 C181 C -0.17513 0.67647 -0.13563
 N182 N -0.15844 0.67401 -0.08212
 N183 N -0.11969 0.64002 -0.01220
 C184 C -0.09571 0.60899 0.00346
 C185 C -0.08805 0.57858 -0.03595
 N186 N -0.10647 0.58000 -0.08841
 H187 H -0.18261 0.64543 -0.21641
 H188 H -0.08146 0.60892 0.04544
 C189 C 0.37548 1.14830 0.41778
 C190 C 0.37912 1.11561 0.38178
 N191 N 0.36157 1.11664 0.32899
 C192 C 0.34060 1.14893 0.31037
 C193 C 0.33775 1.18257 0.34585
 N194 N 0.35554 1.18079 0.39882
 N195 N 0.39243 1.14735 0.47089
 C196 C 0.41350 1.11526 0.48944
 C197 C 0.41862 1.08284 0.45275
 N198 N 0.40107 1.08380 0.39963
 H199 H 0.32837 1.14844 0.26737
 H200 H 0.42732 1.11568 0.53168
 C201 C 1.13768 -0.14286 -0.06436
 C202 C 1.13092 -0.11106 -0.10146
 N203 N 1.14698 -0.11200 -0.15507
 C204 C 1.16874 -0.14368 -0.17379
 C205 C 1.17394 -0.17648 -0.13767
 N206 N 1.15846 -0.17492 -0.08347
 N207 N 1.12140 -0.14209 -0.01089
 C208 C 1.09782 -0.11134 0.00681
 C209 C 1.08927 -0.08026 -0.03118
 N210 N 1.10652 -0.08078 -0.08437
 H211 H 1.17979 -0.14407 -0.21748
 H212 H 1.08451 -0.11201 0.04928
 C213 C 0.63492 0.35449 0.43596
 C214 C 0.62817 0.38611 0.39857
 N215 N 0.64516 0.38542 0.34550
 C216 C 0.66791 0.35412 0.32760
 C217 C 0.67325 0.32151 0.36403
 N218 N 0.65676 0.32285 0.41767
 N219 N 0.61777 0.35503 0.48893
 C220 C 0.59349 0.38547 0.50591
 C221 C 0.58520 0.41650 0.46773
 N222 N 0.60316 0.41614 0.41499
 H223 H 0.67968 0.35389 0.28427
 H224 H 0.57969 0.38475 0.54808
 C225 C 0.87821 -0.14870 -0.07473
 C226 C 0.88141 -0.11495 -0.10862
 N227 N 0.86203 -0.11385 -0.16019
 C228 C 0.83974 -0.14507 -0.17973
 C229 C 0.83738 -0.17986 -0.14662
 N230 N 0.85689 -0.18012 -0.09468
 N231 N 0.89709 -0.14986 -0.02282
 C232 C 0.91965 -0.11884 -0.00353
 C233 C 0.92424 -0.08538 -0.03826
 N234 N 0.90474 -0.08425 -0.09008
 H235 H 0.82607 -0.14283 -0.22177
 H236 H 0.93493 -0.12086 0.03764
 C237 C 0.36612 0.35759 0.43719
 C238 C 0.37216 0.38994 0.40099
 N239 N 0.35419 0.39032 0.34844
 C240 C 0.33121 0.35936 0.32979
 C241 C 0.32668 0.32594 0.36481
 N242 N 0.34406 0.32626 0.41808
 N243 N 0.38441 0.35705 0.48957
 C244 C 0.40922 0.38708 0.50696
 C245 C 0.41689 0.41873 0.46973
 N246 N 0.39770 0.41947 0.41774
 H247 H 0.31875 0.36002 0.28678
 H248 H 0.42404 0.38546 0.54849
 C249 C 0.12088 0.64734 -0.08262
 C250 C 0.11740 0.61424 -0.11782
 N251 N 0.13601 0.61427 -0.16983
 C252 C 0.15786 0.64598 -0.18851
 C253 C 0.16061 0.68008 -0.15396
 N254 N 0.14177 0.67927 -0.10167
 N255 N 0.10282 0.64734 -0.03024
 C256 C 0.08083 0.61578 -0.01170
 C257 C 0.07598 0.58294 -0.04766
 N258 N 0.09462 0.58299 -0.09999
 H259 H 0.17091 0.64467 -0.23095
 H260 H 0.06619 0.61689 0.02991
 C261 C 0.62442 1.14480 0.42205
 C262 C 0.62122 1.11161 0.38700
 N263 N 0.63973 1.11169 0.33493
 C264 C 0.66116 1.14357 0.31600
 C265 C 0.66346 1.17782 0.35030
 N266 N 0.64483 1.17693 0.40272
 N267 N 0.60628 1.14480 0.47439
 C268 C 0.58434 1.11321 0.49290
 C269 C 0.57955 1.08038 0.45691
 N270 N 0.59842 1.08038 0.40475
 H271 H 0.67407 1.14229 0.27348
 H272 H 0.56946 1.11440 0.53435
 C273 C 0.13431 0.35886 0.06076
 C274 C 0.12868 0.39114 0.09723
 N275 N 0.14667 0.39111 0.14976
 C276 C 0.16929 0.35984 0.16812
 C277 C 0.17342 0.32651 0.13281
 N278 N 0.15599 0.32721 0.07958
 N279 N 0.11600 0.35874 0.00840
 C280 C 0.09154 0.38910 -0.00871
 C281 C 0.08423 0.42068 0.02881
 N282 N 0.10346 0.42101 0.08078
 H283 H 0.18180 0.36019 0.21111
 H284 H 0.07665 0.38778 -0.05020
 C285 C 0.62719 0.85665 0.57474
 C286 C 0.61541 0.88593 0.61362
 N287 N 0.62711 0.88295 0.66934
 C288 C 0.64975 0.85174 0.68810
 C289 C 0.66078 0.82177 0.64948
 N290 N 0.64922 0.82530 0.59356
 N291 N 0.61531 0.85937 0.51913
 C292 C 0.59161 0.88986 0.50067
 C293 C 0.57869 0.91877 0.53979
 N294 N 0.59125 0.91613 0.59543
 H295 H 0.65765 0.84975 0.73303
 H296 H 0.58212 0.89091 0.45624
 C297 C 0.87096 0.13932 0.07832
 C298 C 0.88276 0.11065 0.11824
 N299 N 0.87199 0.11499 0.17405
 C300 C 0.85025 0.14695 0.19190
 C301 C 0.83923 0.17631 0.15222
 N302 N 0.84984 0.17147 0.09622
 N303 N 0.88202 0.13527 0.02263
 C304 C 0.90507 0.10411 0.00511
 C305 C 0.91820 0.07592 0.04530
 N306 N 0.90632 0.07983 0.10099
 H307 H 0.84304 0.15000 0.23689
 H308 H 0.91412 0.10211 -0.03938
 C309 C 0.37303 0.64243 0.57741
 C310 C 0.38469 0.61399 0.61776
 N311 N 0.37291 0.61821 0.67319
 C312 C 0.35024 0.64981 0.69025
 C313 C 0.33921 0.67888 0.65011
 N314 N 0.35093 0.67417 0.59451
 N315 N 0.38496 0.63845 0.52205
 C316 C 0.40858 0.60750 0.50524
 C317 C 0.42132 0.57940 0.54580
 N318 N 0.40875 0.58332 0.60120
 H319 H 0.34222 0.65277 0.73498
 H320 H 0.41811 0.60543 0.46095
   
