data_POSCAR
  _audit_creation_date              2014-09-24
  _audit_creation_method            'ToBaCCo'
  _symmetry_space_group_name_H-M    'P1'
  _symmetry_Int_Tables_number       1
  _symmetry_cell_setting            triclinic
  loop_
  _symmetry_equiv_pos_as_xyz
 x,y,z
_cell_length_a 31.5251
_cell_length_b 31.5251
_cell_length_c 31.5251
_cell_angle_alpha 89.999200
_cell_angle_beta 89.999300
_cell_angle_gamma 90.001300
loop_
  _atom_site_label
  _atom_site_type_symbol
  _atom_site_fract_x
  _atom_site_fract_y
  _atom_site_fract_z
O1 O 0.55781 0.50004 0.03491
 O2 O 0.44083 0.50003 0.03491
 O3 O 0.49932 0.44167 0.03490
 O4 O 0.49932 0.55839 0.03490
 O5 O 0.49932 0.55838 -0.03526
 O6 O 0.49932 0.44168 -0.03526
 O7 O 0.44083 0.50003 -0.03523
 O8 O 0.55780 0.50004 -0.03524
 Cu9 Cu 0.49932 0.50003 0.04198
 Cu10 Cu 0.49931 0.50003 -0.04232
 C11 C 0.57756 0.50004 -0.00017
 C12 C 0.42107 0.50004 -0.00015
 C13 C 0.49933 0.42199 -0.00018
 C14 C 0.49932 0.57807 -0.00018
 O15 O -0.03498 0.55918 0.50002
 O16 O -0.03497 0.44221 0.50002
 O17 O -0.03495 0.50069 0.55837
 O18 O -0.03496 0.50069 0.44166
 O19 O 0.03520 0.50070 0.44166
 O20 O 0.03521 0.50070 0.55836
 O21 O 0.03518 0.44221 0.50001
 O22 O 0.03516 0.55919 0.50001
 Cu23 Cu -0.04204 0.50069 0.50001
 Cu24 Cu 0.04226 0.50070 0.50001
 C25 C 0.00009 0.57895 0.50002
 C26 C 0.00010 0.42246 0.50002
 C27 C 0.00013 0.50069 0.57805
 C28 C 0.00012 0.50069 0.42197
 O29 O 0.50003 0.03487 0.55919
 O30 O 0.50004 0.03488 0.44222
 O31 O 0.44169 0.03487 0.50070
 O32 O 0.55840 0.03486 0.50070
 O33 O 0.55839 -0.03530 0.50070
 O34 O 0.44169 -0.03529 0.50070
 O35 O 0.50003 -0.03527 0.44222
 O36 O 0.50003 -0.03527 0.55919
 Cu37 Cu 0.50004 0.04195 0.50071
 Cu38 Cu 0.50004 -0.04236 0.50071
 C39 C 0.50002 -0.00020 0.57896
 C40 C 0.50002 -0.00020 0.42247
 C41 C 0.42200 -0.00021 0.50069
 C42 C 0.57808 -0.00022 0.50070
 O43 O 0.46459 0.00003 -0.05900
 O44 O 0.46459 0.00003 0.05798
 O45 O 0.46458 0.05838 -0.00051
 O46 O 0.46457 -0.05832 -0.00051
 O47 O 0.53473 -0.05833 -0.00051
 O48 O 0.53473 0.05839 -0.00051
 O49 O 0.53474 0.00002 0.05797
 O50 O 0.53473 0.00003 -0.05900
 Cu51 Cu 0.45750 0.00003 -0.00051
 Cu52 Cu 0.54181 0.00003 -0.00051
 C53 C 0.49966 0.00002 -0.07875
 C54 C 0.49966 0.00002 0.07773
 C55 C 0.49965 0.07807 -0.00050
 C56 C 0.49965 -0.07801 -0.00050
 O57 O -0.05796 0.53538 1.00001
 O58 O 0.05903 0.53538 1.00001
 O59 O 0.00052 0.53541 0.94166
 O60 O 0.00053 0.53540 1.05836
 O61 O 0.00053 0.46524 1.05837
 O62 O 0.00052 0.46525 0.94165
 O63 O 0.05902 0.46523 1.00000
 O64 O -0.05795 0.46523 1.00001
 Cu65 Cu 0.00053 0.54247 1.00001
 Cu66 Cu 0.00053 0.45816 1.00001
 C67 C -0.07770 0.50030 1.00001
 C68 C 0.07878 0.50030 1.00000
 C69 C 0.00051 0.50033 0.92197
 C70 C 0.00052 0.50032 1.07805
 O71 O 0.00004 -0.05901 0.46522
 O72 O 0.00005 0.05797 0.46522
 O73 O 0.05840 -0.00052 0.46523
 O74 O -0.05831 -0.00051 0.46523
 O75 O -0.05831 -0.00051 0.53539
 O76 O 0.05839 -0.00052 0.53539
 O77 O 0.00005 0.05797 0.53537
 O78 O 0.00004 -0.05901 0.53536
 Cu79 Cu 0.00004 -0.00052 0.45814
 Cu80 Cu 0.00004 -0.00052 0.54245
 C81 C 0.00003 -0.07876 0.50029
 C82 C 0.00005 0.07772 0.50029
 C83 C 0.07809 -0.00051 0.50031
 C84 C -0.07800 -0.00050 0.50031
 C85 C -0.29302 0.50014 0.99988
 N86 N -0.27118 0.46306 0.99963
 N87 N -0.22889 0.46311 0.99966
 C88 C -0.20713 0.50023 0.99994
 N89 N -0.22897 0.53731 1.00019
 N90 N -0.27126 0.53726 1.00016
 C91 C -0.33860 0.50009 0.99984
 C92 C -0.37688 0.50006 0.99983
 C93 C -0.16155 0.50027 0.99997
 C94 C -0.12327 0.50029 1.00000
 C95 C 0.29409 0.50013 0.99991
 N96 N 0.27225 0.46305 0.99992
 N97 N 0.22996 0.46310 0.99994
 C98 C 0.20820 0.50023 0.99995
 N99 N 0.23005 0.53730 0.99994
 N100 N 0.27234 0.53726 0.99992
 C101 C 0.33968 0.50008 0.99986
 C102 C 0.37796 0.50005 0.99985
 C103 C 0.16262 0.50027 0.99997
 C104 C 0.12434 0.50029 0.99999
 C105 C 0.00007 -0.29408 0.50012
 N106 N -0.03703 -0.27229 0.50015
 N107 N -0.03705 -0.23000 0.50020
 C108 C 0.00005 -0.20819 0.50022
 N109 N 0.03715 -0.22998 0.50020
 N110 N 0.03717 -0.27227 0.50015
 C111 C 0.00008 -0.33966 0.50006
 C112 C 0.00008 -0.37795 0.50003
 C113 C 0.00003 -0.16261 0.50026
 C114 C 0.00003 -0.12433 0.50028
 C115 C 0.00008 0.29303 0.50012
 N116 N 0.03717 0.27123 0.50014
 N117 N 0.03716 0.22894 0.50019
 C118 C 0.00006 0.20714 0.50022
 N119 N -0.03704 0.22895 0.50019
 N120 N -0.03703 0.27124 0.50014
 C121 C 0.00008 0.33862 0.50006
 C122 C 0.00010 0.37689 0.50003
 C123 C 0.00005 0.16156 0.50027
 C124 C 0.00005 0.12328 0.50029
 C125 C 0.49988 -0.00014 -0.29407
 N126 N 0.49964 0.03698 -0.27230
 N127 N 0.49958 0.03702 -0.23001
 C128 C 0.49975 -0.00007 -0.20818
 N129 N 0.49998 -0.03718 -0.22995
 N130 N 0.50004 -0.03722 -0.27224
 C131 C 0.49994 -0.00018 -0.33965
 C132 C 0.49999 -0.00020 -0.37794
 C133 C 0.49969 -0.00003 -0.16260
 C134 C 0.49967 0.00000 -0.12432
 C135 C 0.49988 -0.00014 0.29304
 N136 N 0.49964 0.03698 0.27127
 N137 N 0.49958 0.03701 0.22898
 C138 C 0.49975 -0.00007 0.20715
 N139 N 0.49998 -0.03719 0.22892
 N140 N 0.50004 -0.03723 0.27121
 C141 C 0.49995 -0.00018 0.33862
 C142 C 0.49999 -0.00020 0.37690
 C143 C 0.49969 -0.00004 0.16157
 C144 C 0.49967 -0.00001 0.12329
 C145 C 0.49944 -0.29285 -0.00026
 N146 N 0.46235 -0.27105 -0.00029
 N147 N 0.46241 -0.22879 -0.00035
 C148 C 0.49955 -0.20709 -0.00038
 N149 N 0.53663 -0.22889 -0.00035
 N150 N 0.53658 -0.27115 -0.00030
 C151 C 0.49937 -0.33830 -0.00022
 C152 C 0.49935 -0.37650 -0.00019
 C153 C 0.49961 -0.16164 -0.00044
 C154 C 0.49964 -0.12344 -0.00047
 C155 C 0.49945 0.29291 -0.00027
 N156 N 0.53659 0.27121 -0.00030
 N157 N 0.53665 0.22895 -0.00035
 C158 C 0.49956 0.20715 -0.00038
 N159 N 0.46242 0.22885 -0.00035
 N160 N 0.46237 0.27111 -0.00030
 C161 C 0.49939 0.33836 -0.00023
 C162 C 0.49936 0.37656 -0.00020
 C163 C 0.49962 0.16170 -0.00044
 C164 C 0.49965 0.12350 -0.00047
 C165 C -0.29284 -0.00031 0.50055
 N166 N -0.27113 -0.03744 0.50025
 N167 N -0.22887 -0.03749 0.50017
 C168 C -0.20708 -0.00040 0.50040
 N169 N -0.22879 0.03673 0.50071
 N170 N -0.27105 0.03678 0.50078
 C171 C -0.33829 -0.00026 0.50062
 C172 C -0.37649 -0.00023 0.50066
 C173 C -0.16163 -0.00045 0.50035
 C174 C -0.12343 -0.00048 0.50032
 C175 C 0.29292 -0.00030 0.50054
 N176 N 0.27122 -0.03744 0.50051
 N177 N 0.22895 -0.03749 0.50043
 C178 C 0.20716 -0.00040 0.50040
 N179 N 0.22887 0.03673 0.50044
 N180 N 0.27113 0.03678 0.50051
 C181 C 0.33837 -0.00025 0.50062
 C182 C 0.37657 -0.00022 0.50066
 C183 C 0.16171 -0.00046 0.50034
 C184 C 0.12352 -0.00049 0.50032
 C185 C 0.00021 0.50055 1.29289
 N186 N 0.00005 0.53763 1.27109
 N187 N 0.00012 0.53757 1.22882
 C188 C 0.00036 0.50043 1.20713
 N189 N 0.00052 0.46335 1.22893
 N190 N 0.00045 0.46341 1.27120
 C191 C 0.00016 0.50061 1.33834
 C192 C 0.00013 0.50066 1.37654
 C193 C 0.00043 0.50037 1.16168
 C194 C 0.00048 0.50033 1.12348
 C195 C 0.00022 0.50055 0.70713
 N196 N 0.00005 0.53763 0.72893
 N197 N 0.00012 0.53758 0.77119
 C198 C 0.00035 0.50043 0.79289
 N199 N 0.00052 0.46335 0.77109
 N200 N 0.00045 0.46341 0.72883
 C201 C 0.00017 0.50061 0.66168
 C202 C 0.00014 0.50065 0.62348
 C203 C 0.00042 0.50038 0.83834
 C204 C 0.00047 0.50035 0.87654
   
