data_POSCAR
  _audit_creation_date              2014-09-24
  _audit_creation_method            'ToBaCCo'
  _symmetry_space_group_name_H-M    'P1'
  _symmetry_Int_Tables_number       1
  _symmetry_cell_setting            triclinic
  loop_
  _symmetry_equiv_pos_as_xyz
 x,y,z
_cell_length_a 33.2359
_cell_length_b 38.4367
_cell_length_c 33.6427
_cell_angle_alpha 90.017200
_cell_angle_beta 90.156300
_cell_angle_gamma 89.995900
loop_
  _atom_site_label
  _atom_site_type_symbol
  _atom_site_fract_x
  _atom_site_fract_y
  _atom_site_fract_z
C1 C 1.18610 0.26710 0.30403
 H2 H 1.17800 0.23995 0.30123
 C3 C 1.16256 0.28919 0.32739
 H4 H 1.13621 0.27908 0.34231
 C5 C 1.23034 0.31347 0.28846
 H6 H 1.25661 0.32300 0.27314
 C7 C 1.20854 0.33608 0.31262
 H8 H 1.21808 0.36291 0.31553
 N9 N 1.21887 0.27966 0.28448
 C10 C 1.23762 0.19818 0.19540
 H11 H 1.27000 0.19618 0.19687
 C12 C 1.21602 0.17576 0.17069
 H13 H 1.23208 0.15635 0.15362
 C14 C 1.17749 0.22601 0.21570
 H15 H 1.16257 0.24630 0.23219
 C16 C 1.15462 0.20366 0.19194
 H17 H 1.12222 0.20659 0.19111
 Zn18 Zn 1.25062 0.25026 0.25160
 N19 N 1.21817 0.22229 0.21786
 C20 C 1.31720 0.20714 0.26820
 N21 N 1.28290 0.22070 0.28371
 C22 C 1.27108 0.21273 0.32126
 C23 C 1.29365 0.18982 0.34456
 C24 C 1.34096 0.18437 0.29051
 C25 C 1.27005 0.28726 0.18247
 C26 C 1.29227 0.30972 0.15846
 C27 C 1.34269 0.31306 0.21022
 C28 C 1.31944 0.29058 0.23329
 N29 N 1.28380 0.27830 0.21916
 H30 H 1.32616 0.21393 0.23832
 H31 H 1.24380 0.22375 0.33317
 H32 H 1.28296 0.18385 0.37417
 H33 H 1.36796 0.17400 0.27697
 H34 H 1.24136 0.27750 0.17212
 H35 H 1.28046 0.31685 0.12956
 H36 H 1.37070 0.32291 0.22226
 H37 H 1.32940 0.28345 0.26281
 C38 C 1.17391 0.17795 0.16933
 C39 C 1.17400 0.32404 0.33196
 C40 C 1.32897 0.32320 0.17238
 C41 C 1.32920 0.17490 0.32932
 C42 C 0.71565 -0.22581 0.32221
 H43 H 0.73342 -0.24556 0.33674
 C44 C 0.69236 -0.20328 0.34529
 H45 H 0.69310 -0.20564 0.37736
 C46 C 0.69203 -0.19920 0.26314
 H47 H 0.69198 -0.19768 0.23110
 C48 C 0.66776 -0.17662 0.28499
 H49 H 0.64953 -0.15765 0.26940
 N50 N 0.71600 -0.22276 0.28189
 C51 C 0.73344 -0.29015 0.18060
 H52 H 0.76373 -0.28313 0.17212
 C53 C 0.71093 -0.31256 0.15656
 H54 H 0.72417 -0.32247 0.12946
 C55 C 0.68011 -0.28659 0.22705
 H56 H 0.66857 -0.27680 0.25492
 C57 C 0.65659 -0.30894 0.20397
 H58 H 0.62685 -0.31594 0.21432
 Zn59 Zn 0.75021 -0.25038 0.24927
 N60 N 0.71786 -0.27790 0.21522
 C61 C 0.78544 -0.31456 0.26972
 N62 N 0.78340 -0.28043 0.28034
 C63 C 0.80456 -0.26815 0.31214
 C64 C 0.82754 -0.29080 0.33552
 C65 C 0.80917 -0.33775 0.29135
 C66 C 0.76551 -0.20519 0.18540
 C67 C 0.78765 -0.18222 0.16192
 C68 C 0.84474 -0.19111 0.20529
 C69 C 0.82155 -0.21411 0.22780
 N70 N 0.78252 -0.22040 0.21785
 H71 H 0.76876 -0.32396 0.24433
 H72 H 0.80319 -0.24082 0.31969
 H73 H 0.84366 -0.28090 0.36115
 H74 H 0.81045 -0.36483 0.28249
 H75 H 0.73466 -0.21098 0.17759
 H76 H 0.77329 -0.17025 0.13644
 H77 H 0.87559 -0.18621 0.21404
 H78 H 0.83474 -0.22659 0.25345
 C79 C 0.67210 -0.32258 0.16840
 C80 C 0.66836 -0.17803 0.32666
 C81 C 0.82774 -0.17464 0.17196
 C82 C 0.83005 -0.32599 0.32494
 C83 C 0.69665 0.26779 -0.18757
 H84 H 0.69857 0.24045 -0.18021
 C85 C 0.67308 0.28994 -0.16425
 H86 H 0.65712 0.27965 -0.13880
 C87 C 0.71471 0.31466 -0.22964
 H88 H 0.73113 0.32440 -0.25494
 C89 C 0.69036 0.33735 -0.20807
 H90 H 0.68837 0.36442 -0.21684
 N91 N 0.71758 0.28055 -0.21914
 C92 C 0.73631 0.20565 -0.31445
 H93 H 0.76727 0.21121 -0.32187
 C94 C 0.71416 0.18273 -0.33814
 H95 H 0.72863 0.17051 -0.36333
 C96 C 0.67993 0.21525 -0.27300
 H97 H 0.66658 0.22796 -0.24766
 C98 C 0.65673 0.19231 -0.29572
 H99 H 0.62573 0.18771 -0.28743
 Zn100 Zn 0.75125 0.25112 -0.25035
 N101 N 0.71914 0.22117 -0.28234
 C102 C 0.81002 0.20024 -0.23649
 N103 N 0.78574 0.22352 -0.21778
 C104 C 0.78601 0.22640 -0.17743
 C105 C 0.80940 0.20390 -0.15432
 C106 C 0.83441 0.17768 -0.21459
 C107 C 0.76851 0.29078 -0.31894
 C108 C 0.79081 0.31364 -0.34245
 C109 C 0.84371 0.31221 -0.29300
 C110 C 0.82033 0.28936 -0.27054
 N111 N 0.78343 0.27933 -0.28365
 H112 H 0.81022 0.19889 -0.26853
 H113 H 0.76808 0.24599 -0.16290
 H114 H 0.80854 0.20610 -0.12224
 H115 H 0.85284 0.15889 -0.23016
 H116 H 0.73882 0.28272 -0.32844
 H117 H 0.77769 0.32254 -0.37015
 H118 H 0.87277 0.31994 -0.28130
 H119 H 0.83134 0.28016 -0.24215
 C120 C 0.67388 0.17551 -0.32867
 C121 C 0.66970 0.32509 -0.17469
 C122 C 0.82898 0.32525 -0.32948
 C123 C 0.83363 0.17885 -0.17291
 C124 C 1.18599 -0.23173 -0.19834
 H125 H 1.17831 -0.25903 -0.20025
 C126 C 1.16277 -0.20950 -0.17488
 H127 H 1.13697 -0.21962 -0.15903
 C128 C 1.22918 -0.18518 -0.21603
 H129 H 1.25499 -0.17569 -0.23215
 C130 C 1.20772 -0.16240 -0.19179
 H131 H 1.21697 -0.13545 -0.18961
 N132 N 1.21808 -0.21917 -0.21896
 C133 C 1.23593 -0.30022 -0.30880
 H134 H 1.26834 -0.30176 -0.30858
 C135 C 1.21392 -0.32260 -0.33320
 H136 H 1.22975 -0.34154 -0.35115
 C137 C 1.17604 -0.27351 -0.28608
 H138 H 1.16129 -0.25366 -0.26879
 C139 C 1.15279 -0.29584 -0.30949
 H140 H 1.12034 -0.29334 -0.30921
 Zn141 Zn 1.24960 -0.24890 -0.25152
 N142 N 1.21683 -0.27675 -0.28520
 C143 C 1.31413 -0.29435 -0.23542
 N144 N 1.28172 -0.27825 -0.21904
 C145 C 1.27212 -0.28311 -0.18014
 C146 C 1.29481 -0.30560 -0.15645
 C147 C 1.33782 -0.31686 -0.21274
 C148 C 1.26906 -0.21129 -0.32008
 C149 C 1.29179 -0.18920 -0.34406
 C150 C 1.34329 -0.18830 -0.29320
 C151 C 1.31954 -0.21042 -0.27018
 N152 N 1.28314 -0.22130 -0.28389
 H153 H 1.32181 -0.28957 -0.26613
 H154 H 1.24659 -0.26989 -0.16741
 H155 H 1.28628 -0.30938 -0.12572
 H156 H 1.36325 -0.32960 -0.22656
 H157 H 1.23978 -0.21998 -0.33005
 H158 H 1.27974 -0.18122 -0.37256
 H159 H 1.37194 -0.17957 -0.28150
 H160 H 1.32976 -0.21838 -0.24102
 C161 C 1.17176 -0.32101 -0.33310
 C162 C 1.17389 -0.17450 -0.17134
 C163 C 1.32931 -0.17713 -0.33055
 C164 C 1.32801 -0.32303 -0.17278
 C165 C 0.26441 0.19964 0.69145
 H166 H 0.23189 0.19841 0.69156
 C167 C 0.28633 0.17732 0.66698
 H168 H 0.27035 0.15891 0.64836
 C169 C 0.32448 0.22490 0.71616
 H170 H 0.33933 0.24395 0.73461
 C171 C 0.34764 0.20259 0.69264
 H172 H 0.38014 0.20444 0.69376
 N173 N 0.28362 0.22234 0.71602
 C174 C 0.18692 0.22916 0.80271
 H175 H 0.17770 0.25607 0.80051
 C176 C 0.16417 0.20588 0.82533
 H177 H 0.13723 0.21523 0.83990
 C178 C 0.23379 0.18487 0.78717
 H179 H 0.26106 0.17680 0.77237
 C180 C 0.21310 0.16117 0.81096
 H181 H 0.22471 0.13493 0.81355
 Zn182 Zn 0.24955 0.24884 0.74978
 N183 N 0.22008 0.21799 0.78283
 C184 C 0.17460 0.27273 0.71563
 N185 N 0.21544 0.27552 0.71605
 C186 C 0.23463 0.29863 0.69208
 C187 C 0.21268 0.32135 0.66802
 C188 C 0.15140 0.29542 0.69253
 C189 C 0.31140 0.26750 0.80428
 C190 C 0.33417 0.29032 0.82765
 C191 C 0.28755 0.33630 0.81097
 C192 C 0.26657 0.31297 0.78681
 N193 N 0.27914 0.27941 0.78328
 H194 H 0.15975 0.25319 0.73330
 H195 H 0.26714 0.29998 0.69250
 H196 H 0.22863 0.34015 0.65000
 H197 H 0.11891 0.29342 0.69329
 H198 H 0.31984 0.24037 0.80240
 H199 H 0.36044 0.28081 0.84336
 H200 H 0.27736 0.36300 0.81323
 H201 H 0.24002 0.32169 0.77111
 C202 C 0.17710 0.17120 0.82969
 C203 C 0.32854 0.17813 0.66797
 C204 C 0.32220 0.32516 0.83103
 C205 C 0.17048 0.32043 0.66874
 C206 C 0.77356 0.71863 0.68042
 H207 H 0.75053 0.73433 0.66665
 C208 C 0.79640 0.69615 0.65688
 H209 H 0.79043 0.69482 0.62526
 C210 C 0.80950 0.70135 0.73797
 H211 H 0.81489 0.70376 0.76951
 C212 C 0.83335 0.67887 0.71550
 H213 H 0.85644 0.66376 0.73030
 N214 N 0.78001 0.72048 0.72034
 C215 C 0.67403 0.72132 0.78291
 H216 H 0.65888 0.73831 0.76231
 C217 C 0.65116 0.69837 0.80578
 H218 H 0.61885 0.69789 0.80158
 C219 C 0.73390 0.70213 0.81409
 H220 H 0.76613 0.70389 0.81750
 C221 C 0.71217 0.67941 0.83826
 H222 H 0.72844 0.66364 0.85959
 Zn223 Zn 0.74767 0.74994 0.75265
 N224 N 0.71484 0.72195 0.78636
 C225 C 0.68571 0.76715 0.69673
 N226 N 0.71613 0.77982 0.71980
 C227 C 0.72584 0.81422 0.71919
 C228 C 0.70453 0.83732 0.69508
 C229 C 0.66262 0.78962 0.67327
 C230 C 0.76519 0.79178 0.81866
 C231 C 0.78792 0.81427 0.84234
 C232 C 0.84328 0.80767 0.79654
 C233 C 0.81952 0.78519 0.77380
 N234 N 0.78121 0.77783 0.78512
 H235 H 0.67935 0.73955 0.69649
 H236 H 0.75049 0.82384 0.73705
 H237 H 0.71271 0.86460 0.69477
 H238 H 0.63815 0.77938 0.65545
 H239 H 0.73446 0.78581 0.82668
 H240 H 0.77436 0.82537 0.86868
 H241 H 0.87352 0.81354 0.78672
 H242 H 0.83135 0.77427 0.74662
 C243 C 0.67020 0.67652 0.83362
 C244 C 0.82665 0.67576 0.67443
 C245 C 0.82743 0.82277 0.83120
 C246 C 0.67227 0.82506 0.67224
 C247 C 0.76509 0.20190 0.18965
 H248 H 0.73256 0.20101 0.18897
 C249 C 0.78729 0.18001 0.16495
 H250 H 0.77152 0.16224 0.14539
 C251 C 0.82490 0.22592 0.21657
 H252 H 0.83954 0.24431 0.23603
 C253 C 0.84832 0.20404 0.19283
 H254 H 0.88080 0.20554 0.19477
 N255 N 0.78404 0.22371 0.21542
 C256 C 0.68921 0.23183 0.30406
 H257 H 0.68208 0.25928 0.30316
 C258 C 0.66615 0.20937 0.32737
 H259 H 0.64096 0.21947 0.34416
 C260 C 0.73108 0.18515 0.28386
 H261 H 0.75660 0.17585 0.26711
 C262 C 0.70981 0.16208 0.30792
 H263 H 0.71869 0.13499 0.30914
 Zn264 Zn 0.74983 0.24983 0.24916
 N265 N 0.72011 0.21921 0.28184
 C266 C 0.67491 0.27396 0.21630
 N267 N 0.71576 0.27646 0.21571
 C268 C 0.73469 0.29886 0.19072
 C269 C 0.71246 0.32101 0.16627
 C270 C 0.65146 0.29609 0.19283
 C271 C 0.81007 0.26713 0.30527
 C272 C 0.83261 0.28927 0.32962
 C273 C 0.78844 0.33654 0.31111
 C274 C 0.76769 0.31383 0.28602
 N275 N 0.77917 0.27995 0.28304
 H276 H 0.66030 0.25509 0.23508
 H277 H 0.76722 0.29997 0.19047
 H278 H 0.72818 0.33922 0.14729
 H279 H 0.61898 0.29432 0.19429
 H280 H 0.81758 0.23979 0.30363
 H281 H 0.85784 0.27904 0.34637
 H282 H 0.77919 0.36351 0.31299
 H283 H 0.74217 0.32326 0.26925
 C284 C 0.67653 0.17410 0.32935
 C285 C 0.82947 0.18041 0.16696
 C286 C 0.82172 0.32438 0.33261
 C287 C 0.67028 0.32025 0.16774
 C288 C 0.27083 0.71417 0.18259
 H289 H 0.24292 0.72479 0.17132
 C290 C 0.29367 0.69192 0.15877
 H291 H 0.28316 0.68592 0.12906
 C292 C 0.31746 0.70816 0.23555
 H293 H 0.32616 0.71425 0.26576
 C294 C 0.34129 0.68590 0.21273
 H295 H 0.36839 0.67511 0.22570
 N296 N 0.28299 0.72174 0.22023
 C297 C 0.19323 0.73165 0.31425
 H298 H 0.19264 0.75921 0.32071
 C299 C 0.16981 0.70882 0.33685
 H300 H 0.15173 0.71879 0.36105
 C301 C 0.21654 0.68496 0.27448
 H302 H 0.23480 0.67558 0.25024
 C303 C 0.19246 0.66152 0.29530
 H304 H 0.19261 0.63426 0.28712
 Zn305 Zn 0.25026 0.74950 0.25362
 N306 N 0.21679 0.71934 0.28427
 C307 C 0.17762 0.78211 0.22781
 N308 N 0.21797 0.77946 0.22166
 C309 C 0.23634 0.79830 0.19269
 C310 C 0.21422 0.82120 0.16899
 C311 C 0.15439 0.80506 0.20509
 C312 C 0.28034 0.77892 0.32655
 C313 C 0.30355 0.80202 0.34908
 C314 C 0.33799 0.81911 0.28910
 C315 C 0.31341 0.79630 0.26771
 N316 N 0.28459 0.77732 0.28638
 H317 H 0.16330 0.76669 0.25053
 H318 H 0.26823 0.79533 0.18765
 H319 H 0.22963 0.83602 0.14630
 H320 H 0.12242 0.80703 0.21076
 H321 H 0.25871 0.76269 0.34144
 H322 H 0.29850 0.80316 0.38085
 H323 H 0.36018 0.83407 0.27291
 H324 H 0.31735 0.79384 0.23599
 C325 C 0.16925 0.67336 0.32720
 C326 C 0.32931 0.67724 0.17386
 C327 C 0.33263 0.82314 0.33043
 C328 C 0.17272 0.82509 0.17529
 N329 N 1.07290 0.03657 0.04316
 N330 N 1.10031 0.06066 0.05012
 N331 N 1.04366 -0.03577 0.07183
 N332 N 1.05081 -0.05958 0.09927
 N333 N 1.07173 -0.03639 0.04444
 N334 N 1.09882 -0.06048 0.05258
 N335 N 1.04463 0.03751 0.07034
 N336 N 1.05184 0.06247 0.09635
 C337 C 1.08652 0.07678 0.08314
 C338 C 1.08514 -0.07495 0.08662
 N339 N 0.92896 -0.03479 0.04350
 N340 N 0.90158 -0.05877 0.05098
 N341 N 0.95799 0.03852 0.06984
 N342 N 0.95109 0.06353 0.09587
 N343 N 0.93000 0.03822 0.04222
 N344 N 0.90318 0.06284 0.04880
 N345 N 0.95688 -0.03472 0.07121
 N346 N 0.94933 -0.05874 0.09823
 Mn347 Mn 1.00078 0.00139 0.07124
 C348 C 0.91492 -0.07365 0.08502
 C349 C 0.91697 0.07859 0.08211
 N350 N 1.07214 -0.03735 -0.04130
 N351 N 1.09959 -0.06127 -0.04864
 N352 N 1.04513 0.03587 -0.06992
 N353 N 1.05292 0.05995 -0.09685
 N354 N 1.07343 0.03530 -0.04259
 N355 N 1.10164 0.05838 -0.05061
 N356 N 1.04399 -0.03768 -0.06877
 N357 N 1.05116 -0.06230 -0.09520
 Mn358 Mn 1.07290 -0.00048 0.00095
 C359 C 1.08574 -0.07691 -0.08198
 C360 C 1.08806 0.07391 -0.08410
 N361 N 0.93046 0.03735 -0.04339
 N362 N 0.90417 0.06227 -0.05097
 N363 N 0.95741 -0.03659 -0.06962
 N364 N 0.94994 -0.06117 -0.09605
 N365 N 0.92927 -0.03590 -0.04231
 N366 N 0.90183 -0.05997 -0.04944
 N367 N 0.95841 0.03647 -0.07089
 N368 N 0.95175 0.06054 -0.09808
 Mn369 Mn 0.92925 0.00121 -0.00000
 Mn370 Mn 1.00126 -0.00048 -0.07023
 Cl371 Cl 1.00103 0.00039 0.00049
 C372 C 0.91805 0.07661 -0.08504
 C373 C 0.91536 -0.07568 -0.08285
 N374 N 1.07005 0.53673 0.54292
 N375 N 1.09711 0.56122 0.54931
 N376 N 1.04222 0.46373 0.57219
 N377 N 1.04919 0.43900 0.59862
 N378 N 1.07031 0.46383 0.54481
 N379 N 1.09719 0.43934 0.55187
 N380 N 1.04245 0.53710 0.57075
 N381 N 1.04969 0.56217 0.59663
 C382 C 1.08374 0.57706 0.58266
 C383 C 1.08347 0.42393 0.58533
 N384 N 0.92668 0.46483 0.54537
 N385 N 0.89947 0.44069 0.55283
 N386 N 0.95607 0.53755 0.57134
 N387 N 0.94864 0.56145 0.59851
 N388 N 0.92831 0.53800 0.54349
 N389 N 0.90121 0.56225 0.55099
 N390 N 0.95509 0.46449 0.57259
 N391 N 0.94791 0.44021 0.59940
 Mn392 Mn 0.99899 0.50062 0.57216
 C393 C 0.91328 0.42544 0.58647
 C394 C 0.91461 0.57687 0.58518
 N395 N 1.07000 0.46190 0.45945
 N396 N 1.09802 0.43842 0.45235
 N397 N 1.04191 0.53315 0.42893
 N398 N 1.04908 0.55645 0.40102
 N399 N 1.06921 0.53502 0.45716
 N400 N 1.09542 0.55994 0.44946
 N401 N 1.04123 0.46006 0.43272
 N402 N 1.04869 0.43500 0.40690
 Mn403 Mn 1.07028 0.49948 0.50108
 C404 C 1.08402 0.42158 0.41985
 C405 C 1.08227 0.57316 0.41447
 N406 N 0.92818 0.53609 0.45751
 N407 N 0.90228 0.56126 0.44967
 N408 N 0.95448 0.46073 0.43304
 N409 N 0.94660 0.43555 0.40749
 N410 N 0.92594 0.46300 0.45983
 N411 N 0.89759 0.43970 0.45295
 N412 N 0.95524 0.53377 0.42924
 N413 N 0.94826 0.55700 0.40121
 Mn414 Mn 0.92685 0.50061 0.50154
 Mn415 Mn 0.99820 0.49679 0.43059
 Cl416 Cl 0.99855 0.49938 0.50136
 C417 C 0.91545 0.57417 0.41458
 C418 C 0.91120 0.42253 0.42055
 N419 N 0.57219 0.03586 0.54218
 N420 N 0.59970 0.05973 0.54989
 N421 N 0.54321 -0.03728 0.56891
 N422 N 0.55030 -0.06180 0.59552
 N423 N 0.57143 -0.03706 0.54167
 N424 N 0.59887 -0.06094 0.54938
 N425 N 0.54406 0.03608 0.56952
 N426 N 0.55161 0.06016 0.59652
 C427 C 0.58623 0.07485 0.58367
 C428 C 0.58496 -0.07645 0.58269
 N429 N 0.42895 -0.03662 0.54106
 N430 N 0.40195 -0.06104 0.54813
 N431 N 0.45713 0.03668 0.56916
 N432 N 0.45012 0.06131 0.59566
 N433 N 0.42891 0.03646 0.54175
 N434 N 0.40185 0.06077 0.54894
 N435 N 0.45681 -0.03655 0.56880
 N436 N 0.44967 -0.06095 0.59542
 Mn437 Mn 0.50030 -0.00021 0.56952
 C438 C 0.41557 -0.07615 0.58195
 C439 C 0.41568 0.07623 0.58243
 N440 N 0.57111 -0.03675 0.45580
 N441 N 0.59741 -0.06171 0.44852
 N442 N 0.54388 0.03755 0.42940
 N443 N 0.55156 0.06224 0.40319
 N444 N 0.57232 0.03626 0.45654
 N445 N 0.60037 0.05966 0.44927
 N446 N 0.54349 -0.03566 0.42782
 N447 N 0.55033 -0.05971 0.40067
 Mn448 Mn 0.57215 -0.00047 0.49903
 C449 C 0.58382 -0.07591 0.41417
 C450 C 0.58672 0.07591 0.41626
 N451 N 0.42899 0.03727 0.45610
 N452 N 0.40166 0.06138 0.44873
 N453 N 0.45678 -0.03530 0.42739
 N454 N 0.44969 -0.05942 0.40032
 N455 N 0.42919 -0.03609 0.45525
 N456 N 0.40277 -0.06100 0.44808
 N457 N 0.45711 0.03766 0.42876
 N458 N 0.44959 0.06186 0.40195
 Mn459 Mn 0.42857 0.00021 0.49853
 Mn460 Mn 0.50034 0.00113 0.42795
 Cl461 Cl 0.50032 0.00018 0.49877
 C462 C 0.41516 0.07665 0.41504
 C463 C 0.41613 -0.07540 0.41384
 N464 N 0.57144 0.53499 0.04244
 N465 N 0.59878 0.55924 0.04921
 N466 N 0.54184 0.46226 0.07006
 N467 N 0.54871 0.43751 0.09645
 N468 N 0.56957 0.46197 0.04235
 N469 N 0.59619 0.43724 0.04919
 N470 N 0.54367 0.53550 0.07013
 N471 N 0.55126 0.56012 0.09644
 C472 C 0.58555 0.57482 0.08284
 C473 C 0.58256 0.42202 0.08278
 N474 N 0.42692 0.46456 0.04347
 N475 N 0.39968 0.44039 0.05083
 N476 N 0.45694 0.53717 0.07097
 N477 N 0.45009 0.56118 0.09822
 N478 N 0.42875 0.53777 0.04354
 N479 N 0.40203 0.56224 0.05133
 N480 N 0.45528 0.46411 0.07073
 N481 N 0.44819 0.43969 0.09732
 Mn482 Mn 0.49945 0.49977 0.07088
 C483 C 0.41362 0.42497 0.08436
 C484 C 0.41596 0.57681 0.08530
 N485 N 0.56854 0.46163 -0.04315
 N486 N 0.59500 0.43689 -0.05084
 N487 N 0.54222 0.53585 -0.07041
 N488 N 0.54943 0.56073 -0.09651
 N489 N 0.57070 0.53483 -0.04330
 N490 N 0.59825 0.55873 -0.05038
 N491 N 0.54075 0.46275 -0.07093
 N492 N 0.54785 0.43919 -0.09858
 Mn493 Mn 0.57047 0.49835 -0.00042
 C494 C 0.58142 0.42298 -0.08534
 C495 C 0.58437 0.57485 -0.08342
 N496 N 0.42792 0.53785 -0.04218
 N497 N 0.40117 0.56241 -0.04963
 N498 N 0.45397 0.46385 -0.06984
 N499 N 0.44614 0.43917 -0.09609
 N500 N 0.42588 0.46489 -0.04246
 N501 N 0.39787 0.44137 -0.04968
 N502 N 0.45556 0.53712 -0.07000
 N503 N 0.44837 0.56111 -0.09713
 Mn504 Mn 0.42695 0.50128 0.00060
 Mn505 Mn 0.49810 0.49989 -0.07070
 Cl506 Cl 0.49872 0.49983 0.00008
 C507 C 0.41461 0.57687 -0.08380
 C508 C 0.41118 0.42530 -0.08292
 N509 N 1.16775 0.13534 0.11492
 C510 C 1.15036 0.15292 0.14541
 N511 N 1.11140 0.14592 0.15455
 N512 N 1.09082 0.12197 0.13435
 C513 C 1.10835 0.10436 0.10404
 N514 N 1.14708 0.11160 0.09451
 N515 N 1.10941 0.64619 0.65381
 C516 C 1.14790 0.65385 0.64347
 N517 N 1.16462 0.63675 0.61229
 N518 N 1.14379 0.61281 0.59237
 C519 C 1.10557 0.60489 0.60308
 N520 N 1.08867 0.62204 0.63408
 N521 N 0.61330 0.13954 0.65979
 C522 C 0.65028 0.15014 0.64757
 N523 N 0.66558 0.13626 0.61366
 N524 N 0.64492 0.11267 0.59297
 C525 C 0.60816 0.10198 0.60544
 N526 N 0.59267 0.11588 0.63917
 N527 N 0.66349 0.63844 0.11047
 C528 C 0.64863 0.65185 0.14483
 N529 N 0.61241 0.64026 0.15798
 N530 N 0.59208 0.61611 0.13787
 C531 C 0.60715 0.60261 0.10377
 N532 N 0.64314 0.61429 0.09030
 N533 N 0.88800 -0.13825 0.16106
 C534 C 0.85126 -0.14921 0.14840
 N535 N 0.83607 -0.13561 0.11422
 N536 N 0.85661 -0.11192 0.09369
 C537 C 0.89313 -0.10086 0.10661
 N538 N 0.90851 -0.11449 0.14060
 N539 N 0.88655 0.36068 0.66238
 C540 C 0.85030 0.34878 0.64919
 N541 N 0.83565 0.36189 0.61445
 N542 N 0.85595 0.38592 0.59420
 C543 C 0.89183 0.39786 0.60780
 N544 N 0.90686 0.38472 0.64217
 N545 N 0.33845 -0.13999 0.61024
 C546 C 0.35285 -0.15204 0.64550
 N547 N 0.38860 -0.13957 0.65904
 N548 N 0.40889 -0.11582 0.63840
 C549 C 0.39424 -0.10364 0.60340
 N550 N 0.35874 -0.11623 0.58958
 N551 N 0.33707 0.36072 0.11325
 C552 C 0.35194 0.34863 0.14832
 N553 N 0.38770 0.36131 0.16155
 N554 N 0.40759 0.38523 0.14079
 C555 C 0.39249 0.39743 0.10598
 N556 N 0.35694 0.38468 0.09247
 N557 N 0.88838 0.13599 -0.16555
 C558 C 0.85698 0.15345 -0.14918
 N559 N 0.84641 0.14600 -0.11111
 N560 N 0.86614 0.12180 -0.09045
 C561 C 0.89738 0.10433 -0.10698
 N562 N 0.90830 0.11199 -0.14480
 N563 N 0.85040 0.64840 0.38892
 C564 C 0.85390 0.64937 0.34872
 N565 N 0.87829 0.62597 0.33052
 N566 N 0.89856 0.60253 0.35173
 C567 C 0.89464 0.60123 0.39183
 N568 N 0.87020 0.62456 0.41010
 N569 N 0.33858 0.14150 0.38766
 C570 C 0.35093 0.15179 0.35093
 N571 N 0.38534 0.13761 0.33619
 N572 N 0.40610 0.11415 0.35692
 C573 C 0.39332 0.10378 0.39327
 N574 N 0.35925 0.11792 0.40835
 N575 N 0.33873 0.64198 -0.11208
 C576 C 0.35159 0.65195 -0.14867
 N577 N 0.38592 0.63763 -0.16319
 N578 N 0.40636 0.61416 -0.14217
 C579 C 0.39322 0.60406 -0.10583
 N580 N 0.35911 0.61843 -0.09108
 N581 N 1.10987 -0.14861 -0.15020
 C582 C 1.15051 -0.15049 -0.14657
 N583 N 1.16949 -0.12868 -0.12094
 N584 N 1.14859 -0.10583 -0.09960
 C585 C 1.10806 -0.10360 -0.10364
 N586 N 1.08902 -0.12534 -0.12931
 N587 N 1.16874 0.37057 0.38150
 C588 C 1.15014 0.34801 0.35644
 N589 N 1.10944 0.34913 0.35304
 N590 N 1.08815 0.37237 0.37355
 C591 C 1.10683 0.39489 0.39862
 N592 N 1.14742 0.39342 0.40245
 N593 N 0.61374 -0.13509 0.33374
 C594 C 0.64501 -0.15267 0.35033
 N595 N 0.65543 -0.14538 0.38853
 N596 N 0.63568 -0.12119 0.40913
 C597 C 0.60456 -0.10360 0.39237
 N598 N 0.59380 -0.11112 0.35441
 N599 N 0.64898 0.35048 -0.11082
 C600 C 0.64511 0.34917 -0.15099
 N601 N 0.61958 0.37168 -0.16923
 N602 N 0.59858 0.39461 -0.14807
 C603 C 0.60286 0.39627 -0.10801
 N604 N 0.62844 0.37383 -0.08971
 N605 N 1.17086 0.11585 -0.13764
 C606 C 1.15469 0.14706 -0.14804
 N607 N 1.11616 0.15402 -0.13692
 N608 N 1.09467 0.13065 -0.11680
 C609 C 1.11119 0.09971 -0.10633
 N610 N 1.14969 0.09280 -0.11684
 N611 N 1.14760 0.64754 0.39049
 C612 C 1.14495 0.64858 0.35022
 N613 N 1.12099 0.62518 0.33134
 N614 N 1.10029 0.60168 0.35197
 C615 C 1.10337 0.60032 0.39216
 N616 N 1.12740 0.62363 0.41108
 N617 N 0.67148 0.12690 0.37802
 C618 C 0.65282 0.14975 0.35338
 N619 N 0.61211 0.14871 0.35004
 N620 N 0.59085 0.12528 0.37028
 C621 C 0.60956 0.10252 0.39500
 N622 N 0.65018 0.10389 0.39873
 N623 N 0.66603 0.63273 -0.11544
 C624 C 0.64807 0.65196 -0.14440
 N625 N 0.60850 0.64603 -0.15244
 N626 N 0.58804 0.62167 -0.13285
 C627 C 0.60623 0.60253 -0.10410
 N628 N 0.64549 0.60864 -0.09556
 N629 N 0.83645 -0.13811 -0.11113
 C630 C 0.85130 -0.15185 -0.14532
 N631 N 0.88789 -0.14090 -0.15820
 N632 N 0.90857 -0.11701 -0.13799
 C633 C 0.89350 -0.10320 -0.10403
 N634 N 0.85715 -0.11426 -0.09087
 N635 N 0.82640 0.37176 0.38132
 C636 C 0.84522 0.34851 0.35735
 N637 N 0.88599 0.34909 0.35508
 N638 N 0.90715 0.37247 0.37560
 C639 C 0.88829 0.39567 0.39959
 N640 N 0.84759 0.39475 0.40233
 N641 N 0.34633 -0.14690 0.39042
 C642 C 0.35412 -0.15304 0.35131
 N643 N 0.38336 -0.13380 0.33349
 N644 N 0.40358 -0.10958 0.35362
 C645 C 0.39518 -0.10328 0.39237
 N646 N 0.36624 -0.12240 0.41046
 N647 N 0.32693 0.37269 -0.12038
 C648 C 0.34574 0.35002 -0.14508
 N649 N 0.38638 0.35177 -0.14872
 N650 N 0.40738 0.37565 -0.12875
 C651 C 0.38852 0.39823 -0.10398
 N652 N 0.34798 0.39617 -0.09994
 N653 N 1.11155 -0.13986 0.16284
 C654 C 1.14904 -0.14975 0.15137
 N655 N 1.16485 -0.13536 0.11800
 N656 N 1.14417 -0.11197 0.09707
 C657 C 1.10692 -0.10193 0.10878
 N658 N 1.09092 -0.11631 0.14201
 N659 N 1.10850 0.35431 0.65642
 C660 C 1.14679 0.34613 0.64576
 N661 N 1.16359 0.36322 0.61462
 N662 N 1.14305 0.38754 0.59501
 C663 C 1.10503 0.39595 0.60599
 N664 N 1.08804 0.37886 0.63699
 N665 N 0.66837 -0.12858 0.62241
 C666 C 0.64913 -0.15064 0.64746
 N667 N 0.60846 -0.14874 0.65054
 N668 N 0.58782 -0.12523 0.62966
 C669 C 0.60711 -0.10326 0.60453
 N670 N 0.64768 -0.10551 0.60106
 N671 N 0.66271 0.36160 0.11234
 C672 C 0.64633 0.34532 0.14425
 N673 N 0.60823 0.35380 0.15520
 N674 N 0.58755 0.37792 0.13533
 C675 C 0.60415 0.39424 0.10360
 N676 N 0.64196 0.38550 0.09231
 N677 N 0.83679 0.13901 0.11150
 C678 C 0.85336 0.15542 0.14334
 N679 N 0.89157 0.14706 0.15422
 N680 N 0.91217 0.12294 0.13436
 C681 C 0.89539 0.10647 0.10272
 N682 N 0.85746 0.11509 0.09148
 N683 N 0.88423 0.63600 0.66553
 C684 C 0.85052 0.65100 0.65033
 N685 N 0.83860 0.64203 0.61302
 N686 N 0.85928 0.61876 0.59197
 C687 C 0.89282 0.60373 0.60736
 N688 N 0.90501 0.61287 0.64443
 N689 N 0.33527 0.13613 0.61296
 C690 C 0.35221 0.15289 0.64438
 N691 N 0.39066 0.14482 0.65472
 N692 N 0.41115 0.12069 0.63474
 C693 C 0.39403 0.10391 0.60348
 N694 N 0.35583 0.11221 0.59280
 N695 N 0.33943 0.64124 0.11380
 C696 C 0.35298 0.65216 0.14986
 N697 N 0.38803 0.63868 0.16401
 N698 N 0.40846 0.61512 0.14315
 C699 C 0.39463 0.60409 0.10733
 N700 N 0.35982 0.61764 0.09296
   
