data_POSCAR
  _audit_creation_date              2014-09-24
  _audit_creation_method            'ToBaCCo'
  _symmetry_space_group_name_H-M    'P1'
  _symmetry_Int_Tables_number       1
  _symmetry_cell_setting            triclinic
  loop_
  _symmetry_equiv_pos_as_xyz
 x,y,z
_cell_length_a 32.0258
_cell_length_b 32.1160
_cell_length_c 33.0000
_cell_angle_alpha 89.518400
_cell_angle_beta 90.030400
_cell_angle_gamma 89.955100
loop_
  _atom_site_label
  _atom_site_type_symbol
  _atom_site_fract_x
  _atom_site_fract_y
  _atom_site_fract_z
O1 O 0.25710 1.05157 0.02255
 O2 O 0.28852 0.96980 -0.04863
 O3 O 0.25208 1.04180 -0.05503
 O4 O 0.28977 0.97860 0.03120
 O5 O 0.22822 0.94786 0.03539
 O6 O 0.19063 1.01083 -0.05081
 O7 O 0.22709 0.93915 -0.04316
 O8 O 0.19532 1.02152 0.02833
 Cu9 Cu 0.27824 1.01307 -0.01314
 Cu10 Cu 0.20404 0.97700 -0.00698
 C11 C 0.22091 1.05011 0.03801
 C12 C 0.26329 0.94122 -0.05882
 C13 C 0.21506 1.03664 -0.06785
 C14 C 0.26506 0.95311 0.04847
 O15 O 0.68858 0.52114 0.55002
 O16 O 0.72839 0.45604 0.46732
 O17 O 0.72585 0.44920 0.54501
 O18 O 0.68989 0.52741 0.47061
 O19 O 0.75033 0.56022 0.47486
 O20 O 0.78631 0.48206 0.54892
 O21 O 0.78876 0.48915 0.47072
 O22 O 0.74906 0.55405 0.55299
 Cu23 Cu 0.70181 0.48545 0.50789
 Cu24 Cu 0.77473 0.52462 0.51229
 C25 C 0.71211 0.54849 0.56564
 C26 C 0.76560 0.46150 0.45520
 C27 C 0.76250 0.45221 0.55928
 C28 C 0.71402 0.55685 0.45987
 O29 O 0.74655 0.96988 1.06775
 O30 O 0.70591 1.02967 0.98124
 O31 O 0.72427 0.95160 0.99555
 O32 O 0.73579 1.04859 1.05331
 O33 O 0.79918 1.05511 1.02771
 O34 O 0.78735 0.95970 0.96947
 O35 O 0.76998 1.03804 0.95765
 O36 O 0.81067 0.97633 1.04388
 Cu37 Cu 0.72153 0.99945 1.02665
 Cu38 Cu 0.79827 1.00789 0.99730
 C39 C 0.78532 0.96240 1.07045
 C40 C 0.73090 1.04422 0.95494
 C41 C 0.75389 0.93907 0.97312
 C42 C 0.76994 1.06849 1.04993
 O43 O 0.24958 0.43223 0.52243
 O44 O 0.20798 0.51498 0.45665
 O45 O 0.24864 0.44561 0.44523
 O46 O 0.21213 0.50203 0.53566
 O47 O 0.27168 0.53663 0.53767
 O48 O 0.30830 0.47999 0.44755
 O49 O 0.26789 0.54886 0.45969
 O50 O 0.30956 0.46596 0.52620
 Cu51 Cu 0.22338 0.47065 0.48956
 Cu52 Cu 0.29546 0.51113 0.49308
 C53 C 0.28650 0.43524 0.53588
 C54 C 0.23082 0.54558 0.44647
 C55 C 0.28470 0.45330 0.43100
 C56 C 0.23593 0.52853 0.55233
 O57 O 1.06122 0.23911 0.01981
 O58 O 0.98081 0.19424 -0.04626
 O59 O 1.05336 0.22820 -0.05777
 O60 O 0.98925 0.20589 0.03225
 O61 O 0.95845 0.26720 0.02557
 O62 O 1.02215 0.28928 -0.06436
 O63 O 0.94990 0.25557 -0.05122
 O64 O 1.03046 0.30055 0.01453
 Cu65 Cu 1.02411 0.21054 -0.01252
 Cu66 Cu 0.98746 0.28452 -0.01968
 C67 C 1.05873 0.27721 0.02934
 C68 C 0.95188 0.21729 -0.06031
 C69 C 1.04808 0.26233 -0.07671
 C70 C 0.96359 0.23313 0.04462
 O71 O 0.50979 0.78760 0.55822
 O72 O 0.44282 0.75457 0.47380
 O73 O 0.44061 0.74600 0.55185
 O74 O 0.51376 0.79267 0.47819
 O75 O 0.54931 0.73374 0.47622
 O76 O 0.47624 0.68712 0.54972
 O77 O 0.47829 0.69569 0.47005
 O78 O 0.54546 0.72883 0.55505
 Cu79 Cu 0.47351 0.77629 0.51593
 Cu80 Cu 0.51570 0.70533 0.51250
 C81 C 0.53841 0.76376 0.57151
 C82 C 0.44952 0.71976 0.45717
 C83 C 0.44635 0.70868 0.56362
 C84 C 0.54345 0.77085 0.46407
 O85 O 0.04725 0.73777 -0.02926
 O86 O -0.01949 0.70876 0.05727
 O87 O -0.02450 0.70045 -0.02163
 O88 O 0.05155 0.74604 0.04900
 O89 O 0.01826 0.80620 0.04484
 O90 O -0.05866 0.76014 -0.02492
 O91 O -0.05287 0.76885 0.05234
 O92 O 0.01281 0.79707 -0.03526
 Cu93 Cu 0.01695 0.71721 0.01421
 Cu94 Cu -0.02299 0.78942 0.00860
 C95 C 0.04074 0.77205 -0.04761
 C96 C -0.04712 0.73396 0.06980
 C97 C -0.05455 0.72236 -0.03526
 C98 C 0.04719 0.78365 0.05970
 O99 O 0.56167 0.24938 0.44720
 O100 O 0.49159 0.20125 0.52218
 O101 O 0.49140 0.21057 0.44290
 O102 O 0.55994 0.24425 0.52626
 O103 O 0.52378 0.30266 0.53030
 O104 O 0.45503 0.26885 0.44757
 O105 O 0.45504 0.25951 0.52541
 O106 O 0.52502 0.30763 0.44952
 Cu107 Cu 0.52970 0.22050 0.48434
 Cu108 Cu 0.48652 0.29082 0.48893
 C109 C 0.55442 0.28605 0.43451
 C110 C 0.46160 0.22215 0.53673
 C111 C 0.46207 0.23427 0.43064
 C112 C 0.55281 0.27898 0.54303
 O113 O 1.02103 0.07011 0.29202
 O114 O 0.96909 -0.03224 0.29379
 O115 O 1.05112 -0.00768 0.30085
 O116 O 0.94928 0.04386 0.28453
 O117 O 0.95756 0.03376 0.21888
 O118 O 1.06090 -0.01358 0.23483
 O119 O 0.99061 -0.04356 0.23136
 O120 O 1.03761 0.06049 0.22775
 Cu121 Cu 0.99822 0.01775 0.29977
 Cu122 Cu 1.01051 0.00965 0.22129
 C123 C 1.03782 0.08281 0.25938
 C124 C 0.97186 -0.05583 0.26315
 C125 C 1.07333 -0.01904 0.27092
 C126 C 0.93645 0.04779 0.24835
 O127 O 0.50633 0.53731 0.74065
 O128 O 0.46797 0.43001 0.73232
 O129 O 0.43586 0.50711 0.74049
 O130 O 0.54296 0.46954 0.72753
 O131 O 0.54694 0.45534 0.79311
 O132 O 0.43895 0.49307 0.80615
 O133 O 0.47518 0.42018 0.79827
 O134 O 0.51317 0.52740 0.80680
 Cu135 Cu 0.48715 0.48470 0.72855
 Cu136 Cu 0.49394 0.47309 0.80788
 C137 C 0.51621 0.55041 0.77550
 C138 C 0.46529 0.40688 0.76362
 C139 C 0.41964 0.50778 0.77550
 C140 C 0.56333 0.45646 0.75808
 O141 O 0.93356 1.01330 0.71629
 O142 O 1.03242 0.95864 0.69737
 O143 O 0.95459 0.93167 0.72056
 O144 O 1.00545 1.03227 0.69672
 O145 O 1.02222 1.03636 0.76153
 O146 O 0.97427 0.93470 0.78468
 O147 O 1.04507 0.95594 0.76320
 O148 O 0.94458 1.00686 0.78207
 Cu149 Cu 0.97906 0.98139 0.70163
 Cu150 Cu 0.99884 0.98609 0.77901
 C151 C 0.92196 1.01899 0.75256
 C152 C 1.05567 0.94830 0.72700
 C153 C 0.95585 0.91604 0.75615
 C154 C 1.02259 1.05139 0.72576
 O155 O 0.44972 0.53932 0.20566
 O156 O 0.55816 0.50269 0.19611
 O157 O 0.48378 0.46630 0.19603
 O158 O 0.52174 0.57427 0.20593
 O159 O 0.52719 0.56466 0.27214
 O160 O 0.48939 0.45685 0.26224
 O161 O 0.56116 0.49216 0.26234
 O162 O 0.45278 0.52854 0.27185
 Cu163 Cu 0.50306 0.52117 0.19415
 Cu164 Cu 0.50778 0.50998 0.27391
 C165 C 0.43294 0.54022 0.24042
 C166 C 0.57804 0.49127 0.22762
 C167 C 0.48007 0.44335 0.22740
 C168 C 0.53124 0.58759 0.24082
 O169 O 0.22429 0.15373 0.18080
 O170 O 0.27212 0.13159 0.23321
 O171 O 0.14251 0.23549 0.24100
 O172 O 0.14467 0.29433 0.27451
 O173 O 0.19910 0.27007 0.12558
 O174 O 0.26600 0.29640 0.10730
 O175 O 0.28445 0.32014 0.32829
 O176 O 0.22723 0.27945 0.34648
 O177 O 0.36877 0.22819 0.27713
 O178 O 0.36758 0.18351 0.22162
 O179 O 0.34650 0.34712 0.21694
 O180 O 0.29115 0.37452 0.17603
 O181 O 0.29827 0.36455 0.27595
 O182 O 0.24897 0.38644 0.21926
 O183 O 0.38135 0.28578 0.22347
 O184 O 0.37197 0.22374 0.17460
 O185 O 0.32731 0.25125 0.32822
 O186 O 0.26034 0.22047 0.34790
 O187 O 0.23879 0.19702 0.12769
 O188 O 0.29872 0.23981 0.10976
 O189 O 0.15598 0.29026 0.17667
 O190 O 0.16412 0.34030 0.23224
 O191 O 0.17637 0.17316 0.24000
 O192 O 0.23272 0.14804 0.28235
 Zr193 Zr 0.23940 0.18881 0.23214
 O194 O 0.29002 0.21360 0.26445
 Zr195 Zr 0.19009 0.27966 0.23041
 O196 O 0.23802 0.30810 0.26390
 Zr197 Zr 0.25488 0.25407 0.15549
 O198 O 0.30542 0.28310 0.18510
 Zr199 Zr 0.26953 0.26380 0.29981
 O200 O 0.21764 0.23616 0.27060
 Zr201 Zr 0.33385 0.24002 0.22448
 O202 O 0.28590 0.20955 0.19165
 Zr203 Zr 0.28364 0.33040 0.22344
 O204 O 0.23364 0.30528 0.18947
 O205 O 0.20905 0.23080 0.19401
 O206 O 0.31506 0.28884 0.26163
 C207 C 0.22671 0.16193 0.14277
 C208 C 0.14337 0.19551 0.24347
 C209 C 0.16461 0.28491 0.13905
 C210 C 0.29520 0.35581 0.31390
 C211 C 0.36148 0.23568 0.31458
 C212 C 0.38014 0.32567 0.21966
 H213 H 0.30257 0.19101 0.28091
 H214 H 0.32530 0.29404 0.16475
 H215 H 0.18518 0.21836 0.17938
 H216 H 0.22582 0.33041 0.28064
 H217 H 0.20041 0.26566 0.34007
 H218 H 0.15993 0.30349 0.29892
 H219 H 0.37777 0.24929 0.15864
 H220 H 0.31480 0.21544 0.11965
 H221 H 0.27568 0.19462 0.34155
 H222 H 0.21844 0.16407 0.30377
 H223 H 0.30481 0.36015 0.15319
 H224 H 0.25492 0.32365 0.11611
 H225 H 0.29230 0.13259 0.21050
 H226 H 0.35179 0.16274 0.23772
 H227 H 0.17535 0.35590 0.20866
 H228 H 0.23341 0.38988 0.24491
 O229 O 0.79012 0.87175 0.22195
 O230 O 0.74270 0.89330 0.27537
 O231 O 0.87297 0.78878 0.27805
 O232 O 0.86570 0.73475 0.32377
 O233 O 0.81772 0.75342 0.17017
 O234 O 0.75001 0.72821 0.15084
 O235 O 0.72658 0.70359 0.37007
 O236 O 0.78631 0.74557 0.38849
 O237 O 0.64416 0.79525 0.31727
 O238 O 0.64967 0.84487 0.26295
 O239 O 0.66616 0.68021 0.25991
 O240 O 0.72421 0.65352 0.21668
 O241 O 0.71108 0.66141 0.31717
 O242 O 0.76110 0.63742 0.26420
 O243 O 0.63262 0.74264 0.25828
 O244 O 0.64407 0.80700 0.21550
 O245 O 0.68479 0.77141 0.36908
 O246 O 0.74389 0.80276 0.39064
 O247 O 0.77899 0.82697 0.16983
 O248 O 0.71965 0.78615 0.15052
 O249 O 0.85860 0.73140 0.22266
 O250 O 0.85173 0.68532 0.27939
 O251 O 0.83960 0.85129 0.28143
 O252 O 0.78272 0.87835 0.32297
 Zr253 Zr 0.77592 0.83640 0.27430
 O254 O 0.72455 0.81160 0.30623
 Zr255 Zr 0.82397 0.74504 0.27501
 O256 O 0.77474 0.71612 0.30699
 Zr257 Zr 0.76120 0.77075 0.19816
 O258 O 0.70919 0.74330 0.22672
 Zr259 Zr 0.74319 0.76040 0.34194
 O260 O 0.79611 0.78874 0.31412
 Zr261 Zr 0.68097 0.78685 0.26520
 O262 O 0.73025 0.81605 0.23289
 Zr263 Zr 0.72949 0.69533 0.26568
 O264 O 0.78118 0.71960 0.23348
 O265 O 0.80597 0.79383 0.23724
 O266 O 0.69811 0.73713 0.30270
 C267 C 0.78912 0.86264 0.18412
 C268 C 0.87273 0.82877 0.28017
 C269 C 0.85140 0.73741 0.18478
 C270 C 0.71335 0.66923 0.35510
 C271 C 0.65055 0.78633 0.35476
 C272 C 0.63311 0.70261 0.25731
 H273 H 0.71221 0.83356 0.32332
 H274 H 0.68966 0.73308 0.20587
 H275 H 0.82961 0.80579 0.22179
 H276 H 0.78601 0.69330 0.32407
 H277 H 0.81043 0.76458 0.38514
 H278 H 0.84973 0.72066 0.34555
 H279 H 0.64313 0.78414 0.19562
 H280 H 0.70345 0.81061 0.15962
 H281 H 0.76216 0.82596 0.38217
 H282 H 0.80238 0.86549 0.34257
 H283 H 0.70495 0.66600 0.19652
 H284 H 0.76067 0.70090 0.16037
 H285 H 0.72241 0.89241 0.25274
 H286 H 0.66284 0.86307 0.28332
 H287 H 0.83695 0.66742 0.25980
 H288 H 0.77707 0.63430 0.28972
 O289 O 0.70835 0.13667 0.80313
 O290 O 0.66395 0.13985 0.74417
 O291 O 0.82933 0.15148 0.74088
 O292 O 0.85845 0.20037 0.70064
 O293 O 0.80573 0.22038 0.85117
 O294 O 0.76192 0.27827 0.86748
 O295 O 0.75565 0.30223 0.64748
 O296 O 0.78711 0.23381 0.63269
 O297 O 0.64191 0.27982 0.69871
 O298 O 0.61662 0.23092 0.75445
 O299 O 0.72187 0.35921 0.74898
 O300 O 0.78265 0.35059 0.79914
 O301 O 0.77890 0.34412 0.69795
 O302 O 0.82471 0.34102 0.75498
 O303 O 0.65978 0.32616 0.75807
 O304 O 0.62990 0.27123 0.79871
 O305 O 0.68576 0.26263 0.64731
 O306 O 0.72323 0.20596 0.62920
 O307 O 0.73358 0.17873 0.85274
 O308 O 0.70519 0.24629 0.86853
 O309 O 0.84926 0.20149 0.79990
 O310 O 0.87193 0.24911 0.74545
 O311 O 0.76691 0.11886 0.75032
 O312 O 0.71010 0.12588 0.70170
 Zr313 Zr 0.72330 0.16815 0.74880
 O314 O 0.69590 0.21593 0.71361
 Zr315 Zr 0.81528 0.21513 0.74689
 O316 O 0.79192 0.26538 0.71224
 Zr317 Zr 0.74876 0.23429 0.82194
 O318 O 0.72179 0.28471 0.79042
 Zr319 Zr 0.74114 0.24540 0.67721
 O320 O 0.76769 0.19346 0.70825
 Zr321 Zr 0.67433 0.26303 0.75202
 O322 O 0.69751 0.21309 0.78765
 Zr323 Zr 0.76635 0.31054 0.75097
 O324 O 0.79487 0.26276 0.78585
 O325 O 0.77208 0.18760 0.78549
 O326 O 0.71723 0.29221 0.71376
 C327 C 0.71682 0.14482 0.84028
 C328 C 0.80685 0.11882 0.74644
 C329 C 0.84077 0.20694 0.83749
 C330 C 0.77125 0.33646 0.66071
 C331 C 0.65089 0.27631 0.66095
 C332 C 0.68202 0.35902 0.75360
 H333 H 0.67320 0.20416 0.69695
 H334 H 0.71123 0.30524 0.81007
 H335 H 0.78411 0.16490 0.80222
 H336 H 0.81457 0.27673 0.69506
 H337 H 0.79849 0.20566 0.63838
 H338 H 0.85434 0.22067 0.67829
 H339 H 0.64436 0.28487 0.82152
 H340 H 0.67855 0.23335 0.86012
 H341 H 0.71110 0.18073 0.64179
 H342 H 0.73419 0.12675 0.68290
 H343 H 0.75714 0.35659 0.81494
 H344 H 0.78491 0.29584 0.85694
 H345 H 0.64518 0.15552 0.76234
 H346 H 0.61295 0.21592 0.72863
 H347 H 0.87160 0.26803 0.76899
 H348 H 0.84388 0.32703 0.73593
 O349 O 0.26688 0.83781 0.79826
 O350 O 0.31374 0.83338 0.74400
 O351 O 0.14915 0.81081 0.73651
 O352 O 0.12302 0.75841 0.70084
 O353 O 0.17528 0.75470 0.85263
 O354 O 0.21923 0.69919 0.87444
 O355 O 0.23561 0.66048 0.65538
 O356 O 0.20020 0.72182 0.63439
 O357 O 0.34532 0.69239 0.70826
 O358 O 0.36654 0.74178 0.76225
 O359 O 0.26489 0.61047 0.77013
 O360 O 0.20223 0.61623 0.80727
 O361 O 0.21475 0.61904 0.70784
 O362 O 0.16042 0.62816 0.76354
 O363 O 0.32646 0.64551 0.76638
 O364 O 0.35145 0.70417 0.80899
 O365 O 0.30192 0.70391 0.65476
 O366 O 0.25683 0.76056 0.63306
 O367 O 0.24715 0.79725 0.85187
 O368 O 0.27643 0.73086 0.87251
 O369 O 0.13118 0.76522 0.79941
 O370 O 0.11276 0.71105 0.74916
 O371 O 0.21040 0.84679 0.73527
 O372 O 0.27313 0.83814 0.69618
 Zr373 Zr 0.25641 0.80094 0.74680
 O374 O 0.28749 0.75228 0.71701
 Zr375 Zr 0.16674 0.74913 0.74818
 O376 O 0.19363 0.69862 0.71701
 Zr377 Zr 0.23267 0.73950 0.82519
 O378 O 0.26175 0.68777 0.79816
 Zr379 Zr 0.24449 0.71900 0.68188
 O380 O 0.21387 0.77050 0.70841
 Zr381 Zr 0.30965 0.70838 0.75938
 O382 O 0.28343 0.76003 0.78969
 Zr383 Zr 0.21970 0.65707 0.75961
 O384 O 0.18895 0.70563 0.79110
 O385 O 0.20780 0.78247 0.78442
 O386 O 0.26913 0.67520 0.72232
 C387 C 0.26163 0.83115 0.83637
 C388 C 0.17044 0.84435 0.73216
 C389 C 0.13961 0.76452 0.83746
 C390 C 0.22310 0.62558 0.67019
 C391 C 0.33736 0.69388 0.67016
 C392 C 0.30494 0.61211 0.77080
 H393 H 0.31035 0.76426 0.70056
 H394 H 0.27235 0.66897 0.81969
 H395 H 0.19464 0.80653 0.79798
 H396 H 0.17241 0.68500 0.69988
 H397 H 0.18274 0.74672 0.63932
 H398 H 0.12797 0.73666 0.68036
 H399 H 0.33883 0.68559 0.82965
 H400 H 0.30303 0.74313 0.86292
 H401 H 0.28239 0.77642 0.63959
 H402 H 0.25252 0.83220 0.67462
 H403 H 0.21936 0.62345 0.83114
 H404 H 0.19583 0.68126 0.86567
 H405 H 0.33315 0.81835 0.76234
 H406 H 0.36881 0.75903 0.73737
 H407 H 0.11348 0.69475 0.77475
 H408 H 0.14559 0.63326 0.73767
 O409 O 0.28980 0.33066 0.67580
 O410 O 0.23996 0.35443 0.72511
 O411 O 0.36899 0.25026 0.74168
 O412 O 0.35915 0.18950 0.78225
 O413 O 0.31815 0.21442 0.62697
 O414 O 0.25227 0.18505 0.60720
 O415 O 0.22147 0.16899 0.82674
 O416 O 0.27804 0.21287 0.84776
 O417 O 0.14065 0.25825 0.76851
 O418 O 0.14720 0.30463 0.71135
 O419 O 0.16417 0.14001 0.71832
 O420 O 0.22118 0.11170 0.67598
 O421 O 0.21053 0.12293 0.77588
 O422 O 0.26061 0.09875 0.72233
 O423 O 0.13034 0.20209 0.71301
 O424 O 0.14167 0.26349 0.66676
 O425 O 0.18075 0.23843 0.82226
 O426 O 0.25040 0.26834 0.84287
 O427 O 0.27706 0.28594 0.62404
 O428 O 0.21940 0.24179 0.60446
 O429 O 0.35897 0.19525 0.68058
 O430 O 0.35025 0.14682 0.73610
 O431 O 0.33506 0.31251 0.73758
 O432 O 0.27716 0.33940 0.77636
 Zr433 Zr 0.27241 0.29711 0.72781
 O434 O 0.22035 0.27361 0.75905
 Zr435 Zr 0.32147 0.20598 0.73199
 O436 O 0.27176 0.17850 0.76412
 Zr437 Zr 0.26039 0.22955 0.65336
 O438 O 0.20800 0.20222 0.68172
 Zr439 Zr 0.23931 0.22412 0.79685
 O440 O 0.29251 0.25077 0.76891
 Zr441 Zr 0.17833 0.24682 0.71782
 O442 O 0.22805 0.27549 0.68585
 Zr443 Zr 0.22746 0.15581 0.72293
 O444 O 0.27957 0.17926 0.69049
 O445 O 0.30417 0.25396 0.69300
 O446 O 0.19503 0.19893 0.75781
 C447 C 0.28856 0.32138 0.63812
 C448 C 0.36793 0.29025 0.74272
 C449 C 0.35251 0.20111 0.64249
 C450 C 0.21106 0.13307 0.81341
 C451 C 0.14683 0.25260 0.80656
 C452 C 0.13101 0.16211 0.71475
 H453 H 0.20744 0.29653 0.77443
 H454 H 0.18893 0.19100 0.66097
 H455 H 0.32853 0.26629 0.67893
 H456 H 0.28297 0.15629 0.78196
 H457 H 0.29524 0.18807 0.84182
 H458 H 0.35247 0.20957 0.80393
 H459 H 0.14125 0.23955 0.64809
 H460 H 0.20237 0.26614 0.61234
 H461 H 0.23281 0.29304 0.83718
 H462 H 0.29086 0.32417 0.79893
 H463 H 0.20418 0.12448 0.65417
 H464 H 0.26229 0.15817 0.61847
 H465 H 0.22034 0.35262 0.70199
 H466 H 0.15975 0.32401 0.73104
 H467 H 0.33704 0.12929 0.71516
 H468 H 0.27715 0.09686 0.74761
 O469 O 0.70011 0.63340 0.71862
 O470 O 0.74647 0.60569 0.76800
 O471 O 0.61425 0.70627 0.77969
 O472 O 0.61834 0.76061 0.82772
 O473 O 0.67307 0.75287 0.67517
 O474 O 0.73872 0.78487 0.66195
 O475 O 0.74952 0.77999 0.88559
 O476 O 0.69695 0.73144 0.89867
 O477 O 0.84120 0.70179 0.82616
 O478 O 0.84235 0.66205 0.76742
 O479 O 0.81603 0.82419 0.77962
 O480 O 0.76523 0.85636 0.74398
 O481 O 0.76065 0.83326 0.84113
 O482 O 0.71536 0.85929 0.78125
 O483 O 0.85246 0.76349 0.77631
 O484 O 0.84511 0.70594 0.72346
 O485 O 0.79735 0.71754 0.87796
 O486 O 0.72809 0.67784 0.88974
 O487 O 0.71664 0.68270 0.67128
 O488 O 0.77512 0.73103 0.65996
 O489 O 0.62837 0.76765 0.72669
 O490 O 0.63065 0.80928 0.78800
 O491 O 0.65036 0.64519 0.78096
 O492 O 0.70851 0.61515 0.81857
 Zr493 Zr 0.71333 0.66230 0.77371
 O494 O 0.76277 0.68387 0.80976
 Zr495 Zr 0.66136 0.75159 0.78000
 O496 O 0.70714 0.77628 0.81843
 Zr497 Zr 0.72890 0.73703 0.70529
 O498 O 0.77724 0.76376 0.73982
 Zr499 Zr 0.73918 0.72842 0.84955
 O500 O 0.68864 0.70410 0.81598
 Zr501 Zr 0.80631 0.71673 0.77424
 O502 O 0.76017 0.68919 0.73699
 Zr503 Zr 0.75335 0.80535 0.78316
 O504 O 0.70542 0.78353 0.74416
 O505 O 0.68305 0.70771 0.73944
 O506 O 0.78512 0.75991 0.81661
 C507 C 0.70462 0.64593 0.68194
 C508 C 0.61634 0.66643 0.78137
 C509 C 0.63766 0.76515 0.68888
 C510 C 0.75597 0.81832 0.87726
 C511 C 0.83290 0.70604 0.86388
 C512 C 0.85016 0.80341 0.77718
 H513 H 0.77582 0.66012 0.82420
 H514 H 0.79699 0.77788 0.72126
 H515 H 0.66025 0.69631 0.72260
 H516 H 0.69293 0.79571 0.83697
 H517 H 0.67615 0.75317 0.89181
 H518 H 0.62309 0.73774 0.84749
 H519 H 0.84843 0.73260 0.70858
 H520 H 0.79038 0.70487 0.66589
 H521 H 0.75138 0.65778 0.88718
 H522 H 0.69290 0.62733 0.84147
 H523 H 0.76956 0.84469 0.71667
 H524 H 0.72550 0.81025 0.67295
 H525 H 0.76856 0.61066 0.74754
 H526 H 0.82624 0.63898 0.77980
 H527 H 0.64251 0.82891 0.76780
 H528 H 0.69862 0.85973 0.80644
 O529 O 0.21563 0.65210 0.30580
 O530 O 0.17166 0.65520 0.24854
 O531 O 0.33578 0.67163 0.24080
 O532 O 0.36621 0.72279 0.20626
 O533 O 0.31246 0.73354 0.35638
 O534 O 0.26932 0.79111 0.37499
 O535 O 0.25769 0.82191 0.15469
 O536 O 0.29061 0.75668 0.13774
 O537 O 0.14553 0.79613 0.20719
 O538 O 0.12224 0.74740 0.26325
 O539 O 0.22702 0.87651 0.26686
 O540 O 0.28998 0.86922 0.30536
 O541 O 0.27881 0.86438 0.20560
 O542 O 0.33073 0.85677 0.26179
 O543 O 0.16449 0.84307 0.26462
 O544 O 0.13670 0.78724 0.30779
 O545 O 0.18893 0.78096 0.15484
 O546 O 0.22977 0.72444 0.13538
 O547 O 0.23939 0.69259 0.35720
 O548 O 0.21200 0.76000 0.37499
 O549 O 0.35601 0.71881 0.30393
 O550 O 0.37652 0.77034 0.25090
 O551 O 0.27445 0.63708 0.25005
 O552 O 0.21590 0.64593 0.20373
 Zr553 Zr 0.23001 0.68556 0.25272
 O554 O 0.20095 0.73393 0.21981
 Zr555 Zr 0.32120 0.73423 0.25175
 O556 O 0.29633 0.78469 0.21833
 Zr557 Zr 0.25534 0.74903 0.32797
 O558 O 0.22773 0.80032 0.29812
 Zr559 Zr 0.24528 0.76474 0.18362
 O560 O 0.27364 0.71294 0.21285
 Zr561 Zr 0.17968 0.77987 0.25965
 O562 O 0.20403 0.72884 0.29319
 Zr563 Zr 0.27116 0.82841 0.25877
 O564 O 0.30038 0.77996 0.29246
 O565 O 0.27904 0.70397 0.28970
 O566 O 0.22160 0.81070 0.22160
 C567 C 0.22268 0.65921 0.34338
 C568 C 0.31410 0.63816 0.24408
 C569 C 0.34782 0.72186 0.34188
 C570 C 0.27149 0.85668 0.16812
 C571 C 0.15385 0.79321 0.16925
 C572 C 0.18692 0.87590 0.26790
 H573 H 0.17794 0.72220 0.20356
 H574 H 0.21743 0.82000 0.31869
 H575 H 0.29137 0.68042 0.30512
 H576 H 0.31828 0.79691 0.20087
 H577 H 0.30461 0.72972 0.14331
 H578 H 0.35993 0.74169 0.18325
 H579 H 0.15071 0.80341 0.32924
 H580 H 0.18497 0.74853 0.36575
 H581 H 0.20952 0.70384 0.14590
 H582 H 0.23888 0.64906 0.18386
 H583 H 0.27082 0.86491 0.32851
 H584 H 0.29363 0.80765 0.36571
 H585 H 0.15208 0.67126 0.26555
 H586 H 0.11847 0.73183 0.23777
 H587 H 0.37625 0.78772 0.27554
 H588 H 0.34683 0.84799 0.23776
 O589 O 0.78841 0.37607 0.30406
 O590 O 0.83896 0.38070 0.25544
 O591 O 0.67615 0.36236 0.23051
 O592 O 0.65137 0.31744 0.18577
 O593 O 0.69216 0.28624 0.33777
 O594 O 0.73268 0.22811 0.35400
 O595 O 0.77000 0.22838 0.13310
 O596 O 0.73653 0.29228 0.11908
 O597 O 0.87133 0.24151 0.19957
 O598 O 0.89041 0.28451 0.26073
 O599 O 0.78704 0.15746 0.23461
 O600 O 0.72045 0.15835 0.27177
 O601 O 0.74646 0.17699 0.17513
 O602 O 0.68333 0.17849 0.22432
 O603 O 0.84799 0.18985 0.25051
 O604 O 0.86990 0.24199 0.30191
 O605 O 0.83412 0.26533 0.14536
 O606 O 0.79304 0.33076 0.13132
 O607 O 0.76388 0.32753 0.34881
 O608 O 0.79100 0.25672 0.36062
 O609 O 0.65232 0.30636 0.28395
 O610 O 0.63840 0.26233 0.22275
 O611 O 0.73760 0.39669 0.23985
 O612 O 0.80439 0.39195 0.20392
 Zr613 Zr 0.78212 0.34850 0.24731
 O614 O 0.81588 0.30498 0.21321
 Zr615 Zr 0.69198 0.29930 0.23332
 O616 O 0.72122 0.25498 0.19581
 Zr617 Zr 0.75120 0.27502 0.31250
 O618 O 0.78145 0.22765 0.27974
 Zr619 Zr 0.77540 0.28045 0.16969
 O620 O 0.74239 0.32663 0.20152
 Zr621 Zr 0.83307 0.25373 0.24977
 O622 O 0.80492 0.30037 0.28530
 Zr623 Zr 0.74284 0.20584 0.23262
 O624 O 0.71024 0.24858 0.26983
 O625 O 0.73021 0.32487 0.27752
 O626 O 0.79547 0.22993 0.20436
 C627 C 0.77969 0.36331 0.33993
 C628 C 0.69801 0.39563 0.23328
 C629 C 0.65778 0.29891 0.32193
 C630 C 0.76000 0.19059 0.14075
 C631 C 0.86653 0.24845 0.16151
 C632 C 0.82638 0.15738 0.24202
 H633 H 0.84046 0.31855 0.20077
 H634 H 0.78974 0.20500 0.29854
 H635 H 0.71601 0.34645 0.29376
 H636 H 0.70185 0.24519 0.17461
 H637 H 0.71869 0.31630 0.12627
 H638 H 0.66042 0.30247 0.16124
 H639 H 0.85525 0.22082 0.31855
 H640 H 0.81744 0.27226 0.35701
 H641 H 0.82125 0.34010 0.13936
 H642 H 0.78438 0.39183 0.18105
 H643 H 0.73937 0.15696 0.29544
 H644 H 0.71345 0.20967 0.33901
 H645 H 0.85831 0.36058 0.26841
 H646 H 0.89659 0.30260 0.23708
 H647 H 0.63644 0.24204 0.24542
 H648 H 0.67353 0.18571 0.19671
 N649 N 0.17940 0.10446 0.12302
 N650 N 0.17720 0.07549 0.09493
 C651 C 0.20928 0.08068 0.06902
 C652 C 0.23255 0.11510 0.08073
 C653 C 0.21255 0.12906 0.11527
 H654 H 0.26149 0.12641 0.06779
 H655 H 0.15909 0.10661 0.14767
 H656 H 0.15530 0.05140 0.09483
 N657 N 0.66268 0.58802 0.65414
 N658 N 0.66425 0.56244 0.62308
 C659 C 0.69687 0.57331 0.59958
 C660 C 0.71647 0.60784 0.61584
 C661 C 0.69384 0.61596 0.65051
 H662 H 0.74479 0.62295 0.60555
 H663 H 0.64132 0.58557 0.67797
 H664 H 0.64456 0.53685 0.61928
 N665 N 0.84123 0.90171 0.14326
 N666 N 0.84010 0.92909 0.11017
 C667 C 0.79968 0.93801 0.10267
 C668 C 0.77450 0.91704 0.13035
 C669 C 0.80155 0.89477 0.15493
 H670 H 0.74071 0.91619 0.13111
 H671 H 0.86805 0.88731 0.15471
 H672 H 0.86615 0.93924 0.09383
 N673 N 0.33515 0.37898 0.61655
 N674 N 0.33504 0.40902 0.58898
 C675 C 0.30180 0.40368 0.56457
 C676 C 0.28034 0.36815 0.57650
 C677 C 0.30240 0.35370 0.60971
 H678 H 0.25071 0.35690 0.56523
 H679 H 0.35625 0.37695 0.64064
 H680 H 0.35581 0.43408 0.58865
 N681 N 0.67432 0.08802 0.87140
 N682 N 0.67778 0.06181 0.90233
 C683 C 0.71457 0.06873 0.92090
 C684 C 0.73511 0.10106 0.90162
 C685 C 0.70845 0.11247 0.87056
 H686 H 0.76551 0.11387 0.90863
 H687 H 0.64907 0.08907 0.85137
 H688 H 0.65584 0.03897 0.90983
 N689 N 0.17844 0.60056 0.36703
 N690 N 0.18028 0.57075 0.39477
 C691 C 0.21468 0.57653 0.41752
 C692 C 0.23523 0.61210 0.40429
 C693 C 0.21127 0.62616 0.37207
 H694 H 0.26512 0.62392 0.41431
 H695 H 0.15588 0.60239 0.34421
 H696 H 0.15955 0.54569 0.39649
 N697 N 0.30925 0.88705 0.85891
 N698 N 0.31030 0.91707 0.88914
 C699 C 0.27516 0.91305 0.91129
 C700 C 0.25167 0.87987 0.89663
 C701 C 0.27404 0.86474 0.86380
 H702 H 0.22140 0.86941 0.90715
 H703 H 0.33183 0.88335 0.83641
 H704 H 0.33329 0.93993 0.89187
 N705 N 0.82129 0.41890 0.37175
 N706 N 0.81761 0.44499 0.40219
 C707 C 0.78214 0.43608 0.42232
 C708 C 0.76271 0.40227 0.40452
 C709 C 0.78861 0.39255 0.37245
 H710 H 0.73278 0.38864 0.41208
 H711 H 0.84519 0.41999 0.35023
 H712 H 0.83820 0.46946 0.40792
 N713 N 0.10567 0.32804 0.11337
 N714 N 0.07853 0.32688 0.08323
 C715 C 0.08722 0.29366 0.06003
 C716 C 0.12186 0.27322 0.07556
 C717 C 0.13234 0.29591 0.10947
 H718 H 0.13539 0.24415 0.06560
 H719 H 0.10512 0.34979 0.13672
 H720 H 0.05308 0.34703 0.08017
 N721 N 0.57471 0.80430 0.66587
 N722 N 0.54915 0.80458 0.63441
 C723 C 0.56234 0.77607 0.60755
 C724 C 0.59833 0.75724 0.62226
 C725 C 0.60501 0.77606 0.65936
 H726 H 0.61585 0.73197 0.60894
 H727 H 0.57099 0.82272 0.69156
 H728 H 0.52220 0.82281 0.63228
 N729 N 0.08083 0.80993 0.85855
 N730 N 0.05412 0.81303 0.89178
 C731 C 0.06357 0.78165 0.91759
 C732 C 0.09682 0.75880 0.90223
 C733 C 0.10652 0.77743 0.86538
 H734 H 0.11136 0.73148 0.91554
 H735 H 0.08067 0.82980 0.83333
 H736 H 0.02989 0.83464 0.89442
 N737 N 0.59150 0.33359 0.34299
 N738 N 0.56517 0.33151 0.37382
 C739 C 0.57896 0.30246 0.40034
 C740 C 0.61589 0.28567 0.38604
 C741 C 0.62265 0.30614 0.34958
 H742 H 0.63417 0.26065 0.39926
 H743 H 0.58785 0.35317 0.31779
 H744 H 0.53733 0.34836 0.37562
 N745 N 0.91309 0.69563 0.16412
 N746 N 0.93937 0.69408 0.13333
 C747 C 0.92818 0.72321 0.10580
 C748 C 0.89288 0.74385 0.11930
 C749 C 0.88444 0.72541 0.15645
 H750 H 0.87681 0.76977 0.10505
 H751 H 0.91514 0.67691 0.19008
 H752 H 0.96530 0.67439 0.13200
 N753 N 0.41830 0.16626 0.62091
 N754 N 0.44681 0.17146 0.59236
 C755 C 0.43504 0.20340 0.56818
 C756 C 0.39706 0.21870 0.58137
 C757 C 0.38761 0.19431 0.61488
 H758 H 0.38004 0.24543 0.56984
 H759 H 0.42042 0.14453 0.64456
 H760 H 0.47470 0.15468 0.59074
 N761 N 0.89494 0.16020 0.86643
 N762 N 0.92587 0.16289 0.89607
 C763 C 0.92285 0.20091 0.91284
 C764 C 0.88961 0.22251 0.89563
 C765 C 0.87333 0.19614 0.86674
 H766 H 0.88017 0.25429 0.90145
 H767 H 0.89072 0.13515 0.84686
 H768 H 0.94880 0.14039 0.90152
 N769 N 0.41095 0.68170 0.36271
 N770 N 0.43715 0.68027 0.39366
 C771 C 0.42476 0.70815 0.42146
 C772 C 0.38867 0.72775 0.40792
 C773 C 0.38110 0.71014 0.37047
 H774 H 0.37168 0.75280 0.42221
 H775 H 0.41392 0.66391 0.33652
 H776 H 0.46397 0.66177 0.39480
 N777 N 0.07208 0.18785 0.27290
 N778 N 0.04457 0.15756 0.27800
 C779 C 0.05834 0.12354 0.25846
 C780 C 0.09631 0.13223 0.24050
 C781 C 0.10409 0.17323 0.25069
 H782 H 0.11646 0.11107 0.22424
 H783 H 0.06976 0.21726 0.28597
 H784 H 0.01725 0.16005 0.29508
 N785 N 0.54085 0.65796 0.76650
 N786 N 0.51409 0.62677 0.76442
 C787 C 0.53275 0.59231 0.77920
 C788 C 0.57303 0.60146 0.79071
 C789 C 0.57708 0.64334 0.78179
 H790 H 0.59709 0.57992 0.80055
 H791 H 0.53518 0.68790 0.75516
 H792 H 0.48436 0.62876 0.75150
 N793 N 0.82915 0.06301 0.79262
 N794 N 0.86420 0.03748 0.79598
 C795 C 0.88414 0.03871 0.76011
 C796 C 0.86288 0.06490 0.73345
 C797 C 0.82911 0.08001 0.75516
 H798 H 0.87322 0.07524 0.70380
 H799 H 0.81040 0.07194 0.81696
 H800 H 0.87347 0.02175 0.82232
 N801 N 0.32820 0.56592 0.26797
 N802 N 0.36069 0.54047 0.26855
 C803 C 0.39050 0.55647 0.24427
 C804 C 0.37672 0.59359 0.22771
 C805 C 0.33722 0.59877 0.24382
 H806 H 0.39450 0.61564 0.20971
 H807 H 0.30175 0.56232 0.28617
 H808 H 0.36289 0.51355 0.28642
 N809 N 0.15481 0.90979 0.69384
 N810 N 0.12328 0.93636 0.69117
 C811 C 0.09501 0.92639 0.71985
 C812 C 0.10870 0.89203 0.74141
 C813 C 0.14660 0.88234 0.72387
 H814 H 0.09259 0.87542 0.76541
 H815 H 0.18050 0.90950 0.67435
 H816 H 0.12122 0.96067 0.67004
 N817 N 0.68228 0.46335 0.19968
 N818 N 0.64915 0.48784 0.19659
 C819 C 0.62069 0.47533 0.22414
 C820 C 0.63609 0.44161 0.24551
 C821 C 0.67505 0.43473 0.22893
 H822 H 0.61960 0.42224 0.26723
 H823 H 0.70783 0.46428 0.18003
 H824 H 0.64558 0.51153 0.17499
 N825 N 0.93974 0.83993 0.24554
 N826 N 0.96556 0.87403 0.23809
 C827 C 0.95457 0.90435 0.26393
 C828 C 0.92167 0.89067 0.28808
 C829 C 0.91266 0.85057 0.27491
 H830 H 0.90356 0.90913 0.30902
 H831 H 0.93799 0.81370 0.22711
 H832 H 0.98818 0.87557 0.21533
 N833 N 0.43722 0.29995 0.77538
 N834 N 0.46279 0.33154 0.78174
 C835 C 0.44925 0.36456 0.75998
 C836 C 0.41362 0.35390 0.73916
 C837 C 0.40671 0.31286 0.75016
 H838 H 0.39343 0.37423 0.72159
 H839 H 0.43913 0.27116 0.79025
 H840 H 0.48800 0.33087 0.80184
 N841 N 0.08370 0.29315 0.82505
 N842 N 0.05848 0.29681 0.85645
 C843 C 0.07105 0.27006 0.88564
 C844 C 0.10604 0.24871 0.87256
 C845 C 0.11295 0.26433 0.83396
 H846 H 0.12338 0.22465 0.88844
 H847 H 0.08090 0.31025 0.79811
 H848 H 0.03251 0.31648 0.85731
 N849 N 0.58680 0.82353 0.37803
 N850 N 0.55919 0.82021 0.40763
 C851 C 0.57013 0.78799 0.43180
 C852 C 0.60670 0.77039 0.41733
 C853 C 0.61609 0.79382 0.38312
 H854 H 0.62281 0.74303 0.42867
 H855 H 0.58512 0.84535 0.35444
 H856 H 0.53239 0.83857 0.41006
 N857 N 0.89069 0.66284 0.89147
 N858 N 0.92220 0.66738 0.92030
 C859 C 0.91727 0.70501 0.93746
 C860 C 0.88224 0.72457 0.92116
 C861 C 0.86672 0.69723 0.89258
 H862 H 0.87087 0.75559 0.92755
 H863 H 0.88762 0.63769 0.87183
 H864 H 0.94642 0.64615 0.92528
 N865 N 0.42348 0.19498 0.33692
 N866 N 0.44927 0.19362 0.36815
 C867 C 0.43734 0.22256 0.39508
 C868 C 0.40204 0.24291 0.38066
 C869 C 0.39446 0.22453 0.34360
 H870 H 0.38555 0.26872 0.39420
 H871 H 0.42614 0.17627 0.31131
 H872 H 0.47548 0.17433 0.37008
 N873 N 0.09154 0.83350 0.14605
 N874 N 0.06401 0.83173 0.11623
 C875 C 0.07465 0.80037 0.09137
 C876 C 0.11101 0.78189 0.10557
 C877 C 0.12054 0.80373 0.14034
 H878 H 0.12648 0.75443 0.09407
 H879 H 0.08972 0.85396 0.17042
 H880 H 0.03714 0.85010 0.11439
 N881 N 0.58936 0.31773 0.63794
 N882 N 0.56422 0.31928 0.60618
 C883 C 0.57699 0.29089 0.57900
 C884 C 0.61224 0.27083 0.59383
 C885 C 0.61887 0.28868 0.63134
 H886 H 0.62912 0.24521 0.58038
 H887 H 0.58581 0.33578 0.66391
 H888 H 0.53771 0.33815 0.60411
 N889 N 0.92771 0.20462 0.14343
 N890 N 0.95233 0.19926 0.11178
 C891 C 0.94068 0.22621 0.08239
 C892 C 0.90707 0.24946 0.09560
 C893 C 0.89996 0.23488 0.13446
 H894 H 0.89073 0.27411 0.07958
 H895 H 0.92986 0.18767 0.17050
 H896 H 0.97730 0.17834 0.11089
 N897 N 0.40192 0.65645 0.64935
 N898 N 0.43038 0.65987 0.62050
 C899 C 0.41906 0.69093 0.59506
 C900 C 0.38136 0.70744 0.60773
 C901 C 0.37169 0.68476 0.64228
 H902 H 0.36495 0.73418 0.59542
 H903 H 0.40391 0.63594 0.67401
 H904 H 0.45812 0.64277 0.61968
 N905 N 0.17171 0.07079 0.83777
 N906 N 0.17200 0.04593 0.86991
 C907 C 0.20107 0.05972 0.89611
 C908 C 0.21956 0.09524 0.88041
 C909 C 0.20010 0.10110 0.84341
 H910 H 0.24520 0.11288 0.89299
 H911 H 0.15295 0.06653 0.81224
 H912 H 0.15402 0.01895 0.87284
 N913 N 0.66849 0.60956 0.37505
 N914 N 0.66834 0.57997 0.40308
 C915 C 0.70031 0.58670 0.42872
 C916 C 0.72122 0.62263 0.41708
 C917 C 0.70010 0.63597 0.38281
 H918 H 0.74961 0.63534 0.42977
 H919 H 0.64810 0.61080 0.35035
 H920 H 0.64803 0.55454 0.40328
 N921 N 0.80379 0.16666 0.08486
 N922 N 0.80793 0.13165 0.06084
 C923 C 0.77595 0.10598 0.06970
 C924 C 0.75122 0.12331 0.09997
 C925 C 0.77001 0.16122 0.10857
 H926 H 0.72393 0.10987 0.11430
 H927 H 0.82494 0.19139 0.08550
 H928 H 0.83150 0.12728 0.03942
 N929 N 0.19150 0.55864 0.64746
 N930 N 0.19400 0.53376 0.61581
 C931 C 0.22243 0.54934 0.58970
 C932 C 0.23844 0.58600 0.60520
 C933 C 0.21791 0.59080 0.64185
 H934 H 0.26203 0.60603 0.59196
 H935 H 0.17179 0.55371 0.67225
 H936 H 0.17711 0.50616 0.61267
 N937 N 0.73382 0.83406 0.94681
 N938 N 0.73149 0.86606 0.97134
 C939 C 0.74993 0.89884 0.95334
 C940 C 0.76458 0.88753 0.91531
 C941 C 0.75334 0.84595 0.91238
 H942 H 0.77997 0.90688 0.89287
 H943 H 0.72096 0.80486 0.95327
 H944 H 0.71770 0.86523 1.00002
 N945 N 0.32935 0.42155 0.33655
 N946 N 0.32704 0.44690 0.36786
 C947 C 0.29888 0.43158 0.39441
 C948 C 0.28308 0.39452 0.37970
 C949 C 0.30326 0.38929 0.34297
 H950 H 0.25909 0.37503 0.39301
 H951 H 0.34813 0.42663 0.31110
 H952 H 0.34339 0.47491 0.37020
 N953 N 0.30912 0.91962 0.14289
 N954 N 0.30848 0.94415 0.11052
 C955 C 0.27853 0.93066 0.08514
 C956 C 0.25958 0.89575 0.10178
 C957 C 0.27990 0.88986 0.13840
 H958 H 0.23380 0.87800 0.08962
 H959 H 0.32920 0.92333 0.16754
 H960 H 0.32731 0.97042 0.10665
 N961 N 0.81552 0.39452 0.63655
 N962 N 0.81312 0.42539 0.61003
 C963 C 0.77765 0.42114 0.58858
 C964 C 0.75687 0.38547 0.60137
 C965 C 0.78202 0.36968 0.63198
 H966 H 0.72651 0.37439 0.59191
 H967 H 0.83905 0.39139 0.65831
 H968 H 0.83459 0.44979 0.60797
 N969 N 0.05796 0.15112 0.69067
 N970 N 0.02952 0.12134 0.69303
 C971 C 0.04398 0.09090 0.71764
 C972 C 0.08342 0.10128 0.73107
 C973 C 0.09126 0.13956 0.71304
 H974 H 0.10420 0.08279 0.74985
 H975 H 0.05516 0.17799 0.67283
 H976 H 0.00099 0.12173 0.67767
 N977 N 0.56054 0.69467 0.23086
 N978 N 0.53373 0.66381 0.22583
 C979 C 0.54876 0.62953 0.24461
 C980 C 0.58691 0.63869 0.26189
 C981 C 0.59348 0.68023 0.25216
 H982 H 0.60842 0.61727 0.27646
 H983 H 0.55744 0.72423 0.21776
 H984 H 0.50642 0.66588 0.20861
 N985 N 0.17338 0.94302 0.30299
 N986 N 0.14214 0.96992 0.30532
 C987 C 0.11321 0.95966 0.27752
 C988 C 0.12622 0.92477 0.25690
 C989 C 0.16438 0.91503 0.27406
 H990 H 0.10922 0.90754 0.23417
 H991 H 0.19923 0.94263 0.32231
 H992 H 0.14055 0.99442 0.32588
 N993 N 0.66626 0.42939 0.72541
 N994 N 0.63365 0.45474 0.72533
 C995 C 0.60588 0.44072 0.75288
 C996 C 0.62117 0.40507 0.77109
 C997 C 0.65929 0.39859 0.75256
 H998 H 0.60491 0.38437 0.79178
 H999 H 0.69111 0.43139 0.70500
 H1000 H 0.62982 0.48001 0.70554
 N1001 N 0.83868 0.08744 0.21247
 N1002 N 0.86847 0.05891 0.21309
 C1003 C 0.89734 0.07008 0.24057
 C1004 C 0.88590 0.10747 0.25785
 C1005 C 0.84860 0.11755 0.23902
 H1006 H 0.90338 0.12582 0.27937
 H1007 H 0.81316 0.08723 0.19274
 H1008 H 0.86922 0.03271 0.19456
 N1009 N 0.31746 0.54280 0.80353
 N1010 N 0.34848 0.51559 0.80580
 C1011 C 0.37905 0.52812 0.78049
 C1012 C 0.36742 0.56494 0.76175
 C1013 C 0.32832 0.57334 0.77733
 H1014 H 0.38568 0.58397 0.74113
 H1015 H 0.29026 0.54133 0.82093
 H1016 H 0.34879 0.48932 0.82468
 N1017 N 0.92605 0.81428 0.79026
 N1018 N 0.95389 0.84420 0.78485
 C1019 C 0.93553 0.87610 0.76492
 C1020 C 0.89403 0.86659 0.75802
 C1021 C 0.88927 0.82714 0.77478
 H1022 H 0.87040 0.88607 0.74402
 H1023 H 0.93193 0.78618 0.80539
 H1024 H 0.98477 0.84285 0.79497
 N1025 N 0.45499 0.33541 0.23813
 N1026 N 0.48135 0.36696 0.24082
 C1027 C 0.46365 0.40093 0.22384
 C1028 C 0.42417 0.39081 0.21017
 C1029 C 0.41967 0.34899 0.22014
 H1030 H 0.40060 0.41182 0.19834
 H1031 H 0.46009 0.30599 0.25094
 H1032 H 0.51015 0.36561 0.25566
   
