data_POSCAR
  _audit_creation_date              2014-09-24
  _audit_creation_method            'ToBaCCo'
  _symmetry_space_group_name_H-M    'P1'
  _symmetry_Int_Tables_number       1
  _symmetry_cell_setting            triclinic
  loop_
  _symmetry_equiv_pos_as_xyz
 x,y,z
_cell_length_a 31.9349
_cell_length_b 32.5644
_cell_length_c 32.1572
_cell_angle_alpha 87.367400
_cell_angle_beta 92.736600
_cell_angle_gamma 91.509100
loop_
  _atom_site_label
  _atom_site_type_symbol
  _atom_site_fract_x
  _atom_site_fract_y
  _atom_site_fract_z
C1 C 0.21882 0.26961 0.28710
 C2 C 0.24583 0.29447 0.25617
 C3 C 0.26947 0.27111 0.23272
 C4 C 0.26356 0.22458 0.24209
 C5 C 0.19279 0.23994 0.26024
 C6 C 0.21589 0.21656 0.23636
 C7 C 0.24989 0.24244 0.31257
 C8 C 0.27333 0.21860 0.28939
 H9 H 0.24668 0.32775 0.25345
 H10 H 0.28185 0.20505 0.22283
 H11 H 0.15882 0.23876 0.25918
 H12 H 0.25289 0.24225 0.34628
 C13 C 0.71681 0.77197 0.27175
 C14 C 0.74301 0.79802 0.24116
 C15 C 0.76771 0.77568 0.21770
 C16 C 0.76351 0.72890 0.22673
 C17 C 0.69208 0.74171 0.24445
 C18 C 0.71617 0.71902 0.22079
 C19 C 0.74874 0.74581 0.29717
 C20 C 0.77327 0.72308 0.27401
 H21 H 0.74252 0.83127 0.23867
 H22 H 0.78320 0.71072 0.20755
 H23 H 0.65817 0.73900 0.24366
 H24 H 0.75166 0.74568 0.33089
 C25 C 0.71946 0.29443 0.76359
 C26 C 0.74705 0.31729 0.73582
 C27 C 0.77323 0.29226 0.71291
 C28 C 0.76657 0.24826 0.72249
 C29 C 0.69471 0.26424 0.73618
 C30 C 0.71911 0.24000 0.71445
 C31 C 0.74873 0.26710 0.79152
 C32 C 0.77365 0.24290 0.77023
 H33 H 0.74860 0.35059 0.73371
 H34 H 0.78532 0.22737 0.70544
 H35 H 0.66076 0.26214 0.73448
 H36 H 0.75019 0.26743 0.82522
 C37 C 0.21933 0.78643 0.78695
 C38 C 0.24364 0.81430 0.75631
 C39 C 0.26931 0.79395 0.73216
 C40 C 0.26875 0.74718 0.74112
 C41 C 0.19656 0.75469 0.75982
 C42 C 0.22211 0.73421 0.73555
 C43 C 0.25319 0.76229 0.81200
 C44 C 0.27896 0.74127 0.78840
 H45 H 0.24150 0.84744 0.75461
 H46 H 0.28962 0.73068 0.72147
 H47 H 0.16287 0.74968 0.75928
 H48 H 0.25534 0.76078 0.84575
 C49 C 0.05489 0.06025 0.02528
 H50 H 0.05761 0.06903 -0.00722
 C51 C 0.07814 0.08211 0.05521
 H52 H 0.09914 0.10690 0.04521
 C53 C 0.02205 0.01982 0.07799
 H54 H -0.00048 -0.00368 0.08713
 C55 C 0.04443 0.04107 0.10892
 H56 H 0.03953 0.03258 0.14129
 N57 N 0.02770 0.02942 0.03694
 C58 C 0.02366 -0.06736 -0.04437
 H59 H -0.00005 -0.08440 -0.02750
 C60 C 0.04888 -0.08808 -0.07049
 H61 H 0.04430 -0.12095 -0.07307
 C62 C 0.05745 -0.00401 -0.06260
 H63 H 0.06012 0.02887 -0.06037
 C64 C 0.08348 -0.02347 -0.08878
 H65 H 0.10689 -0.00499 -0.10470
 Zn66 Zn -0.00567 0.00242 -0.00504
 N67 N 0.02859 -0.02604 -0.04054
 C68 C -0.04249 0.04077 -0.07858
 N69 N -0.03584 0.04308 -0.03666
 C70 C -0.05295 0.07317 -0.01550
 C71 C -0.07883 0.10197 -0.03638
 C72 C -0.06826 0.06902 -0.10075
 C73 C -0.03143 -0.06618 0.04651
 C74 C -0.06011 -0.09053 0.06881
 C75 C -0.11626 -0.05133 0.03510
 C76 C -0.08657 -0.02771 0.01359
 N77 N -0.04494 -0.03463 0.02047
 H78 H -0.02886 0.01629 -0.09463
 H79 H -0.04715 0.07421 0.01785
 H80 H -0.09189 0.12569 -0.01878
 H81 H -0.07409 0.06614 -0.13395
 H82 H 0.00182 -0.07140 0.05118
 H83 H -0.04861 -0.11441 0.09064
 H84 H -0.14913 -0.04491 0.02918
 H85 H -0.09695 -0.00325 -0.00796
 C86 C 0.07931 -0.06615 -0.09327
 C87 C 0.07268 0.07296 0.09767
 C88 C -0.10309 -0.08238 0.06421
 C89 C -0.08758 0.09959 -0.07948
 C90 C 0.08025 0.56078 0.52684
 H91 H 0.08461 0.56848 0.49436
 C92 C 0.10241 0.58338 0.55694
 H93 H 0.12415 0.60756 0.54703
 C94 C 0.04420 0.52285 0.57913
 H95 H 0.02091 0.49997 0.58799
 C96 C 0.06569 0.54464 0.61021
 H97 H 0.05926 0.53710 0.64243
 N98 N 0.05130 0.53144 0.53820
 C99 C 0.04016 0.43307 0.45715
 H100 H 0.01462 0.41807 0.47312
 C101 C 0.06347 0.41045 0.43093
 H102 H 0.05574 0.37815 0.42767
 C103 C 0.07976 0.49342 0.44030
 H104 H 0.08540 0.52596 0.44302
 C105 C 0.10405 0.47198 0.41406
 H106 H 0.12910 0.48851 0.39860
 Zn107 Zn 0.01663 0.50510 0.49660
 N108 N 0.04895 0.47376 0.46182
 C109 C -0.03340 0.53341 0.42780
 N110 N -0.01159 0.54554 0.46265
 C111 C -0.01259 0.58496 0.47471
 C112 C -0.03718 0.61368 0.45203
 C113 C -0.05870 0.56108 0.40435
 C114 C -0.01325 0.43740 0.54734
 C115 C -0.04288 0.41536 0.57067
 C116 C -0.09533 0.46317 0.54427
 C117 C -0.06489 0.48404 0.52124
 N118 N -0.02455 0.47136 0.52356
 H119 H -0.03225 0.50177 0.41909
 H120 H 0.00452 0.59393 0.50275
 H121 H -0.03725 0.64481 0.46237
 H122 H -0.07692 0.55042 0.37752
 H123 H 0.01914 0.42825 0.54930
 H124 H -0.03315 0.38908 0.59029
 H125 H -0.12711 0.47413 0.54221
 H126 H -0.07339 0.51126 0.50264
 C127 C 0.09597 0.42982 0.40882
 C128 C 0.09451 0.57614 0.59923
 C129 C -0.08428 0.42888 0.57010
 C130 C -0.06171 0.60160 0.41698
 C131 C 0.57501 0.04697 0.52393
 H132 H 0.58021 0.04938 0.49101
 C133 C 0.59624 0.07413 0.55049
 H134 H 0.61781 0.09701 0.53761
 C135 C 0.53911 0.01595 0.58042
 H136 H 0.51590 -0.00579 0.59199
 C137 C 0.55952 0.04253 0.60800
 H138 H 0.55269 0.03963 0.64066
 N139 N 0.54690 0.01865 0.53913
 C140 C 0.55233 -0.08153 0.46739
 H141 H 0.53649 -0.09981 0.49092
 C142 C 0.57691 -0.10103 0.43989
 H143 H 0.57983 -0.13407 0.44332
 C144 C 0.56712 -0.01681 0.43419
 H145 H 0.56219 0.01591 0.43130
 C146 C 0.59165 -0.03510 0.40566
 H147 H 0.60507 -0.01566 0.38139
 Zn148 Zn 0.51389 -0.01409 0.50178
 N149 N 0.54819 -0.04005 0.46446
 C150 C 0.46639 0.01749 0.43031
 N151 N 0.47623 0.02133 0.47160
 C152 C 0.45841 0.05036 0.49359
 C153 C 0.42937 0.07704 0.47417
 C154 C 0.43740 0.04364 0.40958
 C155 C 0.50168 -0.08036 0.56116
 C156 C 0.47824 -0.10797 0.58588
 C157 C 0.41514 -0.08210 0.55075
 C158 C 0.43973 -0.05509 0.52675
 N159 N 0.48217 -0.05422 0.53267
 H160 H 0.48047 -0.00624 0.41358
 H161 H 0.46673 0.05269 0.52641
 H162 H 0.41634 0.10034 0.49233
 H163 H 0.42958 0.03994 0.37680
 H164 H 0.53548 -0.07890 0.56554
 H165 H 0.49445 -0.12717 0.60946
 H166 H 0.38136 -0.08172 0.54590
 H167 H 0.42471 -0.03438 0.50381
 C168 C 0.59723 -0.07791 0.40843
 C169 C 0.58794 0.07270 0.59301
 C170 C 0.43423 -0.10875 0.58112
 C171 C 0.41809 0.07361 0.43166
 C172 C 0.56339 0.53897 0.02294
 H173 H 0.56911 0.54179 -0.00988
 C174 C 0.58675 0.56341 0.05071
 H175 H 0.61048 0.58464 0.03887
 C176 C 0.52390 0.51003 0.07792
 H177 H 0.49846 0.49047 0.08854
 C178 C 0.54650 0.53370 0.10666
 H179 H 0.53898 0.53045 0.13912
 N180 N 0.53236 0.51312 0.03681
 C181 C 0.52729 0.41173 -0.03230
 H182 H 0.50684 0.39653 -0.01044
 C183 C 0.55294 0.38803 -0.05506
 H184 H 0.55195 0.35488 -0.05030
 C185 C 0.55327 0.47289 -0.06567
 H186 H 0.55317 0.50600 -0.06981
 C187 C 0.57880 0.45022 -0.08984
 H188 H 0.59866 0.46607 -0.11209
 Zn189 Zn 0.49654 0.48519 -0.00231
 N190 N 0.52859 0.45349 -0.03708
 C191 C 0.45835 0.52493 -0.07581
 N192 N 0.46642 0.52604 -0.03394
 C193 C 0.45134 0.55631 -0.01154
 C194 C 0.42633 0.58662 -0.03090
 C195 C 0.43329 0.55483 -0.09656
 C196 C 0.47101 0.42184 0.05592
 C197 C 0.44247 0.39914 0.07994
 C198 C 0.38606 0.43536 0.04298
 C199 C 0.41562 0.45720 0.01955
 N200 N 0.45730 0.45082 0.02690
 H201 H 0.47035 0.50032 -0.09293
 H202 H 0.45823 0.55646 0.02171
 H203 H 0.41498 0.61044 -0.01225
 H204 H 0.42627 0.55309 -0.12972
 H205 H 0.50430 0.41733 0.06139
 H206 H 0.45408 0.37712 0.10372
 H207 H 0.35311 0.44121 0.03666
 H208 H 0.40512 0.47976 -0.00407
 C209 C 0.57949 0.40733 -0.08384
 C210 C 0.57771 0.56167 0.09306
 C211 C 0.39943 0.40654 0.07433
 C212 C 0.41619 0.58569 -0.07384
 C213 C 0.15841 -0.12943 -0.17004
 C214 C 0.13756 -0.15036 -0.13775
 N215 N 0.14299 -0.19136 -0.13073
 C216 C 0.16861 -0.21231 -0.15445
 C217 C 0.19025 -0.19126 -0.18642
 N218 N 0.18420 -0.15021 -0.19342
 N219 N 0.15246 -0.08867 -0.17763
 C220 C 0.12697 -0.06760 -0.15403
 C221 C 0.10662 -0.08811 -0.12075
 N222 N 0.11234 -0.12930 -0.11388
 H223 H 0.17233 -0.24500 -0.14832
 H224 H 0.12244 -0.03535 -0.16182
 C225 C 0.16814 0.35972 0.33136
 C226 C 0.14474 0.34063 0.36290
 N227 N 0.14522 0.29912 0.36897
 C228 C 0.16830 0.27583 0.34500
 C229 C 0.19241 0.29488 0.31369
 N230 N 0.19143 0.33655 0.30764
 N231 N 0.16711 0.40111 0.32483
 C232 C 0.14408 0.42448 0.34873
 C233 C 0.12111 0.40567 0.38118
 N234 N 0.12196 0.36393 0.38700
 H235 H 0.16813 0.24278 0.35042
 H236 H 0.14347 0.45723 0.34178
 C237 C 0.66992 -0.14119 0.32533
 C238 C 0.64205 -0.16235 0.35151
 N239 N 0.63856 -0.20393 0.35116
 C240 C 0.66179 -0.22539 0.32572
 C241 C 0.68966 -0.20436 0.29907
 N242 N 0.69302 -0.16256 0.29972
 N243 N 0.67400 -0.09969 0.32650
 C244 C 0.65133 -0.07825 0.35257
 C245 C 0.62284 -0.09929 0.37880
 N246 N 0.61931 -0.14103 0.37735
 H247 H 0.65876 -0.25859 0.32637
 H248 H 0.65639 -0.04538 0.35301
 C249 C 0.66172 0.33689 -0.14946
 C250 C 0.63821 0.36799 -0.17031
 N251 N 0.64119 0.37466 -0.21206
 C252 C 0.66678 0.35173 -0.23389
 C253 C 0.69120 0.32108 -0.21297
 N254 N 0.68764 0.31443 -0.17112
 N255 N 0.65795 0.32930 -0.10797
 C256 C 0.63162 0.35139 -0.08627
 C257 C 0.60820 0.38286 -0.10688
 N258 N 0.61228 0.39052 -0.14855
 H259 H 0.66818 0.35736 -0.26724
 H260 H 0.62940 0.34482 -0.05314
 C261 C -0.17321 0.17942 -0.14504
 C262 C -0.13995 0.16304 -0.16525
 N263 N -0.13520 0.17290 -0.20626
 C264 C -0.16234 0.19832 -0.22806
 C265 C -0.19599 0.21468 -0.20794
 N266 N -0.20025 0.20469 -0.16671
 N267 N -0.17809 0.16971 -0.10409
 C268 C -0.15103 0.14444 -0.08222
 C269 C -0.11727 0.12799 -0.10216
 N270 N -0.11287 0.13768 -0.14349
 H271 H -0.15693 0.20605 -0.26040
 H272 H -0.15653 0.13668 -0.04985
 C273 C -0.15072 0.67978 0.35415
 C274 C -0.13304 0.64801 0.33350
 N275 N -0.14573 0.64135 0.29340
 C276 C -0.17539 0.66506 0.27302
 C277 C -0.19341 0.69691 0.29378
 N278 N -0.18034 0.70324 0.33398
 N279 N -0.13872 0.68619 0.39435
 C280 C -0.10970 0.66220 0.41506
 C281 C -0.09168 0.63004 0.39464
 N282 N -0.10413 0.62382 0.35416
 H283 H -0.18524 0.65825 0.24143
 H284 H -0.10200 0.66760 0.44746
 C285 C 0.32916 0.15302 0.37057
 C286 C 0.36108 0.13656 0.34852
 N287 N 0.36386 0.14678 0.30731
 C288 C 0.33613 0.17276 0.28713
 C289 C 0.30407 0.18952 0.30922
 N290 N 0.30165 0.17898 0.35056
 N291 N 0.32616 0.14290 0.41170
 C292 C 0.35397 0.11730 0.43202
 C293 C 0.38665 0.10109 0.41031
 N294 N 0.38902 0.11101 0.36878
 H295 H 0.33986 0.18060 0.25453
 H296 H 0.35009 0.10936 0.46465
 C297 C 0.33268 0.67200 -0.13239
 C298 C 0.36505 0.65635 -0.15446
 N299 N 0.36951 0.66921 -0.19484
 C300 C 0.34285 0.69679 -0.21422
 C301 C 0.31003 0.71228 -0.19220
 N302 N 0.30616 0.69935 -0.15166
 N303 N 0.32786 0.65928 -0.09217
 C304 C 0.35418 0.63170 -0.07273
 C305 C 0.38711 0.61598 -0.09444
 N306 N 0.39147 0.62863 -0.13511
 H307 H 0.34775 0.70663 -0.24619
 H308 H 0.34880 0.62167 -0.04086
 C309 C -0.18731 -0.14570 0.14423
 C310 C -0.15109 -0.16461 0.13235
 N311 N -0.14225 -0.20306 0.14783
 C312 C -0.16801 -0.22347 0.17476
 C313 C -0.20423 -0.20442 0.18705
 N314 N -0.21278 -0.16585 0.17129
 N315 N -0.19603 -0.10714 0.12925
 C316 C -0.17009 -0.08644 0.10287
 C317 C -0.13343 -0.10506 0.09090
 N318 N -0.12491 -0.14386 0.10623
 H319 H -0.15943 -0.25364 0.18718
 H320 H -0.17755 -0.05532 0.09254
 C321 C -0.17106 0.37057 0.65060
 C322 C -0.14154 0.34758 0.63156
 N323 N -0.14073 0.30630 0.63932
 C324 C -0.16809 0.28687 0.66529
 C325 C -0.19779 0.30991 0.68501
 N326 N -0.19804 0.35137 0.67679
 N327 N -0.17222 0.41181 0.64285
 C328 C -0.14511 0.43119 0.61674
 C329 C -0.11515 0.40835 0.59758
 N330 N -0.11406 0.36691 0.60576
 H331 H -0.16554 0.25410 0.67056
 H332 H -0.14639 0.46423 0.61183
 C333 C 0.35764 -0.17894 0.66383
 C334 C 0.34361 -0.14248 0.64348
 N335 N 0.30538 -0.12829 0.65120
 C336 C 0.28063 -0.14857 0.67892
 C337 C 0.29477 -0.18474 0.70019
 N338 N 0.33291 -0.19936 0.69164
 N339 N 0.39614 -0.19276 0.65605
 C340 C 0.42143 -0.17149 0.62924
 C341 C 0.40766 -0.13448 0.60926
 N342 N 0.36876 -0.12133 0.61687
 H343 H 0.25016 -0.13654 0.68411
 H344 H 0.45173 -0.18359 0.62353
 C345 C 0.31525 0.34719 0.15706
 C346 C 0.35083 0.32715 0.14525
 N347 N 0.35889 0.28876 0.16141
 C348 C 0.33302 0.26952 0.18899
 C349 C 0.29756 0.28976 0.20137
 N350 N 0.28972 0.32824 0.18488
 N351 N 0.30714 0.38558 0.14112
 C352 C 0.33309 0.40500 0.11386
 C353 C 0.36917 0.38529 0.10210
 N354 N 0.37709 0.34668 0.11835
 H355 H 0.34087 0.23931 0.20180
 H356 H 0.32614 0.43598 0.10255
 C357 C 0.13669 0.14644 0.18699
 C358 C 0.15548 0.13752 0.15003
 N359 N 0.19416 0.15356 0.14233
 C360 C 0.21489 0.17827 0.16989
 C361 C 0.19590 0.18776 0.20675
 N362 N 0.15711 0.17145 0.21422
 N363 N 0.09797 0.13064 0.19468
 C364 C 0.07701 0.10632 0.16701
 C365 C 0.09545 0.09756 0.12958
 N366 N 0.13440 0.11361 0.12212
 H367 H 0.24520 0.19131 0.16227
 H368 H 0.04581 0.09500 0.17375
 C369 C 0.15035 0.65655 0.68721
 C370 C 0.17095 0.64788 0.65124
 N371 N 0.20843 0.66675 0.64373
 C372 C 0.22621 0.69403 0.67056
 C373 C 0.20538 0.70318 0.70650
 N374 N 0.16783 0.68400 0.71375
 N375 N 0.11269 0.63815 0.69459
 C376 C 0.09449 0.61147 0.66750
 C377 C 0.11476 0.60282 0.63101
 N378 N 0.15266 0.62151 0.62391
 H379 H 0.25558 0.70918 0.66305
 H380 H 0.06390 0.59836 0.67391
 C381 C 0.64389 0.16244 0.67103
 C382 C 0.66503 0.14878 0.63723
 N383 N 0.70356 0.16498 0.62914
 C384 C 0.72200 0.19416 0.65342
 C385 C 0.70082 0.20798 0.68735
 N386 N 0.66209 0.19168 0.69506
 N387 N 0.60533 0.14651 0.67912
 C388 C 0.58685 0.11737 0.65498
 C389 C 0.60782 0.10342 0.62091
 N390 N 0.64650 0.11984 0.61286
 H391 H 0.75236 0.20691 0.64561
 H392 H 0.55567 0.10608 0.66185
 C393 C 0.63825 0.64559 0.17468
 C394 C 0.65896 0.63169 0.14076
 N395 N 0.69842 0.64605 0.13362
 C396 C 0.71809 0.67373 0.15890
 C397 C 0.69724 0.68792 0.19290
 N398 N 0.65769 0.67327 0.19968
 N399 N 0.59873 0.63178 0.18177
 C400 C 0.57882 0.60450 0.15647
 C401 C 0.59932 0.59023 0.12224
 N402 N 0.63904 0.60453 0.11521
 H403 H 0.74912 0.68506 0.15171
 H404 H 0.54690 0.59508 0.16255
   
