data_POSCAR
  _audit_creation_date              2014-09-24
  _audit_creation_method            'ToBaCCo'
  _symmetry_space_group_name_H-M    'P1'
  _symmetry_Int_Tables_number       1
  _symmetry_cell_setting            triclinic
  loop_
  _symmetry_equiv_pos_as_xyz
 x,y,z
_cell_length_a 27.7382
_cell_length_b 27.7421
_cell_length_c 45.4388
_cell_angle_alpha 89.914500
_cell_angle_beta 90.458000
_cell_angle_gamma 89.995900
loop_
  _atom_site_label
  _atom_site_type_symbol
  _atom_site_fract_x
  _atom_site_fract_y
  _atom_site_fract_z
O1 O -0.04037 0.45318 1.02775
 O2 O -0.03941 0.54736 0.97046
 O3 O -0.03988 0.45334 0.97053
 O4 O -0.04084 0.54717 1.02771
 O5 O 0.03889 0.54725 1.02862
 O6 O 0.03985 0.45325 0.97139
 O7 O 0.04031 0.54728 0.97137
 O8 O 0.03936 0.45325 1.02861
 Cu9 Cu -0.04817 0.50028 0.99902
 Cu10 Cu 0.04764 0.50027 1.00008
 C11 C -0.00062 0.43719 1.03776
 C12 C 0.00065 0.56333 0.96132
 C13 C 0.00011 0.43728 0.96140
 C14 C -0.00118 0.56316 1.03776
 O15 O 0.45450 0.04149 0.52842
 O16 O 0.54705 0.04156 0.47066
 O17 O 0.45302 0.04203 0.47117
 O18 O 0.54851 0.04198 0.52790
 O19 O 0.54860 -0.03774 0.52796
 O20 O 0.45295 -0.03769 0.47119
 O21 O 0.54698 -0.03815 0.47072
 O22 O 0.45460 -0.03822 0.52843
 Cu23 Cu 0.50077 0.04981 0.49953
 Cu24 Cu 0.50078 -0.04599 0.49958
 C25 C 0.43882 0.00158 0.53810
 C26 C 0.56277 0.00168 0.46102
 C27 C 0.43672 0.00222 0.46169
 C28 C 0.56480 0.00214 0.53744
 C29 C 0.09451 0.00421 0.26235
 H30 H 0.09719 0.00477 0.23861
 C31 C 0.13628 0.00548 0.27972
 H32 H 0.17131 0.00687 0.26939
 C33 C 0.04564 0.00198 0.30493
 H34 H 0.01033 0.00128 0.31473
 C35 C 0.08646 0.00323 0.32309
 H36 H 0.08242 0.00298 0.34679
 N37 N 0.05035 0.00170 0.27513
 C38 C -0.04336 -0.06613 0.20958
 H39 H -0.07268 -0.04043 0.20887
 C40 C -0.04489 -0.10707 0.19174
 H41 H -0.07540 -0.11293 0.17715
 C42 C 0.03239 -0.08994 0.22937
 H43 H 0.06221 -0.08348 0.24425
 C44 C 0.03226 -0.13135 0.21191
 H45 H 0.06223 -0.15634 0.21318
 Zn46 Zn -0.00469 -0.00060 0.25018
 N47 N -0.00469 -0.05788 0.22750
 C48 C -0.00244 0.04919 0.19546
 N49 N -0.00260 0.05421 0.22526
 C50 C -0.00005 0.09850 0.23805
 C51 C 0.00116 0.14008 0.22067
 C52 C -0.00124 0.08981 0.17730
 C53 C -0.06990 -0.03899 0.29065
 C54 C -0.11075 -0.04046 0.30840
 C55 C -0.13527 0.03650 0.28828
 C56 C -0.09394 0.03657 0.27091
 N57 N -0.06180 -0.00044 0.27279
 H58 H -0.00315 0.01378 0.18566
 H59 H 0.00061 0.10143 0.26179
 H60 H 0.00261 0.17522 0.23101
 H61 H -0.00156 0.08551 0.15361
 H62 H -0.04415 -0.06827 0.29137
 H63 H -0.11649 -0.07088 0.32293
 H64 H -0.16031 0.06641 0.28699
 H65 H -0.08760 0.06628 0.25608
 C66 C -0.00653 -0.13974 0.19276
 C67 C 0.13217 0.00468 0.31037
 C68 C -0.14351 -0.00217 0.30736
 C69 C 0.00027 0.13564 0.19002
 C70 C -0.00013 0.09799 0.76212
 H71 H -0.00069 0.10088 0.73837
 C72 C -0.00139 0.13962 0.77938
 H73 H -0.00278 0.17473 0.76895
 C74 C 0.00208 0.04878 0.80484
 H75 H 0.00275 0.01339 0.81474
 C76 C 0.00083 0.08944 0.82289
 H77 H 0.00106 0.08520 0.84660
 N78 N 0.00236 0.05374 0.77503
 C79 C 0.06995 -0.03959 0.70999
 H80 H 0.04420 -0.06887 0.70931
 C81 C 0.11083 -0.04107 0.69228
 H82 H 0.11661 -0.07150 0.67781
 C83 C 0.09390 0.03600 0.72957
 H84 H 0.08751 0.06574 0.74432
 C85 C 0.13526 0.03593 0.71223
 H86 H 0.16028 0.06586 0.71346
 Zn87 Zn 0.00455 -0.00110 0.75024
 N88 N 0.06179 -0.00101 0.72775
 C89 C -0.04538 0.00156 0.69536
 N90 N -0.05032 0.00123 0.72515
 C91 C -0.09458 0.00374 0.73780
 C92 C -0.13622 0.00504 0.72030
 C93 C -0.08606 0.00285 0.67708
 C94 C 0.04292 -0.06669 0.79105
 C95 C 0.04436 -0.10769 0.80890
 C96 C -0.03264 -0.13194 0.78856
 C97 C -0.03268 -0.09046 0.77109
 N98 N 0.00437 -0.05839 0.77302
 H99 H -0.01000 0.00087 0.68567
 H100 H -0.09745 0.00427 0.76153
 H101 H -0.17133 0.00643 0.73053
 H102 H -0.08183 0.00263 0.65340
 H103 H 0.07223 -0.04098 0.79182
 H104 H 0.07479 -0.11360 0.82357
 H105 H -0.06258 -0.15694 0.78721
 H106 H -0.06239 -0.08396 0.75612
 C107 C 0.14355 -0.00275 0.69324
 C108 C -0.00061 0.13524 0.81005
 C109 C 0.00603 -0.14039 0.80780
 C110 C -0.13186 0.00429 0.68966
 C111 C -0.00343 -0.32951 0.09884
 N112 N -0.04585 -0.30867 0.10627
 N113 N -0.04672 -0.27221 0.12533
 C114 C -0.00520 -0.25551 0.13753
 N115 N 0.03721 -0.27639 0.13013
 N116 N 0.03809 -0.31285 0.11107
 C117 C -0.00240 -0.36785 0.07769
 C118 C -0.00171 -0.39960 0.05962
 C119 C -0.00598 -0.21532 0.15736
 C120 C -0.00640 -0.18111 0.17369
 C121 C -0.00038 0.32882 0.09837
 N122 N -0.04238 0.31000 0.10825
 N123 N -0.04205 0.27296 0.12696
 C124 C 0.00028 0.25361 0.13635
 N125 N 0.04228 0.27247 0.12649
 N126 N 0.04195 0.30952 0.10778
 C127 C -0.00072 0.36763 0.07745
 C128 C -0.00082 0.39970 0.05952
 C129 C 0.00056 0.21269 0.15570
 C130 C 0.00059 0.17782 0.17156
 C131 C 0.33260 0.00010 0.59950
 N132 N 0.31430 0.04186 0.61015
 N133 N 0.27804 0.04111 0.62922
 C134 C 0.25900 -0.00141 0.63821
 N135 N 0.27735 -0.04317 0.62759
 N136 N 0.31360 -0.04242 0.60852
 C137 C 0.37061 0.00091 0.57827
 C138 C 0.40204 0.00138 0.56010
 C139 C 0.21896 -0.00215 0.65800
 C140 C 0.18484 -0.00257 0.67427
 C141 C -0.32574 0.00321 0.59775
 N142 N -0.30490 0.04551 0.60572
 N143 N -0.26765 0.04599 0.62443
 C144 C -0.25013 0.00419 0.63574
 N145 N -0.27101 -0.03810 0.62780
 N146 N -0.30825 -0.03858 0.60909
 C147 C -0.36486 0.00262 0.57691
 C148 C -0.39725 0.00227 0.55906
 C149 C -0.20907 0.00455 0.65515
 C150 C -0.17412 0.00461 0.67108
 C151 C 0.00282 -0.33094 0.90148
 N152 N -0.03876 -0.31368 0.88962
 N153 N -0.03788 -0.27705 0.87061
 C154 C 0.00460 -0.25658 0.86290
 N155 N 0.04618 -0.27388 0.87474
 N156 N 0.04531 -0.31051 0.89374
 C157 C 0.00181 -0.36943 0.92259
 C158 C 0.00114 -0.40130 0.94066
 C159 C 0.00540 -0.21623 0.84312
 C160 C 0.00585 -0.18189 0.82684
 C161 C -0.00011 0.32880 0.90106
 N162 N -0.04243 0.30935 0.89178
 N163 N -0.04273 0.27221 0.87320
 C164 C -0.00072 0.25342 0.86335
 N165 N 0.04160 0.27292 0.87259
 N166 N 0.04190 0.31005 0.89117
 C167 C 0.00022 0.36768 0.92185
 C168 C 0.00031 0.39978 0.93970
 C169 C -0.00098 0.21241 0.84414
 C170 C -0.00098 0.17748 0.82839
 C171 C -0.33283 0.00043 0.40090
 N172 N -0.31403 -0.04207 0.39175
 N173 N -0.27771 -0.04276 0.37274
 C174 C -0.25908 -0.00095 0.36230
 N175 N -0.27791 0.04155 0.37141
 N176 N -0.31424 0.04224 0.39043
 C177 C -0.37090 0.00116 0.42209
 C178 C -0.40237 0.00155 0.44024
 C179 C -0.21898 -0.00163 0.34255
 C180 C -0.18482 -0.00202 0.32631
 C181 C 0.32690 0.00341 0.40161
 N182 N 0.30609 0.04573 0.39359
 N183 N 0.26867 0.04625 0.37501
 C184 C 0.25093 0.00445 0.36389
 N185 N 0.27177 -0.03786 0.37189
 N186 N 0.30919 -0.03838 0.39047
 C187 C 0.36619 0.00277 0.42234
 C188 C 0.39868 0.00239 0.44012
 C189 C 0.20968 0.00487 0.34464
 C190 C 0.17458 0.00496 0.32882
   
