data_POSCAR
  _audit_creation_date              2014-09-24
  _audit_creation_method            'ToBaCCo'
  _symmetry_space_group_name_H-M    'P1'
  _symmetry_Int_Tables_number       1
  _symmetry_cell_setting            triclinic
  loop_
  _symmetry_equiv_pos_as_xyz
 x,y,z
_cell_length_a 61.3561
_cell_length_b 61.3335
_cell_length_c 36.4571
_cell_angle_alpha 90.031400
_cell_angle_beta 89.959000
_cell_angle_gamma 90.272000
loop_
  _atom_site_label
  _atom_site_type_symbol
  _atom_site_fract_x
  _atom_site_fract_y
  _atom_site_fract_z
C1 C -0.01895 0.26234 0.01633
 C2 C -0.01931 0.26381 -0.02286
 C3 C 0.00076 0.26539 -0.04175
 C4 C 0.02110 0.26352 -0.02397
 C5 C 0.02112 0.26134 0.01493
 C6 C 0.00132 0.26020 0.03399
 H7 H 0.00196 0.25921 0.06369
 H8 H 0.00050 0.26650 -0.07139
 C9 C 0.47936 0.76587 0.52493
 C10 C 0.47956 0.76530 0.48601
 C11 C 0.49974 0.76531 0.46768
 C12 C 0.51964 0.76524 0.48683
 C13 C 0.51925 0.76580 0.52574
 C14 C 0.49916 0.76583 0.54405
 H15 H 0.49894 0.76649 0.57379
 H16 H 0.49995 0.76437 0.43800
 C17 C 1.02002 0.73515 0.02231
 C18 C 1.01907 0.73430 -0.01673
 C19 C 0.99883 0.73438 -0.03455
 C20 C 0.97891 0.73490 -0.01530
 C21 C 0.97982 0.73452 0.02377
 C22 C 1.00008 0.73484 0.04163
 H23 H 1.00006 0.73502 0.07137
 H24 H 0.99887 0.73417 -0.06429
 C25 C 0.52111 0.23443 0.51814
 C26 C 0.52161 0.23547 0.47925
 C27 C 0.50173 0.23579 0.45999
 C28 C 0.48150 0.23566 0.47824
 C29 C 0.48122 0.23450 0.51711
 C30 C 0.50098 0.23422 0.53633
 H31 H 0.50069 0.23313 0.56603
 H32 H 0.50201 0.23713 0.43036
 C33 C 0.73241 -0.02057 0.02782
 C34 C 0.73230 -0.02062 -0.01132
 C35 C 0.73233 -0.00071 -0.03034
 C36 C 0.73333 0.01942 -0.01206
 C37 C 0.73376 0.01954 0.02681
 C38 C 0.73375 -0.00030 0.04594
 H39 H 0.73367 0.00028 0.07567
 H40 H 0.73277 -0.00096 -0.06007
 C41 C 0.23197 0.47906 0.51439
 C42 C 0.23137 0.47977 0.47549
 C43 C 0.23148 0.50003 0.45768
 C44 C 0.23166 0.51976 0.47728
 C45 C 0.23107 0.51907 0.51619
 C46 C 0.23151 0.49879 0.53404
 H47 H 0.23167 0.49844 0.56377
 H48 H 0.23162 0.50039 0.42795
 C49 C 0.26404 1.02070 0.01752
 C50 C 0.26466 1.02043 -0.02182
 C51 C 0.26596 1.00003 -0.03981
 C52 C 0.26485 0.98016 -0.02073
 C53 C 0.26342 0.98060 0.01801
 C54 C 0.26250 1.00066 0.03625
 H55 H 0.26217 1.00048 0.06600
 H56 H 0.26619 0.99946 -0.06951
 C57 C 0.76676 0.51986 0.52424
 C58 C 0.76759 0.52012 0.48534
 C59 C 0.76799 0.50035 0.46615
 C60 C 0.76806 0.48025 0.48434
 C61 C 0.76728 0.47975 0.52324
 C62 C 0.76699 0.49964 0.54252
 H63 H 0.76588 0.49937 0.57218
 H64 H 0.76883 0.50062 0.43643
 O65 O 0.24886 0.21536 0.24526
 O66 O 0.23809 0.26805 0.29014
 O67 O 0.21743 0.24363 0.24308
 O68 O 0.26959 0.24003 0.29249
 O69 O 0.28643 0.25597 0.24604
 O70 O 0.23380 0.26165 0.19831
 O71 O 0.25562 0.28506 0.24550
 O72 O 0.26467 0.23249 0.19899
 Cu73 Cu 0.24186 0.24001 0.27229
 Cu74 Cu 0.26178 0.26050 0.21761
 C75 C 0.25838 0.21497 0.21431
 C76 C 0.24524 0.28550 0.27565
 C77 C 0.21670 0.25345 0.21245
 C78 C 0.28688 0.24733 0.27767
 O79 O 0.75361 0.78516 0.25554
 O80 O 0.76388 0.73272 0.30159
 O81 O 0.78482 0.75645 0.25387
 O82 O 0.73269 0.76104 0.30330
 O83 O 0.71572 0.74491 0.25716
 O84 O 0.76827 0.73819 0.20959
 O85 O 0.74619 0.71556 0.25731
 O86 O 0.73775 0.76774 0.20964
 Cu87 Cu 0.76043 0.76065 0.28306
 Cu88 Cu 0.74032 0.73989 0.22884
 C89 C 0.74410 0.78535 0.22462
 C90 C 0.75653 0.71525 0.28748
 C91 C 0.78546 0.74628 0.22355
 C92 C 0.71535 0.75378 0.28864
 O93 O 0.78790 0.24660 0.24858
 O94 O 0.73572 0.24081 0.29791
 O95 O 0.75732 0.21701 0.25062
 O96 O 0.76661 0.26976 0.29606
 O97 O 0.74900 0.28639 0.25132
 O98 O 0.74068 0.23366 0.20487
 O99 O 0.71862 0.25662 0.25178
 O100 O 0.77097 0.26368 0.20359
 Cu101 Cu 0.76356 0.24179 0.27780
 Cu102 Cu 0.74313 0.26175 0.22329
 C103 C 0.78833 0.25632 0.21783
 C104 C 0.71831 0.24778 0.28326
 C105 C 0.74755 0.21635 0.21994
 C106 C 0.75925 0.28703 0.28156
 O107 O 0.26340 0.76976 0.20537
 O108 O 0.25443 0.71674 0.25043
 O109 O 0.23271 0.74051 0.20364
 O110 O 0.28510 0.74637 0.25206
 O111 O 0.26828 0.76290 0.29783
 O112 O 0.21580 0.75627 0.25009
 O113 O 0.23835 0.73337 0.29686
 O114 O 0.24613 0.78618 0.25077
 Cu115 Cu 0.26057 0.74165 0.22327
 Cu116 Cu 0.24042 0.76139 0.27841
 C117 C 0.25612 0.78696 0.22027
 C118 C 0.24520 0.71610 0.28161
 C119 C 0.21536 0.74744 0.21857
 C120 C 0.28555 0.75552 0.28330
 O121 O 0.71643 0.25161 0.74848
 O122 O 0.76950 0.25869 0.79414
 O123 O 0.74670 0.28174 0.74804
 O124 O 0.73944 0.22940 0.79577
 O125 O 0.75571 0.21229 0.75003
 O126 O 0.76178 0.26466 0.70115
 O127 O 0.78576 0.24255 0.74741
 O128 O 0.73249 0.23399 0.70310
 Cu129 Cu 0.74133 0.25713 0.77611
 Cu130 Cu 0.76060 0.23671 0.72079
 C131 C 0.71543 0.24149 0.71810
 C132 C 0.78662 0.25166 0.77867
 C133 C 0.75527 0.28211 0.71635
 C134 C 0.74661 0.21201 0.78136
 O135 O 0.28121 0.74551 0.74742
 O136 O 0.22816 0.73623 0.79200
 O137 O 0.25166 0.71501 0.74483
 O138 O 0.25739 0.76692 0.79483
 O139 O 0.24214 0.78439 0.74857
 O140 O 0.23457 0.73209 0.70002
 O141 O 0.21191 0.75443 0.74754
 O142 O 0.26483 0.76220 0.70145
 Cu143 Cu 0.25630 0.73922 0.77430
 Cu144 Cu 0.23672 0.75998 0.71980
 C145 C 0.28204 0.75525 0.71673
 C146 C 0.21104 0.74393 0.77754
 C147 C 0.24195 0.71468 0.71408
 C148 C 0.25080 0.78449 0.78020
 O149 O 0.25349 0.28133 0.73918
 O150 O 0.25941 0.22884 0.78687
 O151 O 0.28315 0.25096 0.74013
 O152 O 0.23040 0.25895 0.78582
 O153 O 0.21362 0.24280 0.73951
 O154 O 0.26675 0.23371 0.69457
 O155 O 0.24284 0.21202 0.74101
 O156 O 0.23782 0.26445 0.69251
 Cu157 Cu 0.25835 0.25673 0.76750
 Cu158 Cu 0.23855 0.23659 0.71226
 C159 C 0.24480 0.28179 0.70759
 C160 C 0.25186 0.21157 0.77233
 C161 C 0.28397 0.24096 0.70966
 C162 C 0.21306 0.25211 0.77065
 O163 O 0.73808 0.76806 0.80195
 O164 O 0.74447 0.71561 0.75420
 O165 O 0.76740 0.73824 0.80085
 O166 O 0.71465 0.74589 0.75480
 O167 O 0.73115 0.76314 0.70932
 O168 O 0.78407 0.75467 0.75469
 O169 O 0.76024 0.73260 0.70773
 O170 O 0.75442 0.78501 0.75597
 Cu171 Cu 0.73941 0.74021 0.78245
 Cu172 Cu 0.75920 0.76049 0.72731
 C173 C 0.74536 0.78540 0.78728
 C174 C 0.75330 0.71522 0.72270
 C175 C 0.78468 0.74535 0.78579
 C176 C 0.71391 0.75588 0.72431
 C177 C 0.27030 0.07628 0.08125
 N178 N 0.25972 0.05840 0.09418
 N179 N 0.25794 0.04050 0.07371
 C180 C 0.26638 0.03976 0.03919
 N181 N 0.27780 0.05741 0.02706
 N182 N 0.27956 0.07536 0.04748
 C183 C 0.27072 0.09656 0.10274
 N184 N 0.27962 0.11506 0.08865
 N185 N 0.27880 0.13374 0.10730
 C186 C 0.26904 0.13460 0.14072
 N187 N 0.26031 0.11606 0.15493
 N188 N 0.26111 0.09739 0.13627
 C189 C 0.26711 0.15539 0.16051
 N190 N 0.25706 0.15621 0.19367
 N191 N 0.25451 0.17516 0.21101
 C192 C 0.26188 0.19400 0.19579
 N193 N 0.27204 0.19317 0.16271
 N194 N 0.27460 0.17421 0.14539
 C195 C 0.76067 0.57707 0.58693
 N196 N 0.75241 0.57601 0.55249
 N197 N 0.75407 0.55779 0.53285
 C198 C 0.76444 0.54005 0.54650
 N199 N 0.77230 0.54102 0.58134
 N200 N 0.77043 0.55917 0.60119
 C201 C 0.75955 0.59749 0.60782
 N202 N 0.76261 0.59770 0.64470
 N203 N 0.76177 0.61638 0.66337
 C204 C 0.75813 0.63551 0.64573
 N205 N 0.75517 0.63529 0.60886
 N206 N 0.75576 0.61661 0.59027
 C207 C 0.75734 0.65616 0.66602
 N208 N 0.75952 0.67542 0.64805
 N209 N 0.75856 0.69423 0.66624
 C210 C 0.75515 0.69446 0.70302
 N211 N 0.75291 0.67520 0.72102
 N212 N 0.75412 0.65637 0.70287
 C213 C 0.72851 0.92337 0.09082
 N214 N 0.72158 0.92328 0.05551
 N215 N 0.72254 0.94136 0.03535
 C216 C 0.73067 0.96026 0.04938
 N217 N 0.73686 0.96039 0.08524
 N218 N 0.73594 0.94233 0.10546
 C219 C 0.72896 0.90308 0.11222
 N220 N 0.73731 0.90288 0.14670
 N221 N 0.73882 0.88426 0.16535
 C222 C 0.73205 0.86518 0.15020
 N223 N 0.72355 0.86541 0.11583
 N224 N 0.72205 0.88402 0.09717
 C225 C 0.73457 0.84451 0.17010
 N226 N 0.72801 0.82543 0.15470
 N227 N 0.73091 0.80660 0.17221
 C228 C 0.74050 0.80616 0.20574
 N229 N 0.74700 0.82526 0.22121
 N230 N 0.74409 0.84409 0.20371
 C231 C 0.23740 0.42069 0.57417
 N232 N 0.22780 0.43845 0.58926
 N233 N 0.22608 0.45691 0.57025
 C234 C 0.23393 0.45836 0.53544
 N235 N 0.24409 0.44072 0.52090
 N236 N 0.24559 0.42219 0.53970
 C237 C 0.23856 0.40007 0.59444
 N238 N 0.24232 0.38108 0.57642
 N239 N 0.24298 0.36226 0.59460
 C240 C 0.24013 0.36177 0.63151
 N241 N 0.23651 0.38078 0.64959
 N242 N 0.23560 0.39958 0.63135
 C243 C 0.24099 0.34102 0.65145
 N244 N 0.24415 0.34068 0.68830
 N245 N 0.24532 0.32179 0.70624
 C246 C 0.24310 0.30259 0.68803
 N247 N 0.23976 0.30295 0.65124
 N248 N 0.23884 0.32182 0.63325
 C249 C 0.92636 0.26776 0.08219
 N250 N 0.94412 0.25666 0.09387
 N251 N 0.96179 0.25520 0.07279
 C252 C 0.96237 0.26448 0.03889
 N253 N 0.94489 0.27643 0.02813
 N254 N 0.92719 0.27789 0.04914
 C255 C 0.90623 0.26784 0.10405
 N256 N 0.88790 0.27741 0.09099
 N257 N 0.86930 0.27636 0.10982
 C258 C 0.86834 0.26568 0.14239
 N259 N 0.88671 0.25625 0.15560
 N260 N 0.90530 0.25729 0.13675
 C261 C 0.84763 0.26372 0.16243
 N262 N 0.84668 0.25300 0.19498
 N263 N 0.82781 0.25073 0.21269
 C264 C 0.80916 0.25903 0.19847
 N265 N 0.81011 0.26979 0.16596
 N266 N 0.82899 0.27209 0.14827
 C267 C 0.42190 0.76782 0.58715
 N268 N 0.43846 0.75435 0.59658
 N269 N 0.45672 0.75389 0.57686
 C270 C 0.45909 0.76679 0.54687
 N271 N 0.44274 0.78069 0.53799
 N272 N 0.42441 0.78109 0.55763
 C273 C 0.40139 0.76743 0.60791
 N274 N 0.38377 0.77872 0.59604
 N275 N 0.36491 0.77756 0.61411
 C276 C 0.36302 0.76512 0.64476
 N277 N 0.38068 0.75397 0.65677
 N278 N 0.39950 0.75507 0.63863
 C279 C 0.34208 0.76317 0.66402
 N280 N 0.34057 0.75166 0.69572
 N281 N 0.32147 0.74932 0.71270
 C282 C 0.30316 0.75834 0.69851
 N283 N 0.30467 0.76990 0.66686
 N284 N 0.32379 0.77230 0.64994
 C285 C 0.07748 0.73985 0.08187
 N286 N 0.07780 0.74077 0.04475
 N287 N 0.05936 0.73944 0.02565
 C288 C 0.03978 0.73684 0.04257
 N289 N 0.03960 0.73625 0.07993
 N290 N 0.05802 0.73772 0.09918
 C291 C 0.09792 0.74086 0.10276
 N292 N 0.11737 0.73939 0.08520
 N293 N 0.13597 0.74005 0.10398
 C294 C 0.13582 0.74233 0.14101
 N295 N 0.11637 0.74389 0.15860
 N296 N 0.09775 0.74308 0.13982
 C297 C 0.15641 0.74324 0.16152
 N298 N 0.15669 0.74903 0.19747
 N299 N 0.17547 0.75025 0.21576
 C300 C 0.19460 0.74555 0.19883
 N301 N 0.19429 0.73962 0.16296
 N302 N 0.17554 0.73854 0.14462
 C303 C 0.57729 0.23148 0.58331
 N304 N 0.56075 0.24515 0.59202
 N305 N 0.54290 0.24596 0.57133
 C306 C 0.54096 0.23321 0.54103
 N307 N 0.55728 0.21913 0.53283
 N308 N 0.57518 0.21838 0.55346
 C309 C 0.59737 0.23144 0.60518
 N310 N 0.61491 0.21966 0.59431
 N311 N 0.63343 0.22041 0.61334
 C312 C 0.63507 0.23291 0.64398
 N313 N 0.61747 0.24455 0.65500
 N314 N 0.59898 0.24385 0.63591
 C315 C 0.65574 0.23445 0.66409
 N316 N 0.65717 0.24625 0.69554
 N317 N 0.67613 0.24827 0.71306
 C318 C 0.69435 0.23863 0.69968
 N319 N 0.69290 0.22678 0.66832
 N320 N 0.67394 0.22470 0.65087
 C321 C 0.73882 0.07616 0.92363
 N322 N 0.72882 0.05806 0.91023
 N323 N 0.72703 0.04015 0.93072
 C324 C 0.73521 0.03959 0.96537
 N325 N 0.74574 0.05757 0.97823
 N326 N 0.74731 0.07556 0.95796
 C327 C 0.74008 0.09621 0.90176
 N328 N 0.74401 0.11566 0.91830
 N329 N 0.74473 0.13397 0.89873
 C330 C 0.74180 0.13350 0.86184
 N331 N 0.73803 0.11402 0.84521
 N332 N 0.73705 0.09572 0.86486
 C333 C 0.74264 0.15378 0.84052
 N334 N 0.74602 0.15342 0.80370
 N335 N 0.74722 0.17195 0.78469
 C336 C 0.74479 0.19148 0.80178
 N337 N 0.74122 0.19180 0.83851
 N338 N 0.74027 0.17330 0.85756
 C339 C 0.23666 0.57786 0.41663
 N340 N 0.24489 0.57669 0.45108
 N341 N 0.24346 0.55827 0.47024
 C342 C 0.23334 0.54042 0.45606
 N343 N 0.22542 0.54156 0.42130
 N344 N 0.22707 0.55991 0.40193
 C345 C 0.23781 0.59832 0.39591
 N346 N 0.23501 0.59848 0.35897
 N347 N 0.23594 0.61714 0.34031
 C348 C 0.23942 0.63632 0.35802
 N349 N 0.24211 0.63615 0.39497
 N350 N 0.24143 0.61748 0.41355
 C351 C 0.24034 0.65695 0.33775
 N352 N 0.23796 0.67617 0.35571
 N353 N 0.23912 0.69498 0.33760
 C354 C 0.24291 0.69527 0.30092
 N355 N 0.24533 0.67604 0.28292
 N356 N 0.24392 0.65720 0.30099
 C357 C 0.26062 0.92213 0.91778
 N358 N 0.27080 0.93999 0.90383
 N359 N 0.27224 0.95831 0.92341
 C360 C 0.26352 0.95953 0.95766
 N361 N 0.25284 0.94178 0.97103
 N362 N 0.25161 0.92339 0.95169
 C363 C 0.25948 0.90169 0.89684
 N364 N 0.25504 0.88258 0.91414
 N365 N 0.25413 0.86395 0.89539
 C366 C 0.25738 0.86377 0.85856
 N367 N 0.26171 0.88289 0.84118
 N368 N 0.26287 0.90150 0.86002
 C369 C 0.25609 0.84320 0.83797
 N370 N 0.25305 0.84323 0.80107
 N371 N 0.25139 0.82452 0.78262
 C372 C 0.25298 0.80512 0.80033
 N373 N 0.25620 0.80510 0.83716
 N374 N 0.25760 0.82380 0.85567
 C375 C 0.77075 0.42425 0.41861
 N376 N 0.75706 0.44082 0.41027
 N377 N 0.75632 0.45859 0.43119
 C378 C 0.76916 0.46042 0.46134
 N379 N 0.78325 0.44406 0.46921
 N380 N 0.78392 0.42622 0.44835
 C381 C 0.77069 0.40429 0.39643
 N382 N 0.78235 0.38662 0.40695
 N383 N 0.78146 0.36820 0.38760
 C384 C 0.76893 0.36683 0.35699
 N385 N 0.75742 0.38456 0.34632
 N386 N 0.75826 0.40295 0.36573
 C387 C 0.76716 0.34629 0.33656
 N388 N 0.75528 0.34518 0.30520
 N389 N 0.75298 0.32635 0.28737
 C390 C 0.76241 0.30793 0.30036
 N391 N 0.77436 0.30906 0.33164
 N392 N 0.77671 0.32790 0.34940
 C393 C 0.07698 0.26035 0.91202
 N394 N 0.05742 0.26496 0.89664
 N395 N 0.03953 0.26606 0.91732
 C396 C 0.04035 0.26258 0.95422
 N397 N 0.05998 0.25752 0.96907
 N398 N 0.07791 0.25660 0.94859
 C399 C 0.09694 0.25963 0.88983
 N400 N 0.11670 0.25967 0.90650
 N401 N 0.13494 0.25910 0.88674
 C402 C 0.13412 0.25829 0.84957
 N403 N 0.11435 0.25817 0.83282
 N404 N 0.09607 0.25893 0.85261
 C405 C 0.15440 0.25738 0.82826
 N406 N 0.15431 0.25178 0.79219
 N407 N 0.17296 0.25027 0.77354
 C408 C 0.19231 0.25453 0.79024
 N409 N 0.19233 0.26031 0.82616
 N410 N 0.17374 0.26164 0.84484
 C411 C 0.57751 0.76025 0.42549
 N412 N 0.55952 0.76959 0.41081
 N413 N 0.54122 0.77118 0.43034
 C414 C 0.54017 0.76345 0.46525
 N415 N 0.55805 0.75355 0.47939
 N416 N 0.57642 0.75217 0.46007
 C417 C 0.59796 0.75922 0.40465
 N418 N 0.61714 0.75577 0.42219
 N419 N 0.63579 0.75524 0.40351
 C420 C 0.63592 0.75792 0.36656
 N421 N 0.61672 0.76123 0.34896
 N422 N 0.59808 0.76201 0.36771
 C423 C 0.65651 0.75721 0.34608
 N424 N 0.65660 0.75386 0.30927
 N425 N 0.67536 0.75281 0.29089
 C426 C 0.69466 0.75537 0.30861
 N427 N 0.69454 0.75891 0.34536
 N428 N 0.67581 0.75970 0.36379
 C429 C 0.92179 0.73889 0.92422
 N430 N 0.92126 0.74014 0.96132
 N431 N 0.93958 0.73904 0.98076
 C432 C 0.95923 0.73635 0.96420
 N433 N 0.95960 0.73542 0.92685
 N434 N 0.94133 0.73667 0.90728
 C435 C 0.90152 0.73963 0.90292
 N436 N 0.90199 0.74178 0.86585
 N437 N 0.88352 0.74231 0.84665
 C438 C 0.86394 0.74052 0.86381
 N439 N 0.86351 0.73829 0.90085
 N440 N 0.88195 0.73792 0.92006
 C441 C 0.84351 0.74115 0.84293
 N442 N 0.82435 0.73602 0.85949
 N443 N 0.80569 0.73700 0.84099
 C444 C 0.80546 0.74326 0.80529
 N445 N 0.82463 0.74837 0.78866
 N446 N 0.84334 0.74723 0.80712
 C447 C 0.42441 0.24163 0.41528
 N448 N 0.42525 0.24956 0.44998
 N449 N 0.44340 0.24794 0.46973
 C450 C 0.46132 0.23791 0.45594
 N451 N 0.46057 0.23037 0.42088
 N452 N 0.44248 0.23220 0.40091
 C453 C 0.40409 0.24273 0.39416
 N454 N 0.40409 0.23988 0.35721
 N455 N 0.38552 0.24064 0.33831
 C456 C 0.36625 0.24399 0.35575
 N457 N 0.36626 0.24675 0.39269
 N458 N 0.38484 0.24624 0.41152
 C459 C 0.34570 0.24456 0.33520
 N460 N 0.32638 0.24206 0.35291
 N461 N 0.30767 0.24268 0.33446
 C462 C 0.30757 0.24604 0.29767
 N463 N 0.32688 0.24862 0.27994
 N464 N 0.34563 0.24776 0.29835
 C465 C 0.73841 0.92283 0.92473
 N466 N 0.72478 0.93905 0.91434
 N467 N 0.72280 0.95696 0.93474
 C468 C 0.73439 0.95932 0.96626
 N469 N 0.74864 0.94342 0.97580
 N470 N 0.75040 0.92539 0.95570
 C471 C 0.73971 0.90257 0.90353
 N472 N 0.74645 0.88390 0.91981
 N473 N 0.74704 0.86529 0.90102
 C474 C 0.74118 0.86474 0.86515
 N475 N 0.73463 0.88346 0.84873
 N476 N 0.73374 0.90203 0.86769
 C477 C 0.74185 0.84419 0.84467
 N478 N 0.74364 0.84414 0.80755
 N479 N 0.74471 0.82539 0.78915
 C480 C 0.74367 0.80606 0.80721
 N481 N 0.74166 0.80613 0.84427
 N482 N 0.74090 0.82486 0.86269
 C483 C 0.23021 0.42349 0.41005
 N484 N 0.21672 0.42525 0.43943
 N485 N 0.21684 0.44321 0.46003
 C486 C 0.23067 0.45996 0.45229
 N487 N 0.24380 0.45836 0.42242
 N488 N 0.24362 0.44045 0.40175
 C489 C 0.23093 0.40332 0.38833
 N490 N 0.24369 0.40207 0.35796
 N491 N 0.24509 0.38354 0.33905
 C492 C 0.23386 0.36554 0.34989
 N493 N 0.22103 0.36681 0.38017
 N494 N 0.21956 0.38537 0.39902
 C495 C 0.23616 0.34487 0.32989
 N496 N 0.22684 0.32629 0.34288
 N497 N 0.22958 0.30741 0.32542
 C498 C 0.24168 0.30642 0.29427
 N499 N 0.25089 0.32502 0.28115
 N500 N 0.24821 0.34389 0.29867
 C501 C 0.25667 0.07531 0.91346
 N502 N 0.26523 0.05681 0.89916
 N503 N 0.26771 0.03915 0.92001
 C504 C 0.26188 0.03926 0.95608
 N505 N 0.25239 0.05756 0.96959
 N506 N 0.25010 0.07529 0.94894
 C507 C 0.25536 0.09533 0.89158
 N508 N 0.25277 0.11487 0.90844
 N509 N 0.25240 0.13324 0.88900
 C510 C 0.25440 0.13272 0.85195
 N511 N 0.25680 0.11316 0.83499
 N512 N 0.25742 0.09478 0.85449
 C513 C 0.25415 0.15308 0.83085
 N514 N 0.25042 0.15294 0.79414
 N515 N 0.24980 0.17157 0.77534
 C516 C 0.25317 0.19095 0.79253
 N517 N 0.25708 0.19104 0.82915
 N518 N 0.25747 0.17246 0.84799
 C519 C 0.76902 0.57738 0.42255
 N520 N 0.78210 0.57537 0.45239
 N521 N 0.78181 0.55715 0.47231
 C522 C 0.76824 0.54040 0.46339
 N523 N 0.75549 0.54230 0.43315
 N524 N 0.75584 0.56046 0.41316
 C525 C 0.76862 0.59766 0.40118
 N526 N 0.75635 0.59899 0.37030
 N527 N 0.75531 0.61754 0.35144
 C528 C 0.76642 0.63549 0.36283
 N529 N 0.77877 0.63416 0.39365
 N530 N 0.77987 0.61556 0.41247
 C531 C 0.76454 0.65611 0.34267
 N532 N 0.77388 0.67466 0.35574
 N533 N 0.77149 0.69349 0.33799
 C534 C 0.75974 0.69443 0.30649
 N535 N 0.75052 0.67585 0.29331
 N536 N 0.75285 0.65705 0.31111
 C537 C 0.07389 0.73251 0.91482
 N538 N 0.07040 0.71647 0.93985
 N539 N 0.05289 0.71688 0.96149
 C540 C 0.03846 0.73355 0.95928
 N541 N 0.04170 0.74930 0.93369
 N542 N 0.05911 0.74881 0.91191
 C543 C 0.09365 0.73271 0.89213
 N544 N 0.09594 0.74742 0.86457
 N545 N 0.11425 0.74829 0.84495
 C546 C 0.13098 0.73458 0.85234
 N547 N 0.12865 0.71981 0.87981
 N548 N 0.11029 0.71884 0.89929
 C549 C 0.15154 0.73631 0.83194
 N550 N 0.16946 0.72533 0.84331
 N551 N 0.18838 0.72762 0.82575
 C552 C 0.19003 0.74088 0.79607
 N553 N 0.17207 0.75172 0.78450
 N554 N 0.15318 0.74953 0.80220
 C555 C 0.57986 0.24047 0.41874
 N556 N 0.56173 0.23150 0.40355
 N557 N 0.54330 0.22994 0.42277
 C558 C 0.54225 0.23733 0.45790
 N559 N 0.56027 0.24687 0.47256
 N560 N 0.57877 0.24822 0.45354
 C561 C 0.60045 0.24145 0.39819
 N562 N 0.61960 0.24472 0.41603
 N563 N 0.63835 0.24528 0.39760
 C564 C 0.63862 0.24280 0.36061
 N565 N 0.61945 0.23966 0.34272
 N566 N 0.60071 0.23886 0.36120
 C567 C 0.65930 0.24365 0.34034
 N568 N 0.65952 0.24707 0.30355
 N569 N 0.67832 0.24830 0.28532
 C570 C 0.69758 0.24589 0.30316
 N571 N 0.69736 0.24228 0.33989
 N572 N 0.67857 0.24129 0.35817
 C573 C 0.92469 0.25718 0.91451
 N574 N 0.92520 0.24993 0.94960
 N575 N 0.94326 0.25183 0.96957
 C576 C 0.96144 0.26159 0.95580
 N577 N 0.96102 0.26814 0.92010
 N578 N 0.94303 0.26604 0.89990
 C579 C 0.90439 0.25612 0.89335
 N580 N 0.90448 0.25856 0.85633
 N581 N 0.88587 0.25803 0.83746
 C582 C 0.86652 0.25535 0.85505
 N583 N 0.86646 0.25298 0.89205
 N584 N 0.88506 0.25326 0.91083
 C585 C 0.84591 0.25503 0.83468
 N586 N 0.82677 0.25805 0.85260
 N587 N 0.80794 0.25740 0.83451
 C588 C 0.80754 0.25352 0.79788
 N589 N 0.82667 0.25048 0.77988
 N590 N 0.84555 0.25137 0.79794
 C591 C 0.42249 0.76065 0.42257
 N592 N 0.42307 0.75232 0.45700
 N593 N 0.44121 0.75355 0.47694
 C594 C 0.45934 0.76357 0.46362
 N595 N 0.45882 0.77153 0.42883
 N596 N 0.44076 0.77008 0.40867
 C597 C 0.40225 0.75990 0.40118
 N598 N 0.40251 0.76286 0.36427
 N599 N 0.38402 0.76235 0.34509
 C600 C 0.36461 0.75916 0.36222
 N601 N 0.36436 0.75631 0.39913
 N602 N 0.38285 0.75656 0.41823
 C603 C 0.34417 0.75875 0.34135
 N604 N 0.32482 0.76148 0.35877
 N605 N 0.30618 0.76082 0.34009
 C606 C 0.30620 0.75718 0.30338
 N607 N 0.32555 0.75439 0.28593
 N608 N 0.34422 0.75530 0.30456
 C609 C 0.26535 0.92441 0.08339
 N610 N 0.25110 0.94067 0.09090
 N611 N 0.25051 0.95849 0.07007
 C612 C 0.26408 0.96067 0.04085
 N613 N 0.27869 0.94462 0.03387
 N614 N 0.27921 0.92675 0.05460
 C615 C 0.26537 0.90443 0.10549
 N616 N 0.27767 0.88708 0.09541
 N617 N 0.27704 0.86866 0.11473
 C618 C 0.26416 0.86695 0.14491
 N619 N 0.25200 0.88435 0.15514
 N620 N 0.25256 0.90274 0.13574
 C621 C 0.26282 0.84638 0.16535
 N622 N 0.25097 0.84503 0.19674
 N623 N 0.24910 0.82616 0.21458
 C624 C 0.25895 0.80794 0.20158
 N625 N 0.27086 0.80932 0.17027
 N626 N 0.27280 0.82820 0.15252
 C627 C 0.76265 0.42133 0.58330
 N628 N 0.77181 0.43940 0.59846
 N629 N 0.77324 0.45790 0.57940
 C630 C 0.76553 0.45908 0.54450
 N631 N 0.75579 0.44113 0.52992
 N632 N 0.75456 0.42257 0.54876
 C633 C 0.76180 0.40064 0.60354
 N634 N 0.75825 0.38160 0.58546
 N635 N 0.75776 0.36274 0.60356
 C636 C 0.76058 0.36225 0.64047
 N637 N 0.76402 0.38130 0.65861
 N638 N 0.76475 0.40015 0.64044
 C639 C 0.75973 0.34144 0.66038
 N640 N 0.75663 0.34104 0.69725
 N641 N 0.75532 0.32212 0.71511
 C642 C 0.75732 0.30294 0.69683
 N643 N 0.76062 0.30335 0.66001
 N644 N 0.76169 0.32226 0.64209
 C645 C 0.73350 0.07699 0.08918
 N646 N 0.71970 0.07461 0.06035
 N647 N 0.71962 0.05631 0.04064
 C648 C 0.73354 0.03984 0.04874
 N649 N 0.74701 0.04208 0.07805
 N650 N 0.74702 0.06033 0.09785
 C651 C 0.73429 0.09745 0.11005
 N652 N 0.74705 0.09920 0.14033
 N653 N 0.74840 0.11796 0.15861
 C654 C 0.73713 0.13569 0.14720
 N655 N 0.72431 0.13393 0.11699
 N656 N 0.72288 0.11513 0.09878
 C657 C 0.73927 0.15655 0.16664
 N658 N 0.73007 0.17491 0.15295
 N659 N 0.73260 0.19396 0.17005
 C660 C 0.74436 0.19531 0.20151
 N661 N 0.75345 0.17693 0.21531
 N662 N 0.75099 0.15790 0.19813
 C663 C 0.22946 0.57584 0.58042
 N664 N 0.21598 0.57360 0.55113
 N665 N 0.21619 0.55544 0.53104
 C666 C 0.23008 0.53895 0.53922
 N667 N 0.24317 0.54101 0.56904
 N668 N 0.24290 0.55912 0.58922
 C669 C 0.23013 0.59628 0.60149
 N670 N 0.24278 0.59800 0.63191
 N671 N 0.24408 0.61673 0.65029
 C672 C 0.23286 0.63450 0.63886
 N673 N 0.22015 0.63279 0.60850
 N674 N 0.21879 0.61401 0.59018
 C675 C 0.23485 0.65532 0.65864
 N676 N 0.22545 0.67370 0.64538
 N677 N 0.22767 0.69263 0.66302
 C678 C 0.23933 0.69385 0.69461
 N679 N 0.24866 0.67545 0.70792
 N680 N 0.24650 0.65655 0.69022
 C681 C 0.92413 0.73397 0.09034
 N682 N 0.92785 0.71742 0.06640
 N683 N 0.94572 0.71736 0.04559
 C684 C 0.96032 0.73404 0.04757
 N685 N 0.95688 0.75028 0.07217
 N686 N 0.93909 0.75026 0.09314
 C687 C 0.90390 0.73473 0.11184
 N688 N 0.90131 0.74990 0.13860
 N689 N 0.88264 0.75121 0.15713
 C690 C 0.86582 0.73752 0.14939
 N691 N 0.86842 0.72231 0.12269
 N692 N 0.88714 0.72090 0.10430
 C693 C 0.84501 0.73949 0.16901
 N694 N 0.82710 0.72836 0.15746
 N695 N 0.80810 0.73054 0.17480
 C696 C 0.80636 0.74385 0.20443
 N697 N 0.82430 0.75489 0.21609
 N698 N 0.84325 0.75281 0.19861
 C699 C 0.42365 0.23131 0.57906
 N700 N 0.42609 0.21863 0.54880
 N701 N 0.44443 0.21945 0.52921
 C702 C 0.46088 0.23318 0.53889
 N703 N 0.45859 0.24551 0.56958
 N704 N 0.44031 0.24463 0.58924
 C705 C 0.40316 0.23120 0.59990
 N706 N 0.40131 0.24310 0.63114
 N707 N 0.38253 0.24372 0.64943
 C708 C 0.36486 0.23252 0.63710
 N709 N 0.36672 0.22053 0.60593
 N710 N 0.38554 0.21986 0.58768
 C711 C 0.34396 0.23398 0.65657
 N712 N 0.32568 0.22464 0.64247
 N713 N 0.30658 0.22667 0.65956
 C714 C 0.30509 0.23807 0.69140
 N715 N 0.32339 0.24728 0.70561
 N716 N 0.34246 0.24530 0.68848
 C717 C 0.07785 0.26178 0.07899
 N718 N 0.06301 0.24539 0.08222
 N719 N 0.04497 0.24531 0.06192
 C720 C 0.04113 0.26157 0.03754
 N721 N 0.05564 0.27831 0.03513
 N722 N 0.07376 0.27831 0.05526
 C723 C 0.09822 0.26132 0.10010
 N724 N 0.11469 0.27544 0.09229
 N725 N 0.13345 0.27452 0.11061
 C726 C 0.13638 0.25954 0.13753
 N727 N 0.11985 0.24552 0.14550
 N728 N 0.10115 0.24634 0.12703
 C729 C 0.15719 0.25824 0.15729
 N730 N 0.15916 0.24529 0.18729
 N731 N 0.17810 0.24388 0.20497
 C732 C 0.19580 0.25524 0.19315
 N733 N 0.19385 0.26816 0.16312
 N734 N 0.17487 0.26968 0.14557
 C735 C 0.57569 0.76779 0.59044
 N736 N 0.57372 0.78112 0.56092
 N737 N 0.55573 0.78069 0.54047
 C738 C 0.53918 0.76670 0.54851
 N739 N 0.54099 0.75371 0.57849
 N740 N 0.55893 0.75421 0.59902
 C741 C 0.59586 0.76747 0.61208
 N742 N 0.59730 0.75492 0.64263
 N743 N 0.61585 0.75391 0.66151
 C744 C 0.63366 0.76536 0.65045
 N745 N 0.63219 0.77800 0.61998
 N746 N 0.61362 0.77906 0.60117
 C747 C 0.65435 0.76352 0.67038
 N748 N 0.67274 0.77303 0.65706
 N749 N 0.69168 0.77072 0.67444
 C750 C 0.69291 0.75888 0.70582
 N751 N 0.67450 0.74948 0.71927
 N752 N 0.65556 0.75172 0.70182
   
