data_POSCAR
  _audit_creation_date              2014-09-24
  _audit_creation_method            'ToBaCCo'
  _symmetry_space_group_name_H-M    'P1'
  _symmetry_Int_Tables_number       1
  _symmetry_cell_setting            triclinic
  loop_
  _symmetry_equiv_pos_as_xyz
 x,y,z
_cell_length_a 39.3089
_cell_length_b 34.0817
_cell_length_c 29.2759
_cell_angle_alpha 89.880300
_cell_angle_beta 89.825000
_cell_angle_gamma 90.017400
loop_
  _atom_site_label
  _atom_site_type_symbol
  _atom_site_fract_x
  _atom_site_fract_y
  _atom_site_fract_z
C1 C 1.25283 0.25113 0.25028
 C2 C 0.74779 -0.25080 0.24577
 C3 C 0.74678 0.24879 -0.24812
 C4 C 1.25116 -0.25197 -0.24742
 C5 C 0.25341 0.25194 0.74950
 C6 C 0.74850 0.75083 0.75463
 C7 C 0.74716 0.25080 0.24798
 C8 C 0.25172 0.74942 0.24797
 O9 O 1.04890 0.07011 0.08380
 O10 O 1.08697 0.03458 0.04080
 C11 C 1.07949 0.06045 0.07167
 O12 O 0.95425 -0.07266 0.07763
 O13 O 0.91629 -0.03407 0.03838
 C14 C 0.92370 -0.06247 0.06616
 O15 O 1.04867 -0.06890 0.08292
 O16 O 1.08687 -0.03292 0.04046
 C17 C 1.07933 -0.05923 0.07099
 O18 O 0.95447 0.07452 0.07862
 O19 O 0.91640 0.03661 0.03883
 C20 C 0.92388 0.06462 0.06700
 Zr21 Zr 1.00160 0.04984 0.05930
 O22 O 1.00015 0.04181 0.13086
 O23 O 1.00273 0.11145 0.06749
 Zr24 Zr 1.00146 -0.04796 0.05866
 O25 O 1.00009 -0.04081 0.13031
 O26 O 1.00224 -0.10968 0.06608
 O27 O 1.03240 0.00082 0.06777
 O28 O 0.97111 0.00094 0.06715
 O29 O 0.95476 0.07444 -0.07724
 O30 O 0.91657 0.03675 -0.03694
 C31 C 0.92414 0.06460 -0.06544
 O32 O 1.04923 -0.06733 -0.08193
 O33 O 1.08716 -0.03200 -0.03880
 C34 C 1.07977 -0.05775 -0.06977
 O35 O 0.95459 -0.07068 -0.07803
 O36 O 0.91648 -0.03338 -0.03730
 C37 C 0.92400 -0.06096 -0.06606
 O38 O 1.04946 0.07098 -0.08106
 O39 O 1.08726 0.03490 -0.03844
 C40 C 1.07999 0.06110 -0.06909
 Zr41 Zr 1.00196 0.05091 -0.05637
 O42 O 0.99843 0.04919 -0.12852
 O43 O 1.00523 0.11291 -0.05761
 Zr44 Zr 1.00181 -0.04745 -0.05701
 O45 O 0.99824 -0.04469 -0.12914
 O46 O 1.00490 -0.10943 -0.05924
 Zr47 Zr 1.05284 0.00122 0.00102
 Zr48 Zr 0.95053 0.00143 0.00094
 O49 O 0.97192 0.00183 -0.06503
 O50 O 1.03262 0.00173 -0.06565
 O51 O 0.97170 0.05832 0.00144
 O52 O 1.03106 -0.05519 0.00077
 O53 O 1.03124 0.05772 0.00152
 O54 O 0.97153 -0.05553 0.00070
 H55 H 0.95515 0.00081 0.09343
 H56 H 1.04600 -0.07859 0.00050
 H57 H 0.95640 0.00200 -0.09164
 H58 H 1.04625 0.08107 0.00156
 H59 H 1.00740 -0.12071 0.03568
 H60 H 0.98797 -0.11985 -0.03725
 H61 H 1.01906 -0.03170 -0.14077
 H62 H 1.01914 0.03615 -0.14031
 H63 H 0.98805 0.12307 -0.03589
 H64 H 1.00737 0.12284 0.03707
 H65 H 0.99915 0.06847 0.14419
 H66 H 0.99891 -0.06763 0.14332
 O67 O 1.04636 0.56925 0.58270
 O68 O 1.08446 0.53467 0.53869
 C69 C 1.07699 0.55987 0.57034
 O70 O 0.95233 0.42691 0.57783
 O71 O 0.91405 0.46461 0.53799
 C72 C 0.92164 0.43680 0.56656
 O73 O 1.04687 0.43133 0.58201
 O74 O 1.08472 0.46706 0.53869
 C75 C 1.07745 0.44123 0.56989
 O76 O 0.95166 0.57270 0.57865
 O77 O 0.91370 0.53503 0.53834
 C78 C 0.92106 0.56260 0.56723
 Zr79 Zr 0.99905 0.54956 0.55741
 O80 O 0.99769 0.54358 0.62926
 O81 O 1.00196 0.61145 0.56141
 Zr82 Zr 0.99941 0.45149 0.55754
 O83 O 0.99843 0.45910 0.62915
 O84 O 1.00073 0.38979 0.56493
 O85 O 1.03005 0.50064 0.56602
 O86 O 0.96899 0.50029 0.56587
 O87 O 0.95157 0.57258 0.42073
 O88 O 0.91369 0.53512 0.46193
 C89 C 0.92101 0.56252 0.43267
 O90 O 1.04685 0.43202 0.41640
 O91 O 1.08473 0.46748 0.45945
 C92 C 1.07742 0.44186 0.42826
 O93 O 0.95197 0.42865 0.42033
 O94 O 0.91386 0.46634 0.46060
 C95 C 0.92133 0.43878 0.43174
 O96 O 1.04642 0.57002 0.41640
 O97 O 1.08454 0.53464 0.45927
 C98 C 1.07709 0.56042 0.42815
 Zr99 Zr 0.99905 0.54995 0.44198
 O100 O 0.99527 0.54851 0.36984
 O101 O 1.00247 0.61195 0.44096
 Zr102 Zr 0.99934 0.45143 0.44192
 O103 O 0.99568 0.45295 0.36977
 O104 O 1.00269 0.38943 0.44116
 Zr105 Zr 1.05039 0.50082 0.49926
 Zr106 Zr 0.94799 0.50024 0.49993
 O107 O 0.96935 0.50058 0.43386
 O108 O 1.02985 0.50085 0.43277
 O109 O 0.96870 0.55739 0.49983
 O110 O 1.02890 0.44423 0.49954
 O111 O 1.02855 0.55722 0.49956
 O112 O 0.96917 0.44336 0.49985
 H113 H 0.95330 0.50005 0.59244
 H114 H 1.04402 0.42099 0.49937
 H115 H 0.95401 0.50068 0.40706
 H116 H 1.04342 0.58069 0.49957
 H117 H 1.00434 0.37882 0.53411
 H118 H 0.98439 0.37915 0.46117
 H119 H 1.01574 0.46730 0.35793
 H120 H 1.01558 0.53473 0.35793
 H121 H 0.98408 0.62227 0.46069
 H122 H 0.98688 0.62212 0.53747
 H123 H 0.99720 0.57062 0.64163
 H124 H 0.99751 0.43235 0.64241
 O125 O 0.54653 0.06737 0.58172
 O126 O 0.58464 0.03185 0.53883
 C127 C 0.57715 0.05774 0.56961
 O128 O 0.45248 -0.07595 0.57628
 O129 O 0.41449 -0.03767 0.53672
 C130 C 0.42193 -0.06587 0.56466
 O131 O 0.54716 -0.07113 0.58162
 O132 O 0.58504 -0.03514 0.53862
 C133 C 0.57772 -0.06115 0.56947
 O134 O 0.45196 0.07124 0.57612
 O135 O 0.41422 0.03268 0.53665
 C136 C 0.42147 0.06096 0.56449
 Zr137 Zr 0.49927 0.04677 0.55729
 O138 O 0.49771 0.03910 0.62890
 O139 O 0.50016 0.10841 0.56520
 Zr140 Zr 0.49964 -0.05108 0.55732
 O141 O 0.49806 -0.04373 0.62894
 O142 O 0.50100 -0.11273 0.56523
 O143 O 0.53025 -0.00201 0.56617
 O144 O 0.46905 -0.00232 0.56541
 O145 O 0.45245 0.07048 0.42087
 O146 O 0.41451 0.03249 0.46118
 C147 C 0.42192 0.06042 0.43282
 O148 O 0.54775 -0.07061 0.41689
 O149 O 0.58525 -0.03478 0.46010
 C150 C 0.57818 -0.06062 0.42917
 O151 O 0.45292 -0.07478 0.42061
 O152 O 0.41472 -0.03742 0.46104
 C153 C 0.42229 -0.06509 0.43249
 O154 O 0.54736 0.06737 0.41702
 O155 O 0.58508 0.03177 0.46026
 C156 C 0.57786 0.05770 0.42938
 Zr157 Zr 0.49978 0.04723 0.44150
 O158 O 0.49627 0.04494 0.36937
 O159 O 0.50283 0.10922 0.43933
 Zr160 Zr 0.50007 -0.05118 0.44156
 O161 O 0.49655 -0.04894 0.36941
 O162 O 0.50358 -0.11314 0.43978
 Zr163 Zr 0.55061 -0.00180 0.49941
 Zr164 Zr 0.44857 -0.00233 0.49912
 O165 O 0.46998 -0.00210 0.43315
 O166 O 0.53062 -0.00181 0.43264
 O167 O 0.46945 0.05472 0.49926
 O168 O 0.52927 -0.05842 0.49949
 O169 O 0.52886 0.05460 0.49948
 O170 O 0.46982 -0.05918 0.49932
 H171 H 0.45306 -0.00241 0.59166
 H172 H 0.54436 -0.08168 0.49941
 H173 H 0.45447 -0.00213 0.40653
 H174 H 0.54376 0.07804 0.49943
 H175 H 0.50527 -0.12387 0.53465
 H176 H 0.48648 -0.12361 0.46149
 H177 H 0.51717 -0.03557 0.35775
 H178 H 0.51725 0.03242 0.35769
 H179 H 0.48595 0.11949 0.46141
 H180 H 0.50442 0.11972 0.53463
 H181 H 0.49655 0.06583 0.64204
 H182 H 0.49726 -0.07053 0.64207
 O183 O 0.43983 0.44594 -0.08260
 O184 O 0.47050 0.40150 -0.04022
 C185 C 0.44782 0.41055 -0.07070
 O186 O 0.56327 0.55505 -0.07585
 O187 O 0.53013 0.59908 -0.03635
 C188 C 0.55484 0.59031 -0.06412
 O189 O 0.56035 0.44690 -0.08212
 O190 O 0.52959 0.40198 -0.04028
 C191 C 0.55251 0.41137 -0.07049
 O192 O 0.43602 0.55426 -0.07695
 O193 O 0.46793 0.59867 -0.03647
 C194 C 0.44381 0.58959 -0.06476
 Zr195 Zr 0.45722 0.50008 -0.05737
 O196 O 0.46311 0.50233 -0.12910
 O197 O 0.40367 0.49619 -0.06294
 Zr198 Zr 0.54173 0.50077 -0.05743
 O199 O 0.53484 0.50261 -0.12895
 O200 O 0.59518 0.50023 -0.06583
 O201 O 0.49972 0.46471 -0.06645
 O202 O 0.49932 0.53569 -0.06538
 O203 O 0.43497 0.55295 0.07795
 O204 O 0.46742 0.59803 0.03882
 C205 C 0.44289 0.58851 0.06661
 O206 O 0.55980 0.44565 0.08235
 O207 O 0.52931 0.40134 0.03977
 C208 C 0.55201 0.41030 0.07020
 O209 O 0.56207 0.55417 0.07875
 O210 O 0.52963 0.59861 0.03890
 C211 C 0.55388 0.58953 0.06704
 O212 O 0.43921 0.44451 0.08194
 O213 O 0.47065 0.40074 0.03967
 C214 C 0.44760 0.40932 0.06991
 Zr215 Zr 0.45691 0.49923 0.05823
 O216 O 0.46071 0.50342 0.13025
 O217 O 0.40339 0.49473 0.06372
 Zr218 Zr 0.54171 0.49995 0.05809
 O219 O 0.53890 0.50381 0.13022
 O220 O 0.59545 0.49685 0.06068
 Zr221 Zr 0.49975 0.44066 0.00004
 Zr222 Zr 0.49900 0.55932 0.00090
 O223 O 0.49905 0.53447 0.06672
 O224 O 0.49950 0.46385 0.06686
 O225 O 0.44990 0.53427 0.00068
 O226 O 0.54842 0.46641 0.00010
 O227 O 0.45076 0.46569 0.00016
 O228 O 0.54838 0.53508 0.00061
 H229 H 0.49937 0.55421 -0.09154
 H230 H 0.56892 0.44953 0.00007
 H231 H 0.49881 0.55258 0.09317
 H232 H 0.43030 0.44872 -0.00005
 H233 H 0.60505 0.49397 -0.03571
 H234 H 0.60442 0.51529 0.03743
 H235 H 0.52855 0.47923 0.14175
 H236 H 0.46902 0.47791 0.14193
 H237 H 0.39366 0.50959 0.03787
 H238 H 0.39385 0.51211 -0.03800
 H239 H 0.43979 0.50296 -0.14183
 H240 H 0.55795 0.50441 -0.14237
 C241 C 1.19067 0.17740 0.17622
 C242 C 1.19614 0.13433 0.18995
 C243 C 1.17515 0.10880 0.16795
 C244 C 1.15080 0.12890 0.13441
 C245 C 1.17378 0.15262 0.10204
 C246 C 1.19479 0.17816 0.12406
 C247 C 1.15281 0.18522 0.18489
 C248 C 1.13186 0.15975 0.16293
 C249 C 1.21291 0.20471 0.20054
 C250 C 1.23092 0.22640 0.22211
 C251 C 1.12750 0.10204 0.11119
 C252 C 1.10656 0.08174 0.09281
 H253 H 1.21491 0.12473 0.21471
 H254 H 1.17591 0.07735 0.17380
 H255 H 1.17362 0.14956 0.06513
 H256 H 1.21262 0.19702 0.10606
 H257 H 1.14326 0.20874 0.20636
 H258 H 1.10434 0.16146 0.16563
 C259 C 1.19004 0.67014 0.68209
 C260 C 1.15236 0.67683 0.69332
 C261 C 1.13094 0.65281 0.66999
 C262 C 1.14922 0.62434 0.63760
 C263 C 1.17467 0.60221 0.66787
 C264 C 1.19616 0.62631 0.69129
 C265 C 1.19261 0.67463 0.62999
 C266 C 1.17115 0.65056 0.60660
 C267 C 1.21265 0.69660 0.70730
 C268 C 1.23040 0.71935 0.72791
 C269 C 1.12539 0.59913 0.61265
 C270 C 1.10418 0.58014 0.59283
 H271 H 1.14327 0.69855 0.71755
 H272 H 1.10351 0.65397 0.67426
 H273 H 1.17577 0.57046 0.67060
 H274 H 1.21566 0.61522 0.71409
 H275 H 1.20983 0.69488 0.61296
 H276 H 1.16999 0.65018 0.56956
 C277 C 0.68989 0.17272 0.67403
 C278 C 0.65222 0.17922 0.68545
 C279 C 0.63094 0.15422 0.66344
 C280 C 0.64936 0.12507 0.63209
 C281 C 0.67521 0.10421 0.66289
 C282 C 0.69656 0.12930 0.68498
 C283 C 0.69216 0.17575 0.62179
 C284 C 0.67080 0.15064 0.59969
 C285 C 0.71201 0.19984 0.69872
 C286 C 0.72859 0.22219 0.72140
 C287 C 0.62560 0.09876 0.60892
 C288 C 0.60432 0.07887 0.59068
 H289 H 0.64303 0.20158 0.70881
 H290 H 0.60353 0.15514 0.66797
 H291 H 0.67668 0.07258 0.66689
 H292 H 0.71636 0.11918 0.70793
 H293 H 0.70906 0.19572 0.60380
 H294 H 0.66939 0.14908 0.56271
 C295 C 0.67240 0.69493 0.17090
 C296 C 0.63701 0.70861 0.18670
 C297 C 0.61087 0.69095 0.16412
 C298 C 0.62273 0.66140 0.12801
 C299 C 0.64585 0.63264 0.15386
 C300 C 0.67190 0.65024 0.17636
 C301 C 0.67296 0.70219 0.11910
 C302 C 0.64681 0.68452 0.09651
 C303 C 0.70036 0.71350 0.19581
 C304 C 0.72254 0.72900 0.21767
 C305 C 0.59521 0.64079 0.10434
 C306 C 0.57465 0.61972 0.08633
 H307 H 0.63287 0.73034 0.21321
 H308 H 0.58436 0.69753 0.17123
 H309 H 0.64207 0.60107 0.15442
 H310 H 0.69040 0.63381 0.19614
 H311 H 0.69214 0.71969 0.10175
 H312 H 0.64355 0.68690 0.05979
 C313 C 0.81126 -0.17955 0.16968
 C314 C 0.84899 -0.18762 0.17881
 C315 C 0.87031 -0.16269 0.15636
 C316 C 0.85183 -0.13209 0.12694
 C317 C 0.82734 -0.11128 0.15979
 C318 C 0.80599 -0.13625 0.18227
 C319 C 0.80757 -0.18106 0.11751
 C320 C 0.82896 -0.15606 0.09498
 C321 C 0.78860 -0.20614 0.19465
 C322 C 0.77020 -0.22707 0.21688
 C323 C 0.87547 -0.10558 0.10350
 C324 C 0.89657 -0.08497 0.08569
 H325 H 0.85818 -0.21091 0.20092
 H326 H 0.89779 -0.16463 0.15926
 H327 H 0.82674 -0.07974 0.16485
 H328 H 0.78708 -0.12609 0.20664
 H329 H 0.78975 -0.20003 0.09986
 H330 H 0.82948 -0.15356 0.05800
 C331 C 0.80796 0.32495 0.67754
 C332 C 0.84558 0.31827 0.68892
 C333 C 0.86720 0.34203 0.66522
 C334 C 0.84919 0.37028 0.63231
 C335 C 0.82360 0.39271 0.66218
 C336 C 0.80192 0.36888 0.68596
 C337 C 0.80568 0.32003 0.62549
 C338 C 0.82735 0.34384 0.60172
 C339 C 0.78512 0.29888 0.70346
 C340 C 0.76733 0.27668 0.72518
 C341 C 0.87324 0.39550 0.60718
 C342 C 0.89449 0.41507 0.58781
 H343 H 0.85450 0.29673 0.71350
 H344 H 0.89460 0.34079 0.66954
 H345 H 0.82254 0.42448 0.66439
 H346 H 0.78232 0.38026 0.70853
 H347 H 0.78852 0.29968 0.60878
 H348 H 0.82873 0.34389 0.56467
 C349 C 0.30883 -0.18023 0.67001
 C350 C 0.34645 -0.18679 0.68133
 C351 C 0.36784 -0.16249 0.65823
 C352 C 0.34955 -0.13395 0.62603
 C353 C 0.32386 -0.11217 0.65629
 C354 C 0.30240 -0.13655 0.67946
 C355 C 0.30647 -0.18448 0.61792
 C356 C 0.32797 -0.16005 0.59470
 C357 C 0.28659 -0.20632 0.69608
 C358 C 0.26980 -0.22738 0.72023
 C359 C 0.37339 -0.10816 0.60215
 C360 C 0.39474 -0.08806 0.58424
 H361 H 0.35552 -0.20870 0.70538
 H362 H 0.39526 -0.16355 0.66249
 H363 H 0.32254 -0.08045 0.65913
 H364 H 0.28267 -0.12574 0.70220
 H365 H 0.28944 -0.20475 0.60084
 H366 H 0.32938 -0.15934 0.55767
 C367 C 0.32929 0.30393 0.17507
 C368 C 0.36448 0.29007 0.19130
 C369 C 0.39092 0.30754 0.16884
 C370 C 0.37952 0.33708 0.13239
 C371 C 0.35628 0.36602 0.15780
 C372 C 0.32994 0.34862 0.18018
 C373 C 0.32919 0.29655 0.12334
 C374 C 0.35564 0.31402 0.10086
 C375 C 0.30096 0.28566 0.19987
 C376 C 0.27845 0.27060 0.22179
 C377 C 0.40723 0.35758 0.10868
 C378 C 0.42761 0.37878 0.09022
 H379 H 0.36826 0.26837 0.21801
 H380 H 0.41733 0.30083 0.17622
 H381 H 0.36019 0.39757 0.15816
 H382 H 0.31132 0.36521 0.19965
 H383 H 0.31011 0.27912 0.10595
 H384 H 0.35925 0.31151 0.06420
 C385 C 0.81057 0.17882 -0.17101
 C386 C 0.80663 0.18063 -0.11885
 C387 C 0.82836 0.15633 -0.09604
 C388 C 0.85183 0.13266 -0.12771
 C389 C 0.86988 0.16347 -0.15747
 C390 C 0.84822 0.18770 -0.18020
 C391 C 0.80616 0.13529 -0.18312
 C392 C 0.82785 0.11102 -0.16035
 C393 C 0.78755 0.20475 -0.19631
 C394 C 0.76904 0.22529 -0.21880
 C395 C 0.87582 0.10684 -0.10389
 C396 C 0.89704 0.08671 -0.08564
 H397 H 0.78840 0.19930 -0.10140
 H398 H 0.82874 0.15416 -0.05904
 H399 H 0.89734 0.16607 -0.16038
 H400 H 0.85710 0.21104 -0.20255
 H401 H 0.78756 0.12447 -0.20738
 H402 H 0.82784 0.07943 -0.16508
 C403 C 0.80796 0.67274 0.32021
 C404 C 0.80220 0.62879 0.31161
 C405 C 0.82361 0.60508 0.33576
 C406 C 0.84865 0.62766 0.36612
 C407 C 0.82627 0.65393 0.39635
 C408 C 0.80487 0.67763 0.37220
 C409 C 0.84570 0.67967 0.30952
 C410 C 0.86705 0.65604 0.33359
 C411 C 0.78547 0.69873 0.29398
 C412 C 0.76799 0.72104 0.27220
 C413 C 0.87246 0.60270 0.39161
 C414 C 0.89370 0.58353 0.41124
 H415 H 0.78298 0.61733 0.28867
 H416 H 0.82272 0.57331 0.33353
 H417 H 0.82709 0.65385 0.43341
 H418 H 0.78737 0.69785 0.38861
 H419 H 0.85489 0.70129 0.28512
 H420 H 0.89451 0.65745 0.32978
 C421 C 0.30920 0.17707 0.33112
 C422 C 0.30232 0.13368 0.32055
 C423 C 0.32363 0.10856 0.34270
 C424 C 0.34965 0.12940 0.37315
 C425 C 0.32844 0.15511 0.40553
 C426 C 0.30708 0.18027 0.38334
 C427 C 0.34684 0.18341 0.31940
 C428 C 0.36808 0.15838 0.34147
 C429 C 0.28717 0.20400 0.30606
 C430 C 0.27074 0.22578 0.28244
 C431 C 0.37339 0.10293 0.39603
 C432 C 0.39471 0.08255 0.41340
 H433 H 0.28239 0.12357 0.29782
 H434 H 0.32200 0.07693 0.33899
 H435 H 0.32998 0.15362 0.44251
 H436 H 0.29031 0.20037 0.40125
 H437 H 0.35603 0.20569 0.29583
 H438 H 0.39549 0.15920 0.33681
 C439 C 0.32568 0.69469 -0.17004
 C440 C 0.32608 0.64997 -0.17483
 C441 C 0.35192 0.63246 -0.15177
 C442 C 0.37496 0.66133 -0.12608
 C443 C 0.35076 0.68476 -0.09519
 C444 C 0.32480 0.70235 -0.11836
 C445 C 0.36121 0.70815 -0.18563
 C446 C 0.38714 0.69058 -0.16250
 C447 C 0.29798 0.71312 -0.19565
 C448 C 0.27606 0.72835 -0.21825
 C449 C 0.40230 0.64079 -0.10195
 C450 C 0.42285 0.61974 -0.08383
 H451 H 0.30764 0.63345 -0.19456
 H452 H 0.35559 0.60087 -0.15180
 H453 H 0.35379 0.68740 -0.05848
 H454 H 0.30556 0.72003 -0.10149
 H455 H 0.36558 0.72968 -0.21240
 H456 H 0.41371 0.69703 -0.16938
 C457 C 1.18973 -0.17639 -0.17443
 C458 C 1.19591 -0.13349 -0.18843
 C459 C 1.17529 -0.10745 -0.16645
 C460 C 1.15058 -0.12693 -0.13269
 C461 C 1.17312 -0.15098 -0.10030
 C462 C 1.19376 -0.17702 -0.12229
 C463 C 1.15177 -0.18348 -0.18287
 C464 C 1.13120 -0.15751 -0.16095
 C465 C 1.21157 -0.20427 -0.19862
 C466 C 1.22935 -0.22651 -0.21989
 C467 C 1.12764 -0.09960 -0.10945
 C468 C 1.10684 -0.07908 -0.09100
 H469 H 1.21487 -0.12437 -0.21333
 H470 H 1.17655 -0.07604 -0.17247
 H471 H 1.17296 -0.14777 -0.06341
 H472 H 1.21127 -0.19616 -0.10427
 H473 H 1.14190 -0.20688 -0.20418
 H474 H 1.10366 -0.15866 -0.16351
 C475 C 1.19150 0.32996 0.31961
 C476 C 1.19797 0.37364 0.30980
 C477 C 1.17625 0.39817 0.33239
 C478 C 1.15022 0.37656 0.36253
 C479 C 1.17156 0.35059 0.39437
 C480 C 1.19326 0.32611 0.37181
 C481 C 1.15396 0.32336 0.30777
 C482 C 1.13231 0.34779 0.33027
 C483 C 1.21435 0.30306 0.29519
 C484 C 1.23217 0.28003 0.27496
 C485 C 1.12613 0.40221 0.38665
 C486 C 1.10475 0.42146 0.40599
 H487 H 1.21787 0.38435 0.28720
 H488 H 1.17754 0.42987 0.32914
 H489 H 1.16985 0.35144 0.43138
 H490 H 1.21012 0.30598 0.38950
 H491 H 1.14513 0.30139 0.28374
 H492 H 1.10494 0.34673 0.32549
 C493 C 0.69107 -0.17501 0.32426
 C494 C 0.65341 -0.18129 0.31296
 C495 C 0.63222 -0.15622 0.33514
 C496 C 0.65073 -0.12727 0.36649
 C497 C 0.67672 -0.10645 0.33566
 C498 C 0.69799 -0.13161 0.31340
 C499 C 0.69324 -0.17820 0.37647
 C500 C 0.67196 -0.15302 0.39874
 C501 C 0.71305 -0.20216 0.29939
 C502 C 0.72956 -0.22444 0.27650
 C503 C 0.62702 -0.10099 0.38980
 C504 C 0.60561 -0.08129 0.40810
 H505 H 0.64416 -0.20354 0.28957
 H506 H 0.60481 -0.15697 0.33073
 H507 H 0.67835 -0.07482 0.33177
 H508 H 0.71789 -0.12156 0.29040
 H509 H 0.71001 -0.19831 0.39431
 H510 H 0.67049 -0.15153 0.43573
 C511 C 0.67087 0.30465 -0.17482
 C512 C 0.63551 0.29121 -0.19081
 C513 C 0.60927 0.30938 -0.16876
 C514 C 0.62098 0.33918 -0.13290
 C515 C 0.64464 0.36742 -0.15889
 C516 C 0.67078 0.34930 -0.18087
 C517 C 0.67079 0.29791 -0.12294
 C518 C 0.64456 0.31609 -0.10088
 C519 C 0.69900 0.28545 -0.19913
 C520 C 0.72135 0.26947 -0.22046
 C521 C 0.59340 0.36024 -0.10953
 C522 C 0.57295 0.38136 -0.09112
 H523 H 0.63145 0.26927 -0.21708
 H524 H 0.58278 0.30303 -0.17608
 H525 H 0.64113 0.39901 -0.15992
 H526 H 0.68963 0.36533 -0.20066
 H527 H 0.68963 0.28038 -0.10513
 H528 H 0.64090 0.31409 -0.06417
 C529 C 1.19137 0.17813 -0.17515
 C530 C 1.19685 0.13502 -0.18856
 C531 C 1.17587 0.10952 -0.16617
 C532 C 1.15149 0.12965 -0.13259
 C533 C 1.13255 0.16043 -0.16121
 C534 C 1.15348 0.18588 -0.18355
 C535 C 1.19547 0.17899 -0.12302
 C536 C 1.17447 0.15348 -0.10061
 C537 C 1.21360 0.20545 -0.19991
 C538 C 1.23158 0.22716 -0.22186
 C539 C 1.12817 0.10277 -0.10895
 C540 C 1.10719 0.08244 -0.09034
 H541 H 1.21562 0.12538 -0.21340
 H542 H 1.17666 0.07806 -0.17179
 H543 H 1.10503 0.16210 -0.16369
 H544 H 1.14392 0.20933 -0.20513
 H545 H 1.21329 0.19791 -0.10531
 H546 H 1.17432 0.15051 -0.06368
 C547 C 1.19097 0.67285 0.31776
 C548 C 1.19732 0.62910 0.30843
 C549 C 1.17563 0.60468 0.33141
 C550 C 1.14969 0.62638 0.36150
 C551 C 1.13175 0.65506 0.32901
 C552 C 1.15337 0.67940 0.30610
 C553 C 1.19286 0.67689 0.36993
 C554 C 1.17119 0.65250 0.39289
 C555 C 1.21389 0.69965 0.29280
 C556 C 1.23186 0.72246 0.27205
 C557 C 1.12561 0.60068 0.38608
 C558 C 1.10434 0.58122 0.40568
 H559 H 1.21713 0.61827 0.28583
 H560 H 1.17689 0.57297 0.32847
 H561 H 1.10437 0.65613 0.32437
 H562 H 1.14448 0.70127 0.28191
 H563 H 1.20979 0.69708 0.38732
 H564 H 1.16960 0.65183 0.42992
 C565 C 0.69068 0.17406 0.32611
 C566 C 0.69782 0.13080 0.31501
 C567 C 0.67653 0.10531 0.33687
 C568 C 0.65027 0.12567 0.36760
 C569 C 0.63184 0.15480 0.33628
 C570 C 0.65305 0.18020 0.31450
 C571 C 0.69254 0.17678 0.37836
 C572 C 0.67124 0.15127 0.40024
 C573 C 0.71270 0.20157 0.30158
 C574 C 0.72916 0.22414 0.27882
 C575 C 0.62654 0.09899 0.39050
 C576 C 0.60519 0.07890 0.40851
 H577 H 0.71789 0.12106 0.29214
 H578 H 0.67831 0.07373 0.33275
 H579 H 0.60445 0.15543 0.33160
 H580 H 0.64384 0.20261 0.29119
 H581 H 0.70914 0.19684 0.39651
 H582 H 0.66957 0.14944 0.43721
 C583 C 0.67352 0.69630 -0.16882
 C584 C 0.67306 0.65161 -0.17409
 C585 C 0.64711 0.63392 -0.15117
 C586 C 0.62400 0.66258 -0.12509
 C587 C 0.61200 0.69215 -0.16117
 C588 C 0.63804 0.70990 -0.18416
 C589 C 0.67420 0.70351 -0.11704
 C590 C 0.64813 0.68574 -0.09401
 C591 C 0.70138 0.71500 -0.19426
 C592 C 0.72343 0.73057 -0.21661
 C593 C 0.59650 0.64186 -0.10106
 C594 C 0.57584 0.62070 -0.08301
 H595 H 0.69154 0.63525 -0.19405
 H596 H 0.64340 0.60235 -0.15156
 H597 H 0.58546 0.69869 -0.16794
 H598 H 0.63378 0.73165 -0.21069
 H599 H 0.69340 0.72103 -0.10000
 H600 H 0.64498 0.68807 -0.05727
 C601 C 0.81188 -0.17734 -0.17037
 C602 C 0.80668 -0.13399 -0.18303
 C603 C 0.82796 -0.10907 -0.16061
 C604 C 0.85234 -0.12994 -0.12775
 C605 C 0.87090 -0.16048 -0.15715
 C606 C 0.84966 -0.18537 -0.17954
 C607 C 0.80802 -0.17894 -0.11819
 C608 C 0.82933 -0.15399 -0.09574
 C609 C 0.78927 -0.20397 -0.19519
 C610 C 0.77090 -0.22507 -0.21707
 C611 C 0.87591 -0.10351 -0.10424
 C612 C 0.89693 -0.08309 -0.08615
 H613 H 0.78787 -0.12377 -0.20739
 H614 H 0.82739 -0.07751 -0.16574
 H615 H 0.89840 -0.16242 -0.16011
 H616 H 0.85893 -0.20860 -0.20163
 H617 H 0.79013 -0.19794 -0.10047
 H618 H 0.82969 -0.15159 -0.05877
 C619 C 0.80784 0.32760 0.32120
 C620 C 0.84551 0.32091 0.30980
 C621 C 0.86702 0.34476 0.33325
 C622 C 0.84888 0.37308 0.36595
 C623 C 0.82695 0.34671 0.39681
 C624 C 0.80539 0.32281 0.37329
 C625 C 0.80180 0.37150 0.31240
 C626 C 0.82338 0.39541 0.33593
 C627 C 0.78514 0.30139 0.29560
 C628 C 0.76749 0.27899 0.27421
 C629 C 0.87284 0.39830 0.39086
 C630 C 0.89410 0.41764 0.41024
 H631 H 0.85452 0.29931 0.28539
 H632 H 0.89444 0.34353 0.32889
 H633 H 0.82820 0.34687 0.43385
 H634 H 0.78817 0.30250 0.39021
 H635 H 0.78227 0.38279 0.28977
 H636 H 0.82232 0.42718 0.33345
 C637 C 0.30906 -0.17958 0.32751
 C638 C 0.34670 -0.18628 0.31602
 C639 C 0.36816 -0.16193 0.33873
 C640 C 0.34996 -0.13316 0.37079
 C641 C 0.32825 -0.15909 0.40248
 C642 C 0.30670 -0.18356 0.37967
 C643 C 0.30279 -0.13590 0.31768
 C644 C 0.32431 -0.11147 0.34045
 C645 C 0.28664 -0.20582 0.30186
 C646 C 0.26968 -0.22702 0.27808
 C647 C 0.37388 -0.10727 0.39446
 C648 C 0.39516 -0.08717 0.41248
 H649 H 0.35573 -0.20831 0.29214
 H650 H 0.39557 -0.16310 0.33428
 H651 H 0.32963 -0.15825 0.43950
 H652 H 0.28961 -0.20369 0.39711
 H653 H 0.28311 -0.12511 0.29495
 H654 H 0.32308 -0.07976 0.33725
 C655 C 0.32974 0.30539 -0.17616
 C656 C 0.36504 0.29179 -0.19248
 C657 C 0.39136 0.30937 -0.17014
 C658 C 0.37977 0.33877 -0.13369
 C659 C 0.35589 0.31549 -0.10205
 C660 C 0.32957 0.29791 -0.12441
 C661 C 0.33023 0.35011 -0.18134
 C662 C 0.35645 0.36762 -0.15908
 C663 C 0.30150 0.28694 -0.20080
 C664 C 0.27903 0.27168 -0.22244
 C665 C 0.40740 0.35931 -0.11002
 C666 C 0.42775 0.38034 -0.09142
 H667 H 0.36899 0.27018 -0.21917
 H668 H 0.41781 0.30282 -0.17762
 H669 H 0.35941 0.31292 -0.06540
 H670 H 0.31052 0.28033 -0.10690
 H671 H 0.31159 0.36663 -0.20079
 H672 H 0.36023 0.39919 -0.15952
 C673 C 1.19053 -0.17725 0.17570
 C674 C 1.15265 -0.18482 0.18473
 C675 C 1.13168 -0.15928 0.16275
 C676 C 1.15057 -0.12855 0.13379
 C677 C 1.17332 -0.15249 0.10145
 C678 C 1.19434 -0.17810 0.12349
 C679 C 1.19621 -0.13415 0.18901
 C680 C 1.17521 -0.10856 0.16698
 C681 C 1.21285 -0.20472 0.20006
 C682 C 1.23093 -0.22663 0.22158
 C683 C 1.12724 -0.10150 0.11047
 C684 C 1.10636 -0.08096 0.09206
 H685 H 1.14310 -0.20824 0.20648
 H686 H 1.10417 -0.16085 0.16571
 H687 H 1.17299 -0.14953 0.06452
 H688 H 1.21200 -0.19708 0.10546
 H689 H 1.21514 -0.12458 0.21352
 H690 H 1.17614 -0.07710 0.17260
 C691 C 1.19171 0.33008 0.67944
 C692 C 1.15413 0.32324 0.69129
 C693 C 1.13245 0.34739 0.66846
 C694 C 1.15035 0.37616 0.63588
 C695 C 1.17202 0.35020 0.60439
 C696 C 1.19375 0.32599 0.62727
 C697 C 1.19784 0.37386 0.68873
 C698 C 1.17609 0.39810 0.66582
 C699 C 1.21464 0.30346 0.70422
 C700 C 1.23257 0.28065 0.72467
 C701 C 1.12621 0.40157 0.61143
 C702 C 1.10482 0.42075 0.59201
 H703 H 1.14531 0.30132 0.71556
 H704 H 1.10506 0.34613 0.67322
 H705 H 1.17050 0.35084 0.56737
 H706 H 1.21082 0.30592 0.60983
 H707 H 1.21755 0.38485 0.71124
 H708 H 1.17717 0.42982 0.66871
 C709 C 0.69095 -0.17449 0.67557
 C710 C 0.65331 -0.18107 0.68717
 C711 C 0.63195 -0.15641 0.66471
 C712 C 0.65025 -0.12750 0.63280
 C713 C 0.67175 -0.15328 0.60084
 C714 C 0.69321 -0.17805 0.62340
 C715 C 0.69749 -0.13093 0.68570
 C716 C 0.67604 -0.10618 0.66316
 C717 C 0.71319 -0.20120 0.70074
 C718 C 0.72994 -0.22315 0.72379
 C719 C 0.62640 -0.10155 0.60920
 C720 C 0.60502 -0.08195 0.59070
 H721 H 0.64422 -0.20324 0.71096
 H722 H 0.60453 -0.15743 0.66928
 H723 H 0.67033 -0.15210 0.56384
 H724 H 0.71017 -0.19812 0.60577
 H725 H 0.71727 -0.12047 0.70844
 H726 H 0.67742 -0.07450 0.66655
 C727 C 0.67080 0.30507 0.17442
 C728 C 0.63558 0.29106 0.19068
 C729 C 0.60916 0.30867 0.16854
 C730 C 0.62058 0.33850 0.13232
 C731 C 0.64454 0.31571 0.10045
 C732 C 0.67096 0.29810 0.12260
 C733 C 0.67011 0.34973 0.17999
 C734 C 0.64379 0.36727 0.15792
 C735 C 0.69911 0.28653 0.19883
 C736 C 0.72160 0.27104 0.22025
 C737 C 0.59283 0.35906 0.10889
 C738 C 0.57233 0.38009 0.09054
 H739 H 0.63176 0.26916 0.21719
 H740 H 0.58275 0.30187 0.17601
 H741 H 0.64100 0.31349 0.06378
 H742 H 0.69008 0.28084 0.10491
 H743 H 0.68870 0.36619 0.19953
 H744 H 0.63986 0.39881 0.15863
 C745 C 0.81085 0.18040 0.17128
 C746 C 0.80593 0.13696 0.18376
 C747 C 0.82746 0.11234 0.16118
 C748 C 0.85179 0.13357 0.12835
 C749 C 0.87004 0.16421 0.15784
 C750 C 0.84854 0.18879 0.18038
 C751 C 0.80714 0.18214 0.11911
 C752 C 0.82871 0.15748 0.09649
 C753 C 0.78800 0.20665 0.19638
 C754 C 0.76952 0.22733 0.21877
 C755 C 0.87561 0.10739 0.10478
 C756 C 0.89676 0.08699 0.08680
 H757 H 0.78711 0.12647 0.20811
 H758 H 0.82709 0.08077 0.16616
 H759 H 0.89751 0.16643 0.16072
 H760 H 0.85757 0.21206 0.20254
 H761 H 0.78917 0.20101 0.10153
 H762 H 0.82922 0.15520 0.05951
 C763 C 0.80862 0.67399 0.68013
 C764 C 0.80231 0.63008 0.68859
 C765 C 0.82356 0.60615 0.66438
 C766 C 0.84903 0.62848 0.63409
 C767 C 0.86758 0.65640 0.66673
 C768 C 0.84640 0.68025 0.69085
 C769 C 0.80587 0.67919 0.62813
 C770 C 0.82711 0.65528 0.60394
 C771 C 0.78624 0.70021 0.70643
 C772 C 0.76878 0.72261 0.72821
 C773 C 0.87268 0.60323 0.60850
 C774 C 0.89380 0.58382 0.58878
 H775 H 0.78284 0.61879 0.71148
 H776 H 0.82227 0.57439 0.66654
 H777 H 0.89504 0.65735 0.67056
 H778 H 0.85573 0.70158 0.71531
 H779 H 0.78871 0.69979 0.61176
 H780 H 0.82812 0.65540 0.56688
 C781 C 0.30947 0.17785 0.66787
 C782 C 0.30245 0.13441 0.67834
 C783 C 0.32350 0.10932 0.65565
 C784 C 0.34944 0.13019 0.62478
 C785 C 0.36820 0.15883 0.65626
 C786 C 0.34721 0.18384 0.67888
 C787 C 0.30706 0.18142 0.61570
 C788 C 0.32815 0.15628 0.59296
 C789 C 0.28767 0.20477 0.69348
 C790 C 0.27135 0.22654 0.71732
 C791 C 0.37295 0.10368 0.60135
 C792 C 0.39418 0.08323 0.58376
 H793 H 0.28262 0.12427 0.70142
 H794 H 0.32174 0.07767 0.65923
 H795 H 0.39564 0.15945 0.66040
 H796 H 0.35667 0.20589 0.70238
 H797 H 0.29028 0.20176 0.59821
 H798 H 0.32946 0.15505 0.55594
 C799 C 0.32449 0.69495 0.17212
 C800 C 0.32435 0.65022 0.17742
 C801 C 0.35006 0.63213 0.15448
 C802 C 0.37356 0.66044 0.12834
 C803 C 0.38595 0.68971 0.16438
 C804 C 0.36016 0.70786 0.18738
 C805 C 0.32389 0.70230 0.12033
 C806 C 0.34970 0.68413 0.09729
 C807 C 0.29689 0.71414 0.19767
 C808 C 0.27515 0.73008 0.22030
 C809 C 0.40089 0.63942 0.10423
 C810 C 0.42157 0.61841 0.08600
 H811 H 0.30566 0.63413 0.19740
 H812 H 0.35334 0.60049 0.15489
 H813 H 0.41257 0.69576 0.17114
 H814 H 0.36475 0.72946 0.21387
 H815 H 0.30492 0.72019 0.10329
 H816 H 0.35285 0.68651 0.06054
   
