data_POSCAR
  _audit_creation_date              2014-09-24
  _audit_creation_method            'ToBaCCo'
  _symmetry_space_group_name_H-M    'P1'
  _symmetry_Int_Tables_number       1
  _symmetry_cell_setting            triclinic
  loop_
  _symmetry_equiv_pos_as_xyz
 x,y,z
_cell_length_a 26.9116
_cell_length_b 26.6268
_cell_length_c 47.5598
_cell_angle_alpha 90.990100
_cell_angle_beta 91.145100
_cell_angle_gamma 91.077500
loop_
  _atom_site_label
  _atom_site_type_symbol
  _atom_site_fract_x
  _atom_site_fract_y
  _atom_site_fract_z
C1 C -0.03993 0.34835 0.98570
 C2 C -0.04203 0.35013 1.01446
 C3 C -0.01974 0.39535 1.02322
 N4 N -0.00511 0.42169 1.00070
 C5 C -0.01700 0.39272 0.97780
 C6 C -0.00989 0.41066 1.05149
 C7 C -0.00135 0.46218 1.05855
 C8 C 0.02494 0.48024 1.08210
 C9 C 0.02322 0.53174 1.08155
 C10 C -0.00439 0.54412 1.05776
 N11 N -0.01827 0.50139 1.04352
 C12 C -0.01743 0.59355 1.04982
 C13 C -0.02717 0.60394 1.02103
 C14 C -0.05167 0.64543 1.01059
 C15 C -0.04724 0.64375 0.98193
 C16 C -0.02161 0.60062 0.97568
 N17 N -0.00960 0.57611 0.99947
 C18 C -0.00693 0.58595 0.94855
 C19 C 0.00588 0.53618 0.94194
 C20 C 0.03020 0.52075 0.91795
 C21 C 0.03101 0.46910 0.91836
 C22 C 0.00703 0.45464 0.94255
 N23 N -0.00777 0.49575 0.95689
 C24 C -0.00419 0.40479 0.95007
 H25 H -0.05418 0.31807 0.97219
 H26 H -0.05862 0.32149 1.02734
 H27 H -0.03100 0.49598 0.97416
 H28 H 0.04478 0.45880 1.09767
 H29 H 0.04183 0.55691 1.09661
 H30 H -0.07149 0.67382 1.02210
 H31 H -0.06192 0.67070 0.96730
 H32 H 0.04714 0.44508 0.90254
 H33 H -0.04177 0.49895 1.02580
 H34 H 0.04532 0.54417 0.90170
 C35 C 0.34897 -0.02134 0.48796
 C36 C 0.35163 -0.02238 0.51676
 C37 C 0.40022 -0.00958 0.52451
 N38 N 0.42715 -0.00047 0.50141
 C39 C 0.39607 -0.00805 0.47898
 C40 C 0.41755 -0.00109 0.55242
 C41 C 0.46779 0.01027 0.55955
 C42 C 0.48415 0.03182 0.58487
 C43 C 0.53513 0.03376 0.58428
 C44 C 0.54889 0.01193 0.55892
 N45 N 0.50741 -0.00168 0.54381
 C46 C 0.59850 0.00327 0.55053
 C47 C 0.60952 -0.00514 0.52174
 C48 C 0.65243 -0.02684 0.51172
 C49 C 0.64982 -0.02467 0.48301
 C50 C 0.60498 -0.00289 0.47628
 N51 N 0.58018 0.00890 0.49990
 C52 C 0.58887 0.00796 0.44868
 C53 C 0.53854 0.01605 0.44149
 C54 C 0.52153 0.03424 0.41601
 C55 C 0.47046 0.03190 0.41648
 C56 C 0.45759 0.01298 0.44242
 N57 N 0.49943 0.00319 0.45744
 C58 C 0.40851 0.00167 0.45081
 H59 H 0.31563 -0.02808 0.47527
 H60 H 0.32078 -0.03002 0.53039
 H61 H 0.50147 -0.01665 0.47605
 H62 H 0.46189 0.04518 0.60203
 H63 H 0.55896 0.05009 0.60071
 H64 H 0.68222 -0.04368 0.52363
 H65 H 0.67733 -0.03859 0.46867
 H66 H 0.44594 0.04234 0.39936
 H67 H 0.50631 -0.02300 0.52524
 H68 H 0.54351 0.04707 0.39864
 C69 C 0.08640 0.04118 0.27371
 H70 H 0.08405 0.07003 0.25809
 C71 C 0.12717 0.04095 0.29235
 H72 H 0.15608 0.06950 0.29062
 C73 C 0.05108 -0.03011 0.29544
 H74 H 0.02065 -0.05703 0.29686
 C75 C 0.09146 -0.03213 0.31426
 H76 H 0.09192 -0.06103 0.33000
 N77 N 0.04956 0.00574 0.27543
 C78 C -0.04152 -0.04739 0.20400
 H79 H -0.06282 -0.01397 0.20040
 C80 C -0.04461 -0.08740 0.18463
 H81 H -0.06856 -0.08460 0.16617
 C82 C 0.01631 -0.09118 0.23216
 H83 H 0.04079 -0.09228 0.25036
 C84 C 0.01344 -0.13253 0.21367
 H85 H 0.03576 -0.16507 0.21793
 Zn86 Zn -0.00712 0.00784 0.25122
 N87 N -0.01119 -0.04978 0.22714
 C88 C 0.02980 0.06457 0.20706
 N89 N -0.00331 0.06523 0.22827
 C90 C -0.03401 0.10469 0.23210
 C91 C -0.03193 0.14572 0.21420
 C92 C 0.03260 0.10443 0.18843
 C93 C -0.10295 -0.02171 0.26960
 C94 C -0.14370 -0.02040 0.28735
 C95 C -0.10280 0.04714 0.31396
 C96 C -0.06299 0.04466 0.29567
 N97 N -0.06376 0.01066 0.27401
 H98 H 0.05354 0.03258 0.20438
 H99 H -0.06052 0.10429 0.24885
 H100 H -0.05696 0.17656 0.21743
 H101 H 0.05888 0.10288 0.17151
 H102 H -0.10253 -0.04885 0.25246
 H103 H -0.17439 -0.04667 0.28356
 H104 H -0.10120 0.07438 0.33114
 H105 H -0.03109 0.06958 0.29885
 C106 C -0.01693 -0.13069 0.18940
 C107 C 0.13014 0.00384 0.31291
 C108 C -0.14385 0.01420 0.31000
 C109 C 0.00135 0.14566 0.19183
 C110 C 0.00708 0.09160 0.76377
 H111 H 0.00631 0.09697 0.74127
 C112 C 0.00515 0.13315 0.78212
 H113 H 0.00323 0.17050 0.77356
 C114 C 0.00994 0.03634 0.80224
 H115 H 0.01051 -0.00131 0.81018
 C116 C 0.00861 0.07663 0.82125
 H117 H 0.00881 0.06915 0.84356
 N118 N 0.01028 0.04438 0.77407
 C119 C 0.08190 -0.05048 0.71183
 H120 H 0.05665 -0.08257 0.71211
 C121 C 0.12321 -0.05134 0.69460
 H122 H 0.12940 -0.08441 0.68167
 C123 C 0.10353 0.03179 0.72815
 H124 H 0.09583 0.06402 0.74132
 C125 C 0.14514 0.03271 0.71101
 H126 H 0.16899 0.06592 0.71117
 Zn127 Zn 0.01330 -0.01128 0.74871
 N128 N 0.07239 -0.00907 0.72780
 C129 C -0.03479 -0.00443 0.69577
 N130 N -0.04239 -0.00908 0.72379
 C131 C -0.08910 -0.01004 0.73423
 C132 C -0.13054 -0.00769 0.71609
 C133 C -0.07499 -0.00159 0.67697
 C134 C 0.05340 -0.07886 0.78651
 C135 C 0.05431 -0.11970 0.80445
 C136 C -0.02494 -0.14784 0.78458
 C137 C -0.02461 -0.10599 0.76723
 N138 N 0.01351 -0.07174 0.76914
 H139 H 0.00250 -0.00240 0.68787
 H140 H -0.09412 -0.01273 0.75667
 H141 H -0.16741 -0.00881 0.72478
 H142 H -0.06784 0.00192 0.65476
 H143 H 0.08367 -0.05151 0.78720
 H144 H 0.08566 -0.12363 0.81882
 H145 H -0.05634 -0.17388 0.78343
 H146 H -0.05534 -0.10045 0.75274
 C147 C 0.15510 -0.00906 0.69370
 C148 C 0.00652 0.12586 0.81131
 C149 C 0.01429 -0.15428 0.80404
 C150 C -0.12370 -0.00342 0.68701
 C151 C -0.01938 -0.29113 0.10968
 N152 N -0.02194 -0.33981 0.11757
 N153 N -0.02165 -0.37685 0.09834
 C154 C -0.01826 -0.36698 0.07044
 N155 N -0.01530 -0.31801 0.06287
 N156 N -0.01614 -0.28093 0.08197
 C157 C -0.01978 -0.24995 0.13060
 N158 N -0.02949 -0.20245 0.12249
 N159 N -0.02920 -0.16473 0.14126
 C160 C -0.01866 -0.17295 0.16882
 N161 N -0.00883 -0.22051 0.17691
 N162 N -0.00965 -0.25837 0.15818
 C163 C -0.00032 0.30191 0.11248
 N164 N -0.01375 0.34935 0.11944
 N165 N -0.01638 0.38459 0.09990
 C166 C -0.00624 0.37374 0.07255
 N167 N 0.00741 0.32616 0.06585
 N168 N 0.01043 0.29107 0.08536
 C169 C 0.00160 0.26235 0.13361
 N170 N 0.02202 0.21746 0.12724
 N171 N 0.02255 0.18076 0.14590
 C172 C 0.00233 0.18732 0.17161
 N173 N -0.01805 0.23235 0.17798
 N174 N -0.01826 0.26924 0.15937
 C175 C 0.31099 -0.00470 0.61542
 N176 N 0.32496 -0.04768 0.60226
 N177 N 0.35930 -0.04651 0.58249
 C178 C 0.38085 -0.00230 0.57513
 N179 N 0.36687 0.04073 0.58824
 N180 N 0.33263 0.03953 0.60808
 C181 C 0.27198 -0.00602 0.63656
 N182 N 0.25922 0.03639 0.65070
 N183 N 0.22266 0.03531 0.66919
 C184 C 0.19735 -0.00818 0.67419
 N185 N 0.21043 -0.05059 0.66010
 N186 N 0.24707 -0.04956 0.64170
 C187 C -0.28618 0.00415 0.60965
 N188 N -0.33320 -0.00803 0.61716
 N189 N -0.37038 -0.00808 0.59821
 C190 C -0.36221 0.00403 0.57097
 N191 N -0.31501 0.01663 0.56376
 N192 N -0.27782 0.01659 0.58262
 C193 C -0.24457 0.00301 0.63006
 N194 N -0.19746 0.01167 0.62150
 N195 N -0.15929 0.00978 0.63964
 C196 C -0.16662 -0.00073 0.66711
 N197 N -0.21389 -0.00917 0.67570
 N198 N -0.25216 -0.00743 0.65751
 C199 C 0.00287 -0.30553 0.88599
 N200 N 0.02561 -0.29781 0.91148
 N201 N 0.02215 -0.33217 0.93139
 C202 C -0.00395 -0.37565 0.92649
 N203 N -0.02668 -0.38344 0.90099
 N204 N -0.02348 -0.34890 0.88113
 C205 C 0.00662 -0.26731 0.86424
 N206 N -0.02238 -0.27036 0.84056
 N207 N -0.01964 -0.23479 0.82123
 C208 C 0.01251 -0.19510 0.82474
 N209 N 0.04174 -0.19244 0.84836
 N210 N 0.03878 -0.22777 0.86775
 C211 C 0.00277 0.28823 0.88970
 N212 N -0.01669 0.33313 0.88276
 N213 N -0.01883 0.37021 0.90187
 C214 C -0.00141 0.36383 0.92857
 N215 N 0.01833 0.31898 0.93537
 N216 N 0.02024 0.28187 0.91633
 C217 C 0.00422 0.24669 0.86906
 N218 N 0.01772 0.20035 0.87736
 N219 N 0.01844 0.16218 0.85895
 C220 C 0.00590 0.16880 0.83148
 N221 N -0.00735 0.21534 0.82314
 N222 N -0.00833 0.25356 0.84161
 C223 C -0.30123 0.01477 0.38744
 N224 N -0.34313 -0.01367 0.38284
 N225 N -0.37848 -0.01537 0.40207
 C226 C -0.37314 0.01126 0.42660
 N227 N -0.33130 0.03979 0.43111
 N228 N -0.29607 0.04157 0.41189
 C229 C -0.26135 0.01561 0.36681
 N230 N -0.22031 0.04522 0.37139
 N231 N -0.18332 0.04509 0.35321
 C232 C -0.18579 0.01525 0.32974
 N233 N -0.22704 -0.01425 0.32514
 N234 N -0.26412 -0.01406 0.34331
 C235 C 0.29199 0.00195 0.39093
 N236 N 0.30454 -0.04109 0.40397
 N237 N 0.34189 -0.04124 0.42278
 C238 C 0.36791 0.00169 0.42932
 N239 N 0.35526 0.04478 0.41635
 N240 N 0.31810 0.04486 0.39742
 C241 C 0.25044 0.00222 0.37044
 N242 N 0.24155 0.04353 0.35493
 N243 N 0.20357 0.04391 0.33654
 C244 C 0.17281 0.00312 0.33305
 N245 N 0.18178 -0.03816 0.34862
 N246 N 0.21993 -0.03867 0.36690
   
