data_POSCAR
  _audit_creation_date              2014-09-24
  _audit_creation_method            'ToBaCCo'
  _symmetry_space_group_name_H-M    'P1'
  _symmetry_Int_Tables_number       1
  _symmetry_cell_setting            triclinic
  loop_
  _symmetry_equiv_pos_as_xyz
 x,y,z
_cell_length_a 32.0238
_cell_length_b 31.3796
_cell_length_c 46.3194
_cell_angle_alpha 89.850200
_cell_angle_beta 87.018700
_cell_angle_gamma 87.577200
loop_
  _atom_site_label
  _atom_site_type_symbol
  _atom_site_fract_x
  _atom_site_fract_y
  _atom_site_fract_z
C1 C 0.00543 0.49723 0.98581
 C2 C -0.00202 0.49685 1.01503
 C3 C -0.00397 0.53676 1.03225
 C4 C -0.00755 0.45656 1.03144
 C5 C 0.01016 0.45728 0.96863
 C6 C 0.00858 0.53777 0.96943
 C7 C 0.03032 0.56304 1.03229
 C8 C 0.02854 0.60007 1.04910
 C9 C -0.00787 0.61163 1.06647
 C10 C -0.04214 0.58488 1.06608
 C11 C -0.04006 0.54779 1.04939
 C12 C 0.01799 0.44693 1.05448
 C13 C 0.01430 0.40863 1.06961
 C14 C -0.01541 0.37933 1.06216
 C15 C -0.04127 0.38922 1.03929
 C16 C -0.03773 0.42772 1.02427
 C17 C -0.01630 0.45107 0.94597
 C18 C -0.01360 0.41300 0.93031
 C19 C 0.01617 0.38053 0.93678
 C20 C 0.04302 0.38711 0.95924
 C21 C 0.04032 0.42527 0.97487
 C22 C -0.02489 0.56816 0.97004
 C23 C -0.02162 0.60606 0.95430
 C24 C 0.01518 0.61403 0.93755
 C25 C 0.04865 0.58365 0.93719
 C26 C 0.04523 0.54565 0.95274
 H27 H 0.05866 0.55466 1.01940
 H28 H 0.05591 0.61900 1.04798
 H29 H -0.07074 0.59234 1.07897
 H30 H -0.06680 0.52773 1.04970
 H31 H 0.04154 0.46869 1.06030
 H32 H 0.03560 0.40168 1.08653
 H33 H -0.05825 0.43486 1.00687
 H34 H -0.03987 0.47535 0.94091
 H35 H -0.03570 0.40889 0.91379
 H36 H 0.06612 0.36260 0.96473
 H37 H 0.06143 0.42969 0.99204
 H38 H -0.05352 0.56246 0.98268
 H39 H -0.04765 0.62920 0.95567
 H40 H 0.07737 0.58915 0.92459
 H41 H 0.07134 0.52252 0.95201
 H42 H -0.06430 0.36714 1.03308
 C43 C 0.49760 0.00900 0.48585
 C44 C 0.50055 0.00924 0.51512
 C45 C 0.46297 0.00682 0.53522
 C46 C 0.54143 0.01240 0.52868
 C47 C 0.53540 0.00757 0.46578
 C48 C 0.45649 0.01099 0.47225
 C49 C 0.45570 0.03746 0.55708
 C50 C 0.42077 0.03557 0.57627
 C51 C 0.39232 0.00307 0.57403
 C52 C 0.40006 -0.02821 0.55244
 C53 C 0.43517 -0.02637 0.53327
 C54 C 0.56855 0.04514 0.52107
 C55 C 0.60669 0.04778 0.53419
 C56 C 0.61783 0.01858 0.55576
 C57 C 0.59053 -0.01397 0.56352
 C58 C 0.55268 -0.01692 0.55014
 C59 C 0.56666 -0.02491 0.46766
 C60 C 0.60239 -0.02531 0.44893
 C61 C 0.60733 0.00676 0.42781
 C62 C 0.57542 0.03855 0.42565
 C63 C 0.53982 0.03890 0.44435
 C64 C 0.44822 -0.01913 0.45119
 C65 C 0.41022 -0.01716 0.43767
 C66 C 0.37983 0.01533 0.44478
 C67 C 0.38800 0.04526 0.46602
 C68 C 0.42618 0.04345 0.47939
 H69 H 0.47696 0.06311 0.55912
 H70 H 0.41579 0.05984 0.59284
 H71 H 0.37970 -0.05455 0.55053
 H72 H 0.44084 -0.05100 0.51703
 H73 H 0.56012 0.06873 0.50505
 H74 H 0.62725 0.07308 0.52784
 H75 H 0.53224 -0.04239 0.55635
 H76 H 0.56339 -0.04990 0.48369
 H77 H 0.62563 -0.05087 0.45118
 H78 H 0.57816 0.06350 0.40954
 H79 H 0.51592 0.06408 0.44241
 H80 H 0.47115 -0.04445 0.44540
 H81 H 0.40457 -0.04153 0.42204
 H82 H 0.36505 0.07050 0.47192
 H83 H 0.43220 0.06754 0.49517
 H84 H 0.59864 -0.03767 0.57952
 C85 C 0.10061 0.00403 0.26066
 H86 H 0.10133 0.00710 0.23737
 C87 C 0.13759 0.00582 0.27516
 H88 H 0.16683 0.01016 0.26288
 C89 C 0.06155 -0.00547 0.30489
 H90 H 0.03184 -0.00970 0.31642
 C91 C 0.09782 -0.00361 0.32032
 H92 H 0.09541 -0.00750 0.34353
 N93 N 0.06369 -0.00233 0.27556
 C94 C -0.01330 -0.06286 0.21363
 H95 H -0.04126 -0.04223 0.21533
 C96 C -0.01132 -0.09796 0.19502
 H97 H -0.03778 -0.10353 0.18216
 C98 C 0.05544 -0.07956 0.22796
 H99 H 0.08124 -0.07277 0.24106
 C100 C 0.05886 -0.11476 0.20951
 H101 H 0.08750 -0.13447 0.20841
 Zn102 Zn 0.01549 -0.00537 0.25370
 N103 N 0.02001 -0.05400 0.22934
 C104 C 0.00863 0.04429 0.20231
 N105 N 0.01181 0.04524 0.23145
 C106 C 0.01337 0.08277 0.24582
 C107 C 0.01078 0.12142 0.23095
 C108 C 0.00563 0.08223 0.18654
 C109 C -0.03755 -0.04452 0.29535
 C110 C -0.07368 -0.04894 0.31319
 C111 C -0.10124 0.01795 0.29467
 C112 C -0.06454 0.02112 0.27735
 N113 N -0.03345 -0.00965 0.27814
 H114 H 0.00846 0.01414 0.19116
 H115 H 0.01645 0.08259 0.26897
 H116 H 0.01188 0.15089 0.24300
 H117 H 0.00333 0.07983 0.16345
 H118 H -0.01265 -0.06893 0.29522
 H119 H -0.07606 -0.07694 0.32682
 H120 H -0.12463 0.04353 0.29334
 H121 H -0.06116 0.04816 0.26309
 C122 C 0.02526 -0.12439 0.19280
 C123 C 0.13655 0.00199 0.30534
 C124 C -0.10639 -0.01758 0.31306
 C125 C 0.00641 0.12177 0.20091
 C126 C -0.01830 0.08586 0.75330
 H127 H -0.02059 0.08562 0.73008
 C128 C -0.01746 0.12455 0.76797
 H129 H -0.01906 0.15412 0.75588
 C130 C -0.01393 0.04749 0.79724
 H131 H -0.01333 0.01741 0.80862
 C132 C -0.01286 0.08552 0.81279
 H133 H -0.01180 0.08394 0.83606
 N134 N -0.01598 0.04834 0.76798
 C135 C 0.03699 -0.04362 0.70423
 H136 H 0.01303 -0.06694 0.70465
 C137 C 0.07293 -0.04956 0.68601
 H138 H 0.07646 -0.07755 0.67232
 C139 C 0.06159 0.02113 0.72168
 H140 H 0.05729 0.04852 0.73574
 C141 C 0.09799 0.01641 0.70388
 H142 H 0.12049 0.04113 0.70405
 Zn143 Zn -0.01733 -0.00216 0.74584
 N144 N 0.03180 -0.00846 0.72137
 C145 C -0.06252 0.00175 0.69440
 N146 N -0.06549 0.00298 0.72378
 C147 C -0.10311 0.00924 0.73842
 C148 C -0.13989 0.01269 0.72356
 C149 C -0.09850 0.00552 0.67859
 C150 C 0.01358 -0.06070 0.78626
 C151 C 0.01357 -0.09642 0.80436
 C152 C -0.05484 -0.11178 0.78845
 C153 C -0.05333 -0.07597 0.77058
 N154 N -0.01973 -0.05088 0.77010
 H155 H -0.03225 -0.00218 0.68310
 H156 H -0.10452 0.01096 0.76178
 H157 H -0.16952 0.01692 0.73583
 H158 H -0.09462 0.00348 0.65534
 H159 H 0.04021 -0.04054 0.78515
 H160 H 0.04050 -0.10251 0.81706
 H161 H -0.08216 -0.13104 0.78853
 H162 H -0.07904 -0.06854 0.75701
 C163 C 0.10413 -0.01950 0.68582
 C164 C -0.01417 0.12475 0.79803
 C165 C -0.02120 -0.12266 0.80574
 C166 C -0.13815 0.01076 0.69320
 C167 C -0.01149 -0.35321 0.08349
 C168 C 0.02014 -0.32457 0.08758
 C169 C 0.01357 -0.28751 0.10699
 N170 N 0.04648 -0.26391 0.11318
 N171 N 0.04122 -0.23053 0.13090
 C172 C 0.00278 -0.21941 0.14304
 N173 N -0.03020 -0.24282 0.13669
 N174 N -0.02491 -0.27630 0.11904
 C175 C -0.00349 -0.18270 0.16273
 C176 C 0.03012 -0.16119 0.17281
 H177 H 0.05110 -0.32928 0.07746
 H178 H -0.03520 -0.17362 0.17015
 H179 H -0.04107 -0.34679 0.09550
 H180 H 0.06166 -0.17297 0.16679
 C181 C -0.01885 0.33761 0.07690
 C182 C -0.00633 0.33030 0.10497
 C183 C -0.00690 0.28792 0.11858
 N184 N 0.00331 0.28335 0.14651
 N185 N 0.00405 0.24508 0.15901
 C186 C -0.00527 0.20988 0.14402
 N187 N -0.01545 0.21444 0.11607
 N188 N -0.01629 0.25275 0.10357
 C189 C -0.00381 0.16723 0.15737
 C190 C 0.00352 0.16144 0.18670
 H191 H 0.00408 0.35636 0.11763
 H192 H -0.00932 0.14060 0.14357
 H193 H -0.03246 0.31201 0.06542
 H194 H 0.00664 0.18984 0.19956
 C195 C 0.35580 0.00266 0.59500
 C196 C 0.31968 -0.01954 0.59089
 C197 C 0.28352 -0.01693 0.61189
 N198 N 0.24801 -0.03696 0.60647
 N199 N 0.21482 -0.03410 0.62507
 C200 C 0.21599 -0.01112 0.64982
 N201 N 0.25153 0.00874 0.65528
 N202 N 0.28466 0.00590 0.63669
 C203 C 0.17947 -0.00651 0.67035
 C204 C 0.14180 -0.02585 0.66610
 H205 H 0.31682 -0.03798 0.57146
 H206 H 0.18279 0.01267 0.68939
 H207 H 0.35667 0.02255 0.61403
 H208 H 0.14006 -0.04731 0.64795
 C209 C -0.34166 0.02218 0.56930
 C210 C -0.33546 0.00918 0.59763
 C211 C -0.29489 0.01180 0.61086
 N212 N -0.29216 0.00410 0.63954
 N213 N -0.25556 0.00552 0.65183
 C214 C -0.22025 0.01454 0.63585
 N215 N -0.22295 0.02208 0.60713
 N216 N -0.25961 0.02085 0.59486
 C217 C -0.17939 0.01505 0.64901
 C218 C -0.17600 0.01328 0.67900
 H219 H -0.36137 -0.00238 0.61095
 H220 H -0.15213 0.01754 0.63447
 H221 H -0.31663 0.03736 0.55706
 H222 H -0.20488 0.01418 0.69234
 C223 C 0.02005 -0.34622 0.92067
 C224 C -0.01365 -0.32270 0.90987
 C225 C -0.00787 -0.28426 0.89209
 N226 N -0.04091 -0.26583 0.87891
 N227 N -0.03616 -0.23127 0.86250
 C228 C 0.00182 -0.21374 0.85873
 N229 N 0.03480 -0.23200 0.87208
 N230 N 0.03008 -0.26666 0.88841
 C231 C 0.00762 -0.17560 0.84058
 C232 C -0.02406 -0.15899 0.82355
 H233 H -0.04511 -0.33363 0.91333
 H234 H 0.03789 -0.16170 0.84041
 H235 H 0.05155 -0.33663 0.91504
 H236 H -0.05294 -0.17587 0.82378
 C237 C 0.01886 0.33898 0.92150
 C238 C 0.00291 0.33289 0.89440
 C239 C 0.00344 0.29080 0.88043
 N240 N -0.01227 0.28710 0.85396
 N241 N -0.01281 0.24920 0.84116
 C242 C 0.00230 0.21350 0.85437
 N243 N 0.01804 0.21718 0.88085
 N244 N 0.01859 0.25512 0.89367
 C245 C 0.00162 0.17135 0.84054
 C246 C -0.01335 0.16631 0.81302
 H247 H -0.01035 0.35963 0.88271
 H248 H 0.01408 0.14414 0.85216
 H249 H 0.03458 0.31226 0.93187
 H250 H -0.02347 0.19450 0.80129
 C251 C -0.35528 0.00875 0.40760
 C252 C -0.31932 -0.01795 0.40861
 C253 C -0.28280 -0.01252 0.38845
 N254 N -0.24855 -0.03937 0.38965
 N255 N -0.21516 -0.03437 0.37173
 C256 C -0.21480 -0.00227 0.35198
 N257 N -0.24902 0.02452 0.35081
 N258 N -0.28238 0.01950 0.36867
 C259 C -0.17821 0.00440 0.33218
 C260 C -0.14250 -0.02302 0.33123
 H261 H -0.31704 -0.04296 0.42457
 H262 H -0.18056 0.03165 0.31803
 H263 H -0.35580 0.03354 0.39128
 H264 H -0.14289 -0.05066 0.34532
 C265 C 0.33925 0.01836 0.43083
 C266 C 0.33416 0.00300 0.40304
 C267 C 0.29376 0.00582 0.38929
 N268 N 0.29174 -0.00643 0.36136
 N269 N 0.25543 -0.00457 0.34855
 C270 C 0.21970 0.00954 0.36323
 N271 N 0.22169 0.02170 0.39121
 N272 N 0.25806 0.01993 0.40401
 C273 C 0.17927 0.01113 0.34943
 C274 C 0.17646 0.00225 0.32009
 H275 H 0.36081 -0.01064 0.39044
 H276 H 0.15151 0.02022 0.36265
 H277 H 0.31311 0.03506 0.44226
 H278 H 0.20510 -0.00379 0.30696
   
