data_POSCAR
  _audit_creation_date              2014-09-24
  _audit_creation_method            'ToBaCCo'
  _symmetry_space_group_name_H-M    'P1'
  _symmetry_Int_Tables_number       1
  _symmetry_cell_setting            triclinic
  loop_
  _symmetry_equiv_pos_as_xyz
 x,y,z
_cell_length_a 57.2510
_cell_length_b 57.1440
_cell_length_c 56.9403
_cell_angle_alpha 89.948900
_cell_angle_beta 89.944900
_cell_angle_gamma 90.065900
loop_
  _atom_site_label
  _atom_site_type_symbol
  _atom_site_fract_x
  _atom_site_fract_y
  _atom_site_fract_z
N1 N 0.15331 0.16989 0.21600
 N2 N 0.16929 0.15343 0.21542
 C3 C 0.16592 0.13883 0.23371
 C4 C 0.14672 0.14651 0.24656
 C5 C 0.13928 0.16638 0.23463
 H6 H 0.17669 0.12373 0.23727
 H7 H 0.12462 0.17747 0.23891
 Cu8 Cu 0.19284 0.15265 0.19069
 Cu9 Cu 0.15152 0.19444 0.19234
 Cu10 Cu 0.19359 0.19397 0.14855
 N11 N 0.21680 0.15307 0.16635
 N12 N 0.21690 0.16920 0.14991
 C13 C 0.23501 0.16544 0.13534
 C14 C 0.24715 0.14581 0.14298
 C15 C 0.23495 0.13850 0.16282
 H16 H 0.23892 0.17634 0.12033
 H17 H 0.23882 0.12365 0.17388
 N18 N 0.16859 0.21761 0.15018
 N19 N 0.15259 0.21780 0.16686
 C20 C 0.13793 0.23582 0.16307
 C21 C 0.14499 0.24764 0.14302
 C22 C 0.16453 0.23554 0.13536
 H23 H 0.12322 0.24005 0.17417
 H24 H 0.17488 0.23930 0.11994
 H25 H 0.16727 0.17586 0.16555
 H26 H 0.18673 0.19437 0.18419
 N27 N -0.15099 0.83322 0.21695
 N28 N -0.16699 0.84967 0.21665
 C29 C -0.16302 0.86457 0.23454
 C30 C -0.14343 0.85708 0.24673
 C31 C -0.13631 0.83708 0.23498
 H32 H -0.17365 0.87968 0.23842
 H33 H -0.12142 0.82621 0.23902
 Cu34 Cu -0.19134 0.85000 0.19279
 Cu35 Cu -0.15017 0.80814 0.19386
 Cu36 Cu -0.19380 0.80781 0.15166
 N37 N -0.21602 0.84934 0.16929
 N38 N -0.21692 0.83280 0.15331
 C39 C -0.23549 0.83650 0.13932
 C40 C -0.24701 0.85656 0.14685
 C41 C -0.23400 0.86414 0.16601
 H42 H -0.24005 0.82538 0.12470
 H43 H -0.23725 0.87931 0.17681
 N44 N -0.16882 0.78407 0.15296
 N45 N -0.15226 0.78423 0.16905
 C46 C -0.13778 0.76608 0.16522
 C47 C -0.14550 0.75381 0.14574
 C48 C -0.16528 0.76578 0.13846
 H49 H -0.12270 0.76214 0.17588
 H50 H -0.17617 0.76168 0.12354
 H51 H -0.16685 0.82616 0.16716
 H52 H -0.18567 0.80813 0.18696
 N53 N -0.15267 0.16586 -0.21546
 N54 N -0.16491 0.14676 -0.21160
 C55 C -0.16061 0.13127 -0.22888
 C56 C -0.14499 0.14130 -0.24451
 C57 C -0.14039 0.16329 -0.23545
 H58 H -0.16842 0.11407 -0.23012
 H59 H -0.12845 0.17618 -0.24253
 Cu60 Cu -0.18550 0.14389 -0.18457
 Cu61 Cu -0.15226 0.19185 -0.19336
 Cu62 Cu -0.19330 0.19030 -0.14889
 N63 N -0.21166 0.14563 -0.16280
 N64 N -0.21461 0.16371 -0.14891
 C65 C -0.23389 0.16035 -0.13581
 C66 C -0.24377 0.13891 -0.14177
 C67 C -0.22900 0.13013 -0.15908
 H68 H -0.24016 0.17276 -0.12299
 H69 H -0.23062 0.11376 -0.16841
 N70 N -0.17011 0.21562 -0.15201
 N71 N -0.15455 0.21630 -0.16909
 C72 C -0.14083 0.23522 -0.16616
 C73 C -0.14807 0.24712 -0.14623
 C74 C -0.16674 0.23413 -0.13778
 H75 H -0.12645 0.23981 -0.17757
 H76 H -0.17678 0.23753 -0.12208
 H77 H -0.16426 0.17449 -0.16376
 H78 H -0.18687 0.18631 -0.18440
 N79 N 0.15393 0.83282 -0.21560
 N80 N 0.17063 0.84859 -0.21539
 C81 C 0.16721 0.86368 -0.23324
 C82 C 0.14729 0.85701 -0.24538
 C83 C 0.13936 0.83729 -0.23359
 H84 H 0.17847 0.87836 -0.23718
 H85 H 0.12402 0.82702 -0.23759
 Cu86 Cu 0.19517 0.84791 -0.19173
 Cu87 Cu 0.15218 0.80771 -0.19252
 Cu88 Cu 0.19512 0.80652 -0.14966
 N89 N 0.21878 0.84735 -0.16714
 N90 N 0.21874 0.83106 -0.15086
 C91 C 0.23674 0.83475 -0.13613
 C92 C 0.24886 0.85456 -0.14345
 C93 C 0.23679 0.86202 -0.16328
 H94 H 0.24046 0.82382 -0.12111
 H95 H 0.24069 0.87703 -0.17415
 N96 N 0.16974 0.78323 -0.15138
 N97 N 0.15339 0.78370 -0.16768
 C98 C 0.13856 0.76574 -0.16406
 C99 C 0.14585 0.75330 -0.14450
 C100 C 0.16571 0.76497 -0.13695
 H101 H 0.12339 0.76217 -0.17474
 H102 H 0.17651 0.76048 -0.12208
 H103 H 0.16921 0.82569 -0.16607
 H104 H 0.18748 0.80640 -0.18511
 N105 N 0.17088 1.15284 0.78519
 N106 N 0.15437 1.16878 0.78540
 C107 C 0.13980 1.16492 0.76726
 C108 C 0.14757 1.14548 0.75497
 C109 C 0.16739 1.13832 0.76694
 H110 H 0.12471 1.17553 0.76327
 H111 H 0.17837 1.12349 0.76291
 Cu112 Cu 0.15342 1.19286 0.80952
 Cu113 Cu 0.19554 1.15188 0.80866
 Cu114 Cu 0.19488 1.19515 0.85126
 N115 N 0.15362 1.21735 0.83325
 N116 N 0.16988 1.21812 0.84948
 C117 C 0.16588 1.23647 0.86369
 C118 C 0.14598 1.24795 0.85602
 C119 C 0.13870 1.23525 0.83660
 H120 H 0.17658 1.24090 0.87867
 H121 H 0.12368 1.23876 0.82568
 N122 N 0.21872 1.17037 0.85009
 N123 N 0.21897 1.15389 0.83389
 C124 C 0.23718 1.13955 0.83793
 C125 C 0.24901 1.14732 0.85766
 C126 C 0.23675 1.16694 0.86486
 H127 H 0.24131 1.12438 0.82742
 H128 H 0.24066 1.17797 0.87974
 H129 H 0.17699 1.16814 0.83515
 H130 H 0.19514 1.18733 0.81581
 N131 N 0.82968 0.84840 0.78132
 N132 N 0.84544 0.83173 0.78093
 C133 C 0.86025 0.83567 0.76295
 C134 C 0.85339 0.85593 0.75144
 C135 C 0.83387 0.86347 0.76366
 H136 H 0.87510 0.82478 0.75880
 H137 H 0.82341 0.87877 0.76006
 Cu138 Cu 0.84528 0.80674 0.80418
 Cu139 Cu 0.80515 0.84973 0.80486
 Cu140 Cu 0.80510 0.80652 0.84749
 N141 N 0.84537 0.78307 0.82878
 N142 N 0.82964 0.78309 0.84559
 C143 C 0.83383 0.76512 0.86025
 C144 C 0.85330 0.75309 0.85229
 C145 C 0.86014 0.76507 0.83223
 H146 H 0.82340 0.76119 0.87559
 H147 H 0.87490 0.76117 0.82108
 N148 N 0.78171 0.83175 0.84639
 N149 N 0.78174 0.84816 0.83010
 C150 C 0.76387 0.86290 0.83412
 C151 C 0.75194 0.85549 0.85394
 C152 C 0.76379 0.83563 0.86122
 H153 H 0.75987 0.87793 0.82334
 H154 H 0.75987 0.82492 0.87636
 H155 H 0.82392 0.83247 0.83068
 H156 H 0.80408 0.81425 0.81211
 N157 N 0.16871 0.84647 1.21694
 N158 N 0.15217 0.83053 1.21668
 C159 C 0.13752 0.83439 1.23478
 C160 C 0.14527 0.85385 1.24707
 C161 C 0.16516 0.86100 1.23516
 H162 H 0.12220 0.82398 1.23853
 H163 H 0.17632 0.87567 1.23937
 Cu164 Cu 0.15127 0.80651 1.19250
 Cu165 Cu 0.19349 0.84747 1.19354
 Cu166 Cu 0.19284 0.80431 1.15082
 N167 N 0.15141 0.78212 1.16869
 N168 N 0.16773 0.78139 1.15247
 C169 C 0.16365 0.76316 1.13813
 C170 C 0.14364 0.75173 1.14569
 C171 C 0.13639 0.76431 1.16520
 H172 H 0.17451 0.75864 1.12329
 H173 H 0.12114 0.76097 1.17588
 N174 N 0.21678 0.82905 1.15211
 N175 N 0.21702 0.84549 1.16836
 C176 C 0.23524 0.85987 1.16436
 C177 C 0.24710 0.85216 1.14461
 C178 C 0.23483 0.83255 1.13735
 H179 H 0.23936 0.87502 1.17490
 H180 H 0.23874 0.82158 1.12242
 H181 H 0.17497 0.83130 1.16697
 H182 H 0.19303 0.81206 1.18627
 N183 N 0.83742 1.14738 1.21185
 N184 N 0.85308 1.16417 1.21148
 C185 C 0.86692 1.16214 1.23046
 C186 C 0.85961 1.14289 1.24343
 C187 C 0.84079 1.13399 1.23096
 H188 H 0.88151 1.17356 1.23418
 H189 H 0.83033 1.11882 1.23523
 Cu190 Cu 0.85466 1.18631 1.18561
 Cu191 Cu 0.81464 1.14346 1.18690
 Cu192 Cu 0.80723 1.19198 1.15106
 N193 N 0.85065 1.21303 1.16497
 N194 N 0.83193 1.21542 1.15188
 C195 C 0.83387 1.23517 1.13914
 C196 C 0.85499 1.24581 1.14450
 C197 C 0.86512 1.23119 1.16106
 H198 H 0.82097 1.24105 1.12662
 H199 H 0.88193 1.23330 1.16941
 N200 N 0.78455 1.16604 1.15264
 N201 N 0.78772 1.14736 1.16588
 C202 C 0.76986 1.13242 1.16253
 C203 C 0.75466 1.14205 1.14627
 C204 C 0.76460 1.16341 1.14042
 H205 H 0.76828 1.11565 1.17116
 H206 H 0.75795 1.17606 1.12801
 H207 H 0.82797 1.16442 1.15986
 H208 H 0.81283 1.17921 1.18476
 O209 O 0.46735 1.04239 1.04261
 O210 O 0.44195 1.01966 1.02145
 C211 C 0.44639 1.03609 1.03649
 O212 O 0.53380 1.03970 0.95895
 O213 O 0.55898 1.01849 0.98187
 C214 C 0.55471 1.03343 0.96529
 O215 O 0.46796 1.04243 0.96108
 O216 O 0.44222 1.02008 0.98233
 C217 C 0.44691 1.03637 0.96718
 O218 O 0.53311 1.04004 1.04509
 O219 O 0.55867 1.01871 1.02269
 C220 C 0.55410 1.03381 1.03904
 Zr221 Zr 0.50028 1.02928 1.03159
 O222 O 0.50309 1.06623 1.03099
 O223 O 0.49746 1.02973 1.06865
 Zr224 Zr 0.50073 1.02912 0.97223
 O225 O 0.50369 1.06605 0.97234
 O226 O 0.49825 1.02923 0.93514
 O227 O 0.47969 1.03383 1.00177
 O228 O 0.52084 1.03339 1.00202
 O229 O 0.53282 0.95893 1.04532
 O230 O 0.55851 0.98015 1.02287
 C231 C 0.55387 0.96507 1.03925
 O232 O 0.46752 0.95688 0.96109
 O233 O 0.44205 0.97985 0.98186
 C234 C 0.44654 0.96338 0.96688
 O235 O 0.53333 0.95885 0.95934
 O236 O 0.55877 0.97996 0.98208
 C237 C 0.55429 0.96491 0.96567
 O238 O 0.46703 0.95683 1.04248
 O239 O 0.44176 0.97938 1.02098
 C240 C 0.44611 0.96302 1.03615
 Zr241 Zr 0.50005 0.96998 1.03183
 O242 O 0.50259 0.93303 1.03202
 O243 O 0.49708 0.97020 1.06889
 Zr244 Zr 0.50042 0.96980 0.97246
 O245 O 0.50291 0.93284 0.97308
 O246 O 0.49807 0.96935 0.93537
 Zr247 Zr 0.46575 0.99966 1.00181
 Zr248 Zr 0.53498 0.99942 1.00224
 O249 O 0.52051 0.96557 1.00227
 O250 O 0.47938 0.96540 1.00202
 O251 O 0.52089 0.99958 1.03645
 O252 O 0.48039 0.99955 0.96790
 O253 O 0.47991 0.99968 1.03589
 O254 O 0.52135 0.99936 0.96785
 H255 H 0.53161 1.04697 1.00200
 H256 H 0.46991 0.99963 0.95407
 H257 H 0.53113 0.95188 1.00239
 H258 H 0.46921 0.99966 1.04958
 H259 H 0.51100 1.01928 0.92904
 H260 H 0.51079 0.97936 0.92922
 H261 H 0.48923 0.92680 0.98182
 H262 H 0.48984 0.92691 1.02205
 H263 H 0.51024 0.97955 1.07511
 H264 H 0.50994 1.01955 1.07493
 H265 H 0.48961 1.07233 1.02203
 H266 H 0.49055 1.07226 0.98174
 O267 O -0.04577 0.46731 0.03912
 O268 O -0.02278 0.44181 0.01839
 C269 C -0.03933 0.44630 0.03327
 O270 O -0.04245 0.53336 -0.04455
 O271 O -0.02188 0.55880 -0.02132
 C272 C -0.03657 0.55435 -0.03803
 O273 O -0.04482 0.46744 -0.04238
 O274 O -0.02278 0.44181 -0.02076
 C275 C -0.03884 0.44639 -0.03612
 O276 O -0.04354 0.53322 0.04129
 O277 O -0.02191 0.55876 0.01906
 C278 C -0.03725 0.55425 0.03520
 Zr279 Zr -0.03250 0.50025 0.02816
 O280 O -0.06938 0.50289 0.02752
 O281 O -0.03306 0.49760 0.06524
 Zr282 Zr -0.03161 0.50037 -0.03134
 O283 O -0.06847 0.50302 -0.03215
 O284 O -0.03070 0.49778 -0.06842
 O285 O -0.03670 0.47949 -0.00167
 O286 O -0.03631 0.52058 -0.00161
 O287 O 0.03752 0.53305 0.04228
 O288 O 0.01706 0.55865 0.01911
 C289 C 0.03175 0.55409 0.03581
 O290 O 0.04059 0.46740 -0.04149
 O291 O 0.01742 0.44185 -0.02091
 C292 C 0.03406 0.44638 -0.03569
 O293 O 0.03886 0.53330 -0.04335
 O294 O 0.01764 0.55878 -0.02077
 C295 C 0.03289 0.55431 -0.03700
 O296 O 0.03963 0.46710 0.03990
 O297 O 0.01745 0.44165 0.01821
 C298 C 0.03356 0.44610 0.03356
 Zr299 Zr 0.02652 0.50013 0.02901
 O300 O 0.06339 0.50269 0.02997
 O301 O 0.02550 0.49735 0.06609
 Zr302 Zr 0.02746 0.50032 -0.03046
 O303 O 0.06435 0.50281 -0.02990
 O304 O 0.02788 0.49787 -0.06755
 Zr305 Zr -0.00262 0.46557 -0.00122
 Zr306 Zr -0.00247 0.53498 -0.00114
 O307 O 0.03130 0.52045 -0.00063
 O308 O 0.03154 0.47939 -0.00071
 O309 O -0.00300 0.52107 0.03318
 O310 O -0.00208 0.48005 -0.03521
 O311 O -0.00308 0.47986 0.03283
 O312 O -0.00196 0.52126 -0.03548
 H313 H -0.04998 0.53119 -0.00172
 H314 H -0.00200 0.46946 -0.04898
 H315 H 0.04510 0.53094 -0.00041
 H316 H -0.00319 0.46920 0.04656
 H317 H -0.02149 0.51118 -0.07439
 H318 H 0.01859 0.51107 -0.07376
 H319 H 0.07027 0.48958 -0.02042
 H320 H 0.06967 0.49024 0.01970
 H321 H 0.01662 0.51091 0.07211
 H322 H -0.02340 0.51052 0.07151
 H323 H -0.07537 0.48962 0.01814
 H324 H -0.07478 0.49044 -0.02203
 O325 O 1.04470 -0.03889 0.53367
 O326 O 1.02214 -0.01764 0.55917
 C327 C 1.03840 -0.03277 0.55474
 O328 O 1.04381 0.04453 0.46756
 O329 O 1.02257 0.02223 0.44180
 C330 C 1.03781 0.03838 0.44641
 O331 O 1.04549 0.04203 0.53379
 O332 O 1.02262 0.02090 0.55922
 C333 C 1.03911 0.03585 0.55483
 O334 O 1.04297 -0.04105 0.46751
 O335 O 1.02256 -0.01796 0.44180
 C336 C 1.03724 -0.03459 0.44639
 Zr337 Zr 1.03190 -0.02778 0.50050
 O338 O 1.06880 -0.02795 0.49808
 O339 O 1.03159 -0.06474 0.50313
 Zr340 Zr 1.03240 0.03143 0.50058
 O341 O 1.06930 0.03134 0.49820
 O342 O 1.03246 0.06838 0.50333
 O343 O 1.03653 0.00173 0.52147
 O344 O 1.03658 0.00182 0.48021
 O345 O 0.96169 -0.04014 0.46695
 O346 O 0.98309 -0.01760 0.44149
 C347 C 0.96785 -0.03381 0.44590
 O348 O 0.96029 0.04329 0.53315
 O349 O 0.98241 0.02183 0.55892
 C350 C 0.96624 0.03700 0.55426
 O351 O 0.96288 0.04531 0.46699
 O352 O 0.98404 0.02258 0.44153
 C353 C 0.96911 0.03904 0.44594
 O354 O 0.95915 -0.03820 0.53300
 O355 O 0.98162 -0.01726 0.55883
 C356 C 0.96525 -0.03222 0.55414
 Zr357 Zr 0.97274 -0.02729 0.50008
 O358 O 0.93588 -0.02707 0.49725
 O359 O 0.97260 -0.06425 0.50265
 Zr360 Zr 0.97344 0.03202 0.50017
 O361 O 0.93657 0.03239 0.49735
 O362 O 0.97398 0.06897 0.50279
 Zr363 Zr 1.00228 0.00192 0.53515
 Zr364 Zr 1.00287 0.00207 0.46551
 O365 O 0.96896 0.00246 0.47978
 O366 O 0.96829 0.00236 0.52099
 O367 O 1.00243 -0.03214 0.47936
 O368 O 1.00282 0.03588 0.52080
 O369 O 1.00211 -0.03191 0.52064
 O370 O 1.00313 0.03627 0.47942
 H371 H 1.05036 0.00175 0.46967
 H372 H 1.00295 0.04956 0.53148
 H373 H 0.95534 0.00267 0.46906
 H374 H 1.00190 -0.04560 0.53134
 H375 H 1.02354 0.07462 0.48984
 H376 H 0.98356 0.07499 0.48963
 H377 H 0.93027 0.02298 0.51051
 H378 H 0.92978 -0.01708 0.51003
 H379 H 0.98180 -0.07040 0.48930
 H380 H 1.02184 -0.07076 0.49013
 H381 H 1.07491 -0.01864 0.51136
 H382 H 1.07525 0.02134 0.51105
 C383 C 1.11641 0.11547 0.30731
 C384 C 1.10729 0.13625 0.29793
 C385 C 1.11729 0.14651 0.27803
 C386 C 1.13681 0.13630 0.26690
 C387 C 1.14602 0.11554 0.27657
 C388 C 1.13592 0.10527 0.29644
 C389 C 1.10538 0.10431 0.32813
 C390 C 1.10224 0.07993 0.32901
 C391 C 1.09138 0.06944 0.34833
 C392 C 1.08348 0.08308 0.36727
 C393 C 1.08683 0.10744 0.36651
 C394 C 1.09761 0.11794 0.34713
 C395 C 1.07160 0.07192 0.38761
 C396 C 1.07654 0.07907 0.41069
 C397 C 1.06552 0.06830 0.42981
 C398 C 1.04925 0.05020 0.42624
 C399 C 1.04417 0.04323 0.40311
 C400 C 1.05524 0.05394 0.38404
 H401 H 1.09209 0.14440 0.30576
 H402 H 1.10946 0.16243 0.27149
 H403 H 1.16099 0.10693 0.26890
 H404 H 1.14353 0.08939 0.30344
 H405 H 1.10784 0.06898 0.31455
 H406 H 1.08929 0.05061 0.34853
 H407 H 1.08076 0.11843 0.38074
 H408 H 1.09999 0.13674 0.34706
 H409 H 1.08923 0.09274 0.41399
 H410 H 1.06986 0.07410 0.44737
 H411 H 1.03169 0.02940 0.39966
 H412 H 1.05081 0.04828 0.36646
 C413 C 0.88911 -0.11073 0.30701
 C414 C 0.89614 -0.13299 0.29934
 C415 C 0.88556 -0.14344 0.27988
 C416 C 0.86765 -0.13188 0.26758
 C417 C 0.86056 -0.10963 0.27535
 C418 C 0.87117 -0.09919 0.29481
 C419 C 0.90057 -0.09954 0.32755
 C420 C 0.90590 -0.07553 0.32732
 C421 C 0.91688 -0.06505 0.34654
 C422 C 0.92277 -0.07832 0.36646
 C423 C 0.91736 -0.10232 0.36674
 C424 C 0.90640 -0.11281 0.34750
 C425 C 0.93452 -0.06717 0.38685
 C426 C 0.92814 -0.07312 0.40994
 C427 C 0.93903 -0.06243 0.42911
 C428 C 0.95657 -0.04553 0.42563
 C429 C 0.96305 -0.03970 0.40251
 C430 C 0.95216 -0.05039 0.38337
 H431 H 0.91010 -0.14223 0.30818
 H432 H 0.89148 -0.16060 0.27459
 H433 H 0.84692 -0.10011 0.26637
 H434 H 0.86516 -0.08213 0.30045
 H435 H 0.90185 -0.06487 0.31212
 H436 H 0.92057 -0.04647 0.34589
 H437 H 0.92187 -0.11307 0.38173
 H438 H 0.90231 -0.13130 0.34833
 H439 H 0.91442 -0.08578 0.41320
 H440 H 0.93355 -0.06730 0.44666
 H441 H 0.97657 -0.02685 0.39915
 H442 H 0.95772 -0.04569 0.36581
 C443 C 0.88579 0.11038 0.69380
 C444 C 0.87868 0.09633 0.71286
 C445 C 0.86831 0.10633 0.73270
 C446 C 0.86523 0.13064 0.73417
 C447 C 0.87232 0.14474 0.71527
 C448 C 0.88226 0.13472 0.69523
 C449 C 0.89704 0.09973 0.67271
 C450 C 0.91446 0.11192 0.66017
 C451 C 0.92512 0.10189 0.64052
 C452 C 0.91896 0.07928 0.63320
 C453 C 0.90169 0.06700 0.64564
 C454 C 0.89069 0.07718 0.66503
 C455 C 0.93079 0.06840 0.61285
 C456 C 0.94053 0.04595 0.61484
 C457 C 0.95220 0.03585 0.59582
 C458 C 0.95393 0.04781 0.57431
 C459 C 0.94388 0.07014 0.57223
 C460 C 0.93263 0.08044 0.59142
 H461 H 0.88152 0.07762 0.71272
 H462 H 0.86327 0.09507 0.74714
 H463 H 0.86988 0.16352 0.71582
 H464 H 0.88696 0.14609 0.68077
 H465 H 0.92023 0.12907 0.66576
 H466 H 0.93859 0.11158 0.63133
 H467 H 0.89650 0.04961 0.64015
 H468 H 0.87704 0.06742 0.67383
 H469 H 0.93942 0.03640 0.63124
 H470 H 0.95967 0.01857 0.59788
 H471 H 0.94503 0.07976 0.55587
 H472 H 0.92515 0.09774 0.58948
 C473 C 1.11640 -0.10971 0.69405
 C474 C 1.10851 -0.13172 0.70170
 C475 C 1.11853 -0.14250 0.72129
 C476 C 1.13672 -0.13155 0.73373
 C477 C 1.14464 -0.10954 0.72600
 C478 C 1.13460 -0.09875 0.70642
 C479 C 1.10559 -0.09820 0.67333
 C480 C 1.10102 -0.07403 0.67344
 C481 C 1.09051 -0.06327 0.65410
 C482 C 1.08436 -0.07642 0.63418
 C483 C 1.08909 -0.10055 0.63400
 C484 C 1.09957 -0.11131 0.65335
 C485 C 1.07281 -0.06506 0.61378
 C486 C 1.07892 -0.07124 0.59069
 C487 C 1.06784 -0.06073 0.57152
 C488 C 1.05035 -0.04382 0.57500
 C489 C 1.04431 -0.03760 0.59812
 C490 C 1.05541 -0.04808 0.61726
 H491 H 1.09433 -0.14050 0.69272
 H492 H 1.11197 -0.15947 0.72655
 H493 H 1.15852 -0.10046 0.73510
 H494 H 1.14125 -0.08190 0.70081
 H495 H 1.10524 -0.06348 0.68864
 H496 H 1.08732 -0.04461 0.65468
 H497 H 1.08435 -0.11120 0.61902
 H498 H 1.10310 -0.12991 0.65262
 H499 H 1.09247 -0.08404 0.58743
 H500 H 1.07300 -0.06589 0.55397
 H501 H 1.03090 -0.02467 0.60150
 H502 H 1.05008 -0.04317 0.63483
 C503 C 0.30725 1.11480 1.11201
 C504 C 0.29689 1.13465 1.10192
 C505 C 0.27722 1.14492 1.11215
 C506 C 0.26722 1.13557 1.13279
 C507 C 0.27780 1.11567 1.14288
 C508 C 0.29754 1.10549 1.13264
 C509 C 0.32797 1.10374 1.10090
 C510 C 0.34665 1.09563 1.11469
 C511 C 0.36606 1.08508 1.10419
 C512 C 0.36716 1.08230 1.07969
 C513 C 0.34851 1.09046 1.06591
 C514 C 0.32916 1.10109 1.07639
 C515 C 0.38754 1.07066 1.06854
 C516 C 0.38425 1.05459 1.05018
 C517 C 0.40334 1.04345 1.03979
 C518 C 0.42622 1.04815 1.04746
 C519 C 0.42952 1.06434 1.06575
 C520 C 0.41039 1.07542 1.07622
 H521 H 0.30417 1.14242 1.08617
 H522 H 0.26999 1.16017 1.10362
 H523 H 0.27097 1.10771 1.15868
 H524 H 0.30498 1.09003 1.14070
 H525 H 0.34633 1.09763 1.13359
 H526 H 0.38005 1.07878 1.11529
 H527 H 0.34895 1.08877 1.04697
 H528 H 0.31495 1.10695 1.06531
 H529 H 0.36685 1.05035 1.04407
 H530 H 0.40011 1.03110 1.02574
 H531 H 0.44689 1.06840 1.07208
 H532 H 0.41348 1.08791 1.09016
 C533 C 0.30837 0.88589 0.88831
 C534 C 0.29870 0.86527 0.89756
 C535 C 0.27916 0.85493 0.88712
 C536 C 0.26874 0.86489 0.86701
 C537 C 0.27869 0.88552 0.85772
 C538 C 0.29818 0.89586 0.86826
 C539 C 0.32889 0.89708 0.89966
 C540 C 0.32988 0.92151 0.90237
 C541 C 0.34903 0.93206 0.91329
 C542 C 0.36768 0.91844 0.92168
 C543 C 0.36676 0.89402 0.91885
 C544 C 0.34755 0.88346 0.90801
 C545 C 0.38792 0.92969 0.93345
 C546 C 0.41085 0.92226 0.92872
 C547 C 0.42989 0.93311 0.93960
 C548 C 0.42642 0.95159 0.95552
 C549 C 0.40345 0.95886 0.96037
 C550 C 0.38445 0.94807 0.94944
 H551 H 0.30601 0.85731 0.91317
 H552 H 0.27236 0.83914 0.89505
 H553 H 0.27157 0.89394 0.84232
 H554 H 0.30543 0.91160 0.86054
 H555 H 0.31568 0.93246 0.89633
 H556 H 0.34935 0.95093 0.91499
 H557 H 0.38077 0.88305 0.92531
 H558 H 0.34738 0.86462 0.90598
 H559 H 0.41408 0.90829 0.91630
 H560 H 0.44733 0.92706 0.93544
 H561 H 0.40008 0.97298 0.97259
 H562 H 0.36698 0.95397 0.95370
 C563 C 0.69260 0.88829 1.11729
 C564 C 0.70164 0.86752 1.10782
 C565 C 0.72146 0.85703 1.11755
 C566 C 0.73280 0.86700 1.13713
 C567 C 0.72347 0.88778 1.14666
 C568 C 0.70370 0.89826 1.13684
 C569 C 0.67183 0.89969 1.10665
 C570 C 0.67105 0.92412 1.10387
 C571 C 0.65171 0.93484 1.09349
 C572 C 0.63266 0.92140 1.08571
 C573 C 0.63333 0.89699 1.08869
 C574 C 0.65272 0.88625 1.09900
 C575 C 0.61237 0.93277 1.07415
 C576 C 0.58943 0.92552 1.07916
 C577 C 0.57039 0.93609 1.06801
 C578 C 0.57390 0.95409 1.05152
 C579 C 0.59687 0.96138 1.04661
 C580 C 0.61586 0.95087 1.05781
 H581 H 0.69363 0.85956 1.09257
 H582 H 0.72776 0.84114 1.10947
 H583 H 0.73130 0.89622 1.16169
 H584 H 0.69696 0.91411 1.14474
 H585 H 0.68559 0.93493 1.10938
 H586 H 0.65161 0.95370 1.09165
 H587 H 0.61901 0.88614 1.08268
 H588 H 0.65270 0.86741 1.10111
 H589 H 0.58618 0.91179 1.09188
 H590 H 0.55295 0.93007 1.07225
 H591 H 0.60027 0.97518 1.03400
 H592 H 0.63333 0.95665 1.05335
 C593 C 0.69519 1.10736 0.88690
 C594 C 0.70287 1.12929 0.89488
 C595 C 0.72289 1.13969 0.88543
 C596 C 0.73588 1.12846 0.86766
 C597 C 0.72799 1.10647 0.85965
 C598 C 0.70796 1.09610 0.86915
 C599 C 0.67409 1.09620 0.89728
 C600 C 0.67375 1.07208 0.90214
 C601 C 0.65417 1.06170 0.91252
 C602 C 0.63445 1.07519 0.91827
 C603 C 0.63468 1.09925 0.91314
 C604 C 0.65427 1.10964 0.90278
 C605 C 0.61394 1.06428 0.93000
 C606 C 0.59107 1.07070 0.92375
 C607 C 0.57182 1.06067 0.93510
 C608 C 0.57501 1.04401 0.95300
 C609 C 0.59790 1.03753 0.95916
 C610 C 0.61711 1.04755 0.94780
 H611 H 0.69361 1.13828 0.90879
 H612 H 0.72806 1.15651 0.89236
 H613 H 0.73714 1.09705 0.84600
 H614 H 0.70232 1.07931 0.86240
 H615 H 0.68881 1.06128 0.89833
 H616 H 0.65445 1.04307 0.91600
 H617 H 0.61986 1.11016 0.91754
 H618 H 0.65388 1.12821 0.89901
 H619 H 0.58804 1.08334 0.90990
 H620 H 0.55444 1.06600 0.92985
 H621 H 0.60106 1.02478 0.97287
 H622 H 0.63449 1.04246 0.95326
 C623 C 0.11249 0.30772 0.11069
 C624 C 0.10117 0.29549 0.12886
 C625 C 0.11173 0.27610 0.13938
 C626 C 0.13389 0.26842 0.13200
 C627 C 0.14524 0.28075 0.11388
 C628 C 0.13467 0.30016 0.10337
 C629 C 0.10110 0.32816 0.09932
 C630 C 0.11414 0.34816 0.09334
 C631 C 0.10340 0.36734 0.08260
 C632 C 0.07937 0.36695 0.07754
 C633 C 0.06634 0.34695 0.08353
 C634 C 0.07707 0.32779 0.09429
 C635 C 0.06791 0.38728 0.06606
 C636 C 0.05094 0.38382 0.04859
 C637 C 0.03991 0.40289 0.03799
 C638 C 0.04557 0.42592 0.04461
 C639 C 0.06267 0.42939 0.06198
 C640 C 0.07371 0.41029 0.07257
 H641 H 0.08419 0.30105 0.13510
 H642 H 0.10235 0.26709 0.15318
 H643 H 0.16234 0.27552 0.10776
 H644 H 0.14375 0.30905 0.08925
 H645 H 0.13264 0.34908 0.09719
 H646 H 0.11396 0.38240 0.07800
 H647 H 0.04775 0.34619 0.08011
 H648 H 0.06658 0.31255 0.09844
 H649 H 0.04633 0.36633 0.04292
 H650 H 0.02691 0.39953 0.02459
 H651 H 0.06744 0.44687 0.06754
 H652 H 0.08652 0.41353 0.08617
 C653 C -0.11680 0.30829 -0.11475
 C654 C -0.10550 0.29645 -0.13314
 C655 C -0.11572 0.27678 -0.14349
 C656 C -0.13751 0.26843 -0.13568
 C657 C -0.14892 0.28046 -0.11744
 C658 C -0.13870 0.30016 -0.10712
 C659 C -0.10561 0.32881 -0.10333
 C660 C -0.11887 0.34852 -0.09701
 C661 C -0.10831 0.36770 -0.08607
 C662 C -0.08425 0.36757 -0.08113
 C663 C -0.07100 0.34788 -0.08750
 C664 C -0.08154 0.32875 -0.09848
 C665 C -0.07299 0.38782 -0.06932
 C666 C -0.05601 0.38423 -0.05188
 C667 C -0.04509 0.40321 -0.04102
 C668 C -0.05086 0.42630 -0.04735
 C669 C -0.06800 0.42990 -0.06465
 C670 C -0.07895 0.41088 -0.07550
 H671 H -0.08875 0.30247 -0.13962
 H672 H -0.10632 0.26804 -0.15741
 H673 H -0.16577 0.27472 -0.11104
 H674 H -0.14776 0.30877 -0.09284
 H675 H -0.13741 0.34919 -0.10071
 H676 H -0.11902 0.38253 -0.08119
 H677 H -0.05238 0.34735 -0.08418
 H678 H -0.07089 0.31373 -0.10290
 H679 H -0.05130 0.36669 -0.04647
 H680 H -0.03207 0.39975 -0.02768
 H681 H -0.07285 0.44742 -0.06998
 H682 H -0.09178 0.41421 -0.08904
 C683 C 0.11295 0.69281 -0.11316
 C684 C 0.13107 0.70461 -0.10146
 C685 C 0.14179 0.72412 -0.11165
 C686 C 0.13466 0.73236 -0.13379
 C687 C 0.11660 0.72044 -0.14553
 C688 C 0.10590 0.70091 -0.13534
 C689 C 0.10131 0.67227 -0.10216
 C690 C 0.09518 0.65264 -0.11569
 C691 C 0.08407 0.63342 -0.10533
 C692 C 0.07879 0.63341 -0.08122
 C693 C 0.08499 0.65302 -0.06768
 C694 C 0.09612 0.67221 -0.07803
 C695 C 0.06681 0.61309 -0.07019
 C696 C 0.04930 0.61658 -0.05325
 C697 C 0.03822 0.59752 -0.04263
 C698 C 0.04438 0.57447 -0.04868
 C699 C 0.06178 0.57098 -0.06576
 C700 C 0.07286 0.59007 -0.07640
 H701 H 0.13711 0.69862 -0.08448
 H702 H 0.15555 0.73279 -0.10198
 H703 H 0.11067 0.72610 -0.16264
 H704 H 0.09182 0.69237 -0.14470
 H705 H 0.09916 0.65205 -0.13427
 H706 H 0.07933 0.61868 -0.11627
 H707 H 0.08141 0.65344 -0.04901
 H708 H 0.10039 0.68716 -0.06717
 H709 H 0.04398 0.63409 -0.04835
 H710 H 0.02482 0.60090 -0.02963
 H711 H 0.06701 0.55348 -0.07081
 H712 H 0.08647 0.58681 -0.08920
 C713 C -0.11376 0.69303 0.11394
 C714 C -0.10253 0.70497 0.13230
 C715 C -0.11285 0.72457 0.14263
 C716 C -0.13470 0.73276 0.13489
 C717 C -0.14599 0.72069 0.11660
 C718 C -0.13565 0.70106 0.10627
 C719 C -0.10253 0.67242 0.10272
 C720 C -0.11581 0.65269 0.09645
 C721 C -0.10520 0.63338 0.08582
 C722 C -0.08108 0.63338 0.08116
 C723 C -0.06780 0.65309 0.08750
 C724 C -0.07840 0.67238 0.09815
 C725 C -0.06981 0.61303 0.06954
 C726 C -0.05261 0.61651 0.05225
 C727 C -0.04203 0.59745 0.04122
 C728 C -0.04838 0.57440 0.04719
 C729 C -0.06554 0.57092 0.06453
 C730 C -0.07615 0.59002 0.07556
 H731 H -0.08580 0.69904 0.13884
 H732 H -0.10351 0.73330 0.15660
 H733 H -0.16283 0.72632 0.11016
 H734 H -0.14464 0.69240 0.09198
 H735 H -0.13439 0.65209 0.09996
 H736 H -0.11594 0.61855 0.08093
 H737 H -0.04915 0.65354 0.08439
 H738 H -0.06772 0.68740 0.10253
 H739 H -0.04756 0.63401 0.04699
 H740 H -0.02892 0.60083 0.02791
 H741 H -0.07082 0.55343 0.06960
 H742 H -0.08913 0.58677 0.08902
 C743 C 1.11621 0.11318 0.69420
 C744 C 1.10439 0.13083 0.70656
 C745 C 1.11458 0.14138 0.72617
 C746 C 1.13687 0.13452 0.73392
 C747 C 1.14874 0.11694 0.72143
 C748 C 1.13854 0.10641 0.70181
 C749 C 1.10521 0.10171 0.67359
 C750 C 1.11846 0.09635 0.65352
 C751 C 1.10807 0.08547 0.63418
 C752 C 1.08421 0.07966 0.63452
 C753 C 1.07097 0.08505 0.65460
 C754 C 1.08134 0.09595 0.67390
 C755 C 1.07312 0.06808 0.61404
 C756 C 1.05667 0.05011 0.61737
 C757 C 1.04581 0.03954 0.59816
 C758 C 1.05115 0.04668 0.57513
 C759 C 1.06781 0.06447 0.57177
 C760 C 1.07867 0.07505 0.59102
 H761 H 1.08728 0.13664 0.70096
 H762 H 1.10482 0.15477 0.73530
 H763 H 1.16596 0.11124 0.72670
 H764 H 1.14800 0.09268 0.69281
 H765 H 1.13684 0.10079 0.65266
 H766 H 1.11878 0.08135 0.61906
 H767 H 1.05249 0.08105 0.65529
 H768 H 1.07072 0.09961 0.68920
 H769 H 1.05231 0.04408 0.63487
 H770 H 1.03320 0.02577 0.60141
 H771 H 1.07230 0.07044 0.55428
 H772 H 1.09108 0.08903 0.58789
 C773 C 0.88603 -0.11076 0.69182
 C774 C 0.89286 -0.13331 0.69885
 C775 C 0.88229 -0.14414 0.71816
 C776 C 0.86460 -0.13268 0.73086
 C777 C 0.85775 -0.11014 0.72372
 C778 C 0.86833 -0.09933 0.70445
 C779 C 0.89736 -0.09912 0.67147
 C780 C 0.90296 -0.07519 0.67235
 C781 C 0.91363 -0.06419 0.65323
 C782 C 0.91894 -0.07688 0.63279
 C783 C 0.91330 -0.10080 0.63187
 C784 C 0.90265 -0.11181 0.65102
 C785 C 0.93055 -0.06523 0.61260
 C786 C 0.92373 -0.07028 0.58944
 C787 C 0.93485 -0.05946 0.57045
 C788 C 0.95306 -0.04337 0.57421
 C789 C 0.95979 -0.03826 0.59740
 C790 C 0.94866 -0.04905 0.61635
 H791 H 0.90663 -0.14247 0.68962
 H792 H 0.88799 -0.16152 0.72300
 H793 H 0.84430 -0.10065 0.73303
 H794 H 0.86247 -0.08207 0.69928
 H795 H 0.89933 -0.06500 0.68795
 H796 H 0.91754 -0.04568 0.65437
 H797 H 0.91741 -0.11109 0.61646
 H798 H 0.89834 -0.13022 0.64973
 H799 H 0.90962 -0.08244 0.58602
 H800 H 0.92918 -0.06376 0.55284
 H801 H 0.97383 -0.02606 0.60096
 H802 H 0.95452 -0.04504 0.63397
 C803 C 1.11354 -0.11388 0.30767
 C804 C 1.13201 -0.10282 0.29579
 C805 C 1.14235 -0.11332 0.27624
 C806 C 1.13446 -0.13516 0.26806
 C807 C 1.11604 -0.14627 0.28007
 C808 C 1.10572 -0.13576 0.29964
 C809 C 1.10233 -0.10249 0.32821
 C810 C 1.09590 -0.11568 0.34805
 C811 C 1.08530 -0.10490 0.36734
 C812 C 1.08086 -0.08072 0.36717
 C813 C 1.08731 -0.06755 0.34735
 C814 C 1.09792 -0.07831 0.32809
 C815 C 1.06947 -0.06922 0.38755
 C816 C 1.05246 -0.05188 0.38401
 C817 C 1.04197 -0.04075 0.40310
 C818 C 1.04823 -0.04670 0.42623
 C819 C 1.06512 -0.06419 0.42978
 C820 C 1.07562 -0.07533 0.41064
 H821 H 1.13863 -0.08608 0.30173
 H822 H 1.15640 -0.10412 0.26750
 H823 H 1.10952 -0.16312 0.27444
 H824 H 1.09134 -0.14461 0.30828
 H825 H 1.09927 -0.13431 0.34876
 H826 H 1.08033 -0.11555 0.38227
 H827 H 1.08436 -0.04884 0.34680
 H828 H 1.10243 -0.06772 0.31297
 H829 H 1.04708 -0.04706 0.36643
 H830 H 1.02892 -0.02747 0.39968
 H831 H 1.07037 -0.06918 0.44735
 H832 H 1.08885 -0.08845 0.41392
 C833 C 0.89133 0.11412 0.30579
 C834 C 0.87313 0.10222 0.29438
 C835 C 0.86270 0.11166 0.27435
 C836 C 0.87022 0.13326 0.26519
 C837 C 0.88823 0.14533 0.27684
 C838 C 0.89865 0.13587 0.29692
 C839 C 0.90290 0.10363 0.32660
 C840 C 0.90903 0.11749 0.34603
 C841 C 0.91999 0.10750 0.36554
 C842 C 0.92514 0.08346 0.36598
 C843 C 0.91899 0.06963 0.34655
 C844 C 0.90800 0.07959 0.32709
 C845 C 0.93689 0.07274 0.38656
 C846 C 0.95441 0.05586 0.38331
 C847 C 0.96500 0.04516 0.40258
 C848 C 0.95833 0.05108 0.42561
 C849 C 0.94105 0.06824 0.42887
 C850 C 0.93045 0.07897 0.40954
 H851 H 0.86687 0.08558 0.30100
 H852 H 0.84891 0.10178 0.26599
 H853 H 0.89446 0.16204 0.27048
 H854 H 0.91278 0.14537 0.30521
 H855 H 0.90513 0.13603 0.34623
 H856 H 0.92469 0.11863 0.38018
 H857 H 0.92248 0.05100 0.34647
 H858 H 0.90375 0.06850 0.31229
 H859 H 0.96001 0.05098 0.36582
 H860 H 0.97836 0.03214 0.39938
 H861 H 0.93549 0.07320 0.44635
 H862 H 0.91685 0.09177 0.41258
 C863 C 0.11315 0.30839 -0.11286
 C864 C 0.10204 0.29601 -0.13100
 C865 C 0.11272 0.27651 -0.14117
 C866 C 0.13477 0.26890 -0.13345
 C867 C 0.14592 0.28143 -0.11539
 C868 C 0.13524 0.30092 -0.10522
 C869 C 0.10165 0.32887 -0.10176
 C870 C 0.11466 0.34887 -0.09575
 C871 C 0.10386 0.36801 -0.08504
 C872 C 0.07981 0.36758 -0.08008
 C873 C 0.06679 0.34763 -0.08617
 C874 C 0.07758 0.32850 -0.09689
 C875 C 0.06833 0.38782 -0.06852
 C876 C 0.05131 0.38423 -0.05109
 C877 C 0.04030 0.40323 -0.04037
 C878 C 0.04606 0.42629 -0.04683
 C879 C 0.06322 0.42988 -0.06415
 C880 C 0.07422 0.41086 -0.07487
 H881 H 0.08514 0.30151 -0.13747
 H882 H 0.10351 0.26737 -0.15497
 H883 H 0.16293 0.27627 -0.10899
 H884 H 0.14414 0.30993 -0.09110
 H885 H 0.13318 0.34979 -0.09951
 H886 H 0.11440 0.38304 -0.08036
 H887 H 0.04818 0.34687 -0.08283
 H888 H 0.06713 0.31326 -0.10106
 H889 H 0.04666 0.36671 -0.04554
 H890 H 0.02727 0.39979 -0.02700
 H891 H 0.06804 0.44740 -0.06959
 H892 H 0.08707 0.41418 -0.08844
 C893 C -0.11510 0.30778 0.11317
 C894 C -0.10421 0.29689 0.13238
 C895 C -0.11404 0.27699 0.14271
 C896 C -0.13498 0.26744 0.13403
 C897 C -0.14600 0.27856 0.11498
 C898 C -0.13618 0.29848 0.10469
 C899 C -0.10427 0.32846 0.10172
 C900 C -0.11805 0.34743 0.09435
 C901 C -0.10783 0.36670 0.08321
 C902 C -0.08362 0.36735 0.07910
 C903 C -0.06985 0.34843 0.08658
 C904 C -0.08005 0.32921 0.09778
 C905 C -0.07274 0.38762 0.06699
 C906 C -0.05520 0.38410 0.05009
 C907 C -0.04457 0.40313 0.03898
 C908 C -0.05120 0.42616 0.04455
 C909 C -0.06894 0.42968 0.06128
 C910 C -0.07960 0.41061 0.07236
 H911 H -0.08813 0.30387 0.13953
 H912 H -0.10512 0.26917 0.15748
 H913 H -0.16204 0.27176 0.10767
 H914 H -0.14483 0.30632 0.08973
 H915 H -0.13673 0.34744 0.09735
 H916 H -0.11891 0.38095 0.07748
 H917 H -0.05112 0.34855 0.08391
 H918 H -0.06901 0.31476 0.10303
 H919 H -0.04980 0.36658 0.04532
 H920 H -0.03106 0.39974 0.02611
 H921 H -0.07445 0.44717 0.06601
 H922 H -0.09291 0.41386 0.08547
 C923 C -0.11386 0.69286 -0.11609
 C924 C -0.13242 0.70427 -0.10476
 C925 C -0.14310 0.72371 -0.11503
 C926 C -0.13549 0.73224 -0.13692
 C927 C -0.11697 0.72071 -0.14830
 C928 C -0.10630 0.70125 -0.13802
 C929 C -0.10232 0.67242 -0.10496
 C930 C -0.09580 0.65289 -0.11844
 C931 C -0.08496 0.63366 -0.10790
 C932 C -0.08036 0.63358 -0.08366
 C933 C -0.08688 0.65311 -0.07020
 C934 C -0.09773 0.67231 -0.08072
 C935 C -0.06882 0.61322 -0.07238
 C936 C -0.05172 0.61664 -0.05504
 C937 C -0.04118 0.59754 -0.04404
 C938 C -0.04748 0.57453 -0.05012
 C939 C -0.06442 0.57110 -0.06764
 C940 C -0.07497 0.59024 -0.07866
 H941 H -0.13886 0.69804 -0.08799
 H942 H -0.15725 0.73202 -0.10564
 H943 H -0.11060 0.72662 -0.16518
 H944 H -0.09186 0.69298 -0.14707
 H945 H -0.09930 0.65237 -0.13712
 H946 H -0.07995 0.61895 -0.11876
 H947 H -0.08380 0.65346 -0.05144
 H948 H -0.10232 0.68719 -0.06991
 H949 H -0.04634 0.63413 -0.05009
 H950 H -0.02809 0.60087 -0.03072
 H951 H -0.06971 0.55363 -0.07273
 H952 H -0.08827 0.58706 -0.09178
 C953 C 0.11025 0.69180 0.11413
 C954 C 0.12894 0.70307 0.10280
 C955 C 0.13981 0.72240 0.11308
 C956 C 0.13227 0.73096 0.13496
 C957 C 0.11364 0.71955 0.14635
 C958 C 0.10277 0.70020 0.13606
 C959 C 0.09848 0.67149 0.10297
 C960 C 0.09172 0.65199 0.11643
 C961 C 0.08070 0.63288 0.10585
 C962 C 0.07613 0.63290 0.08160
 C963 C 0.08287 0.65242 0.06817
 C964 C 0.09392 0.67149 0.07873
 C965 C 0.06443 0.61265 0.07028
 C966 C 0.04741 0.61623 0.05289
 C967 C 0.03672 0.59724 0.04185
 C968 C 0.04280 0.57417 0.04794
 C969 C 0.05966 0.57058 0.06551
 C970 C 0.07035 0.58962 0.07656
 H971 H 0.13530 0.69682 0.08603
 H972 H 0.15402 0.73065 0.10367
 H973 H 0.10737 0.72548 0.16324
 H974 H 0.08826 0.69203 0.14511
 H975 H 0.09520 0.65139 0.13511
 H976 H 0.07551 0.61818 0.11669
 H977 H 0.07984 0.65284 0.04940
 H978 H 0.09868 0.68636 0.06794
 H979 H 0.04222 0.63377 0.04793
 H980 H 0.02371 0.60068 0.02849
 H981 H 0.06478 0.55307 0.07061
 H982 H 0.08358 0.58631 0.08972
 C983 C 0.30951 1.11631 0.89030
 C984 C 0.29722 1.13438 0.90154
 C985 C 0.27769 1.14450 0.89093
 C986 C 0.26996 1.13678 0.86881
 C987 C 0.28238 1.11878 0.85753
 C988 C 0.30191 1.10868 0.86815
 C989 C 0.33002 1.10528 0.90176
 C990 C 0.34992 1.09935 0.88858
 C991 C 0.36905 1.08861 0.89932
 C992 C 0.36870 1.08354 0.92348
 C993 C 0.34886 1.08962 0.93668
 C994 C 0.32975 1.10037 0.92595
 C995 C 0.38879 1.07166 0.93481
 C996 C 0.38504 1.05400 0.95158
 C997 C 0.40390 1.04263 0.96210
 C998 C 0.42698 1.04864 0.95610
 C999 C 0.43073 1.06636 0.93938
 C1000 C 0.41184 1.07774 0.92884
 H1001 H 0.30282 1.14084 0.91850
 H1002 H 0.26862 1.15823 0.90026
 H1003 H 0.27711 1.11241 0.84046
 H1004 H 0.31086 1.09460 0.85916
 H1005 H 0.35075 1.10314 0.86996
 H1006 H 0.38399 1.08394 0.88864
 H1007 H 0.34817 1.08618 0.95538
 H1008 H 0.31459 1.10451 0.93654
 H1009 H 0.36749 1.04870 0.95631
 H1010 H 0.40033 1.02902 0.97487
 H1011 H 0.44827 1.07149 0.93440
 H1012 H 0.41528 1.09148 0.91619
 C1013 C 0.30765 0.88341 1.11202
 C1014 C 0.29994 0.89105 1.13415
 C1015 C 0.28038 0.88088 1.14474
 C1016 C 0.26805 0.86280 1.13346
 C1017 C 0.27588 0.85510 1.11136
 C1018 C 0.29543 0.86529 1.10077
 C1019 C 0.32825 0.89445 1.10065
 C1020 C 0.32817 0.89933 1.07645
 C1021 C 0.34740 0.91005 1.06581
 C1022 C 0.36715 0.91613 1.07912
 C1023 C 0.36730 0.91111 1.10329
 C1024 C 0.34806 0.90040 1.11394
 C1025 C 0.38742 0.92790 1.06790
 C1026 C 0.41036 0.92176 1.07408
 C1027 C 0.42942 0.93307 1.06373
 C1028 C 0.42596 0.95081 1.04697
 C1029 C 0.40298 0.95686 1.04071
 C1030 C 0.38395 0.94554 1.05106
 H1031 H 0.30882 0.90517 1.14314
 H1032 H 0.27505 0.88725 1.16179
 H1033 H 0.26688 0.84131 1.10204
 H1034 H 0.30112 0.85882 1.08384
 H1035 H 0.31307 0.89517 1.06579
 H1036 H 0.34686 0.91346 1.04711
 H1037 H 0.38216 0.91579 1.11406
 H1038 H 0.34875 0.89663 1.13256
 H1039 H 0.41359 0.90802 1.08678
 H1040 H 0.44687 0.92790 1.06890
 H1041 H 0.39965 0.97046 1.02788
 H1042 H 0.36648 0.95088 1.04615
 C1043 C 0.69248 1.11043 1.11754
 C1044 C 0.70383 1.10034 1.13691
 C1045 C 0.72382 1.11071 1.14637
 C1046 C 0.73299 1.13142 1.13666
 C1047 C 0.72143 1.14165 1.11744
 C1048 C 0.70141 1.13128 1.10800
 C1049 C 0.67169 1.09901 1.10703
 C1050 C 0.65253 1.11242 1.09951
 C1051 C 0.63320 1.10167 1.08910
 C1052 C 0.63266 1.07729 1.08591
 C1053 C 0.65173 1.06387 1.09361
 C1054 C 0.67102 1.07460 1.10407
 C1055 C 0.61246 1.06593 1.07423
 C1056 C 0.61603 1.04806 1.05769
 C1057 C 0.59710 1.03760 1.04637
 C1058 C 0.57412 1.04473 1.05135
 C1059 C 0.57054 1.06251 1.06803
 C1060 C 0.58951 1.07302 1.07931
 H1061 H 0.69715 1.08446 1.14487
 H1062 H 0.73198 1.10242 1.16133
 H1063 H 0.72795 1.15747 1.10933
 H1064 H 0.69322 1.13931 1.09288
 H1065 H 0.65245 1.13123 1.10177
 H1066 H 0.61886 1.11249 1.08316
 H1067 H 0.65170 1.04502 1.09161
 H1068 H 0.68561 1.06383 1.10947
 H1069 H 0.63353 1.04243 1.05320
 H1070 H 0.60052 1.02397 1.03362
 H1071 H 0.55308 1.06840 1.07232
 H1072 H 0.58622 1.08657 1.09217
 C1073 C 0.69213 0.88802 0.88643
 C1074 C 0.70411 0.89924 0.86806
 C1075 C 0.72343 0.88868 0.85752
 C1076 C 0.73127 0.86660 0.86507
 C1077 C 0.71920 0.85535 0.88341
 C1078 C 0.69986 0.86593 0.89396
 C1079 C 0.67174 0.89939 0.89777
 C1080 C 0.65190 0.88624 0.90392
 C1081 C 0.63275 0.89698 0.91464
 C1082 C 0.63303 0.92109 0.91946
 C1083 C 0.65286 0.93425 0.91326
 C1084 C 0.67199 0.92352 0.90254
 C1085 C 0.61282 0.93246 0.93110
 C1086 C 0.61636 0.94941 0.94860
 C1087 C 0.59738 0.95999 0.95972
 C1088 C 0.57437 0.95386 0.95361
 C1089 C 0.57083 0.93698 0.93602
 C1090 C 0.58984 0.92640 0.92490
 H1091 H 0.69839 0.91614 0.86167
 H1092 H 0.73222 0.89800 0.84354
 H1093 H 0.72458 0.83833 0.88969
 H1094 H 0.69115 0.85695 0.90826
 H1095 H 0.65109 0.86767 0.90025
 H1096 H 0.61782 0.88634 0.91944
 H1097 H 0.65350 0.95290 0.91652
 H1098 H 0.68712 0.93408 0.89823
 H1099 H 0.63385 0.95424 0.95398
 H1100 H 0.60078 0.97290 0.97322
 H1101 H 0.55335 0.93191 0.93082
 H1102 H 0.58656 0.91362 0.91126
   
