data_POSCAR
  _audit_creation_date              2014-09-24
  _audit_creation_method            'ToBaCCo'
  _symmetry_space_group_name_H-M    'P1'
  _symmetry_Int_Tables_number       1
  _symmetry_cell_setting            triclinic
  loop_
  _symmetry_equiv_pos_as_xyz
 x,y,z
_cell_length_a 37.3114
_cell_length_b 37.2589
_cell_length_c 35.3596
_cell_angle_alpha 90.072100
_cell_angle_beta 90.033600
_cell_angle_gamma 86.918100
loop_
  _atom_site_label
  _atom_site_type_symbol
  _atom_site_fract_x
  _atom_site_fract_y
  _atom_site_fract_z
C1 C 0.07180 0.32593 -0.03764
 C2 C 0.08963 0.32213 -0.00288
 C3 C 0.07172 0.32732 0.03151
 C4 C 0.03419 0.33488 0.03166
 C5 C 0.01516 0.33716 -0.00311
 C6 C 0.03413 0.33406 -0.03794
 C7 C 0.01457 0.33730 -0.07186
 C8 C -0.02254 0.34285 -0.07165
 C9 C -0.04219 0.34292 -0.03768
 C10 C -0.02303 0.34159 -0.00298
 C11 C 0.01524 0.34063 0.06559
 C12 C -0.02196 0.34555 0.06565
 C13 C -0.04188 0.34396 0.03190
 C14 C -0.08006 0.34658 0.03207
 C15 C -0.09826 0.34977 -0.00268
 C16 C -0.08038 0.34587 -0.03753
 H17 H 0.02754 0.33524 -0.09913
 H18 H -0.03570 0.34689 -0.09869
 H19 H 0.02901 0.34140 0.09249
 H20 H -0.03501 0.35077 0.09257
 H21 H 0.11832 0.31545 -0.00254
 H22 H -0.12731 0.34979 -0.00256
 C23 C 0.41399 0.83504 0.53783
 C24 C 0.39547 0.83437 0.50347
 C25 C 0.41332 0.83536 0.46878
 C26 C 0.45099 0.83826 0.46819
 C27 C 0.47026 0.83889 0.50278
 C28 C 0.45167 0.83780 0.53773
 C29 C 0.47121 0.83984 0.57158
 C30 C 0.50845 0.84065 0.57121
 C31 C 0.52763 0.83938 0.53698
 C32 C 0.50830 0.83970 0.50240
 C33 C 0.46983 0.84087 0.43399
 C34 C 0.50707 0.84180 0.43363
 C35 C 0.52694 0.83999 0.46743
 C36 C 0.56494 0.83875 0.46726
 C37 C 0.58355 0.83834 0.50163
 C38 C 0.56563 0.83810 0.53637
 H39 H 0.45784 0.84090 0.59874
 H40 H 0.52207 0.84237 0.59812
 H41 H 0.45592 0.84234 0.40713
 H42 H 0.52014 0.84401 0.40648
 H43 H 0.36681 0.83075 0.50374
 H44 H 0.61266 0.83597 0.50132
 C45 C 1.07446 0.70109 -0.03093
 C46 C 1.09249 0.69976 0.00379
 C47 C 1.07399 0.70038 0.03847
 C48 C 1.03582 0.69999 0.03794
 C49 C 1.01721 0.70119 0.00286
 C50 C 1.03657 0.70105 -0.03160
 C51 C 1.01758 0.70014 -0.06593
 C52 C 0.98027 0.70186 -0.06651
 C53 C 0.96043 0.70431 -0.03278
 C54 C 0.97902 0.70269 0.00223
 C55 C 1.01576 0.69618 0.07131
 C56 C 0.97844 0.69818 0.07073
 C57 C 0.95953 0.70289 0.03662
 C58 C 0.92159 0.70680 0.03593
 C59 C 0.90367 0.70859 0.00115
 C60 C 0.92245 0.70763 -0.03311
 H61 H 1.03138 0.69783 -0.09279
 H62 H 0.96717 0.70098 -0.09377
 H63 H 1.02865 0.69116 0.09831
 H64 H 0.96454 0.69548 0.09735
 H65 H 1.12142 0.70156 0.00359
 H66 H 0.87464 0.71246 0.00074
 C67 C 0.58214 0.20813 0.46197
 C68 C 0.60050 0.20896 0.49650
 C69 C 0.58236 0.20804 0.53110
 C70 C 0.54466 0.20524 0.53138
 C71 C 0.52559 0.20468 0.49670
 C72 C 0.54442 0.20533 0.46189
 C73 C 0.52505 0.20275 0.42796
 C74 C 0.48779 0.20227 0.42810
 C75 C 0.46838 0.20428 0.46217
 C76 C 0.48751 0.20417 0.49683
 C77 C 0.52555 0.20259 0.56543
 C78 C 0.48831 0.20220 0.56556
 C79 C 0.46866 0.20431 0.53163
 C80 C 0.43066 0.20615 0.53162
 C81 C 0.41214 0.20640 0.49715
 C82 C 0.43036 0.20596 0.46251
 H83 H 0.53851 0.20096 0.40089
 H84 H 0.47435 0.20023 0.40112
 H85 H 0.53921 0.20072 0.59240
 H86 H 0.47508 0.20013 0.59263
 H87 H 0.62920 0.21233 0.49645
 H88 H 0.38303 0.20890 0.49729
 C89 C 0.68623 0.08234 0.02854
 C90 C 0.69103 0.09892 -0.00638
 C91 C 0.68697 0.08051 -0.04052
 C92 C 0.67960 0.04355 -0.03971
 C93 C 0.67731 0.02567 -0.00440
 C94 C 0.67912 0.04546 0.02977
 C95 C 0.67321 0.02795 0.06412
 C96 C 0.66908 -0.00891 0.06516
 C97 C 0.67231 -0.03006 0.03212
 C98 C 0.67421 -0.01225 -0.00321
 C99 C 0.67610 0.02353 -0.07308
 C100 C 0.67216 -0.01329 -0.07180
 C101 C 0.67383 -0.03221 -0.03733
 C102 C 0.67375 -0.07037 -0.03621
 C103 C 0.67059 -0.08736 -0.00095
 C104 C 0.67194 -0.06827 0.03339
 H105 H 0.67170 0.04260 0.09057
 H106 H 0.66351 -0.02072 0.09231
 H107 H 0.67691 0.03591 -0.10067
 H108 H 0.66818 -0.02688 -0.09840
 H109 H 0.69737 0.12702 -0.00697
 H110 H 0.67253 -0.11648 -0.00009
 C111 C 0.18533 0.41949 0.46856
 C112 C 0.18720 0.40123 0.50316
 C113 C 0.18564 0.41968 0.53772
 C114 C 0.18090 0.45768 0.53784
 C115 C 0.17931 0.47663 0.50307
 C116 C 0.18063 0.45751 0.46836
 C117 C 0.17699 0.47691 0.43435
 C118 C 0.17514 0.51431 0.43428
 C119 C 0.17661 0.53382 0.46822
 C120 C 0.17732 0.51486 0.50302
 C121 C 0.17752 0.47725 0.57181
 C122 C 0.17561 0.51465 0.57179
 C123 C 0.17683 0.53400 0.53777
 C124 C 0.17708 0.57199 0.53750
 C125 C 0.17673 0.59018 0.50290
 C126 C 0.17689 0.57180 0.46837
 H127 H 0.17554 0.46336 0.40736
 H128 H 0.17247 0.52779 0.40726
 H129 H 0.17630 0.46381 0.59885
 H130 H 0.17311 0.52826 0.59878
 H131 H 0.19233 0.37229 0.50319
 H132 H 0.17820 0.61919 0.50283
 C133 C 0.33902 0.90370 -0.03086
 C134 C 0.34217 0.88648 0.00440
 C135 C 0.33884 0.90541 0.03845
 C136 C 0.33375 0.94326 0.03781
 C137 C 0.33080 0.96154 0.00273
 C138 C 0.33462 0.94191 -0.03164
 C139 C 0.33670 0.96127 -0.06557
 C140 C 0.33097 0.99843 -0.06624
 C141 C 0.32239 1.01803 -0.03308
 C142 C 0.32421 0.99960 0.00203
 C143 C 0.33279 0.96339 0.07137
 C144 C 0.32652 1.00046 0.07070
 C145 C 0.32009 1.01904 0.03647
 C146 C 0.31241 1.05687 0.03578
 C147 C 0.31176 1.07462 0.00067
 C148 C 0.31498 1.05590 -0.03387
 H149 H 0.34371 0.94794 -0.09195
 H150 H 0.33416 1.01169 -0.09312
 H151 H 0.33754 0.95069 0.09856
 H152 H 0.32760 1.01446 0.09743
 H153 H 0.34381 0.85735 0.00567
 H154 H 0.30431 1.10315 0.00002
 C155 C 0.80144 0.56774 0.53164
 C156 C 0.79615 0.58577 0.49721
 C157 C 0.80127 0.56803 0.46254
 C158 C 0.81299 0.53124 0.46211
 C159 C 0.81822 0.51253 0.49676
 C160 C 0.81309 0.53096 0.53161
 C161 C 0.82013 0.51221 0.56552
 C162 C 0.82939 0.47555 0.56531
 C163 C 0.83189 0.45618 0.53120
 C164 C 0.82777 0.47509 0.49655
 C165 C 0.82003 0.51276 0.42800
 C166 C 0.82944 0.47610 0.42781
 C167 C 0.83200 0.45646 0.46171
 C168 C 0.83872 0.41868 0.46172
 C169 C 0.84238 0.40045 0.49618
 C170 C 0.83843 0.41840 0.53081
 H171 H 0.81852 0.52569 0.59263
 H172 H 0.83452 0.46249 0.59224
 H173 H 0.81836 0.52646 0.40105
 H174 H 0.83462 0.46327 0.40075
 H175 H 0.78623 0.61368 0.49741
 H176 H 0.84564 0.37133 0.49604
 O177 O 0.22017 0.27439 0.20704
 O178 O 0.29189 0.24383 0.27318
 O179 O 0.27597 0.22959 0.20260
 O180 O 0.23822 0.29002 0.27612
 O181 O 0.20432 0.24743 0.29667
 O182 O 0.24240 0.18649 0.22246
 O183 O 0.25834 0.20071 0.29311
 O184 O 0.18670 0.23135 0.22729
 Cu185 Cu 0.25994 0.26363 0.23755
 Cu186 Cu 0.21961 0.21213 0.26183
 C187 C 0.19119 0.25795 0.20573
 C188 C 0.28697 0.21756 0.29516
 C189 C 0.26545 0.19788 0.19951
 C190 C 0.21537 0.27905 0.29939
 O191 O 0.67685 0.74135 0.27003
 O192 O 0.74643 0.71002 0.20238
 O193 O 0.73189 0.69580 0.27305
 O194 O 0.69282 0.75738 0.20019
 O195 O 0.72753 0.79952 0.22031
 O196 O 0.76666 0.73828 0.29219
 O197 O 0.78103 0.75261 0.22164
 O198 O 0.71134 0.78380 0.28987
 Cu199 Cu 0.70852 0.72188 0.23448
 Cu200 Cu 0.75010 0.77275 0.25804
 C201 C 0.68223 0.76765 0.29179
 C202 C 0.77539 0.72627 0.19992
 C203 C 0.75582 0.70671 0.29530
 C204 C 0.70399 0.78894 0.19754
 O205 O 0.81994 0.24387 0.22506
 O206 O 0.75560 0.21208 0.29452
 O207 O 0.77496 0.19280 0.22594
 O208 O 0.79888 0.26446 0.29216
 O209 O 0.75603 0.30046 0.26774
 O210 O 0.73242 0.22938 0.20200
 O211 O 0.71315 0.24878 0.27053
 O212 O 0.77766 0.28061 0.20085
 Cu213 Cu 0.79157 0.22456 0.26180
 Cu214 Cu 0.74053 0.26827 0.23261
 C215 C 0.80995 0.26782 0.20122
 C216 C 0.72359 0.22549 0.29496
 C217 C 0.74958 0.19903 0.20244
 C218 C 0.78119 0.29462 0.29145
 O219 O 0.29324 0.75366 0.20737
 O220 O 0.26706 0.68193 0.27199
 O221 O 0.24908 0.70220 0.20320
 O222 O 0.31271 0.73206 0.27449
 O223 O 0.27062 0.76942 0.29817
 O224 O 0.20660 0.73890 0.22713
 O225 O 0.22468 0.71883 0.29580
 O226 O 0.25030 0.79002 0.23108
 Cu227 Cu 0.28469 0.71366 0.23688
 Cu228 Cu 0.23375 0.75780 0.26564
 C229 C 0.27597 0.78402 0.20800
 C230 C 0.24156 0.68832 0.29528
 C231 C 0.21718 0.71588 0.20243
 C232 C 0.30269 0.75601 0.29835
 O233 O 0.79765 0.26502 0.70042
 O234 O 0.77634 0.19505 0.76920
 O235 O 0.75505 0.21172 0.69978
 O236 O 0.81988 0.24608 0.76725
 O237 O 0.77715 0.28191 0.79215
 O238 O 0.71264 0.24898 0.72295
 O239 O 0.73211 0.23064 0.79182
 O240 O 0.75507 0.30122 0.72509
 Cu241 Cu 0.79130 0.22562 0.73156
 Cu242 Cu 0.73988 0.26916 0.76054
 C243 C 0.77999 0.29517 0.70114
 C244 C 0.75100 0.20133 0.79267
 C245 C 0.72305 0.22517 0.69903
 C246 C 0.80962 0.26960 0.79146
 O247 O 0.24934 0.70185 0.80259
 O248 O 0.31398 0.73183 0.73235
 O249 O 0.29417 0.75297 0.79965
 O250 O 0.26788 0.68212 0.73390
 O251 O 0.22574 0.71945 0.71037
 O252 O 0.25237 0.79030 0.77547
 O253 O 0.27227 0.76946 0.70846
 O254 O 0.20774 0.73981 0.77906
 Cu255 Cu 0.28545 0.71336 0.76954
 Cu256 Cu 0.23525 0.75832 0.74078
 C257 C 0.21768 0.71617 0.80332
 C258 C 0.30425 0.75585 0.70849
 C259 C 0.27772 0.78376 0.79883
 C260 C 0.24244 0.68883 0.71061
 O261 O 0.19663 0.22871 0.77831
 O262 O 0.26383 0.20068 0.70671
 O263 O 0.25169 0.18415 0.77746
 O264 O 0.20923 0.24701 0.70783
 O265 O 0.24469 0.28896 0.72684
 O266 O 0.28548 0.22714 0.79738
 O267 O 0.29868 0.24290 0.72639
 O268 O 0.23026 0.27261 0.79665
 Cu269 Cu 0.22686 0.21091 0.74053
 Cu270 Cu 0.26830 0.26208 0.76380
 C271 C 0.20224 0.25497 0.80000
 C272 C 0.29254 0.21731 0.70388
 C273 C 0.27519 0.19530 0.80006
 C274 C 0.22039 0.27856 0.70491
 O275 O 0.71526 0.78003 0.70980
 O276 O 0.78577 0.74881 0.77700
 O277 O 0.77066 0.73462 0.70640
 O278 O 0.73196 0.79496 0.77933
 O279 O 0.69767 0.75250 0.79942
 O280 O 0.73622 0.69186 0.72537
 O281 O 0.75169 0.70579 0.79612
 O282 O 0.68116 0.73728 0.72953
 Cu283 Cu 0.75436 0.76880 0.74106
 Cu284 Cu 0.71330 0.71750 0.76451
 C285 C 0.68617 0.76384 0.70807
 C286 C 0.78044 0.72240 0.79864
 C287 C 0.75979 0.70309 0.70296
 C288 C 0.70874 0.78409 0.80226
 C289 C 0.27727 0.06426 0.09449
 C290 C 0.30228 0.07711 0.06853
 C291 C 0.31489 0.11172 0.07442
 C292 C 0.30364 0.13243 0.10588
 C293 C 0.27888 0.11891 0.13174
 C294 C 0.26591 0.08479 0.12578
 C295 C 0.26701 0.13999 0.16275
 C296 C 0.27954 0.17457 0.16825
 C297 C 0.30462 0.18746 0.14258
 C298 C 0.31655 0.16662 0.11174
 H299 H 0.33413 0.12228 0.05493
 H300 H 0.24654 0.07415 0.14502
 H301 H 0.24763 0.12967 0.18221
 H302 H 0.33562 0.17741 0.09227
 H303 H 0.26545 0.03868 0.08994
 H304 H 0.31477 0.21396 0.14603
 C305 C 0.76345 0.57613 0.58957
 C306 C 0.79151 0.58752 0.56684
 C307 C 0.80860 0.61889 0.57651
 C308 C 0.79778 0.63876 0.60867
 C309 C 0.76951 0.62710 0.63144
 C310 C 0.75268 0.59561 0.62176
 C311 C 0.75797 0.64755 0.66296
 C312 C 0.77398 0.67985 0.67178
 C313 C 0.80244 0.69085 0.64924
 C314 C 0.81431 0.67045 0.61808
 H315 H 0.83003 0.62791 0.55876
 H316 H 0.73086 0.58634 0.63875
 H317 H 0.73589 0.63881 0.67995
 H318 H 0.83605 0.67976 0.60099
 H319 H 0.74963 0.55228 0.58209
 H320 H 0.81532 0.71556 0.65541
 C321 C 0.70502 0.92139 0.09285
 C322 C 0.67822 0.91169 0.06715
 C323 C 0.66083 0.87950 0.07382
 C324 C 0.66983 0.85789 0.10535
 C325 C 0.69651 0.86842 0.13075
 C326 C 0.71368 0.90032 0.12443
 C327 C 0.70651 0.84636 0.16145
 C328 C 0.69065 0.81337 0.16699
 C329 C 0.66366 0.80333 0.14195
 C330 C 0.65321 0.82549 0.11149
 H331 H 0.64017 0.87130 0.05456
 H332 H 0.73465 0.90846 0.14332
 H333 H 0.72746 0.85447 0.18039
 H334 H 0.63264 0.81694 0.09234
 H335 H 0.72071 0.94450 0.08768
 H336 H 0.65098 0.77809 0.14556
 C337 C 0.22337 0.40699 0.59505
 C338 C 0.19385 0.39867 0.57264
 C339 C 0.17429 0.36866 0.58190
 C340 C 0.18417 0.34723 0.61332
 C341 C 0.21373 0.35618 0.63581
 C342 C 0.23297 0.38624 0.62661
 C343 C 0.22434 0.33436 0.66648
 C344 C 0.20641 0.30306 0.67474
 C345 C 0.17681 0.29451 0.65249
 C346 C 0.16562 0.31655 0.62218
 H347 H 0.15186 0.36177 0.56431
 H348 H 0.25591 0.39324 0.64335
 H349 H 0.24742 0.34118 0.68315
 H350 H 0.14292 0.30922 0.60526
 H351 H 0.23935 0.42940 0.58774
 H352 H 0.16255 0.27055 0.65822
 C353 C 0.86600 0.36017 0.07060
 C354 C 0.89909 0.34075 0.06487
 C355 C 0.90844 0.31201 0.08957
 C356 C 0.88507 0.30238 0.11844
 C357 C 0.85170 0.32160 0.12310
 C358 C 0.84274 0.35086 0.09949
 C359 C 0.82744 0.31061 0.15056
 C360 C 0.83610 0.28053 0.17346
 C361 C 0.86979 0.26218 0.16918
 C362 C 0.89400 0.27294 0.14189
 H363 H 0.93278 0.29541 0.08478
 H364 H 0.81735 0.36607 0.10278
 H365 H 0.80167 0.32516 0.15371
 H366 H 0.91950 0.25790 0.13875
 H367 H 0.85795 0.38260 0.05247
 H368 H 0.87722 0.23899 0.18648
 C369 C 0.36244 0.85051 0.58113
 C370 C 0.39314 0.82855 0.57261
 C371 C 0.40119 0.79766 0.59439
 C372 C 0.37840 0.78835 0.62390
 C373 C 0.34701 0.81008 0.63161
 C374 C 0.33960 0.84144 0.61049
 C375 C 0.32311 0.79961 0.65963
 C376 C 0.33025 0.76777 0.68023
 C377 C 0.36208 0.74696 0.67310
 C378 C 0.38588 0.75708 0.64508
 H379 H 0.42444 0.78022 0.58735
 H380 H 0.31572 0.85846 0.61607
 H381 H 0.29881 0.81606 0.66512
 H382 H 0.40987 0.74018 0.63961
 H383 H 0.35568 0.87419 0.56429
 H384 H 0.36823 0.72236 0.68863
 C385 C 0.08310 0.73058 0.09938
 C386 C 0.09416 0.70467 0.07206
 C387 C 0.12738 0.68537 0.07729
 C388 C 0.14867 0.69139 0.10916
 C389 C 0.13701 0.71732 0.13627
 C390 C 0.10411 0.73659 0.13122
 C391 C 0.15891 0.72429 0.16743
 C392 C 0.19261 0.70594 0.17169
 C393 C 0.20358 0.67964 0.14493
 C394 C 0.18178 0.67235 0.11403
 H395 H 0.13651 0.66527 0.05674
 H396 H 0.09498 0.75694 0.15146
 H397 H 0.15011 0.74474 0.18773
 H398 H 0.19111 0.65229 0.09358
 H399 H 0.05879 0.74737 0.09543
 H400 H 0.22937 0.66506 0.14751
 C401 C 0.59457 0.24370 0.58923
 C402 C 0.60327 0.21381 0.56612
 C403 C 0.63328 0.19100 0.57507
 C404 C 0.65439 0.19799 0.60687
 C405 C 0.64521 0.22802 0.63009
 C406 C 0.61511 0.25054 0.62116
 C407 C 0.66688 0.23572 0.66116
 C408 C 0.69820 0.21434 0.66896
 C409 C 0.70685 0.18426 0.64602
 C410 C 0.68500 0.17600 0.61541
 H411 H 0.64035 0.16819 0.55698
 H412 H 0.60786 0.27384 0.63846
 H413 H 0.66006 0.25921 0.67837
 H414 H 0.69247 0.15288 0.59795
 H415 H 0.57199 0.26198 0.58224
 H416 H 0.73083 0.16736 0.65143
 C417 C 0.66535 0.10622 0.89949
 C418 C 0.69310 0.09916 0.92579
 C419 C 0.72694 0.11277 0.91926
 C420 C 0.73328 0.13267 0.88660
 C421 C 0.70487 0.14094 0.86101
 C422 C 0.67106 0.12736 0.86759
 C423 C 0.71075 0.16303 0.82968
 C424 C 0.74502 0.17547 0.82295
 C425 C 0.77344 0.16555 0.84737
 C426 C 0.76754 0.14470 0.87928
 H427 H 0.74852 0.10724 0.93936
 H428 H 0.64904 0.13322 0.84819
 H429 H 0.68884 0.17065 0.81066
 H430 H 0.78966 0.13828 0.89841
 H431 H 0.63894 0.09637 0.90434
 H432 H 0.79992 0.17526 0.84259
 C433 C 0.15645 0.62249 0.42583
 C434 C 0.18082 0.59337 0.43348
 C435 C 0.21112 0.58743 0.41025
 C436 C 0.21740 0.61074 0.38011
 C437 C 0.19320 0.64053 0.37327
 C438 C 0.16250 0.64582 0.39589
 C439 C 0.20067 0.66516 0.34472
 C440 C 0.23207 0.66049 0.32284
 C441 C 0.25527 0.63007 0.32901
 C442 C 0.24805 0.60545 0.35744
 H443 H 0.23038 0.56541 0.41653
 H444 H 0.14363 0.66847 0.39100
 H445 H 0.18241 0.68837 0.34011
 H446 H 0.26680 0.58268 0.36220
 H447 H 0.13315 0.62761 0.44368
 H448 H 0.27961 0.62581 0.31256
 C449 C 0.35817 0.84972 0.93290
 C450 C 0.33637 0.88169 0.93658
 C451 C 0.30891 0.88873 0.90971
 C452 C 0.30273 0.86404 0.88074
 C453 C 0.32430 0.83180 0.87814
 C454 C 0.35238 0.82525 0.90390
 C455 C 0.31670 0.80609 0.85065
 C456 C 0.28753 0.81202 0.82583
 C457 C 0.26686 0.84466 0.82800
 C458 C 0.27438 0.87042 0.85519
 H459 H 0.29065 0.91218 0.91279
 H460 H 0.36934 0.80077 0.90221
 H461 H 0.33297 0.78112 0.84923
 H462 H 0.25758 0.89502 0.85670
 H463 H 0.37981 0.84353 0.95267
 H464 H 0.24431 0.85003 0.80918
 C465 C 0.86339 0.36973 0.41877
 C466 C 0.83650 0.39642 0.42705
 C467 C 0.80514 0.39876 0.40505
 C468 C 0.80038 0.37449 0.37543
 C469 C 0.82708 0.34703 0.36795
 C470 C 0.85877 0.34525 0.38940
 C471 C 0.82114 0.32127 0.33992
 C472 C 0.78897 0.32291 0.31910
 C473 C 0.76325 0.35115 0.32593
 C474 C 0.76883 0.37660 0.35395
 H475 H 0.78386 0.41867 0.41194
 H476 H 0.87957 0.32446 0.38403
 H477 H 0.84126 0.29977 0.33469
 H478 H 0.74818 0.39758 0.35924
 H479 H 0.88756 0.36730 0.43577
 H480 H 0.73825 0.35301 0.31031
 C481 C 0.09572 0.34498 0.90133
 C482 C 0.09208 0.31869 0.92939
 C483 C 0.11106 0.28526 0.92554
 C484 C 0.13260 0.27773 0.89384
 C485 C 0.13693 0.30458 0.86621
 C486 C 0.11824 0.33810 0.87018
 C487 C 0.15995 0.29735 0.83532
 C488 C 0.17725 0.26316 0.83120
 C489 C 0.17169 0.23636 0.85801
 C490 C 0.14993 0.24370 0.88939
 H491 H 0.10835 0.26476 0.94698
 H492 H 0.12113 0.35899 0.84928
 H493 H 0.16413 0.31795 0.81439
 H494 H 0.14665 0.22277 0.91016
 H495 H 0.08204 0.37125 0.90417
 H496 H 0.18506 0.20995 0.85514
 C497 C 0.61407 0.85669 0.42402
 C498 C 0.58653 0.83365 0.43222
 C499 C 0.58224 0.80336 0.40932
 C500 C 0.60544 0.79586 0.37881
 C501 C 0.63361 0.81873 0.37125
 C502 C 0.63736 0.84937 0.39369
 C503 C 0.65812 0.80999 0.34210
 C504 C 0.65481 0.77867 0.32038
 C505 C 0.62596 0.75682 0.32744
 C506 C 0.60157 0.76528 0.35642
 H507 H 0.56155 0.78504 0.41607
 H508 H 0.65876 0.86723 0.38831
 H509 H 0.68012 0.82718 0.33686
 H510 H 0.58004 0.74756 0.36175
 H511 H 0.61796 0.87995 0.44166
 H512 H 0.62273 0.73257 0.31115
 C513 C 0.90611 0.74356 0.90911
 C514 C 0.90142 0.71312 0.93158
 C515 C 0.87496 0.68936 0.92180
 C516 C 0.85315 0.69607 0.88996
 C517 C 0.85796 0.72687 0.86758
 C518 C 0.88475 0.75025 0.87719
 C519 C 0.83516 0.73442 0.83669
 C520 C 0.80711 0.71196 0.82821
 C521 C 0.80310 0.68098 0.85017
 C522 C 0.82601 0.67301 0.88064
 H523 H 0.87107 0.66606 0.93937
 H524 H 0.88869 0.77407 0.86048
 H525 H 0.83846 0.75851 0.82018
 H526 H 0.82199 0.64925 0.89742
 H527 H 0.92602 0.76243 0.91669
 H528 H 0.78177 0.66320 0.84424
 C529 C 0.41254 0.24152 0.40493
 C530 C 0.40869 0.21098 0.42751
 C531 C 0.38263 0.18667 0.41803
 C532 C 0.36050 0.19287 0.38629
 C533 C 0.36457 0.22372 0.36376
 C534 C 0.39088 0.24770 0.37315
 C535 C 0.34156 0.23071 0.33292
 C536 C 0.31395 0.20765 0.32463
 C537 C 0.31063 0.17666 0.34676
 C538 C 0.33380 0.16924 0.37718
 H539 H 0.37934 0.16329 0.43567
 H540 H 0.39424 0.27159 0.35635
 H541 H 0.34431 0.25484 0.31631
 H542 H 0.33031 0.14544 0.39407
 H543 H 0.43208 0.26084 0.41229
 H544 H 0.28963 0.15844 0.34100
 C545 C 0.71026 0.91631 0.90730
 C546 C 0.68200 0.90780 0.93167
 C547 C 0.66460 0.87559 0.92515
 C548 C 0.67439 0.85328 0.89432
 C549 C 0.70211 0.86300 0.86982
 C550 C 0.71984 0.89449 0.87656
 C551 C 0.71236 0.84071 0.83939
 C552 C 0.69568 0.80830 0.83310
 C553 C 0.66794 0.79882 0.85744
 C554 C 0.65727 0.82122 0.88770
 H555 H 0.64302 0.86820 0.94361
 H556 H 0.74166 0.90192 0.85845
 H557 H 0.73398 0.84831 0.82109
 H558 H 0.63594 0.81326 0.90616
 H559 H 0.72595 0.93940 0.91268
 H560 H 0.65468 0.77398 0.85326
 C561 C 0.22224 0.40640 0.41070
 C562 C 0.19303 0.39827 0.43361
 C563 C 0.17320 0.36833 0.42470
 C564 C 0.18238 0.34689 0.39304
 C565 C 0.21152 0.35574 0.36995
 C566 C 0.23114 0.38563 0.37891
 C567 C 0.22124 0.33408 0.33881
 C568 C 0.20278 0.30306 0.33063
 C569 C 0.17372 0.29450 0.35362
 C570 C 0.16345 0.31637 0.38441
 H571 H 0.15103 0.36157 0.44268
 H572 H 0.25379 0.39255 0.36173
 H573 H 0.24393 0.34086 0.32158
 H574 H 0.14107 0.30911 0.40181
 H575 H 0.23845 0.42874 0.41774
 H576 H 0.15909 0.27076 0.34795
 C577 C 0.28391 0.06200 0.90487
 C578 C 0.30736 0.07528 0.93225
 C579 C 0.32062 0.10964 0.92662
 C580 C 0.31119 0.12988 0.89429
 C581 C 0.28764 0.11610 0.86726
 C582 C 0.27435 0.08206 0.87273
 C583 C 0.27699 0.13700 0.83575
 C584 C 0.28946 0.17167 0.83092
 C585 C 0.31370 0.18465 0.85749
 C586 C 0.32447 0.16397 0.88884
 H587 H 0.33875 0.12045 0.94717
 H588 H 0.25593 0.07122 0.85252
 H589 H 0.25826 0.12660 0.81558
 H590 H 0.34268 0.17492 0.90918
 H591 H 0.27170 0.03657 0.90902
 H592 H 0.32375 0.21124 0.85457
 C593 C 0.76313 0.57670 0.40467
 C594 C 0.79106 0.58815 0.42763
 C595 C 0.80739 0.62014 0.41879
 C596 C 0.79587 0.64064 0.38734
 C597 C 0.76768 0.62896 0.36439
 C598 C 0.75170 0.59679 0.37314
 C599 C 0.75539 0.65007 0.33365
 C600 C 0.77058 0.68299 0.32578
 C601 C 0.79898 0.69399 0.34849
 C602 C 0.81157 0.67298 0.37888
 H603 H 0.82869 0.62923 0.43672
 H604 H 0.72995 0.58750 0.35601
 H605 H 0.73340 0.64129 0.31651
 H606 H 0.83323 0.68231 0.39611
 H607 H 0.74983 0.55241 0.41154
 H608 H 0.81126 0.71915 0.34305
 C609 C 0.08885 0.73752 0.91222
 C610 C 0.09602 0.70676 0.93448
 C611 C 0.12537 0.68312 0.92537
 C612 C 0.14732 0.69015 0.89428
 C613 C 0.13957 0.72099 0.87184
 C614 C 0.11014 0.74435 0.88090
 C615 C 0.16193 0.72855 0.84134
 C616 C 0.19255 0.70618 0.83338
 C617 C 0.19991 0.67545 0.85570
 C618 C 0.17735 0.66736 0.88571
 H619 H 0.13133 0.65966 0.94285
 H620 H 0.10402 0.76829 0.86423
 H621 H 0.15613 0.75252 0.82460
 H622 H 0.18374 0.64363 0.90261
 H623 H 0.06690 0.75651 0.91942
 H624 H 0.22332 0.65779 0.85011
 C625 C 0.59415 0.24359 0.40370
 C626 C 0.60294 0.21383 0.42690
 C627 C 0.63317 0.19124 0.41818
 C628 C 0.65449 0.19836 0.38663
 C629 C 0.64527 0.22829 0.36334
 C630 C 0.61488 0.25055 0.37196
 C631 C 0.66716 0.23611 0.33251
 C632 C 0.69870 0.21491 0.32505
 C633 C 0.70738 0.18497 0.34810
 C634 C 0.68535 0.17662 0.37846
 H635 H 0.64033 0.16854 0.43634
 H636 H 0.60759 0.27376 0.35461
 H637 H 0.66031 0.25946 0.31518
 H638 H 0.69283 0.15359 0.39599
 H639 H 0.57142 0.26175 0.41052
 H640 H 0.73148 0.16818 0.34293
 C641 C 0.86567 0.35997 0.92403
 C642 C 0.89839 0.33994 0.92993
 C643 C 0.90717 0.31087 0.90543
 C644 C 0.88402 0.30202 0.87604
 C645 C 0.85114 0.32202 0.87097
 C646 C 0.84246 0.35124 0.89480
 C647 C 0.82711 0.31184 0.84282
 C648 C 0.83563 0.28192 0.81960
 C649 C 0.86888 0.26284 0.82432
 C650 C 0.89279 0.27270 0.85234
 H651 H 0.93104 0.29366 0.91051
 H652 H 0.81742 0.36700 0.89127
 H653 H 0.80163 0.32688 0.83937
 H654 H 0.91793 0.25710 0.85580
 H655 H 0.85799 0.38256 0.94214
 H656 H 0.87615 0.23967 0.80686
 C657 C 0.36078 0.85038 0.42653
 C658 C 0.39192 0.82881 0.43434
 C659 C 0.40004 0.79816 0.41216
 C660 C 0.37698 0.78874 0.38290
 C661 C 0.34521 0.81010 0.37581
 C662 C 0.33766 0.84119 0.39740
 C663 C 0.32115 0.79953 0.34790
 C664 C 0.32856 0.76799 0.32679
 C665 C 0.36072 0.74753 0.33342
 C666 C 0.38464 0.75774 0.36131
 H667 H 0.42362 0.78099 0.41866
 H668 H 0.31348 0.85793 0.39233
 H669 H 0.29659 0.81570 0.34283
 H670 H 0.40892 0.74113 0.36630
 H671 H 0.35395 0.87386 0.44370
 H672 H 0.36709 0.72316 0.31752
 C673 C 0.36189 0.85656 0.08225
 C674 C 0.33581 0.88390 0.07352
 C675 C 0.30440 0.88751 0.09536
 C676 C 0.29863 0.86358 0.12500
 C677 C 0.32443 0.83536 0.13277
 C678 C 0.35630 0.83251 0.11170
 C679 C 0.31739 0.80985 0.16061
 C680 C 0.28495 0.81234 0.18091
 C681 C 0.26017 0.84135 0.17391
 C682 C 0.26688 0.86666 0.14611
 H683 H 0.28381 0.90803 0.08820
 H684 H 0.37644 0.81115 0.11733
 H685 H 0.33682 0.78776 0.16598
 H686 H 0.24691 0.88822 0.14063
 H687 H 0.38610 0.85320 0.06544
 H688 H 0.23499 0.84391 0.18917
 C689 C 0.86251 0.36917 0.57365
 C690 C 0.83577 0.39594 0.56523
 C691 C 0.80426 0.39841 0.58699
 C692 C 0.79929 0.37429 0.61661
 C693 C 0.82590 0.34682 0.62431
 C694 C 0.85767 0.34482 0.60302
 C695 C 0.81985 0.32131 0.65246
 C696 C 0.78766 0.32318 0.67322
 C697 C 0.76199 0.35138 0.66614
 C698 C 0.76767 0.37660 0.63797
 H699 H 0.78311 0.41841 0.57998
 H700 H 0.87840 0.32400 0.60855
 H701 H 0.83995 0.29983 0.65789
 H702 H 0.74708 0.39759 0.63251
 H703 H 0.88678 0.36664 0.55684
 H704 H 0.73697 0.35339 0.68172
 C705 C 0.66756 0.13529 0.06840
 C706 C 0.69035 0.10454 0.06289
 C707 C 0.71905 0.09720 0.08793
 C708 C 0.72546 0.12096 0.11776
 C709 C 0.70278 0.15227 0.12256
 C710 C 0.67358 0.15888 0.09812
 C711 C 0.71026 0.17704 0.15098
 C712 C 0.74029 0.17121 0.17468
 C713 C 0.76209 0.13949 0.17040
 C714 C 0.75474 0.11457 0.14218
 H715 H 0.73698 0.07373 0.08333
 H716 H 0.65593 0.18274 0.10144
 H717 H 0.69307 0.20127 0.15406
 H718 H 0.77234 0.09068 0.13899
 H719 H 0.64550 0.14137 0.04911
 H720 H 0.78534 0.13429 0.18830
 C721 C 0.15695 0.62305 0.57988
 C722 C 0.18119 0.59378 0.57229
 C723 C 0.21154 0.58789 0.59547
 C724 C 0.21796 0.61133 0.62553
 C725 C 0.19389 0.64125 0.63233
 C726 C 0.16317 0.64653 0.60972
 C727 C 0.20149 0.66594 0.66087
 C728 C 0.23285 0.66116 0.68281
 C729 C 0.25594 0.63063 0.67663
 C730 C 0.24861 0.60599 0.64819
 H731 H 0.23072 0.56577 0.58924
 H732 H 0.14439 0.66927 0.61456
 H733 H 0.18333 0.68923 0.66548
 H734 H 0.26727 0.58313 0.64347
 H735 H 0.13361 0.62815 0.56206
 H736 H 0.28025 0.62628 0.69311
 C737 C 0.90572 0.74209 0.09432
 C738 C 0.89986 0.71260 0.07075
 C739 C 0.87158 0.69045 0.07884
 C740 C 0.84911 0.69787 0.11002
 C741 C 0.85508 0.72776 0.13346
 C742 C 0.88369 0.74947 0.12558
 C743 C 0.83173 0.73609 0.16368
 C744 C 0.80208 0.71527 0.17056
 C745 C 0.79688 0.68514 0.14756
 C746 C 0.82024 0.67646 0.11766
 H747 H 0.86679 0.66789 0.06045
 H748 H 0.88857 0.77257 0.14312
 H749 H 0.83603 0.75946 0.18107
 H750 H 0.81531 0.65341 0.10007
 H751 H 0.92703 0.75979 0.08805
 H752 H 0.77432 0.66858 0.15225
 C753 C 0.41377 0.24218 0.58920
 C754 C 0.40941 0.21155 0.56682
 C755 C 0.38360 0.18726 0.57703
 C756 C 0.36240 0.19346 0.60945
 C757 C 0.36713 0.22430 0.63189
 C758 C 0.39302 0.24838 0.62162
 C759 C 0.34525 0.23111 0.66365
 C760 C 0.31815 0.20786 0.67299
 C761 C 0.31405 0.17697 0.65082
 C762 C 0.33609 0.16974 0.61947
 H763 H 0.37992 0.16380 0.55956
 H764 H 0.39685 0.27227 0.63833
 H765 H 0.34854 0.25518 0.68027
 H766 H 0.33210 0.14595 0.60265
 H767 H 0.43314 0.26147 0.58130
 H768 H 0.29340 0.15861 0.65738
 C769 C 0.12229 0.34468 0.07274
 C770 C 0.09346 0.32271 0.06644
 C771 C 0.08812 0.29391 0.09100
 C772 C 0.11200 0.28649 0.12103
 C773 C 0.14151 0.30822 0.12658
 C774 C 0.14602 0.33763 0.10269
 C775 C 0.16666 0.29948 0.15509
 C776 C 0.16292 0.26912 0.17807
 C777 C 0.13284 0.24840 0.17305
 C778 C 0.10762 0.25701 0.14481
 H779 H 0.06622 0.27656 0.08577
 H780 H 0.16844 0.35460 0.10654
 H781 H 0.18961 0.31580 0.15871
 H782 H 0.08512 0.24014 0.14106
 H783 H 0.12688 0.36679 0.05379
 H784 H 0.12920 0.22494 0.19039
 C785 C 0.61556 0.85522 0.57908
 C786 C 0.58790 0.83231 0.57085
 C787 C 0.58408 0.80154 0.59307
 C788 C 0.60787 0.79345 0.62295
 C789 C 0.63613 0.81622 0.63054
 C790 C 0.63942 0.84732 0.60878
 C791 C 0.66117 0.80696 0.65904
 C792 C 0.65830 0.77522 0.68009
 C793 C 0.62940 0.75343 0.67302
 C794 C 0.60447 0.76241 0.64466
 H795 H 0.56327 0.78334 0.58628
 H796 H 0.66089 0.86511 0.61420
 H797 H 0.68320 0.82411 0.66432
 H798 H 0.58289 0.74474 0.63930
 H799 H 0.61908 0.87884 0.56193
 H800 H 0.62651 0.72886 0.68880
   
