data_POSCAR
  _audit_creation_date              2014-09-24
  _audit_creation_method            'ToBaCCo'
  _symmetry_space_group_name_H-M    'P1'
  _symmetry_Int_Tables_number       1
  _symmetry_cell_setting            triclinic
  loop_
  _symmetry_equiv_pos_as_xyz
 x,y,z
_cell_length_a 24.2735
_cell_length_b 24.3154
_cell_length_c 24.3511
_cell_angle_alpha 104.490100
_cell_angle_beta 74.994800
_cell_angle_gamma 74.551000
loop_
  _atom_site_label
  _atom_site_type_symbol
  _atom_site_fract_x
  _atom_site_fract_y
  _atom_site_fract_z
C1 C 0.55383 0.51049 0.00446
 C2 C 0.51034 0.55412 -0.00627
 C3 C 0.45717 0.54421 -0.01109
 C4 C 0.44665 0.49156 -0.00555
 C5 C 0.49009 0.44802 0.00513
 C6 C 0.54322 0.45785 0.00996
 H7 H 0.57670 0.42400 0.01789
 H8 H 0.42352 0.57795 -0.01902
 C9 C 0.00531 0.55421 0.49031
 C10 C -0.00632 0.51182 0.44780
 C11 C -0.01152 0.45902 0.45826
 C12 C -0.00547 0.44784 0.51047
 C13 C 0.00619 0.49012 0.55291
 C14 C 0.01139 0.54294 0.54254
 H15 H 0.01999 0.57563 0.57562
 H16 H -0.02013 0.42622 0.42533
 C17 C 0.49113 0.00430 0.44726
 C18 C 0.44818 -0.00695 0.49004
 C19 C 0.45804 -0.01159 0.54316
 C20 C 0.51028 -0.00534 0.55433
 C21 C 0.55338 0.00594 0.51139
 C22 C 0.54335 0.01057 0.45826
 H23 H 0.57658 0.01891 0.42495
 H24 H 0.42454 -0.01993 0.57618
 O25 O 0.45668 0.00234 -0.06632
 O26 O 0.44428 0.02394 0.09224
 O27 O 0.44388 0.09288 0.02470
 O28 O 0.45702 -0.06635 0.00099
 O29 O 0.55709 -0.09408 -0.02607
 O30 O 0.54394 0.06517 -0.00241
 O31 O 0.54434 -0.00353 0.06489
 O32 O 0.55674 -0.02516 -0.09367
 Cu33 Cu 0.44046 0.01594 0.01560
 Cu34 Cu 0.56054 -0.01714 -0.01702
 C35 C 0.50860 -0.01403 -0.10694
 C36 C 0.49242 0.01285 0.10552
 C37 C 0.49189 0.10609 0.01412
 C38 C 0.50905 -0.10728 -0.01550
 O39 O -0.09351 0.55679 1.02392
 O40 O 0.06588 0.54434 1.00199
 O41 O -0.00107 0.54338 0.93341
 O42 O -0.02627 0.55769 1.09278
 O43 O 0.00133 0.45809 1.06699
 O44 O 0.02653 0.44378 0.90762
 O45 O 0.09378 0.44474 0.97646
 O46 O -0.06563 0.45720 0.99838
 Cu47 Cu -0.01650 0.56052 1.01557
 Cu48 Cu 0.01677 0.44098 0.98483
 C49 C -0.10665 0.50889 1.01381
 C50 C 0.10692 0.49265 0.98651
 C51 C 0.01593 0.49139 0.89343
 C52 C -0.01569 0.51008 1.10697
 O53 O 0.02391 -0.09307 0.44414
 O54 O 0.00087 0.06632 0.45755
 O55 O 0.09262 -0.02602 0.44375
 O56 O -0.06762 -0.00043 0.45804
 O57 O -0.09409 0.02530 0.55724
 O58 O 0.06614 -0.00025 0.54296
 O59 O -0.02536 0.09237 0.55675
 O60 O -0.00229 -0.06702 0.54334
 Cu61 Cu 0.01506 -0.01587 0.44093
 Cu62 Cu -0.01652 0.01518 0.56001
 C63 C 0.01369 -0.10712 0.49170
 C64 C -0.01510 0.10642 0.50919
 C65 C 0.10661 -0.01643 0.49117
 C66 C -0.10808 0.01570 0.50982
 C67 C -0.28644 0.51810 1.01599
 C68 C -0.27237 0.57112 1.02686
 C69 C -0.21432 0.56858 1.02786
 C70 C -0.39306 0.51693 1.00895
 C71 C -0.18474 0.46013 1.00799
 C72 C -0.24269 0.46281 1.00714
 C73 C -0.34507 0.51931 1.01259
 C74 C -0.16964 0.51287 1.01779
 H75 H -0.30592 0.61417 1.03377
 H76 H -0.20407 0.60996 1.03529
 H77 H -0.15149 0.41655 1.00003
 H78 H -0.25313 0.42150 0.99877
 C79 C 0.28688 0.48355 0.98363
 C80 C 0.24304 0.53881 0.99256
 C81 C 0.18503 0.54145 0.99197
 C82 C 0.39361 0.48491 0.99016
 C83 C 0.21470 0.43301 0.97223
 C84 C 0.27282 0.43052 0.97297
 C85 C 0.34559 0.48241 0.98674
 C86 C 0.16994 0.48870 0.98237
 H87 H 0.25347 0.58013 1.00077
 H88 H 0.15172 0.58501 0.99997
 H89 H 0.20446 0.39163 0.96494
 H90 H 0.30643 0.38749 0.96600
 C91 C 0.01687 -0.28677 0.48178
 C92 C 0.02752 -0.27170 0.42913
 C93 C 0.02826 -0.21369 0.43186
 C94 C 0.00989 -0.39306 0.48319
 C95 C 0.00862 -0.18624 0.53974
 C96 C 0.00804 -0.24413 0.53686
 C97 C 0.01355 -0.34525 0.48052
 C98 C 0.01812 -0.17009 0.48740
 H99 H 0.03442 -0.30440 0.38625
 H100 H 0.03547 -0.20259 0.39080
 H101 H 0.00063 -0.15383 0.58317
 H102 H -0.00016 -0.25538 0.57787
 C103 C -0.01785 0.28597 0.51918
 C104 C -0.00894 0.24334 0.46405
 C105 C -0.00968 0.18548 0.46115
 C106 C -0.01052 0.39220 0.51803
 C107 C -0.02967 0.21296 0.56908
 C108 C -0.02877 0.27092 0.57184
 C109 C -0.01434 0.34440 0.52050
 C110 C -0.01944 0.16937 0.51350
 H111 H -0.00054 0.25456 0.42303
 H112 H -0.00162 0.15307 0.41768
 H113 H -0.03707 0.20189 0.61015
 H114 H -0.03574 0.30361 0.61476
 C115 C 0.51789 -0.01621 -0.28610
 C116 C 0.57118 -0.02821 -0.27189
 C117 C 0.56861 -0.02916 -0.21402
 C118 C 0.51680 -0.00958 -0.39259
 C119 C 0.45955 -0.00697 -0.18486
 C120 C 0.46227 -0.00616 -0.24263
 C121 C 0.51917 -0.01303 -0.34464
 C122 C 0.51258 -0.01793 -0.16965
 H123 H 0.61449 -0.03607 -0.30522
 H124 H 0.61021 -0.03751 -0.20368
 H125 H 0.41572 0.00191 -0.15185
 H126 H 0.42075 0.00307 -0.25317
 C127 C 0.48306 0.01527 0.28475
 C128 C 0.53872 0.00505 0.24124
 C129 C 0.54147 0.00577 0.18343
 C130 C 0.48401 0.00878 0.39131
 C131 C 0.43238 0.02822 0.21265
 C132 C 0.42977 0.02735 0.27055
 C133 C 0.48174 0.01217 0.34333
 C134 C 0.48843 0.01681 0.16824
 H135 H 0.58024 -0.00425 0.25177
 H136 H 0.58532 -0.00324 0.15039
 H137 H 0.39076 0.03663 0.20232
 H138 H 0.38643 0.03536 0.30391
 C139 C 0.51876 -0.28698 -0.01869
 C140 C 0.57193 -0.27285 -0.02970
 C141 C 0.56927 -0.21482 -0.03050
 C142 C 0.51731 -0.39318 -0.01122
 C143 C 0.46042 -0.18545 -0.01024
 C144 C 0.46322 -0.24337 -0.00961
 C145 C 0.51995 -0.34543 -0.01515
 C146 C 0.51328 -0.17025 -0.02005
 H147 H 0.61516 -0.30630 -0.03679
 H148 H 0.61073 -0.20447 -0.03795
 H149 H 0.41663 -0.15228 -0.00202
 H150 H 0.42180 -0.25388 -0.00113
 C151 C 0.48184 0.28594 0.01764
 C152 C 0.42870 0.27179 0.02892
 C153 C 0.43149 0.21370 0.02959
 C154 C 0.48279 0.39233 0.01036
 C155 C 0.54045 0.18431 0.00867
 C156 C 0.53751 0.24230 0.00816
 C157 C 0.48045 0.34448 0.01421
 C158 C 0.48760 0.16910 0.01875
 H159 H 0.38536 0.30527 0.03631
 H160 H 0.39003 0.20334 0.03726
 H161 H 0.58432 0.15111 0.00014
 H162 H 0.57891 0.25283 -0.00054
 C163 C -0.28834 0.01978 0.52037
 C164 C -0.27331 0.02942 0.57284
 C165 C -0.21514 0.03009 0.56997
 C166 C -0.39424 0.01149 0.51877
 C167 C -0.18756 0.01257 0.46234
 C168 C -0.24561 0.01208 0.46536
 C169 C -0.34667 0.01586 0.52159
 C170 C -0.17137 0.02085 0.51445
 H171 H -0.30610 0.03540 0.61565
 H172 H -0.20399 0.03634 0.61084
 H173 H -0.15500 0.00533 0.41893
 H174 H -0.25685 0.00465 0.42449
 C175 C 0.28698 -0.02087 0.48057
 C176 C 0.24418 -0.01294 0.53562
 C177 C 0.18608 -0.01330 0.53867
 C178 C 0.39298 -0.01279 0.48201
 C179 C 0.21376 -0.03112 0.43098
 C180 C 0.27197 -0.03059 0.42808
 C181 C 0.34537 -0.01708 0.47930
 C182 C 0.16992 -0.02167 0.48654
 H183 H 0.25540 -0.00544 0.57650
 H184 H 0.15347 -0.00589 0.58210
 H185 H 0.20264 -0.03745 0.39009
 H186 H 0.30481 -0.03674 0.38524
 C187 C -0.01985 0.52092 1.28663
 C188 C -0.03076 0.57363 1.27140
 C189 C -0.03136 0.57063 1.21340
 C190 C -0.01200 0.51975 1.39251
 C191 C -0.01117 0.46238 1.18633
 C192 C -0.01075 0.46553 1.24422
 C193 C -0.01617 0.52235 1.34492
 C194 C -0.02078 0.51475 1.16999
 H195 H -0.03784 0.61673 1.30394
 H196 H -0.03865 0.61170 1.20212
 H197 H -0.00287 0.41870 1.15405
 H198 H -0.00234 0.42448 1.25562
 C199 C 0.01983 0.48060 0.71385
 C200 C 0.03076 0.42788 0.72907
 C201 C 0.03145 0.43086 0.78704
 C202 C 0.01187 0.48193 0.60805
 C203 C 0.01134 0.53909 0.81409
 C204 C 0.01083 0.53597 0.75623
 C205 C 0.01608 0.47921 0.65560
 C206 C 0.02095 0.48673 0.83043
 H207 H 0.03778 0.38479 0.69655
 H208 H 0.03874 0.38978 0.79832
 H209 H 0.00311 0.58277 0.84635
 H210 H 0.00241 0.57702 0.74485
   
