data_POSCAR
  _audit_creation_date              2014-09-24
  _audit_creation_method            'ToBaCCo'
  _symmetry_space_group_name_H-M    'P1'
  _symmetry_Int_Tables_number       1
  _symmetry_cell_setting            triclinic
  loop_
  _symmetry_equiv_pos_as_xyz
 x,y,z
_cell_length_a 23.3485
_cell_length_b 23.3708
_cell_length_c 32.3260
_cell_angle_alpha 89.898300
_cell_angle_beta 90.093100
_cell_angle_gamma 120.478300
loop_
  _atom_site_label
  _atom_site_type_symbol
  _atom_site_fract_x
  _atom_site_fract_y
  _atom_site_fract_z
C1 C -0.00346 0.49562 1.36193
 C2 C 0.04972 0.49574 1.34129
 C3 C 0.04859 0.49242 1.29780
 C4 C -0.00305 0.49173 1.27528
 C5 C -0.05525 0.49223 1.29620
 C6 C -0.05684 0.49288 1.33974
 C7 C -0.00150 0.49260 1.22963
 C8 C -0.05445 0.44248 1.20689
 C9 C -0.05366 0.44457 1.16351
 C10 C 0.00043 0.49686 1.14298
 C11 C 0.05382 0.54690 1.16532
 C12 C 0.05258 0.54456 1.20872
 H13 H -0.00348 0.49728 1.39545
 H14 H 0.08910 0.49331 1.28098
 H15 H -0.09515 0.49042 1.27809
 H16 H -0.09645 0.40253 1.22297
 H17 H 0.00104 0.49845 1.10945
 H18 H 0.09364 0.58284 1.22634
 C19 C 0.50202 0.49858 1.36215
 C20 C 0.50009 0.55050 1.34113
 C21 C 0.50291 0.55217 1.29761
 C22 C 0.50476 0.50174 1.27539
 C23 C 0.50591 0.45013 1.29669
 C24 C 0.50590 0.44851 1.34026
 C25 C 0.50366 0.50192 1.22966
 C26 C 0.55308 0.49843 1.20699
 C27 C 0.55086 0.49677 1.16360
 C28 C 0.49921 0.49898 1.14297
 C29 C 0.44991 0.50302 1.16519
 C30 C 0.45228 0.50434 1.20859
 H31 H 0.50081 0.49733 1.39569
 H32 H 0.50079 0.59095 1.28054
 H33 H 0.50860 0.41245 1.27883
 H34 H 0.59266 0.49624 1.22312
 H35 H 0.49756 0.49782 1.10944
 H36 H 0.41447 0.50757 1.22608
 C37 C 0.49928 1.00763 1.36269
 C38 C 0.44786 0.95208 1.34261
 C39 C 0.44662 0.94900 1.29932
 C40 C 0.49703 1.00066 1.27613
 C41 C 0.54901 1.05546 1.29643
 C42 C 0.55045 1.05996 1.33991
 C43 C 0.49553 0.99795 1.23054
 C44 C 0.49673 1.04962 1.20760
 C45 C 0.49750 1.04843 1.16428
 C46 C 0.49671 0.99521 1.14397
 C47 C 0.49474 0.94293 1.16645
 C48 C 0.49422 0.94450 1.20986
 H49 H 0.49952 1.00953 1.39621
 H50 H 0.40685 0.90626 1.28368
 H51 H 0.58700 1.09504 1.27785
 H52 H 0.49807 1.09109 1.22349
 H53 H 0.49736 0.99440 1.11043
 H54 H 0.49256 0.90433 1.22762
 C55 C 1.00843 0.50670 0.64311
 C56 C 0.95369 0.50328 0.66327
 C57 C 0.95102 0.50184 0.70656
 C58 C 1.00233 0.50276 0.72967
 C59 C 1.05641 0.50495 0.70926
 C60 C 1.06040 0.50758 0.66574
 C61 C 0.99973 0.50150 0.77528
 C62 C 1.05207 0.55194 0.79821
 C63 C 1.05062 0.55003 0.84156
 C64 C 0.99646 0.49760 0.86191
 C65 C 0.94355 0.44730 0.83939
 C66 C 0.94544 0.44943 0.79598
 H67 H 1.00997 0.50803 0.60958
 H68 H 0.90883 0.49934 0.72228
 H69 H 1.09574 0.50622 0.72771
 H70 H 1.09417 0.59206 0.78230
 H71 H 0.99541 0.49616 0.89544
 H72 H 0.90477 0.41099 0.77820
 C73 C 0.49828 0.50002 0.64265
 C74 C 0.50011 0.44844 0.66354
 C75 C 0.49827 0.44651 0.70689
 C76 C 0.49504 0.49622 0.72930
 C77 C 0.49286 0.54752 0.70803
 C78 C 0.49439 0.54957 0.66462
 C79 C 0.49574 0.49559 0.77496
 C80 C 0.44584 0.49831 0.79754
 C81 C 0.44759 0.49930 0.84092
 C82 C 0.49929 0.49727 0.86163
 C83 C 0.54907 0.49402 0.83946
 C84 C 0.54713 0.49330 0.79607
 H85 H 0.49967 0.50145 0.60912
 H86 H 0.50030 0.40702 0.72320
 H87 H 0.48984 0.58554 0.72534
 H88 H 0.40625 0.50039 0.78135
 H89 H 0.50059 0.49795 0.89517
 H90 H 0.58527 0.49061 0.77861
 C91 C 0.50115 -0.00871 0.64177
 C92 C 0.55207 0.04694 0.66207
 C93 C 0.55339 0.04929 0.70544
 C94 C 0.50347 -0.00323 0.72844
 C95 C 0.45189 -0.05798 0.70782
 C96 C 0.45043 -0.06175 0.66430
 C97 C 0.50451 -0.00168 0.77415
 C98 C 0.50244 -0.05427 0.79650
 C99 C 0.49715 -0.05677 0.83994
 C100 C 0.49563 -0.00468 0.86066
 C101 C 0.50042 0.04946 0.83876
 C102 C 0.50431 0.05045 0.79541
 H103 H 0.50090 -0.01013 0.60823
 H104 H 0.59280 0.09204 0.72128
 H105 H 0.41417 -0.09815 0.72619
 H106 H 0.50210 -0.09437 0.77956
 H107 H 0.49208 -0.00538 0.89412
 H108 H 0.50715 0.09158 0.77813
 O109 O 0.40146 0.62327 0.95665
 O110 O 0.45530 0.75015 0.96664
 C111 C 0.43142 0.78090 0.94741
 O112 O 0.37774 0.77819 0.95735
 O113 O 0.25044 0.70379 0.96768
 C114 C 0.21923 0.64922 0.94809
 O115 O 0.22233 0.59818 0.95711
 O116 O 0.29548 0.54495 0.96698
 C117 C 0.35006 0.56887 0.94741
 O118 O 0.39604 0.60421 1.03909
 O119 O 0.44538 0.73022 1.05023
 C120 C 0.43521 0.77675 1.05989
 O121 O 0.39711 0.79044 1.03966
 O122 O 0.27088 0.71242 1.05098
 C123 C 0.22350 0.65512 1.06006
 O124 O 0.20956 0.60350 1.03947
 O125 O 0.28691 0.55539 1.05034
 C126 C 0.34410 0.56574 1.05953
 Cr127 Cr 0.42116 0.67676 1.00315
 Cr128 Cr 0.32430 0.74306 1.00388
 Cr129 Cr 0.25677 0.57895 1.00345
 O130 O 0.33409 0.66626 1.00315
 O131 O 0.60204 0.39139 0.96492
 O132 O 0.55259 0.26512 0.95360
 C133 C 0.56198 0.21781 0.94462
 O134 O 0.59991 0.20428 0.96522
 O135 O 0.72630 0.28222 0.95371
 C136 C 0.77384 0.33945 0.94461
 O137 O 0.78804 0.39118 0.96519
 O138 O 0.71117 0.43977 0.95384
 C139 C 0.65415 0.42984 0.94462
 O140 O 0.59580 0.37201 1.04731
 O141 O 0.54161 0.24495 1.03695
 C142 C 0.56539 0.21458 1.05669
 O143 O 0.61969 0.21801 1.04750
 O144 O 0.74693 0.29158 1.03699
 C145 C 0.77787 0.34605 1.05669
 O146 O 0.77478 0.39704 1.04756
 O147 O 0.70187 0.45033 1.03711
 C148 C 0.64725 0.42637 1.05666
 Cr149 Cr 0.57640 0.31863 1.00071
 Cr150 Cr 0.67297 0.25217 1.00088
 Cr151 Cr 0.74079 0.41617 1.00093
 O152 O 0.66338 0.32900 1.00113
 O153 O 0.62691 0.40277 0.54900
 O154 O 0.75413 0.45622 0.53728
 C155 C 0.78382 0.43197 0.55740
 O156 O 0.77866 0.37669 0.54893
 O157 O 0.70426 0.24952 0.53689
 C158 C 0.64998 0.21893 0.55694
 O159 O 0.59949 0.22354 0.54865
 O160 O 0.54713 0.29752 0.53776
 C161 C 0.57178 0.35174 0.55780
 O162 O 0.60517 0.39656 0.46696
 O163 O 0.73122 0.44408 0.45415
 C164 C 0.77909 0.43529 0.44552
 O165 O 0.79379 0.39908 0.46702
 O166 O 0.71449 0.27314 0.45387
 C167 C 0.65720 0.22538 0.44499
 O168 O 0.60588 0.21006 0.46643
 O169 O 0.55859 0.28818 0.45450
 C170 C 0.56791 0.34514 0.44581
 Cr171 Cr 0.67917 0.42168 0.50189
 Cr172 Cr 0.74472 0.32475 0.50173
 Cr173 Cr 0.58103 0.25791 0.50187
 O174 O 0.66826 0.33476 0.50234
 O175 O 0.39483 0.60231 0.53747
 O176 O 0.26942 0.55438 0.54984
 C177 C 0.22236 0.56393 0.55913
 O178 O 0.20723 0.59993 0.53781
 O179 O 0.28661 0.72583 0.54986
 C180 C 0.34401 0.77352 0.55855
 O181 O 0.39509 0.78870 0.53688
 O182 O 0.44317 0.71135 0.54826
 C183 C 0.43303 0.65443 0.55778
 O184 O 0.37417 0.59468 0.45534
 O185 O 0.24680 0.54189 0.46636
 C186 C 0.21601 0.56559 0.44683
 O187 O 0.22000 0.62021 0.45583
 O188 O 0.29489 0.74787 0.46673
 C189 C 0.34912 0.77893 0.44667
 O190 O 0.39977 0.77446 0.45460
 O191 O 0.45277 0.70091 0.46486
 C192 C 0.42873 0.64582 0.44582
 Cr193 Cr 0.32141 0.57656 0.50217
 Cr194 Cr 0.25534 0.67332 0.50245
 Cr195 Cr 0.41936 0.74066 0.50112
 O196 O 0.33208 0.66349 0.50127
 C197 C 0.49313 0.59832 0.36339
 C198 C 0.51010 0.66090 0.34904
 C199 C 0.49254 0.68894 0.37974
 C200 C 0.46475 0.64116 0.41008
 O201 O 0.46545 0.58646 0.40054
 H202 H 0.53292 0.68390 0.31989
 H203 H 0.49623 0.73701 0.37917
 C204 C 0.39696 0.89646 0.36720
 C205 C 0.32949 0.86414 0.35969
 C206 C 0.30155 0.81650 0.38967
 C207 C 0.35432 0.82284 0.41261
 O208 O 0.41214 0.87140 0.39916
 H209 H 0.30393 0.87434 0.33541
 H210 H 0.24934 0.78037 0.39367
 C211 C 0.10393 0.50164 0.36396
 C212 C 0.14877 0.48363 0.35017
 C213 C 0.19417 0.50065 0.38123
 C214 C 0.17481 0.52913 0.41118
 O215 O 0.12003 0.52939 0.40106
 H216 H 0.14865 0.46062 0.32114
 H217 H 0.23819 0.49633 0.38109
 C218 C 0.51170 0.39918 0.36176
 C219 C 0.49987 0.33947 0.34519
 C220 C 0.51516 0.30928 0.37576
 C221 C 0.53624 0.35283 0.40855
 O222 O 0.53364 0.40702 0.40039
 H223 H 0.48218 0.31967 0.31460
 H224 H 0.51423 0.26258 0.37371
 C225 C 0.60057 0.11598 0.36066
 C226 C 0.66028 0.16422 0.34368
 C227 C 0.69164 0.20983 0.37424
 C228 C 0.64868 0.18684 0.40737
 O229 O 0.59385 0.12993 0.39942
 H230 H 0.67932 0.16649 0.31288
 H231 H 0.73873 0.25587 0.37202
 C232 C 0.88857 0.48861 0.36106
 C233 C 0.84086 0.50042 0.34423
 C234 C 0.79571 0.48646 0.37494
 C235 C 0.81827 0.46620 0.40804
 O236 O 0.87471 0.46802 0.39993
 H237 H 0.83855 0.51702 0.31335
 H238 H 0.75000 0.48755 0.37277
 C239 C 0.60106 0.49121 1.13924
 C240 C 0.66837 0.52457 1.14740
 C241 C 0.69572 0.50658 1.11637
 C242 C 0.64279 0.46295 1.09212
 O243 O 0.58547 0.45372 1.10584
 H244 H 0.69431 0.55847 1.17259
 H245 H 0.74762 0.52203 1.11243
 C246 C 0.89041 0.39372 1.13908
 C247 C 0.85667 0.32644 1.14718
 C248 C 0.81080 0.29849 1.11617
 C249 C 0.81962 0.35106 1.09201
 O250 O 0.86790 0.40871 1.10574
 H251 H 0.86503 0.30094 1.17235
 H252 H 0.77427 0.24643 1.11223
 C253 C 0.50155 0.10330 1.13961
 C254 C 0.46746 0.13603 1.14759
 C255 C 0.48480 0.18128 1.11630
 C256 C 0.52878 0.17309 1.09216
 O257 O 0.53882 0.12582 1.10614
 H258 H 0.43367 0.12745 1.17286
 H259 H 0.46883 0.21705 1.11218
 C260 C 0.39764 0.50783 1.14250
 C261 C 0.33361 0.48442 1.15636
 C262 C 0.30349 0.50060 1.12605
 C263 C 0.35160 0.53302 1.09622
 O264 O 0.40855 0.53728 1.10606
 H265 H 0.31158 0.45882 1.18506
 H266 H 0.25325 0.49166 1.12622
 C267 C 0.11121 0.59988 1.14280
 C268 C 0.15205 0.66390 1.15682
 C269 C 0.19875 0.69469 1.12664
 C270 C 0.18305 0.64696 1.09671
 O271 O 0.13000 0.58962 1.10637
 H272 H 0.14838 0.68548 1.18556
 H273 H 0.24032 0.74514 1.12695
 C274 C 0.49092 0.88640 1.14379
 C275 C 0.51420 0.84599 1.15766
 C276 C 0.49907 0.80039 1.12695
 C277 C 0.46739 0.81632 1.09692
 O278 O 0.46258 0.86839 1.10702
 H279 H 0.53900 0.84921 1.18660
 H280 H 0.50809 0.75931 1.12699
 C281 C 0.50582 0.39816 0.63953
 C282 C 0.47183 0.33088 0.64762
 C283 C 0.49033 0.30345 0.61692
 C284 C 0.53487 0.35632 0.59299
 O285 O 0.54417 0.41367 0.60654
 H286 H 0.43718 0.30504 0.67250
 H287 H 0.47453 0.25152 0.61298
 C288 C 0.60258 0.10305 0.63755
 C289 C 0.67003 0.13618 0.64519
 C290 C 0.69769 0.18320 0.61483
 C291 C 0.64482 0.17574 0.59150
 O292 O 0.58716 0.12707 0.60510
 H293 H 0.69579 0.12676 0.66972
 H294 H 0.74980 0.21961 0.61080
 C295 C 0.89859 0.49885 0.63859
 C296 C 0.86654 0.53369 0.64625
 C297 C 0.82005 0.51508 0.61563
 C298 C 0.82676 0.46957 0.59219
 O299 O 0.87443 0.45983 0.60594
 H300 H 0.87631 0.56869 0.67095
 H301 H 0.78443 0.53127 0.61151
 C302 C 0.48998 0.60171 0.64159
 C303 C 0.51315 0.66575 0.65521
 C304 C 0.49744 0.69565 0.62452
 C305 C 0.46554 0.64741 0.59472
 O306 O 0.46113 0.59061 0.60494
 H307 H 0.53825 0.68791 0.68402
 H308 H 0.50626 0.74580 0.62442
 C309 C 0.40063 0.88229 0.64332
 C310 C 0.34101 0.83370 0.66019
 C311 C 0.30980 0.78841 0.62947
 C312 C 0.35274 0.81185 0.59634
 O313 O 0.40747 0.86881 0.60445
 H314 H 0.32187 0.83106 0.69100
 H315 H 0.26278 0.74227 0.63157
 C316 C 0.11548 0.51278 0.64465
 C317 C 0.16356 0.50144 0.66134
 C318 C 0.20809 0.51483 0.63027
 C319 C 0.18464 0.53420 0.59717
 O320 O 0.12852 0.53258 0.60564
 H321 H 0.16645 0.48541 0.69228
 H322 H 0.25384 0.51378 0.63213
 C323 C 0.39698 0.50425 0.86517
 C324 C 0.32970 0.47058 0.85687
 C325 C 0.30199 0.48839 0.88778
 C326 C 0.35471 0.53224 0.91208
 O327 O 0.41221 0.54175 0.89853
 H328 H 0.30404 0.43667 0.83164
 H329 H 0.25002 0.47273 0.89159
 C330 C 0.10612 0.60114 0.86609
 C331 C 0.13945 0.66842 0.85800
 C332 C 0.18546 0.69657 0.88892
 C333 C 0.17712 0.64409 0.91298
 O334 O 0.12900 0.58632 0.89930
 H335 H 0.13081 0.69376 0.83286
 H336 H 0.22183 0.74868 0.89282
 C337 C 0.49144 0.88925 0.86269
 C338 C 0.50928 0.84423 0.84910
 C339 C 0.49373 0.80010 0.88080
 C340 C 0.46631 0.82044 0.91090
 O341 O 0.46519 0.87445 0.90022
 H342 H 0.53135 0.84347 0.81987
 H343 H 0.49840 0.75633 0.88106
 C344 C 0.60129 0.48915 0.86212
 C345 C 0.66545 0.51285 0.84839
 C346 C 0.69534 0.49611 0.87854
 C347 C 0.64699 0.46311 0.90814
 O348 O 0.59011 0.45903 0.89834
 H349 H 0.68767 0.53894 0.81986
 H350 H 0.74560 0.50508 0.87841
 C351 C 0.88599 0.39436 0.86183
 C352 C 0.84504 0.33035 0.84781
 C353 C 0.79835 0.29965 0.87802
 C354 C 0.81418 0.34742 0.90795
 O355 O 0.86728 0.40467 0.89826
 H356 H 0.84864 0.30872 0.81907
 H357 H 0.75670 0.24924 0.87772
 C358 C 0.50387 0.10564 0.86177
 C359 C 0.48038 0.14586 0.84787
 C360 C 0.49642 0.19222 0.87817
 C361 C 0.52890 0.17704 0.90805
 O362 O 0.53326 0.12452 0.89824
 H363 H 0.45511 0.14216 0.81904
 H364 H 0.48755 0.23340 0.87790
   
