data_POSCAR
  _audit_creation_date              2014-09-24
  _audit_creation_method            'ToBaCCo'
  _symmetry_space_group_name_H-M    'P1'
  _symmetry_Int_Tables_number       1
  _symmetry_cell_setting            triclinic
  loop_
  _symmetry_equiv_pos_as_xyz
 x,y,z
_cell_length_a 21.4659
_cell_length_b 21.4876
_cell_length_c 22.2344
_cell_angle_alpha 89.956200
_cell_angle_beta 90.001500
_cell_angle_gamma 89.996700
loop_
  _atom_site_label
  _atom_site_type_symbol
  _atom_site_fract_x
  _atom_site_fract_y
  _atom_site_fract_z
Si1 Si 1.24832 0.24828 0.25004
 Si2 Si 0.75138 -0.24947 0.25011
 Si3 Si 0.75156 0.24927 -0.25002
 Si4 Si 1.24837 -0.24834 -0.24993
 Si5 Si 0.25184 0.25096 0.74999
 Si6 Si 0.74818 0.74901 0.75070
 Si7 Si 0.74835 0.25101 0.24956
 Si8 Si 0.25204 0.74911 0.25002
 O9 O 1.10715 0.03306 0.07574
 O10 O 0.89425 -0.03453 0.07500
 O11 O 0.96808 0.10650 0.07597
 O12 O 1.03508 -0.10733 0.07683
 O13 O 0.88288 0.07036 0.04243
 O14 O 1.12021 -0.07136 0.04319
 O15 O 0.93020 -0.11904 0.04053
 O16 O 1.07303 0.11764 0.04012
 C17 C 1.10006 0.08970 0.08136
 C18 C 0.90033 -0.09139 0.08013
 C19 C 0.91111 0.09959 0.08240
 C20 C 1.09204 -0.10036 0.08346
 O21 O 1.10784 -0.03385 -0.07389
 O22 O 0.89482 0.03356 -0.07453
 O23 O 1.03427 0.10566 -0.07518
 O24 O 0.96849 -0.10834 -0.07455
 O25 O 0.88327 -0.07150 -0.04158
 O26 O 1.11964 0.07050 -0.04127
 O27 O 1.07378 -0.11859 -0.03859
 O28 O 0.92968 0.11800 -0.03927
 Co29 Co 1.10261 -0.00042 0.00093
 Co30 Co 0.89999 -0.00050 0.00033
 Co31 Co 1.00133 0.10078 0.00044
 Co32 Co 1.00189 -0.10220 0.00104
 O33 O 1.00142 -0.00061 0.00070
 C34 C 1.10072 -0.09046 -0.07979
 C35 C 0.90032 0.09053 -0.07934
 C36 C 1.09118 0.09893 -0.08167
 C37 C 0.91157 -0.10095 -0.08133
 O38 O 1.11791 0.57175 0.54074
 O39 O 0.88278 0.43028 0.54279
 O40 O 0.92810 0.61990 0.53852
 O41 O 1.07241 0.38215 0.53950
 O42 O 0.89475 0.53518 0.57456
 O43 O 1.10783 0.46692 0.57366
 O44 O 0.96814 0.39459 0.57615
 O45 O 1.03267 0.60812 0.57392
 C46 C 1.08963 0.60205 0.57986
 C47 C 0.91141 0.40171 0.58290
 C48 C 0.89912 0.59229 0.57895
 C49 C 1.10244 0.40992 0.57898
 O50 O 1.11768 0.43053 0.45676
 O51 O 0.88263 0.57088 0.45728
 O52 O 1.07201 0.61997 0.45858
 O53 O 0.92785 0.38136 0.46112
 O54 O 0.89377 0.46595 0.42538
 O55 O 1.10659 0.53532 0.42367
 O56 O 1.03233 0.39278 0.42494
 O57 O 0.96776 0.60629 0.42318
 Co58 Co 1.10147 0.50111 0.49876
 Co59 Co 0.89936 0.50061 0.49994
 Co60 Co 1.00007 0.60213 0.49862
 Co61 Co 1.00010 0.39913 0.50037
 O62 O 1.00026 0.50072 0.49942
 C63 C 1.08923 0.39917 0.41855
 C64 C 0.91109 0.59891 0.41675
 C65 C 1.10179 0.59241 0.41868
 C66 C 0.89849 0.40885 0.42090
 O67 O 0.60569 0.03451 0.57451
 O68 O 0.39267 -0.03408 0.57427
 O69 O 0.46666 0.10601 0.57465
 O70 O 0.53169 -0.10758 0.57534
 O71 O 0.38141 0.07042 0.54095
 O72 O 0.61685 -0.07088 0.54222
 O73 O 0.42680 -0.11885 0.53928
 O74 O 0.57120 0.11887 0.53865
 C75 C 0.60047 0.09164 0.57901
 C76 C 0.39974 -0.09079 0.58045
 C77 C 0.40991 0.09847 0.58140
 C78 C 0.58838 -0.09938 0.58239
 O79 O 0.60625 -0.03539 0.42536
 O80 O 0.39337 0.03337 0.42410
 O81 O 0.53221 0.10592 0.42359
 O82 O 0.46603 -0.10750 0.42394
 O83 O 0.38092 -0.07123 0.45728
 O84 O 0.61728 0.06982 0.45734
 O85 O 0.57076 -0.11980 0.46049
 O86 O 0.42757 0.11800 0.45937
 Co87 Co 0.60050 -0.00047 0.49984
 Co88 Co 0.39807 -0.00039 0.49917
 Co89 Co 0.49935 0.10089 0.49911
 Co90 Co 0.49883 -0.10218 0.49971
 O91 O 0.49922 -0.00056 0.49944
 C92 C 0.60043 -0.09241 0.42052
 C93 C 0.40037 0.09011 0.41820
 C94 C 0.58896 0.09816 0.41695
 C95 C 0.40924 -0.09979 0.41699
 O96 O 0.60555 0.53396 0.07547
 O97 O 0.39183 0.46713 0.07639
 O98 O 0.46447 0.60694 0.07573
 O99 O 0.53204 0.39405 0.07571
 O100 O 0.37951 0.57189 0.04134
 O101 O 0.61682 0.42897 0.04071
 O102 O 0.42724 0.38220 0.04220
 O103 O 0.56904 0.61882 0.04176
 C104 C 0.59937 0.59095 0.08118
 C105 C 0.39896 0.41034 0.08275
 C106 C 0.40769 0.59996 0.08194
 C107 C 0.58886 0.40098 0.08143
 O108 O 0.60502 0.46666 -0.07516
 O109 O 0.39115 0.53343 -0.07458
 O110 O 0.53152 0.60736 -0.07447
 O111 O 0.46504 0.39433 -0.07415
 O112 O 0.37997 0.42875 -0.03941
 O113 O 0.61640 0.57183 -0.04010
 O114 O 0.56944 0.38185 -0.04076
 O115 O 0.42649 0.61849 -0.04068
 Co116 Co 0.59978 0.50034 0.00024
 Co117 Co 0.39670 0.50030 0.00091
 Co118 Co 0.49788 0.60178 0.00058
 Co119 Co 0.49838 0.39928 0.00076
 O120 O 0.49819 0.50044 0.00063
 C121 C 0.59939 0.40955 -0.08056
 C122 C 0.39832 0.59018 -0.08120
 C123 C 0.58829 0.60000 -0.08060
 C124 C 0.40830 0.40120 -0.08017
 C125 C 1.19998 0.19562 0.19962
 C126 C 1.23517 0.17582 0.14252
 C127 C 1.20142 0.14010 0.10448
 C128 C 1.13539 0.12650 0.12666
 C129 C 1.14374 0.09729 0.18911
 C130 C 1.17752 0.13366 0.22752
 C131 C 1.14000 0.22659 0.17683
 C132 C 1.10623 0.19062 0.13888
 H133 H 1.28326 0.18698 0.13294
 H134 H 1.22065 0.12188 0.06289
 H135 H 1.12441 0.05260 0.20217
 H136 H 1.18654 0.11955 0.27344
 H137 H 1.12421 0.27240 0.19027
 H138 H 1.06186 0.20588 0.12064
 C139 C 1.19530 0.70289 0.69956
 C140 C 1.22940 0.68211 0.64243
 C141 C 1.19385 0.64962 0.60353
 C142 C 1.12657 0.63889 0.62499
 C143 C 1.13345 0.60839 0.68719
 C144 C 1.16943 0.64193 0.72630
 C145 C 1.13684 0.73747 0.67697
 C146 C 1.10126 0.70427 0.63779
 H147 H 1.27816 0.69018 0.63326
 H148 H 1.21291 0.63218 0.56156
 H149 H 1.11179 0.56453 0.69946
 H150 H 1.17816 0.62644 0.77192
 H151 H 1.12363 0.78383 0.69125
 H152 H 1.05839 0.72252 0.61880
 C153 C 0.70133 0.19801 0.69871
 C154 C 0.73531 0.13902 0.67661
 C155 C 0.70205 0.10357 0.63752
 C156 C 0.63704 0.12932 0.62404
 C157 C 0.60617 0.13711 0.68601
 C158 C 0.63972 0.17324 0.72504
 C159 C 0.68139 0.23195 0.64115
 C160 C 0.64862 0.19639 0.60219
 H161 H 0.78159 0.12540 0.69075
 H162 H 0.72021 0.06065 0.61872
 H163 H 0.56188 0.11624 0.69806
 H164 H 0.62360 0.18330 0.77021
 H165 H 0.69039 0.28052 0.63182
 H166 H 0.63151 0.21519 0.55997
 C167 C 0.70097 0.69770 0.20023
 C168 C 0.73590 0.64003 0.17633
 C169 C 0.70244 0.60431 0.13752
 C170 C 0.63628 0.62840 0.12628
 C171 C 0.60719 0.63424 0.18930
 C172 C 0.64099 0.67065 0.22799
 C173 C 0.67810 0.73185 0.14382
 C174 C 0.64527 0.69608 0.10529
 H175 H 0.78286 0.62746 0.18938
 H176 H 0.72111 0.56210 0.11771
 H177 H 0.56399 0.61175 0.20233
 H178 H 0.62628 0.67926 0.27388
 H179 H 0.68478 0.78083 0.13498
 H180 H 0.62619 0.71532 0.06405
 C181 C 0.80019 -0.19746 0.19916
 C182 C 0.82143 -0.23162 0.14224
 C183 C 0.85386 -0.19596 0.10339
 C184 C 0.86383 -0.12862 0.12480
 C185 C 0.79819 -0.10381 0.13712
 C186 C 0.76513 -0.13949 0.17620
 C187 C 0.86096 -0.17122 0.22600
 C188 C 0.89423 -0.13499 0.18701
 H189 H 0.81395 -0.28039 0.13315
 H190 H 0.87180 -0.21498 0.06161
 H191 H 0.77949 -0.06142 0.11761
 H192 H 0.71839 -0.12678 0.18975
 H193 H 0.87672 -0.18016 0.27149
 H194 H 0.93792 -0.11302 0.19930
 C195 C 0.80565 0.29836 0.70038
 C196 C 0.82744 0.26399 0.64343
 C197 C 0.86299 0.29874 0.60591
 C198 C 0.87480 0.36502 0.62824
 C199 C 0.80971 0.39241 0.63972
 C200 C 0.77390 0.35774 0.67713
 C201 C 0.86674 0.32194 0.72915
 C202 C 0.90302 0.35691 0.69130
 H203 H 0.81809 0.21565 0.63371
 H204 H 0.88256 0.27998 0.56469
 H205 H 0.79358 0.43638 0.62136
 H206 H 0.72749 0.37250 0.68984
 H207 H 0.88041 0.31224 0.77512
 H208 H 0.94714 0.37697 0.70506
 C209 C 0.29875 -0.19601 0.69993
 C210 C 0.32425 -0.13556 0.72838
 C211 C 0.35849 -0.09953 0.68976
 C212 C 0.36435 -0.12753 0.62645
 C213 C 0.39124 -0.19308 0.63704
 C214 C 0.35708 -0.22857 0.67536
 C215 C 0.26328 -0.17340 0.64381
 C216 C 0.29743 -0.13821 0.60568
 H217 H 0.31686 -0.12237 0.77485
 H218 H 0.37983 -0.05592 0.70321
 H219 H 0.43470 -0.20951 0.61777
 H220 H 0.37159 -0.27504 0.68826
 H221 H 0.21457 -0.18186 0.63504
 H222 H 0.27780 -0.11817 0.56502
 C223 C 0.29752 0.30268 0.20061
 C224 C 0.35783 0.27228 0.17797
 C225 C 0.39185 0.30875 0.14045
 C226 C 0.36289 0.37308 0.12830
 C227 C 0.29699 0.35945 0.10574
 C228 C 0.26294 0.32326 0.14330
 C229 C 0.31962 0.36440 0.22913
 C230 C 0.35375 0.40140 0.19117
 H231 H 0.37369 0.22644 0.19144
 H232 H 0.43647 0.29374 0.12258
 H233 H 0.27796 0.37818 0.06424
 H234 H 0.21489 0.31234 0.13331
 H235 H 0.30978 0.37783 0.27513
 H236 H 0.37268 0.44608 0.20475
 C237 C 0.80036 0.19703 -0.19882
 C238 C 0.82184 0.23117 -0.14196
 C239 C 0.85422 0.19543 -0.10306
 C240 C 0.86389 0.12795 -0.12424
 C241 C 0.79810 0.10348 -0.13650
 C242 C 0.76513 0.13923 -0.17565
 C243 C 0.86101 0.17043 -0.22560
 C244 C 0.89418 0.13408 -0.18655
 H245 H 0.81450 0.27999 -0.13298
 H246 H 0.87233 0.21449 -0.06136
 H247 H 0.77926 0.06119 -0.11692
 H248 H 0.71835 0.12667 -0.18920
 H249 H 0.87676 0.17925 -0.27112
 H250 H 0.93772 0.11184 -0.19888
 C251 C 0.80531 0.70159 0.29950
 C252 C 0.82701 0.73606 0.35639
 C253 C 0.86257 0.70141 0.39389
 C254 C 0.87445 0.63520 0.37151
 C255 C 0.80948 0.60759 0.36010
 C256 C 0.77362 0.64216 0.32271
 C257 C 0.86641 0.67814 0.27067
 C258 C 0.90274 0.64328 0.30850
 H259 H 0.81767 0.78440 0.36610
 H260 H 0.88214 0.72023 0.43509
 H261 H 0.79347 0.56359 0.37849
 H262 H 0.72724 0.62731 0.30999
 H263 H 0.88004 0.68777 0.22467
 H264 H 0.94687 0.62323 0.29476
 C265 C 0.29878 0.19596 0.29992
 C266 C 0.32408 0.13562 0.27107
 C267 C 0.35849 0.09939 0.30932
 C268 C 0.36471 0.12709 0.37267
 C269 C 0.39161 0.19268 0.36226
 C270 C 0.35722 0.22841 0.32435
 C271 C 0.26358 0.17323 0.35612
 C272 C 0.29791 0.13776 0.39388
 H273 H 0.31651 0.12264 0.22458
 H274 H 0.37975 0.05584 0.29555
 H275 H 0.43514 0.20902 0.38146
 H276 H 0.37157 0.27502 0.31177
 H277 H 0.21500 0.18213 0.36532
 H278 H 0.27857 0.11775 0.43468
 C279 C 0.29745 0.69722 -0.20025
 C280 C 0.35770 0.72768 -0.17752
 C281 C 0.39150 0.69144 -0.13958
 C282 C 0.36249 0.62719 -0.12720
 C283 C 0.29648 0.64093 -0.10506
 C284 C 0.26261 0.67686 -0.14300
 C285 C 0.31967 0.63534 -0.22835
 C286 C 0.35364 0.59853 -0.19001
 H287 H 0.37372 0.77336 -0.19131
 H288 H 0.43607 0.70652 -0.12165
 H289 H 0.27718 0.62226 -0.06366
 H290 H 0.21442 0.68747 -0.13341
 H291 H 0.30999 0.62166 -0.27432
 H292 H 0.37260 0.55377 -0.20325
 C293 C 1.20012 -0.19567 -0.19926
 C294 C 1.17756 -0.13355 -0.22671
 C295 C 1.14392 -0.09741 -0.18792
 C296 C 1.13583 -0.12699 -0.12556
 C297 C 1.10663 -0.19101 -0.13806
 C298 C 1.14019 -0.22672 -0.17642
 C299 C 1.23555 -0.17612 -0.14219
 C300 C 1.20196 -0.14070 -0.10378
 H301 H 1.18646 -0.11918 -0.27259
 H302 H 1.12457 -0.05262 -0.20063
 H303 H 1.06229 -0.20635 -0.11979
 H304 H 1.12423 -0.27236 -0.19024
 H305 H 1.28378 -0.18697 -0.13300
 H306 H 1.22145 -0.12255 -0.06226
 C307 C 1.19519 0.29707 0.30028
 C308 C 1.22898 0.31789 0.35755
 C309 C 1.19326 0.35073 0.39604
 C310 C 1.12618 0.36171 0.37401
 C311 C 1.13365 0.39187 0.31177
 C312 C 1.16973 0.35800 0.27310
 C313 C 1.13648 0.26277 0.32269
 C314 C 1.10067 0.29636 0.36139
 H315 H 1.27754 0.30924 0.36725
 H316 H 1.21196 0.36799 0.43824
 H317 H 1.11221 0.43572 0.29911
 H318 H 1.17876 0.37323 0.22746
 H319 H 1.12336 0.21626 0.30880
 H320 H 1.05767 0.27834 0.38029
 C321 C 0.70123 -0.19841 0.30115
 C322 C 0.63954 -0.17389 0.27479
 C323 C 0.60596 -0.13784 0.31380
 C324 C 0.63697 -0.12992 0.37567
 C325 C 0.64874 -0.19687 0.39768
 C326 C 0.68149 -0.23238 0.35874
 C327 C 0.73513 -0.13932 0.32307
 C328 C 0.70184 -0.10394 0.36212
 H329 H 0.62340 -0.18401 0.22965
 H330 H 0.56157 -0.11711 0.30181
 H331 H 0.63174 -0.21566 0.43995
 H332 H 0.69052 -0.28093 0.36811
 H333 H 0.78135 -0.12560 0.30889
 H334 H 0.71993 -0.06095 0.38087
 C335 C 0.70107 0.30236 -0.19990
 C336 C 0.73610 0.35988 -0.17580
 C337 C 0.70266 0.39570 -0.13696
 C338 C 0.63636 0.37191 -0.12583
 C339 C 0.60744 0.36622 -0.18896
 C340 C 0.64121 0.32971 -0.22766
 C341 C 0.67795 0.26826 -0.14353
 C342 C 0.64510 0.30412 -0.10501
 H343 H 0.78312 0.37232 -0.18879
 H344 H 0.72143 0.43784 -0.11710
 H345 H 0.56439 0.38892 -0.20208
 H346 H 0.62654 0.32120 -0.27359
 H347 H 0.68455 0.21926 -0.13474
 H348 H 0.62586 0.28488 -0.06384
 C349 C 1.19768 0.20141 -0.20027
 C350 C 1.13621 0.17832 -0.22865
 C351 C 1.09972 0.14378 -0.19050
 C352 C 1.12811 0.13537 -0.12748
 C353 C 1.19292 0.10737 -0.13943
 C354 C 1.22889 0.14165 -0.17722
 C355 C 1.17653 0.23594 -0.14317
 C356 C 1.14082 0.20157 -0.10537
 H357 H 1.12263 0.18779 -0.27471
 H358 H 1.05544 0.12397 -0.20411
 H359 H 1.20859 0.06312 -0.12132
 H360 H 1.27493 0.12630 -0.19064
 H361 H 1.18662 0.28419 -0.13355
 H362 H 1.12178 0.22056 -0.06402
 C363 C 1.20444 0.69867 0.29895
 C364 C 1.23820 0.63959 0.32175
 C365 C 1.20451 0.60419 0.36082
 C366 C 1.13917 0.62969 0.37354
 C367 C 1.15018 0.69671 0.39510
 C368 C 1.18319 0.73230 0.35645
 C369 C 1.14312 0.67303 0.27222
 C370 C 1.10918 0.63705 0.31117
 H371 H 1.28447 0.62561 0.30787
 H372 H 1.22239 0.56116 0.37972
 H373 H 1.13225 0.71569 0.43690
 H374 H 1.19081 0.78092 0.36614
 H375 H 1.12757 0.68154 0.22662
 H376 H 1.06545 0.61539 0.29852
 C377 C 0.69551 0.20032 0.29916
 C378 C 0.63505 0.17537 0.27007
 C379 C 0.59857 0.14085 0.30806
 C380 C 0.62611 0.13408 0.37147
 C381 C 0.69178 0.10719 0.36103
 C382 C 0.72773 0.14169 0.32339
 C383 C 0.67270 0.23511 0.35554
 C384 C 0.63697 0.20067 0.39302
 H385 H 0.62216 0.18333 0.22360
 H386 H 0.55491 0.11988 0.29407
 H387 H 0.70807 0.06359 0.38007
 H388 H 0.77438 0.12731 0.31086
 H389 H 0.68165 0.28353 0.36508
 H390 H 0.61688 0.21981 0.43384
 C391 C 0.69518 0.70031 -0.19885
 C392 C 0.63316 0.67794 -0.22681
 C393 C 0.59653 0.64419 -0.18849
 C394 C 0.62545 0.63562 -0.12594
 C395 C 0.68977 0.60654 -0.13817
 C396 C 0.72598 0.64031 -0.17607
 C397 C 0.67522 0.73528 -0.14166
 C398 C 0.63919 0.70155 -0.10373
 H399 H 0.61922 0.68697 -0.27279
 H400 H 0.55181 0.62499 -0.20169
 H401 H 0.70499 0.56218 -0.11996
 H402 H 0.77183 0.62451 -0.18961
 H403 H 0.68662 0.78323 -0.13193
 H404 H 0.62089 0.72071 -0.06214
 C405 C 0.80302 -0.20204 -0.19954
 C406 C 0.82398 -0.23697 -0.14253
 C407 C 0.86047 -0.20320 -0.10489
 C408 C 0.87398 -0.13711 -0.12698
 C409 C 0.90192 -0.14574 -0.19011
 C410 C 0.86470 -0.17959 -0.22814
 C411 C 0.77270 -0.14203 -0.17629
 C412 C 0.80936 -0.10830 -0.13867
 H413 H 0.81297 -0.28503 -0.13281
 H414 H 0.87942 -0.22253 -0.06362
 H415 H 0.94658 -0.12675 -0.20380
 H416 H 0.87798 -0.18903 -0.27425
 H417 H 0.72672 -0.12617 -0.18945
 H418 H 0.79426 -0.06395 -0.12041
 C419 C 0.79727 0.30355 0.30076
 C420 C 0.81838 0.26903 0.35764
 C421 C 0.85120 0.30426 0.39669
 C422 C 0.86160 0.37171 0.37576
 C423 C 0.89179 0.36549 0.31335
 C424 C 0.85813 0.32981 0.27408
 C425 C 0.76266 0.36164 0.32395
 C426 C 0.79597 0.39686 0.36336
 H427 H 0.81008 0.22027 0.36651
 H428 H 0.86901 0.28495 0.43842
 H429 H 0.93563 0.38725 0.30111
 H430 H 0.87349 0.32147 0.22836
 H431 H 0.71616 0.37487 0.30994
 H432 H 0.77761 0.43936 0.38285
 C433 C 0.30266 -0.20228 0.29803
 C434 C 0.32561 -0.23681 0.35483
 C435 C 0.36107 -0.20229 0.39245
 C436 C 0.37209 -0.13575 0.37104
 C437 C 0.39977 -0.14253 0.30767
 C438 C 0.36349 -0.17709 0.26944
 C439 C 0.27073 -0.14324 0.32225
 C440 C 0.30654 -0.10888 0.36020
 H441 H 0.31759 -0.28529 0.36462
 H442 H 0.38123 -0.22154 0.43323
 H443 H 0.44321 -0.12115 0.29370
 H444 H 0.37683 -0.18450 0.22304
 H445 H 0.22433 -0.12825 0.30962
 H446 H 0.29029 -0.06519 0.37902
 C447 C 0.30397 0.29984 -0.19919
 C448 C 0.32392 0.26498 -0.14189
 C449 C 0.35897 0.29920 -0.10360
 C450 C 0.37194 0.36536 -0.12570
 C451 C 0.40158 0.35729 -0.18804
 C452 C 0.36589 0.32295 -0.22665
 C453 C 0.27217 0.35946 -0.17663
 C454 C 0.30749 0.39363 -0.13840
 H455 H 0.31346 0.21676 -0.13241
 H456 H 0.37722 0.28021 -0.06189
 H457 H 0.44603 0.37727 -0.20092
 H458 H 0.38043 0.31390 -0.27244
 H459 H 0.22627 0.37475 -0.19048
 H460 H 0.29154 0.43777 -0.12031
 C461 C 1.20000 -0.20312 0.20219
 C462 C 1.17839 -0.23727 0.14477
 C463 C 1.14243 -0.20288 0.10719
 C464 C 1.12948 -0.13686 0.12937
 C465 C 1.10146 -0.14560 0.19249
 C466 C 1.13827 -0.18006 0.23056
 C467 C 1.23053 -0.14284 0.17899
 C468 C 1.19421 -0.10871 0.14127
 H469 H 1.18786 -0.28547 0.13462
 H470 H 1.12310 -0.22191 0.06598
 H471 H 1.05718 -0.12593 0.20631
 H472 H 1.12458 -0.18915 0.27661
 H473 H 1.27644 -0.12688 0.19209
 H474 H 1.20960 -0.06434 0.12318
 C475 C 1.20307 0.30383 0.69898
 C476 C 1.18220 0.26979 0.64185
 C477 C 1.14975 0.30541 0.60284
 C478 C 1.13926 0.37273 0.62414
 C479 C 1.10876 0.36603 0.68636
 C480 C 1.14211 0.32990 0.72554
 C481 C 1.23787 0.36211 0.67627
 C482 C 1.20479 0.39774 0.63696
 H483 H 1.19032 0.22106 0.63275
 H484 H 1.13227 0.28645 0.56085
 H485 H 1.06512 0.38810 0.69866
 H486 H 1.12654 0.32124 0.77116
 H487 H 1.28431 0.37519 0.69052
 H488 H 1.22323 0.44045 0.61789
 C489 C 0.69517 -0.20050 0.70096
 C490 C 0.72714 -0.14182 0.67660
 C491 C 0.69109 -0.10766 0.63871
 C492 C 0.62555 -0.13491 0.62821
 C493 C 0.63677 -0.20152 0.60698
 C494 C 0.67259 -0.23561 0.64466
 C495 C 0.63453 -0.17567 0.72984
 C496 C 0.59792 -0.14151 0.69161
 H497 H 0.77363 -0.12709 0.68932
 H498 H 0.70718 -0.06401 0.61964
 H499 H 0.61676 -0.22097 0.56626
 H500 H 0.68163 -0.28405 0.63536
 H501 H 0.62166 -0.18335 0.77636
 H502 H 0.55417 -0.12063 0.70545
 C503 C 0.69554 0.29985 0.19911
 C504 C 0.67548 0.26514 0.14181
 C505 C 0.63953 0.29915 0.10402
 C506 C 0.62601 0.36505 0.12650
 C507 C 0.59709 0.35631 0.18902
 C508 C 0.63360 0.32226 0.22717
 C509 C 0.72653 0.35982 0.17649
 C510 C 0.69040 0.39387 0.13875
 H511 H 0.68683 0.21721 0.13188
 H512 H 0.62121 0.28025 0.06233
 H513 H 0.55240 0.37554 0.20230
 H514 H 0.61958 0.31297 0.27308
 H515 H 0.77251 0.37534 0.18987
 H516 H 0.70579 0.43818 0.12056
 C517 C 0.80298 0.20181 0.19993
 C518 C 0.77235 0.14186 0.17685
 C519 C 0.80887 0.10776 0.13944
 C520 C 0.87363 0.13616 0.12776
 C521 C 0.86050 0.20225 0.10536
 C522 C 0.82416 0.23640 0.14283
 C523 C 0.86449 0.17918 0.22870
 C524 C 0.90155 0.14493 0.19087
 H525 H 0.72621 0.12636 0.18985
 H526 H 0.79352 0.06347 0.12123
 H527 H 0.87956 0.22126 0.06401
 H528 H 0.81333 0.28447 0.13290
 H529 H 0.87782 0.18887 0.27476
 H530 H 0.94611 0.12580 0.20468
 C531 C 0.79737 0.69668 0.69948
 C532 C 0.76304 0.63856 0.67605
 C533 C 0.79654 0.60368 0.63649
 C534 C 0.86211 0.62913 0.62425
 C535 C 0.85149 0.69661 0.60360
 C536 C 0.81846 0.73151 0.64275
 C537 C 0.85829 0.67050 0.72614
 C538 C 0.89218 0.63516 0.68673
 H539 H 0.71665 0.62500 0.69013
 H540 H 0.77841 0.56112 0.61690
 H541 H 0.86937 0.71621 0.56203
 H542 H 0.81009 0.78030 0.63409
 H543 H 0.87349 0.67856 0.77195
 H544 H 0.93606 0.61346 0.69896
 C545 C 0.30449 0.20051 0.70012
 C546 C 0.36486 0.17504 0.72890
 C547 C 0.40091 0.14042 0.69062
 C548 C 0.37314 0.13431 0.62720
 C549 C 0.30739 0.10776 0.63772
 C550 C 0.27184 0.14221 0.67570
 C551 C 0.32737 0.23558 0.64389
 C552 C 0.36266 0.20114 0.60607
 H553 H 0.37792 0.18265 0.77538
 H554 H 0.44424 0.11876 0.70449
 H555 H 0.29083 0.06430 0.61865
 H556 H 0.22523 0.12792 0.68842
 H557 H 0.31891 0.28419 0.63477
 H558 H 0.38280 0.22046 0.56532
 C559 C 0.30224 0.70186 0.20116
 C560 C 0.36445 0.67870 0.22853
 C561 C 0.40034 0.64438 0.18997
 C562 C 0.37096 0.63597 0.12759
 C563 C 0.30659 0.60764 0.14032
 C564 C 0.27103 0.64173 0.17851
 C565 C 0.32260 0.73627 0.14349
 C566 C 0.35781 0.70196 0.10539
 H567 H 0.37920 0.68736 0.27429
 H568 H 0.44478 0.62446 0.20302
 H569 H 0.29086 0.56338 0.12231
 H570 H 0.22527 0.62584 0.19207
 H571 H 0.31283 0.78446 0.13348
 H572 H 0.37633 0.72094 0.06378
   
