data_POSCAR
  _audit_creation_date              2014-09-24
  _audit_creation_method            'ToBaCCo'
  _symmetry_space_group_name_H-M    'P1'
  _symmetry_Int_Tables_number       1
  _symmetry_cell_setting            triclinic
  loop_
  _symmetry_equiv_pos_as_xyz
 x,y,z
_cell_length_a 29.7369
_cell_length_b 32.5755
_cell_length_c 32.2499
_cell_angle_alpha 89.860200
_cell_angle_beta 89.842400
_cell_angle_gamma 90.245500
loop_
  _atom_site_label
  _atom_site_type_symbol
  _atom_site_fract_x
  _atom_site_fract_y
  _atom_site_fract_z
Zr1 Zr 0.25077 0.24522 0.32546
 O2 O 0.28607 0.27770 0.37211
 O3 O 0.20808 0.20755 0.36124
 O4 O 0.20907 0.28552 0.35831
 O5 O 0.33069 0.17033 0.31207
 O6 O 0.17551 0.32427 0.30814
 O7 O 0.29246 0.20709 0.36085
 O8 O 0.16626 0.17416 0.31258
 O9 O 0.19170 0.24831 0.29039
 O10 O 0.24882 0.19112 0.29082
 O11 O 0.25700 0.29896 0.28960
 O12 O 0.31153 0.24404 0.29155
 Zr13 Zr 0.25614 0.24636 0.18142
 Zr14 Zr 0.19974 0.30003 0.25180
 Zr15 Zr 0.30672 0.19129 0.25447
 Zr16 Zr 0.19159 0.19505 0.25458
 O17 O 0.37786 0.19275 0.25411
 O18 O 0.12211 0.20937 0.25538
 O19 O 0.24942 0.19190 0.21667
 O20 O 0.19592 0.24669 0.21596
 O21 O 0.25819 0.30097 0.21531
 O22 O 0.31426 0.24329 0.21742
 C23 C 0.17766 0.18154 0.35046
 C24 C 0.32107 0.17979 0.34986
 C25 C 0.18349 0.31486 0.34627
 O26 O 0.12867 0.29836 0.24970
 O27 O 0.17799 0.32336 0.19373
 O28 O 0.21564 0.28517 0.14573
 C29 C 0.18719 0.31283 0.15604
 O30 O 0.34434 0.31794 0.30897
 Zr31 Zr 0.31494 0.29615 0.25314
 O32 O 0.30005 0.28448 0.14669
 O33 O 0.20926 0.36442 0.25206
 O34 O 0.30780 0.36090 0.25255
 O35 O 0.38521 0.28520 0.25281
 O36 O 0.34095 0.31739 0.19632
 C37 C 0.33110 0.30964 0.15833
 O38 O 0.22050 0.21476 0.13436
 O39 O 0.29743 0.12686 0.25616
 O40 O 0.29695 0.20567 0.14833
 O41 O 0.32816 0.16495 0.19814
 O42 O 0.19620 0.13010 0.25544
 O43 O 0.16363 0.16938 0.19981
 C44 C 0.32162 0.17564 0.16015
 H45 H 0.24802 0.16583 0.30786
 H46 H 0.16919 0.24689 0.19774
 H47 H 0.34228 0.24152 0.20090
 H48 H 0.25901 0.32371 0.30726
 H49 H 0.10565 0.18412 0.26364
 H50 H 0.11840 0.32725 0.25017
 H51 H 0.17898 0.37688 0.25027
 H52 H 0.33762 0.37289 0.24581
 H53 H 0.16608 0.11906 0.26277
 H54 H 0.32774 0.11452 0.25826
 H55 H 0.38800 0.16382 0.25377
 H56 H 0.40049 0.31164 0.24669
 H57 H 0.13632 0.15338 0.20704
 H58 H 0.23264 0.22396 0.10715
 H59 H 0.27421 0.26841 0.39939
 H60 H 0.36540 0.34072 0.30254
 Zr61 Zr 0.75171 0.75175 0.32013
 O62 O 0.71245 0.72323 0.36705
 O63 O 0.79692 0.78737 0.35539
 O64 O 0.78911 0.71018 0.35592
 O65 O 0.67590 0.82928 0.30084
 O66 O 0.82405 0.66929 0.30837
 O67 O 0.71064 0.79361 0.35250
 O68 O 0.84325 0.81526 0.30632
 O69 O 0.81186 0.74507 0.28686
 O70 O 0.75804 0.80445 0.28353
 O71 O 0.74439 0.69710 0.28588
 O72 O 0.69269 0.75383 0.28387
 Zr73 Zr 0.75295 0.74627 0.17583
 Zr74 Zr 0.80327 0.69240 0.25027
 Zr75 Zr 0.70167 0.80518 0.24524
 Zr76 Zr 0.81631 0.79690 0.24888
 O77 O 0.63060 0.80619 0.24257
 O78 O 0.88532 0.78071 0.24923
 O79 O 0.76038 0.80145 0.20927
 O80 O 0.81142 0.74425 0.21241
 O81 O 0.74681 0.69287 0.21164
 O82 O 0.69330 0.75241 0.20946
 C83 C 0.83093 0.80939 0.34418
 C84 C 0.68338 0.82129 0.33935
 C85 C 0.81451 0.67994 0.34588
 O86 O 0.87438 0.69124 0.25076
 O87 O 0.82655 0.66646 0.19389
 O88 O 0.79352 0.70500 0.14325
 C89 C 0.81991 0.67644 0.15558
 O90 O 0.65422 0.68317 0.30214
 Zr91 Zr 0.68851 0.70074 0.24692
 O92 O 0.71105 0.70750 0.14074
 O93 O 0.79035 0.62854 0.25258
 O94 O 0.69205 0.63585 0.25121
 O95 O 0.61905 0.71414 0.24121
 O96 O 0.66710 0.67624 0.18962
 C97 C 0.68010 0.68203 0.15189
 O98 O 0.79190 0.77545 0.12908
 O99 O 0.71399 0.86922 0.24496
 O100 O 0.71508 0.78739 0.13985
 O101 O 0.68382 0.83049 0.18749
 O102 O 0.81517 0.86199 0.25029
 O103 O 0.84511 0.82101 0.19351
 C104 C 0.69126 0.81866 0.15003
 H105 H 0.75986 0.83001 0.29997
 H106 H 0.83894 0.74252 0.19519
 H107 H 0.66635 0.75434 0.19162
 H108 H 0.74032 0.67309 0.30440
 H109 H 0.90278 0.80572 0.25622
 H110 H 0.88320 0.66198 0.25235
 H111 H 0.82000 0.61479 0.25240
 H112 H 0.66216 0.62472 0.24351
 H113 H 0.84590 0.87153 0.25735
 H114 H 0.68424 0.88282 0.24516
 H115 H 0.62171 0.83541 0.24059
 H116 H 0.60331 0.68803 0.23486
 H117 H 0.87234 0.83721 0.20036
 H118 H 0.78082 0.76563 0.10182
 H119 H 0.72384 0.73300 0.39422
 H120 H 0.63142 0.66193 0.29562
 Zr121 Zr 0.74829 0.24357 -0.32061
 O122 O 0.71742 0.27000 -0.37336
 O123 O 0.79255 0.20125 -0.34841
 O124 O 0.79348 0.27884 -0.35656
 O125 O 0.66129 0.17561 -0.30010
 O126 O 0.82806 0.32093 -0.30977
 O127 O 0.70508 0.20203 -0.35191
 O128 O 0.82990 0.17404 -0.29318
 O129 O 0.80547 0.24821 -0.28294
 O130 O 0.74458 0.19451 -0.27891
 O131 O 0.74455 0.30166 -0.29196
 O132 O 0.68628 0.25054 -0.28932
 Zr133 Zr 0.73656 0.26365 -0.17743
 Zr134 Zr 0.80002 0.30463 -0.25197
 Zr135 Zr 0.68521 0.20281 -0.24552
 Zr136 Zr 0.79983 0.20024 -0.24019
 O137 O 0.61439 0.20793 -0.24904
 O138 O 0.87021 0.21017 -0.23600
 O139 O 0.74025 0.20496 -0.20506
 O140 O 0.79801 0.25636 -0.20909
 O141 O 0.74043 0.31357 -0.21830
 O142 O 0.68016 0.25918 -0.21567
 C143 C 0.82230 0.17742 -0.33229
 C144 C 0.67313 0.17860 -0.33840
 C145 C 0.82075 0.30809 -0.34693
 O146 O 0.87072 0.29899 -0.24799
 O147 O 0.82305 0.33253 -0.19663
 O148 O 0.77905 0.30464 -0.14568
 C149 C 0.81142 0.32783 -0.15829
 O150 O 0.66009 0.32432 -0.31697
 Zr151 Zr 0.68518 0.30708 -0.25779
 O152 O 0.69398 0.30743 -0.14991
 O153 O 0.79545 0.36895 -0.25989
 O154 O 0.69793 0.37083 -0.26475
 O155 O 0.61433 0.29953 -0.25978
 O156 O 0.65786 0.33618 -0.20504
 C157 C 0.66520 0.33225 -0.16588
 O158 O 0.76742 0.23658 -0.12495
 O159 O 0.68987 0.13844 -0.23777
 O160 O 0.69105 0.22948 -0.14106
 O161 O 0.65842 0.18596 -0.18756
 O162 O 0.79024 0.13582 -0.23572
 O163 O 0.82022 0.17901 -0.18078
 C164 C 0.66397 0.20019 -0.15070
 H165 H 0.74471 0.16740 -0.29271
 H166 H 0.82389 0.25714 -0.18989
 H167 H 0.65126 0.26093 -0.20051
 H168 H 0.74512 0.32415 -0.31263
 H169 H 0.88509 0.18320 -0.23921
 H170 H 0.88343 0.32698 -0.25127
 H171 H 0.82658 0.37986 -0.25877
 H172 H 0.66906 0.38531 -0.26043
 H173 H 0.82000 0.12275 -0.23955
 H174 H 0.65879 0.12743 -0.23902
 H175 H 0.60184 0.18003 -0.24455
 H176 H 0.60065 0.32709 -0.25708
 H177 H 0.84564 0.15972 -0.18393
 H178 H 0.75495 0.25005 -0.09987
 H179 H 0.73023 0.25638 -0.39821
 H180 H 0.64044 0.34861 -0.31401
 Zr181 Zr 0.25486 0.76236 -0.32552
 O182 O 0.29469 0.73790 -0.37395
 O183 O 0.21288 0.80201 -0.35915
 O184 O 0.21734 0.72316 -0.36508
 O185 O 0.32931 0.83911 -0.29602
 O186 O 0.18133 0.67947 -0.32041
 O187 O 0.29879 0.80704 -0.35217
 O188 O 0.16326 0.82501 -0.31059
 O189 O 0.19369 0.75183 -0.29453
 O190 O 0.24643 0.81163 -0.28486
 O191 O 0.26147 0.70525 -0.29518
 O192 O 0.31222 0.76239 -0.28704
 Zr193 Zr 0.24842 0.74461 -0.18123
 Zr194 Zr 0.20194 0.69678 -0.26108
 Zr195 Zr 0.30088 0.80987 -0.24439
 Zr196 Zr 0.18675 0.80044 -0.25322
 O197 O 0.37187 0.81250 -0.23992
 O198 O 0.11861 0.78208 -0.25932
 O199 O 0.24093 0.80222 -0.21086
 O200 O 0.19135 0.74513 -0.21983
 O201 O 0.25702 0.69465 -0.22110
 O202 O 0.30881 0.75456 -0.21307
 C203 C 0.17863 0.82348 -0.34815
 C204 C 0.32505 0.83404 -0.33530
 C205 C 0.19108 0.69244 -0.35703
 O206 O 0.13084 0.69408 -0.26065
 O207 O 0.18071 0.66268 -0.20838
 O208 O 0.20770 0.69897 -0.15349
 C209 C 0.18497 0.66902 -0.16903
 O210 O 0.35121 0.69245 -0.31011
 Zr211 Zr 0.31592 0.70652 -0.25456
 O212 O 0.29188 0.70504 -0.14844
 O213 O 0.21548 0.63384 -0.27113
 O214 O 0.31238 0.64192 -0.26194
 O215 O 0.38510 0.72131 -0.24817
 O216 O 0.33840 0.68010 -0.19876
 C217 C 0.32518 0.68298 -0.16084
 O218 O 0.20733 0.76865 -0.13341
 O219 O 0.28652 0.87313 -0.23832
 O220 O 0.28472 0.78312 -0.14077
 O221 O 0.31828 0.82918 -0.18444
 O222 O 0.18738 0.86531 -0.24767
 O223 O 0.15309 0.81891 -0.19815
 C224 C 0.31029 0.81426 -0.14816
 H225 H 0.24547 0.83863 -0.29896
 H226 H 0.16342 0.74094 -0.20356
 H227 H 0.33549 0.75570 -0.19484
 H228 H 0.26609 0.68283 -0.31539
 H229 H 0.10090 0.80696 -0.26583
 H230 H 0.12243 0.66504 -0.26557
 H231 H 0.18607 0.61944 -0.27207
 H232 H 0.34212 0.63059 -0.25432
 H233 H 0.15734 0.87537 -0.25610
 H234 H 0.31584 0.88757 -0.23647
 H235 H 0.38016 0.84154 -0.23469
 H236 H 0.40153 0.69530 -0.24352
 H237 H 0.12580 0.83460 -0.20555
 H238 H 0.21769 0.75656 -0.10684
 H239 H 0.28414 0.75057 -0.40018
 H240 H 0.37330 0.67047 -0.30454
 Zr241 Zr 1.25930 1.25802 0.81631
 O242 O 1.22593 1.23498 0.86961
 O243 O 1.30572 1.29865 0.84330
 O244 O 1.30337 1.22283 0.85358
 O245 O 1.18005 1.33199 0.79102
 O246 O 1.33245 1.17524 0.80911
 O247 O 1.21865 1.30361 0.84492
 O248 O 1.34758 1.32042 0.78802
 O249 O 1.31638 1.24705 0.77972
 O250 O 1.26191 1.30535 0.77251
 O251 O 1.24991 1.19932 0.79022
 O252 O 1.19756 1.25511 0.78417
 Zr253 Zr 1.24862 1.23325 0.67366
 Zr254 Zr 1.30531 1.19011 0.75100
 Zr255 Zr 1.20278 1.30074 0.73831
 Zr256 Zr 1.31731 1.29346 0.73519
 O257 O 1.13162 1.30130 0.74008
 O258 O 1.38627 1.27718 0.73421
 O259 O 1.25834 1.29235 0.69910
 O260 O 1.30991 1.23639 0.70609
 O261 O 1.24589 1.18518 0.71683
 O262 O 1.19207 1.24385 0.71066
 C263 C 1.33805 1.31963 0.82704
 C264 C 1.18982 1.32916 0.82973
 C265 C 1.32820 1.19149 0.84523
 O266 O 1.37619 1.18895 0.74526
 O267 O 1.32307 1.15563 0.69795
 O268 O 1.28551 1.18619 0.64465
 C269 C 1.31261 1.15912 0.65929
 O270 O 1.16196 1.18649 0.81443
 Zr271 Zr 1.19093 1.19766 0.75512
 O272 O 1.20213 1.19212 0.64726
 O273 O 1.29333 1.12732 0.76406
 O274 O 1.19605 1.13375 0.76675
 O275 O 1.12109 1.21058 0.75371
 O276 O 1.16394 1.16691 0.70329
 C277 C 1.17224 1.16871 0.66409
 O278 O 1.28429 1.25487 0.62096
 O279 O 1.21461 1.36418 0.72870
 O280 O 1.20833 1.27017 0.63500
 O281 O 1.18018 1.31817 0.67928
 O282 O 1.31487 1.35801 0.72680
 O283 O 1.34276 1.30982 0.67572
 C284 C 1.18493 1.30234 0.64302
 H285 H 1.26435 1.33294 0.78512
 H286 H 1.33583 1.23201 0.68731
 H287 H 1.16361 1.24377 0.69483
 H288 H 1.24812 1.17799 0.81209
 H289 H 1.40404 1.30281 0.73708
 H290 H 1.38560 1.16022 0.75031
 H291 H 1.32293 1.11346 0.76325
 H292 H 1.16580 1.12156 0.76263
 H293 H 1.34567 1.36888 0.73117
 H294 H 1.18484 1.37774 0.72865
 H295 H 1.12219 1.32988 0.73424
 H296 H 1.10491 1.18399 0.75187
 H297 H 1.37026 1.32674 0.67896
 H298 H 1.27085 1.24161 0.59621
 H299 H 1.23942 1.24895 0.89391
 H300 H 1.13920 1.16432 0.81227
 Zr301 Zr 0.74366 0.73549 0.82534
 O302 O 0.77427 0.76160 0.87832
 O303 O 0.69807 0.69445 0.85329
 O304 O 0.69723 0.77065 0.86023
 O305 O 0.82802 0.66534 0.80433
 O306 O 0.66651 0.81460 0.81285
 O307 O 0.78606 0.69295 0.85654
 O308 O 0.66042 0.66778 0.79795
 O309 O 0.68721 0.74198 0.78705
 O310 O 0.74559 0.68654 0.78353
 O311 O 0.75009 0.79357 0.79690
 O312 O 0.80614 0.74037 0.79433
 Zr313 Zr 0.75768 0.75562 0.68227
 Zr314 Zr 0.69555 0.79830 0.75600
 Zr315 Zr 0.80536 0.69314 0.75008
 Zr316 Zr 0.69083 0.69396 0.74463
 O317 O 0.87639 0.69613 0.75339
 O318 O 0.62096 0.70624 0.74111
 O319 O 0.75071 0.69699 0.70958
 O320 O 0.69557 0.75013 0.71330
 O321 O 0.75580 0.80528 0.72325
 O322 O 0.81357 0.74957 0.72072
 C323 C 0.66777 0.67121 0.83715
 C324 C 0.81688 0.66863 0.84265
 C325 C 0.67120 0.80059 0.84990
 O326 O 0.62480 0.79527 0.74985
 O327 O 0.67635 0.82852 0.70059
 O328 O 0.71797 0.79779 0.64998
 C329 C 0.68799 0.82315 0.66239
 O330 O 0.83612 0.81118 0.82302
 Zr331 Zr 0.81011 0.79707 0.76338
 O332 O 0.80116 0.79955 0.65560
 O333 O 0.70323 0.86222 0.76519
 O334 O 0.80086 0.86093 0.77259
 O335 O 0.88068 0.78786 0.76402
 O336 O 0.83683 0.82771 0.71134
 C337 C 0.82908 0.82491 0.67228
 O338 O 0.72625 0.72954 0.62956
 O339 O 0.79778 0.62892 0.74289
 O340 O 0.80219 0.72088 0.64603
 O341 O 0.83117 0.67504 0.69219
 O342 O 0.69777 0.62939 0.73952
 O343 O 0.66857 0.67383 0.68545
 C344 C 0.82695 0.69007 0.65545
 H345 H 0.74433 0.65939 0.79734
 H346 H 0.66998 0.75205 0.69384
 H347 H 0.84251 0.75082 0.70552
 H348 H 0.74999 0.81581 0.81775
 H349 H 0.60482 0.67981 0.74485
 H350 H 0.61348 0.82368 0.75291
 H351 H 0.67280 0.87435 0.76326
 H352 H 0.83055 0.87445 0.76910
 H353 H 0.66760 0.61702 0.74380
 H354 H 0.82835 0.61697 0.74393
 H355 H 0.88768 0.66788 0.74899
 H356 H 0.89523 0.81521 0.76184
 H357 H 0.64231 0.65533 0.68889
 H358 H 0.73945 0.74271 0.60451
 H359 H 0.76068 0.74795 0.90291
 H360 H 0.85759 0.83441 0.82074
 Zr361 Zr 1.25077 0.74163 0.18083
 O362 O 1.21669 0.76598 0.12874
 O363 O 1.29462 0.69953 0.15250
 O364 O 1.29349 0.77631 0.14208
 O365 O 1.16809 0.67094 0.20649
 O366 O 1.32930 0.81982 0.18661
 O367 O 1.20814 0.69801 0.15248
 O368 O 1.33442 0.67345 0.20682
 O369 O 1.30939 0.74949 0.21591
 O370 O 1.25134 0.69380 0.22403
 O371 O 1.24546 0.80034 0.20761
 O372 O 1.18983 0.74699 0.21409
 Zr373 Zr 1.24444 0.76549 0.32359
 Zr374 Zr 1.30230 0.80651 0.24534
 Zr375 Zr 1.19321 0.70071 0.25924
 Zr376 Zr 1.30813 0.70276 0.26019
 O377 O 1.12211 0.70329 0.25892
 O378 O 1.37799 0.71600 0.25854
 O379 O 1.24992 0.70629 0.29737
 O380 O 1.30484 0.75983 0.28988
 O381 O 1.24391 0.81397 0.28092
 O382 O 1.18657 0.75761 0.28780
 C383 C 1.32458 0.67557 0.16793
 C384 C 1.17816 0.67361 0.16776
 C385 C 1.32125 0.80556 0.15018
 O386 O 1.37321 0.80455 0.25006
 O387 O 1.32283 0.84002 0.29794
 O388 O 1.28424 0.81107 0.35189
 C389 C 1.31263 0.83698 0.33671
 O390 O 1.15836 0.81821 0.18545
 Zr391 Zr 1.18736 0.80431 0.24398
 O392 O 1.20039 0.80760 0.35172
 O393 O 1.29466 0.86981 0.23242
 O394 O 1.19653 0.86815 0.23380
 O395 O 1.11688 0.79417 0.24601
 O396 O 1.16242 0.83483 0.29689
 C397 C 1.17105 0.83198 0.33593
 O398 O 1.28021 0.74222 0.37521
 O399 O 1.20073 0.63669 0.26806
 O400 O 1.20339 0.72966 0.36289
 O401 O 1.17122 0.68379 0.31852
 O402 O 1.30149 0.63853 0.26944
 O403 O 1.33449 0.68539 0.31884
 C404 C 1.17805 0.69863 0.35488
 H405 H 1.25175 0.66620 0.21127
 H406 H 1.33134 0.76300 0.30813
 H407 H 1.15844 0.75856 0.30424
 H408 H 1.24445 0.82203 0.18608
 H409 H 1.39399 0.68961 0.25502
 H410 H 1.38439 0.83271 0.24435
 H411 H 1.32520 0.88209 0.23253
 H412 H 1.16721 0.88163 0.23880
 H413 H 1.33134 0.62606 0.26436
 H414 H 1.17008 0.62462 0.26850
 H415 H 1.11105 0.67511 0.26471
 H416 H 1.10223 0.82132 0.24863
 H417 H 1.36108 0.66767 0.31470
 H418 H 1.26813 0.75581 0.40037
 H419 H 1.22857 0.75192 0.10376
 H420 H 1.13725 0.84143 0.18851
 Zr421 Zr 0.74794 1.26454 0.17446
 O422 O 0.77905 1.23945 0.12111
 O423 O 0.70301 1.30665 0.14713
 O424 O 0.70354 1.22899 0.13816
 O425 O 0.83449 1.33290 0.19596
 O426 O 0.66891 1.18617 0.18462
 O427 O 0.79177 1.30646 0.14372
 O428 O 0.66514 1.33285 0.20254
 O429 O 0.69061 1.25816 0.21202
 O430 O 0.75039 1.31302 0.21669
 O431 O 0.75268 1.20607 0.20243
 O432 O 0.80983 1.25833 0.20588
 Zr433 Zr 0.75903 1.24253 0.31731
 Zr434 Zr 0.69707 1.20129 0.24243
 Zr435 Zr 0.80965 1.30534 0.25030
 Zr436 Zr 0.69484 1.30562 0.25520
 O437 O 0.88065 1.30140 0.24811
 O438 O 0.62462 1.29432 0.25848
 O439 O 0.75421 1.30153 0.29042
 O440 O 0.69758 1.24897 0.28576
 O441 O 0.75663 1.19328 0.27585
 O442 O 0.81578 1.24850 0.27947
 C443 C 0.67288 1.33002 0.16333
 C444 C 0.82362 1.32978 0.15750
 C445 C 0.67629 1.19954 0.14758
 O446 O 0.62634 1.20532 0.24808
 O447 O 0.67644 1.17012 0.29733
 O448 O 0.71753 1.20041 0.34863
 C449 C 0.68745 1.17514 0.33574
 O450 O 0.83875 1.18719 0.17711
 Zr451 Zr 0.81197 1.20132 0.23655
 O452 O 0.80129 1.19826 0.34441
 O453 O 0.70312 1.13743 0.23218
 O454 O 0.80128 1.13768 0.22668
 O455 O 0.88275 1.20970 0.23673
 O456 O 0.83701 1.16991 0.28880
 C457 C 0.82896 1.17268 0.32790
 O458 O 0.72716 1.26844 0.36991
 O459 O 0.80364 1.36964 0.25753
 O460 O 0.80351 1.27667 0.35425
 O461 O 0.83437 1.32270 0.30885
 O462 O 0.70311 1.37007 0.26093
 O463 O 0.67302 1.32514 0.31477
 C464 C 0.82900 1.30741 0.34542
 H465 H 0.75001 1.34027 0.20305
 H466 H 0.67163 1.24708 0.30497
 H467 H 0.84439 1.24678 0.29499
 H468 H 0.75269 1.18399 0.18141
 H469 H 0.60920 1.32108 0.25560
 H470 H 0.61432 1.17718 0.24416
 H471 H 0.67232 1.12576 0.23357
 H472 H 0.83052 1.12373 0.23055
 H473 H 0.67314 1.38275 0.25729
 H474 H 0.83456 1.38110 0.25687
 H475 H 0.89251 1.32949 0.25276
 H476 H 0.89660 1.18217 0.23899
 H477 H 0.64717 1.34396 0.31173
 H478 H 0.73956 1.25482 0.39494
 H479 H 0.76614 1.25350 0.09655
 H480 H 0.85971 1.16377 0.17952
 O481 O 0.43681 1.06533 0.03210
 O482 O 0.56710 0.93019 0.02759
 O483 O 0.42630 0.93670 0.02813
 O484 O 0.57778 1.05953 0.02732
 O485 O 0.49166 0.92525 0.05093
 O486 O 0.51309 1.06975 0.05271
 O487 O 0.58221 0.98974 0.05066
 O488 O 0.42286 1.00524 0.05420
 C489 C 0.42221 1.04252 0.06025
 C490 C 0.58375 0.95221 0.05526
 C491 C 0.45087 0.92204 0.05559
 C492 C 0.55403 1.07348 0.05590
 O493 O 0.53698 1.08343 -0.02865
 O494 O 0.46430 0.91421 -0.03007
 O495 O 0.40658 1.03215 -0.02499
 O496 O 0.59496 0.96576 -0.02973
 O497 O 0.53756 0.93361 -0.05197
 O498 O 0.46303 1.06486 -0.04866
 O499 O 0.57182 1.03161 -0.05225
 O500 O 0.42876 0.96716 -0.05036
 Co501 Co 0.48887 1.06403 0.00179
 Co502 Co 0.51371 0.93275 -0.00070
 Co503 Co 0.42907 0.98667 0.00169
 Co504 Co 0.57369 1.01035 -0.00082
 O505 O 0.50135 0.99846 0.00029
 C506 C 0.55924 1.06718 -0.05706
 C507 C 0.44015 0.93147 -0.05652
 C508 C 0.42308 1.05532 -0.05190
 C509 C 0.57757 0.94262 -0.05602
 O510 O 0.94953 0.57713 0.52954
 O511 O 1.05697 0.41991 0.52300
 O512 O 0.91924 0.45166 0.53325
 O513 O 1.08794 0.54549 0.53065
 O514 O 0.98302 0.42814 0.55186
 O515 O 1.02544 0.56854 0.55369
 O516 O 1.08033 0.47555 0.54875
 O517 O 0.92765 0.52036 0.55402
 C518 C 0.93127 0.55761 0.55824
 C519 C 1.07747 0.43804 0.55118
 C520 C 0.94267 0.43264 0.55917
 C521 C 1.06645 0.56484 0.55774
 O522 O 1.05498 0.57918 0.47536
 O523 O 0.94822 0.42101 0.47458
 O524 O 0.91733 0.54608 0.47235
 O525 O 1.08552 0.45429 0.46578
 O526 O 1.02191 0.43082 0.44632
 O527 O 0.97981 0.57042 0.45065
 O528 O 1.07741 0.52394 0.44835
 O529 O 0.92496 0.47754 0.45128
 Co530 Co 1.00235 0.56645 0.50218
 Co531 Co 1.00252 0.43234 0.49915
 Co532 Co 0.92972 0.49894 0.50256
 Co533 Co 1.07527 0.49975 0.49863
 O534 O 1.00248 0.49939 0.50071
 C535 C 1.07397 0.56136 0.44619
 C536 C 0.92886 0.44041 0.44660
 C537 C 0.93942 0.56454 0.44481
 C538 C 1.06206 0.43654 0.43896
 O539 O 1.06596 0.47983 0.06427
 O540 O 1.06550 0.53157 -0.07402
 O541 O 1.06794 0.43402 -0.03036
 O542 O 1.06157 0.57095 0.02383
 O543 O 1.04397 0.46070 -0.08631
 O544 O 1.03532 0.54530 0.07880
 O545 O 1.03857 0.58465 -0.04470
 O546 O 1.04627 0.42220 0.03907
 C547 C 1.07302 0.44290 0.06084
 C548 C 1.06750 0.56900 -0.06807
 C549 C 1.07264 0.43931 -0.06790
 C550 C 1.06485 0.56644 0.06144
 O551 O 0.95165 0.51322 0.06628
 O552 O 0.95698 0.48329 -0.07877
 O553 O 0.95651 0.42759 0.01402
 O554 O 0.95093 0.57047 -0.02089
 O555 O 0.97780 0.55387 -0.07949
 O556 O 0.98239 0.44646 0.07161
 O557 O 0.97195 0.57339 0.04906
 O558 O 0.98062 0.42540 -0.05672
 Co559 Co 1.00892 0.49678 0.06267
 Co560 Co 1.01104 0.50677 -0.07217
 Co561 Co 1.01238 0.43448 -0.00794
 Co562 Co 1.00625 0.56761 0.00135
 O563 O 1.00965 0.50137 -0.00425
 C564 C 0.94440 0.55024 0.06711
 C565 C 0.95323 0.44572 -0.07803
 C566 C 0.95224 0.42845 0.05194
 C567 C 0.94660 0.56937 -0.05874
 O568 O 0.55511 0.98677 0.57536
 O569 O 0.56433 1.00470 0.42841
 O570 O 0.56021 0.92310 0.48588
 O571 O 0.55711 1.06829 0.51658
 O572 O 0.53294 0.93601 0.42755
 O573 O 0.52457 1.05495 0.57300
 O574 O 0.54278 1.06513 0.44499
 O575 O 0.53714 0.92601 0.55597
 C576 C 0.56267 0.94961 0.57591
 C577 C 0.57076 1.04218 0.42726
 C578 C 0.56426 0.92151 0.44797
 C579 C 0.55694 1.07100 0.55458
 O580 O 0.44202 1.02303 0.56407
 O581 O 0.45049 0.96708 0.42887
 O582 O 0.44806 0.92786 0.52987
 O583 O 0.45096 1.06069 0.46261
 O584 O 0.48265 1.03317 0.41155
 O585 O 0.47185 0.95650 0.58399
 O586 O 0.46496 1.07690 0.53200
 O587 O 0.46964 0.91307 0.46246
 Co588 Co 0.49887 1.00422 0.56631
 Co589 Co 0.50722 0.98628 0.43179
 Co590 Co 0.50392 0.92927 0.50762
 Co591 Co 0.50395 1.06096 0.48995
 O592 O 0.50354 0.99520 0.49896
 C593 C 0.43641 1.05962 0.55509
 C594 C 0.44305 0.93077 0.43809
 C595 C 0.44331 0.93420 0.56710
 C596 C 0.45084 1.05320 0.42532
 O597 O 1.06866 1.03088 0.45517
 O598 O 0.90409 1.03928 0.54379
 O599 O 0.93036 1.01524 0.42013
 O600 O 1.04104 1.02579 0.58180
 O601 O 0.91194 1.04836 0.47282
 O602 O 1.06480 1.04861 0.52510
 O603 O 0.96752 1.05800 0.56935
 O604 O 1.00477 1.04541 0.42713
 C605 C 1.04513 1.05361 0.43187
 C606 C 0.92745 1.06567 0.56247
 C607 C 0.91238 1.04614 0.43486
 C608 C 1.06238 1.05259 0.56280
 O609 O 1.06739 0.96497 0.54941
 O610 O 0.90252 0.96267 0.46126
 O611 O 1.03978 0.97172 0.42270
 O612 O 0.92952 0.98524 0.58475
 O613 O 0.90900 0.95382 0.53159
 O614 O 1.06143 0.94715 0.47909
 O615 O 1.00327 0.95315 0.57905
 O616 O 0.96537 0.94158 0.43667
 Co617 Co 1.05841 0.99799 0.50221
 Co618 Co 0.91392 1.00096 0.50237
 Co619 Co 0.98502 0.99396 0.43478
 Co620 Co 0.98524 1.00508 0.57085
 O621 O 0.98573 0.99949 0.50265
 C622 C 1.04332 0.94368 0.57399
 C623 C 0.92480 0.93533 0.44314
 C624 C 1.06011 0.94419 0.44122
 C625 C 0.91047 0.95505 0.56951
 O626 O 0.56394 0.55791 -0.01812
 O627 O 0.40841 0.54532 0.02310
 O628 O 0.46536 0.55495 -0.06804
 O629 O 0.50405 0.54841 0.07577
 O630 O 0.40377 0.52818 -0.04781
 O631 O 0.56935 0.53473 0.05198
 O632 O 0.43066 0.51877 0.07900
 O633 O 0.54248 0.53457 -0.07593
 C634 C 0.55999 0.56284 -0.05590
 C635 C 0.41170 0.54779 0.06108
 C636 C 0.42407 0.55744 -0.06455
 C637 C 0.54423 0.55754 0.07293
 O638 O 0.56961 0.45466 0.02404
 O639 O 0.41754 0.44664 -0.02813
 O640 O 0.51821 0.45538 -0.07307
 O641 O 0.46709 0.44323 0.06689
 O642 O 0.40438 0.46276 0.04229
 O643 O 0.57808 0.47866 -0.04473
 O644 O 0.54036 0.47315 0.08068
 O645 O 0.44117 0.47607 -0.08233
 Co646 Co 0.56237 0.50598 0.00306
 Co647 Co 0.41632 0.49619 -0.00232
 Co648 Co 0.49139 0.50483 -0.06724
 Co649 Co 0.48583 0.49621 0.06805
 O650 O 0.48906 0.50081 0.00040
 C651 C 0.56429 0.44836 0.06137
 C652 C 0.42306 0.44566 -0.06603
 C653 C 0.55923 0.45237 -0.06705
 C654 C 0.42679 0.43604 0.06064
 C655 C 0.34508 1.15366 0.12717
 C656 C 0.36523 1.11764 0.13279
 C657 C 0.38933 1.09929 0.09789
 C658 C 0.40010 1.05965 0.09698
 H659 H 0.36355 1.10185 0.16239
 H660 H 0.39701 1.11869 0.07137
 H661 H 0.34557 1.16786 0.09669
 H662 H 0.39099 1.03951 0.12248
 C663 C 0.85280 0.67140 0.62168
 C664 C 0.87466 0.63611 0.62674
 C665 C 0.89911 0.61747 0.59219
 C666 C 0.91022 0.57794 0.59359
 H667 H 0.87320 0.61996 0.65617
 H668 H 0.90603 0.63558 0.56460
 H669 H 0.85305 0.68655 0.59169
 H670 H 0.90103 0.55940 0.62030
 C671 C 0.66966 0.84111 0.11609
 C672 C 0.64835 0.87663 0.12188
 C673 C 0.62383 0.89565 0.08754
 C674 C 0.60877 0.93410 0.08981
 H675 H 0.64837 0.89135 0.15200
 H676 H 0.61823 0.87781 0.05964
 H677 H 0.67051 0.82748 0.08544
 H678 H 0.61606 0.95280 0.11674
 C679 C 1.16091 0.32198 0.60846
 C680 C 1.13933 0.35751 0.61372
 C681 C 1.11434 0.37725 0.58003
 C682 C 1.10116 0.41613 0.58411
 H683 H 1.14044 0.37291 0.64349
 H684 H 1.10772 0.36051 0.55166
 H685 H 1.16088 0.30714 0.57841
 H686 H 1.11010 0.43325 0.61171
 C687 C 0.63699 1.18221 -0.11710
 C688 C 0.61006 1.15010 -0.12375
 C689 C 0.58653 1.12991 -0.08945
 C690 C 0.57547 1.09046 -0.09271
 H691 H 0.60772 1.13657 -0.15438
 H692 H 0.58205 1.14599 -0.06031
 H693 H 0.64037 1.19471 -0.08612
 H694 H 0.58351 1.07370 -0.12078
 C695 C 1.15449 0.67878 0.38955
 C696 C 1.13231 0.64359 0.38373
 C697 C 1.10864 0.62283 0.41745
 C698 C 1.09593 0.58388 0.41276
 H699 H 1.13233 0.62898 0.35353
 H700 H 1.10287 0.63880 0.44645
 H701 H 1.15574 0.69273 0.42001
 H702 H 1.10409 0.56742 0.38455
 C703 C 0.33404 0.83279 -0.11285
 C704 C 0.36758 0.85962 -0.11890
 C705 C 0.39309 0.87716 -0.08432
 C706 C 0.42023 0.90916 -0.09102
 H707 H 0.37644 0.86927 -0.15010
 H708 H 0.38781 0.86563 -0.05309
 H709 H 0.32543 0.82287 -0.08171
 H710 H 0.42265 0.92274 -0.12167
 C711 C 0.85420 0.32570 0.37981
 C712 C 0.87507 0.36179 0.37596
 C713 C 0.89858 0.38022 0.41119
 C714 C 0.90790 0.42022 0.41111
 H715 H 0.87333 0.37878 0.34704
 H716 H 0.90644 0.36148 0.43803
 H717 H 0.85445 0.30973 0.40936
 H718 H 0.89778 0.43918 0.38509
 C719 C 1.16220 0.33168 0.12165
 C720 C 1.14264 0.36822 0.12457
 C721 C 1.11502 0.38448 0.09043
 C722 C 1.10665 0.42453 0.08844
 H723 H 1.14686 0.38636 0.15247
 H724 H 1.10022 0.36362 0.06810
 H725 H 1.16003 0.31484 0.09275
 H726 H 1.12292 0.44486 0.11043
 C727 C 0.66383 0.84510 0.62956
 C728 C 0.63939 0.87853 0.63645
 C729 C 0.61088 0.89522 0.60336
 C730 C 0.59644 0.93378 0.60483
 H731 H 0.63940 0.89294 0.66673
 H732 H 0.60062 0.87536 0.57810
 H733 H 0.66524 0.83241 0.59852
 H734 H 0.60850 0.95407 0.62903
 C735 C 1.16419 0.64355 -0.14198
 C736 C 1.14383 0.60634 -0.15361
 C737 C 1.11859 0.58094 -0.12691
 C738 C 1.09752 0.59416 -0.09027
 H739 H 1.14962 0.59487 -0.18469
 H740 H 1.11091 0.55039 -0.13818
 H741 H 1.16503 0.65146 -0.10937
 H742 H 1.09947 0.62623 -0.08170
 C743 C 0.66232 1.15317 0.36843
 C744 C 0.64325 1.11636 0.36355
 C745 C 0.61461 1.09909 0.39684
 C746 C 0.60564 1.05895 0.39925
 H747 H 0.64801 1.09943 0.33498
 H748 H 0.59941 1.11993 0.41895
 H749 H 0.65952 1.16830 0.39825
 H750 H 0.62216 1.03802 0.37809
 C751 C 0.84603 0.65622 0.12282
 C752 C 0.86717 0.62068 0.12811
 C753 C 0.89738 0.60516 0.09559
 C754 C 0.90920 0.56583 0.09483
 H755 H 0.86304 0.60349 0.15672
 H756 H 0.91105 0.62637 0.07278
 H757 H 0.84877 0.67190 0.09319
 H758 H 0.89399 0.54450 0.11667
 C759 C 0.33418 1.13133 0.62902
 C760 C 0.35717 1.09797 0.64077
 C761 C 0.38310 1.07135 0.61229
 C762 C 0.40177 1.08423 0.57651
 H763 H 0.35732 1.08924 0.67320
 H764 H 0.39175 1.04128 0.62420
 H765 H 0.33133 1.13889 0.59642
 H766 H 0.39637 1.11530 0.56573
 C767 C 0.83834 0.34808 -0.12573
 C768 C 0.87143 0.37461 -0.13428
 C769 C 0.90085 0.39116 -0.10145
 C770 C 0.92204 0.42675 -0.10767
 H771 H 0.87709 0.38447 -0.16602
 H772 H 0.90466 0.37479 -0.07237
 H773 H 0.83185 0.33960 -0.09372
 H774 H 0.91509 0.44399 -0.13575
 C775 C 0.33609 0.86395 0.36635
 C776 C 0.36074 0.89620 0.35380
 C777 C 0.38875 0.92149 0.38164
 C778 C 0.40795 0.90715 0.41637
 H779 H 0.36072 0.90491 0.32136
 H780 H 0.39806 0.95166 0.37019
 H781 H 0.33340 0.85667 0.39904
 H782 H 0.40164 0.87597 0.42658
 C783 C 1.15677 1.15688 0.38406
 C784 C 1.12212 1.13147 0.37742
 C785 C 1.10499 1.10302 0.40972
 C786 C 1.06450 1.08584 0.40498
 H787 H 1.10633 1.13094 0.34715
 H788 H 1.12553 1.09553 0.43638
 H789 H 1.17153 1.15842 0.41472
 H790 H 1.04399 1.09549 0.37897
 C791 C 0.63964 0.64551 -0.13532
 C792 C 0.64193 0.64653 -0.09367
 C793 C 0.61635 0.61798 -0.06628
 C794 C 0.57949 0.59774 -0.07867
 H795 H 0.66578 0.66695 -0.07886
 H796 H 0.62973 0.61222 -0.03562
 H797 H 0.61762 0.62391 -0.15064
 H798 H 0.56521 0.60367 -0.10887
 C799 C 0.84969 1.15100 0.64049
 C800 C 0.83959 1.14341 0.60071
 C801 C 0.86332 1.11179 0.57603
 C802 C 0.90668 1.10203 0.58171
 H803 H 0.80997 1.15719 0.58716
 H804 H 0.84379 1.09547 0.55300
 H805 H 0.87710 1.13460 0.65500
 H806 H 0.92717 1.11988 0.60280
 C807 C 0.34772 0.64759 0.13877
 C808 C 0.37535 0.61777 0.15193
 C809 C 0.39627 0.58588 0.12539
 C810 C 0.39070 0.58185 0.08427
 H811 H 0.38246 0.61526 0.18476
 H812 H 0.41706 0.56380 0.14153
 H813 H 0.33974 0.65063 0.10624
 H814 H 0.37070 0.60348 0.06692
 C815 C 1.15935 0.84645 0.62191
 C816 C 1.11981 0.86913 0.62718
 C817 C 1.10413 0.89624 0.59647
 C818 C 1.06076 0.91244 0.59919
 H819 H 1.10026 0.86511 0.65536
 H820 H 1.12543 0.90424 0.57032
 H821 H 1.17534 0.84729 0.59161
 H822 H 1.03860 0.90016 0.62302
 C823 C 0.64601 0.35604 0.13490
 C824 C 0.61331 0.38081 0.14907
 C825 C 0.58661 0.41013 0.12396
 C826 C 0.58995 0.41581 0.08282
 H827 H 0.60584 0.38092 0.18196
 H828 H 0.56329 0.42897 0.14131
 H829 H 0.65423 0.35518 0.10225
 H830 H 0.61257 0.39740 0.06440
 C831 C 0.85650 0.83100 0.37677
 C832 C 0.89716 0.84736 0.36889
 C833 C 0.92165 0.87557 0.39676
 C834 C 0.90138 0.89992 0.42450
 H835 H 0.91346 0.84097 0.33953
 H836 H 0.95695 0.88042 0.38980
 H837 H 0.84099 0.83458 0.40694
 H838 H 0.86558 0.89716 0.43005
 C839 C 0.36562 0.34605 -0.14579
 C840 C 0.35665 0.35132 -0.10525
 C841 C 0.38001 0.38142 -0.07813
 C842 C 0.40463 0.41295 -0.09257
 H843 H 0.33005 0.33344 -0.09087
 H844 H 0.37373 0.37905 -0.04511
 H845 H 0.39306 0.36247 -0.16044
 H846 H 0.40972 0.41699 -0.12551
 C847 C 1.16586 0.35730 -0.14164
 C848 C 1.13877 0.38709 -0.15639
 C849 C 1.10937 0.41447 -0.13163
 C850 C 1.10747 0.41569 -0.09019
 H851 H 1.13580 0.39108 -0.18962
 H852 H 1.08660 0.43362 -0.14923
 H853 H 1.16986 0.35258 -0.10868
 H854 H 1.12985 0.39704 -0.07177
 C855 C 0.65892 0.84570 0.37056
 C856 C 0.63681 0.87972 0.35939
 C857 C 0.60623 0.90345 0.38601
 C858 C 0.60116 0.89951 0.42719
 H859 H 0.63830 0.88987 0.32739
 H860 H 0.58538 0.92521 0.36949
 H861 H 0.65824 0.83489 0.40230
 H862 H 0.62264 0.87965 0.44525
 C863 C 0.84220 0.64250 -0.12805
 C864 C 0.86878 0.61239 -0.14279
 C865 C 0.90194 0.58833 -0.11919
 C866 C 0.90870 0.59074 -0.07839
 H867 H 0.86884 0.60589 -0.17572
 H868 H 0.92337 0.56849 -0.13748
 H869 H 0.84047 0.64932 -0.09530
 H870 H 0.88725 0.60938 -0.05900
 C871 C 0.34393 1.15748 0.38312
 C872 C 0.36602 1.12291 0.37528
 C873 C 0.39189 1.10203 0.40746
 C874 C 0.41825 1.07089 0.39683
 H875 H 0.36660 1.11054 0.34407
 H876 H 0.39200 1.11384 0.43888
 H877 H 0.34245 1.16949 0.41442
 H878 H 0.41893 1.06031 0.36496
 C879 C 1.15381 0.64663 0.13883
 C880 C 1.12638 0.61671 0.15271
 C881 C 1.09806 0.59009 0.12647
 C882 C 1.09830 0.59002 0.08497
 H883 H 1.12264 0.61195 0.18580
 H884 H 1.07450 0.57039 0.14286
 H885 H 1.15852 0.65209 0.10605
 H886 H 1.12157 0.60892 0.06752
 C887 C 0.64833 1.15292 0.63139
 C888 C 0.61770 1.12527 0.64451
 C889 C 0.58863 1.09931 0.61825
 C890 C 0.59044 1.09620 0.57685
 H891 H 0.61179 1.12167 0.67748
 H892 H 0.56339 1.08176 0.63501
 H893 H 0.65508 1.15720 0.59869
 H894 H 0.61563 1.11260 0.55903
 C895 C 0.85001 0.35467 0.12734
 C896 C 0.88079 0.38204 0.14061
 C897 C 0.91220 0.40650 0.11471
 C898 C 0.91617 0.40508 0.07331
 H899 H 0.88478 0.38674 0.17364
 H900 H 0.93485 0.42622 0.13192
 H901 H 0.84461 0.34974 0.09458
 H902 H 0.89403 0.38604 0.05495
 C903 C 0.35032 0.85926 0.64122
 C904 C 0.35191 0.85926 0.59778
 C905 C 0.38090 0.88454 0.57418
 C906 C 0.41051 0.91412 0.59069
 H907 H 0.33097 0.83772 0.58097
 H908 H 0.38097 0.87965 0.54096
 H909 H 0.37135 0.88052 0.65805
 H910 H 0.41027 0.92137 0.62329
 C911 C 0.35397 1.17278 -0.12071
 C912 C 0.36617 1.13326 -0.12202
 C913 C 0.39449 1.11474 -0.08973
 C914 C 0.39458 1.07413 -0.08366
 H915 H 0.35494 1.11396 -0.14736
 H916 H 0.41505 1.13449 -0.07041
 H917 H 0.36258 1.19144 -0.09408
 H918 H 0.37136 1.05465 -0.10051
 C919 C 0.83243 0.65544 0.38040
 C920 C 0.86176 0.62506 0.37490
 C921 C 0.87872 0.60171 0.41061
 C922 C 0.91827 0.58289 0.40831
 H923 H 0.87475 0.61839 0.34421
 H924 H 0.86055 0.60253 0.43981
 H925 H 0.82108 0.66274 0.41150
 H926 H 0.93810 0.58518 0.38012
 C927 C 0.65394 1.17826 0.11300
 C928 C 0.62538 1.14704 0.11930
 C929 C 0.60793 1.12262 0.08456
 C930 C 0.57296 1.09740 0.09011
 H931 H 0.61532 1.13866 0.15055
 H932 H 0.62321 1.12576 0.05413
 H933 H 0.66306 1.18697 0.08160
 H934 H 0.55574 1.09648 0.11978
 C935 C 1.17133 0.66934 0.60811
 C936 C 1.14316 0.63783 0.61531
 C937 C 1.12393 0.61262 0.58209
 C938 C 1.08932 0.58761 0.59047
 H939 H 1.13339 0.63026 0.64685
 H940 H 1.13673 0.61552 0.55068
 H941 H 1.18052 0.67757 0.57661
 H942 H 1.07436 0.58731 0.62117
 C943 C 0.64510 0.82098 -0.11733
 C944 C 0.63332 0.86045 -0.12121
 C945 C 0.60548 0.88119 -0.09006
 C946 C 0.60530 0.92212 -0.08721
 H947 H 0.64475 0.87812 -0.14781
 H948 H 0.58542 0.86282 -0.06880
 H949 H 0.63645 0.80396 -0.08949
 H950 H 0.62803 0.94050 -0.10599
 C951 C 1.16399 0.34018 0.37914
 C952 C 1.13681 0.37166 0.37141
 C953 C 1.12048 0.39691 0.40574
 C954 C 1.08205 0.41732 0.40254
 H955 H 1.12575 0.37823 0.34009
 H956 H 1.13811 0.39611 0.43516
 H957 H 1.17342 0.33335 0.41089
 H958 H 1.06223 0.41516 0.37445
 C959 C 0.34390 0.82528 0.11493
 C960 C 0.37646 0.85298 0.12055
 C961 C 0.39471 0.87649 0.08565
 C962 C 0.43260 0.89793 0.08992
 H963 H 0.38919 0.85922 0.15139
 H964 H 0.37716 0.87617 0.05620
 H965 H 0.33237 0.81821 0.08387
 H966 H 0.45168 0.89618 0.11846
 C967 C 0.84306 0.32971 0.61856
 C968 C 0.87023 0.36189 0.62469
 C969 C 0.88785 0.38587 0.58957
 C970 C 0.92256 0.41134 0.59461
 H971 H 0.87923 0.37110 0.65588
 H972 H 0.87341 0.38163 0.55901
 H973 H 0.83498 0.32037 0.58719
 H974 H 0.93945 0.41313 0.62429
 C975 C 1.14581 1.14200 0.63631
 C976 C 1.11305 1.11737 0.65089
 C977 C 1.08680 1.08782 0.62592
 C978 C 1.08784 1.08490 0.58446
 H979 H 1.10555 1.11735 0.68378
 H980 H 1.06547 1.06697 0.64341
 H981 H 1.15447 1.14225 0.60374
 H982 H 1.10788 1.10572 0.56586
 C983 C 0.65923 0.65681 0.11910
 C984 C 0.62119 0.63563 0.12551
 C985 C 0.60357 0.60635 0.09465
 C986 C 0.56209 0.59092 0.09889
 H987 H 0.60322 0.63897 0.15461
 H988 H 0.62500 0.59633 0.06940
 H989 H 0.67620 0.65475 0.08939
 H990 H 0.54048 0.60243 0.12336
 C991 C 1.14532 0.85823 0.36477
 C992 C 1.11199 0.88251 0.35133
 C993 C 1.08572 0.91117 0.37726
 C994 C 1.08572 0.91244 0.41885
 H995 H 1.10397 0.88300 0.31859
 H996 H 1.06493 0.93266 0.36032
 H997 H 1.15449 0.85762 0.39719
 H998 H 1.10506 0.89080 0.43686
 C999 C 0.63838 0.35752 -0.13709
 C1000 C 0.59962 0.37502 -0.14887
 C1001 C 0.57120 0.40101 -0.12192
 C1002 C 0.58684 0.42202 -0.08931
 H1003 H 0.58692 0.36937 -0.17979
 H1004 H 0.53682 0.40569 -0.13184
 H1005 H 0.64989 0.36019 -0.10540
 H1006 H 0.62189 0.41985 -0.08069
 C1007 C 0.85372 1.14395 0.35471
 C1008 C 0.84643 1.14028 0.39564
 C1009 C 0.86974 1.10997 0.42238
 C1010 C 0.89052 1.07646 0.40781
 H1011 H 0.82273 1.16055 0.41071
 H1012 H 0.86796 1.11484 0.45557
 H1013 H 0.87859 1.12508 0.33952
 H1014 H 0.89101 1.06986 0.37500
 C1015 C 0.35007 0.65898 -0.12961
 C1016 C 0.39192 0.64557 -0.13740
 C1017 C 0.41765 0.61765 -0.11029
 C1018 C 0.39836 0.59065 -0.08438
 H1019 H 0.40880 0.65519 -0.16563
 H1020 H 0.45356 0.61610 -0.11579
 H1021 H 0.33387 0.65248 -0.10021
 H1022 H 0.36220 0.59015 -0.08048
 C1023 C 0.85433 0.85355 0.64575
 C1024 C 0.84500 0.85951 0.60561
 C1025 C 0.86796 0.89088 0.57990
 C1026 C 0.88855 0.92404 0.59573
 H1027 H 0.81976 0.84069 0.59059
 H1028 H 0.86603 0.88721 0.54657
 H1029 H 0.88071 0.87103 0.66063
 H1030 H 0.88901 0.92949 0.62878
 C1031 C 0.35717 0.33174 0.12621
 C1032 C 0.39761 0.34814 0.13499
 C1033 C 0.42305 0.37650 0.10772
 C1034 C 0.40348 0.40057 0.07943
 H1035 H 0.41297 0.34161 0.16470
 H1036 H 0.45806 0.38167 0.11546
 H1037 H 0.34264 0.33507 0.09566
 H1038 H 0.36789 0.39745 0.07317
   
