data_POSCAR
  _audit_creation_date              2014-09-24
  _audit_creation_method            'ToBaCCo'
  _symmetry_space_group_name_H-M    'P1'
  _symmetry_Int_Tables_number       1
  _symmetry_cell_setting            triclinic
  loop_
  _symmetry_equiv_pos_as_xyz
 x,y,z
_cell_length_a 23.7140
_cell_length_b 23.6581
_cell_length_c 23.7284
_cell_angle_alpha 90.085400
_cell_angle_beta 90.112500
_cell_angle_gamma 89.992300
loop_
  _atom_site_label
  _atom_site_type_symbol
  _atom_site_fract_x
  _atom_site_fract_y
  _atom_site_fract_z
O1 O 0.44890 0.95449 -0.55353
 O2 O 0.55670 0.95461 -0.44054
 O3 O 0.44703 0.95069 -0.44406
 O4 O 0.55876 0.95278 -0.55041
 O5 O 0.55465 1.04590 -0.55384
 O6 O 0.44942 1.04380 -0.43877
 O7 O 0.55933 1.04763 -0.44426
 O8 O 0.44493 1.04754 -0.54831
 Cu9 Cu 0.50301 0.94381 -0.49725
 Cu10 Cu 0.50201 1.05555 -0.49617
 C11 C 0.42779 1.00130 -0.56936
 C12 C 0.57721 1.00144 -0.42373
 C13 C 0.42949 0.99658 -0.42266
 C14 C 0.57533 0.99935 -0.57101
 O15 O -0.55398 1.44259 0.03883
 O16 O -0.44496 1.55346 0.03979
 O17 O -0.55513 1.55375 0.03992
 O18 O -0.44482 1.44371 0.03668
 O19 O -0.44424 1.44795 -0.05624
 O20 O -0.55856 1.55271 -0.05288
 O21 O -0.44903 1.55779 -0.05304
 O22 O -0.55436 1.44355 -0.05404
 Cu23 Cu -0.49978 1.49833 0.04816
 Cu24 Cu -0.50161 1.50061 -0.06333
 C25 C -0.57254 1.42358 -0.00778
 C26 C -0.42855 1.57474 -0.00646
 C27 C -0.57620 1.57177 -0.00605
 C28 C -0.42530 1.42754 -0.01050
 O29 O -0.05010 0.44612 0.44734
 O30 O -0.05070 0.55193 0.56107
 O31 O -0.05442 0.55553 0.45114
 O32 O -0.04725 0.44269 0.55733
 O33 O 0.04575 0.44589 0.55474
 O34 O 0.03855 0.55913 0.44862
 O35 O 0.04207 0.55641 0.55776
 O36 O 0.04294 0.44869 0.44551
 Cu37 Cu -0.05993 0.49872 0.50445
 Cu38 Cu 0.05167 0.50287 0.50143
 C39 C -0.00349 0.42919 0.42711
 C40 C -0.00447 0.57255 0.57888
 C41 C -0.00922 0.57663 0.43173
 C42 C 0.00043 0.42500 0.57418
 O43 O -0.14308 1.00179 -0.07592
 O44 O 0.14752 0.99418 -0.07236
 O45 O 0.00373 1.07163 -0.14507
 O46 O 0.00358 0.91895 -0.14069
 O47 O -0.00079 0.85211 -0.07014
 O48 O 0.00202 1.14256 -0.07831
 O49 O 0.07906 0.99178 -0.14155
 O50 O -0.07334 1.00009 -0.14369
 Zr51 Zr 0.00240 0.99679 -0.09690
 O52 O 0.05206 0.94597 -0.04696
 O53 O -0.04854 1.05038 -0.05112
 C54 C -0.12567 1.00176 -0.12778
 C55 C 0.13113 0.99161 -0.12458
 C56 C 0.00272 1.12436 -0.12996
 C57 C 0.00174 0.86721 -0.12261
 H58 H 0.07836 1.07110 -0.07382
 O59 O 0.05370 1.04810 -0.04937
 H60 H -0.07452 0.92430 -0.07193
 O61 O -0.05025 0.94846 -0.04806
 O62 O 0.14610 0.99978 0.08017
 O63 O -0.14441 1.00268 0.07721
 O64 O 0.07979 1.14363 -0.00065
 O65 O 0.07435 0.85287 0.00336
 O66 O -0.07837 0.85603 0.00672
 O67 O -0.07231 1.14624 -0.00551
 O68 O 0.00377 1.08033 0.14480
 O69 O -0.00255 0.92731 0.14905
 O70 O 0.00402 1.14715 0.07406
 O71 O -0.00550 0.85682 0.08182
 O72 O 0.14774 1.07391 0.00458
 O73 O -0.14253 1.07888 -0.00271
 O74 O -0.14550 0.92649 0.00322
 O75 O 0.14492 0.92013 0.00418
 O76 O 0.07648 1.00448 0.14772
 O77 O -0.07565 1.00220 0.14616
 Zr78 Zr 0.10080 0.99778 0.00342
 Zr79 Zr -0.09803 1.00173 0.00105
 Zr80 Zr 0.00298 1.09888 -0.00075
 Zr81 Zr -0.00097 0.90044 0.00459
 Zr82 Zr 0.00074 1.00246 0.10105
 O83 O -0.05137 0.95100 0.05397
 O84 O 0.05316 1.05159 0.05239
 C85 C 0.12883 1.00300 0.13197
 C86 C -0.12777 1.00187 0.12942
 C87 C 0.13166 1.12636 0.00192
 C88 C 0.12689 0.86829 0.00311
 C89 C -0.13017 0.87389 0.00537
 C90 C -0.12480 1.13069 -0.00566
 C91 C 0.00449 1.13210 0.12665
 C92 C -0.00590 0.87475 0.13352
 H93 H -0.07299 1.07817 0.07426
 O94 O -0.04909 1.05304 0.05108
 H95 H 0.07405 0.92480 0.07967
 O96 O 0.05084 0.94894 0.05478
 C97 C 0.29789 1.00509 0.30579
 C98 C 0.30458 1.05103 0.34262
 C99 C 0.34714 1.04973 0.38316
 C100 C 0.38267 1.00253 0.38764
 C101 C 0.37461 0.95737 0.35003
 N102 N 0.33329 0.95996 0.31021
 C103 C 0.25373 1.00528 0.26187
 N104 N 0.26462 0.98154 0.21072
 C105 C 0.22579 0.98095 0.16844
 C106 C 0.17202 1.00433 0.17691
 C107 C 0.15972 1.02818 0.22964
 C108 C 0.20049 1.02906 0.27202
 H109 H 0.35202 1.08553 0.41125
 H110 H 0.40151 0.92045 0.35179
 H111 H 0.23668 0.96150 0.12859
 H112 H 0.11871 1.04646 0.23801
 H113 H 0.27790 1.08804 0.33950
 H114 H 0.19011 1.04727 0.31258
 C115 C -0.29732 0.99756 0.30198
 C116 C -0.30393 0.95068 0.33746
 C117 C -0.34573 0.95132 0.37860
 C118 C -0.38065 0.99875 0.38500
 C119 C -0.37288 1.04476 0.34851
 N120 N -0.33221 1.04288 0.30811
 C121 C -0.25319 0.99829 0.25818
 N122 N -0.26406 1.02253 0.20727
 C123 C -0.22507 1.02370 0.16524
 C124 C -0.17125 1.00046 0.17385
 C125 C -0.15906 0.97610 0.22634
 C126 C -0.19991 0.97465 0.26839
 H127 H -0.35040 0.91485 0.40573
 H128 H -0.39937 1.08188 0.35173
 H129 H -0.23585 1.04342 0.12551
 H130 H -0.11806 0.95769 0.23471
 H131 H -0.27760 0.91356 0.33297
 H132 H -0.18958 0.95601 0.30875
 C133 C -0.29522 1.00442 -0.30047
 C134 C -0.31009 1.05445 -0.32820
 C135 C -0.35284 1.05355 -0.36856
 C136 C -0.38020 1.00258 -0.38246
 C137 C -0.36362 0.95327 -0.35366
 N138 N -0.32261 0.95556 -0.31351
 C139 C -0.25089 1.00424 -0.25686
 N140 N -0.25922 0.97504 -0.20820
 C141 C -0.22017 0.97426 -0.16613
 C142 C -0.16882 1.00302 -0.17251
 C143 C -0.15901 1.03250 -0.22274
 C144 C -0.20020 1.03373 -0.26476
 H145 H -0.36389 1.09282 -0.38926
 H146 H -0.38363 0.91306 -0.36239
 H147 H -0.22884 0.95051 -0.12817
 H148 H -0.11984 1.05515 -0.22913
 H149 H -0.28952 1.09406 -0.31805
 H150 H -0.19224 1.05675 -0.30334
 C151 C 0.30137 0.99007 -0.29658
 C152 C 0.30844 0.94439 -0.33361
 C153 C 0.35050 0.94656 -0.37445
 C154 C 0.38516 0.99438 -0.37904
 C155 C 0.37684 1.03921 -0.34112
 N156 N 0.33599 1.03579 -0.30102
 C157 C 0.25723 0.98918 -0.25281
 N158 N 0.26790 1.01233 -0.20132
 C159 C 0.22883 1.01257 -0.15938
 C160 C 0.17500 0.98956 -0.16866
 C161 C 0.16301 0.96618 -0.22171
 C162 C 0.20404 0.96553 -0.26366
 H163 H 0.35559 0.91098 -0.40277
 H164 H 0.40309 1.07658 -0.34295
 H165 H 0.23947 1.03171 -0.11928
 H166 H 0.12193 0.94832 -0.23074
 H167 H 0.28232 0.90699 -0.33052
 H168 H 0.19383 0.94780 -0.30452
 C169 C 0.30382 1.29629 -0.00797
 C170 C 0.31925 1.32186 -0.05888
 C171 C 0.36091 1.36343 -0.05903
 C172 C 0.38660 1.38057 -0.00830
 C173 C 0.36994 1.35341 0.04179
 N174 N 0.32990 1.31226 0.04061
 C175 C 0.25931 1.25288 -0.00621
 N176 N 0.26637 1.20599 0.02629
 C177 C 0.22654 1.16466 0.02925
 C178 C 0.17568 1.17023 -0.00055
 C179 C 0.16730 1.21867 -0.03349
 C180 C 0.20919 1.25978 -0.03687
 H181 H 0.37224 1.38267 -0.09882
 H182 H 0.38881 1.36454 0.08187
 H183 H 0.23422 1.12801 0.05542
 H184 H 0.12865 1.22434 -0.05725
 H185 H 0.29964 1.30941 -0.09825
 H186 H 0.20214 1.29703 -0.06240
 C187 C 0.29566 0.69465 -0.00396
 C188 C 0.31006 0.66833 -0.05483
 C189 C 0.35294 0.62805 -0.05561
 C190 C 0.38093 0.61281 -0.00550
 C191 C 0.36477 0.64016 0.04471
 N192 N 0.32362 0.68029 0.04407
 C193 C 0.25130 0.73825 -0.00206
 N194 N 0.25998 0.78640 0.02824
 C195 C 0.22106 0.82863 0.03025
 C196 C 0.16954 0.82298 0.00157
 C197 C 0.15934 0.77320 -0.02892
 C198 C 0.20035 0.73102 -0.03132
 H199 H 0.36365 0.60850 -0.09549
 H200 H 0.38525 0.63037 0.08432
 H201 H 0.23008 0.86624 0.05470
 H202 H 0.12008 0.76740 -0.05163
 H203 H 0.28904 0.67955 -0.09380
 H204 H 0.19212 0.69287 -0.05524
 C205 C -0.30364 0.70464 -0.00416
 C206 C -0.33960 0.69944 -0.05093
 C207 C -0.38009 0.65669 -0.05193
 C208 C -0.38533 0.61966 -0.00615
 C209 C -0.34844 0.62618 0.03976
 N210 N -0.30870 0.66764 0.03941
 C211 C -0.26003 0.74905 -0.00161
 N212 N -0.20907 0.73730 0.02219
 C213 C -0.16701 0.77633 0.02508
 C214 C -0.17556 0.83112 0.00409
 C215 C -0.22825 0.84432 -0.01953
 C216 C -0.27037 0.80339 -0.02278
 H217 H -0.40763 0.65295 -0.08821
 H218 H -0.35076 0.59804 0.07560
 H219 H -0.12712 0.76459 0.04395
 H220 H -0.23664 0.88603 -0.03631
 H221 H -0.33591 0.72752 -0.08672
 H222 H -0.31080 0.81437 -0.04098
 C223 C -0.29440 1.30376 -0.01391
 C224 C -0.30138 1.34017 -0.06003
 C225 C -0.34450 1.38029 -0.05919
 C226 C -0.38004 1.38474 -0.01221
 C227 C -0.37163 1.34753 0.03304
 N228 N -0.32994 1.30816 0.03087
 C229 C -0.25006 1.26006 -0.01324
 N230 N -0.26093 1.20939 0.01155
 C231 C -0.22190 1.16737 0.01386
 C232 C -0.16784 1.17568 -0.00867
 C233 C -0.15547 1.22795 -0.03359
 C234 C -0.19657 1.27006 -0.03638
 H235 H -0.34971 1.40816 -0.09500
 H236 H -0.39853 1.34928 0.06981
 H237 H -0.23288 1.12788 0.03406
 H238 H -0.11421 1.23611 -0.05124
 H239 H -0.27451 1.33702 -0.09673
 H240 H -0.18624 1.31032 -0.05536
 C241 C -0.00208 1.30581 0.29574
 C242 C -0.04977 1.34016 0.30305
 C243 C -0.05045 1.38012 0.34631
 C244 C -0.00341 1.38655 0.38165
 C245 C 0.04349 1.35143 0.37290
 N246 N 0.04278 1.31204 0.33108
 C247 C -0.00013 1.26233 0.25118
 N248 N 0.02475 1.21164 0.26212
 C249 C 0.02690 1.16952 0.22310
 C250 C 0.00397 1.17773 0.16914
 C251 C -0.02071 1.23015 0.15666
 C252 C -0.02322 1.27235 0.19765
 H253 H -0.08747 1.40636 0.35179
 H254 H 0.08035 1.35476 0.39968
 H255 H 0.04674 1.12984 0.23414
 H256 H -0.03899 1.23814 0.11556
 H257 H -0.08651 1.33548 0.27628
 H258 H -0.04243 1.31257 0.18739
 C259 C 0.00622 1.29376 -0.30284
 C260 C 0.05234 1.30160 -0.33897
 C261 C 0.05082 1.34491 -0.37881
 C262 C 0.00312 1.37968 -0.38327
 C263 C -0.04210 1.37040 -0.34636
 N264 N -0.03924 1.32861 -0.30723
 C265 C 0.00629 1.24932 -0.25937
 N266 N -0.01815 1.26007 -0.20862
 C267 C -0.01952 1.22101 -0.16669
 C268 C 0.00363 1.16709 -0.17518
 C269 C 0.02815 1.15481 -0.22756
 C270 C 0.02996 1.19594 -0.26959
 H271 H 0.08659 1.35083 -0.40649
 H272 H -0.07940 1.39672 -0.34814
 H273 H -0.03919 1.23195 -0.12704
 H274 H 0.04655 1.11371 -0.23575
 H275 H 0.08954 1.27525 -0.33579
 H276 H 0.04877 1.18577 -0.30989
 C277 C -0.00458 0.69423 -0.29196
 C278 C -0.05498 0.66685 -0.30632
 C279 C -0.05517 0.62694 -0.34961
 C280 C -0.00491 0.61324 -0.37797
 C281 C 0.04476 0.64168 -0.36185
 N282 N 0.04352 0.68133 -0.32033
 C283 C -0.00304 0.73759 -0.24740
 N284 N 0.02742 0.78563 -0.25558
 C285 C 0.02954 0.82760 -0.21642
 C286 C 0.00078 0.82180 -0.16514
 C287 C -0.02982 0.77206 -0.15539
 C288 C -0.03230 0.73010 -0.19665
 H289 H -0.09462 0.60647 -0.36035
 H290 H 0.08447 0.63309 -0.38261
 H291 H 0.05399 0.86519 -0.22514
 H292 H -0.05266 0.76613 -0.11635
 H293 H -0.09405 0.67698 -0.28500
 H294 H -0.05624 0.69196 -0.18876
 C295 C -0.01606 0.70524 0.30598
 C296 C -0.06295 0.67005 0.31426
 C297 C -0.06105 0.62858 0.35592
 C298 C -0.01232 0.62162 0.38879
 C299 C 0.03344 0.65807 0.37957
 N300 N 0.03034 0.69867 0.33918
 C301 C -0.01578 0.74884 0.26163
 N302 N 0.01098 0.79887 0.27124
 C303 C 0.01372 0.84016 0.23149
 C304 C -0.01014 0.83147 0.17800
 C305 C -0.03743 0.77999 0.16714
 C306 C -0.04073 0.73880 0.20891
 H307 H -0.09731 0.60142 0.36184
 H308 H 0.07152 0.65445 0.40452
 H309 H 0.03555 0.87915 0.24128
 H310 H -0.05637 0.77166 0.12641
 H311 H -0.10083 0.67487 0.28918
 H312 H -0.06128 0.69901 0.19955
   
