data_POSCAR
  _audit_creation_date              2014-09-24
  _audit_creation_method            'ToBaCCo'
  _symmetry_space_group_name_H-M    'P1'
  _symmetry_Int_Tables_number       1
  _symmetry_cell_setting            triclinic
  loop_
  _symmetry_equiv_pos_as_xyz
 x,y,z
_cell_length_a 51.3217
_cell_length_b 52.3097
_cell_length_c 48.2646
_cell_angle_alpha 89.707500
_cell_angle_beta 90.067500
_cell_angle_gamma 91.100700
loop_
  _atom_site_label
  _atom_site_type_symbol
  _atom_site_fract_x
  _atom_site_fract_y
  _atom_site_fract_z
C1 C 0.21202 0.17818 0.21727
 C2 C 0.19607 0.16443 0.23596
 C3 C 0.17041 0.17221 0.24183
 C4 C 0.16135 0.19446 0.22853
 C5 C 0.17711 0.20834 0.20992
 C6 C 0.20252 0.20020 0.20420
 C7 C 0.23732 0.17008 0.21143
 C8 C 0.25347 0.18340 0.19223
 C9 C 0.24351 0.20558 0.17943
 C10 C 0.21829 0.21394 0.18519
 C11 C 0.20839 0.23561 0.17179
 C12 C 0.18301 0.24377 0.17738
 C13 C 0.16755 0.23004 0.19651
 H14 H 0.20421 0.14810 0.24648
 H15 H 0.14151 0.20057 0.23140
 H16 H 0.24448 0.15367 0.22263
 H17 H 0.25465 0.21585 0.16379
 H18 H 0.22046 0.24622 0.15714
 H19 H 0.14779 0.23596 0.20054
 C20 C -0.22394 0.81819 0.21004
 C21 C -0.21780 0.82511 0.23738
 C22 C -0.19850 0.81218 0.25268
 C23 C -0.18598 0.79152 0.23980
 C24 C -0.19196 0.78444 0.21250
 C25 C -0.21086 0.79793 0.19749
 C26 C -0.24268 0.83165 0.19495
 C27 C -0.24856 0.82545 0.16709
 C28 C -0.23517 0.80496 0.15492
 C29 C -0.21647 0.79132 0.16983
 C30 C -0.20317 0.77121 0.15737
 C31 C -0.18417 0.75774 0.17214
 C32 C -0.17875 0.76445 0.19974
 H33 H -0.22877 0.84025 0.24678
 H34 H -0.17042 0.78162 0.25020
 H35 H -0.25158 0.84784 0.20478
 H36 H -0.23973 0.79882 0.13407
 H37 H -0.20765 0.76598 0.13616
 H38 H -0.16380 0.75444 0.21112
 C39 C -0.22243 0.19266 -0.23333
 C40 C -0.20668 0.17767 -0.25029
 C41 C -0.18123 0.18583 -0.25719
 C42 C -0.17181 0.20949 -0.24736
 C43 C -0.18737 0.22470 -0.23053
 C44 C -0.21277 0.21625 -0.22338
 C45 C -0.24753 0.18416 -0.22591
 C46 C -0.26336 0.19856 -0.20803
 C47 C -0.25338 0.22240 -0.19854
 C48 C -0.22830 0.23121 -0.20597
 C49 C -0.21822 0.25446 -0.19564
 C50 C -0.19285 0.26292 -0.20260
 C51 C -0.17765 0.24795 -0.22019
 H52 H -0.21418 0.15956 -0.25805
 H53 H -0.15209 0.21577 -0.25224
 H54 H -0.25474 0.16646 -0.23482
 H55 H -0.26432 0.23371 -0.18408
 H56 H -0.23007 0.26596 -0.18215
 H57 H -0.15790 0.25404 -0.22519
 C58 C 0.23724 0.80809 -0.21902
 C59 C 0.23099 0.81821 -0.24511
 C60 C 0.21194 0.80635 -0.26221
 C61 C 0.19999 0.78337 -0.25260
 C62 C 0.20610 0.77308 -0.22656
 C63 C 0.22465 0.78555 -0.20959
 C64 C 0.25554 0.82056 -0.20195
 C65 C 0.26120 0.81101 -0.17538
 C66 C 0.24852 0.78850 -0.16608
 C67 C 0.23027 0.77571 -0.18300
 C68 C 0.21721 0.75351 -0.17359
 C69 C 0.19848 0.74107 -0.19033
 C70 C 0.19319 0.75092 -0.21685
 H71 H 0.24155 0.83515 -0.25211
 H72 H 0.18463 0.77407 -0.26442
 H73 H 0.26484 0.83818 -0.20905
 H74 H 0.25288 0.78093 -0.14568
 H75 H 0.22158 0.74593 -0.15320
 H76 H 0.17842 0.74174 -0.22966
 C77 C 0.17853 1.22234 0.78740
 C78 C 0.16331 1.20841 0.76829
 C79 C 0.17272 1.18605 0.75566
 C80 C 0.19814 1.17824 0.76270
 C81 C 0.21348 1.19197 0.78175
 C82 C 0.20369 1.21412 0.79413
 C83 C 0.16881 1.24436 0.79994
 C84 C 0.18367 1.25838 0.81961
 C85 C 0.20898 1.24978 0.82595
 C86 C 0.21897 1.22785 0.81348
 C87 C 0.24379 1.21905 0.82067
 C88 C 0.25353 1.19669 0.80875
 C89 C 0.23831 1.18346 0.78906
 H90 H 0.14438 1.21568 0.76277
 H91 H 0.20580 1.16066 0.75460
 H92 H 0.14982 1.25080 0.79349
 H93 H 0.22071 1.25922 0.84164
 H94 H 0.25523 1.22921 0.83612
 H95 H 0.24581 1.16643 0.77943
 C96 C 0.80028 0.77105 0.79448
 C97 C 0.80946 0.77989 0.76864
 C98 C 0.79954 0.80228 0.75619
 C99 C 0.77953 0.81514 0.77027
 C100 C 0.77033 0.80660 0.79609
 C101 C 0.78081 0.78456 0.80832
 C102 C 0.81094 0.74931 0.80704
 C103 C 0.80255 0.74071 0.83350
 C104 C 0.78269 0.75447 0.84679
 C105 C 0.77197 0.77623 0.83453
 C106 C 0.75267 0.78994 0.84831
 C107 C 0.74218 0.81201 0.83629
 C108 C 0.75102 0.82009 0.81006
 H109 H 0.82534 0.76984 0.75916
 H110 H 0.77035 0.83156 0.76100
 H111 H 0.82675 0.74003 0.79651
 H112 H 0.77477 0.74800 0.86643
 H113 H 0.74579 0.78345 0.86842
 H114 H 0.74336 0.83733 0.80083
 C115 C 0.20315 0.76949 1.22040
 C116 C 0.19245 0.77869 1.24509
 C117 C 0.19940 0.80312 1.25506
 C118 C 0.21760 0.81822 1.24018
 C119 C 0.22848 0.80929 1.21548
 C120 C 0.22116 0.78486 1.20552
 C121 C 0.19553 0.74544 1.21002
 C122 C 0.20542 0.73636 1.18460
 C123 C 0.22392 0.75191 1.17038
 C124 C 0.23158 0.77597 1.18047
 C125 C 0.24926 0.79145 1.16554
 C126 C 0.25644 0.81592 1.17509
 C127 C 0.24609 0.82464 1.20023
 H128 H 0.17862 0.76683 1.25656
 H129 H 0.22276 0.83724 1.24741
 H130 H 0.18069 0.73468 1.22122
 H131 H 0.23304 0.74527 1.15162
 H132 H 0.25742 0.78445 1.14638
 H133 H 0.25127 0.84361 1.20759
 C134 C 0.81830 1.22295 1.22877
 C135 C 0.83416 1.20886 1.24673
 C136 C 0.82548 1.18521 1.25816
 C137 C 0.80020 1.17617 1.25097
 C138 C 0.78418 1.19003 1.23303
 C139 C 0.79322 1.21352 1.22193
 C140 C 0.82731 1.24618 1.21717
 C141 C 0.81163 1.25997 1.19863
 C142 C 0.78652 1.25053 1.19226
 C143 C 0.77731 1.22738 1.20361
 C144 C 0.75265 1.21758 1.19632
 C145 C 0.74373 1.19383 1.20672
 C146 C 0.75952 1.18032 1.22535
 H147 H 0.85297 1.21699 1.25236
 H148 H 0.79315 1.15765 1.25809
 H149 H 0.84682 1.25315 1.22192
 H150 H 0.77417 1.26116 1.17828
 H151 H 0.74049 1.22832 1.18225
 H152 H 0.75296 1.16184 1.23318
 O153 O 0.52216 0.98797 0.95838
 O154 O 0.47588 0.98614 1.03221
 O155 O 0.55513 1.01140 1.01576
 O156 O 0.44616 1.01432 0.97032
 O157 O 0.52577 0.98815 1.03807
 O158 O 0.47589 0.98755 0.96262
 O159 O 0.44602 1.01278 1.02025
 O160 O 0.55218 1.01561 0.96499
 C161 C 0.54571 0.99304 0.95985
 C162 C 0.45242 0.99078 1.02833
 C163 C 0.54885 0.99213 1.03041
 C164 C 0.45241 0.99193 0.96481
 O165 O 0.47416 1.03515 0.93924
 O166 O 0.52265 1.03583 1.05367
 O167 O 0.53353 1.06256 0.96993
 O168 O 0.46677 1.06093 1.02173
 O169 O 0.47436 1.03315 1.05307
 O170 O 0.52120 1.03678 0.93732
 O171 O 0.46966 1.06164 0.97205
 O172 O 0.54232 1.05937 1.02198
 Co173 Co 0.49847 1.01297 0.95315
 Co174 Co 0.49945 1.01197 1.03947
 Co175 Co 0.54136 1.03617 0.99313
 Co176 Co 0.46068 1.03633 0.99591
 O177 O 0.50018 1.02434 0.99571
 C178 C 0.46871 1.05722 0.94694
 C179 C 0.53697 1.05477 1.04684
 C180 C 0.52967 1.05850 0.94484
 C181 C 0.46753 1.05523 1.04661
 O182 O 0.02717 0.47691 0.05384
 O183 O 0.01077 0.52533 -0.05902
 O184 O 0.01486 0.45091 -0.01991
 O185 O 0.04638 0.53344 0.01869
 O186 O 0.02989 0.48421 -0.04070
 O187 O 0.02823 0.52486 0.05736
 O188 O 0.03821 0.53000 -0.02792
 O189 O 0.00534 0.44846 0.02956
 C190 C 0.02381 0.45431 0.04593
 C191 C 0.03201 0.53482 -0.05210
 C192 C 0.03215 0.46127 -0.03462
 C193 C 0.04748 0.53307 0.04422
 O194 O -0.02188 0.52574 0.05494
 O195 O -0.01338 0.48148 -0.06634
 O196 O -0.04229 0.46850 0.01902
 O197 O -0.01163 0.54953 -0.02101
 O198 O -0.03247 0.51563 -0.03596
 O199 O -0.02341 0.47744 0.05743
 O200 O -0.00153 0.55375 0.02829
 O201 O -0.03393 0.46926 -0.02939
 Co202 Co 0.00251 0.50117 0.05102
 Co203 Co -0.00148 0.49917 -0.03665
 Co204 Co -0.01254 0.46283 0.00016
 Co205 Co 0.01658 0.53865 -0.00027
 O206 O 0.00221 0.50142 0.00533
 C207 C -0.01883 0.54825 0.04623
 C208 C -0.03014 0.46583 -0.05505
 C209 C -0.04278 0.46871 0.04466
 C210 C -0.03193 0.53927 -0.03152
 O211 O 1.02994 0.01389 0.47507
 O212 O 0.96388 0.01318 0.52893
 O213 O 0.96966 -0.01487 0.44774
 O214 O 1.01926 -0.00920 0.56046
 O215 O 0.96490 0.01261 0.47955
 O216 O 1.03891 0.01300 0.52755
 O217 O 0.97137 -0.01368 0.56083
 O218 O 1.01649 -0.01344 0.44440
 C219 C 1.02477 0.00871 0.45047
 C220 C 0.96570 0.00853 0.55393
 C221 C 0.96515 0.00766 0.45453
 C222 C 1.03302 0.00980 0.55256
 O223 O 1.05248 -0.03481 0.52353
 O224 O 0.94209 -0.03491 0.47975
 O225 O 1.01849 -0.06117 0.46678
 O226 O 0.97427 -0.06108 0.54128
 O227 O 0.94329 -0.03562 0.52968
 O228 O 1.04874 -0.03317 0.47247
 O229 O 1.02373 -0.05755 0.54710
 O230 O 0.97196 -0.06173 0.47295
 Co231 Co 1.03800 -0.01142 0.49977
 Co232 Co 0.95706 -0.01229 0.50437
 Co233 Co 0.99424 -0.03664 0.46174
 Co234 Co 0.99688 -0.03443 0.54765
 O235 O 0.99683 -0.02373 0.50359
 C236 C 1.04672 -0.05335 0.53940
 C237 C 0.94843 -0.05718 0.47378
 C238 C 1.04199 -0.05548 0.46606
 C239 C 0.95054 -0.05713 0.53852
 C240 C 1.14078 0.11737 0.28202
 C241 C 1.12060 0.12942 0.29591
 C242 C 1.11707 0.15561 0.29230
 C243 C 1.13351 0.16974 0.27471
 C244 C 1.15399 0.15794 0.26022
 C245 C 1.15733 0.13140 0.26441
 C246 C 1.10388 0.11500 0.31434
 C247 C 1.09027 0.10286 0.33011
 C248 C 1.07508 0.08846 0.34910
 C249 C 1.06302 0.07592 0.36588
 C250 C 1.05005 0.06059 0.38667
 C251 C 1.05167 0.06785 0.41447
 C252 C 1.04232 0.05143 0.43523
 C253 C 1.03133 0.02743 0.42841
 C254 C 1.02856 0.02083 0.40032
 C255 C 1.03797 0.03731 0.37957
 H256 H 1.14363 0.09703 0.28463
 H257 H 1.10171 0.16521 0.30331
 H258 H 1.13054 0.19012 0.27351
 H259 H 1.17194 0.12095 0.25329
 H260 H 1.06103 0.08581 0.42018
 H261 H 1.04458 0.05713 0.45665
 H262 H 1.02003 0.00256 0.39443
 H263 H 1.03665 0.03150 0.35809
 C264 C 0.82945 -0.18815 0.32466
 C265 C 0.82710 -0.16252 0.33200
 C266 C 0.81497 -0.14560 0.31387
 C267 C 0.80587 -0.15402 0.28813
 C268 C 0.80885 -0.17971 0.27977
 C269 C 0.82038 -0.19672 0.29893
 C270 C 0.83906 -0.15298 0.35697
 C271 C 0.85006 -0.14416 0.37693
 C272 C 0.86405 -0.13282 0.39900
 C273 C 0.87696 -0.12221 0.41653
 C274 C 0.89349 -0.10838 0.43559
 C275 C 0.88497 -0.08560 0.44733
 C276 C 0.90255 -0.06961 0.46147
 C277 C 0.92893 -0.07614 0.46377
 C278 C 0.93693 -0.09983 0.45345
 C279 C 0.91931 -0.11579 0.43936
 H280 H 0.83872 -0.20148 0.33863
 H281 H 0.81335 -0.12559 0.31921
 H282 H 0.79807 -0.13974 0.27433
 H283 H 0.82214 -0.21685 0.29451
 H284 H 0.86506 -0.07959 0.44439
 H285 H 0.89581 -0.05154 0.46930
 H286 H 0.95710 -0.10542 0.45498
 H287 H 0.92616 -0.13330 0.43020
 C288 C 0.85284 0.12747 0.71531
 C289 C 0.86870 0.13832 0.69465
 C290 C 0.86813 0.16466 0.68955
 C291 C 0.85180 0.18013 0.70510
 C292 C 0.83579 0.16940 0.72594
 C293 C 0.83648 0.14289 0.73087
 C294 C 0.88508 0.12233 0.67824
 C295 C 0.89836 0.10881 0.66416
 C296 C 0.91322 0.09282 0.64714
 C297 C 0.92511 0.07903 0.63200
 C298 C 0.93812 0.06240 0.61308
 C299 C 0.93987 0.06915 0.58506
 C300 C 0.94979 0.05194 0.56593
 C301 C 0.95799 0.02767 0.57461
 C302 C 0.95717 0.02143 0.60298
 C303 C 0.94720 0.03870 0.62210
 H304 H 0.85312 0.10709 0.71939
 H305 H 0.88021 0.17323 0.67347
 H306 H 0.85147 0.20042 0.70063
 H307 H 0.82466 0.13414 0.74703
 H308 H 0.93285 0.08742 0.57786
 H309 H 0.95030 0.05734 0.54425
 H310 H 0.96347 0.00293 0.61026
 H311 H 0.94587 0.03327 0.64375
 C312 C 1.19595 -0.14394 0.68447
 C313 C 1.18377 -0.15882 0.66412
 C314 C 1.18258 -0.18538 0.66712
 C315 C 1.19268 -0.19699 0.69085
 C316 C 1.20406 -0.18221 0.71236
 C317 C 1.20609 -0.15542 0.70825
 C318 C 1.17015 -0.14663 0.64176
 C319 C 1.15747 -0.13613 0.62419
 C320 C 1.14118 -0.12357 0.60515
 C321 C 1.12606 -0.11266 0.59033
 C322 C 1.10661 -0.09949 0.57458
 C323 C 1.08036 -0.10628 0.57831
 C324 C 1.06092 -0.09178 0.56601
 C325 C 1.06746 -0.07018 0.54978
 C326 C 1.09395 -0.06408 0.54516
 C327 C 1.11342 -0.07861 0.55763
 H328 H 1.19667 -0.12329 0.68252
 H329 H 1.17327 -0.19711 0.65139
 H330 H 1.19168 -0.21763 0.69196
 H331 H 1.21379 -0.14282 0.72406
 H332 H 1.07487 -0.12233 0.59148
 H333 H 1.04075 -0.09709 0.56987
 H334 H 1.09960 -0.04759 0.53274
 H335 H 1.13369 -0.07311 0.55473
 C336 C 0.32255 1.18181 1.16672
 C337 C 0.32761 1.15573 1.16861
 C338 C 0.30868 1.13897 1.17942
 C339 C 0.28454 1.14809 1.18777
 C340 C 0.27864 1.17434 1.18535
 C341 C 0.29842 1.19107 1.17503
 C342 C 0.35133 1.14576 1.15749
 C343 C 0.37041 1.13678 1.14711
 C344 C 0.39166 1.12551 1.13363
 C345 C 0.40870 1.11526 1.12091
 C346 C 0.42745 1.10228 1.10420
 C347 C 0.43740 1.07885 1.11297
 C348 C 0.45194 1.06411 1.09472
 C349 C 0.45644 1.07258 1.06740
 C350 C 0.44764 1.09682 1.05933
 C351 C 0.43319 1.11152 1.07761
 H352 H 0.33715 1.19500 1.15845
 H353 H 0.31227 1.11865 1.18061
 H354 H 0.27015 1.13403 1.19449
 H355 H 0.29573 1.21149 1.17381
 H356 H 0.43292 1.07144 1.13346
 H357 H 0.45848 1.04555 1.10154
 H358 H 0.45088 1.10391 1.03847
 H359 H 0.42547 1.12956 1.07055
 C360 C 0.31975 0.85038 0.84856
 C361 C 0.31364 0.85453 0.87640
 C362 C 0.29089 0.84359 0.88767
 C363 C 0.27408 0.82892 0.87101
 C364 C 0.27981 0.82511 0.84283
 C365 C 0.30298 0.83578 0.83188
 C366 C 0.33036 0.87080 0.89291
 C367 C 0.34463 0.88492 0.90583
 C368 C 0.36175 0.90194 0.91980
 C369 C 0.37679 0.91679 0.93064
 C370 C 0.39534 0.93480 0.94215
 C371 C 0.42179 0.92882 0.94289
 C372 C 0.44030 0.94720 0.95110
 C373 C 0.43259 0.97189 0.95854
 C374 C 0.40589 0.97747 0.95873
 C375 C 0.38738 0.95903 0.95050
 H376 H 0.33733 0.85872 0.83962
 H377 H 0.28592 0.84676 0.90917
 H378 H 0.25624 0.82119 0.87994
 H379 H 0.30807 0.83291 0.81037
 H380 H 0.42818 0.91016 0.93639
 H381 H 0.46070 0.94228 0.95091
 H382 H 0.39938 0.99627 0.96454
 H383 H 0.36696 0.96389 0.94994
 C384 C 0.71633 0.85590 1.10749
 C385 C 0.69650 0.86859 1.12124
 C386 C 0.69457 0.86678 1.15004
 C387 C 0.71248 0.85251 1.16513
 C388 C 0.73288 0.83961 1.15171
 C389 C 0.73429 0.84154 1.12245
 C390 C 0.67818 0.88368 1.10598
 C391 C 0.66261 0.89653 1.09378
 C392 C 0.64404 0.91180 1.08033
 C393 C 0.62780 0.92499 1.06968
 C394 C 0.60792 0.94088 1.05812
 C395 C 0.58193 0.93674 1.06589
 C396 C 0.56266 0.95312 1.05641
 C397 C 0.56913 0.97398 1.03905
 C398 C 0.59525 0.97766 1.03080
 C399 C 0.61452 0.96120 1.04032
 H400 H 0.71812 0.85734 1.08516
 H401 H 0.67910 0.87635 1.16090
 H402 H 0.70950 0.85098 1.18725
 H403 H 0.74991 0.83303 1.11090
 H404 H 0.57662 0.92110 1.07971
 H405 H 0.54276 0.94969 1.06311
 H406 H 0.60085 0.99347 1.01737
 H407 H 0.63460 0.96459 1.03420
 C408 C 0.68245 1.15271 0.81136
 C409 C 0.66335 1.16931 0.82050
 C410 C 0.66806 1.19569 0.81949
 C411 C 0.69196 1.20544 0.80972
 C412 C 0.71181 1.18893 0.80079
 C413 C 0.70632 1.16229 0.80162
 C414 C 0.63974 1.15891 0.83253
 C415 C 0.62086 1.14921 0.84346
 C416 C 0.59998 1.13678 0.85738
 C417 C 0.58339 1.12534 0.87037
 C418 C 0.56536 1.11080 0.88734
 C419 C 0.56121 1.11822 0.91476
 C420 C 0.54798 1.10183 0.93308
 C421 C 0.53881 1.07769 0.92424
 C422 C 0.54147 1.07111 0.89618
 C423 C 0.55483 1.08753 0.87787
 H424 H 0.67917 1.13220 0.81245
 H425 H 0.65335 1.20876 0.82648
 H426 H 0.69436 1.22599 0.80864
 H427 H 0.72081 1.14843 0.79631
 H428 H 0.56938 1.13611 0.92237
 H429 H 0.54610 1.10752 0.95452
 H430 H 0.53460 1.05267 0.88875
 H431 H 0.55807 1.08152 0.85672
 C432 C 0.16295 0.28927 0.12013
 C433 C 0.14764 0.30640 0.13485
 C434 C 0.14514 0.30390 0.16360
 C435 C 0.15731 0.28395 0.17753
 C436 C 0.17213 0.26620 0.16286
 C437 C 0.17521 0.26929 0.13407
 C438 C 0.13338 0.32584 0.12055
 C439 C 0.12067 0.34199 0.10930
 C440 C 0.10510 0.36083 0.09697
 C441 C 0.09141 0.37697 0.08713
 C442 C 0.07477 0.39639 0.07619
 C443 C 0.07777 0.42162 0.08526
 C444 C 0.06115 0.44045 0.07544
 C445 C 0.04122 0.43426 0.05644
 C446 C 0.03843 0.40884 0.04732
 C447 C 0.05512 0.39002 0.05717
 H448 H 0.16493 0.29101 0.09786
 H449 H 0.13337 0.31708 0.17518
 H450 H 0.15489 0.28221 0.19975
 H451 H 0.18632 0.25575 0.12224
 H452 H 0.09288 0.42672 0.10005
 H453 H 0.06388 0.45985 0.08280
 H454 H 0.02337 0.40350 0.03260
 H455 H 0.05261 0.37051 0.05008
 C456 C -0.17167 0.31312 -0.15040
 C457 C -0.15559 0.32906 -0.16666
 C458 C -0.15309 0.32435 -0.19503
 C459 C -0.16598 0.30335 -0.20695
 C460 C -0.18151 0.28673 -0.19060
 C461 C -0.18461 0.29211 -0.16229
 C462 C -0.14038 0.34919 -0.15393
 C463 C -0.12708 0.36546 -0.14294
 C464 C -0.11107 0.38385 -0.12956
 C465 C -0.09724 0.39901 -0.11753
 C466 C -0.08072 0.41648 -0.10228
 C467 C -0.06035 0.42992 -0.11549
 C468 C -0.04386 0.44620 -0.10021
 C469 C -0.04762 0.44912 -0.07156
 C470 C -0.06822 0.43564 -0.05855
 C471 C -0.08463 0.41945 -0.07382
 H472 H -0.17363 0.31652 -0.12838
 H473 H -0.14070 0.33655 -0.20781
 H474 H -0.16350 0.29985 -0.22887
 H475 H -0.19617 0.27950 -0.14912
 H476 H -0.05709 0.42768 -0.13751
 H477 H -0.02811 0.45630 -0.11072
 H478 H -0.07161 0.43753 -0.03652
 H479 H -0.10028 0.40908 -0.06337
 C480 C 0.15919 0.69707 -0.14287
 C481 C 0.15341 0.67653 -0.16045
 C482 C 0.16294 0.67672 -0.18761
 C483 C 0.17796 0.69752 -0.19724
 C484 C 0.18363 0.71839 -0.17980
 C485 C 0.17420 0.71785 -0.15244
 C486 C 0.13744 0.65551 -0.15052
 C487 C 0.12399 0.63830 -0.14141
 C488 C 0.10831 0.61866 -0.12958
 C489 C 0.09515 0.60239 -0.11828
 C490 C 0.07993 0.58364 -0.10313
 C491 C 0.05564 0.57499 -0.11300
 C492 C 0.04018 0.55835 -0.09682
 C493 C 0.04887 0.55040 -0.07059
 C494 C 0.07354 0.55872 -0.06120
 C495 C 0.08893 0.57521 -0.07737
 H496 H 0.15187 0.69714 -0.12183
 H497 H 0.15865 0.66088 -0.20136
 H498 H 0.18518 0.69726 -0.21830
 H499 H 0.17790 0.73378 -0.13865
 H500 H 0.04844 0.58151 -0.13287
 H501 H 0.02121 0.55227 -0.10446
 H502 H 0.08073 0.55291 -0.04106
 H503 H 0.10762 0.58185 -0.06947
 C504 C -0.14596 0.72081 0.11884
 C505 C -0.14047 0.69842 0.13353
 C506 C -0.14965 0.69518 0.16063
 C507 C -0.16410 0.71434 0.17311
 C508 C -0.16954 0.73703 0.15861
 C509 C -0.16043 0.74000 0.13127
 C510 C -0.12501 0.67895 0.12102
 C511 C -0.11188 0.66265 0.11081
 C512 C -0.09636 0.64351 0.09918
 C513 C -0.08302 0.62707 0.08954
 C514 C -0.06705 0.60730 0.07841
 C515 C -0.06965 0.58227 0.08850
 C516 C -0.05395 0.56304 0.07805
 C517 C -0.03537 0.56865 0.05736
 C518 C -0.03295 0.59387 0.04728
 C519 C -0.04871 0.61307 0.05776
 H520 H -0.13886 0.72355 0.09788
 H521 H -0.14554 0.67789 0.17216
 H522 H -0.17112 0.71138 0.19405
 H523 H -0.16401 0.75738 0.11972
 H524 H -0.08378 0.57761 0.10450
 H525 H -0.05635 0.54382 0.08621
 H526 H -0.01891 0.59879 0.03130
 H527 H -0.04655 0.63240 0.04980
 C528 C 1.11423 0.15665 0.72023
 C529 C 1.12606 0.14115 0.70061
 C530 C 1.15319 0.14099 0.69867
 C531 C 1.16852 0.15594 0.71647
 C532 C 1.15705 0.17152 0.73684
 C533 C 1.12947 0.17173 0.73810
 C534 C 1.11057 0.12511 0.68255
 C535 C 1.09832 0.11133 0.66713
 C536 C 1.08487 0.09489 0.64865
 C537 C 1.07420 0.08069 0.63242
 C538 C 1.06254 0.06364 0.61238
 C539 C 1.04543 0.04391 0.62075
 C540 C 1.03544 0.02654 0.60128
 C541 C 1.04254 0.02870 0.57318
 C542 C 1.05936 0.04890 0.56495
 C543 C 1.06929 0.06619 0.58443
 H544 H 1.09319 0.15682 0.72202
 H545 H 1.16258 0.12927 0.68331
 H546 H 1.18938 0.15574 0.71340
 H547 H 1.11937 0.18249 0.75370
 H548 H 1.04009 0.04174 0.64236
 H549 H 1.02242 0.01130 0.60825
 H550 H 1.06520 0.05117 0.54351
 H551 H 1.08256 0.08134 0.57771
 C552 C 0.81927 -0.15186 0.69955
 C553 C 0.83153 -0.16801 0.68092
 C554 C 0.83277 -0.19415 0.68677
 C555 C 0.82203 -0.20408 0.71132
 C556 C 0.80977 -0.18799 0.73069
 C557 C 0.80852 -0.16163 0.72406
 C558 C 0.84401 -0.15729 0.65667
 C559 C 0.85499 -0.14740 0.63718
 C560 C 0.86861 -0.13485 0.61546
 C561 C 0.88105 -0.12338 0.59805
 C562 C 0.89706 -0.10888 0.57890
 C563 C 0.88797 -0.08617 0.56718
 C564 C 0.90501 -0.06994 0.55240
 C565 C 0.93141 -0.07615 0.54946
 C566 C 0.93995 -0.09972 0.55992
 C567 C 0.92289 -0.11592 0.57459
 H568 H 0.81854 -0.13150 0.69544
 H569 H 0.84219 -0.20688 0.67243
 H570 H 0.82282 -0.22452 0.71446
 H571 H 0.80053 -0.14797 0.73830
 H572 H 0.86804 -0.08046 0.57050
 H573 H 0.89784 -0.05196 0.54454
 H574 H 0.96011 -0.10514 0.55789
 H575 H 0.93019 -0.13338 0.58364
 C576 C 1.14793 -0.17998 0.30796
 C577 C 1.16248 -0.16542 0.32691
 C578 C 1.18931 -0.16176 0.32287
 C579 C 1.20145 -0.17235 0.29977
 C580 C 1.18689 -0.18670 0.28038
 C581 C 1.16001 -0.19056 0.28488
 C582 C 1.14954 -0.15324 0.34964
 C583 C 1.13807 -0.14266 0.36797
 C584 C 1.12386 -0.12981 0.38852
 C585 C 1.11104 -0.11840 0.40516
 C586 C 1.09486 -0.10423 0.42373
 C587 C 1.10386 -0.08097 0.43475
 C588 C 1.08698 -0.06560 0.44978
 C589 C 1.06082 -0.07326 0.45380
 C590 C 1.05230 -0.09720 0.44374
 C591 C 1.06921 -0.11253 0.42875
 H592 H 1.12712 -0.18277 0.31076
 H593 H 1.20077 -0.15048 0.33736
 H594 H 1.22222 -0.16927 0.29704
 H595 H 1.14818 -0.20117 0.27015
 H596 H 1.12365 -0.07430 0.43091
 H597 H 1.09412 -0.04730 0.45733
 H598 H 1.03229 -0.10366 0.44653
 H599 H 1.06200 -0.13045 0.42024
 C600 C 0.84683 0.13849 0.31256
 C601 C 0.87392 0.14061 0.31051
 C602 C 0.88511 0.15787 0.29159
 C603 C 0.86928 0.17280 0.27458
 C604 C 0.84174 0.17068 0.27601
 C605 C 0.83092 0.15329 0.29562
 C606 C 0.89002 0.12480 0.32774
 C607 C 0.90275 0.11113 0.34247
 C608 C 0.91672 0.09471 0.36016
 C609 C 0.92775 0.08039 0.37572
 C610 C 0.93973 0.06301 0.39492
 C611 C 0.94190 0.06957 0.42291
 C612 C 0.95096 0.05180 0.44220
 C613 C 0.95786 0.02714 0.43374
 C614 C 0.95653 0.02100 0.40543
 C615 C 0.94745 0.03882 0.38615
 H616 H 0.83793 0.12538 0.32739
 H617 H 0.90610 0.15957 0.28970
 H618 H 0.87892 0.18502 0.25948
 H619 H 0.81012 0.15151 0.29881
 H620 H 0.93592 0.08820 0.42995
 H621 H 0.95189 0.05715 0.46383
 H622 H 0.96188 0.00222 0.39829
 H623 H 0.94582 0.03351 0.36454
 C624 C 0.13582 0.30390 -0.15010
 C625 C 0.15239 0.32285 -0.13930
 C626 C 0.17932 0.32077 -0.14237
 C627 C 0.18969 0.29973 -0.15602
 C628 C 0.17326 0.28017 -0.16699
 C629 C 0.14603 0.28286 -0.16377
 C630 C 0.14151 0.34406 -0.12462
 C631 C 0.13147 0.36124 -0.11224
 C632 C 0.11852 0.38060 -0.09766
 C633 C 0.10635 0.39633 -0.08519
 C634 C 0.09034 0.41397 -0.07035
 C635 C 0.07547 0.40508 -0.04790
 C636 C 0.05737 0.42095 -0.03545
 C637 C 0.05387 0.44600 -0.04530
 C638 C 0.06974 0.45525 -0.06705
 C639 C 0.08780 0.43924 -0.07959
 H640 H 0.11491 0.30517 -0.14759
 H641 H 0.19236 0.33546 -0.13425
 H642 H 0.21059 0.29949 -0.15867
 H643 H 0.13232 0.26823 -0.17052
 H644 H 0.07721 0.38556 -0.04060
 H645 H 0.04552 0.41332 -0.01868
 H646 H 0.06740 0.47443 -0.07511
 H647 H 0.09914 0.44630 -0.09704
 C648 C -0.15369 0.32398 0.18680
 C649 C -0.15853 0.32810 0.15859
 C650 C -0.17329 0.31016 0.14361
 C651 C -0.18309 0.28813 0.15670
 C652 C -0.17826 0.28370 0.18502
 C653 C -0.16349 0.30191 0.19996
 C654 C -0.14747 0.35013 0.14460
 C655 C -0.13773 0.36807 0.13240
 C656 C -0.12552 0.38841 0.11773
 C657 C -0.11418 0.40512 0.10505
 C658 C -0.09927 0.42413 0.08990
 C659 C -0.10032 0.42488 0.06091
 C660 C -0.08296 0.44067 0.04604
 C661 C -0.06421 0.45575 0.06005
 C662 C -0.06426 0.45587 0.08921
 C663 C -0.08165 0.44012 0.10401
 H664 H -0.14220 0.33770 0.19858
 H665 H -0.17695 0.31303 0.12171
 H666 H -0.19401 0.27429 0.14450
 H667 H -0.15966 0.29915 0.22183
 H668 H -0.11380 0.41247 0.04978
 H669 H -0.08336 0.44009 0.02361
 H670 H -0.05010 0.46729 0.10060
 H671 H -0.08059 0.43964 0.12643
 C672 C -0.16212 0.67911 -0.15585
 C673 C -0.16176 0.67730 -0.12697
 C674 C -0.17359 0.69610 -0.11118
 C675 C -0.18555 0.71677 -0.12411
 C676 C -0.18592 0.71923 -0.15335
 C677 C -0.17404 0.69977 -0.16894
 C678 C -0.14827 0.65682 -0.11341
 C679 C -0.13640 0.64019 -0.10185
 C680 C -0.12168 0.62137 -0.08819
 C681 C -0.10826 0.60594 -0.07659
 C682 C -0.09107 0.58841 -0.06298
 C683 C -0.07224 0.59785 -0.04451
 C684 C -0.05365 0.58157 -0.03337
 C685 C -0.05362 0.55555 -0.04058
 C686 C -0.07326 0.54594 -0.05826
 C687 C -0.09183 0.56233 -0.06949
 H688 H -0.15310 0.66457 -0.16832
 H689 H -0.17313 0.69508 -0.08875
 H690 H -0.19323 0.73136 -0.11080
 H691 H -0.17449 0.69982 -0.19133
 H692 H -0.07144 0.61799 -0.03933
 H693 H -0.03885 0.58952 -0.01973
 H694 H -0.07368 0.52601 -0.06424
 H695 H -0.10628 0.55483 -0.08383
 C696 C 0.17586 0.67031 0.17851
 C697 C 0.17602 0.66696 0.14982
 C698 C 0.18671 0.68603 0.13275
 C699 C 0.19680 0.70860 0.14417
 C700 C 0.19638 0.71274 0.17315
 C701 C 0.18594 0.69289 0.19010
 C702 C 0.16366 0.64482 0.13756
 C703 C 0.15250 0.62707 0.12665
 C704 C 0.13837 0.60729 0.11328
 C705 C 0.12528 0.59133 0.10153
 C706 C 0.10833 0.57355 0.08727
 C707 C 0.10872 0.57234 0.05831
 C708 C 0.08968 0.55800 0.04420
 C709 C 0.06992 0.54484 0.05896
 C710 C 0.07046 0.54517 0.08810
 C711 C 0.08952 0.55949 0.10215
 H712 H 0.16767 0.65559 0.19195
 H713 H 0.18659 0.68378 0.11044
 H714 H 0.20345 0.72324 0.12981
 H715 H 0.18598 0.69427 0.21244
 H716 H 0.12310 0.58329 0.04658
 H717 H 0.08977 0.55815 0.02176
 H718 H 0.05555 0.53520 0.10005
 H719 H 0.08895 0.56040 0.12456
 C720 C 0.30565 1.15032 0.83078
 C721 C 0.32695 1.16679 0.83559
 C722 C 0.32445 1.19312 0.83127
 C723 C 0.30066 1.20294 0.82231
 C724 C 0.27908 1.18649 0.81760
 C725 C 0.28191 1.16006 0.82187
 C726 C 0.35085 1.15648 0.84611
 C727 C 0.37008 1.14689 0.85566
 C728 C 0.39155 1.13460 0.86782
 C729 C 0.40882 1.12327 0.87920
 C730 C 0.42792 1.10881 0.89413
 C731 C 0.43541 1.11643 0.92076
 C732 C 0.45018 1.10025 0.93740
 C733 C 0.45753 1.07614 0.92764
 C734 C 0.45132 1.06930 0.90023
 C735 C 0.43648 1.08552 0.88363
 H736 H 0.30729 1.12994 0.83429
 H737 H 0.34080 1.20607 0.83502
 H738 H 0.29916 1.22334 0.81896
 H739 H 0.26559 1.14693 0.81891
 H740 H 0.42879 1.13434 0.92917
 H741 H 0.45474 1.10609 0.95838
 H742 H 0.45673 1.05087 0.89215
 H743 H 0.43066 1.07935 0.86310
 C744 C 0.28883 0.84910 1.11370
 C745 C 0.30865 0.86334 1.12671
 C746 C 0.31130 0.86228 1.15556
 C747 C 0.29427 0.84697 1.17137
 C748 C 0.27439 0.83246 1.15847
 C749 C 0.27181 0.83377 1.12945
 C750 C 0.32635 0.87892 1.11046
 C751 C 0.34135 0.89199 1.09712
 C752 C 0.35923 0.90744 1.08205
 C753 C 0.37485 0.92083 1.06990
 C754 C 0.39399 0.93712 1.05655
 C755 C 0.42034 0.93082 1.05770
 C756 C 0.43933 0.94787 1.04750
 C757 C 0.43220 0.97155 1.03615
 C758 C 0.40559 0.97728 1.03403
 C759 C 0.38661 0.96016 1.04423
 H760 H 0.28655 0.84985 1.09139
 H761 H 0.32661 0.87320 1.16583
 H762 H 0.29690 0.84615 1.19362
 H763 H 0.25645 0.82314 1.11896
 H764 H 0.42627 0.91304 1.06721
 H765 H 0.45964 0.94284 1.04932
 H766 H 0.39948 0.99528 1.02523
 H767 H 0.36626 0.96523 1.04325
 C768 C 0.67864 1.15778 1.20526
 C769 C 0.67217 1.15959 1.17714
 C770 C 0.68870 1.17305 1.15898
 C771 C 0.71173 1.18442 1.16872
 C772 C 0.71861 1.18255 1.19687
 C773 C 0.70174 1.16921 1.21510
 C774 C 0.64933 1.14680 1.16624
 C775 C 0.63101 1.13605 1.15545
 C776 C 0.61071 1.12346 1.14087
 C777 C 0.59455 1.11272 1.12676
 C778 C 0.57691 1.09996 1.10795
 C779 C 0.57585 1.10830 1.08041
 C780 C 0.56183 1.09418 1.06079
 C781 C 0.54861 1.07142 1.06844
 C782 C 0.54868 1.06379 1.09645
 C783 C 0.56290 1.07794 1.11609
 H784 H 0.66602 1.14734 1.21949
 H785 H 0.68399 1.17438 1.13713
 H786 H 0.72448 1.19412 1.15404
 H787 H 0.70640 1.16764 1.23692
 H788 H 0.58670 1.12525 1.07385
 H789 H 0.56206 1.10065 1.03944
 H790 H 0.53872 1.04634 1.10296
 H791 H 0.56371 1.07123 1.13733
 C792 C 0.70763 0.84721 0.89375
 C793 C 0.68664 0.85765 0.87938
 C794 C 0.68336 0.85258 0.85113
 C795 C 0.70118 0.83741 0.83720
 C796 C 0.72256 0.82710 0.85136
 C797 C 0.72548 0.83199 0.87986
 C798 C 0.66881 0.87417 0.89329
 C799 C 0.65382 0.88834 0.90435
 C800 C 0.63612 0.90526 0.91653
 C801 C 0.62080 0.91994 0.92618
 C802 C 0.60219 0.93769 0.93669
 C803 C 0.57565 0.93108 0.93685
 C804 C 0.55728 0.94893 0.94496
 C805 C 0.56525 0.97371 0.95290
 C806 C 0.59202 0.98000 0.95338
 C807 C 0.61037 0.96208 0.94528
 H808 H 0.71041 0.85110 0.91560
 H809 H 0.66715 0.86054 0.83981
 H810 H 0.69824 0.83372 0.81535
 H811 H 0.74192 0.82459 0.89124
 H812 H 0.56910 0.91227 0.93019
 H813 H 0.53682 0.94350 0.94450
 H814 H 0.59874 0.99887 0.95957
 H815 H 0.63087 0.96741 0.94522
   
