data_POSCAR
  _audit_creation_date              2014-09-24
  _audit_creation_method            'ToBaCCo'
  _symmetry_space_group_name_H-M    'P1'
  _symmetry_Int_Tables_number       1
  _symmetry_cell_setting            triclinic
  loop_
  _symmetry_equiv_pos_as_xyz
 x,y,z
_cell_length_a 25.3923
_cell_length_b 34.3779
_cell_length_c 30.2193
_cell_angle_alpha 90.504300
_cell_angle_beta 89.008100
_cell_angle_gamma 86.777900
loop_
  _atom_site_label
  _atom_site_type_symbol
  _atom_site_fract_x
  _atom_site_fract_y
  _atom_site_fract_z
C1 C 0.28469 0.29572 0.20093
 C2 C 0.25917 0.27553 0.23441
 C3 C 0.23458 0.29621 0.26996
 C4 C 0.23783 0.33665 0.27393
 C5 C 0.26419 0.35655 0.24064
 C6 C 0.28674 0.33640 0.20368
 C7 C 0.25944 0.23268 0.23403
 C8 C 0.27981 0.21217 0.27036
 C9 C 0.27547 0.17189 0.27347
 C10 C 0.25087 0.15206 0.23954
 C11 C 0.23259 0.17186 0.20172
 C12 C 0.23694 0.21241 0.19929
 H13 H 0.30345 0.27985 0.17322
 H14 H 0.21304 0.28061 0.29479
 H15 H 0.29897 0.22771 0.29640
 H16 H 0.22154 0.22831 0.17107
 H17 H 0.26700 0.38782 0.24331
 H18 H 0.24613 0.12106 0.24260
 C19 C 0.79763 0.79334 0.21551
 C20 C 0.76635 0.77307 0.24496
 C21 C 0.73251 0.79356 0.27511
 C22 C 0.72824 0.83456 0.27532
 C23 C 0.76143 0.85450 0.24653
 C24 C 0.79685 0.83431 0.21678
 C25 C 0.76837 0.73024 0.24389
 C26 C 0.79513 0.70901 0.27682
 C27 C 0.79641 0.66820 0.27627
 C28 C 0.76841 0.64893 0.24384
 C29 C 0.74306 0.66974 0.20965
 C30 C 0.74326 0.71061 0.21001
 H31 H 0.82208 0.77703 0.19124
 H32 H 0.70966 0.77740 0.29853
 H33 H 0.81572 0.72419 0.30228
 H34 H 0.72337 0.72724 0.18430
 H35 H 0.75948 0.88608 0.24711
 H36 H 0.76727 0.61748 0.24489
 C37 C 0.77525 0.28838 0.71066
 C38 C 0.74532 0.27168 0.74414
 C39 C 0.72222 0.29540 0.77804
 C40 C 0.72963 0.33568 0.77960
 C41 C 0.76019 0.35181 0.74580
 C42 C 0.78396 0.32831 0.71201
 C43 C 0.74098 0.22908 0.74592
 C44 C 0.75737 0.20900 0.78392
 C45 C 0.75268 0.16857 0.78752
 C46 C 0.73076 0.14870 0.75193
 C47 C 0.71610 0.16807 0.71286
 C48 C 0.72122 0.20846 0.71017
 H49 H 0.79347 0.27012 0.68458
 H50 H 0.69974 0.28205 0.80407
 H51 H 0.77632 0.22493 0.80973
 H52 H 0.70927 0.22393 0.68057
 H53 H 0.76508 0.38293 0.74524
 H54 H 0.72451 0.11788 0.75475
 C55 C 0.27199 0.79756 0.70346
 C56 C 0.24754 0.77859 0.73849
 C57 C 0.21750 0.80033 0.77017
 C58 C 0.21050 0.84082 0.76646
 C59 C 0.23577 0.85977 0.73189
 C60 C 0.26626 0.83844 0.69950
 C61 C 0.25116 0.73582 0.74125
 C62 C 0.27504 0.71754 0.77764
 C63 C 0.27514 0.67696 0.78203
 C64 C 0.25088 0.65483 0.74983
 C65 C 0.22807 0.67271 0.71263
 C66 C 0.22830 0.71334 0.70858
 H67 H 0.29452 0.78024 0.67883
 H68 H 0.19833 0.78563 0.79711
 H69 H 0.29377 0.73486 0.80236
 H70 H 0.20972 0.72754 0.68053
 H71 H 0.23230 0.89131 0.73087
 H72 H 0.24998 0.62355 0.75368
 C73 C 0.08811 0.04762 0.01641
 H74 H 0.10165 0.03419 -0.01451
 C75 C 0.12221 0.06967 0.04076
 H76 H 0.16184 0.07330 0.02827
 C77 C 0.01917 0.06143 0.06900
 H78 H -0.02138 0.05849 0.07943
 C79 C 0.05252 0.08237 0.09525
 H80 H 0.03756 0.09519 0.12616
 N81 N 0.03804 0.04309 0.03146
 C82 C 0.01823 -0.01752 -0.08664
 H83 H -0.01442 0.00138 -0.09722
 C84 C 0.04618 -0.04107 -0.11781
 H85 H 0.03556 -0.03958 -0.15234
 C86 C 0.07129 -0.04357 -0.02899
 H87 H 0.08048 -0.04444 0.00582
 C88 C 0.10013 -0.06778 -0.05908
 H89 H 0.13174 -0.08735 -0.04747
 Zn90 Zn -0.00744 0.01145 -0.00007
 N91 N 0.03139 -0.01896 -0.04319
 C92 C -0.03897 0.07042 -0.05758
 N93 N -0.05826 0.04491 -0.02809
 C94 C -0.11114 0.04287 -0.02096
 C95 C -0.14686 0.06516 -0.04637
 C96 C -0.07319 0.09302 -0.08378
 C97 C -0.02356 -0.02801 0.08102
 C98 C -0.04742 -0.05396 0.10921
 C99 C -0.10202 -0.07290 0.04889
 C100 C -0.07688 -0.04669 0.02172
 N101 N -0.03951 -0.02405 0.03843
 H102 H 0.00323 0.07182 -0.06216
 H103 H -0.12580 0.02334 0.00354
 H104 H -0.18887 0.06230 -0.04184
 H105 H -0.05738 0.11191 -0.10861
 H106 H 0.00799 -0.01139 0.09325
 H107 H -0.03519 -0.05626 0.14329
 H108 H -0.13263 -0.09009 0.03561
 H109 H -0.08763 -0.04398 -0.01264
 C110 C 0.08716 -0.06690 -0.10395
 C111 C 0.10523 0.08582 0.08178
 C112 C -0.08728 -0.07656 0.09318
 C113 C -0.12767 0.08990 -0.07875
 C114 C 0.09226 0.54738 0.52508
 H115 H 0.10453 0.54032 0.49141
 C116 C 0.12312 0.57079 0.55080
 H117 H 0.15907 0.58148 0.53686
 C118 C 0.02920 0.54434 0.58336
 H119 H -0.00860 0.53544 0.59527
 C120 C 0.05942 0.56699 0.61059
 H121 H 0.04544 0.57439 0.64384
 N122 N 0.04743 0.53310 0.54230
 C123 C 0.03013 0.45203 0.43296
 H124 H -0.01136 0.45821 0.42703
 C125 C 0.06036 0.42832 0.40338
 H126 H 0.04191 0.41618 0.37473
 C127 C 0.10459 0.46010 0.47766
 H128 H 0.12140 0.47167 0.50726
 C129 C 0.13659 0.43736 0.44828
 H130 H 0.17830 0.43274 0.45469
 Zn131 Zn 0.00778 0.49972 0.50656
 N132 N 0.05263 0.46775 0.46898
 C133 C -0.00864 0.55360 0.44037
 N134 N -0.03535 0.53236 0.47011
 C135 C -0.08907 0.53436 0.47194
 C136 C -0.11785 0.55638 0.44092
 C137 C -0.03576 0.57666 0.40963
 C138 C -0.01709 0.45663 0.58321
 C139 C -0.04521 0.43100 0.60874
 C140 C -0.10062 0.42028 0.54620
 C141 C -0.07167 0.44646 0.52195
 N142 N -0.03192 0.46516 0.54116
 H143 H 0.03398 0.55190 0.43982
 H144 H -0.10976 0.51856 0.49690
 H145 H -0.16053 0.55671 0.44160
 H146 H -0.01381 0.59312 0.38591
 H147 H 0.01712 0.46915 0.59698
 H148 H -0.03394 0.42557 0.64263
 H149 H -0.13277 0.40615 0.53078
 H150 H -0.08098 0.45181 0.48769
 C151 C 0.11434 0.42080 0.41084
 C152 C 0.10784 0.57943 0.59475
 C153 C -0.08746 0.41242 0.59021
 C154 C -0.09094 0.57690 0.40847
 C155 C 0.59039 0.03987 0.52038
 H156 H 0.60680 0.02600 0.49060
 C157 C 0.62210 0.06223 0.54672
 H158 H 0.66282 0.06553 0.53693
 C159 C 0.51656 0.05504 0.56762
 H160 H 0.47499 0.05285 0.57495
 C161 C 0.54732 0.07630 0.59583
 H162 H 0.52935 0.08988 0.62527
 N163 N 0.53893 0.03589 0.53183
 C164 C 0.57699 -0.05069 0.47314
 H165 H 0.58444 -0.05044 0.50828
 C166 C 0.60787 -0.07537 0.44485
 H167 H 0.63941 -0.09406 0.45812
 C168 C 0.52653 -0.02694 0.41277
 H169 H 0.49421 -0.00861 0.40046
 C170 C 0.55615 -0.05131 0.38344
 H171 H 0.54713 -0.05114 0.34853
 Zn172 Zn 0.49584 0.00510 0.49662
 N173 N 0.53764 -0.02680 0.45667
 C174 C 0.47459 0.06442 0.43658
 N175 N 0.45061 0.03980 0.46446
 C176 C 0.39707 0.03976 0.46782
 C177 C 0.36557 0.06358 0.44049
 C178 C 0.44464 0.08872 0.40878
 C179 C 0.46389 -0.03175 0.57638
 C180 C 0.43226 -0.05508 0.60198
 C181 C 0.38820 -0.07390 0.53555
 C182 C 0.42076 -0.05026 0.51118
 N183 N 0.45638 -0.02865 0.53201
 H184 H 0.51721 0.06414 0.43492
 H185 H 0.37861 0.02082 0.49099
 H186 H 0.32306 0.06229 0.44215
 H187 H 0.46425 0.10725 0.38565
 H188 H 0.49427 -0.01617 0.59215
 H189 H 0.43760 -0.05658 0.63742
 H190 H 0.35888 -0.09010 0.51887
 H191 H 0.41675 -0.04831 0.47568
 C192 C 0.59716 -0.07591 0.39954
 C193 C 0.60118 0.07934 0.58608
 C194 C 0.39309 -0.07561 0.58159
 C195 C 0.38952 0.08808 0.41025
 C196 C 0.59863 0.55001 0.02104
 H197 H 0.61287 0.53845 -0.01061
 C198 C 0.63146 0.57175 0.04693
 H199 H 0.67078 0.57703 0.03480
 C200 C 0.52886 0.56001 0.07361
 H201 H 0.48822 0.55629 0.08318
 C202 C 0.56120 0.58023 0.10157
 H203 H 0.54548 0.59126 0.13307
 N204 N 0.54883 0.54355 0.03535
 C205 C 0.53937 0.48285 -0.08449
 H206 H 0.50697 0.50097 -0.09709
 C207 C 0.57084 0.45963 -0.11376
 H208 H 0.56299 0.46026 -0.14887
 C209 C 0.58827 0.45857 -0.02348
 H210 H 0.59437 0.45817 0.01186
 C211 C 0.62083 0.43503 -0.05161
 H212 H 0.65216 0.41636 -0.03798
 Zn213 Zn 0.50603 0.51261 0.00013
 N214 N 0.54888 0.48217 -0.04031
 C215 C 0.48276 0.57287 -0.05810
 N216 N 0.45964 0.54704 -0.03118
 C217 C 0.40620 0.54586 -0.02807
 C218 C 0.37398 0.56984 -0.05466
 C219 C 0.45207 0.59747 -0.08502
 C220 C 0.47771 0.47298 0.07906
 C221 C 0.44768 0.44847 0.10451
 C222 C 0.40229 0.43044 0.03847
 C223 C 0.43307 0.45546 0.01428
 N224 N 0.46848 0.47729 0.03507
 H225 H 0.52530 0.57345 -0.05960
 H226 H 0.38840 0.52591 -0.00568
 H227 H 0.33161 0.56760 -0.05329
 H228 H 0.47106 0.61707 -0.10732
 H229 H 0.50838 0.48834 0.09465
 H230 H 0.45435 0.44613 0.13972
 H231 H 0.37323 0.41397 0.02184
 H232 H 0.42795 0.45817 -0.02105
 C233 C 0.61234 0.43573 -0.09729
 C234 C 0.61380 0.58536 0.08888
 C235 C 0.40852 0.42776 0.08435
 C236 C 0.39707 0.59577 -0.08378
 C237 C 0.12200 -0.14206 -0.19577
 C238 C 0.17671 -0.13650 -0.20101
 C239 C 0.20030 -0.10918 -0.17428
 C240 C 0.17080 -0.08750 -0.14254
 C241 C 0.11680 -0.09248 -0.13651
 C242 C 0.09205 -0.12046 -0.16261
 C243 C 0.09615 -0.16819 -0.22318
 C244 C 0.04275 -0.17424 -0.21671
 C245 C 0.01407 -0.15442 -0.18305
 C246 C 0.03829 -0.12779 -0.15617
 H247 H 0.11670 -0.18400 -0.24998
 H248 H 0.02357 -0.19454 -0.23781
 H249 H -0.02723 -0.15959 -0.17786
 H250 H 0.01457 -0.11332 -0.13020
 H251 H 0.24204 -0.10469 -0.17797
 H252 H 0.19016 -0.06623 -0.12283
 C253 C 0.21528 0.34679 0.35619
 C254 C 0.21055 0.35838 0.31131
 C255 C 0.17587 0.38999 0.30096
 C256 C 0.14552 0.40960 0.33367
 C257 C 0.14763 0.39784 0.37791
 C258 C 0.18196 0.36556 0.38941
 C259 C 0.25268 0.31720 0.36896
 C260 C 0.25433 0.30425 0.41252
 C261 C 0.21911 0.32055 0.44419
 C262 C 0.18325 0.35091 0.43294
 H263 H 0.28127 0.30401 0.34565
 H264 H 0.28281 0.28123 0.42166
 H265 H 0.21988 0.30983 0.47776
 H266 H 0.15634 0.36237 0.45856
 H267 H 0.17146 0.39924 0.26697
 H268 H 0.11980 0.43424 0.32423
 C269 C 0.63972 -0.15384 0.31261
 C270 C 0.69326 -0.14441 0.30510
 C271 C 0.71257 -0.11296 0.32888
 C272 C 0.68134 -0.09207 0.36008
 C273 C 0.62939 -0.10143 0.36864
 C274 C 0.60827 -0.13278 0.34543
 C275 C 0.61524 -0.18164 0.28624
 C276 C 0.56332 -0.19096 0.29473
 C277 C 0.53415 -0.17230 0.32885
 C278 C 0.55607 -0.14326 0.35382
 H279 H 0.63518 -0.19579 0.25810
 H280 H 0.54552 -0.21262 0.27450
 H281 H 0.49395 -0.17983 0.33544
 H282 H 0.53171 -0.12902 0.37958
 H283 H 0.75304 -0.10508 0.32446
 H284 H 0.69778 -0.06800 0.37749
 C285 C 0.72977 0.39012 -0.16470
 C286 C 0.70452 0.35956 -0.18690
 C287 C 0.65120 0.35402 -0.17657
 C288 C 0.62231 0.37911 -0.14781
 C289 C 0.64553 0.41044 -0.12770
 C290 C 0.69958 0.41626 -0.13589
 C291 C 0.78491 0.39391 -0.16806
 C292 C 0.80859 0.42454 -0.14712
 C293 C 0.77830 0.45158 -0.12169
 C294 C 0.72437 0.44747 -0.11578
 H295 H 0.81053 0.37282 -0.18592
 H296 H 0.85074 0.42719 -0.15048
 H297 H 0.79686 0.47546 -0.10576
 H298 H 0.70246 0.46880 -0.09514
 H299 H 0.63051 0.33125 -0.19267
 H300 H 0.58108 0.37421 -0.14143
 C301 C -0.22842 0.16183 -0.13157
 C302 C -0.22535 0.14772 -0.17624
 C303 C -0.19493 0.11297 -0.18546
 C304 C -0.16453 0.09465 -0.15317
 C305 C -0.16377 0.10979 -0.11019
 C306 C -0.19647 0.14313 -0.09867
 C307 C -0.26459 0.19265 -0.11817
 C308 C -0.26605 0.20666 -0.07470
 C309 C -0.23245 0.18988 -0.04343
 C310 C -0.19814 0.15823 -0.05507
 H311 H -0.29286 0.20565 -0.14081
 H312 H -0.29363 0.23055 -0.06516
 H313 H -0.23365 0.20099 -0.00978
 H314 H -0.17342 0.14549 -0.02958
 H315 H -0.19127 0.10115 -0.21880
 H316 H -0.14006 0.06884 -0.16216
 C317 C -0.13140 0.61753 0.29562
 C318 C -0.17219 0.64528 0.30896
 C319 C -0.18536 0.64970 0.35398
 C320 C -0.15927 0.62692 0.38565
 C321 C -0.11996 0.59844 0.37319
 C322 C -0.10708 0.59260 0.32759
 C323 C -0.11366 0.61440 0.25114
 C324 C -0.07658 0.58507 0.23770
 C325 C -0.05609 0.55858 0.26831
 C326 C -0.07097 0.56222 0.31285
 H327 H -0.12760 0.63500 0.22663
 H328 H -0.06393 0.58276 0.20334
 H329 H -0.02804 0.53538 0.25761
 H330 H -0.05428 0.54080 0.33537
 H331 H -0.21634 0.67084 0.36467
 H332 H -0.16958 0.63177 0.42027
 C333 C 0.28907 0.15955 0.35581
 C334 C 0.30015 0.15008 0.31061
 C335 C 0.33852 0.12050 0.29988
 C336 C 0.36672 0.10099 0.33271
 C337 C 0.35769 0.11038 0.37747
 C338 C 0.31876 0.13999 0.38948
 C339 C 0.24884 0.18772 0.36836
 C340 C 0.23974 0.19769 0.41277
 C341 C 0.27019 0.17976 0.44546
 C342 C 0.30931 0.15113 0.43411
 H343 H 0.22380 0.20205 0.34416
 H344 H 0.20901 0.21955 0.42186
 H345 H 0.26326 0.18793 0.47983
 H346 H 0.33215 0.13807 0.46054
 H347 H 0.34761 0.11299 0.26558
 H348 H 0.39617 0.07832 0.32305
 C349 C 0.29174 0.66473 -0.13608
 C350 C 0.30377 0.65710 -0.18148
 C351 C 0.34530 0.63026 -0.19313
 C352 C 0.37509 0.61123 -0.16094
 C353 C 0.36452 0.61839 -0.11588
 C354 C 0.32294 0.64567 -0.10299
 C355 C 0.24893 0.69041 -0.12275
 C356 C 0.23851 0.69839 -0.07804
 C357 C 0.27024 0.68098 -0.04584
 C358 C 0.31210 0.65487 -0.05802
 H359 H 0.22297 0.70431 -0.14660
 H360 H 0.20572 0.71830 -0.06831
 H361 H 0.26224 0.68762 -0.01121
 H362 H 0.33597 0.64224 -0.03195
 H363 H 0.35502 0.62416 -0.22766
 H364 H 0.40657 0.59037 -0.17132
 C365 C -0.11718 -0.15514 0.17787
 C366 C -0.17165 -0.14488 0.18706
 C367 C -0.19572 -0.11295 0.16479
 C368 C -0.16814 -0.09225 0.13363
 C369 C -0.11526 -0.10231 0.12350
 C370 C -0.08945 -0.13430 0.14499
 C371 C -0.08834 -0.18361 0.20261
 C372 C -0.03557 -0.19378 0.19241
 C373 C -0.00992 -0.17537 0.15813
 C374 C -0.03631 -0.14569 0.13477
 H375 H -0.10555 -0.19766 0.23077
 H376 H -0.01438 -0.21596 0.21138
 H377 H 0.03094 -0.18359 0.15016
 H378 H -0.01468 -0.13172 0.10878
 H379 H -0.23707 -0.10449 0.17037
 H380 H -0.18820 -0.06770 0.11758
 C381 C -0.12728 0.33494 0.67300
 C382 C -0.18174 0.34607 0.67843
 C383 C -0.20401 0.37622 0.65272
 C384 C -0.17325 0.39616 0.62296
 C385 C -0.11920 0.38645 0.61764
 C386 C -0.09616 0.35458 0.64144
 C387 C -0.10255 0.30548 0.69900
 C388 C -0.04944 0.29408 0.69223
 C389 C -0.01988 0.31180 0.65974
 C390 C -0.04281 0.34177 0.63453
 H391 H -0.12365 0.29111 0.72494
 H392 H -0.03119 0.27124 0.71217
 H393 H 0.02116 0.30246 0.65424
 H394 H -0.01850 0.35454 0.60942
 H395 H -0.24551 0.38504 0.65651
 H396 H -0.19150 0.42038 0.60504
 C397 C 0.27041 -0.10955 0.64234
 C398 C 0.29332 -0.14214 0.66556
 C399 C 0.34657 -0.15369 0.65665
 C400 C 0.37781 -0.13203 0.62904
 C401 C 0.35704 -0.09837 0.60870
 C402 C 0.30291 -0.08695 0.61482
 C403 C 0.21543 -0.10011 0.64378
 C404 C 0.19397 -0.06739 0.62222
 C405 C 0.22643 -0.04377 0.59815
 C406 C 0.28034 -0.05343 0.59419
 H407 H 0.18834 -0.11831 0.66073
 H408 H 0.15189 -0.06039 0.62412
 H409 H 0.20961 -0.01820 0.58179
 H410 H 0.30394 -0.03454 0.57459
 H411 H 0.36551 -0.17827 0.67346
 H412 H 0.41908 -0.14116 0.62426
 C413 C 0.28891 0.38887 0.14516
 C414 C 0.31445 0.35810 0.16905
 C415 C 0.36862 0.34967 0.16251
 C416 C 0.39807 0.37208 0.13425
 C417 C 0.37428 0.40360 0.11160
 C418 C 0.31920 0.41229 0.11683
 C419 C 0.23383 0.39689 0.14885
 C420 C 0.20950 0.42818 0.12660
 C421 C 0.23937 0.45201 0.10036
 C422 C 0.29367 0.44433 0.09548
 H423 H 0.20906 0.37898 0.16866
 H424 H 0.16729 0.43408 0.12991
 H425 H 0.22033 0.47653 0.08358
 H426 H 0.31524 0.46386 0.07507
 H427 H 0.38862 0.32628 0.18059
 H428 H 0.44010 0.36520 0.13058
 C429 C 0.22513 0.11408 0.14893
 C430 C 0.20508 0.15047 0.16669
 C431 C 0.15509 0.16526 0.15406
 C432 C 0.12432 0.14427 0.12586
 C433 C 0.14153 0.10710 0.11025
 C434 C 0.19217 0.09133 0.12248
 C435 C 0.27731 0.09975 0.15688
 C436 C 0.29511 0.06261 0.14252
 C437 C 0.26145 0.03907 0.12008
 C438 C 0.21046 0.05308 0.11021
 H439 H 0.30490 0.11714 0.17398
 H440 H 0.33501 0.05187 0.14932
 H441 H 0.27504 0.00988 0.10998
 H442 H 0.18563 0.03338 0.09344
 H443 H 0.13890 0.19292 0.16717
 H444 H 0.08603 0.15696 0.11681
 C445 C 0.22556 0.61547 0.65865
 C446 C 0.20098 0.64910 0.67951
 C447 C 0.14793 0.65929 0.67107
 C448 C 0.11882 0.63650 0.64343
 C449 C 0.14142 0.60235 0.62374
 C450 C 0.19510 0.59115 0.63187
 C451 C 0.27989 0.60556 0.66356
 C452 C 0.30285 0.57126 0.64508
 C453 C 0.27237 0.54624 0.62140
 C454 C 0.21903 0.55590 0.61484
 H455 H 0.30520 0.62428 0.68137
 H456 H 0.34444 0.56391 0.64945
 H457 H 0.29021 0.51930 0.60782
 H458 H 0.19690 0.53527 0.59673
 H459 H 0.12848 0.68481 0.68677
 H460 H 0.07798 0.64552 0.63755
 C461 C 0.71404 0.10948 0.66047
 C462 C 0.69227 0.14613 0.67619
 C463 C 0.64375 0.16052 0.65987
 C464 C 0.61589 0.13884 0.63009
 C465 C 0.63454 0.10137 0.61649
 C466 C 0.68381 0.08605 0.63241
 C467 C 0.76530 0.09553 0.67211
 C468 C 0.78449 0.05816 0.65979
 C469 C 0.75315 0.03401 0.63578
 C470 C 0.70327 0.04760 0.62228
 H471 H 0.79111 0.11341 0.69054
 H472 H 0.82360 0.04773 0.66942
 H473 H 0.76771 0.00464 0.62728
 H474 H 0.68019 0.02744 0.60442
 H475 H 0.62635 0.18839 0.67129
 H476 H 0.57865 0.15123 0.61820
 C477 C 0.73516 0.61445 0.15338
 C478 C 0.71388 0.64879 0.17516
 C479 C 0.66173 0.66178 0.16676
 C480 C 0.63054 0.64116 0.13846
 C481 C 0.64942 0.60580 0.11891
 C482 C 0.70181 0.59144 0.12769
 C483 C 0.78907 0.60255 0.15625
 C484 C 0.80845 0.56682 0.13880
 C485 C 0.77458 0.54238 0.11798
 C486 C 0.72177 0.55440 0.11243
 H487 H 0.81673 0.62100 0.17140
 H488 H 0.84977 0.55789 0.14194
 H489 H 0.78942 0.51415 0.10556
 H490 H 0.69690 0.53414 0.09660
 H491 H 0.64449 0.68787 0.18286
 H492 H 0.59089 0.65283 0.13216
   
