data_POSCAR
  _audit_creation_date              2014-09-24
  _audit_creation_method            'ToBaCCo'
  _symmetry_space_group_name_H-M    'P1'
  _symmetry_Int_Tables_number       1
  _symmetry_cell_setting            triclinic
  loop_
  _symmetry_equiv_pos_as_xyz
 x,y,z
_cell_length_a 28.6591
_cell_length_b 28.5562
_cell_length_c 28.3137
_cell_angle_alpha 90.793600
_cell_angle_beta 88.954800
_cell_angle_gamma 89.274500
loop_
  _atom_site_label
  _atom_site_type_symbol
  _atom_site_fract_x
  _atom_site_fract_y
  _atom_site_fract_z
C1 C 0.17901 1.25448 0.17785
 C2 C 0.16343 1.23404 0.22045
 C3 C 0.18581 1.19432 0.23963
 C4 C 0.22516 1.17546 0.21509
 C5 C 0.24137 1.19494 0.17283
 C6 C 0.21799 1.23374 0.15428
 H7 H 0.13528 1.25087 0.24036
 H8 H 0.24231 1.14397 0.22699
 H9 H 0.23032 1.24681 0.12075
 C10 C 0.80112 0.75554 0.19271
 C11 C 0.82523 0.77752 0.22999
 C12 C 0.81014 0.82087 0.24909
 C13 C 0.77053 0.84279 0.23081
 C14 C 0.74561 0.82190 0.19423
 C15 C 0.76081 0.77837 0.17572
 H16 H 0.85742 0.76277 0.24281
 H17 H 0.75854 0.87607 0.24570
 H18 H 0.74081 0.76241 0.14796
 C19 C 0.82181 1.24162 -0.18872
 C20 C 0.84452 1.21746 -0.22667
 C21 C 0.83125 1.17217 -0.24162
 C22 C 0.79247 1.15205 -0.21861
 C23 C 0.76923 1.17503 -0.18080
 C24 C 0.78380 1.21955 -0.16631
 H25 H 0.87342 1.23391 -0.24424
 H26 H 0.77898 1.11879 -0.23024
 H27 H 0.76680 1.23514 -0.13546
 C28 C 0.18113 0.75595 -0.17752
 C29 C 0.16199 0.77952 -0.21588
 C30 C 0.18683 0.81504 -0.23939
 C31 C 0.23202 0.82588 -0.22363
 C32 C 0.25101 0.80338 -0.18443
 C33 C 0.22574 0.76775 -0.16246
 H34 H 0.12812 0.76881 -0.22796
 H35 H 0.25098 0.85452 -0.23923
 H36 H 0.24013 0.75040 -0.13209
 C37 C 0.54716 1.07985 -0.03545
 H38 H 0.52610 1.09715 -0.00822
 C39 C 0.58292 1.10437 -0.05788
 H40 H 0.58848 1.14056 -0.04787
 C41 C 0.56834 1.01057 -0.07801
 H42 H 0.56324 0.97359 -0.08457
 C43 C 0.60428 1.03380 -0.10152
 H44 H 0.62572 1.01453 -0.12714
 N45 N 0.54084 1.03370 -0.04554
 C46 C 0.44833 1.03006 0.07311
 H47 H 0.46601 1.00220 0.09135
 C48 C 0.41542 1.05816 0.09752
 H49 H 0.40838 1.05135 0.13444
 C50 C 0.43358 1.07000 0.00207
 H51 H 0.44052 1.07393 -0.03534
 C52 C 0.40086 1.09925 0.02517
 H53 H 0.38344 1.12615 0.00523
 Zn54 Zn 0.49998 0.99782 -0.00798
 N55 N 0.45722 1.03687 0.02638
 C56 C 0.55970 0.98846 0.06817
 N57 N 0.53849 0.96383 0.03341
 C58 C 0.54752 0.91733 0.02647
 C59 C 0.57792 0.89355 0.05611
 C60 C 0.58992 0.96603 0.09888
 C61 C 0.45758 0.96305 -0.09188
 C62 C 0.42723 0.93409 -0.11677
 C63 C 0.41187 0.89226 -0.04470
 C64 C 0.44129 0.92270 -0.02110
 N65 N 0.46397 0.95679 -0.04490
 H66 H 0.55298 1.02569 0.07208
 H67 H 0.53214 0.89881 -0.00278
 H68 H 0.58528 0.85681 0.04921
 H69 H 0.60558 0.98627 0.12689
 H70 H 0.47478 0.99145 -0.10975
 H71 H 0.42144 0.94096 -0.15367
 H72 H 0.39538 0.86472 -0.02485
 H73 H 0.44608 0.91922 0.01650
 C74 C 0.39138 1.09371 0.07367
 C75 C 0.61281 1.08109 -0.09067
 C76 C 0.40363 0.89805 -0.09312
 C77 C 0.59947 0.91786 0.09314
 C78 C -0.03506 0.56818 1.07084
 H79 H 0.00246 0.56677 1.07435
 C80 C -0.06183 0.59842 1.09977
 H81 H -0.04458 0.62042 1.12536
 C82 C -0.10267 0.54262 1.03156
 H83 H -0.11832 0.52161 1.00423
 C84 C -0.13074 0.57279 1.05942
 H85 H -0.16801 0.57412 1.05381
 N86 N -0.05576 0.54060 1.03799
 C87 C 0.05453 0.43599 1.01326
 H88 H 0.05905 0.43865 0.97537
 C89 C 0.08282 0.40536 1.03841
 H90 H 0.10888 0.38425 1.01953
 C91 C 0.01386 0.45929 1.08349
 H92 H -0.01359 0.47971 1.10083
 C93 C 0.04107 0.42880 1.10996
 H94 H 0.03479 0.42672 1.14769
 Zn95 Zn -0.01579 0.50278 0.99909
 N96 N 0.02138 0.46272 1.03610
 C97 C 0.06832 0.54826 0.97337
 N98 N 0.02207 0.54440 0.96444
 C99 C 0.00070 0.57310 0.93337
 C100 C 0.02608 0.60714 0.90949
 C101 C 0.09491 0.58217 0.95070
 C102 C -0.08223 0.43514 0.97837
 C103 C -0.10731 0.40402 0.95047
 C104 C -0.06498 0.43138 0.88183
 C105 C -0.04119 0.46250 0.91096
 N106 N -0.05032 0.46395 0.95828
 H107 H 0.08438 0.52620 0.99932
 H108 H -0.03631 0.56978 0.92751
 H109 H 0.00826 0.62903 0.88449
 H110 H 0.13132 0.58547 0.95951
 H111 H -0.08789 0.43615 1.01625
 H112 H -0.13218 0.38097 0.96715
 H113 H -0.05704 0.43027 0.84428
 H114 H -0.01464 0.48457 0.89587
 C115 C 0.07631 0.40157 1.08747
 C116 C -0.11034 0.60106 1.09418
 C117 C -0.09857 0.40170 0.90156
 C118 C 0.07379 0.61263 0.91856
 C119 C 1.10309 -0.03333 0.54140
 H120 H 1.11895 -0.00332 0.52505
 C121 C 1.12638 -0.05666 0.57735
 H122 H 1.16032 -0.04444 0.58779
 C123 C 1.03742 -0.08198 0.55138
 H124 H 1.00185 -0.09022 0.54264
 C125 C 1.05971 -0.10678 0.58672
 H126 H 1.04142 -0.13531 0.60325
 N127 N 1.05911 -0.04587 0.52973
 C128 C 1.04521 0.08072 0.45374
 H129 H 1.01568 0.09400 0.47429
 C130 C 1.06908 0.11066 0.42356
 H131 H 1.05829 0.14708 0.42212
 C132 C 1.09354 0.01677 0.42882
 H133 H 1.10205 -0.02018 0.43040
 C134 C 1.11852 0.04558 0.39816
 H135 H 1.14615 0.03042 0.37606
 Zn136 Zn 1.02155 -0.00630 0.49294
 N137 N 1.05782 0.03475 0.45598
 C138 C 1.00611 0.06032 0.56433
 N139 N 0.98409 0.02806 0.53723
 C140 C 0.93832 0.01797 0.54492
 C141 C 0.91276 0.04119 0.58087
 C142 C 0.98172 0.08492 0.59996
 C143 C 0.99143 -0.08665 0.44074
 C144 C 0.96254 -0.11023 0.40928
 C145 C 0.91929 -0.03810 0.39879
 C146 C 0.94930 -0.01588 0.42984
 N147 N 0.98379 -0.04049 0.45098
 H148 H 1.04289 0.06661 0.55843
 H149 H 0.92191 -0.00904 0.52418
 H150 H 0.87646 0.03261 0.58686
 H151 H 0.99992 0.11030 0.62135
 H152 H 1.02026 -0.10514 0.45645
 H153 H 0.96972 -0.14678 0.40123
 H154 H 0.89116 -0.01790 0.38378
 H155 H 0.94464 0.02106 0.43784
 C156 C 1.10606 0.09316 0.39496
 C157 C 1.10411 -0.09308 0.60159
 C158 C 0.92539 -0.08607 0.38820
 C159 C 0.93458 0.07510 0.60891
 C160 C 0.11079 0.30838 1.17454
 C161 C 0.15629 0.29495 1.15971
 C162 C 0.17803 0.32455 1.12608
 C163 C 0.15290 0.36065 1.10404
 C164 C 0.10536 0.36880 1.11503
 C165 C 0.08621 0.34405 1.15272
 C166 C 0.04108 0.31895 1.15582
 C167 C 0.06754 0.27984 1.17975
 H168 H 0.21433 0.32012 1.11586
 H169 H 0.17036 0.38109 1.07725
 H170 H 0.02770 0.30874 1.12057
 H171 H 0.01540 0.33733 1.17967
 H172 H 0.06926 0.24665 1.15875
 H173 H 0.05652 0.27619 1.21724
 C174 C -0.19693 0.69763 1.12688
 C175 C -0.18272 0.71244 1.17204
 C176 C -0.15095 0.68213 1.19503
 C177 C -0.12941 0.64397 1.17082
 C178 C -0.13922 0.63446 1.12311
 C179 C -0.17579 0.65978 1.10326
 C180 C -0.17786 0.68279 1.05643
 C181 C -0.20075 0.72439 1.08190
 H182 H -0.14141 0.68796 1.23136
 H183 H -0.10346 0.62330 1.18884
 H184 H -0.20166 0.66442 1.03200
 H185 H -0.14270 0.69048 1.04142
 H186 H -0.23757 0.73008 1.07147
 H187 H -0.17890 0.75631 1.08170
 C188 C -0.11685 0.30185 0.81538
 C189 C -0.16191 0.28596 0.82735
 C190 C -0.18940 0.31651 0.85694
 C191 C -0.16982 0.35599 0.87904
 C192 C -0.12249 0.36681 0.87166
 C193 C -0.09791 0.34112 0.83683
 C194 C -0.05026 0.31987 0.83844
 C195 C -0.07057 0.27668 0.81529
 H196 H -0.22578 0.30987 0.86449
 H197 H -0.19117 0.37672 0.90361
 H198 H -0.03848 0.31392 0.87510
 H199 H -0.02499 0.33834 0.81525
 H200 H -0.07062 0.24557 0.83850
 H201 H -0.05625 0.27018 0.77900
 C202 C 0.17521 0.68135 0.86780
 C203 C 0.15368 0.72099 0.84903
 C204 C 0.10573 0.72797 0.85928
 C205 C 0.07980 0.69353 0.88293
 C206 C 0.10107 0.65093 0.89650
 C207 C 0.14965 0.64724 0.89066
 C208 C 0.17902 0.60858 0.86938
 C209 C 0.20707 0.64604 0.84442
 H210 H 0.08806 0.75967 0.84841
 H211 H 0.04303 0.70017 0.88969
 H212 H 0.15924 0.58584 0.84485
 H213 H 0.19934 0.58963 0.89636
 H214 H 0.20364 0.64507 0.80535
 H215 H 0.24340 0.64871 0.85717
 C216 C 1.12324 0.18311 0.29953
 C217 C 1.16895 0.17414 0.28233
 C218 C 1.19672 0.14382 0.31006
 C219 C 1.17722 0.11910 0.34827
 C220 C 1.12952 0.12407 0.36036
 C221 C 1.10425 0.15869 0.33718
 C222 C 1.05738 0.15588 0.31554
 C223 C 1.07776 0.18255 0.27427
 H224 H 1.23344 0.13817 0.30240
 H225 H 1.19917 0.09486 0.36715
 H226 H 1.03048 0.17627 0.33610
 H227 H 1.04763 0.11938 0.30620
 H228 H 1.06203 0.21806 0.27156
 H229 H 1.07956 0.16182 0.24073
 C230 C 1.19326 -0.13515 0.69027
 C231 C 1.16616 -0.15914 0.72380
 C232 C 1.11709 -0.15440 0.71992
 C233 C 1.09707 -0.13178 0.68127
 C234 C 1.12516 -0.11380 0.64445
 C235 C 1.17337 -0.11348 0.65168
 C236 C 1.21260 -0.12818 0.61925
 C237 C 1.23445 -0.15193 0.66130
 H238 H 1.09359 -0.16764 0.74674
 H239 H 1.05942 -0.12919 0.68023
 H240 H 1.23292 -0.09784 0.60645
 H241 H 1.20155 -0.15318 0.59127
 H242 H 1.26737 -0.13524 0.67248
 H243 H 1.23620 -0.19075 0.65774
 C244 C 0.84065 -0.10718 0.28886
 C245 C 0.83601 -0.15586 0.28761
 C246 C 0.85590 -0.18127 0.32478
 C247 C 0.88377 -0.15871 0.35856
 C248 C 0.89285 -0.11023 0.35569
 C249 C 0.86835 -0.08507 0.32173
 C250 C 0.88540 -0.05048 0.28649
 C251 C 0.85485 -0.07470 0.25053
 H252 H 0.85095 -0.21870 0.32709
 H253 H 0.89897 -0.17960 0.38605
 H254 H 0.92338 -0.05445 0.27846
 H255 H 0.87340 -0.01419 0.29531
 H256 H 0.87503 -0.09270 0.22152
 H257 H 0.82524 -0.05241 0.23895
 C258 C 0.89089 0.16985 0.69400
 C259 C 0.85759 0.14724 0.72268
 C260 C 0.85452 0.09790 0.71599
 C261 C 0.87970 0.07434 0.67946
 C262 C 0.90929 0.09891 0.64865
 C263 C 0.91606 0.14633 0.65843
 C264 C 0.91378 0.18663 0.62572
 C265 C 0.88598 0.21255 0.66420
 H266 H 0.83326 0.07655 0.73876
 H267 H 0.87568 0.03687 0.67514
 H268 H 0.89321 0.17893 0.59367
 H269 H 0.94873 0.20183 0.61885
 H270 H 0.84917 0.21989 0.65460
 H271 H 0.90496 0.24308 0.67874
 C272 C 0.28387 1.16993 0.09821
 C273 C 0.28271 1.17443 0.14747
 C274 C 0.32244 1.15899 0.17181
 C275 C 0.35902 1.13465 0.14774
 C276 C 0.35648 1.12466 0.09879
 C277 C 0.31959 1.14559 0.07458
 C278 C 0.28681 1.12497 0.03978
 C279 C 0.24773 1.15177 0.06569
 H280 H 0.32453 1.16424 0.20966
 H281 H 0.38831 1.12238 0.16794
 H282 H 0.28407 1.08631 0.04279
 H283 H 0.29342 1.13778 0.00340
 H284 H 0.22224 1.12870 0.08374
 H285 H 0.23205 1.18005 0.04429
 C286 C 0.69214 1.17640 -0.13700
 C287 C 0.73119 1.15139 -0.15448
 C288 C 0.73386 1.10321 -0.14433
 C289 C 0.69601 1.08045 -0.12258
 C290 C 0.65429 1.10519 -0.11074
 C291 C 0.65471 1.15394 -0.11585
 C292 C 0.62005 1.18583 -0.13810
 C293 C 0.66112 1.21047 -0.16119
 H294 H 0.76474 1.08284 -0.15416
 H295 H 0.69932 1.04333 -0.11603
 H296 H 0.60094 1.20815 -0.11151
 H297 H 0.59762 1.16729 -0.16378
 H298 H 0.66568 1.24686 -0.14779
 H299 H 0.66256 1.20629 -0.20030
 C300 C 0.29795 0.82235 -0.11346
 C301 C 0.29455 0.82025 -0.16263
 C302 C 0.33264 0.83709 -0.18943
 C303 C 0.36978 0.86024 -0.16711
 C304 C 0.36924 0.86769 -0.11753
 C305 C 0.33397 0.84547 -0.09160
 C306 C 0.30220 0.86419 -0.05312
 C307 C 0.26280 0.83864 -0.07711
 H308 H 0.33282 0.83424 -0.22760
 H309 H 0.39764 0.87382 -0.18902
 H310 H 0.29829 0.90297 -0.05381
 H311 H 0.31060 0.84952 -0.01807
 H312 H 0.23592 0.86255 -0.09173
 H313 H 0.24889 0.80922 -0.05602
 C314 C 0.70368 0.89517 0.17050
 C315 C 0.70433 0.84643 0.17488
 C316 C 0.66468 0.82208 0.15952
 C317 C 0.62909 0.84549 0.13500
 C318 C 0.63251 0.89372 0.12498
 C319 C 0.66889 0.91813 0.14618
 C320 C 0.70249 0.95216 0.12557
 C321 C 0.74059 0.92701 0.15239
 H322 H 0.66198 0.78473 0.16474
 H323 H 0.60002 0.82532 0.12239
 H324 H 0.69572 0.98851 0.13873
 H325 H 0.70638 0.94834 0.08654
 H326 H 0.75551 0.94885 0.18103
 H327 H 0.76670 0.90861 0.12899
   
