data_POSCAR
  _audit_creation_date              2014-09-24
  _audit_creation_method            'ToBaCCo'
  _symmetry_space_group_name_H-M    'P1'
  _symmetry_Int_Tables_number       1
  _symmetry_cell_setting            triclinic
  loop_
  _symmetry_equiv_pos_as_xyz
 x,y,z
_cell_length_a 34.7061
_cell_length_b 34.7060
_cell_length_c 34.6373
_cell_angle_alpha 89.979900
_cell_angle_beta 90.020200
_cell_angle_gamma 89.825800
loop_
  _atom_site_label
  _atom_site_type_symbol
  _atom_site_fract_x
  _atom_site_fract_y
  _atom_site_fract_z
C1 C 0.20536 0.15393 0.20601
 C2 C 0.18866 0.13767 0.23909
 C3 C 0.15566 0.15432 0.25555
 C4 C 0.13913 0.18733 0.23900
 C5 C 0.15547 0.20394 0.20593
 C6 C 0.18873 0.18722 0.18932
 C7 C 0.23843 0.13756 0.18936
 C8 C 0.25494 0.15410 0.15636
 C9 C 0.23846 0.18711 0.13976
 C10 C 0.20540 0.20383 0.15605
 C11 C 0.18874 0.23691 0.13971
 C12 C 0.15578 0.25344 0.15625
 C13 C 0.13919 0.23702 0.18921
 H14 H 0.20133 0.11213 0.25205
 H15 H 0.11360 0.20010 0.25187
 H16 H 0.25134 0.11202 0.20209
 H17 H 0.25137 0.19979 0.11423
 H18 H 0.20138 0.24987 0.11419
 H19 H 0.11369 0.25006 0.20181
 C20 C -0.20533 0.84611 0.20585
 C21 C -0.18868 0.86236 0.23897
 C22 C -0.15565 0.84577 0.25543
 C23 C -0.13901 0.81285 0.23886
 C24 C -0.15529 0.79625 0.20577
 C25 C -0.18860 0.81291 0.18914
 C26 C -0.23844 0.86242 0.18919
 C27 C -0.25489 0.84589 0.15616
 C28 C -0.23831 0.81296 0.13953
 C29 C -0.20521 0.79630 0.15583
 C30 C -0.18845 0.76329 0.13948
 C31 C -0.15545 0.74684 0.15604
 C32 C -0.13891 0.76325 0.18903
 H33 H -0.20144 0.88784 0.25194
 H34 H -0.11345 0.80013 0.25175
 H35 H -0.25142 0.88790 0.20194
 H36 H -0.25119 0.80029 0.11398
 H37 H -0.20104 0.75034 0.11394
 H38 H -0.11337 0.75027 0.20164
 C39 C -0.20698 0.15555 -0.20441
 C40 C -0.19026 0.13917 -0.23746
 C41 C -0.15733 0.15565 -0.25394
 C42 C -0.14084 0.18858 -0.23751
 C43 C -0.15717 0.20533 -0.20449
 C44 C -0.19039 0.18879 -0.18780
 C45 C -0.24000 0.13935 -0.18769
 C46 C -0.25651 0.15601 -0.15471
 C47 C -0.24007 0.18898 -0.13820
 C48 C -0.20705 0.20554 -0.15455
 C49 C -0.19041 0.23857 -0.13831
 C50 C -0.15749 0.25490 -0.15493
 C51 C -0.14091 0.23835 -0.18787
 H52 H -0.20282 0.11368 -0.25041
 H53 H -0.11535 0.20112 -0.25050
 H54 H -0.25286 0.11384 -0.20035
 H55 H -0.25299 0.20176 -0.11268
 H56 H -0.20303 0.25163 -0.11281
 H57 H -0.11543 0.25122 -0.20053
 C58 C 0.20574 0.84450 -0.20625
 C59 C 0.18898 0.86090 -0.23929
 C60 C 0.15603 0.84441 -0.25578
 C61 C 0.13958 0.81142 -0.23932
 C62 C 0.15598 0.79467 -0.20629
 C63 C 0.18921 0.81123 -0.18964
 C64 C 0.23876 0.86072 -0.18955
 C65 C 0.25530 0.84406 -0.15660
 C66 C 0.23895 0.81109 -0.14007
 C67 C 0.20594 0.79449 -0.15639
 C68 C 0.18937 0.76144 -0.14012
 C69 C 0.15644 0.74507 -0.15671
 C70 C 0.13979 0.76161 -0.18965
 H71 H 0.20159 0.88643 -0.25217
 H72 H 0.11408 0.79878 -0.25223
 H73 H 0.25165 0.88623 -0.20213
 H74 H 0.25198 0.79840 -0.11458
 H75 H 0.20205 0.74839 -0.11463
 H76 H 0.11431 0.74870 -0.20227
 C77 C 0.15391 1.20537 0.79401
 C78 C 0.13766 1.18866 0.76093
 C79 C 0.15431 1.15567 0.74448
 C80 C 0.18731 1.13914 0.76102
 C81 C 0.20392 1.15547 0.79409
 C82 C 0.18720 1.18874 0.81071
 C83 C 0.13754 1.23844 0.81066
 C84 C 0.15408 1.25494 0.84367
 C85 C 0.18709 1.23846 0.86027
 C86 C 0.20381 1.20540 0.84398
 C87 C 0.23689 1.18874 0.86032
 C88 C 0.25342 1.15578 0.84378
 C89 C 0.23700 1.13919 0.81081
 H90 H 0.11212 1.20134 0.74798
 H91 H 0.20008 1.11361 0.74815
 H92 H 0.11201 1.25135 0.79794
 H93 H 0.19978 1.25137 0.88580
 H94 H 0.24985 1.20137 0.88584
 H95 H 0.25004 1.11369 0.79822
 C96 C 0.84610 0.79467 0.79418
 C97 C 0.86235 0.81132 0.76107
 C98 C 0.84577 0.84436 0.74461
 C99 C 0.81284 0.86100 0.76117
 C100 C 0.79624 0.84471 0.79426
 C101 C 0.81289 0.81140 0.81089
 C102 C 0.86240 0.76156 0.81084
 C103 C 0.84587 0.74511 0.84387
 C104 C 0.81294 0.76169 0.86049
 C105 C 0.79629 0.79479 0.84420
 C106 C 0.76328 0.81155 0.86055
 C107 C 0.74682 0.84455 0.84399
 C108 C 0.76324 0.86109 0.81099
 H109 H 0.88783 0.79857 0.74810
 H110 H 0.80013 0.88655 0.74829
 H111 H 0.88789 0.74858 0.79809
 H112 H 0.80026 0.74881 0.88604
 H113 H 0.75032 0.79896 0.88608
 H114 H 0.75026 0.88663 0.79838
 C115 C 0.15554 0.79303 1.20443
 C116 C 0.13916 0.80975 1.23748
 C117 C 0.15564 0.84267 1.25396
 C118 C 0.18857 0.85917 1.23755
 C119 C 0.20532 0.84284 1.20452
 C120 C 0.18879 0.80962 1.18783
 C121 C 0.13935 0.76001 1.18771
 C122 C 0.15601 0.74351 1.15473
 C123 C 0.18898 0.75995 1.13822
 C124 C 0.20554 0.79296 1.15458
 C125 C 0.23857 0.80960 1.13834
 C126 C 0.25490 0.84253 1.15497
 C127 C 0.23835 0.85910 1.18791
 H128 H 0.11367 0.79719 1.25043
 H129 H 0.20112 0.88465 1.25054
 H130 H 0.11384 0.74715 1.20037
 H131 H 0.20176 0.74704 1.11270
 H132 H 0.25164 0.79699 1.11284
 H133 H 0.25122 0.88458 1.20057
 C134 C 0.84449 1.20575 1.20628
 C135 C 0.86089 1.18899 1.23932
 C136 C 0.84439 1.15603 1.25581
 C137 C 0.81140 1.13958 1.23934
 C138 C 0.79466 1.15599 1.20631
 C139 C 0.81123 1.18922 1.18966
 C140 C 0.86071 1.23877 1.18959
 C141 C 0.84406 1.25531 1.15664
 C142 C 0.81109 1.23897 1.14010
 C143 C 0.79449 1.20595 1.15642
 C144 C 0.76144 1.18938 1.14014
 C145 C 0.74507 1.15645 1.15672
 C146 C 0.76161 1.13980 1.18966
 H147 H 0.88641 1.20159 1.25221
 H148 H 0.79876 1.11408 1.25225
 H149 H 0.88623 1.25166 1.20218
 H150 H 0.79841 1.25200 1.11461
 H151 H 0.74840 1.20206 1.11464
 H152 H 0.74870 1.11431 1.20227
 N153 N 0.45979 0.95824 1.06850
 N154 N 0.43056 0.95306 1.09231
 N155 N 0.54120 0.93207 1.04184
 N156 N 0.57058 0.90832 1.04682
 N157 N 0.54088 0.95875 1.06872
 N158 N 0.57003 0.95392 1.09276
 N159 N 0.46012 0.93157 1.04161
 N160 N 0.43113 0.90748 1.04635
 C161 C 0.41311 0.92133 1.07805
 C162 C 0.58814 0.92239 1.07866
 N163 N 0.54117 0.95913 0.93191
 N164 N 0.57038 0.95435 0.90795
 N165 N 0.46027 0.93182 0.95845
 N166 N 0.43127 0.90780 0.95341
 N167 N 0.46008 0.95867 0.93171
 N168 N 0.43095 0.95368 0.90772
 N169 N 0.54135 0.93231 0.95867
 N170 N 0.57067 0.90850 0.95369
 Mn171 Mn 0.50074 0.93148 1.00014
 C172 C 0.58837 0.92270 0.92199
 C173 C 0.41340 0.92188 0.92169
 N174 N 0.54012 1.04176 1.06893
 N175 N 0.56927 1.04674 1.09290
 N176 N 0.45883 1.06811 1.04200
 N177 N 0.42947 1.09187 1.04701
 N178 N 0.45903 1.04125 1.06873
 N179 N 0.42982 1.04598 1.09270
 N180 N 0.53993 1.06859 1.04218
 N181 N 0.56894 1.09260 1.04718
 Mn182 Mn 0.49995 1.00000 1.06918
 C183 C 0.58682 1.07853 1.07889
 C184 C 0.41179 1.07762 1.07871
 N185 N 0.45933 1.04167 0.93192
 N186 N 0.43018 1.04653 0.90788
 N187 N 0.54013 1.06884 0.95899
 N188 N 0.56914 1.09290 0.95418
 N189 N 0.54042 1.04214 0.93212
 N190 N 0.56962 1.04727 0.90826
 N191 N 0.45903 1.06835 0.95881
 N192 N 0.42968 1.09213 0.95383
 Mn193 Mn 0.50025 1.00041 0.93146
 Mn194 Mn 0.49948 1.06893 1.00049
 Cl195 Cl 0.50011 1.00021 1.00032
 C196 C 0.41210 1.07807 0.92200
 C197 C 0.58712 1.07900 0.92246
 N198 N 0.04167 0.45935 0.06811
 N199 N 0.04654 0.43020 0.09215
 N200 N 0.06883 0.54015 0.04102
 N201 N 0.09289 0.56916 0.04583
 N202 N 0.04213 0.54044 0.06790
 N203 N 0.04727 0.56964 0.09175
 N204 N 0.06835 0.45905 0.04122
 N205 N 0.09212 0.42969 0.04619
 C206 C 0.07808 0.41212 0.07803
 C207 C 0.07899 0.58714 0.07756
 N208 N 0.04174 0.54012 -0.06891
 N209 N 0.04672 0.56927 -0.09289
 N210 N 0.06810 0.45884 -0.04197
 N211 N 0.09186 0.42949 -0.04699
 N212 N 0.04124 0.45903 -0.06870
 N213 N 0.04597 0.42982 -0.09267
 N214 N 0.06858 0.53994 -0.04216
 N215 N 0.09258 0.56895 -0.04717
 Mn216 Mn 0.06892 0.49949 -0.00047
 C217 C 0.07851 0.58682 -0.07889
 C218 C 0.07761 0.41180 -0.07868
 N219 N -0.04087 0.54118 0.06812
 N220 N -0.04566 0.57039 0.09207
 N221 N -0.06818 0.46028 0.04159
 N222 N -0.09220 0.43128 0.04663
 N223 N -0.04134 0.46009 0.06832
 N224 N -0.04632 0.43097 0.09232
 N225 N -0.06770 0.54136 0.04136
 N226 N -0.09150 0.57068 0.04634
 Mn227 Mn 0.00040 0.50027 0.06857
 C228 C -0.07731 0.58838 0.07803
 C229 C -0.07812 0.41341 0.07835
 N230 N -0.04177 0.45979 -0.06846
 N231 N -0.04695 0.43056 -0.09228
 N232 N -0.06795 0.54120 -0.04181
 N233 N -0.09170 0.57057 -0.04679
 N234 N -0.04126 0.54088 -0.06869
 N235 N -0.04610 0.57003 -0.09274
 N236 N -0.06844 0.46011 -0.04157
 N237 N -0.09253 0.43113 -0.04631
 Mn238 Mn -0.00001 0.49995 -0.06915
 Mn239 Mn -0.06852 0.50074 -0.00011
 Cl240 Cl 0.00020 0.50011 -0.00029
 C241 C -0.07868 0.41310 -0.07801
 C242 C -0.07763 0.58814 -0.07863
 N243 N 0.93160 0.04150 0.54062
 N244 N 0.90765 0.04644 0.56981
 N245 N 0.95831 0.06827 0.45938
 N246 N 0.95331 0.09223 0.43018
 N247 N 0.93158 0.04155 0.45938
 N248 N 0.90762 0.04658 0.43017
 N249 N 0.95830 0.06825 0.54064
 N250 N 0.95326 0.09216 0.56986
 C251 C 0.92160 0.07810 0.58764
 C252 C 0.92163 0.07826 0.41237
 N253 N 1.06813 0.04133 0.45940
 N254 N 1.09206 0.04621 0.43019
 N255 N 1.04132 0.06814 0.54062
 N256 N 1.04620 0.09207 0.56983
 N257 N 1.06814 0.04135 0.54066
 N258 N 1.09203 0.04630 0.56990
 N259 N 1.04134 0.06814 0.45936
 N260 N 1.04628 0.09204 0.43011
 Mn261 Mn 0.99982 0.06866 0.50000
 C262 C 1.07799 0.07791 0.41233
 C263 C 1.07790 0.07801 0.58768
 N264 N 0.93170 -0.04144 0.45940
 N265 N 0.90777 -0.04629 0.43018
 N266 N 0.95856 -0.06829 0.54063
 N267 N 0.95371 -0.09222 0.56985
 N268 N 0.93174 -0.04151 0.54066
 N269 N 0.90787 -0.04645 0.56991
 N270 N 0.95849 -0.06826 0.45938
 N271 N 0.95355 -0.09213 0.43013
 Mn272 Mn 0.93120 0.00003 0.50002
 C273 C 0.92184 -0.07798 0.41234
 C274 C 0.92203 -0.07816 0.58770
 N275 N 1.06826 -0.04167 0.54065
 N276 N 1.09223 -0.04667 0.56985
 N277 N 1.04149 -0.06839 0.45941
 N278 N 1.04643 -0.09235 0.43022
 N279 N 1.06824 -0.04169 0.45939
 N280 N 1.09215 -0.04673 0.43016
 N281 N 1.04155 -0.06841 0.54065
 N282 N 1.04658 -0.09236 0.56986
 Mn283 Mn 1.06865 -0.00017 0.50002
 Mn284 Mn 1.00002 -0.06879 0.50002
 Cl285 Cl 0.99993 -0.00007 0.50002
 C286 C 1.07826 -0.07835 0.58765
 C287 C 1.07809 -0.07840 0.41239
 C288 C 1.13966 0.13848 0.28776
 C289 C 1.12547 0.12458 0.31630
 C290 C 1.10886 0.10836 0.34974
 C291 C 1.09473 0.09450 0.37831
 C292 C 0.86029 -0.13841 0.28768
 C293 C 0.87444 -0.12453 0.31624
 C294 C 0.89101 -0.10835 0.34970
 C295 C 0.90512 -0.09453 0.37829
 C296 C 0.85959 0.13881 0.71207
 C297 C 0.87385 0.12486 0.68357
 C298 C 0.89056 0.10862 0.65017
 C299 C 0.90478 0.09474 0.62163
 C300 C 1.13999 -0.13960 0.71205
 C301 C 1.12580 -0.12552 0.68355
 C302 C 1.10920 -0.10910 0.65017
 C303 C 1.09505 -0.09508 0.62164
 C304 C 0.28716 1.13817 1.14042
 C305 C 0.31570 1.12419 1.12627
 C306 C 0.34914 1.10794 1.10967
 C307 C 0.37773 1.09411 1.09552
 C308 C 0.28925 0.86081 0.86027
 C309 C 0.31771 0.87481 0.87437
 C310 C 0.35105 0.89118 0.89087
 C311 C 0.37952 0.90517 0.90495
 C312 C 0.71286 0.86178 1.14023
 C313 C 0.68429 0.87575 1.12611
 C314 C 0.65081 0.89202 1.10957
 C315 C 0.62221 0.90588 1.09545
 C316 C 0.71134 1.14019 0.86128
 C317 C 0.68287 1.12621 0.87540
 C318 C 0.64952 1.10984 0.89187
 C319 C 0.62103 1.09581 0.90588
 C320 C 0.13899 0.28749 0.13939
 C321 C 0.12496 0.31603 0.12531
 C322 C 0.10859 0.34948 0.10885
 C323 C 0.09464 0.37807 0.09479
 C324 C -0.14064 0.28887 -0.13822
 C325 C -0.12646 0.31734 -0.12435
 C326 C -0.10980 0.35069 -0.10822
 C327 C -0.09558 0.37919 -0.09445
 C328 C 0.13970 0.71108 -0.13992
 C329 C 0.12567 0.68259 -0.12592
 C330 C 0.10924 0.64922 -0.10956
 C331 C 0.09522 0.62073 -0.09558
 C332 C -0.13855 0.71286 0.13920
 C333 C -0.12441 0.68436 0.12517
 C334 C -0.10792 0.65096 0.10878
 C335 C -0.09390 0.62240 0.09477
 C336 C 1.13847 0.13968 0.71226
 C337 C 1.12457 0.12549 0.68372
 C338 C 1.10835 0.10888 0.65028
 C339 C 1.09449 0.09474 0.62171
 C340 C 0.86159 -0.13970 0.71236
 C341 C 0.87547 -0.12555 0.68380
 C342 C 0.89165 -0.10898 0.65034
 C343 C 0.90548 -0.09487 0.62175
 C344 C 1.13880 -0.14040 0.28796
 C345 C 1.12485 -0.12615 0.31646
 C346 C 1.10861 -0.10944 0.34986
 C347 C 1.09473 -0.09522 0.37840
 C348 C 0.86038 0.13999 0.28798
 C349 C 0.87445 0.12579 0.31647
 C350 C 0.89088 0.10919 0.34986
 C351 C 0.90490 0.09505 0.37839
 C352 C 0.13815 0.28716 -0.14039
 C353 C 0.12418 0.31570 -0.12624
 C354 C 0.10793 0.34915 -0.10965
 C355 C 0.09410 0.37774 -0.09549
 C356 C -0.13919 0.28927 0.13978
 C357 C -0.12519 0.31772 0.12567
 C358 C -0.10882 0.35106 0.10917
 C359 C -0.09482 0.37953 0.09510
 C360 C -0.13824 0.71285 -0.14020
 C361 C -0.12428 0.68428 -0.12608
 C362 C -0.10801 0.65081 -0.10954
 C363 C -0.09415 0.62220 -0.09543
 C364 C 0.14019 0.71136 0.13873
 C365 C 0.12621 0.68289 0.12461
 C366 C 0.10984 0.64954 0.10814
 C367 C 0.09581 0.62105 0.09414
 C368 C 0.28747 1.13898 0.86063
 C369 C 0.31601 1.12496 0.87471
 C370 C 0.34946 1.10858 0.89118
 C371 C 0.37805 1.09464 0.90523
 C372 C 0.28887 0.85937 1.13826
 C373 C 0.31734 0.87355 1.12440
 C374 C 0.35070 0.89021 1.10826
 C375 C 0.37919 0.90443 1.09450
 C376 C 0.71108 1.13971 1.13992
 C377 C 0.68260 1.12568 1.12590
 C378 C 0.64924 1.10925 1.10952
 C379 C 0.62074 1.09523 1.09556
 C380 C 0.71285 0.86146 0.86082
 C381 C 0.68435 0.87559 0.87485
 C382 C 0.65095 0.89209 0.89124
 C383 C 0.62239 0.90611 0.90525
   
