data_POSCAR
  _audit_creation_date              2014-09-24
  _audit_creation_method            'ToBaCCo'
  _symmetry_space_group_name_H-M    'P1'
  _symmetry_Int_Tables_number       1
  _symmetry_cell_setting            triclinic
  loop_
  _symmetry_equiv_pos_as_xyz
 x,y,z
_cell_length_a 49.6511
_cell_length_b 50.7835
_cell_length_c 51.4069
_cell_angle_alpha 90.017400
_cell_angle_beta 90.963000
_cell_angle_gamma 88.978300
loop_
  _atom_site_label
  _atom_site_type_symbol
  _atom_site_fract_x
  _atom_site_fract_y
  _atom_site_fract_z
C1 C 0.27492 0.23734 0.22817
 C2 C 0.26363 0.22548 0.25000
 C3 C 0.24119 0.23678 0.26141
 C4 C 0.22978 0.26014 0.25125
 C5 C 0.24090 0.27180 0.22974
 C6 C 0.26365 0.26036 0.21817
 C7 C 0.29668 0.23081 0.21307
 N8 N 0.29894 0.24936 0.19417
 C9 C 0.27875 0.26749 0.19720
 C10 C 0.22570 0.29403 0.22407
 N11 N 0.20560 0.29620 0.24164
 C12 C 0.20802 0.27551 0.25836
 C13 C 0.23460 0.22110 0.28208
 N14 N 0.25251 0.20056 0.28358
 C15 C 0.27035 0.20314 0.26399
 H16 H 0.31012 0.21401 0.21591
 H17 H 0.27505 0.28449 0.18489
 H18 H 0.22924 0.30777 0.20846
 H19 H 0.19468 0.27165 0.27429
 H20 H 0.21819 0.22466 0.29530
 H21 H 0.28684 0.18961 0.25995
 C22 C 0.71781 -0.23528 0.25470
 C23 C 0.72625 -0.22629 0.27926
 C24 C 0.74536 -0.24057 0.29352
 C25 C 0.75672 -0.26368 0.28312
 C26 C 0.74861 -0.27233 0.25886
 C27 C 0.72875 -0.25819 0.24467
 C28 C 0.69902 -0.22591 0.23688
 N29 N 0.69789 -0.24272 0.21616
 C30 C 0.71636 -0.26246 0.22096
 C31 C 0.76358 -0.29463 0.25342
 N32 N 0.78091 -0.29990 0.27377
 C33 C 0.77644 -0.28090 0.29210
 C34 C 0.74945 -0.22745 0.31664
 N35 N 0.73351 -0.20546 0.31657
 C36 C 0.71930 -0.20450 0.29379
 H37 H 0.68647 -0.20858 0.23970
 H38 H 0.72095 -0.27886 0.20829
 H39 H 0.76159 -0.30600 0.23574
 H40 H 0.78732 -0.27872 0.31033
 H41 H 0.76327 -0.23321 0.33222
 H42 H 0.70487 -0.18917 0.28832
 C43 C 0.73184 0.25297 0.75923
 C44 C 0.74223 0.24137 0.73668
 C45 C 0.76386 0.25249 0.72452
 C46 C 0.77532 0.27542 0.73468
 C47 C 0.76517 0.28679 0.75692
 C48 C 0.74309 0.27554 0.76923
 C49 C 0.71120 0.24621 0.77521
 N50 N 0.70927 0.26417 0.79490
 C51 C 0.72893 0.28222 0.79114
 C52 C 0.78071 0.30830 0.76257
 N53 N 0.80015 0.31047 0.74421
 C54 C 0.79669 0.29022 0.72707
 C55 C 0.77001 0.23687 0.70350
 N56 N 0.75260 0.21651 0.70257
 C57 C 0.73551 0.21918 0.72282
 H58 H 0.69830 0.22957 0.77199
 H59 H 0.73338 0.29879 0.80358
 H60 H 0.77749 0.32146 0.77879
 H61 H 0.80919 0.28566 0.71061
 H62 H 0.78592 0.24023 0.68981
 H63 H 0.71968 0.20568 0.72752
 C64 C 0.28081 -0.23038 0.75220
 C65 C 0.26971 -0.22034 0.72887
 C66 C 0.24843 -0.23294 0.71683
 C67 C 0.23804 -0.25580 0.72785
 C68 C 0.24892 -0.26561 0.75079
 C69 C 0.27059 -0.25288 0.76298
 C70 C 0.30154 -0.22228 0.76820
 N71 N 0.30446 -0.23939 0.78859
 C72 C 0.28534 -0.25818 0.78529
 C73 C 0.23471 -0.28767 0.75703
 N74 N 0.21531 -0.29175 0.73838
 C75 C 0.21748 -0.27210 0.72042
 C76 C 0.24170 -0.21890 0.69471
 N77 N 0.25842 -0.19809 0.69296
 C78 C 0.27564 -0.19887 0.71382
 H79 H 0.31387 -0.20541 0.76450
 H80 H 0.28169 -0.27444 0.79825
 H81 H 0.23891 -0.29993 0.77384
 H82 H 0.20475 -0.26907 0.70340
 H83 H 0.22602 -0.22375 0.68073
 H84 H 0.29114 -0.18467 0.71797
 C85 C 0.73977 -0.22641 0.77321
 C86 C 0.75168 -0.21595 0.75103
 C87 C 0.77471 -0.22764 0.74118
 C88 C 0.78609 -0.25001 0.75337
 C89 C 0.77438 -0.26021 0.77522
 C90 C 0.75094 -0.24842 0.78511
 C91 C 0.71713 -0.21939 0.78680
 N92 N 0.71398 -0.23675 0.80677
 C93 C 0.73484 -0.25458 0.80565
 C94 C 0.78953 -0.28185 0.78283
 N95 N 0.81033 -0.28536 0.76605
 C96 C 0.80811 -0.26574 0.74792
 C97 C 0.78155 -0.21356 0.71946
 N98 N 0.76318 -0.19366 0.71585
 C99 C 0.74485 -0.19502 0.73514
 H100 H 0.70366 -0.20320 0.78166
 H101 H 0.73870 -0.27075 0.81894
 H102 H 0.78489 -0.29439 0.79907
 H103 H 0.82166 -0.26247 0.73205
 H104 H 0.79837 -0.21786 0.70692
 H105 H 0.72785 -0.18167 0.73761
 C106 C 0.27888 0.22671 0.74858
 C107 C 0.26742 0.21677 0.72555
 C108 C 0.24519 0.22927 0.71427
 C109 C 0.23418 0.25197 0.72581
 C110 C 0.24555 0.26177 0.74847
 C111 C 0.26813 0.24908 0.75985
 C112 C 0.30045 0.21859 0.76386
 N113 N 0.30333 0.23556 0.78430
 C114 C 0.28340 0.25431 0.78173
 C115 C 0.23080 0.28381 0.75528
 N116 N 0.21072 0.28768 0.73730
 C117 C 0.21270 0.26825 0.71918
 C118 C 0.23844 0.21537 0.69220
 N119 N 0.25607 0.19475 0.68976
 C120 C 0.27387 0.19550 0.71013
 H121 H 0.31331 0.20178 0.75967
 H122 H 0.27951 0.27043 0.79495
 H123 H 0.23469 0.29631 0.77193
 H124 H 0.19931 0.26586 0.70256
 H125 H 0.22213 0.22020 0.67870
 H126 H 0.29015 0.18145 0.71370
 C127 C 0.26991 -0.24695 0.22974
 C128 C 0.25901 -0.23508 0.25194
 C129 C 0.23642 -0.24545 0.26320
 C130 C 0.22449 -0.26790 0.25244
 C131 C 0.23522 -0.27948 0.23058
 C132 C 0.25820 -0.26903 0.21926
 C133 C 0.29168 -0.24119 0.21472
 N134 N 0.29376 -0.25938 0.19523
 C135 C 0.27310 -0.27648 0.19812
 C136 C 0.21953 -0.30064 0.22432
 N137 N 0.19934 -0.30249 0.24190
 C138 C 0.20250 -0.28232 0.25922
 C139 C 0.23031 -0.22994 0.28432
 N140 N 0.24866 -0.21043 0.28620
 C141 C 0.26629 -0.21349 0.26643
 H142 H 0.30525 -0.22518 0.21847
 H143 H 0.26849 -0.29294 0.18558
 H144 H 0.22332 -0.31394 0.20832
 H145 H 0.18955 -0.27773 0.27536
 H146 H 0.21389 -0.23289 0.29754
 H147 H 0.28300 -0.20074 0.26258
 C148 C 0.72381 0.23362 0.24501
 C149 C 0.73477 0.22494 0.26889
 C150 C 0.75778 0.23635 0.27892
 C151 C 0.77006 0.25670 0.26532
 C152 C 0.75952 0.26500 0.24167
 C153 C 0.73630 0.25333 0.23135
 C154 C 0.70136 0.22652 0.23078
 N155 N 0.70018 0.24126 0.20876
 C156 C 0.72147 0.25764 0.20886
 C157 C 0.77529 0.28512 0.23313
 N158 N 0.79524 0.28959 0.25113
 C159 C 0.79202 0.27195 0.27084
 C160 C 0.76419 0.22371 0.30191
 N161 N 0.74573 0.20476 0.30605
 C162 C 0.72755 0.20552 0.28595
 H163 H 0.68697 0.21172 0.23597
 H164 H 0.72553 0.27197 0.19390
 H165 H 0.77149 0.29617 0.21545
 H166 H 0.80465 0.26985 0.28806
 H167 H 0.78116 0.22797 0.31461
 H168 H 0.71080 0.19236 0.28343
 O169 O 0.25656 0.02168 0.45806
 O170 O 0.25735 -0.02870 0.50953
 O171 O 0.25625 -0.02963 0.45883
 O172 O 0.25720 0.02245 0.50876
 O173 O 0.21277 0.02328 0.50869
 O174 O 0.21182 -0.02873 0.45886
 O175 O 0.21292 -0.02795 0.50949
 O176 O 0.21213 0.02260 0.45805
 Cu177 Cu 0.26129 -0.00364 0.48376
 Cu178 Cu 0.20796 -0.00262 0.48374
 C179 C 0.23423 0.03083 0.44927
 C180 C 0.23530 -0.03692 0.51839
 C181 C 0.23385 -0.03814 0.45033
 C182 C 0.23512 0.03172 0.51733
 O183 O 0.71270 0.03014 0.53527
 O184 O 0.71417 -0.02197 0.48535
 O185 O 0.71497 -0.02108 0.53590
 O186 O 0.71164 0.02944 0.48460
 O187 O 0.75600 0.03124 0.48509
 O188 O 0.75936 -0.02047 0.53531
 O189 O 0.75852 -0.01973 0.48439
 O190 O 0.75711 0.03089 0.53554
 Cu191 Cu 0.70892 0.00400 0.51028
 Cu192 Cu 0.76221 0.00553 0.51013
 C193 C 0.73469 0.03941 0.54398
 C194 C 0.73662 -0.02951 0.47616
 C195 C 0.73771 -0.02950 0.54434
 C196 C 0.73324 0.03912 0.47616
 O197 O 0.47825 0.25915 0.01985
 O198 O 0.53119 0.26219 -0.02939
 O199 O 0.47859 0.26249 -0.03061
 O200 O 0.53043 0.25875 0.02133
 O201 O 0.53201 0.21544 0.01751
 O202 O 0.47875 0.21912 -0.03312
 O203 O 0.53102 0.21890 -0.03285
 O204 O 0.47937 0.21577 0.01756
 Cu205 Cu 0.50459 0.26500 -0.00446
 Cu206 Cu 0.50530 0.21296 -0.00798
 C207 C 0.46989 0.23693 0.02729
 C208 C 0.54004 0.24106 -0.03968
 C209 C 0.46969 0.24144 -0.04068
 C210 C 0.54014 0.23647 0.02819
 O211 O 0.52957 0.72708 0.02672
 O212 O 0.47757 0.72732 -0.02498
 O213 O 0.53010 0.72653 -0.02376
 O214 O 0.47710 0.72861 0.02557
 O215 O 0.47744 0.77203 0.02485
 O216 O 0.53016 0.76996 -0.02451
 O217 O 0.47773 0.77074 -0.02593
 O218 O 0.52982 0.77051 0.02620
 Cu219 Cu 0.50354 0.72304 0.00095
 Cu220 Cu 0.50379 0.77517 0.00006
 C221 C 0.53862 0.74868 0.03534
 C222 C 0.46874 0.74900 -0.03435
 C223 C 0.53923 0.74793 -0.03254
 C224 C 0.46826 0.75070 0.03371
 O225 O 0.02126 0.47384 0.28454
 O226 O -0.03421 0.52315 0.28391
 O227 O -0.03098 0.47185 0.28493
 O228 O 0.01819 0.52517 0.28394
 O229 O 0.01755 0.52427 0.24104
 O230 O -0.03205 0.47123 0.24203
 O231 O -0.03495 0.52240 0.24100
 O232 O 0.02022 0.47310 0.24164
 Cu233 Cu -0.00635 0.49861 0.28863
 Cu234 Cu -0.00740 0.49773 0.23713
 C235 C 0.03015 0.46495 0.26316
 C236 C -0.04410 0.53118 0.26230
 C237 C -0.03990 0.46236 0.26368
 C238 C 0.02639 0.53378 0.26233
 O239 O 0.04055 0.52780 0.73410
 O240 O -0.01443 0.47994 0.73507
 O241 O -0.01166 0.53110 0.73362
 O242 O 0.03799 0.47654 0.73468
 O243 O 0.03868 0.47718 0.77758
 O244 O -0.01101 0.53201 0.77653
 O245 O -0.01377 0.48101 0.77797
 O246 O 0.04140 0.52837 0.77701
 Cu247 Cu 0.01306 0.50371 0.73007
 Cu248 Cu 0.01393 0.50471 0.78157
 C249 C 0.05031 0.53635 0.75543
 C250 C -0.02360 0.47239 0.75672
 C251 C -0.01982 0.54094 0.75485
 C252 C 0.04684 0.46749 0.75627
 C253 C 0.32759 0.27395 0.16407
 C254 C 0.34715 0.27447 0.14487
 C255 C 0.35869 0.25104 0.13561
 C256 C 0.35051 0.22688 0.14589
 C257 C 0.33098 0.22633 0.16518
 C258 C 0.31924 0.24986 0.17445
 N259 N 0.37861 0.25241 0.11583
 N260 N 0.38959 0.23195 0.10601
 C261 C 0.40953 0.23363 0.08627
 C262 C 0.42051 0.21040 0.07593
 C263 C 0.44006 0.21139 0.05669
 C264 C 0.44901 0.23575 0.04749
 C265 C 0.43791 0.25906 0.05792
 C266 C 0.41835 0.25803 0.07711
 H267 H 0.31926 0.29242 0.17103
 H268 H 0.35337 0.29321 0.13717
 H269 H 0.35912 0.20849 0.13902
 H270 H 0.32477 0.20746 0.17255
 H271 H 0.41389 0.19147 0.08283
 H272 H 0.44821 0.19308 0.04909
 H273 H 0.44434 0.27815 0.05128
 H274 H 0.41018 0.27629 0.08479
 C275 C 0.66547 0.78269 0.19002
 C276 C 0.64738 0.78441 0.16891
 C277 C 0.64381 0.76299 0.15226
 C278 C 0.65906 0.73984 0.15657
 C279 C 0.67734 0.73807 0.17749
 C280 C 0.68073 0.75936 0.19492
 N281 N 0.62433 0.76504 0.13143
 N282 N 0.61837 0.74535 0.11728
 C283 C 0.59876 0.74693 0.09656
 C284 C 0.59165 0.72379 0.08361
 C285 C 0.57214 0.72438 0.06371
 C286 C 0.55953 0.74827 0.05623
 C287 C 0.56696 0.77159 0.06905
 C288 C 0.58635 0.77092 0.08914
 H289 H 0.66752 0.79995 0.20209
 H290 H 0.63587 0.80247 0.16568
 H291 H 0.65670 0.72297 0.14391
 H292 H 0.68801 0.71955 0.18018
 H293 H 0.60109 0.70519 0.08915
 H294 H 0.56698 0.70609 0.05417
 H295 H 0.55759 0.79029 0.06375
 H296 H 0.59158 0.78909 0.09885
 C297 C 0.68755 0.28598 -0.16865
 C298 C 0.66865 0.28579 -0.14876
 C299 C 0.65287 0.26372 -0.14471
 C300 C 0.65613 0.24169 -0.16088
 C301 C 0.67481 0.24183 -0.18088
 C302 C 0.69097 0.26400 -0.18528
 N303 N 0.63358 0.26414 -0.12426
 N304 N 0.62004 0.24389 -0.11873
 C305 C 0.60039 0.24381 -0.09866
 C306 C 0.58791 0.22013 -0.09277
 C307 C 0.56845 0.21921 -0.07351
 C308 C 0.56093 0.24213 -0.05987
 C309 C 0.57348 0.26596 -0.06585
 C310 C 0.59312 0.26679 -0.08505
 H311 H 0.69885 0.30374 -0.17113
 H312 H 0.66626 0.30297 -0.13647
 H313 H 0.64421 0.22430 -0.15812
 H314 H 0.67670 0.22413 -0.19237
 H315 H 0.59332 0.20230 -0.10316
 H316 H 0.55915 0.20056 -0.06944
 H317 H 0.56816 0.28394 -0.05568
 H318 H 0.60245 0.28536 -0.08933
 C319 C 0.33893 0.78460 -0.18756
 C320 C 0.35806 0.78577 -0.16733
 C321 C 0.36227 0.76441 -0.15058
 C322 C 0.34686 0.74176 -0.15409
 C323 C 0.32756 0.74054 -0.17413
 C324 C 0.32322 0.76191 -0.19145
 N325 N 0.38232 0.76611 -0.13028
 N326 N 0.38847 0.74653 -0.11578
 C327 C 0.40842 0.74784 -0.09540
 C328 C 0.41558 0.72479 -0.08192
 C329 C 0.43517 0.72517 -0.06211
 C330 C 0.44784 0.74879 -0.05526
 C331 C 0.44045 0.77202 -0.06868
 C332 C 0.42096 0.77155 -0.08866
 H333 H 0.33633 0.80186 -0.19965
 H334 H 0.36973 0.80343 -0.16474
 H335 H 0.34975 0.72492 -0.14138
 H336 H 0.31670 0.72242 -0.17616
 H337 H 0.40602 0.70642 -0.08691
 H338 H 0.44032 0.70695 -0.05211
 H339 H 0.44986 0.79051 -0.06388
 H340 H 0.41570 0.78966 -0.09878
 C341 C 0.17645 0.32931 0.21917
 C342 C 0.15657 0.34913 0.21974
 C343 C 0.14514 0.35683 0.24329
 C344 C 0.15380 0.34440 0.26646
 C345 C 0.17362 0.32449 0.26591
 C346 C 0.18519 0.31673 0.24226
 N347 N 0.12470 0.37709 0.24305
 N348 N 0.11391 0.38568 0.26375
 C349 C 0.09329 0.40578 0.26321
 C350 C 0.08270 0.41485 0.28669
 C351 C 0.06232 0.43422 0.28677
 C352 C 0.05211 0.44481 0.26324
 C353 C 0.06288 0.43572 0.23968
 C354 C 0.08329 0.41642 0.23965
 H355 H 0.18466 0.32356 0.20062
 H356 H 0.14998 0.35848 0.20175
 H357 H 0.14528 0.35003 0.28493
 H358 H 0.18014 0.31541 0.28404
 H359 H 0.09022 0.40680 0.30497
 H360 H 0.05444 0.44077 0.30524
 H361 H 0.05550 0.44346 0.22123
 H362 H 0.09113 0.40974 0.22122
 C363 C 0.18083 0.68347 0.71543
 C364 C 0.16192 0.66340 0.71507
 C365 C 0.15828 0.64776 0.73700
 C366 C 0.17410 0.65214 0.75940
 C367 C 0.19319 0.67204 0.75981
 C368 C 0.19688 0.68832 0.73787
 N369 N 0.13827 0.62777 0.73610
 N370 N 0.13253 0.61421 0.75600
 C371 C 0.11240 0.59435 0.75521
 C372 C 0.10542 0.58200 0.77839
 C373 C 0.08535 0.56304 0.77847
 C374 C 0.07205 0.55594 0.75521
 C375 C 0.07939 0.56810 0.73186
 C376 C 0.09933 0.58721 0.73186
 H377 H 0.18295 0.69467 0.69777
 H378 H 0.14993 0.66011 0.69762
 H379 H 0.17164 0.64028 0.77666
 H380 H 0.20439 0.67485 0.77775
 H381 H 0.11537 0.58731 0.79651
 H382 H 0.08024 0.55400 0.79677
 H383 H 0.06950 0.56309 0.71363
 H384 H 0.10444 0.59644 0.71366
 C385 C -0.18584 0.67439 0.29864
 C386 C -0.16589 0.65463 0.29976
 C387 C -0.15942 0.64008 0.27762
 C388 C -0.17357 0.64514 0.25426
 C389 C -0.19366 0.66475 0.25304
 C390 C -0.20006 0.68008 0.27516
 N391 N -0.13823 0.62059 0.27926
 N392 N -0.13016 0.60801 0.25935
 C393 C -0.10883 0.58866 0.26072
 C394 C -0.10013 0.57684 0.23770
 C395 C -0.07910 0.55818 0.23820
 C396 C -0.06645 0.55090 0.26187
 C397 C -0.07536 0.56268 0.28503
 C398 C -0.09634 0.58146 0.28447
 H399 H -0.19010 0.68480 0.31645
 H400 H -0.15525 0.65077 0.31796
 H401 H -0.16896 0.63410 0.23682
 H402 H -0.20340 0.66813 0.23439
 H403 H -0.10960 0.58223 0.21929
 H404 H -0.07278 0.54945 0.22002
 H405 H -0.06604 0.55751 0.30357
 H406 H -0.10274 0.59032 0.30255
 C407 C -0.16435 0.33225 0.72092
 C408 C -0.14405 0.35092 0.72018
 C409 C -0.13876 0.36691 0.74167
 C410 C -0.15438 0.36435 0.76399
 C411 C -0.17490 0.34586 0.76477
 C412 C -0.18019 0.32919 0.74331
 N413 N -0.11736 0.38538 0.74035
 N414 N -0.10986 0.39891 0.75993
 C415 C -0.08840 0.41732 0.75855
 C416 C -0.07969 0.42981 0.78136
 C417 C -0.05859 0.44764 0.78080
 C418 C -0.04593 0.45346 0.75726
 C419 C -0.05485 0.44103 0.73431
 C420 C -0.07585 0.42304 0.73495
 H421 H -0.16771 0.32072 0.70356
 H422 H -0.13226 0.35285 0.70276
 H423 H -0.15067 0.37656 0.78090
 H424 H -0.18592 0.34437 0.78262
 H425 H -0.08922 0.42559 0.79965
 H426 H -0.05227 0.45694 0.79879
 H427 H -0.04551 0.44507 0.71589
 H428 H -0.08226 0.41367 0.71703
 C429 C 0.27687 0.16713 0.31043
 C430 C 0.27697 0.14718 0.32918
 C431 C 0.25292 0.13943 0.34045
 C432 C 0.22858 0.15189 0.33272
 C433 C 0.22846 0.17189 0.31403
 C434 C 0.25261 0.17977 0.30269
 N435 N 0.25379 0.11909 0.35976
 N436 N 0.23261 0.11076 0.37043
 C437 C 0.23352 0.09058 0.38991
 C438 C 0.20936 0.08202 0.40036
 C439 C 0.20952 0.06253 0.41957
 C440 C 0.23398 0.05128 0.42872
 C441 C 0.25824 0.05990 0.41813
 C442 C 0.25803 0.07935 0.39888
 H443 H 0.29584 0.17295 0.30234
 H444 H 0.29586 0.13779 0.33503
 H445 H 0.20970 0.14621 0.34111
 H446 H 0.20941 0.18098 0.30825
 H447 H 0.19035 0.09053 0.39362
 H448 H 0.19049 0.05636 0.42732
 H449 H 0.27742 0.05164 0.42473
 H450 H 0.27699 0.08566 0.39112
 C451 C 0.77664 0.18733 0.67183
 C452 C 0.77664 0.16692 0.65360
 C453 C 0.75268 0.15439 0.64678
 C454 C 0.72854 0.16248 0.65850
 C455 C 0.72852 0.18285 0.67682
 C456 C 0.75258 0.19553 0.68367
 N457 N 0.75347 0.13361 0.62796
 N458 N 0.73240 0.12175 0.62031
 C459 C 0.73345 0.10099 0.60146
 C460 C 0.70943 0.08947 0.59308
 C461 C 0.70976 0.06938 0.57446
 C462 C 0.73424 0.06041 0.56397
 C463 C 0.75836 0.07192 0.57258
 C464 C 0.75798 0.09204 0.59112
 H465 H 0.79555 0.19642 0.67695
 H466 H 0.79538 0.16080 0.64476
 H467 H 0.70973 0.15312 0.65350
 H468 H 0.70962 0.18891 0.68535
 H469 H 0.69039 0.09618 0.60091
 H470 H 0.69084 0.06092 0.56827
 H471 H 0.77756 0.06549 0.56489
 H472 H 0.77684 0.10061 0.59731
 C473 C 0.28176 -0.16611 0.66533
 C474 C 0.28131 -0.14741 0.64537
 C475 C 0.25717 -0.14079 0.63234
 C476 C 0.23331 -0.15317 0.63948
 C477 C 0.23374 -0.17195 0.65936
 C478 C 0.25797 -0.17864 0.67252
 N479 N 0.25746 -0.12156 0.61196
 N480 N 0.23609 -0.11397 0.59994
 C481 C 0.23641 -0.09481 0.57950
 C482 C 0.21198 -0.08646 0.56802
 C483 C 0.21156 -0.06766 0.54814
 C484 C 0.23569 -0.05698 0.53930
 C485 C 0.26023 -0.06554 0.55079
 C486 C 0.26060 -0.08425 0.57074
 H487 H 0.30078 -0.17106 0.67485
 H488 H 0.29985 -0.13806 0.63999
 H489 H 0.21437 -0.14835 0.62973
 H490 H 0.21505 -0.18099 0.66466
 H491 H 0.19321 -0.09448 0.57459
 H492 H 0.19233 -0.06153 0.53969
 H493 H 0.27917 -0.05769 0.54446
 H494 H 0.27976 -0.09043 0.57928
 C495 C 0.72996 -0.19422 0.36299
 C496 C 0.72870 -0.17548 0.38288
 C497 C 0.73057 -0.14864 0.37715
 C498 C 0.73297 -0.14061 0.35114
 C499 C 0.73346 -0.15930 0.33118
 C500 C 0.73224 -0.18625 0.33699
 N501 N 0.72988 -0.12989 0.39793
 N502 N 0.74009 -0.10722 0.39567
 C503 C 0.73889 -0.08809 0.41608
 C504 C 0.75783 -0.06803 0.41680
 C505 C 0.75735 -0.04919 0.43661
 C506 C 0.73731 -0.04970 0.45556
 C507 C 0.71797 -0.06953 0.45455
 C508 C 0.71895 -0.08883 0.43514
 H509 H 0.72882 -0.21493 0.36777
 H510 H 0.72673 -0.18188 0.40284
 H511 H 0.73420 -0.11993 0.34627
 H512 H 0.73530 -0.15284 0.31123
 H513 H 0.77321 -0.06721 0.40214
 H514 H 0.77236 -0.03397 0.43689
 H515 H 0.70235 -0.07032 0.46898
 H516 H 0.70397 -0.10406 0.43477
 C517 C 0.67597 0.78562 -0.17315
 C518 C 0.65520 0.78582 -0.15514
 C519 C 0.65112 0.76404 -0.13923
 C520 C 0.66826 0.74193 -0.14132
 C521 C 0.68923 0.74169 -0.15911
 C522 C 0.69351 0.76352 -0.17553
 N523 N 0.62961 0.76497 -0.12103
 N524 N 0.62329 0.74504 -0.10759
 C525 C 0.60200 0.74615 -0.08914
 C526 C 0.58871 0.76998 -0.08309
 C527 C 0.56829 0.77052 -0.06471
 C528 C 0.56067 0.74726 -0.05219
 C529 C 0.57393 0.72344 -0.05845
 C530 C 0.59450 0.72298 -0.07670
 H531 H 0.67840 0.80319 -0.18463
 H532 H 0.64219 0.80308 -0.15358
 H533 H 0.66549 0.72480 -0.12918
 H534 H 0.70149 0.72397 -0.16020
 H535 H 0.59419 0.78818 -0.09241
 H536 H 0.55845 0.78917 -0.06035
 H537 H 0.56858 0.70521 -0.04909
 H538 H 0.60463 0.70451 -0.08118
 C539 C 0.33912 0.21127 -0.19286
 C540 C 0.35866 0.20981 -0.17301
 C541 C 0.36255 0.23100 -0.15615
 C542 C 0.34648 0.25381 -0.15920
 C543 C 0.32675 0.25532 -0.17887
 C544 C 0.32265 0.23408 -0.19623
 N545 N 0.38286 0.22884 -0.13611
 N546 N 0.38879 0.24810 -0.12137
 C547 C 0.40897 0.24591 -0.10122
 C548 C 0.41611 0.26849 -0.08731
 C549 C 0.43587 0.26709 -0.06765
 C550 C 0.44869 0.24294 -0.06142
 C551 C 0.44132 0.22024 -0.07531
 C552 C 0.42170 0.22171 -0.09510
 H553 H 0.33676 0.19410 -0.20501
 H554 H 0.37087 0.19204 -0.17075
 H555 H 0.34915 0.27052 -0.14639
 H556 H 0.31532 0.27353 -0.18058
 H557 H 0.40641 0.28724 -0.09183
 H558 H 0.44104 0.28491 -0.05727
 H559 H 0.45084 0.20135 -0.07101
 H560 H 0.41646 0.20396 -0.10554
 C561 C 0.31632 0.71717 0.16035
 C562 C 0.33602 0.71619 0.14126
 C563 C 0.35278 0.73755 0.13735
 C564 C 0.34979 0.76005 0.15294
 C565 C 0.33029 0.76107 0.17223
 C566 C 0.31304 0.73965 0.17633
 N567 N 0.37270 0.73585 0.11757
 N568 N 0.38704 0.75539 0.11156
 C569 C 0.40716 0.75369 0.09197
 C570 C 0.42037 0.77658 0.08473
 C571 C 0.44012 0.77566 0.06570
 C572 C 0.44718 0.75167 0.05371
 C573 C 0.43395 0.72866 0.06111
 C574 C 0.41403 0.72966 0.08001
 H575 H 0.30429 0.69988 0.16274
 H576 H 0.33825 0.69865 0.12944
 H577 H 0.36253 0.77688 0.15026
 H578 H 0.32859 0.77904 0.18334
 H579 H 0.41528 0.79520 0.09385
 H580 H 0.44999 0.79372 0.06050
 H581 H 0.43890 0.70989 0.05222
 H582 H 0.40414 0.71167 0.08535
 C583 C 0.65227 0.24060 0.19579
 C584 C 0.63213 0.24061 0.17646
 C585 C 0.63895 0.23941 0.15018
 C586 C 0.66623 0.23863 0.14332
 C587 C 0.68637 0.23939 0.16261
 C588 C 0.67952 0.24025 0.18897
 N589 N 0.61794 0.23980 0.13079
 N590 N 0.62158 0.23073 0.10802
 C591 C 0.60088 0.23225 0.08836
 C592 C 0.60130 0.21428 0.06772
 C593 C 0.58125 0.21535 0.04830
 C594 C 0.56103 0.23502 0.04885
 C595 C 0.56092 0.25334 0.06931
 C596 C 0.58050 0.25177 0.08912
 H597 H 0.64667 0.24149 0.21604
 H598 H 0.61117 0.24137 0.18195
 H599 H 0.67191 0.23797 0.12308
 H600 H 0.70732 0.23907 0.15706
 H601 H 0.61700 0.19925 0.06688
 H602 H 0.58181 0.20111 0.03261
 H603 H 0.54547 0.26864 0.07015
 H604 H 0.58000 0.26602 0.10478
 C605 C -0.16705 0.67877 0.78942
 C606 C -0.14753 0.65863 0.79039
 C607 C -0.13095 0.65380 0.76921
 C608 C -0.13382 0.66965 0.74696
 C609 C -0.15313 0.69000 0.74596
 C610 C -0.17034 0.69492 0.76713
 N611 N -0.11149 0.63268 0.77075
 N612 N -0.09752 0.62572 0.75131
 C613 C -0.07802 0.60463 0.75278
 C614 C -0.06539 0.59637 0.73001
 C615 C -0.04652 0.57563 0.73065
 C616 C -0.03976 0.56294 0.75425
 C617 C -0.05229 0.57146 0.77717
 C618 C -0.07135 0.59206 0.77644
 H619 H -0.17901 0.68180 0.80655
 H620 H -0.14538 0.64662 0.80774
 H621 H -0.12118 0.66628 0.73028
 H622 H -0.15480 0.70123 0.72816
 H623 H -0.07034 0.60593 0.71167
 H624 H -0.03715 0.56962 0.71267
 H625 H -0.04754 0.56206 0.79563
 H626 H -0.08081 0.59817 0.79434
 C627 C -0.18153 0.32314 0.22684
 C628 C -0.16251 0.34306 0.22594
 C629 C -0.14717 0.34937 0.24799
 C630 C -0.15069 0.33516 0.27104
 C631 C -0.16952 0.31508 0.27201
 C632 C -0.18559 0.30877 0.24998
 N633 N -0.12836 0.37035 0.24656
 N634 N -0.11540 0.37840 0.26651
 C635 C -0.09659 0.39939 0.26525
 C636 C -0.08448 0.40827 0.28830
 C637 C -0.06615 0.42882 0.28784
 C638 C -0.05949 0.44075 0.26417
 C639 C -0.07163 0.43171 0.24100
 C640 C -0.09009 0.41124 0.24152
 H641 H -0.19258 0.31896 0.20909
 H642 H -0.15983 0.35376 0.20797
 H643 H -0.13900 0.33967 0.28840
 H644 H -0.17175 0.30525 0.29044
 H645 H -0.08933 0.39928 0.30669
 H646 H -0.05710 0.43526 0.30601
 H647 H -0.06694 0.44049 0.22246
 H648 H -0.09918 0.40468 0.22342
 C649 C 0.17937 0.31824 0.71397
 C650 C 0.16027 0.33879 0.71411
 C651 C 0.15226 0.35019 0.73758
 C652 C 0.16360 0.34077 0.76109
 C653 C 0.18274 0.32025 0.76098
 C654 C 0.19087 0.30875 0.73742
 N655 N 0.13274 0.37129 0.73696
 N656 N 0.12438 0.38243 0.75757
 C657 C 0.10493 0.40360 0.75680
 C658 C 0.09634 0.41475 0.78021
 C659 C 0.07744 0.43550 0.78012
 C660 C 0.06682 0.44548 0.75650
 C661 C 0.07550 0.43421 0.73301
 C662 C 0.09437 0.41347 0.73315
 H663 H 0.18544 0.31007 0.69549
 H664 H 0.15173 0.34594 0.69586
 H665 H 0.15768 0.34922 0.77951
 H666 H 0.19092 0.31317 0.77938
 H667 H 0.10434 0.40733 0.79856
 H668 H 0.07118 0.44373 0.79853
 H669 H 0.06772 0.44142 0.71449
 H670 H 0.10070 0.40519 0.71478
 C671 C 0.17533 0.66205 0.22051
 C672 C 0.15535 0.64303 0.22077
 C673 C 0.13926 0.63999 0.24252
 C674 C 0.14313 0.65647 0.26412
 C675 C 0.16293 0.67570 0.26389
 C676 C 0.17961 0.67883 0.24210
 N677 N 0.11926 0.62002 0.24217
 N678 N 0.10543 0.61468 0.26204
 C679 C 0.08544 0.59468 0.26156
 C680 C 0.07290 0.58798 0.28473
 C681 C 0.05367 0.56821 0.28503
 C682 C 0.04649 0.55495 0.26198
 C683 C 0.05890 0.56194 0.23865
 C684 C 0.07829 0.58157 0.23844
 H685 H 0.18684 0.66371 0.20298
 H686 H 0.15243 0.63052 0.20393
 H687 H 0.13090 0.65447 0.28122
 H688 H 0.16536 0.68750 0.28121
 H689 H 0.07822 0.59797 0.30266
 H690 H 0.04442 0.56335 0.30329
 H691 H 0.05384 0.55208 0.22059
 H692 H 0.08766 0.58645 0.22024
 C693 C 0.78703 -0.16690 0.68357
 C694 C 0.78667 -0.14829 0.66351
 C695 C 0.76227 -0.13719 0.65449
 C696 C 0.73808 -0.14494 0.66578
 C697 C 0.73841 -0.16346 0.68587
 C698 C 0.76289 -0.17464 0.69503
 N699 N 0.76255 -0.11805 0.63402
 N700 N 0.74091 -0.10769 0.62478
 C701 C 0.74077 -0.08839 0.60448
 C702 C 0.71602 -0.07840 0.59519
 C703 C 0.71501 -0.05936 0.57558
 C704 C 0.73889 -0.04991 0.56492
 C705 C 0.76378 -0.06003 0.57426
 C706 C 0.76473 -0.07914 0.59387
 H707 H 0.80621 -0.17491 0.69039
 H708 H 0.80546 -0.14244 0.65502
 H709 H 0.71893 -0.13670 0.65911
 H710 H 0.71946 -0.16928 0.69399
 H711 H 0.69743 -0.08538 0.60323
 H712 H 0.69552 -0.05199 0.56886
 H713 H 0.78252 -0.05317 0.56645
 H714 H 0.78413 -0.08657 0.60077
 C715 C 0.27386 -0.17881 0.31347
 C716 C 0.27446 -0.15896 0.33230
 C717 C 0.25062 -0.14988 0.34363
 C718 C 0.22601 -0.16100 0.33597
 C719 C 0.22538 -0.18092 0.31721
 C720 C 0.24930 -0.19002 0.30570
 N721 N 0.25197 -0.12941 0.36277
 N722 N 0.23098 -0.11982 0.37334
 C723 C 0.23226 -0.09938 0.39251
 C724 C 0.20826 -0.08942 0.40281
 C725 C 0.20874 -0.06949 0.42155
 C726 C 0.23336 -0.05918 0.43038
 C727 C 0.25747 -0.06925 0.42001
 C728 C 0.25694 -0.08916 0.40122
 H729 H 0.29265 -0.18562 0.30526
 H730 H 0.29356 -0.15061 0.33810
 H731 H 0.20728 -0.15428 0.34442
 H732 H 0.20613 -0.18890 0.31142
 H733 H 0.18912 -0.09714 0.39626
 H734 H 0.18981 -0.06220 0.42915
 H735 H 0.27676 -0.06174 0.42638
 H736 H 0.27579 -0.09656 0.39355
 C737 C 0.77064 0.17853 0.33940
 C738 C 0.77113 0.16000 0.35949
 C739 C 0.74726 0.14883 0.36788
 C740 C 0.72265 0.15657 0.35606
 C741 C 0.72211 0.17510 0.33593
 C742 C 0.74613 0.18622 0.32729
 N743 N 0.74868 0.12947 0.38812
 N744 N 0.72785 0.11837 0.39674
 C745 C 0.72962 0.09879 0.41678
 C746 C 0.70595 0.08755 0.42567
 C747 C 0.70704 0.06820 0.44502
 C748 C 0.73195 0.05971 0.45578
 C749 C 0.75569 0.07108 0.44681
 C750 C 0.75455 0.09045 0.42751
 H751 H 0.78952 0.18638 0.33300
 H752 H 0.79022 0.15412 0.36840
 H753 H 0.70390 0.14825 0.36228
 H754 H 0.70290 0.18084 0.32724
 H755 H 0.68662 0.09379 0.41753
 H756 H 0.68839 0.05984 0.45149
 H757 H 0.77519 0.06502 0.45469
 H758 H 0.77315 0.09881 0.42094
 C759 C 0.28014 0.16318 0.66136
 C760 C 0.28004 0.14448 0.64141
 C761 C 0.25590 0.13768 0.62894
 C762 C 0.23169 0.14993 0.63658
 C763 C 0.23177 0.16870 0.65647
 C764 C 0.25599 0.17551 0.66914
 N765 N 0.25651 0.11826 0.60872
 N766 N 0.23519 0.11064 0.59711
 C767 C 0.23575 0.09116 0.57696
 C768 C 0.21140 0.08302 0.56582
 C769 C 0.21116 0.06379 0.54638
 C770 C 0.23541 0.05239 0.53766
 C771 C 0.25989 0.06076 0.54876
 C772 C 0.26008 0.07995 0.56827
 H773 H 0.29916 0.16823 0.67046
 H774 H 0.29883 0.13523 0.63564
 H775 H 0.21274 0.14497 0.62726
 H776 H 0.21282 0.17759 0.66222
 H777 H 0.19253 0.09153 0.57235
 H778 H 0.19197 0.05782 0.53822
 H779 H 0.27891 0.05237 0.54250
 H780 H 0.27919 0.08595 0.57657
   
