data_POSCAR
  _audit_creation_date              2014-09-24
  _audit_creation_method            'ToBaCCo'
  _symmetry_space_group_name_H-M    'P1'
  _symmetry_Int_Tables_number       1
  _symmetry_cell_setting            triclinic
  loop_
  _symmetry_equiv_pos_as_xyz
 x,y,z
_cell_length_a 21.7546
_cell_length_b 21.8161
_cell_length_c 21.6981
_cell_angle_alpha 89.904100
_cell_angle_beta 89.980900
_cell_angle_gamma 90.030100
loop_
  _atom_site_label
  _atom_site_type_symbol
  _atom_site_fract_x
  _atom_site_fract_y
  _atom_site_fract_z
N1 N 0.56580 0.12411 0.02929
 N2 N 0.60929 0.16068 0.05039
 N3 N 0.43665 0.12385 -0.03093
 N4 N 0.39308 0.16010 -0.05254
 N5 N 0.43654 0.12398 0.02960
 N6 N 0.39296 0.16034 0.05084
 N7 N 0.56590 0.12362 -0.03123
 N8 N 0.60940 0.15991 -0.05299
 C9 C 0.63630 0.18229 -0.00149
 C10 C 0.36601 0.18215 -0.00095
 N11 N 0.43614 -0.03039 -0.12334
 N12 N 0.39219 -0.05185 -0.15928
 N13 N 0.56566 0.02937 -0.12455
 N14 N 0.60850 0.05000 -0.16252
 N15 N 0.56543 -0.03076 -0.12329
 N16 N 0.61069 -0.05333 -0.16253
 N17 N 0.43638 0.02980 -0.12397
 N18 N 0.39260 0.05098 -0.16029
 Mn19 Mn 0.50119 0.07714 -0.07814
 C20 C 0.36524 -0.00051 -0.18161
 C21 C 0.63584 -0.00116 -0.18522
 N22 N 0.43671 0.03108 0.12445
 N23 N 0.39282 0.05243 0.16057
 N24 N 0.56613 -0.02875 0.12492
 N25 N 0.60876 -0.04955 0.16298
 N26 N 0.56610 0.03140 0.12376
 N27 N 0.61133 0.05375 0.16321
 N28 N 0.43690 -0.02911 0.12497
 N29 N 0.39318 -0.05039 0.16136
 Mn30 Mn 0.50123 0.07810 0.07727
 C31 C 0.36589 0.00100 0.18288
 C32 C 0.63624 0.00146 0.18586
 N33 N 0.56545 -0.12329 -0.02900
 N34 N 0.60906 -0.15944 -0.05048
 N35 N 0.43659 -0.12312 0.03189
 N36 N 0.39314 -0.15955 0.05358
 N37 N 0.43627 -0.12314 -0.02864
 N38 N 0.39270 -0.15954 -0.04980
 N39 N 0.56588 -0.12289 0.03151
 N40 N 0.60976 -0.15888 0.05291
 Mn41 Mn 0.50076 -0.07732 -0.07653
 Mn42 Mn 0.50142 -0.07644 0.07880
 Cl43 Cl 0.50112 0.00038 0.00036
 C44 C 0.63649 -0.18094 0.00115
 C45 C 0.36595 -0.18153 0.00201
 N46 N 0.12437 0.43525 0.02957
 N47 N 0.16064 0.39159 0.05084
 N48 N 0.12527 0.56457 -0.03002
 N49 N 0.16167 0.60830 -0.05102
 N50 N 0.12500 0.56413 0.03050
 N51 N 0.16122 0.60751 0.05236
 N52 N 0.12451 0.43565 -0.03096
 N53 N 0.16091 0.39229 -0.05254
 C54 C 0.18271 0.36496 -0.00094
 C55 C 0.18340 0.63487 0.00093
 N56 N -0.02838 0.56631 -0.12480
 N57 N -0.04926 0.60916 -0.16247
 N58 N 0.03103 0.43700 -0.12524
 N59 N 0.05215 0.39316 -0.16137
 N60 N -0.02933 0.43744 -0.12543
 N61 N -0.05097 0.39393 -0.16163
 N62 N 0.03194 0.56603 -0.12402
 N63 N 0.05434 0.61135 -0.16339
 Mn64 Mn 0.07865 0.50078 -0.07807
 C65 C 0.00187 0.63655 -0.18555
 C66 C 0.00041 0.36653 -0.18338
 N67 N 0.03089 0.56386 0.12408
 N68 N 0.05217 0.60727 0.16067
 N69 N -0.03005 0.43519 0.12290
 N70 N -0.05177 0.39152 0.15906
 N71 N 0.03031 0.43495 0.12314
 N72 N 0.05134 0.39111 0.15943
 N73 N -0.02947 0.56403 0.12377
 N74 N -0.05095 0.60751 0.16007
 Mn75 Mn 0.07811 0.49955 0.07730
 C76 C 0.00052 0.63429 0.18240
 C77 C -0.00042 0.36421 0.18110
 N78 N -0.12329 0.43708 -0.03183
 N79 N -0.15956 0.39365 -0.05357
 N80 N -0.12263 0.56533 0.02961
 N81 N -0.15878 0.60879 0.05134
 N82 N -0.12241 0.56599 -0.03091
 N83 N -0.15846 0.60990 -0.05205
 N84 N -0.12329 0.43651 0.02868
 N85 N -0.15953 0.39274 0.04981
 Mn86 Mn -0.07633 0.50174 -0.07871
 Mn87 Mn -0.07682 0.50024 0.07669
 Cl88 Cl 0.00092 0.50057 -0.00070
 C89 C -0.18146 0.36620 -0.00203
 C90 C -0.18040 0.63640 -0.00015
 N91 N 0.02867 0.12281 0.43553
 N92 N 0.05011 0.15905 0.39174
 N93 N -0.03168 0.12295 0.56508
 N94 N -0.05293 0.15968 0.60845
 N95 N 0.02868 0.12283 0.56506
 N96 N 0.05018 0.15941 0.60838
 N97 N -0.03169 0.12278 0.43546
 N98 N -0.05301 0.15903 0.39164
 C99 C -0.00140 0.18092 0.36455
 C100 C -0.00127 0.18166 0.63529
 N101 N -0.12544 -0.03073 0.56546
 N102 N -0.16213 -0.05191 0.60905
 N103 N -0.12541 0.02928 0.43570
 N104 N -0.16202 0.05058 0.39216
 N105 N -0.12551 -0.03093 0.43584
 N106 N -0.16225 -0.05223 0.39242
 N107 N -0.12542 0.02948 0.56524
 N108 N -0.16209 0.05091 0.60864
 Mn109 Mn -0.07901 0.07657 0.50037
 C110 C -0.18424 -0.00042 0.63581
 C111 C -0.18428 -0.00080 0.36532
 N112 N 0.12231 0.02951 0.56525
 N113 N 0.15880 0.05083 0.60883
 N114 N 0.12240 -0.03058 0.43573
 N115 N 0.15909 -0.05173 0.39221
 N116 N 0.12230 0.02961 0.43570
 N117 N 0.15888 0.05108 0.39218
 N118 N 0.12230 -0.03067 0.56534
 N119 N 0.15878 -0.05199 0.60898
 Mn120 Mn 0.07593 0.07663 0.50039
 C121 C 0.18081 -0.00058 0.63594
 C122 C 0.18109 -0.00021 0.36521
 N123 N -0.03163 -0.12432 0.43600
 N124 N -0.05283 -0.16077 0.39237
 N125 N 0.02871 -0.12416 0.56553
 N126 N 0.05022 -0.16084 0.60887
 N127 N -0.03167 -0.12432 0.56565
 N128 N -0.05288 -0.16119 0.60907
 N129 N 0.02874 -0.12409 0.43600
 N130 N 0.05029 -0.16035 0.39243
 Mn131 Mn -0.07904 -0.07805 0.50075
 Mn132 Mn 0.07598 -0.07783 0.50064
 Cl133 Cl -0.00156 -0.00068 0.50055
 C134 C -0.00114 -0.18251 0.36539
 C135 C -0.00120 -0.18321 0.63590
 N136 N -0.29205 0.25041 -0.05577
 C137 C -0.31429 0.22798 -0.00179
 N138 N -0.29171 0.25022 0.05200
 N139 N -0.24867 0.29368 0.05185
 C140 C -0.22673 0.31643 -0.00210
 N141 N -0.24900 0.29390 -0.05593
 N142 N 0.29405 0.75010 0.05572
 C143 C 0.31648 0.77285 0.00197
 N144 N 0.29400 0.75100 -0.05205
 N145 N 0.25089 0.70762 -0.05234
 C146 C 0.22876 0.68456 0.00138
 N147 N 0.25092 0.70669 0.05543
 N148 N 0.29395 0.24999 -0.05494
 C149 C 0.31637 0.22759 -0.00105
 N150 N 0.29368 0.24957 0.05283
 N151 N 0.25037 0.29273 0.05284
 C152 C 0.22825 0.31544 -0.00103
 N153 N 0.25065 0.29317 -0.05493
 N154 N -0.29109 0.75135 0.05464
 C155 C -0.31379 0.77382 0.00092
 N156 N -0.29140 0.75197 -0.05313
 N157 N -0.24811 0.70881 -0.05348
 C158 C -0.22573 0.68601 0.00023
 N159 N -0.24781 0.70817 0.05430
 N160 N -0.05381 -0.29378 0.24975
 C161 C 0.00016 -0.31614 0.22788
 N162 N 0.05369 -0.29341 0.25042
 N163 N 0.05324 -0.25010 0.29364
 C164 C -0.00074 -0.22804 0.31582
 N165 N -0.05426 -0.25048 0.29298
 N166 N -0.05399 0.29423 0.74963
 C167 C -0.00002 0.31657 0.77155
 N168 N 0.05350 0.29338 0.74950
 N169 N 0.05305 0.24967 0.70669
 C170 C -0.00091 0.22763 0.68447
 N171 N -0.05444 0.25052 0.70682
 N172 N -0.05463 0.29210 0.24875
 C173 C -0.00075 0.31448 0.22656
 N174 N 0.05287 0.29175 0.24890
 N175 N 0.05263 0.24844 0.29225
 C176 C -0.00123 0.22637 0.31476
 N177 N -0.05487 0.24878 0.29211
 N178 N -0.05331 -0.29623 0.75080
 C179 C 0.00085 -0.31829 0.77277
 N180 N 0.05416 -0.29453 0.75049
 N181 N 0.05339 -0.25088 0.70749
 C182 C -0.00070 -0.22927 0.68522
 N183 N -0.05406 -0.25254 0.70777
 N184 N 0.29268 0.05300 0.75080
 C185 C 0.31526 -0.00059 0.77315
 N186 N 0.29243 -0.05419 0.75123
 N187 N 0.24883 -0.05419 0.70811
 C188 C 0.22656 -0.00059 0.68546
 N189 N 0.24909 0.05300 0.70770
 N190 N -0.29505 0.05384 0.24978
 C191 C -0.31879 0.00057 0.22779
 N192 N -0.29689 -0.05333 0.25030
 N193 N -0.25339 -0.05386 0.29356
 C194 C -0.23015 -0.00053 0.31581
 N195 N -0.25160 0.05329 0.29300
 N196 N 0.29288 0.05423 0.25028
 C197 C 0.31589 0.00080 0.22817
 N198 N 0.29341 -0.05296 0.25030
 N199 N 0.24973 -0.05330 0.29335
 C200 C 0.22701 0.00012 0.31577
 N201 N 0.24920 0.05389 0.29334
 N202 N -0.29678 0.05308 0.75035
 C203 C -0.31905 -0.00062 0.77301
 N204 N -0.29555 -0.05410 0.75132
 N205 N -0.25197 -0.05397 0.70820
 C206 C -0.23016 -0.00034 0.68524
 N207 N -0.25314 0.05319 0.70720
   
