data_POSCAR
  _audit_creation_date              2014-09-24
  _audit_creation_method            'ToBaCCo'
  _symmetry_space_group_name_H-M    'P1'
  _symmetry_Int_Tables_number       1
  _symmetry_cell_setting            triclinic
  loop_
  _symmetry_equiv_pos_as_xyz
 x,y,z
_cell_length_a 35.4256
_cell_length_b 32.5892
_cell_length_c 31.6701
_cell_angle_alpha 96.301000
_cell_angle_beta 86.416600
_cell_angle_gamma 85.188900
loop_
  _atom_site_label
  _atom_site_type_symbol
  _atom_site_fract_x
  _atom_site_fract_y
  _atom_site_fract_z
N1 N 0.34180 0.29729 0.25249
 N2 N 0.32252 0.33327 0.25077
 C3 C 0.34309 0.35610 0.22660
 C4 C 0.37659 0.33266 0.21194
 C5 C 0.37480 0.29549 0.22876
 H6 H 0.33348 0.38629 0.21809
 H7 H 0.39557 0.26882 0.22346
 Cu8 Cu 0.27015 0.34327 0.27429
 Cu9 Cu 0.32171 0.25459 0.28335
 Cu10 Cu 0.24351 0.28942 0.35362
 N11 N 0.21832 0.34976 0.29952
 N12 N 0.20804 0.32925 0.33123
 C13 C 0.17106 0.34004 0.34309
 C14 C 0.15745 0.36822 0.31684
 C15 C 0.18811 0.37371 0.28956
 H16 H 0.15515 0.32774 0.36836
 H17 H 0.18840 0.39367 0.26445
 N18 N 0.27627 0.23848 0.35850
 N19 N 0.30557 0.22498 0.33126
 C20 C 0.32225 0.18972 0.34285
 C21 C 0.30223 0.18038 0.37877
 C22 C 0.27316 0.21177 0.38785
 H23 H 0.34721 0.17221 0.32646
 H24 H 0.25146 0.21498 0.41388
 H25 H 0.26330 0.27319 0.29256
 H26 H 0.29662 0.30110 0.32625
 N27 N 0.66711 -0.27652 0.14301
 N28 N 0.68944 -0.30977 0.12768
 C29 C 0.67087 -0.33377 0.10039
 C30 C 0.63515 -0.31421 0.09753
 C31 C 0.63364 -0.27762 0.12478
 H32 H 0.68276 -0.36304 0.08329
 H33 H 0.60983 -0.25428 0.13175
 Cu34 Cu 0.74159 -0.31822 0.14248
 Cu35 Cu 0.68417 -0.23641 0.18696
 Cu36 Cu 0.75653 -0.28093 0.24181
 N37 N 0.78769 -0.33496 0.16819
 N38 N 0.79245 -0.32260 0.20827
 C39 C 0.82447 -0.34267 0.21951
 C40 C 0.84090 -0.36816 0.18406
 C41 C 0.81696 -0.36223 0.15202
 H42 H 0.83512 -0.33863 0.25083
 H43 H 0.81975 -0.37798 0.11993
 N44 N 0.72602 -0.22835 0.26343
 N45 N 0.69875 -0.21131 0.24259
 C46 C 0.68482 -0.17491 0.26462
 C47 C 0.70467 -0.16853 0.30064
 C48 C 0.73056 -0.20291 0.29891
 H49 H 0.66259 -0.15407 0.25466
 H50 H 0.75168 -0.20855 0.32132
 H51 H 0.74296 -0.25347 0.18863
 H52 H 0.70752 -0.28711 0.20906
 N53 N 0.70178 0.23550 0.79239
 N54 N 0.71386 0.26399 0.81964
 C55 C 0.68993 0.27003 0.85498
 C56 C 0.66159 0.24367 0.84934
 C57 C 0.66990 0.22226 0.80934
 H58 H 0.69285 0.29185 0.88262
 H59 H 0.65382 0.19905 0.79357
 Cu60 Cu 0.75888 0.29104 0.80476
 Cu61 Cu 0.72760 0.21905 0.73639
 Cu62 Cu 0.82152 0.24241 0.72800
 N63 N 0.80594 0.31417 0.78988
 N64 N 0.82987 0.29633 0.75845
 C65 C 0.85895 0.32013 0.75383
 C66 C 0.85271 0.35441 0.78432
 C67 C 0.81901 0.34943 0.80666
 H68 H 0.88280 0.31287 0.73039
 H69 H 0.80467 0.37052 0.83259
 N70 N 0.80167 0.19751 0.69065
 N71 N 0.76536 0.19087 0.69254
 C72 C 0.76003 0.15892 0.66362
 C73 C 0.79464 0.14424 0.64282
 C74 C 0.82056 0.16934 0.66057
 H75 H 0.73322 0.14588 0.65959
 H76 H 0.85085 0.16695 0.65253
 H77 H 0.77704 0.22321 0.76546
 H78 H 0.76664 0.26363 0.72937
 N79 N 0.27922 -0.25156 0.78921
 N80 N 0.25325 -0.27307 0.80597
 C81 C 0.26763 -0.29135 0.83818
 C82 C 0.30421 -0.28084 0.84236
 C83 C 0.31075 -0.25523 0.81099
 H84 H 0.25358 -0.31349 0.85520
 H85 H 0.33736 -0.24322 0.80238
 Cu86 Cu 0.20526 -0.28469 0.78028
 Cu87 Cu 0.27169 -0.22552 0.73625
 Cu88 Cu 0.19794 -0.25626 0.68354
 N89 N 0.17023 -0.30909 0.74169
 N90 N 0.16928 -0.29973 0.70243
 C91 C 0.14474 -0.32249 0.68174
 C92 C 0.12882 -0.34683 0.70994
 C93 C 0.14536 -0.33733 0.74789
 H94 H 0.13833 -0.32078 0.64899
 H95 H 0.14061 -0.35075 0.77732
 N96 N 0.21784 -0.20368 0.67658
 N97 N 0.24809 -0.19209 0.69508
 C98 C 0.25612 -0.15518 0.68275
 C99 C 0.22869 -0.14301 0.65610
 C100 C 0.20489 -0.17433 0.65314
 H101 H 0.27901 -0.13778 0.69377
 H102 H 0.17997 -0.17573 0.63514
 H103 H 0.21770 -0.23130 0.75364
 H104 H 0.24453 -0.28113 0.73029
 N105 N 0.65729 -0.26008 0.77507
 N106 N 0.67966 -0.29202 0.78338
 C107 C 0.65958 -0.31598 0.80645
 C108 C 0.62288 -0.29771 0.81383
 C109 C 0.62226 -0.26203 0.79377
 H110 H 0.67064 -0.34517 0.81621
 H111 H 0.59777 -0.24072 0.79060
 Cu112 Cu 0.73254 -0.30112 0.76186
 Cu113 Cu 0.67528 -0.22177 0.73661
 Cu114 Cu 0.75479 -0.26303 0.67054
 N115 N 0.77783 -0.32253 0.72636
 N116 N 0.78441 -0.31036 0.68859
 C117 C 0.81563 -0.33256 0.66895
 C118 C 0.82964 -0.35938 0.69639
 C119 C 0.80506 -0.35212 0.73264
 H120 H 0.82803 -0.32840 0.63779
 H121 H 0.80626 -0.36784 0.76095
 N122 N 0.72183 -0.21422 0.65921
 N123 N 0.69211 -0.19796 0.68469
 C124 C 0.67719 -0.16350 0.66966
 C125 C 0.69893 -0.15765 0.63342
 C126 C 0.72690 -0.19025 0.62769
 H127 H 0.65294 -0.14358 0.68453
 H128 H 0.74982 -0.19542 0.60299
 H129 H 0.70393 -0.27272 0.70250
 H130 H 0.73441 -0.23586 0.73003
 N131 N 0.33836 0.30447 0.84025
 N132 N 0.32371 0.34323 0.84653
 C133 C 0.34502 0.36526 0.87279
 C134 C 0.37413 0.33846 0.88382
 C135 C 0.36900 0.30017 0.86280
 H136 H 0.33900 0.39781 0.88424
 H137 H 0.38617 0.27129 0.86386
 Cu138 Cu 0.27632 0.35966 0.82294
 Cu139 Cu 0.31628 0.26220 0.80423
 Cu140 Cu 0.24567 0.29823 0.74274
 N141 N 0.22448 0.36687 0.80669
 N142 N 0.21276 0.34409 0.77403
 C143 C 0.17659 0.35751 0.76839
 C144 C 0.16509 0.38985 0.79981
 C145 C 0.19607 0.39491 0.82355
 H146 H 0.15985 0.34438 0.74376
 H147 H 0.19801 0.41781 0.85058
 N148 N 0.27411 0.24324 0.72970
 N149 N 0.30053 0.22945 0.75359
 C150 C 0.31554 0.19167 0.73611
 C151 C 0.29737 0.18104 0.69981
 C152 C 0.27114 0.21425 0.69665
 H153 H 0.33842 0.17353 0.74847
 H154 H 0.25184 0.21740 0.67182
 H155 H 0.29981 0.30557 0.76548
 H156 H 0.26113 0.28919 0.80091
 N157 N 0.29014 -0.26595 0.20823
 N158 N 0.26776 -0.29328 0.19227
 C159 C 0.28585 -0.31550 0.15756
 C160 C 0.32089 -0.30105 0.15062
 C161 C 0.32283 -0.26942 0.18315
 H162 H 0.27485 -0.34131 0.13930
 H163 H 0.34690 -0.25192 0.18935
 Cu164 Cu 0.21747 -0.30169 0.21850
 Cu165 Cu 0.27621 -0.23009 0.26257
 Cu166 Cu 0.19400 -0.24727 0.31297
 N167 N 0.17555 -0.31494 0.25598
 N168 N 0.16656 -0.29355 0.29339
 C169 C 0.13626 -0.30830 0.31217
 C170 C 0.12562 -0.34062 0.28497
 C171 C 0.15109 -0.34411 0.24951
 H172 H 0.12259 -0.29606 0.34300
 H173 H 0.15165 -0.36591 0.22109
 N174 N 0.21544 -0.19489 0.32297
 N175 N 0.24909 -0.18881 0.30608
 C176 C 0.25865 -0.15160 0.32310
 C177 C 0.22868 -0.13346 0.35100
 C178 C 0.20180 -0.16155 0.34987
 H179 H 0.28495 -0.13856 0.31530
 H180 H 0.17488 -0.15859 0.36858
 H181 H 0.24830 -0.28388 0.26877
 H182 H 0.22456 -0.24069 0.24335
 N183 N 0.71007 0.22823 0.21896
 N184 N 0.72326 0.25399 0.19373
 C185 C 0.69809 0.26080 0.16453
 C186 C 0.66785 0.23773 0.17198
 C187 C 0.67629 0.21750 0.20668
 H188 H 0.70160 0.28067 0.13963
 H189 H 0.65911 0.19669 0.22202
 Cu190 Cu 0.77172 0.27627 0.20261
 Cu191 Cu 0.73720 0.21149 0.26650
 Cu192 Cu 0.83346 0.22385 0.25779
 N193 N 0.82225 0.29340 0.21016
 N194 N 0.84551 0.27448 0.23416
 C195 C 0.87771 0.29369 0.23556
 C196 C 0.87440 0.32577 0.21055
 C197 C 0.83913 0.32461 0.19466
 H198 H 0.90206 0.28421 0.25232
 H199 H 0.82662 0.34531 0.17386
 N200 N 0.81148 0.18365 0.29227
 N201 N 0.77451 0.18108 0.29731
 C202 C 0.76779 0.15117 0.32201
 C203 C 0.80215 0.13370 0.33269
 C204 C 0.82939 0.15497 0.31348
 H205 H 0.74002 0.14139 0.32977
 H206 H 0.85985 0.14954 0.31436
 H207 H 0.78084 0.25154 0.27184
 H208 H 0.78512 0.20877 0.22702
 O209 O 0.25905 0.07686 0.49081
 O210 O 0.22397 0.00588 0.56379
 O211 O 0.25671 0.07482 0.57239
 O212 O 0.22473 0.00981 0.48240
 O213 O 0.28014 -0.02769 0.47421
 O214 O 0.31248 0.03805 0.56517
 O215 O 0.27976 -0.03083 0.55667
 O216 O 0.31466 0.03973 0.48262
 Cu217 Cu 0.23554 0.04551 0.52829
 Cu218 Cu 0.30242 0.00112 0.51895
 C219 C 0.29279 0.07011 0.47394
 C220 C 0.24570 -0.02457 0.57261
 C221 C 0.28997 0.06775 0.58410
 C222 C 0.24677 -0.01980 0.46280
 O223 O 0.79673 -0.00456 0.51616
 O224 O 0.75695 -0.07113 0.43092
 O225 O 0.79860 -0.00817 0.43461
 O226 O 0.75508 -0.06774 0.51432
 O227 O 0.70284 -0.02494 0.51975
 O228 O 0.74617 0.03443 0.44041
 O229 O 0.70493 -0.02798 0.43665
 O230 O 0.74401 0.03759 0.52225
 Cu231 Cu 0.78190 -0.04258 0.47348
 Cu232 Cu 0.71915 0.00884 0.48031
 C233 C 0.77730 0.02834 0.53309
 C234 C 0.72432 -0.06053 0.41892
 C235 C 0.77989 0.02387 0.42464
 C236 C 0.72171 -0.05633 0.53083
 O237 O 0.47269 0.28495 0.07526
 O238 O 0.53647 0.24334 -0.01795
 O239 O 0.53778 0.24209 0.06399
 O240 O 0.47152 0.28684 -0.00651
 O241 O 0.49948 0.34511 -0.00135
 O242 O 0.56659 0.29980 0.06896
 O243 O 0.56524 0.30106 -0.01316
 O244 O 0.50041 0.34337 0.08010
 Cu245 Cu 0.50176 0.25850 0.02817
 Cu246 Cu 0.53598 0.32813 0.03416
 C247 C 0.47543 0.32116 0.09345
 C248 C 0.56164 0.26508 -0.03158
 C249 C 0.56340 0.26337 0.07865
 C250 C 0.47400 0.32347 -0.01586
 O251 O 0.50768 0.70259 0.01163
 O252 O 0.42675 0.71201 -0.05732
 O253 O 0.43308 0.70509 0.02416
 O254 O 0.50165 0.70694 -0.06959
 O255 O 0.50183 0.63895 -0.08249
 O256 O 0.43757 0.63679 0.01176
 O257 O 0.42841 0.64374 -0.06704
 O258 O 0.51076 0.63454 -0.00330
 Cu259 Cu 0.46692 0.71362 -0.02154
 Cu260 Cu 0.46983 0.63184 -0.03651
 C261 C 0.52358 0.66668 0.01473
 C262 C 0.41335 0.67914 -0.07303
 C263 C 0.42368 0.67016 0.03360
 C264 C 0.51374 0.67275 -0.09156
 O265 O 0.04849 0.45672 0.24380
 O266 O -0.01970 0.52418 0.19348
 O267 O 0.04070 0.53520 0.23529
 O268 O -0.01033 0.44580 0.19909
 O269 O -0.04694 0.45563 0.25907
 O270 O 0.00454 0.54517 0.29556
 O271 O -0.05587 0.53544 0.25373
 O272 O 0.01138 0.46628 0.30339
 Cu273 Cu 0.01855 0.48947 0.21197
 Cu274 Cu -0.02544 0.50174 0.28394
 C275 C 0.04152 0.45000 0.28218
 C276 C -0.04954 0.54107 0.21497
 C277 C 0.03157 0.55524 0.27164
 C278 C -0.03748 0.43568 0.22265
 O279 O 0.01883 0.56017 0.75869
 O280 O -0.04998 0.49114 0.79592
 O281 O 0.02248 0.49743 0.80190
 O282 O -0.05414 0.55531 0.75466
 O283 O -0.04245 0.51435 0.69407
 O284 O 0.03515 0.45629 0.74159
 O285 O -0.03818 0.44908 0.73613
 O286 O 0.02936 0.51945 0.69781
 Cu287 Cu -0.01691 0.53002 0.78386
 Cu288 Cu -0.00293 0.48024 0.71149
 C289 C 0.03559 0.55171 0.72171
 C290 C -0.05612 0.45864 0.77235
 C291 C 0.04242 0.46767 0.77971
 C292 C -0.06120 0.54505 0.71634
 N293 N 0.44006 0.37686 0.14164
 N294 N 0.41304 0.38126 0.17319
 C295 C 0.40574 0.34267 0.18080
 C296 C 0.42879 0.31455 0.15300
 N297 N 0.44969 0.33704 0.12913
 H298 H 0.42949 0.28106 0.14955
 N299 N 0.58077 0.62723 0.03026
 N300 N 0.61147 0.63156 0.05141
 C301 C 0.60756 0.67018 0.07228
 C302 C 0.57320 0.68967 0.06313
 N303 N 0.55752 0.66162 0.03667
 H304 H 0.56134 0.72111 0.07360
 N305 N 0.58022 0.21483 -0.09341
 N306 N 0.60627 0.20822 -0.12585
 C307 C 0.62915 0.23918 -0.12102
 C308 C 0.61634 0.26512 -0.08470
 N309 N 0.58577 0.24881 -0.06849
 H310 H 0.62777 0.29320 -0.07164
 N311 N 0.35689 0.65098 -0.09812
 N312 N 0.32733 0.66079 -0.11967
 C313 C 0.33160 0.69853 -0.13193
 C314 C 0.36495 0.71188 -0.11688
 N315 N 0.37974 0.68111 -0.09590
 H316 H 0.37709 0.74076 -0.12066
 N317 N 0.06086 0.40922 0.33857
 N318 N 0.09126 0.38694 0.34886
 C319 C 0.11863 0.38806 0.31756
 C320 C 0.10412 0.41148 0.28763
 N321 N 0.06805 0.42406 0.30191
 H322 H 0.11840 0.41904 0.25864
 N323 N 0.06696 0.58512 0.66600
 N324 N 0.09163 0.61306 0.66184
 C325 C 0.10230 0.62475 0.70120
 C326 C 0.08314 0.60336 0.72979
 N327 N 0.06143 0.57906 0.70648
 H328 H 0.08474 0.60517 0.76397
 N329 N -0.08030 0.56102 0.15300
 N330 N -0.11022 0.58458 0.14362
 C331 C -0.12618 0.60480 0.18073
 C332 C -0.10515 0.59281 0.21333
 N333 N -0.07689 0.56540 0.19459
 H334 H -0.11046 0.60197 0.24723
 N335 N -0.10832 0.44535 0.82056
 N336 N -0.13365 0.41814 0.82437
 C337 C -0.12561 0.38790 0.79164
 C338 C -0.09430 0.39739 0.76747
 N339 N -0.08456 0.43359 0.78666
 H340 H -0.08081 0.38057 0.73830
 N341 N 0.33881 0.08937 0.42090
 N342 N 0.34220 0.11813 0.39473
 C343 C 0.31041 0.14446 0.40197
 C344 C 0.28738 0.13104 0.43334
 N345 N 0.30612 0.09660 0.44424
 H346 H 0.25951 0.14442 0.44634
 N347 N 0.82995 0.05568 0.57027
 N348 N 0.83594 0.08704 0.59879
 C349 C 0.80172 0.10783 0.61070
 C350 C 0.77464 0.08832 0.58875
 N351 N 0.79332 0.05598 0.56395
 H352 H 0.74436 0.09700 0.59030
 N353 N 0.19422 -0.05445 0.60893
 N354 N 0.18859 -0.08581 0.63110
 C355 C 0.22313 -0.10427 0.63666
 C356 C 0.25030 -0.08345 0.61686
 N357 N 0.23096 -0.05262 0.59985
 H358 H 0.28074 -0.09114 0.61333
 N359 N 0.67764 -0.07370 0.36701
 N360 N 0.67151 -0.10166 0.33512
 C361 C 0.70023 -0.13190 0.33268
 C362 C 0.72430 -0.12158 0.36408
 N363 N 0.70917 -0.08504 0.38472
 H364 H 0.75043 -0.13853 0.37079
 N365 N 0.55891 0.63565 -0.14557
 N366 N 0.58852 0.64215 -0.17067
 C367 C 0.59100 0.68338 -0.16667
 C368 C 0.56185 0.70220 -0.13813
 N369 N 0.54257 0.67112 -0.12563
 H370 H 0.55684 0.73459 -0.12557
 N371 N 0.44043 0.38023 -0.04688
 N372 N 0.41326 0.38560 -0.07331
 C373 C 0.40328 0.34751 -0.08659
 C374 C 0.42484 0.31876 -0.06755
 N375 N 0.44758 0.34032 -0.04307
 H376 H 0.42388 0.28545 -0.07077
 N377 N 0.38106 0.63243 0.07372
 N378 N 0.35336 0.63887 0.10429
 C379 C 0.35067 0.67954 0.11862
 C380 C 0.37770 0.69813 0.09568
 N381 N 0.39595 0.66746 0.06786
 H382 H 0.38233 0.73067 0.09756
 N383 N 0.58260 0.21264 0.12574
 N384 N 0.60984 0.20499 0.15135
 C385 C 0.63384 0.23470 0.14829
 C386 C 0.62053 0.26094 0.12020
 N387 N 0.58851 0.24608 0.10693
 H388 H 0.63259 0.28827 0.11073
 N389 N -0.08894 0.57630 0.65762
 N390 N -0.11779 0.60309 0.65136
 C391 C -0.13800 0.61275 0.68922
 C392 C -0.12064 0.59122 0.71893
 N393 N -0.09019 0.56896 0.69795
 H394 H -0.12858 0.59247 0.75266
 N395 N -0.06230 0.39128 0.16631
 N396 N -0.08619 0.36220 0.16171
 C397 C -0.09737 0.35437 0.20125
 C398 C -0.08005 0.37971 0.23035
 N399 N -0.05843 0.40226 0.20719
 H400 H -0.08378 0.38253 0.26477
 N401 N 0.08462 0.46019 0.83627
 N402 N 0.11754 0.44037 0.84269
 C403 C 0.12836 0.41479 0.80684
 C404 C 0.10099 0.41937 0.77812
 N405 N 0.07424 0.44810 0.79777
 H406 H 0.10147 0.40505 0.74556
 N407 N 0.04498 0.61233 0.32323
 N408 N 0.06974 0.64050 0.32796
 C409 C 0.09352 0.63480 0.29244
 C410 C 0.08262 0.60238 0.26570
 N411 N 0.05226 0.58926 0.28609
 H412 H 0.09563 0.58931 0.23477
 N413 N 0.67232 -0.06706 0.58461
 N414 N 0.66524 -0.09337 0.61258
 C415 C 0.69475 -0.12284 0.60780
 C416 C 0.72021 -0.11380 0.57614
 N417 N 0.70518 -0.07880 0.56255
 H418 H 0.74719 -0.13059 0.56456
 N419 N 0.19729 -0.04125 0.41820
 N420 N 0.19145 -0.07092 0.38800
 C421 C 0.22496 -0.09374 0.37802
 C422 C 0.25164 -0.07743 0.40336
 N423 N 0.23306 -0.04478 0.42809
 H424 H 0.28071 -0.08968 0.40569
 N425 N 0.83384 0.04624 0.38395
 N426 N 0.84115 0.07588 0.35985
 C427 C 0.80774 0.09817 0.35702
 C428 C 0.77982 0.08138 0.37989
 N429 N 0.79717 0.04910 0.39614
 H430 H 0.74987 0.09184 0.38472
 N431 N 0.33302 0.08552 0.63913
 N432 N 0.33574 0.11517 0.67070
 C433 C 0.30535 0.14297 0.67026
 C434 C 0.28388 0.12955 0.63768
 N435 N 0.30206 0.09366 0.61909
 H436 H 0.25760 0.14427 0.62844
   
