data_POSCAR
  _audit_creation_date              2014-09-24
  _audit_creation_method            'ToBaCCo'
  _symmetry_space_group_name_H-M    'P1'
  _symmetry_Int_Tables_number       1
  _symmetry_cell_setting            triclinic
  loop_
  _symmetry_equiv_pos_as_xyz
 x,y,z
_cell_length_a 37.8469
_cell_length_b 38.2648
_cell_length_c 38.2866
_cell_angle_alpha 87.204800
_cell_angle_beta 93.241300
_cell_angle_gamma 93.197100
loop_
  _atom_site_label
  _atom_site_type_symbol
  _atom_site_fract_x
  _atom_site_fract_y
  _atom_site_fract_z
C1 C 0.24347 0.27789 0.29194
 C2 C 0.26671 0.29742 0.26544
 C3 C 0.28416 0.27559 0.24377
 C4 C 0.27593 0.23653 0.25169
 C5 C 0.21675 0.25531 0.27089
 C6 C 0.23216 0.23096 0.24711
 C7 C 0.26739 0.25238 0.31209
 C8 C 0.28480 0.23010 0.29084
 H9 H 0.26976 0.32567 0.26441
 H10 H 0.28964 0.21925 0.23491
 H11 H 0.18839 0.25631 0.27288
 H12 H 0.27107 0.25239 0.34027
 C13 C 0.71802 0.79086 0.26614
 C14 C 0.74553 0.81039 0.24378
 C15 C 0.76705 0.78812 0.22653
 C16 C 0.75773 0.74913 0.23436
 C17 C 0.69680 0.76655 0.24129
 C18 C 0.71810 0.74393 0.22408
 C19 C 0.73928 0.76689 0.29131
 C20 C 0.76042 0.74402 0.27436
 H21 H 0.74831 0.83866 0.24220
 H22 H 0.77451 0.73152 0.22098
 H23 H 0.66824 0.76643 0.23815
 H24 H 0.73840 0.76815 0.31937
 C25 C 0.73585 0.29089 0.77154
 C26 C 0.76099 0.30742 0.74788
 C27 C 0.78109 0.28378 0.73047
 C28 C 0.77201 0.24534 0.74110
 C29 C 0.71247 0.26518 0.74971
 C30 C 0.73197 0.24039 0.73331
 C31 C 0.75767 0.26794 0.79740
 C32 C 0.77720 0.24313 0.78112
 H33 H 0.76213 0.33539 0.74198
 H34 H 0.78765 0.22651 0.72799
 H35 H 0.68401 0.26661 0.74686
 H36 H 0.75872 0.27163 0.82525
 C37 C 0.20372 0.76431 0.76940
 C38 C 0.23306 0.78476 0.75016
 C39 C 0.25589 0.76310 0.73365
 C40 C 0.24594 0.72390 0.73908
 C41 C 0.18460 0.74144 0.74205
 C42 C 0.20715 0.71968 0.72552
 C43 C 0.22255 0.73878 0.79499
 C44 C 0.24573 0.71719 0.77889
 H45 H 0.23481 0.81307 0.74832
 H46 H 0.26368 0.70683 0.72622
 H47 H 0.15614 0.74080 0.73741
 H48 H 0.21842 0.73799 0.82271
 C49 C 0.06514 0.05428 0.00828
 H50 H 0.06474 0.05702 -0.01999
 C51 C 0.08947 0.07457 0.02843
 H52 H 0.10774 0.09305 0.01550
 C53 C 0.04202 0.02644 0.05939
 H54 H 0.02351 0.00767 0.07136
 C55 C 0.06587 0.04634 0.08059
 H56 H 0.06574 0.04191 0.10870
 N57 N 0.04254 0.03029 0.02391
 C58 C 0.02492 -0.04821 -0.05504
 H59 H -0.00358 -0.04917 -0.05965
 C60 C 0.04539 -0.06986 -0.07322
 H61 H 0.03209 -0.08750 -0.09150
 C62 C 0.07627 -0.02520 -0.02407
 H63 H 0.08831 -0.00851 -0.00432
 C64 C 0.09764 -0.04625 -0.04159
 H65 H 0.12597 -0.04500 -0.03542
 Zn66 Zn 0.01259 0.00263 -0.00640
 N67 N 0.04065 -0.02607 -0.03139
 C68 C -0.01430 0.03313 -0.07215
 N69 N -0.01275 0.03422 -0.03666
 C70 C -0.02993 0.05853 -0.02044
 C71 C -0.05102 0.08203 -0.03976
 C72 C -0.03520 0.05619 -0.09263
 C73 C -0.00806 -0.05109 0.04323
 C74 C -0.03190 -0.07184 0.06310
 C75 C -0.08004 -0.04318 0.03147
 C76 C -0.05536 -0.02305 0.01241
 N77 N -0.02006 -0.02668 0.01906
 H78 H 0.00019 0.01412 -0.08465
 H79 H -0.02765 0.05922 0.00783
 H80 H -0.06385 0.10080 -0.02536
 H81 H -0.03660 0.05440 -0.12084
 H82 H 0.02015 -0.05397 0.04755
 H83 H -0.02118 -0.09017 0.08269
 H84 H -0.10798 -0.03921 0.02596
 H85 H -0.06460 -0.00439 -0.00761
 C86 C 0.08243 -0.06870 -0.06676
 C87 C 0.09013 0.07070 0.06503
 C88 C -0.06864 -0.06769 0.05763
 C89 C -0.05468 0.08066 -0.07656
 C90 C 0.03661 0.55317 0.48215
 H91 H 0.03312 0.55606 0.45393
 C92 C 0.05731 0.57816 0.50065
 H93 H 0.06977 0.60037 0.48659
 C94 C 0.02382 0.52124 0.53493
 H95 H 0.00984 0.49979 0.54843
 C96 C 0.04462 0.54534 0.55439
 H97 H 0.04628 0.54197 0.58265
 N98 N 0.02078 0.52512 0.49939
 C99 C 0.00631 0.44530 0.42170
 H100 H -0.02200 0.43958 0.42188
 C101 C 0.02673 0.42719 0.40012
 H102 H 0.01399 0.40749 0.38358
 C103 C 0.05741 0.47766 0.44343
 H104 H 0.06936 0.49708 0.46059
 C105 C 0.07881 0.46020 0.42230
 H106 H 0.10688 0.46733 0.42290
 Zn107 Zn -0.00708 0.49286 0.47198
 N108 N 0.02184 0.47012 0.44262
 C109 C -0.04221 0.52070 0.40973
 N110 N -0.04075 0.51909 0.44531
 C111 C -0.06180 0.53847 0.46342
 C112 C -0.08568 0.56055 0.44580
 C113 C -0.06575 0.54240 0.39097
 C114 C -0.00933 0.43829 0.52348
 C115 C -0.02486 0.41463 0.54771
 C116 C -0.08247 0.42908 0.52245
 C117 C -0.06578 0.45323 0.49938
 N118 N -0.02988 0.45805 0.50095
 H119 H -0.02464 0.50575 0.39579
 H120 H -0.05954 0.53717 0.49175
 H121 H -0.10122 0.57581 0.46155
 H122 H -0.06621 0.54345 0.36261
 H123 H 0.01923 0.44200 0.52355
 H124 H -0.00794 0.40032 0.56648
 H125 H -0.11110 0.42710 0.52131
 H126 H -0.08162 0.46855 0.48065
 C127 C 0.06350 0.43429 0.40053
 C128 C 0.06194 0.57405 0.53714
 C129 C -0.06193 0.40996 0.54778
 C130 C -0.08791 0.56293 0.40884
 C131 C 0.57115 0.02111 0.54073
 H132 H 0.58594 0.00333 0.52692
 C133 C 0.58923 0.04716 0.56036
 H134 H 0.61783 0.04885 0.56112
 C135 C 0.51589 0.04071 0.55558
 H136 H 0.48725 0.03796 0.55361
 C137 C 0.53275 0.06705 0.57527
 H138 H 0.51682 0.08448 0.58841
 N139 N 0.53511 0.01810 0.53919
 C140 C 0.52784 -0.04491 0.45221
 H141 H 0.50644 -0.03047 0.43990
 C142 C 0.54665 -0.06601 0.43198
 H143 H 0.53911 -0.06736 0.40440
 C144 C 0.56121 -0.06280 0.50352
 H145 H 0.56620 -0.06188 0.53157
 C146 C 0.58077 -0.08426 0.48423
 H147 H 0.60108 -0.09960 0.49757
 Zn148 Zn 0.50769 -0.01645 0.51435
 N149 N 0.53556 -0.04338 0.48725
 C150 C 0.48774 0.03244 0.46134
 N151 N 0.47458 0.00804 0.48485
 C152 C 0.43914 0.00322 0.48867
 C153 C 0.41540 0.02315 0.46809
 C154 C 0.46499 0.05289 0.44009
 C155 C 0.48885 -0.04281 0.58151
 C156 C 0.46951 -0.06372 0.60529
 C157 C 0.44126 -0.09479 0.55692
 C158 C 0.46136 -0.07330 0.53406
 N159 N 0.48378 -0.04727 0.54655
 H160 H 0.51612 0.03628 0.45943
 H161 H 0.42914 -0.01549 0.50821
 H162 H 0.38729 0.01903 0.47190
 H163 H 0.47678 0.07235 0.42231
 H164 H 0.50754 -0.02270 0.59111
 H165 H 0.47348 -0.05901 0.63296
 H166 H 0.42292 -0.11428 0.54565
 H167 H 0.45826 -0.07663 0.50613
 C168 C 0.57379 -0.08586 0.44793
 C169 C 0.56985 0.07041 0.57825
 C170 C 0.44471 -0.08973 0.59325
 C171 C 0.42805 0.04850 0.44335
 C172 C 0.53207 0.56451 0.00056
 H173 H 0.51529 0.57201 -0.02204
 C174 C 0.55158 0.59032 0.01900
 H175 H 0.54961 0.61755 0.01032
 C176 C 0.55420 0.52016 0.03983
 H177 H 0.55437 0.49274 0.04819
 C178 C 0.57407 0.54518 0.05919
 H179 H 0.58922 0.53638 0.08241
 N180 N 0.53331 0.53023 0.01146
 C181 C 0.50886 0.44489 -0.05971
 H182 H 0.48020 0.44399 -0.06094
 C183 C 0.52647 0.42252 -0.07972
 H184 H 0.51115 0.40436 -0.09619
 C185 C 0.56353 0.46969 -0.03681
 H186 H 0.57788 0.48796 -0.01984
 C187 C 0.58225 0.44775 -0.05639
 H188 H 0.61086 0.44924 -0.05358
 Zn189 Zn 0.50215 0.49659 -0.01082
 N190 N 0.52748 0.46770 -0.03856
 C191 C 0.46837 0.52288 -0.07471
 N192 N 0.46762 0.52074 -0.03920
 C193 C 0.44282 0.53703 -0.02259
 C194 C 0.41738 0.55624 -0.04157
 C195 C 0.44343 0.54197 -0.09484
 C196 C 0.47092 0.43416 0.02175
 C197 C 0.45213 0.41508 0.04744
 C198 C 0.45106 0.46792 0.07926
 C199 C 0.46977 0.48588 0.05301
 N200 N 0.47884 0.46906 0.02463
 H201 H 0.48870 0.51035 -0.08750
 H202 H 0.44287 0.53543 0.00562
 H203 H 0.39834 0.56831 -0.02678
 H204 H 0.44479 0.54349 -0.12308
 H205 H 0.47863 0.42100 -0.00067
 H206 H 0.44572 0.38765 0.04359
 H207 H 0.44375 0.48221 0.10129
 H208 H 0.47681 0.51349 0.05516
 C209 C 0.56362 0.42376 -0.07832
 C210 C 0.57258 0.58095 0.04900
 C211 C 0.44152 0.43208 0.07669
 C212 C 0.41747 0.55930 -0.07844
 C213 C 0.17909 -0.21279 -0.21374
 C214 C 0.19062 -0.19158 -0.18632
 C215 C 0.16641 -0.17013 -0.16851
 C216 C 0.17419 -0.16270 -0.13334
 C217 C 0.15160 -0.14302 -0.11549
 C218 C 0.12104 -0.12965 -0.13280
 C219 C 0.11340 -0.13699 -0.16806
 C220 C 0.13588 -0.15686 -0.18583
 C221 C 0.09637 -0.10851 -0.11500
 C222 C 0.10615 -0.09078 -0.08460
 H223 H 0.21785 -0.19262 -0.17610
 H224 H 0.19749 -0.17275 -0.11942
 H225 H 0.15801 -0.13900 -0.08807
 H226 H 0.09010 -0.12702 -0.18204
 H227 H 0.12952 -0.16127 -0.21322
 H228 H 0.07042 -0.10523 -0.12765
 H229 H 0.15145 -0.21366 -0.22279
 H230 H 0.13328 -0.09131 -0.07416
 C231 C 0.22613 0.30173 0.31517
 C232 C 0.20383 0.32726 0.30106
 C233 C 0.18349 0.34912 0.32262
 C234 C 0.15294 0.36409 0.30747
 C235 C 0.13243 0.38415 0.32719
 C236 C 0.14222 0.38968 0.36255
 C237 C 0.17349 0.37579 0.37732
 C238 C 0.19394 0.35565 0.35763
 C239 C 0.12104 0.41032 0.38453
 C240 C 0.08484 0.41462 0.37780
 H241 H 0.19935 0.32961 0.27284
 H242 H 0.14470 0.35995 0.28035
 H243 H 0.10926 0.39554 0.31448
 H244 H 0.18196 0.38026 0.40432
 H245 H 0.21802 0.34567 0.36987
 H246 H 0.13401 0.42019 0.40825
 H247 H 0.22899 0.29691 0.34324
 H248 H 0.07093 0.40109 0.35651
 C249 C 0.69576 -0.18484 0.28430
 C250 C 0.67147 -0.19720 0.30873
 C251 C 0.65193 -0.17366 0.32942
 C252 C 0.64027 -0.18587 0.36220
 C253 C 0.62253 -0.16407 0.38285
 C254 C 0.61593 -0.12955 0.37095
 C255 C 0.62664 -0.11775 0.33771
 C256 C 0.64447 -0.13948 0.31715
 C257 C 0.59679 -0.10560 0.39159
 C258 C 0.59401 -0.10946 0.42787
 H259 H 0.66884 -0.22516 0.31481
 H260 H 0.64521 -0.21229 0.37201
 H261 H 0.61362 -0.17460 0.40775
 H262 H 0.62127 -0.09152 0.32761
 H263 H 0.65186 -0.12950 0.29152
 H264 H 0.58604 -0.08297 0.37763
 H265 H 0.70025 -0.15692 0.27933
 H266 H 0.60837 -0.12954 0.44253
 C267 C 0.71519 0.31709 -0.21082
 C268 C 0.69129 0.30687 -0.18528
 C269 C 0.67218 0.33208 -0.16607
 C270 C 0.64143 0.32029 -0.14928
 C271 C 0.62309 0.34314 -0.13034
 C272 C 0.63525 0.37841 -0.12774
 C273 C 0.66641 0.38999 -0.14393
 C274 C 0.68470 0.36718 -0.16288
 C275 C 0.61717 0.40348 -0.10737
 C276 C 0.58166 0.39897 -0.09905
 H277 H 0.68606 0.27911 -0.17952
 H278 H 0.63158 0.29324 -0.15077
 H279 H 0.59991 0.33278 -0.11726
 H280 H 0.67674 0.41683 -0.14183
 H281 H 0.70900 0.37707 -0.17424
 H282 H 0.63211 0.42727 -0.10037
 H283 H 0.71855 0.34449 -0.21894
 H284 H 0.56564 0.37719 -0.10950
 C285 C -0.20015 0.21944 -0.20135
 C286 C -0.19566 0.21569 -0.16485
 C287 C -0.17120 0.19133 -0.14608
 C288 C -0.14210 0.17833 -0.16170
 C289 C -0.11901 0.15644 -0.14231
 C290 C -0.12463 0.14711 -0.10695
 C291 C -0.15352 0.16039 -0.09148
 C292 C -0.17647 0.18221 -0.11077
 C293 C -0.10055 0.12497 -0.08472
 C294 C -0.07696 0.10239 -0.09771
 H295 H -0.21167 0.23010 -0.14870
 H296 H -0.13638 0.18571 -0.18849
 H297 H -0.09641 0.14779 -0.15492
 H298 H -0.15836 0.15392 -0.06424
 H299 H -0.19844 0.19209 -0.09796
 H300 H -0.10360 0.12541 -0.05691
 H301 H -0.18611 0.20285 -0.21727
 H302 H -0.07691 0.10021 -0.12578
 C303 C -0.21861 0.71857 0.29133
 C304 C -0.21782 0.71077 0.32746
 C305 C -0.19626 0.68337 0.34526
 C306 C -0.16569 0.67180 0.33111
 C307 C -0.14559 0.64656 0.34941
 C308 C -0.15571 0.63233 0.38219
 C309 C -0.18598 0.64425 0.39636
 C310 C -0.20600 0.66947 0.37813
 C311 C -0.13450 0.60669 0.40329
 C312 C -0.11036 0.58556 0.38911
 H313 H -0.23510 0.72368 0.34363
 H314 H -0.15655 0.68282 0.30647
 H315 H -0.12166 0.63918 0.33819
 H316 H -0.19415 0.63409 0.42172
 H317 H -0.22921 0.67817 0.38980
 H318 H -0.13940 0.60407 0.43081
 H319 H -0.20341 0.70339 0.27508
 H320 H -0.10896 0.58640 0.36092
 C321 C 0.30782 0.20430 0.30344
 C322 C 0.31413 0.19535 0.33905
 C323 C 0.33858 0.16840 0.35263
 C324 C 0.33433 0.15363 0.38649
 C325 C 0.35753 0.12915 0.40113
 C326 C 0.38565 0.11890 0.38215
 C327 C 0.39023 0.13397 0.34843
 C328 C 0.36688 0.15841 0.33369
 C329 C 0.41175 0.09440 0.39774
 C330 C 0.40344 0.06924 0.42425
 H331 H 0.29937 0.20714 0.35831
 H332 H 0.31311 0.16129 0.40186
 H333 H 0.35390 0.11919 0.42768
 H334 H 0.41209 0.12697 0.33355
 H335 H 0.37172 0.17002 0.30797
 H336 H 0.43767 0.09608 0.38713
 H337 H 0.32029 0.18993 0.28429
 H338 H 0.37591 0.06541 0.43057
 C339 C 0.26775 0.69300 -0.20341
 C340 C 0.27000 0.68728 -0.16697
 C341 C 0.29519 0.66386 -0.14784
 C342 C 0.31164 0.63718 -0.16390
 C343 C 0.33522 0.61586 -0.14442
 C344 C 0.34281 0.62082 -0.10852
 C345 C 0.32581 0.64701 -0.09254
 C346 C 0.30234 0.66822 -0.11192
 C347 C 0.36721 0.59893 -0.08638
 C348 C 0.39323 0.57911 -0.09941
 H349 H 0.25413 0.70199 -0.15097
 H350 H 0.30596 0.63208 -0.19121
 H351 H 0.34670 0.59517 -0.15751
 H352 H 0.33083 0.65124 -0.06489
 H353 H 0.28985 0.68832 -0.09876
 H354 H 0.36521 0.60046 -0.05853
 H355 H 0.28473 0.67919 -0.21913
 H356 H 0.39574 0.57982 -0.12745
 C357 C -0.20579 -0.20049 0.20445
 C358 C -0.19752 -0.16518 0.19545
 C359 C -0.16936 -0.15267 0.17176
 C360 C -0.17068 -0.11857 0.15670
 C361 C -0.14457 -0.10504 0.13476
 C362 C -0.11636 -0.12539 0.12725
 C363 C -0.11448 -0.15923 0.14290
 C364 C -0.14079 -0.17288 0.16486
 C365 C -0.08800 -0.11117 0.10454
 C366 C -0.09448 -0.08582 0.07764
 H367 H -0.21330 -0.14523 0.20465
 H368 H -0.19202 -0.10219 0.16204
 H369 H -0.14620 -0.07834 0.12438
 H370 H -0.09264 -0.17516 0.13806
 H371 H -0.13816 -0.19886 0.17682
 H372 H -0.06218 -0.12178 0.10888
 H373 H -0.19130 -0.22040 0.19329
 H374 H -0.12178 -0.07936 0.07190
 C375 C -0.19608 0.29308 0.70553
 C376 C -0.18444 0.32769 0.69748
 C377 C -0.16375 0.33751 0.66671
 C378 C -0.13688 0.36413 0.66916
 C379 C -0.11904 0.37609 0.63957
 C380 C -0.12854 0.36225 0.60682
 C381 C -0.15545 0.33563 0.60434
 C382 C -0.17261 0.32294 0.63418
 C383 C -0.11284 0.37761 0.57481
 C384 C -0.07697 0.38839 0.57439
 H385 H -0.18899 0.34831 0.71478
 H386 H -0.13003 0.37599 0.69394
 H387 H -0.09892 0.39722 0.64201
 H388 H -0.16344 0.32498 0.57923
 H389 H -0.19382 0.30289 0.63153
 H390 H -0.12995 0.37978 0.55130
 H391 H -0.18571 0.27255 0.69116
 H392 H -0.05976 0.37970 0.59635
 C393 C 0.28374 -0.22488 0.71280
 C394 C 0.29435 -0.18952 0.70738
 C395 C 0.32199 -0.17685 0.68320
 C396 C 0.33828 -0.14338 0.68740
 C397 C 0.36328 -0.12963 0.66427
 C398 C 0.37258 -0.14915 0.63628
 C399 C 0.35600 -0.18247 0.63180
 C400 C 0.33101 -0.19629 0.65502
 C401 C 0.39755 -0.13456 0.61018
 C402 C 0.42368 -0.10827 0.61789
 H403 H 0.28287 -0.16994 0.72198
 H404 H 0.33136 -0.12761 0.70849
 H405 H 0.37436 -0.10330 0.66786
 H406 H 0.36218 -0.19776 0.61007
 H407 H 0.31818 -0.22166 0.65010
 H408 H 0.39509 -0.14546 0.58462
 H409 H 0.29780 -0.24443 0.70055
 H410 H 0.42768 -0.10119 0.64493
 C411 C 0.30702 0.28750 0.21756
 C412 C 0.31447 0.32300 0.20866
 C413 C 0.33869 0.33623 0.18129
 C414 C 0.33731 0.37149 0.16958
 C415 C 0.36009 0.38580 0.14462
 C416 C 0.38522 0.36523 0.13101
 C417 C 0.38633 0.32981 0.14222
 C418 C 0.36351 0.31543 0.16733
 C419 C 0.40973 0.37988 0.10454
 C420 C 0.42102 0.41541 0.10284
 H421 H 0.30121 0.34271 0.22141
 H422 H 0.31835 0.38809 0.17969
 H423 H 0.35750 0.41285 0.13571
 H424 H 0.40532 0.31337 0.13194
 H425 H 0.36601 0.28835 0.17601
 H426 H 0.41977 0.36173 0.08727
 H427 H 0.31875 0.26784 0.20329
 H428 H 0.41332 0.43145 0.12339
 C429 C 0.20764 0.20629 0.22436
 C430 C 0.21788 0.18313 0.20054
 C431 C 0.19123 0.16119 0.18055
 C432 C 0.20189 0.14197 0.15307
 C433 C 0.17707 0.12150 0.13343
 C434 C 0.14104 0.11986 0.14102
 C435 C 0.13055 0.13839 0.16903
 C436 C 0.15528 0.15904 0.18847
 C437 C 0.11396 0.09860 0.12084
 C438 C 0.11719 0.09146 0.08580
 H439 H 0.24575 0.18154 0.19584
 H440 H 0.22946 0.14289 0.14669
 H441 H 0.18628 0.10666 0.11271
 H442 H 0.10303 0.13725 0.17563
 H443 H 0.14615 0.17321 0.20974
 H444 H 0.08965 0.09066 0.13331
 H445 H 0.22574 0.21762 0.23455
 H446 H 0.13956 0.10321 0.07226
 C447 C 0.19585 0.69633 0.69960
 C448 C 0.16194 0.69598 0.68304
 C449 C 0.14888 0.67012 0.65731
 C450 C 0.12148 0.67911 0.63289
 C451 C 0.10650 0.65463 0.60978
 C452 C 0.11847 0.62046 0.61088
 C453 C 0.14588 0.61143 0.63532
 C454 C 0.16115 0.63607 0.65823
 C455 C 0.10103 0.59319 0.58885
 C456 C 0.08314 0.60090 0.55676
 H457 H 0.14438 0.71643 0.68756
 H458 H 0.11125 0.70505 0.63204
 H459 H 0.08469 0.66221 0.59204
 H460 H 0.15515 0.58509 0.63699
 H461 H 0.18156 0.62801 0.67740
 H462 H 0.10276 0.56609 0.59806
 H463 H 0.21483 0.67876 0.69123
 H464 H 0.08552 0.62720 0.54505
 C465 C 0.71771 0.21435 0.71130
 C466 C 0.68150 0.20827 0.70294
 C467 C 0.66719 0.18086 0.67907
 C468 C 0.63168 0.16871 0.68117
 C469 C 0.61694 0.14315 0.65902
 C470 C 0.63734 0.12950 0.63378
 C471 C 0.67290 0.14152 0.63174
 C472 C 0.68765 0.16714 0.65388
 C473 C 0.62263 0.10226 0.60993
 C474 C 0.58650 0.09835 0.60028
 H475 H 0.66244 0.22297 0.71524
 H476 H 0.61534 0.17874 0.70034
 H477 H 0.58979 0.13379 0.66228
 H478 H 0.68919 0.13142 0.61257
 H479 H 0.71480 0.17644 0.65062
 H480 H 0.64115 0.08567 0.59929
 H481 H 0.73628 0.19776 0.70070
 H482 H 0.56892 0.11668 0.60977
 C483 C 0.70550 0.71849 0.20059
 C484 C 0.66985 0.71288 0.18947
 C485 C 0.65694 0.68514 0.16539
 C486 C 0.62417 0.68854 0.14682
 C487 C 0.61053 0.66268 0.12447
 C488 C 0.62943 0.63267 0.12019
 C489 C 0.66188 0.62892 0.13926
 C490 C 0.67558 0.65485 0.16158
 C491 C 0.61520 0.60410 0.09766
 C492 C 0.59026 0.60935 0.06979
 H493 H 0.65043 0.73015 0.19738
 H494 H 0.60895 0.71128 0.14973
 H495 H 0.58480 0.66600 0.11135
 H496 H 0.67665 0.60576 0.13698
 H497 H 0.70029 0.65056 0.17633
 H498 H 0.62565 0.57853 0.10280
 H499 H 0.72498 0.70278 0.19021
 H500 H 0.58320 0.63584 0.06251
   
