data_POSCAR
  _audit_creation_date              2014-09-24
  _audit_creation_method            'ToBaCCo'
  _symmetry_space_group_name_H-M    'P1'
  _symmetry_Int_Tables_number       1
  _symmetry_cell_setting            triclinic
  loop_
  _symmetry_equiv_pos_as_xyz
 x,y,z
_cell_length_a 33.9863
_cell_length_b 33.7165
_cell_length_c 34.1245
_cell_angle_alpha 89.924100
_cell_angle_beta 90.970700
_cell_angle_gamma 90.312100
loop_
  _atom_site_label
  _atom_site_type_symbol
  _atom_site_fract_x
  _atom_site_fract_y
  _atom_site_fract_z
C1 C 0.25170 1.06850 0.00639
 C2 C 0.25545 1.07678 -0.03371
 C3 C 0.25542 1.04742 -0.06275
 C4 C 0.25764 1.00722 -0.05048
 C5 C 0.25248 0.99749 -0.01037
 C6 C 0.24785 1.02818 0.01790
 C7 C 0.23677 1.01747 0.05589
 C8 C 0.23558 0.97796 0.06734
 C9 C 0.24593 0.94745 0.04149
 C10 C 0.25198 0.95689 0.00153
 C11 C 0.26826 0.97687 -0.07632
 C12 C 0.26910 0.93741 -0.06442
 C13 C 0.25835 0.92615 -0.02634
 C14 C 0.25721 0.88555 -0.01427
 C15 C 0.25385 0.87767 0.02637
 C16 C 0.24933 0.90777 0.05442
 H17 H 0.22756 1.03929 0.07691
 H18 H 0.22579 0.97168 0.09668
 H19 H 0.27811 0.98352 -0.10559
 H20 H 0.28020 0.91630 -0.08512
 H21 H 0.25823 1.10724 -0.04257
 H22 H 0.25389 0.84742 0.03684
 C23 C 0.76622 0.44004 0.45368
 C24 C 0.77715 0.41850 0.48762
 C25 C 0.77245 0.43455 0.52522
 C26 C 0.75511 0.47226 0.52914
 C27 C 0.74406 0.49441 0.49539
 C28 C 0.74920 0.47828 0.45756
 C29 C 0.73623 0.50060 0.42478
 C30 C 0.72183 0.53903 0.42891
 C31 C 0.71818 0.55614 0.46609
 C32 C 0.72784 0.53294 0.49965
 C33 C 0.74857 0.48841 0.56638
 C34 C 0.73287 0.52579 0.57051
 C35 C 0.72176 0.54838 0.53763
 C36 C 0.70570 0.58649 0.54183
 C37 C 0.69787 0.60960 0.50887
 C38 C 0.70405 0.59532 0.47103
 H39 H 0.73663 0.48865 0.39546
 H40 H 0.71278 0.55488 0.40271
 H41 H 0.75539 0.47243 0.59309
 H42 H 0.73023 0.53674 0.60006
 H43 H 0.79080 0.38970 0.48468
 H44 H 0.68723 0.63957 0.51294
 C45 C 0.75851 0.97056 1.07326
 C46 C 0.75617 1.00536 1.09591
 C47 C 0.75330 1.04266 1.07782
 C48 C 0.75822 1.04555 1.03684
 C49 C 0.75787 1.01104 1.01362
 C50 C 0.75682 0.97332 1.03168
 C51 C 0.75317 0.93968 1.00745
 C52 C 0.75515 0.94300 0.96686
 C53 C 0.75934 0.98026 0.94870
 C54 C 0.75831 1.01448 0.97214
 C55 C 0.76565 1.08225 1.01863
 C56 C 0.76583 1.08550 0.97819
 C57 C 0.75836 1.05226 0.95432
 C58 C 0.75360 1.05580 0.91305
 C59 C 0.76011 1.02170 0.88991
 C60 C 0.76463 0.98409 0.90780
 H61 H 0.74824 0.91041 1.01936
 H62 H 0.75257 0.91608 0.94975
 H63 H 0.77151 1.10882 1.03558
 H64 H 0.77220 1.11434 0.96578
 H65 H 0.75460 1.00318 1.12754
 H66 H 0.76080 1.02403 0.85827
 C67 C 0.23982 0.49909 0.40806
 C68 C 0.24751 0.46121 0.39313
 C69 C 0.25776 0.42952 0.41823
 C70 C 0.25741 0.43589 0.45950
 C71 C 0.25185 0.47475 0.47446
 C72 C 0.24464 0.50653 0.44851
 C73 C 0.24238 0.54526 0.46363
 C74 C 0.24382 0.55216 0.50370
 C75 C 0.24647 0.52058 0.53044
 C76 C 0.25268 0.48183 0.51557
 C77 C 0.26085 0.40445 0.48641
 C78 C 0.26281 0.41148 0.52654
 C79 C 0.25996 0.45016 0.54165
 C80 C 0.26353 0.45772 0.58225
 C81 C 0.25438 0.49533 0.59693
 C82 C 0.24441 0.52679 0.57154
 H83 H 0.23990 0.57083 0.44456
 H84 H 0.24351 0.58268 0.51329
 H85 H 0.26104 0.37389 0.47700
 H86 H 0.26558 0.38602 0.54571
 H87 H 0.24526 0.45648 0.36177
 H88 H 0.25528 0.50005 0.62834
 C89 C 0.91895 0.25605 -0.03415
 C90 C 0.90421 0.24766 0.00338
 C91 C 0.92815 0.24937 0.03728
 C92 C 0.96874 0.25782 0.03372
 C93 C 0.98467 0.26348 -0.00383
 C94 C 0.95947 0.26609 -0.03746
 C95 C 0.97674 0.27515 -0.07360
 C96 C 1.01717 0.27510 -0.07753
 C97 C 1.04176 0.26324 -0.04633
 C98 C 1.02620 0.26288 -0.00827
 C99 C 0.99429 0.25952 0.06658
 C100 C 1.03489 0.25883 0.06227
 C101 C 1.05160 0.25831 0.02485
 C102 C 1.09206 0.25004 0.01909
 C103 C 1.10599 0.24683 -0.01934
 C104 C 1.08123 0.25198 -0.05218
 H105 H 0.96005 0.28102 -0.09988
 H106 H 1.02886 0.28254 -0.10593
 H107 H 0.98330 0.25990 0.09610
 H108 H 1.05258 0.25698 0.08873
 H109 H 0.87367 0.23873 0.00624
 H110 H 1.13621 0.23779 -0.02354
 C111 C 0.56216 0.78197 0.53795
 C112 C 0.57760 0.78688 0.50047
 C113 C 0.55476 0.77922 0.46671
 C114 C 0.51618 0.76348 0.47063
 C115 C 0.50004 0.75839 0.50844
 C116 C 0.52298 0.76800 0.54218
 C117 C 0.50625 0.76291 0.57930
 C118 C 0.46775 0.74936 0.58318
 C119 C 0.44474 0.73831 0.55027
 C120 C 0.46096 0.74337 0.51250
 C121 C 0.49355 0.75177 0.43779
 C122 C 0.45528 0.73802 0.44164
 C123 C 0.43839 0.73315 0.47872
 C124 C 0.39967 0.71806 0.48262
 C125 C 0.38366 0.71377 0.52011
 C126 C 0.40596 0.72275 0.55413
 H127 H 0.52267 0.76925 0.60597
 H128 H 0.45634 0.74789 0.61250
 H129 H 0.50519 0.75240 0.40855
 H130 H 0.43923 0.73121 0.41486
 H131 H 0.60712 0.79879 0.49759
 H132 H 0.35440 0.70120 0.52289
 C133 C 0.02110 0.76655 0.09480
 C134 C -0.01453 0.76637 0.11568
 C135 C -0.05092 0.76097 0.09574
 C136 C -0.05114 0.76141 0.05406
 C137 C -0.01576 0.75680 0.03354
 C138 C 0.02051 0.75861 0.05403
 C139 C 0.05533 0.75246 0.03310
 C140 C 0.05423 0.74494 -0.00692
 C141 C 0.01826 0.74257 -0.02780
 C142 C -0.01688 0.75008 -0.00763
 C143 C -0.08572 0.76869 0.03214
 C144 C -0.08650 0.76437 -0.00831
 C145 C -0.05326 0.75067 -0.02829
 C146 C -0.05496 0.74028 -0.06868
 C147 C -0.01959 0.73367 -0.08855
 C148 C 0.01670 0.73327 -0.06827
 H149 H 0.08394 0.75252 0.04741
 H150 H 0.08210 0.74144 -0.02130
 H151 H -0.11239 0.77824 0.04617
 H152 H -0.11355 0.77190 -0.02362
 H153 H -0.01356 0.76858 0.14736
 H154 H -0.02052 0.72492 -0.11912
 C155 C 0.53909 0.27318 0.57962
 C156 C 0.50347 0.26467 0.59851
 C157 C 0.46970 0.25312 0.57659
 C158 C 0.47087 0.25399 0.53502
 C159 C 0.50722 0.25950 0.51631
 C160 C 0.54163 0.26705 0.53887
 C161 C 0.57812 0.26769 0.52015
 C162 C 0.58019 0.26528 0.47981
 C163 C 0.54582 0.26280 0.45645
 C164 C 0.50929 0.25756 0.47486
 C165 C 0.43657 0.25023 0.51153
 C166 C 0.43860 0.24821 0.47087
 C167 C 0.47499 0.25022 0.45195
 C168 C 0.47797 0.24601 0.41074
 C169 C 0.51376 0.25475 0.39269
 C170 C 0.54731 0.26441 0.41520
 H171 H 0.60562 0.26955 0.53650
 H172 H 0.60920 0.26498 0.46732
 H173 H 0.40765 0.24956 0.52426
 H174 H 0.41121 0.24587 0.45440
 H175 H 0.50218 0.26665 0.63015
 H176 H 0.51569 0.25346 0.36104
 C177 C 1.09991 0.02315 0.23792
 C178 C 1.11247 -0.01625 0.23266
 C179 C 1.08633 -0.04800 0.23332
 C180 C 1.04686 -0.04146 0.24168
 C181 C 1.03235 -0.00233 0.24308
 C182 C 1.05867 0.03057 0.24094
 C183 C 1.04275 0.06881 0.24463
 C184 C 1.00228 0.07439 0.24875
 C185 C 0.97612 0.04192 0.25168
 C186 C 0.99146 0.00344 0.24809
 C187 C 1.02192 -0.07336 0.25069
 C188 C 0.98230 -0.06754 0.25504
 C189 C 0.96600 -0.02975 0.24993
 C190 C 0.92489 -0.02462 0.24927
 C191 C 0.90985 0.01321 0.25595
 C192 C 0.93514 0.04642 0.25815
 H193 H 1.06099 0.09500 0.24463
 H194 H 0.99190 0.10459 0.24928
 H195 H 1.03268 -0.10322 0.25488
 H196 H 0.96450 -0.09307 0.26257
 H197 H 1.14324 -0.02256 0.22758
 H198 H 0.87831 0.01709 0.25807
 C199 C 0.43419 0.44071 0.76034
 C200 C 0.40286 0.46696 0.75403
 C201 C 0.40890 0.50750 0.74712
 C202 C 0.44806 0.52216 0.74507
 C203 C 0.48019 0.49597 0.75169
 C204 C 0.47307 0.45569 0.76118
 C205 C 0.50499 0.43177 0.77248
 C206 C 0.54342 0.44534 0.76940
 C207 C 0.55160 0.48348 0.75501
 C208 C 0.51964 0.50996 0.74857
 C209 C 0.45619 0.56192 0.73600
 C210 C 0.49460 0.57607 0.73509
 C211 C 0.52690 0.55052 0.74010
 C212 C 0.56616 0.56455 0.73806
 C213 C 0.59728 0.53728 0.74167
 C214 C 0.59078 0.49660 0.74913
 H215 H 0.50063 0.40243 0.78453
 H216 H 0.56641 0.42581 0.77970
 H217 H 0.43317 0.58283 0.72922
 H218 H 0.49820 0.60744 0.73018
 H219 H 0.37303 0.45553 0.75386
 H220 H 0.62709 0.54811 0.73821
 C221 C 0.95378 1.08004 0.74380
 C222 C 0.98703 1.10555 0.74602
 C223 C 1.02543 1.09049 0.75098
 C224 C 1.03138 1.04887 0.75088
 C225 C 0.99879 1.02277 0.75026
 C226 C 0.96001 1.03843 0.74935
 C227 C 0.92895 1.01240 0.75838
 C228 C 0.93488 0.97190 0.76226
 C229 C 0.97232 0.95525 0.75776
 C230 C 1.00502 0.98092 0.75313
 C231 C 1.06950 1.03275 0.75305
 C232 C 1.07549 0.99227 0.75623
 C233 C 1.04399 0.96519 0.75406
 C234 C 1.04997 0.92323 0.75629
 C235 C 1.01665 0.89884 0.76024
 C236 C 0.97837 0.91398 0.76110
 H237 H 0.89987 1.02311 0.76479
 H238 H 0.90973 0.95416 0.77026
 H239 H 1.09551 1.05136 0.75307
 H240 H 1.10527 0.98314 0.76247
 H241 H 0.98318 1.13740 0.74466
 H242 H 1.02013 0.86694 0.76132
 C243 C 0.54805 0.42654 0.24887
 C244 C 0.51473 0.40201 0.25291
 C245 C 0.47742 0.41876 0.25769
 C246 C 0.47300 0.46017 0.25412
 C247 C 0.50670 0.48481 0.25394
 C248 C 0.54444 0.46790 0.25399
 C249 C 0.57751 0.49282 0.25902
 C250 C 0.57332 0.53371 0.26151
 C251 C 0.53594 0.55123 0.25870
 C252 C 0.50262 0.52648 0.25336
 C253 C 0.43567 0.47757 0.25044
 C254 C 0.43183 0.51826 0.24705
 C255 C 0.46515 0.54324 0.24753
 C256 C 0.46186 0.58456 0.24273
 C257 C 0.49427 0.60924 0.25118
 C258 C 0.53091 0.59278 0.26112
 H259 H 0.60691 0.48094 0.26193
 H260 H 0.59985 0.55142 0.26439
 H261 H 0.40901 0.45995 0.24887
 H262 H 0.40225 0.52976 0.24503
 H263 H 0.51773 0.37004 0.25199
 H264 H 0.49071 0.64117 0.25089
 O265 O 0.27482 0.14603 0.15072
 O266 O 0.33099 0.13403 0.20165
 O267 O 0.17817 0.17164 0.22563
 O268 O 0.15826 0.21942 0.26383
 O269 O 0.21650 0.24953 0.12504
 O270 O 0.26659 0.30261 0.12443
 O271 O 0.27990 0.27460 0.33294
 O272 O 0.23311 0.21900 0.33563
 O273 O 0.37740 0.23623 0.27874
 O274 O 0.38756 0.19892 0.21274
 O275 O 0.32388 0.33687 0.25198
 O276 O 0.26762 0.35360 0.19834
 O277 O 0.26491 0.32797 0.29484
 O278 O 0.22744 0.34937 0.24294
 O279 O 0.37359 0.29635 0.23380
 O280 O 0.38960 0.25274 0.18464
 O281 O 0.33151 0.22050 0.32411
 O282 O 0.28278 0.17382 0.32853
 O283 O 0.27423 0.20302 0.11500
 O284 O 0.31221 0.26255 0.11275
 O285 O 0.17101 0.23191 0.17026
 O286 O 0.16028 0.27296 0.23035
 O287 O 0.23032 0.13058 0.21706
 O288 O 0.28850 0.11225 0.23760
 Zr289 Zr 0.27915 0.16740 0.20960
 O290 O 0.31341 0.19648 0.25290
 Zr291 Zr 0.20396 0.22906 0.22350
 O292 O 0.23636 0.26210 0.26569
 Zr293 Zr 0.27039 0.24864 0.15590
 O294 O 0.30675 0.28086 0.19509
 Zr295 Zr 0.27790 0.22563 0.29378
 O296 O 0.24355 0.19155 0.25407
 Zr297 Zr 0.34478 0.24220 0.22566
 O298 O 0.31280 0.21106 0.18153
 Zr299 Zr 0.27121 0.30549 0.23822
 O300 O 0.23403 0.27643 0.19656
 O301 O 0.23803 0.20265 0.18111
 O302 O 0.31140 0.26987 0.26833
 C303 C 0.27305 0.16516 0.11793
 C304 C 0.19409 0.13708 0.22450
 C305 C 0.18148 0.24007 0.13506
 C306 C 0.27266 0.31184 0.32804
 C307 C 0.36705 0.22652 0.31356
 C308 C 0.36055 0.32895 0.24732
 H309 H 0.33088 0.17689 0.26583
 H310 H 0.32147 0.30149 0.18073
 H311 H 0.22133 0.18616 0.16353
 H312 H 0.21812 0.27400 0.28460
 H313 H 0.21427 0.19922 0.32478
 H314 H 0.16737 0.22995 0.28946
 H315 H 0.37811 0.26964 0.16375
 H316 H 0.33474 0.24452 0.11727
 H317 H 0.26600 0.15343 0.31565
 H318 H 0.29179 0.11800 0.26588
 H319 H 0.29471 0.36214 0.19216
 H320 H 0.24423 0.31747 0.13530
 H321 H 0.34311 0.14356 0.17716
 H322 H 0.38908 0.18020 0.23506
 H323 H 0.16425 0.29307 0.20959
 H324 H 0.20317 0.33537 0.25083
 O325 O 0.74184 0.87072 0.19893
 O326 O 0.69478 0.88922 0.24841
 O327 O 0.83892 0.82952 0.26360
 O328 O 0.84796 0.78680 0.31626
 O329 O 0.79678 0.75692 0.17177
 O330 O 0.73832 0.71784 0.15956
 O331 O 0.71967 0.73380 0.37069
 O332 O 0.77375 0.78228 0.38088
 O333 O 0.63204 0.78565 0.31217
 O334 O 0.62648 0.82340 0.24739
 O335 O 0.67833 0.67752 0.28008
 O336 O 0.73636 0.65866 0.23554
 O337 O 0.72927 0.68035 0.33152
 O338 O 0.77506 0.66048 0.28205
 O339 O 0.63232 0.72461 0.26641
 O340 O 0.62286 0.77210 0.21623
 O341 O 0.67650 0.78894 0.36274
 O342 O 0.72722 0.83394 0.37198
 O343 O 0.74754 0.81705 0.15890
 O344 O 0.69960 0.76433 0.15032
 O345 O 0.84241 0.76661 0.22050
 O346 O 0.84698 0.72954 0.28088
 O347 O 0.79276 0.87785 0.25573
 O348 O 0.73535 0.89535 0.29395
 Zr349 Zr 0.73941 0.84624 0.25571
 O350 O 0.69998 0.81799 0.29363
 Zr351 Zr 0.80693 0.77634 0.27004
 O352 O 0.77001 0.74455 0.30846
 Zr353 Zr 0.74158 0.76797 0.19663
 O354 O 0.70158 0.73659 0.23157
 Zr355 Zr 0.73090 0.78368 0.33519
 O356 O 0.77121 0.81655 0.30068
 Zr357 Zr 0.66585 0.77691 0.26153
 O358 O 0.70255 0.80818 0.22250
 Zr359 Zr 0.73312 0.70630 0.27574
 O360 O 0.77349 0.73418 0.23798
 O361 O 0.77698 0.80787 0.22693
 O362 O 0.69506 0.74414 0.30452
 C363 C 0.74667 0.85463 0.16525
 C364 C 0.82836 0.86563 0.25740
 C365 C 0.83251 0.75818 0.18491
 C366 C 0.72020 0.69624 0.36419
 C367 C 0.64123 0.78913 0.34875
 C368 C 0.64266 0.68918 0.27543
 H369 H 0.68388 0.83838 0.30651
 H370 H 0.68573 0.71827 0.21503
 H371 H 0.79549 0.82122 0.20912
 H372 H 0.78576 0.72995 0.32832
 H373 H 0.79412 0.80208 0.37405
 H374 H 0.83989 0.77040 0.33883
 H375 H 0.63398 0.75514 0.19561
 H376 H 0.68037 0.78578 0.15468
 H377 H 0.74865 0.85217 0.36442
 H378 H 0.75673 0.89281 0.31380
 H379 H 0.71134 0.65755 0.22033
 H380 H 0.75346 0.69664 0.17294
 H381 H 0.67633 0.87902 0.22800
 H382 H 0.62891 0.84362 0.26829
 H383 H 0.83871 0.70728 0.26368
 H384 H 0.79499 0.66940 0.30161
 O385 O 0.74342 0.16699 0.79480
 O386 O 0.69934 0.16194 0.74386
 O387 O 0.85158 0.20293 0.74585
 O388 O 0.87350 0.25455 0.70880
 O389 O 0.80670 0.25967 0.84921
 O390 O 0.76401 0.30914 0.86140
 O391 O 0.76406 0.32320 0.64127
 O392 O 0.79253 0.26536 0.62732
 O393 O 0.65438 0.28952 0.69374
 O394 O 0.63450 0.25660 0.74501
 O395 O 0.72604 0.38385 0.74297
 O396 O 0.77894 0.38973 0.78118
 O397 O 0.77909 0.37004 0.68702
 O398 O 0.82536 0.37124 0.74930
 O399 O 0.66941 0.34770 0.74352
 O400 O 0.65118 0.29004 0.79295
 O401 O 0.69947 0.28413 0.64562
 O402 O 0.74852 0.22407 0.63609
 O403 O 0.74388 0.21409 0.84255
 O404 O 0.71033 0.28070 0.85289
 O405 O 0.85560 0.25267 0.80498
 O406 O 0.87386 0.30099 0.74967
 O407 O 0.79761 0.16326 0.73872
 O408 O 0.73560 0.16371 0.69573
 Zr409 Zr 0.74783 0.20141 0.74401
 O410 O 0.71475 0.24220 0.71015
 Zr411 Zr 0.82704 0.25939 0.74884
 O412 O 0.79981 0.29929 0.70914
 Zr413 Zr 0.75702 0.26882 0.81443
 O414 O 0.73072 0.31427 0.78094
 Zr415 Zr 0.75432 0.27275 0.67491
 O416 O 0.78785 0.23110 0.70818
 Zr417 Zr 0.68886 0.28722 0.74427
 O418 O 0.71460 0.24121 0.77858
 Zr419 Zr 0.77063 0.34158 0.74232
 O420 O 0.79877 0.30222 0.78255
 O421 O 0.78805 0.22724 0.78252
 O422 O 0.72652 0.31723 0.70640
 C423 C 0.74091 0.17785 0.83057
 C424 C 0.83530 0.16908 0.74045
 C425 C 0.84237 0.25319 0.84034
 C426 C 0.77499 0.35807 0.65118
 C427 C 0.66402 0.28869 0.65788
 C428 C 0.68851 0.38102 0.74418
 H429 H 0.69466 0.22742 0.69467
 H430 H 0.71894 0.33386 0.79875
 H431 H 0.80161 0.20696 0.79870
 H432 H 0.82038 0.31109 0.69254
 H433 H 0.81957 0.26791 0.63820
 H434 H 0.86180 0.24302 0.68460
 H435 H 0.65459 0.31639 0.80534
 H436 H 0.69015 0.25977 0.84870
 H437 H 0.72036 0.21654 0.63445
 H438 H 0.75899 0.16427 0.67884
 H439 H 0.77120 0.38005 0.80732
 H440 H 0.78199 0.33020 0.85210
 H441 H 0.67838 0.17531 0.75859
 H442 H 0.64058 0.22846 0.73981
 H443 H 0.87215 0.31604 0.77447
 H444 H 0.84021 0.36767 0.72487
 O445 O 0.24593 0.80817 0.83815
 O446 O 0.29870 0.81506 0.78574
 O447 O 0.14138 0.79149 0.76707
 O448 O 0.12019 0.75072 0.72064
 O449 O 0.17135 0.70727 0.86079
 O450 O 0.21880 0.65494 0.86673
 O451 O 0.22771 0.68111 0.65504
 O452 O 0.19126 0.74225 0.65274
 O453 O 0.33201 0.70452 0.71199
 O454 O 0.34972 0.74093 0.77619
 O455 O 0.26580 0.60939 0.74644
 O456 O 0.20550 0.60141 0.78794
 O457 O 0.21995 0.62695 0.69409
 O458 O 0.16783 0.61504 0.74267
 O459 O 0.32133 0.64579 0.75788
 O460 O 0.34294 0.69105 0.80864
 O461 O 0.28842 0.72379 0.66447
 O462 O 0.24908 0.77933 0.66114
 O463 O 0.23743 0.75228 0.87444
 O464 O 0.26707 0.69009 0.87769
 O465 O 0.12782 0.72864 0.81410
 O466 O 0.11368 0.69460 0.75292
 O467 O 0.19744 0.82851 0.77153
 O468 O 0.25633 0.84123 0.75124
 Zr469 Zr 0.24317 0.78687 0.77909
 O470 O 0.27418 0.75350 0.73706
 Zr471 Zr 0.16227 0.73296 0.76351
 O472 O 0.19023 0.69668 0.72196
 Zr473 Zr 0.22638 0.70727 0.83340
 O474 O 0.25787 0.67071 0.79513
 Zr475 Zr 0.23545 0.72862 0.69500
 O476 O 0.20507 0.76642 0.73364
 Zr477 Zr 0.30013 0.70414 0.76484
 O478 O 0.27221 0.73966 0.80756
 Zr479 Zr 0.21933 0.64987 0.75103
 O480 O 0.18697 0.68315 0.79180
 O481 O 0.19886 0.75609 0.80760
 O482 O 0.26320 0.68054 0.72161
 C483 C 0.24489 0.78945 0.87120
 C484 C 0.15988 0.82482 0.76751
 C485 C 0.13649 0.71622 0.84873
 C486 C 0.22345 0.64353 0.66055
 C487 C 0.32281 0.71295 0.67614
 C488 C 0.30329 0.61307 0.74989
 H489 H 0.29388 0.77057 0.72418
 H490 H 0.27000 0.64882 0.81028
 H491 H 0.18431 0.77306 0.82602
 H492 H 0.17092 0.68686 0.70224
 H493 H 0.17654 0.76515 0.66302
 H494 H 0.12649 0.73704 0.69592
 H495 H 0.33126 0.67120 0.82643
 H496 H 0.29226 0.70344 0.87161
 H497 H 0.23435 0.80164 0.67253
 H498 H 0.26082 0.83491 0.72339
 H499 H 0.22809 0.59721 0.80611
 H500 H 0.19753 0.63948 0.85363
 H501 H 0.31230 0.80226 0.80828
 H502 H 0.35149 0.76051 0.75467
 H503 H 0.11820 0.67041 0.76880
 H504 H 0.15192 0.62723 0.72138
 O505 O 0.27281 0.34674 0.70756
 O506 O 0.22489 0.35263 0.76126
 O507 O 0.36462 0.27765 0.75779
 O508 O 0.36803 0.21950 0.79293
 O509 O 0.31473 0.23993 0.64773
 O510 O 0.25288 0.21154 0.62760
 O511 O 0.24684 0.16796 0.83639
 O512 O 0.29778 0.21423 0.85688
 O513 O 0.15444 0.24210 0.79559
 O514 O 0.15768 0.30364 0.74609
 O515 O 0.18424 0.14920 0.74482
 O516 O 0.23297 0.13648 0.68411
 O517 O 0.24219 0.12822 0.78260
 O518 O 0.27669 0.11836 0.72388
 O519 O 0.14582 0.20300 0.73411
 O520 O 0.14231 0.26245 0.70282
 O521 O 0.19914 0.22802 0.84404
 O522 O 0.25540 0.26133 0.86644
 O523 O 0.27158 0.30640 0.65394
 O524 O 0.21891 0.26252 0.63223
 O525 O 0.36033 0.23218 0.69675
 O526 O 0.36062 0.17748 0.74189
 O527 O 0.32435 0.33120 0.76328
 O528 O 0.27383 0.34274 0.80649
 Zr529 Zr 0.26777 0.30755 0.75532
 O530 O 0.22568 0.27421 0.78564
 Zr531 Zr 0.32617 0.22929 0.74731
 O532 O 0.28580 0.19216 0.77596
 Zr533 Zr 0.26095 0.24914 0.67660
 O534 O 0.21669 0.21435 0.70285
 Zr535 Zr 0.25294 0.22636 0.81486
 O536 O 0.29587 0.26300 0.78882
 Zr537 Zr 0.18703 0.24843 0.74425
 O538 O 0.22713 0.28466 0.71380
 Zr539 Zr 0.24307 0.16922 0.73631
 O540 O 0.28754 0.20148 0.70655
 O541 O 0.30058 0.27507 0.71573
 O542 O 0.21167 0.20180 0.77638
 C543 C 0.27455 0.34056 0.67053
 C544 C 0.35839 0.31491 0.76287
 C545 C 0.35020 0.23479 0.66053
 C546 C 0.24387 0.13377 0.81976
 C547 C 0.16400 0.23422 0.83127
 C548 C 0.15036 0.16624 0.74203
 H549 H 0.21152 0.29162 0.80386
 H550 H 0.19833 0.20361 0.68267
 H551 H 0.32062 0.29128 0.70230
 H552 H 0.30083 0.17097 0.78939
 H553 H 0.31925 0.23368 0.85257
 H554 H 0.35753 0.19861 0.81030
 H555 H 0.15195 0.25396 0.67699
 H556 H 0.20236 0.28407 0.64255
 H557 H 0.24454 0.28771 0.85997
 H558 H 0.28867 0.32678 0.82605
 H559 H 0.20425 0.13557 0.67892
 H560 H 0.26367 0.18544 0.63541
 H561 H 0.23766 0.37886 0.75741
 H562 H 0.15362 0.31045 0.77392
 H563 H 0.35031 0.16293 0.71868
 H564 H 0.30116 0.12058 0.73986
 O565 O 0.71793 0.66162 0.69731
 O566 O 0.76705 0.64695 0.75066
 O567 O 0.63406 0.73113 0.74105
 O568 O 0.63305 0.78592 0.78425
 O569 O 0.69210 0.77192 0.64079
 O570 O 0.75768 0.79964 0.62955
 O571 O 0.76418 0.82625 0.83929
 O572 O 0.70380 0.78989 0.85363
 O573 O 0.84380 0.74105 0.80182
 O574 O 0.83903 0.69086 0.74307
 O575 O 0.82436 0.84938 0.74590
 O576 O 0.77347 0.86775 0.68925
 O577 O 0.76707 0.86975 0.78841
 O578 O 0.73498 0.88681 0.72988
 O579 O 0.85740 0.79100 0.75032
 O580 O 0.86051 0.73836 0.70881
 O581 O 0.79798 0.75785 0.84666
 O582 O 0.73561 0.73372 0.86221
 O583 O 0.73092 0.70370 0.64677
 O584 O 0.78608 0.74478 0.63149
 O585 O 0.64739 0.78786 0.68711
 O586 O 0.64468 0.83246 0.73893
 O587 O 0.67067 0.67553 0.75142
 O588 O 0.71878 0.65720 0.79580
 Zr589 Zr 0.72811 0.69588 0.74781
 O590 O 0.77092 0.72289 0.78371
 Zr591 Zr 0.67635 0.77853 0.74103
 O592 O 0.71838 0.81041 0.77501
 Zr593 Zr 0.74361 0.75836 0.67393
 O594 O 0.78902 0.78707 0.70614
 Zr595 Zr 0.74707 0.77138 0.81384
 O596 O 0.70224 0.74015 0.78254
 Zr597 Zr 0.81368 0.74784 0.74762
 O598 O 0.77255 0.71757 0.71125
 Zr599 Zr 0.76412 0.83233 0.73960
 O600 O 0.71885 0.80568 0.70497
 O601 O 0.69999 0.73364 0.70806
 O602 O 0.79164 0.79490 0.78008
 C603 C 0.72059 0.66987 0.66075
 C604 C 0.63791 0.69318 0.74583
 C605 C 0.65806 0.78412 0.65144
 C606 C 0.76894 0.86129 0.82493
 C607 C 0.83228 0.74585 0.83713
 C608 C 0.85597 0.82883 0.75086
 H609 H 0.78184 0.70232 0.80139
 H610 H 0.80931 0.79748 0.68837
 H611 H 0.67936 0.72090 0.69156
 H612 H 0.70503 0.83188 0.78925
 H613 H 0.67984 0.77392 0.84793
 H614 H 0.64332 0.80543 0.80354
 H615 H 0.85040 0.74455 0.68220
 H616 H 0.80104 0.72172 0.64166
 H617 H 0.74564 0.70706 0.85589
 H618 H 0.70394 0.67228 0.81550
 H619 H 0.80050 0.86296 0.68010
 H620 H 0.74344 0.82434 0.63566
 H621 H 0.75197 0.62239 0.74450
 H622 H 0.83611 0.67749 0.76870
 H623 H 0.65925 0.85053 0.72142
 H624 H 0.71065 0.88607 0.74537
 O625 O 0.23738 0.61854 0.29452
 O626 O 0.20128 0.61184 0.24006
 O627 O 0.34045 0.68212 0.25873
 O628 O 0.35663 0.74133 0.23579
 O629 O 0.28041 0.71227 0.36636
 O630 O 0.22715 0.74965 0.38075
 O631 O 0.24198 0.79683 0.16545
 O632 O 0.28311 0.74702 0.14850
 O633 O 0.13632 0.73117 0.20022
 O634 O 0.12356 0.68476 0.24744
 O635 O 0.18250 0.83154 0.26606
 O636 O 0.22823 0.84202 0.31328
 O637 O 0.24010 0.83816 0.21807
 O638 O 0.28179 0.83859 0.28444
 O639 O 0.13757 0.78517 0.24638
 O640 O 0.12396 0.73213 0.29843
 O641 O 0.18437 0.75482 0.16095
 O642 O 0.23865 0.69921 0.14407
 O643 O 0.22362 0.65705 0.34733
 O644 O 0.18055 0.71469 0.36349
 O645 O 0.33180 0.71994 0.32511
 O646 O 0.34263 0.78061 0.28021
 O647 O 0.29625 0.63413 0.24132
 O648 O 0.23888 0.62768 0.19594
 Zr649 Zr 0.24032 0.66002 0.24909
 O650 O 0.20318 0.69783 0.21654
 Zr651 Zr 0.30578 0.73094 0.26910
 O652 O 0.27467 0.77052 0.23239
 Zr653 Zr 0.23133 0.71651 0.32851
 O654 O 0.19835 0.75971 0.29781
 Zr655 Zr 0.23852 0.74091 0.19052
 O656 O 0.27640 0.70195 0.22170
 Zr657 Zr 0.16639 0.73027 0.25359
 O658 O 0.19797 0.68672 0.28532
 Zr659 Zr 0.23499 0.80010 0.26798
 O660 O 0.26762 0.76177 0.30544
 O661 O 0.27199 0.68667 0.29455
 O662 O 0.20079 0.77224 0.22521
 C663 C 0.22767 0.62324 0.33028
 C664 C 0.33147 0.64766 0.24613
 C665 C 0.31728 0.71374 0.35927
 C666 C 0.24198 0.83133 0.18085
 C667 C 0.14790 0.74766 0.16874
 C668 C 0.14863 0.82114 0.25271
 H669 H 0.18779 0.68222 0.19706
 H670 H 0.18079 0.77394 0.31581
 H671 H 0.28786 0.66678 0.30908
 H672 H 0.29366 0.78863 0.21978
 H673 H 0.30499 0.72978 0.15740
 H674 H 0.34758 0.74256 0.20814
 H675 H 0.09871 0.74066 0.28623
 H676 H 0.16232 0.69512 0.35129
 H677 H 0.21113 0.69482 0.13514
 H678 H 0.26023 0.63833 0.17953
 H679 H 0.22133 0.82671 0.33695
 H680 H 0.24134 0.77489 0.37607
 H681 H 0.17453 0.62321 0.24020
 H682 H 0.12883 0.66530 0.26862
 H683 H 0.33709 0.78994 0.30705
 H684 H 0.29799 0.84306 0.26100
 O685 O 0.76580 0.36225 0.29659
 O686 O 0.80533 0.36960 0.23924
 O687 O 0.65864 0.31023 0.24401
 O688 O 0.64433 0.25734 0.20745
 O689 O 0.70615 0.26822 0.34971
 O690 O 0.75837 0.22027 0.36480
 O691 O 0.75384 0.19399 0.15333
 O692 O 0.71175 0.25030 0.13920
 O693 O 0.85926 0.24383 0.19511
 O694 O 0.87191 0.30112 0.24503
 O695 O 0.81417 0.15417 0.25555
 O696 O 0.76256 0.14243 0.29893
 O697 O 0.75711 0.14918 0.20318
 O698 O 0.71445 0.14416 0.26309
 O699 O 0.86104 0.20253 0.25856
 O700 O 0.87651 0.26228 0.28918
 O701 O 0.81152 0.24572 0.14769
 O702 O 0.76336 0.28769 0.13029
 O703 O 0.76390 0.31830 0.34722
 O704 O 0.80451 0.26247 0.36280
 O705 O 0.65879 0.26031 0.30240
 O706 O 0.64870 0.21044 0.25222
 O707 O 0.70621 0.35785 0.23940
 O708 O 0.76111 0.36850 0.19879
 Zr709 Zr 0.75985 0.32716 0.24540
 O710 O 0.79511 0.29022 0.21107
 Zr711 Zr 0.69007 0.25761 0.25035
 O712 O 0.72244 0.21780 0.21672
 Zr713 Zr 0.75937 0.26298 0.31938
 O714 O 0.79531 0.22361 0.28866
 Zr715 Zr 0.75967 0.24977 0.17964
 O716 O 0.72402 0.29005 0.21005
 Zr717 Zr 0.82982 0.25466 0.24809
 O718 O 0.79774 0.29478 0.28275
 Zr719 Zr 0.76061 0.18529 0.25364
 O720 O 0.72420 0.22187 0.28824
 O721 O 0.72330 0.29758 0.28380
 O722 O 0.79688 0.21457 0.21419
 C723 C 0.76719 0.35349 0.33336
 C724 C 0.67015 0.34610 0.23925
 C725 C 0.67012 0.26608 0.33784
 C726 C 0.75269 0.15851 0.16690
 C727 C 0.84742 0.24247 0.15913
 C728 C 0.84991 0.16627 0.25950
 H729 H 0.81138 0.30645 0.19339
 H730 H 0.81154 0.20904 0.30815
 H731 H 0.70737 0.31667 0.29869
 H732 H 0.70357 0.20072 0.20215
 H733 H 0.69520 0.27347 0.14554
 H734 H 0.65260 0.24009 0.18572
 H735 H 0.86811 0.24972 0.31390
 H736 H 0.82523 0.28091 0.35376
 H737 H 0.77278 0.31377 0.13979
 H738 H 0.74268 0.35843 0.17829
 H739 H 0.77441 0.15544 0.32226
 H740 H 0.73687 0.20137 0.35819
 H741 H 0.82731 0.36079 0.25648
 H742 H 0.87240 0.31102 0.21774
 H743 H 0.65625 0.19333 0.27468
 H744 H 0.69599 0.14587 0.24043
 N745 N 0.24863 0.16479 0.05010
 N746 N 0.24041 0.13811 0.02024
 C747 C 0.25182 0.10165 0.03217
 C748 C 0.26671 0.10460 0.07084
 C749 C 0.26422 0.14471 0.08061
 H750 H 0.27963 0.08146 0.08880
 H751 H 0.24195 0.19498 0.04880
 H752 H 0.22565 0.14596 -0.00569
 N753 N 0.68448 0.60867 0.64157
 N754 N 0.67888 0.58744 0.60949
 C755 C 0.69957 0.60425 0.58046
 C756 C 0.71833 0.63795 0.59407
 C757 C 0.70847 0.63929 0.63303
 H758 H 0.73783 0.65759 0.57835
 H759 H 0.67199 0.60225 0.66863
 H760 H 0.66206 0.56145 0.60788
 N761 N 0.78157 0.87138 0.10450
 N762 N 0.78631 0.90237 0.08142
 C763 C 0.76265 0.93179 0.09345
 C764 C 0.74315 0.91944 0.12675
 C765 C 0.75557 0.88072 0.13226
 H766 H 0.72264 0.93600 0.14419
 H767 H 0.79706 0.84484 0.10206
 H768 H 0.80597 0.90337 0.05824
 N769 N 0.31650 0.37695 0.62437
 N770 N 0.31431 0.40896 0.60222
 C771 C 0.27987 0.42722 0.60882
 C772 C 0.25940 0.40632 0.63701
 C773 C 0.28366 0.37446 0.64564
 H774 H 0.22974 0.41133 0.64686
 H775 H 0.33947 0.35650 0.62384
 H776 H 0.33497 0.41676 0.58120
 N777 N 0.71531 0.15288 0.89322
 N778 N 0.71829 0.11853 0.91562
 C779 C 0.74086 0.09223 0.89635
 C780 C 0.75044 0.10839 0.86005
 C781 C 0.73491 0.14673 0.86003
 H782 H 0.76912 0.09555 0.83810
 H783 H 0.70095 0.17873 0.90162
 H784 H 0.70427 0.11447 0.94234
 N785 N 0.18580 0.58166 0.37243
 N786 N 0.18779 0.54703 0.39034
 C787 C 0.22264 0.53006 0.38252
 C788 C 0.24359 0.55481 0.35787
 C789 C 0.21924 0.58736 0.35272
 H790 H 0.27365 0.55160 0.34845
 H791 H 0.16238 0.60144 0.37461
 H792 H 0.16690 0.53662 0.41003
 N793 N 0.26972 0.79044 0.93965
 N794 N 0.27321 0.81654 0.97108
 C795 C 0.25972 0.85243 0.95958
 C796 C 0.24722 0.84926 0.91996
 C797 C 0.25415 0.81004 0.90881
 H798 H 0.23237 0.87141 0.90224
 H799 H 0.27799 0.76065 0.94058
 H800 H 0.28622 0.80888 0.99794
 N801 N 0.79118 0.42050 0.35340
 N802 N 0.79229 0.44260 0.38536
 C803 C 0.77436 0.42286 0.41455
 C804 C 0.76244 0.38592 0.40082
 C805 C 0.77318 0.38593 0.36170
 H806 H 0.74677 0.36302 0.41654
 H807 H 0.80288 0.42896 0.32652
 H808 H 0.80479 0.47094 0.38689
 N809 N 0.15991 0.19826 0.08061
 N810 N 0.13704 0.20214 0.04675
 C811 C 0.11700 0.23637 0.04937
 C812 C 0.12738 0.25554 0.08433
 C813 C 0.15438 0.23060 0.10276
 H814 H 0.11897 0.28498 0.09349
 H815 H 0.17967 0.17527 0.08622
 H816 H 0.13586 0.18153 0.02392
 N817 N 0.60055 0.82248 0.62769
 N818 N 0.57546 0.82229 0.59778
 C819 C 0.58657 0.79441 0.57211
 C820 C 0.62100 0.77665 0.58574
 C821 C 0.62849 0.79510 0.62147
 H822 H 0.63633 0.75179 0.57318
 H823 H 0.59783 0.84032 0.65249
 H824 H 0.55029 0.83987 0.59584
 N825 N 0.10588 0.68427 0.90604
 N826 N 0.07388 0.68785 0.92703
 C827 C 0.05176 0.71740 0.91195
 C828 C 0.06994 0.73262 0.87898
 C829 C 0.10457 0.71102 0.87677
 H830 H 0.06067 0.75737 0.86091
 H831 H 0.12837 0.66404 0.91203
 H832 H 0.06797 0.67109 0.95204
 N833 N 0.64037 0.30585 0.38985
 N834 N 0.60641 0.30750 0.40784
 C835 C 0.58378 0.27671 0.39578
 C836 C 0.60350 0.25532 0.36788
 C837 C 0.63951 0.27440 0.36572
 H838 H 0.59382 0.22876 0.35267
 H839 H 0.66328 0.32637 0.39353
 H840 H 0.59941 0.32871 0.42886
 N841 N 0.85481 0.72492 0.12532
 N842 N 0.88671 0.72606 0.10049
 C843 C 0.91421 0.75081 0.11596
 C844 C 0.90103 0.76438 0.15233
 C845 C 0.86307 0.74836 0.15620
 H846 H 0.91534 0.78587 0.17139
 H847 H 0.82853 0.70966 0.11948
 H848 H 0.88845 0.70945 0.07477
 N849 N 0.38146 0.20184 0.60455
 N850 N 0.41363 0.20558 0.58376
 C851 C 0.43432 0.23743 0.59666
 C852 C 0.41508 0.25380 0.62834
 C853 C 0.38134 0.23060 0.63173
 H854 H 0.42335 0.27980 0.64519
 H855 H 0.36018 0.17972 0.60033
 H856 H 0.42092 0.18681 0.56070
 N857 N 0.85884 0.20734 0.89359
 N858 N 0.87627 0.21016 0.93070
 C859 C 0.89553 0.24513 0.93291
 C860 C 0.88942 0.26575 0.89772
 C861 C 0.86710 0.24078 0.87368
 H862 H 0.89693 0.29637 0.89168
 H863 H 0.83918 0.18498 0.88487
 H864 H 0.87540 0.18792 0.95202
 N865 N 0.37137 0.67544 0.39052
 N866 N 0.39105 0.67462 0.42421
 C867 C 0.37738 0.70337 0.44772
 C868 C 0.34691 0.72295 0.42826
 C869 C 0.34450 0.70451 0.39188
 H870 H 0.33104 0.74882 0.43787
 H871 H 0.37673 0.65676 0.36683
 H872 H 0.41509 0.65623 0.43005
 N873 N 0.18999 0.07369 0.25866
 N874 N 0.16395 0.04229 0.26258
 C875 C 0.13014 0.05157 0.24347
 C876 C 0.13397 0.08961 0.22712
 C877 C 0.17213 0.10185 0.23704
 H878 H 0.11388 0.10453 0.20716
 H879 H 0.21882 0.07413 0.26978
 H880 H 0.17043 0.01619 0.27787
 N881 N 0.57837 0.66768 0.71074
 N882 N 0.56160 0.63237 0.70632
 C883 C 0.57584 0.60761 0.73421
 C884 C 0.60322 0.62810 0.75684
 C885 C 0.60403 0.66618 0.74122
 H886 H 0.62245 0.61599 0.77941
 H887 H 0.57510 0.69107 0.69086
 H888 H 0.54264 0.62489 0.68305
 N889 N 0.85198 0.10049 0.71903
 N890 N 0.88528 0.07643 0.71888
 C891 C 0.91541 0.09610 0.73680
 C892 C 0.90209 0.13390 0.74673
 C893 C 0.86222 0.13503 0.73597
 H894 H 0.91867 0.15720 0.76138
 H895 H 0.82456 0.09290 0.70686
 H896 H 0.88646 0.04917 0.70447
 N897 N 0.36605 0.60113 0.20286
 N898 N 0.40232 0.58792 0.19964
 C899 C 0.42415 0.60168 0.23018
 C900 C 0.40124 0.62511 0.25338
 C901 C 0.36458 0.62340 0.23540
 H902 H 0.40945 0.63964 0.28061
 H903 H 0.34310 0.59537 0.18290
 H904 H 0.41142 0.56827 0.17800
 N905 N 0.14988 0.89219 0.73975
 N906 N 0.11895 0.91892 0.73507
 C907 C 0.08758 0.90465 0.75459
 C908 C 0.09772 0.86751 0.77023
 C909 C 0.13680 0.86124 0.76079
 H910 H 0.07934 0.84748 0.78676
 H911 H 0.17719 0.89478 0.72637
 H912 H 0.11937 0.94253 0.71527
 N913 N 0.64286 0.40686 0.20925
 N914 N 0.60989 0.42715 0.21064
 C915 C 0.58574 0.40955 0.23652
 C916 C 0.60335 0.37571 0.25109
 C917 C 0.63971 0.37564 0.23347
 H918 H 0.59221 0.35520 0.27272
 H919 H 0.66677 0.41416 0.19175
 H920 H 0.60435 0.45286 0.19439
 N921 N 0.88475 0.88333 0.21775
 N922 N 0.91026 0.91517 0.21348
 C923 C 0.90004 0.94337 0.23941
 C924 C 0.86627 0.93143 0.25883
 C925 C 0.85896 0.89310 0.24539
 H926 H 0.85166 0.94658 0.28239
 H927 H 0.88618 0.85666 0.20229
 H928 H 0.93406 0.91562 0.19448
 N929 N 0.42640 0.33512 0.74682
 N930 N 0.44609 0.36894 0.74490
 C931 C 0.42527 0.39755 0.76274
 C932 C 0.39067 0.38102 0.77619
 C933 C 0.39235 0.34165 0.76519
 H934 H 0.36596 0.39619 0.78885
 H935 H 0.43451 0.30912 0.73250
 H936 H 0.47161 0.37274 0.72867
 N937 N 0.09544 0.22019 0.84901
 N938 N 0.07216 0.22530 0.88168
 C939 C 0.09494 0.24124 0.91053
 C940 C 0.13343 0.24435 0.89763
 C941 C 0.13205 0.23191 0.85898
 H942 H 0.15863 0.25671 0.91323
 H943 H 0.08557 0.20949 0.82184
 H944 H 0.04302 0.21554 0.88331
 N945 N 0.57406 0.81002 0.36762
 N946 N 0.55159 0.80816 0.39879
 C947 C 0.57145 0.78945 0.42792
 C948 C 0.60893 0.78062 0.41518
 C949 C 0.60905 0.79356 0.37657
 H950 H 0.63216 0.76551 0.43119
 H951 H 0.56551 0.82255 0.34081
 H952 H 0.52309 0.81949 0.39987
 N953 N 0.84533 0.71970 0.90326
 N954 N 0.87686 0.71770 0.92958
 C955 C 0.90877 0.73300 0.91188
 C956 C 0.89895 0.74239 0.87315
 C957 C 0.85873 0.73504 0.86964
 H958 H 0.91769 0.75620 0.85175
 H959 H 0.81634 0.71186 0.90957
 H960 H 0.87523 0.70557 0.95769
 N961 N 0.39429 0.19303 0.37222
 N962 N 0.42337 0.19805 0.39779
 C963 C 0.44511 0.22954 0.38676
 C964 C 0.43003 0.24445 0.35166
 C965 C 0.39740 0.22064 0.34393
 H966 H 0.43958 0.27050 0.33578
 H967 H 0.37226 0.17148 0.37464
 H968 H 0.42762 0.18064 0.42284
 N969 N 0.12000 0.79440 0.11944
 N970 N 0.08524 0.80179 0.10320
 C971 C 0.05919 0.77413 0.11516
 C972 C 0.07818 0.74821 0.14049
 C973 C 0.11683 0.76183 0.14198
 H974 H 0.06611 0.72209 0.15441
 H975 H 0.14520 0.81172 0.11546
 H976 H 0.07992 0.82436 0.08283
 N977 N 0.62779 0.32491 0.60552
 N978 N 0.59278 0.32302 0.58819
 C979 C 0.57336 0.29059 0.60110
 C980 C 0.59698 0.27133 0.62849
 C981 C 0.63146 0.29373 0.62979
 H982 H 0.59096 0.24380 0.64364
 H983 H 0.64853 0.34734 0.60095
 H984 H 0.58315 0.34258 0.56633
 N985 N 0.90756 0.21114 0.13334
 N986 N 0.92795 0.21174 0.10076
 C987 C 0.91111 0.23757 0.07539
 C988 C 0.87748 0.25283 0.09199
 C989 C 0.87682 0.23577 0.12899
 H990 H 0.85746 0.27456 0.07968
 H991 H 0.91445 0.19382 0.15789
 H992 H 0.95319 0.19491 0.09626
 N993 N 0.38774 0.68934 0.65275
 N994 N 0.40901 0.69116 0.62073
 C995 C 0.38955 0.71256 0.59325
 C996 C 0.35351 0.72395 0.60831
 C997 C 0.35384 0.70904 0.64645
 H998 H 0.33091 0.74156 0.59403
 H999 H 0.39635 0.67457 0.67839
 H1000 H 0.43656 0.67799 0.61791
 N1001 N 0.22994 0.06260 0.83547
 N1002 N 0.23404 0.03815 0.86840
 C1003 C 0.25125 0.05971 0.89750
 C1004 C 0.25795 0.09800 0.88336
 C1005 C 0.24399 0.09865 0.84526
 H1006 H 0.27130 0.12300 0.89840
 H1007 H 0.21635 0.05441 0.80900
 H1008 H 0.22086 0.01023 0.87070
 N1009 N 0.67083 0.67667 0.41257
 N1010 N 0.66512 0.64858 0.43878
 C1011 C 0.69587 0.62347 0.43856
 C1012 C 0.72227 0.63606 0.41030
 C1013 C 0.70531 0.67023 0.39503
 H1014 H 0.75094 0.62404 0.40403
 H1015 H 0.65143 0.69998 0.40697
 H1016 H 0.64122 0.64767 0.45762
 N1017 N 0.71678 0.13571 0.10852
 N1018 N 0.71627 0.10305 0.08394
 C1019 C 0.74137 0.07600 0.09908
 C1020 C 0.75681 0.08974 0.13474
 C1021 C 0.74166 0.12786 0.13850
 H1022 H 0.77941 0.07604 0.15284
 H1023 H 0.70180 0.16217 0.10303
 H1024 H 0.70006 0.10123 0.05771
 N1025 N 0.19832 0.62001 0.59567
 N1026 N 0.20275 0.58857 0.57307
 C1027 C 0.23131 0.56527 0.58857
 C1028 C 0.24448 0.58219 0.62346
 C1029 C 0.22316 0.61697 0.62655
 H1030 H 0.26636 0.57083 0.64387
 H1031 H 0.17734 0.64210 0.59088
 H1032 H 0.18533 0.58267 0.54823
 N1033 N 0.80773 0.89248 0.87865
 N1034 N 0.80806 0.92595 0.89863
 C1035 C 0.77854 0.94930 0.88538
 C1036 C 0.75910 0.93011 0.85466
 C1037 C 0.77834 0.89390 0.85191
 H1038 H 0.73289 0.93956 0.83889
 H1039 H 0.82701 0.86892 0.88372
 H1040 H 0.82699 0.93180 0.92240
 N1041 N 0.30026 0.33499 0.39215
 N1042 N 0.29757 0.36655 0.41490
 C1043 C 0.26894 0.39053 0.40067
 C1044 C 0.25387 0.37383 0.36630
 C1045 C 0.27419 0.33843 0.36228
 H1046 H 0.23169 0.38592 0.34662
 H1047 H 0.32108 0.31258 0.39600
 H1048 H 0.31633 0.37214 0.43883
 N1049 N 0.26458 0.89859 0.15958
 N1050 N 0.26780 0.91792 0.12597
 C1051 C 0.24966 0.89689 0.09707
 C1052 C 0.23514 0.86216 0.11324
 C1053 C 0.24506 0.86443 0.15285
 H1054 H 0.22073 0.83775 0.09812
 H1055 H 0.27773 0.90755 0.18602
 H1056 H 0.28400 0.94410 0.12277
 N1057 N 0.81408 0.41176 0.61934
 N1058 N 0.81590 0.42892 0.58452
 C1059 C 0.78773 0.41342 0.56059
 C1060 C 0.76730 0.38472 0.58132
 C1061 C 0.78467 0.38494 0.61855
 H1062 H 0.74148 0.36823 0.57171
 H1063 H 0.83246 0.41869 0.64322
 H1064 H 0.83441 0.45280 0.57807
 N1065 N 0.11456 0.12748 0.79100
 N1066 N 0.07773 0.11000 0.79524
 C1067 C 0.05666 0.11599 0.76189
 C1068 C 0.07946 0.13828 0.73601
 C1069 C 0.11566 0.14401 0.75522
 H1070 H 0.07222 0.14582 0.70592
 H1071 H 0.13718 0.12712 0.81212
 H1072 H 0.07012 0.09141 0.81847
 N1073 N 0.61379 0.63399 0.31281
 N1074 N 0.58380 0.60922 0.30962
 C1075 C 0.56268 0.61842 0.27712
 C1076 C 0.57914 0.65150 0.25943
 C1077 C 0.61190 0.65985 0.28282
 H1078 H 0.57053 0.66527 0.23195
 H1079 H 0.63558 0.63261 0.33473
 H1080 H 0.57885 0.58546 0.32863
 N1081 N 0.09595 0.84957 0.21086
 N1082 N 0.08242 0.88526 0.20265
 C1083 C 0.10057 0.91163 0.22663
 C1084 C 0.12710 0.89225 0.25063
 C1085 C 0.12283 0.85295 0.24006
 H1086 H 0.14575 0.90473 0.27356
 H1087 H 0.08727 0.82367 0.19628
 H1088 H 0.06001 0.89114 0.18217
 N1089 N 0.68616 0.45168 0.76419
 N1090 N 0.66117 0.48141 0.76596
 C1091 C 0.62582 0.46953 0.75176
 C1092 C 0.62902 0.42971 0.74001
 C1093 C 0.66784 0.41951 0.74891
 H1094 H 0.60669 0.41105 0.72641
 H1095 H 0.71540 0.45338 0.77402
 H1096 H 0.66835 0.50925 0.77750
 N1097 N 0.91129 0.14374 0.29177
 N1098 N 0.93362 0.11190 0.29208
 C1099 C 0.91774 0.08516 0.26703
 C1100 C 0.88298 0.09986 0.25128
 C1101 C 0.88044 0.13720 0.26737
 H1102 H 0.86321 0.08601 0.23011
 H1103 H 0.91692 0.16921 0.30837
 H1104 H 0.95904 0.10865 0.30940
 N1105 N 0.31327 0.54617 0.72167
 N1106 N 0.34118 0.51921 0.71997
 C1107 C 0.37313 0.53220 0.74026
 C1108 C 0.36477 0.56936 0.75584
 C1109 C 0.32664 0.57717 0.74294
 H1110 H 0.38313 0.58757 0.77487
 H1111 H 0.28556 0.54328 0.70825
 H1112 H 0.33819 0.49230 0.70504
 N1113 N 0.91744 0.83239 0.78939
 N1114 N 0.94927 0.85462 0.79259
 C1115 C 0.94604 0.88510 0.76728
 C1116 C 0.91020 0.88208 0.74690
 C1117 C 0.89308 0.84820 0.76216
 H1118 H 0.89910 0.90065 0.72335
 H1119 H 0.91261 0.80659 0.80554
 H1120 H 0.97288 0.84865 0.81165
 N1121 N 0.38580 0.38135 0.29186
 N1122 N 0.41814 0.40277 0.29637
 C1123 C 0.44320 0.39372 0.26749
 C1124 C 0.42654 0.36446 0.24410
 C1125 C 0.38987 0.35808 0.26027
 H1126 H 0.43816 0.35169 0.21765
 H1127 H 0.36147 0.38280 0.31010
 H1128 H 0.42214 0.42462 0.31776
   
