data_POSCAR
  _audit_creation_date              2014-09-24
  _audit_creation_method            'ToBaCCo'
  _symmetry_space_group_name_H-M    'P1'
  _symmetry_Int_Tables_number       1
  _symmetry_cell_setting            triclinic
  loop_
  _symmetry_equiv_pos_as_xyz
 x,y,z
_cell_length_a 41.8949
_cell_length_b 41.8949
_cell_length_c 41.8949
_cell_angle_alpha 90.000000
_cell_angle_beta 90.000000
_cell_angle_gamma 90.000000
loop_
  _atom_site_label
  _atom_site_type_symbol
  _atom_site_fract_x
  _atom_site_fract_y
  _atom_site_fract_z
O1 O 0.32659 0.37660 0.03194
 O2 O 0.37605 0.32709 -0.03227
 O3 O 0.32584 0.37769 -0.03340
 O4 O 0.37609 0.32702 0.03169
 O5 O 0.33910 0.29019 0.03236
 O6 O 0.28915 0.34062 -0.03311
 O7 O 0.33901 0.29028 -0.03276
 O8 O 0.28985 0.33939 0.03264
 Cu9 Cu 0.35406 0.35518 -0.00047
 Cu10 Cu 0.31138 0.31234 -0.00022
 C11 C 0.29894 0.36732 0.04222
 C12 C 0.36712 0.29913 -0.04214
 C13 C 0.29827 0.36815 -0.04440
 C14 C 0.36717 0.29920 0.04189
 O15 O 0.62397 0.67290 -0.03227
 O16 O 0.67342 0.62347 0.03194
 O17 O 0.62388 0.67293 0.03170
 O18 O 0.67416 0.62231 -0.03340
 O19 O 0.71085 0.65938 -0.03311
 O20 O 0.66085 0.70977 0.03237
 O21 O 0.71021 0.66062 0.03265
 O22 O 0.66098 0.70973 -0.03277
 Cu23 Cu 0.64595 0.64482 -0.00046
 Cu24 Cu 0.68862 0.68767 -0.00021
 C25 C 0.63290 0.70088 -0.04217
 C26 C 0.70109 0.63268 0.04219
 C27 C 0.63285 0.70081 0.04190
 C28 C 0.70173 0.63184 -0.04440
 O29 O 0.67342 0.37655 0.96804
 O30 O 0.62395 0.32709 1.03227
 O31 O 0.67416 0.37769 1.03340
 O32 O 0.62388 0.32704 0.96831
 O33 O 0.66088 0.29022 0.96765
 O34 O 0.71085 0.34062 1.03311
 O35 O 0.66099 0.29028 1.03276
 O36 O 0.71018 0.33937 0.96735
 Cu37 Cu 0.64594 0.35518 1.00046
 Cu38 Cu 0.68862 0.31234 1.00022
 C39 C 0.70101 0.36732 0.95771
 C40 C 0.63288 0.29912 1.04213
 C41 C 0.70173 0.36815 1.04440
 C42 C 0.63291 0.29916 0.95806
 O43 O 0.32658 0.62343 0.96805
 O44 O 0.37604 0.67291 1.03227
 O45 O 0.32584 0.62231 1.03340
 O46 O 0.37611 0.67297 0.96831
 O47 O 0.33911 0.70979 0.96765
 O48 O 0.28915 0.65938 1.03311
 O49 O 0.33901 0.70972 1.03276
 O50 O 0.28982 0.66062 0.96736
 Cu51 Cu 0.35406 0.64482 1.00046
 Cu52 Cu 0.31138 0.68766 1.00022
 C53 C 0.29897 0.63264 0.95779
 C54 C 0.36698 0.70093 1.04226
 C55 C 0.29827 0.63185 1.04440
 C56 C 0.36706 0.70086 0.95804
 O57 O -0.03365 0.37737 0.32613
 O58 O 0.03161 0.32685 0.37632
 O59 O 0.03162 0.37630 0.32685
 O60 O -0.03365 0.32613 0.37737
 O61 O -0.03327 0.28944 0.34037
 O62 O 0.03242 0.33923 0.29009
 O63 O 0.03241 0.29009 0.33923
 O64 O -0.03327 0.34037 0.28944
 Cu65 Cu -0.00093 0.35461 0.35462
 Cu66 Cu -0.00045 0.31193 0.31193
 C67 C -0.04442 0.36802 0.29839
 C68 C 0.04203 0.29912 0.36716
 C69 C 0.04199 0.36723 0.29916
 C70 C -0.04443 0.29839 0.36803
 O71 O 0.03161 0.67314 0.62371
 O72 O -0.03365 0.62263 0.67387
 O73 O -0.03365 0.67387 0.62263
 O74 O 0.03161 0.62370 0.67316
 O75 O 0.03242 0.66078 0.70992
 O76 O -0.03327 0.71056 0.65963
 O77 O -0.03327 0.65963 0.71056
 O78 O 0.03243 0.70993 0.66076
 Cu79 Cu -0.00093 0.64539 0.64539
 Cu80 Cu -0.00045 0.68808 0.68807
 C81 C 0.04200 0.70089 0.63282
 C82 C -0.04442 0.63198 0.70161
 C83 C -0.04443 0.70161 0.63198
 C84 C 0.04199 0.63283 0.70090
 O85 O 1.03202 0.62362 0.32680
 O86 O 0.96798 0.67321 0.37637
 O87 O 0.96794 0.62365 0.32684
 O88 O 1.03206 0.67321 0.37622
 O89 O 1.03266 0.71014 0.33926
 O90 O 0.96737 0.66070 0.28998
 O91 O 0.96741 0.71004 0.33926
 O92 O 1.03259 0.66073 0.28998
 Cu93 Cu 1.00000 0.64537 0.35463
 Cu94 Cu 1.00000 0.68824 0.31177
 C95 C 1.04234 0.63298 0.29892
 C96 C 0.95790 0.70102 0.36726
 C97 C 0.95790 0.63267 0.29904
 C98 C 1.04231 0.70091 0.36726
 O99 O 0.96798 0.32678 0.62363
 O100 O 1.03202 0.37634 0.67322
 O101 O 1.03202 0.32678 0.62367
 O102 O 0.96796 0.37636 0.67320
 O103 O 0.96739 0.33926 0.71003
 O104 O 1.03259 0.28993 0.66075
 O105 O 1.03259 0.33925 0.71006
 O106 O 0.96741 0.28996 0.66074
 Cu107 Cu 1.00000 0.35464 0.64536
 Cu108 Cu 1.00000 0.31177 0.68823
 C109 C 0.95789 0.29897 0.63275
 C110 C 1.04207 0.36732 0.70099
 C111 C 1.04206 0.29900 0.63267
 C112 C 0.95787 0.36730 0.70095
 O113 O 0.32679 -0.03202 0.37639
 O114 O 0.37637 0.03202 0.32679
 O115 O 0.32684 0.03205 0.37634
 O116 O 0.37622 -0.03206 0.32679
 O117 O 0.33925 -0.03266 0.28986
 O118 O 0.28996 0.03263 0.33929
 O119 O 0.33926 0.03259 0.28996
 O120 O 0.28998 -0.03259 0.33927
 Cu121 Cu 0.35463 -0.00000 0.35463
 Cu122 Cu 0.31177 -0.00000 0.31176
 C123 C 0.29898 -0.04219 0.36719
 C124 C 0.36724 0.04211 0.29897
 C125 C 0.29905 0.04207 0.36737
 C126 C 0.36725 -0.04230 0.29909
 O127 O 0.62363 0.03202 0.67321
 O128 O 0.67323 -0.03202 0.62367
 O129 O 0.62367 -0.03202 0.67322
 O130 O 0.67320 0.03204 0.62362
 O131 O 0.71002 0.03260 0.66073
 O132 O 0.66075 -0.03260 0.71007
 O133 O 0.71007 -0.03259 0.66075
 O134 O 0.66074 0.03259 0.71004
 Cu135 Cu 0.64536 0.00000 0.64536
 Cu136 Cu 0.68823 -0.00000 0.68823
 C137 C 0.63273 0.04210 0.70101
 C138 C 0.70099 -0.04206 0.63268
 C139 C 0.63269 -0.04207 0.70100
 C140 C 0.70096 0.04212 0.63270
 O141 O 0.37632 0.96797 0.67325
 O142 O 0.32678 1.03202 0.62366
 O143 O 0.37633 1.03202 0.67322
 O144 O 0.32679 0.96795 0.62366
 O145 O 0.28996 0.96739 0.66075
 O146 O 0.33925 1.03259 0.71007
 O147 O 0.28994 1.03259 0.66075
 O148 O 0.33922 0.96741 0.71008
 Cu149 Cu 0.35464 1.00000 0.64536
 Cu150 Cu 0.31177 1.00000 0.68823
 C151 C 0.36726 0.95786 0.70100
 C152 C 0.29900 1.04208 0.63270
 C153 C 0.36732 1.04206 0.70100
 C154 C 0.29901 0.95778 0.63280
 O155 O 0.62363 0.96798 0.32678
 O156 O 0.67322 1.03202 0.37634
 O157 O 0.62367 1.03202 0.32678
 O158 O 0.67320 0.96796 0.37636
 O159 O 0.71003 0.96739 0.33926
 O160 O 0.66075 1.03259 0.28993
 O161 O 0.71006 1.03259 0.33925
 O162 O 0.66074 0.96741 0.28996
 Cu163 Cu 0.64536 1.00000 0.35464
 Cu164 Cu 0.68823 1.00000 0.31177
 C165 C 0.63275 0.95789 0.29897
 C166 C 0.70100 1.04207 0.36733
 C167 C 0.63268 1.04206 0.29901
 C168 C 0.70095 0.95786 0.36730
 C169 C 0.83335 0.83305 0.51729
 C170 C 0.83327 0.83318 0.48290
 C171 C 0.85679 0.80962 0.46349
 C172 C 0.80963 0.85678 0.46352
 C173 C 0.80967 0.85674 0.53654
 C174 C 0.85705 0.80918 0.53680
 C175 C 0.88841 0.81773 0.45426
 C176 C 0.90898 0.79727 0.43531
 C177 C 0.90014 0.76638 0.42365
 C178 C 0.86902 0.75740 0.43469
 C179 C 0.84867 0.77799 0.45400
 C180 C 0.81773 0.88841 0.45426
 C181 C 0.79725 0.90896 0.43532
 C182 C 0.76633 0.90013 0.42374
 C183 C 0.75738 0.86900 0.43470
 C184 C 0.77799 0.84866 0.45401
 C185 C 0.77800 0.84867 0.54600
 C186 C 0.75742 0.86904 0.56531
 C187 C 0.76640 0.90014 0.57635
 C188 C 0.79729 0.90899 0.56469
 C189 C 0.81774 0.88840 0.54573
 C190 C 0.84928 0.77740 0.54647
 C191 C 0.86994 0.75637 0.56575
 C192 C 0.90165 0.76505 0.57634
 C193 C 0.90931 0.79656 0.56497
 C194 C 0.88862 0.81713 0.54608
 H195 H 0.89751 0.84043 0.46173
 H196 H 0.93194 0.80656 0.42866
 H197 H 0.85982 0.73430 0.42832
 H198 H 0.82604 0.76899 0.46173
 H199 H 0.84043 0.89751 0.46173
 H200 H 0.80655 0.93194 0.42866
 H201 H 0.76899 0.82604 0.46173
 H202 H 0.76898 0.82605 0.53828
 H203 H 0.73430 0.85984 0.57168
 H204 H 0.80657 0.93195 0.57134
 H205 H 0.84043 0.89750 0.53827
 H206 H 0.82646 0.76891 0.53856
 H207 H 0.85992 0.73363 0.57196
 H208 H 0.93202 0.80638 0.57146
 H209 H 0.89754 0.83996 0.53856
 H210 H 0.73429 0.85982 0.42832
 C211 C 0.16678 0.16678 0.51716
 C212 C 0.16678 0.16678 0.48284
 C213 C 0.14322 0.19037 0.46349
 C214 C 0.19038 0.14322 0.46349
 C215 C 0.19038 0.14322 0.53651
 C216 C 0.14322 0.19037 0.53651
 C217 C 0.11159 0.18227 0.45426
 C218 C 0.09103 0.20275 0.43531
 C219 C 0.09985 0.23369 0.42371
 C220 C 0.13099 0.24262 0.43469
 C221 C 0.15133 0.22201 0.45400
 C222 C 0.18227 0.11159 0.45426
 C223 C 0.20275 0.09104 0.43531
 C224 C 0.23367 0.09988 0.42372
 C225 C 0.24263 0.13101 0.43470
 C226 C 0.22201 0.15134 0.45401
 C227 C 0.22201 0.15132 0.54600
 C228 C 0.24259 0.13097 0.56531
 C229 C 0.23361 0.09986 0.57635
 C230 C 0.20272 0.09101 0.56469
 C231 C 0.18226 0.11159 0.54574
 C232 C 0.15133 0.22201 0.54600
 C233 C 0.13096 0.24259 0.56531
 C234 C 0.09986 0.23361 0.57635
 C235 C 0.09101 0.20271 0.56469
 C236 C 0.11159 0.18226 0.54574
 H237 H 0.10249 0.15957 0.46173
 H238 H 0.06806 0.19344 0.42866
 H239 H 0.14018 0.26570 0.42832
 H240 H 0.17396 0.23101 0.46173
 H241 H 0.15957 0.10249 0.46173
 H242 H 0.19345 0.06806 0.42866
 H243 H 0.23101 0.17396 0.46173
 H244 H 0.23102 0.17395 0.53828
 H245 H 0.26570 0.14016 0.57169
 H246 H 0.19343 0.06805 0.57134
 H247 H 0.15957 0.10250 0.53827
 H248 H 0.17395 0.23101 0.53828
 H249 H 0.14016 0.26570 0.57168
 H250 H 0.06805 0.19342 0.57134
 H251 H 0.10250 0.15957 0.53827
 H252 H 0.26571 0.14019 0.42832
 C253 C 0.16678 0.83322 0.48284
 C254 C 0.16678 0.83322 0.51716
 C255 C 0.14322 0.80963 0.53651
 C256 C 0.19038 0.85678 0.53651
 C257 C 0.19038 0.85678 0.46349
 C258 C 0.14322 0.80963 0.46349
 C259 C 0.11159 0.81773 0.54574
 C260 C 0.09102 0.79726 0.56469
 C261 C 0.09985 0.76634 0.57633
 C262 C 0.13098 0.75739 0.56531
 C263 C 0.15133 0.77799 0.54600
 C264 C 0.18227 0.88841 0.54574
 C265 C 0.20275 0.90897 0.56468
 C266 C 0.23366 0.90013 0.57626
 C267 C 0.24262 0.86901 0.56530
 C268 C 0.22201 0.84867 0.54600
 C269 C 0.22201 0.84867 0.45400
 C270 C 0.24262 0.86902 0.43469
 C271 C 0.23367 0.90013 0.42371
 C272 C 0.20274 0.90897 0.43531
 C273 C 0.18227 0.88841 0.45426
 C274 C 0.15133 0.77799 0.45400
 C275 C 0.13100 0.75739 0.43469
 C276 C 0.09990 0.76636 0.42375
 C277 C 0.09103 0.79727 0.43531
 C278 C 0.11159 0.81774 0.45427
 H279 H 0.10249 0.84043 0.53827
 H280 H 0.06806 0.80656 0.57134
 H281 H 0.14018 0.73430 0.57168
 H282 H 0.17396 0.76899 0.53827
 H283 H 0.15957 0.89751 0.53827
 H284 H 0.19345 0.93194 0.57134
 H285 H 0.23101 0.82604 0.53827
 H286 H 0.23102 0.82605 0.46172
 H287 H 0.26571 0.85984 0.42831
 H288 H 0.19343 0.93194 0.42866
 H289 H 0.15957 0.89750 0.46173
 H290 H 0.17396 0.76899 0.46172
 H291 H 0.14017 0.73429 0.42831
 H292 H 0.06806 0.80657 0.42866
 H293 H 0.10250 0.84043 0.46173
 H294 H 0.26571 0.85982 0.57168
 C295 C 0.83335 0.16695 0.48271
 C296 C 0.83327 0.16682 0.51710
 C297 C 0.85679 0.19038 0.53651
 C298 C 0.80963 0.14322 0.53648
 C299 C 0.80967 0.14326 0.46346
 C300 C 0.85705 0.19082 0.46320
 C301 C 0.88841 0.18227 0.54574
 C302 C 0.90898 0.20273 0.56469
 C303 C 0.90014 0.23363 0.57635
 C304 C 0.86903 0.24260 0.56531
 C305 C 0.84867 0.22201 0.54600
 C306 C 0.81773 0.11159 0.54574
 C307 C 0.79725 0.09104 0.56468
 C308 C 0.76631 0.09988 0.57626
 C309 C 0.75738 0.13100 0.56530
 C310 C 0.77799 0.15133 0.54599
 C311 C 0.77800 0.15133 0.45400
 C312 C 0.75741 0.13097 0.43469
 C313 C 0.76638 0.09986 0.42366
 C314 C 0.79728 0.09101 0.43531
 C315 C 0.81774 0.11160 0.45427
 C316 C 0.84928 0.22260 0.45353
 C317 C 0.86994 0.24363 0.43425
 C318 C 0.90165 0.23495 0.42367
 C319 C 0.90931 0.20344 0.43503
 C320 C 0.88862 0.18287 0.45392
 H321 H 0.89751 0.15957 0.53827
 H322 H 0.93194 0.19344 0.57134
 H323 H 0.85982 0.26570 0.57168
 H324 H 0.82604 0.23101 0.53827
 H325 H 0.84043 0.10249 0.53827
 H326 H 0.80655 0.06806 0.57134
 H327 H 0.76899 0.17396 0.53827
 H328 H 0.76898 0.17395 0.46172
 H329 H 0.73430 0.14016 0.42832
 H330 H 0.80657 0.06805 0.42866
 H331 H 0.84043 0.10250 0.46173
 H332 H 0.82646 0.23109 0.46144
 H333 H 0.85992 0.26637 0.42804
 H334 H 0.93202 0.19362 0.42854
 H335 H 0.89753 0.16004 0.46144
 H336 H 0.73429 0.14018 0.57168
 C337 C 0.51716 0.83322 0.83322
 C338 C 0.48284 0.83322 0.83322
 C339 C 0.46349 0.85678 0.80963
 C340 C 0.46349 0.80962 0.85678
 C341 C 0.53651 0.80962 0.85678
 C342 C 0.53651 0.85678 0.80963
 C343 C 0.45426 0.88841 0.81774
 C344 C 0.43531 0.90899 0.79728
 C345 C 0.42366 0.90013 0.76640
 C346 C 0.43469 0.86903 0.75741
 C347 C 0.45400 0.84867 0.77799
 C348 C 0.45426 0.81773 0.88841
 C349 C 0.43531 0.79726 0.90898
 C350 C 0.42368 0.76633 0.90016
 C351 C 0.43469 0.75739 0.86903
 C352 C 0.45400 0.77799 0.84867
 C353 C 0.54600 0.77799 0.84867
 C354 C 0.56531 0.75739 0.86903
 C355 C 0.57632 0.76634 0.90015
 C356 C 0.56469 0.79727 0.90898
 C357 C 0.54574 0.81773 0.88841
 C358 C 0.54600 0.84867 0.77799
 C359 C 0.56531 0.86904 0.75742
 C360 C 0.57636 0.90014 0.76640
 C361 C 0.56469 0.90899 0.79729
 C362 C 0.54574 0.88841 0.81774
 H363 H 0.46173 0.89751 0.84043
 H364 H 0.42866 0.93195 0.80656
 H365 H 0.42832 0.85982 0.73430
 H366 H 0.46173 0.82604 0.76899
 H367 H 0.46173 0.84043 0.89751
 H368 H 0.42866 0.80655 0.93194
 H369 H 0.46173 0.76899 0.82604
 H370 H 0.53828 0.76898 0.82605
 H371 H 0.57169 0.73429 0.85984
 H372 H 0.57134 0.80657 0.93194
 H373 H 0.53827 0.84043 0.89750
 H374 H 0.53828 0.82605 0.76899
 H375 H 0.57168 0.85984 0.73430
 H376 H 0.57134 0.93195 0.80658
 H377 H 0.53827 0.89750 0.84043
 H378 H 0.42832 0.73429 0.85982
 C379 C 0.51716 0.16678 0.16678
 C380 C 0.48284 0.16678 0.16678
 C381 C 0.46349 0.14322 0.19037
 C382 C 0.46349 0.19038 0.14322
 C383 C 0.53651 0.19038 0.14322
 C384 C 0.53651 0.14322 0.19037
 C385 C 0.45426 0.11159 0.18227
 C386 C 0.43531 0.09102 0.20273
 C387 C 0.42365 0.09986 0.23363
 C388 C 0.43469 0.13098 0.24260
 C389 C 0.45400 0.15133 0.22201
 C390 C 0.45426 0.18227 0.11159
 C391 C 0.43531 0.20274 0.09101
 C392 C 0.42367 0.23366 0.09984
 C393 C 0.43469 0.24261 0.13097
 C394 C 0.45400 0.22201 0.15133
 C395 C 0.54600 0.22201 0.15133
 C396 C 0.56531 0.24261 0.13097
 C397 C 0.57632 0.23366 0.09985
 C398 C 0.56469 0.20273 0.09102
 C399 C 0.54574 0.18227 0.11159
 C400 C 0.54600 0.15133 0.22201
 C401 C 0.56531 0.13096 0.24259
 C402 C 0.57635 0.09986 0.23361
 C403 C 0.56469 0.09101 0.20271
 C404 C 0.54574 0.11159 0.18226
 H405 H 0.46173 0.10249 0.15957
 H406 H 0.42866 0.06806 0.19344
 H407 H 0.42832 0.14018 0.26570
 H408 H 0.46173 0.17396 0.23101
 H409 H 0.46173 0.15957 0.10249
 H410 H 0.42866 0.19345 0.06806
 H411 H 0.46173 0.23101 0.17396
 H412 H 0.53828 0.23102 0.17395
 H413 H 0.57169 0.26571 0.14016
 H414 H 0.57134 0.19343 0.06805
 H415 H 0.53827 0.15957 0.10250
 H416 H 0.53828 0.17395 0.23101
 H417 H 0.57168 0.14016 0.26570
 H418 H 0.57134 0.06805 0.19342
 H419 H 0.53827 0.10250 0.15957
 H420 H 0.42832 0.26571 0.14018
 C421 C 0.48284 0.16678 0.83322
 C422 C 0.51716 0.16678 0.83322
 C423 C 0.53651 0.14322 0.80963
 C424 C 0.53651 0.19038 0.85678
 C425 C 0.46349 0.19038 0.85678
 C426 C 0.46349 0.14322 0.80963
 C427 C 0.54574 0.11159 0.81774
 C428 C 0.56469 0.09102 0.79727
 C429 C 0.57633 0.09987 0.76636
 C430 C 0.56531 0.13098 0.75740
 C431 C 0.54600 0.15133 0.77799
 C432 C 0.54574 0.18227 0.88841
 C433 C 0.56469 0.20274 0.90898
 C434 C 0.57631 0.23368 0.90016
 C435 C 0.56531 0.24262 0.86902
 C436 C 0.54600 0.22201 0.84867
 C437 C 0.45400 0.22201 0.84867
 C438 C 0.43469 0.24261 0.86902
 C439 C 0.42369 0.23367 0.90014
 C440 C 0.43531 0.20273 0.90897
 C441 C 0.45426 0.18227 0.88841
 C442 C 0.45400 0.15133 0.77799
 C443 C 0.43469 0.13096 0.75741
 C444 C 0.42365 0.09986 0.76640
 C445 C 0.43531 0.09101 0.79729
 C446 C 0.45426 0.11159 0.81774
 H447 H 0.53827 0.10249 0.84043
 H448 H 0.57134 0.06806 0.80656
 H449 H 0.57168 0.14018 0.73430
 H450 H 0.53827 0.17396 0.76899
 H451 H 0.53827 0.15957 0.89751
 H452 H 0.57134 0.19345 0.93194
 H453 H 0.53827 0.23101 0.82604
 H454 H 0.46172 0.23102 0.82605
 H455 H 0.42831 0.26571 0.85984
 H456 H 0.42866 0.19343 0.93194
 H457 H 0.46173 0.15957 0.89750
 H458 H 0.46172 0.17395 0.76899
 H459 H 0.42832 0.14016 0.73430
 H460 H 0.42866 0.06805 0.80658
 H461 H 0.46173 0.10250 0.84043
 H462 H 0.57168 0.26571 0.85982
 C463 C 0.48284 0.83322 0.16678
 C464 C 0.51716 0.83322 0.16678
 C465 C 0.53651 0.85678 0.19037
 C466 C 0.53651 0.80962 0.14322
 C467 C 0.46349 0.80962 0.14322
 C468 C 0.46349 0.85678 0.19037
 C469 C 0.54574 0.88841 0.18226
 C470 C 0.56469 0.90898 0.20273
 C471 C 0.57635 0.90014 0.23363
 C472 C 0.56531 0.86903 0.24260
 C473 C 0.54600 0.84867 0.22201
 C474 C 0.54574 0.81773 0.11159
 C475 C 0.56468 0.79724 0.09104
 C476 C 0.57627 0.76629 0.09984
 C477 C 0.56530 0.75737 0.13100
 C478 C 0.54600 0.77799 0.15133
 C479 C 0.45400 0.77799 0.15133
 C480 C 0.43469 0.75739 0.13097
 C481 C 0.42368 0.76634 0.09985
 C482 C 0.43531 0.79727 0.09102
 C483 C 0.45426 0.81774 0.11159
 C484 C 0.45400 0.84867 0.22201
 C485 C 0.43469 0.86900 0.24260
 C486 C 0.42374 0.90010 0.23363
 C487 C 0.43531 0.90897 0.20273
 C488 C 0.45427 0.88841 0.18226
 H489 H 0.53827 0.89751 0.15957
 H490 H 0.57134 0.93194 0.19344
 H491 H 0.57168 0.85982 0.26570
 H492 H 0.53827 0.82604 0.23101
 H493 H 0.53827 0.84043 0.10249
 H494 H 0.57134 0.80655 0.06806
 H495 H 0.53827 0.76899 0.17396
 H496 H 0.46172 0.76898 0.17395
 H497 H 0.42831 0.73429 0.14016
 H498 H 0.42866 0.80657 0.06805
 H499 H 0.46173 0.84043 0.10250
 H500 H 0.46172 0.82604 0.23101
 H501 H 0.42831 0.85983 0.26571
 H502 H 0.42866 0.93194 0.19343
 H503 H 0.46173 0.89750 0.15957
 H504 H 0.57168 0.73429 0.14019
 C505 C 0.83318 0.51743 0.83318
 C506 C 0.83323 0.48297 0.83322
 C507 C 0.80963 0.46352 0.85678
 C508 C 0.85678 0.46352 0.80963
 C509 C 0.85701 0.53683 0.80922
 C510 C 0.80923 0.53683 0.85701
 C511 C 0.81774 0.45426 0.88841
 C512 C 0.79725 0.43531 0.90896
 C513 C 0.76632 0.42375 0.90010
 C514 C 0.75738 0.43470 0.86900
 C515 C 0.77799 0.45401 0.84867
 C516 C 0.88841 0.45426 0.81773
 C517 C 0.90896 0.43532 0.79725
 C518 C 0.90013 0.42374 0.76633
 C519 C 0.86900 0.43470 0.75738
 C520 C 0.84866 0.45401 0.77799
 C521 C 0.84928 0.54647 0.77741
 C522 C 0.86994 0.56575 0.75637
 C523 C 0.90165 0.57633 0.76505
 C524 C 0.90931 0.56497 0.79656
 C525 C 0.88861 0.54608 0.81713
 C526 C 0.77741 0.54647 0.84928
 C527 C 0.75637 0.56575 0.86994
 C528 C 0.76506 0.57633 0.90164
 C529 C 0.79656 0.56497 0.90931
 C530 C 0.81713 0.54608 0.88861
 H531 H 0.84043 0.46173 0.89751
 H532 H 0.80656 0.42865 0.93194
 H533 H 0.73430 0.42832 0.85982
 H534 H 0.76899 0.46173 0.82604
 H535 H 0.89751 0.46173 0.84043
 H536 H 0.93194 0.42866 0.80655
 H537 H 0.82604 0.46173 0.76899
 H538 H 0.82646 0.53856 0.76890
 H539 H 0.85992 0.57196 0.73363
 H540 H 0.93202 0.57146 0.80638
 H541 H 0.89754 0.53856 0.83996
 H542 H 0.76891 0.53856 0.82646
 H543 H 0.73363 0.57196 0.85992
 H544 H 0.80638 0.57146 0.93202
 H545 H 0.83996 0.53856 0.89753
 H546 H 0.85982 0.42832 0.73429
 C547 C 0.16695 0.51729 0.16665
 C548 C 0.16682 0.48290 0.16673
 C549 C 0.19038 0.46349 0.14321
 C550 C 0.14322 0.46352 0.19037
 C551 C 0.14326 0.53654 0.19033
 C552 C 0.19082 0.53680 0.14295
 C553 C 0.18227 0.45426 0.11159
 C554 C 0.20274 0.43531 0.09103
 C555 C 0.23367 0.42372 0.09987
 C556 C 0.24262 0.43470 0.13099
 C557 C 0.22201 0.45400 0.15133
 C558 C 0.11159 0.45426 0.18227
 C559 C 0.09103 0.43531 0.20275
 C560 C 0.09986 0.42373 0.23370
 C561 C 0.13099 0.43469 0.24262
 C562 C 0.15133 0.45401 0.22201
 C563 C 0.15133 0.54600 0.22200
 C564 C 0.13098 0.56531 0.24261
 C565 C 0.09987 0.57629 0.23367
 C566 C 0.09103 0.56468 0.20274
 C567 C 0.11160 0.54574 0.18226
 C568 C 0.22260 0.54647 0.15072
 C569 C 0.24363 0.56575 0.13006
 C570 C 0.23495 0.57633 0.09836
 C571 C 0.20344 0.56497 0.09069
 C572 C 0.18287 0.54608 0.11138
 H573 H 0.15957 0.46173 0.10249
 H574 H 0.19344 0.42866 0.06806
 H575 H 0.26570 0.42832 0.14018
 H576 H 0.23101 0.46173 0.17396
 H577 H 0.10249 0.46173 0.15957
 H578 H 0.06806 0.42866 0.19345
 H579 H 0.17396 0.46173 0.23101
 H580 H 0.17395 0.53828 0.23102
 H581 H 0.14016 0.57168 0.26571
 H582 H 0.06806 0.57134 0.19343
 H583 H 0.10250 0.53827 0.15957
 H584 H 0.23109 0.53856 0.17354
 H585 H 0.26637 0.57196 0.14008
 H586 H 0.19362 0.57146 0.06798
 H587 H 0.16004 0.53856 0.10246
 H588 H 0.14018 0.42832 0.26571
 C589 C 0.83318 0.48257 0.16682
 C590 C 0.83323 0.51703 0.16678
 C591 C 0.80963 0.53648 0.14322
 C592 C 0.85678 0.53648 0.19037
 C593 C 0.85701 0.46317 0.19078
 C594 C 0.80923 0.46317 0.14299
 C595 C 0.81774 0.54574 0.11159
 C596 C 0.79728 0.56469 0.09101
 C597 C 0.76640 0.57635 0.09988
 C598 C 0.75742 0.56531 0.13097
 C599 C 0.77800 0.54599 0.15133
 C600 C 0.88841 0.54574 0.18227
 C601 C 0.90895 0.56469 0.20276
 C602 C 0.90012 0.57627 0.23369
 C603 C 0.86899 0.56530 0.24264
 C604 C 0.84866 0.54599 0.22201
 C605 C 0.84928 0.45353 0.22259
 C606 C 0.86994 0.43425 0.24363
 C607 C 0.90165 0.42367 0.23495
 C608 C 0.90931 0.43503 0.20344
 C609 C 0.88861 0.45392 0.18287
 C610 C 0.77741 0.45353 0.15072
 C611 C 0.75637 0.43425 0.13006
 C612 C 0.76506 0.42367 0.09836
 C613 C 0.79656 0.43503 0.09069
 C614 C 0.81713 0.45392 0.11139
 H615 H 0.84043 0.53827 0.10249
 H616 H 0.80656 0.57134 0.06805
 H617 H 0.73430 0.57168 0.14018
 H618 H 0.76899 0.53827 0.17396
 H619 H 0.89751 0.53827 0.15958
 H620 H 0.93193 0.57135 0.19346
 H621 H 0.82604 0.53827 0.23101
 H622 H 0.82646 0.46144 0.23110
 H623 H 0.85992 0.42804 0.26637
 H624 H 0.93202 0.42854 0.19362
 H625 H 0.89754 0.46144 0.16004
 H626 H 0.76891 0.46144 0.17354
 H627 H 0.73363 0.42804 0.14008
 H628 H 0.80638 0.42854 0.06798
 H629 H 0.83996 0.46144 0.10247
 H630 H 0.85981 0.57168 0.26572
 C631 C 0.16695 0.48271 0.83335
 C632 C 0.16682 0.51710 0.83327
 C633 C 0.19038 0.53651 0.85679
 C634 C 0.14322 0.53648 0.80963
 C635 C 0.14326 0.46346 0.80967
 C636 C 0.19082 0.46320 0.85705
 C637 C 0.18227 0.54574 0.88841
 C638 C 0.20274 0.56469 0.90897
 C639 C 0.23365 0.57630 0.90012
 C640 C 0.24261 0.56531 0.86901
 C641 C 0.22201 0.54600 0.84867
 C642 C 0.11159 0.54574 0.81773
 C643 C 0.09102 0.56469 0.79726
 C644 C 0.09985 0.57635 0.76635
 C645 C 0.13097 0.56531 0.75740
 C646 C 0.15133 0.54600 0.77799
 C647 C 0.15133 0.45400 0.77800
 C648 C 0.13097 0.43469 0.75741
 C649 C 0.09986 0.42366 0.76638
 C650 C 0.09101 0.43531 0.79728
 C651 C 0.11160 0.45427 0.81774
 C652 C 0.22260 0.45353 0.84928
 C653 C 0.24363 0.43425 0.86994
 C654 C 0.23495 0.42367 0.90164
 C655 C 0.20344 0.43503 0.90931
 C656 C 0.18287 0.45392 0.88862
 H657 H 0.15957 0.53827 0.89751
 H658 H 0.19344 0.57134 0.93194
 H659 H 0.26570 0.57168 0.85982
 H660 H 0.23101 0.53827 0.82604
 H661 H 0.10249 0.53827 0.84043
 H662 H 0.06805 0.57134 0.80655
 H663 H 0.17396 0.53827 0.76899
 H664 H 0.17395 0.46172 0.76898
 H665 H 0.14016 0.42832 0.73430
 H666 H 0.06805 0.42866 0.80657
 H667 H 0.10250 0.46173 0.84043
 H668 H 0.23109 0.46144 0.82646
 H669 H 0.26637 0.42804 0.85992
 H670 H 0.19362 0.42854 0.93202
 H671 H 0.16004 0.46144 0.89754
 H672 H 0.14018 0.57168 0.73429
 N673 N 0.27649 0.39034 0.05969
 N674 N 0.25698 0.41027 0.07490
 N675 N 0.72339 0.60948 0.05961
 N676 N 0.74291 0.58975 0.07506
 N677 N 0.72344 0.39056 0.94050
 N678 N 0.74311 0.41008 0.92502
 N679 N 0.27650 0.60964 0.94031
 N680 N 0.25699 0.58973 0.92509
 N681 N 0.05957 0.27660 0.39030
 N682 N 0.07489 0.25704 0.41018
 N683 N 0.05958 0.72338 0.60970
 N684 N 0.07491 0.74291 0.58979
 N685 N 0.94035 0.72344 0.39037
 N686 N 0.92506 0.74291 0.41031
 N687 N 0.94036 0.27657 0.60961
 N688 N 0.92504 0.25710 0.58970
 N689 N 0.39040 0.05962 0.27657
 N690 N 0.41029 0.07496 0.25708
 N691 N 0.60965 0.05966 0.72345
 N692 N 0.58971 0.07494 0.74293
 N693 N 0.39058 0.94049 0.72333
 N694 N 0.41017 0.92493 0.74291
 N695 N 0.60962 0.94036 0.27657
 N696 N 0.58970 0.92504 0.25710
 N697 N 0.39027 0.27656 0.94036
 N698 N 0.41026 0.25702 0.92518
 N699 N 0.60963 0.72339 0.94044
 N700 N 0.58979 0.74299 0.92512
 N701 N 0.39060 0.72330 0.05937
 N702 N 0.41010 0.74302 0.07499
 N703 N 0.60973 0.27657 0.05965
 N704 N 0.58972 0.25704 0.07484
 N705 N 0.27658 0.05964 0.60961
 N706 N 0.25710 0.07496 0.58972
 N707 N 0.72344 0.05966 0.39035
 N708 N 0.74291 0.07494 0.41029
 N709 N 0.72342 0.94034 0.60963
 N710 N 0.74288 0.92504 0.58969
 N711 N 0.27653 0.94049 0.39050
 N712 N 0.25693 0.92507 0.41015
 N713 N 0.05966 0.39035 0.72344
 N714 N 0.07494 0.41029 0.74291
 N715 N 0.05917 0.60912 0.27672
 N716 N 0.07511 0.59005 0.25687
 N717 N 0.93847 0.38834 0.27730
 N718 N 0.92863 0.40821 0.25564
 N719 N 0.93847 0.61166 0.72270
 N720 N 0.92863 0.59179 0.74436
 N721 N 0.72274 0.61162 0.93843
 N722 N 0.74438 0.59177 0.92861
 N723 N 0.27726 0.38838 0.93843
 N724 N 0.25562 0.40823 0.92861
 N725 N 0.27726 0.61162 0.06157
 N726 N 0.25562 0.59177 0.07139
 N727 N 0.72274 0.38838 0.06157
 N728 N 0.74438 0.40823 0.07139
 N729 N 0.93848 0.72270 0.61166
 N730 N 0.92863 0.74436 0.59179
 N731 N 0.93848 0.27730 0.38834
 N732 N 0.92863 0.25564 0.40821
 N733 N 0.05967 0.27658 0.60964
 N734 N 0.07496 0.25712 0.58969
 N735 N 0.05897 0.72324 0.39104
 N736 N 0.07518 0.74318 0.40970
 N737 N 0.60962 0.94035 0.72341
 N738 N 0.58970 0.92503 0.74288
 N739 N 0.39105 0.94102 0.27677
 N740 N 0.40972 0.92482 0.25683
 N741 N 0.60964 0.05967 0.27658
 N742 N 0.58969 0.07496 0.25712
 N743 N 0.39037 0.05966 0.72342
 N744 N 0.41030 0.07496 0.74288
 N745 N 0.60979 0.72342 0.05953
 N746 N 0.58987 0.74300 0.07482
 N747 N 0.39028 0.27665 0.05956
 N748 N 0.41020 0.25713 0.07489
 N749 N 0.60967 0.27664 0.94050
 N750 N 0.58984 0.25708 0.92510
 N751 N 0.39040 0.72331 0.94055
 N752 N 0.41014 0.74291 0.92505
 N753 N 0.72346 0.94044 0.39040
 N754 N 0.74307 0.92511 0.41014
 N755 N 0.27666 0.94067 0.60930
 N756 N 0.25688 0.92497 0.59002
 N757 N 0.27649 0.05962 0.39028
 N758 N 0.25693 0.07481 0.41020
 N759 N 0.72349 0.05961 0.60967
 N760 N 0.74306 0.07486 0.58981
 N761 N 0.94042 0.60970 0.27648
 N762 N 0.92521 0.58982 0.25689
 N763 N 0.94044 0.39040 0.72346
 N764 N 0.92510 0.41014 0.74307
 N765 N 0.05959 0.60968 0.72336
 N766 N 0.07493 0.58975 0.74286
 N767 N 0.05960 0.39024 0.27657
 N768 N 0.07484 0.41016 0.25701
   
