data_POSCAR
  _audit_creation_date              2014-09-24
  _audit_creation_method            'ToBaCCo'
  _symmetry_space_group_name_H-M    'P1'
  _symmetry_Int_Tables_number       1
  _symmetry_cell_setting            triclinic
  loop_
  _symmetry_equiv_pos_as_xyz
 x,y,z
_cell_length_a 24.5883
_cell_length_b 24.6477
_cell_length_c 50.8511
_cell_angle_alpha 87.734200
_cell_angle_beta 91.134600
_cell_angle_gamma 120.079600
loop_
  _atom_site_label
  _atom_site_type_symbol
  _atom_site_fract_x
  _atom_site_fract_y
  _atom_site_fract_z
C1 C 0.02361 0.10262 0.53548
 H2 H 0.06775 0.10303 0.53465
 C3 C 0.01892 0.14649 0.55025
 H4 H 0.05996 0.18071 0.56070
 C5 C -0.08197 0.05981 0.52140
 H6 H -0.12052 0.02711 0.50944
 C7 C -0.08885 0.10291 0.53603
 H8 H -0.13298 0.10230 0.53473
 N9 N -0.02635 0.06050 0.52143
 C10 C 0.01318 -0.08929 0.50737
 H11 H 0.01285 -0.08827 0.48608
 C12 C 0.01874 -0.13619 0.52134
 H13 H 0.02184 -0.17089 0.51021
 C14 C 0.00322 -0.04775 0.54700
 H15 H -0.00503 -0.01457 0.55691
 C16 C 0.00870 -0.09374 0.56176
 H17 H 0.00477 -0.09516 0.58298
 Zn18 Zn -0.01127 0.00906 0.49970
 N19 N 0.00550 -0.04640 0.52029
 C20 C 0.11249 0.06177 0.47866
 N21 N 0.05824 0.06377 0.47833
 C22 C 0.05327 0.10897 0.46417
 C23 C 0.10414 0.15465 0.44960
 C24 C 0.16473 0.10665 0.46430
 C25 C -0.13443 -0.08644 0.49127
 C26 C -0.18537 -0.13076 0.47693
 C27 C -0.12754 -0.08108 0.43693
 C28 C -0.07773 -0.03792 0.45208
 N29 N -0.08199 -0.04140 0.47875
 H30 H 0.11598 0.02642 0.49063
 H31 H 0.00993 0.11019 0.46470
 H32 H 0.09947 0.19098 0.43890
 H33 H 0.20728 0.10428 0.46571
 H34 H -0.13555 -0.08957 0.51256
 H35 H -0.22431 -0.16790 0.48789
 H36 H -0.12127 -0.07883 0.41582
 H37 H -0.03466 -0.00343 0.44251
 C38 C 0.01683 -0.13891 0.54906
 C39 C -0.03788 0.14721 0.55086
 C40 C -0.18331 -0.12848 0.44910
 C41 C 0.16117 0.15431 0.44945
 C42 C 1.11549 0.04559 0.13069
 H43 H 1.11634 0.08985 0.13114
 C44 C 1.15994 0.04079 0.11593
 H45 H 1.19495 0.08178 0.10501
 C46 C 1.07062 -0.06044 0.14556
 H47 H 1.03672 -0.09925 0.15773
 C48 C 1.11431 -0.06740 0.13102
 H49 H 1.11253 -0.11199 0.13253
 N50 N 1.07203 -0.00458 0.14512
 C51 C 0.92169 0.03541 0.15882
 H52 H 0.92096 0.03346 0.18011
 C53 C 0.87570 0.04180 0.14481
 H54 H 0.83988 0.04388 0.15589
 C55 C 0.96650 0.02830 0.11924
 H56 H 1.00047 0.02067 0.10938
 C57 C 0.92149 0.03470 0.10444
 H58 H 0.92163 0.03207 0.08324
 Zn59 Zn 1.01892 0.00951 0.16666
 N60 N 0.96568 0.02862 0.14594
 C61 C 1.07063 0.13115 0.18777
 N62 N 1.07203 0.07669 0.18821
 C63 C 1.11549 0.06998 0.20264
 C64 C 1.15995 0.11923 0.21740
 C65 C 1.11432 0.18179 0.20231
 C66 C 0.92168 -0.11363 0.17451
 C67 C 0.87569 -0.16600 0.18852
 C68 C 0.92148 -0.11313 0.22889
 C69 C 0.96649 -0.06172 0.21409
 N70 N 0.96568 -0.06284 0.18739
 H71 H 1.03674 0.13607 0.17560
 H72 H 1.11633 0.02656 0.20219
 H73 H 1.19495 0.11323 0.22832
 H74 H 1.11255 0.22460 0.20080
 H75 H 0.92095 -0.11241 0.15322
 H76 H 0.83987 -0.20390 0.17743
 H77 H 0.92162 -0.11037 0.25009
 H78 H 1.00047 -0.02011 0.22395
 C79 C 0.87509 0.04173 0.11710
 C80 C 1.16014 -0.01619 0.11587
 C81 C 0.87508 -0.16655 0.21622
 C82 C 1.16015 0.17641 0.21746
 C83 C 0.05321 0.94423 0.86916
 H84 H 0.00988 0.89967 0.86864
 C85 C 0.10409 0.94943 0.88374
 H86 H 0.09942 0.90843 0.89444
 C87 C 0.11243 1.05065 0.85467
 H88 H 0.11590 1.08948 0.84270
 C89 C 0.16467 1.05802 0.86904
 H90 H 0.20721 1.10294 0.86762
 N91 N 0.05818 0.99440 0.85501
 C92 C -0.13450 0.95193 0.84207
 H93 H -0.13562 0.95394 0.82078
 C94 C -0.18543 0.94531 0.85641
 H95 H -0.22438 0.94350 0.84545
 C96 C -0.07779 0.96011 0.88125
 H97 H -0.03472 0.96870 0.89082
 C98 C -0.12760 0.95347 0.89641
 H99 H -0.12133 0.95750 0.91752
 Zn100 Zn -0.01133 0.97959 0.83363
 N101 N -0.08205 0.95933 0.85459
 C102 C -0.08203 0.85813 0.81194
 N103 N -0.02641 0.91307 0.81191
 C104 C 0.02355 0.92092 0.79785
 C105 C 0.01887 0.87236 0.78308
 C106 C -0.08890 0.80816 0.79731
 C107 C 0.01311 1.10239 0.82596
 C108 C 0.01866 1.15484 0.81199
 C109 C 0.00864 1.10237 0.77157
 C110 C 0.00315 1.05089 0.78633
 N111 N 0.00543 1.05182 0.81304
 H112 H -0.12057 0.85229 0.82389
 H113 H 0.06769 0.96465 0.79869
 H114 H 0.05991 0.87919 0.77263
 H115 H -0.13303 0.76464 0.79861
 H116 H 0.01277 1.10103 0.84726
 H117 H 0.02176 1.19264 0.82312
 H118 H 0.00471 1.09986 0.75035
 H119 H -0.00509 1.00947 0.77643
 C120 C -0.18338 0.94509 0.88423
 C121 C 0.16112 1.00680 0.88389
 C122 C 0.01677 1.15566 0.78428
 C123 C -0.03793 0.81483 0.78248
 C124 C 0.50899 -0.00068 0.01267
 C125 C 0.50415 -0.00820 -0.01385
 C126 C 0.45370 -0.00550 -0.02944
 C127 C 0.54947 -0.01895 -0.02853
 C128 C 0.56613 0.00968 0.02741
 C129 C 0.45723 -0.00299 0.02822
 C130 C 0.41659 -0.05338 -0.04666
 C131 C 0.36978 -0.05077 -0.06172
 C132 C 0.36015 0.00088 -0.06049
 C133 C 0.39653 0.04792 -0.04258
 C134 C 0.44336 0.04527 -0.02756
 C135 C 0.56223 -0.06644 -0.02029
 C136 C 0.60583 -0.07553 -0.03380
 C137 C 0.63813 -0.03695 -0.05592
 C138 C 0.62229 0.00835 -0.06481
 C139 C 0.57889 0.01748 -0.05122
 C140 C 0.62618 0.05667 0.01915
 C141 C 0.67976 0.06572 0.03288
 C142 C 0.67444 0.02809 0.05539
 C143 C 0.61378 -0.01745 0.06403
 C144 C 0.56037 -0.02664 0.05021
 C145 C 0.46996 0.04488 0.04549
 C146 C 0.42198 0.04245 0.06064
 C147 C 0.36023 -0.00899 0.05943
 C148 C 0.34753 -0.05596 0.04144
 C149 C 0.39559 -0.05350 0.02633
 H150 H 0.42325 -0.09340 -0.04813
 H151 H 0.34072 -0.09001 -0.07389
 H152 H 0.38878 0.08695 -0.04015
 H153 H 0.47165 0.08294 -0.01446
 H154 H 0.53816 -0.09674 -0.00339
 H155 H 0.61273 -0.11359 -0.02691
 H156 H 0.56883 0.05358 -0.05826
 H157 H 0.63157 0.08655 0.00204
 H158 H 0.72455 0.10271 0.02571
 H159 H 0.60781 -0.04642 0.08153
 H160 H 0.51447 -0.06264 0.05715
 H161 H 0.51707 0.08471 0.04697
 H162 H 0.43366 0.08166 0.07288
 H163 H 0.30026 -0.09486 0.03906
 H164 H 0.38469 -0.09118 0.01319
 H165 H 0.64411 0.03728 -0.08230
 C166 C -0.01511 0.49011 0.68007
 C167 C -0.01510 0.49474 0.65327
 C168 C -0.02046 0.44360 0.63691
 C169 C -0.00842 0.55167 0.63903
 C170 C -0.02047 0.53589 0.69643
 C171 C -0.00843 0.43986 0.69431
 C172 C 0.02406 0.45706 0.61723
 C173 C 0.02008 0.40936 0.60195
 C174 C -0.02974 0.34711 0.60547
 C175 C -0.07376 0.33390 0.62556
 C176 C -0.06967 0.38167 0.64085
 C177 C 0.04107 0.61159 0.64491
 C178 C 0.04763 0.66487 0.63126
 C179 C 0.00474 0.65945 0.61129
 C180 C -0.04336 0.59889 0.60489
 C181 C -0.05004 0.54575 0.61865
 C182 C -0.06967 0.54862 0.69248
 C183 C -0.07377 0.59230 0.70777
 C184 C -0.02975 0.62310 0.72787
 C185 C 0.02005 0.61065 0.73139
 C186 C 0.02404 0.56694 0.71610
 C187 C -0.05006 0.40415 0.71468
 C188 C -0.04340 0.35768 0.72844
 C189 C 0.00471 0.34523 0.72204
 C190 C 0.04761 0.38270 0.70208
 C191 C 0.04105 0.42942 0.68843
 H192 H 0.06289 0.50443 0.61414
 H193 H 0.05723 0.42169 0.58794
 H194 H -0.11125 0.28633 0.62961
 H195 H -0.10468 0.37027 0.65591
 H196 H 0.07519 0.61705 0.65991
 H197 H 0.08730 0.70957 0.63617
 H198 H -0.08787 0.49989 0.61344
 H199 H -0.10468 0.52501 0.67742
 H200 H -0.11126 0.60237 0.70372
 H201 H 0.05720 0.63547 0.74540
 H202 H 0.06287 0.55840 0.71920
 H203 H -0.08790 0.41217 0.71989
 H204 H -0.07600 0.33128 0.74424
 H205 H 0.08728 0.37766 0.69717
 H206 H 0.07518 0.45809 0.67344
 H207 H -0.07596 0.59269 0.58909
 C208 C 0.50418 0.51238 0.34719
 C209 C 0.50902 0.50972 0.32066
 C210 C 0.56615 0.55650 0.30592
 C211 C 0.45725 0.46027 0.30512
 C212 C 0.45373 0.45922 0.36277
 C213 C 0.54951 0.56845 0.36186
 C214 C 0.56038 0.58706 0.28313
 C215 C 0.61379 0.63130 0.26931
 C216 C 0.67445 0.64641 0.27794
 C217 C 0.67977 0.61409 0.30045
 C218 C 0.62620 0.56956 0.31418
 C219 C 0.39561 0.44913 0.30701
 C220 C 0.34755 0.40354 0.29190
 C221 C 0.36025 0.36927 0.27390
 C222 C 0.42200 0.37959 0.27268
 C223 C 0.46999 0.42514 0.28784
 C224 C 0.44339 0.39812 0.36089
 C225 C 0.39656 0.34863 0.37591
 C226 C 0.36019 0.35929 0.39382
 C227 C 0.36982 0.42057 0.39506
 C228 C 0.41662 0.46999 0.37999
 C229 C 0.57894 0.56143 0.38455
 C230 C 0.62233 0.61394 0.39814
 C231 C 0.63817 0.67509 0.38926
 C232 C 0.60587 0.68138 0.36714
 C233 C 0.56227 0.62871 0.35363
 H234 H 0.51448 0.57717 0.27619
 H235 H 0.60782 0.65430 0.25181
 H236 H 0.72458 0.62190 0.30761
 H237 H 0.63160 0.54506 0.33128
 H238 H 0.38472 0.47591 0.32015
 H239 H 0.30028 0.39517 0.29428
 H240 H 0.51710 0.43242 0.28635
 H241 H 0.47167 0.38874 0.34778
 H242 H 0.38881 0.30185 0.37348
 H243 H 0.34077 0.43076 0.40723
 H244 H 0.42329 0.51667 0.38147
 H245 H 0.56887 0.51525 0.39158
 H246 H 0.64416 0.60683 0.41563
 H247 H 0.61276 0.72634 0.36025
 H248 H 0.53819 0.63494 0.33673
 H249 H 0.43368 0.35207 0.26044
 C250 C -0.03966 0.19917 0.56543
 C251 C -0.01251 0.20712 0.59346
 C252 C -0.00903 0.25636 0.60607
 C253 C -0.03352 0.29366 0.58992
 C254 C 0.00362 0.31235 0.56387
 C255 C 0.00064 0.26326 0.55134
 C256 C -0.10404 0.19459 0.56923
 C257 C -0.10060 0.24413 0.58176
 H258 H 0.00170 0.17582 0.60283
 H259 H 0.00863 0.26722 0.62605
 H260 H 0.02604 0.35888 0.55463
 H261 H 0.02199 0.26905 0.53218
 H262 H -0.14895 0.15572 0.56350
 H263 H -0.14210 0.24743 0.58558
 C264 C 0.82223 0.78087 0.23252
 C265 C 0.77726 0.80151 0.24275
 C266 C 0.73022 0.75766 0.25826
 C267 C 0.73102 0.69589 0.26221
 C268 C 0.73198 0.67486 0.23425
 C269 C 0.77941 0.71868 0.21880
 C270 C 0.84486 0.76040 0.25742
 C271 C 0.79761 0.71656 0.27303
 H272 H 0.78250 0.84736 0.23837
 H273 H 0.69581 0.76650 0.26722
 H274 H 0.70000 0.62790 0.22764
 H275 H 0.78769 0.70722 0.19949
 H276 H 0.89402 0.77883 0.26240
 H277 H 0.80818 0.69992 0.29133
 C278 C 0.21699 0.00927 -0.10146
 C279 C 0.27805 0.07338 -0.09956
 C280 C 0.32566 0.07039 -0.08667
 C281 C 0.30841 0.00405 -0.07630
 C282 C 0.24900 -0.01806 -0.05971
 C283 C 0.20164 -0.01512 -0.07270
 C284 C 0.23807 -0.03291 -0.11402
 C285 C 0.28570 -0.03547 -0.10113
 H286 H 0.28449 0.11781 -0.10720
 H287 H 0.37165 0.11164 -0.08439
 H288 H 0.24488 -0.03395 -0.03924
 H289 H 0.15739 -0.02814 -0.06320
 H290 H 0.21945 -0.05598 -0.13249
 H291 H 0.30795 -0.05943 -0.10934
 C292 C 0.01655 0.80774 0.56541
 C293 C -0.04920 0.76224 0.57657
 C294 C -0.05225 0.71486 0.59224
 C295 C 0.01062 0.71590 0.59536
 C296 C 0.03272 0.71790 0.56711
 C297 C 0.03622 0.76567 0.55153
 C298 C 0.05953 0.82961 0.58977
 C299 C 0.05614 0.78199 0.60553
 H300 H -0.08996 0.76750 0.57276
 H301 H -0.09547 0.68032 0.60195
 H302 H 0.04771 0.68622 0.56034
 H303 H 0.05593 0.77450 0.53192
 H304 H 0.08930 0.87849 0.59453
 H305 H 0.08175 0.79172 0.62392
 C306 C 0.21234 0.23061 0.23233
 C307 C 0.21814 0.21263 0.26114
 C308 C 0.26733 0.25852 0.27433
 C309 C 0.30683 0.31918 0.25787
 C310 C 0.32611 0.29845 0.23318
 C311 C 0.27701 0.25229 0.22009
 C312 C 0.20956 0.29162 0.23413
 C313 C 0.25906 0.33775 0.24721
 H314 H 0.18560 0.16773 0.27053
 H315 H 0.27685 0.25249 0.29486
 H316 H 0.37327 0.32106 0.22516
 H317 H 0.28331 0.23524 0.20168
 H318 H 0.17244 0.29902 0.22634
 H319 H 0.26384 0.38353 0.24952
 C320 C 0.76843 -0.05351 -0.10015
 C321 C 0.75483 -0.08887 -0.07492
 C322 C 0.71071 -0.08319 -0.05891
 C323 C 0.68688 -0.04435 -0.07132
 C324 C 0.74341 0.01572 -0.07737
 C325 C 0.78773 0.01077 -0.09331
 C326 C 0.70640 -0.07788 -0.11252
 C327 C 0.66207 -0.07222 -0.09674
 H328 H 0.77569 -0.11691 -0.06846
 H329 H 0.70121 -0.10243 -0.03894
 H330 H 0.75305 0.06012 -0.06962
 H331 H 0.83254 0.05144 -0.09888
 H332 H 0.69079 -0.10697 -0.12960
 H333 H 0.61274 -0.09363 -0.10210
 C334 C 0.21233 -0.01821 0.10100
 C335 C 0.27700 0.02478 0.11324
 C336 C 0.32610 0.02771 0.10015
 C337 C 0.30681 -0.01230 0.07547
 C338 C 0.25904 -0.07864 0.08612
 C339 C 0.20954 -0.08200 0.09920
 C340 C 0.21813 0.00557 0.07219
 C341 C 0.26732 0.00886 0.05900
 H342 H 0.28330 0.04813 0.13165
 H343 H 0.37326 0.05225 0.10817
 H344 H 0.26382 -0.11964 0.08382
 H345 H 0.17242 -0.12652 0.10700
 H346 H 0.18560 0.01793 0.06280
 H347 H 0.27684 0.02440 0.03847
 C348 C 0.76849 0.82193 0.43348
 C349 C 0.78779 0.77696 0.42665
 C350 C 0.74346 0.72769 0.41070
 C351 C 0.68693 0.73124 0.40466
 C352 C 0.66212 0.73428 0.43008
 C353 C 0.70646 0.78427 0.44586
 C354 C 0.75488 0.84370 0.40826
 C355 C 0.71076 0.79390 0.39225
 H356 H 0.83260 0.78109 0.43220
 H357 H 0.75309 0.69293 0.40295
 H358 H 0.61280 0.70637 0.43544
 H359 H 0.69085 0.79775 0.46295
 H360 H 0.77575 0.89261 0.40180
 H361 H 0.70126 0.80366 0.37228
 C362 C 0.01649 0.20874 0.76792
 C363 C -0.04926 0.18849 0.75676
 C364 C -0.05230 0.23282 0.74109
 C365 C 0.01057 0.29466 0.73797
 C366 C 0.03266 0.31474 0.76622
 C367 C 0.03616 0.27047 0.78181
 C368 C 0.05948 0.22985 0.74357
 C369 C 0.05610 0.27408 0.72781
 H370 H -0.09001 0.14247 0.76057
 H371 H -0.09551 0.22414 0.73137
 H372 H 0.04764 0.36141 0.77300
 H373 H 0.05585 0.28134 0.80142
 H374 H 0.08926 0.21074 0.73881
 H375 H 0.08172 0.28996 0.70942
 C376 C 0.82223 0.04144 0.10081
 C377 C 0.77726 -0.02417 0.09059
 C378 C 0.73021 -0.02738 0.07508
 C379 C 0.73102 0.03519 0.07112
 C380 C 0.73198 0.05720 0.09907
 C381 C 0.77941 0.06081 0.11453
 C382 C 0.84486 0.08453 0.07591
 C383 C 0.79760 0.08111 0.06030
 H384 H 0.78250 -0.06479 0.09497
 H385 H 0.69581 -0.07063 0.06612
 H386 H 0.70000 0.07218 0.10568
 H387 H 0.78769 0.08057 0.13383
 H388 H 0.89402 0.11526 0.07092
 H389 H 0.80816 0.10831 0.04199
 C390 C 0.21705 0.20773 0.43479
 C391 C 0.23810 0.27098 0.44736
 C392 C 0.28574 0.32118 0.43446
 C393 C 0.30845 0.30438 0.40963
 C394 C 0.32571 0.25529 0.42001
 C395 C 0.27810 0.20468 0.43289
 C396 C 0.20169 0.21677 0.40604
 C397 C 0.24904 0.26707 0.39305
 H398 H 0.21949 0.27543 0.46583
 H399 H 0.30797 0.36739 0.44267
 H400 H 0.37171 0.26004 0.41772
 H401 H 0.28456 0.16671 0.44053
 H402 H 0.15744 0.18553 0.39654
 H403 H 0.24492 0.27884 0.37258
 C404 C -0.03969 0.76111 0.76790
 C405 C 0.00061 0.73732 0.78199
 C406 C 0.00360 0.69122 0.76946
 C407 C -0.03355 0.67276 0.74341
 C408 C -0.10063 0.65520 0.75158
 C409 C -0.10407 0.70130 0.76410
 C410 C -0.01255 0.78031 0.73987
 C411 C -0.00906 0.73455 0.72726
 H412 H 0.02196 0.75288 0.80115
 H413 H 0.02602 0.66711 0.77871
 H414 H -0.14212 0.61039 0.74776
 H415 H -0.14899 0.69525 0.76984
 H416 H 0.00165 0.82581 0.73051
 H417 H 0.00860 0.74136 0.70729
   
