data_POSCAR
  _audit_creation_date              2014-09-24
  _audit_creation_method            'ToBaCCo'
  _symmetry_space_group_name_H-M    'P1'
  _symmetry_Int_Tables_number       1
  _symmetry_cell_setting            triclinic
  loop_
  _symmetry_equiv_pos_as_xyz
 x,y,z
_cell_length_a 32.6163
_cell_length_b 35.6352
_cell_length_c 32.6155
_cell_angle_alpha 90.000000
_cell_angle_beta 89.998500
_cell_angle_gamma 90.000000
loop_
  _atom_site_label
  _atom_site_type_symbol
  _atom_site_fract_x
  _atom_site_fract_y
  _atom_site_fract_z
C1 C 0.25000 0.25013 0.25000
 C2 C 0.75000 0.74999 0.25000
 C3 C 0.75000 0.24986 0.75000
 C4 C 0.25000 0.74999 0.75000
 C5 C 0.05762 0.05649 0.01434
 H6 H 0.05844 0.05786 -0.01878
 C7 C 0.08162 0.08101 0.03755
 H8 H 0.10098 0.10110 0.02189
 C9 C 0.03074 0.02884 0.07468
 H10 H 0.01038 0.00892 0.08908
 C11 C 0.05419 0.05285 0.09909
 H12 H 0.05183 0.05072 0.13212
 N13 N 0.03319 0.03079 0.03311
 C14 C 0.01583 -0.05768 -0.05774
 H15 H -0.01730 -0.05902 -0.05850
 C16 C 0.03896 -0.08205 -0.08200
 H17 H 0.02325 -0.10200 -0.10148
 C18 C 0.07625 -0.03024 -0.03079
 H19 H 0.09070 -0.01043 -0.01033
 C20 C 0.10058 -0.05411 -0.05449
 H21 H 0.13362 -0.05200 -0.05220
 Zn22 Zn 0.00091 -0.00068 -0.00075
 N23 N 0.03467 -0.03213 -0.03317
 C24 C -0.02913 0.02915 -0.07597
 N25 N -0.03140 0.03097 -0.03438
 C26 C -0.05578 0.05659 -0.01542
 C27 C -0.07995 0.08112 -0.03843
 C28 C -0.05277 0.05316 -0.10019
 C29 C -0.01411 -0.05794 0.05592
 C30 C -0.03730 -0.08234 0.08009
 C31 C -0.09886 -0.05415 0.05272
 C32 C -0.07446 -0.03027 0.02911
 N33 N -0.03289 -0.03226 0.03148
 H34 H -0.00882 0.00928 -0.09053
 H35 H -0.05646 0.05786 0.01772
 H36 H -0.09930 0.10113 -0.02262
 H37 H -0.05057 0.05111 -0.13323
 H38 H 0.01902 -0.05935 0.05669
 H39 H -0.02165 -0.10238 0.09951
 H40 H -0.13188 -0.05195 0.05046
 H41 H -0.08887 -0.01036 0.00874
 C42 C 0.08198 -0.08040 -0.08066
 C43 C 0.08018 0.07934 0.08056
 C44 C -0.08032 -0.08057 0.07880
 C45 C -0.07875 0.07954 -0.08146
 C46 C 0.05773 0.55767 0.51583
 H47 H 0.05850 0.55901 0.48269
 C48 C 0.08199 0.58204 0.53896
 H49 H 0.10148 0.60199 0.52324
 C50 C 0.03079 0.53023 0.57625
 H51 H 0.01033 0.51042 0.59070
 C52 C 0.05449 0.55409 0.60058
 H53 H 0.05220 0.55199 0.63362
 N54 N 0.03317 0.53212 0.53466
 C55 C 0.01542 0.44340 0.44422
 H56 H -0.01772 0.44213 0.44354
 C57 C 0.03843 0.41887 0.42004
 H58 H 0.02262 0.39886 0.40070
 C59 C 0.07597 0.47084 0.47086
 H60 H 0.09052 0.49071 0.49118
 C61 C 0.10019 0.44682 0.44723
 H62 H 0.13323 0.44887 0.44942
 Zn63 Zn 0.00075 0.50067 0.50090
 N64 N 0.03438 0.46903 0.46859
 C65 C -0.02911 0.53026 0.42553
 N66 N -0.03148 0.53225 0.46711
 C67 C -0.05592 0.55793 0.48588
 C68 C -0.08009 0.58233 0.46269
 C69 C -0.05272 0.55414 0.40114
 C70 C -0.01435 0.44350 0.55762
 C71 C -0.03755 0.41898 0.58162
 C72 C -0.09909 0.44714 0.55419
 C73 C -0.07469 0.47115 0.53073
 N74 N -0.03311 0.46920 0.53319
 H75 H -0.00874 0.51035 0.41112
 H76 H -0.05669 0.55934 0.51901
 H77 H -0.09951 0.60237 0.47835
 H78 H -0.05046 0.55194 0.36811
 H79 H 0.01878 0.44213 0.55843
 H80 H -0.02190 0.39889 0.60098
 H81 H -0.13212 0.44926 0.55182
 H82 H -0.08908 0.49107 0.51037
 C83 C 0.08145 0.42045 0.42125
 C84 C 0.08066 0.58039 0.58198
 C85 C -0.08057 0.42065 0.58018
 C86 C -0.07880 0.58055 0.41967
 C87 C 0.55578 0.05659 0.51541
 H88 H 0.55646 0.05786 0.48227
 C89 C 0.57996 0.08112 0.53842
 H90 H 0.59930 0.10113 0.52261
 C91 C 0.52913 0.02915 0.57596
 H92 H 0.50882 0.00928 0.59052
 C93 C 0.55277 0.05317 0.60018
 H94 H 0.55057 0.05111 0.63322
 N95 N 0.53141 0.03097 0.53437
 C96 C 0.51412 -0.05794 0.44407
 H97 H 0.48099 -0.05935 0.44330
 C98 C 0.53731 -0.08234 0.41990
 H99 H 0.52165 -0.10238 0.40049
 C100 C 0.57447 -0.03027 0.47088
 H101 H 0.58888 -0.01036 0.49125
 C102 C 0.59886 -0.05415 0.44727
 H103 H 0.63189 -0.05195 0.44954
 Zn104 Zn 0.49910 -0.00068 0.50074
 N105 N 0.53289 -0.03226 0.46851
 C106 C 0.46927 0.02884 0.42531
 N107 N 0.46681 0.03079 0.46688
 C108 C 0.44238 0.05649 0.48565
 C109 C 0.41838 0.08101 0.46244
 C110 C 0.44581 0.05285 0.40090
 C111 C 0.48417 -0.05768 0.55773
 C112 C 0.46104 -0.08205 0.58199
 C113 C 0.39942 -0.05411 0.55448
 C114 C 0.42375 -0.03024 0.53078
 N115 N 0.46534 -0.03213 0.53316
 H116 H 0.48963 0.00892 0.41091
 H117 H 0.44157 0.05786 0.51878
 H118 H 0.39902 0.10110 0.47810
 H119 H 0.44818 0.05072 0.36787
 H120 H 0.51730 -0.05902 0.55850
 H121 H 0.47675 -0.10200 0.60147
 H122 H 0.36638 -0.05200 0.55219
 H123 H 0.40930 -0.01043 0.51033
 C124 C 0.58033 -0.08057 0.42120
 C125 C 0.57875 0.07954 0.58145
 C126 C 0.41802 -0.08040 0.58065
 C127 C 0.41982 0.07934 0.41943
 C128 C 0.55593 0.55794 0.01411
 H129 H 0.55669 0.55934 -0.01902
 C130 C 0.58009 0.58233 0.03730
 H131 H 0.59951 0.60238 0.02164
 C132 C 0.52911 0.53026 0.07446
 H133 H 0.50874 0.51035 0.08887
 C134 C 0.55273 0.55414 0.09885
 H135 H 0.55046 0.55194 0.13188
 N136 N 0.53148 0.53225 0.03288
 C137 C 0.51435 0.44350 -0.05762
 H138 H 0.48122 0.44213 -0.05844
 C139 C 0.53755 0.41898 -0.08163
 H140 H 0.52190 0.39889 -0.10099
 C141 C 0.57469 0.47115 -0.03074
 H142 H 0.58909 0.49107 -0.01038
 C143 C 0.59909 0.44714 -0.05420
 H144 H 0.63212 0.44927 -0.05183
 Zn145 Zn 0.49926 0.50067 -0.00091
 N146 N 0.53311 0.46921 -0.03319
 C147 C 0.46922 0.53023 -0.07625
 N148 N 0.46684 0.53212 -0.03467
 C149 C 0.44227 0.55767 -0.01583
 C150 C 0.41801 0.58204 -0.03896
 C151 C 0.44552 0.55410 -0.10059
 C152 C 0.48458 0.44340 0.05578
 C153 C 0.46158 0.41887 0.07995
 C154 C 0.39982 0.44683 0.05276
 C155 C 0.42403 0.47085 0.02913
 N156 N 0.46562 0.46903 0.03140
 H157 H 0.48967 0.51042 -0.09071
 H158 H 0.44150 0.55901 0.01730
 H159 H 0.39853 0.60199 -0.02325
 H160 H 0.44781 0.55199 -0.13362
 H161 H 0.51772 0.44213 0.05646
 H162 H 0.47738 0.39886 0.09929
 H163 H 0.36677 0.44888 0.05057
 H164 H 0.40948 0.49071 0.00882
 C165 C 0.58057 0.42065 -0.08018
 C166 C 0.57880 0.58056 0.08032
 C167 C 0.41855 0.42045 0.07874
 C168 C 0.41935 0.58039 -0.08199
 C169 C 0.17834 -0.17822 -0.17819
 N170 N 0.21986 -0.17727 -0.17606
 N171 N 0.24248 -0.20033 -0.19887
 C172 C 0.22459 -0.22555 -0.22473
 N173 N 0.18285 -0.22603 -0.22693
 N174 N 0.16025 -0.20296 -0.20409
 C175 C 0.15339 -0.15285 -0.15294
 N176 N 0.11185 -0.15403 -0.15485
 N177 N 0.08922 -0.13105 -0.13191
 C178 C 0.10720 -0.10598 -0.10617
 N179 N 0.14881 -0.10488 -0.10436
 N180 N 0.17147 -0.12786 -0.12728
 C181 C 0.17744 0.32244 0.32361
 N182 N 0.21898 0.32382 0.32521
 N183 N 0.24157 0.30091 0.30217
 C184 C 0.22355 0.27560 0.27668
 N185 N 0.18190 0.27448 0.27501
 N186 N 0.15930 0.29738 0.29806
 C187 C 0.15255 0.34776 0.34896
 N188 N 0.11100 0.34639 0.34745
 N189 N 0.08846 0.36942 0.37040
 C190 C 0.10655 0.39474 0.39578
 N191 N 0.14817 0.39603 0.39721
 N192 N 0.17073 0.37300 0.37427
 C193 C 0.67704 -0.17790 0.32348
 N194 N 0.71858 -0.17639 0.32516
 N195 N 0.74131 -0.19921 0.30215
 C196 C 0.72344 -0.22456 0.27660
 N197 N 0.68179 -0.22579 0.27484
 N198 N 0.65906 -0.20298 0.29786
 C199 C 0.65199 -0.15273 0.34884
 N200 N 0.61045 -0.15430 0.34725
 N201 N 0.58773 -0.13143 0.37022
 C202 C 0.60562 -0.10609 0.39571
 N203 N 0.64723 -0.10461 0.39722
 N204 N 0.66997 -0.12747 0.37426
 C205 C 0.67722 0.32229 -0.17674
 N206 N 0.71875 0.32361 -0.17491
 N207 N 0.74144 0.30064 -0.19780
 C208 C 0.72351 0.27532 -0.22335
 N209 N 0.68186 0.27425 -0.22522
 N210 N 0.65918 0.29721 -0.20233
 C211 C 0.65219 0.34771 -0.15163
 N212 N 0.61065 0.34634 -0.15344
 N213 N 0.58795 0.36946 -0.13076
 C214 C 0.60586 0.39488 -0.10538
 N215 N 0.64747 0.39616 -0.10365
 N216 N 0.67020 0.37304 -0.12632
 C217 C -0.17639 0.17754 -0.17744
 N218 N -0.17479 0.17617 -0.21898
 N219 N -0.19783 0.19907 -0.24157
 C220 C -0.22332 0.22438 -0.22356
 N221 N -0.22499 0.22550 -0.18190
 N222 N -0.20194 0.20260 -0.15931
 C223 C -0.15103 0.15222 -0.15256
 N224 N -0.15255 0.15360 -0.11100
 N225 N -0.12959 0.13057 -0.08846
 C226 C -0.10422 0.10524 -0.10655
 N227 N -0.10278 0.10396 -0.14817
 N228 N -0.12572 0.12699 -0.17073
 C229 C -0.17652 0.67788 0.32295
 N230 N -0.20213 0.70297 0.34094
 N231 N -0.22516 0.72578 0.31821
 C232 C -0.22340 0.72454 0.27656
 N233 N -0.19785 0.69919 0.25869
 N234 N -0.17483 0.67637 0.28142
 C235 C -0.15115 0.65271 0.34801
 N236 N -0.12573 0.62745 0.33003
 N237 N -0.10277 0.60459 0.35277
 C238 C -0.10429 0.60608 0.39438
 N239 N -0.12977 0.63142 0.41227
 N240 N -0.15275 0.65429 0.38955
 C241 C 0.32327 0.17769 0.32278
 N242 N 0.29768 0.20277 0.34081
 N243 N 0.27478 0.22573 0.31814
 C244 C 0.27666 0.22466 0.27649
 N245 N 0.30221 0.19934 0.25856
 N246 N 0.32509 0.17638 0.28124
 C247 C 0.34837 0.15228 0.34780
 N248 N 0.37369 0.12695 0.32980
 N249 N 0.39636 0.10382 0.35252
 C250 C 0.39463 0.10511 0.39413
 N251 N 0.36925 0.13053 0.41205
 N252 N 0.34656 0.15365 0.38934
 C253 C 0.32182 0.67820 -0.17834
 N254 N 0.29591 0.70295 -0.16026
 N255 N 0.27307 0.72601 -0.18285
 C256 C 0.27528 0.72553 -0.22459
 N257 N 0.30113 0.70032 -0.24248
 N258 N 0.32395 0.67725 -0.21986
 C259 C 0.34706 0.65284 -0.15340
 N260 N 0.37273 0.62784 -0.17147
 N261 N 0.39564 0.60486 -0.14882
 C262 C 0.39384 0.60597 -0.10720
 N263 N 0.36810 0.63104 -0.08922
 N264 N 0.34516 0.65402 -0.11185
 C265 C -0.17704 -0.17790 0.17652
 N266 N -0.21857 -0.17639 0.17483
 N267 N -0.24130 -0.19921 0.19785
 C268 C -0.22343 -0.22456 0.22339
 N269 N -0.18178 -0.22579 0.22516
 N270 N -0.15906 -0.20298 0.20213
 C271 C -0.15198 -0.15273 0.15115
 N272 N -0.11044 -0.15430 0.15275
 N273 N -0.08772 -0.13143 0.12977
 C274 C -0.10562 -0.10609 0.10429
 N275 N -0.14723 -0.10461 0.10277
 N276 N -0.16996 -0.12747 0.12573
 C277 C -0.17721 0.32229 0.67673
 N278 N -0.15918 0.29721 0.70232
 N279 N -0.18186 0.27425 0.72521
 C280 C -0.22351 0.27532 0.72334
 N281 N -0.24143 0.30064 0.69779
 N282 N -0.21875 0.32361 0.67491
 C283 C -0.15219 0.34771 0.65163
 N284 N -0.17019 0.37304 0.62631
 N285 N -0.14747 0.39616 0.60364
 C286 C -0.10586 0.39488 0.60537
 N287 N -0.08795 0.36946 0.63075
 N288 N -0.11065 0.34634 0.65344
 C289 C 0.32166 -0.17822 0.67818
 N290 N 0.33975 -0.20296 0.70408
 N291 N 0.31715 -0.22603 0.72692
 C292 C 0.27542 -0.22555 0.72472
 N293 N 0.25752 -0.20033 0.69886
 N294 N 0.28015 -0.17727 0.67605
 C295 C 0.34661 -0.15285 0.65293
 N296 N 0.32854 -0.12786 0.62727
 N297 N 0.35119 -0.10488 0.60435
 C298 C 0.39280 -0.10598 0.60616
 N299 N 0.41079 -0.13105 0.63190
 N300 N 0.38815 -0.15403 0.65484
 C301 C 0.32257 0.32244 0.17638
 N302 N 0.34070 0.29739 0.20193
 N303 N 0.31811 0.27448 0.22498
 C304 C 0.27645 0.27560 0.22331
 N305 N 0.25843 0.30091 0.19782
 N306 N 0.28103 0.32382 0.17478
 C307 C 0.34745 0.34776 0.15103
 N308 N 0.32928 0.37300 0.12572
 N309 N 0.35183 0.39603 0.10278
 C310 C 0.39345 0.39474 0.10421
 N311 N 0.41154 0.36942 0.12959
 N312 N 0.38900 0.34639 0.15254
 C313 C 0.17674 0.17769 0.17721
 N314 N 0.20233 0.20277 0.15918
 N315 N 0.22522 0.22573 0.18185
 C316 C 0.22335 0.22466 0.22350
 N317 N 0.19780 0.19934 0.24143
 N318 N 0.17491 0.17638 0.21875
 C319 C 0.15163 0.15228 0.15219
 N320 N 0.12632 0.12695 0.17019
 N321 N 0.10365 0.10382 0.14747
 C322 C 0.10537 0.10511 0.10586
 N323 N 0.13076 0.13053 0.08795
 N324 N 0.15344 0.15365 0.11065
 C325 C 0.17819 0.67820 0.67834
 N326 N 0.17605 0.67725 0.71985
 N327 N 0.19887 0.70032 0.74247
 C328 C 0.22472 0.72553 0.72458
 N329 N 0.22693 0.72601 0.68284
 N330 N 0.20409 0.70294 0.66025
 C331 C 0.15294 0.65284 0.65339
 N332 N 0.15484 0.65401 0.61184
 N333 N 0.13191 0.63104 0.58921
 C334 C 0.10617 0.60597 0.60719
 N335 N 0.10436 0.60486 0.64881
 N336 N 0.12728 0.62784 0.67146
 C337 C 0.67639 0.17754 0.67743
 N338 N 0.67479 0.17617 0.71897
 N339 N 0.69783 0.19907 0.74157
 C340 C 0.72332 0.22438 0.72355
 N341 N 0.72499 0.22550 0.68189
 N342 N 0.70194 0.20260 0.65930
 C343 C 0.65103 0.15222 0.65255
 N344 N 0.65255 0.15360 0.61100
 N345 N 0.62959 0.13057 0.58845
 C346 C 0.60422 0.10524 0.60654
 N347 N 0.60278 0.10396 0.64816
 N348 N 0.62572 0.12699 0.67072
 C349 C 0.67652 0.67788 0.17704
 N350 N 0.67484 0.67637 0.21857
 N351 N 0.69785 0.69919 0.24130
 C352 C 0.72340 0.72454 0.22343
 N353 N 0.72516 0.72578 0.18178
 N354 N 0.70214 0.70297 0.15906
 C355 C 0.65116 0.65272 0.15198
 N356 N 0.65275 0.65429 0.11044
 N357 N 0.62977 0.63142 0.08772
 C358 C 0.60429 0.60608 0.10561
 N359 N 0.60278 0.60459 0.14723
 N360 N 0.62574 0.62746 0.16996
   
