data_POSCAR
  _audit_creation_date              2014-09-24
  _audit_creation_method            'ToBaCCo'
  _symmetry_space_group_name_H-M    'P1'
  _symmetry_Int_Tables_number       1
  _symmetry_cell_setting            triclinic
  loop_
  _symmetry_equiv_pos_as_xyz
 x,y,z
_cell_length_a 29.5086
_cell_length_b 30.3513
_cell_length_c 30.0213
_cell_angle_alpha 89.874000
_cell_angle_beta 89.373600
_cell_angle_gamma 91.358000
loop_
  _atom_site_label
  _atom_site_type_symbol
  _atom_site_fract_x
  _atom_site_fract_y
  _atom_site_fract_z
Si1 Si 0.25796 0.24894 0.24088
 Si2 Si 0.76026 0.73204 0.26491
 Si3 Si 0.73579 0.24530 0.74809
 Si4 Si 0.24198 0.76301 0.76039
 C5 C 0.04840 0.07364 0.02155
 H6 H 0.05005 0.07563 -0.01442
 C7 C 0.07401 0.10311 0.04724
 H8 H 0.09564 0.12766 0.03089
 C9 C 0.01707 0.03998 0.08662
 H10 H -0.00541 0.01547 0.10176
 C11 C 0.04157 0.06925 0.11358
 H12 H 0.03826 0.06669 0.14946
 N13 N 0.02081 0.04277 0.04150
 C14 C -0.00235 -0.05822 -0.06017
 H15 H -0.03899 -0.06046 -0.05922
 C16 C 0.02179 -0.08417 -0.09004
 H17 H 0.00352 -0.10657 -0.11182
 C18 C 0.06589 -0.02671 -0.03239
 H19 H 0.08298 -0.00441 -0.00980
 C20 C 0.09141 -0.05240 -0.06149
 H21 H 0.12803 -0.04917 -0.06137
 Zn22 Zn -0.01604 0.00660 0.00482
 N23 N 0.01980 -0.02948 -0.03277
 C24 C -0.05160 0.04112 -0.07560
 N25 N -0.05065 0.04513 -0.03048
 C26 C -0.07197 0.07871 -0.00960
 C27 C -0.09693 0.10875 -0.03397
 C28 C -0.07611 0.07039 -0.10124
 C29 C -0.04321 -0.07338 0.04613
 C30 C -0.07022 -0.10187 0.07230
 C31 C -0.12004 -0.04167 0.08760
 C32 C -0.09207 -0.01433 0.06113
 N33 N -0.05457 -0.03051 0.04074
 H34 H -0.03298 0.01565 -0.09211
 H35 H -0.06900 0.08266 0.02603
 H36 H -0.11433 0.13472 -0.01659
 H37 H -0.07616 0.06672 -0.13711
 H38 H -0.01292 -0.08557 0.03032
 H39 H -0.06084 -0.13598 0.07556
 H40 H -0.14943 -0.02797 0.10387
 H41 H -0.10040 0.01982 0.05712
 C42 C 0.06930 -0.08118 -0.09119
 C43 C 0.07043 0.10131 0.09386
 C44 C -0.10931 -0.08614 0.09342
 C45 C -0.09949 0.10457 -0.08043
 C46 C 0.08337 0.55723 0.52103
 H47 H 0.08486 0.55638 0.48510
 C48 C 0.11098 0.58740 0.54406
 H49 H 0.13340 0.60946 0.52532
 C50 C 0.05063 0.53144 0.58875
 H51 H 0.02644 0.51053 0.60636
 C52 C 0.07786 0.56065 0.61306
 H53 H 0.07503 0.56040 0.64904
 N54 N 0.05426 0.52954 0.54356
 C55 C 0.05177 0.40503 0.48686
 H56 H 0.03140 0.39228 0.51414
 C57 C 0.07622 0.37559 0.46085
 H58 H 0.07527 0.34111 0.47008
 C59 C 0.07785 0.46494 0.44232
 H60 H 0.07753 0.49966 0.43445
 C61 C 0.10165 0.43646 0.41454
 H62 H 0.11906 0.45016 0.38562
 Zn63 Zn 0.01679 0.48863 0.51147
 N64 N 0.05299 0.44895 0.47747
 C65 C -0.02633 0.50687 0.42960
 N66 N -0.02072 0.52049 0.47236
 C67 C -0.04301 0.55589 0.48847
 C68 C -0.07257 0.57892 0.46128
 C69 C -0.05497 0.52928 0.40113
 C70 C -0.00170 0.43100 0.58439
 C71 C -0.02876 0.40628 0.61409
 C72 C -0.09506 0.43379 0.57784
 C73 C -0.06674 0.45768 0.54860
 N74 N -0.02091 0.45593 0.55226
 H75 H -0.00915 0.47815 0.41757
 H76 H -0.03842 0.56574 0.52276
 H77 H -0.09085 0.60620 0.47527
 H78 H -0.05811 0.51815 0.36706
 H79 H 0.03483 0.43005 0.58670
 H80 H -0.01265 0.38589 0.63865
 H81 H -0.13142 0.43623 0.57461
 H82 H -0.08155 0.47747 0.52288
 C83 C 0.10114 0.39088 0.42350
 C84 C 0.10869 0.58924 0.59085
 C85 C -0.07618 0.40736 0.61099
 C86 C -0.07899 0.56567 0.41686
 C87 C 0.55694 0.06314 0.50391
 H88 H 0.55429 0.06759 0.46827
 C89 C 0.58570 0.09067 0.52839
 H90 H 0.60522 0.11659 0.51164
 C91 C 0.53529 0.02335 0.56918
 H92 H 0.51620 -0.00343 0.58473
 C93 C 0.56290 0.05080 0.59510
 H94 H 0.56491 0.04516 0.63066
 N95 N 0.53317 0.02977 0.52440
 C96 C 0.51999 -0.07152 0.42224
 H97 H 0.48372 -0.07712 0.42036
 C98 C 0.54913 -0.09646 0.39586
 H99 H 0.53519 -0.12099 0.37338
 C100 C 0.58264 -0.03375 0.45450
 H101 H 0.59602 -0.01029 0.47814
 C102 C 0.61280 -0.05720 0.42817
 H103 H 0.64893 -0.05122 0.43162
 Zn104 Zn 0.49758 -0.00770 0.48813
 N105 N 0.53707 -0.04076 0.45088
 C106 C 0.45550 0.02442 0.40929
 N107 N 0.46033 0.02933 0.45404
 C108 C 0.44140 0.06362 0.47597
 C109 C 0.41643 0.09459 0.45299
 C110 C 0.43046 0.05454 0.38499
 C111 C 0.46852 -0.09024 0.52451
 C112 C 0.44350 -0.11843 0.55276
 C113 C 0.40432 -0.05548 0.58156
 C114 C 0.42977 -0.02855 0.55244
 N115 N 0.46136 -0.04612 0.52479
 H116 H 0.47164 -0.00229 0.39214
 H117 H 0.44687 0.06778 0.51125
 H118 H 0.40175 0.12167 0.47110
 H119 H 0.42754 0.05057 0.34929
 H120 H 0.49423 -0.10371 0.50301
 H121 H 0.44960 -0.15344 0.55162
 H122 H 0.38046 -0.04047 0.60421
 H123 H 0.42505 0.00659 0.55284
 C124 C 0.59613 -0.08906 0.39857
 C125 C 0.58892 0.08442 0.57445
 C126 C 0.41115 -0.10112 0.58219
 C127 C 0.41089 0.09040 0.40686
 C128 C 0.54782 0.59394 0.01547
 H129 H 0.53123 0.60897 -0.01242
 C130 C 0.57793 0.61910 0.04118
 H131 H 0.58307 0.65374 0.03355
 C132 C 0.56205 0.53043 0.05870
 H133 H 0.55615 0.49562 0.06479
 C134 C 0.59256 0.55424 0.08505
 H135 H 0.61014 0.53733 0.11127
 N136 N 0.54030 0.55050 0.02483
 C137 C 0.52289 0.44216 -0.06709
 H138 H 0.48734 0.43346 -0.06292
 C139 C 0.55053 0.41615 -0.09371
 H140 H 0.53611 0.38739 -0.11007
 C141 C 0.58484 0.49075 -0.05169
 H142 H 0.59800 0.52002 -0.03545
 C143 C 0.61350 0.46607 -0.07858
 H144 H 0.64875 0.47622 -0.08253
 Zn145 Zn 0.50261 0.51390 -0.01064
 N146 N 0.54044 0.47849 -0.04643
 C147 C 0.45860 0.53494 -0.09111
 N148 N 0.46476 0.54760 -0.04806
 C149 C 0.44293 0.58293 -0.03104
 C150 C 0.41358 0.60687 -0.05751
 C151 C 0.42890 0.55742 -0.11844
 C152 C 0.47601 0.43474 0.03421
 C153 C 0.44743 0.40735 0.05998
 C154 C 0.39958 0.46939 0.07375
 C155 C 0.42896 0.49553 0.04759
 N156 N 0.46580 0.47774 0.02757
 H157 H 0.47616 0.50701 -0.10432
 H158 H 0.44831 0.59262 0.00316
 H159 H 0.39627 0.63474 -0.04342
 H160 H 0.42408 0.54669 -0.15249
 H161 H 0.50623 0.42144 0.01936
 H162 H 0.45545 0.37291 0.06358
 H163 H 0.37038 0.48425 0.08922
 H164 H 0.42193 0.52993 0.04290
 C165 C 0.59636 0.42820 -0.09977
 C166 C 0.60090 0.59924 0.07647
 C167 C 0.40822 0.42446 0.07964
 C168 C 0.40598 0.59380 -0.10162
 C169 C 0.22204 -0.20286 -0.15570
 C170 C 0.20990 -0.20535 -0.20089
 C171 C 0.17092 -0.18344 -0.21472
 C172 C 0.14566 -0.15832 -0.18449
 C173 C 0.15935 -0.15504 -0.13966
 C174 C 0.19738 -0.17765 -0.12561
 C175 C 0.13446 -0.12972 -0.10944
 C176 C 0.09557 -0.10789 -0.12326
 C177 C 0.08187 -0.11175 -0.16783
 C178 C 0.10675 -0.13663 -0.19821
 H179 H 0.15924 -0.18684 -0.24862
 H180 H 0.20794 -0.17612 -0.09117
 H181 H 0.14491 -0.12756 -0.07499
 H182 H 0.09562 -0.13882 -0.23243
 H183 H 0.25034 -0.22040 -0.14270
 H184 H 0.05220 -0.09496 -0.17934
 C185 C 0.24438 0.33044 0.28474
 C186 C 0.22856 0.28670 0.28018
 C187 C 0.19218 0.27143 0.30695
 C188 C 0.16998 0.30039 0.33595
 C189 C 0.18605 0.34440 0.34006
 C190 C 0.22355 0.35894 0.31460
 C191 C 0.16435 0.37325 0.36939
 C192 C 0.12536 0.35950 0.39365
 C193 C 0.10929 0.31567 0.38852
 C194 C 0.13172 0.28632 0.36055
 H195 H 0.18098 0.23724 0.30506
 H196 H 0.23655 0.39250 0.31747
 H197 H 0.17815 0.40637 0.37326
 H198 H 0.11855 0.25284 0.35748
 H199 H 0.27335 0.34277 0.26580
 H200 H 0.07879 0.30394 0.40548
 C201 C 0.68797 -0.25602 0.32672
 C202 C 0.72068 -0.23470 0.29951
 C203 C 0.72303 -0.18845 0.29869
 C204 C 0.69158 -0.16383 0.32292
 C205 C 0.65746 -0.18573 0.34859
 C206 C 0.65629 -0.23184 0.35066
 C207 C 0.62559 -0.16116 0.37233
 C208 C 0.62805 -0.11492 0.37153
 C209 C 0.66239 -0.09341 0.34638
 C210 C 0.69371 -0.11764 0.32200
 H211 H 0.74929 -0.17137 0.27960
 H212 H 0.63099 -0.24920 0.37089
 H213 H 0.59959 -0.17788 0.39231
 H214 H 0.71971 -0.10028 0.30262
 H215 H 0.68666 -0.29142 0.32972
 H216 H 0.66478 -0.05775 0.34548
 C217 C 0.68010 0.25930 -0.17650
 C218 C 0.70490 0.27967 -0.21123
 C219 C 0.70527 0.32566 -0.21554
 C220 C 0.67979 0.35119 -0.18608
 C221 C 0.65352 0.33034 -0.15205
 C222 C 0.65433 0.28442 -0.14722
 C223 C 0.62655 0.35571 -0.12377
 C224 C 0.62594 0.40171 -0.12869
 C225 C 0.65304 0.42225 -0.16179
 C226 C 0.67960 0.39718 -0.19043
 H227 H 0.72457 0.34160 -0.24217
 H228 H 0.63470 0.26793 -0.12113
 H229 H 0.60610 0.33979 -0.09789
 H230 H 0.69965 0.41369 -0.21621
 H231 H 0.67991 0.22381 -0.17266
 H232 H 0.65282 0.45768 -0.16612
 C233 C -0.22964 0.16158 -0.22894
 C234 C -0.22884 0.20687 -0.21962
 C235 C -0.20283 0.22293 -0.18406
 C236 C -0.17721 0.19412 -0.15845
 C237 C -0.17785 0.14864 -0.16847
 C238 C -0.20418 0.13272 -0.20374
 C239 C -0.15253 0.11972 -0.14284
 C240 C -0.12635 0.13551 -0.10718
 C241 C -0.12600 0.18081 -0.09739
 C242 C -0.15121 0.20987 -0.12280
 H243 H -0.20323 0.25763 -0.17572
 H244 H -0.20531 0.09789 -0.21167
 H245 H -0.15372 0.08477 -0.15027
 H246 H -0.15028 0.24464 -0.11466
 H247 H -0.25005 0.14805 -0.25542
 H248 H -0.10571 0.19389 -0.07042
 C249 C -0.17986 0.72455 0.33701
 C250 C -0.20347 0.70119 0.30399
 C251 C -0.19830 0.65553 0.30023
 C252 C -0.16974 0.63329 0.32941
 C253 C -0.14551 0.65714 0.36221
 C254 C -0.15092 0.70278 0.36579
 C255 C -0.11602 0.63506 0.39060
 C256 C -0.11075 0.58917 0.38718
 C257 C -0.13590 0.56579 0.35494
 C258 C -0.16481 0.58763 0.32620
 H259 H -0.21580 0.63734 0.27439
 H260 H -0.13271 0.72165 0.39074
 H261 H -0.09661 0.65382 0.41475
 H262 H -0.18344 0.56874 0.30155
 H263 H -0.18338 0.75985 0.34014
 H264 H -0.13360 0.53037 0.35207
 C265 C 0.27839 0.16149 0.26676
 C266 C 0.28644 0.20652 0.27468
 C267 C 0.31637 0.21963 0.30836
 C268 C 0.33922 0.18797 0.33313
 C269 C 0.33171 0.14265 0.32425
 C270 C 0.30096 0.12978 0.29124
 C271 C 0.35510 0.11096 0.34843
 C272 C 0.38583 0.12389 0.38161
 C273 C 0.39275 0.16903 0.39045
 C274 C 0.36971 0.20079 0.36640
 H275 H 0.32226 0.25442 0.31482
 H276 H 0.29451 0.09520 0.28422
 H277 H 0.34910 0.07624 0.34173
 H278 H 0.37594 0.23535 0.37362
 H279 H 0.25489 0.15049 0.24153
 H280 H 0.41662 0.17981 0.41555
 C281 C 0.31867 0.75525 -0.18903
 C282 C 0.28272 0.73261 -0.21008
 C283 C 0.27953 0.68644 -0.20673
 C284 C 0.31129 0.66333 -0.18182
 C285 C 0.34638 0.68669 -0.15963
 C286 C 0.34998 0.73258 -0.16379
 C287 C 0.37716 0.66381 -0.13347
 C288 C 0.37390 0.61773 -0.12981
 C289 C 0.33966 0.59463 -0.15282
 C290 C 0.30840 0.61726 -0.17838
 H291 H 0.25226 0.66831 -0.22283
 H292 H 0.37686 0.75099 -0.14733
 H293 H 0.40388 0.68172 -0.11621
 H294 H 0.28189 0.59875 -0.19527
 H295 H 0.32205 0.79082 -0.19141
 H296 H 0.33659 0.55908 -0.15026
 C297 C -0.15528 -0.23398 0.23084
 C298 C -0.20262 -0.23103 0.22947
 C299 C -0.22204 -0.20018 0.20094
 C300 C -0.19450 -0.17214 0.17442
 C301 C -0.14684 -0.17514 0.17625
 C302 C -0.12759 -0.20622 0.20453
 C303 C -0.11924 -0.14704 0.14981
 C304 C -0.13859 -0.11585 0.12143
 C305 C -0.18608 -0.11323 0.11992
 C306 C -0.21377 -0.14111 0.14614
 H307 H -0.25862 -0.19796 0.19955
 H308 H -0.09112 -0.20911 0.20625
 H309 H -0.08269 -0.14905 0.15181
 H310 H -0.25025 -0.13844 0.14422
 H311 H -0.13944 -0.25786 0.25203
 H312 H -0.20190 -0.08996 0.09795
 C313 C -0.24066 0.28821 0.66653
 C314 C -0.22808 0.28104 0.71085
 C315 C -0.18859 0.30168 0.72711
 C316 C -0.16112 0.32820 0.69896
 C317 C -0.17344 0.33419 0.65404
 C318 C -0.21340 0.31426 0.63823
 C319 C -0.14566 0.36001 0.62564
 C320 C -0.10574 0.38047 0.64149
 C321 C -0.09410 0.37470 0.68643
 C322 C -0.12147 0.34874 0.71487
 H323 H -0.17911 0.29718 0.76147
 H324 H -0.22368 0.31896 0.60404
 H325 H -0.15482 0.36351 0.59097
 H326 H -0.11164 0.34475 0.74928
 H327 H -0.27176 0.27404 0.65357
 H328 H -0.06398 0.39060 0.69978
 C329 C 0.24909 -0.16740 0.70013
 C330 C 0.27102 -0.20241 0.72091
 C331 C 0.31596 -0.21126 0.70816
 C332 C 0.33917 -0.18454 0.67688
 C333 C 0.31702 -0.14895 0.65693
 C334 C 0.27187 -0.14086 0.66858
 C335 C 0.34033 -0.12220 0.62562
 C336 C 0.38585 -0.13022 0.61430
 C337 C 0.40744 -0.16582 0.63454
 C338 C 0.38428 -0.19283 0.66530
 H339 H 0.33313 -0.23923 0.72189
 H340 H 0.25415 -0.11395 0.65333
 H341 H 0.32290 -0.09537 0.60989
 H342 H 0.40185 -0.21990 0.68044
 H343 H 0.21431 -0.16019 0.70776
 H344 H 0.44264 -0.17239 0.62725
 C345 C 0.34651 0.27541 0.21033
 C346 C 0.29978 0.28197 0.20723
 C347 C 0.28382 0.31439 0.17845
 C348 C 0.31433 0.34112 0.15382
 C349 C 0.36147 0.33502 0.15768
 C350 C 0.37719 0.30186 0.18581
 C351 C 0.39201 0.36228 0.13352
 C352 C 0.37607 0.39558 0.10541
 C353 C 0.32904 0.40098 0.10166
 C354 C 0.29848 0.37407 0.12566
 H355 H 0.24766 0.31923 0.17581
 H356 H 0.41319 0.29650 0.18898
 H357 H 0.42814 0.35800 0.13714
 H358 H 0.26245 0.37902 0.12217
 H359 H 0.35949 0.25009 0.23175
 H360 H 0.31577 0.42575 0.07966
 C361 C 0.24146 0.19916 0.16360
 C362 C 0.22075 0.22053 0.19958
 C363 C 0.17357 0.21692 0.20533
 C364 C 0.14761 0.18995 0.17687
 C365 C 0.16894 0.16793 0.14115
 C366 C 0.21576 0.17341 0.13435
 C367 C 0.14334 0.13989 0.11354
 C368 C 0.09682 0.13261 0.12179
 C369 C 0.07584 0.15471 0.15725
 C370 C 0.10092 0.18347 0.18431
 H371 H 0.15710 0.23371 0.23249
 H372 H 0.23270 0.15679 0.10718
 H373 H 0.15984 0.12262 0.08652
 H374 H 0.08397 0.19999 0.21153
 H375 H 0.27786 0.20150 0.15872
 H376 H 0.03992 0.14984 0.16388
 C377 C 0.16208 0.71579 0.74504
 C378 C 0.20626 0.72648 0.73005
 C379 C 0.22256 0.70707 0.69070
 C380 C 0.19467 0.67836 0.66592
 C381 C 0.14991 0.66877 0.68069
 C382 C 0.13403 0.68751 0.72037
 C383 C 0.12188 0.64033 0.65577
 C384 C 0.13809 0.62057 0.61644
 C385 C 0.18284 0.63032 0.60225
 C386 C 0.21077 0.65902 0.62664
 H387 H 0.25692 0.71424 0.67923
 H388 H 0.09998 0.68007 0.73251
 H389 H 0.08731 0.63390 0.66693
 H390 H 0.24510 0.66582 0.61492
 H391 H 0.14901 0.72886 0.77597
 H392 H 0.19665 0.61515 0.57263
 C393 C 0.64811 0.21243 0.72372
 C394 C 0.69467 0.21304 0.71375
 C395 C 0.71073 0.18873 0.67744
 C396 C 0.68069 0.16359 0.65151
 C397 C 0.63398 0.16202 0.66261
 C398 C 0.61800 0.18675 0.69862
 C399 C 0.60409 0.13584 0.63744
 C400 C 0.62021 0.11216 0.60072
 C401 C 0.66642 0.11471 0.58924
 C402 C 0.69657 0.13995 0.61470
 H403 H 0.74666 0.18945 0.66942
 H404 H 0.58225 0.18630 0.70730
 H405 H 0.56829 0.13418 0.64600
 H406 H 0.73222 0.14099 0.60562
 H407 H 0.63473 0.23141 0.75103
 H408 H 0.67925 0.09649 0.56099
 C409 C 0.69844 0.66069 0.24818
 C410 C 0.72562 0.69428 0.22880
 C411 C 0.72472 0.70032 0.18241
 C412 C 0.69516 0.67484 0.15607
 C413 C 0.66675 0.64224 0.17621
 C414 C 0.66917 0.63496 0.22221
 C415 C 0.63622 0.61765 0.15013
 C416 C 0.63362 0.62509 0.10394
 C417 C 0.66251 0.65728 0.08420
 C418 C 0.69298 0.68191 0.10999
 H419 H 0.74624 0.72516 0.16661
 H420 H 0.64819 0.60960 0.23816
 H421 H 0.61385 0.59335 0.16598
 H422 H 0.71467 0.70663 0.09393
 H423 H 0.69991 0.65393 0.28345
 H424 H 0.66189 0.66316 0.04863
   
