data_POSCAR
  _audit_creation_date              2014-09-24
  _audit_creation_method            'ToBaCCo'
  _symmetry_space_group_name_H-M    'P1'
  _symmetry_Int_Tables_number       1
  _symmetry_cell_setting            triclinic
  loop_
  _symmetry_equiv_pos_as_xyz
 x,y,z
_cell_length_a 36.0261
_cell_length_b 36.1131
_cell_length_c 28.0709
_cell_angle_alpha 89.208500
_cell_angle_beta 90.758900
_cell_angle_gamma 92.339300
loop_
  _atom_site_label
  _atom_site_type_symbol
  _atom_site_fract_x
  _atom_site_fract_y
  _atom_site_fract_z
C1 C -0.10803 0.28803 0.00755
 C2 C -0.08864 0.27958 0.04984
 C3 C -0.05150 0.26978 0.04684
 C4 C -0.03226 0.27182 0.00336
 C5 C -0.05286 0.27960 -0.03875
 C6 C -0.09124 0.28600 -0.03706
 C7 C 0.00903 0.26629 0.00261
 C8 C 0.02692 0.25686 -0.03973
 C9 C 0.06558 0.25400 -0.04095
 C10 C 0.08664 0.25756 0.00127
 C11 C 0.06955 0.26523 0.04437
 C12 C 0.03121 0.27067 0.04442
 H13 H -0.13742 0.29296 0.00845
 H14 H -0.03767 0.26091 0.07917
 H15 H -0.03911 0.28183 -0.07259
 H16 H 0.01128 0.25184 -0.07226
 H17 H 0.11604 0.25251 0.00076
 H18 H 0.01926 0.27862 0.07764
 C19 C 0.40363 0.77980 0.49897
 C20 C 0.42388 0.78628 0.54126
 C21 C 0.46263 0.79135 0.53928
 C22 C 0.48195 0.78737 0.49618
 C23 C 0.46079 0.77949 0.45461
 C24 C 0.42191 0.77704 0.45547
 C25 C 0.52378 0.78984 0.49499
 C26 C 0.54318 0.79607 0.45191
 C27 C 0.58215 0.79615 0.45065
 C28 C 0.60228 0.79243 0.49352
 C29 C 0.58374 0.78708 0.53679
 C30 C 0.54491 0.78445 0.53696
 H31 H 0.37390 0.77442 0.50018
 H32 H 0.47726 0.79801 0.57208
 H33 H 0.47409 0.77447 0.42119
 H34 H 0.52846 0.80050 0.41869
 H35 H 0.63221 0.79104 0.49305
 H36 H 0.53164 0.77745 0.57035
 C37 C 1.09993 0.70383 -0.00200
 C38 C 1.08047 0.70094 0.04128
 C39 C 1.04202 0.70550 0.04054
 C40 C 1.02315 0.71639 -0.00116
 C41 C 1.04378 0.72141 -0.04335
 C42 C 1.08176 0.71380 -0.04482
 C43 C 0.98221 0.72271 -0.00027
 C44 C 0.96037 0.71950 -0.04213
 C45 C 0.92226 0.72560 -0.04186
 C46 C 0.90502 0.73292 0.00137
 C47 C 0.92588 0.73555 0.04380
 C48 C 0.96446 0.73194 0.04238
 H49 H 1.12961 0.70168 -0.00174
 H50 H 1.02696 0.70081 0.07329
 H51 H 1.03048 0.73145 -0.07551
 H52 H 0.97262 0.71218 -0.07549
 H53 H 0.87580 0.73876 0.00177
 H54 H 0.98028 0.73651 0.07491
 C55 C 0.59518 0.23396 0.51058
 C56 C 0.57733 0.22547 0.55370
 C57 C 0.53823 0.22284 0.55440
 C58 C 0.51693 0.22956 0.51250
 C59 C 0.53607 0.23971 0.47042
 C60 C 0.57477 0.24022 0.46879
 C61 C 0.47515 0.22613 0.51186
 C62 C 0.45543 0.21974 0.46865
 C63 C 0.41657 0.21942 0.46636
 C64 C 0.39669 0.22271 0.50860
 C65 C 0.41542 0.22742 0.55247
 C66 C 0.45443 0.23027 0.55361
 H67 H 0.62515 0.23747 0.50976
 H68 H 0.52486 0.21510 0.58753
 H69 H 0.52125 0.24722 0.43823
 H70 H 0.46996 0.21530 0.43591
 H71 H 0.36674 0.22394 0.50710
 H72 H 0.46828 0.23627 0.58721
 C73 C 0.73242 -0.08062 -0.00241
 C74 C 0.72856 -0.06281 0.04138
 C75 C 0.72767 -0.02393 0.04126
 C76 C 0.73345 -0.00231 -0.00071
 C77 C 0.73891 -0.02120 -0.04356
 C78 C 0.73699 -0.06005 -0.04490
 C79 C 0.73343 0.03950 0.00076
 C80 C 0.72776 0.06165 -0.04075
 C81 C 0.72567 0.10061 -0.03777
 C82 C 0.72640 0.11676 0.00736
 C83 C 0.73304 0.09568 0.04848
 C84 C 0.73844 0.05782 0.04463
 H85 H 0.73435 -0.11034 -0.00379
 H86 H 0.72193 -0.01094 0.07463
 H87 H 0.74470 -0.00617 -0.07634
 H88 H 0.72363 0.04883 -0.07496
 H89 H 0.72440 0.14652 0.01032
 H90 H 0.74619 0.04303 0.07669
 C91 C 0.20858 0.38864 0.50169
 C92 C 0.20170 0.40751 0.54394
 C93 C 0.20168 0.44630 0.54321
 C94 C 0.21080 0.46684 0.50174
 C95 C 0.21921 0.44720 0.46027
 C96 C 0.21679 0.40836 0.45947
 C97 C 0.21221 0.50844 0.50190
 C98 C 0.20757 0.52852 0.45907
 C99 C 0.21096 0.56718 0.45776
 C100 C 0.21652 0.58663 0.50038
 C101 C 0.21992 0.56753 0.54400
 C102 C 0.21900 0.52857 0.54426
 H103 H 0.21012 0.35880 0.50220
 H104 H 0.19494 0.46018 0.57568
 H105 H 0.22820 0.46175 0.42828
 H106 H 0.20167 0.51439 0.42596
 H107 H 0.22066 0.61646 0.49931
 H108 H 0.22420 0.51432 0.57766
 C109 C 0.27853 1.09036 0.00419
 C110 C 0.28296 1.07003 0.04672
 C111 C 0.28521 1.03141 0.04477
 C112 C 0.28023 1.01229 0.00137
 C113 C 0.27352 1.03337 -0.04026
 C114 C 0.27435 1.07226 -0.03979
 C115 C 0.28113 0.97066 -0.00047
 C116 C 0.28754 0.95218 -0.04357
 C117 C 0.28710 0.91324 -0.04580
 C118 C 0.28276 0.89258 -0.00312
 C119 C 0.27689 0.91030 0.04009
 C120 C 0.27477 0.94884 0.04079
 H121 H 0.27524 1.11988 0.00609
 H122 H 0.29057 1.01671 0.07775
 H123 H 0.26747 1.01979 -0.07368
 H124 H 0.29314 0.96776 -0.07599
 H125 H 0.28082 0.86269 -0.00340
 H126 H 0.26758 0.96134 0.07399
 C127 C 0.77306 0.61161 0.50728
 C128 C 0.76812 0.59174 0.55027
 C129 C 0.76721 0.55291 0.55017
 C130 C 0.77351 0.53342 0.50810
 C131 C 0.77961 0.55420 0.46556
 C132 C 0.77825 0.59299 0.46450
 C133 C 0.77248 0.49174 0.50804
 C134 C 0.76356 0.47262 0.46568
 C135 C 0.76443 0.43407 0.46387
 C136 C 0.77125 0.41372 0.50560
 C137 C 0.77883 0.43155 0.54892
 C138 C 0.77991 0.47056 0.54981
 H139 H 0.77060 0.64137 0.50689
 H140 H 0.76110 0.53818 0.58313
 H141 H 0.78522 0.54054 0.43255
 H142 H 0.75580 0.48735 0.43352
 H143 H 0.76880 0.38377 0.50455
 H144 H 0.78690 0.48398 0.58312
 O145 O 0.23705 0.27949 0.19432
 O146 O 0.29864 0.24341 0.28907
 O147 O 0.28923 0.23223 0.19756
 O148 O 0.24856 0.29298 0.28546
 O149 O 0.20616 0.24914 0.30268
 O150 O 0.24727 0.18797 0.21482
 O151 O 0.25602 0.19979 0.30640
 O152 O 0.19467 0.23573 0.21189
 Cu153 Cu 0.27254 0.26643 0.23986
 Cu154 Cu 0.22178 0.21377 0.26049
 C155 C 0.20554 0.26342 0.18658
 C156 C 0.28742 0.21583 0.31448
 C157 C 0.27506 0.19998 0.19080
 C158 C 0.22095 0.28117 0.30979
 O159 O 0.79580 0.75716 0.30923
 O160 O 0.75982 0.81771 0.21323
 O161 O 0.74722 0.80809 0.30440
 O162 O 0.81021 0.76830 0.21810
 O163 O 0.76728 0.72501 0.20079
 O164 O 0.70380 0.76555 0.28608
 O165 O 0.71746 0.77410 0.19493
 O166 O 0.75271 0.71420 0.29140
 Cu167 Cu 0.78261 0.79205 0.26304
 Cu168 Cu 0.73101 0.74039 0.24171
 C169 C 0.77998 0.72561 0.31716
 C170 C 0.73294 0.80575 0.18708
 C171 C 0.71496 0.79347 0.31027
 C172 C 0.79916 0.74034 0.19399
 O173 O 0.79638 0.26212 0.22454
 O174 O 0.73199 0.22443 0.31504
 O175 O 0.74582 0.20946 0.22646
 O176 O 0.78315 0.27673 0.31316
 O177 O 0.74139 0.31637 0.28936
 O178 O 0.70386 0.24888 0.20265
 O179 O 0.69030 0.26416 0.29129
 O180 O 0.75452 0.30159 0.20054
 Cu181 Cu 0.76853 0.23915 0.27223
 Cu182 Cu 0.71827 0.28676 0.24358
 C183 C 0.78615 0.28783 0.19659
 C184 C 0.70044 0.23836 0.31912
 C185 C 0.71900 0.21794 0.19916
 C186 C 0.76828 0.30778 0.31651
 O187 O 0.24709 0.68697 0.28811
 O188 O 0.28944 0.74861 0.19628
 O189 O 0.30038 0.73765 0.28754
 O190 O 0.24110 0.69394 0.19569
 O191 O 0.19779 0.73388 0.20963
 O192 O 0.25801 0.77857 0.30124
 O193 O 0.24646 0.78890 0.20997
 O194 O 0.20507 0.72827 0.30192
 Cu195 Cu 0.27382 0.71270 0.24078
 Cu196 Cu 0.22257 0.76154 0.25685
 C197 C 0.21920 0.69743 0.31105
 C198 C 0.27451 0.77921 0.18707
 C199 C 0.28941 0.76515 0.31037
 C200 C 0.20954 0.70667 0.18659
 O201 O 0.78645 0.17290 0.73627
 O202 O 0.80963 0.25306 0.65797
 O203 O 0.83834 0.22539 0.73600
 O204 O 0.75805 0.20060 0.65858
 O205 O 0.72208 0.23550 0.70062
 O206 O 0.80287 0.26065 0.77819
 O207 O 0.77405 0.28850 0.69979
 O208 O 0.75091 0.20798 0.77864
 Cu209 Cu 0.80168 0.20959 0.69298
 Cu210 Cu 0.75898 0.25171 0.74360
 C211 C 0.76473 0.17678 0.77092
 C212 C 0.79571 0.28422 0.66506
 C213 C 0.83425 0.24705 0.77058
 C214 C 0.72653 0.21368 0.66619
 O215 O 0.30423 0.74567 0.71083
 O216 O 0.24162 0.70382 0.80200
 O217 O 0.25487 0.69070 0.71197
 O218 O 0.29438 0.75426 0.80216
 O219 O 0.25278 0.79545 0.78321
 O220 O 0.21247 0.73101 0.69305
 O221 O 0.19964 0.74457 0.78304
 O222 O 0.26148 0.78562 0.69177
 Cu223 Cu 0.27794 0.71952 0.75844
 Cu224 Cu 0.22738 0.76814 0.73585
 C225 C 0.29315 0.77262 0.68540
 C226 C 0.21028 0.71774 0.80875
 C227 C 0.22723 0.70008 0.68672
 C228 C 0.28012 0.78526 0.80872
 O229 O 0.23243 0.28964 0.71170
 O230 O 0.27595 0.23439 0.80641
 O231 O 0.28891 0.24691 0.71585
 O232 O 0.22188 0.27862 0.80225
 O233 O 0.18353 0.23134 0.78455
 O234 O 0.25080 0.19964 0.69755
 O235 O 0.23801 0.18699 0.78802
 O236 O 0.19460 0.24216 0.69330
 Cu237 Cu 0.25871 0.26716 0.76059
 Cu238 Cu 0.21295 0.21022 0.73900
 C239 C 0.20632 0.27532 0.68621
 C240 C 0.26366 0.20145 0.81403
 C241 C 0.28115 0.21815 0.69156
 C242 C 0.19170 0.26009 0.80883
 O243 O 0.74418 0.80417 0.69616
 O244 O 0.80166 0.76361 0.79144
 O245 O 0.79089 0.75201 0.70090
 O246 O 0.75698 0.81846 0.78642
 O247 O 0.71075 0.77916 0.80529
 O248 O 0.74504 0.71228 0.71997
 O249 O 0.75519 0.72472 0.81077
 O250 O 0.69833 0.76453 0.71535
 Cu251 Cu 0.77806 0.78862 0.74204
 Cu252 Cu 0.72264 0.74128 0.76477
 C253 C 0.71163 0.79044 0.68885
 C254 C 0.78809 0.73747 0.81751
 C255 C 0.77348 0.72113 0.69530
 C256 C 0.72840 0.80999 0.81086
 C257 C 0.28046 0.08789 0.09387
 C258 C 0.29010 0.12355 0.10133
 C259 C 0.27941 0.14227 0.14519
 C260 C 0.29030 0.17755 0.15277
 H261 H 0.30416 0.13982 0.07377
 H262 H 0.26056 0.12795 0.16969
 H263 H 0.26837 0.07148 0.12282
 H264 H 0.30972 0.19133 0.12850
 C265 C 0.76113 0.61109 0.59511
 C266 C 0.77784 0.64377 0.60533
 C267 C 0.76811 0.66431 0.64793
 C268 C 0.78588 0.69647 0.65803
 H269 H 0.79835 0.65604 0.58130
 H270 H 0.74505 0.65413 0.66953
 H271 H 0.74229 0.59788 0.62057
 H272 H 0.80896 0.70628 0.63619
 C273 C 0.72826 0.91801 0.08568
 C274 C 0.72410 0.88108 0.09122
 C275 C 0.73107 0.86292 0.13776
 C276 C 0.72066 0.82738 0.14525
 H277 H 0.71640 0.86350 0.06153
 H278 H 0.74662 0.87812 0.16502
 H279 H 0.73236 0.93426 0.11771
 H280 H 0.70396 0.81287 0.11845
 C281 C 0.19974 0.38806 0.59059
 C282 C 0.19017 0.35214 0.59583
 C283 C 0.19839 0.33283 0.64089
 C284 C 0.19065 0.29660 0.64635
 H285 H 0.17907 0.33627 0.56604
 H286 H 0.21390 0.34779 0.66842
 H287 H 0.20904 0.40356 0.62167
 H288 H 0.17451 0.28172 0.61935
 C289 C 0.89423 0.27834 0.09472
 C290 C 0.86169 0.29335 0.10378
 C291 C 0.84268 0.28592 0.14908
 C292 C 0.81003 0.30069 0.15727
 H293 H 0.84799 0.31049 0.07762
 H294 H 0.85395 0.26599 0.17403
 H295 H 0.90835 0.26457 0.12396
 H296 H 0.79898 0.32058 0.13209
 C297 C 0.40579 0.78309 0.58840
 C298 C 0.37014 0.79038 0.59505
 C299 C 0.35108 0.77925 0.63945
 C300 C 0.31597 0.78825 0.64631
 H301 H 0.35415 0.80286 0.56655
 H302 H 0.36498 0.76171 0.66514
 H303 H 0.42198 0.77262 0.61812
 H304 H 0.30267 0.80647 0.62088
 C305 C 0.09825 0.69764 0.08608
 C306 C 0.13418 0.69087 0.09292
 C307 C 0.15229 0.69885 0.13907
 C308 C 0.18767 0.69091 0.14676
 H309 H 0.15133 0.68201 0.06425
 H310 H 0.13765 0.71439 0.16519
 H311 H 0.08209 0.70305 0.11745
 H312 H 0.20192 0.67451 0.12119
 C313 C 0.59974 0.22226 0.59832
 C314 C 0.63404 0.20915 0.59811
 C315 C 0.66095 0.21495 0.63769
 C316 C 0.69574 0.20387 0.63304
 H317 H 0.64373 0.19624 0.56618
 H318 H 0.65330 0.23057 0.66849
 H319 H 0.58894 0.23327 0.63083
 H320 H 0.70266 0.18819 0.60192
 C321 C 0.72379 0.12486 0.92252
 C322 C 0.73318 0.11697 0.87783
 C323 C 0.73639 0.14744 0.84217
 C324 C 0.75653 0.14466 0.80281
 H325 H 0.74223 0.08979 0.86865
 H326 H 0.72452 0.17371 0.85025
 H327 H 0.71786 0.15352 0.92952
 H328 H 0.76924 0.11873 0.79523
 C329 C 0.21343 0.58602 0.41086
 C330 C 0.20413 0.62098 0.40346
 C331 C 0.21431 0.64032 0.35892
 C332 C 0.20385 0.67475 0.35037
 H333 H 0.19087 0.63607 0.43121
 H334 H 0.23252 0.62718 0.33438
 H335 H 0.22478 0.57083 0.38171
 H336 H 0.18496 0.68746 0.37442
 C337 C 0.28764 0.89638 0.90907
 C338 C 0.29263 0.86021 0.90231
 C339 C 0.28444 0.84262 0.85602
 C340 C 0.29435 0.80792 0.84868
 H341 H 0.30155 0.84250 0.93128
 H342 H 0.26792 0.85692 0.82957
 H343 H 0.28273 0.91358 0.87780
 H344 H 0.31182 0.79447 0.87488
 C345 C 0.75676 0.41517 0.41833
 C346 C 0.77458 0.38497 0.40665
 C347 C 0.76454 0.36415 0.36358
 C348 C 0.78161 0.33305 0.35400
 H349 H 0.79614 0.37469 0.43007
 H350 H 0.74152 0.37292 0.34147
 H351 H 0.73672 0.42667 0.39369
 H352 H 0.80432 0.32435 0.37671
 C353 C 0.08366 0.24601 0.91360
 C354 C 0.11623 0.26246 0.90196
 C355 C 0.13589 0.25293 0.85852
 C356 C 0.16725 0.27167 0.84684
 H357 H 0.12908 0.28296 0.92551
 H358 H 0.12583 0.22948 0.83763
 H359 H 0.06951 0.22730 0.88884
 H360 H 0.17676 0.29517 0.86803
 C361 C 0.60082 0.79507 0.40388
 C362 C 0.63630 0.80621 0.39738
 C363 C 0.65617 0.79651 0.35397
 C364 C 0.69144 0.80824 0.34752
 H365 H 0.65168 0.82055 0.42549
 H366 H 0.64277 0.77748 0.32895
 H367 H 0.58530 0.78263 0.37442
 H368 H 0.70438 0.82778 0.37227
 C369 C 0.90209 0.72819 0.91210
 C370 C 0.86560 0.72105 0.90742
 C371 C 0.84600 0.73098 0.86313
 C372 C 0.80984 0.72259 0.85747
 H373 H 0.84972 0.70958 0.93704
 H374 H 0.86082 0.74719 0.83610
 H375 H 0.91778 0.73767 0.88123
 H376 H 0.79534 0.70561 0.88401
 C377 C 0.39799 0.22040 0.41885
 C378 C 0.36274 0.20878 0.41087
 C379 C 0.34403 0.21686 0.36501
 C380 C 0.30973 0.20317 0.35555
 H381 H 0.34698 0.19474 0.43884
 H382 H 0.35763 0.23593 0.33999
 H383 H 0.41378 0.23249 0.38947
 H384 H 0.29662 0.18354 0.38029
 C385 C 0.74240 0.92100 0.90944
 C386 C 0.72481 0.88867 0.89929
 C387 C 0.73388 0.86760 0.85681
 C388 C 0.71617 0.83514 0.84777
 H389 H 0.70436 0.87676 0.92368
 H390 H 0.75667 0.87754 0.83458
 H391 H 0.76123 0.93390 0.88374
 H392 H 0.69336 0.82554 0.87018
 C393 C 0.22596 0.38904 0.41508
 C394 C 0.21073 0.35590 0.40333
 C395 C 0.22245 0.33655 0.36044
 C396 C 0.20658 0.30382 0.34824
 H397 H 0.18980 0.34257 0.42586
 H398 H 0.24541 0.34842 0.33995
 H399 H 0.24531 0.40293 0.39082
 H400 H 0.18368 0.29213 0.36900
 C401 C 0.26885 0.09143 0.91685
 C402 C 0.27637 0.12774 0.91009
 C403 C 0.26675 0.14582 0.86465
 C404 C 0.27814 0.18075 0.85517
 H405 H 0.28965 0.14453 0.93757
 H406 H 0.24863 0.13092 0.83968
 H407 H 0.25891 0.07557 0.88633
 H408 H 0.29676 0.19533 0.87984
 C409 C 0.77771 0.61274 0.41765
 C410 C 0.78781 0.64861 0.41152
 C411 C 0.78002 0.66817 0.36609
 C412 C 0.79249 0.70315 0.35828
 H413 H 0.80038 0.66419 0.44067
 H414 H 0.76215 0.65443 0.33983
 H415 H 0.76716 0.59726 0.38717
 H416 H 0.81109 0.71644 0.38410
 C417 C 0.10067 0.71888 0.91157
 C418 C 0.13484 0.70709 0.90297
 C419 C 0.15417 0.71722 0.85832
 C420 C 0.18719 0.70355 0.84854
 H421 H 0.14929 0.69012 0.92862
 H422 H 0.14222 0.73760 0.83459
 H423 H 0.08641 0.73286 0.88263
 H424 H 0.19880 0.68294 0.87223
 C425 C 0.59367 0.24834 0.42327
 C426 C 0.62464 0.23160 0.41178
 C427 C 0.64480 0.24154 0.36806
 C428 C 0.67633 0.22524 0.35808
 H429 H 0.63584 0.21078 0.43553
 H430 H 0.63494 0.26376 0.34545
 H431 H 0.58134 0.26755 0.39825
 H432 H 0.68614 0.20333 0.38124
 C433 C 0.88552 0.28906 0.92230
 C434 C 0.89339 0.27784 0.87833
 C435 C 0.86335 0.27545 0.84193
 C436 C 0.86625 0.25518 0.80275
 H437 H 0.91997 0.26661 0.87040
 H438 H 0.83720 0.28794 0.84932
 H439 H 0.85737 0.29758 0.92798
 H440 H 0.89211 0.24204 0.79575
 C441 C 0.40107 0.76828 0.41108
 C442 C 0.36709 0.78040 0.40205
 C443 C 0.34623 0.76831 0.35933
 C444 C 0.31262 0.78089 0.34915
 H445 H 0.35422 0.79863 0.42675
 H446 H 0.35790 0.74753 0.33706
 H447 H 0.41437 0.75178 0.38473
 H448 H 0.30115 0.80193 0.37116
 C449 C 0.26953 0.88891 0.08443
 C450 C 0.28494 0.85661 0.09436
 C451 C 0.27412 0.83530 0.13723
 C452 C 0.28910 0.80296 0.14810
 H453 H 0.30489 0.84546 0.07042
 H454 H 0.25220 0.84548 0.15905
 H455 H 0.25117 0.90049 0.11014
 H456 H 0.31114 0.79285 0.12647
 C457 C 0.78245 0.40928 0.59365
 C458 C 0.79623 0.37530 0.59386
 C459 C 0.79165 0.34896 0.63434
 C460 C 0.80426 0.31470 0.63089
 H461 H 0.80912 0.36551 0.56197
 H462 H 0.77578 0.35653 0.66500
 H463 H 0.77152 0.42010 0.62619
 H464 H 0.82016 0.30786 0.59990
 C465 C 0.73676 0.11329 0.09555
 C466 C 0.71658 0.14191 0.10740
 C467 C 0.72436 0.16211 0.15164
 C468 C 0.70643 0.19275 0.16112
 H469 H 0.69534 0.15172 0.08317
 H470 H 0.74702 0.15359 0.17456
 H471 H 0.75660 0.10244 0.12099
 H472 H 0.68415 0.20137 0.13766
 C473 C 0.22778 0.58780 0.58894
 C474 C 0.21509 0.62151 0.59703
 C475 C 0.22657 0.64264 0.63978
 C476 C 0.21278 0.67579 0.64827
 H477 H 0.19671 0.63421 0.57128
 H478 H 0.24773 0.63173 0.66327
 H479 H 0.24439 0.57450 0.61620
 H480 H 0.19137 0.68632 0.62484
 C481 C 0.90805 0.74430 0.08935
 C482 C 0.87413 0.73066 0.10062
 C483 C 0.85528 0.74186 0.14415
 C484 C 0.82228 0.72621 0.15587
 H485 H 0.85960 0.71145 0.07681
 H486 H 0.86749 0.76430 0.16516
 H487 H 0.92347 0.76167 0.11454
 H488 H 0.81052 0.70368 0.13462
 C489 C 0.39456 0.23262 0.59682
 C490 C 0.36143 0.21569 0.60469
 C491 C 0.33933 0.22443 0.64651
 C492 C 0.30666 0.20665 0.65451
 H493 H 0.34989 0.19588 0.57929
 H494 H 0.34898 0.24680 0.66949
 H495 H 0.40687 0.25073 0.62373
 H496 H 0.29741 0.18409 0.63159
 C497 C 0.09029 0.26394 0.09044
 C498 C 0.12672 0.27243 0.09490
 C499 C 0.14710 0.26429 0.13961
 C500 C 0.18247 0.27618 0.14618
 H501 H 0.14205 0.28402 0.06489
 H502 H 0.13355 0.24678 0.16641
 H503 H 0.07505 0.25450 0.12168
 H504 H 0.19551 0.29460 0.11996
 C505 C 0.60412 0.78082 0.58198
 C506 C 0.63730 0.79696 0.59189
 C507 C 0.65672 0.78789 0.63662
 C508 C 0.68985 0.80360 0.64778
 H509 H 0.65035 0.81636 0.56685
 H510 H 0.64439 0.76661 0.65977
 H511 H 0.59077 0.76299 0.60866
 H512 H 0.70228 0.82479 0.62460
   
