data_POSCAR
  _audit_creation_date              2014-09-24
  _audit_creation_method            'ToBaCCo'
  _symmetry_space_group_name_H-M    'P1'
  _symmetry_Int_Tables_number       1
  _symmetry_cell_setting            triclinic
  loop_
  _symmetry_equiv_pos_as_xyz
 x,y,z
_cell_length_a 49.3402
_cell_length_b 48.8125
_cell_length_c 48.6727
_cell_angle_alpha 89.939700
_cell_angle_beta 90.049000
_cell_angle_gamma 90.058900
loop_
  _atom_site_label
  _atom_site_type_symbol
  _atom_site_fract_x
  _atom_site_fract_y
  _atom_site_fract_z
N1 N 0.18455 1.23990 0.16445
 N2 N 0.16546 1.23970 0.18331
 C3 C 0.14834 1.26070 0.17864
 C4 C 0.15737 1.27461 0.15575
 C5 C 0.18028 1.26101 0.14713
 H6 H 0.13051 1.26533 0.19067
 H7 H 0.19266 1.26585 0.12945
 Cu8 Cu 0.16453 1.21157 0.21165
 Cu9 Cu 0.21311 1.21242 0.16328
 Cu10 Cu 0.21184 1.16211 0.21365
 N11 N 0.16401 1.18324 0.23979
 N12 N 0.18261 1.16395 0.24045
 C13 C 0.17742 1.14682 0.26152
 C14 C 0.15442 1.15601 0.27460
 C15 C 0.14629 1.17904 0.26044
 H16 H 0.18928 1.12892 0.26672
 H17 H 0.12870 1.19153 0.26470
 N18 N 0.23976 1.16373 0.18476
 N19 N 0.24023 1.18289 0.16556
 C20 C 0.26136 1.17822 0.14868
 C21 C 0.27465 1.15514 0.15779
 C22 C 0.26057 1.14637 0.18058
 H23 H 0.26655 1.19043 0.13090
 H24 H 0.26502 1.12851 0.19293
 H25 H 0.19125 1.18158 0.18220
 H26 H 0.21282 1.20351 0.20479
 N27 N 0.81762 0.75972 0.16317
 N28 N 0.83652 0.76037 0.18224
 C29 C 0.85388 0.73948 0.17810
 C30 C 0.84526 0.72516 0.15532
 C31 C 0.82229 0.73843 0.14625
 H32 H 0.87161 0.73516 0.19043
 H33 H 0.81013 0.73320 0.12851
 Cu34 Cu 0.83690 0.78889 0.21013
 Cu35 Cu 0.78871 0.78682 0.16134
 Cu36 Cu 0.78868 0.83743 0.21134
 N37 N 0.83649 0.81714 0.23830
 N38 N 0.81757 0.83611 0.23862
 C39 C 0.82216 0.85330 0.25975
 C40 C 0.84510 0.84446 0.27326
 C41 C 0.85381 0.82158 0.25927
 H42 H 0.80994 0.87100 0.26472
 H43 H 0.87152 0.80936 0.26386
 N44 N 0.76116 0.83528 0.18202
 N45 N 0.76118 0.81600 0.16298
 C46 C 0.74016 0.82025 0.14579
 C47 C 0.72643 0.84318 0.15454
 C48 C 0.74013 0.85229 0.17743
 H49 H 0.73532 0.80783 0.12807
 H50 H 0.73526 0.87014 0.18961
 H51 H 0.80980 0.81818 0.18022
 H52 H 0.78852 0.79595 0.20280
 N53 N 0.81593 1.23886 -0.16324
 N54 N 0.83493 1.23804 -0.18217
 C55 C 0.85253 1.25873 -0.17782
 C56 C 0.84397 1.27306 -0.15505
 C57 C 0.82079 1.26003 -0.14621
 H58 H 0.87038 1.26291 -0.19002
 H59 H 0.80859 1.26535 -0.12855
 Cu60 Cu 0.83509 1.20962 -0.21017
 Cu61 Cu 0.78666 1.21211 -0.16170
 Cu62 Cu 0.78609 1.16176 -0.21193
 N63 N 0.83430 1.18155 -0.23851
 N64 N 0.81507 1.16285 -0.23905
 C65 C 0.81944 1.14575 -0.26028
 C66 C 0.84255 1.15434 -0.27363
 C67 C 0.85160 1.17699 -0.25944
 H68 H 0.80694 1.12827 -0.26543
 H69 H 0.86951 1.18900 -0.26388
 N70 N 0.75851 1.16410 -0.18275
 N71 N 0.75874 1.18328 -0.16361
 C72 C 0.73772 1.17909 -0.14644
 C73 C 0.72376 1.15633 -0.15531
 C74 C 0.73734 1.14722 -0.17825
 H75 H 0.73309 1.19140 -0.12860
 H76 H 0.73234 1.12942 -0.19046
 H77 H 0.80738 1.18058 -0.18057
 H78 H 0.78658 1.20322 -0.20320
 N79 N 0.18401 0.76136 -0.16559
 N80 N 0.16566 0.76129 -0.18522
 C81 C 0.14821 0.74049 -0.18081
 C82 C 0.15621 0.72697 -0.15730
 C83 C 0.17890 0.74063 -0.14806
 H84 H 0.13084 0.73569 -0.19349
 H85 H 0.19060 0.73601 -0.12984
 Cu86 Cu 0.16589 0.78873 -0.21425
 Cu87 Cu 0.21278 0.78861 -0.16392
 Cu88 Cu 0.21299 0.83875 -0.21435
 N89 N 0.16589 0.81759 -0.24186
 N90 N 0.18433 0.83709 -0.24177
 C91 C 0.17921 0.85470 -0.26246
 C92 C 0.15645 0.84560 -0.27609
 C93 C 0.14836 0.82214 -0.26262
 H94 H 0.19084 0.87297 -0.26691
 H95 H 0.13081 0.80968 -0.26729
 N96 N 0.24033 0.83697 -0.18490
 N97 N 0.24026 0.81785 -0.16567
 C98 C 0.26113 0.82237 -0.14837
 C99 C 0.27482 0.84532 -0.15726
 C100 C 0.26124 0.85417 -0.18034
 H101 H 0.26588 0.81014 -0.13048
 H102 H 0.26609 0.87197 -0.19263
 H103 H 0.19122 0.81910 -0.18386
 H104 H 0.21387 0.79737 -0.20550
 C105 C 0.54087 1.03780 -0.00620
 H106 H 0.54129 1.03749 0.01603
 C107 C 0.55974 1.05349 -0.02067
 H108 H 0.57468 1.06545 -0.00959
 C109 C 0.52157 1.02176 -0.04785
 H110 H 0.50711 1.00886 -0.05836
 C111 C 0.54012 1.03716 -0.06313
 H112 H 0.53971 1.03629 -0.08536
 N113 N 0.52227 1.02240 -0.01990
 C114 C 0.45843 1.00707 0.04006
 H115 H 0.45818 0.98491 0.03982
 C116 C 0.43955 1.02136 0.05585
 H117 H 0.42478 1.01021 0.06795
 C118 C 0.47726 1.04875 0.02371
 H119 H 0.49153 1.05933 0.01064
 C120 C 0.45871 1.06385 0.03921
 H121 H 0.45891 1.08602 0.03825
 Zn122 Zn 0.49950 0.99969 0.00153
 N123 N 0.47679 1.02087 0.02445
 C124 C 0.52237 0.97751 0.05055
 N125 N 0.52258 0.97697 0.02258
 C126 C 0.54093 0.96163 0.00853
 C127 C 0.56002 0.94590 0.02264
 C128 C 0.54116 0.96206 0.06547
 C129 C 0.45782 0.99243 -0.03637
 C130 C 0.43884 0.97821 -0.05216
 C131 C 0.45825 0.93565 -0.03612
 C132 C 0.47692 0.95067 -0.02061
 N133 N 0.47640 0.97856 -0.02108
 H134 H 0.50810 0.99037 0.06132
 H135 H 0.54096 0.96202 -0.01369
 H136 H 0.57475 0.93400 0.01127
 H137 H 0.54114 0.96285 0.08771
 H138 H 0.45756 1.01458 -0.03594
 H139 H 0.42395 0.98943 -0.06405
 H140 H 0.45855 0.91347 -0.03542
 H141 H 0.49137 0.94003 -0.00780
 C142 C 0.43961 1.05000 0.05530
 C143 C 0.55944 1.05306 -0.04938
 C144 C 0.43899 0.94958 -0.05194
 C145 C 0.56022 0.94623 0.05136
 C146 C -0.00604 0.54101 1.03793
 H147 H 0.01589 0.54149 1.03782
 C148 C -0.02046 0.55997 1.05359
 H149 H -0.00965 0.57504 1.06572
 C150 C -0.04697 0.52146 1.02144
 H151 H -0.05721 0.50686 1.00838
 C152 C -0.06219 0.54009 1.03681
 H153 H -0.08412 0.53961 1.03575
 N154 N -0.01940 0.52224 1.02231
 C155 C 0.03999 0.45791 1.00741
 H156 H 0.03985 0.45768 0.98518
 C157 C 0.05561 0.43891 1.02186
 H158 H 0.06768 0.42406 1.01077
 C159 C 0.02361 0.47685 1.04908
 H160 H 0.01062 0.49121 1.05959
 C161 C 0.03894 0.45817 1.06434
 H162 H 0.03791 0.45837 1.08657
 Zn163 Zn 0.00195 0.49936 0.99969
 N164 N 0.02446 0.47640 1.02112
 C165 C 0.05046 0.52255 0.97795
 N166 N 0.02288 0.52280 0.97712
 C167 C 0.00918 0.54141 0.96161
 C168 C 0.02326 0.56072 0.94598
 C169 C 0.06534 0.54155 0.96261
 C170 C -0.03529 0.45715 0.99201
 C171 C -0.05076 0.43799 0.97760
 C172 C -0.03472 0.45781 0.93507
 C173 C -0.01953 0.47665 0.95029
 N174 N -0.02016 0.47602 0.97825
 H175 H 0.06097 0.50808 0.99094
 H176 H -0.01275 0.54147 0.96177
 H177 H 0.01217 0.57565 0.93392
 H178 H 0.08727 0.54147 0.96361
 H179 H -0.03499 0.45680 1.01423
 H180 H -0.06254 0.42289 0.98873
 H181 H -0.03392 0.45821 0.91283
 H182 H -0.00686 0.49133 0.93975
 C183 C 0.05497 0.43896 1.05058
 C184 C -0.04879 0.55959 1.05290
 C185 C -0.05039 0.43827 0.94888
 C186 C 0.05158 0.56087 0.94659
 C187 C 1.03558 -0.00631 0.54196
 H188 H 1.03523 0.01585 0.54215
 C189 C 1.05114 -0.02050 0.56122
 H190 H 1.06294 -0.00928 0.57625
 C191 C 1.01986 -0.04808 0.52277
 H192 H 1.00715 -0.05872 0.50819
 C193 C 1.03514 -0.06308 0.54172
 H194 H 1.03436 -0.08526 0.54151
 N195 N 1.02040 -0.02019 0.52322
 C196 C 1.00560 0.03907 0.45787
 H197 H 0.98367 0.03884 0.45749
 C198 C 1.01989 0.05472 0.43871
 H199 H 1.00898 0.06671 0.42358
 C200 C 1.04668 0.02288 0.47734
 H201 H 1.05703 0.00993 0.49196
 C202 C 1.06176 0.03824 0.45852
 H203 H 1.08369 0.03729 0.45889
 Zn204 Zn 0.99801 0.00097 0.49990
 N205 N 1.01910 0.02362 0.47670
 C206 C 0.97622 0.05006 0.52258
 N207 N 0.97557 0.02217 0.52307
 C208 C 0.96031 0.00834 0.54178
 C209 C 0.94475 0.02259 0.56096
 C210 C 0.96095 0.06511 0.54144
 C211 C 0.99071 -0.03722 0.45804
 C212 C 0.97659 -0.05295 0.43884
 C213 C 0.93454 -0.03649 0.45816
 C214 C 0.94945 -0.02105 0.47706
 N215 N 0.97704 -0.02173 0.47667
 H216 H 0.98901 0.06065 0.50804
 H217 H 0.96061 -0.01382 0.54204
 H218 H 0.93289 0.01141 0.57597
 H219 H 0.96182 0.08729 0.54120
 H220 H 1.01263 -0.03695 0.45788
 H221 H 0.98764 -0.06497 0.42389
 H222 H 0.91260 -0.03558 0.45832
 H223 H 0.93898 -0.00810 0.49155
 C224 C 1.04822 0.05418 0.43896
 C225 C 1.05080 -0.04914 0.56119
 C226 C 0.94826 -0.05246 0.43881
 C227 C 0.94518 0.05123 0.56086
 C228 C 0.12148 0.33819 1.11882
 N229 N 0.13222 0.34920 1.09567
 N230 N 0.11965 0.36966 1.08275
 C231 C 0.09598 0.37974 1.09262
 N232 N 0.08526 0.36874 1.11579
 N233 N 0.09782 0.34828 1.12871
 C234 C 0.13457 0.31562 1.13227
 C235 C 0.14537 0.29644 1.14339
 C236 C 0.08192 0.40105 1.07816
 C237 C 0.06981 0.41857 1.06575
 C238 C -0.11710 0.66028 1.11911
 N239 N -0.12654 0.65006 1.09503
 N240 N -0.11359 0.62962 1.08254
 C241 C -0.09084 0.61876 1.09377
 N242 N -0.08142 0.62896 1.11787
 N243 N -0.09436 0.64940 1.13036
 C244 C -0.13057 0.68285 1.13210
 C245 C -0.14170 0.70205 1.14280
 C246 C -0.07636 0.59746 1.07979
 C247 C -0.06394 0.57995 1.06772
 C248 C -0.11802 0.33762 0.88156
 N249 N -0.09301 0.34552 0.87312
 N250 N -0.08011 0.36593 0.88577
 C251 C -0.09183 0.37907 0.90722
 N252 N -0.11686 0.37120 0.91563
 N253 N -0.12976 0.35079 0.90299
 C254 C -0.13158 0.31514 0.86844
 C255 C -0.14281 0.29604 0.85762
 C256 C -0.07752 0.40037 0.92146
 C257 C -0.06527 0.41787 0.93376
 C258 C 0.11851 0.66236 0.87966
 N259 N 0.09445 0.65296 0.86999
 N260 N 0.08171 0.63244 0.88265
 C261 C 0.09265 0.62068 0.90535
 N262 N 0.11673 0.63007 0.91500
 N263 N 0.12947 0.65059 0.90234
 C264 C 0.13190 0.68491 0.86644
 C265 C 0.14304 0.70403 0.85552
 C266 C 0.07850 0.59921 0.91951
 C267 C 0.06638 0.58151 0.93169
 C268 C 1.11666 0.12048 0.33801
 N269 N 1.12761 0.09822 0.35046
 N270 N 1.11455 0.08574 0.37092
 C271 C 1.09016 0.09516 0.37955
 N272 N 1.07922 0.11745 0.36713
 N273 N 1.09228 0.12993 0.34667
 C274 C 1.13035 0.13343 0.31548
 C275 C 1.14172 0.14412 0.29634
 C276 C 1.07566 0.08115 0.40090
 C277 C 1.06326 0.06904 0.41847
 C278 C 1.11819 -0.11647 0.66222
 N279 N 1.11801 -0.12697 0.63643
 N280 N 1.10503 -0.11399 0.61621
 C281 C 1.09186 -0.09013 0.62121
 N282 N 1.09205 -0.07965 0.64700
 N283 N 1.10502 -0.09262 0.66720
 C284 C 1.13207 -0.13038 0.68406
 C285 C 1.14359 -0.14179 0.70268
 C286 C 1.07772 -0.07614 0.59960
 C287 C 1.06559 -0.06403 0.58184
 C288 C 0.88154 -0.11943 0.33714
 N289 N 0.90544 -0.12917 0.34685
 N290 N 0.91809 -0.11653 0.36746
 C291 C 0.90722 -0.09378 0.37899
 N292 N 0.88331 -0.08405 0.36930
 N293 N 0.87065 -0.09670 0.34869
 C294 C 0.86829 -0.13259 0.31444
 C295 C 0.85732 -0.14345 0.29517
 C296 C 0.92132 -0.07960 0.40051
 C297 C 0.93344 -0.06740 0.41820
 C298 C 0.87862 0.11833 0.66234
 N299 N 0.90324 0.12715 0.65366
 N300 N 0.91584 0.11452 0.63305
 C301 C 0.90419 0.09269 0.62048
 N302 N 0.87954 0.08389 0.62913
 N303 N 0.86694 0.09652 0.64974
 C304 C 0.86545 0.13142 0.68508
 C305 C 0.85460 0.14226 0.70440
 C306 C 0.91824 0.07845 0.59902
 C307 C 0.93036 0.06620 0.58139
 C308 C 0.33931 1.11772 0.12179
 N309 N 0.34860 1.09347 0.13160
 N310 N 0.36898 1.08063 0.11911
 C311 C 0.38068 1.09166 0.09645
 N312 N 0.37141 1.11593 0.08666
 N313 N 0.35104 1.12878 0.09915
 C314 C 0.31680 1.13111 0.13471
 C315 C 0.29767 1.14216 0.14534
 C316 C 0.40190 1.07732 0.08238
 C317 C 0.41933 1.06501 0.07023
 C318 C 0.65919 1.11997 -0.11788
 N319 N 0.64914 1.13031 -0.09413
 N320 N 0.62888 1.11770 -0.08117
 C321 C 0.61804 1.09436 -0.09157
 N322 N 0.62805 1.08404 -0.11534
 N323 N 0.64832 1.09666 -0.12831
 C324 C 0.68162 1.13302 -0.13133
 C325 C 0.70073 1.14376 -0.14239
 C326 C 0.59695 1.08019 -0.07706
 C327 C 0.57962 1.06799 -0.06459
 C328 C 0.33908 0.88259 -0.12015
 N329 N 0.35423 0.86912 -0.10120
 N330 N 0.37449 0.88186 -0.08834
 C331 C 0.38022 0.90845 -0.09405
 N332 N 0.36509 0.92189 -0.11303
 N333 N 0.34484 0.90916 -0.12589
 C334 C 0.31673 0.86918 -0.13340
 C335 C 0.29772 0.85817 -0.14437
 C336 C 0.40137 0.92250 -0.07953
 C337 C 0.41875 0.93465 -0.06709
 C338 C 0.66139 0.87925 0.11763
 N339 N 0.65487 0.87283 0.09134
 N340 N 0.63434 0.88540 0.07877
 C341 C 0.61970 0.90475 0.09211
 N342 N 0.62619 0.91114 0.11842
 N343 N 0.64672 0.89857 0.13100
 C344 C 0.68403 0.86633 0.13085
 C345 C 0.70328 0.85567 0.14175
 C346 C 0.59828 0.91900 0.07819
 C347 C 0.58069 0.93126 0.06616
   
