data_POSCAR
  _audit_creation_date              2014-09-24
  _audit_creation_method            'ToBaCCo'
  _symmetry_space_group_name_H-M    'P1'
  _symmetry_Int_Tables_number       1
  _symmetry_cell_setting            triclinic
  loop_
  _symmetry_equiv_pos_as_xyz
 x,y,z
_cell_length_a 21.0223
_cell_length_b 20.8493
_cell_length_c 26.1360
_cell_angle_alpha 89.630300
_cell_angle_beta 89.596700
_cell_angle_gamma 89.472200
loop_
  _atom_site_label
  _atom_site_type_symbol
  _atom_site_fract_x
  _atom_site_fract_y
  _atom_site_fract_z
B1 B 0.27048 0.21351 0.20211
 B2 B 0.30689 0.28132 0.21743
 B3 B 0.23112 0.28365 0.19862
 B4 B 0.19408 0.21843 0.22124
 B5 B 0.24893 0.17535 0.25558
 B6 B 0.31962 0.21487 0.25250
 B7 B 0.23311 0.29269 0.30013
 B8 B 0.19698 0.22507 0.28464
 B9 B 0.27243 0.22283 0.30379
 B10 B 0.30992 0.28801 0.28097
 B11 B 0.25500 0.33108 0.24668
 B12 B 0.18427 0.29149 0.24979
 B13 B 0.70179 0.76766 0.20261
 B14 B 0.69688 0.69345 0.22638
 B15 B 0.76354 0.71662 0.19668
 B16 B 0.77611 0.79467 0.21003
 B17 B 0.71575 0.81874 0.24975
 B18 B 0.66624 0.75537 0.25980
 B19 B 0.78221 0.72281 0.29766
 B20 B 0.78640 0.79696 0.27367
 B21 B 0.72027 0.77400 0.30340
 B22 B 0.70757 0.69571 0.29028
 B23 B 0.76792 0.67145 0.25025
 B24 B 0.81748 0.73519 0.24047
 B25 B 0.72300 0.23198 -0.19277
 B26 B 0.73203 0.30817 -0.21191
 B27 B 0.79614 0.26413 -0.19746
 B28 B 0.78398 0.18774 -0.21638
 B29 B 0.71024 0.18647 -0.24389
 B30 B 0.67751 0.26172 -0.24051
 B31 B 0.78501 0.26803 -0.29968
 B32 B 0.77610 0.19188 -0.28030
 B33 B 0.71198 0.23615 -0.29485
 B34 B 0.72420 0.31255 -0.27590
 B35 B 0.79791 0.31381 -0.24854
 B36 B 0.83069 0.23856 -0.25189
 B37 B 0.29727 0.76690 -0.20652
 B38 B 0.28115 0.69151 -0.22338
 B39 B 0.22326 0.73792 -0.19855
 B40 B 0.23366 0.81452 -0.21953
 B41 B 0.29887 0.81304 -0.25880
 B42 B 0.32866 0.73648 -0.26104
 B43 B 0.20885 0.73605 -0.30036
 B44 B 0.22556 0.81153 -0.28375
 B45 B 0.28295 0.76481 -0.30850
 B46 B 0.27263 0.68842 -0.28752
 B47 B 0.20757 0.68989 -0.24817
 B48 B 0.17783 0.76660 -0.24594
 B49 B 1.23744 1.29393 0.70267
 B50 B 1.19548 1.22664 0.71118
 B51 B 1.27334 1.22177 0.69935
 B52 B 1.31042 1.28363 0.72796
 B53 B 1.25241 1.32632 0.75916
 B54 B 1.18081 1.29055 0.74829
 B55 B 1.25590 1.20510 0.79976
 B56 B 1.29752 1.27239 0.79091
 B57 B 1.21977 1.27694 0.80285
 B58 B 1.18263 1.21519 0.77434
 B59 B 1.24052 1.17237 0.74307
 B60 B 1.31230 1.20824 0.75395
 B61 B 0.76821 0.71377 0.80127
 B62 B 0.69094 0.72231 0.78708
 B63 B 0.73379 0.78700 0.80054
 B64 B 0.80826 0.77690 0.77638
 B65 B 0.80994 0.70378 0.74700
 B66 B 0.73674 0.66963 0.75407
 B67 B 0.72223 0.77933 0.69840
 B68 B 0.79941 0.77156 0.71248
 B69 B 0.75700 0.70650 0.69922
 B70 B 0.68248 0.71669 0.72323
 B71 B 0.68057 0.78985 0.75262
 B72 B 0.75361 0.82422 0.74530
 B73 B 1.23353 0.71753 0.30590
 B74 B 1.20915 0.79106 0.28813
 B75 B 1.28557 0.77846 0.30300
 B76 B 1.30754 0.70439 0.28312
 B77 B 1.24282 0.67139 0.25376
 B78 B 1.18186 0.72595 0.25726
 B79 B 1.27730 0.77950 0.20041
 B80 B 1.30109 0.70575 0.21878
 B81 B 1.22473 0.71956 0.20340
 B82 B 1.20290 0.79340 0.22386
 B83 B 1.26749 0.82609 0.25260
 B84 B 1.32881 0.77127 0.24889
 B85 B 0.80654 1.25617 0.19987
 B86 B 0.73668 1.29567 0.20032
 B87 B 0.73852 1.21545 0.19402
 B88 B 0.79848 1.18462 0.23036
 B89 B 0.83315 1.24807 0.26012
 B90 B 0.79437 1.31646 0.24162
 B91 B 0.70863 1.24101 0.29156
 B92 B 0.77962 1.20294 0.29169
 B93 B 0.77660 1.28235 0.29761
 B94 B 0.71698 1.31293 0.26166
 B95 B 0.68241 1.24987 0.23137
 B96 B 0.72148 1.18077 0.25060
 O97 O 0.44297 1.10471 0.06229
 O98 O 0.52473 0.89233 0.05847
 O99 O 0.38751 0.95073 0.05156
 O100 O 0.59617 1.04146 0.07096
 O101 O 0.42925 0.86851 0.01898
 O102 O 0.55531 1.12744 0.04110
 O103 O 0.61621 0.93164 0.04526
 O104 O 0.36616 1.05754 0.02581
 C105 C 0.38569 1.09086 0.06149
 C106 C 0.58034 0.89610 0.07094
 C107 C 0.39398 0.89210 0.05245
 C108 C 0.59277 1.10069 0.07167
 O109 O 0.52972 1.12162 -0.05834
 O110 O 0.48529 0.89708 -0.07333
 O111 O 0.39578 1.02866 -0.07236
 O112 O 0.61808 0.97451 -0.05502
 O113 O 0.58638 0.88301 -0.03250
 O114 O 0.41513 1.11852 -0.03834
 O115 O 0.61604 1.08149 -0.02702
 O116 O 0.39023 0.91904 -0.05206
 Co117 Co 0.48662 1.10623 0.00136
 Co118 Co 0.50550 0.89792 -0.00687
 Co119 Co 0.39630 0.98978 -0.01068
 Co120 Co 0.60066 1.00607 0.00761
 O121 O 0.49767 1.00072 -0.00235
 C122 C 0.58892 1.11857 -0.05804
 C123 C 0.42816 0.89272 -0.08231
 C124 C 0.38695 1.08700 -0.07168
 C125 C 0.62087 0.91627 -0.06077
 O126 O 0.91042 0.61348 0.53487
 O127 O 1.08315 0.38418 0.54257
 O128 O 0.88314 0.41405 0.52648
 O129 O 1.10847 0.58427 0.54890
 O130 O 0.96971 0.38060 0.56077
 O131 O 1.01415 0.60606 0.57196
 O132 O 1.10248 0.47558 0.57420
 O133 O 0.87885 0.52076 0.55574
 C134 C 0.87546 0.57891 0.56212
 C135 C 1.11080 0.41716 0.57531
 C136 C 0.91074 0.38096 0.55985
 C137 C 1.07165 0.61105 0.57943
 O138 O 1.06603 0.63075 0.47688
 O139 O 0.94615 0.37168 0.45977
 O140 O 0.87830 0.56540 0.45708
 O141 O 1.13346 0.44173 0.47788
 O142 O 1.05755 0.39489 0.44062
 O143 O 0.96820 0.60617 0.44097
 O144 O 1.11052 0.54711 0.44822
 O145 O 0.90426 0.45717 0.42945
 Co146 Co 0.99068 0.60229 0.50603
 Co147 Co 1.01300 0.39435 0.50109
 Co148 Co 0.89746 0.49073 0.49309
 Co149 Co 1.10194 0.51113 0.51128
 O150 O 1.00047 0.49932 0.50319
 C151 C 1.10378 0.60566 0.44565
 C152 C 0.91028 0.39824 0.42779
 C153 C 0.91203 0.60137 0.43012
 C154 C 1.11463 0.40907 0.44173
 O155 O 1.06202 0.43809 0.09633
 O156 O 1.05091 0.58002 -0.09475
 O157 O 1.05313 0.38473 -0.05967
 O158 O 1.02635 0.63055 0.06146
 O159 O 1.08785 0.47340 -0.08495
 O160 O 1.07494 0.54956 0.09014
 O161 O 1.07411 0.62121 -0.02263
 O162 O 1.09472 0.40195 0.02398
 C163 C 1.10358 0.40893 0.07013
 C164 C 1.08556 0.61662 -0.06884
 C165 C 1.09681 0.41559 -0.07883
 C166 C 1.07332 0.60789 0.08385
 O167 O 0.94280 0.56868 0.09523
 O168 O 0.96227 0.42806 -0.09499
 O169 O 0.98126 0.37422 0.06220
 O170 O 0.95637 0.62394 -0.06283
 O171 O 0.92601 0.53303 -0.08579
 O172 O 0.93108 0.45531 0.08915
 O173 O 0.91290 0.60635 0.02224
 O174 O 0.93556 0.38708 -0.02258
 Co175 Co 1.00272 0.50315 0.08422
 Co176 Co 1.00664 0.50372 -0.08173
 Co177 Co 1.01477 0.39935 0.00094
 Co178 Co 0.99372 0.60868 -0.00048
 O179 O 1.00441 0.50377 0.00082
 C180 C 0.90237 0.59894 0.06851
 C181 C 0.92793 0.38993 -0.06948
 C182 C 0.93672 0.39645 0.08784
 C183 C 0.91503 0.59071 -0.08292
 O184 O 0.57860 0.96583 0.58828
 O185 O 0.57461 1.06427 0.41536
 O186 O 0.59052 0.90654 0.47604
 O187 O 0.56842 1.12346 0.52801
 O188 O 0.56429 0.94973 0.40446
 O189 O 0.54602 1.07433 0.59888
 O190 O 0.52046 1.14146 0.44429
 O191 O 0.54205 0.88152 0.55747
 C192 C 0.58581 0.90819 0.57966
 C193 C 0.56675 1.12316 0.41911
 C194 C 0.60203 0.91490 0.43027
 C195 C 0.57830 1.11574 0.57450
 O196 O 0.41780 1.03398 0.58963
 O197 O 0.43061 0.96826 0.41143
 O198 O 0.42806 0.88880 0.51691
 O199 O 0.40858 1.11036 0.48166
 O200 O 0.44263 1.07760 0.40850
 O201 O 0.45003 0.92619 0.59153
 O202 O 0.45396 1.12225 0.56663
 O203 O 0.47977 0.88506 0.43211
 Co204 Co 0.49853 1.00085 0.58383
 Co205 Co 0.50330 1.01401 0.41804
 Co206 Co 0.50914 0.90252 0.49596
 Co207 Co 0.48914 1.11203 0.50454
 O208 O 0.50047 1.00746 0.50049
 C209 C 0.40906 1.09183 0.58382
 C210 C 0.43196 0.90961 0.41325
 C211 C 0.41614 0.89090 0.56352
 C212 C 0.40006 1.10427 0.43520
 O213 O 1.07162 1.08676 0.44187
 O214 O 0.86440 1.00861 0.55624
 O215 O 0.95033 1.09133 0.43693
 O216 O 1.05797 1.05046 0.60159
 O217 O 0.86726 1.03974 0.46454
 O218 O 1.08111 1.09937 0.53163
 O219 O 0.93888 1.05594 0.60027
 O220 O 1.02828 1.04329 0.37543
 C221 C 1.06733 1.08344 0.39379
 C222 C 0.88157 1.04824 0.59015
 C223 C 0.89098 1.08835 0.44221
 C224 C 1.07839 1.09855 0.57909
 O225 O 1.12570 0.97794 0.54429
 O226 O 0.90748 0.91771 0.44017
 O227 O 1.02332 0.93532 0.41789
 O228 O 0.93634 0.93378 0.60058
 O229 O 0.91191 0.88970 0.53016
 O230 O 1.11364 0.96175 0.44760
 O231 O 1.05402 0.92796 0.59057
 O232 O 0.92738 0.99293 0.38843
 Co233 Co 1.08885 1.02755 0.49221
 Co234 Co 0.89616 0.96689 0.49844
 Co235 Co 0.99003 1.01320 0.43094
 Co236 Co 0.99632 0.99244 0.58939
 O237 O 0.99134 0.99787 0.50590
 C238 C 1.11091 0.93874 0.57993
 C239 C 0.90141 0.94122 0.39599
 C240 C 1.08133 0.92605 0.41932
 C241 C 0.92100 0.88546 0.57703
 O242 O 0.57140 0.60892 -0.03207
 O243 O 0.39334 0.55874 0.04872
 O244 O 0.45297 0.56042 -0.09668
 O245 O 0.56697 0.50316 0.10488
 O246 O 0.37394 0.53392 -0.04792
 O247 O 0.57038 0.58549 0.05761
 O248 O 0.45502 0.50771 0.10349
 O249 O 0.56813 0.55400 -0.09874
 C250 C 0.57093 0.60724 -0.07928
 C251 C 0.41725 0.55431 0.09270
 C252 C 0.39499 0.55998 -0.08762
 C253 C 0.57376 0.56144 0.10106
 O254 O 0.63915 0.47371 0.04078
 O255 O 0.39021 0.41378 -0.02918
 O256 O 0.56782 0.43112 -0.08909
 O257 O 0.46559 0.38551 0.05159
 O258 O 0.38503 0.43768 0.06484
 O259 O 0.63660 0.49124 -0.04978
 O260 O 0.57477 0.39598 0.05037
 O261 O 0.44691 0.43537 -0.09792
 Co262 Co 0.59590 0.53626 0.00353
 Co263 Co 0.39810 0.48751 0.00801
 Co264 Co 0.50842 0.49468 -0.08641
 Co265 Co 0.51356 0.45169 0.07122
 O266 O 0.50374 0.49410 -0.00190
 C267 C 0.62990 0.41595 0.05303
 C268 C 0.40587 0.40293 -0.07487
 C269 C 0.62397 0.44503 -0.07974
 C270 C 0.41415 0.38744 0.07209
 N271 N 0.27859 1.12371 0.08272
 N272 N 0.24653 1.15598 0.11794
 C273 C 0.28896 1.17382 0.15333
 C274 C 0.34835 1.15044 0.13894
 N275 N 0.33967 1.12022 0.09445
 H276 H 0.39301 1.15389 0.15895
 N277 N 0.77080 0.57855 0.60318
 N278 N 0.73729 0.61212 0.63708
 C279 C 0.77279 0.66273 0.65071
 C280 C 0.82993 0.65828 0.62351
 N281 N 0.82660 0.60549 0.59463
 H282 H 0.87212 0.68671 0.62695
 N283 N 0.56392 0.80794 0.12746
 N284 N 0.59475 0.77076 0.15974
 C285 C 0.65552 0.79064 0.16008
 C286 C 0.66091 0.84274 0.12734
 N287 N 0.60241 0.85162 0.10806
 H288 H 0.70187 0.87266 0.12012
 N289 N 1.21358 0.36510 0.57697
 N290 N 1.25062 0.33401 0.60971
 C291 C 1.22368 0.34021 0.65616
 C292 C 1.16956 0.37818 0.65107
 N293 N 1.16456 0.39113 0.60115
 H294 H 1.13354 0.38872 0.67961
 N295 N 0.66393 1.20562 -0.06126
 N296 N 0.70128 1.23542 -0.09457
 C297 C 0.68818 1.21176 -0.14114
 C298 C 0.64034 1.16669 -0.13508
 N299 N 0.62647 1.16483 -0.08487
 H300 H 0.61961 1.13639 -0.16391
 N301 N 1.18051 0.69079 0.43853
 N302 N 1.21751 0.71873 0.40408
 C303 C 1.20877 0.68905 0.35905
 C304 C 1.16449 0.64088 0.36746
 N305 N 1.14798 0.64417 0.41736
 H306 H 1.14374 0.60933 0.33955
 N307 N 0.44423 0.80607 -0.14188
 N308 N 0.41041 0.76843 -0.17136
 C309 C 0.34857 0.78557 -0.16589
 C310 C 0.34602 0.83682 -0.13275
 N311 N 0.40647 0.84803 -0.11901
 H312 H 0.30493 0.86558 -0.12217
 N313 N 0.82403 0.32259 0.42784
 N314 N 0.78530 0.29391 0.39572
 C315 C 0.80022 0.31505 0.34834
 C316 C 0.84971 0.35836 0.35268
 N317 N 0.86334 0.36087 0.40272
 H318 H 0.87568 0.38251 0.32238
 N319 N 1.19541 0.33770 0.06823
 N320 N 1.22898 0.30177 0.10033
 C321 C 1.20797 0.31615 0.14776
 C322 C 1.16098 0.36251 0.14372
 N323 N 1.15462 0.37457 0.09366
 H324 H 1.13180 0.38286 0.17396
 N325 N 0.65988 0.81989 0.57219
 N326 N 0.69526 0.78318 0.60235
 C327 C 0.69603 0.81181 0.64838
 C328 C 0.66048 0.86789 0.64519
 N329 N 0.63888 0.87112 0.59704
 H330 H 0.64602 0.89912 0.67620
 N331 N 1.17242 0.69443 -0.06684
 N332 N 1.20800 0.72912 -0.09870
 C333 C 1.18866 0.71608 -0.14657
 C334 C 1.14003 0.67118 -0.14247
 N335 N 1.13181 0.65857 -0.09237
 H336 H 1.11430 0.64861 -0.17314
 N337 N 0.61077 1.22986 0.40845
 N338 N 0.64456 1.26420 0.37532
 C339 C 0.65865 1.22546 0.33574
 C340 C 0.63163 1.16577 0.34599
 N341 N 0.60405 1.17017 0.39227
 H342 H 0.63459 1.12259 0.32324
 N343 N 0.81164 0.67228 0.06593
 N344 N 0.77470 0.70529 0.09781
 C345 C 0.78979 0.68587 0.14551
 C346 C 0.83763 0.63985 0.14161
 N347 N 0.84975 0.63271 0.09148
 H348 H 0.86386 0.61689 0.17232
 N349 N 0.32578 1.17027 0.57219
 N350 N 0.29154 1.20903 0.60158
 C351 C 0.29953 1.18838 0.64997
 C352 C 0.33793 1.13447 0.64907
 N353 N 0.35311 1.12460 0.60002
 H354 H 0.35785 1.10860 0.68134
 N355 N 0.86503 0.29228 -0.07024
 N356 N 0.83326 0.25599 -0.10258
 C357 C 0.83734 0.28396 -0.14910
 C358 C 0.87379 0.33891 -0.14391
 N359 N 0.88901 0.34291 -0.09408
 H360 H 0.88569 0.37389 -0.17316
 N361 N 0.32647 0.86426 0.42096
 N362 N 0.28737 0.82832 0.39419
 C363 C 0.31780 0.81195 0.35048
 C364 C 0.37741 0.83962 0.35144
 N365 N 0.38054 0.87170 0.39570
 H366 H 0.41380 0.83905 0.32193
 N367 N 1.04711 1.17235 0.33734
 N368 N 1.07997 1.21189 0.30793
 C369 C 1.14173 1.19762 0.31612
 C370 C 1.14622 1.14846 0.35076
 N371 N 1.08654 1.13494 0.36307
 H372 H 1.18781 1.12151 0.36295
 N373 N 0.54244 0.66937 -0.15235
 N374 N 0.57447 0.69398 -0.19144
 C375 C 0.63498 0.70050 -0.17609
 C376 C 0.63761 0.68187 -0.12517
 N377 N 0.57931 0.66159 -0.11180
 H378 H 0.67868 0.67868 -0.10075
 N379 N 0.78009 1.05301 0.63459
 N380 N 0.75288 1.08679 0.67158
 C381 C 0.79341 1.13420 0.68370
 C382 C 0.84638 1.12832 0.65303
 N383 N 0.83575 1.07803 0.62254
 H384 H 0.88820 1.15839 0.65212
 N385 N 0.43786 0.61081 0.17147
 N386 N 0.40951 0.64948 0.20464
 C387 C 0.35075 0.66291 0.18689
 C388 C 0.34446 0.63060 0.14060
 N389 N 0.40011 0.59894 0.13251
 H390 H 0.30305 0.62843 0.11636
 N391 N 1.21656 0.93687 0.61791
 N392 N 1.24564 0.90957 0.65736
 C393 C 1.20388 0.86949 0.68043
 C394 C 1.14771 0.87432 0.65372
 N395 N 1.15816 0.91464 0.61424
 H396 H 1.10323 0.85086 0.66182
 N397 N 0.74115 0.39222 0.07214
 N398 N 0.70513 0.36264 0.10865
 C399 C 0.73045 0.34954 0.15633
 C400 C 0.67319 0.35212 0.12802
 N401 N 0.68066 0.38024 0.08285
 H402 H 0.62326 0.33726 0.14609
 N403 N 0.88786 0.93068 0.30539
 N404 N 0.85867 0.89478 0.27163
 C405 C 0.82928 0.84847 0.29853
 C406 C 0.84145 0.85708 0.35011
 N407 N 0.87818 0.90868 0.35247
 H408 H 0.82540 0.82937 0.38268
 N409 N 0.39589 0.29036 -0.09466
 N410 N 0.37393 0.25496 -0.13242
 C411 C 0.34416 0.29483 -0.16558
 C412 C 0.34869 0.35608 -0.14662
 N413 N 0.37940 0.35091 -0.10188
 H414 H 0.32978 0.40007 -0.16297
 N415 N 1.18832 0.34633 -0.07119
 N416 N 1.21798 0.30357 -0.10025
 C417 C 1.19492 0.31131 -0.14788
 C418 C 1.15218 0.36154 -0.14732
 N419 N 1.15012 0.38276 -0.09927
 H420 H 1.12275 0.37902 -0.17837
 N421 N 0.68305 0.83152 0.43300
 N422 N 0.71246 0.79085 0.40184
 C423 C 0.69635 0.80809 0.35391
 C424 C 0.65617 0.86121 0.35690
 N425 N 0.64938 0.87450 0.40683
 H426 H 0.63189 0.88577 0.32594
 N427 N 0.80663 0.58341 -0.11107
 N428 N 0.76588 0.61548 -0.13988
 C429 C 0.79209 0.67270 -0.15161
 C430 C 0.85163 0.67394 -0.12919
 N431 N 0.85845 0.61750 -0.10434
 H432 H 0.88894 0.70862 -0.13556
 N433 N 0.30572 1.17277 0.43564
 N434 N 0.27158 1.20649 0.40239
 C435 C 0.29406 1.19148 0.35546
 C436 C 0.34235 1.14714 0.36092
 N437 N 0.34823 1.13681 0.41129
 H438 H 0.37296 1.12741 0.33131
 N439 N 1.13068 0.70756 0.08681
 N440 N 1.17164 0.73741 0.11621
 C441 C 1.18904 0.69627 0.15383
 C442 C 1.15639 0.63963 0.14648
 N443 N 1.12074 0.64894 0.10433
 H444 H 1.15450 0.59815 0.17156
 N445 N 0.64071 1.21323 0.57811
 N446 N 0.67299 1.24798 0.61115
 C447 C 0.67067 1.21722 0.65662
 C448 C 0.63463 1.16216 0.65008
 N449 N 0.61800 1.16094 0.60041
 H450 H 0.62360 1.12552 0.67823
 N451 N 0.86543 0.37655 0.16113
 N452 N 0.87821 0.31951 0.13751
 C453 C 0.85493 0.25903 0.15239
 C454 C 0.89365 0.29086 0.11675
 N455 N 0.89750 0.35317 0.12160
 H456 H 0.92060 0.26111 0.08434
 N457 N 0.32833 0.81380 0.55997
 N458 N 0.29411 0.77732 0.59156
 C459 C 0.31655 0.78648 0.63920
 C460 C 0.36530 0.83095 0.63533
 N461 N 0.37068 0.84724 0.58572
 H462 H 0.39246 0.85166 0.66606
 N463 N 0.28538 1.14230 -0.07253
 N464 N 0.24688 1.17117 -0.10545
 C465 C 0.27114 1.16097 -0.15257
 C466 C 0.32552 1.12317 -0.14733
 N467 N 0.33316 1.11414 -0.09700
 H468 H 0.36027 1.11047 -0.17644
 N469 N 0.92267 0.69045 0.37331
 N470 N 0.88974 0.72506 0.34052
 C471 C 0.83026 0.70148 0.34005
 C472 C 0.82808 0.64955 0.37335
 N473 N 0.88693 0.64476 0.39315
 H474 H 0.78908 0.61705 0.38048
 N475 N 0.67420 1.18201 0.06760
 N476 N 0.71626 1.21059 0.09705
 C477 C 0.71210 1.18327 0.14380
 C478 C 0.66552 1.13623 0.14167
 N479 N 0.64277 1.13772 0.09372
 H480 H 0.64654 1.10778 0.17292
 N481 N 1.05871 0.69756 0.63951
 N482 N 1.09421 0.73481 0.66794
 C483 C 1.15581 0.71779 0.66026
 C484 C 1.15645 0.66687 0.62686
 N485 N 1.09518 0.65589 0.61517
 H486 H 1.19699 0.63825 0.61471
 N487 N 0.72686 0.90994 -0.09900
 N488 N 0.75882 0.87575 -0.13343
 C489 C 0.71924 0.83021 -0.15068
 C490 C 0.66125 0.83848 -0.12551
 N491 N 0.66824 0.88817 -0.09368
 H492 H 0.61681 0.81439 -0.13226
 N493 N 1.22278 0.39067 0.41463
 N494 N 1.25605 0.36035 0.37906
 C495 C 1.21368 0.33189 0.34852
 C496 C 1.15294 0.34604 0.36631
 N497 N 1.16107 0.38274 0.40764
 H498 H 1.10770 0.33182 0.35067
 N499 N 0.33623 0.79487 0.06831
 N500 N 0.30432 0.76530 0.10498
 C501 C 0.30246 0.80409 0.14608
 C502 C 0.33522 0.85962 0.13288
 N503 N 0.35527 0.85153 0.08402
 H504 H 0.34648 0.89974 0.15718
 N505 N 0.84092 0.28987 0.56751
 N506 N 0.80651 0.25952 0.60251
 C507 C 0.81820 0.28736 0.64784
 C508 C 0.86203 0.33574 0.63934
 N509 N 0.87501 0.33530 0.58890
 H510 H 0.88054 0.36936 0.66675
 N511 N 1.10263 1.21062 0.59359
 N512 N 1.13016 1.24590 0.62885
 C513 C 1.14764 1.20664 0.66763
 C514 C 1.12921 1.14555 0.65503
 N515 N 1.10212 1.15022 0.60859
 H516 H 1.13813 1.10144 0.67601
 N517 N 0.57575 0.57677 0.19243
 N518 N 0.60984 0.60707 0.22694
 C519 C 0.65019 0.64506 0.20081
 C520 C 0.63867 0.63785 0.14905
 N521 N 0.59131 0.59585 0.14557
 H522 H 0.66265 0.65993 0.11690
 N523 N 1.07289 0.82794 0.37239
 N524 N 1.10209 0.79527 0.33592
 C525 C 1.15802 0.82411 0.32577
 C526 C 1.16184 0.87665 0.35856
 N527 N 1.10805 0.87639 0.38755
 H528 H 1.19895 0.91218 0.36007
 N529 N 0.72589 0.44474 -0.12437
 N530 N 0.75331 0.41302 -0.16249
 C531 C 0.71424 0.36447 -0.17476
 C532 C 0.66242 0.36722 -0.14272
 N533 N 0.67183 0.41695 -0.11137
 H534 H 0.62124 0.33633 -0.14244
 N535 N 0.78713 1.12734 0.42027
 N536 N 0.75660 1.14935 0.37980
 C537 C 0.79931 1.16351 0.34286
 C538 C 0.85904 1.15030 0.36381
 N539 N 0.84912 1.12819 0.41228
 H540 H 0.90475 1.15375 0.34476
 N541 N 0.29161 0.56463 -0.12729
 N542 N 0.26202 0.59359 -0.16554
 C543 C 0.30398 0.63334 -0.18844
 C544 C 0.36144 0.62620 -0.16310
 N545 N 0.35092 0.58463 -0.12443
 H546 H 0.40586 0.65012 -0.17068
 N547 N 0.94503 0.80423 0.63887
 N548 N 0.91541 0.78016 0.67947
 C549 C 0.85313 0.79410 0.67403
 C550 C 0.84604 0.82609 0.62793
 N551 N 0.90407 0.83078 0.60658
 H552 H 0.80413 0.84991 0.61332
 N553 N 0.43748 0.29860 0.12875
 N554 N 0.41359 0.27253 0.17075
 C555 C 0.36021 0.30605 0.18202
 C556 C 0.35251 0.35378 0.14652
 N557 N 0.40021 0.34618 0.11336
 H558 H 0.31460 0.38908 0.14362
   
