data_POSCAR
  _audit_creation_date              2014-09-24
  _audit_creation_method            'ToBaCCo'
  _symmetry_space_group_name_H-M    'P1'
  _symmetry_Int_Tables_number       1
  _symmetry_cell_setting            triclinic
  loop_
  _symmetry_equiv_pos_as_xyz
 x,y,z
_cell_length_a 59.8281
_cell_length_b 59.8673
_cell_length_c 16.7213
_cell_angle_alpha 90.079100
_cell_angle_beta 90.000600
_cell_angle_gamma 119.892700
loop_
  _atom_site_label
  _atom_site_type_symbol
  _atom_site_fract_x
  _atom_site_fract_y
  _atom_site_fract_z
C1 C 0.22470 0.49102 0.46017
 C2 C 0.22496 0.49116 0.54473
 C3 C 0.24542 0.49122 0.58590
 C4 C 0.26563 0.49111 0.54385
 C5 C 0.26538 0.49104 0.45946
 C6 C 0.24498 0.49102 0.41828
 H7 H 0.24487 0.49087 0.35336
 H8 H 0.24555 0.49124 0.65085
 C9 C 0.50883 -0.26602 0.45824
 C10 C 0.50869 -0.26582 0.54264
 C11 C 0.50867 -0.24541 0.58373
 C12 C 0.50881 -0.22512 0.54162
 C13 C 0.50888 -0.22536 0.45721
 C14 C 0.50887 -0.24578 0.41614
 H15 H 0.50902 -0.24581 0.35123
 H16 H 0.50865 -0.24532 0.64865
 C17 C 1.26625 0.77541 0.45499
 C18 C 1.26602 0.77516 0.53941
 C19 C 1.24566 0.75477 0.58038
 C20 C 1.22546 0.73459 0.53818
 C21 C 1.22570 0.73479 0.45391
 C22 C 1.24606 0.75515 0.41281
 H23 H 1.24609 0.75523 0.34790
 H24 H 1.24548 0.75466 0.64526
 C25 C 0.77468 0.50884 0.46174
 C26 C 0.77462 0.50862 0.54615
 C27 C 0.75423 0.50849 0.58795
 C28 C 0.73394 0.50863 0.54645
 C29 C 0.73402 0.50881 0.46204
 C30 C 0.75436 0.50889 0.42035
 H31 H 0.75444 0.50911 0.35547
 H32 H 0.75422 0.50841 0.65289
 C33 C 0.49091 0.26581 0.46238
 C34 C 0.49104 0.26589 0.54679
 C35 C 0.49113 0.24561 0.58840
 C36 C 0.49105 0.22523 0.54672
 C37 C 0.49096 0.22521 0.46231
 C38 C 0.49092 0.24550 0.42080
 H39 H 0.49078 0.24541 0.35592
 H40 H 0.49114 0.24563 0.65335
 C41 C 0.73479 0.22547 0.45910
 C42 C 0.73481 0.22552 0.54337
 C43 C 0.75510 0.24581 0.58508
 C44 C 0.77542 0.26608 0.54352
 C45 C 0.77536 0.26603 0.45909
 C46 C 0.75503 0.24575 0.41750
 H47 H 0.75503 0.24568 0.35263
 H48 H 0.75508 0.24573 0.64999
 N49 N 0.97293 0.52604 0.08449
 N50 N 0.95332 0.53004 0.09491
 N51 N 1.02729 0.53779 0.13958
 N52 N 1.04700 0.55041 0.18847
 N53 N 1.02719 0.55320 0.08399
 N54 N 1.04684 0.57673 0.09353
 N55 N 0.97307 0.51064 0.14003
 N56 N 0.95359 0.50374 0.18972
 C57 C 0.94141 0.51599 0.16086
 C58 C 1.05902 0.57470 0.15903
 N59 N 1.02754 0.47424 0.08498
 N60 N 1.04708 0.47015 0.09570
 N61 N 0.97326 0.46266 0.14054
 N62 N 0.95372 0.45016 0.19002
 N63 N 0.97325 0.44708 0.08524
 N64 N 0.95369 0.42354 0.09557
 N65 N 1.02751 0.48983 0.14023
 N66 N 1.04701 0.49675 0.19000
 Mn67 Mn 1.00028 0.50023 0.14105
 C68 C 1.05908 0.48434 0.16150
 C69 C 0.94167 0.42575 0.16124
 N70 N 1.02709 0.55301 -0.08822
 N71 N 1.04657 0.57659 -0.09892
 N72 N 0.97280 0.51024 -0.14307
 N73 N 0.95310 0.50309 -0.19215
 N74 N 0.97280 0.52581 -0.08773
 N75 N 0.95310 0.52967 -0.09762
 N76 N 1.02708 0.53741 -0.14352
 N77 N 1.04653 0.54995 -0.19332
 Mn78 Mn 1.00000 0.53979 -0.00187
 C79 C 1.05855 0.57440 -0.16478
 C80 C 0.94098 0.51538 -0.16307
 N81 N 0.97304 0.44680 -0.08699
 N82 N 0.95348 0.42322 -0.09697
 N83 N 1.02719 0.48938 -0.14286
 N84 N 1.04687 0.49650 -0.19187
 N85 N 1.02730 0.47398 -0.08724
 N86 N 1.04706 0.47021 -0.09686
 N87 N 0.97296 0.46223 -0.14257
 N88 N 0.95335 0.44956 -0.19185
 Mn89 Mn 1.00028 0.46025 -0.00102
 Mn90 Mn 1.00001 0.49981 -0.14398
 Cl91 Cl 1.00014 0.50002 -0.00146
 C92 C 0.94135 0.42523 -0.16270
 C93 C 1.05909 0.48436 -0.16246
 N94 N 0.53724 0.51039 0.14211
 N95 N 0.54978 0.50339 0.19169
 N96 N 0.52562 0.55305 0.08648
 N97 N 0.52970 0.57666 0.09703
 N98 N 0.51007 0.53755 0.14177
 N99 N 0.50316 0.55018 0.19142
 N100 N 0.55279 0.52586 0.08680
 N101 N 0.57636 0.52981 0.09724
 C102 C 0.57419 0.51566 0.16297
 C103 C 0.51554 0.57458 0.16279
 N104 N 0.51028 0.53741 -0.14132
 N105 N 0.50315 0.54995 -0.19043
 N106 N 0.55292 0.52577 -0.08541
 N107 N 0.57650 0.52969 -0.09530
 N108 N 0.53744 0.51026 -0.14100
 N109 N 0.55008 0.50323 -0.19020
 N110 N 0.52574 0.55291 -0.08573
 N111 N 0.52955 0.57643 -0.09547
 Mn112 Mn 0.53955 0.53968 0.00052
 C113 C 0.51534 0.57429 -0.16111
 C114 C 0.57444 0.51550 -0.16097
 N115 N 0.46209 0.48952 0.14122
 N116 N 0.44950 0.49661 0.19032
 N117 N 0.47377 0.44684 0.08613
 N118 N 0.46977 0.42327 0.09655
 N119 N 0.48923 0.46238 0.14167
 N120 N 0.49617 0.44982 0.19134
 N121 N 0.44661 0.47401 0.08568
 N122 N 0.42304 0.47013 0.09547
 Mn123 Mn 0.49965 0.49996 0.14264
 C124 C 0.42515 0.48436 0.16105
 C125 C 0.48388 0.42542 0.16248
 N126 N 0.48937 0.46227 -0.14145
 N127 N 0.49648 0.44967 -0.19054
 N128 N 0.44664 0.47396 -0.08654
 N129 N 0.42305 0.46997 -0.09703
 N130 N 0.46219 0.48943 -0.14188
 N131 N 0.44960 0.49639 -0.19152
 N132 N 0.47384 0.44679 -0.08609
 N133 N 0.46996 0.42324 -0.09599
 Mn134 Mn 0.49982 0.49984 -0.14240
 Mn135 Mn 0.45993 0.46012 -0.00020
 Cl136 Cl 0.49974 0.49990 0.00013
 C137 C 0.48420 0.42532 -0.16146
 C138 C 0.42518 0.48410 -0.16283
 N139 N 0.44695 -0.02707 0.08558
 N140 N 0.42335 -0.04658 0.09594
 N141 N 0.48964 0.02710 0.14145
 N142 N 0.49666 0.04663 0.19110
 N143 N 0.47411 0.02719 0.08615
 N144 N 0.47014 0.04679 0.09667
 N145 N 0.46250 -0.02712 0.14088
 N146 N 0.44991 -0.04664 0.19035
 C147 C 0.42549 -0.05864 0.16160
 C148 C 0.48434 0.05876 0.16244
 N149 N 0.55323 0.02705 0.08539
 N150 N 0.57680 0.04660 0.09571
 N151 N 0.51059 -0.02715 0.14029
 N152 N 0.50351 -0.04681 0.18923
 N153 N 0.52608 -0.02717 0.08472
 N154 N 0.52996 -0.04685 0.09434
 N155 N 0.53772 0.02704 0.14095
 N156 N 0.55031 0.04656 0.19057
 Mn157 Mn 0.50012 -0.00003 0.14185
 C158 C 0.57470 0.05861 0.16164
 C159 C 0.51575 -0.05893 0.15985
 N160 N 0.47410 0.02735 -0.08606
 N161 N 0.47014 0.04698 -0.09586
 N162 N 0.46248 -0.02685 -0.14223
 N163 N 0.44993 -0.04647 -0.19150
 N164 N 0.44698 -0.02687 -0.08664
 N165 N 0.42345 -0.04651 -0.09656
 N166 N 0.48960 0.02734 -0.14164
 N167 N 0.49659 0.04696 -0.19076
 Mn168 Mn 0.46026 0.00015 -0.00025
 C169 C 0.48429 0.05906 -0.16149
 C170 C 0.42559 -0.05856 -0.16230
 N171 N 0.52602 -0.02714 -0.08750
 N172 N 0.53004 -0.04672 -0.09816
 N173 N 0.53764 0.02719 -0.14214
 N174 N 0.55020 0.04681 -0.19125
 N175 N 0.55317 0.02712 -0.08682
 N176 N 0.57673 0.04670 -0.09677
 N177 N 0.51050 -0.02704 -0.14282
 N178 N 0.50354 -0.04655 -0.19261
 Mn179 Mn 0.53991 -0.00003 -0.00105
 Mn180 Mn 0.50005 0.00016 -0.14318
 Cl181 Cl 0.50008 0.00006 -0.00066
 C182 C 0.51588 -0.05868 -0.16403
 C183 C 0.57459 0.05881 -0.16222
 C184 C 1.11528 0.47340 0.20146
 C185 C 1.12597 0.48830 0.27037
 C186 C 1.11497 0.50215 0.30293
 C187 C 1.09329 0.50099 0.26713
 C188 C 1.20487 0.49065 0.41803
 C189 C 1.09358 0.47222 0.16554
 C190 C 1.14791 0.48905 0.30870
 C191 C 1.16609 0.48963 0.34195
 C192 C 1.18714 0.49023 0.38227
 C193 C 1.08231 0.48592 0.19829
 H194 H 1.12361 0.46258 0.17576
 H195 H 1.12305 0.51372 0.35627
 H196 H 1.08506 0.51179 0.29361
 H197 H 1.08556 0.46049 0.11249
 C198 C 0.49775 0.61288 0.30362
 C199 C 0.51152 0.63761 0.27076
 C200 C 0.52637 0.64167 0.20187
 C201 C 0.52758 0.62112 0.16628
 C202 C 0.50918 0.71444 0.41666
 C203 C 0.49892 0.59232 0.26815
 C204 C 0.51075 0.65885 0.30870
 C205 C 0.51017 0.67651 0.34155
 C206 C 0.50958 0.69705 0.38135
 C207 C 0.51394 0.59626 0.19932
 H208 H 0.48621 0.60951 0.35696
 H209 H 0.53713 0.66073 0.17593
 H210 H 0.53926 0.62471 0.11323
 H211 H 0.48818 0.57338 0.29485
 C212 C 0.38728 -0.11471 0.30172
 C213 C 0.36252 -0.12565 0.26866
 C214 C 0.35843 -0.11484 0.19989
 C215 C 0.37896 -0.09310 0.16461
 C216 C 0.28575 -0.20475 0.41352
 C217 C 0.40782 -0.09298 0.26655
 C218 C 0.34130 -0.14765 0.30628
 C219 C 0.32365 -0.16588 0.33886
 C220 C 0.30312 -0.18698 0.37839
 C221 C 0.40384 -0.08189 0.19784
 H222 H 0.39068 -0.12288 0.35497
 H223 H 0.33936 -0.12312 0.17380
 H224 H 0.37533 -0.08500 0.11164
 H225 H 0.42677 -0.08480 0.29339
 C226 C 0.88499 0.52659 0.19989
 C227 C 0.87438 0.51180 0.26889
 C228 C 0.88550 0.49813 0.30179
 C229 C 0.90723 0.49936 0.26625
 C230 C 0.79554 0.50928 0.41673
 C231 C 0.90674 0.52784 0.16422
 C232 C 0.85243 0.51101 0.30705
 C233 C 0.83425 0.51040 0.34030
 C234 C 0.81323 0.50975 0.38075
 C235 C 0.91814 0.51433 0.19734
 H236 H 0.87655 0.53727 0.17396
 H237 H 0.87747 0.48665 0.35523
 H238 H 0.91557 0.48871 0.29299
 H239 H 0.91471 0.53948 0.11109
 C240 C 0.50180 0.38738 0.30332
 C241 C 0.48809 0.36263 0.27032
 C242 C 0.47326 0.35847 0.20129
 C243 C 0.47200 0.37896 0.16570
 C244 C 0.49052 0.28626 0.41756
 C245 C 0.50057 0.40787 0.26786
 C246 C 0.48888 0.34147 0.30838
 C247 C 0.48947 0.32390 0.34149
 C248 C 0.49009 0.30350 0.38175
 C249 C 0.48555 0.40383 0.19892
 H250 H 0.51331 0.39081 0.35678
 H251 H 0.46255 0.33939 0.17529
 H252 H 0.46033 0.37530 0.11255
 H253 H 0.51124 0.42682 0.29466
 C254 C 0.64166 0.11493 0.19976
 C255 C 0.63759 0.12568 0.26878
 C256 C 0.61288 0.11469 0.30205
 C257 C 0.59235 0.09294 0.26683
 C258 C 0.71425 0.20463 0.41467
 C259 C 0.62115 0.09317 0.16443
 C260 C 0.65879 0.14767 0.30654
 C261 C 0.67643 0.16587 0.33934
 C262 C 0.69692 0.18692 0.37919
 C263 C 0.59632 0.08189 0.19789
 H264 H 0.66071 0.12327 0.17355
 H265 H 0.60951 0.12283 0.35551
 H266 H 0.57342 0.08469 0.29382
 H267 H 0.62474 0.08509 0.11126
 C268 C 0.47378 0.11561 -0.19802
 C269 C 0.48862 0.12643 -0.26682
 C270 C 0.50231 0.11541 -0.30045
 C271 C 0.50104 0.09356 -0.26581
 C272 C 0.49080 0.20551 -0.41135
 C273 C 0.47249 0.09375 -0.16328
 C274 C 0.48940 0.14848 -0.30406
 C275 C 0.48995 0.16673 -0.33647
 C276 C 0.49047 0.18781 -0.37600
 C277 C 0.48602 0.08245 -0.19711
 H278 H 0.46308 0.12396 -0.17155
 H279 H 0.51382 0.12360 -0.35375
 H280 H 0.51170 0.08530 -0.29308
 H281 H 0.46080 0.08562 -0.11029
 C282 C 0.61282 0.49738 -0.30015
 C283 C 0.63749 0.51106 -0.26654
 C284 C 0.64148 0.52592 -0.19768
 C285 C 0.62090 0.52725 -0.16286
 C286 C 0.71445 0.50886 -0.41146
 C287 C 0.59223 0.49868 -0.26544
 C288 C 0.65877 0.51026 -0.30387
 C289 C 0.67648 0.50970 -0.33636
 C290 C 0.69706 0.50918 -0.37599
 C291 C 0.59611 0.51373 -0.19668
 H292 H 0.60952 0.48585 -0.35350
 H293 H 0.66050 0.53661 -0.17122
 H294 H 0.62444 0.53895 -0.10983
 H295 H 0.57334 0.48803 -0.29269
 C296 C 0.88501 0.35823 -0.19999
 C297 C 0.87415 0.36221 -0.26884
 C298 C 0.88507 0.38688 -0.30223
 C299 C 0.90686 0.40744 -0.26733
 C300 C 0.79516 0.28550 -0.41441
 C301 C 0.90682 0.37878 -0.16497
 C302 C 0.85214 0.34097 -0.30635
 C303 C 0.83392 0.32332 -0.33903
 C304 C 0.81286 0.30282 -0.37885
 C305 C 0.91802 0.40357 -0.19857
 H306 H 0.87673 0.33921 -0.17370
 H307 H 0.87684 0.39018 -0.35556
 H308 H 0.91504 0.42633 -0.29442
 H309 H 0.91499 0.37526 -0.11195
 C310 C 0.49791 -0.11479 -0.30482
 C311 C 0.51160 -0.12588 -0.27175
 C312 C 0.52646 -0.11515 -0.20279
 C313 C 0.52774 -0.09335 -0.16732
 C314 C 0.50913 -0.20523 -0.41686
 C315 C 0.49917 -0.09300 -0.26946
 C316 C 0.51075 -0.14795 -0.30952
 C317 C 0.51014 -0.16624 -0.34215
 C318 C 0.50953 -0.18742 -0.38171
 C319 C 0.51420 -0.08199 -0.20055
 H320 H 0.48638 -0.12290 -0.35821
 H321 H 0.53715 -0.12355 -0.17668
 H322 H 0.53943 -0.08532 -0.11421
 H323 H 0.48850 -0.08470 -0.29630
 C324 C 0.35814 0.47359 -0.20103
 C325 C 0.36218 0.48840 -0.26994
 C326 C 0.38690 0.50204 -0.30315
 C327 C 0.40746 0.50077 -0.26800
 C328 C 0.28520 0.49081 -0.41458
 C329 C 0.37868 0.47230 -0.16578
 C330 C 0.34093 0.48925 -0.30752
 C331 C 0.32323 0.48985 -0.34002
 C332 C 0.30263 0.49043 -0.37946
 C333 C 0.40353 0.48579 -0.19915
 H334 H 0.33909 0.46294 -0.17482
 H335 H 0.39027 0.51354 -0.35651
 H336 H 0.42639 0.51140 -0.29494
 H337 H 0.37509 0.46065 -0.11270
 C338 C 1.11470 0.64139 -0.20387
 C339 C 1.12544 0.63725 -0.27283
 C340 C 1.11446 0.61248 -0.30577
 C341 C 1.09277 0.59198 -0.27029
 C342 C 1.20450 0.71397 -0.41802
 C343 C 1.09300 0.62090 -0.16829
 C344 C 1.14741 0.65843 -0.31069
 C345 C 1.16563 0.67606 -0.34340
 C346 C 1.18673 0.69659 -0.38296
 C347 C 1.08176 0.59601 -0.20139
 H348 H 1.12302 0.66047 -0.17787
 H349 H 1.12257 0.60904 -0.35914
 H350 H 1.08456 0.57301 -0.29703
 H351 H 1.08496 0.62456 -0.11519
 C352 C 0.88440 0.49705 -0.30168
 C353 C 0.87340 0.51074 -0.26800
 C354 C 0.88428 0.52566 -0.19929
 C355 C 0.90621 0.52704 -0.16468
 C356 C 0.79431 0.50876 -0.41201
 C357 C 0.90632 0.49840 -0.26717
 C358 C 0.85132 0.50994 -0.30514
 C359 C 0.83306 0.50943 -0.33742
 C360 C 0.81200 0.50900 -0.37677
 C361 C 0.91751 0.51352 -0.19858
 H362 H 0.87615 0.48548 -0.35494
 H363 H 0.87593 0.53636 -0.17281
 H364 H 0.91440 0.53879 -0.11176
 H365 H 0.91460 0.48776 -0.29444
 C366 C 0.47388 0.35839 -0.19790
 C367 C 0.48877 0.36236 -0.26658
 C368 C 0.50245 0.38699 -0.30017
 C369 C 0.50112 0.40756 -0.26558
 C370 C 0.49083 0.28538 -0.41119
 C371 C 0.47252 0.37895 -0.16321
 C372 C 0.48956 0.34109 -0.30381
 C373 C 0.49009 0.32337 -0.33623
 C374 C 0.49055 0.30278 -0.37578
 C375 C 0.48603 0.40370 -0.19701
 H376 H 0.46319 0.33940 -0.17150
 H377 H 0.51400 0.39026 -0.35340
 H378 H 0.51176 0.42643 -0.29279
 H379 H 0.46079 0.37544 -0.11031
 C380 C 0.61278 0.11511 -0.30110
 C381 C 0.63747 0.12601 -0.26766
 C382 C 0.64153 0.11514 -0.19901
 C383 C 0.62100 0.09334 -0.16421
 C384 C 0.71428 0.20477 -0.41230
 C385 C 0.59224 0.09332 -0.26641
 C386 C 0.65870 0.14797 -0.30498
 C387 C 0.67638 0.16614 -0.33745
 C388 C 0.69692 0.18713 -0.37700
 C389 C 0.59619 0.08215 -0.19787
 H390 H 0.60945 0.12335 -0.35430
 H391 H 0.66058 0.12342 -0.17272
 H392 H 0.62458 0.08516 -0.11133
 H393 H 0.57332 0.08513 -0.29350
 C394 C 1.11564 0.50269 -0.30074
 C395 C 1.12673 0.48914 -0.26683
 C396 C 1.11594 0.47434 -0.19803
 C397 C 1.09399 0.47292 -0.16355
 C398 C 1.20543 0.49102 -0.41247
 C399 C 1.09370 0.50131 -0.26636
 C400 C 1.14876 0.48991 -0.30403
 C401 C 1.16694 0.49040 -0.33660
 C402 C 1.18788 0.49080 -0.37654
 C403 C 1.08259 0.48628 -0.19771
 H404 H 1.12383 0.51417 -0.35409
 H405 H 1.12437 0.46374 -0.17143
 H406 H 1.08585 0.46125 -0.11056
 H407 H 1.08534 0.51184 -0.29381
 C408 C 0.52549 0.64109 -0.19721
 C409 C 0.51064 0.63705 -0.26605
 C410 C 0.49701 0.61241 -0.29981
 C411 C 0.49838 0.59189 -0.26524
 C412 C 0.50882 0.71373 -0.41207
 C413 C 0.52689 0.62059 -0.16253
 C414 C 0.50989 0.65827 -0.30344
 C415 C 0.50942 0.67593 -0.33614
 C416 C 0.50903 0.69642 -0.37616
 C417 C 0.51345 0.59583 -0.19654
 H418 H 0.53615 0.66011 -0.17073
 H419 H 0.48550 0.60910 -0.35319
 H420 H 0.48779 0.57301 -0.29257
 H421 H 0.53860 0.62415 -0.10951
 C422 C 0.35876 -0.11503 -0.19920
 C423 C 0.36285 -0.12582 -0.26807
 C424 C 0.38752 -0.11485 -0.30156
 C425 C 0.40802 -0.09304 -0.26672
 C426 C 0.28639 -0.20424 -0.41516
 C427 C 0.37926 -0.09320 -0.16424
 C428 C 0.34167 -0.14773 -0.30573
 C429 C 0.32405 -0.16584 -0.33870
 C430 C 0.30364 -0.18671 -0.37903
 C431 C 0.40404 -0.08193 -0.19799
 H432 H 0.33972 -0.12337 -0.17292
 H433 H 0.39086 -0.12305 -0.35495
 H434 H 0.42693 -0.08478 -0.29386
 H435 H 0.37567 -0.08506 -0.11121
 C436 C 0.49751 -0.11527 0.29845
 C437 C 0.51124 -0.12626 0.26498
 C438 C 0.52614 -0.11547 0.19630
 C439 C 0.52747 -0.09362 0.16151
 C440 C 0.50918 -0.20472 0.41186
 C441 C 0.49882 -0.09344 0.26379
 C442 C 0.51051 -0.14818 0.30251
 C443 C 0.51000 -0.16630 0.33544
 C444 C 0.50951 -0.18718 0.37575
 C445 C 0.51393 -0.08233 0.19527
 H446 H 0.48596 -0.12346 0.35169
 H447 H 0.53686 -0.12382 0.17003
 H448 H 0.53921 -0.08547 0.10864
 H449 H 0.48815 -0.08517 0.29092
 C450 C 0.35822 0.47392 0.19807
 C451 C 0.36229 0.48882 0.26687
 C452 C 0.38698 0.50257 0.30022
 C453 C 0.40753 0.50128 0.26533
 C454 C 0.28578 0.49078 0.41418
 C455 C 0.37875 0.47261 0.16306
 C456 C 0.34108 0.48952 0.30461
 C457 C 0.32346 0.49001 0.33767
 C458 C 0.30303 0.49047 0.37807
 C459 C 0.40356 0.48617 0.19670
 H460 H 0.33915 0.46318 0.17189
 H461 H 0.39032 0.51412 0.35355
 H462 H 0.42645 0.51197 0.29239
 H463 H 0.37517 0.46086 0.11010
 C464 C 1.11556 0.61301 0.29724
 C465 C 1.12645 0.63761 0.26348
 C466 C 1.11553 0.64157 0.19477
 C467 C 1.09364 0.62102 0.16024
 C468 C 1.20507 0.71435 0.40894
 C469 C 1.09369 0.59245 0.26282
 C470 C 1.14842 0.65886 0.30070
 C471 C 1.16657 0.67653 0.33330
 C472 C 1.18750 0.69703 0.37319
 C473 C 1.08245 0.59631 0.19427
 H474 H 1.12386 0.60977 0.35051
 H475 H 1.12380 0.66056 0.16828
 H476 H 1.08540 0.62451 0.10733
 H477 H 1.08550 0.57360 0.29017
 C478 C 0.47374 0.11512 0.20118
 C479 C 0.48861 0.12581 0.27009
 C480 C 0.50236 0.11479 0.30304
 C481 C 0.50113 0.09304 0.26762
 C482 C 0.49069 0.20444 0.41740
 C483 C 0.47247 0.09336 0.16564
 C484 C 0.48935 0.14773 0.30816
 C485 C 0.48987 0.16586 0.34127
 C486 C 0.49036 0.18681 0.38154
 C487 C 0.48606 0.08205 0.19881
 H488 H 0.46300 0.12350 0.17526
 H489 H 0.51391 0.12289 0.35644
 H490 H 0.51182 0.08475 0.29435
 H491 H 0.46076 0.08531 0.11258
 C492 C 0.64112 0.52618 0.20152
 C493 C 0.63699 0.51135 0.27039
 C494 C 0.61225 0.49766 0.30338
 C495 C 0.59174 0.49891 0.26804
 C496 C 0.71353 0.50914 0.41730
 C497 C 0.62062 0.52746 0.16605
 C498 C 0.65817 0.51059 0.30836
 C499 C 0.67578 0.51005 0.34139
 C500 C 0.69623 0.50951 0.38155
 C501 C 0.59577 0.51393 0.19927
 H502 H 0.66021 0.53688 0.17557
 H503 H 0.60885 0.48615 0.35674
 H504 H 0.57279 0.48825 0.29480
 H505 H 0.62426 0.53914 0.11302
 C506 C 0.88540 0.35889 0.19921
 C507 C 0.87463 0.36304 0.26803
 C508 C 0.88558 0.38776 0.30120
 C509 C 0.90732 0.40825 0.26607
 C510 C 0.79608 0.28650 0.41430
 C511 C 0.90715 0.37936 0.16396
 C512 C 0.85273 0.34187 0.30579
 C513 C 0.83460 0.32426 0.33864
 C514 C 0.81367 0.30380 0.37863
 C515 C 0.91839 0.40421 0.19735
 H516 H 0.87709 0.33982 0.17312
 H517 H 0.87742 0.39117 0.35453
 H518 H 0.91555 0.42719 0.29296
 H519 H 0.91525 0.37572 0.11096
   
