data_POSCAR
  _audit_creation_date              2014-09-24
  _audit_creation_method            'ToBaCCo'
  _symmetry_space_group_name_H-M    'P1'
  _symmetry_Int_Tables_number       1
  _symmetry_cell_setting            triclinic
  loop_
  _symmetry_equiv_pos_as_xyz
 x,y,z
_cell_length_a 28.9375
_cell_length_b 28.9715
_cell_length_c 36.2758
_cell_angle_alpha 89.912200
_cell_angle_beta 90.006400
_cell_angle_gamma 90.275800
loop_
  _atom_site_label
  _atom_site_type_symbol
  _atom_site_fract_x
  _atom_site_fract_y
  _atom_site_fract_z
Si1 Si 1.24844 0.25294 0.24998
 Si2 Si 0.74910 -0.24896 0.25148
 Si3 Si 0.74851 0.24941 -0.24995
 Si4 Si 1.24568 -0.25251 -0.24854
 Si5 Si 0.25185 0.25055 0.74895
 Si6 Si 0.74968 0.75216 0.74902
 Si7 Si 0.74915 0.24568 0.25049
 Si8 Si 0.24864 0.74872 0.24788
 O9 O 1.07976 0.02620 0.04569
 O10 O 0.92125 -0.02151 0.04627
 O11 O 0.97703 0.08114 0.04258
 O12 O 1.02415 -0.07679 0.04956
 O13 O 0.91323 0.05475 0.02312
 O14 O 1.08807 -0.05257 0.02839
 O15 O 0.94647 -0.08637 0.02871
 O16 O 1.05464 0.08833 0.02240
 C17 C 1.07379 0.06815 0.04863
 C18 C 0.92623 -0.06297 0.05254
 C19 C 0.93525 0.07570 0.04756
 C20 C 1.06606 -0.07106 0.05411
 O21 O 1.08019 -0.02754 -0.04401
 O22 O 0.92248 0.02127 -0.04696
 O23 O 1.02617 0.07568 -0.04861
 O24 O 0.97673 -0.08200 -0.04241
 O25 O 0.91294 -0.05498 -0.02389
 O26 O 1.08930 0.05090 -0.02662
 O27 O 1.05394 -0.08967 -0.02128
 O28 O 0.94825 0.08605 -0.02911
 Co29 Co 1.07629 -0.00074 0.00081
 Co30 Co 0.92552 -0.00016 -0.00031
 Co31 Co 1.00142 0.07474 -0.00286
 Co32 Co 1.00036 -0.07572 0.00335
 O33 O 1.00088 -0.00047 0.00024
 C34 C 1.07349 -0.06937 -0.04736
 C35 C 0.92761 0.06284 -0.05301
 C36 C 1.06806 0.06970 -0.05249
 C37 C 0.93514 -0.07620 -0.04796
 O38 O 1.08761 0.55208 0.52437
 O39 O 0.91155 0.45074 0.52879
 O40 O 0.94740 0.59074 0.52020
 O41 O 1.05246 0.41180 0.52600
 O42 O 0.92104 0.52945 0.54401
 O43 O 1.07745 0.47578 0.54542
 O44 O 0.97528 0.42328 0.54834
 O45 O 1.02438 0.58096 0.54276
 C46 C 1.06566 0.57341 0.54855
 C47 C 0.93373 0.43047 0.55358
 C48 C 0.92688 0.57149 0.54625
 C49 C 1.07239 0.43410 0.55068
 O50 O 1.08497 0.44479 0.47390
 O51 O 0.91364 0.55233 0.47072
 O52 O 1.05604 0.58629 0.47233
 O53 O 0.94321 0.41126 0.47916
 O54 O 0.91925 0.47308 0.45513
 O55 O 1.07818 0.52157 0.45277
 O56 O 1.02031 0.41840 0.45581
 O57 O 0.97837 0.57694 0.45061
 Co58 Co 1.07432 0.49869 0.49914
 Co59 Co 0.92424 0.50125 0.49961
 Co60 Co 1.00140 0.57545 0.49677
 Co61 Co 0.99808 0.42440 0.50202
 O62 O 0.99950 0.49995 0.49943
 C63 C 1.06183 0.42445 0.44974
 C64 C 0.93654 0.57116 0.44557
 C65 C 1.07494 0.56343 0.44753
 C66 C 0.92393 0.43092 0.45284
 O67 O 0.57296 0.02618 0.54611
 O68 O 0.41581 -0.02713 0.54326
 O69 O 0.47132 0.07742 0.54309
 O70 O 0.51786 -0.08062 0.54812
 O71 O 0.40796 0.04934 0.52325
 O72 O 0.58222 -0.05246 0.53011
 O73 O 0.44103 -0.09106 0.52431
 O74 O 0.54911 0.08761 0.52160
 C75 C 0.56823 0.06830 0.54816
 C76 C 0.42040 -0.06881 0.54857
 C77 C 0.42955 0.07083 0.54774
 C78 C 0.55919 -0.07289 0.55436
 O79 O 0.57736 -0.02904 0.45702
 O80 O 0.41958 0.02016 0.45108
 O81 O 0.51963 0.07479 0.45167
 O82 O 0.47504 -0.08418 0.45461
 O83 O 0.41038 -0.05710 0.47154
 O84 O 0.58345 0.04949 0.47263
 O85 O 0.55161 -0.09153 0.47932
 O86 O 0.44165 0.08405 0.47262
 Co87 Co 0.57116 -0.00153 0.50135
 Co88 Co 0.42125 -0.00354 0.49738
 Co89 Co 0.49547 0.07267 0.49747
 Co90 Co 0.49629 -0.07858 0.50135
 O91 O 0.49607 -0.00281 0.49941
 C92 C 0.57235 -0.07107 0.45401
 C93 C 0.42353 0.06217 0.44689
 C94 C 0.56147 0.06865 0.44719
 C95 C 0.43362 -0.07826 0.44801
 O96 O 0.58030 0.52461 0.04788
 O97 O 0.42152 0.47719 0.04425
 O98 O 0.47548 0.57890 0.04553
 O99 O 0.52533 0.42148 0.04758
 O100 O 0.41309 0.55387 0.02246
 O101 O 0.58921 0.44702 0.02741
 O102 O 0.44780 0.41304 0.02597
 O103 O 0.55418 0.58770 0.02696
 C104 C 0.57320 0.56615 0.05249
 C105 C 0.42732 0.43571 0.05014
 C106 C 0.43323 0.57387 0.04835
 C107 C 0.56712 0.42767 0.05257
 O108 O 0.58323 0.47572 -0.04370
 O109 O 0.42545 0.52359 -0.04828
 O110 O 0.52853 0.57924 -0.04498
 O111 O 0.47923 0.42090 -0.04506
 O112 O 0.41499 0.44597 -0.02630
 O113 O 0.59113 0.55373 -0.02287
 O114 O 0.55575 0.41246 -0.02349
 O115 O 0.45023 0.58714 -0.02696
 Co116 Co 0.57790 0.50029 0.00200
 Co117 Co 0.42693 0.50012 -0.00181
 Co118 Co 0.50211 0.57530 0.00022
 Co119 Co 0.50197 0.42490 0.00120
 O120 O 0.50227 0.50013 0.00040
 C121 C 0.57652 0.43399 -0.04835
 C122 C 0.43146 0.56551 -0.05266
 C123 C 0.57044 0.57310 -0.04868
 C124 C 0.43761 0.42593 -0.05066
 C125 C 1.15959 0.17275 0.16456
 C126 C 1.16372 0.22106 0.16257
 C127 C 1.18982 0.24445 0.18884
 C128 C 1.21237 0.22009 0.21676
 C129 C 1.20725 0.17206 0.21826
 N130 N 1.18155 0.14981 0.19229
 C131 C 1.13422 0.14599 0.13618
 N132 N 1.14461 0.10058 0.13132
 C133 C 1.12477 0.07455 0.10439
 C134 C 1.09296 0.09443 0.07994
 C135 C 1.08054 0.14063 0.08521
 C136 C 1.10066 0.16636 0.11341
 H137 H 1.19300 0.28164 0.18694
 H138 H 1.22352 0.15217 0.23984
 H139 H 1.13485 0.03880 0.10149
 H140 H 1.05538 0.15697 0.06740
 H141 H 1.14832 0.24081 0.14051
 H142 H 1.08982 0.20170 0.11707
 C143 C 1.15969 0.65881 0.66982
 C144 C 1.18832 0.63620 0.69528
 C145 C 1.21299 0.66215 0.72114
 C146 C 1.20975 0.71035 0.72104
 C147 C 1.17952 0.73142 0.69610
 N148 N 1.15554 0.70551 0.67143
 C149 C 1.13485 0.63361 0.64058
 N150 N 1.09309 0.64951 0.62904
 C151 C 1.06975 0.62993 0.60052
 C152 C 1.08925 0.59308 0.58098
 C153 C 1.13224 0.57610 0.59240
 C154 C 1.15497 0.59598 0.62240
 H155 H 1.23467 0.64443 0.74076
 H156 H 1.17553 0.76853 0.69575
 H157 H 1.03667 0.64406 0.59248
 H158 H 1.14837 0.54770 0.57798
 H159 H 1.19147 0.59898 0.69527
 H160 H 1.18863 0.58320 0.63034
 C161 C 0.65817 0.17328 0.66277
 C162 C 0.65371 0.22121 0.66808
 C163 C 0.68070 0.24336 0.69459
 C164 C 0.71149 0.21816 0.71632
 C165 C 0.71492 0.17056 0.71063
 N166 N 0.68861 0.14965 0.68435
 C167 C 0.63211 0.14746 0.63391
 N168 N 0.63767 0.10083 0.63173
 C169 C 0.61686 0.07466 0.60534
 C170 C 0.58876 0.09542 0.57859
 C171 C 0.58177 0.14318 0.58057
 C172 C 0.60322 0.16927 0.60801
 H173 H 0.67757 0.28034 0.69810
 H174 H 0.73900 0.15005 0.72639
 H175 H 0.62305 0.03786 0.60491
 H176 H 0.56012 0.16055 0.56058
 H177 H 0.63017 0.24203 0.65220
 H178 H 0.59738 0.20599 0.60798
 C179 C 0.65740 0.66916 0.16944
 C180 C 0.65465 0.71758 0.17121
 C181 C 0.68173 0.74151 0.19652
 C182 C 0.71154 0.71762 0.21995
 C183 C 0.71368 0.66951 0.21748
 N184 N 0.68699 0.64677 0.19251
 C185 C 0.63179 0.64204 0.14148
 N186 N 0.64638 0.59851 0.13356
 C187 C 0.62691 0.57262 0.10641
 C188 C 0.59126 0.59095 0.08480
 C189 C 0.57441 0.63487 0.09339
 C190 C 0.59413 0.66029 0.12190
 H191 H 0.67995 0.77884 0.19741
 H192 H 0.73698 0.64999 0.23470
 H193 H 0.64050 0.53860 0.10083
 H194 H 0.54621 0.64975 0.07781
 H195 H 0.63322 0.73731 0.15266
 H196 H 0.57993 0.69382 0.12804
 C197 C 0.83267 -0.15573 0.17119
 C198 C 0.80591 -0.13482 0.19888
 C199 C 0.78101 -0.16242 0.22349
 C200 C 0.78342 -0.21051 0.22102
 C201 C 0.81091 -0.23011 0.19357
 N202 N 0.83446 -0.20266 0.16968
 C203 C 0.85828 -0.12911 0.14282
 N204 N 0.88867 -0.15220 0.12098
 C205 C 0.91165 -0.13156 0.09275
 C206 C 0.90417 -0.08486 0.08478
 C207 C 0.87375 -0.05998 0.10725
 C208 C 0.85061 -0.08192 0.13615
 H209 H 0.75964 -0.14600 0.24402
 H210 H 0.81327 -0.26722 0.19081
 H211 H 0.93512 -0.15189 0.07624
 H212 H 0.86691 -0.02385 0.10190
 H213 H 0.80387 -0.09781 0.20183
 H214 H 0.82616 -0.06210 0.15199
 C215 C 0.83632 0.34156 0.67194
 C216 C 0.80196 0.36203 0.69374
 C217 C 0.77663 0.33484 0.71834
 C218 C 0.78574 0.28759 0.72143
 C219 C 0.82079 0.26857 0.69974
 N220 N 0.84503 0.29567 0.67593
 C221 C 0.86193 0.36796 0.64360
 N222 N 0.90552 0.35471 0.63444
 C223 C 0.92984 0.37540 0.60686
 C224 C 0.90969 0.41075 0.58589
 C225 C 0.86498 0.42522 0.59505
 C226 C 0.84109 0.40412 0.62395
 H227 H 0.74917 0.35062 0.73405
 H228 H 0.82829 0.23204 0.70119
 H229 H 0.96423 0.36314 0.60057
 H230 H 0.84821 0.45232 0.57948
 H231 H 0.79447 0.39850 0.69169
 H232 H 0.80605 0.41479 0.62974
 C233 C 0.32756 -0.16207 0.66766
 C234 C 0.28493 -0.14665 0.68135
 C235 C 0.26117 -0.17329 0.70724
 C236 C 0.27986 -0.21486 0.71989
 C237 C 0.32236 -0.22922 0.70558
 N238 N 0.34475 -0.20296 0.68002
 C239 C 0.35276 -0.13647 0.63852
 N240 N 0.38044 -0.16021 0.61490
 C241 C 0.40300 -0.13934 0.58646
 C242 C 0.39817 -0.09174 0.58043
 C243 C 0.37099 -0.06637 0.60512
 C244 C 0.34833 -0.08852 0.63415
 H245 H 0.22765 -0.16181 0.71666
 H246 H 0.33748 -0.26153 0.71405
 H247 H 0.42417 -0.16004 0.56835
 H248 H 0.36688 -0.02947 0.60182
 H249 H 0.26910 -0.11534 0.67126
 H250 H 0.32783 -0.06813 0.65295
 C251 C 0.33689 0.34374 0.17093
 C252 C 0.29963 0.36346 0.19001
 C253 C 0.27439 0.33672 0.21490
 C254 C 0.28618 0.29056 0.22111
 C255 C 0.32360 0.27209 0.20176
 N256 N 0.34755 0.29868 0.17737
 C257 C 0.36238 0.36916 0.14178
 N258 N 0.38563 0.34457 0.11580
 C259 C 0.40758 0.36503 0.08691
 C260 C 0.40637 0.41314 0.08265
 C261 C 0.38393 0.43935 0.10968
 C262 C 0.36219 0.41761 0.13935
 H263 H 0.24450 0.35180 0.22798
 H264 H 0.33310 0.23633 0.20514
 H265 H 0.42505 0.34359 0.06693
 H266 H 0.38288 0.47666 0.10776
 H267 H 0.28842 0.39838 0.18475
 H268 H 0.34560 0.43877 0.15993
 C269 C 0.83139 0.15601 -0.16975
 C270 C 0.78424 0.14725 -0.17595
 C271 C 0.75988 0.17476 -0.20076
 C272 C 0.78250 0.21015 -0.21995
 C273 C 0.82956 0.21786 -0.21315
 N274 N 0.85247 0.19121 -0.18828
 C275 C 0.85765 0.13000 -0.14165
 N276 N 0.89122 0.15211 -0.12205
 C277 C 0.91479 0.13108 -0.09431
 C278 C 0.90498 0.08504 -0.08493
 C279 C 0.87174 0.06109 -0.10570
 C280 C 0.84792 0.08345 -0.13394
 H281 H 0.72320 0.16886 -0.20454
 H282 H 0.84782 0.24582 -0.22662
 H283 H 0.94066 0.15054 -0.07929
 H284 H 0.86341 0.02540 -0.09958
 H285 H 0.76590 0.12068 -0.16080
 H286 H 0.82218 0.06450 -0.14950
 C287 C 0.84204 0.66136 0.32673
 C288 C 0.86282 0.69314 0.30238
 C289 C 0.83519 0.71915 0.27878
 C290 C 0.78718 0.71359 0.27932
 C291 C 0.76768 0.68145 0.30357
 N292 N 0.79518 0.65660 0.32641
 C293 C 0.86847 0.63536 0.35485
 N294 N 0.84433 0.61335 0.38194
 C295 C 0.86528 0.59122 0.41033
 C296 C 0.91358 0.59112 0.41303
 C297 C 0.93939 0.61213 0.38486
 C298 C 0.91707 0.63400 0.35563
 H299 H 0.85142 0.74446 0.26100
 H300 H 0.73058 0.67677 0.30493
 H301 H 0.84409 0.57495 0.43126
 H302 H 0.97682 0.61221 0.38569
 H303 H 0.89961 0.69942 0.30207
 H304 H 0.93804 0.64972 0.33440
 C305 C 0.33358 0.16076 0.33027
 C306 C 0.33421 0.15063 0.29243
 C307 C 0.30910 0.17839 0.26804
 C308 C 0.28298 0.21542 0.28143
 C309 C 0.28313 0.22393 0.31943
 N310 N 0.30834 0.19710 0.34243
 C311 C 0.35989 0.13406 0.35773
 N312 N 0.37567 0.15651 0.38816
 C313 C 0.39734 0.13436 0.41615
 C314 C 0.40297 0.08634 0.41508
 C315 C 0.38732 0.06230 0.38387
 C316 C 0.36602 0.08613 0.35493
 H317 H 0.30963 0.17055 0.23889
 H318 H 0.26353 0.25179 0.33122
 H319 H 0.40890 0.15422 0.43969
 H320 H 0.39105 0.02518 0.38207
 H321 H 0.35442 0.12228 0.28178
 H322 H 0.35302 0.06709 0.33144
 C323 C 0.33844 0.66606 -0.16623
 C324 C 0.31048 0.70202 -0.15358
 C325 C 0.28290 0.72597 -0.17834
 C326 C 0.28341 0.71479 -0.21588
 C327 C 0.31221 0.67878 -0.22761
 N328 N 0.33833 0.65512 -0.20272
 C329 C 0.36715 0.64015 -0.13988
 N330 N 0.36626 0.59313 -0.13963
 C331 C 0.38804 0.56815 -0.11295
 C332 C 0.41186 0.59077 -0.08439
 C333 C 0.41483 0.63911 -0.08539
 C334 C 0.39246 0.66381 -0.11292
 H335 H 0.26134 0.75319 -0.16771
 H336 H 0.31352 0.66905 -0.25635
 H337 H 0.38554 0.53086 -0.11343
 H338 H 0.43331 0.65802 -0.06424
 H339 H 0.30937 0.71098 -0.12461
 H340 H 0.39407 0.70117 -0.11272
 C341 C 1.15402 -0.16842 -0.16834
 C342 C 1.13645 -0.20935 -0.18385
 C343 C 1.16292 -0.23344 -0.20954
 C344 C 1.20631 -0.21654 -0.22010
 C345 C 1.22192 -0.17478 -0.20511
 N346 N 1.19580 -0.15212 -0.17989
 C347 C 1.12972 -0.14344 -0.13858
 N348 N 1.13957 -0.09794 -0.13318
 C349 C 1.12122 -0.07339 -0.10489
 C350 C 1.09181 -0.09498 -0.07931
 C351 C 1.08089 -0.14174 -0.08441
 C352 C 1.09967 -0.16606 -0.11397
 H353 H 1.15004 -0.26589 -0.22027
 H354 H 1.25561 -0.16112 -0.21226
 H355 H 1.13045 -0.03733 -0.10199
 H356 H 1.05830 -0.15966 -0.06531
 H357 H 1.10300 -0.22301 -0.17606
 H358 H 1.09193 -0.20247 -0.11653
 C359 C 1.15408 0.33770 0.32807
 C360 C 1.13471 0.30181 0.30691
 C361 C 1.16250 0.27760 0.28224
 C362 C 1.20932 0.28893 0.27863
 C363 C 1.22718 0.32548 0.29948
 N364 N 1.19962 0.34837 0.32352
 C365 C 1.12807 0.36186 0.35741
 N366 N 1.15250 0.38597 0.38312
 C367 C 1.13206 0.40708 0.41222
 C368 C 1.08409 0.40407 0.41704
 C369 C 1.05791 0.38063 0.39038
 C370 C 1.07965 0.35972 0.36045
 H371 H 1.14767 0.24902 0.26705
 H372 H 1.26337 0.33478 0.29763
 H373 H 1.15348 0.42537 0.43188
 H374 H 1.02066 0.37817 0.39279
 H375 H 1.09919 0.29093 0.31019
 H376 H 1.05847 0.34226 0.34025
 C377 C 0.66269 -0.17008 0.33829
 C378 C 0.64022 -0.20078 0.31429
 C379 C 0.66585 -0.22393 0.28761
 C380 C 0.71356 -0.21650 0.28496
 C381 C 0.73477 -0.18586 0.30955
 N382 N 0.70908 -0.16329 0.33507
 C383 C 0.63733 -0.14500 0.36710
 N384 N 0.65126 -0.10158 0.37622
 C385 C 0.63038 -0.07699 0.40330
 C386 C 0.59399 -0.09661 0.42360
 C387 C 0.57924 -0.14142 0.41482
 C388 C 0.60058 -0.16562 0.38639
 H389 H 0.64835 -0.24798 0.26953
 H390 H 0.77172 -0.17993 0.30853
 H391 H 0.64289 -0.04259 0.40944
 H392 H 0.55129 -0.15768 0.42995
 H393 H 0.60328 -0.20650 0.31587
 H394 H 0.58933 -0.20047 0.38031
 C395 C 0.66236 0.33410 -0.16617
 C396 C 0.63967 0.30215 -0.18907
 C397 C 0.66512 0.27710 -0.21482
 C398 C 0.71288 0.28394 -0.21771
 C399 C 0.73426 0.31614 -0.19449
 N400 N 0.70879 0.34038 -0.16979
 C401 C 0.63745 0.36024 -0.13753
 N402 N 0.65258 0.40328 -0.12824
 C403 C 0.63275 0.42818 -0.10075
 C404 C 0.59636 0.40919 -0.08006
 C405 C 0.58019 0.36496 -0.08923
 C406 C 0.60037 0.34053 -0.11807
 H407 H 0.64753 0.25202 -0.23192
 H408 H 0.77120 0.32193 -0.19590
 H409 H 0.64630 0.46214 -0.09441
 H410 H 0.55220 0.34909 -0.07388
 H411 H 0.60271 0.29670 -0.18725
 H412 H 0.58815 0.30600 -0.12409
 C413 C 1.17119 0.15857 -0.16792
 C414 C 1.21975 0.15729 -0.16939
 C415 C 1.24318 0.18457 -0.19493
 C416 C 1.21873 0.21331 -0.21885
 C417 C 1.17048 0.21418 -0.21658
 N418 N 1.14819 0.18719 -0.19144
 C419 C 1.14444 0.13201 -0.14009
 N420 N 1.09992 0.14439 -0.13308
 C421 C 1.07406 0.12374 -0.10637
 C422 C 1.09334 0.08905 -0.08425
 C423 C 1.13844 0.07456 -0.09180
 C424 C 1.16388 0.09544 -0.11987
 H425 H 1.28060 0.18367 -0.19567
 H426 H 1.15052 0.23656 -0.23427
 H427 H 1.03915 0.13559 -0.10159
 H428 H 1.15421 0.04726 -0.07577
 H429 H 1.23997 0.13672 -0.15058
 H430 H 1.19830 0.08288 -0.12521
 C431 C 1.16630 0.65622 0.32686
 C432 C 1.20504 0.63820 0.30856
 C433 C 1.22920 0.66563 0.28327
 C434 C 1.21506 0.71099 0.27600
 C435 C 1.17557 0.72729 0.29424
 N436 N 1.15288 0.70012 0.31899
 C437 C 1.14145 0.63034 0.35629
 N438 N 1.11615 0.65450 0.38131
 C439 C 1.09399 0.63388 0.41007
 C440 C 1.09675 0.58595 0.41517
 C441 C 1.12149 0.56008 0.38918
 C442 C 1.14374 0.58203 0.35973
 H443 H 1.25950 0.65133 0.27035
 H444 H 1.16322 0.76201 0.28960
 H445 H 1.07480 0.65509 0.42918
 H446 H 1.12400 0.52292 0.39180
 H447 H 1.21794 0.60406 0.31455
 H448 H 1.16220 0.56114 0.34000
 C449 C 0.65896 0.15550 0.32809
 C450 C 0.69073 0.13385 0.30459
 C451 C 0.71642 0.16049 0.27979
 C452 C 0.71050 0.20838 0.27859
 C453 C 0.67792 0.22859 0.30198
 N454 N 0.65310 0.20200 0.32574
 C455 C 0.63323 0.12960 0.35655
 N456 N 0.59002 0.14367 0.36605
 C457 C 0.56577 0.12353 0.39390
 C458 C 0.58568 0.08808 0.41489
 C459 C 0.63007 0.07289 0.40547
 C460 C 0.65381 0.09328 0.37615
 H461 H 0.74176 0.14378 0.26249
 H462 H 0.67297 0.26560 0.30199
 H463 H 0.53164 0.13632 0.40040
 H464 H 0.64663 0.04571 0.42109
 H465 H 0.69589 0.09689 0.30555
 H466 H 0.68856 0.08203 0.36994
 C467 C 0.67296 0.65793 -0.16687
 C468 C 0.72146 0.65632 -0.16979
 C469 C 0.74392 0.68340 -0.19614
 C470 C 0.71853 0.71200 -0.21956
 C471 C 0.67036 0.71259 -0.21616
 N472 N 0.64913 0.68605 -0.19019
 C473 C 0.64696 0.63270 -0.13773
 N474 N 0.60204 0.64433 -0.13145
 C475 C 0.57641 0.62488 -0.10404
 C476 C 0.59621 0.59212 -0.08042
 C477 C 0.64190 0.57856 -0.08695
 C478 C 0.66722 0.59833 -0.11565
 H479 H 0.78131 0.68292 -0.19757
 H480 H 0.64959 0.73497 -0.23322
 H481 H 0.54108 0.63599 -0.10013
 H482 H 0.65817 0.55272 -0.06974
 H483 H 0.74242 0.63590 -0.15142
 H484 H 0.70212 0.58655 -0.12002
 C485 C 0.84043 -0.16424 -0.16877
 C486 C 0.86181 -0.18722 -0.19834
 C487 C 0.83478 -0.21145 -0.22372
 C488 C 0.78666 -0.21212 -0.22020
 C489 C 0.76645 -0.18765 -0.19121
 N490 N 0.79342 -0.16482 -0.16650
 C491 C 0.86697 -0.14036 -0.13930
 N492 N 0.84386 -0.11208 -0.11572
 C493 C 0.86488 -0.09069 -0.08685
 C494 C 0.91205 -0.09763 -0.08005
 C495 C 0.93676 -0.12622 -0.10411
 C496 C 0.91445 -0.14776 -0.13356
 H497 H 0.85172 -0.23011 -0.24564
 H498 H 0.72930 -0.18756 -0.18770
 H499 H 0.84459 -0.06871 -0.06906
 H500 H 0.97321 -0.13264 -0.09979
 H501 H 0.89882 -0.18693 -0.20211
 H502 H 0.93432 -0.17076 -0.15069
 C503 C 0.83587 0.32490 0.33826
 C504 C 0.83494 0.27632 0.33799
 C505 C 0.80943 0.25314 0.31114
 C506 C 0.78467 0.27789 0.28466
 C507 C 0.78579 0.32617 0.28591
 N508 N 0.81099 0.34816 0.31233
 C509 C 0.86119 0.35164 0.36686
 N510 N 0.85083 0.39710 0.37164
 C511 C 0.87115 0.42350 0.39814
 C512 C 0.90361 0.40405 0.42225
 C513 C 0.91579 0.35773 0.41724
 C514 C 0.89511 0.33158 0.38950
 H515 H 0.80859 0.21575 0.31131
 H516 H 0.76639 0.34650 0.26634
 H517 H 0.86111 0.45928 0.40088
 H518 H 0.94139 0.34167 0.43480
 H519 H 0.85250 0.25599 0.35861
 H520 H 0.90603 0.29626 0.38609
 C521 C 0.33933 -0.16919 0.32822
 C522 C 0.35979 -0.18865 0.29673
 C523 C 0.33239 -0.21318 0.27161
 C524 C 0.28481 -0.21879 0.27790
 C525 C 0.26554 -0.19694 0.30872
 N526 N 0.29283 -0.17341 0.33275
 C527 C 0.36609 -0.14415 0.35694
 N528 N 0.34260 -0.11702 0.38111
 C529 C 0.36358 -0.09487 0.40960
 C530 C 0.41118 -0.09992 0.41560
 C531 C 0.43639 -0.12720 0.39084
 C532 C 0.41405 -0.14941 0.36157
 H533 H 0.34864 -0.22707 0.24725
 H534 H 0.22888 -0.19860 0.31412
 H535 H 0.34281 -0.07402 0.42789
 H536 H 0.47318 -0.13210 0.39451
 H537 H 0.39626 -0.18467 0.29107
 H538 H 0.43411 -0.17143 0.34372
 C539 C 0.34431 0.33443 -0.17030
 C540 C 0.36531 0.30401 -0.19543
 C541 C 0.33799 0.27963 -0.22053
 C542 C 0.29006 0.28552 -0.22077
 C543 C 0.27034 0.31596 -0.19546
 N544 N 0.29752 0.33928 -0.17123
 C545 C 0.37046 0.35959 -0.14132
 N546 N 0.34601 0.38159 -0.11454
 C547 C 0.36662 0.40390 -0.08598
 C548 C 0.41488 0.40447 -0.08283
 C549 C 0.44099 0.38311 -0.11048
 C550 C 0.41905 0.36088 -0.13981
 H551 H 0.35434 0.25535 -0.23892
 H552 H 0.23328 0.32074 -0.19456
 H553 H 0.34518 0.42031 -0.06541
 H554 H 0.47838 0.38336 -0.10934
 H555 H 0.40204 0.29769 -0.19540
 H556 H 0.44034 0.34509 -0.16067
 C557 C 1.16272 -0.15650 0.17491
 C558 C 1.20415 -0.14002 0.19040
 C559 C 1.22907 -0.16800 0.21455
 C560 C 1.21247 -0.21197 0.22404
 C561 C 1.16972 -0.22622 0.20957
 N562 N 1.14645 -0.19867 0.18554
 C563 C 1.13779 -0.13075 0.14562
 N564 N 1.09223 -0.14010 0.13942
 C565 C 1.06815 -0.12037 0.11129
 C566 C 1.09032 -0.09002 0.08669
 C567 C 1.13706 -0.07954 0.09277
 C568 C 1.16084 -0.09970 0.12206
 H569 H 1.26207 -0.15564 0.22470
 H570 H 1.15592 -0.26015 0.21573
 H571 H 1.03211 -0.12942 0.10757
 H572 H 1.15552 -0.05636 0.07444
 H573 H 1.21784 -0.10628 0.18355
 H574 H 1.19730 -0.09227 0.12506
 C575 C 1.16381 0.34093 0.67009
 C576 C 1.19595 0.36231 0.69376
 C577 C 1.22131 0.33553 0.71845
 C578 C 1.21478 0.28770 0.71971
 C579 C 1.18245 0.26756 0.69594
 N580 N 1.15823 0.29425 0.67200
 C581 C 1.13815 0.36668 0.64128
 N582 N 1.11743 0.34224 0.61375
 C583 C 1.09519 0.36288 0.58519
 C584 C 1.09347 0.41114 0.58286
 C585 C 1.11330 0.43713 0.61139
 C586 C 1.13536 0.41515 0.64072
 H587 H 1.24698 0.35220 0.73559
 H588 H 1.17717 0.23054 0.69582
 H589 H 1.07988 0.34153 0.56395
 H590 H 1.11196 0.47448 0.61096
 H591 H 1.20306 0.39891 0.69261
 H592 H 1.14984 0.43625 0.66239
 C593 C 0.65565 -0.15902 0.67388
 C594 C 0.68652 -0.13684 0.69802
 C595 C 0.71345 -0.16321 0.72196
 C596 C 0.70955 -0.21137 0.72183
 C597 C 0.67756 -0.23216 0.69806
 N598 N 0.65165 -0.20584 0.67499
 C599 C 0.62945 -0.13320 0.64573
 N600 N 0.58732 -0.14923 0.63475
 C601 C 0.56319 -0.12925 0.60682
 C602 C 0.58226 -0.09190 0.58728
 C603 C 0.62541 -0.07461 0.59835
 C604 C 0.64893 -0.09488 0.62769
 H605 H 0.73814 -0.14596 0.73966
 H606 H 0.67401 -0.26935 0.69714
 H607 H 0.53003 -0.14368 0.59899
 H608 H 0.64134 -0.04595 0.58387
 H609 H 0.69016 -0.09964 0.69815
 H610 H 0.68287 -0.08198 0.63500
 C611 C 0.66905 0.33979 0.16883
 C612 C 0.71761 0.34196 0.17072
 C613 C 0.74107 0.31451 0.19606
 C614 C 0.71659 0.28491 0.21949
 C615 C 0.66834 0.28333 0.21681
 N616 N 0.64609 0.31035 0.19183
 C617 C 0.64230 0.36606 0.14093
 N618 N 0.59821 0.35246 0.13303
 C619 C 0.57256 0.37280 0.10612
 C620 C 0.59164 0.40844 0.08473
 C621 C 0.63624 0.42418 0.09326
 C622 C 0.66142 0.40357 0.12149
 H623 H 0.77848 0.31570 0.19687
 H624 H 0.64828 0.26002 0.23378
 H625 H 0.53806 0.35996 0.10057
 H626 H 0.65188 0.45221 0.07782
 H627 H 0.73781 0.36319 0.15221
 H628 H 0.69545 0.41704 0.12756
 C629 C 0.84029 0.16360 0.16804
 C630 C 0.86161 0.18784 0.19712
 C631 C 0.83447 0.21165 0.22252
 C632 C 0.78631 0.21076 0.21951
 C633 C 0.76617 0.18520 0.19099
 N634 N 0.79324 0.16278 0.16624
 C635 C 0.86683 0.13987 0.13855
 N636 N 0.84336 0.11279 0.11412
 C637 C 0.86436 0.09147 0.08529
 C638 C 0.91195 0.09716 0.07945
 C639 C 0.93703 0.12443 0.10440
 C640 C 0.91475 0.14591 0.13379
 H641 H 0.85135 0.23121 0.24405
 H642 H 0.72899 0.18389 0.18788
 H643 H 0.84377 0.07049 0.06681
 H644 H 0.97384 0.12977 0.10092
 H645 H 0.89864 0.18903 0.20054
 H646 H 0.93518 0.16761 0.15169
 C647 C 0.83706 0.67622 0.66031
 C648 C 0.83485 0.72473 0.66056
 C649 C 0.80903 0.74699 0.68761
 C650 C 0.78531 0.72136 0.71432
 C651 C 0.78772 0.67316 0.71307
 N652 N 0.81316 0.65210 0.68646
 C653 C 0.86271 0.65025 0.63159
 N654 N 0.85367 0.60435 0.62738
 C655 C 0.87441 0.57832 0.60102
 C656 C 0.90610 0.59852 0.57648
 C657 C 0.91690 0.64540 0.58081
 C658 C 0.89566 0.67127 0.60838
 H659 H 0.80720 0.78433 0.68747
 H660 H 0.76920 0.65216 0.73285
 H661 H 0.86539 0.54212 0.59883
 H662 H 0.94179 0.66211 0.56284
 H663 H 0.85169 0.74564 0.63983
 H664 H 0.90543 0.70711 0.61127
 C665 C 0.33243 0.16199 0.66436
 C666 C 0.30051 0.14035 0.68794
 C667 C 0.27694 0.16661 0.71400
 C668 C 0.28517 0.21414 0.71652
 C669 C 0.31727 0.23449 0.69257
 N670 N 0.34013 0.20820 0.66757
 C671 C 0.35737 0.13603 0.63571
 N672 N 0.40097 0.14940 0.62631
 C673 C 0.42518 0.12822 0.59912
 C674 C 0.40496 0.09211 0.57892
 C675 C 0.36006 0.07782 0.58811
 C676 C 0.33627 0.09946 0.61664
 H677 H 0.25186 0.14975 0.73162
 H678 H 0.32400 0.27125 0.69360
 H679 H 0.45969 0.14040 0.59270
 H680 H 0.34323 0.05020 0.57306
 H681 H 0.29401 0.10358 0.68643
 H682 H 0.30125 0.08867 0.62281
 C683 C 0.32947 0.66690 0.16113
 C684 C 0.29106 0.69305 0.15058
 C685 C 0.26685 0.71808 0.17693
 C686 C 0.28034 0.71714 0.21412
 C687 C 0.31916 0.69052 0.22355
 N688 N 0.34269 0.66673 0.19717
 C689 C 0.35566 0.64019 0.13339
 N690 N 0.40268 0.63840 0.13508
 C691 C 0.42831 0.61671 0.10879
 C692 C 0.40653 0.59521 0.07867
 C693 C 0.35808 0.59536 0.07727
 C694 C 0.33265 0.61781 0.10439
 H695 H 0.23753 0.73787 0.16767
 H696 H 0.33100 0.68878 0.25182
 H697 H 0.46560 0.61685 0.11115
 H698 H 0.33977 0.57880 0.05482
 H699 H 0.28017 0.69478 0.12206
 H700 H 0.29530 0.61774 0.10263
   
