data_POSCAR
  _audit_creation_date              2014-09-24
  _audit_creation_method            'ToBaCCo'
  _symmetry_space_group_name_H-M    'P1'
  _symmetry_Int_Tables_number       1
  _symmetry_cell_setting            triclinic
  loop_
  _symmetry_equiv_pos_as_xyz
 x,y,z
_cell_length_a 22.0301
_cell_length_b 16.8846
_cell_length_c 23.1185
_cell_angle_alpha 91.036200
_cell_angle_beta 89.452900
_cell_angle_gamma 89.582500
loop_
  _atom_site_label
  _atom_site_type_symbol
  _atom_site_fract_x
  _atom_site_fract_y
  _atom_site_fract_z
N1 N 0.51541 0.68579 0.56991
 N2 N 0.49926 0.65831 0.62056
 C3 C 0.45005 0.69804 0.64027
 C4 C 0.43369 0.75235 0.59931
 C5 C 0.47581 0.74299 0.55485
 H6 H 0.42921 0.69021 0.68234
 H7 H 0.48026 0.77924 0.51695
 Cu8 Cu 0.54654 0.57751 0.65838
 Cu9 Cu 0.59258 0.65247 0.53415
 Cu10 Cu 0.69549 0.60583 0.64235
 N11 N 0.60443 0.52380 0.70607
 N12 N 0.66240 0.54178 0.70520
 C13 C 0.68965 0.50731 0.75058
 C14 C 0.64634 0.46283 0.77925
 C15 C 0.59316 0.47416 0.74930
 H16 H 0.73723 0.51276 0.76099
 H17 H 0.54858 0.45249 0.76066
 N18 N 0.72022 0.63566 0.56255
 N19 N 0.68050 0.64828 0.52111
 C20 C 0.70982 0.65299 0.47019
 C21 C 0.77107 0.64416 0.47983
 C22 C 0.77646 0.63356 0.53877
 H23 H 0.68800 0.65945 0.42880
 H24 H 0.81749 0.61878 0.56167
 H25 H 0.62896 0.56373 0.58902
 H26 H 0.61990 0.66802 0.61612
 N27 N 0.96210 0.30011 0.08758
 N28 N 0.95323 0.28026 0.14199
 C29 C 0.99617 0.22815 0.15731
 C30 C 1.03542 0.21634 0.11095
 C31 C 1.01262 0.26290 0.06723
 H32 H 1.00094 0.20499 0.20038
 H33 H 1.03093 0.26870 0.02394
 Cu34 Cu 0.89435 0.33428 0.19343
 Cu35 Cu 0.90367 0.36805 0.04647
 Cu36 Cu 0.79538 0.45323 0.13027
 N37 N 0.85743 0.42431 0.23510
 N38 N 0.81932 0.47273 0.20990
 C39 C 0.80611 0.53384 0.24628
 C40 C 0.83746 0.52231 0.29697
 C41 C 0.86975 0.45274 0.28837
 H42 H 0.77869 0.58480 0.23550
 H43 H 0.90257 0.42727 0.31732
 N44 N 0.78192 0.43053 0.04894
 N45 N 0.82509 0.40079 0.01509
 C46 C 0.80239 0.38826 -0.03826
 C47 C 0.74175 0.40999 -0.03694
 C48 C 0.73014 0.43582 0.01901
 H49 H 0.82669 0.35945 -0.07377
 H50 H 0.68663 0.45374 0.03718
 H51 H 0.90226 0.41477 0.13070
 H52 H 0.85163 0.33004 0.11249
 N53 N 0.48299 0.19561 -0.06936
 N54 N 0.49728 0.17010 -0.12184
 C55 C 0.54458 0.21123 -0.14193
 C56 C 0.56186 0.26455 -0.09952
 C57 C 0.52218 0.25313 -0.05360
 H58 H 0.56387 0.20448 -0.18497
 H59 H 0.51928 0.28759 -0.01375
 Cu60 Cu 0.45135 0.08857 -0.16114
 Cu61 Cu 0.40895 0.15755 -0.03145
 Cu62 Cu 0.30265 0.10408 -0.13603
 N63 N 0.39414 0.03175 -0.20838
 N64 N 0.33520 0.04148 -0.20179
 C65 C 0.30682 0.00176 -0.24491
 C66 C 0.35091 -0.03627 -0.27870
 C67 C 0.40551 -0.01605 -0.25412
 H68 H 0.25817 -0.00038 -0.25055
 H69 H 0.45036 -0.03256 -0.26976
 N70 N 0.28080 0.13469 -0.05504
 N71 N 0.32165 0.14865 -0.01462
 C72 C 0.29368 0.15425 0.03725
 C73 C 0.23221 0.14502 0.02894
 C74 C 0.22538 0.13304 -0.02989
 H75 H 0.31644 0.16303 0.07810
 H76 H 0.18379 0.11838 -0.05201
 H77 H 0.37433 0.06737 -0.08737
 H78 H 0.37608 0.17230 -0.11117
 N79 N 0.03736 0.79870 0.41207
 N80 N 0.03983 0.78385 0.35607
 C81 C -0.00370 0.73236 0.34153
 C82 C -0.03718 0.71614 0.39069
 C83 C -0.01031 0.75977 0.43489
 H84 H -0.01291 0.71246 0.29775
 H85 H -0.02372 0.76221 0.48004
 Cu86 Cu 0.09217 0.84297 0.30559
 Cu87 Cu 0.09855 0.86618 0.44878
 Cu88 Cu 0.21692 0.92521 0.35842
 N89 N 0.13254 0.92780 0.26553
 N90 N 0.18357 0.95839 0.28432
 C91 C 0.20104 1.01618 0.24825
 C92 C 0.15757 1.02250 0.20567
 C93 C 0.11482 0.96596 0.21809
 H94 H 0.24007 1.05375 0.25458
 H95 H 0.07320 0.95452 0.19501
 N96 N 0.22494 0.91793 0.44267
 N97 N 0.17916 0.90060 0.47752
 C98 C 0.20025 0.89511 0.53188
 C99 C 0.26202 0.90872 0.53065
 C100 C 0.27623 0.92240 0.47350
 H101 H 0.17402 0.87464 0.56840
 H102 H 0.32110 0.93037 0.45521
 H103 H 0.12908 0.93345 0.38082
 H104 H 0.16041 0.83089 0.38646
 C105 C 0.08865 0.17127 0.11158
 N106 N 0.13154 0.17731 0.06923
 C107 C 0.18541 0.13803 0.07389
 N108 N 0.19560 0.09079 0.11992
 C109 C 0.15174 0.08205 0.16081
 N110 N 0.09883 0.12271 0.15663
 C111 C 0.38889 0.81602 0.60779
 N112 N 0.38706 0.85638 0.65886
 C113 C 0.34491 0.91394 0.66907
 N114 N 0.30317 0.93039 0.62795
 C115 C 0.30539 0.89064 0.57616
 N116 N 0.34884 0.83433 0.56588
 C117 C 0.91091 0.66958 0.39223
 N118 N 0.89855 0.62170 0.34606
 C119 C 0.84665 0.57946 0.34422
 N120 N 0.80573 0.58667 0.38806
 C121 C 0.81772 0.63383 0.43477
 N122 N 0.87086 0.67439 0.43741
 C123 C 0.60659 0.32718 -0.10766
 N124 N 0.60676 0.36679 -0.15795
 C125 C 0.65119 0.41906 -0.17049
 N126 N 0.69696 0.43084 -0.13228
 C127 C 0.69599 0.39294 -0.08072
 N128 N 0.65054 0.34154 -0.06832
   
