data_POSCAR
  _audit_creation_date              2014-09-24
  _audit_creation_method            'ToBaCCo'
  _symmetry_space_group_name_H-M    'P1'
  _symmetry_Int_Tables_number       1
  _symmetry_cell_setting            triclinic
  loop_
  _symmetry_equiv_pos_as_xyz
 x,y,z
_cell_length_a 17.5837
_cell_length_b 17.7099
_cell_length_c 17.3323
_cell_angle_alpha 89.459800
_cell_angle_beta 88.309300
_cell_angle_gamma 89.704400
loop_
  _atom_site_label
  _atom_site_type_symbol
  _atom_site_fract_x
  _atom_site_fract_y
  _atom_site_fract_z
O1 O 0.58798 0.13422 0.00199
 O2 O 0.42410 -0.02436 -0.15238
 O3 O 0.65437 -0.06406 -0.09021
 O4 O 0.34711 0.07833 0.01369
 O5 O 0.56240 -0.04012 -0.16699
 O6 O 0.44818 0.13734 -0.00954
 O7 O 0.31998 -0.01534 -0.08472
 O8 O 0.66920 0.03876 0.00551
 C9 C 0.65410 0.10802 -0.00578
 C10 C 0.35184 -0.02821 -0.15203
 C11 C 0.63221 -0.03947 -0.15439
 C12 C 0.37879 0.14031 0.00650
 O13 O 0.43725 0.05469 0.12813
 O14 O 0.56095 -0.16901 -0.08715
 O15 O 0.61174 -0.05291 0.11589
 O16 O 0.36349 -0.08246 0.02727
 O17 O 0.41964 -0.15246 -0.05890
 O18 O 0.57812 0.06263 0.13189
 O19 O 0.36831 -0.03246 0.07459
 O20 O 0.58763 -0.14816 0.02786
 Co21 Co 0.51115 0.08753 0.05658
 Co22 Co 0.49264 -0.09024 -0.10654
 Co23 Co 0.62129 -0.05375 0.01194
 Co24 Co 0.40088 -0.00117 -0.02537
 O25 O 0.51109 -0.01579 -0.00951
 C26 C 0.38700 0.00385 0.13545
 C27 C 0.58640 -0.19323 -0.02480
 C28 C 0.60848 0.00372 0.15673
 C29 C 0.36677 -0.14458 -0.00833
 O30 O -0.12557 0.38981 -0.04056
 O31 O 0.06608 0.56428 0.13958
 O32 O -0.04274 0.37557 0.08148
 O33 O -0.12724 0.62400 0.00231
 O34 O 0.05572 0.42699 0.13332
 O35 O -0.17301 0.51534 -0.02196
 O36 O -0.04686 0.60866 0.11923
 O37 O -0.03664 0.30316 -0.04158
 C38 C -0.10682 0.32135 -0.05170
 C39 C 0.00640 0.59751 0.16369
 C40 C -0.00255 0.38468 0.13939
 C41 C -0.18354 0.58260 -0.00594
 O42 O -0.08572 0.57265 -0.13788
 O43 O 0.14636 0.43397 -0.00236
 O44 O 0.05827 0.39381 -0.10248
 O45 O 0.07085 0.65281 0.03468
 O46 O 0.14590 0.56540 -0.00013
 O47 O -0.03681 0.43763 -0.16130
 O48 O -0.00646 0.64863 -0.08209
 O49 O 0.08543 0.33679 0.02613
 Co50 Co -0.09461 0.48095 -0.08333
 Co51 Co 0.09499 0.49760 0.06237
 Co52 Co 0.00511 0.38959 -0.01171
 Co53 Co -0.02522 0.62111 0.01675
 O54 O -0.00325 0.50251 -0.00345
 C55 C -0.04816 0.63401 -0.13738
 C56 C 0.14832 0.36584 0.01446
 C57 C 0.02324 0.39942 -0.16306
 C58 C 0.13316 0.63405 0.00498
 O59 O -0.03435 -0.16814 0.45792
 O60 O 0.14518 0.04105 0.55835
 O61 O 0.10276 -0.04409 0.36069
 O62 O -0.05162 -0.05284 0.67073
 O63 O 0.14140 0.05722 0.41575
 O64 O -0.03386 -0.13510 0.58628
 O65 O 0.07911 -0.04445 0.61465
 O66 O -0.01893 -0.11327 0.34839
 C67 C -0.02174 -0.17221 0.38765
 C68 C 0.14151 -0.01368 0.60496
 C69 C 0.15536 0.00043 0.37387
 C70 C -0.04993 -0.12063 0.65436
 O71 O -0.15240 -0.03539 0.56771
 O72 O 0.01362 0.14654 0.43820
 O73 O -0.09492 0.01054 0.34378
 O74 O 0.02317 0.07520 0.67919
 O75 O 0.02251 0.13710 0.57129
 O76 O -0.14827 -0.06865 0.42781
 O77 O -0.09414 0.06593 0.60015
 O78 O 0.02948 0.08280 0.33673
 Co79 Co -0.08553 -0.09318 0.50844
 Co80 Co 0.07403 0.08595 0.49496
 Co81 Co 0.00413 -0.01464 0.36108
 Co82 Co -0.00445 0.01257 0.60207
 O83 O -0.00428 -0.00724 0.48709
 C84 C -0.15409 0.02791 0.60071
 C85 C 0.01352 0.14444 0.36730
 C86 C -0.15215 -0.02615 0.36861
 C87 C 0.03226 0.13919 0.64314
 C88 C -0.27829 0.20070 -0.09519
 C89 C -0.28400 0.15993 -0.02454
 C90 C -0.22966 0.16916 0.03144
 C91 C -0.17157 0.22062 0.02004
 C92 C -0.16500 0.26281 -0.04824
 C93 C -0.21710 0.25201 -0.10761
 C94 C -0.32992 0.18946 -0.15473
 C95 C -0.32039 0.22710 -0.22544
 C96 C -0.25953 0.27625 -0.23805
 C97 C -0.20812 0.28872 -0.17979
 H98 H -0.37674 0.15032 -0.14782
 H99 H -0.35976 0.21723 -0.27107
 H100 H -0.25166 0.30424 -0.29348
 H101 H -0.16017 0.32525 -0.19238
 H102 H -0.23359 0.13792 0.08547
 H103 H -0.13306 0.22938 0.06619
 C104 C 0.23152 0.82382 0.01265
 C105 C 0.31052 0.80301 0.00048
 C106 C 0.32696 0.72707 -0.01858
 C107 C 0.26988 0.67214 -0.01833
 C108 C 0.19304 0.69265 -0.01021
 C109 C 0.17468 0.77046 -0.00548
 C110 C 0.20517 0.89709 0.03389
 C111 C 0.12987 0.91956 0.02533
 C112 C 0.07852 0.87047 -0.00576
 C113 C 0.10083 0.79683 -0.02129
 H114 H 0.23964 0.93894 0.05859
 H115 H 0.11208 0.97625 0.04059
 H116 H 0.02109 0.88904 -0.01692
 H117 H 0.06074 0.76145 -0.04872
 H118 H 0.38528 0.70897 -0.02945
 H119 H 0.28600 0.61338 -0.02476
 C120 C 0.29827 0.23059 0.08601
 C121 C 0.33481 0.21110 0.01473
 C122 C 0.31747 0.25176 -0.05223
 C123 C 0.26028 0.30677 -0.05055
 C124 C 0.21844 0.32099 0.01781
 C125 C 0.23867 0.28476 0.08721
 C126 C 0.31968 0.19776 0.15648
 C127 C 0.28168 0.21540 0.22573
 C128 C 0.22163 0.26637 0.22645
 C129 C 0.20074 0.30133 0.15812
 H130 H 0.36755 0.16084 0.15928
 H131 H 0.29952 0.19050 0.27927
 H132 H 0.19220 0.28012 0.28030
 H133 H 0.15590 0.34239 0.16201
 H134 H 0.34475 0.23737 -0.10704
 H135 H 0.24503 0.33451 -0.10392
 C136 C -0.37390 0.66999 -0.06189
 C137 C -0.37144 0.73394 -0.01343
 C138 C -0.32231 0.73118 0.04944
 C139 C -0.26755 0.67540 0.05606
 C140 C -0.26055 0.61795 0.00183
 C141 C -0.31907 0.61033 -0.05279
 C142 C -0.43061 0.66241 -0.11705
 C143 C -0.43425 0.59751 -0.16171
 C144 C -0.38211 0.53903 -0.15189
 C145 C -0.32536 0.54507 -0.09777
 H146 H -0.47417 0.70486 -0.12437
 H147 H -0.47857 0.59203 -0.20331
 H148 H -0.38642 0.48812 -0.18553
 H149 H -0.28971 0.49655 -0.08852
 H150 H -0.32145 0.77598 0.09148
 H151 H -0.22608 0.68082 0.10075
 C152 C -0.05735 -0.36093 0.28892
 C153 C 0.00593 -0.36078 0.23678
 C154 C 0.06405 -0.30817 0.24582
 C155 C 0.05615 -0.25078 0.29970
 C156 C -0.00888 -0.24543 0.34804
 C157 C -0.06413 -0.30385 0.34629
 C158 C -0.11450 -0.41627 0.28450
 C159 C -0.17619 -0.41673 0.33678
 C160 C -0.18226 -0.36200 0.39367
 C161 C -0.12727 -0.30585 0.39798
 H162 H -0.11129 -0.46020 0.24150
 H163 H -0.21923 -0.45995 0.33341
 H164 H -0.22994 -0.36293 0.43463
 H165 H -0.13403 -0.26529 0.44289
 H166 H 0.11275 -0.30705 0.20598
 H167 H 0.09931 -0.20743 0.30058
 C168 C -0.00212 0.34584 0.70431
 C169 C 0.04191 0.34736 0.77161
 C170 C 0.08771 0.28417 0.78829
 C171 C 0.08389 0.21812 0.74561
 C172 C 0.03429 0.21230 0.68449
 C173 C -0.00968 0.27683 0.66312
 C174 C -0.04061 0.41101 0.67824
 C175 C -0.09055 0.40724 0.61756
 C176 C -0.10338 0.33871 0.58196
 C177 C -0.06375 0.27414 0.60429
 H178 H -0.03142 0.46568 0.70354
 H179 H -0.12009 0.45758 0.59864
 H180 H -0.14376 0.33567 0.53615
 H181 H -0.07769 0.22258 0.57554
 H182 H 0.12255 0.28325 0.83877
 H183 H 0.11850 0.17011 0.76209
 C184 C 0.00368 0.34900 0.28316
 C185 C -0.01082 0.33092 0.20550
 C186 C -0.02121 0.25532 0.18635
 C187 C -0.01711 0.19809 0.24089
 C188 C 0.00037 0.21277 0.31767
 C189 C 0.00953 0.28990 0.34015
 C190 C 0.01293 0.42471 0.30511
 C191 C 0.02818 0.44300 0.38096
 C192 C 0.03517 0.38627 0.43622
 C193 C 0.02628 0.31073 0.41642
 H194 H 0.00779 0.47038 0.26401
 H195 H 0.03476 0.50153 0.39689
 H196 H 0.04750 0.40086 0.49506
 H197 H 0.03269 0.27047 0.46240
 H198 H -0.02685 0.23918 0.12695
 H199 H -0.02452 0.14075 0.22128
 C200 C -0.12152 -0.29213 0.76894
 C201 C -0.05263 -0.31271 0.80640
 C202 C 0.01221 -0.26682 0.79366
 C203 C 0.01098 -0.20368 0.74638
 C204 C -0.05584 -0.18112 0.71225
 C205 C -0.12318 -0.22337 0.72483
 C206 C -0.19059 -0.33260 0.77912
 C207 C -0.25786 -0.30617 0.74756
 C208 C -0.25928 -0.23800 0.70751
 C209 C -0.19284 -0.19660 0.69667
 H210 H -0.19519 -0.38435 0.81165
 H211 H -0.30967 -0.33819 0.75542
 H212 H -0.31223 -0.21679 0.68521
 H213 H -0.19681 -0.14244 0.66783
 H214 H 0.06606 -0.28119 0.81917
 H215 H 0.06318 -0.17255 0.73567
 C216 C 0.33590 -0.02967 0.70404
 C217 C 0.30865 -0.03285 0.78354
 C218 C 0.22957 -0.04102 0.79691
 C219 C 0.17867 -0.04025 0.73762
 C220 C 0.20269 -0.03068 0.66066
 C221 C 0.28174 -0.02916 0.64298
 C222 C 0.41413 -0.02537 0.68194
 C223 C 0.43790 -0.02433 0.60443
 C224 C 0.38515 -0.02733 0.54654
 C225 C 0.30777 -0.02941 0.56541
 H226 H 0.45900 -0.02310 0.72230
 H227 H 0.49802 -0.02187 0.58919
 H228 H 0.40437 -0.02812 0.48664
 H229 H 0.26836 -0.03334 0.51887
 H230 H 0.20514 -0.04719 0.85479
 H231 H 0.11875 -0.04343 0.75331
 C232 C -0.34250 -0.06619 0.27222
 C233 C -0.34984 0.00193 0.22960
 C234 C -0.30111 0.06192 0.24403
 C235 C -0.24002 0.05221 0.29253
 C236 C -0.22517 -0.01793 0.32785
 C237 C -0.27809 -0.07799 0.31913
 C238 C -0.39709 -0.12393 0.26652
 C239 C -0.38670 -0.19357 0.30255
 C240 C -0.32163 -0.20726 0.34407
 C241 C -0.26755 -0.15071 0.35193
 H242 H -0.44846 -0.11531 0.23453
 H243 H -0.42881 -0.23746 0.29734
 H244 H -0.31305 -0.26211 0.37045
 H245 H -0.21773 -0.16620 0.38284
 H246 H -0.30624 0.11471 0.21246
 H247 H -0.20150 0.09912 0.29922
 C248 C 0.35515 0.03404 0.27905
 C249 C 0.34573 -0.01001 0.21147
 C250 C 0.28837 -0.06436 0.21370
 C251 C 0.23105 -0.06335 0.27041
 C252 C 0.22930 -0.00900 0.32911
 C253 C 0.29538 0.03633 0.33740
 C254 C 0.42298 0.07404 0.29152
 C255 C 0.43055 0.11850 0.35664
 C256 C 0.37157 0.12329 0.41143
 C257 C 0.30500 0.08236 0.40254
 H258 H 0.47244 0.06893 0.25378
 H259 H 0.48306 0.14852 0.36522
 H260 H 0.37824 0.15726 0.46236
 H261 H 0.26364 0.08516 0.44935
 H262 H 0.28515 -0.10602 0.16889
 H263 H 0.18491 -0.10291 0.26465
 C264 C -0.24151 0.02284 0.79726
 C265 C -0.31257 -0.01276 0.78321
 C266 C -0.33553 -0.01681 0.70617
 C267 C -0.28786 0.00695 0.64469
 C268 C -0.21814 0.04218 0.65767
 C269 C -0.20101 0.05941 0.73490
 C270 C -0.20807 0.02334 0.87044
 C271 C -0.14344 0.06619 0.88362
 C272 C -0.11237 0.11165 0.82526
 C273 C -0.14137 0.10887 0.75156
 H274 H -0.22891 -0.01017 0.91803
 H275 H -0.11907 0.06618 0.94025
 H276 H -0.06498 0.14826 0.83675
 H277 H -0.11700 0.14574 0.70769
 H278 H -0.38882 -0.04344 0.69284
 H279 H -0.30319 -0.00699 0.58645
   
