data_POSCAR
  _audit_creation_date              2014-09-24
  _audit_creation_method            'ToBaCCo'
  _symmetry_space_group_name_H-M    'P1'
  _symmetry_Int_Tables_number       1
  _symmetry_cell_setting            triclinic
  loop_
  _symmetry_equiv_pos_as_xyz
 x,y,z
_cell_length_a 37.6586
_cell_length_b 37.7584
_cell_length_c 37.4747
_cell_angle_alpha 89.889400
_cell_angle_beta 89.956800
_cell_angle_gamma 90.117900
loop_
  _atom_site_label
  _atom_site_type_symbol
  _atom_site_fract_x
  _atom_site_fract_y
  _atom_site_fract_z
C1 C 0.16964 0.16905 0.21173
 C2 C 0.20027 0.15428 0.19610
 C3 C 0.21526 0.16871 0.16477
 C4 C 0.19903 0.19853 0.14915
 C5 C 0.16874 0.21378 0.16450
 C6 C 0.15435 0.19915 0.19576
 H7 H 0.21233 0.13117 0.20821
 H8 H 0.20980 0.21003 0.12493
 H9 H 0.13078 0.21106 0.20717
 C10 C -0.16718 0.83251 0.21605
 C11 C -0.19516 0.84952 0.19784
 C12 C -0.21180 0.83332 0.16863
 C13 C -0.19896 0.80090 0.15600
 C14 C -0.17034 0.78412 0.17285
 C15 C -0.15549 0.79926 0.20361
 H16 H -0.20506 0.87482 0.20710
 H17 H -0.21094 0.78895 0.13263
 H18 H -0.13336 0.78607 0.21643
 C19 C -0.16482 0.16466 -0.21234
 C20 C -0.19399 0.14825 -0.19546
 C21 C -0.21341 0.16579 -0.16859
 C22 C -0.20210 0.19966 -0.15759
 C23 C -0.17143 0.21510 -0.17212
 C24 C -0.15357 0.19801 -0.20001
 H25 H -0.20264 0.12236 -0.20441
 H26 H -0.21577 0.21319 -0.13614
 H27 H -0.13032 0.21059 -0.21150
 C28 C 0.16950 0.83076 -0.21291
 C29 C 0.15305 0.80115 -0.19751
 C30 C 0.16671 0.78597 -0.16625
 C31 C 0.19705 0.80070 -0.15026
 C32 C 0.21408 0.83042 -0.16547
 C33 C 0.20004 0.84501 -0.19707
 H34 H 0.12939 0.79012 -0.20967
 H35 H 0.20721 0.78891 -0.12594
 H36 H 0.21236 0.86802 -0.20924
 C37 C 0.17068 1.17002 0.78747
 C38 C 0.15246 1.19765 0.80454
 C39 C 0.16697 1.21413 0.83473
 C40 C 0.19894 1.20150 0.84901
 C41 C 0.21685 1.17320 0.83287
 C42 C 0.20323 1.15833 0.80140
 H43 H 0.12753 1.20704 0.79368
 H44 H 0.20968 1.21341 0.87300
 H45 H 0.21688 1.13635 0.78894
 C46 C 0.83517 0.83513 0.78695
 C47 C 0.85081 0.80582 0.80414
 C48 C 0.83291 0.78755 0.83175
 C49 C 0.79953 0.80017 0.84308
 C50 C 0.78502 0.83098 0.82814
 C51 C 0.80239 0.84765 0.79963
 H52 H 0.87629 0.79622 0.79490
 H53 H 0.78572 0.78740 0.86500
 H54 H 0.79044 0.87100 0.78786
 C55 C 0.16543 0.83153 1.21158
 C56 C 0.15239 0.79906 1.19860
 C57 C 0.16868 0.78205 1.16970
 C58 C 0.19950 0.79666 1.15461
 C59 C 0.21250 0.82942 1.16654
 C60 C 0.19500 0.84700 1.19449
 H61 H 0.12892 0.78716 1.21038
 H62 H 0.21215 0.78359 1.13224
 H63 H 0.20537 0.87218 1.20366
 C64 C 0.83110 1.16901 1.21697
 C65 C 0.80123 1.15293 1.20121
 C66 C 0.78528 1.16767 1.17086
 C67 C 0.79924 1.19880 1.15592
 C68 C 0.82937 1.21524 1.17078
 C69 C 0.84481 1.20022 1.20153
 H70 H 0.79029 1.12873 1.21233
 H71 H 0.78686 1.20971 1.13223
 H72 H 0.86796 1.21268 1.21325
 O73 O 0.45147 1.06127 1.06485
 O74 O 0.41205 1.03029 1.03002
 C75 C 0.41953 1.05343 1.05438
 O76 O 0.55073 1.06286 0.93684
 O77 O 0.58939 1.02776 0.96837
 C78 C 0.58245 1.05221 0.94510
 O79 O 0.45107 1.06553 0.93932
 O80 O 0.41181 1.03161 0.97168
 C81 C 0.41917 1.05644 0.94884
 O82 O 0.55134 1.05683 1.06733
 O83 O 0.58962 1.02719 1.03023
 C84 C 0.58299 1.04856 1.05642
 Zr85 Zr 0.50117 1.04205 1.04637
 O86 O 0.50581 1.09794 1.04707
 O87 O 0.49769 1.04105 1.10273
 Zr88 Zr 0.50071 1.04515 0.95604
 O89 O 0.50465 1.10105 0.95806
 O90 O 0.49708 1.04668 0.89968
 O91 O 0.46943 1.05090 1.00164
 O92 O 0.53179 1.04978 1.00119
 O93 O 0.55031 0.93422 1.06188
 O94 O 0.58917 0.96840 1.02934
 C95 C 0.58214 0.94438 1.05306
 O96 O 0.44913 0.93727 0.93568
 O97 O 0.41085 0.96928 0.97081
 C98 C 0.41752 0.94585 0.94648
 O99 O 0.54892 0.93783 0.93295
 O100 O 0.58851 0.96950 0.96696
 C101 C 0.58093 0.94679 0.94217
 O102 O 0.45008 0.93173 1.05915
 O103 O 0.41154 0.96876 1.02984
 C104 C 0.41834 0.94264 1.05123
 Zr105 Zr 0.50018 0.95251 1.04341
 O106 O 0.50348 0.89658 1.04273
 O107 O 0.49646 0.95191 1.09980
 Zr108 Zr 0.49946 0.95561 0.95314
 O109 O 0.50206 0.89964 0.95118
 O110 O 0.49572 0.95832 0.89682
 Zr111 Zr 0.44769 0.99945 1.00015
 Zr112 Zr 0.55308 0.99836 0.99919
 O113 O 0.53053 0.94733 0.99783
 O114 O 0.46811 0.94751 0.99831
 O115 O 0.53239 0.99674 1.05152
 O116 O 0.46919 1.00090 0.94835
 O117 O 0.46988 0.99736 1.05163
 O118 O 0.53170 1.00027 0.94729
 H119 H 0.54815 1.07036 1.00178
 H120 H 0.45291 1.00164 0.92762
 H121 H 0.54630 0.92638 0.99718
 H122 H 0.45385 0.99682 1.07261
 H123 H 0.51707 1.03269 0.89004
 H124 H 0.51659 0.97169 0.88806
 H125 H 0.48186 0.89024 0.96520
 H126 H 0.48535 0.88794 1.02576
 H127 H 0.51820 0.96319 1.10935
 H128 H 0.51536 1.02371 1.11137
 H129 H 0.48487 1.10772 1.03458
 H130 H 0.48489 1.10971 0.97308
 O131 O 0.05672 0.54939 -0.06595
 O132 O 0.02472 0.58821 -0.03154
 C133 C 0.04758 0.58114 -0.05638
 O134 O -0.07249 0.45098 -0.05982
 O135 O -0.03682 0.41168 -0.02981
 C136 C -0.06236 0.41910 -0.05172
 O137 O -0.06856 0.55065 -0.06212
 O138 O -0.03333 0.58885 -0.03010
 C139 C -0.05776 0.58222 -0.05352
 O140 O 0.05870 0.44970 -0.06329
 O141 O 0.02360 0.41100 -0.03167
 C142 C 0.04844 0.41798 -0.05456
 Zr143 Zr 0.03884 0.49957 -0.04657
 O144 O 0.03522 0.49612 -0.10285
 O145 O 0.09482 0.50293 -0.05015
 Zr146 Zr -0.05107 0.50043 -0.04354
 O147 O -0.05216 0.49718 -0.09992
 O148 O -0.10709 0.50476 -0.04202
 O149 O -0.00596 0.53158 -0.05192
 O150 O -0.00664 0.46934 -0.05175
 O151 O 0.06246 0.44885 0.05877
 O152 O 0.02564 0.41057 0.02884
 C153 C 0.05169 0.41724 0.05039
 O154 O -0.06300 0.54929 0.06827
 O155 O -0.03298 0.58809 0.03184
 C156 C -0.05453 0.58103 0.05791
 O157 O -0.06895 0.45000 0.06296
 O158 O -0.03474 0.41111 0.03089
 C159 C -0.05930 0.41826 0.05398
 O160 O 0.06060 0.54842 0.06246
 O161 O 0.02644 0.58780 0.03076
 C162 C 0.05075 0.58031 0.05406
 Zr163 Zr 0.04178 0.49891 0.04359
 O164 O 0.04216 0.49460 0.09994
 O165 O 0.09788 0.50233 0.04295
 Zr166 Zr -0.04810 0.49968 0.04654
 O167 O -0.04642 0.49472 0.10279
 O168 O -0.10404 0.50487 0.04840
 Zr169 Zr -0.00404 0.55222 0.00025
 Zr170 Zr -0.00518 0.44698 -0.00025
 O171 O -0.00329 0.46855 0.05148
 O172 O -0.00257 0.53082 0.05224
 O173 O 0.04691 0.46760 -0.00188
 O174 O -0.05568 0.53089 0.00191
 O175 O 0.04709 0.52988 -0.00153
 O176 O -0.05683 0.46845 0.00155
 H177 H -0.00738 0.45347 -0.07276
 H178 H -0.07630 0.54712 0.00273
 H179 H -0.00282 0.45236 0.07231
 H180 H 0.06820 0.54559 -0.00210
 H181 H -0.11615 0.48535 -0.02676
 H182 H -0.11428 0.48560 0.03380
 H183 H -0.03011 0.51321 0.11179
 H184 H 0.03082 0.51613 0.10967
 H185 H 0.10668 0.48383 0.02656
 H186 H 0.10473 0.48509 -0.03360
 H187 H 0.02325 0.51782 -0.11143
 H188 H -0.03835 0.51747 -0.10934
 O189 O 0.94252 0.06480 0.55162
 O190 O 0.97448 0.02945 0.58981
 C191 C 0.95123 0.05386 0.58332
 O192 O 0.94048 -0.06221 0.44992
 O193 O 0.97180 -0.02745 0.41056
 C194 C 0.94901 -0.05218 0.41787
 O195 O 0.93703 -0.05838 0.55024
 O196 O 0.97430 -0.02944 0.58892
 C197 C 0.94825 -0.05079 0.58209
 O198 O 0.94395 0.06903 0.45122
 O199 O 0.97306 0.03322 0.41139
 C200 C 0.95148 0.05875 0.41906
 Zr201 Zr 0.96039 0.04741 0.50082
 O202 O 0.90424 0.04797 0.49782
 O203 O 0.96138 0.10327 0.50528
 Zr204 Zr 0.95746 -0.04219 0.49996
 O205 O 0.90142 -0.04003 0.49614
 O206 O 0.95512 -0.09806 0.50423
 O207 O 0.95242 0.00245 0.53229
 O208 O 0.95196 0.00311 0.46951
 O209 O 1.06588 0.06557 0.44913
 O210 O 1.03364 0.03138 0.41020
 C211 C 1.05666 0.05594 0.41721
 O212 O 1.06654 -0.06356 0.54846
 O213 O 1.03549 -0.02926 0.58824
 C214 C 1.05857 -0.05349 0.58061
 O215 O 1.06173 -0.06554 0.44799
 O216 O 1.03160 -0.02878 0.40968
 C217 C 1.05320 -0.05463 0.41624
 O218 O 1.07173 0.06016 0.54926
 O219 O 1.03604 0.02973 0.58844
 C220 C 1.06160 0.05162 0.58129
 Zr221 Zr 1.05014 0.04460 0.49932
 O222 O 1.10606 0.04224 0.49396
 O223 O 1.05268 0.10038 0.50430
 Zr224 Zr 1.04719 -0.04497 0.49862
 O225 O 1.10321 -0.04534 0.49377
 O226 O 1.04661 -0.10092 0.50207
 Zr227 Zr 1.00456 0.00060 0.55265
 Zr228 Zr 1.00300 0.00180 0.44659
 O229 O 1.05470 -0.00004 0.46790
 O230 O 1.05609 -0.00073 0.53069
 O231 O 1.00501 0.05328 0.46828
 O232 O 1.00255 -0.05040 0.53015
 O233 O 1.00592 0.05210 0.53107
 O234 O 1.00165 -0.05014 0.46743
 H235 H 0.93093 0.00374 0.45365
 H236 H 1.00210 -0.07141 0.54602
 H237 H 1.07527 -0.00045 0.45141
 H238 H 1.00679 0.07275 0.54732
 H239 H 0.96999 -0.10794 0.48491
 H240 H 1.03000 -0.10970 0.48367
 H241 H 1.11309 -0.03357 0.51515
 H242 H 1.11516 0.02743 0.51372
 H243 H 1.03716 0.11061 0.48569
 H244 H 0.97708 0.11243 0.48620
 H245 H 0.89501 0.03566 0.51924
 H246 H 0.89281 -0.02513 0.51600
 C247 C 1.12322 0.12263 0.30008
 N248 N 1.14859 0.10532 0.28131
 N249 N 1.16400 0.12059 0.25321
 C250 C 1.15417 0.15351 0.24225
 N251 N 1.12856 0.17065 0.26110
 N252 N 1.11362 0.15566 0.28965
 C253 C 1.10595 0.10549 0.33063
 N254 N 1.09656 0.12452 0.35986
 N255 N 1.08111 0.10870 0.38768
 C256 C 1.07387 0.07347 0.38690
 N257 N 1.08295 0.05455 0.35754
 N258 N 1.09902 0.07022 0.33003
 C259 C 0.88133 -0.11944 0.30206
 N260 N 0.85887 -0.10096 0.28080
 N261 N 0.84286 -0.11663 0.25335
 C262 C 0.84916 -0.15124 0.24560
 N263 N 0.87191 -0.16956 0.26691
 N264 N 0.88744 -0.15407 0.29477
 C265 C 0.89896 -0.10208 0.33219
 N266 N 0.90671 -0.12049 0.36234
 N267 N 0.92241 -0.10452 0.38983
 C268 C 0.93149 -0.06976 0.38785
 N269 N 0.92404 -0.05145 0.35758
 N270 N 0.90776 -0.06725 0.33036
 C271 C 0.88500 0.11729 0.70205
 N272 N 0.86223 0.09852 0.72285
 N273 N 0.84611 0.11379 0.75047
 C274 C 0.85262 0.14825 0.75884
 N275 N 0.87586 0.16675 0.73812
 N276 N 0.89148 0.15169 0.71011
 C277 C 0.90212 0.10078 0.67117
 N278 N 0.90954 0.12015 0.64152
 N279 N 0.92481 0.10510 0.61329
 C280 C 0.93377 0.07031 0.61400
 N281 N 0.92662 0.05102 0.64377
 N282 N 0.91075 0.06591 0.67174
 C283 C 1.12482 -0.12046 0.69746
 N284 N 1.12554 -0.15632 0.70011
 N285 N 1.13972 -0.17194 0.72865
 C286 C 1.15412 -0.15225 0.75528
 N287 N 1.15365 -0.11641 0.75241
 N288 N 1.13904 -0.10080 0.72415
 C289 C 1.10820 -0.10307 0.66676
 N290 N 1.09553 -0.06959 0.66980
 N291 N 1.07974 -0.05385 0.64227
 C292 C 1.07653 -0.07080 0.61054
 N293 N 1.08950 -0.10417 0.60735
 N294 N 1.10485 -0.12013 0.63508
 C295 C 0.30335 1.12253 1.11870
 N296 N 0.29344 1.11386 1.15240
 N297 N 0.26495 1.12868 1.16720
 C298 C 0.24555 1.15325 1.14917
 N299 N 0.25594 1.16218 1.11555
 N300 N 0.28404 1.14687 1.10048
 C301 C 0.33391 1.10525 1.10196
 N302 N 0.33356 1.09766 1.06658
 N303 N 0.36085 1.08099 1.05149
 C304 C 0.38973 1.07193 1.07111
 N305 N 0.39028 1.07987 1.10642
 N306 N 0.36268 1.09594 1.12165
 C307 C 0.30117 0.87688 0.88222
 N308 N 0.28141 0.85264 0.90023
 N309 N 0.25363 0.83713 0.88465
 C310 C 0.24409 0.84578 0.85072
 N311 N 0.26397 0.87024 0.83295
 N312 N 0.29211 0.88523 0.84824
 C313 C 0.33160 0.89420 0.89917
 N314 N 0.36065 0.90301 0.87960
 N315 N 0.38821 0.91920 0.89479
 C316 C 0.38733 0.92784 0.92991
 N317 N 0.35816 0.91930 0.94944
 N318 N 0.33087 0.90250 0.93439
 C319 C 0.69994 0.88065 1.12032
 N320 N 0.72724 0.90081 1.13248
 N321 N 0.75528 0.88581 1.14800
 C322 C 0.75727 0.85006 1.15140
 N323 N 0.73004 0.82991 1.13901
 N324 N 0.70178 0.84494 1.12394
 C325 C 0.66911 0.89721 1.10321
 N326 N 0.63746 0.87997 1.10150
 N327 N 0.60953 0.89509 1.08587
 C328 C 0.61244 0.92777 1.07097
 N329 N 0.64414 0.94489 1.07254
 N330 N 0.67190 0.92999 1.08859
 C331 C 0.69951 1.11802 0.87822
 N332 N 0.72180 1.09912 0.85718
 N333 N 0.74966 1.11465 0.84177
 C334 C 0.75679 1.14956 0.84728
 N335 N 0.73446 1.16829 0.86864
 N336 N 0.70623 1.15291 0.88356
 C337 C 0.66892 1.10088 0.89523
 N338 N 0.63885 1.11946 0.90202
 N339 N 0.61105 1.10380 0.91748
 C340 C 0.61260 1.06920 0.92723
 N341 N 0.64277 1.05070 0.92068
 N342 N 0.67032 1.06618 0.90466
 C343 C 0.11970 0.30070 0.11554
 N344 N 0.15565 0.29840 0.11680
 N345 N 0.17129 0.27068 0.13222
 C346 C 0.15155 0.24452 0.14740
 N347 N 0.11560 0.24700 0.14634
 N348 N 0.09997 0.27445 0.13049
 C349 C 0.10232 0.33097 0.09825
 N350 N 0.06855 0.32802 0.08596
 N351 N 0.05262 0.35543 0.07034
 C352 C 0.06971 0.38694 0.06688
 N353 N 0.10342 0.38998 0.07935
 N354 N 0.11954 0.36240 0.09453
 C355 C -0.12702 0.30435 -0.12304
 N356 N -0.10608 0.27871 -0.13706
 N357 N -0.12034 0.25090 -0.15347
 C358 C -0.15612 0.24743 -0.15618
 N359 N -0.17714 0.27308 -0.14210
 N360 N -0.16283 0.30121 -0.12608
 C361 C -0.11088 0.33426 -0.10407
 N362 N -0.12832 0.36550 -0.10038
 N363 N -0.11299 0.39265 -0.08361
 C364 C -0.07997 0.38927 -0.06944
 N365 N -0.06276 0.35793 -0.07286
 N366 N -0.07784 0.33101 -0.09003
 C367 C 0.11577 0.69810 -0.12090
 N368 N 0.09661 0.72544 -0.13435
 N369 N 0.11286 0.75329 -0.14895
 C370 C 0.14886 0.75510 -0.15009
 N371 N 0.16803 0.72787 -0.13637
 N372 N 0.15176 0.69976 -0.12225
 C373 C 0.09781 0.66747 -0.10482
 N374 N 0.11416 0.63550 -0.10318
 N375 N 0.09787 0.60777 -0.08834
 C376 C 0.06486 0.61117 -0.07419
 N377 N 0.04858 0.64318 -0.07569
 N378 N 0.06465 0.67076 -0.09101
 C379 C -0.12190 0.69611 0.12570
 N380 N -0.12425 0.69852 0.16178
 N381 N -0.13991 0.72635 0.17696
 C382 C -0.15430 0.75241 0.15656
 N383 N -0.15222 0.74971 0.12050
 N384 N -0.13616 0.72220 0.10537
 C385 C -0.10379 0.66623 0.10867
 N386 N -0.09056 0.66970 0.07514
 N387 N -0.07435 0.64267 0.05927
 C388 C -0.07117 0.61102 0.07617
 N389 N -0.08451 0.60746 0.10968
 N390 N -0.10030 0.63469 0.12577
 C391 C 1.12593 0.11968 0.69868
 N392 N 1.16163 0.12422 0.70094
 N393 N 1.17595 0.14019 0.72920
 C394 C 1.15505 0.15262 0.75595
 N395 N 1.11934 0.14829 0.75347
 N396 N 1.10508 0.13193 0.72549
 C397 C 1.10988 0.10150 0.66810
 N398 N 1.07712 0.08682 0.67120
 N399 N 1.06212 0.07051 0.64358
 C400 C 1.07912 0.06865 0.61170
 N401 N 1.11187 0.08346 0.60849
 N402 N 1.12710 0.09939 0.63631
 C403 C 0.88304 -0.11711 0.70015
 N404 N 0.84888 -0.10970 0.70869
 N405 N 0.83366 -0.12480 0.73698
 C406 C 0.85174 -0.14838 0.75757
 N407 N 0.88592 -0.15592 0.74867
 N408 N 0.90138 -0.14032 0.72074
 C409 C 0.89990 -0.10010 0.66931
 N410 N 0.93513 -0.09257 0.66970
 N411 N 0.95039 -0.07657 0.64192
 C412 C 0.93109 -0.06810 0.61255
 N413 N 0.89591 -0.07593 0.61200
 N414 N 0.88051 -0.09136 0.64006
 C415 C 1.11791 -0.12043 0.29807
 N416 N 1.11005 -0.15443 0.28957
 N417 N 1.12511 -0.16974 0.26139
 C418 C 1.14911 -0.15192 0.24094
 N419 N 1.15711 -0.11792 0.24982
 N420 N 1.14156 -0.10237 0.27761
 C421 C 1.10103 -0.10347 0.32880
 N422 N 1.09369 -0.06831 0.32819
 N423 N 1.07803 -0.05291 0.35598
 C424 C 1.06973 -0.07198 0.38558
 N425 N 1.07735 -0.10709 0.38634
 N426 N 1.09243 -0.12264 0.35827
 C427 C 0.88032 0.12389 0.30420
 N428 N 0.85564 0.10552 0.28545
 N429 N 0.83929 0.12031 0.25768
 C430 C 0.84748 0.15382 0.24708
 N431 N 0.87236 0.17204 0.26597
 N432 N 0.88824 0.15750 0.29415
 C433 C 0.89883 0.10725 0.33418
 N434 N 0.90889 0.12657 0.36301
 N435 N 0.92559 0.11117 0.39028
 C436 C 0.93344 0.07612 0.38926
 N437 N 0.92368 0.05693 0.36028
 N438 N 0.90641 0.07216 0.33335
 C439 C 0.11614 0.30119 -0.11892
 N440 N 0.09687 0.27381 -0.13223
 N441 N 0.11299 0.24615 -0.14713
 C442 C 0.14899 0.24463 -0.14876
 N443 N 0.16823 0.27192 -0.13522
 N444 N 0.15210 0.29980 -0.12077
 C445 C 0.09844 0.33168 -0.10259
 N446 N 0.11528 0.36343 -0.10024
 N447 N 0.09922 0.39111 -0.08530
 C448 C 0.06593 0.38786 -0.07175
 N449 N 0.04918 0.35607 -0.07394
 N450 N 0.06504 0.32854 -0.08932
 C451 C -0.12536 0.30269 0.12258
 N452 N -0.15849 0.29197 0.11335
 N453 N -0.17316 0.26372 0.12888
 C454 C -0.15556 0.24549 0.15474
 N455 N -0.12256 0.25676 0.16419
 N456 N -0.10762 0.28455 0.14820
 C457 C -0.10848 0.33278 0.10463
 N458 N -0.07317 0.33217 0.09744
 N459 N -0.05763 0.35933 0.08090
 C460 C -0.07673 0.38834 0.07161
 N461 N -0.11200 0.38913 0.07908
 N462 N -0.12769 0.36164 0.09500
 C463 C -0.12149 0.70002 -0.12058
 N464 N -0.10212 0.72133 -0.14235
 N465 N -0.11697 0.74932 -0.15801
 C466 C -0.15162 0.75759 -0.15205
 N467 N -0.17082 0.73625 -0.12995
 N468 N -0.15616 0.70787 -0.11478
 C469 C -0.10501 0.66926 -0.10333
 N470 N -0.12428 0.63962 -0.09626
 N471 N -0.10913 0.61164 -0.08079
 C472 C -0.07435 0.61258 -0.07129
 N473 N -0.05519 0.64233 -0.07810
 N474 N -0.07016 0.67004 -0.09414
 C475 C 0.11947 0.69460 0.12209
 N476 N 0.09993 0.72139 0.13593
 N477 N 0.11573 0.74879 0.15162
 C478 C 0.15167 0.75067 0.15371
 N479 N 0.17128 0.72393 0.13968
 N480 N 0.15543 0.69623 0.12440
 C481 C 0.10179 0.66479 0.10443
 N482 N 0.11814 0.63293 0.10143
 N483 N 0.10173 0.60587 0.08562
 C484 C 0.06864 0.60989 0.07183
 N485 N 0.05243 0.64182 0.07461
 N486 N 0.06862 0.66871 0.09086
 C487 C 0.30457 1.12647 0.88256
 N488 N 0.30348 1.12975 0.84649
 N489 N 0.27571 1.14485 0.83057
 C490 C 0.24833 1.15774 0.85021
 N491 N 0.24966 1.15476 0.88631
 N492 N 0.27717 1.13922 0.90218
 C493 C 0.33450 1.10877 0.90005
 N494 N 0.33042 1.09367 0.93272
 N495 N 0.35738 1.07689 0.94830
 C496 C 0.38951 1.07508 0.93198
 N497 N 0.39366 1.09045 0.89945
 N498 N 0.36656 1.10678 0.88365
 C499 C 0.30075 0.87640 1.11722
 N500 N 0.27363 0.89654 1.12962
 N501 N 0.24574 0.88158 1.14552
 C502 C 0.24368 0.84586 1.14923
 N503 N 0.27074 0.82567 1.13661
 N504 N 0.29888 0.84068 1.12110
 C505 C 0.33139 0.89316 1.09975
 N506 N 0.36302 0.87610 1.09728
 N507 N 0.39087 0.89181 1.08191
 C508 C 0.38791 0.92494 1.06807
 N509 N 0.35620 0.94182 1.07031
 N510 N 0.32853 0.92632 1.08606
 C511 C 0.69905 1.11616 1.12306
 N512 N 0.72481 1.13134 1.10278
 N513 N 0.75200 1.14810 1.11801
 C514 C 0.75467 1.14990 1.15409
 N515 N 0.72899 1.13453 1.17438
 N516 N 0.70152 1.11820 1.15913
 C517 C 0.66905 1.09793 1.10615
 N518 N 0.63773 1.09392 1.12370
 N519 N 0.61027 1.07808 1.10793
 C520 C 0.61334 1.06520 1.07427
 N521 N 0.64477 1.06889 1.05688
 N522 N 0.67206 1.08517 1.07246
 C523 C 0.69633 0.87944 0.87443
 N524 N 0.69778 0.84360 0.87152
 N525 N 0.72590 0.82797 0.85673
 C526 C 0.75328 0.84769 0.84383
 N527 N 0.75159 0.88350 0.84654
 N528 N 0.72378 0.89906 0.86175
 C529 C 0.66610 0.89689 0.89166
 N530 N 0.67007 0.92954 0.90625
 N531 N 0.64291 0.94545 0.92234
 C532 C 0.61061 0.92951 0.92389
 N533 N 0.60653 0.89698 0.90903
 N534 N 0.63385 0.88084 0.89339
   
