data_POSCAR
  _audit_creation_date              2014-09-24
  _audit_creation_method            'ToBaCCo'
  _symmetry_space_group_name_H-M    'P1'
  _symmetry_Int_Tables_number       1
  _symmetry_cell_setting            triclinic
  loop_
  _symmetry_equiv_pos_as_xyz
 x,y,z
_cell_length_a 30.4828
_cell_length_b 30.4770
_cell_length_c 30.4713
_cell_angle_alpha 90.149500
_cell_angle_beta 89.847200
_cell_angle_gamma 90.156500
loop_
  _atom_site_label
  _atom_site_type_symbol
  _atom_site_fract_x
  _atom_site_fract_y
  _atom_site_fract_z
N1 N 0.23727 1.23812 0.23726
 N2 N 0.76152 0.76292 0.23731
 N3 N 0.76426 1.23608 -0.23626
 N4 N 0.23737 0.76243 -0.23800
 C5 C 0.56796 1.06117 -0.01610
 H6 H 0.56937 1.06188 0.01937
 C7 C 0.59685 1.08695 -0.04067
 H8 H 0.62005 1.10794 -0.02379
 C9 C 0.53566 1.03299 -0.08100
 H10 H 0.51237 1.01131 -0.09664
 C11 C 0.56392 1.05824 -0.10685
 H12 H 0.56198 1.05566 -0.14223
 N13 N 0.53783 1.03526 -0.03647
 C14 C 0.43344 1.01639 0.05989
 H15 H 0.43173 0.98093 0.06046
 C16 C 0.40472 1.04107 0.08572
 H17 H 0.38135 1.02429 0.10662
 C18 C 0.46632 1.08114 0.03199
 H19 H 0.48978 1.09668 0.01040
 C20 C 0.43824 1.10710 0.05731
 H21 H 0.44048 1.14247 0.05487
 Zn22 Zn 0.50068 1.00060 -0.00062
 N23 N 0.46378 1.03663 0.03409
 C24 C 0.53465 0.96814 0.07992
 N25 N 0.53724 0.96589 0.03539
 C26 C 0.56738 0.93993 0.01516
 C27 C 0.59582 0.91407 0.03984
 C28 C 0.56244 0.94281 0.10588
 C29 C 0.43392 0.98485 -0.06142
 C30 C 0.40525 0.96016 -0.08732
 C31 C 0.43804 0.89413 -0.05865
 C32 C 0.46607 0.92009 -0.03328
 N33 N 0.46387 0.96460 -0.03547
 H34 H 0.51136 0.98986 0.09546
 H35 H 0.56915 0.93923 -0.02031
 H36 H 0.61903 0.89302 0.02307
 H37 H 0.56016 0.94537 0.14126
 H38 H 0.43246 1.02030 -0.06206
 H39 H 0.38218 0.97694 -0.10834
 H40 H 0.43999 0.85876 -0.05613
 H41 H 0.48920 0.90455 -0.01157
 C42 C 0.40697 1.08710 0.08472
 C43 C 0.59498 1.08577 -0.08671
 C44 C 0.40716 0.91414 -0.08622
 C45 C 0.59349 0.91521 0.08588
 C46 C -0.01649 0.56662 1.06047
 H47 H 0.01895 0.56855 1.06088
 C48 C -0.04123 0.59529 1.08630
 H49 H -0.02454 0.61945 1.10636
 C50 C -0.08115 0.53363 1.03254
 H51 H -0.09664 0.50996 1.01114
 C52 C -0.10718 0.56170 1.05780
 H53 H -0.14253 0.55864 1.05617
 N54 N -0.03666 0.53624 1.03467
 C55 C 0.06006 0.43264 1.01573
 H56 H 0.06057 0.43072 0.98027
 C57 C 0.08593 0.40420 1.04041
 H58 H 0.10611 0.38022 1.02365
 C59 C 0.03187 0.46538 1.08050
 H60 H 0.01037 0.48886 1.09604
 C61 C 0.05716 0.43754 1.10646
 H62 H 0.05544 0.44058 1.14183
 Zn63 Zn -0.00056 0.49939 0.99996
 N64 N 0.03412 0.46279 1.03597
 C65 C 0.07997 0.53397 0.96730
 N66 N 0.03546 0.53627 0.96519
 C67 C 0.01524 0.56632 0.93934
 C68 C 0.03993 0.59499 0.91345
 C69 C 0.10594 0.56200 0.94193
 C70 C -0.06102 0.43204 0.98427
 C71 C -0.08677 0.40321 0.95960
 C72 C -0.05801 0.43633 0.89353
 C73 C -0.03285 0.46457 0.91948
 N74 N -0.03514 0.46227 0.96400
 H75 H 0.09549 0.51074 0.98893
 H76 H -0.02021 0.56785 0.93876
 H77 H 0.02317 0.61813 0.89250
 H78 H 0.14130 0.55996 0.94437
 H79 H -0.06156 0.43036 1.01972
 H80 H -0.10689 0.37917 0.97637
 H81 H -0.05625 0.43914 0.85816
 H82 H -0.01138 0.48812 0.90391
 C83 C 0.08476 0.40650 1.08644
 C84 C -0.08724 0.59299 1.08524
 C85 C -0.08553 0.40518 0.91357
 C86 C 0.08595 0.59297 0.91445
 C87 C 1.06058 -0.01567 0.56738
 H88 H 1.06128 0.01979 0.56911
 C89 C 1.08642 -0.04032 0.59587
 H90 H 1.10746 -0.02352 0.61908
 C91 C 1.03235 -0.08045 0.53472
 H92 H 1.01063 -0.09601 0.51144
 C93 C 1.05767 -0.10638 0.56256
 H94 H 1.05510 -0.14176 0.56033
 N95 N 1.03461 -0.03594 0.53726
 C96 C 1.01557 0.06070 0.43376
 H97 H 0.98011 0.06129 0.43231
 C98 C 1.04021 0.08659 0.40505
 H99 H 1.02341 0.10756 0.38196
 C100 C 1.08035 0.03268 0.46594
 H101 H 1.09591 0.01102 0.48912
 C102 C 1.10627 0.05805 0.43787
 H103 H 1.14164 0.05558 0.43983
 Zn104 Zn 0.99988 0.00003 0.50067
 N105 N 1.03584 0.03482 0.46375
 C106 C 0.96754 0.08048 0.53552
 N107 N 0.96530 0.03596 0.53782
 C108 C 0.93947 0.01566 0.56807
 C109 C 0.91370 0.04028 0.59692
 C110 C 0.94229 0.10638 0.56373
 C111 C 0.98390 -0.06056 0.43352
 C112 C 0.95912 -0.08640 0.40487
 C113 C 0.89322 -0.05776 0.43842
 C114 C 0.91927 -0.03251 0.46646
 N115 N 0.96377 -0.03470 0.46386
 H116 H 0.98916 0.09607 0.51213
 H117 H 0.93879 -0.01980 0.56959
 H118 H 0.89275 0.02346 0.62021
 H119 H 0.94483 0.14176 0.56167
 H120 H 1.01934 -0.06102 0.43159
 H121 H 0.97579 -0.10651 0.38073
 H122 H 0.85787 -0.05608 0.44146
 H123 H 0.90381 -0.01105 0.49009
 C124 C 1.08623 0.08555 0.40695
 C125 C 1.08526 -0.08635 0.59361
 C126 C 0.91311 -0.08526 0.40715
 C127 C 0.91482 0.08631 0.59489
 C128 C 0.16356 0.31978 1.16438
 C129 C 0.18080 0.33824 1.12601
 C130 C 0.15520 0.36643 1.10065
 C131 C 0.21195 0.26625 1.21220
 C132 C 0.09497 0.35782 1.15203
 C133 C 0.12062 0.32961 1.17732
 C134 C 0.18991 0.29070 1.19041
 C135 C 0.11197 0.37656 1.11338
 H136 H 0.21405 0.33093 1.11575
 H137 H 0.16942 0.38076 1.07139
 H138 H 0.06164 0.36448 1.16239
 H139 H 0.10691 0.31537 1.20690
 C140 C -0.16538 0.68052 1.16383
 C141 C -0.17818 0.67026 1.12094
 C142 C -0.15283 0.64179 1.09536
 C143 C -0.21335 0.73453 1.21205
 C144 C -0.10166 0.63376 1.15555
 C145 C -0.12709 0.66222 1.18108
 C146 C -0.19148 0.70987 1.19009
 C147 C -0.11425 0.62320 1.11239
 H148 H -0.20769 0.68437 1.10722
 H149 H -0.16308 0.63479 1.06207
 H150 H -0.07246 0.61957 1.16979
 H151 H -0.11693 0.66987 1.21428
 C152 C -0.16385 0.31723 0.83559
 C153 C -0.12092 0.32737 0.82272
 C154 C -0.09542 0.35597 0.84803
 C155 C -0.21193 0.26299 0.78761
 C156 C -0.15579 0.36435 0.89930
 C157 C -0.18123 0.33576 0.87391
 C158 C -0.19003 0.28777 0.80951
 C159 C -0.11258 0.37480 0.88663
 H160 H -0.10710 0.31308 0.79319
 H161 H -0.06210 0.36287 0.83773
 H162 H -0.17012 0.37873 0.92851
 H163 H -0.21447 0.32820 0.88411
 C164 C 0.16412 0.68027 0.83562
 C165 C 0.12629 0.69571 0.85661
 C166 C 0.10083 0.66736 0.88223
 C167 C 0.21220 0.73411 0.78729
 C168 C 0.15106 0.60794 0.86597
 C169 C 0.17644 0.63634 0.84034
 C170 C 0.19030 0.70951 0.80930
 C171 C 0.11293 0.62313 0.88721
 H172 H 0.11653 0.72970 0.85328
 H173 H 0.07203 0.68020 0.89862
 H174 H 0.16093 0.57396 0.86870
 H175 H 0.20561 0.62402 0.82414
 C176 C 1.16423 0.16440 0.31951
 C177 C 1.17666 0.15962 0.36341
 C178 C 1.15133 0.13399 0.39186
 C179 C 1.21218 0.21278 0.26560
 C180 C 1.10094 0.11782 0.33254
 C181 C 1.12634 0.14345 0.30414
 C182 C 1.19034 0.19074 0.29023
 C183 C 1.11316 0.11279 0.37675
 H184 H 1.20588 0.17580 0.37567
 H185 H 1.16129 0.13123 0.42582
 H186 H 1.07209 0.10146 0.31975
 H187 H 1.11650 0.14682 0.27018
 C188 C 1.16389 -0.16441 0.68038
 C189 C 1.14308 -0.12660 0.69606
 C190 C 1.11752 -0.10118 0.66789
 C191 C 1.21213 -0.21242 0.73388
 C192 C 1.13350 -0.15139 0.60815
 C193 C 1.15906 -0.17674 0.63639
 C194 C 1.19016 -0.19054 0.70944
 C195 C 1.11243 -0.11329 0.62358
 H196 H 1.14650 -0.11684 0.73010
 H197 H 1.10126 -0.07240 0.68091
 H198 H 1.13069 -0.16127 0.57412
 H199 H 1.17513 -0.20588 0.62389
 C200 C 0.83484 -0.16378 0.31967
 C201 C 0.82212 -0.12086 0.32989
 C202 C 0.84752 -0.09531 0.35835
 C203 C 0.78675 -0.21192 0.26568
 C204 C 0.89858 -0.15558 0.36643
 C205 C 0.87310 -0.18107 0.33799
 C206 C 0.80868 -0.19000 0.29033
 C207 C 0.88607 -0.11238 0.37695
 H208 H 0.79263 -0.10710 0.31577
 H209 H 0.83733 -0.06200 0.36531
 H210 H 0.92775 -0.16984 0.38064
 H211 H 0.88319 -0.21430 0.33036
 C212 C 0.83630 0.16427 0.68269
 C213 C 0.84101 0.17661 0.63873
 C214 C 0.86654 0.15129 0.61016
 C215 C 0.78814 0.21225 0.73684
 C216 C 0.88273 0.10111 0.66950
 C217 C 0.85721 0.12649 0.69801
 C218 C 0.81008 0.19037 0.71209
 C219 C 0.88769 0.11323 0.62522
 H220 H 0.82488 0.20574 0.62650
 H221 H 0.86925 0.16118 0.57615
 H222 H 0.89906 0.07234 0.68224
 H223 H 0.85388 0.11672 0.73203
 C224 C 0.31951 1.16516 0.16346
 C225 C 0.36352 1.17753 0.15880
 C226 C 0.39197 1.15219 0.13319
 C227 C 0.26561 1.21306 0.21189
 C228 C 0.33243 1.10192 0.11681
 C229 C 0.30404 1.12733 0.14241
 C230 C 0.29024 1.19125 0.18982
 C231 C 0.37675 1.11406 0.11190
 H232 H 0.37586 1.20670 0.17505
 H233 H 0.42601 1.16210 0.13052
 H234 H 0.31958 1.07311 0.10037
 H235 H 0.26999 1.11753 0.14570
 C236 C 0.68302 1.16417 -0.16453
 C237 C 0.63912 1.15943 -0.17701
 C238 C 0.61047 1.13396 -0.15174
 C239 C 0.73732 1.21223 -0.21246
 C240 C 0.66961 1.11787 -0.10130
 C241 C 0.69820 1.14334 -0.12665
 C242 C 0.71251 1.19033 -0.19060
 C243 C 0.62539 1.11287 -0.11357
 H244 H 0.62700 1.17551 -0.20622
 H245 H 0.57651 1.13122 -0.16174
 H246 H 0.68225 1.10159 -0.07245
 H247 H 0.73217 1.14668 -0.11676
 C248 C 0.31971 0.83591 -0.16482
 C249 C 0.36360 0.82351 -0.16005
 C250 C 0.39206 0.84892 -0.13452
 C251 C 0.26575 0.78770 -0.21287
 C252 C 0.33276 0.89936 -0.11845
 C253 C 0.30436 0.87387 -0.14398
 C254 C 0.29040 0.80967 -0.19099
 C255 C 0.37696 0.88716 -0.11341
 H256 H 0.37584 0.79424 -0.17614
 H257 H 0.42601 0.83897 -0.13175
 H258 H 0.31999 0.92825 -0.10216
 H259 H 0.27040 0.88370 -0.14734
 C260 C 0.68007 0.83647 0.16404
 C261 C 0.69581 0.85729 0.12626
 C262 C 0.66770 0.88289 0.10080
 C263 C 0.73345 0.78818 0.21213
 C264 C 0.60791 0.86693 0.15093
 C265 C 0.63608 0.84133 0.17632
 C266 C 0.70906 0.81018 0.19022
 C267 C 0.62340 0.88801 0.11286
 H268 H 0.72985 0.85385 0.11653
 H269 H 0.68077 0.89915 0.07204
 H270 H 0.57387 0.86976 0.16077
 H271 H 0.62352 0.82525 0.20545
   
