data_POSCAR
  _audit_creation_date              2014-09-24
  _audit_creation_method            'ToBaCCo'
  _symmetry_space_group_name_H-M    'P1'
  _symmetry_Int_Tables_number       1
  _symmetry_cell_setting            triclinic
  loop_
  _symmetry_equiv_pos_as_xyz
 x,y,z
_cell_length_a 47.1283
_cell_length_b 45.6490
_cell_length_c 49.0576
_cell_angle_alpha 90.365000
_cell_angle_beta 91.156700
_cell_angle_gamma 91.069200
loop_
  _atom_site_label
  _atom_site_type_symbol
  _atom_site_fract_x
  _atom_site_fract_y
  _atom_site_fract_z
N1 N 0.15187 0.23770 0.20194
 N2 N 0.16076 0.21568 0.21684
 C3 C 0.14623 0.21491 0.24020
 C4 C 0.12743 0.23777 0.23963
 C5 C 0.13139 0.25182 0.21523
 H6 H 0.14882 0.19879 0.25608
 H7 H 0.11986 0.27035 0.20743
 Cu8 Cu 0.18964 0.18938 0.20386
 Cu9 Cu 0.16610 0.24495 0.16566
 Cu10 Cu 0.22895 0.21048 0.15064
 N11 N 0.22526 0.17074 0.19571
 N12 N 0.24061 0.17916 0.17494
 C13 C 0.26392 0.16261 0.17374
 C14 C 0.26300 0.14304 0.19494
 C15 C 0.23832 0.14857 0.20861
 H16 H 0.28014 0.16450 0.15854
 H17 H 0.23042 0.13732 0.22634
 N18 N 0.21334 0.24251 0.12847
 N19 N 0.18922 0.25538 0.13410
 C20 C 0.18427 0.27647 0.11562
 C21 C 0.20624 0.27659 0.09762
 C22 C 0.22440 0.25497 0.10612
 H23 H 0.16636 0.29093 0.11553
 H24 H 0.24418 0.24907 0.09694
 H25 H 0.18627 0.20595 0.15630
 H26 H 0.20542 0.23263 0.17934
 N27 N 0.66220 0.75312 0.73653
 N28 N 0.66763 0.72708 0.74654
 C29 C 0.65174 0.72254 0.76870
 C30 C 0.63569 0.74717 0.77249
 C31 C 0.64264 0.76612 0.75189
 H32 H 0.65135 0.70271 0.78064
 H33 H 0.63349 0.78725 0.74787
 Cu34 Cu 0.69401 0.70107 0.72909
 Cu35 Cu 0.67908 0.76730 0.70312
 Cu36 Cu 0.72675 0.72157 0.67194
 N37 N 0.72747 0.68115 0.71648
 N38 N 0.74025 0.68927 0.69407
 C39 C 0.76187 0.67117 0.68930
 C40 C 0.76253 0.65086 0.70992
 C41 C 0.74055 0.65759 0.72692
 H42 H 0.77563 0.67237 0.67195
 H43 H 0.73424 0.64599 0.74504
 N44 N 0.71624 0.75995 0.65708
 N45 N 0.69822 0.77751 0.66905
 C46 C 0.69503 0.80173 0.65379
 C47 C 0.71198 0.79912 0.63145
 C48 C 0.72523 0.77256 0.63397
 H49 H 0.68123 0.81970 0.65834
 H50 H 0.73996 0.76306 0.61996
 H51 H 0.68574 0.72714 0.68604
 H52 H 0.71583 0.74302 0.70690
 N53 N 0.34127 0.76955 0.74767
 N54 N 0.33278 0.79319 0.76042
 C55 C 0.35073 0.79946 0.78142
 C56 C 0.37134 0.77852 0.78173
 C57 C 0.36492 0.75974 0.76020
 H58 H 0.34847 0.81726 0.79581
 H59 H 0.37614 0.74026 0.75443
 Cu60 Cu 0.29787 0.81223 0.74992
 Cu61 Cu 0.31991 0.75246 0.71684
 Cu62 Cu 0.26589 0.79500 0.69035
 N63 N 0.25891 0.82304 0.74212
 N64 N 0.24653 0.81669 0.71845
 C65 C 0.21967 0.82622 0.71838
 C66 C 0.21543 0.83898 0.74338
 C67 C 0.24037 0.83669 0.75818
 H68 H 0.20436 0.82321 0.70182
 H69 H 0.24455 0.84370 0.77901
 N70 N 0.28126 0.76151 0.67068
 N71 N 0.30137 0.74477 0.68096
 C72 C 0.30610 0.72273 0.66331
 C73 C 0.28791 0.72590 0.64125
 C74 C 0.27240 0.75056 0.64637
 H75 H 0.32117 0.70544 0.66648
 H76 H 0.25550 0.75938 0.63384
 H77 H 0.30850 0.79294 0.70459
 H78 H 0.28043 0.77114 0.72203
 N79 N 0.85158 0.27749 0.24278
 N80 N 0.84394 0.30292 0.25278
 C81 C 0.85838 0.30834 0.27623
 C82 C 0.87602 0.28517 0.28099
 C83 C 0.87105 0.26570 0.25973
 H84 H 0.85392 0.32596 0.29028
 H85 H 0.87878 0.24360 0.25812
 Cu86 Cu 0.81129 0.32321 0.23832
 Cu87 Cu 0.83188 0.25956 0.21137
 Cu88 Cu 0.78069 0.30180 0.17944
 N89 N 0.77297 0.33457 0.22856
 N90 N 0.76107 0.32656 0.20511
 C91 C 0.73502 0.33806 0.20300
 C92 C 0.73051 0.35365 0.22658
 C93 C 0.75486 0.35123 0.24244
 H94 H 0.72062 0.33529 0.18569
 H95 H 0.75924 0.36106 0.26224
 N96 N 0.79600 0.26635 0.16290
 N97 N 0.81520 0.24989 0.17508
 C98 C 0.82022 0.22653 0.15903
 C99 C 0.80312 0.22858 0.13606
 C100 C 0.78800 0.25391 0.13898
 H101 H 0.83463 0.20908 0.16396
 H102 H 0.77191 0.26222 0.12519
 H103 H 0.82272 0.29934 0.19514
 H104 H 0.79320 0.28048 0.21324
 N105 N 0.82764 0.71206 0.27435
 N106 N 0.81761 0.68698 0.26451
 C107 C 0.83154 0.68018 0.24163
 C108 C 0.85120 0.70226 0.23723
 C109 C 0.84838 0.72216 0.25826
 H110 H 0.82797 0.66054 0.22949
 H111 H 0.86067 0.74211 0.26183
 Cu112 Cu 0.78832 0.66499 0.28334
 Cu113 Cu 0.81414 0.72895 0.30806
 Cu114 Cu 0.75027 0.69998 0.33054
 N115 N 0.75279 0.64878 0.29645
 N116 N 0.73788 0.66257 0.31479
 C117 C 0.71453 0.64641 0.32038
 C118 C 0.71500 0.62145 0.30455
 C119 C 0.73939 0.62343 0.28953
 H120 H 0.69856 0.65229 0.33486
 H121 H 0.74682 0.60769 0.27485
 N122 N 0.76672 0.73741 0.34413
 N123 N 0.79138 0.74808 0.33599
 C124 C 0.79747 0.77320 0.34964
 C125 C 0.77560 0.77828 0.36707
 C126 C 0.75641 0.75538 0.36329
 H127 H 0.81643 0.78657 0.34728
 H128 H 0.73686 0.75182 0.37404
 H129 H 0.79262 0.69376 0.32586
 H130 H 0.77426 0.71355 0.29765
 N131 N 0.33941 0.23457 -0.27417
 N132 N 0.33231 0.20817 -0.28340
 C133 C 0.34457 0.20385 -0.30763
 C134 C 0.36022 0.22869 -0.31349
 C135 C 0.35639 0.24801 -0.29228
 H136 H 0.34120 0.18485 -0.32065
 H137 H 0.36423 0.27039 -0.29068
 Cu138 Cu 0.30557 0.18311 -0.26406
 Cu139 Cu 0.32423 0.25036 -0.24038
 Cu140 Cu 0.27687 0.20560 -0.20601
 N141 N 0.27882 0.15801 -0.24464
 N142 N 0.26815 0.16718 -0.22156
 C143 C 0.24973 0.14696 -0.21233
 C144 C 0.24868 0.12407 -0.23057
 C145 C 0.26721 0.13146 -0.25104
 H146 H 0.23723 0.14914 -0.19419
 H147 H 0.27123 0.11908 -0.26936
 N148 N 0.28802 0.24504 -0.19317
 N149 N 0.30643 0.26212 -0.20583
 C150 C 0.30981 0.28744 -0.19162
 C151 C 0.29243 0.28593 -0.16938
 C152 C 0.27894 0.25898 -0.17083
 H153 H 0.32363 0.30556 -0.19706
 H154 H 0.26390 0.25019 -0.15655
 H155 H 0.31678 0.21063 -0.22241
 H156 H 0.28671 0.22654 -0.24219
 N157 N 0.64000 0.26488 -0.22396
 N158 N 0.65086 0.27981 -0.24428
 C159 C 0.63432 0.27549 -0.26681
 C160 C 0.61176 0.25759 -0.25964
 C161 C 0.61600 0.25098 -0.23257
 H162 H 0.63915 0.28340 -0.28696
 H163 H 0.60391 0.23550 -0.22062
 Cu164 Cu 0.68668 0.30165 -0.23931
 Cu165 Cu 0.65984 0.26085 -0.18899
 Cu166 Cu 0.73158 0.27742 -0.19111
 N167 N 0.72214 0.32285 -0.23046
 N168 N 0.73970 0.31282 -0.21164
 C169 C 0.76244 0.33093 -0.20912
 C170 C 0.75883 0.35345 -0.22721
 C171 C 0.73312 0.34798 -0.24059
 H172 H 0.77998 0.32813 -0.19486
 H173 H 0.72309 0.36125 -0.25608
 N174 N 0.71505 0.25195 -0.16327
 N175 N 0.68748 0.24662 -0.16175
 C176 C 0.68263 0.22870 -0.14056
 C177 C 0.70843 0.22285 -0.12831
 C178 C 0.72864 0.23783 -0.14299
 H179 H 0.66205 0.22007 -0.13495
 H180 H 0.75136 0.23824 -0.13939
 H181 H 0.69211 0.29304 -0.19038
 H182 H 0.69559 0.25885 -0.21102
 N183 N 0.14741 0.77691 0.27145
 N184 N 0.15117 0.80398 0.26298
 C185 C 0.13260 0.80934 0.24246
 C186 C 0.11653 0.78422 0.23804
 C187 C 0.12621 0.76398 0.25666
 H188 H 0.13150 0.82958 0.23118
 H189 H 0.11878 0.74159 0.25899
 Cu190 Cu 0.18172 0.82865 0.27772
 Cu191 Cu 0.17067 0.76061 0.30076
 Cu192 Cu 0.22928 0.80212 0.32259
 N193 N 0.21921 0.84637 0.28247
 N194 N 0.23853 0.83509 0.29885
 C195 C 0.26380 0.84844 0.29443
 C196 C 0.25961 0.86941 0.27463
 C197 C 0.23134 0.86734 0.26724
 H198 H 0.28386 0.84178 0.30328
 H199 H 0.22107 0.87793 0.25011
 N200 N 0.21893 0.76400 0.33893
 N201 N 0.19662 0.74821 0.33038
 C202 C 0.19402 0.72432 0.34613
 C203 C 0.21570 0.72517 0.36526
 C204 C 0.23125 0.75049 0.36039
 H205 H 0.17708 0.70807 0.34451
 H206 H 0.24937 0.75889 0.37206
 H207 H 0.18514 0.79905 0.31910
 H208 H 0.20655 0.78467 0.29053
 N209 N 0.48038 0.41811 0.52860
 N210 N 0.45927 0.43227 0.53943
 C211 C 0.46368 0.43446 0.56656
 C212 C 0.48828 0.42003 0.57315
 C213 C 0.49852 0.41001 0.54864
 H214 H 0.45119 0.44756 0.58011
 H215 H 0.51919 0.40088 0.54534
 Cu216 Cu 0.42990 0.44990 0.51693
 Cu217 Cu 0.48583 0.41732 0.48915
 Cu218 Cu 0.44759 0.47000 0.45408
 N219 N 0.40726 0.47758 0.49653
 N220 N 0.41481 0.48591 0.47205
 C221 C 0.39694 0.50646 0.46290
 C222 C 0.37733 0.51107 0.48275
 C223 C 0.38424 0.49255 0.50395
 H224 H 0.39842 0.51756 0.44357
 H225 H 0.37400 0.49077 0.52342
 N226 N 0.48111 0.45107 0.43918
 N227 N 0.49517 0.43024 0.45193
 C228 C 0.51725 0.42228 0.43655
 C229 C 0.51673 0.43907 0.41327
 C230 C 0.49372 0.45701 0.41545
 H231 H 0.53301 0.40645 0.44236
 H232 H 0.48710 0.47352 0.40108
 H233 H 0.47071 0.45886 0.48886
 H234 H 0.44657 0.43040 0.47321
 N235 N -0.00318 -0.08709 0.99798
 N236 N -0.02758 -0.08042 1.00883
 C237 C -0.03385 -0.10023 1.02822
 C238 C -0.01205 -0.12002 1.02927
 C239 C 0.00701 -0.11123 1.01002
 H240 H -0.05287 -0.10057 1.04019
 H241 H 0.02640 -0.12200 1.00471
 Cu242 Cu -0.04908 -0.04700 0.99584
 Cu243 Cu 0.01274 -0.06562 0.96764
 Cu244 Cu -0.02683 -0.00896 0.94136
 N245 N -0.07081 -0.01472 0.98084
 N246 N -0.06216 -0.00041 0.95921
 C247 C -0.08069 0.02074 0.95306
 C248 C -0.10184 0.01958 0.97188
 C249 C -0.09521 -0.00301 0.98934
 H250 H -0.07862 0.03618 0.93657
 H251 H -0.10700 -0.01009 1.00688
 N252 N 0.00959 -0.02063 0.92616
 N253 N 0.02521 -0.04156 0.93683
 C254 C 0.04860 -0.04474 0.92183
 C255 C 0.04733 -0.02500 0.90083
 C256 C 0.02246 -0.01002 0.90390
 H257 H 0.06465 -0.06102 0.92512
 H258 H 0.01411 0.00666 0.89059
 H259 H -0.00663 -0.02619 0.97519
 H260 H -0.02612 -0.05274 0.95208
 N261 N 1.01502 0.58630 0.98131
 N262 N 1.03952 0.57779 0.99156
 C263 C 1.04401 0.59057 1.01616
 C264 C 1.02104 0.60785 1.02136
 C265 C 1.00300 0.60486 0.99894
 H266 H 1.06280 0.58812 1.02890
 H267 H 0.98317 0.61591 0.99536
 Cu268 Cu 1.06409 0.55235 0.97098
 Cu269 Cu 1.00169 0.57445 0.94499
 Cu270 Cu 1.03617 0.51534 0.91690
 N271 N 1.08331 0.51929 0.95493
 N272 N 1.07217 0.50477 0.93392
 C273 C 1.08965 0.48311 0.92685
 C274 C 1.11274 0.48423 0.94446
 C275 C 1.10826 0.50729 0.96213
 H276 H 1.08587 0.46776 0.91024
 H277 H 1.12196 0.51464 0.97886
 N278 N 0.99968 0.52966 0.90247
 N279 N 0.98688 0.55264 0.91277
 C280 C 0.96309 0.55772 0.89794
 C281 C 0.96107 0.53693 0.87753
 C282 C 0.98443 0.51945 0.88077
 H283 H 0.94848 0.57522 0.90163
 H284 H 0.99008 0.50113 0.86804
 H285 H 1.01920 0.53434 0.95147
 H286 H 1.03834 0.55871 0.92733
 N287 N 0.53612 0.13019 0.46019
 N288 N 0.56057 0.12144 0.47041
 C289 C 0.56933 0.13998 0.49045
 C290 C 0.54946 0.16153 0.49258
 C291 C 0.52855 0.15484 0.47326
 H292 H 0.58794 0.13716 0.50337
 H293 H 0.50864 0.16586 0.47019
 Cu294 Cu 0.57747 0.08525 0.45840
 Cu295 Cu 0.51430 0.10685 0.43327
 Cu296 Cu 0.54012 0.03788 0.41882
 N297 N 0.58956 0.04515 0.45368
 N298 N 0.57503 0.02678 0.43773
 C299 C 0.58827 0.00090 0.43716
 C300 C 0.61206 0.00336 0.45380
 C301 C 0.61248 0.03159 0.46408
 H302 H 0.58123 -0.01815 0.42550
 H303 H 0.62833 0.04157 0.47761
 N304 N 0.50523 0.05309 0.40172
 N305 N 0.49551 0.07952 0.40685
 C306 C 0.47178 0.08362 0.39158
 C307 C 0.46655 0.05852 0.37642
 C308 C 0.48799 0.03959 0.38315
 H309 H 0.45942 0.10333 0.39131
 H310 H 0.49099 0.01791 0.37481
 H311 H 0.52931 0.06799 0.44847
 H312 H 0.54693 0.08282 0.41757
 N313 N 0.01178 0.07579 0.50619
 N314 N -0.01191 0.06944 0.49255
 C315 C -0.01372 0.08692 0.47055
 C316 C 0.01023 0.10480 0.47073
 C317 C 0.02594 0.09739 0.49343
 H318 H -0.03142 0.08741 0.45621
 H319 H 0.04550 0.10775 0.50071
 Cu320 Cu -0.03879 0.04038 0.50612
 Cu321 Cu 0.02154 0.05754 0.54066
 Cu322 Cu -0.02559 0.00520 0.56492
 N323 N -0.06491 0.01059 0.51963
 N324 N -0.05949 -0.00306 0.54268
 C325 C -0.08079 -0.02221 0.54767
 C326 C -0.10037 -0.02031 0.52665
 C327 C -0.08994 0.00058 0.50909
 H328 H -0.08202 -0.03629 0.56527
 H329 H -0.09983 0.00795 0.49033
 N330 N 0.00990 0.01668 0.58441
 N331 N 0.02779 0.03675 0.57514
 C332 C 0.04955 0.04038 0.59312
 C333 C 0.04500 0.02168 0.61445
 C334 C 0.01985 0.00687 0.60857
 H335 H 0.06723 0.05558 0.59103
 H336 H 0.00952 -0.00943 0.62103
 H337 H -0.00076 0.01876 0.53313
 H338 H -0.01959 0.04782 0.55221
 N339 N 0.49898 0.57646 0.02996
 N340 N 0.48341 0.56436 0.01021
 C341 C 0.48404 0.58168 -0.01186
 C342 C 0.50105 0.60572 -0.00539
 C343 C 0.51028 0.60195 0.02116
 H344 H 0.47236 0.57758 -0.03074
 H345 H 0.52328 0.61695 0.03341
 Cu346 Cu 0.46199 0.52834 0.01557
 Cu347 Cu 0.50123 0.55934 0.06618
 Cu348 Cu 0.47261 0.48908 0.07218
 N349 N 0.43554 0.49761 0.02602
 N350 N 0.43979 0.48194 0.04811
 C351 C 0.41886 0.46157 0.04993
 C352 C 0.40073 0.46507 0.02786
 C353 C 0.41172 0.48800 0.01301
 H354 H 0.41709 0.44553 0.06598
 H355 H 0.40323 0.49684 -0.00580
 N356 N 0.49817 0.50711 0.09997
 N357 N 0.50860 0.53408 0.09791
 C358 C 0.52533 0.54014 0.11988
 C359 C 0.52510 0.51590 0.13637
 C360 C 0.50780 0.49524 0.12339
 H361 H 0.53719 0.56037 0.12334
 H362 H 0.50284 0.47330 0.13026
 H363 H 0.49869 0.51814 0.05014
 H364 H 0.46531 0.53177 0.06514
 N365 N 0.53053 -0.09454 0.02954
 N366 N 0.55433 -0.08508 0.01879
 C367 C 0.55935 -0.10054 -0.00399
 C368 C 0.53755 -0.12070 -0.00748
 C369 C 0.51952 -0.11662 0.01404
 H370 H 0.57761 -0.09761 -0.01676
 H371 H 0.50027 -0.12888 0.01831
 Cu372 Cu 0.57708 -0.05415 0.03590
 Cu373 Cu 0.51685 -0.07807 0.06355
 Cu374 Cu 0.54743 -0.01079 0.08250
 N375 N 0.59336 -0.01621 0.04538
 N376 N 0.58184 0.00088 0.06363
 C377 C 0.59749 0.02583 0.06615
 C378 C 0.61961 0.02397 0.04832
 C379 C 0.61653 -0.00282 0.03539
 H380 H 0.59305 0.04385 0.07973
 H381 H 0.63000 -0.01182 0.01996
 N382 N 0.51275 -0.02695 0.09913
 N383 N 0.50141 -0.05274 0.09219
 C384 C 0.47854 -0.05802 0.10756
 C385 C 0.47556 -0.03447 0.12480
 C386 C 0.49740 -0.01508 0.11915
 H387 H 0.46515 -0.07750 0.10637
 H388 H 0.50192 0.00575 0.12907
 H389 H 0.53140 -0.03780 0.05137
 H390 H 0.55220 -0.05512 0.07942
 N391 N 1.01956 0.40221 0.52253
 N392 N 1.03969 0.41422 0.50785
 C393 C 1.04458 0.39678 0.48620
 C394 C 1.02656 0.37271 0.48785
 C395 C 1.01102 0.37664 0.51097
 H396 H 1.05996 0.40115 0.47061
 H397 H 0.99466 0.36218 0.51868
 Cu398 Cu 1.05786 0.45112 0.51901
 Cu399 Cu 1.00590 0.42036 0.55563
 Cu400 Cu 1.03083 0.49081 0.57013
 N401 N 1.07427 0.48892 0.52985
 N402 N 1.06355 0.50443 0.54976
 C403 C 1.07929 0.52912 0.55358
 C404 C 1.10074 0.52889 0.53497
 C405 C 1.09716 0.50325 0.52018
 H406 H 1.07576 0.54559 0.56902
 H407 H 1.11051 0.49541 0.50412
 N408 N 0.99817 0.47275 0.58858
 N409 N 0.98898 0.44572 0.58331
 C410 C 0.96678 0.43945 0.59930
 C411 C 0.96209 0.46363 0.61532
 C412 C 0.98220 0.48441 0.60824
 H413 H 0.95498 0.41891 0.59931
 H414 H 0.98506 0.50615 0.61685
 H415 H 1.01352 0.46194 0.54097
 H416 H 1.04064 0.44784 0.56566
 C417 C 0.40864 0.02342 0.21405
 H418 H 0.40686 0.04379 0.22522
 C419 C 0.42938 0.02064 0.19426
 H420 H 0.44354 0.03894 0.19003
 C421 C 0.39295 -0.02559 0.20625
 H422 H 0.37952 -0.04398 0.21153
 C423 C 0.41324 -0.02924 0.18627
 H424 H 0.41469 -0.05023 0.17605
 N425 N 0.39051 0.00066 0.21926
 C426 C 0.31782 0.04304 0.25609
 H427 H 0.31583 0.03010 0.27437
 C428 C 0.29871 0.06543 0.25071
 H429 H 0.28199 0.06984 0.26489
 C430 C 0.34163 0.05278 0.21492
 H431 H 0.35794 0.04738 0.20069
 C432 C 0.32306 0.07543 0.20883
 H433 H 0.32551 0.08749 0.19007
 Zn434 Zn 0.36293 0.00555 0.24665
 N435 N 0.33886 0.03726 0.23835
 C436 C 0.38274 0.03890 0.29274
 N437 N 0.38343 0.01253 0.27965
 C438 C 0.40156 -0.00863 0.28789
 C439 C 0.42030 -0.00353 0.30986
 C440 C 0.40126 0.04495 0.31480
 C441 C 0.32647 -0.03697 0.22460
 C442 C 0.31180 -0.06368 0.22262
 C443 C 0.32124 -0.07140 0.27061
 C444 C 0.33681 -0.04493 0.27145
 N445 N 0.33969 -0.02873 0.24840
 H446 H 0.36870 0.05571 0.28542
 H447 H 0.40207 -0.02913 0.27676
 H448 H 0.43512 -0.02024 0.31588
 H449 H 0.40104 0.06627 0.32458
 H450 H 0.32868 -0.02341 0.20673
 H451 H 0.30265 -0.07082 0.20322
 H452 H 0.31961 -0.08466 0.28875
 H453 H 0.34701 -0.03767 0.29031
 C454 C 0.30126 0.08186 0.22691
 C455 C 0.43161 -0.00582 0.18000
 C456 C 0.30928 -0.08121 0.24569
 C457 C 0.42059 0.02361 0.32322
 C458 C 0.08768 -0.02787 0.72151
 H459 H 0.08363 -0.04543 0.73560
 C460 C 0.07002 -0.02487 0.69855
 H461 H 0.05256 -0.04025 0.69490
 C462 C 0.11489 0.01393 0.70901
 H463 H 0.13198 0.02941 0.71336
 C464 C 0.09788 0.01760 0.68572
 H465 H 0.10232 0.03568 0.67221
 N466 N 0.10985 -0.00882 0.72615
 C467 C 0.17299 -0.06092 0.75083
 H468 H 0.18808 -0.04421 0.74489
 C469 C 0.18119 -0.09018 0.75144
 H470 H 0.20252 -0.09570 0.74580
 C471 C 0.12708 -0.07431 0.76586
 H472 H 0.10616 -0.06796 0.77197
 C473 C 0.13447 -0.10371 0.76697
 H474 H 0.11911 -0.12001 0.77352
 Zn475 Zn 0.13374 -0.01431 0.75724
 N476 N 0.14617 -0.05360 0.75765
 C477 C 0.12278 -0.01975 0.81281
 N478 N 0.11246 -0.00868 0.78900
 C479 C 0.08667 0.00417 0.78753
 C480 C 0.06977 0.00550 0.81056
 C481 C 0.10642 -0.01923 0.83619
 C482 C 0.18232 0.01406 0.73500
 C483 C 0.20365 0.03572 0.73364
 C484 C 0.18924 0.05395 0.77746
 C485 C 0.16823 0.03206 0.77797
 N486 N 0.16491 0.01282 0.75682
 H487 H 0.14335 -0.02987 0.81335
 H488 H 0.07894 0.01286 0.76838
 H489 H 0.04898 0.01515 0.80916
 H490 H 0.11458 -0.02887 0.85479
 H491 H 0.17900 -0.00114 0.71818
 H492 H 0.21692 0.03701 0.71591
 H493 H 0.19116 0.06934 0.79430
 H494 H 0.15414 0.03092 0.79504
 C495 C 0.16163 -0.11189 0.75954
 C496 C 0.07526 -0.00216 0.68028
 C497 C 0.20701 0.05618 0.75485
 C498 C 0.07938 -0.00685 0.83499
 C499 C 0.57084 0.45751 0.23859
 H500 H 0.56912 0.43768 0.25046
 C501 C 0.55377 0.46095 0.21522
 H502 H 0.53886 0.44374 0.20897
 C503 C 0.59241 0.50420 0.23202
 H504 H 0.60728 0.52116 0.23869
 C505 C 0.57573 0.50856 0.20866
 H506 H 0.57817 0.52878 0.19747
 N507 N 0.59009 0.47877 0.24619
 C508 C 0.65848 0.43634 0.29101
 H509 H 0.65891 0.44909 0.30968
 C510 C 0.67986 0.41634 0.28614
 H511 H 0.69665 0.41336 0.30121
 C512 C 0.63729 0.42609 0.24764
 H513 H 0.62134 0.43073 0.23226
 C514 C 0.65829 0.40591 0.24195
 H515 H 0.65799 0.39485 0.22237
 Zn516 Zn 0.61390 0.47311 0.27724
 N517 N 0.63794 0.44105 0.27174
 C518 C 0.59337 0.44391 0.32455
 N519 N 0.59074 0.46752 0.30790
 C520 C 0.57057 0.48787 0.31208
 C521 C 0.55221 0.48513 0.33388
 C522 C 0.57551 0.44046 0.34680
 C523 C 0.65878 0.50932 0.26316
 C524 C 0.67810 0.53276 0.26482
 C525 C 0.65493 0.54950 0.30541
 C526 C 0.63611 0.52549 0.30313
 N527 N 0.63822 0.50619 0.28204
 H528 H 0.60918 0.42769 0.32058
 H529 H 0.56872 0.50620 0.29833
 H530 H 0.53618 0.50143 0.33706
 H531 H 0.57779 0.42166 0.35995
 H532 H 0.66008 0.49352 0.24673
 H533 H 0.69437 0.53510 0.24968
 H534 H 0.65302 0.56483 0.32217
 H535 H 0.61989 0.52237 0.31814
 C536 C 0.68019 0.40138 0.26121
 C537 C 0.55634 0.48658 0.19990
 C538 C 0.67618 0.55318 0.28596
 C539 C 0.55466 0.46135 0.35151
 C540 C 0.90008 0.51937 0.70876
 H541 H 0.90118 0.53825 0.72221
 C542 C 0.91957 0.51671 0.68787
 H543 H 0.93562 0.53365 0.68506
 C544 C 0.87838 0.47379 0.69641
 H545 H 0.86261 0.45688 0.70013
 C546 C 0.89760 0.47017 0.67537
 H547 H 0.89628 0.45058 0.66283
 N548 N 0.87991 0.49816 0.71255
 C549 C 0.81355 0.54125 0.75811
 H550 H 0.81175 0.52661 0.77527
 C551 C 0.79587 0.56539 0.75598
 H552 H 0.78043 0.56946 0.77154
 C553 C 0.83550 0.55366 0.71658
 H554 H 0.85062 0.54879 0.70102
 C555 C 0.81827 0.57807 0.71369
 H556 H 0.82049 0.59190 0.69599
 Zn557 Zn 0.85596 0.50253 0.74281
 N558 N 0.83309 0.53602 0.73871
 C559 C 0.87899 0.53013 0.79105
 N560 N 0.88015 0.50649 0.77406
 C561 C 0.90002 0.48558 0.77786
 C562 C 0.91959 0.48782 0.79956
 C563 C 0.89813 0.53316 0.81309
 C564 C 0.81074 0.46492 0.72644
 C565 C 0.79166 0.44119 0.72824
 C566 C 0.81521 0.42717 0.77022
 C567 C 0.83365 0.45127 0.76777
 N568 N 0.83132 0.46940 0.74598
 H569 H 0.86355 0.54689 0.78735
 H570 H 0.90083 0.46729 0.76378
 H571 H 0.93543 0.47116 0.80234
 H572 H 0.89706 0.55215 0.82632
 H573 H 0.80911 0.47990 0.70950
 H574 H 0.77534 0.43778 0.71263
 H575 H 0.81745 0.41296 0.78768
 H576 H 0.84969 0.45548 0.78340
 C577 C 0.79821 0.58410 0.73365
 C578 C 0.91856 0.49186 0.67107
 C579 C 0.79391 0.42195 0.75022
 C580 C 0.91878 0.51179 0.81737
 C581 C 0.22109 0.42862 -0.01452
 H582 H 0.23584 0.42899 0.00268
 C583 C 0.19875 0.44826 -0.01550
 H584 H 0.19623 0.46387 0.00095
 C585 C 0.20617 0.40767 -0.05690
 H586 H 0.20918 0.39186 -0.07301
 C587 C 0.18339 0.42679 -0.05858
 H588 H 0.16898 0.42552 -0.07603
 N589 N 0.22417 0.40860 -0.03486
 C590 C 0.26371 0.33199 0.00078
 H591 H 0.28211 0.32998 -0.01189
 C592 C 0.25890 0.31185 0.02157
 H593 H 0.27361 0.29426 0.02502
 C594 C 0.22209 0.35747 0.01198
 H595 H 0.20772 0.37519 0.00812
 C596 C 0.21647 0.33780 0.03295
 H597 H 0.19785 0.34069 0.04516
 Zn598 Zn 0.25421 0.38184 -0.03101
 N599 N 0.24566 0.35454 -0.00329
 C600 C 0.30169 0.39737 0.00260
 N601 N 0.28760 0.40338 -0.02114
 C602 C 0.29645 0.42547 -0.03760
 C603 C 0.32086 0.44197 -0.03075
 C604 C 0.32614 0.41331 0.01021
 C605 C 0.23900 0.33977 -0.07038
 C606 C 0.24221 0.32155 -0.09300
 C607 C 0.28686 0.34616 -0.10189
 C608 C 0.28299 0.36373 -0.07886
 N609 N 0.25927 0.36032 -0.06369
 H610 H 0.29396 0.38035 0.01583
 H611 H 0.28456 0.43020 -0.05609
 H612 H 0.32796 0.45937 -0.04403
 H613 H 0.33713 0.40815 0.02911
 H614 H 0.22058 0.33716 -0.05773
 H615 H 0.22622 0.30490 -0.09791
 H616 H 0.30593 0.34885 -0.11359
 H617 H 0.29917 0.37965 -0.07292
 C618 C 0.23524 0.31483 0.03802
 C619 C 0.17944 0.44721 -0.03749
 C620 C 0.26633 0.32463 -0.10892
 C621 C 0.33596 0.43584 -0.00669
 C622 C 0.72151 0.07705 -0.00703
 H623 H 0.73465 0.07386 -0.02458
 C624 C 0.69870 0.05798 -0.00239
 H625 H 0.69412 0.04000 -0.01640
 C626 C 0.71174 0.10396 0.03313
 H627 H 0.71720 0.12160 0.04715
 C628 C 0.68854 0.08550 0.03841
 H629 H 0.67619 0.08915 0.05644
 N630 N 0.72755 0.09950 0.01062
 C631 C 0.77381 0.16458 -0.03656
 H632 H 0.79391 0.16581 -0.02552
 C633 C 0.76902 0.18280 -0.05891
 H634 H 0.78552 0.19791 -0.06531
 C635 C 0.72739 0.14403 -0.04137
 H636 H 0.71103 0.12928 -0.03420
 C637 C 0.72161 0.16209 -0.06358
 H638 H 0.70093 0.16075 -0.07357
 Zn639 Zn 0.75985 0.12294 0.00327
 N640 N 0.75319 0.14551 -0.02841
 C641 C 0.80653 0.09771 -0.02387
 N642 N 0.79051 0.09723 -0.00112
 C643 C 0.79525 0.07748 0.01905
 C644 C 0.81733 0.05765 0.01713
 C645 C 0.82894 0.07837 -0.02654
 C646 C 0.74900 0.17143 0.03592
 C647 C 0.75340 0.19180 0.05697
 C648 C 0.79603 0.16650 0.07030
 C649 C 0.79097 0.14674 0.04882
 N650 N 0.76753 0.14931 0.03241
 H651 H 0.80201 0.11300 -0.04001
 H652 H 0.78186 0.07724 0.03671
 H653 H 0.82112 0.04217 0.03338
 H654 H 0.84165 0.07919 -0.04466
 H655 H 0.73073 0.17315 0.02235
 H656 H 0.73849 0.20928 0.05975
 H657 H 0.81462 0.16408 0.08335
 H658 H 0.80577 0.12940 0.04537
 C659 C 0.74263 0.18179 -0.07247
 C660 C 0.68201 0.06215 0.02047
 C661 C 0.77696 0.18927 0.07449
 C662 C 0.83454 0.05815 -0.00572
 C663 C 0.20733 0.58295 0.48850
 H664 H 0.22211 0.57992 0.47217
 C665 C 0.18375 0.56425 0.49055
 H666 H 0.18021 0.54682 0.47574
 C667 C 0.19436 0.60873 0.52834
 H668 H 0.19891 0.62568 0.54333
 C669 C 0.17040 0.59054 0.53109
 H670 H 0.15653 0.59379 0.54812
 N671 N 0.21218 0.60469 0.50720
 C672 C 0.26616 0.66958 0.46709
 H673 H 0.28430 0.67066 0.48095
 C674 C 0.26483 0.68834 0.44467
 H675 H 0.28202 0.70383 0.44114
 C676 C 0.22113 0.64877 0.45512
 H677 H 0.20384 0.63381 0.45952
 C678 C 0.21904 0.66693 0.43243
 H679 H 0.20018 0.66552 0.41949
 Zn680 Zn 0.24621 0.62688 0.50365
 N681 N 0.24449 0.65027 0.47186
 C682 C 0.29376 0.59876 0.48058
 N683 N 0.27566 0.59948 0.50181
 C684 C 0.27719 0.57956 0.52228
 C685 C 0.29800 0.55825 0.52230
 C686 C 0.31486 0.57768 0.47975
 C687 C 0.23419 0.67439 0.53796
 C688 C 0.23827 0.69371 0.55996
 C689 C 0.28019 0.66721 0.57321
 C690 C 0.27543 0.64852 0.55091
 N691 N 0.25248 0.65212 0.53404
 H692 H 0.29182 0.61442 0.46425
 H693 H 0.26220 0.58038 0.53868
 H694 H 0.29923 0.54263 0.53879
 H695 H 0.32924 0.57743 0.46282
 H696 H 0.21639 0.67708 0.52398
 H697 H 0.22354 0.71128 0.56308
 H698 H 0.29844 0.66391 0.58652
 H699 H 0.29019 0.63126 0.54709
 C700 C 0.24106 0.68713 0.42711
 C701 C 0.16510 0.56789 0.51204
 C702 C 0.26135 0.69006 0.57791
 C703 C 0.31709 0.55720 0.50093
 C704 C 0.71405 0.94445 0.50529
 H705 H 0.72910 0.94653 0.52217
 C706 C 0.69302 0.96535 0.50168
 H707 H 0.69174 0.98354 0.51586
 C708 C 0.69771 0.91873 0.46570
 H709 H 0.69992 0.90092 0.45137
 C710 C 0.67619 0.93893 0.46153
 H711 H 0.66191 0.93632 0.44409
 N712 N 0.71598 0.92169 0.48742
 C713 C 0.75815 0.84879 0.52688
 H714 H 0.77436 0.84497 0.51203
 C715 C 0.75531 0.82999 0.54898
 H716 H 0.76935 0.81162 0.55126
 C717 C 0.71975 0.87718 0.54189
 H718 H 0.70577 0.89541 0.53885
 C719 C 0.71630 0.85897 0.56446
 H720 H 0.69968 0.86338 0.57875
 Zn721 Zn 0.74609 0.89521 0.49253
 N722 N 0.74059 0.87190 0.52379
 C723 C 0.79719 0.91373 0.51908
 N724 N 0.78033 0.91730 0.49655
 C725 C 0.78730 0.93697 0.47695
 C726 C 0.81253 0.95348 0.47927
 C727 C 0.82256 0.92973 0.52218
 C728 C 0.72658 0.84906 0.45904
 C729 C 0.72781 0.82773 0.43860
 C730 C 0.77340 0.84781 0.42582
 C731 C 0.77133 0.86878 0.44650
 N732 N 0.74812 0.86907 0.46256
 H733 H 0.79107 0.89848 0.53471
 H734 H 0.77331 0.93966 0.45942
 H735 H 0.81809 0.96892 0.46350
 H736 H 0.83579 0.92645 0.54015
 H737 H 0.70866 0.84941 0.47246
 H738 H 0.71073 0.81169 0.43610
 H739 H 0.79212 0.84765 0.41339
 H740 H 0.78854 0.88435 0.45002
 C741 C 0.73431 0.83504 0.56805
 C742 C 0.67382 0.96263 0.47967
 C743 C 0.75146 0.82688 0.42190
 C744 C 0.83047 0.94978 0.50199
 C745 C 0.03074 0.20475 0.40618
 H746 H 0.04843 0.21976 0.40998
 C747 C 0.02782 0.17953 0.42187
 H748 H 0.04335 0.17522 0.43783
 C749 C -0.01135 0.19239 0.38101
 H750 H -0.02651 0.19750 0.36499
 C751 C -0.01507 0.16694 0.39622
 H752 H -0.03322 0.15257 0.39211
 N753 N 0.01103 0.21090 0.38651
 C754 C 0.04636 0.26330 0.32066
 H755 H 0.03432 0.28323 0.32122
 C756 C 0.06645 0.25933 0.30039
 H757 H 0.06989 0.27633 0.28547
 C758 C 0.05640 0.21665 0.33906
 H759 H 0.05241 0.19988 0.35398
 C760 C 0.07678 0.21196 0.31941
 H761 H 0.08837 0.19170 0.31930
 Zn762 Zn 0.01432 0.24646 0.36717
 N763 N 0.04168 0.24203 0.33949
 C764 C 0.04187 0.29993 0.38538
 N765 N 0.02497 0.27675 0.39236
 C766 C 0.01339 0.27518 0.41751
 C767 C 0.01770 0.29783 0.43637
 C768 C 0.04686 0.32312 0.40380
 C769 C -0.02811 0.25819 0.32552
 C770 C -0.05583 0.26416 0.31657
 C771 C -0.07063 0.26308 0.36341
 C772 C -0.04282 0.25747 0.37144
 N773 N -0.02216 0.25513 0.35263
 H774 H 0.05099 0.30086 0.36540
 H775 H 0.00038 0.25644 0.42288
 H776 H 0.00785 0.29630 0.45607
 H777 H 0.05983 0.34178 0.39794
 H778 H -0.01157 0.25574 0.31080
 H779 H -0.06043 0.26652 0.29499
 H780 H -0.08691 0.26467 0.37859
 H781 H -0.03784 0.25439 0.39277
 C782 C 0.08189 0.23330 0.29979
 C783 C 0.00441 0.16055 0.41708
 C784 C -0.07735 0.26657 0.33584
 C785 C 0.03427 0.32239 0.42938
 C786 C -0.03422 0.70067 0.09023
 H787 H -0.05307 0.71382 0.09085
 C788 C -0.03173 0.67920 0.07005
 H789 H -0.04875 0.67564 0.05517
 C790 C 0.01157 0.69012 0.10802
 H791 H 0.02872 0.69499 0.12237
 C792 C 0.01492 0.66841 0.08816
 H793 H 0.03456 0.65650 0.08760
 N794 N -0.01271 0.70579 0.10864
 C795 C -0.05044 0.75406 0.17543
 H796 H -0.03603 0.77279 0.17593
 C797 C -0.07176 0.75171 0.19460
 H798 H -0.07392 0.76870 0.20988
 C799 C -0.06479 0.70862 0.15534
 H800 H -0.06163 0.69167 0.14029
 C801 C -0.08648 0.70539 0.17424
 H802 H -0.10007 0.68602 0.17349
 Zn803 Zn -0.01639 0.73802 0.13282
 N804 N -0.04742 0.73279 0.15623
 C805 C -0.04458 0.78890 0.11328
 N806 N -0.02136 0.77179 0.11115
 C807 C -0.00080 0.77799 0.09290
 C808 C -0.00265 0.80273 0.07646
 C809 C -0.04729 0.81388 0.09717
 C810 C 0.02276 0.72107 0.17332
 C811 C 0.04489 0.72484 0.19249
 C812 C 0.05304 0.77368 0.17527
 C813 C 0.03086 0.76896 0.15637
 N814 N 0.01621 0.74298 0.15573
 H815 H -0.06103 0.78326 0.12744
 H816 H 0.01723 0.76378 0.09138
 H817 H 0.01408 0.80745 0.06226
 H818 H -0.06569 0.82754 0.09909
 H819 H 0.01037 0.70087 0.17279
 H820 H 0.04979 0.70743 0.20661
 H821 H 0.06421 0.79461 0.17573
 H822 H 0.02485 0.78644 0.14284
 C823 C -0.08994 0.72720 0.19418
 C824 C -0.00688 0.66306 0.06871
 C825 C 0.06004 0.75146 0.19375
 C826 C -0.02610 0.82108 0.07868
 C827 C 0.50199 0.26085 0.55934
 H828 H 0.48608 0.27763 0.55866
 C829 C 0.50710 0.24413 0.53602
 H830 H 0.49503 0.24791 0.51740
 C831 C 0.53645 0.23465 0.58455
 H832 H 0.54799 0.23097 0.60339
 C833 C 0.54249 0.21773 0.56166
 H834 H 0.55832 0.20092 0.56334
 N835 N 0.51555 0.25483 0.58337
 C836 C 0.45477 0.26982 0.64824
 H837 H 0.46833 0.28097 0.66320
 C838 C 0.42688 0.26174 0.65482
 H839 H 0.41894 0.26685 0.67481
 C840 C 0.44858 0.24918 0.60405
 H841 H 0.45695 0.24352 0.58450
 C842 C 0.42047 0.24159 0.60947
 H843 H 0.40744 0.23056 0.59396
 Zn844 Zn 0.50361 0.27389 0.61579
 N845 N 0.46509 0.26342 0.62318
 C846 C 0.48400 0.33196 0.61088
 N847 N 0.50735 0.31488 0.61079
 C848 C 0.53377 0.32674 0.60759
 C849 C 0.53768 0.35712 0.60654
 C850 C 0.48691 0.36239 0.60903
 C851 C 0.52505 0.23267 0.65231
 C852 C 0.54223 0.22155 0.67315
 C853 C 0.56037 0.27052 0.68232
 C854 C 0.54289 0.28074 0.66116
 N855 N 0.52624 0.26167 0.64615
 H856 H 0.46318 0.32204 0.61305
 H857 H 0.55197 0.31264 0.60714
 H858 H 0.55890 0.36654 0.60570
 H859 H 0.46834 0.37589 0.61038
 H860 H 0.51123 0.21805 0.64047
 H861 H 0.54163 0.19831 0.67742
 H862 H 0.57385 0.28582 0.69378
 H863 H 0.54286 0.30387 0.65678
 C864 C 0.40947 0.24755 0.63507
 C865 C 0.52697 0.22179 0.53729
 C866 C 0.56036 0.24045 0.68813
 C867 C 0.51409 0.37517 0.60735
 C868 C 0.52153 0.70361 0.92657
 H869 H 0.53831 0.71970 0.93039
 C870 C 0.51877 0.67942 0.94363
 H871 H 0.53358 0.67684 0.96055
 C872 C 0.48139 0.68776 0.90011
 H873 H 0.46655 0.69134 0.88347
 C874 C 0.47810 0.66305 0.91645
 H875 H 0.46087 0.64755 0.91224
 N876 N 0.50297 0.70732 0.90532
 C877 C 0.54558 0.76164 0.84560
 H878 H 0.53150 0.78008 0.84472
 C879 C 0.56831 0.76014 0.82787
 H880 H 0.57175 0.77763 0.81345
 C881 C 0.55747 0.71584 0.86483
 H882 H 0.55281 0.69833 0.87885
 C883 C 0.58043 0.71345 0.84743
 H884 H 0.59353 0.69422 0.84822
 Zn885 Zn 0.50745 0.74171 0.88450
 N886 N 0.54057 0.73966 0.86355
 C887 C 0.53277 0.79201 0.91016
 N888 N 0.50979 0.77352 0.90939
 C889 C 0.48855 0.77612 0.92758
 C890 C 0.48980 0.79818 0.94745
 C891 C 0.53484 0.81439 0.92967
 C892 C 0.47349 0.72624 0.83903
 C893 C 0.45172 0.72897 0.81953
 C894 C 0.43690 0.77282 0.84266
 C895 C 0.45894 0.76927 0.86173
 N896 N 0.47654 0.74610 0.85974
 H897 H 0.54972 0.78919 0.89596
 H898 H 0.47075 0.76080 0.92679
 H899 H 0.47290 0.80002 0.96196
 H900 H 0.55335 0.82881 0.93011
 H901 H 0.48812 0.70833 0.83763
 H902 H 0.44937 0.71305 0.80315
 H903 H 0.42306 0.79135 0.84455
 H904 H 0.46209 0.78520 0.87792
 C905 C 0.58584 0.73560 0.82858
 C906 C 0.49675 0.65887 0.93854
 C907 C 0.43319 0.75243 0.82127
 C908 C 0.51315 0.81750 0.94866
 N909 N 0.10658 0.24450 0.25933
 N910 N 0.10261 0.22773 0.27955
 N911 N 0.61394 0.75135 0.79188
 N912 N 0.60831 0.73208 0.80968
 N913 N 0.39359 0.77610 0.80169
 N914 N 0.41094 0.75511 0.80115
 N915 N -0.11414 0.27825 0.30509
 N916 N -0.10623 0.27212 0.32839
 N917 N -0.12851 0.70337 0.21601
 N918 N -0.11111 0.72492 0.21460
 N919 N 0.37123 0.23467 0.66290
 N920 N 0.38056 0.23924 0.64000
 N921 N 0.59454 0.24313 0.72370
 N922 N 0.57846 0.22829 0.70880
 N923 N 0.09503 0.78008 0.21740
 N924 N 0.08177 0.75571 0.21433
 N925 N 0.28332 0.12097 0.20063
 N926 N 0.28123 0.10442 0.22129
 N927 N 0.78129 0.62673 0.71195
 N928 N 0.77980 0.60865 0.73152
 N929 N 0.77786 0.37792 0.77005
 N930 N 0.77446 0.39750 0.75201
 N931 N 0.27910 -0.11950 0.25899
 N932 N 0.29631 -0.10961 0.24272
 N933 N 0.19146 -0.15127 0.75226
 N934 N 0.16871 -0.14223 0.76050
 N935 N 0.70608 0.37035 0.23244
 N936 N 0.70386 0.38341 0.25525
 N937 N 0.69433 0.59819 0.30410
 N938 N 0.69616 0.57715 0.28717
 N939 N 0.22958 0.09954 0.77092
 N940 N 0.22743 0.07974 0.75259
 N941 N 0.20985 0.29637 0.07550
 N942 N 0.23104 0.29475 0.05994
 N943 N 0.71433 0.81955 0.60966
 N944 N 0.73157 0.81535 0.59047
 N945 N 0.77422 0.80172 0.38635
 N946 N 0.75309 0.80404 0.40189
 N947 N 0.28947 0.30757 -0.14852
 N948 N 0.26998 0.30464 -0.13111
 N949 N 0.71303 0.20387 -0.10570
 N950 N 0.73761 0.20105 -0.09493
 N951 N 0.21876 0.70520 0.38735
 N952 N 0.23922 0.70700 0.40463
 N953 N 0.28462 0.70622 0.61865
 N954 N 0.26515 0.70965 0.60066
 N955 N 0.80013 0.20742 0.11463
 N956 N 0.78090 0.20998 0.09629
 N957 N 0.50535 0.42573 0.59711
 N958 N 0.51818 0.40618 0.61089
 N959 N -0.00974 0.85443 0.04570
 N960 N -0.02877 0.84691 0.06243
 N961 N 0.01823 0.62721 0.04412
 N962 N -0.00382 0.64258 0.04672
 N963 N 0.54830 0.18257 0.51418
 N964 N 0.52952 0.20222 0.51453
 N965 N 0.01604 0.12902 0.45341
 N966 N -0.00067 0.13550 0.43380
 N967 N 0.50599 0.63089 0.97815
 N968 N 0.49258 0.63393 0.95561
 N969 N 0.53549 0.85767 0.97142
 N970 N 0.51475 0.83951 0.96962
 N971 N 0.02377 0.34844 0.46947
 N972 N 0.03775 0.34695 0.44760
 N973 N 0.35569 0.53249 0.48188
 N974 N 0.33856 0.53542 0.50136
 N975 N 0.87503 0.03919 -0.02666
 N976 N 0.85758 0.03821 -0.00724
 N977 N 0.64149 0.04541 0.04421
 N978 N 0.65918 0.04190 0.02528
 N979 N 0.12326 0.55007 0.53289
 N980 N 0.14169 0.54771 0.51446
 N981 N 0.13618 0.46486 -0.05573
 N982 N 0.15592 0.46665 -0.03769
 N983 N 0.63263 0.98122 0.45817
 N984 N 0.65267 0.98445 0.47576
 N985 N 0.87365 0.96327 0.52426
 N986 N 0.85650 0.96644 0.50418
 N987 N 0.37584 0.44789 0.02156
 N988 N 0.36100 0.45275 0.00017
 N989 N 0.53709 0.43960 0.39206
 N990 N 0.53543 0.45902 0.37363
 N991 N 0.06633 -0.02336 0.87861
 N992 N 0.06086 -0.00788 0.85775
 N993 N 0.06282 0.01909 0.63809
 N994 N 0.05746 0.00039 0.65647
 N995 N 0.54110 0.51282 0.16115
 N996 N 0.53963 0.48966 0.17539
 N997 N 0.45436 -0.03157 0.14495
 N998 N 0.45274 -0.00857 0.15959
 N999 N 0.94097 0.46601 0.63565
 N1000 N 0.93933 0.48896 0.65035
 N1001 N 0.93962 0.53491 0.85656
 N1002 N 0.93955 0.51424 0.83904
 N1003 N 0.44431 0.05380 0.35653
 N1004 N 0.44173 0.02933 0.34408
   
