data_POSCAR
  _audit_creation_date              2014-09-24
  _audit_creation_method            'ToBaCCo'
  _symmetry_space_group_name_H-M    'P1'
  _symmetry_Int_Tables_number       1
  _symmetry_cell_setting            triclinic
  loop_
  _symmetry_equiv_pos_as_xyz
 x,y,z
_cell_length_a 56.1352
_cell_length_b 56.8669
_cell_length_c 19.0603
_cell_angle_alpha 90.530500
_cell_angle_beta 90.264700
_cell_angle_gamma 119.210200
loop_
  _atom_site_label
  _atom_site_type_symbol
  _atom_site_fract_x
  _atom_site_fract_y
  _atom_site_fract_z
C1 C 0.17992 0.45884 0.56086
 C2 C 0.16716 0.45652 0.49585
 C3 C 0.17938 0.45682 0.43179
 C4 C 0.20588 0.45961 0.43187
 C5 C 0.21959 0.46234 0.49696
 C6 C 0.20655 0.46167 0.56168
 C7 C 0.22165 0.46669 0.62443
 C8 C 0.24823 0.47109 0.62451
 C9 C 0.26144 0.47161 0.56166
 C10 C 0.24726 0.46793 0.49714
 C11 C 0.22004 0.46236 0.36897
 C12 C 0.24698 0.46775 0.36945
 C13 C 0.26109 0.47094 0.43278
 C14 C 0.28908 0.47832 0.43343
 C15 C 0.30285 0.48258 0.49742
 C16 C 0.28929 0.47824 0.56149
 H17 H 0.21372 0.46852 0.67440
 H18 H 0.25886 0.47559 0.67450
 H19 H 0.21090 0.46148 0.31835
 H20 H 0.25698 0.47040 0.31945
 H21 H 0.14663 0.45385 0.49485
 H22 H 0.32406 0.48727 0.49700
 C23 C 0.45127 -0.22164 0.56498
 C24 C 0.44673 -0.21117 0.50330
 C25 C 0.44799 -0.22128 0.43711
 C26 C 0.45465 -0.24229 0.43204
 C27 C 0.45811 -0.25397 0.49417
 C28 C 0.45502 -0.24445 0.56056
 C29 C 0.45544 -0.25816 0.62091
 C30 C 0.46171 -0.27893 0.61697
 C31 C 0.46933 -0.28588 0.55305
 C32 C 0.46553 -0.27460 0.49019
 C33 C 0.45826 -0.25171 0.36689
 C34 C 0.46601 -0.27149 0.36276
 C35 C 0.46933 -0.28361 0.42353
 C36 C 0.47805 -0.30319 0.41985
 C37 C 0.48349 -0.31257 0.48251
 C38 C 0.47904 -0.30484 0.54937
 H39 H 0.45061 -0.25302 0.67177
 H40 H 0.46037 -0.28946 0.66489
 H41 H 0.45566 -0.24347 0.31833
 H42 H 0.47002 -0.27663 0.31108
 H43 H 0.44416 -0.19348 0.50629
 H44 H 0.49126 -0.32663 0.47878
 C45 C 1.20755 0.71127 0.44303
 C46 C 1.19587 0.69767 0.50491
 C47 C 1.20553 0.70985 0.57077
 C48 C 1.22940 0.73539 0.57511
 C49 C 1.24281 0.74854 0.51277
 C50 C 1.23139 0.73674 0.44644
 C51 C 1.24381 0.75085 0.38539
 C52 C 1.26740 0.77581 0.38916
 C53 C 1.28002 0.78743 0.45410
 C54 C 1.26714 0.77393 0.51678
 C55 C 1.24062 0.74769 0.64023
 C56 C 1.26401 0.77268 0.64424
 C57 C 1.27800 0.78604 0.58344
 C58 C 1.30135 0.81205 0.58726
 C59 C 1.31310 0.82534 0.52471
 C60 C 1.30386 0.81314 0.45833
 H61 H 1.23527 0.74271 0.33403
 H62 H 1.27516 0.78619 0.34032
 H63 H 1.23139 0.73810 0.68908
 H64 H 1.27059 0.78158 0.69591
 H65 H 1.17712 0.67849 0.50141
 H66 H 1.33169 0.84464 0.52830
 C67 C 0.67075 0.44339 0.55879
 C68 C 0.65802 0.43802 0.49252
 C69 C 0.67309 0.44468 0.43081
 C70 C 0.70146 0.45426 0.43392
 C71 C 0.71463 0.45791 0.49992
 C72 C 0.69944 0.45320 0.56266
 C73 C 0.71320 0.45758 0.62732
 C74 C 0.74117 0.46688 0.63047
 C75 C 0.75653 0.47079 0.56915
 C76 C 0.74317 0.46691 0.50305
 C77 C 0.71696 0.46047 0.37249
 C78 C 0.74486 0.46974 0.37552
 C79 C 0.75828 0.47237 0.43993
 C80 C 0.78656 0.48097 0.44290
 C81 C 0.79945 0.48526 0.50833
 C82 C 0.78512 0.48004 0.57170
 H83 H 0.70244 0.45371 0.67646
 H84 H 0.75057 0.47126 0.68197
 H85 H 0.70759 0.45811 0.32126
 H86 H 0.75580 0.47503 0.32656
 H87 H 0.63641 0.43166 0.48867
 H88 H 0.82094 0.49100 0.50963
 C89 C 0.52361 0.21592 0.56930
 C90 C 0.52496 0.20446 0.50539
 C91 C 0.52625 0.21702 0.44179
 C92 C 0.52705 0.24224 0.44164
 C93 C 0.52691 0.25473 0.50631
 C94 C 0.52513 0.24147 0.57042
 C95 C 0.52454 0.25387 0.63381
 C96 C 0.52538 0.27873 0.63444
 C97 C 0.52698 0.29230 0.57163
 C98 C 0.52743 0.27997 0.50675
 C99 C 0.52758 0.25506 0.37860
 C100 C 0.52732 0.27940 0.37885
 C101 C 0.52729 0.29226 0.44221
 C102 C 0.52597 0.31649 0.44286
 C103 C 0.52476 0.32792 0.50711
 C104 C 0.52594 0.31674 0.57147
 H105 H 0.52323 0.24433 0.68362
 H106 H 0.52389 0.28673 0.68488
 H107 H 0.52779 0.24614 0.32833
 H108 H 0.52673 0.28779 0.32862
 H109 H 0.52326 0.18461 0.50485
 H110 H 0.52393 0.34661 0.50694
 C111 C 0.71891 0.19602 0.41931
 C112 C 0.70726 0.18166 0.48039
 C113 C 0.71513 0.19365 0.54723
 C114 C 0.73545 0.22113 0.55309
 C115 C 0.74893 0.23535 0.49193
 C116 C 0.74081 0.22266 0.42490
 C117 C 0.75488 0.23684 0.36520
 C118 C 0.77613 0.26319 0.37087
 C119 C 0.78388 0.27643 0.43638
 C120 C 0.77019 0.26253 0.49756
 C121 C 0.74190 0.23512 0.61771
 C122 C 0.76245 0.26186 0.62306
 C123 C 0.77772 0.27572 0.56424
 C124 C 0.79909 0.30295 0.56926
 C125 C 0.81150 0.31645 0.50721
 C126 C 0.80488 0.30337 0.44206
 H127 H 0.74978 0.22754 0.31353
 H128 H 0.78619 0.27327 0.32318
 H129 H 0.73071 0.22578 0.66471
 H130 H 0.76584 0.27174 0.67377
 H131 H 0.69103 0.16094 0.47558
 H132 H 0.82859 0.33681 0.50996
 O133 O 0.97097 0.54141 -0.12207
 O134 O 0.93744 0.50874 -0.05548
 C135 C 0.94563 0.52667 -0.10436
 O136 O 1.02805 0.47602 -0.13153
 O137 O 1.06304 0.50881 -0.06557
 C138 C 1.05370 0.49099 -0.11597
 O139 O 0.95376 0.45339 -0.12974
 O140 O 0.92920 0.46685 -0.06007
 C141 C 0.93123 0.45265 -0.11094
 O142 O 1.04674 0.56801 -0.11878
 O143 O 1.07172 0.55205 -0.06038
 C144 C 1.06942 0.56804 -0.10439
 Zr145 Zr 1.00654 0.54166 -0.08376
 O146 O 1.00800 0.54440 -0.19449
 O147 O 1.01326 0.58142 -0.07182
 Zr148 Zr 0.99375 0.47672 -0.08859
 O149 O 0.99176 0.47283 -0.19921
 O150 O 0.98582 0.43661 -0.07781
 O151 O 0.97634 0.50164 -0.09891
 O152 O 1.02299 0.51668 -0.10077
 O153 O 1.04927 0.56783 0.12342
 O154 O 1.07315 0.55234 0.05812
 C155 C 1.07182 0.56844 0.10462
 O156 O 0.95615 0.45171 0.12713
 O157 O 0.93027 0.46568 0.06507
 C158 C 0.93308 0.45058 0.11133
 O159 O 1.03123 0.47554 0.12136
 O160 O 1.06479 0.50922 0.05647
 C161 C 1.05656 0.49105 0.10458
 O162 O 0.97366 0.54087 0.13650
 O163 O 0.93880 0.50840 0.06991
 C164 C 0.94797 0.52620 0.12044
 Zr165 Zr 1.00826 0.54115 0.09181
 O166 O 1.01270 0.54289 0.20237
 O167 O 1.01327 0.58055 0.09171
 Zr168 Zr 0.99562 0.47632 0.08674
 O169 O 0.99851 0.47529 0.19730
 O170 O 0.98579 0.43538 0.07891
 Zr171 Zr 0.96080 0.49605 0.00378
 Zr172 Zr 1.04100 0.52173 -0.00080
 O173 O 1.02509 0.51621 0.10126
 O174 O 0.97826 0.50100 0.10478
 O175 O 1.03253 0.55397 0.00296
 O176 O 0.97004 0.46437 -0.00016
 O177 O 0.98456 0.53832 0.00564
 O178 O 1.01807 0.47935 -0.00281
 H179 H 1.03420 0.52091 -0.14356
 H180 H 0.95485 0.44554 -0.00129
 H181 H 1.03725 0.52032 0.14269
 H182 H 0.97513 0.54919 0.00754
 H183 H 0.98306 0.42906 -0.12607
 H184 H 1.00065 0.43467 0.05294
 H185 H 0.98738 0.48280 0.21730
 H186 H 0.99713 0.52642 0.22098
 H187 H 1.02843 0.59145 0.05962
 H188 H 1.01419 0.58822 -0.11996
 H189 H 0.99254 0.52755 -0.21334
 H190 H 0.99928 0.49118 -0.21811
 O191 O 0.52926 0.56071 -0.14688
 O192 O 0.49985 0.56556 -0.07243
 C193 C 0.51379 0.57092 -0.12990
 O194 O 0.47298 0.44364 -0.10958
 O195 O 0.51019 0.44680 -0.05086
 C196 C 0.48963 0.43471 -0.09407
 O197 O 0.44567 0.49152 -0.11881
 O198 O 0.45915 0.53159 -0.06029
 C199 C 0.44381 0.51295 -0.10499
 O200 O 0.56553 0.52066 -0.12624
 O201 O 0.55369 0.48306 -0.06003
 C202 C 0.56844 0.50035 -0.10703
 Zr203 Zr 0.53712 0.53275 -0.09337
 O204 O 0.53935 0.53052 -0.20373
 O205 O 0.57563 0.56803 -0.09096
 Zr206 Zr 0.47342 0.47954 -0.07958
 O207 O 0.46979 0.47353 -0.18977
 O208 O 0.43364 0.44728 -0.06330
 O209 O 0.49560 0.52025 -0.10157
 O210 O 0.51396 0.49124 -0.09856
 O211 O 0.57200 0.52844 0.11332
 O212 O 0.55725 0.48729 0.05947
 C213 C 0.57403 0.50706 0.09975
 O214 O 0.45202 0.49904 0.13349
 O215 O 0.46223 0.53544 0.06372
 C216 C 0.44873 0.51906 0.11384
 O217 O 0.47939 0.45113 0.13287
 O218 O 0.51340 0.45041 0.06814
 C219 C 0.49481 0.44083 0.11632
 O220 O 0.54033 0.57289 0.11844
 O221 O 0.50439 0.57055 0.05510
 C222 C 0.52378 0.58185 0.10171
 Zr223 Zr 0.54207 0.53863 0.08148
 O224 O 0.54735 0.54117 0.19182
 O225 O 0.58055 0.57351 0.06954
 Zr226 Zr 0.47860 0.48555 0.09548
 O227 O 0.48386 0.48847 0.20594
 O228 O 0.43808 0.45375 0.10564
 Zr229 Zr 0.49215 0.53427 -0.00128
 Zr230 Zr 0.52331 0.48390 0.00302
 O231 O 0.51977 0.49794 0.10289
 O232 O 0.50140 0.52744 0.10132
 O233 O 0.55376 0.52457 -0.00564
 O234 O 0.46233 0.49348 0.00742
 O235 O 0.53493 0.55445 -0.00870
 O236 O 0.48045 0.46337 0.01022
 H237 H 0.51755 0.48261 -0.13950
 H238 H 0.44279 0.48849 0.00945
 H239 H 0.52558 0.49176 0.14476
 H240 H 0.54426 0.57431 -0.01352
 H241 H 0.42573 0.44042 -0.11057
 H242 H 0.43525 0.43998 0.06957
 H243 H 0.48603 0.50609 0.22119
 H244 H 0.53048 0.53956 0.21235
 H245 H 0.59142 0.56870 0.03764
 H246 H 0.58085 0.57252 -0.14062
 H247 H 0.52092 0.51710 -0.22043
 H248 H 0.47517 0.49119 -0.21125
 O249 O 0.52149 -0.04440 0.11335
 O250 O 0.47797 -0.06577 0.06736
 C251 C 0.49778 -0.06554 0.10369
 O252 O 0.51054 0.05694 0.14203
 O253 O 0.54641 0.07688 0.06589
 C254 C 0.53217 0.07764 0.11836
 O255 O 0.45787 -0.01564 0.15992
 O256 O 0.44723 -0.05212 0.08800
 C257 C 0.44319 -0.04097 0.14311
 O258 O 0.57742 0.02641 0.09730
 O259 O 0.57772 0.06245 0.04336
 C260 C 0.58909 0.05178 0.08152
 Zr261 Zr 0.53740 -0.00499 0.07505
 O262 O 0.54836 -0.00348 0.18202
 O263 O 0.56450 -0.01887 0.04362
 Zr264 Zr 0.49176 0.01604 0.11024
 O265 O 0.50297 0.01910 0.21757
 O266 O 0.46136 0.02630 0.13635
 O267 O 0.49787 -0.01728 0.11029
 O268 O 0.53269 0.02779 0.10217
 O269 O 0.55767 0.02591 -0.14908
 O270 O 0.56871 0.06197 -0.07498
 C271 C 0.57171 0.05130 -0.13229
 O272 O 0.44038 -0.01625 -0.09184
 O273 O 0.43896 -0.05214 -0.03429
 C274 C 0.42851 -0.04163 -0.07629
 O275 O 0.49538 0.05631 -0.09695
 O276 O 0.53883 0.07627 -0.05104
 C277 C 0.51974 0.07681 -0.08816
 O278 O 0.50146 -0.04523 -0.13916
 O279 O 0.46842 -0.06585 -0.05585
 C280 C 0.48010 -0.06586 -0.11428
 Zr281 Zr 0.52457 -0.00587 -0.09660
 O282 O 0.52021 -0.00742 -0.20698
 O283 O 0.55247 -0.02070 -0.10665
 Zr284 Zr 0.47900 0.01581 -0.06201
 O285 O 0.47121 0.01845 -0.16957
 O286 O 0.44909 0.02658 -0.03388
 Zr287 Zr 0.47823 -0.03315 0.01305
 Zr288 Zr 0.53787 0.04347 0.00048
 O289 O 0.51774 0.02674 -0.09579
 O290 O 0.48320 -0.01762 -0.08932
 O291 O 0.55255 0.01619 -0.01738
 O292 O 0.46458 -0.00505 0.03000
 O293 O 0.51649 -0.02964 -0.00947
 O294 O 0.49976 0.04056 0.02299
 H295 H 0.54436 0.03950 0.14102
 H296 H 0.44496 -0.01182 0.03924
 H297 H 0.52270 0.03747 -0.13918
 H298 H 0.51772 -0.04632 -0.01608
 H299 H 0.46234 0.03947 0.10140
 H300 H 0.45872 0.04552 -0.01704
 H301 H 0.47007 0.00241 -0.19346
 H302 H 0.50820 0.00023 -0.21807
 H303 H 0.57104 -0.00545 -0.09779
 H304 H 0.57290 -0.02092 0.08732
 H305 H 0.53143 -0.00994 0.20936
 H306 H 0.49796 0.00079 0.23370
 C307 C 1.15688 0.47671 0.36625
 C308 C 1.14067 0.47647 0.31033
 C309 C 1.13231 0.45636 0.25744
 C310 C 1.14152 0.43740 0.26047
 C311 C 1.15810 0.43798 0.31652
 C312 C 1.16556 0.45743 0.37052
 C313 C 1.11451 0.45533 0.20370
 C314 C 1.10520 0.47426 0.20269
 C315 C 1.11465 0.49489 0.25484
 C316 C 1.13226 0.49583 0.30797
 C317 C 1.10588 0.51403 0.25433
 C318 C 1.08735 0.51251 0.20369
 C319 C 1.07737 0.49200 0.15256
 C320 C 1.08630 0.47285 0.15155
 H321 H 1.16276 0.49201 0.40720
 H322 H 1.13543 0.42183 0.22042
 H323 H 1.16408 0.42254 0.31931
 H324 H 1.10760 0.43965 0.16364
 H325 H 1.13900 0.51139 0.34844
 H326 H 1.11297 0.52990 0.29386
 H327 H 1.08024 0.52712 0.20538
 H328 H 1.07839 0.45694 0.11204
 C329 C 0.50453 0.68279 0.34623
 C330 C 0.50594 0.66738 0.29039
 C331 C 0.48380 0.65456 0.24272
 C332 C 0.46110 0.65845 0.25022
 C333 C 0.45973 0.67369 0.30661
 C334 C 0.48119 0.68559 0.35625
 C335 C 0.48426 0.63718 0.19047
 C336 C 0.50632 0.63205 0.18670
 C337 C 0.52882 0.64569 0.23314
 C338 C 0.52866 0.66355 0.28389
 C339 C 0.55063 0.64034 0.23032
 C340 C 0.54949 0.62043 0.18501
 C341 C 0.52670 0.60576 0.14080
 C342 C 0.50568 0.61252 0.13980
 H343 H 0.52144 0.69211 0.38334
 H344 H 0.44390 0.64876 0.21424
 H345 H 0.44112 0.67471 0.31381
 H346 H 0.46698 0.62678 0.15492
 H347 H 0.54569 0.67352 0.32044
 H348 H 0.56810 0.65079 0.26518
 H349 H 0.56616 0.61597 0.18626
 H350 H 0.48813 0.60160 0.10543
 C351 C 0.33049 -0.14518 0.39381
 C352 C 0.34891 -0.13070 0.34095
 C353 C 0.35696 -0.14419 0.29195
 C354 C 0.34598 -0.17219 0.29632
 C355 C 0.32770 -0.18653 0.34968
 C356 C 0.31978 -0.17321 0.39944
 C357 C 0.37629 -0.12937 0.24063
 C358 C 0.38785 -0.10120 0.23859
 C359 C 0.37943 -0.08792 0.28756
 C360 C 0.35989 -0.10275 0.33783
 C361 C 0.39108 -0.05988 0.28659
 C362 C 0.41144 -0.04491 0.23879
 C363 C 0.42041 -0.05765 0.19035
 C364 C 0.40811 -0.08595 0.18960
 H365 H 0.32447 -0.13453 0.43100
 H366 H 0.35208 -0.18290 0.25967
 H367 H 0.32083 -0.20787 0.35396
 H368 H 0.38272 -0.13965 0.20338
 H369 H 0.35367 -0.09244 0.37560
 H370 H 0.38478 -0.04946 0.32365
 H371 H 0.42027 -0.02320 0.24011
 H372 H 0.41475 -0.09601 0.15236
 C373 C 0.82892 0.50694 0.37167
 C374 C 0.84632 0.50835 0.31720
 C375 C 0.83752 0.48683 0.26814
 C376 C 0.81170 0.46411 0.27515
 C377 C 0.79499 0.46241 0.33119
 C378 C 0.80325 0.48387 0.37954
 C379 C 0.85507 0.48789 0.21459
 C380 C 0.88182 0.50950 0.21173
 C381 C 0.89082 0.53075 0.26161
 C382 C 0.87278 0.53040 0.31288
 C383 C 0.91802 0.55151 0.26089
 C384 C 0.93648 0.55052 0.21353
 C385 C 0.92786 0.52923 0.16442
 C386 C 0.90014 0.50950 0.16190
 H387 H 0.83568 0.52337 0.40949
 H388 H 0.80481 0.44726 0.23870
 H389 H 0.77576 0.44407 0.33758
 H390 H 0.84833 0.47133 0.17711
 H391 H 0.87969 0.54673 0.35112
 H392 H 0.92529 0.56796 0.29873
 H393 H 0.95763 0.56621 0.21626
 H394 H 0.89304 0.49346 0.12311
 C395 C 0.50365 0.33568 0.36633
 C396 C 0.50448 0.35222 0.31118
 C397 C 0.52725 0.36366 0.26627
 C398 C 0.54832 0.35738 0.27593
 C399 C 0.54765 0.34140 0.33216
 C400 C 0.52543 0.33064 0.37813
 C401 C 0.52898 0.38184 0.21428
 C402 C 0.50840 0.38904 0.20765
 C403 C 0.48519 0.37666 0.25110
 C404 C 0.48328 0.35821 0.30198
 C405 C 0.46457 0.38358 0.24481
 C406 C 0.46743 0.40361 0.19867
 C407 C 0.49092 0.41715 0.15734
 C408 C 0.51102 0.40912 0.16043
 H409 H 0.48649 0.32746 0.40184
 H410 H 0.56559 0.36533 0.24105
 H411 H 0.56475 0.33790 0.34081
 H412 H 0.54669 0.39102 0.18074
 H413 H 0.46571 0.34925 0.33611
 H414 H 0.44655 0.37407 0.27718
 H415 H 0.45138 0.40895 0.19674
 H416 H 0.52916 0.41925 0.12869
 C417 C 0.70148 0.15770 0.33224
 C418 C 0.68460 0.14362 0.27474
 C419 C 0.67190 0.15550 0.23536
 C420 C 0.67714 0.18163 0.25251
 C421 C 0.69364 0.19532 0.31035
 C422 C 0.70556 0.18333 0.35132
 C423 C 0.65315 0.14060 0.18186
 C424 C 0.64626 0.11369 0.16878
 C425 C 0.65962 0.10211 0.20658
 C426 C 0.67906 0.11730 0.25847
 C427 C 0.65223 0.07505 0.19456
 C428 C 0.63038 0.05901 0.14976
 C429 C 0.61587 0.06988 0.11498
 C430 C 0.62493 0.09764 0.12192
 H431 H 0.71046 0.14830 0.36416
 H432 H 0.66757 0.19103 0.22299
 H433 H 0.69621 0.21489 0.32498
 H434 H 0.64287 0.14949 0.15302
 H435 H 0.68880 0.10818 0.28857
 H436 H 0.66241 0.06591 0.22259
 H437 H 0.62405 0.03776 0.14482
 H438 H 0.61407 0.10634 0.09510
 C439 C 0.53753 0.19348 -0.34002
 C440 C 0.53057 0.17370 -0.28869
 C441 C 0.50331 0.15911 -0.26529
 C442 C 0.48379 0.16556 -0.29120
 C443 C 0.49093 0.18534 -0.34219
 C444 C 0.51765 0.19899 -0.36780
 C445 C 0.49584 0.13781 -0.21825
 C446 C 0.51532 0.13094 -0.19427
 C447 C 0.54282 0.14642 -0.21531
 C448 C 0.55024 0.16763 -0.26235
 C449 C 0.56242 0.14004 -0.19036
 C450 C 0.55481 0.11806 -0.14667
 C451 C 0.52738 0.10176 -0.12756
 C452 C 0.50770 0.10849 -0.15097
 H453 H 0.55810 0.20389 -0.36041
 H454 H 0.46284 0.15473 -0.27370
 H455 H 0.47534 0.18923 -0.36395
 H456 H 0.47480 0.12621 -0.20166
 H457 H 0.57121 0.17899 -0.27969
 H458 H 0.58358 0.15172 -0.20576
 H459 H 0.57037 0.11320 -0.13006
 H460 H 0.48653 0.09610 -0.13640
 C461 C 0.66231 0.46511 -0.34036
 C462 C 0.64370 0.46619 -0.29320
 C463 C 0.61755 0.44347 -0.28549
 C464 C 0.61050 0.42005 -0.32496
 C465 C 0.62863 0.41956 -0.37413
 C466 C 0.65471 0.44207 -0.38284
 C467 C 0.59836 0.44501 -0.24143
 C468 C 0.60448 0.46942 -0.20791
 C469 C 0.63057 0.49223 -0.21632
 C470 C 0.65021 0.49026 -0.25732
 C471 C 0.63621 0.51699 -0.18600
 C472 C 0.61594 0.51942 -0.14985
 C473 C 0.59001 0.49695 -0.14132
 C474 C 0.58453 0.47181 -0.16894
 H475 H 0.68176 0.48308 -0.34857
 H476 H 0.59048 0.40255 -0.32033
 H477 H 0.62211 0.40162 -0.40639
 H478 H 0.57824 0.42763 -0.23606
 H479 H 0.67011 0.50784 -0.26405
 H480 H 0.65604 0.53467 -0.19211
 H481 H 0.62047 0.53892 -0.12860
 H482 H 0.56438 0.45453 -0.16320
 C483 C 0.81874 0.34399 -0.35802
 C484 C 0.83567 0.35924 -0.30203
 C485 C 0.84497 0.34695 -0.25309
 C486 C 0.83575 0.31921 -0.25865
 C487 C 0.81893 0.30414 -0.31481
 C488 C 0.81085 0.31647 -0.36648
 C489 C 0.86429 0.36278 -0.20159
 C490 C 0.87457 0.39078 -0.19906
 C491 C 0.86406 0.40279 -0.24567
 C492 C 0.84455 0.38691 -0.29652
 C493 C 0.87417 0.43073 -0.24278
 C494 C 0.89541 0.44677 -0.19647
 C495 C 0.90664 0.43516 -0.15211
 C496 C 0.89597 0.40714 -0.15267
 H497 H 0.81240 0.35378 -0.39666
 H498 H 0.84260 0.30943 -0.22145
 H499 H 0.81408 0.28330 -0.32057
 H500 H 0.87210 0.35350 -0.16539
 H501 H 0.83715 0.39628 -0.33365
 H502 H 0.86634 0.44026 -0.27801
 H503 H 0.90403 0.46841 -0.19776
 H504 H 0.90486 0.39826 -0.11854
 C505 C 0.44069 -0.19358 -0.35154
 C506 C 0.44959 -0.17315 -0.30010
 C507 C 0.47453 -0.16504 -0.26396
 C508 C 0.48979 -0.17792 -0.27871
 C509 C 0.48134 -0.19746 -0.33183
 C510 C 0.45695 -0.20522 -0.36952
 C511 C 0.48455 -0.14329 -0.21640
 C512 C 0.47046 -0.12889 -0.20642
 C513 C 0.44528 -0.13725 -0.24170
 C514 C 0.43477 -0.15962 -0.28735
 C515 C 0.43155 -0.12243 -0.23283
 C516 C 0.44300 -0.09921 -0.19075
 C517 C 0.46795 -0.09079 -0.15604
 C518 C 0.48161 -0.10569 -0.16357
 H519 H 0.42196 -0.19930 -0.38059
 H520 H 0.50900 -0.17188 -0.25178
 H521 H 0.49463 -0.20553 -0.34587
 H522 H 0.50387 -0.13686 -0.18950
 H523 H 0.41570 -0.16573 -0.31522
 H524 H 0.41239 -0.12835 -0.25992
 H525 H 0.43289 -0.08725 -0.18710
 H526 H 0.50104 -0.09895 -0.13699
 C527 C 0.32967 0.50106 -0.36329
 C528 C 0.34554 0.50052 -0.30715
 C529 C 0.33598 0.47702 -0.26642
 C530 C 0.30976 0.45533 -0.27892
 C531 C 0.29361 0.45643 -0.33332
 C532 C 0.30371 0.47897 -0.37726
 C533 C 0.35307 0.47531 -0.21532
 C534 C 0.37928 0.49709 -0.20333
 C535 C 0.38786 0.52145 -0.23977
 C536 C 0.37108 0.52289 -0.29215
 C537 C 0.41344 0.54373 -0.22442
 C538 C 0.43092 0.54141 -0.17615
 C539 C 0.42347 0.51660 -0.14473
 C540 C 0.39738 0.49468 -0.15697
 H541 H 0.33745 0.51869 -0.39626
 H542 H 0.30199 0.43728 -0.24770
 H543 H 0.27386 0.43897 -0.34375
 H544 H 0.34620 0.45689 -0.18598
 H545 H 0.37809 0.54119 -0.32212
 H546 H 0.42015 0.56271 -0.25079
 H547 H 0.45080 0.55863 -0.16603
 H548 H 0.39147 0.47564 -0.13158
 C549 C 1.18195 0.67051 -0.35560
 C550 C 1.16304 0.65670 -0.30303
 C551 C 1.14978 0.66912 -0.26828
 C552 C 1.15740 0.69599 -0.28269
 C553 C 1.17723 0.71008 -0.33292
 C554 C 1.18916 0.69724 -0.37102
 C555 C 1.12883 0.65431 -0.22082
 C556 C 1.12182 0.62762 -0.20568
 C557 C 1.13687 0.61615 -0.23586
 C558 C 1.15698 0.63054 -0.28537
 C559 C 1.13132 0.59029 -0.21667
 C560 C 1.11036 0.57550 -0.17010
 C561 C 1.09381 0.58578 -0.14457
 C562 C 1.09985 0.61204 -0.16150
 H563 H 1.19122 0.66057 -0.38448
 H564 H 1.14770 0.70596 -0.25602
 H565 H 1.18211 0.73053 -0.34495
 H566 H 1.11789 0.66344 -0.19617
 H567 H 1.16778 0.62134 -0.31042
 H568 H 1.14301 0.58141 -0.23812
 H569 H 1.10634 0.55550 -0.15618
 H570 H 1.08744 0.62022 -0.14055
 C571 C 0.82598 0.50605 -0.35596
 C572 C 0.84293 0.50794 -0.29961
 C573 C 0.83402 0.48672 -0.25115
 C574 C 0.80794 0.46426 -0.25913
 C575 C 0.79123 0.46239 -0.31603
 C576 C 0.80008 0.48318 -0.36558
 C577 C 0.85174 0.48784 -0.19737
 C578 C 0.87848 0.50956 -0.19291
 C579 C 0.88711 0.53099 -0.24077
 C580 C 0.86912 0.53027 -0.29296
 C581 C 0.91402 0.55224 -0.23776
 C582 C 0.93276 0.55147 -0.19084
 C583 C 0.92478 0.52974 -0.14495
 C584 C 0.89722 0.50949 -0.14398
 H585 H 0.83315 0.52234 -0.39331
 H586 H 0.80085 0.44768 -0.22285
 H587 H 0.77201 0.44398 -0.32329
 H588 H 0.84513 0.47130 -0.16098
 H589 H 0.87593 0.54652 -0.33031
 H590 H 0.92089 0.56888 -0.27380
 H591 H 0.95375 0.56753 -0.19206
 H592 H 0.89074 0.49267 -0.10864
 C593 C 0.50373 0.33589 -0.35721
 C594 C 0.50336 0.35071 -0.29862
 C595 C 0.52538 0.36123 -0.25013
 C596 C 0.54656 0.35508 -0.25889
 C597 C 0.54631 0.33941 -0.31636
 C598 C 0.52512 0.33010 -0.36674
 C599 C 0.52608 0.37817 -0.19496
 C600 C 0.50481 0.38434 -0.18755
 C601 C 0.48195 0.37210 -0.23346
 C602 C 0.48143 0.35551 -0.28871
 C603 C 0.46032 0.37743 -0.22526
 C604 C 0.46209 0.39631 -0.17561
 C605 C 0.48562 0.41040 -0.13328
 C606 C 0.50645 0.40341 -0.13729
 H607 H 0.48714 0.32854 -0.39533
 H608 H 0.56355 0.36279 -0.22209
 H609 H 0.56327 0.33558 -0.32318
 H610 H 0.54341 0.38706 -0.15912
 H611 H 0.46427 0.34690 -0.32515
 H612 H 0.44246 0.36782 -0.25920
 H613 H 0.44548 0.40083 -0.17300
 H614 H 0.52458 0.41391 -0.10461
 C615 C 0.67228 0.16131 -0.39250
 C616 C 0.65845 0.14318 -0.33886
 C617 C 0.67313 0.14125 -0.28080
 C618 C 0.70168 0.15706 -0.27885
 C619 C 0.71546 0.17420 -0.33442
 C620 C 0.70086 0.17675 -0.39128
 C621 C 0.65907 0.12314 -0.22676
 C622 C 0.63069 0.10613 -0.23191
 C623 C 0.61637 0.10750 -0.29177
 C624 C 0.63020 0.12638 -0.34383
 C625 C 0.58839 0.08974 -0.29923
 C626 C 0.57458 0.07076 -0.24793
 C627 C 0.58829 0.06967 -0.18742
 C628 C 0.61632 0.08753 -0.17890
 H629 H 0.66084 0.16298 -0.43636
 H630 H 0.71338 0.15562 -0.23536
 H631 H 0.73756 0.18533 -0.33336
 H632 H 0.67024 0.12186 -0.18171
 H633 H 0.61907 0.12755 -0.38917
 H634 H 0.57717 0.09049 -0.34481
 H635 H 0.55283 0.05737 -0.25439
 H636 H 0.62681 0.08673 -0.13184
 C637 C 1.15378 0.47674 -0.37926
 C638 C 1.13785 0.47701 -0.32347
 C639 C 1.13390 0.46071 -0.26452
 C640 C 1.14631 0.44441 -0.26283
 C641 C 1.16201 0.44398 -0.31948
 C642 C 1.16601 0.46021 -0.37853
 C643 C 1.11723 0.46066 -0.20933
 C644 C 1.10420 0.47642 -0.21345
 C645 C 1.10840 0.49265 -0.27311
 C646 C 1.12536 0.49305 -0.32701
 C647 C 1.09513 0.50791 -0.27901
 C648 C 1.07745 0.50691 -0.22694
 C649 C 1.07322 0.49126 -0.16719
 C650 C 1.08665 0.47601 -0.16000
 H651 H 1.15678 0.48963 -0.42378
 H652 H 1.14337 0.43153 -0.21846
 H653 H 1.17013 0.43019 -0.31822
 H654 H 1.11404 0.44808 -0.16407
 H655 H 1.12838 0.50546 -0.37261
 H656 H 1.09808 0.52032 -0.32447
 H657 H 1.06700 0.51854 -0.23322
 H658 H 1.08307 0.46366 -0.11410
 C659 C 0.47919 0.65666 -0.39326
 C660 C 0.48714 0.64556 -0.33869
 C661 C 0.49990 0.66104 -0.27788
 C662 C 0.50555 0.68794 -0.27447
 C663 C 0.49886 0.69936 -0.33097
 C664 C 0.48503 0.68380 -0.39100
 C665 C 0.50731 0.64950 -0.22256
 C666 C 0.50327 0.62311 -0.22924
 C667 C 0.49173 0.60835 -0.29220
 C668 C 0.48308 0.61934 -0.34536
 C669 C 0.48926 0.58285 -0.30170
 C670 C 0.49789 0.57181 -0.24927
 C671 C 0.50823 0.58552 -0.18524
 C672 C 0.51079 0.61120 -0.17490
 H673 H 0.46821 0.64385 -0.43778
 H674 H 0.51597 0.70044 -0.22908
 H675 H 0.50550 0.72071 -0.32844
 H676 H 0.51670 0.66121 -0.17526
 H677 H 0.47381 0.60769 -0.39287
 H678 H 0.48068 0.57143 -0.34982
 H679 H 0.49542 0.55185 -0.25761
 H680 H 0.51882 0.62184 -0.12552
 C681 C 0.32140 -0.14776 -0.33715
 C682 C 0.33688 -0.13354 -0.27806
 C683 C 0.34624 -0.14622 -0.23046
 C684 C 0.33879 -0.17340 -0.24129
 C685 C 0.32296 -0.18761 -0.29984
 C686 C 0.31432 -0.17489 -0.34897
 C687 C 0.36362 -0.13126 -0.17444
 C688 C 0.37197 -0.10370 -0.16619
 C689 C 0.36151 -0.09149 -0.21221
 C690 C 0.34387 -0.10652 -0.26733
 C691 C 0.36992 -0.06404 -0.20467
 C692 C 0.39029 -0.04823 -0.15617
 C693 C 0.40245 -0.05960 -0.11349
 C694 C 0.39191 -0.08774 -0.11574
 H695 H 0.31485 -0.13768 -0.37434
 H696 H 0.34581 -0.18348 -0.20552
 H697 H 0.31864 -0.20818 -0.30859
 H698 H 0.37151 -0.14075 -0.13919
 H699 H 0.33647 -0.09688 -0.30357
 H700 H 0.36180 -0.05447 -0.23886
 H701 H 0.39752 -0.02675 -0.15481
 H702 H 0.40088 -0.09687 -0.08277
 C703 C 0.46842 -0.19049 0.33561
 C704 C 0.46787 -0.17212 0.28777
 C705 C 0.44385 -0.17014 0.27921
 C706 C 0.42045 -0.18740 0.31691
 C707 C 0.42130 -0.20537 0.36520
 C708 C 0.44538 -0.20676 0.37569
 C709 C 0.44404 -0.15017 0.23575
 C710 C 0.46816 -0.13175 0.20215
 C711 C 0.49187 -0.13439 0.20952
 C712 C 0.49146 -0.15471 0.25134
 C713 C 0.51608 -0.11595 0.17725
 C714 C 0.51733 -0.09425 0.14102
 C715 C 0.49432 -0.09069 0.13516
 C716 C 0.46944 -0.11002 0.16393
 H717 H 0.48724 -0.19101 0.34485
 H718 H 0.40184 -0.18621 0.31122
 H719 H 0.40348 -0.21749 0.39654
 H720 H 0.42579 -0.14830 0.23040
 H721 H 0.50986 -0.15624 0.25787
 H722 H 0.53435 -0.11780 0.18195
 H723 H 0.53663 -0.07984 0.11846
 H724 H 0.45163 -0.10739 0.15984
 C725 C 0.32809 0.50337 0.35160
 C726 C 0.34551 0.50318 0.29913
 C727 C 0.33905 0.47868 0.26422
 C728 C 0.31472 0.45520 0.27971
 C729 C 0.29760 0.45558 0.33203
 C730 C 0.30441 0.47946 0.36925
 C731 C 0.35753 0.47774 0.21664
 C732 C 0.38249 0.50090 0.20386
 C733 C 0.38843 0.52575 0.23573
 C734 C 0.36983 0.52674 0.28316
 C735 C 0.41332 0.54892 0.22136
 C736 C 0.43264 0.54718 0.17853
 C737 C 0.42739 0.52225 0.15017
 C738 C 0.40205 0.49933 0.16170
 H739 H 0.33347 0.52176 0.38087
 H740 H 0.30944 0.43631 0.25322
 H741 H 0.27962 0.43695 0.34580
 H742 H 0.35290 0.45877 0.19145
 H743 H 0.37469 0.54561 0.30929
 H744 H 0.41817 0.56820 0.24481
 H745 H 0.45213 0.56498 0.17039
 H746 H 0.39789 0.48009 0.13922
 C747 C 1.18944 0.67652 0.34653
 C748 C 1.16895 0.66184 0.29616
 C749 C 1.15001 0.67048 0.27787
 C750 C 1.15304 0.69461 0.30645
 C751 C 1.17355 0.70915 0.35606
 C752 C 1.19131 0.69981 0.37791
 C753 C 1.12772 0.65435 0.23370
 C754 C 1.12425 0.62978 0.20699
 C755 C 1.14422 0.62208 0.22132
 C756 C 1.16634 0.63805 0.26618
 C757 C 1.14136 0.59815 0.19183
 C758 C 1.11841 0.58147 0.15092
 C759 C 1.09749 0.58795 0.14050
 C760 C 1.10080 0.61246 0.16757
 H761 H 1.20298 0.66916 0.36407
 H762 H 1.13888 0.70167 0.29259
 H763 H 1.17458 0.72688 0.38062
 H764 H 1.11271 0.66055 0.22171
 H765 H 1.18109 0.63160 0.27915
 H766 H 1.15666 0.59213 0.20124
 H767 H 1.11657 0.56294 0.12957
 H768 H 1.08503 0.61790 0.15854
 C769 C 0.54432 0.19603 0.35688
 C770 C 0.53959 0.17682 0.30408
 C771 C 0.51350 0.16276 0.27167
 C772 C 0.49316 0.16921 0.28967
 C773 C 0.49806 0.18831 0.34225
 C774 C 0.52337 0.20131 0.37715
 C775 C 0.50775 0.14167 0.22424
 C776 C 0.52763 0.13429 0.20917
 C777 C 0.55420 0.14928 0.23824
 C778 C 0.56004 0.17053 0.28552
 C779 C 0.57413 0.14204 0.22149
 C780 C 0.56737 0.11935 0.17920
 C781 C 0.54061 0.10356 0.15387
 C782 C 0.52100 0.11144 0.16762
 H783 H 0.56377 0.20597 0.38450
 H784 H 0.47314 0.15873 0.26508
 H785 H 0.48169 0.19205 0.35814
 H786 H 0.48749 0.13036 0.20110
 H787 H 0.58013 0.18150 0.30968
 H788 H 0.59467 0.15341 0.24273
 H789 H 0.58265 0.11339 0.16918
 H790 H 0.50037 0.09932 0.14738
 C791 C 0.66518 0.47116 0.34009
 C792 C 0.64888 0.47324 0.28734
 C793 C 0.62661 0.44963 0.25896
 C794 C 0.62156 0.42434 0.28267
 C795 C 0.63744 0.42248 0.33675
 C796 C 0.65911 0.44588 0.36615
 C797 C 0.60902 0.45175 0.21003
 C798 C 0.61286 0.47718 0.19131
 C799 C 0.63549 0.50074 0.21877
 C800 C 0.65364 0.49861 0.26553
 C801 C 0.63890 0.52609 0.20160
 C802 C 0.61933 0.52811 0.16070
 C803 C 0.59629 0.50484 0.13504
 C804 C 0.59366 0.47942 0.14856
 H805 H 0.68162 0.48924 0.36392
 H806 H 0.60472 0.40611 0.26131
 H807 H 0.63240 0.40288 0.35706
 H808 H 0.59167 0.43368 0.18916
 H809 H 0.67069 0.51670 0.28752
 H810 H 0.65618 0.54433 0.22195
 H811 H 0.62194 0.54792 0.15036
 H812 H 0.57589 0.46135 0.12931
 C813 C 0.82230 0.33918 0.35124
 C814 C 0.84254 0.35523 0.30336
 C815 C 0.86395 0.34959 0.28847
 C816 C 0.86399 0.32725 0.31876
 C817 C 0.84370 0.31133 0.36591
 C818 C 0.82316 0.31754 0.38339
 C819 C 0.88543 0.36682 0.24539
 C820 C 0.88575 0.38954 0.21663
 C821 C 0.86366 0.39442 0.22831
 C822 C 0.84222 0.37728 0.27190
 C823 C 0.86368 0.41664 0.19703
 C824 C 0.88579 0.43433 0.15657
 C825 C 0.90856 0.43058 0.14836
 C826 C 0.90812 0.40777 0.17745
 H827 H 0.80644 0.34396 0.36533
 H828 H 0.88013 0.32256 0.30755
 H829 H 0.84459 0.29477 0.39106
 H830 H 0.90219 0.36288 0.23551
 H831 H 0.82564 0.38141 0.28244
 H832 H 0.84675 0.42050 0.20443
 H833 H 0.88536 0.45129 0.13312
 H834 H 0.92530 0.40429 0.17002
   
