data_POSCAR
  _audit_creation_date              2014-09-24
  _audit_creation_method            'ToBaCCo'
  _symmetry_space_group_name_H-M    'P1'
  _symmetry_Int_Tables_number       1
  _symmetry_cell_setting            triclinic
  loop_
  _symmetry_equiv_pos_as_xyz
 x,y,z
_cell_length_a 39.2256
_cell_length_b 40.3090
_cell_length_c 40.0105
_cell_angle_alpha 89.874500
_cell_angle_beta 89.041000
_cell_angle_gamma 88.969800
loop_
  _atom_site_label
  _atom_site_type_symbol
  _atom_site_fract_x
  _atom_site_fract_y
  _atom_site_fract_z
N1 N 0.19369 0.19369 0.20749
 N2 N 0.70665 0.69208 0.71417
 N3 N 0.30617 0.81440 0.69312
 N4 N 0.75899 0.27712 0.20880
 N5 N 0.80773 0.70132 0.30103
 N6 N 0.29589 0.21681 -0.19873
 N7 N 0.71251 0.29184 -0.21489
 N8 N 0.19713 0.79646 0.28883
 N9 N 0.47555 0.48353 0.48798
 N10 N -0.05114 -0.06074 0.93409
 N11 N 1.05008 0.53415 0.95345
 N12 N 0.55248 0.04214 0.45474
 N13 N -0.04594 0.03966 0.53587
 N14 N 0.46678 0.54692 0.04901
 N15 N 0.53965 -0.04065 0.04613
 N16 N 1.04680 0.45413 0.52415
 C17 C 0.42499 0.02360 0.22024
 H18 H 0.42534 0.04233 0.23955
 C19 C 0.44747 0.02544 0.19292
 H20 H 0.46513 0.04576 0.19126
 C21 C 0.40167 -0.02580 0.19913
 H22 H 0.38408 -0.04596 0.20178
 C23 C 0.42375 -0.02496 0.17142
 H24 H 0.42190 -0.04413 0.15272
 N25 N 0.40241 -0.00152 0.22265
 C26 C 0.32129 0.03851 0.28737
 H27 H 0.32114 0.02000 0.30699
 C28 C 0.29722 0.06445 0.28797
 H29 H 0.27868 0.06597 0.30830
 C30 C 0.34492 0.05833 0.23638
 H31 H 0.36307 0.05550 0.21595
 C32 C 0.32124 0.08459 0.23592
 H33 H 0.32240 0.10224 0.21555
 Zn34 Zn 0.37306 -0.00236 0.26063
 N35 N 0.34444 0.03588 0.26180
 C36 C 0.40156 0.02095 0.32085
 N37 N 0.40116 -0.00453 0.29863
 C38 C 0.42297 -0.03096 0.30137
 C39 C 0.44635 -0.03253 0.32730
 C40 C 0.42472 0.02053 0.34701
 C41 C 0.32206 -0.03911 0.23221
 C42 C 0.29892 -0.06466 0.22868
 C43 C 0.31985 -0.08904 0.27979
 C44 C 0.34289 -0.06311 0.28218
 N45 N 0.34371 -0.03896 0.25840
 H46 H 0.38447 0.04203 0.31791
 H47 H 0.42253 -0.05061 0.28301
 H48 H 0.46370 -0.05365 0.32898
 H49 H 0.42434 0.04097 0.36449
 H50 H 0.32293 -0.01930 0.21395
 H51 H 0.28204 -0.06450 0.20752
 H52 H 0.32009 -0.10833 0.29862
 H53 H 0.35989 -0.06222 0.30311
 C54 C 0.29651 0.08747 0.26167
 C55 C 0.44722 0.00088 0.16817
 C56 C 0.29735 -0.08986 0.25277
 C57 C 0.44791 -0.00629 0.35013
 C58 C 0.08125 0.00076 0.69031
 H59 H 0.07521 -0.01967 0.70683
 C60 C 0.06374 0.00489 0.66040
 H61 H 0.04469 -0.01295 0.65393
 C62 C 0.11406 0.04836 0.67874
 H63 H 0.13366 0.06527 0.68607
 C64 C 0.09739 0.05328 0.64854
 H65 H 0.10426 0.07409 0.63279
 N66 N 0.10564 0.02254 0.69899
 C67 C 0.17954 -0.02334 0.76583
 H68 H 0.17691 -0.00720 0.78733
 C69 C 0.20358 -0.04924 0.76588
 H70 H 0.21931 -0.05297 0.78762
 C71 C 0.16232 -0.03782 0.71139
 H72 H 0.14612 -0.03328 0.69023
 C73 C 0.18608 -0.06410 0.71037
 H74 H 0.18720 -0.07967 0.68843
 Zn75 Zn 0.12718 0.01753 0.74065
 N76 N 0.15938 -0.01818 0.73893
 C77 C 0.09695 -0.01599 0.79637
 N78 N 0.09307 0.00904 0.77377
 C79 C 0.06439 0.02850 0.77390
 C80 C 0.03897 0.02414 0.79824
 C81 C 0.07208 -0.02131 0.82110
 C82 C 0.18464 0.05832 0.74802
 C83 C 0.20198 0.08731 0.75536
 C84 C 0.14786 0.11438 0.76769
 C85 C 0.13157 0.08489 0.76010
 N86 N 0.15005 0.05742 0.75091
 H87 H 0.11942 -0.03178 0.79560
 H88 H 0.06110 0.04735 0.75492
 H89 H 0.01652 0.04020 0.79819
 H90 H 0.07645 -0.04066 0.83937
 H91 H 0.19889 0.03670 0.73946
 H92 H 0.22939 0.08731 0.75214
 H93 H 0.13268 0.13592 0.77512
 H94 H 0.10414 0.08412 0.76153
 C95 C 0.20725 -0.06998 0.73792
 C96 C 0.07149 0.03178 0.63929
 C97 C 0.18351 0.11579 0.76581
 C98 C 0.04263 -0.00093 0.82230
 C99 C 0.56640 0.50745 0.21977
 H100 H 0.56270 0.48323 0.23081
 C101 C 0.54441 0.51906 0.19506
 H102 H 0.52344 0.50376 0.18772
 C103 C 0.59818 0.55681 0.21631
 H104 H 0.61907 0.57157 0.22469
 C105 C 0.57666 0.56949 0.19180
 H106 H 0.58143 0.59378 0.18126
 N107 N 0.59345 0.52580 0.22889
 C108 C 0.67031 0.45217 0.25730
 H109 H 0.67784 0.46224 0.28106
 C110 C 0.68598 0.42319 0.24511
 H111 H 0.70595 0.41154 0.25958
 C112 C 0.63632 0.45652 0.20905
 H113 H 0.61753 0.46990 0.19467
 C114 C 0.65145 0.42767 0.19584
 H115 H 0.64378 0.41888 0.17157
 Zn116 Zn 0.62572 0.50699 0.25846
 N117 N 0.64546 0.46782 0.23960
 C118 C 0.60181 0.46484 0.30991
 N119 N 0.60324 0.49698 0.29967
 C120 C 0.58742 0.52161 0.31760
 C121 C 0.56988 0.51437 0.34745
 C122 C 0.58465 0.45651 0.33946
 C123 C 0.68103 0.54210 0.23566
 C124 C 0.70686 0.56533 0.23548
 C125 C 0.69360 0.57714 0.29348
 C126 C 0.66790 0.55349 0.29253
 N127 N 0.66171 0.53708 0.26365
 H128 H 0.61349 0.44537 0.29495
 H129 H 0.58827 0.54691 0.30860
 H130 H 0.55777 0.53459 0.36107
 H131 H 0.58387 0.43071 0.34701
 H132 H 0.67568 0.52853 0.21310
 H133 H 0.72139 0.56940 0.21262
 H134 H 0.69729 0.59031 0.31656
 H135 H 0.65258 0.54878 0.31466
 C136 C 0.67614 0.41028 0.21416
 C137 C 0.55020 0.55007 0.18000
 C138 C 0.71322 0.58363 0.26440
 C139 C 0.56832 0.48128 0.35875
 C140 C 0.94154 0.51663 0.70525
 H141 H 0.94162 0.53492 0.72500
 C142 C 0.96657 0.51719 0.67998
 H143 H 0.98579 0.53615 0.68024
 C144 C 0.91752 0.46858 0.68192
 H145 H 0.89923 0.44892 0.68340
 C146 C 0.94183 0.46843 0.65600
 H147 H 0.94177 0.44847 0.63798
 N148 N 0.91779 0.49244 0.70590
 C149 C 0.83469 0.52733 0.77154
 H150 H 0.83495 0.50722 0.78949
 C151 C 0.81061 0.55303 0.77481
 H152 H 0.79242 0.55268 0.79548
 C153 C 0.85800 0.55193 0.72260
 H154 H 0.87646 0.55122 0.70224
 C155 C 0.83403 0.57801 0.72471
 H156 H 0.83486 0.59759 0.70619
 Zn157 Zn 0.88811 0.49033 0.74371
 N158 N 0.85792 0.52735 0.74594
 C159 C 0.91354 0.51337 0.80534
 N160 N 0.91588 0.48892 0.78199
 C161 C 0.93935 0.46384 0.78451
 C162 C 0.96137 0.46245 0.81158
 C163 C 0.93508 0.51299 0.83276
 C164 C 0.83780 0.45124 0.71636
 C165 C 0.81488 0.42526 0.71446
 C166 C 0.83841 0.40237 0.76513
 C167 C 0.86104 0.42874 0.76595
 N168 N 0.86035 0.45247 0.74174
 H169 H 0.89525 0.53348 0.80263
 H170 H 0.94104 0.44498 0.76533
 H171 H 0.97992 0.44231 0.81321
 H172 H 0.93209 0.53241 0.85123
 H173 H 0.83740 0.47075 0.69775
 H174 H 0.79698 0.42477 0.69415
 H175 H 0.83978 0.38362 0.78445
 H176 H 0.87869 0.43045 0.78627
 C177 C 0.80979 0.57858 0.75106
 C178 C 0.96694 0.49290 0.65494
 C179 C 0.81459 0.40070 0.73931
 C180 C 0.95970 0.48743 0.83593
 C181 C 0.21265 0.41890 0.04043
 H182 H 0.22725 0.41791 0.06312
 C183 C 0.18394 0.43969 0.03856
 H184 H 0.17649 0.45462 0.06004
 C185 C 0.20514 0.40101 -0.01529
 H186 H 0.21371 0.38614 -0.03632
 C187 C 0.17620 0.42148 -0.01826
 H188 H 0.16260 0.42127 -0.04151
 N189 N 0.22258 0.40000 0.01380
 C190 C 0.28284 0.31877 0.05573
 H191 H 0.30598 0.32109 0.04088
 C192 C 0.28039 0.29388 0.07987
 H193 H 0.30184 0.27703 0.08352
 C194 C 0.22686 0.33815 0.06901
 H195 H 0.20603 0.35541 0.06464
 C196 C 0.22330 0.31358 0.09344
 H197 H 0.19985 0.31300 0.10797
 Zn198 Zn 0.26279 0.37400 0.01848
 N199 N 0.25649 0.34057 0.05110
 C200 C 0.31320 0.39826 0.06159
 N201 N 0.29752 0.40289 0.03184
 C202 C 0.30507 0.42916 0.01182
 C203 C 0.33012 0.45145 0.02094
 C204 C 0.33825 0.42001 0.07176
 C205 C 0.25380 0.32899 -0.03359
 C206 C 0.26250 0.31072 -0.06220
 C207 C 0.31504 0.34090 -0.06641
 C208 C 0.30536 0.35852 -0.03769
 N209 N 0.27508 0.35245 -0.02203
 H210 H 0.30613 0.37793 0.07771
 H211 H 0.29151 0.43278 -0.01127
 H212 H 0.33531 0.47233 0.00475
 H213 H 0.35055 0.41590 0.09549
 H214 H 0.23025 0.32410 -0.02015
 H215 H 0.24529 0.29178 -0.07014
 H216 H 0.33937 0.34594 -0.07840
 H217 H 0.32244 0.37652 -0.02765
 C218 C 0.25040 0.29100 0.09913
 C219 C 0.16545 0.44147 0.00890
 C220 C 0.29358 0.31664 -0.07909
 C221 C 0.34733 0.44674 0.05120
 C222 C 0.70092 0.07664 -0.03473
 H223 H 0.71862 0.07584 -0.05576
 C224 C 0.67233 0.05662 -0.03455
 H225 H 0.66798 0.04058 -0.05569
 C226 C 0.68588 0.09776 0.01886
 H227 H 0.69163 0.11341 0.03983
 C228 C 0.65701 0.07789 0.02019
 H229 H 0.64035 0.07931 0.04197
 N230 N 0.70716 0.09668 -0.00833
 C231 C 0.77838 0.16754 -0.05154
 H232 H 0.79946 0.16450 -0.03464
 C233 C 0.78051 0.19019 -0.07791
 H234 H 0.80343 0.20451 -0.08122
 C235 C 0.72278 0.15277 -0.06743
 H236 H 0.70015 0.13842 -0.06307
 C237 C 0.72383 0.17513 -0.09414
 H238 H 0.70211 0.17675 -0.11035
 Zn239 Zn 0.74884 0.11946 -0.01023
 N240 N 0.74995 0.14917 -0.04696
 C241 C 0.80575 0.08516 -0.04084
 N242 N 0.78324 0.08624 -0.01462
 C243 C 0.78393 0.06277 0.00982
 C244 C 0.80865 0.03750 0.00914
 C245 C 0.83084 0.06012 -0.04263
 C246 C 0.73356 0.16892 0.03819
 C247 C 0.73963 0.18868 0.06614
 C248 C 0.79230 0.15802 0.07432
 C249 C 0.78520 0.13889 0.04642
 N250 N 0.75609 0.14438 0.02911
 H251 H 0.80444 0.10375 -0.06028
 H252 H 0.76544 0.06405 0.03018
 H253 H 0.80915 0.01932 0.02912
 H254 H 0.84908 0.06039 -0.06319
 H255 H 0.71106 0.17340 0.02345
 H256 H 0.72160 0.20837 0.07241
 H257 H 0.81574 0.15332 0.08761
 H258 H 0.80347 0.12016 0.03825
 C259 C 0.75298 0.19442 -0.09954
 C260 C 0.65029 0.05656 -0.00663
 C261 C 0.76942 0.18320 0.08466
 C262 C 0.83246 0.03586 -0.01731
 C263 C 0.20836 0.57764 0.51446
 H264 H 0.23341 0.56635 0.51633
 C265 C 0.17958 0.55827 0.52003
 H266 H 0.18338 0.53245 0.52651
 C267 C 0.17351 0.62512 0.50493
 H268 H 0.17108 0.65106 0.49848
 C269 C 0.14411 0.60671 0.51020
 H270 H 0.11938 0.61888 0.50813
 N271 N 0.20494 0.61055 0.50734
 C272 C 0.26262 0.69095 0.46321
 H273 H 0.28079 0.69381 0.48299
 C274 C 0.26297 0.71260 0.43606
 H275 H 0.28139 0.73231 0.43519
 C276 C 0.21722 0.66108 0.44000
 H277 H 0.20016 0.64034 0.44124
 C278 C 0.21654 0.68240 0.41236
 H279 H 0.19879 0.67769 0.39260
 Zn280 Zn 0.24434 0.63731 0.50206
 N281 N 0.23999 0.66583 0.46475
 C282 C 0.29904 0.61124 0.46391
 N283 N 0.28441 0.61036 0.49497
 C284 C 0.29778 0.59070 0.51938
 C285 C 0.32722 0.57131 0.51302
 C286 C 0.32825 0.59235 0.45651
 C287 C 0.22140 0.68617 0.54663
 C288 C 0.22274 0.70907 0.57256
 C289 C 0.27973 0.68928 0.58437
 C290 C 0.27718 0.66647 0.55822
 N291 N 0.24826 0.66530 0.53995
 H292 H 0.28793 0.62640 0.44452
 H293 H 0.28556 0.59001 0.54380
 H294 H 0.33700 0.55574 0.53280
 H295 H 0.33932 0.59355 0.43155
 H296 H 0.19910 0.68572 0.53131
 H297 H 0.20110 0.72559 0.57721
 H298 H 0.30287 0.68952 0.59866
 H299 H 0.29863 0.65031 0.55215
 C300 C 0.23970 0.70863 0.41027
 C301 C 0.14678 0.57283 0.51785
 C302 C 0.25227 0.71123 0.59152
 C303 C 0.34294 0.57217 0.48112
 C304 C 0.71091 0.91525 0.53542
 H305 H 0.72780 0.91352 0.55647
 C306 C 0.68481 0.93935 0.53513
 H307 H 0.68166 0.95600 0.55622
 C308 C 0.69505 0.89619 0.48205
 H309 H 0.69934 0.87970 0.46113
 C310 C 0.66861 0.91980 0.48076
 H311 H 0.65255 0.92011 0.45910
 N312 N 0.71549 0.89423 0.50914
 C313 C 0.77146 0.80659 0.54372
 H314 H 0.79050 0.80545 0.52386
 C315 C 0.77168 0.78271 0.56891
 H316 H 0.79097 0.76313 0.56826
 C317 C 0.72355 0.83391 0.56877
 H318 H 0.70498 0.85403 0.56863
 C319 C 0.72272 0.81033 0.59451
 H320 H 0.70369 0.81308 0.61422
 Zn321 Zn 0.75266 0.86340 0.50957
 N322 N 0.74808 0.83189 0.54439
 C323 C 0.81362 0.87970 0.54193
 N324 N 0.79338 0.88725 0.51559
 C325 C 0.80127 0.91234 0.49418
 C326 C 0.83076 0.93074 0.49871
 C327 C 0.84342 0.89713 0.54713
 C328 C 0.72823 0.81800 0.46423
 C329 C 0.72840 0.79727 0.43640
 C330 C 0.78282 0.81953 0.41946
 C331 C 0.78153 0.84001 0.44766
 N332 N 0.75449 0.83884 0.46933
 H333 H 0.80668 0.86033 0.55924
 H334 H 0.78461 0.91805 0.47359
 H335 H 0.83683 0.95022 0.48107
 H336 H 0.85926 0.89065 0.56818
 H337 H 0.70728 0.81726 0.48214
 H338 H 0.70734 0.78068 0.43293
 H339 H 0.80443 0.82120 0.40247
 H340 H 0.80236 0.85643 0.45242
 C341 C 0.74725 0.78438 0.59480
 C342 C 0.66346 0.94216 0.50742
 C343 C 0.75611 0.79745 0.41384
 C344 C 0.85217 0.92318 0.52564
 C345 C -0.00891 0.19654 0.41331
 H346 H 0.01367 0.21083 0.41767
 C347 C -0.01378 0.16669 0.43036
 H348 H 0.00559 0.15798 0.44736
 C349 C -0.06112 0.19055 0.38518
 H350 H -0.07980 0.20010 0.36798
 C351 C -0.06687 0.16046 0.40146
 H352 H -0.08984 0.14696 0.39638
 N353 N -0.03232 0.20774 0.39107
 C354 C 0.02144 0.27180 0.32087
 H355 H 0.00551 0.29393 0.32274
 C356 C 0.04935 0.27095 0.29881
 H357 H 0.05479 0.29262 0.28372
 C358 C 0.03347 0.21669 0.33830
 H359 H 0.02708 0.19553 0.35363
 C360 C 0.06170 0.21475 0.31659
 H361 H 0.07685 0.19212 0.31627
 Zn362 Zn -0.02401 0.24873 0.36953
 N363 N 0.01425 0.24505 0.34030
 C364 C 0.01394 0.29714 0.40344
 N365 N -0.01592 0.28054 0.40312
 C366 C -0.04026 0.28560 0.42726
 C367 C -0.03563 0.30918 0.45223
 C368 C 0.01967 0.32088 0.42796
 C369 C -0.06979 0.24289 0.31688
 C370 C -0.09723 0.25168 0.29668
 C371 C -0.10684 0.30046 0.33075
 C372 C -0.07934 0.29066 0.35037
 N373 N -0.06178 0.26202 0.34348
 H374 H 0.03352 0.29195 0.38480
 H375 H -0.06348 0.27152 0.42684
 H376 H -0.05550 0.31327 0.47096
 H377 H 0.04387 0.33329 0.42777
 H378 H -0.05477 0.22074 0.31137
 H379 H -0.10274 0.23620 0.27547
 H380 H -0.12064 0.32327 0.33668
 H381 H -0.07197 0.30614 0.37090
 C382 C 0.06993 0.24220 0.29636
 C383 C -0.04324 0.14833 0.42457
 C384 C -0.11642 0.28069 0.30382
 C385 C -0.00566 0.32763 0.45246
 C386 C -0.02598 0.70268 0.06542
 H387 H -0.04624 0.72124 0.06482
 C388 C -0.02683 0.67527 0.04420
 H389 H -0.04794 0.67278 0.02733
 C390 C 0.02648 0.68380 0.08774
 H391 H 0.04746 0.68743 0.10438
 C392 C 0.02669 0.65603 0.06691
 H393 H 0.04751 0.63823 0.06875
 N394 N 0.00032 0.70637 0.08671
 C395 C -0.04105 0.77375 0.16294
 H396 H -0.02288 0.79357 0.16087
 C397 C -0.06690 0.77527 0.18731
 H398 H -0.06873 0.79653 0.20381
 C399 C -0.05996 0.72144 0.14463
 H400 H -0.05677 0.70021 0.12837
 C401 C -0.08607 0.72183 0.16884
 H402 H -0.10331 0.70121 0.17009
 Zn403 Zn 0.00039 0.74533 0.11302
 N404 N -0.03804 0.74713 0.14222
 C405 C -0.02615 0.80391 0.08228
 N406 N 0.00036 0.78171 0.08301
 C407 C 0.02685 0.78360 0.06077
 C408 C 0.02757 0.80879 0.03677
 C409 C -0.02657 0.82939 0.05853
 C410 C 0.04147 0.72103 0.16374
 C411 C 0.06791 0.72056 0.18661
 C412 C 0.08865 0.77134 0.16211
 C413 C 0.06188 0.77071 0.13949
 N414 N 0.03900 0.74576 0.14071
 H415 H -0.04726 0.80166 0.09977
 H416 H 0.04734 0.76531 0.06158
 H417 H 0.04886 0.80991 0.01924
 H418 H -0.04770 0.84701 0.05884
 H419 H 0.02258 0.70181 0.16451
 H420 H 0.06937 0.70072 0.20488
 H421 H 0.10672 0.79124 0.16042
 H422 H 0.05911 0.79049 0.12143
 C423 C -0.08937 0.74882 0.19097
 C424 C -0.00008 0.65172 0.04442
 C425 C 0.09160 0.74616 0.18637
 C426 C 0.00043 0.83180 0.03510
 C427 C 0.48136 0.21574 0.56352
 H428 H 0.45923 0.23206 0.56557
 C429 C 0.48263 0.19085 0.53933
 H430 H 0.46136 0.18831 0.52266
 C431 C 0.53542 0.19875 0.58351
 H432 H 0.55590 0.20179 0.60087
 C433 C 0.53775 0.17346 0.55969
 H434 H 0.56009 0.15741 0.55966
 N435 N 0.50708 0.21863 0.58561
 C436 C 0.45748 0.25410 0.67712
 H437 H 0.47205 0.27603 0.68212
 C438 C 0.43152 0.24465 0.69929
 H439 H 0.42678 0.25941 0.72146
 C440 C 0.44762 0.20755 0.64280
 H441 H 0.45436 0.19271 0.62119
 C442 C 0.42153 0.19717 0.66429
 H443 H 0.40816 0.17463 0.65867
 Zn444 Zn 0.50078 0.24976 0.62073
 N445 N 0.46466 0.23586 0.64925
 C446 C 0.45911 0.30640 0.60854
 N447 N 0.48995 0.29180 0.60167
 C448 C 0.51237 0.30586 0.57979
 C449 C 0.50431 0.33609 0.56427
 C450 C 0.45000 0.33651 0.59358
 C451 C 0.54763 0.22339 0.66514
 C452 C 0.57536 0.22244 0.68648
 C453 C 0.58721 0.27918 0.67139
 C454 C 0.55914 0.27902 0.65024
 N455 N 0.54016 0.25129 0.64740
 H456 H 0.44113 0.29449 0.62514
 H457 H 0.53638 0.29333 0.57407
 H458 H 0.52237 0.34625 0.54649
 H459 H 0.42522 0.34758 0.59926
 H460 H 0.53181 0.20183 0.66278
 H461 H 0.58081 0.19993 0.70039
 H462 H 0.60206 0.30143 0.67270
 H463 H 0.55247 0.30114 0.63635
 C464 C 0.41287 0.21595 0.69273
 C465 C 0.51074 0.16885 0.53751
 C466 C 0.59548 0.25057 0.69009
 C467 C 0.47268 0.35189 0.57125
 C468 C 0.50666 0.70723 0.92951
 H469 H 0.52965 0.72093 0.93372
 C470 C 0.49830 0.68056 0.95039
 H471 H 0.51520 0.67424 0.97057
 C472 C 0.45600 0.70048 0.89907
 H473 H 0.43896 0.70880 0.87976
 C474 C 0.44669 0.67381 0.91924
 H475 H 0.42283 0.66159 0.91471
 N476 N 0.48563 0.71651 0.90433
 C477 C 0.54561 0.77591 0.83437
 H478 H 0.52867 0.79735 0.83320
 C479 C 0.57483 0.77445 0.81414
 H480 H 0.58037 0.79501 0.79755
 C481 C 0.55821 0.72270 0.85677
 H482 H 0.55128 0.70243 0.87309
 C483 C 0.58769 0.72006 0.83665
 H484 H 0.60357 0.69794 0.83841
 Zn485 Zn 0.49566 0.75464 0.87837
 N486 N 0.53789 0.75036 0.85519
 C487 C 0.52389 0.81048 0.91038
 N488 N 0.49570 0.79160 0.90755
 C489 C 0.46720 0.79789 0.92643
 C490 C 0.46614 0.82436 0.94892
 C491 C 0.52392 0.83726 0.93246
 C492 C 0.46166 0.73571 0.82169
 C493 C 0.43786 0.73708 0.79625
 C494 C 0.41674 0.78938 0.81847
 C495 C 0.44092 0.78690 0.84370
 N496 N 0.46244 0.76011 0.84504
 H497 H 0.54657 0.80474 0.89571
 H498 H 0.44527 0.78221 0.92404
 H499 H 0.44318 0.82897 0.96373
 H500 H 0.54659 0.85199 0.93347
 H501 H 0.47936 0.71488 0.82319
 H502 H 0.43731 0.71715 0.77816
 H503 H 0.39927 0.81043 0.81850
 H504 H 0.44230 0.80626 0.86222
 C505 C 0.59601 0.74611 0.81465
 C506 C 0.46783 0.66344 0.94529
 C507 C 0.41506 0.76413 0.79432
 C508 C 0.49476 0.84440 0.95236
 C509 C 0.16533 0.19152 0.23077
 C510 C 0.14680 0.21822 0.24005
 C511 C 0.11787 0.21545 0.26377
 C512 C 0.09972 0.24245 0.27297
 H513 H 0.15323 0.24247 0.23033
 H514 H 0.11137 0.19111 0.27299
 H515 H 0.15949 0.16762 0.24177
 H516 H 0.10667 0.26617 0.26223
 C517 C 0.68216 0.69073 0.74143
 C518 C 0.66793 0.71829 0.75449
 C519 C 0.64112 0.71691 0.78066
 C520 C 0.62593 0.74494 0.79154
 H521 H 0.67566 0.74231 0.74513
 H522 H 0.63263 0.69296 0.78938
 H523 H 0.67541 0.66679 0.75175
 H524 H 0.63427 0.76833 0.78104
 C525 C 0.33224 0.81638 0.71802
 C526 C 0.34800 0.78929 0.72999
 C527 C 0.37342 0.79159 0.75649
 C528 C 0.38936 0.76424 0.76763
 H529 H 0.34150 0.76501 0.72072
 H530 H 0.37925 0.81575 0.76643
 H531 H 0.33820 0.84041 0.72833
 H532 H 0.38398 0.74067 0.75597
 C533 C -0.21229 0.26452 0.22735
 C534 C -0.19304 0.28449 0.24554
 C535 C -0.16374 0.27151 0.26437
 C536 C -0.14568 0.29178 0.28342
 H537 H -0.19879 0.31087 0.24635
 H538 H -0.15769 0.24524 0.26320
 H539 H -0.20561 0.23834 0.22581
 H540 H -0.15353 0.31767 0.28519
 C541 C -0.16693 0.69919 0.27454
 C542 C -0.15403 0.72622 0.25997
 C543 C -0.12898 0.72328 0.23225
 C544 C -0.11564 0.75029 0.21801
 H545 H -0.16243 0.75067 0.26820
 H546 H -0.12084 0.69874 0.22414
 H547 H -0.15910 0.67491 0.26527
 H548 H -0.12294 0.77452 0.22778
 C549 C 0.32368 0.22878 0.78058
 C550 C 0.34064 0.20971 0.75828
 C551 C 0.36839 0.22330 0.73743
 C552 C 0.38511 0.20412 0.71510
 H553 H 0.33429 0.18392 0.75514
 H554 H 0.37448 0.24922 0.74006
 H555 H 0.33076 0.25455 0.78261
 H556 H 0.37732 0.17860 0.71226
 C557 C 0.68631 0.29585 0.76045
 C558 C 0.66888 0.27010 0.74908
 C559 C 0.64162 0.27469 0.72449
 C560 C 0.62447 0.24857 0.71347
 H561 H 0.67480 0.24530 0.75805
 H562 H 0.63519 0.29960 0.71639
 H563 H 0.68112 0.32037 0.75034
 H564 H 0.63131 0.22420 0.72309
 C565 C 0.17339 0.79788 0.26169
 C566 C 0.15917 0.77063 0.24947
 C567 C 0.13429 0.77279 0.22235
 C568 C 0.11868 0.74561 0.21175
 H569 H 0.16581 0.74649 0.25966
 H570 H 0.12780 0.79694 0.21216
 H571 H 0.16738 0.82174 0.25046
 H572 H 0.12452 0.72205 0.22370
 C573 C 0.21982 0.16809 0.20716
 C574 C 0.23072 0.15357 0.23519
 C575 C 0.25829 0.12831 0.23395
 C576 C 0.26965 0.11380 0.26183
 H577 H 0.21971 0.16078 0.25917
 H578 H 0.26869 0.12108 0.20976
 H579 H 0.23206 0.16150 0.18352
 H580 H 0.25761 0.12026 0.28559
 C581 C 0.73134 0.66547 0.70945
 C582 C 0.74494 0.64893 0.73513
 C583 C 0.77136 0.62300 0.72950
 C584 C 0.78383 0.60546 0.75508
 H585 H 0.73708 0.65502 0.76051
 H586 H 0.78004 0.61785 0.70417
 H587 H 0.74024 0.65963 0.68430
 H588 H 0.77337 0.60991 0.77998
 C589 C 0.73881 0.31624 0.78750
 C590 C 0.75119 0.33213 0.76067
 C591 C 0.77787 0.35711 0.76399
 C592 C 0.78919 0.37402 0.73734
 H593 H 0.74165 0.32664 0.73607
 H594 H 0.78730 0.36237 0.78866
 H595 H 0.74944 0.32131 0.81178
 H596 H 0.77798 0.36937 0.71324
 C597 C 0.22032 -0.17664 0.29363
 C598 C 0.23439 -0.16018 0.26801
 C599 C 0.25932 -0.13403 0.27388
 C600 C 0.27254 -0.11671 0.24841
 H601 H 0.22811 -0.16655 0.24257
 H602 H 0.26634 -0.12860 0.29933
 H603 H 0.22776 -0.17056 0.31884
 H604 H 0.26372 -0.12143 0.22334
 C605 C 0.28126 -0.15907 0.68987
 C606 C 0.26990 -0.14142 0.71619
 C607 C 0.24412 -0.11471 0.71244
 C608 C 0.23279 -0.09756 0.73913
 H609 H 0.27932 -0.14706 0.74091
 H610 H 0.23508 -0.10894 0.68768
 H611 H 0.27050 -0.15416 0.66553
 H612 H 0.24346 -0.10354 0.76330
 C613 C 0.73880 0.30414 0.22260
 C614 C 0.72290 0.32649 0.20336
 C615 C 0.70589 0.35575 0.21857
 C616 C 0.69197 0.37973 0.19979
 H617 H 0.72397 0.32408 0.17639
 H618 H 0.70510 0.35766 0.24556
 H619 H 0.73870 0.30785 0.24945
 H620 H 0.69155 0.37659 0.17289
 C621 C 0.78446 0.67441 0.30654
 C622 C 0.77418 0.65509 0.28165
 C623 C 0.74919 0.62872 0.28753
 C624 C 0.73949 0.60968 0.26217
 H625 H 0.78351 0.65932 0.25639
 H626 H 0.73877 0.62549 0.31247
 H627 H 0.77397 0.67050 0.33146
 H628 H 0.75120 0.61382 0.23779
 C629 C 0.28098 0.18513 0.79497
 C630 C 0.24777 0.18243 0.78894
 C631 C 0.23306 0.15001 0.78131
 C632 C 0.20008 0.14753 0.77386
 H633 H 0.23156 0.20449 0.78885
 H634 H 0.24949 0.12819 0.78222
 H635 H 0.29737 0.16321 0.79393
 H636 H 0.18414 0.16980 0.77448
 C637 C 0.19296 0.21803 0.18101
 C638 C 0.22151 0.22890 0.16626
 C639 C 0.22031 0.25441 0.13991
 C640 C 0.24911 0.26507 0.12543
 H641 H 0.24610 0.21940 0.17418
 H642 H 0.19571 0.26403 0.13231
 H643 H 0.16861 0.22864 0.17363
 H644 H 0.27314 0.25378 0.13286
 C645 C 0.70242 0.71691 0.68842
 C646 C 0.72836 0.72649 0.66878
 C647 C 0.72360 0.75196 0.64273
 C648 C 0.74943 0.75947 0.62200
 H649 H 0.75355 0.71566 0.67210
 H650 H 0.69881 0.76383 0.64020
 H651 H 0.67762 0.72880 0.68551
 H652 H 0.77339 0.74588 0.62442
 C653 C 0.80941 0.72752 0.32541
 C654 C 0.78168 0.73860 0.34211
 C655 C 0.78391 0.76426 0.36809
 C656 C 0.75596 0.77409 0.38526
 H657 H 0.75702 0.72831 0.33680
 H658 H 0.80870 0.77377 0.37403
 H659 H 0.83375 0.73894 0.32981
 H660 H 0.73185 0.76290 0.37936
 C661 C 0.28179 0.23679 -0.17180
 C662 C 0.30056 0.25824 -0.15484
 C663 C 0.28598 0.27709 -0.12635
 C664 C 0.30549 0.29741 -0.10880
 H665 H 0.32729 0.26116 -0.16115
 H666 H 0.25931 0.27412 -0.12008
 H667 H 0.25573 0.23275 -0.16352
 H668 H 0.33188 0.30024 -0.11671
 C669 C 0.70832 0.26764 -0.18855
 C670 C 0.73475 0.25529 -0.17149
 C671 C 0.72960 0.23082 -0.14455
 C672 C 0.75608 0.21862 -0.12742
 H673 H 0.76040 0.26309 -0.17759
 H674 H 0.70384 0.22354 -0.13843
 H675 H 0.68298 0.25861 -0.18294
 H676 H 0.78136 0.22756 -0.13350
 C677 C 0.19357 0.77157 0.31459
 C678 C 0.21974 0.76224 0.33365
 C679 C 0.21573 0.73778 0.36074
 C680 C 0.24155 0.73155 0.38138
 H681 H 0.24455 0.77302 0.32942
 H682 H 0.19137 0.72600 0.36442
 H683 H 0.16912 0.75986 0.31834
 H684 H 0.26497 0.74513 0.37783
 C685 C 0.30788 0.78840 0.66843
 C686 C 0.27973 0.77594 0.65536
 C687 C 0.28160 0.74898 0.63056
 C688 C 0.25302 0.73672 0.61813
 H689 H 0.25494 0.78556 0.66335
 H690 H 0.30638 0.74010 0.62186
 H691 H 0.33254 0.77770 0.66148
 H692 H 0.22873 0.74723 0.62660
 C693 C 0.74748 0.25975 0.17968
 C694 C 0.76878 0.24140 0.16053
 C695 C 0.75681 0.22305 0.13127
 C696 C 0.77862 0.20360 0.11385
 H697 H 0.79561 0.23983 0.16648
 H698 H 0.73017 0.22487 0.12483
 H699 H 0.72093 0.26216 0.17278
 H700 H 0.80480 0.20164 0.12211
 C701 C 0.48881 0.45512 0.50594
 C702 C 0.46846 0.43430 0.52263
 C703 C 0.48229 0.40420 0.53895
 C704 C 0.46143 0.38321 0.55482
 H705 H 0.44116 0.43889 0.52333
 H706 H 0.50952 0.39949 0.53788
 H707 H 0.51594 0.44952 0.50439
 H708 H 0.43445 0.38954 0.55629
 C709 C -0.05230 0.91296 -0.04141
 C710 C -0.02413 0.89853 -0.02924
 C711 C -0.02655 0.87288 -0.00303
 C712 C 0.00143 0.85799 0.00904
 H713 H 0.00080 0.90619 -0.03798
 H714 H -0.05159 0.86582 0.00593
 H715 H -0.07694 0.90576 -0.03135
 H716 H 0.02611 0.86428 -0.00159
 C717 C 0.05154 0.56097 -0.02282
 C718 C 0.02376 0.57823 -0.01284
 C719 C 0.02638 0.60554 0.01135
 C720 C -0.00122 0.62320 0.02111
 H721 H -0.00103 0.57206 -0.02234
 H722 H 0.05136 0.61164 0.02033
 H723 H 0.07592 0.56674 -0.01204
 H724 H -0.02564 0.61742 0.01042
 C725 C 0.55652 0.07007 0.47684
 C726 C 0.53079 0.09120 0.48437
 C727 C 0.53539 0.11931 0.50727
 C728 C 0.50965 0.14083 0.51346
 H729 H 0.50580 0.08746 0.47407
 H730 H 0.55986 0.12195 0.51889
 H731 H 0.58106 0.07374 0.48822
 H732 H 0.48593 0.13745 0.50044
 C733 C -0.03764 0.07041 0.51930
 C734 C -0.04625 0.07677 0.48768
 C735 C -0.03786 0.10859 0.47169
 C736 C -0.04983 0.11634 0.44150
 H737 H -0.05960 0.05843 0.47339
 H738 H -0.02277 0.12611 0.48527
 H739 H -0.02359 0.08887 0.53282
 H740 H -0.06657 0.09916 0.42932
 C741 C 0.48022 0.57439 1.03005
 C742 C 0.46119 0.59188 1.00861
 C743 C 0.47551 0.61944 0.98894
 C744 C 0.45614 0.63572 0.96685
 H745 H 0.43461 0.58591 1.00554
 H746 H 0.50194 0.62565 0.99222
 H747 H 0.50643 0.58145 1.03377
 H748 H 0.43008 0.62780 0.96383
 C749 C 0.54252 0.93360 1.02119
 C750 C 0.51570 0.91613 1.01158
 C751 C 0.51972 0.88951 0.98656
 C752 C 0.49283 0.87223 0.97669
 H753 H 0.49061 0.92156 1.02214
 H754 H 0.54508 0.88384 0.97702
 H755 H 0.56718 0.92874 1.00934
 H756 H 0.46803 0.87826 0.98770
 C757 C 0.04389 0.42862 0.49926
 C758 C 0.02208 0.40358 0.50233
 C759 C 0.02000 0.37832 0.47593
 C760 C -0.00164 0.35312 0.47873
 H761 H 0.00595 0.40142 0.52443
 H762 H 0.03573 0.38117 0.45369
 H763 H 0.06088 0.42924 0.47758
 H764 H -0.01818 0.35185 0.50067
 C765 C 0.44569 0.50123 0.50059
 C766 C 0.42485 0.51812 0.48030
 C767 C 0.39415 0.53603 0.49302
 C768 C 0.37395 0.55240 0.47168
 H769 H 0.43030 0.51844 0.45366
 H770 H 0.38877 0.53615 0.51961
 H771 H 0.43933 0.49977 0.52702
 H772 H 0.38105 0.55198 0.44535
 C773 C 0.92029 -0.03788 -0.06828
 C774 C 0.90323 -0.02691 -0.04119
 C775 C 0.87605 -0.00144 -0.04395
 C776 C 0.85924 0.00952 -0.01670
 H777 H 0.91026 -0.03583 -0.01664
 H778 H 0.86991 0.00822 -0.06843
 H779 H 0.91372 -0.02785 -0.09256
 H780 H 0.86487 -0.00181 0.00725
 C781 C 0.56538 -0.01559 0.04731
 C782 C 0.57947 -0.00292 0.01956
 C783 C 0.60629 0.02209 0.02136
 C784 C 0.62113 0.03369 -0.00653
 H785 H 0.57126 -0.01123 -0.00471
 H786 H 0.61483 0.02977 0.04570
 H787 H 0.57294 -0.00624 0.07143
 H788 H 0.61305 0.02427 -0.03045
 C789 C 0.07869 0.47125 0.52453
 C790 C 0.08032 0.50419 0.52761
 C791 C 0.11325 0.52099 0.52373
 C792 C 0.11488 0.55412 0.52359
 H793 H 0.05715 0.51883 0.53144
 H794 H 0.13594 0.50583 0.51960
 H795 H 0.10187 0.45720 0.51869
 H796 H 0.09132 0.56840 0.52655
 C797 C 0.07709 0.50939 -0.04727
 C798 C 0.09203 0.49872 -0.01934
 C799 C 0.12046 0.47437 -0.02052
 C800 C 0.13542 0.46434 0.00767
 H801 H 0.08329 0.50823 0.00470
 H802 H 0.12966 0.46577 -0.04466
 H803 H 0.08514 0.49882 -0.07109
 H804 H 0.12602 0.47455 0.03122
 C805 C 0.57764 1.01556 0.45426
 C806 C 0.59407 1.00565 0.48171
 C807 C 0.62002 0.97874 0.48004
 C808 C 0.63633 0.96842 0.50746
 H809 H 0.58824 1.01727 0.50557
 H810 H 0.62619 0.96812 0.45585
 H811 H 0.58282 1.00266 0.43090
 H812 H 0.63029 0.98059 0.53103
 C813 C 0.92363 1.02239 0.52686
 C814 C 0.92001 0.98992 0.53244
 C815 C 0.88855 0.97295 0.52334
 C816 C 0.88390 0.94129 0.53203
 H817 H 0.94042 0.97570 0.54390
 H818 H 0.86869 0.98685 0.51069
 H819 H 0.90330 1.03606 0.51459
 H820 H 0.90346 0.92858 0.54632
 C821 C 0.43967 0.52729 0.03589
 C822 C 0.41938 0.50943 0.05590
 C823 C 0.39236 0.48873 0.04237
 C824 C 0.37396 0.46941 0.06275
 H825 H 0.42282 0.50998 0.08271
 H826 H 0.38849 0.48857 0.01565
 H827 H 0.43538 0.52731 0.00919
 H828 H 0.37974 0.46905 0.08918
 C829 C 0.49459 0.49680 0.45991
 C830 C 0.51370 0.47744 0.43960
 C831 C 0.53169 0.49107 0.41006
 C832 C 0.54995 0.47090 0.38978
 H833 H 0.51536 0.45098 0.44425
 H834 H 0.52937 0.51735 0.40504
 H835 H 0.49207 0.52304 0.45422
 H836 H 0.55119 0.44471 0.39607
 C837 C -0.02413 -0.05999 0.90912
 C838 C -0.01642 -0.03218 0.89250
 C839 C 0.01081 -0.03157 0.86675
 C840 C 0.01592 -0.00405 0.84868
 H841 H -0.03025 -0.00929 0.89803
 H842 H 0.02598 -0.05385 0.86224
 H843 H -0.00935 -0.08246 0.90404
 H844 H -0.00097 0.01721 0.85283
 C845 C -0.02807 0.02998 0.56572
 C846 C 0.00462 0.03738 0.57049
 C847 C 0.02180 0.02821 0.60175
 C848 C 0.05354 0.03816 0.60754
 H849 H 0.01881 0.05052 0.55131
 H850 H 0.00774 0.01452 0.62058
 H851 H -0.04151 0.01590 0.58477
 H852 H 0.06625 0.05337 0.58891
 C853 C 0.48475 0.53502 0.07788
 C854 C 0.49839 0.55561 0.09988
 C855 C 0.51582 0.54239 0.12948
 C856 C 0.52988 0.56257 0.15163
 H857 H 0.49636 0.58221 0.09616
 H858 H 0.51827 0.51573 0.13234
 H859 H 0.48578 0.50853 0.08268
 H860 H 0.52873 0.58914 0.14734
 C861 C 0.51575 -0.04402 0.07368
 C862 C 0.50510 -0.01805 0.09209
 C863 C 0.48084 -0.02231 0.12016
 C864 C 0.47116 0.00349 0.13928
 H865 H 0.51412 0.00659 0.08630
 H866 H 0.47165 -0.04694 0.12551
 H867 H 0.50560 -0.06830 0.07926
 H868 H 0.48218 0.02751 0.13423
 C869 C 1.01817 0.46265 0.54588
 C870 C 1.02194 0.47493 0.57661
 C871 C 0.99224 0.47876 0.59945
 C872 C 0.99521 0.49202 0.62987
 H873 H 1.04712 0.48037 0.58562
 H874 H 0.96780 0.46988 0.59144
 H875 H 0.99274 0.45670 0.53784
 H876 H 1.01935 0.50253 0.63679
 C877 C 1.02615 0.53608 0.92648
 C878 C 1.01681 0.50930 0.90942
 C879 C 0.99234 0.51230 0.88202
 C880 C 0.98363 0.48577 0.86422
 H881 H 1.02702 0.48500 0.91585
 H882 H 0.98217 0.53668 0.87599
 H883 H 1.01479 0.56000 0.92029
 H884 H 0.99558 0.46196 0.86976
 C885 C 0.52731 0.04378 0.42884
 C886 C 0.51337 0.01659 0.41615
 C887 C 0.48694 0.01930 0.39047
 C888 C 0.47380 -0.00777 0.37669
 H889 H 0.52109 -0.00775 0.42512
 H890 H 0.47884 0.04378 0.38230
 H891 H 0.51856 0.06792 0.42014
 H892 H 0.48366 -0.03199 0.38394
   
