data_POSCAR
  _audit_creation_date              2014-09-24
  _audit_creation_method            'ToBaCCo'
  _symmetry_space_group_name_H-M    'P1'
  _symmetry_Int_Tables_number       1
  _symmetry_cell_setting            triclinic
  loop_
  _symmetry_equiv_pos_as_xyz
 x,y,z
_cell_length_a 19.9244
_cell_length_b 20.0015
_cell_length_c 21.8987
_cell_angle_alpha 90.001200
_cell_angle_beta 90.229900
_cell_angle_gamma 120.138200
loop_
  _atom_site_label
  _atom_site_type_symbol
  _atom_site_fract_x
  _atom_site_fract_y
  _atom_site_fract_z
O1 O 0.33075 0.55142 0.31742
 O2 O 0.19997 0.54883 0.30313
 C3 C 0.18648 0.59669 0.33067
 O4 O 0.21855 0.66757 0.31684
 O5 O 0.34705 0.79801 0.30318
 C6 C 0.40866 0.81173 0.33112
 O7 O 0.44767 0.77973 0.31766
 O8 O 0.45001 0.65189 0.30386
 C9 C 0.40200 0.59045 0.33136
 O10 O 0.34661 0.54884 0.19518
 O11 O 0.21816 0.55097 0.18089
 C12 C 0.18590 0.58965 0.16672
 O13 O 0.19996 0.65121 0.19447
 O14 O 0.33089 0.77922 0.18087
 C15 C 0.40214 0.81142 0.16748
 O16 O 0.45012 0.79800 0.19538
 O17 O 0.44751 0.66766 0.18158
 C18 C 0.40832 0.59668 0.16776
 Cr19 Cr 0.27627 0.55479 0.24916
 Cr20 Cr 0.27649 0.72162 0.24886
 Cr21 Cr 0.44404 0.72193 0.24960
 O22 O 0.33227 0.66611 0.24922
 O23 O 0.55172 0.33204 0.68216
 O24 O 0.54946 0.20187 0.69554
 C25 C 0.59739 0.18816 0.66825
 O26 O 0.66855 0.22010 0.68239
 O27 O 0.79933 0.34837 0.69619
 C28 C 0.81314 0.40997 0.66890
 O29 O 0.78141 0.44902 0.68296
 O30 O 0.65281 0.45082 0.69611
 C31 C 0.59095 0.40296 0.66844
 O32 O 0.54939 0.34740 0.80450
 O33 O 0.55193 0.21961 0.81788
 C34 C 0.59132 0.18811 0.83190
 O35 O 0.65325 0.20227 0.80470
 O36 O 0.78184 0.33287 0.81849
 C37 C 0.81351 0.40367 0.83269
 O38 O 0.79934 0.45127 0.80541
 O39 O 0.66844 0.44840 0.81849
 C40 C 0.59728 0.40907 0.83213
 Cr41 Cr 0.55546 0.27765 0.75004
 Cr42 Cr 0.72332 0.27829 0.75045
 Cr43 Cr 0.72310 0.44507 0.75073
 O44 O 0.66730 0.33367 0.75042
 C45 C 0.48825 -0.02810 0.47446
 N46 N 0.41809 -0.05142 0.44809
 N47 N 0.39277 -0.10230 0.40230
 C48 C 0.43653 -0.13198 0.38142
 N49 N 0.50658 -0.10878 0.40793
 N50 N 0.53205 -0.05764 0.45349
 C51 C 0.51644 0.02815 0.52479
 N52 N 0.58989 0.05768 0.54649
 N53 N 0.61567 0.10879 0.59209
 C54 C 0.56883 0.13196 0.61788
 N55 N 0.49530 0.10230 0.59627
 N56 N 0.46963 0.05145 0.55045
 C57 C 1.02760 0.51666 0.47447
 N58 N 1.05047 0.46984 0.44830
 N59 N 1.10087 0.49520 0.40232
 C60 C 1.13049 0.56841 0.38103
 N61 N 1.10772 0.61525 0.40732
 N62 N 1.05707 0.58978 0.45308
 C63 C 0.97194 0.48883 0.52505
 N64 N 0.94285 0.53268 0.54669
 N65 N 0.89221 0.50749 0.59247
 C66 C 0.86909 0.43768 0.61851
 N67 N 0.89834 0.39388 0.59697
 N68 N 0.94872 0.41893 0.55098
 C69 C 0.48303 0.51141 0.47476
 N70 N 0.40943 0.46765 0.45332
 N71 N 0.38361 0.49296 0.40774
 C72 C 0.43057 0.56280 0.38171
 N73 N 0.50426 0.60651 0.40307
 N74 N 0.52996 0.58135 0.44887
 C75 C 0.51126 0.48339 0.52508
 N76 N 0.58162 0.53012 0.55119
 N77 N 0.60699 0.50461 0.59698
 C78 C 0.56306 0.43131 0.61811
 N79 N 0.49280 0.38455 0.59188
 N80 N 0.46729 0.41018 0.54631
 C81 C 0.48336 -0.02845 1.02469
 N82 N 0.53026 -0.05145 1.05097
 N83 N 0.50450 -0.10235 1.09657
 C84 C 0.43078 -0.13237 1.11732
 N85 N 0.38385 -0.10950 1.09089
 N86 N 0.40972 -0.05835 1.04553
 C87 C 0.51164 0.02786 0.97461
 N88 N 0.46764 0.05704 0.95304
 N89 N 0.49317 0.10822 0.90769
 C90 C 0.56348 0.13184 0.88202
 N91 N 0.60745 0.10255 0.90351
 N92 N 0.58207 0.05162 0.94909
 C93 C 1.03032 0.51263 1.02706
 N94 N 1.04910 0.57966 1.05633
 N95 N 1.10000 0.60488 1.10234
 C96 C 1.13448 0.56427 1.12062
 N97 N 1.11570 0.49729 1.09104
 N98 N 1.06445 0.47187 1.04531
 C99 C 0.97398 0.48450 0.97655
 N100 N 0.94693 0.41248 0.95331
 N101 N 0.89566 0.38671 0.90760
 C102 C 0.86992 0.43220 0.88316
 N103 N 0.89714 0.50433 0.90628
 N104 N 0.94807 0.52993 0.95228
 C105 C 0.48792 0.51606 1.02504
 N106 N 0.53176 0.58939 1.04638
 N107 N 0.50627 0.61506 1.09174
 C108 C 0.43615 0.56823 1.11765
 N109 N 0.39234 0.49482 1.09640
 N110 N 0.41769 0.46925 1.05082
 C111 C 0.51617 0.48802 0.97495
 N112 N 0.46939 0.41790 0.94893
 N113 N 0.49512 0.39275 0.90332
 C114 C 0.56868 0.43666 0.88230
 N115 N 0.61549 0.50668 0.90846
 N116 N 0.58964 0.53196 0.95385
   
