data_POSCAR
  _audit_creation_date              2014-09-24
  _audit_creation_method            'ToBaCCo'
  _symmetry_space_group_name_H-M    'P1'
  _symmetry_Int_Tables_number       1
  _symmetry_cell_setting            triclinic
  loop_
  _symmetry_equiv_pos_as_xyz
 x,y,z
_cell_length_a 21.0428
_cell_length_b 21.0731
_cell_length_c 35.9517
_cell_angle_alpha 81.422700
_cell_angle_beta 98.420000
_cell_angle_gamma 83.306300
loop_
  _atom_site_label
  _atom_site_type_symbol
  _atom_site_fract_x
  _atom_site_fract_y
  _atom_site_fract_z
O1 O 0.03519 0.54146 1.04055
 O2 O 0.05074 0.43264 0.97087
 O3 O 0.05273 0.55641 0.97053
 O4 O 0.03202 0.41907 1.04156
 O5 O -0.07374 0.43683 1.02158
 O6 O -0.05311 0.57666 0.95164
 O7 O -0.05488 0.45200 0.95077
 O8 O -0.07103 0.55962 1.02231
 Cu9 Cu 0.05325 0.48523 1.00762
 Cu10 Cu -0.07383 0.50809 0.98442
 C11 C -0.02030 0.56915 1.04349
 C12 C 0.00091 0.42331 0.94895
 C13 C 0.00337 0.59129 0.94952
 C14 C -0.02437 0.40464 1.04394
 O15 O 0.58381 -0.03514 0.54355
 O16 O 0.44667 -0.05453 0.47219
 O17 O 0.57072 -0.05306 0.47276
 O18 O 0.46096 -0.03713 0.54221
 O19 O 0.44383 0.06905 0.52410
 O20 O 0.55197 0.05253 0.45275
 O21 O 0.42711 0.05139 0.45344
 O22 O 0.56708 0.07042 0.52366
 Cu23 Cu 0.51762 -0.05554 0.50943
 Cu24 Cu 0.49578 0.07148 0.48636
 C25 C 0.59895 0.02089 0.54610
 C26 C 0.41236 -0.00489 0.45123
 C27 C 0.58043 -0.00326 0.45089
 C28 C 0.43363 0.01845 0.54516
 C29 C -0.04580 -0.11421 0.22686
 C30 C -0.10037 -0.11157 0.25087
 C31 C -0.10301 -0.06079 0.27043
 C32 C -0.05028 -0.01706 0.26424
 C33 C -0.05596 -0.04766 0.20156
 C34 C -0.05805 0.00287 0.22084
 C35 C 0.01563 -0.11476 0.25607
 C36 C 0.01390 -0.06386 0.27547
 H37 H -0.13249 -0.14793 0.25336
 H38 H -0.05267 0.02451 0.27986
 H39 H -0.05765 -0.04126 0.17093
 H40 H 0.05683 -0.15254 0.26106
 C41 C 0.11383 0.04714 0.72719
 C42 C 0.11491 -0.01377 0.75695
 C43 C 0.06381 -0.01200 0.77626
 C44 C 0.01654 0.05173 0.76469
 C45 C 0.04720 0.05619 0.70202
 C46 C -0.00334 0.05840 0.72141
 C47 C 0.11059 0.10233 0.75062
 C48 C 0.05976 0.10499 0.77026
 H49 H 0.15278 -0.05494 0.76211
 H50 H -0.02507 0.05390 0.78041
 H51 H 0.04081 0.05649 0.67152
 H52 H 0.14671 0.13473 0.75281
 C53 C -0.03183 -0.30185 0.12441
 C54 C 0.02831 -0.32199 0.11429
 C55 C 0.03151 -0.36473 0.08815
 C56 C -0.02499 -0.38668 0.07160
 C57 C -0.08512 -0.36570 0.08185
 C58 C -0.08873 -0.32338 0.10844
 C59 C -0.03535 -0.25644 0.15177
 C60 C -0.09543 -0.23556 0.16169
 C61 C -0.09860 -0.19111 0.18709
 C62 C -0.04201 -0.16789 0.20283
 C63 C 0.01738 -0.18832 0.19137
 C64 C 0.02121 -0.23323 0.16654
 C65 C -0.14802 -0.30171 0.11920
 C66 C -0.15131 -0.25858 0.14538
 C67 C 0.08402 -0.29838 0.13013
 C68 C 0.08046 -0.25441 0.15565
 H69 H -0.19231 -0.31796 0.10716
 H70 H -0.19806 -0.24279 0.15272
 H71 H 0.13066 -0.31351 0.12244
 H72 H 0.12446 -0.23680 0.16692
 H73 H 0.07795 -0.38009 0.08025
 H74 H -0.12883 -0.38241 0.06930
 H75 H -0.14542 -0.17322 0.19347
 H76 H 0.06065 -0.16801 0.20082
 C77 C -0.04553 0.24286 0.12641
 C78 C 0.01319 0.26872 0.12929
 C79 C 0.01955 0.32211 0.10244
 C80 C -0.03235 0.34974 0.07292
 C81 C -0.09137 0.32396 0.07093
 C82 C -0.09802 0.27011 0.09741
 C83 C -0.05136 0.18474 0.15343
 C84 C -0.10894 0.15687 0.14933
 C85 C -0.11240 0.09886 0.17328
 C86 C -0.05894 0.06928 0.20109
 C87 C -0.00240 0.09868 0.20568
 C88 C 0.00186 0.15638 0.18171
 C89 C -0.15556 0.24203 0.09498
 C90 C -0.16084 0.18620 0.12042
 C91 C 0.06481 0.23989 0.15852
 C92 C 0.05923 0.18467 0.18431
 H93 H -0.19644 0.26266 0.07279
 H94 H -0.20555 0.16527 0.11705
 H95 H 0.11026 0.25960 0.16113
 H96 H 0.10057 0.16325 0.20602
 H97 H 0.06503 0.34184 0.10440
 H98 H -0.13154 0.34475 0.04828
 H99 H -0.15549 0.07531 0.16944
 H100 H 0.03957 0.07446 0.22606
 C101 C 0.30312 0.03128 0.62543
 C102 C 0.32299 -0.02895 0.61546
 C103 C 0.36630 -0.03263 0.58957
 C104 C 0.38905 0.02348 0.57311
 C105 C 0.36836 0.08371 0.58322
 C106 C 0.32550 0.08780 0.60956
 C107 C 0.25713 0.03533 0.65252
 C108 C 0.23656 0.09552 0.66229
 C109 C 0.19164 0.09920 0.68747
 C110 C 0.16765 0.04301 0.70316
 C111 C 0.18774 -0.01647 0.69182
 C112 C 0.23310 -0.02081 0.66720
 C113 C 0.30410 0.14720 0.62016
 C114 C 0.26042 0.15099 0.64608
 C115 C 0.29854 -0.08425 0.63120
 C116 C 0.25403 -0.08018 0.65648
 H117 H 0.32100 0.19118 0.60818
 H118 H 0.24490 0.19781 0.65331
 H119 H 0.31344 -0.13096 0.62363
 H120 H 0.23578 -0.12386 0.66768
 H121 H 0.38144 -0.07913 0.58177
 H122 H 0.38569 0.12713 0.57074
 H123 H 0.17406 0.14612 0.69372
 H124 H 0.16691 -0.05942 0.70132
 C125 C -0.24198 0.04071 0.62757
 C126 C -0.26197 -0.02040 0.62684
 C127 C -0.31518 -0.02660 0.59989
 C128 C -0.34879 0.02788 0.57372
 C129 C -0.32862 0.08917 0.57553
 C130 C -0.27492 0.09567 0.60212
 C131 C -0.18412 0.04684 0.65467
 C132 C -0.16215 0.10739 0.65411
 C133 C -0.10440 0.11192 0.67797
 C134 C -0.06938 0.05650 0.70218
 C135 C -0.09288 -0.00331 0.70335
 C136 C -0.15018 -0.00857 0.67941
 C137 C -0.25264 0.15582 0.60324
 C138 C -0.19705 0.16153 0.62868
 C139 C -0.22762 -0.07442 0.65264
 C140 C -0.17269 -0.06858 0.67852
 H141 H -0.27770 0.19864 0.58380
 H142 H -0.18072 0.20852 0.62806
 H143 H -0.24278 -0.12179 0.65247
 H144 H -0.14694 -0.11162 0.69750
 H145 H -0.32996 -0.07408 0.59925
 H146 H -0.35367 0.13170 0.55577
 H147 H -0.08528 0.15766 0.67674
 H148 H -0.06453 -0.04627 0.72115
 C149 C 0.02811 -0.23935 0.87740
 C150 C 0.08270 -0.27982 0.89918
 C151 C 0.07419 -0.33650 0.92262
 C152 C 0.01147 -0.35317 0.92458
 C153 C -0.04278 -0.31197 0.90210
 C154 C -0.03468 -0.25498 0.87860
 C155 C 0.03695 -0.17951 0.85280
 C156 C -0.01757 -0.13894 0.83095
 C157 C -0.00872 -0.08276 0.80700
 C158 C 0.05417 -0.06776 0.80436
 C159 C 0.10814 -0.10834 0.82723
 C160 C 0.09983 -0.16433 0.85137
 C161 C -0.08812 -0.21306 0.85640
 C162 C -0.07972 -0.15604 0.83300
 C163 C 0.14483 -0.26267 0.89722
 C164 C 0.15326 -0.20592 0.87370
 H165 H -0.13687 -0.22446 0.85709
 H166 H -0.12221 -0.12525 0.81624
 H167 H 0.18735 -0.29348 0.91395
 H168 H 0.20203 -0.19468 0.87286
 H169 H 0.11661 -0.36725 0.93956
 H170 H -0.09140 -0.32363 0.90315
 H171 H -0.05064 -0.05212 0.78960
 H172 H 0.15668 -0.09660 0.82615
 C173 C 0.02472 0.28888 0.87174
 C174 C -0.03813 0.31660 0.87436
 C175 C -0.04601 0.36133 0.89928
 C176 C 0.00855 0.37796 0.92156
 C177 C 0.07117 0.34971 0.91830
 C178 C 0.07953 0.30525 0.89349
 C179 C 0.03341 0.24158 0.84584
 C180 C 0.09633 0.21405 0.84331
 C181 C 0.10447 0.16929 0.81866
 C182 C 0.05029 0.15194 0.79652
 C183 C -0.01259 0.17957 0.79961
 C184 C -0.02130 0.22469 0.82420
 C185 C 0.14169 0.27657 0.89019
 C186 C 0.14996 0.23175 0.86551
 C187 C -0.09173 0.29866 0.85217
 C188 C -0.08347 0.25349 0.82755
 H189 H 0.18434 0.28883 0.90686
 H190 H 0.19874 0.21076 0.86381
 H191 H -0.14052 0.31960 0.85390
 H192 H -0.12611 0.24100 0.81100
 H193 H -0.09442 0.38255 0.90160
 H194 H 0.11357 0.36203 0.93520
 H195 H 0.15300 0.14733 0.81712
 H196 H -0.05450 0.16691 0.78245
 C197 C -0.28550 -0.02667 0.37317
 C198 C -0.31348 0.03604 0.37573
 C199 C -0.35797 0.04372 0.40088
 C200 C -0.37416 -0.01085 0.42344
 C201 C -0.34559 -0.07333 0.42029
 C202 C -0.30134 -0.08151 0.39524
 C203 C -0.23853 -0.03515 0.34697
 C204 C -0.21075 -0.09792 0.34446
 C205 C -0.16635 -0.10585 0.31949
 C206 C -0.14959 -0.05161 0.29702
 C207 C -0.17747 0.01111 0.30009
 C208 C -0.22223 0.01960 0.32499
 C209 C -0.27241 -0.14352 0.39197
 C210 C -0.22789 -0.15159 0.36700
 C211 C -0.29610 0.08969 0.35321
 C212 C -0.25126 0.08162 0.32830
 H213 H -0.28426 -0.18620 0.40888
 H214 H -0.20671 -0.20026 0.36532
 H215 H -0.31727 0.13835 0.35490
 H216 H -0.23922 0.12429 0.31150
 H217 H -0.37945 0.09203 0.40311
 H218 H -0.35757 -0.11573 0.43741
 H219 H -0.14420 -0.15425 0.31795
 H220 H -0.16531 0.05307 0.28266
 C221 C 0.24059 -0.02930 0.37755
 C222 C 0.28261 -0.08407 0.39790
 C223 C 0.33917 -0.07566 0.42145
 C224 C 0.35399 -0.01299 0.42478
 C225 C 0.31140 0.04148 0.40393
 C226 C 0.25450 0.03356 0.38033
 C227 C 0.18092 -0.03799 0.35280
 C228 C 0.13878 0.01668 0.33242
 C229 C 0.08279 0.00803 0.30829
 C230 C 0.06953 -0.05473 0.30389
 C231 C 0.11159 -0.10894 0.32552
 C232 C 0.16742 -0.10086 0.34982
 C233 C 0.21102 0.08715 0.35960
 C234 C 0.15414 0.07885 0.33608
 C235 C 0.26711 -0.14622 0.39444
 C236 C 0.21049 -0.15448 0.37079
 H237 H 0.22107 0.13593 0.36153
 H238 H 0.12211 0.12148 0.32045
 H239 H 0.29911 -0.18887 0.41006
 H240 H 0.20053 -0.20326 0.36875
 H241 H 0.37138 -0.11797 0.43735
 H242 H 0.32205 0.08992 0.40640
 H243 H 0.05090 0.05023 0.29222
 H244 H 0.10116 -0.15753 0.32343
   
