data_POSCAR
  _audit_creation_date              2014-09-24
  _audit_creation_method            'ToBaCCo'
  _symmetry_space_group_name_H-M    'P1'
  _symmetry_Int_Tables_number       1
  _symmetry_cell_setting            triclinic
  loop_
  _symmetry_equiv_pos_as_xyz
 x,y,z
_cell_length_a 34.4612
_cell_length_b 34.5392
_cell_length_c 34.4829
_cell_angle_alpha 90.163300
_cell_angle_beta 90.040300
_cell_angle_gamma 90.082400
loop_
  _atom_site_label
  _atom_site_type_symbol
  _atom_site_fract_x
  _atom_site_fract_y
  _atom_site_fract_z
N1 N 0.30470 0.21809 0.20194
 N2 N 0.29230 0.24856 0.18285
 C3 C 0.31690 0.25599 0.15343
 C4 C 0.34629 0.22869 0.15430
 C5 C 0.33763 0.20518 0.18543
 H6 H 0.31416 0.28000 0.13359
 H7 H 0.35457 0.18097 0.19576
 Cu8 Cu 0.24604 0.27646 0.19912
 Cu9 Cu 0.27870 0.19872 0.24812
 Cu10 Cu 0.20298 0.25419 0.28357
 N11 N 0.20113 0.30502 0.21794
 N12 N 0.18397 0.29571 0.25066
 C13 C 0.15461 0.32049 0.25737
 C14 C 0.15344 0.34688 0.22725
 C15 C 0.18337 0.33626 0.20284
 H16 H 0.13641 0.32004 0.28289
 H17 H 0.19195 0.35079 0.17646
 N18 N 0.22040 0.20607 0.30859
 N19 N 0.24881 0.18454 0.29468
 C20 C 0.25432 0.15408 0.31837
 C21 C 0.22807 0.15666 0.34863
 C22 C 0.20705 0.18985 0.34147
 H23 H 0.27645 0.13230 0.31442
 H24 H 0.18406 0.20154 0.35932
 H25 H 0.22409 0.22197 0.23786
 H26 H 0.26041 0.25270 0.26409
 N27 N 0.69078 -0.22259 0.20542
 N28 N 0.70442 -0.25181 0.18510
 C29 C 0.68131 -0.25778 0.15410
 C30 C 0.65139 -0.23097 0.15539
 C31 C 0.65842 -0.20912 0.18828
 H32 H 0.68545 -0.28053 0.13293
 H33 H 0.64086 -0.18560 0.19930
 Cu34 Cu 0.74971 -0.28063 0.20251
 Cu35 Cu 0.71467 -0.20564 0.25373
 Cu36 Cu 0.80228 -0.24825 0.27831
 N37 N 0.79654 -0.30710 0.21948
 N38 N 0.81748 -0.29369 0.24845
 C39 C 0.84779 -0.31746 0.25450
 C40 C 0.84557 -0.34760 0.22794
 C41 C 0.81277 -0.34002 0.20617
 H42 H 0.86900 -0.31359 0.27729
 H43 H 0.80135 -0.35759 0.18279
 N44 N 0.78145 -0.20234 0.30520
 N45 N 0.74799 -0.18622 0.29597
 C46 C 0.74110 -0.15654 0.32044
 C47 C 0.77156 -0.15416 0.34651
 C48 C 0.79651 -0.18359 0.33605
 H49 H 0.71534 -0.13874 0.31997
 H50 H 0.82324 -0.19125 0.35054
 H51 H 0.76924 -0.22150 0.23557
 H52 H 0.74431 -0.25605 0.26890
 N53 N 0.69218 0.22253 0.79492
 N54 N 0.70614 0.25125 0.81582
 C55 C 0.68241 0.25760 0.84622
 C56 C 0.65195 0.23144 0.84406
 C57 C 0.65910 0.20972 0.81118
 H58 H 0.68646 0.28015 0.86763
 H59 H 0.64108 0.18679 0.79956
 Cu60 Cu 0.75284 0.27880 0.80001
 Cu61 Cu 0.71665 0.20545 0.74702
 Cu62 Cu 0.80376 0.24884 0.72216
 N63 N 0.79839 0.30681 0.78194
 N64 N 0.81877 0.29430 0.75223
 C65 C 0.84844 0.31884 0.74577
 C66 C 0.84635 0.34855 0.77282
 C67 C 0.81428 0.33995 0.79526
 H68 H 0.86913 0.31572 0.72244
 H69 H 0.80316 0.35691 0.81921
 N70 N 0.78304 0.20282 0.69519
 N71 N 0.74978 0.18634 0.70461
 C72 C 0.74294 0.15660 0.68017
 C73 C 0.77322 0.15456 0.65391
 C74 C 0.79801 0.18426 0.66423
 H75 H 0.71732 0.13854 0.68078
 H76 H 0.82460 0.19218 0.64961
 H77 H 0.77170 0.22080 0.76467
 H78 H 0.74606 0.25654 0.73314
 N79 N 0.30620 -0.21907 0.79738
 N80 N 0.29479 -0.25065 0.81530
 C81 C 0.31931 -0.25794 0.84485
 C82 C 0.34764 -0.22945 0.84523
 C83 C 0.33843 -0.20537 0.81471
 H84 H 0.31728 -0.28261 0.86395
 H85 H 0.35455 -0.18018 0.80537
 Cu86 Cu 0.24987 -0.27994 0.79741
 Cu87 Cu 0.27986 -0.19918 0.75161
 Cu88 Cu 0.20360 -0.25406 0.71577
 N89 N 0.20314 -0.30666 0.77998
 N90 N 0.18468 -0.29580 0.74846
 C91 C 0.15415 -0.31943 0.74245
 C92 C 0.15362 -0.34683 0.77175
 C93 C 0.18505 -0.33778 0.79504
 H94 H 0.13474 -0.31739 0.71791
 H95 H 0.19432 -0.35322 0.82066
 N96 N 0.22106 -0.20558 0.69141
 N97 N 0.24968 -0.18429 0.70542
 C98 C 0.25526 -0.15363 0.68199
 C99 C 0.22885 -0.15584 0.65180
 C100 C 0.20765 -0.18902 0.65874
 H101 H 0.27762 -0.13201 0.68598
 H102 H 0.18459 -0.20052 0.64079
 H103 H 0.22590 -0.22388 0.76229
 H104 H 0.26160 -0.25238 0.73318
 N105 N 0.69544 -0.21803 0.79822
 N106 N 0.70664 -0.24973 0.81600
 C107 C 0.68225 -0.25694 0.84564
 C108 C 0.65421 -0.22827 0.84623
 C109 C 0.66344 -0.20416 0.81574
 H110 H 0.68414 -0.28170 0.86463
 H111 H 0.64748 -0.17887 0.80651
 Cu112 Cu 0.75109 -0.27934 0.79790
 Cu113 Cu 0.72160 -0.19832 0.75233
 Cu114 Cu 0.79698 -0.25375 0.71595
 N115 N 0.79756 -0.30613 0.78031
 N116 N 0.81587 -0.29539 0.74868
 C117 C 0.84625 -0.31909 0.74260
 C118 C 0.84680 -0.34640 0.77198
 C119 C 0.81557 -0.33724 0.79538
 H120 H 0.86552 -0.31716 0.71797
 H121 H 0.80637 -0.35259 0.82109
 N122 N 0.77979 -0.20520 0.69172
 N123 N 0.75155 -0.18367 0.70598
 C124 C 0.74602 -0.15301 0.68257
 C125 C 0.77207 -0.15546 0.65214
 C126 C 0.79300 -0.18878 0.65890
 H127 H 0.72391 -0.13126 0.68674
 H128 H 0.81571 -0.20050 0.64073
 H129 H 0.73913 -0.25166 0.73375
 H130 H 0.77539 -0.22349 0.76266
 N131 N 0.30727 0.22140 0.79553
 N132 N 0.29370 0.25039 0.81622
 C133 C 0.31734 0.25651 0.84676
 C134 C 0.34735 0.22992 0.84491
 C135 C 0.34002 0.20816 0.81208
 H136 H 0.31359 0.27924 0.86802
 H137 H 0.35774 0.18498 0.80063
 Cu138 Cu 0.24778 0.27868 0.79979
 Cu139 Cu 0.28294 0.20469 0.74738
 Cu140 Cu 0.19584 0.24828 0.72278
 N141 N 0.20177 0.30624 0.78256
 N142 N 0.18113 0.29369 0.75299
 C143 C 0.15145 0.31819 0.74676
 C144 C 0.15371 0.34775 0.77388
 C145 C 0.18595 0.33927 0.79606
 H146 H 0.13063 0.31528 0.72348
 H147 H 0.19730 0.35638 0.81982
 N148 N 0.21631 0.20232 0.69569
 N149 N 0.24956 0.18582 0.70498
 C150 C 0.25622 0.15613 0.68049
 C151 C 0.22582 0.15413 0.65432
 C152 C 0.20114 0.18380 0.66475
 H153 H 0.28178 0.13806 0.68103
 H154 H 0.17450 0.19173 0.65024
 H155 H 0.25373 0.25563 0.73303
 H156 H 0.22821 0.22044 0.76524
 N157 N 0.30583 -0.21762 0.20168
 N158 N 0.29453 -0.24921 0.18353
 C159 C 0.31901 -0.25637 0.15393
 C160 C 0.34721 -0.22778 0.15376
 C161 C 0.33798 -0.20376 0.18443
 H162 H 0.31707 -0.28108 0.13473
 H163 H 0.35406 -0.17858 0.19401
 Cu164 Cu 0.24991 -0.27881 0.20124
 Cu165 Cu 0.27962 -0.19812 0.24774
 Cu166 Cu 0.20466 -0.25435 0.28394
 N167 N 0.20352 -0.30589 0.21858
 N168 N 0.18561 -0.29573 0.25066
 C169 C 0.15547 -0.31976 0.25670
 C170 C 0.15452 -0.34652 0.22676
 C171 C 0.18540 -0.33690 0.20315
 H172 H 0.13663 -0.31859 0.28173
 H173 H 0.19439 -0.35201 0.17716
 N174 N 0.22162 -0.20565 0.30844
 N175 N 0.24965 -0.18381 0.29425
 C176 C 0.25485 -0.15301 0.31776
 C177 C 0.22877 -0.15569 0.34814
 C178 C 0.20818 -0.18930 0.34127
 H179 H 0.27670 -0.13094 0.31363
 H180 H 0.18548 -0.20120 0.35931
 H181 H 0.26235 -0.25168 0.26569
 H182 H 0.22572 -0.22349 0.23755
 N183 N 0.69465 0.21680 0.20159
 N184 N 0.70690 0.24756 0.18282
 C185 C 0.68240 0.25495 0.15330
 C186 C 0.65325 0.22733 0.15376
 C187 C 0.66192 0.20366 0.18476
 H188 H 0.68499 0.27919 0.13372
 H189 H 0.64516 0.17913 0.19473
 Cu190 Cu 0.75237 0.27597 0.20044
 Cu191 Cu 0.72103 0.19704 0.24745
 Cu192 Cu 0.80245 0.24761 0.27876
 N193 N 0.79787 0.30436 0.21807
 N194 N 0.81756 0.29282 0.24858
 C195 C 0.84685 0.31777 0.25528
 C196 C 0.84531 0.34658 0.22748
 C197 C 0.81389 0.33721 0.20443
 H198 H 0.86699 0.31562 0.27922
 H199 H 0.80321 0.35360 0.17998
 N200 N 0.78249 0.20116 0.30526
 N201 N 0.75172 0.18174 0.29318
 C202 C 0.74485 0.15233 0.31782
 C203 C 0.77258 0.15344 0.34684
 C204 C 0.79587 0.18470 0.33801
 H205 H 0.72082 0.13234 0.31543
 H206 H 0.82033 0.19503 0.35477
 H207 H 0.74399 0.24946 0.26533
 H208 H 0.77531 0.21841 0.23401
 C209 C 0.26126 -0.02001 0.53583
 C210 C 0.26103 0.02090 0.53600
 C211 C 0.26068 0.04086 0.50054
 C212 C 0.26067 0.02112 0.46483
 C213 C 0.26097 -0.01982 0.46464
 C214 C 0.26130 -0.03976 0.50014
 H215 H 0.26312 -0.07107 0.49996
 H216 H 0.26200 0.07220 0.50078
 C217 C 0.73718 -0.02057 0.46493
 C218 C 0.73743 0.02034 0.46491
 C219 C 0.73780 0.04032 0.50049
 C220 C 0.73794 0.02056 0.53606
 C221 C 0.73801 -0.02035 0.53609
 C222 C 0.73760 -0.04032 0.50050
 H223 H 0.73605 -0.07166 0.50044
 H224 H 0.73643 0.07166 0.50053
 C225 C 0.46420 0.26507 -0.02022
 C226 C 0.46426 0.26488 0.02076
 C227 C 0.49992 0.26477 0.04057
 C228 C 0.53548 0.26482 0.02061
 C229 C 0.53542 0.26513 -0.02037
 C230 C 0.49976 0.26532 -0.04018
 H231 H 0.49965 0.26706 -0.07154
 H232 H 0.50001 0.26606 0.07197
 C233 C 0.46530 0.73564 -0.02054
 C234 C 0.46520 0.73579 0.02044
 C235 C 0.50074 0.73583 0.04048
 C236 C 0.53641 0.73570 0.02074
 C237 C 0.53651 0.73568 -0.02024
 C238 C 0.50096 0.73566 -0.04028
 H239 H 0.50107 0.73414 -0.07167
 H240 H 0.50062 0.73442 0.07187
 C241 C -0.02109 0.46532 0.26103
 C242 C 0.01992 0.46537 0.26081
 C243 C 0.03982 0.50090 0.26036
 C244 C 0.01990 0.53638 0.26050
 C245 C -0.02111 0.53636 0.26083
 C246 C -0.04102 0.50082 0.26095
 H247 H -0.07241 0.50079 0.26267
 H248 H 0.07124 0.50095 0.26160
 C249 C 0.01992 0.46570 0.74009
 C250 C -0.02110 0.46579 0.73983
 C251 C -0.04087 0.50134 0.73968
 C252 C -0.02080 0.53679 0.73916
 C253 C 0.02019 0.53672 0.73928
 C254 C 0.03997 0.50118 0.73998
 H255 H 0.07139 0.50114 0.73865
 H256 H -0.07228 0.50143 0.73813
 C257 C 0.38106 0.22575 0.12959
 C258 C 0.38655 0.24791 0.09836
 C259 C 0.42261 0.24511 0.07562
 C260 C 0.42755 0.26581 0.04327
 H261 H 0.36461 0.26854 0.08961
 H262 H 0.44539 0.22589 0.08549
 H263 H 0.40295 0.20473 0.13762
 H264 H 0.40392 0.28371 0.03305
 C265 C 0.61942 0.77299 0.13076
 C266 C 0.61380 0.75099 0.09921
 C267 C 0.57815 0.75484 0.07593
 C268 C 0.57308 0.73434 0.04334
 H269 H 0.63501 0.72948 0.09069
 H270 H 0.55563 0.77442 0.08576
 H271 H 0.59799 0.79477 0.13812
 H272 H 0.59646 0.71608 0.03310
 C273 C 0.61747 0.22814 -0.13090
 C274 C 0.61276 0.24915 -0.09864
 C275 C 0.57678 0.24614 -0.07581
 C276 C 0.57215 0.26618 -0.04289
 H277 H 0.63517 0.26909 -0.08923
 H278 H 0.55374 0.22735 -0.08615
 H279 H 0.59500 0.20793 -0.13968
 H280 H 0.59600 0.28365 -0.03225
 C281 C 0.38209 0.77404 -0.12963
 C282 C 0.38777 0.75167 -0.09859
 C283 C 0.42365 0.75496 -0.07557
 C284 C 0.42861 0.73438 -0.04314
 H285 H 0.36614 0.73050 -0.09025
 H286 H 0.44634 0.77440 -0.08532
 H287 H 0.40358 0.79571 -0.13716
 H288 H 0.40508 0.71628 -0.03297
 C289 C 0.12827 0.38104 0.22272
 C290 C 0.09763 0.38765 0.24552
 C291 C 0.07459 0.42328 0.24150
 C292 C 0.04243 0.42880 0.26247
 H293 H 0.08965 0.36695 0.26767
 H294 H 0.08415 0.44536 0.22134
 H295 H 0.13542 0.40148 0.20001
 H296 H 0.03249 0.40587 0.28137
 C297 C 0.12875 0.62153 0.77663
 C298 C 0.09841 0.61439 0.75340
 C299 C 0.07494 0.57905 0.75817
 C300 C 0.04279 0.57326 0.73716
 H301 H 0.09099 0.63415 0.73023
 H302 H 0.08426 0.55731 0.77878
 H303 H 0.13483 0.60177 0.80025
 H304 H 0.03293 0.59590 0.71788
 C305 C -0.13056 0.61991 0.22410
 C306 C -0.09900 0.61402 0.24597
 C307 C -0.07626 0.57813 0.24215
 C308 C -0.04353 0.57301 0.26239
 H309 H -0.08997 0.63530 0.26727
 H310 H -0.08647 0.55557 0.22273
 H311 H -0.13846 0.59843 0.20249
 H312 H -0.03298 0.59642 0.28049
 C313 C -0.13010 0.38135 0.77670
 C314 C -0.09898 0.38790 0.75443
 C315 C -0.07624 0.42384 0.75850
 C316 C -0.04369 0.42919 0.73808
 H317 H -0.09016 0.36701 0.73269
 H318 H -0.08623 0.44615 0.77828
 H319 H -0.13777 0.40239 0.79879
 H320 H -0.03344 0.40603 0.71955
 C321 C 0.22412 0.13160 0.38295
 C322 C 0.24480 0.09926 0.38771
 C323 C 0.24151 0.07641 0.42356
 C324 C 0.26163 0.04365 0.42821
 H325 H 0.26483 0.08980 0.36544
 H326 H 0.22259 0.08665 0.44650
 H327 H 0.20386 0.14049 0.40529
 H328 H 0.27929 0.03324 0.40444
 C329 C 0.77752 0.12886 0.61999
 C330 C 0.75430 0.09847 0.61362
 C331 C 0.75798 0.07514 0.57801
 C332 C 0.73669 0.04315 0.57271
 H333 H 0.73201 0.09099 0.63442
 H334 H 0.77809 0.08440 0.55570
 H335 H 0.80037 0.13547 0.59944
 H336 H 0.71783 0.03344 0.59583
 C337 C 0.22502 -0.13063 0.61759
 C338 C 0.24579 -0.09826 0.61295
 C339 C 0.24253 -0.07542 0.57710
 C340 C 0.26246 -0.04248 0.57249
 H341 H 0.26581 -0.08882 0.63528
 H342 H 0.22370 -0.08580 0.55410
 H343 H 0.20475 -0.13945 0.59518
 H344 H 0.27991 -0.03178 0.59634
 C345 C 0.77598 -0.12846 0.38043
 C346 C 0.75261 -0.09833 0.38708
 C347 C 0.75663 -0.07502 0.42269
 C348 C 0.73535 -0.04315 0.42829
 H349 H 0.73002 -0.09103 0.36652
 H350 H 0.77707 -0.08418 0.44475
 H351 H 0.79911 -0.13486 0.40074
 H352 H 0.71616 -0.03347 0.40542
 C353 C 0.61991 0.77523 -0.12855
 C354 C 0.61423 0.75264 -0.09767
 C355 C 0.57838 0.75571 -0.07470
 C356 C 0.57327 0.73468 -0.04260
 H357 H 0.63578 0.73138 -0.08949
 H358 H 0.55576 0.77529 -0.08428
 H359 H 0.59849 0.79697 -0.13593
 H360 H 0.59670 0.71642 -0.03256
 C361 C 0.38172 0.22648 -0.12992
 C362 C 0.38665 0.24791 -0.09798
 C363 C 0.42260 0.24511 -0.07512
 C364 C 0.42743 0.26583 -0.04265
 H365 H 0.36446 0.26817 -0.08890
 H366 H 0.44551 0.22604 -0.08509
 H367 H 0.40397 0.20598 -0.13840
 H368 H 0.40374 0.28362 -0.03232
 C369 C 0.38166 0.77567 0.12872
 C370 C 0.38740 0.75303 0.09778
 C371 C 0.42334 0.75600 0.07494
 C372 C 0.42841 0.73489 0.04278
 H373 H 0.36580 0.73177 0.08943
 H374 H 0.44601 0.77557 0.08464
 H375 H 0.40313 0.79740 0.13629
 H376 H 0.40492 0.71664 0.03263
 C377 C 0.61861 0.22436 0.12887
 C378 C 0.61317 0.24685 0.09788
 C379 C 0.57717 0.24425 0.07505
 C380 C 0.57223 0.26547 0.04305
 H381 H 0.63509 0.26770 0.08946
 H382 H 0.55436 0.22483 0.08458
 H383 H 0.59676 0.20312 0.13657
 H384 H 0.59584 0.28361 0.03312
 C385 C -0.12849 0.62193 0.77683
 C386 C -0.09835 0.61468 0.75347
 C387 C -0.07508 0.57930 0.75819
 C388 C -0.04313 0.57339 0.73703
 H389 H -0.09096 0.63438 0.73023
 H390 H -0.08441 0.55761 0.77888
 H391 H -0.13454 0.60223 0.80052
 H392 H -0.03323 0.59594 0.71765
 C393 C -0.13029 0.38143 0.22378
 C394 C -0.09868 0.38733 0.24547
 C395 C -0.07617 0.42341 0.24212
 C396 C -0.04351 0.42863 0.26245
 H397 H -0.08944 0.36569 0.26616
 H398 H -0.08642 0.44594 0.22285
 H399 H -0.13883 0.40297 0.20263
 H400 H -0.03294 0.40523 0.28039
 C401 C 0.12928 0.38254 0.77758
 C402 C 0.09731 0.38792 0.75633
 C403 C 0.07486 0.42402 0.75948
 C404 C 0.04222 0.42896 0.73911
 H405 H 0.08779 0.36588 0.73604
 H406 H 0.08521 0.44681 0.77856
 H407 H 0.13817 0.40455 0.79824
 H408 H 0.03167 0.40532 0.72132
 C409 C 0.12885 0.61965 0.22198
 C410 C 0.09780 0.61374 0.24438
 C411 C 0.07453 0.57818 0.24058
 C412 C 0.04241 0.57301 0.26169
 H413 H 0.08976 0.63487 0.26620
 H414 H 0.08399 0.55578 0.22063
 H415 H 0.13612 0.59874 0.19964
 H416 H 0.03258 0.59622 0.28039
 C417 C 0.77566 -0.13037 0.61784
 C418 C 0.75490 -0.09804 0.61334
 C419 C 0.75765 -0.07536 0.57737
 C420 C 0.73747 -0.04263 0.57286
 H421 H 0.73516 -0.08856 0.63585
 H422 H 0.77622 -0.08571 0.55420
 H423 H 0.79563 -0.13927 0.59525
 H424 H 0.72027 -0.03197 0.59686
 C425 C 0.22469 -0.13042 0.38238
 C426 C 0.24518 -0.09787 0.38707
 C427 C 0.24186 -0.07497 0.42297
 C428 C 0.26203 -0.04220 0.42783
 H429 H 0.26512 -0.08836 0.36478
 H430 H 0.22291 -0.08522 0.44585
 H431 H 0.20455 -0.13937 0.40479
 H432 H 0.27978 -0.03173 0.40419
 C433 C 0.77598 0.12886 0.38151
 C434 C 0.75393 0.09751 0.38709
 C435 C 0.75698 0.07500 0.42313
 C436 C 0.73631 0.04260 0.42817
 H437 H 0.73315 0.08855 0.36526
 H438 H 0.77630 0.08510 0.44585
 H439 H 0.79719 0.13710 0.40327
 H440 H 0.71836 0.03212 0.40458
 C441 C 0.22132 0.12847 0.62040
 C442 C 0.24458 0.09822 0.61392
 C443 C 0.24081 0.07497 0.57829
 C444 C 0.26238 0.04330 0.57274
 H445 H 0.26701 0.09082 0.63461
 H446 H 0.22042 0.08405 0.55614
 H447 H 0.19837 0.13503 0.59995
 H448 H 0.28154 0.03373 0.59567
   
