data_POSCAR
  _audit_creation_date              2014-09-24
  _audit_creation_method            'ToBaCCo'
  _symmetry_space_group_name_H-M    'P1'
  _symmetry_Int_Tables_number       1
  _symmetry_cell_setting            triclinic
  loop_
  _symmetry_equiv_pos_as_xyz
 x,y,z
_cell_length_a 41.7504
_cell_length_b 43.0563
_cell_length_c 52.3586
_cell_angle_alpha 90.504200
_cell_angle_beta 89.557100
_cell_angle_gamma 80.389400
loop_
  _atom_site_label
  _atom_site_type_symbol
  _atom_site_fract_x
  _atom_site_fract_y
  _atom_site_fract_z
C1 C 1.22815 0.22927 0.20760
 C2 C 1.24884 0.24967 0.19301
 C3 C 1.26623 0.26638 0.20823
 C4 C 1.26082 0.26178 0.23700
 C5 C 1.25212 0.20918 0.22532
 C6 C 1.26911 0.22598 0.24080
 C7 C 1.20693 0.25277 0.22543
 C8 C 1.22378 0.26935 0.24124
 H9 H 1.24889 0.25223 0.17253
 H10 H 1.27506 0.27536 0.24936
 H11 H 1.25394 0.18384 0.22645
 H12 H 1.18068 0.25537 0.22581
 C13 C 0.74402 -0.27996 0.20743
 C14 C 0.76566 -0.26110 0.19216
 C15 C 0.78312 -0.24386 0.20685
 C16 C 0.77726 -0.24680 0.23572
 C17 C 0.76708 -0.29944 0.22603
 C18 C 0.78489 -0.28256 0.24084
 C19 C 0.72305 -0.25503 0.22417
 C20 C 0.74012 -0.23777 0.23915
 H21 H 0.76524 -0.25888 0.17164
 H22 H 0.79135 -0.23229 0.24730
 H23 H 0.76784 -0.32456 0.22779
 H24 H 0.69679 -0.25216 0.22469
 C25 C 0.72715 0.22568 -0.29322
 C26 C 0.74676 0.24465 -0.30743
 C27 C 0.76535 0.26246 -0.29178
 C28 C 0.75978 0.25812 -0.26429
 C29 C 0.74959 0.20651 -0.27631
 C30 C 0.76754 0.22404 -0.25994
 C31 C 0.70681 0.24858 -0.27677
 C32 C 0.72445 0.26624 -0.26007
 H33 H 0.74308 0.24950 -0.32754
 H34 H 0.77469 0.27104 -0.25239
 H35 H 0.74960 0.18150 -0.27422
 H36 H 0.68081 0.25438 -0.27927
 C37 C 1.23878 -0.27348 -0.29127
 C38 C 1.26111 -0.25559 -0.30680
 C39 C 1.27887 -0.23835 -0.29237
 C40 C 1.27244 -0.24015 -0.26348
 C41 C 1.26123 -0.29274 -0.27219
 C42 C 1.27901 -0.27570 -0.25764
 C43 C 1.21807 -0.24767 -0.27512
 C44 C 1.23528 -0.23001 -0.26047
 H45 H 1.26114 -0.25417 -0.32738
 H46 H 1.28732 -0.22623 -0.25206
 H47 H 1.26213 -0.31786 -0.27005
 H48 H 1.19183 -0.24463 -0.27488
 C49 C 0.23134 0.23200 0.79154
 C50 C 0.25174 0.24928 0.80655
 C51 C 0.27143 0.26697 0.79185
 C52 C 0.26642 0.26415 0.76428
 C53 C 0.21134 0.25732 0.77500
 C54 C 0.22939 0.27444 0.76053
 C55 C 0.25438 0.21192 0.77279
 C56 C 0.27281 0.22840 0.75841
 H57 H 0.24768 0.25361 0.82677
 H58 H 0.28197 0.27672 0.75241
 H59 H 0.18512 0.26060 0.77454
 H60 H 0.25497 0.18680 0.77044
 C61 C 0.71490 0.74154 0.79277
 C62 C 0.73457 0.76028 0.80718
 C63 C 0.75516 0.77629 0.79179
 C64 C 0.75106 0.77082 0.76424
 C65 C 0.69652 0.76424 0.77558
 C66 C 0.71616 0.78016 0.75910
 C67 C 0.73765 0.72073 0.77662
 C68 C 0.75757 0.73647 0.76048
 H69 H 0.73016 0.76573 0.82725
 H70 H 0.76739 0.78241 0.75254
 H71 H 0.67056 0.77161 0.77762
 H72 H 0.73655 0.69584 0.77478
 C73 C 0.72793 0.23554 0.29069
 C74 C 0.74993 0.25346 0.30647
 C75 C 0.76954 0.26900 0.29227
 C76 C 0.76511 0.26561 0.26326
 C77 C 0.70927 0.26091 0.27358
 C78 C 0.72840 0.27659 0.25903
 C79 C 0.75104 0.21444 0.27254
 C80 C 0.77091 0.22967 0.25823
 H81 H 0.74831 0.25623 0.32699
 H82 H 0.78094 0.27872 0.25203
 H83 H 0.68301 0.26531 0.27258
 H84 H 0.75049 0.18949 0.27076
 C85 C 0.21771 0.73588 0.29479
 C86 C 0.23838 0.75704 0.30859
 C87 C 0.25636 0.77235 0.29271
 C88 C 0.25245 0.76479 0.26421
 C89 C 0.19770 0.75774 0.27567
 C90 C 0.21569 0.77270 0.25954
 C91 C 0.24233 0.71380 0.27831
 C92 C 0.26007 0.72865 0.26189
 H93 H 0.23998 0.75927 0.32904
 H94 H 0.26699 0.77744 0.25135
 H95 H 0.17160 0.75960 0.27414
 H96 H 0.24462 0.68840 0.27914
 O97 O 1.05583 0.02870 0.01460
 O98 O 0.93910 -0.03353 0.01440
 O99 O 0.95481 0.06017 0.01525
 O100 O 1.04031 -0.06526 0.01279
 O101 O 0.94057 0.01866 0.02919
 O102 O 1.05402 -0.02344 0.02745
 O103 O 0.98542 -0.05534 0.02736
 O104 O 1.00978 0.04928 0.02953
 C105 C 1.03946 0.04334 0.03228
 C106 C 0.95584 -0.04899 0.03113
 C107 C 0.94312 0.04644 0.03298
 C108 C 1.05264 -0.05155 0.03036
 O109 O 1.06169 -0.04300 -0.02219
 O110 O 0.93281 0.03947 -0.02035
 O111 O 1.02991 0.05481 -0.01972
 O112 O 0.96499 -0.05860 -0.02170
 O113 O 0.94301 -0.01372 -0.03487
 O114 O 1.05093 0.01054 -0.03531
 O115 O 1.01888 -0.05667 -0.03652
 O116 O 0.97636 0.05336 -0.03378
 Co117 Co 1.05005 -0.00634 -0.00387
 Co118 Co 0.94447 0.00230 -0.00292
 Co119 Co 0.99319 0.04895 -0.00224
 Co120 Co 1.00197 -0.05350 -0.00445
 O121 O 0.99740 -0.00216 -0.00338
 C122 C 1.04755 -0.05408 -0.04012
 C123 C 0.94742 0.05217 -0.03723
 C124 C 1.04500 0.03938 -0.03758
 C125 C 0.94927 -0.04244 -0.03854
 O126 O 1.04953 0.51001 0.53736
 O127 O 0.94256 0.48368 0.53844
 O128 O 0.97389 0.55129 0.53904
 O129 O 1.01919 0.44184 0.53657
 O130 O 0.93053 0.53727 0.52577
 O131 O 1.06114 0.45702 0.52183
 O132 O 0.96523 0.43952 0.52326
 O133 O 1.02694 0.55459 0.52415
 C134 C 1.04314 0.53872 0.54087
 C135 C 0.94966 0.45490 0.54102
 C136 C 0.94497 0.54999 0.54275
 C137 C 1.04770 0.44504 0.53969
 O138 O 1.05205 0.47848 0.47328
 O139 O 0.93805 0.51779 0.47552
 O140 O 1.00623 0.55040 0.47506
 O141 O 0.98401 0.44497 0.47364
 O142 O 0.93787 0.46510 0.48880
 O143 O 1.05288 0.53042 0.48824
 O144 O 1.03936 0.43565 0.48643
 O145 O 0.95157 0.55930 0.49051
 Co146 Co 1.04830 0.49432 0.50532
 Co147 Co 0.94286 0.50068 0.50701
 Co148 Co 0.99026 0.54848 0.50705
 Co149 Co 1.00139 0.44594 0.50511
 O150 O 0.99570 0.49734 0.50613
 C151 C 1.05148 0.45031 0.46936
 C152 C 0.94039 0.54566 0.47240
 C153 C 1.03585 0.54543 0.47152
 C154 C 0.95428 0.45076 0.47097
 O155 O 0.55397 0.00741 0.52520
 O156 O 0.44653 -0.01766 0.52806
 O157 O 0.47964 0.04985 0.52837
 O158 O 0.52190 -0.06020 0.52488
 O159 O 0.43544 0.03624 0.51640
 O160 O 0.56411 -0.04554 0.50996
 O161 O 0.46754 -0.06166 0.51184
 O162 O 0.53231 0.05218 0.51196
 C163 C 0.54813 0.03612 0.52873
 C164 C 0.45308 -0.04653 0.53016
 C165 C 0.45093 0.04844 0.53302
 C166 C 0.55058 -0.05746 0.52783
 O167 O 0.55405 -0.02403 0.46123
 O168 O 0.44053 0.01803 0.46570
 O169 O 0.50944 0.04885 0.46361
 O170 O 0.48575 -0.05594 0.46235
 O171 O 0.44010 -0.03477 0.47804
 O172 O 0.55631 0.02750 0.47568
 O173 O 0.54144 -0.06658 0.47478
 O174 O 0.45525 0.05894 0.48074
 Co175 Co 0.55157 -0.00823 0.49325
 Co176 Co 0.44621 0.00006 0.49683
 Co177 Co 0.49464 0.04697 0.49599
 Co178 Co 0.50373 -0.05560 0.49362
 O179 O 0.49902 -0.00421 0.49491
 C180 C 0.55324 -0.05213 0.45745
 C181 C 0.44258 0.04602 0.46300
 C182 C 0.53897 0.04314 0.45941
 C183 C 0.45597 -0.04942 0.46004
 O184 O 0.55194 0.50921 0.03342
 O185 O 0.44421 0.48480 0.03466
 O186 O 0.47707 0.55180 0.03535
 O187 O 0.52024 0.44190 0.03267
 O188 O 0.43329 0.53850 0.02223
 O189 O 0.56257 0.45630 0.01788
 O190 O 0.46605 0.44047 0.01932
 O191 O 0.53026 0.55411 0.02030
 C192 C 0.54612 0.53792 0.03701
 C193 C 0.45078 0.45597 0.03715
 C194 C 0.44814 0.55070 0.03925
 C195 C 0.54890 0.44459 0.03575
 O196 O 0.55363 0.47800 -0.03068
 O197 O 0.44009 0.51933 -0.02810
 O198 O 0.50914 0.55048 -0.02873
 O199 O 0.48498 0.44574 -0.03023
 O200 O 0.43906 0.46668 -0.01509
 O201 O 0.55562 0.52966 -0.01571
 O202 O 0.54032 0.43545 -0.01749
 O203 O 0.45454 0.56042 -0.01306
 Co204 Co 0.55034 0.49373 0.00138
 Co205 Co 0.44477 0.50194 0.00329
 Co206 Co 0.49325 0.54876 0.00331
 Co207 Co 0.50245 0.44634 0.00121
 O208 O 0.49769 0.49768 0.00230
 C209 C 0.55263 0.44992 -0.03459
 C210 C 0.44268 0.54718 -0.03106
 C211 C 0.53876 0.54517 -0.03229
 C212 C 0.45527 0.45200 -0.03288
 C213 C 1.19405 0.18529 0.15224
 C214 C 1.17133 0.17068 0.16522
 C215 C 1.16748 0.17463 0.19164
 C216 C 1.18603 0.19346 0.20497
 C217 C 1.20848 0.20904 0.19210
 C218 C 1.21263 0.20415 0.16551
 C219 C 1.15214 0.15161 0.15129
 C220 C 1.13638 0.13593 0.13900
 C221 C 1.11845 0.11796 0.12376
 C222 C 1.10371 0.10300 0.10991
 C223 C 1.08698 0.08571 0.09227
 C224 C 1.05313 0.09257 0.09022
 C225 C 1.03736 0.07794 0.07122
 C226 C 1.05540 0.05649 0.05397
 C227 C 1.08927 0.04895 0.05677
 C228 C 1.10493 0.06352 0.07578
 H229 H 1.19750 0.18201 0.13180
 H230 H 1.15018 0.16317 0.20193
 H231 H 1.18280 0.19595 0.22547
 H232 H 1.23036 0.21419 0.15467
 H233 H 1.03903 0.10980 0.10285
 H234 H 1.01123 0.08413 0.06954
 H235 H 1.10375 0.03237 0.04386
 H236 H 1.13115 0.05810 0.07718
 C237 C 1.17544 0.67397 0.69478
 C238 C 1.18045 0.66717 0.66878
 C239 C 1.20486 0.67907 0.65549
 C240 C 1.22395 0.69810 0.66801
 C241 C 1.21859 0.70596 0.69409
 C242 C 1.19449 0.69297 0.70736
 C243 C 1.16047 0.64824 0.65554
 C244 C 1.14386 0.63280 0.64386
 C245 C 1.12465 0.61532 0.62935
 C246 C 1.10854 0.60100 0.61612
 C247 C 1.08979 0.58476 0.59922
 C248 C 1.06587 0.60214 0.58410
 C249 C 1.04987 0.58695 0.56568
 C250 C 1.05769 0.55415 0.56211
 C251 C 1.08087 0.53667 0.57805
 C252 C 1.09693 0.55196 0.59645
 H253 H 1.15680 0.66464 0.70533
 H254 H 1.20921 0.67357 0.63540
 H255 H 1.24300 0.70595 0.65706
 H256 H 1.19035 0.69766 0.72758
 H257 H 1.06022 0.62754 0.58607
 H258 H 1.03198 0.60097 0.55380
 H259 H 1.08733 0.51137 0.57575
 H260 H 1.11548 0.53831 0.60802
 C261 C 0.70388 0.17444 0.65322
 C262 C 0.67602 0.16515 0.66346
 C263 C 0.66527 0.17519 0.68794
 C264 C 0.68194 0.19501 0.70198
 C265 C 0.70927 0.20610 0.69150
 C266 C 0.72065 0.19428 0.66717
 C267 C 0.65834 0.14550 0.64873
 C268 C 0.64339 0.12958 0.63596
 C269 C 0.62585 0.11174 0.62033
 C270 C 0.61088 0.09733 0.60624
 C271 C 0.59320 0.08130 0.58843
 C272 C 0.60056 0.04855 0.58534
 C273 C 0.58516 0.03353 0.56636
 C274 C 0.56245 0.05125 0.55020
 C275 C 0.55452 0.08399 0.55400
 C276 C 0.56984 0.09890 0.57299
 H277 H 0.71279 0.16620 0.63445
 H278 H 0.64406 0.16759 0.69625
 H279 H 0.67344 0.20147 0.72120
 H280 H 0.74280 0.19984 0.65888
 H281 H 0.61867 0.03474 0.59718
 H282 H 0.59165 0.00825 0.56388
 H283 H 0.53695 0.09818 0.54196
 H284 H 0.56401 0.12426 0.57524
 C285 C 0.70958 0.67423 0.15341
 C286 C 0.68575 0.66145 0.16667
 C287 C 0.68145 0.66693 0.19290
 C288 C 0.70058 0.68561 0.20575
 C289 C 0.72402 0.69956 0.19253
 C290 C 0.72875 0.69294 0.16620
 C291 C 0.66548 0.64309 0.15316
 C292 C 0.64855 0.62821 0.14126
 C293 C 0.62895 0.61145 0.12650
 C294 C 0.61251 0.59776 0.11306
 C295 C 0.59345 0.58224 0.09592
 C296 C 0.59964 0.54942 0.09313
 C297 C 0.58335 0.53473 0.07452
 C298 C 0.56089 0.55283 0.05839
 C299 C 0.55402 0.58568 0.06196
 C300 C 0.57025 0.60027 0.08060
 H301 H 0.71335 0.66975 0.13312
 H302 H 0.66325 0.65690 0.20340
 H303 H 0.69694 0.68937 0.22612
 H304 H 0.74730 0.70161 0.15523
 H305 H 0.61764 0.53527 0.10486
 H306 H 0.58906 0.50938 0.07223
 H307 H 0.53669 0.60017 0.04992
 H308 H 0.56535 0.62570 0.08258
 C309 C 0.83942 -0.21158 0.16087
 C310 C 0.83928 -0.18132 0.17086
 C311 C 0.82224 -0.17206 0.19358
 C312 C 0.80475 -0.19279 0.20590
 C313 C 0.80397 -0.22285 0.19545
 C314 C 0.82194 -0.23219 0.17305
 C315 C 0.85530 -0.15963 0.15678
 C316 C 0.86844 -0.14243 0.14373
 C317 C 0.88356 -0.12341 0.12719
 C318 C 0.89630 -0.10813 0.11215
 C319 C 0.91141 -0.09105 0.09325
 C320 C 0.89221 -0.07072 0.07657
 C321 C 0.90670 -0.05639 0.05668
 C322 C 0.94061 -0.06235 0.05317
 C323 C 0.95978 -0.08211 0.07045
 C324 C 0.94524 -0.09642 0.09031
 H325 H 0.85255 -0.21904 0.14334
 H326 H 0.82185 -0.14864 0.20143
 H327 H 0.79087 -0.18486 0.22297
 H328 H 0.82215 -0.25537 0.16477
 H329 H 0.86599 -0.06649 0.07860
 H330 H 0.89133 -0.04116 0.04377
 H331 H 0.98597 -0.08707 0.06830
 H332 H 0.96034 -0.11221 0.10302
 C333 C 0.81535 0.32690 0.70028
 C334 C 0.82547 0.32203 0.67481
 C335 C 0.81633 0.29727 0.66083
 C336 C 0.79687 0.27767 0.67197
 C337 C 0.78586 0.28232 0.69756
 C338 C 0.79585 0.30719 0.71163
 C339 C 0.84459 0.34252 0.66237
 C340 C 0.86018 0.35875 0.65044
 C341 C 0.87785 0.37673 0.63491
 C342 C 0.89238 0.39127 0.62053
 C343 C 0.90901 0.40773 0.60215
 C344 C 0.93107 0.39059 0.58486
 C345 C 0.94496 0.40606 0.56536
 C346 C 0.93688 0.43891 0.56283
 C347 C 0.91545 0.45609 0.58075
 C348 C 0.90153 0.44055 0.60024
 H349 H 0.82214 0.34618 0.71127
 H350 H 0.82423 0.29308 0.64115
 H351 H 0.79136 0.25833 0.66042
 H352 H 0.78771 0.31269 0.73100
 H353 H 0.93696 0.36518 0.58609
 H354 H 0.96151 0.39222 0.55195
 H355 H 0.90883 0.48144 0.57933
 H356 H 0.88438 0.45405 0.61343
 C357 C 0.33786 -0.21008 0.66156
 C358 C 0.33908 -0.17987 0.67109
 C359 C 0.32194 -0.16930 0.69350
 C360 C 0.30304 -0.18869 0.70597
 C361 C 0.30093 -0.21869 0.69597
 C362 C 0.31898 -0.22936 0.67388
 C363 C 0.35655 -0.15948 0.65683
 C364 C 0.37075 -0.14329 0.64362
 C365 C 0.38685 -0.12530 0.62688
 C366 C 0.40012 -0.11073 0.61164
 C367 C 0.41536 -0.09421 0.59242
 C368 C 0.40822 -0.06132 0.59097
 C369 C 0.42109 -0.04564 0.57102
 C370 C 0.44110 -0.06274 0.55219
 C371 C 0.44877 -0.09569 0.55417
 C372 C 0.43594 -0.11129 0.57413
 H373 H 0.35103 -0.21855 0.64427
 H374 H 0.32258 -0.14589 0.70100
 H375 H 0.28918 -0.17976 0.72281
 H376 H 0.31823 -0.25255 0.66597
 H377 H 0.39224 -0.04786 0.60495
 H378 H 0.41483 -0.02023 0.57004
 H379 H 0.46425 -0.10947 0.54006
 H380 H 0.44157 -0.13675 0.57502
 C381 C 0.31123 0.33495 0.19696
 C382 C 0.32836 0.32515 0.17437
 C383 C 0.32637 0.29563 0.16376
 C384 C 0.30679 0.27633 0.17519
 C385 C 0.28873 0.28625 0.19745
 C386 C 0.29162 0.31550 0.20854
 C387 C 0.34678 0.34554 0.16103
 C388 C 0.36188 0.36158 0.14843
 C389 C 0.37912 0.37924 0.13225
 C390 C 0.39339 0.39347 0.11742
 C391 C 0.40981 0.40956 0.09863
 C392 C 0.43117 0.39208 0.08104
 C393 C 0.44510 0.40726 0.06137
 C394 C 0.43777 0.44019 0.05898
 C395 C 0.41698 0.45768 0.07715
 C396 C 0.40302 0.44243 0.09680
 H397 H 0.31251 0.35781 0.20532
 H398 H 0.33955 0.28773 0.14635
 H399 H 0.30561 0.25365 0.16647
 H400 H 0.27792 0.32379 0.22559
 H401 H 0.43654 0.36664 0.08221
 H402 H 0.46115 0.39318 0.04777
 H403 H 0.41094 0.48308 0.07585
 H404 H 0.38644 0.45620 0.11023
 C405 C 0.81773 0.16207 -0.22095
 C406 C 0.82270 0.17902 -0.19891
 C407 C 0.81087 0.21133 -0.19748
 C408 C 0.79346 0.22657 -0.21782
 C409 C 0.78732 0.20959 -0.24000
 C410 C 0.80031 0.17711 -0.24127
 C411 C 0.83902 0.16288 -0.17753
 C412 C 0.85238 0.14880 -0.15974
 C413 C 0.86792 0.13195 -0.13905
 C414 C 0.88136 0.11748 -0.12147
 C415 C 0.89786 0.10039 -0.10059
 C416 C 0.93109 0.10021 -0.09728
 C417 C 0.94724 0.08419 -0.07680
 C418 C 0.93030 0.06816 -0.05930
 C419 C 0.89698 0.06810 -0.06292
 C420 C 0.88085 0.08417 -0.08347
 H421 H 0.82708 0.13707 -0.22237
 H422 H 0.81445 0.22465 -0.18039
 H423 H 0.78340 0.25118 -0.21515
 H424 H 0.79761 0.16308 -0.25811
 H425 H 0.94450 0.11262 -0.11044
 H426 H 0.97294 0.08460 -0.07457
 H427 H 0.88337 0.05585 -0.04981
 H428 H 0.85512 0.08411 -0.08592
 C429 C 0.83480 0.70458 0.30163
 C430 C 0.84543 0.67203 0.30063
 C431 C 0.83896 0.65484 0.27909
 C432 C 0.82064 0.66983 0.25915
 C433 C 0.80797 0.70233 0.26057
 C434 C 0.81648 0.71966 0.28168
 C435 C 0.86103 0.65593 0.32233
 C436 C 0.87295 0.64210 0.34076
 C437 C 0.88580 0.62568 0.36258
 C438 C 0.89603 0.61159 0.38141
 C439 C 0.90758 0.59485 0.40409
 C440 C 0.90440 0.56319 0.40686
 C441 C 0.91494 0.54713 0.42916
 C442 C 0.92868 0.56264 0.44899
 C443 C 0.93186 0.59442 0.44600
 C444 C 0.92136 0.61040 0.42368
 H445 H 0.83992 0.71820 0.31816
 H446 H 0.84742 0.62966 0.27795
 H447 H 0.81620 0.65566 0.24283
 H448 H 0.80841 0.74466 0.28344
 H449 H 0.89371 0.55095 0.39182
 H450 H 0.91234 0.52261 0.43089
 H451 H 0.94256 0.60690 0.46087
 H452 H 0.92391 0.63491 0.42174
 C453 C 0.32801 0.16578 0.27688
 C454 C 0.32799 0.18032 0.30088
 C455 C 0.31006 0.21051 0.30483
 C456 C 0.29165 0.22582 0.28502
 C457 C 0.29085 0.21101 0.26105
 C458 C 0.30959 0.18100 0.25708
 C459 C 0.34500 0.16355 0.32173
 C460 C 0.35862 0.14903 0.33922
 C461 C 0.37395 0.13163 0.35976
 C462 C 0.38659 0.11662 0.37740
 C463 C 0.40122 0.09867 0.39861
 C464 C 0.41789 0.11310 0.41715
 C465 C 0.43142 0.09592 0.43810
 C466 C 0.42839 0.06406 0.44076
 C467 C 0.41186 0.04964 0.42192
 C468 C 0.39831 0.06690 0.40099
 H469 H 0.34179 0.14242 0.27360
 H470 H 0.30973 0.22191 0.32338
 H471 H 0.27709 0.24868 0.28879
 H472 H 0.30976 0.16918 0.23873
 H473 H 0.42031 0.13768 0.41549
 H474 H 0.44420 0.10759 0.45222
 H475 H 0.40927 0.02510 0.42341
 H476 H 0.38545 0.05550 0.38674
 C477 C 0.32408 0.70983 -0.19503
 C478 C 0.33934 0.67853 -0.19822
 C479 C 0.33681 0.66298 -0.22148
 C480 C 0.31821 0.67828 -0.24117
 C481 C 0.30165 0.70937 -0.23780
 C482 C 0.30549 0.72518 -0.21472
 C483 C 0.35574 0.66174 -0.17713
 C484 C 0.36853 0.64733 -0.15925
 C485 C 0.38255 0.63023 -0.13811
 C486 C 0.39386 0.61556 -0.11986
 C487 C 0.40675 0.59814 -0.09784
 C488 C 0.40331 0.56652 -0.09521
 C489 C 0.41500 0.54984 -0.07347
 C490 C 0.43019 0.56468 -0.05405
 C491 C 0.43374 0.59638 -0.05693
 C492 C 0.42207 0.61299 -0.07869
 H493 H 0.32581 0.72210 -0.17706
 H494 H 0.34860 0.63877 -0.22422
 H495 H 0.31645 0.66558 -0.25890
 H496 H 0.29313 0.74889 -0.21137
 H497 H 0.39145 0.55481 -0.10991
 H498 H 0.41208 0.52541 -0.07182
 H499 H 0.44554 0.60835 -0.04238
 H500 H 0.42486 0.63744 -0.08052
 C501 C 1.21825 -0.17553 -0.20255
 C502 C 1.18561 -0.16263 -0.20615
 C503 C 1.17015 -0.16927 -0.22864
 C504 C 1.18677 -0.18991 -0.24689
 C505 C 1.21910 -0.20467 -0.24278
 C506 C 1.23495 -0.19616 -0.22080
 C507 C 1.16733 -0.14458 -0.18602
 C508 C 1.15174 -0.13063 -0.16875
 C509 C 1.13338 -0.11548 -0.14808
 C510 C 1.11783 -0.10337 -0.13005
 C511 C 1.09962 -0.08976 -0.10807
 C512 C 1.06707 -0.09320 -0.10481
 C513 C 1.04991 -0.08135 -0.08279
 C514 C 1.06522 -0.06605 -0.06372
 C515 C 1.09778 -0.06232 -0.06734
 C516 C 1.11484 -0.07413 -0.08936
 H517 H 1.23056 -0.17039 -0.18526
 H518 H 1.14495 -0.15916 -0.23179
 H519 H 1.17395 -0.19455 -0.26400
 H520 H 1.25982 -0.20611 -0.21702
 H521 H 1.05507 -0.10534 -0.11915
 H522 H 1.02482 -0.08445 -0.08056
 H523 H 1.11013 -0.05044 -0.05308
 H524 H 1.14002 -0.07137 -0.09167
 C525 C 1.16576 0.29916 0.29550
 C526 C 1.17820 0.32556 0.30401
 C527 C 1.20559 0.33384 0.29194
 C528 C 1.22045 0.31571 0.27139
 C529 C 1.20793 0.28922 0.26262
 C530 C 1.18050 0.28110 0.27505
 C531 C 1.16270 0.34370 0.32527
 C532 C 1.14893 0.35806 0.34318
 C533 C 1.13219 0.37415 0.36421
 C534 C 1.11767 0.38754 0.38222
 C535 C 1.10033 0.40338 0.40379
 C536 C 1.09969 0.43567 0.40761
 C537 C 1.08344 0.45100 0.42880
 C538 C 1.06765 0.43416 0.44651
 C539 C 1.06805 0.40179 0.44237
 C540 C 1.08433 0.38651 0.42112
 H541 H 1.14475 0.29237 0.30481
 H542 H 1.21546 0.35423 0.29840
 H543 H 1.24144 0.32264 0.26225
 H544 H 1.17070 0.26038 0.26935
 H545 H 1.11192 0.44898 0.39430
 H546 H 1.08349 0.47597 0.43143
 H547 H 1.05601 0.38827 0.45562
 H548 H 1.08461 0.36150 0.41831
 C549 C 0.71985 -0.19196 0.30092
 C550 C 0.68900 -0.17515 0.29564
 C551 C 0.67600 -0.17683 0.27123
 C552 C 0.69328 -0.19616 0.25244
 C553 C 0.72377 -0.21418 0.25789
 C554 C 0.73715 -0.21128 0.28215
 C555 C 0.66997 -0.15776 0.31569
 C556 C 0.65393 -0.14394 0.33279
 C557 C 0.63525 -0.12831 0.35308
 C558 C 0.61959 -0.11511 0.37063
 C559 C 0.60147 -0.09922 0.39180
 C560 C 0.58615 -0.11622 0.40949
 C561 C 0.56988 -0.10088 0.43072
 C562 C 0.56888 -0.06835 0.43447
 C563 C 0.58382 -0.05140 0.41631
 C564 C 0.60002 -0.06676 0.39515
 H565 H 0.73012 -0.19091 0.31979
 H566 H 0.65217 -0.16384 0.26689
 H567 H 0.68250 -0.19745 0.23381
 H568 H 0.76019 -0.22500 0.28710
 H569 H 0.58713 -0.14138 0.40706
 H570 H 0.55849 -0.11448 0.44434
 H571 H 0.58337 -0.02630 0.41862
 H572 H 0.61179 -0.05339 0.38158
 C573 C 0.66159 0.30458 -0.21319
 C574 C 0.67850 0.32486 -0.19999
 C575 C 0.71042 0.32677 -0.20715
 C576 C 0.72557 0.30805 -0.22725
 C577 C 0.70903 0.28686 -0.24061
 C578 C 0.67653 0.28585 -0.23319
 C579 C 0.66306 0.34287 -0.17866
 C580 C 0.64932 0.35715 -0.16072
 C581 C 0.63263 0.37320 -0.13969
 C582 C 0.61816 0.38662 -0.12168
 C583 C 0.60092 0.40258 -0.10015
 C584 C 0.60061 0.43482 -0.09636
 C585 C 0.58451 0.45028 -0.07518
 C586 C 0.56856 0.43363 -0.05744
 C587 C 0.56860 0.40131 -0.06157
 C588 C 0.58473 0.38589 -0.08281
 H589 H 0.63690 0.30274 -0.20768
 H590 H 0.72371 0.34260 -0.19710
 H591 H 0.74999 0.31096 -0.23222
 H592 H 0.66256 0.26964 -0.24182
 H593 H 0.61300 0.44797 -0.10968
 H594 H 0.58484 0.47521 -0.07256
 H595 H 0.55641 0.38794 -0.04829
 H596 H 0.58476 0.36092 -0.08561
 C597 C 1.16665 0.18129 -0.19289
 C598 C 1.17445 0.17196 -0.16790
 C599 C 1.20095 0.18168 -0.15592
 C600 C 1.21934 0.20107 -0.16869
 C601 C 1.21106 0.21172 -0.19359
 C602 C 1.18500 0.20069 -0.20572
 C603 C 1.15537 0.15244 -0.15440
 C604 C 1.13959 0.13647 -0.14246
 C605 C 1.12144 0.11838 -0.12759
 C606 C 1.10626 0.10358 -0.11401
 C607 C 1.08860 0.08688 -0.09665
 C608 C 1.06566 0.10387 -0.07997
 C609 C 1.05074 0.08822 -0.06124
 C610 C 1.05863 0.05533 -0.05892
 C611 C 1.08083 0.03826 -0.07634
 C612 C 1.09584 0.05401 -0.09506
 H613 H 1.14647 0.17348 -0.20249
 H614 H 1.20755 0.17408 -0.13671
 H615 H 1.24032 0.20705 -0.15905
 H616 H 1.17889 0.20691 -0.22528
 H617 H 1.05995 0.12931 -0.08102
 H618 H 1.03356 0.10194 -0.04820
 H619 H 1.08730 0.01290 -0.07502
 H620 H 1.11365 0.04067 -0.10784
 C621 C 1.17414 0.70313 0.35129
 C622 C 1.15797 0.68170 0.33860
 C623 C 1.16032 0.67868 0.31204
 C624 C 1.17924 0.69667 0.29828
 C625 C 1.19644 0.71782 0.31082
 C626 C 1.19312 0.72117 0.33759
 C627 C 1.13969 0.66228 0.35298
 C628 C 1.12499 0.64594 0.36553
 C629 C 1.10853 0.62691 0.38091
 C630 C 1.09510 0.61089 0.39477
 C631 C 1.07986 0.59226 0.41229
 C632 C 1.04600 0.59707 0.41491
 C633 C 1.03148 0.58101 0.43368
 C634 C 1.05076 0.56013 0.45012
 C635 C 1.08468 0.55468 0.44676
 C636 C 1.09912 0.57070 0.42797
 H637 H 1.17227 0.70576 0.37188
 H638 H 1.14779 0.66222 0.30200
 H639 H 1.18084 0.69381 0.27771
 H640 H 1.20486 0.73744 0.34833
 H641 H 1.03090 0.61377 0.40289
 H642 H 1.00529 0.58559 0.43578
 H643 H 1.10010 0.53860 0.45904
 H644 H 1.12535 0.56687 0.42611
 C645 C 0.69249 0.18935 0.34360
 C646 C 0.66704 0.17885 0.33074
 C647 C 0.66137 0.18664 0.30513
 C648 C 0.68094 0.20509 0.29251
 C649 C 0.70621 0.21658 0.30539
 C650 C 0.71211 0.20779 0.33105
 C651 C 0.64734 0.15953 0.34383
 C652 C 0.63147 0.14334 0.35547
 C653 C 0.61373 0.12449 0.37000
 C654 C 0.59941 0.10856 0.38329
 C655 C 0.58346 0.08989 0.40033
 C656 C 0.54975 0.09662 0.40407
 C657 C 0.53492 0.08055 0.42268
 C658 C 0.55375 0.05774 0.43786
 C659 C 0.58740 0.05036 0.43330
 C660 C 0.60213 0.06636 0.41467
 H661 H 0.69747 0.18294 0.36332
 H662 H 0.64203 0.17823 0.29485
 H663 H 0.67651 0.21019 0.27251
 H664 H 0.73222 0.21425 0.34149
 H665 H 0.53509 0.11487 0.39311
 H666 H 0.50893 0.08668 0.42575
 H667 H 0.60248 0.03277 0.44458
 H668 H 0.62824 0.06101 0.41196
 C669 C 0.68978 0.69125 -0.15431
 C670 C 0.66067 0.68401 -0.16372
 C671 C 0.64921 0.69566 -0.18733
 C672 C 0.66659 0.71481 -0.20141
 C673 C 0.69550 0.72355 -0.19180
 C674 C 0.70726 0.71037 -0.16829
 C675 C 0.64304 0.66401 -0.14930
 C676 C 0.62869 0.64730 -0.13680
 C677 C 0.61240 0.62793 -0.12156
 C678 C 0.59896 0.61168 -0.10788
 C679 C 0.58351 0.59282 -0.09066
 C680 C 0.54963 0.59780 -0.08814
 C681 C 0.53487 0.58147 -0.06968
 C682 C 0.55392 0.56011 -0.05346
 C683 C 0.58786 0.55450 -0.05673
 C684 C 0.60254 0.57081 -0.07520
 H685 H 0.69925 0.68172 -0.13628
 H686 H 0.62704 0.68957 -0.19506
 H687 H 0.65757 0.72218 -0.22010
 H688 H 0.73036 0.71427 -0.16079
 H689 H 0.53469 0.61485 -0.09998
 H690 H 0.50867 0.58622 -0.06764
 H691 H 0.60312 0.53807 -0.04460
 H692 H 0.62878 0.56681 -0.07699
 C693 C 0.80603 -0.19027 -0.16002
 C694 C 0.81775 -0.16704 -0.17398
 C695 C 0.80932 -0.16274 -0.19967
 C696 C 0.78898 -0.18148 -0.21128
 C697 C 0.77644 -0.20480 -0.19725
 C698 C 0.78574 -0.20889 -0.17141
 C699 C 0.83791 -0.14765 -0.16129
 C700 C 0.85429 -0.13236 -0.14911
 C701 C 0.87283 -0.11548 -0.13330
 C702 C 0.88809 -0.10187 -0.11870
 C703 C 0.90559 -0.08651 -0.10011
 C704 C 0.89919 -0.05371 -0.09703
 C705 C 0.91406 -0.03920 -0.07740
 C706 C 0.93538 -0.05739 -0.06048
 C707 C 0.94235 -0.09023 -0.06417
 C708 C 0.92751 -0.10466 -0.08382
 H709 H 0.81261 -0.19406 -0.14017
 H710 H 0.81814 -0.14465 -0.21067
 H711 H 0.78227 -0.17645 -0.23087
 H712 H 0.77828 -0.22713 -0.15983
 H713 H 0.88217 -0.03942 -0.10944
 H714 H 0.90828 -0.01385 -0.07509
 H715 H 0.95878 -0.10484 -0.05155
 H716 H 0.93258 -0.13007 -0.08594
 C717 C 0.82684 0.29724 0.33950
 C718 C 0.83016 0.32659 0.32958
 C719 C 0.81497 0.33652 0.30658
 C720 C 0.79595 0.31740 0.29389
 C721 C 0.79175 0.28830 0.30423
 C722 C 0.80782 0.27823 0.32695
 C723 C 0.84789 0.34675 0.34394
 C724 C 0.86232 0.36273 0.35723
 C725 C 0.87873 0.38044 0.37405
 C726 C 0.89235 0.39475 0.38931
 C727 C 0.90816 0.41089 0.40850
 C728 C 0.88949 0.43070 0.42634
 C729 C 0.90455 0.44425 0.44636
 C730 C 0.93854 0.43807 0.44885
 C731 C 0.95719 0.41882 0.43044
 C732 C 0.94206 0.40525 0.41045
 H733 H 0.83850 0.28925 0.35724
 H734 H 0.81727 0.35926 0.29876
 H735 H 0.78362 0.32587 0.27655
 H736 H 0.80546 0.25572 0.33517
 H737 H 0.86324 0.43515 0.42509
 H738 H 0.88956 0.45911 0.46014
 H739 H 0.98342 0.41370 0.43180
 H740 H 0.95676 0.38986 0.39682
 C741 C 0.28685 -0.16680 0.33446
 C742 C 0.31797 -0.16690 0.32438
 C743 C 0.32838 -0.18559 0.30286
 C744 C 0.30795 -0.20470 0.29190
 C745 C 0.27710 -0.20552 0.30256
 C746 C 0.26656 -0.18589 0.32365
 C747 C 0.33944 -0.14915 0.33734
 C748 C 0.35639 -0.13461 0.34963
 C749 C 0.37511 -0.11801 0.36549
 C750 C 0.39018 -0.10426 0.38010
 C751 C 0.40717 -0.08844 0.39871
 C752 C 0.44106 -0.09542 0.40042
 C753 C 0.45713 -0.08208 0.41999
 C754 C 0.43941 -0.06174 0.43821
 C755 C 0.40547 -0.05420 0.43591
 C756 C 0.38949 -0.06750 0.41632
 H757 H 0.27848 -0.15241 0.35105
 H758 H 0.35249 -0.18595 0.29494
 H759 H 0.31675 -0.21966 0.27578
 H760 H 0.24268 -0.18555 0.33198
 H761 H 0.45499 -0.11169 0.38696
 H762 H 0.48330 -0.08826 0.42123
 H763 H 0.39120 -0.03848 0.44955
 H764 H 0.36325 -0.06199 0.41524
 C765 C 0.32043 0.30053 -0.15872
 C766 C 0.32950 0.32605 -0.17150
 C767 C 0.32031 0.33160 -0.19691
 C768 C 0.30166 0.31191 -0.20938
 C769 C 0.29159 0.28640 -0.19647
 C770 C 0.30180 0.28095 -0.17097
 C771 C 0.34748 0.34665 -0.15789
 C772 C 0.36208 0.36299 -0.14510
 C773 C 0.37867 0.38109 -0.12874
 C774 C 0.39244 0.39567 -0.11379
 C775 C 0.40847 0.41204 -0.09490
 C776 C 0.39002 0.43220 -0.07716
 C777 C 0.40530 0.44584 -0.05731
 C778 C 0.43929 0.43938 -0.05489
 C779 C 0.45772 0.41982 -0.07323
 C780 C 0.44237 0.40618 -0.09305
 H781 H 0.32765 0.29579 -0.13911
 H782 H 0.32707 0.35144 -0.20698
 H783 H 0.29406 0.31795 -0.22863
 H784 H 0.29615 0.26110 -0.16035
 H785 H 0.36376 0.43682 -0.07833
 H786 H 0.39048 0.46093 -0.04358
 H787 H 0.48395 0.41448 -0.07192
 H788 H 0.45690 0.39051 -0.10659
 C789 C 1.20275 -0.19300 0.19332
 C790 C 1.17172 -0.17494 0.19586
 C791 C 1.15563 -0.17295 0.21950
 C792 C 1.17023 -0.18940 0.24042
 C793 C 1.20116 -0.20806 0.23794
 C794 C 1.21742 -0.20944 0.21423
 C795 C 1.15600 -0.15911 0.17410
 C796 C 1.14258 -0.14598 0.15591
 C797 C 1.12674 -0.13059 0.13468
 C798 C 1.11329 -0.11723 0.11660
 C799 C 1.09749 -0.10082 0.09511
 C800 C 1.09834 -0.06872 0.09213
 C801 C 1.08354 -0.05268 0.07113
 C802 C 1.06773 -0.06860 0.05276
 C803 C 1.06670 -0.10081 0.05600
 C804 C 1.08153 -0.11682 0.07708
 H805 H 1.21537 -0.19478 0.17507
 H806 H 1.13165 -0.15897 0.22170
 H807 H 1.15728 -0.18761 0.25851
 H808 H 1.24100 -0.22403 0.21160
 H809 H 1.11057 -0.05610 0.10599
 H810 H 1.08465 -0.02785 0.06920
 H811 H 1.05455 -0.11360 0.04223
 H812 H 1.08068 -0.14167 0.07925
 C813 C 1.21633 0.32796 0.70264
 C814 C 1.18327 0.34027 0.70506
 C815 C 1.16611 0.33366 0.72680
 C816 C 1.18150 0.31358 0.74543
 C817 C 1.21432 0.29929 0.74247
 C818 C 1.23182 0.30788 0.72130
 C819 C 1.16635 0.35768 0.68448
 C820 C 1.15167 0.37109 0.66693
 C821 C 1.13407 0.38559 0.64608
 C822 C 1.11887 0.39713 0.62805
 C823 C 1.10067 0.41005 0.60626
 C824 C 1.11559 0.42577 0.58746
 C825 C 1.09831 0.43722 0.56580
 C826 C 1.06586 0.43304 0.56266
 C827 C 1.05093 0.41752 0.58178
 C828 C 1.06828 0.40605 0.60342
 H829 H 1.22996 0.33313 0.68596
 H830 H 1.14057 0.34337 0.72904
 H831 H 1.16731 0.30905 0.76193
 H832 H 1.25715 0.29852 0.71841
 H833 H 1.14065 0.42897 0.58945
 H834 H 1.11036 0.44928 0.55148
 H835 H 1.02592 0.41409 0.57994
 H836 H 1.05652 0.39386 0.61784
 C837 C 0.70821 -0.16203 0.70505
 C838 C 0.67644 -0.16289 0.69721
 C839 C 0.65764 -0.18148 0.71037
 C840 C 0.67052 -0.19959 0.73097
 C841 C 0.70283 -0.19967 0.73906
 C842 C 0.72131 -0.18014 0.72577
 C843 C 0.66305 -0.14577 0.67516
 C844 C 0.65064 -0.13251 0.65663
 C845 C 0.63494 -0.11808 0.63492
 C846 C 0.62078 -0.10655 0.61641
 C847 C 0.60312 -0.09362 0.59435
 C848 C 0.57055 -0.09693 0.59146
 C849 C 0.55342 -0.08516 0.56981
 C850 C 0.56872 -0.06997 0.55070
 C851 C 0.60140 -0.06653 0.55383
 C852 C 0.61848 -0.07832 0.57552
 H853 H 0.72298 -0.14752 0.69505
 H854 H 0.63306 -0.18253 0.70436
 H855 H 0.65515 -0.21453 0.73954
 H856 H 0.74572 -0.17808 0.73122
 H857 H 0.55841 -0.10875 0.60589
 H858 H 0.52824 -0.08802 0.56801
 H859 H 0.61374 -0.05475 0.53951
 H860 H 0.64368 -0.07561 0.57755
 C861 C 0.66907 0.33918 0.22548
 C862 C 0.68404 0.33985 0.20155
 C863 C 0.71478 0.32190 0.19718
 C864 C 0.72993 0.30243 0.21633
 C865 C 0.71447 0.30044 0.24004
 C866 C 0.68420 0.31971 0.24463
 C867 C 0.66685 0.35692 0.18090
 C868 C 0.65207 0.37012 0.16330
 C869 C 0.63450 0.38449 0.14238
 C870 C 0.61940 0.39600 0.12428
 C871 C 0.60140 0.40899 0.10241
 C872 C 0.61666 0.42429 0.08353
 C873 C 0.59954 0.43591 0.06184
 C874 C 0.56691 0.43232 0.05874
 C875 C 0.55166 0.41719 0.07792
 C876 C 0.56885 0.40556 0.09959
 H877 H 0.64530 0.35302 0.22912
 H878 H 0.72656 0.32211 0.17869
 H879 H 0.75292 0.28787 0.21202
 H880 H 0.67187 0.31925 0.26285
 H881 H 0.64184 0.42707 0.08550
 H882 H 0.61186 0.44765 0.04748
 H883 H 0.52651 0.41422 0.07611
 H884 H 0.55681 0.39370 0.11407
 C885 C 0.82573 0.16350 0.22254
 C886 C 0.83465 0.17916 0.20104
 C887 C 0.82506 0.21176 0.19918
 C888 C 0.80553 0.22845 0.21825
 C889 C 0.79480 0.21273 0.23932
 C890 C 0.80619 0.18011 0.24159
 C891 C 0.85199 0.16148 0.18029
 C892 C 0.86553 0.14646 0.16261
 C893 C 0.88039 0.12882 0.14157
 C894 C 0.89242 0.11391 0.12330
 C895 C 0.90612 0.09649 0.10109
 C896 C 0.92214 0.11142 0.08246
 C897 C 0.93430 0.09504 0.06035
 C898 C 0.93054 0.06346 0.05658
 C899 C 0.91479 0.04847 0.07554
 C900 C 0.90259 0.06494 0.09765
 H901 H 0.83332 0.13830 0.22435
 H902 H 0.83205 0.22419 0.18268
 H903 H 0.79833 0.25343 0.21587
 H904 H 0.79990 0.16714 0.25795
 H905 H 0.92500 0.13582 0.08492
 H906 H 0.94653 0.10713 0.04618
 H907 H 0.91168 0.02413 0.07320
 H908 H 0.89018 0.05317 0.11194
 C909 C 0.80800 0.67078 0.72375
 C910 C 0.81545 0.68616 0.70169
 C911 C 0.80515 0.71862 0.69951
 C912 C 0.78683 0.73558 0.71912
 C913 C 0.77822 0.72022 0.74129
 C914 C 0.78967 0.68754 0.74334
 C915 C 0.83274 0.66828 0.68102
 C916 C 0.84685 0.65280 0.66381
 C917 C 0.86319 0.63437 0.64374
 C918 C 0.87721 0.61866 0.62662
 C919 C 0.89427 0.60021 0.60615
 C920 C 0.87748 0.58382 0.58897
 C921 C 0.89402 0.56688 0.56854
 C922 C 0.92756 0.56624 0.56507
 C923 C 0.94431 0.58229 0.58273
 C924 C 0.92774 0.59917 0.60309
 H925 H 0.81614 0.64568 0.72576
 H926 H 0.81064 0.73075 0.68239
 H927 H 0.77808 0.76026 0.71586
 H928 H 0.78507 0.67465 0.76023
 H929 H 0.85156 0.58442 0.59119
 H930 H 0.88054 0.55468 0.55529
 H931 H 0.97016 0.58220 0.58061
 H932 H 0.94099 0.61172 0.61628
 C933 C 0.31512 0.21044 0.69438
 C934 C 0.33177 0.17985 0.69822
 C935 C 0.33107 0.16611 0.72227
 C936 C 0.31293 0.18247 0.74218
 C937 C 0.29519 0.21281 0.73827
 C938 C 0.29700 0.22684 0.71431
 C939 C 0.34810 0.16194 0.67717
 C940 C 0.36120 0.14668 0.65945
 C941 C 0.37619 0.12874 0.63861
 C942 C 0.38899 0.11360 0.62073
 C943 C 0.40460 0.09597 0.59927
 C944 C 0.43784 0.09498 0.59494
 C945 C 0.45297 0.07903 0.57360
 C946 C 0.43498 0.06387 0.55622
 C947 C 0.40168 0.06446 0.56094
 C948 C 0.38658 0.08048 0.58235
 H949 H 0.31539 0.22127 0.67580
 H950 H 0.34391 0.14247 0.72549
 H951 H 0.31230 0.17116 0.76053
 H952 H 0.28325 0.24979 0.71054
 H953 H 0.45203 0.10686 0.60791
 H954 H 0.47868 0.07892 0.57055
 H955 H 0.38727 0.05291 0.54794
 H956 H 0.36081 0.08108 0.58555
 C957 C 0.32714 0.70681 0.21224
 C958 C 0.31841 0.67962 0.20135
 C959 C 0.29095 0.66842 0.21039
 C960 C 0.27224 0.68423 0.23017
 C961 C 0.28077 0.71153 0.24138
 C962 C 0.30837 0.72274 0.23212
 C963 C 0.33707 0.66319 0.18067
 C964 C 0.35186 0.64877 0.16324
 C965 C 0.36849 0.63146 0.14275
 C966 C 0.38241 0.61658 0.12517
 C967 C 0.39901 0.59900 0.10408
 C968 C 0.43236 0.59825 0.10053
 C969 C 0.44841 0.58207 0.07964
 C970 C 0.43125 0.56647 0.06195
 C971 C 0.39783 0.56688 0.06589
 C972 C 0.38181 0.58311 0.08684
 H973 H 0.34836 0.71573 0.20534
 H974 H 0.28380 0.64756 0.20197
 H975 H 0.25065 0.67537 0.23625
 H976 H 0.31563 0.74360 0.24032
 H977 H 0.44591 0.61042 0.11377
 H978 H 0.47419 0.58211 0.07716
 H979 H 0.38405 0.55499 0.05264
 H980 H 0.35598 0.58350 0.08946
   
