data_POSCAR
  _audit_creation_date              2014-09-24
  _audit_creation_method            'ToBaCCo'
  _symmetry_space_group_name_H-M    'P1'
  _symmetry_Int_Tables_number       1
  _symmetry_cell_setting            triclinic
  loop_
  _symmetry_equiv_pos_as_xyz
 x,y,z
_cell_length_a 44.9899
_cell_length_b 44.7155
_cell_length_c 44.5942
_cell_angle_alpha 94.680600
_cell_angle_beta 96.130900
_cell_angle_gamma 95.111000
loop_
  _atom_site_label
  _atom_site_type_symbol
  _atom_site_fract_x
  _atom_site_fract_y
  _atom_site_fract_z
C1 C 0.70873 0.69168 0.96094
 H2 H 0.73092 0.69081 0.95385
 C3 C 0.68752 0.70707 0.94473
 H4 H 0.69385 0.71847 0.92554
 C5 C 0.67352 0.67738 0.99430
 H6 H 0.66766 0.66495 1.01293
 C7 C 0.65178 0.69265 0.97895
 H8 H 0.62957 0.69201 0.98631
 N9 N 0.70140 0.67714 0.98517
 C10 C 0.78542 0.66000 1.03547
 H11 H 0.77898 0.63655 1.03810
 C12 C 0.81429 0.67274 1.04620
 H13 H 0.82990 0.65882 1.05714
 C14 C 0.77284 0.70594 1.01679
 H15 H 0.75656 0.71862 1.00516
 C16 C 0.80175 0.71964 1.02708
 H17 H 0.80726 0.74306 1.02364
 Zn18 Zn 0.72949 0.65342 1.00421
 N19 N 0.76561 0.67641 1.02057
 C20 C 0.76507 0.63307 0.96163
 N21 N 0.73951 0.62484 0.97396
 C22 C 0.72152 0.59943 0.96273
 C23 C 0.72987 0.58052 0.93901
 C24 C 0.77391 0.61526 0.93780
 C25 C 0.70884 0.65805 1.05944
 C26 C 0.69791 0.65017 1.08602
 C27 C 0.69919 0.59779 1.06870
 C28 C 0.70988 0.60687 1.04207
 N29 N 0.71394 0.63664 1.03779
 H30 H 0.77848 0.65393 0.96983
 H31 H 0.70062 0.59398 0.97191
 H32 H 0.71544 0.56032 0.93035
 H33 H 0.79451 0.62228 0.92866
 H34 H 0.71335 0.68162 1.05593
 H35 H 0.69513 0.66866 1.10220
 H36 H 0.69597 0.57386 1.07114
 H37 H 0.71519 0.59013 1.02512
 C38 C 0.82312 0.70270 1.04144
 C39 C 0.65843 0.70735 0.95350
 C40 C 0.69224 0.61948 1.09126
 C41 C 0.75647 0.58847 0.92631
 C42 C 0.74087 0.36633 0.52153
 H43 H 0.76371 0.36795 0.53238
 C44 C 0.71889 0.34637 0.53095
 H45 H 0.72509 0.33324 0.54954
 C46 C 0.70519 0.38293 0.48515
 H47 H 0.69985 0.39747 0.46757
 C48 C 0.68246 0.36323 0.49384
 H49 H 0.65984 0.36271 0.48261
 N50 N 0.73382 0.38379 0.49875
 C51 C 0.81609 0.40130 0.45767
 H52 H 0.81817 0.42567 0.45888
 C53 C 0.83749 0.38529 0.44476
 H54 H 0.85602 0.39753 0.43594
 C55 C 0.78926 0.35582 0.46762
 H56 H 0.77038 0.34435 0.47640
 C57 C 0.81006 0.33890 0.45479
 H58 H 0.80718 0.31460 0.45459
 Zn59 Zn 0.76551 0.40973 0.48766
 N60 N 0.79292 0.38646 0.46934
 C61 C 0.81440 0.42922 0.53204
 N62 N 0.78476 0.43155 0.52391
 C63 C 0.76771 0.44506 0.54348
 C64 C 0.78001 0.45510 0.57318
 C65 C 0.82758 0.43910 0.56127
 C66 C 0.73953 0.42093 0.43120
 C67 C 0.72795 0.43744 0.40826
 C68 C 0.74071 0.48289 0.44203
 C69 C 0.75200 0.46540 0.46446
 N70 N 0.75074 0.43496 0.45878
 H71 H 0.82763 0.41818 0.51653
 H72 H 0.74407 0.44625 0.53664
 H73 H 0.76574 0.46419 0.58901
 H74 H 0.85104 0.43626 0.56734
 H75 H 0.73931 0.39672 0.42718
 H76 H 0.71851 0.42554 0.38676
 H77 H 0.74222 0.50707 0.44707
 H78 H 0.76169 0.47610 0.48637
 C79 C 0.83469 0.35366 0.44329
 C80 C 0.68922 0.34436 0.51681
 C81 C 0.72796 0.46884 0.41354
 C82 C 0.81001 0.45094 0.58271
 C83 C 0.20674 -0.15887 -0.01380
 H84 H 0.22628 -0.17126 -0.01436
 C85 C 0.18128 -0.17123 -0.00209
 H86 H 0.18132 -0.19324 0.00641
 C87 C 0.18346 -0.11430 -0.02250
 H88 H 0.18484 -0.09185 -0.02998
 C89 C 0.15781 -0.12558 -0.01060
 H90 H 0.13925 -0.11186 -0.00930
 N91 N 0.20761 -0.13051 -0.02278
 C92 C 0.27129 -0.15600 -0.06396
 H93 H 0.25202 -0.15723 -0.08073
 C94 C 0.29541 -0.17213 -0.07011
 H95 H 0.29414 -0.18558 -0.09162
 C96 C 0.29668 -0.13658 -0.01621
 H97 H 0.29717 -0.12271 0.00485
 C98 C 0.32144 -0.15216 -0.02151
 H99 H 0.34084 -0.14910 -0.00464
 Zn100 Zn 0.24314 -0.11039 -0.03290
 N101 N 0.27277 -0.13768 -0.03787
 C102 C 0.28582 -0.06523 -0.00066
 N103 N 0.25833 -0.08063 -0.00052
 C104 C 0.24365 -0.07897 0.02463
 C105 C 0.25745 -0.06333 0.05153
 C106 C 0.30078 -0.04985 0.02607
 C107 C 0.21571 -0.11219 -0.09158
 C108 C 0.20550 -0.10196 -0.11912
 C109 C 0.23033 -0.05269 -0.10106
 C110 C 0.24046 -0.06418 -0.07394
 N111 N 0.23301 -0.09351 -0.06976
 H112 H 0.29720 -0.06706 -0.02082
 H113 H 0.22206 -0.09150 0.02473
 H114 H 0.24603 -0.06393 0.07169
 H115 H 0.32341 -0.03932 0.02611
 H116 H 0.20879 -0.13504 -0.08718
 H117 H 0.19113 -0.11801 -0.13480
 H118 H 0.23652 -0.02908 -0.10330
 H119 H 0.25379 -0.04950 -0.05607
 C120 C 0.32142 -0.16953 -0.04924
 C121 C 0.15697 -0.15397 0.00066
 C122 C 0.21223 -0.07148 -0.12448
 C123 C 0.28695 -0.04988 0.05289
 C124 C 0.21547 0.17332 0.44591
 H125 H 0.23610 0.16914 0.43658
 C126 C 0.19623 0.19235 0.43207
 H127 H 0.20266 0.20327 0.41264
 C128 C 0.18155 0.16325 0.48178
 H129 H 0.17529 0.15125 0.50055
 C130 C 0.16189 0.18228 0.46892
 H131 H 0.14087 0.18474 0.47820
 N132 N 0.20764 0.15877 0.47001
 C133 C 0.28715 0.12904 0.51934
 H134 H 0.27725 0.10752 0.52472
 C135 C 0.31629 0.13945 0.53192
 H136 H 0.32879 0.12519 0.54600
 C137 C 0.28254 0.17369 0.49482
 H138 H 0.26923 0.18725 0.48081
 C139 C 0.31179 0.18493 0.50681
 H140 H 0.32070 0.20700 0.50168
 Zn141 Zn 0.23134 0.12915 0.48599
 N142 N 0.27095 0.14598 0.50094
 C143 C 0.25073 0.07504 0.46133
 N144 N 0.23343 0.09769 0.45509
 C145 C 0.22018 0.09964 0.42649
 C146 C 0.22643 0.08009 0.40243
 C147 C 0.25719 0.05471 0.43802
 C148 C 0.21622 0.13445 0.54419
 C149 C 0.20360 0.12668 0.56997
 C150 C 0.18793 0.07692 0.54492
 C151 C 0.20083 0.08576 0.51936
 N152 N 0.21418 0.11430 0.51939
 H153 H 0.26061 0.07342 0.48419
 H154 H 0.20567 0.11705 0.42192
 H155 H 0.21698 0.08297 0.37959
 H156 H 0.27249 0.03803 0.44332
 H157 H 0.22736 0.15684 0.54370
 H158 H 0.20547 0.14320 0.58939
 H159 H 0.17675 0.05439 0.54449
 H160 H 0.19972 0.07006 0.49940
 C161 C 0.32898 0.16780 0.52579
 C162 C 0.16873 0.19655 0.44328
 C163 C 0.18869 0.09779 0.57036
 C164 C 0.24576 0.05779 0.40798
 C165 C 0.19623 0.46909 0.20396
 H166 H 0.20551 0.47345 0.22742
 C167 C 0.21287 0.45508 0.18306
 H168 H 0.23500 0.44895 0.19062
 C169 C 0.15625 0.47182 0.16541
 H170 H 0.13398 0.47811 0.15882
 C171 C 0.17230 0.45847 0.14374
 H172 H 0.16221 0.45451 0.12042
 N173 N 0.16827 0.47672 0.19487
 C174 C 0.16684 0.53604 0.27148
 H175 H 0.15771 0.55256 0.25775
 C176 C 0.17945 0.54500 0.30115
 H177 H 0.18036 0.56851 0.30959
 C178 C 0.17533 0.48529 0.27779
 H179 H 0.17268 0.46188 0.26877
 C180 C 0.18811 0.49326 0.30764
 H181 H 0.19512 0.47566 0.32126
 Zn182 Zn 0.14342 0.49367 0.22203
 N183 N 0.16496 0.50659 0.26040
 C184 C 0.09310 0.47151 0.24824
 N185 N 0.11308 0.46383 0.22885
 C186 C 0.11405 0.43464 0.21792
 C187 C 0.09478 0.41171 0.22703
 C188 C 0.07302 0.44941 0.25742
 C189 C 0.14795 0.54813 0.19654
 C190 C 0.13884 0.57412 0.18459
 C191 C 0.08741 0.55647 0.18943
 C192 C 0.09753 0.53059 0.20116
 N193 N 0.12742 0.52713 0.20484
 H194 H 0.09356 0.49469 0.25750
 H195 H 0.13069 0.42889 0.20323
 H196 H 0.09641 0.38848 0.21894
 H197 H 0.05795 0.45587 0.27364
 H198 H 0.17157 0.54482 0.19970
 H199 H 0.15577 0.59080 0.17893
 H200 H 0.06358 0.55900 0.18673
 H201 H 0.08147 0.51345 0.20740
 C202 C 0.19011 0.52351 0.31979
 C203 C 0.20079 0.44951 0.15253
 C204 C 0.10819 0.57857 0.18083
 C205 C 0.07407 0.41902 0.24713
 C206 C -0.15098 0.00692 0.24489
 H207 H -0.15105 0.01498 0.26836
 C208 C -0.17168 0.01641 0.22306
 H209 H -0.18643 0.03237 0.23084
 C210 C -0.13033 -0.02279 0.20757
 H211 H -0.11439 -0.03832 0.20164
 C212 C -0.15039 -0.01352 0.18479
 H213 H -0.14922 -0.02217 0.16159
 N214 N -0.13073 -0.01217 0.23695
 C215 C -0.11042 -0.04524 0.32468
 H216 H -0.08673 -0.03779 0.32968
 C217 C -0.12602 -0.05793 0.34672
 H218 H -0.11401 -0.06046 0.36859
 C219 C -0.15471 -0.05077 0.29002
 H220 H -0.16582 -0.04793 0.26789
 C221 C -0.17122 -0.06344 0.31142
 H222 H -0.19504 -0.06948 0.30544
 Zn223 Zn -0.10312 -0.02235 0.26886
 N224 N -0.12494 -0.04177 0.29704
 C225 C -0.09852 0.02836 0.30972
 N226 N -0.08315 0.01434 0.28896
 C227 C -0.05676 0.02759 0.28168
 C228 C -0.04535 0.05638 0.29500
 C229 C -0.08804 0.05696 0.32345
 C230 C -0.07585 -0.07671 0.26367
 C231 C -0.05789 -0.09751 0.25169
 C232 C -0.04006 -0.06033 0.21977
 C233 C -0.05851 -0.04027 0.23226
 N234 N -0.07599 -0.04870 0.25380
 H235 H -0.11959 0.01770 0.31503
 H236 H -0.04479 0.01632 0.26512
 H237 H -0.02461 0.06682 0.28857
 H238 H -0.10172 0.06786 0.33872
 H239 H -0.09022 -0.08334 0.28037
 H240 H -0.05847 -0.11981 0.25958
 H241 H -0.02723 -0.05340 0.20191
 H242 H -0.05972 -0.01835 0.22388
 C243 C -0.15688 -0.06724 0.34027
 C244 C -0.17165 0.00648 0.19219
 C245 C -0.03970 -0.08950 0.22939
 C246 C -0.06115 0.07154 0.31610
 C247 C 0.33842 0.48269 0.71858
 H248 H 0.33027 0.47531 0.73892
 C249 C 0.31816 0.49140 0.69577
 H250 H 0.29460 0.49023 0.69892
 C251 C 0.37880 0.49212 0.68957
 H252 H 0.40258 0.49257 0.68751
 C253 C 0.35938 0.50123 0.66627
 H254 H 0.36853 0.50884 0.64640
 N255 N 0.36829 0.48441 0.71563
 C256 C 0.37758 0.43552 0.78874
 H257 H 0.39045 0.42014 0.77685
 C258 C 0.36276 0.42604 0.81275
 H259 H 0.36446 0.40332 0.81908
 C260 C 0.36041 0.48393 0.79548
 H261 H 0.35968 0.50650 0.78851
 C262 C 0.34526 0.47540 0.81964
 H263 H 0.33249 0.49152 0.83073
 Zn264 Zn 0.39641 0.47735 0.74839
 N265 N 0.37600 0.46398 0.78048
 C266 C 0.43651 0.51495 0.79093
 N267 N 0.42024 0.51383 0.76327
 C268 C 0.41862 0.53893 0.74805
 C269 C 0.43301 0.56663 0.76096
 C270 C 0.45085 0.54234 0.80492
 C271 C 0.40606 0.42254 0.71836
 C272 C 0.42252 0.40029 0.70652
 C273 C 0.46817 0.43001 0.72889
 C274 C 0.45080 0.45179 0.74014
 N275 N 0.42035 0.44773 0.73461
 H276 H 0.43725 0.49476 0.80269
 H277 H 0.40525 0.53794 0.72640
 H278 H 0.43046 0.58653 0.74899
 H279 H 0.46287 0.54300 0.82736
 H280 H 0.38178 0.41996 0.71428
 H281 H 0.41063 0.38072 0.69311
 H282 H 0.49231 0.43365 0.73406
 H283 H 0.46168 0.47196 0.75320
 C284 C 0.34647 0.44611 0.82871
 C285 C 0.32876 0.50205 0.66968
 C286 C 0.45406 0.40401 0.71129
 C287 C 0.44854 0.56875 0.79014
 C288 C 0.68258 0.97925 0.70905
 H289 H 0.69214 0.98291 0.73250
 C290 C 0.69940 0.96724 0.68708
 H291 H 0.72195 0.96160 0.69365
 C292 C 0.64163 0.98213 0.67155
 H293 H 0.61902 0.98789 0.66571
 C294 C 0.65783 0.97102 0.64893
 H295 H 0.64753 0.96806 0.62565
 N296 N 0.65424 0.98642 0.70085
 C297 C 0.65528 1.05003 0.77330
 H298 H 0.64691 1.06529 0.75761
 C299 C 0.66808 1.06163 0.80225
 H300 H 0.66886 1.08568 0.80747
 C301 C 0.66148 1.00024 0.78521
 H302 H 0.65819 0.97626 0.77854
 C303 C 0.67401 1.01079 0.81463
 H304 H 0.68069 0.99442 0.83000
 Zn305 Zn 0.62986 1.00419 0.72795
 N306 N 0.65209 1.01984 0.76533
 C307 C 0.58077 0.98238 0.75671
 N308 N 0.60018 0.97454 0.73676
 C309 C 0.60126 0.94523 0.72634
 C310 C 0.58282 0.92236 0.73662
 C311 C 0.56168 0.96025 0.76732
 C312 C 0.63378 1.05499 0.69716
 C313 C 0.62470 1.07859 0.68104
 C314 C 0.57330 1.06328 0.68834
 C315 C 0.58342 1.03964 0.70425
 N316 N 0.61328 1.03606 0.70838
 H317 H 0.58101 1.00574 0.76534
 H318 H 0.61731 0.93938 0.71102
 H319 H 0.58453 0.89909 0.72870
 H320 H 0.54725 0.96693 0.78408
 H321 H 0.65736 1.05158 0.70069
 H322 H 0.64160 1.09351 0.67271
 H323 H 0.54950 1.06586 0.68501
 H324 H 0.56743 1.02410 0.71301
 C325 C 0.67735 1.04199 0.82391
 C326 C 0.68711 0.96361 0.65657
 C327 C 0.59408 1.08280 0.67610
 C328 C 0.56290 0.92971 0.75758
 C329 C -0.00015 0.21719 -0.14321
 H330 H 0.01119 0.23974 -0.14160
 C331 C 0.00822 0.19467 -0.16312
 H332 H 0.02585 0.20033 -0.17702
 C333 C -0.03593 0.18252 -0.12582
 H334 H -0.05242 0.17771 -0.11051
 C335 C -0.02805 0.15915 -0.14530
 H336 H -0.03866 0.13663 -0.14443
 N337 N -0.02176 0.21080 -0.12498
 C338 C -0.04940 0.29901 -0.09727
 H339 H -0.04602 0.29943 -0.07285
 C340 C -0.06091 0.32331 -0.11081
 H341 H -0.06627 0.34245 -0.09660
 C342 C -0.04726 0.27318 -0.14540
 H343 H -0.04239 0.25348 -0.15892
 C344 C -0.05868 0.29690 -0.15984
 H345 H -0.06141 0.29531 -0.18433
 Zn346 Zn -0.02756 0.24194 -0.09553
 N347 N -0.04249 0.27475 -0.11466
 C348 C 0.02304 0.28234 -0.06863
 N349 N 0.01083 0.25315 -0.07347
 C350 C 0.02754 0.23005 -0.06715
 C351 C 0.05823 0.23572 -0.05747
 C352 C 0.05351 0.28907 -0.05808
 C353 C -0.08465 0.22107 -0.08342
 C354 C -0.10672 0.20939 -0.06670
 C355 C -0.06930 0.21256 -0.02317
 C356 C -0.04798 0.22422 -0.04088
 N357 N -0.05589 0.22774 -0.07049
 H358 H 0.00967 0.30038 -0.07434
 H359 H 0.01741 0.20703 -0.07157
 H360 H 0.07163 0.21704 -0.05421
 H361 H 0.06330 0.31229 -0.05556
 H362 H -0.09034 0.22443 -0.10702
 H363 H -0.12921 0.20404 -0.07827
 H364 H -0.06131 0.21005 0.00004
 H365 H -0.02497 0.23008 -0.03103
 C366 C -0.06586 0.32238 -0.14253
 C367 C -0.00536 0.16502 -0.16406
 C368 C -0.09947 0.20424 -0.03598
 C369 C 0.07158 0.26551 -0.05351
 C370 C 0.47196 0.20868 0.18325
 H371 H 0.46149 0.22954 0.18328
 C372 C 0.46149 0.18595 0.20037
 H373 H 0.44309 0.18962 0.21360
 C374 C 0.50778 0.17811 0.16519
 H375 H 0.52534 0.17468 0.15093
 C376 C 0.49812 0.15491 0.18199
 H377 H 0.50830 0.13393 0.17991
 N378 N 0.49441 0.20424 0.16565
 C379 C 0.53108 0.29294 0.14376
 H380 H 0.53443 0.28715 0.12047
 C381 C 0.53962 0.32224 0.15683
 H382 H 0.54901 0.33885 0.14319
 C383 C 0.51547 0.27815 0.18986
 H384 H 0.50663 0.26084 0.20289
 C385 C 0.52346 0.30737 0.20381
 H386 H 0.52069 0.31204 0.22749
 Zn387 Zn 0.50672 0.23308 0.13900
 N388 N 0.51880 0.27166 0.16011
 C389 C 0.48063 0.25316 0.08483
 N390 N 0.47448 0.23754 0.10873
 C391 C 0.44561 0.22840 0.11282
 C392 C 0.42163 0.23674 0.09377
 C393 C 0.45735 0.26162 0.06499
 C394 C 0.56719 0.22552 0.13918
 C395 C 0.59273 0.21350 0.13025
 C396 C 0.56320 0.19059 0.08439
 C397 C 0.53806 0.20318 0.09421
 N398 N 0.54045 0.21986 0.12146
 H399 H 0.50365 0.25986 0.08162
 H400 H 0.44088 0.21559 0.13148
 H401 H 0.39881 0.23022 0.09807
 H402 H 0.46288 0.27523 0.04700
 H403 H 0.56846 0.23868 0.16081
 H404 H 0.61366 0.21825 0.14495
 H405 H 0.56077 0.17646 0.06319
 H406 H 0.51644 0.19865 0.08069
 C407 C 0.53538 0.32995 0.18709
 C408 C 0.47442 0.15848 0.19967
 C409 C 0.59079 0.19497 0.10297
 C410 C 0.42735 0.25403 0.06981
 C411 C 0.97680 0.71603 0.70125
 H412 H 0.97198 0.73926 0.70181
 C413 C 0.96347 0.69705 0.72052
 H414 H 0.94835 0.70601 0.73549
 C415 C 1.00334 0.67671 0.68218
 H416 H 1.01892 0.66864 0.66741
 C417 C 0.99068 0.65701 0.70115
 H418 H 0.99644 0.63398 0.70019
 N419 N 0.99502 0.70519 0.68132
 C420 C 1.01174 0.79273 0.65386
 H421 H 0.99468 0.78951 0.63461
 C422 C 1.02341 0.82192 0.66495
 H423 H 1.01491 0.84081 0.65421
 C424 C 1.04421 0.77212 0.69037
 H425 H 1.05214 0.75250 0.70010
 C426 C 1.05684 0.80107 0.70200
 H427 H 1.07423 0.80350 0.72101
 Zn428 Zn 1.00580 0.72932 0.64982
 N429 N 1.02212 0.76851 0.66665
 C430 C 0.94745 0.74601 0.63554
 N431 N 0.97034 0.73325 0.62342
 C432 C 0.96860 0.72530 0.59312
 C433 C 0.94355 0.73093 0.57376
 C434 C 0.92215 0.75213 0.61708
 C435 C 1.06192 0.72629 0.62618
 C436 C 1.08370 0.71258 0.61127
 C437 C 1.04850 0.66824 0.59844
 C438 C 1.02726 0.68295 0.61313
 N439 N 1.03451 0.71113 0.62745
 H440 H 0.94936 0.75298 0.65940
 H441 H 0.98699 0.71546 0.58368
 H442 H 0.94292 0.72449 0.54978
 H443 H 0.90493 0.76344 0.62733
 H444 H 1.06715 0.74887 0.63714
 H445 H 1.10566 0.72463 0.61121
 H446 H 1.04250 0.64555 0.58782
 H447 H 1.00510 0.67158 0.61373
 C448 C 1.04644 0.82645 0.68914
 C449 C 0.96935 0.66667 0.71964
 C450 C 1.07734 0.68290 0.59789
 C451 C 0.92021 0.74535 0.58562
 C452 C 0.51030 0.73595 0.35107
 H453 H 0.51651 0.75975 0.35009
 C454 C 0.52477 0.71479 0.33493
 H455 H 0.54161 0.72265 0.32101
 C456 C 0.48079 0.69720 0.37072
 H457 H 0.46420 0.69055 0.38536
 C458 C 0.49483 0.67514 0.35491
 H459 H 0.48877 0.65156 0.35736
 N460 N 0.48900 0.72694 0.36872
 C461 C 0.45040 0.81203 0.38089
 H462 H 0.45398 0.81616 0.40532
 C463 C 0.43989 0.83424 0.36350
 H464 H 0.43516 0.85519 0.37516
 C465 C 0.45271 0.77957 0.33676
 H466 H 0.45795 0.75826 0.32644
 C467 C 0.44143 0.80084 0.31842
 H468 H 0.43903 0.79526 0.29421
 Zn469 Zn 0.47523 0.75853 0.39255
 N470 N 0.45752 0.78575 0.36733
 C471 C 0.52148 0.80571 0.40972
 N472 N 0.51014 0.77813 0.41632
 C473 C 0.52560 0.76259 0.43677
 C474 C 0.55349 0.77491 0.45168
 C475 C 0.54924 0.81875 0.42390
 C476 C 0.42054 0.72839 0.40248
 C477 C 0.39809 0.71714 0.41906
 C478 C 0.42819 0.73901 0.46500
 C479 C 0.45008 0.74985 0.44752
 N480 N 0.44613 0.74393 0.41688
 H481 H 0.50989 0.81705 0.39221
 H482 H 0.51664 0.74021 0.44085
 H483 H 0.56560 0.76199 0.46756
 H484 H 0.55808 0.83998 0.41683
 H485 H 0.41772 0.72454 0.37802
 H486 H 0.37817 0.70428 0.40714
 H487 H 0.43178 0.74428 0.48930
 H488 H 0.47007 0.76319 0.45847
 C489 C 0.43528 0.82910 0.33161
 C490 C 0.51770 0.68392 0.33735
 C491 C 0.40191 0.72197 0.45082
 C492 C 0.56581 0.80334 0.44520
 C493 C 0.37532 -0.02738 0.26837
 C494 C 0.36041 -0.03563 0.23586
 C495 C 0.34375 -0.01412 0.22492
 C496 C 0.34357 0.01385 0.24738
 C497 C 0.39361 0.00303 0.26707
 C498 C 0.37718 0.02477 0.25593
 C499 C 0.34958 -0.02013 0.28660
 C500 C 0.33315 0.00172 0.27626
 H501 H 0.36357 -0.05606 0.22228
 H502 H 0.32973 0.03067 0.23768
 H503 H 0.41777 0.00631 0.27269
 H504 H 0.34611 -0.03026 0.30738
 C505 C 0.09043 1.05251 0.75249
 C506 C 0.10317 1.06003 0.72338
 C507 C 0.11930 1.03863 0.71128
 C508 C 0.12085 1.01094 0.72985
 C509 C 0.07190 1.02187 0.74412
 C510 C 0.08781 1.00003 0.73226
 C511 C 0.11744 1.04572 0.77373
 C512 C 0.13335 1.02399 0.76216
 H513 H 0.09952 1.08083 0.71330
 H514 H 0.13390 0.99310 0.72074
 H515 H 0.04870 1.01763 0.74824
 H516 H 0.12157 1.05512 0.79715
 C517 C 0.59037 0.54790 0.26013
 C518 C 0.60596 0.56085 0.23457
 C519 C 0.62632 0.54363 0.22327
 C520 C 0.62935 0.51439 0.23894
 C521 C 0.57677 0.51610 0.24692
 C522 C 0.59715 0.49858 0.23575
 C523 C 0.61597 0.54227 0.28370
 C524 C 0.63625 0.52444 0.27313
 H525 H 0.60039 0.58168 0.22551
 H526 H 0.64619 0.50052 0.23012
 H527 H 0.55342 0.50779 0.24642
 H528 H 0.61623 0.54958 0.30751
 C529 C 0.88284 0.47489 0.80241
 C530 C 0.86698 0.46732 0.77017
 C531 C 0.85595 0.49122 0.75724
 C532 C 0.86160 0.52084 0.77818
 C533 C 0.90686 0.50072 0.79949
 C534 C 0.89597 0.52474 0.78648
 C535 C 0.85965 0.48926 0.81992
 C536 C 0.84862 0.51343 0.80769
 H537 H 0.86608 0.44527 0.75791
 H538 H 0.85258 0.54037 0.76788
 H539 H 0.93044 0.49934 0.80642
 H540 H 0.85364 0.48171 0.84116
 C541 C 0.27667 0.36434 -0.04163
 C542 C 0.24729 0.34355 -0.04625
 C543 C 0.23903 0.33283 -0.02032
 C544 C 0.26151 0.34324 0.00793
 C545 C 0.27179 0.38882 -0.01686
 C546 C 0.26353 0.37781 0.00899
 C547 C 0.29980 0.34586 -0.02645
 C548 C 0.29230 0.33465 -0.00054
 H549 H 0.23259 0.34066 -0.06738
 H550 H 0.25456 0.33410 0.02875
 H551 H 0.27316 0.41259 -0.02014
 H552 H 0.32083 0.34255 -0.03543
 C553 C 0.75365 0.07108 1.04866
 C554 C 0.72825 0.08876 1.05866
 C555 C 0.71685 0.10660 1.03788
 C556 C 0.73227 0.10516 1.00856
 C557 C 0.74042 0.05362 1.01845
 C558 C 0.72935 0.07139 0.99723
 C559 C 0.77685 0.09511 1.04025
 C560 C 0.76608 0.11279 1.01903
 H561 H 0.71955 0.08685 1.08022
 H562 H 0.72321 0.11985 0.99172
 H563 H 0.74163 0.02965 1.01405
 H564 H 0.80039 0.09656 1.04905
 C565 C 0.25625 0.58841 0.53826
 C566 C 0.23009 0.60338 0.55034
 C567 C 0.21798 0.62310 0.53210
 C568 C 0.23312 0.62599 0.50291
 C569 C 0.24349 0.57387 0.50668
 C570 C 0.23134 0.59340 0.48801
 C571 C 0.27851 0.61464 0.53246
 C572 C 0.26690 0.63401 0.51337
 H573 H 0.22152 0.59852 0.57139
 H574 H 0.22313 0.64222 0.48836
 H575 H 0.24462 0.55028 0.49960
 H576 H 0.30228 0.61568 0.54018
 C577 C 0.78067 0.87066 0.48392
 C578 C 0.74969 0.85393 0.47334
 C579 C 0.73806 0.83766 0.49451
 C580 C 0.75862 0.83923 0.52456
 C581 C 0.77598 0.88970 0.51296
 C582 C 0.76447 0.87332 0.53433
 C583 C 0.80006 0.84638 0.49444
 C584 C 0.78903 0.82998 0.51588
 H585 H 0.73657 0.85737 0.45230
 H586 H 0.74848 0.82573 0.54130
 H587 H 0.77961 0.91409 0.51550
 H588 H 0.82179 0.84381 0.48669
 C589 C -0.02430 0.28970 0.38062
 C590 C -0.03415 0.25753 0.36648
 C591 C -0.01282 0.24446 0.35203
 C592 C 0.01667 0.26498 0.35280
 C593 C 0.00462 0.28690 0.40124
 C594 C 0.02615 0.27358 0.38694
 C595 C -0.01425 0.30670 0.35466
 C596 C 0.00749 0.29441 0.34019
 H597 H -0.05533 0.24528 0.36953
 H598 H 0.03376 0.25400 0.34087
 H599 H 0.00676 0.29383 0.42520
 H600 H -0.02247 0.32801 0.34963
 C601 C 1.04262 0.76262 0.09438
 C602 C 1.05598 0.73688 0.10976
 C603 C 1.03930 0.72455 0.13016
 C604 C 1.01048 0.74024 0.13394
 C605 C 1.01074 0.75002 0.08112
 C606 C 0.99379 0.73836 0.10174
 C607 C 1.03811 0.78550 0.12060
 C608 C 1.02079 0.77425 0.14115
 H609 H 1.07668 0.72847 0.10394
 H610 H 0.99689 0.73072 0.15067
 H611 H 1.00199 0.75159 0.05777
 H612 H 1.04520 0.80932 0.12096
 C613 C 0.54581 0.26484 0.57433
 C614 C 0.55530 0.23722 0.58959
 C615 C 0.53426 0.22417 0.60552
 C616 C 0.50520 0.24018 0.60454
 C617 C 0.51621 0.25355 0.55480
 C618 C 0.49471 0.24082 0.57055
 C619 C 0.53700 0.28585 0.59996
 C620 C 0.51544 0.27342 0.61562
 H621 H 0.57682 0.22857 0.58778
 H622 H 0.48796 0.22947 0.61720
 H623 H 0.51312 0.25527 0.53064
 H624 H 0.54574 0.30938 0.60382
 C625 C 0.45885 0.77890 0.87126
 C626 C 0.45478 0.74816 0.85305
 C627 C 0.47982 0.74014 0.84136
 C628 C 0.50708 0.76384 0.84879
 C629 C 0.48546 0.77685 0.89538
 C630 C 0.51086 0.76865 0.88375
 C631 C 0.47101 0.80098 0.85012
 C632 C 0.49632 0.79358 0.83828
 H633 H 0.43447 0.73290 0.85177
 H634 H 0.52718 0.75658 0.83905
 H635 H 0.48352 0.78035 0.91929
 H636 H 0.46099 0.82168 0.84626
 C637 C 0.41683 -0.09619 0.31268
 C638 C 0.40404 -0.10183 0.28249
 N639 N 0.40262 -0.13010 0.26850
 C640 C 0.41317 -0.15311 0.28335
 C641 C 0.42522 -0.14787 0.31420
 N642 N 0.42668 -0.11919 0.32771
 N643 N 0.41845 -0.06798 0.32682
 C644 C 0.40715 -0.04522 0.31229
 C645 C 0.39291 -0.05100 0.28242
 N646 N 0.39204 -0.07928 0.26813
 H647 H 0.41072 -0.17526 0.27128
 H648 H 0.40799 -0.02309 0.32435
 C649 C 0.91666 0.40043 0.84447
 C650 C 0.90019 0.39618 0.81568
 N651 N 0.89460 0.36807 0.80119
 C652 C 0.90499 0.34393 0.81404
 C653 C 0.92196 0.34803 0.84279
 N654 N 0.92713 0.37636 0.85733
 N655 N 0.92194 0.42856 0.85907
 C656 C 0.91149 0.45267 0.84611
 C657 C 0.89510 0.44855 0.81712
 N658 N 0.88984 0.42020 0.80273
 H659 H 0.89957 0.32181 0.80202
 H660 H 0.91587 0.47486 0.85825
 C661 C 0.04805 1.12341 0.79491
 C662 C 0.03200 1.09508 0.78668
 N663 N 0.00337 1.09021 0.79350
 C664 C -0.00978 1.11225 0.80861
 C665 C 0.00658 1.14053 0.81761
 N666 N 0.03507 1.14522 0.81011
 N667 N 0.07667 1.12850 0.78834
 C668 C 0.09018 1.10637 0.77411
 C669 C 0.07448 1.07766 0.76622
 N670 N 0.04556 1.07278 0.77260
 H671 H -0.03270 1.10759 0.81339
 H672 H 0.11320 1.11090 0.76947
 C673 C 0.53719 0.61190 0.29958
 C674 C 0.56762 0.61899 0.29661
 N675 N 0.58121 0.64673 0.30686
 C676 C 0.56567 0.66794 0.31987
 C677 C 0.53497 0.66119 0.32280
 N678 N 0.52153 0.63306 0.31270
 N679 N 0.52388 0.58392 0.28939
 C680 C 0.53964 0.56270 0.27637
 C681 C 0.57033 0.56978 0.27341
 N682 N 0.58331 0.59792 0.28380
 H683 H 0.57745 0.68961 0.32837
 H684 H 0.52816 0.54075 0.26882
 C685 C 0.57439 0.40747 0.20108
 C686 C 0.55854 0.42078 0.22319
 N687 N 0.53579 0.40416 0.23370
 C688 C 0.52812 0.37478 0.22304
 C689 C 0.54379 0.36137 0.20061
 N690 N 0.56657 0.37829 0.19023
 N691 N 0.59720 0.42396 0.19063
 C692 C 0.60501 0.45325 0.20135
 C693 C 0.58913 0.46684 0.22342
 N694 N 0.56613 0.45013 0.23373
 H695 H 0.50950 0.36236 0.23147
 H696 H 0.62306 0.46577 0.19225
 C697 C 0.05187 0.90962 0.70681
 C698 C 0.08231 0.91654 0.71771
 N699 N 0.10045 0.89393 0.71999
 C700 C 0.08955 0.86468 0.71173
 C701 C 0.05908 0.85766 0.70033
 N702 N 0.04108 0.88054 0.69822
 N703 N 0.03364 0.93212 0.70463
 C704 C 0.04445 0.96133 0.71287
 C705 C 0.07505 0.96850 0.72357
 N706 N 0.09325 0.94576 0.72561
 H707 H 0.10474 0.84729 0.71325
 H708 H 0.02939 0.97876 0.71048
 C709 C 0.94929 0.59677 0.75604
 C710 C 0.91932 0.59954 0.76079
 N711 N 0.90670 0.62490 0.75375
 C712 C 0.92257 0.64748 0.74182
 C713 C 0.95248 0.64449 0.73623
 N714 N 0.96501 0.61905 0.74371
 N715 N 0.96183 0.57128 0.76263
 C716 C 0.94570 0.54822 0.77348
 C717 C 0.91531 0.55050 0.77768
 N718 N 0.90300 0.57635 0.77122
 H719 H 0.91140 0.66687 0.73558
 H720 H 0.95636 0.52800 0.77758
 C721 C 0.41830 0.10615 0.22980
 C722 C 0.43541 0.08276 0.23789
 N723 N 0.46530 0.08532 0.23545
 C724 C 0.47878 0.10993 0.22453
 C725 C 0.46148 0.13298 0.21508
 N726 N 0.43163 0.13058 0.21851
 N727 N 0.38841 0.10356 0.23230
 C728 C 0.37466 0.07827 0.24182
 C729 C 0.39150 0.05412 0.24876
 N730 N 0.42167 0.05737 0.24701
 H731 H 0.50268 0.11124 0.22304
 H732 H 0.35088 0.07724 0.24367
 C733 C 0.30980 0.39594 -0.12059
 C734 C 0.30549 0.41632 -0.09621
 N735 N 0.31385 0.44613 -0.09694
 C736 C 0.32649 0.45654 -0.12094
 C737 C 0.33120 0.43615 -0.14540
 N738 N 0.32259 0.40626 -0.14445
 N739 N 0.30193 0.36605 -0.11964
 C740 C 0.29026 0.35556 -0.09517
 C741 C 0.28640 0.37584 -0.07036
 N742 N 0.29406 0.40585 -0.07169
 H743 H 0.33358 0.48035 -0.12032
 H744 H 0.28471 0.33156 -0.09470
 C745 C 0.82310 0.91427 0.41597
 C746 C 0.79668 0.89486 0.40835
 N747 N 0.78564 0.88819 0.37884
 C748 C 0.79979 0.90010 0.35646
 C749 C 0.82638 0.91969 0.36388
 N750 N 0.83729 0.92616 0.39366
 N751 N 0.83457 0.92028 0.44548
 C752 C 0.82087 0.90754 0.46775
 C753 C 0.79440 0.88792 0.46021
 N754 N 0.78306 0.88212 0.43052
 H755 H 0.79065 0.89358 0.33321
 H756 H 0.83085 0.91213 0.49103
 C757 C 0.79828 0.02401 1.11670
 C758 C 0.77502 0.04138 1.12329
 N759 N 0.76839 0.04542 1.15215
 C760 C 0.78449 0.03359 1.17505
 C761 C 0.80897 0.01706 1.16900
 N762 N 0.81456 0.01231 1.13954
 N763 N 0.80520 0.02036 1.08781
 C764 C 0.79021 0.03385 1.06532
 C765 C 0.76737 0.05207 1.07201
 N766 N 0.76026 0.05506 1.10097
 H767 H 0.77766 0.03712 1.19740
 H768 H 0.79671 0.03130 1.04264
 C769 C 0.30096 0.53260 0.59788
 C770 C 0.27631 0.54707 0.60626
 N771 N 0.26809 0.54520 0.63447
 C772 C 0.28363 0.52981 0.65492
 C773 C 0.30891 0.51577 0.64695
 N774 N 0.31673 0.51751 0.61838
 N775 N 0.30955 0.53500 0.56984
 C776 C 0.29486 0.55168 0.54996
 C777 C 0.27066 0.56701 0.55859
 N778 N 0.26189 0.56398 0.58659
 H779 H 0.27698 0.52986 0.67750
 H780 H 0.30247 0.55370 0.52793
 C781 C 0.20067 0.56659 0.39577
 C782 C 0.22093 0.55030 0.41220
 N783 N 0.23125 0.52580 0.39829
 C784 C 0.22204 0.51668 0.36865
 C785 C 0.20141 0.53276 0.35203
 N786 N 0.19142 0.55750 0.36622
 N787 N 0.19044 0.59116 0.40966
 C788 C 0.19970 0.60031 0.43929
 C789 C 0.22015 0.58411 0.45589
 N790 N 0.23013 0.55935 0.44176
 H791 H 0.23113 0.49735 0.35823
 H792 H 0.19072 0.61971 0.44969
 C793 C 0.69997 0.04108 0.90528
 C794 C 0.70738 0.07171 0.91456
 N795 N 0.70558 0.09214 0.89378
 C796 C 0.69632 0.08344 0.86408
 C797 C 0.68833 0.05252 0.85434
 N798 N 0.69080 0.03227 0.87563
 N799 N 0.70167 0.02063 0.92613
 C800 C 0.71067 0.02947 0.95588
 C801 C 0.71846 0.06031 0.96533
 N802 N 0.71643 0.08059 0.94419
 H803 H 0.69603 0.10076 0.84863
 H804 H 0.71139 0.01252 0.97180
 C805 C 0.73016 0.91323 0.61114
 C806 C 0.73150 0.92825 0.58479
 N807 N 0.71968 0.95499 0.58300
 C808 C 0.70614 0.96724 0.60621
 C809 C 0.70434 0.95213 0.63250
 N810 N 0.71673 0.92553 0.63446
 N811 N 0.74119 0.88601 0.61242
 C812 C 0.75308 0.87291 0.58839
 C813 C 0.75407 0.88771 0.56182
 N814 N 0.74346 0.91524 0.56091
 H815 H 0.69652 0.98842 0.60406
 H816 H 0.76159 0.85118 0.59008
 C817 C 0.22801 0.42839 0.07874
 C818 C 0.24367 0.40347 0.08508
 N819 N 0.24628 0.39481 0.11366
 C820 C 0.23368 0.40979 0.13613
 C821 C 0.21722 0.43429 0.12963
 N822 N 0.21493 0.44294 0.10096
 N823 N 0.22541 0.43719 0.05028
 C824 C 0.23760 0.42206 0.02770
 C825 C 0.25279 0.39659 0.03368
 N826 N 0.25538 0.38792 0.06238
 H827 H 0.23563 0.40200 0.15854
 H828 H 0.23438 0.42925 0.00510
 C829 C -0.09132 0.33517 0.42122
 C830 C -0.09823 0.30600 0.40665
 N831 N -0.12680 0.29274 0.40430
 C832 C -0.14885 0.30731 0.41594
 C833 C -0.14207 0.33664 0.43057
 N834 N -0.11332 0.34977 0.43272
 N835 N -0.06283 0.34859 0.42330
 C836 C -0.04091 0.33420 0.41122
 C837 C -0.04776 0.30504 0.39627
 N838 N -0.07640 0.29169 0.39446
 H839 H -0.17148 0.29627 0.41315
 H840 H -0.01844 0.34554 0.41279
 C841 C 0.37706 0.80364 0.90173
 C842 C 0.40147 0.79949 0.92276
 N843 N 0.39890 0.80383 0.95283
 C844 C 0.37321 0.81271 0.96282
 C845 C 0.34894 0.81786 0.94171
 N846 N 0.35164 0.81278 0.91165
 N847 N 0.37933 0.79918 0.87167
 C848 C 0.40511 0.79097 0.86163
 C849 C 0.42998 0.78738 0.88255
 N850 N 0.42741 0.79155 0.91277
 H851 H 0.37199 0.81572 0.98692
 H852 H 0.40636 0.78755 0.83750
 C853 C 1.10070 0.79548 0.03233
 C854 C 1.09083 0.81530 0.05438
 N855 N 1.10126 0.84490 0.05717
 C856 C 1.12150 0.85557 0.03916
 C857 C 1.13232 0.83562 0.01776
 N858 N 1.12151 0.80596 0.01483
 N859 N 1.08999 0.76592 0.02943
 C860 C 1.07032 0.75517 0.04805
 C861 C 1.06158 0.77468 0.07122
 N862 N 1.07184 0.80444 0.07342
 H863 H 1.13001 0.87916 0.04245
 H864 H 1.06234 0.73144 0.04551
 C865 C 0.61356 0.31405 0.53324
 C866 C 0.61997 0.28841 0.54788
 N867 N 0.64849 0.28056 0.55094
 C868 C 0.67110 0.29755 0.54053
 C869 C 0.66504 0.32396 0.52672
 N870 N 0.63615 0.33120 0.52310
 N871 N 0.58507 0.32203 0.53037
 C872 C 0.56275 0.30577 0.54200
 C873 C 0.56922 0.28052 0.55752
 N874 N 0.59779 0.27238 0.55979
 H875 H 0.69347 0.29036 0.54306
 H876 H 0.54035 0.31301 0.54005
 C877 C 0.40575 0.20826 0.53376
 C878 C 0.41795 0.20069 0.56207
 N879 N 0.40098 0.18292 0.57825
 C880 C 0.37235 0.17212 0.56730
 C881 C 0.35998 0.17942 0.53873
 N882 N 0.37712 0.19757 0.52279
 N883 N 0.42271 0.22617 0.51768
 C884 C 0.45142 0.23684 0.52859
 C885 C 0.46387 0.22925 0.55703
 N886 N 0.44654 0.21138 0.57302
 H887 H 0.35932 0.15838 0.58102
 H888 H 0.46395 0.25147 0.51530
 C889 C 0.90091 0.71128 0.08074
 C890 C 0.91525 0.73318 0.06504
 N891 N 0.89913 0.74584 0.04277
 C892 C 0.86927 0.73739 0.03530
 C893 C 0.85481 0.71502 0.05067
 N894 N 0.87124 0.70264 0.07311
 N895 N 0.91701 0.69848 0.10289
 C896 C 0.94691 0.70666 0.11015
 C897 C 0.96147 0.72850 0.09434
 N898 N 0.94514 0.74119 0.07207
 H899 H 0.85738 0.74732 0.01684
 H900 H 0.95918 0.69576 0.12765
 C901 C 0.58801 0.74306 0.93507
 C902 C 0.58636 0.74304 0.90354
 N903 N 0.60896 0.73287 0.88889
 C904 C 0.63303 0.72238 0.90436
 C905 C 0.63444 0.72161 0.93601
 N906 N 0.61176 0.73220 0.95048
 N907 N 0.56535 0.75297 0.94970
 C908 C 0.54076 0.76243 0.93420
 C909 C 0.53840 0.76156 0.90231
 N910 N 0.56164 0.75207 0.88796
 H911 H 0.65018 0.71363 0.89184
 H912 H 0.52323 0.76981 0.94690
 C913 C 0.10340 0.24113 0.43126
 C914 C 0.09921 0.24096 0.39967
 N915 N 0.11896 0.22812 0.38287
 C916 C 0.14248 0.21498 0.39625
 C917 C 0.14619 0.21419 0.42796
 N918 N 0.12650 0.22760 0.44457
 N919 N 0.08352 0.25355 0.44808
 C920 C 0.05922 0.26539 0.43475
 C921 C 0.05417 0.26441 0.40287
 N922 N 0.07468 0.25236 0.38624
 H923 H 0.15719 0.20409 0.38211
 H924 H 0.04374 0.27438 0.44916
 C925 C 0.55319 0.14711 0.65112
 C926 C 0.56875 0.15549 0.62702
 N927 N 0.59110 0.13944 0.61854
 C928 C 0.59907 0.11558 0.63344
 C929 C 0.58419 0.10742 0.65824
 N930 N 0.56122 0.12327 0.66622
 N931 N 0.53096 0.16354 0.65954
 C932 C 0.52373 0.18808 0.64508
 C933 C 0.53966 0.19679 0.62116
 N934 N 0.56171 0.17998 0.61281
 H935 H 0.61690 0.10315 0.62595
 H936 H 0.50639 0.20097 0.65287
 C937 C 1.06494 0.64458 0.16703
 C938 C 1.08048 0.65796 0.14522
 N939 N 1.10411 0.64516 0.13499
 C940 C 1.11322 0.61958 0.14583
 C941 C 1.09806 0.60607 0.16807
 N942 N 1.07399 0.61890 0.17797
 N943 N 1.04120 0.65765 0.17701
 C944 C 1.03228 0.68346 0.16607
 C945 C 1.04787 0.69693 0.14405
 N946 N 1.07162 0.68352 0.13439
 H947 H 1.13191 0.60977 0.13683
 H948 H 1.01337 0.69310 0.17466
 C949 C 0.98107 0.83669 0.19746
 C950 C 1.00716 0.84532 0.18454
 N951 N 1.01845 0.87472 0.18766
 C952 C 1.00446 0.89607 0.20267
 C953 C 0.97767 0.88774 0.21494
 N954 N 0.96695 0.85800 0.21230
 N955 N 0.96951 0.80736 0.19375
 C956 C 0.98254 0.78629 0.17719
 C957 C 1.00830 0.79497 0.16333
 N958 N 1.02001 0.82442 0.16782
 H959 H 1.01416 0.91927 0.20485
 H960 H 0.97193 0.76347 0.17401
 C961 C 0.47259 0.33207 0.67272
 C962 C 0.50157 0.34004 0.66546
 N963 N 0.51520 0.36810 0.67434
 C964 C 0.50102 0.38882 0.68996
 C965 C 0.47158 0.38126 0.69691
 N966 N 0.45825 0.35280 0.68810
 N967 N 0.45872 0.30421 0.66301
 C968 C 0.47236 0.28409 0.64588
 C969 C 0.50116 0.29235 0.63775
 N970 N 0.51502 0.32018 0.64816
 H971 H 0.51233 0.41122 0.69565
 H972 H 0.46014 0.26257 0.63776
 C973 C 0.47540 0.65038 0.80304
 C974 C 0.46942 0.65699 0.83296
 N975 N 0.45949 0.63445 0.84906
 C976 C 0.45458 0.60552 0.83641
 C977 C 0.45903 0.59886 0.80592
 N978 N 0.46961 0.62159 0.79003
 N979 N 0.48539 0.67314 0.78705
 C980 C 0.48896 0.70231 0.79947
 C981 C 0.48132 0.70900 0.82879
 N982 N 0.47204 0.68606 0.84490
 H983 H 0.44565 0.58825 0.84956
 H984 H 0.49624 0.72016 0.78612
 C985 C -0.02741 0.15146 0.32244
 C986 C -0.03711 0.16295 0.34951
 N987 N -0.05224 0.14424 0.36630
 C988 C -0.05897 0.11456 0.35686
 C989 C -0.05084 0.10299 0.32884
 N990 N -0.03467 0.12183 0.31257
 N991 N -0.01176 0.17037 0.30603
 C992 C -0.00577 0.20033 0.31534
 C993 C -0.01657 0.21199 0.34187
 N994 N -0.03176 0.19280 0.35837
 H995 H -0.07077 0.10033 0.37111
 H996 H 0.00637 0.21500 0.30170
 C997 C 0.05271 0.34919 0.28283
 C998 C 0.02358 0.35379 0.28929
 N999 N 0.01067 0.37823 0.28000
 C1000 C 0.02590 0.39883 0.26511
 C1001 C 0.05555 0.39502 0.25949
 N1002 N 0.06808 0.36990 0.26810
 N1003 N 0.06579 0.32514 0.29309
 C1004 C 0.05131 0.30585 0.31014
 C1005 C 0.02249 0.31110 0.31765
 N1006 N 0.00937 0.33483 0.30648
 H1007 H 0.01516 0.41831 0.25828
 H1008 H 0.06287 0.28763 0.31879
 C1009 C 0.54235 0.85714 0.78929
 C1010 C 0.51422 0.86170 0.79854
 N1011 N 0.50185 0.88762 0.79327
 C1012 C 0.51660 0.90955 0.77952
 C1013 C 0.54520 0.90548 0.77071
 N1014 N 0.55720 0.87906 0.77559
 N1015 N 0.55476 0.83129 0.79504
 C1016 C 0.54043 0.80989 0.80996
 C1017 C 0.51234 0.81462 0.81981
 N1018 N 0.50005 0.84051 0.81346
 H1019 H 0.50605 0.92991 0.77557
 H1020 H 0.55131 0.78990 0.81441
 C1021 C 0.66774 0.57139 0.14755
 C1022 C 0.65663 0.59205 0.16767
 N1023 N 0.65777 0.62143 0.16238
 C1024 C 0.66955 0.63139 0.13782
 C1025 C 0.68073 0.61081 0.11678
 N1026 N 0.67922 0.58111 0.12262
 N1027 N 0.66652 0.54188 0.15311
 C1028 C 0.65435 0.53216 0.17777
 C1029 C 0.64240 0.55285 0.19760
 N1030 N 0.64412 0.58237 0.19189
 H1031 H 0.66873 0.65496 0.13485
 H1032 H 0.65334 0.50850 0.18117
 C1033 C 0.16032 1.05530 0.63189
 C1034 C 0.14613 1.07743 0.64742
 N1035 N 0.14537 1.10513 0.63733
 C1036 C 0.15853 1.11196 0.61247
 C1037 C 0.17334 1.09013 0.59690
 N1038 N 0.17358 1.06205 0.60689
 N1039 N 0.16086 1.02759 0.64236
 C1040 C 0.14795 1.02111 0.66772
 C1041 C 0.13381 1.04345 0.68343
 N1042 N 0.13337 1.07098 0.67251
 H1043 H 0.15722 1.13421 0.60484
 H1044 H 0.14868 0.99880 0.67518
 C1045 C 0.18981 0.98417 0.82551
 C1046 C 0.17171 0.96638 0.80200
 N1047 N 0.16948 0.93599 0.80199
 C1048 C 0.18357 0.92247 0.82497
 C1049 C 0.20051 0.94025 0.84997
 N1050 N 0.20364 0.97079 0.84863
 N1051 N 0.19163 1.01464 0.82596
 C1052 C 0.17532 1.02814 0.80445
 C1053 C 0.15595 1.01035 0.78165
 N1054 N 0.15512 0.97978 0.78066
 H1055 H 0.18113 0.89819 0.82309
 H1056 H 0.17656 1.05250 0.80578
 C1057 C 0.69414 0.48667 0.33788
 C1058 C 0.68232 0.51393 0.34497
 N1059 N 0.68686 0.52698 0.37384
 C1060 C 0.70241 0.51379 0.39618
 C1061 C 0.71379 0.48594 0.38945
 N1062 N 0.70941 0.47330 0.36019
 N1063 N 0.68880 0.47321 0.30915
 C1064 C 0.67164 0.48551 0.28725
 C1065 C 0.65887 0.51244 0.29449
 N1066 N 0.66496 0.52601 0.32329
 H1067 H 0.70458 0.52447 0.41902
 H1068 H 0.66704 0.47350 0.26499
 C1069 C 0.82312 0.48242 0.66379
 C1070 C 0.84287 0.46286 0.67602
 N1071 N 0.85182 0.44043 0.65788
 C1072 C 0.84199 0.43657 0.62787
 C1073 C 0.82208 0.45600 0.61522
 N1074 N 0.81294 0.47845 0.63371
 N1075 N 0.81435 0.50488 0.68231
 C1076 C 0.82448 0.50861 0.71246
 C1077 C 0.84409 0.48876 0.72475
 N1078 N 0.85267 0.46640 0.70596
 H1079 H 0.84907 0.41793 0.61428
 H1080 H 0.81684 0.52648 0.72663
 C1081 C 0.30255 -0.02283 0.13452
 C1082 C 0.33187 -0.03058 0.14141
 N1083 N 0.34689 -0.04179 0.11887
 C1084 C 0.33370 -0.04620 0.08976
 C1085 C 0.30380 -0.03974 0.08289
 N1086 N 0.28906 -0.02800 0.10561
 N1087 N 0.28763 -0.01139 0.15707
 C1088 C 0.30062 -0.00765 0.18629
 C1089 C 0.32955 -0.01646 0.19339
 N1090 N 0.34455 -0.02759 0.17064
 H1091 H 0.34591 -0.05622 0.07253
 H1092 H 0.28815 0.00123 0.20389
 C1093 C 0.27689 0.04099 0.33541
 C1094 C 0.28532 0.01188 0.33832
 N1095 N 0.27840 -0.00277 0.36251
 C1096 C 0.26414 0.01075 0.38450
 C1097 C 0.25678 0.04050 0.38243
 N1098 N 0.26292 0.05466 0.35751
 N1099 N 0.28468 0.05588 0.31161
 C1100 C 0.30120 0.04326 0.29096
 C1101 C 0.31084 0.01452 0.29454
 N1102 N 0.30208 -0.00050 0.31802
 H1103 H 0.25924 -0.00136 0.40371
 H1104 H 0.30780 0.05627 0.27299
 C1105 C 0.79674 0.56596 0.86084
 C1106 C 0.79450 0.53454 0.86098
 N1107 N 0.77779 0.52104 0.88064
 C1108 C 0.76370 0.53765 0.90074
 C1109 C 0.76705 0.56931 0.90170
 N1110 N 0.78331 0.58257 0.88135
 N1111 N 0.81376 0.57946 0.84142
 C1112 C 0.82926 0.56298 0.82255
 C1113 C 0.82825 0.53158 0.82366
 N1114 N 0.81051 0.51818 0.84272
 H1115 H 0.75139 0.52628 0.91677
 H1116 H 0.84344 0.57451 0.80813
 C1117 C 0.14430 0.66745 0.55861
 C1118 C 0.14764 0.63759 0.56473
 N1119 N 0.12760 0.62283 0.58036
 C1120 C 0.10436 0.63663 0.59042
 C1121 C 0.10119 0.66683 0.58506
 N1122 N 0.12140 0.68155 0.56921
 N1123 N 0.16434 0.68196 0.54264
 C1124 C 0.18774 0.66803 0.53279
 C1125 C 0.19163 0.63843 0.53977
 N1126 N 0.17126 0.62400 0.55551
 H1127 H 0.08909 0.62440 0.60333
 H1128 H 0.20365 0.68030 0.52060
 C1129 C 0.64484 0.15742 1.05793
 C1130 C 0.66430 0.14752 1.08090
 N1131 N 0.65976 0.15336 1.11025
 C1132 C 0.63661 0.16879 1.11784
 C1133 C 0.61682 0.17891 1.09500
 N1134 N 0.62142 0.17273 1.06542
 N1135 N 0.64954 0.15121 1.02854
 C1136 C 0.67276 0.13547 1.02113
 C1137 C 0.69212 0.12522 1.04420
 N1138 N 0.68719 0.13168 1.07352
 H1139 H 0.63334 0.17239 1.14149
 H1140 H 0.67544 0.13044 0.99751
 C1141 C 0.82890 0.16791 0.97845
 C1142 C 0.83524 0.16042 1.00807
 N1143 N 0.86277 0.16890 1.02329
 C1144 C 0.88465 0.18413 1.01010
 C1145 C 0.87905 0.19100 0.97958
 N1146 N 0.85076 0.18278 0.96505
 N1147 N 0.80140 0.15909 0.96306
 C1148 C 0.78005 0.14260 0.97591
 C1149 C 0.78667 0.13418 1.00545
 N1150 N 0.81419 0.14366 1.02078
 H1151 H 0.90594 0.18996 1.02368
 H1152 H 0.75881 0.13515 0.96260
 C1153 C 0.32842 0.68827 0.47029
 C1154 C 0.33632 0.67954 0.49930
 N1155 N 0.36498 0.68588 0.51259
 C1156 C 0.38630 0.70034 0.49807
 C1157 C 0.37875 0.70863 0.46859
 N1158 N 0.34976 0.70239 0.45557
 N1159 N 0.29987 0.68126 0.45677
 C1160 C 0.27896 0.66538 0.47072
 C1161 C 0.28704 0.65565 0.49947
 N1162 N 0.31563 0.66336 0.51303
 H1163 H 0.40908 0.70414 0.50909
 H1164 H 0.25684 0.65929 0.45868
 C1165 C 0.64620 0.80604 0.47715
 C1166 C 0.65598 0.83657 0.47628
 N1167 N 0.63594 0.85611 0.46803
 C1168 C 0.60656 0.84641 0.45958
 C1169 C 0.59675 0.81544 0.45842
 N1170 N 0.61693 0.79612 0.46794
 N1171 N 0.66641 0.78667 0.48597
 C1172 C 0.69609 0.79643 0.49331
 C1173 C 0.70601 0.82669 0.49088
 N1174 N 0.68557 0.84606 0.48273
 H1175 H 0.59129 0.86284 0.45353
 H1176 H 0.71191 0.78055 0.49972
 C1177 C 0.14783 0.30030 -0.02209
 C1178 C 0.16544 0.28839 -0.04346
 N1179 N 0.15245 0.26785 -0.06621
 C1180 C 0.12252 0.25900 -0.06888
 C1181 C 0.10454 0.27190 -0.04838
 N1182 N 0.11771 0.29225 -0.02533
 N1183 N 0.16100 0.32051 0.00092
 C1184 C 0.19086 0.32981 0.00319
 C1185 C 0.20820 0.31910 -0.01907
 N1186 N 0.19499 0.29846 -0.04181
 H1187 H 0.11260 0.24301 -0.08757
 H1188 H 0.20056 0.34657 0.02128
 C1189 C 0.35588 0.28746 0.04913
 C1190 C 0.35784 0.29209 0.01871
 N1191 N 0.38142 0.28296 0.00504
 C1192 C 0.40359 0.26982 0.02061
 C1193 C 0.40228 0.26576 0.05142
 N1194 N 0.37810 0.27442 0.06482
 N1195 N 0.33239 0.29715 0.06275
 C1196 C 0.31093 0.31159 0.04739
 C1197 C 0.31318 0.31684 0.01697
 N1198 N 0.33664 0.30660 0.00354
 H1199 H 0.42209 0.26278 0.00904
 H1200 H 0.29300 0.31959 0.05919
 C1201 C 0.84782 0.77576 0.56205
 C1202 C 0.85180 0.78337 0.53283
 N1203 N 0.87673 0.77630 0.52032
 C1204 C 0.89833 0.76247 0.53596
 C1205 C 0.89513 0.75575 0.56587
 N1206 N 0.86957 0.76238 0.57792
 N1207 N 0.82319 0.78363 0.57480
 C1208 C 0.80271 0.79948 0.55990
 C1209 C 0.80738 0.80843 0.53108
 N1210 N 0.83173 0.79958 0.51823
 H1211 H 0.91838 0.75840 0.52556
 H1212 H 0.78393 0.80608 0.57117
   
