data_POSCAR
  _audit_creation_date              2014-09-24
  _audit_creation_method            'ToBaCCo'
  _symmetry_space_group_name_H-M    'P1'
  _symmetry_Int_Tables_number       1
  _symmetry_cell_setting            triclinic
  loop_
  _symmetry_equiv_pos_as_xyz
 x,y,z
_cell_length_a 27.2491
_cell_length_b 25.5553
_cell_length_c 26.1806
_cell_angle_alpha 89.328500
_cell_angle_beta 90.024600
_cell_angle_gamma 88.851800
loop_
  _atom_site_label
  _atom_site_type_symbol
  _atom_site_fract_x
  _atom_site_fract_y
  _atom_site_fract_z
C1 C 0.22249 0.13239 0.20582
 C2 C 0.20284 0.10160 0.24498
 C3 C 0.16420 0.12074 0.27526
 C4 C 0.14447 0.17125 0.26649
 C5 C 0.16380 0.20306 0.22738
 C6 C 0.20343 0.18357 0.19746
 C7 C 0.25941 0.11216 0.17346
 C8 C 0.27760 0.14295 0.13330
 C9 C 0.26018 0.19437 0.12650
 C10 C 0.22298 0.21464 0.15793
 C11 C 0.20332 0.26458 0.14852
 C12 C 0.16336 0.28369 0.17652
 C13 C 0.14355 0.25326 0.21635
 H14 H 0.21704 0.06212 0.25156
 H15 H 0.11401 0.18532 0.28953
 H16 H 0.27249 0.07203 0.17813
 H17 H 0.27380 0.21761 0.09478
 H18 H 0.21778 0.28834 0.11762
 H19 H 0.11248 0.26815 0.23794
 C20 C -0.22106 0.84532 0.23271
 C21 C -0.20297 0.85226 0.28267
 C22 C -0.15441 0.83702 0.29467
 C23 C -0.12321 0.81828 0.25670
 C24 C -0.14111 0.80901 0.20789
 C25 C -0.19033 0.82173 0.19565
 C26 C -0.27020 0.85732 0.22014
 C27 C -0.28888 0.84473 0.17185
 C28 C -0.25873 0.81945 0.13604
 C29 C -0.20962 0.80705 0.14785
 C30 C -0.18071 0.77595 0.11502
 C31 C -0.13257 0.76123 0.12933
 C32 C -0.11209 0.78111 0.17353
 H33 H -0.22707 0.86671 0.31251
 H34 H -0.08601 0.80608 0.26676
 H35 H -0.29443 0.87463 0.24842
 H36 H -0.27416 0.80762 0.09986
 H37 H -0.19655 0.76038 0.08054
 H38 H -0.07515 0.76868 0.18425
 C39 C -0.22017 0.16746 -0.24064
 C40 C -0.20123 0.15880 -0.28997
 C41 C -0.16104 0.18769 -0.30825
 C42 C -0.14067 0.22570 -0.27734
 C43 C -0.15908 0.23477 -0.22822
 C44 C -0.19898 0.20575 -0.20961
 C45 C -0.25812 0.13672 -0.22077
 C46 C -0.27475 0.14356 -0.17040
 C47 C -0.25444 0.18266 -0.14016
 C48 C -0.21649 0.21386 -0.15938
 C49 C -0.19416 0.25143 -0.12862
 C50 C -0.15405 0.27966 -0.14700
 C51 C -0.13697 0.27133 -0.19688
 H52 H -0.21674 0.12861 -0.31338
 H53 H -0.10942 0.24724 -0.29130
 H54 H -0.27310 0.10565 -0.24353
 H55 H -0.26655 0.18701 -0.10096
 H56 H -0.20707 0.25796 -0.09002
 H57 H -0.10628 0.29339 -0.21136
 C58 C 0.18579 0.88045 -0.19813
 C59 C 0.15089 0.91386 -0.22177
 C60 C 0.10404 0.89549 -0.23298
 C61 C 0.09200 0.84374 -0.22197
 C62 C 0.12623 0.81002 -0.19838
 C63 C 0.17318 0.82844 -0.18584
 C64 C 0.23269 0.89818 -0.18578
 C65 C 0.26643 0.86508 -0.16021
 C66 C 0.25351 0.81356 -0.14753
 C67 C 0.20717 0.79504 -0.16031
 C68 C 0.19376 0.74408 -0.14684
 C69 C 0.14688 0.72606 -0.15920
 C70 C 0.11379 0.75862 -0.18583
 H71 H 0.15989 0.95399 -0.23115
 H72 H 0.05571 0.83003 -0.23141
 H73 H 0.24280 0.93799 -0.19502
 H74 H 0.27951 0.78790 -0.12769
 H75 H 0.21941 0.71873 -0.12618
 H76 H 0.07753 0.74447 -0.19462
 C77 C 0.13408 1.21037 0.81097
 C78 C 0.10574 1.20831 0.76644
 C79 C 0.11945 1.17513 0.72629
 C80 C 0.16168 1.14290 0.73062
 C81 C 0.19067 1.14400 0.77516
 C82 C 0.17654 1.17789 0.81535
 C83 C 0.12166 1.24531 0.85062
 C84 C 0.15144 1.24754 0.89431
 C85 C 0.19269 1.21461 0.89878
 C86 C 0.20555 1.18024 0.85964
 C87 C 0.24811 1.14955 0.86380
 C88 C 0.26397 1.11729 0.82361
 C89 C 0.23449 1.11361 0.77970
 H90 H 0.07354 1.23366 0.76223
 H91 H 0.17247 1.11815 0.69902
 H92 H 0.08952 1.27084 0.84734
 H93 H 0.21541 1.21659 0.93274
 H94 H 0.26989 1.15197 0.89833
 H95 H 0.24647 1.08869 0.74872
 C96 C 0.84994 0.78233 0.76580
 C97 C 0.85459 0.81465 0.72189
 C98 C 0.82637 0.86116 0.71755
 C99 C 0.79609 0.87665 0.75754
 C100 C 0.78952 0.84390 0.79980
 C101 C 0.81565 0.79611 0.80404
 C102 C 0.87693 0.73537 0.77113
 C103 C 0.86938 0.70186 0.81322
 C104 C 0.83338 0.71432 0.84980
 C105 C 0.80579 0.76134 0.84524
 C106 C 0.76667 0.77323 0.87900
 C107 C 0.73898 0.81991 0.87232
 C108 C 0.75356 0.85649 0.83519
 H109 H 0.87835 0.80281 0.69072
 H110 H 0.77423 0.91246 0.75350
 H111 H 0.90362 0.72442 0.74224
 H112 H 0.82659 0.68731 0.88113
 H113 H 0.75621 0.74536 0.90834
 H114 H 0.73369 0.89347 0.83088
 C115 C 0.16028 0.80087 1.24644
 C116 C 0.14354 0.81801 1.29450
 C117 C 0.16943 0.85631 1.32143
 C118 C 0.21204 0.87708 1.30029
 C119 C 0.22938 0.86038 1.25274
 C120 C 0.20365 0.82197 1.22576
 C121 C 0.13360 0.76471 1.21765
 C122 C 0.15010 0.74952 1.16896
 C123 C 0.19386 0.76947 1.14954
 C124 C 0.22059 0.80583 1.17738
 C125 C 0.26300 0.82785 1.15669
 C126 C 0.28840 0.86647 1.18335
 C127 C 0.27145 0.88246 1.23121
 H128 H 0.11000 0.80254 1.31030
 H129 H 0.23129 0.90699 1.32088
 H130 H 0.09922 0.74993 1.23215
 H131 H 0.20587 0.75839 1.11160
 H132 H 0.27566 0.81565 1.11936
 H133 H 0.29108 0.91234 1.25145
 C134 C 0.86476 1.19572 1.17765
 C135 C 0.89737 1.16689 1.20896
 C136 C 0.88456 1.11740 1.22740
 C137 C 0.83892 1.09664 1.21564
 C138 C 0.80593 1.12490 1.18439
 C139 C 0.81905 1.17447 1.16483
 C140 C 0.87713 1.24521 1.15863
 C141 C 0.84470 1.27325 1.12607
 C142 C 0.79992 1.25155 1.11251
 C143 C 0.78661 1.20257 1.13215
 C144 C 0.74152 1.18105 1.11940
 C145 C 0.72833 1.13184 1.13915
 C146 C 0.76035 1.10421 1.17181
 H147 H 0.93278 1.18264 1.21879
 H148 H 0.82939 1.05838 1.23055
 H149 H 0.91221 1.26157 1.16854
 H150 H 0.77531 1.27328 1.08714
 H151 H 0.71674 1.20258 1.09408
 H152 H 0.75001 1.06614 1.18645
 N153 N 0.55552 1.07552 0.91769
 N154 N 0.59839 1.09889 0.91353
 N155 N 0.44924 1.03890 0.88710
 N156 N 0.40895 1.04244 0.85855
 N157 N 0.45228 1.07960 0.91691
 N158 N 0.41502 1.11213 0.90938
 N159 N 0.55357 1.03582 0.88631
 N160 N 0.59501 1.03117 0.86055
 C161 C 0.62197 1.07172 0.87633
 C162 C 0.38873 1.08899 0.87290
 N163 N 0.45187 0.89345 0.94037
 N164 N 0.41318 0.86319 0.94044
 N165 N 0.55261 0.92416 0.90048
 N166 N 0.59058 0.91605 0.87050
 N167 N 0.55534 0.89328 0.94094
 N168 N 0.59562 0.86340 0.93977
 N169 N 0.44976 0.92674 0.90173
 N170 N 0.40957 0.92031 0.87454
 Mn171 Mn 0.50099 0.98131 0.89329
 C172 C 0.38764 0.88026 0.89909
 C173 C 0.61655 0.87815 0.89516
 N174 N 0.44979 1.09091 1.02565
 N175 N 0.40715 1.11576 1.02035
 N176 N 0.55244 1.05719 1.06723
 N177 N 0.59043 1.06587 1.09713
 N178 N 0.55285 1.08872 1.02725
 N179 N 0.59033 1.12031 1.02900
 N180 N 0.44859 1.05881 1.06532
 N181 N 0.40519 1.06169 1.08796
 Mn182 Mn 0.50288 1.08418 0.97192
 C183 C 0.38039 1.09867 1.06035
 C184 C 0.61309 1.10560 1.07261
 N185 N 0.55449 0.90523 1.05103
 N186 N 0.58240 0.86713 1.07066
 N187 N 0.44973 0.94586 1.07985
 N188 N 0.41292 0.94107 1.11246
 N189 N 0.45157 0.90581 1.04883
 N190 N 0.41610 0.87300 1.05883
 N191 N 0.55299 0.94540 1.08203
 N192 N 0.58003 0.93550 1.12305
 Mn193 Mn 0.50361 0.89893 0.99523
 Mn194 Mn 0.50082 1.00211 1.07420
 Cl195 Cl 0.50217 0.99158 0.98373
 C196 C 0.59968 0.88746 1.11448
 C197 C 0.39253 0.89544 1.09836
 N198 N -0.01709 0.43229 -0.07688
 N199 N -0.02076 0.39168 -0.10726
 N200 N -0.05540 0.54795 -0.07259
 N201 N -0.08542 0.58017 -0.09830
 N202 N -0.01459 0.53987 -0.09837
 N203 N -0.01593 0.56553 -0.14230
 N204 N -0.05792 0.43954 -0.05098
 N205 N -0.09035 0.40389 -0.06266
 C206 C -0.06618 0.37401 -0.09706
 C207 C -0.05950 0.59144 -0.14116
 N208 N -0.05259 0.57504 0.07459
 N209 N -0.06364 0.62047 0.09524
 N210 N -0.08053 0.46012 0.05421
 N211 N -0.10677 0.41734 0.05867
 N212 N -0.05429 0.46692 0.09570
 N213 N -0.06192 0.42927 0.12940
 N214 N -0.07860 0.56842 0.03297
 N215 N -0.10861 0.60885 0.02442
 Mn216 Mn -0.06872 0.50414 -0.00911
 C217 C -0.09827 0.64097 0.06337
 C218 C -0.09514 0.39937 0.10611
 N219 N 0.08821 0.54070 -0.07331
 N220 N 0.09835 0.57689 -0.10789
 N221 N 0.11170 0.43956 -0.00998
 N222 N 0.13528 0.39601 0.00368
 N223 N 0.08628 0.43223 -0.05195
 N224 N 0.09257 0.38374 -0.06833
 N225 N 0.11415 0.54747 -0.03168
 N226 N 0.14332 0.58767 -0.03696
 Mn227 Mn 0.03598 0.48612 -0.07557
 C228 C 0.13334 0.60502 -0.08470
 C229 C 0.12387 0.36219 -0.03355
 N230 N 0.04875 0.46683 0.12070
 N231 N 0.04682 0.42963 0.15645
 N232 N 0.09052 0.57063 0.07369
 N233 N 0.11608 0.61412 0.07559
 N234 N 0.04989 0.57585 0.10029
 N235 N 0.04670 0.62277 0.12071
 N236 N 0.08974 0.46252 0.09465
 N237 N 0.11693 0.42311 0.11185
 Mn238 Mn -0.00232 0.52117 0.09842
 Mn239 Mn 0.10206 0.50523 0.03166
 Cl240 Cl 0.01675 0.50422 0.01131
 C241 C 0.09015 0.40328 0.15053
 C242 C 0.08890 0.64562 0.10653
 N243 N 0.89069 0.07558 0.51004
 N244 N 0.85505 0.08404 0.54301
 N245 N 0.95503 0.08273 0.41360
 N246 N 0.96768 0.09697 0.36691
 N247 N 0.92192 0.04609 0.41220
 N248 N 0.91108 0.03445 0.36455
 N249 N 0.92492 0.11088 0.51425
 N250 N 0.91346 0.14367 0.55157
 C251 C 0.86904 0.12687 0.56788
 C252 C 0.93928 0.06734 0.33715
 N253 N 1.08704 0.04943 0.46371
 N254 N 1.12177 0.03713 0.43077
 N255 N 1.02739 0.11395 0.54324
 N256 N 1.02605 0.15745 0.56973
 N257 N 1.05922 0.08010 0.56298
 N258 N 1.08020 0.09966 0.60413
 N259 N 1.05636 0.08452 0.44391
 N260 N 1.06999 0.09685 0.39672
 Mn261 Mn 0.99074 0.09883 0.47869
 C262 C 1.11165 0.06788 0.38985
 C263 C 1.05865 0.14784 0.60759
 N264 N 0.91663 -0.06196 0.44298
 N265 N 0.88848 -0.08378 0.40853
 N266 N 0.91799 -0.06481 0.56287
 N267 N 0.89772 -0.08969 0.60170
 N268 N 0.88636 -0.03226 0.54085
 N269 N 0.84347 -0.03416 0.56404
 N270 N 0.94532 -0.09726 0.46547
 N271 N 0.93668 -0.14423 0.44745
 Mn272 Mn 0.90368 0.00709 0.47608
 C273 C 0.90222 -0.13469 0.41126
 C274 C 0.85158 -0.06945 0.60207
 N275 N 1.05411 -0.02795 0.59297
 N276 N 1.06775 -0.01620 0.63972
 N277 N 1.04699 -0.09504 0.49498
 N278 N 1.05512 -0.13162 0.46064
 N279 N 1.08153 -0.05976 0.49331
 N280 N 1.11401 -0.07185 0.45749
 N281 N 1.01893 -0.06237 0.59388
 N282 N 1.00741 -0.07484 0.64141
 Mn283 Mn 1.07114 0.01029 0.52840
 Mn284 Mn 0.98261 -0.08026 0.52971
 Cl285 Cl 0.98709 0.00901 0.50315
 C286 C 1.03856 -0.04606 0.66906
 C287 C 1.09740 -0.11728 0.43839
 N288 N 1.14611 0.08963 0.31022
 N289 N 1.13225 0.05637 0.34110
 N290 N 0.86075 -0.16737 0.34187
 N291 N 0.87783 -0.17494 0.38490
 N292 N 0.86226 0.17638 0.64381
 N293 N 0.84498 0.14274 0.61376
 N294 N 1.07141 -0.07392 0.74496
 N295 N 1.04010 -0.04656 0.72322
 N296 N 0.30517 1.12219 1.09764
 N297 N 0.32823 1.10440 1.06108
 N298 N 0.31336 0.88478 0.85355
 N299 N 0.34097 0.86062 0.88553
 N300 N 0.66422 0.85122 1.16236
 N301 N 0.61972 0.85551 1.15469
 N302 N 0.69707 1.10814 0.85048
 N303 N 0.67408 1.07167 0.86954
 N304 N 0.14323 0.33318 0.16028
 N305 N 0.10366 0.35508 0.17563
 N306 N -0.13106 0.31721 -0.11507
 N307 N -0.08857 0.33399 -0.12581
 N308 N 0.13049 0.67642 -0.14138
 N309 N 0.15163 0.65283 -0.10428
 N310 N -0.10709 0.71773 0.10756
 N311 N -0.12474 0.68815 0.07391
 N312 N 1.09452 0.17839 0.68354
 N313 N 1.06957 0.18634 0.64485
 N314 N 0.82240 -0.11255 0.67457
 N315 N 0.81404 -0.08604 0.63586
 N316 N 1.15208 -0.12271 0.36891
 N317 N 1.11557 -0.14112 0.39282
 N318 N 0.91528 0.09051 0.25600
 N319 N 0.94417 0.06542 0.28323
 N320 N 0.14196 0.27988 -0.06836
 N321 N 0.13687 0.30788 -0.03063
 N322 N -0.14295 0.32355 0.10585
 N323 N -0.10991 0.35041 0.12671
 N324 N -0.10481 0.65815 -0.18369
 N325 N -0.07883 0.61818 -0.18520
 N326 N 0.12178 0.72281 0.13869
 N327 N 0.09445 0.70106 0.10833
 N328 N 0.31120 1.09110 0.82731
 N329 N 0.34137 1.10920 0.85940
 N330 N 0.33107 0.89035 1.16203
 N331 N 0.35056 0.87278 1.12146
 N332 N 0.68322 1.10852 1.12484
 N333 N 0.65764 1.12805 1.08859
 N334 N 0.69295 0.82859 0.89805
 N335 N 0.66316 0.86120 0.87691
   
