data_POSCAR
  _audit_creation_date              2014-09-24
  _audit_creation_method            'ToBaCCo'
  _symmetry_space_group_name_H-M    'P1'
  _symmetry_Int_Tables_number       1
  _symmetry_cell_setting            triclinic
  loop_
  _symmetry_equiv_pos_as_xyz
 x,y,z
_cell_length_a 18.4312
_cell_length_b 31.2067
_cell_length_c 18.5950
_cell_angle_alpha 90.196100
_cell_angle_beta 89.788800
_cell_angle_gamma 89.872400
loop_
  _atom_site_label
  _atom_site_type_symbol
  _atom_site_fract_x
  _atom_site_fract_y
  _atom_site_fract_z
N1 N 0.12635 0.04555 0.07645
 N2 N 0.17016 0.07861 0.08459
 N3 N 0.07636 -0.04442 0.12735
 N4 N 0.08424 -0.07736 0.17104
 N5 N 0.12713 -0.04466 0.07758
 N6 N 0.17097 -0.07778 0.08600
 N7 N 0.07561 0.04577 0.12623
 N8 N 0.08343 0.07897 0.16965
 C9 C 0.14266 0.09891 0.14298
 C10 C 0.14357 -0.09762 0.14462
 N11 N -0.12989 -0.04503 0.07668
 N12 N -0.17332 -0.07825 0.08492
 N13 N -0.08058 0.04569 0.12561
 N14 N -0.08858 0.07941 0.16809
 N15 N -0.13067 0.04512 0.07562
 N16 N -0.17626 0.08053 0.08373
 N17 N -0.07989 -0.04455 0.12683
 N18 N -0.08787 -0.07743 0.17061
 Mn19 Mn -0.00214 0.00062 0.12738
 C20 C -0.14645 -0.09787 0.14382
 C21 C -0.14734 0.10017 0.14188
 N22 N 0.12842 -0.04552 -0.07731
 N23 N 0.17426 -0.08081 -0.08538
 N24 N 0.07749 0.04406 -0.12871
 N25 N 0.08540 0.07702 -0.17239
 N26 N 0.12741 0.04459 -0.07848
 N27 N 0.17070 0.07791 -0.08658
 N28 N 0.07831 -0.04623 -0.12728
 N29 N 0.08654 -0.07994 -0.16973
 Mn30 Mn 0.12820 -0.00001 -0.00043
 C31 C 0.14545 -0.10052 -0.14348
 C32 C 0.14388 0.09758 -0.14548
 N33 N -0.12943 0.04406 -0.07935
 N34 N -0.17311 0.07724 -0.08773
 N35 N -0.07807 -0.04662 -0.12782
 N36 N -0.08525 -0.08034 -0.17040
 N37 N -0.12891 -0.04606 -0.07819
 N38 N -0.17413 -0.08146 -0.08665
 N39 N -0.07879 0.04367 -0.12925
 N40 N -0.08657 0.07659 -0.17298
 Mn41 Mn -0.13058 -0.00047 -0.00132
 Mn42 Mn -0.00026 -0.00130 -0.12917
 Cl43 Cl -0.00119 -0.00029 -0.00089
 C44 C -0.14574 0.09694 -0.14646
 C45 C -0.14425 -0.10111 -0.14458
 N46 N 0.62923 0.54527 0.57750
 N47 N 0.67214 0.57883 0.58443
 N48 N 0.57869 0.45525 0.62765
 N49 N 0.58542 0.42151 0.66970
 N50 N 0.62905 0.45501 0.57753
 N51 N 0.67138 0.42110 0.58416
 N52 N 0.57884 0.54552 0.62759
 N53 N 0.58615 0.57927 0.66994
 C54 C 0.64480 0.59970 0.64253
 C55 C 0.64370 0.40058 0.64213
 N56 N 0.37221 0.45537 0.57842
 N57 N 0.32973 0.42162 0.58531
 N58 N 0.42261 0.54568 0.62817
 N59 N 0.41540 0.57942 0.67060
 N60 N 0.37224 0.54561 0.57845
 N61 N 0.32941 0.57930 0.58570
 N62 N 0.42254 0.45539 0.62819
 N63 N 0.41563 0.42164 0.67027
 Mn64 Mn 0.50067 0.50047 0.62884
 C65 C 0.35726 0.40094 0.64307
 C66 C 0.35682 0.60003 0.64361
 N67 N 0.62905 0.45459 0.42273
 N68 N 0.67172 0.42081 0.41541
 N69 N 0.57877 0.54483 0.37305
 N70 N 0.58556 0.57851 0.33090
 N71 N 0.62918 0.54488 0.42273
 N72 N 0.67163 0.57863 0.41572
 N73 N 0.57866 0.45462 0.37302
 N74 N 0.58570 0.42088 0.33056
 Mn75 Mn 0.63008 0.49993 0.50013
 C76 C 0.64419 0.40013 0.35747
 C77 C 0.64392 0.59923 0.35796
 N78 N 0.37230 0.54542 0.42371
 N79 N 0.32976 0.57924 0.41690
 N80 N 0.42259 0.45501 0.37358
 N81 N 0.41550 0.42131 0.33117
 N82 N 0.37221 0.45516 0.42365
 N83 N 0.32947 0.42154 0.41665
 N84 N 0.42270 0.54523 0.37363
 N85 N 0.41578 0.57890 0.33143
 Mn86 Mn 0.37130 0.50039 0.50106
 Mn87 Mn 0.50068 0.49992 0.37241
 Cl88 Cl 0.50069 0.50018 0.50062
 C89 C 0.35736 0.59977 0.35888
 C90 C 0.35698 0.40079 0.35852
 C91 C 0.24128 0.30170 0.33553
 C92 C 0.27435 0.28228 0.27585
 C93 C 0.33441 0.30163 0.24324
 C94 C 0.36132 0.34030 0.27012
 C95 C 0.17157 0.13790 0.17195
 C96 C 0.26811 0.34038 0.36251
 C97 C 0.24649 0.24262 0.24784
 C98 C 0.22307 0.20948 0.22412
 C99 C 0.19545 0.17081 0.19609
 C100 C 0.32833 0.36006 0.32995
 H101 H 0.19477 0.28696 0.36117
 H102 H 0.36041 0.28684 0.19704
 H103 H 0.40791 0.35469 0.24413
 H104 H 0.24180 0.35485 0.40879
 C105 C 0.75821 0.69891 0.33523
 C106 C 0.72471 0.71821 0.27613
 C107 C 0.66489 0.69857 0.24380
 C108 C 0.63862 0.65973 0.27039
 C109 C 0.82509 0.86309 0.17280
 C110 C 0.73201 0.66005 0.36191
 C111 C 0.75189 0.75803 0.24839
 C112 C 0.77473 0.79130 0.22482
 C113 C 0.80170 0.83010 0.19691
 C114 C 0.67202 0.64009 0.32964
 H115 H 0.80455 0.71387 0.36064
 H116 H 0.63858 0.71326 0.19805
 H117 H 0.59218 0.64513 0.24463
 H118 H 0.75862 0.64569 0.40776
 C119 C 0.75798 0.30055 0.66348
 C120 C 0.72464 0.28125 0.72282
 C121 C 0.66487 0.30100 0.75578
 C122 C 0.63852 0.33995 0.72958
 C123 C 0.82578 0.13604 0.82466
 C124 C 0.73172 0.33950 0.63719
 C125 C 0.75198 0.24132 0.75015
 C126 C 0.77502 0.20797 0.77332
 C127 C 0.80224 0.16908 0.80081
 C128 C 0.67179 0.35959 0.67009
 H129 H 0.80428 0.28551 0.63757
 H130 H 0.63867 0.28632 0.80173
 H131 H 0.59214 0.35465 0.75582
 H132 H 0.75824 0.35385 0.59115
 C133 C 0.33335 0.69940 0.75866
 C134 C 0.27327 0.71875 0.72621
 C135 C 0.24051 0.69925 0.66677
 C136 C 0.26764 0.66050 0.63987
 C137 C 0.17071 0.86379 0.82981
 C138 C 0.36057 0.66066 0.73184
 C139 C 0.24517 0.75854 0.75404
 C140 C 0.22163 0.79181 0.77759
 C141 C 0.19414 0.83068 0.80553
 C142 C 0.32789 0.64083 0.67223
 H143 H 0.35913 0.71426 0.80467
 H144 H 0.19400 0.71398 0.64124
 H145 H 0.24154 0.64599 0.59376
 H146 H 0.40717 0.64627 0.75768
 C147 C 0.24205 0.30143 0.66503
 C148 C 0.27505 0.28187 0.72418
 C149 C 0.33495 0.30130 0.75682
 C150 C 0.36173 0.34014 0.73051
 C151 C 0.17242 0.13674 0.82570
 C152 C 0.26874 0.34026 0.63864
 C153 C 0.24726 0.24199 0.75155
 C154 C 0.22382 0.20869 0.77464
 C155 C 0.19619 0.16980 0.80199
 C156 C 0.32879 0.36002 0.67121
 H157 H 0.19569 0.28668 0.63933
 H158 H 0.36094 0.28645 0.80260
 H159 H 0.40818 0.35457 0.75651
 H160 H 0.24243 0.35478 0.59276
 C161 C 0.76160 0.69856 0.66501
 C162 C 0.72897 0.71822 0.72473
 C163 C 0.66880 0.69906 0.75756
 C164 C 0.64138 0.66041 0.73088
 C165 C 0.83115 0.86317 0.82838
 C166 C 0.73427 0.65991 0.63825
 C167 C 0.75725 0.75796 0.75244
 C168 C 0.78079 0.79119 0.77594
 C169 C 0.80811 0.83005 0.80394
 C170 C 0.67393 0.64044 0.67100
 H171 H 0.80816 0.71310 0.63913
 H172 H 0.64307 0.71400 0.80378
 H173 H 0.59473 0.64621 0.75706
 H174 H 0.76030 0.64531 0.59193
 C175 C 0.33513 0.69899 0.24425
 C176 C 0.27508 0.71865 0.27692
 C177 C 0.24195 0.69939 0.33644
 C178 C 0.26867 0.66062 0.36316
 C179 C 0.17239 0.86335 0.17369
 C180 C 0.36193 0.66023 0.27088
 C181 C 0.24727 0.75842 0.24913
 C182 C 0.22386 0.79163 0.22561
 C183 C 0.19623 0.83040 0.19776
 C184 C 0.32886 0.64064 0.33054
 H185 H 0.36122 0.71361 0.19818
 H186 H 0.19546 0.71432 0.36217
 H187 H 0.24226 0.64632 0.40931
 H188 H 0.40850 0.64563 0.24482
 C189 C 0.66673 0.30082 0.24184
 C190 C 0.72679 0.28123 0.27394
 C191 C 0.75985 0.30056 0.33341
 C192 C 0.73305 0.33935 0.36064
 C193 C 0.82765 0.13594 0.16875
 C194 C 0.63986 0.33959 0.26898
 C195 C 0.75450 0.24138 0.24569
 C196 C 0.77760 0.20806 0.22173
 C197 C 0.80459 0.16912 0.19331
 C198 C 0.67284 0.35926 0.32860
 H199 H 0.64068 0.28614 0.19583
 H200 H 0.80633 0.28567 0.35871
 H201 H 0.75939 0.35371 0.40675
 H202 H 0.59328 0.35414 0.24335
   
