data_POSCAR
  _audit_creation_date              2014-09-24
  _audit_creation_method            'ToBaCCo'
  _symmetry_space_group_name_H-M    'P1'
  _symmetry_Int_Tables_number       1
  _symmetry_cell_setting            triclinic
  loop_
  _symmetry_equiv_pos_as_xyz
 x,y,z
_cell_length_a 45.5559
_cell_length_b 45.5286
_cell_length_c 45.7225
_cell_angle_alpha 90.060900
_cell_angle_beta 89.632100
_cell_angle_gamma 90.102300
loop_
  _atom_site_label
  _atom_site_type_symbol
  _atom_site_fract_x
  _atom_site_fract_y
  _atom_site_fract_z
N1 N 0.20304 1.19866 0.19662
 N2 N 0.79357 0.80000 0.21024
 N3 N 0.80054 1.20572 -0.20316
 N4 N 0.20405 0.79315 -0.20417
 C5 C 0.54567 1.04059 -0.01823
 H6 H 0.54598 1.04167 0.00540
 C7 C 0.56499 1.05792 -0.03461
 H8 H 0.58020 1.07229 -0.02341
 C9 C 0.52644 1.01938 -0.06143
 H10 H 0.51184 1.00390 -0.07180
 C11 C 0.54553 1.03616 -0.07865
 H12 H 0.54500 1.03383 -0.10221
 N13 N 0.52674 1.02197 -0.03178
 C14 C 0.45647 1.00513 0.03111
 H15 H 0.45642 0.98138 0.03045
 C16 C 0.43501 1.02001 0.04717
 H17 H 0.41857 1.00760 0.05912
 C18 C 0.47755 1.05020 0.01563
 H19 H 0.49363 1.06190 0.00267
 C20 C 0.45673 1.06597 0.03179
 H21 H 0.45706 1.08975 0.03126
 Zn22 Zn 0.50288 0.99770 -0.00783
 N23 N 0.47706 1.02031 0.01563
 C24 C 0.52792 0.97761 0.04541
 N25 N 0.52844 0.97542 0.01575
 C26 C 0.54866 0.95851 0.00172
 C27 C 0.56938 0.94275 0.01759
 C28 C 0.54841 0.96234 0.06218
 C29 C 0.45929 0.98572 -0.04883
 C30 C 0.43987 0.96866 -0.06515
 C31 C 0.46107 0.92513 -0.04378
 C32 C 0.48027 0.94303 -0.02804
 N33 N 0.47910 0.97275 -0.03089
 H34 H 0.51206 0.99168 0.05609
 H35 H 0.54875 0.95745 -0.02192
 H36 H 0.58503 0.92916 0.00593
 H37 H 0.54811 0.96494 0.08572
 H38 H 0.45838 1.00943 -0.05015
 H39 H 0.42396 0.97941 -0.07898
 H40 H 0.46222 0.90152 -0.04122
 H41 H 0.49564 0.93315 -0.01311
 C42 C 0.43491 1.05081 0.04749
 C43 C 0.56519 1.05569 -0.06524
 C44 C 0.44048 0.93795 -0.06256
 C45 C 0.56966 0.94475 0.04826
 C46 C -0.01229 0.54702 1.04776
 H47 H 0.01127 0.54923 1.04549
 C48 C -0.02793 0.56666 1.06532
 H49 H -0.01614 0.58414 1.07623
 C50 C -0.05618 0.52241 1.03473
 H51 H -0.06713 0.50541 1.02241
 C52 C -0.07269 0.54144 1.05229
 H53 H -0.09623 0.53844 1.05370
 N54 N -0.02653 0.52552 1.03284
 C55 C 0.03917 0.45847 1.01467
 H56 H 0.03922 0.45863 0.99101
 C57 C 0.05639 0.43821 1.02968
 H58 H 0.06965 0.42274 1.01740
 C59 C 0.02055 0.47750 1.05935
 H60 H 0.00612 0.49247 1.07079
 C61 C 0.03722 0.45742 1.07523
 H62 H 0.03586 0.45745 1.09888
 Zn63 Zn -0.00341 0.50195 1.00766
 N64 N 0.02174 0.47758 1.02961
 C65 C 0.04829 0.52800 0.98361
 N66 N 0.01843 0.52786 0.98353
 C67 C 0.00308 0.54760 0.96745
 C68 C 0.01773 0.56819 0.95011
 C69 C 0.06386 0.54839 0.96673
 C70 C -0.04165 0.45484 0.99917
 C71 C -0.05815 0.43429 0.98361
 C72 C -0.04509 0.45949 0.93892
 C73 C -0.02860 0.47939 0.95531
 N74 N -0.02730 0.47682 0.98491
 H75 H 0.06012 0.51274 0.99721
 H76 H -0.02066 0.54734 0.96819
 H77 H 0.00500 0.58334 0.93712
 H78 H 0.08760 0.54853 0.96759
 H79 H -0.03977 0.45297 1.02267
 H80 H -0.06869 0.41653 0.99540
 H81 H -0.04608 0.46218 0.91543
 H82 H -0.01659 0.49658 0.94424
 C83 C 0.05526 0.43729 1.06035
 C84 C -0.05860 0.56415 1.06770
 C85 C -0.05996 0.43636 0.95301
 C86 C 0.04857 0.56891 0.94969
 C87 C 1.04589 -0.00715 0.54341
 H88 H 1.04744 0.01651 0.54182
 C89 C 1.06275 -0.02215 0.56387
 H90 H 1.07772 -0.00984 0.57752
 C91 C 1.02419 -0.05168 0.52754
 H92 H 1.00854 -0.06299 0.51388
 C93 C 1.04050 -0.06758 0.54790
 H94 H 1.03719 -0.09106 0.54961
 N95 N 1.02714 -0.02201 0.52572
 C96 C 1.01206 0.04068 0.45519
 H97 H 0.98837 0.04223 0.45589
 C98 C 1.02796 0.05660 0.43434
 H99 H 1.01636 0.07039 0.41899
 C100 C 1.05583 0.01978 0.47354
 H101 H 1.06659 0.00499 0.48845
 C102 C 1.07256 0.03510 0.45289
 H103 H 1.09617 0.03238 0.45253
 Zn104 Zn 1.00304 0.00090 0.50115
 N105 N 1.02614 0.02298 0.47447
 C106 C 0.98035 0.05535 0.52343
 N107 N 0.98093 0.02559 0.52622
 C108 C 0.96690 0.01188 0.54873
 C109 C 0.95179 0.02815 0.56980
 C110 C 0.96499 0.07248 0.54378
 C111 C 0.94812 -0.01970 0.48055
 C112 C 0.92972 -0.03589 0.46226
 C113 C 0.97254 -0.05916 0.44116
 C114 C 0.99014 -0.04234 0.45966
 N115 N 0.97774 -0.02312 0.47886
 H116 H 0.99215 0.06593 0.50579
 H117 H 0.96797 -0.01178 0.55056
 H118 H 0.94101 0.01692 0.58777
 H119 H 0.96493 0.09616 0.54158
 H120 H 0.93875 -0.00393 0.49559
 H121 H 0.90619 -0.03276 0.46371
 H122 H 0.98281 -0.07393 0.42561
 H123 H 1.01378 -0.04422 0.45842
 C124 C 1.05863 0.05381 0.43295
 C125 C 1.05993 -0.05276 0.56661
 C126 C 0.94192 -0.05579 0.44212
 C127 C 0.95084 0.05884 0.56750
 C128 C 0.16008 0.27286 1.15914
 C129 C 0.19085 0.27057 1.15839
 C130 C 0.20487 0.24641 1.17089
 C131 C 0.18847 0.22393 1.18429
 C132 C 0.15771 0.22613 1.18488
 C133 C 0.14368 0.25039 1.17263
 C134 C 0.14512 0.29832 1.14566
 N135 N 0.11602 0.30299 1.15030
 N136 N 0.10244 0.32559 1.13785
 C137 C 0.11735 0.34445 1.12015
 N138 N 0.14646 0.33981 1.11555
 N139 N 0.16007 0.31726 1.12809
 C140 C 0.10198 0.36910 1.10568
 C141 C 0.11578 0.38516 1.08320
 C142 C 0.10076 0.40754 1.06871
 C143 C 0.07175 0.41455 1.07658
 C144 C 0.05817 0.39893 1.09944
 C145 C 0.07306 0.37638 1.11375
 H146 H 0.20415 0.28751 1.14824
 H147 H 0.22861 0.24526 1.17019
 H148 H 0.14449 0.20886 1.19456
 H149 H 0.11994 0.25132 1.17338
 H150 H 0.13803 0.38013 1.07643
 H151 H 0.11184 0.41940 1.05132
 H152 H 0.03571 0.40363 1.10575
 H153 H 0.06180 0.36453 1.13102
 C154 C -0.16444 0.72446 1.17361
 C155 C -0.19511 0.72752 1.17247
 C156 C -0.20885 0.75197 1.18494
 C157 C -0.19224 0.77406 1.19858
 C158 C -0.16158 0.77096 1.19977
 C159 C -0.14786 0.74634 1.18763
 C160 C -0.14974 0.69902 1.15961
 N161 N -0.12125 0.69274 1.16548
 N162 N -0.10776 0.67039 1.15226
 C163 C -0.12215 0.65346 1.13249
 N164 N -0.15068 0.65968 1.12669
 N165 N -0.16422 0.68193 1.14003
 C166 C -0.10673 0.62942 1.11688
 C167 C -0.11869 0.61705 1.09141
 C168 C -0.10332 0.59559 1.07573
 C169 C -0.07574 0.58575 1.08529
 C170 C -0.06422 0.59756 1.11124
 C171 C -0.07944 0.61924 1.12675
 H172 H -0.20854 0.71100 1.16195
 H173 H -0.23251 0.75378 1.18384
 H174 H -0.14817 0.78786 1.20968
 H175 H -0.12417 0.74478 1.18868
 H176 H -0.13960 0.62451 1.08312
 H177 H -0.11269 0.58736 1.05562
 H178 H -0.04334 0.59010 1.11960
 H179 H -0.06976 0.62809 1.14646
 C180 C -0.16284 0.27780 0.84208
 C181 C -0.17852 0.25599 0.85727
 C182 C -0.19079 0.23219 0.84236
 C183 C -0.18809 0.22965 0.81165
 C184 C -0.17260 0.25195 0.79657
 C185 C -0.16011 0.27555 0.81157
 C186 C -0.14881 0.30239 0.85803
 N187 N -0.12837 0.31959 0.84467
 N188 N -0.11516 0.34120 0.85919
 C189 C -0.12192 0.34664 0.88766
 N190 N -0.14252 0.32958 0.90097
 N191 N -0.15564 0.30787 0.88649
 C192 C -0.10667 0.37021 0.90399
 C193 C -0.11731 0.37975 0.93130
 C194 C -0.10246 0.40150 0.94699
 C195 C -0.07644 0.41402 0.93587
 C196 C -0.06593 0.40455 0.90845
 C197 C -0.08094 0.38304 0.89265
 H198 H -0.18075 0.25690 0.88085
 H199 H -0.20157 0.21523 0.85508
 H200 H -0.17041 0.25130 0.77298
 H201 H -0.14836 0.29211 0.79916
 H202 H -0.13721 0.37049 0.94056
 H203 H -0.11148 0.40861 0.96778
 H204 H -0.04570 0.41327 0.89943
 H205 H -0.07201 0.37605 0.87178
 C206 C 0.15685 0.72298 0.83632
 C207 C 0.14230 0.74871 0.82760
 C208 C 0.15768 0.77141 0.81382
 C209 C 0.18796 0.76897 0.80860
 C210 C 0.20251 0.74316 0.81684
 C211 C 0.18709 0.72032 0.83050
 C212 C 0.14064 0.69952 0.85208
 N213 N 0.15341 0.67321 0.85776
 N214 N 0.13893 0.65245 0.87250
 C215 C 0.11112 0.65718 0.88230
 N216 N 0.09835 0.68346 0.87655
 N217 N 0.11277 0.70415 0.86174
 C218 C 0.09511 0.63443 0.89926
 C219 C 0.06855 0.64129 0.91347
 C220 C 0.05355 0.62009 0.92980
 C221 C 0.06460 0.59138 0.93217
 C222 C 0.09112 0.58446 0.91785
 C223 C 0.10625 0.60576 0.90165
 H224 H 0.11902 0.75148 0.83164
 H225 H 0.14607 0.79121 0.80782
 H226 H 0.22585 0.74085 0.81287
 H227 H 0.19898 0.70082 0.83692
 H228 H 0.05944 0.66321 0.91230
 H229 H 0.03351 0.62637 0.94099
 H230 H 0.10005 0.56246 0.91888
 H231 H 0.12658 0.59969 0.89086
 C232 C 1.16684 0.15678 0.27230
 C233 C 1.16766 0.18760 0.27032
 C234 C 1.18016 0.20132 0.24588
 C235 C 1.19176 0.18456 0.22273
 C236 C 1.19148 0.15378 0.22501
 C237 C 1.17927 0.14006 0.24954
 C238 C 1.15236 0.14209 0.29747
 N239 N 1.15522 0.11269 0.30156
 N240 N 1.14140 0.09925 0.32355
 C241 C 1.12401 0.11460 0.34233
 N242 N 1.12125 0.14403 0.33833
 N243 N 1.13516 0.15750 0.31639
 C244 C 1.10788 0.09939 0.36618
 C245 C 1.08575 0.11396 0.38211
 C246 C 1.06983 0.09921 0.40385
 C247 C 1.07588 0.06969 0.41033
 C248 C 1.09826 0.05526 0.39473
 C249 C 1.11401 0.06989 0.37283
 H250 H 1.15852 0.20114 0.28759
 H251 H 1.18050 0.22508 0.24487
 H252 H 1.20010 0.14028 0.20746
 H253 H 1.17896 0.11629 0.25031
 H254 H 1.08044 0.13666 0.37754
 H255 H 1.05287 0.11095 0.41573
 H256 H 1.10319 0.03241 0.39905
 H257 H 1.13091 0.05802 0.36102
 C258 C 1.16496 -0.16082 0.72484
 C259 C 1.17589 -0.14547 0.74917
 C260 C 1.18905 -0.16051 0.77221
 C261 C 1.19151 -0.19122 0.77148
 C262 C 1.18074 -0.20663 0.74721
 C263 C 1.16771 -0.19159 0.72403
 C264 C 1.15029 -0.14483 0.70080
 N265 N 1.14272 -0.15879 0.67566
 N266 N 1.12912 -0.14441 0.65431
 C267 C 1.12241 -0.11548 0.65726
 N268 N 1.13003 -0.10154 0.68237
 N269 N 1.14370 -0.11588 0.70365
 C270 C 1.10676 -0.09949 0.63384
 C271 C 1.09570 -0.07115 0.63904
 C272 C 1.08058 -0.05611 0.61726
 C273 C 1.07632 -0.06887 0.58959
 C274 C 1.08748 -0.09718 0.58432
 C275 C 1.10247 -0.11235 0.60622
 H276 H 1.17416 -0.12179 0.75053
 H277 H 1.19691 -0.14825 0.79091
 H278 H 1.18242 -0.23033 0.74629
 H279 H 1.15947 -0.20410 0.70568
 H280 H 1.09838 -0.06066 0.66012
 H281 H 1.07177 -0.03461 0.62232
 H282 H 1.08491 -0.10752 0.56315
 H283 H 1.11083 -0.13409 0.60144
 C284 C 0.82902 -0.15835 0.28604
 C285 C 0.81814 -0.14151 0.26276
 C286 C 0.80616 -0.15513 0.23818
 C287 C 0.80450 -0.18591 0.23640
 C288 C 0.81452 -0.20273 0.26006
 C289 C 0.82683 -0.18912 0.28454
 C290 C 0.84348 -0.14385 0.31117
 N291 N 0.85999 -0.15957 0.33020
 N292 N 0.87411 -0.14628 0.35196
 C293 C 0.87223 -0.11673 0.35569
 N294 N 0.85548 -0.10108 0.33684
 N295 N 0.84146 -0.11434 0.31502
 C296 C 0.88895 -0.10169 0.37906
 C297 C 0.88361 -0.07198 0.38559
 C298 C 0.90036 -0.05732 0.40654
 C299 C 0.92300 -0.07195 0.42127
 C300 C 0.92808 -0.10175 0.41512
 C301 C 0.91113 -0.11652 0.39434
 H302 H 0.81956 -0.11777 0.26314
 H303 H 0.79882 -0.14160 0.22021
 H304 H 0.81313 -0.22647 0.25940
 H305 H 0.83478 -0.20273 0.30220
 H306 H 0.86666 -0.05991 0.37429
 H307 H 0.89615 -0.03427 0.41063
 H308 H 0.94522 -0.11362 0.42635
 H309 H 0.91584 -0.13939 0.38985
 C310 C 0.84653 0.16873 0.72556
 C311 C 0.86165 0.17890 0.75024
 C312 C 0.84650 0.19175 0.77358
 C313 C 0.81564 0.19433 0.77314
 C314 C 0.80061 0.18430 0.74814
 C315 C 0.81590 0.17191 0.72457
 C316 C 0.86260 0.15402 0.70146
 N317 N 0.85070 0.15164 0.67438
 N318 N 0.86499 0.13771 0.65297
 C319 C 0.89165 0.12539 0.65785
 N320 N 0.90355 0.12782 0.68490
 N321 N 0.88937 0.14193 0.70622
 C322 C 0.90713 0.10894 0.63451
 C323 C 0.92825 0.08776 0.64180
 C324 C 0.94234 0.07150 0.61997
 C325 C 0.93600 0.07643 0.59039
 C326 C 0.91532 0.09795 0.58297
 C327 C 0.90076 0.11387 0.60487
 H328 H 0.88528 0.17681 0.75161
 H329 H 0.85884 0.19868 0.79255
 H330 H 0.77698 0.18634 0.74676
 H331 H 0.80364 0.16424 0.70584
 H332 H 0.93355 0.08339 0.66443
 H333 H 0.95839 0.05516 0.62617
 H334 H 0.91005 0.10203 0.56027
 H335 H 0.88467 0.13013 0.59861
 C336 C 0.27432 1.15832 0.15126
 C337 C 0.24782 1.16423 0.13681
 C338 C 0.22469 1.17800 0.15157
 C339 C 0.22745 1.18573 0.18111
 C340 C 0.25386 1.17998 0.19560
 C341 C 0.27721 1.16661 0.18074
 C342 C 0.29848 1.14302 0.13577
 N343 N 0.32643 1.14422 0.14589
 N344 N 0.34804 1.13011 0.13203
 C345 C 0.34252 1.11403 0.10762
 N346 N 0.31457 1.11282 0.09754
 N347 N 0.29303 1.12709 0.11127
 C348 C 0.36632 1.09789 0.09242
 C349 C 0.35959 1.07445 0.07358
 C350 C 0.38193 1.05902 0.05928
 C351 C 0.41144 1.06698 0.06316
 C352 C 0.41823 1.09054 0.08177
 C353 C 0.39589 1.10570 0.09650
 H354 H 0.24495 1.15823 0.11409
 H355 H 0.20436 1.18213 0.14014
 H356 H 0.25627 1.18584 0.21842
 H357 H 0.29730 1.16224 0.19249
 H358 H 0.33704 1.06784 0.07005
 H359 H 0.37613 1.04109 0.04482
 H360 H 0.44085 1.09699 0.08517
 H361 H 0.40174 1.12372 0.11080
 C362 C 0.72404 1.16388 -0.17111
 C363 C 0.74641 1.14756 -0.18470
 C364 C 0.77148 1.16143 -0.19571
 C365 C 0.77500 1.19221 -0.19360
 C366 C 0.75188 1.20855 -0.18086
 C367 C 0.72690 1.19457 -0.16962
 C368 C 0.69847 1.14878 -0.15765
 N369 N 0.67980 1.16341 -0.13951
 N370 N 0.65771 1.14942 -0.12628
 C371 C 0.65329 1.12023 -0.13068
 N372 N 0.67177 1.10570 -0.14906
 N373 N 0.69390 1.11965 -0.16221
 C374 C 0.62958 1.10429 -0.11496
 C375 C 0.62323 1.07486 -0.12187
 C376 C 0.60193 1.05931 -0.10611
 C377 C 0.58662 1.07275 -0.08295
 C378 C 0.59261 1.10229 -0.07630
 C379 C 0.61377 1.11793 -0.09220
 H380 H 0.74499 1.12386 -0.18615
 H381 H 0.78873 1.14781 -0.20481
 H382 H 0.75309 1.23227 -0.17964
 H383 H 0.70987 1.20784 -0.15962
 H384 H 0.63494 1.06367 -0.13928
 H385 H 0.59801 1.03649 -0.11154
 H386 H 0.58092 1.11329 -0.05875
 H387 H 0.61809 1.14056 -0.08630
 C388 C 0.28085 0.82811 -0.16367
 C389 C 0.27802 0.82832 -0.19428
 C390 C 0.25321 0.81625 -0.20754
 C391 C 0.23054 0.80393 -0.19052
 C392 C 0.23360 0.80330 -0.15995
 C393 C 0.25851 0.81512 -0.14670
 C394 C 0.30638 0.84225 -0.14944
 N395 N 0.31119 0.83875 -0.12037
 N396 N 0.33343 0.85240 -0.10731
 C397 C 0.35176 0.87023 -0.12274
 N398 N 0.34707 0.87359 -0.15186
 N399 N 0.32489 0.85985 -0.16494
 C400 C 0.37563 0.88649 -0.10789
 C401 C 0.39084 0.90915 -0.12240
 C402 C 0.41217 0.92559 -0.10782
 C403 C 0.41896 0.91957 -0.07852
 C404 C 0.40429 0.89648 -0.06421
 C405 C 0.38279 0.88019 -0.07869
 H406 H 0.29490 0.83799 -0.20801
 H407 H 0.25153 0.81678 -0.23114
 H408 H 0.21636 0.79430 -0.14622
 H409 H 0.25990 0.81469 -0.12307
 H410 H 0.38589 0.91458 -0.14488
 H411 H 0.42335 0.94309 -0.11946
 H412 H 0.40888 0.89154 -0.04153
 H413 H 0.37156 0.86286 -0.06687
 C414 C 0.72506 0.84127 0.16224
 C415 C 0.72187 0.83612 0.19244
 C416 C 0.74428 0.82249 0.20816
 C417 C 0.77017 0.81355 0.19397
 C418 C 0.77331 0.81844 0.16382
 C419 C 0.75104 0.83220 0.14813
 C420 C 0.70168 0.85629 0.14553
 N421 N 0.70654 0.86491 0.11749
 N422 N 0.68575 0.87864 0.10246
 C423 C 0.65914 0.88429 0.11477
 N424 N 0.65422 0.87560 0.14280
 N425 N 0.67507 0.86193 0.15788
 C426 C 0.63613 0.89973 0.09793
 C427 C 0.60729 0.90202 0.10881
 C428 C 0.58568 0.91652 0.09273
 C429 C 0.59246 0.92919 0.06546
 C430 C 0.62137 0.92703 0.05472
 C431 C 0.64288 0.91241 0.07069
 H432 H 0.70219 0.84286 0.20400
 H433 H 0.74150 0.81884 0.23141
 H434 H 0.79323 0.81192 0.15254
 H435 H 0.75425 0.83577 0.12492
 H436 H 0.60130 0.89240 0.12966
 H437 H 0.56357 0.91746 0.10148
 H438 H 0.62754 0.93703 0.03411
 H439 H 0.66491 0.91129 0.06173
   
