data_POSCAR
  _audit_creation_date              2014-09-24
  _audit_creation_method            'ToBaCCo'
  _symmetry_space_group_name_H-M    'P1'
  _symmetry_Int_Tables_number       1
  _symmetry_cell_setting            triclinic
  loop_
  _symmetry_equiv_pos_as_xyz
 x,y,z
_cell_length_a 36.8297
_cell_length_b 36.8685
_cell_length_c 36.7922
_cell_angle_alpha 90.120900
_cell_angle_beta 90.133400
_cell_angle_gamma 90.230400
loop_
  _atom_site_label
  _atom_site_type_symbol
  _atom_site_fract_x
  _atom_site_fract_y
  _atom_site_fract_z
C1 C 0.25035 0.49976 0.99987
 C2 C 0.75017 0.50136 0.00020
 C3 C 0.00006 0.24971 0.50049
 C4 C 0.99892 0.74974 0.49961
 C5 C 0.49835 0.00191 0.24990
 C6 C 0.50100 -0.00123 0.75008
 C7 C 0.30478 0.02834 0.45664
 H8 H 0.30575 0.04915 0.47741
 C9 C 0.32935 0.02927 0.42783
 H10 H 0.34935 0.05084 0.42676
 C11 C 0.27861 -0.02605 0.43404
 H12 H 0.25927 -0.04794 0.43692
 C13 C 0.30272 -0.02621 0.40479
 H14 H 0.30115 -0.04795 0.38501
 N15 N 0.28000 0.00104 0.45917
 C16 C 0.19474 0.04320 0.52914
 H17 H 0.19459 0.02234 0.54978
 C18 C 0.16938 0.07113 0.53047
 H19 H 0.15011 0.07190 0.55263
 C20 C 0.21991 0.06702 0.47494
 H21 H 0.23905 0.06479 0.45286
 C22 C 0.19494 0.09549 0.47519
 H23 H 0.19517 0.11495 0.45320
 Zn24 Zn 0.24975 0.00043 0.50065
 N25 N 0.21931 0.04160 0.50169
 C26 C 0.27979 0.02682 0.56699
 N27 N 0.28049 -0.00034 0.54191
 C28 C 0.30492 -0.02777 0.54431
 C29 C 0.32987 -0.02875 0.57291
 C30 C 0.30429 0.02693 0.59603
 C31 C 0.19376 -0.04193 0.47256
 C32 C 0.16801 -0.06974 0.47135
 C33 C 0.19393 -0.09437 0.52636
 C34 C 0.21927 -0.06602 0.52651
 N35 N 0.21869 -0.04054 0.49982
 H36 H 0.26072 0.04881 0.56422
 H37 H 0.30534 -0.04863 0.52359
 H38 H 0.34960 -0.05042 0.57386
 H39 H 0.30327 0.04872 0.61576
 H40 H 0.19364 -0.02103 0.45196
 H41 H 0.14848 -0.07037 0.44932
 H42 H 0.19420 -0.11390 0.54829
 H43 H 0.23871 -0.06394 0.54844
 C44 C 0.16896 0.09755 0.50302
 C45 C 0.32867 0.00161 0.40151
 C46 C 0.16761 -0.09624 0.49871
 C47 C 0.32992 -0.00102 0.59915
 C48 C 0.69533 0.02706 0.54361
 H49 H 0.69464 0.04783 0.52290
 C50 C 0.67068 0.02810 0.57235
 H51 H 0.65092 0.04974 0.57342
 C52 C 0.72076 -0.02744 0.56607
 H53 H 0.73981 -0.04942 0.56316
 C54 C 0.69657 -0.02747 0.59526
 H55 H 0.69782 -0.04921 0.61495
 N56 N 0.71973 -0.00039 0.54101
 C57 C 0.80569 0.04072 0.47093
 H58 H 0.80558 0.01976 0.45029
 C59 C 0.83125 0.06868 0.46944
 H60 H 0.85042 0.06935 0.44719
 C61 C 0.78086 0.06489 0.52514
 H62 H 0.76172 0.06283 0.54724
 C63 C 0.80602 0.09338 0.52473
 H64 H 0.80595 0.11301 0.54666
 Zn65 Zn 0.74978 -0.00140 0.49939
 N66 N 0.78114 0.03933 0.49842
 C67 C 0.72020 0.02536 0.43317
 N68 N 0.71874 -0.00157 0.45834
 C69 C 0.69335 -0.02837 0.45621
 C70 C 0.66822 -0.02894 0.42776
 C71 C 0.69555 0.02586 0.40426
 C72 C 0.80489 -0.04518 0.52668
 C73 C 0.82933 -0.07398 0.52765
 C74 C 0.80167 -0.09782 0.47294
 C75 C 0.77769 -0.06853 0.47304
 N76 N 0.77967 -0.04302 0.49975
 H77 H 0.74004 0.04686 0.43573
 H78 H 0.69234 -0.04904 0.47701
 H79 H 0.64776 -0.05010 0.42700
 H80 H 0.69721 0.04745 0.38442
 H81 H 0.80631 -0.02412 0.54716
 H82 H 0.84968 -0.07473 0.54891
 H83 H 0.79967 -0.11791 0.45152
 H84 H 0.75797 -0.06596 0.45145
 C85 C 0.83186 0.09535 0.49676
 C86 C 0.67091 0.00043 0.59853
 C87 C 0.82806 -0.10071 0.50042
 C88 C 0.66898 -0.00145 0.40139
 C89 C 0.47136 0.19584 1.04420
 H90 H 0.45091 0.19443 1.02309
 C91 C 0.47022 0.17155 1.07322
 H92 H 0.44886 0.15132 1.07409
 C93 C 0.52515 0.22278 1.06745
 H94 H 0.54692 0.24228 1.06473
 C95 C 0.52509 0.19897 1.09694
 H96 H 0.54652 0.20093 1.11705
 N97 N 0.49849 0.22082 1.04186
 C98 C 0.45634 0.30408 0.96951
 H99 H 0.47725 0.30386 0.94891
 C100 C 0.42826 0.32928 0.96757
 H101 H 0.42743 0.34802 0.94497
 C102 C 0.43260 0.28018 1.02432
 H103 H 0.43495 0.26166 1.04689
 C104 C 0.40402 0.30500 1.02347
 H105 H 0.38462 0.30527 1.04553
 Zn106 Zn 0.49957 0.25033 0.99988
 N107 N 0.45807 0.28026 0.99759
 C108 C 0.47477 0.21834 0.93374
 N109 N 0.50150 0.21880 0.95932
 C110 C 0.52939 0.19479 0.95815
 C111 C 0.53123 0.16901 0.93041
 C112 C 0.47554 0.19297 0.90549
 C113 C 0.54109 0.30703 1.02785
 C114 C 0.56883 0.33286 1.02922
 C115 C 0.59452 0.30635 0.97500
 C116 C 0.56623 0.28096 0.97468
 N117 N 0.54028 0.28175 1.00092
 H118 H 0.45233 0.23700 0.93566
 H119 H 0.55001 0.19545 0.97914
 H120 H 0.55376 0.15024 0.92992
 H121 H 0.45356 0.19243 0.88590
 H122 H 0.51983 0.30732 1.04809
 H123 H 0.56903 0.35263 1.05102
 H124 H 0.61445 0.30587 0.95342
 H125 H 0.56460 0.26125 0.95297
 C126 C 0.40187 0.33031 0.99505
 C127 C 0.49749 0.17274 1.09997
 C128 C 0.59586 0.33297 1.00236
 C129 C 0.50388 0.16763 0.90376
 C130 C 0.47264 0.80402 -0.04498
 H131 H 0.45191 0.80505 -0.02422
 C132 C 0.47162 0.82830 -0.07401
 H133 H 0.45005 0.84813 -0.07525
 C134 C 0.52703 0.77812 -0.06726
 H135 H 0.54899 0.75906 -0.06414
 C136 C 0.52709 0.80194 -0.09674
 H137 H 0.54881 0.80041 -0.11645
 N138 N 0.50003 0.77958 -0.04213
 C139 C 0.45826 0.69547 0.02974
 H140 H 0.47902 0.69601 0.05059
 C141 C 0.43022 0.66999 0.03147
 H142 H 0.42929 0.65133 0.05414
 C143 C 0.43473 0.71900 -0.02534
 H144 H 0.43710 0.73755 -0.04790
 C145 C 0.40619 0.69391 -0.02470
 H146 H 0.38685 0.69345 -0.04690
 Zn147 Zn 0.50104 0.75028 -0.00000
 N148 N 0.46003 0.71930 0.00166
 C149 C 0.47493 0.78171 0.06575
 N150 N 0.50175 0.78211 0.04039
 C151 C 0.52893 0.80712 0.04166
 C152 C 0.52998 0.83305 0.06932
 C153 C 0.47491 0.80720 0.09392
 C154 C 0.54449 0.69463 -0.02667
 C155 C 0.57329 0.67019 -0.02750
 C156 C 0.59741 0.69834 0.02683
 C157 C 0.56813 0.72233 0.02658
 N158 N 0.54250 0.72014 -0.00003
 H159 H 0.45304 0.76223 0.06375
 H160 H 0.54963 0.80712 0.02085
 H161 H 0.55198 0.85261 0.06991
 H162 H 0.45290 0.80700 0.11338
 H163 H 0.52334 0.69306 -0.04708
 H164 H 0.57395 0.64965 -0.04857
 H165 H 0.61763 0.70054 0.04814
 H166 H 0.56568 0.74226 0.04797
 C167 C 0.40389 0.66872 0.00381
 C168 C 0.49926 0.82766 -0.10024
 C169 C 0.60019 0.67174 -0.00041
 C170 C 0.50255 0.83352 0.09578
 C171 C 1.04531 0.47095 0.19550
 H172 H 1.02448 0.45018 0.19476
 C173 C 1.07399 0.46984 0.17079
 H174 H 1.07489 0.44816 0.15093
 C175 C 1.06811 0.52551 0.22113
 H176 H 1.06535 0.54755 0.24029
 C177 C 1.09725 0.52548 0.19690
 H178 H 1.11705 0.54723 0.19820
 N179 N 1.04289 0.49847 0.22001
 C180 C 0.97259 0.45770 0.30594
 H181 H 0.95199 0.47854 0.30578
 C182 C 0.97112 0.42998 0.33164
 H183 H 0.94890 0.42936 0.35084
 C184 C 1.02676 0.43363 0.28119
 H185 H 1.04885 0.43565 0.26205
 C186 C 1.02636 0.40538 0.30648
 H187 H 1.04828 0.38590 0.30649
 Zn188 Zn 1.00128 0.49960 0.25003
 N189 N 1.00007 0.45903 0.28139
 C190 C 0.93466 0.47312 0.22039
 N191 N 0.96033 0.49972 0.21889
 C192 C 0.95861 0.52645 0.19356
 C193 C 0.93001 0.52742 0.16865
 C194 C 0.90558 0.47303 0.19594
 C195 C 1.02850 0.54390 0.30533
 C196 C 1.02928 0.57283 0.32984
 C197 C 0.97469 0.59606 0.30194
 C198 C 0.97498 0.56667 0.27791
 N199 N 1.00170 0.54138 0.27997
 H200 H 0.93689 0.45167 0.24020
 H201 H 0.97978 0.54685 0.19254
 H202 H 0.92952 0.54860 0.14832
 H203 H 0.88530 0.45177 0.19766
 H204 H 1.04900 0.52302 0.30682
 H205 H 1.05042 0.57386 0.35032
 H206 H 0.95325 0.61595 0.29986
 H207 H 0.95347 0.56382 0.25811
 C208 C 0.99844 0.40351 0.33237
 C209 C 1.10031 0.49753 0.17109
 C210 C 1.00199 0.59930 0.32850
 C211 C 0.90304 0.50040 0.16956
 C212 C -0.04350 0.47294 0.80624
 H213 H -0.02253 0.45250 0.80741
 C214 C -0.07207 0.47211 0.83107
 H215 H -0.07274 0.45102 0.85149
 C216 C -0.06692 0.52624 0.77918
 H217 H -0.06448 0.54765 0.75934
 C218 C -0.09596 0.52648 0.80353
 H219 H -0.11602 0.54779 0.80167
 N220 N -0.04151 0.49962 0.78087
 C221 C 0.02670 0.45569 0.69493
 H222 H 0.04722 0.47672 0.69360
 C223 C 0.02757 0.42673 0.67048
 H224 H 0.04881 0.42582 0.65021
 C225 C -0.02696 0.43257 0.72191
 H226 H -0.04853 0.43529 0.74154
 C227 C -0.02716 0.40314 0.69791
 H228 H -0.04862 0.38309 0.69982
 Zn229 Zn -0.00048 0.49981 0.75002
 N230 N -0.00019 0.45804 0.72006
 C231 C 0.06614 0.47400 0.77927
 N232 N 0.04111 0.50101 0.78029
 C233 C 0.04375 0.52853 0.80481
 C234 C 0.07248 0.52969 0.82961
 C235 C 0.09533 0.47408 0.80357
 C236 C -0.02880 0.54157 0.69388
 C237 C -0.03012 0.56930 0.66819
 C238 C 0.02511 0.59418 0.69379
 C239 C 0.02536 0.56592 0.71906
 N240 N -0.00140 0.54037 0.71865
 H241 H 0.06321 0.45195 0.76011
 H242 H 0.02306 0.54928 0.80549
 H243 H 0.07357 0.55138 0.84946
 H244 H 0.11499 0.45237 0.80232
 H245 H -0.04946 0.52062 0.69388
 H246 H -0.05229 0.56981 0.64882
 H247 H 0.04707 0.61379 0.69395
 H248 H 0.04738 0.56400 0.73838
 C249 C 0.00029 0.40004 0.67165
 C250 C -0.09873 0.49923 0.83002
 C251 C -0.00274 0.59592 0.66768
 C252 C 0.09863 0.50205 0.82938
 C253 C 0.08604 0.17930 0.50147
 C254 C 0.12172 0.18844 0.49204
 C255 C 0.14886 0.16194 0.49259
 C256 C 0.03239 0.22668 0.50037
 C257 C 0.10458 0.11725 0.51207
 C258 C 0.07759 0.14369 0.51147
 C259 C 0.05762 0.20593 0.50066
 C260 C 0.14056 0.12603 0.50268
 H261 H 0.12854 0.21595 0.48425
 H262 H 0.17636 0.16958 0.48551
 H263 H 0.09714 0.08976 0.51930
 H264 H 0.05001 0.13628 0.51861
 C265 C 0.68333 0.59026 0.00056
 C266 C 0.67291 0.60634 -0.03224
 C267 C 0.64649 0.63346 -0.03251
 C268 C 0.72781 0.53414 0.00037
 C269 C 0.64137 0.62905 0.03301
 C270 C 0.66778 0.60191 0.03320
 C271 C 0.70815 0.56022 0.00048
 C272 C 0.63007 0.64480 0.00008
 H273 H 0.68471 0.59745 -0.05768
 H274 H 0.63870 0.64539 -0.05823
 H275 H 0.62893 0.63682 0.05848
 H276 H 0.67544 0.58943 0.05871
 C277 C 0.90993 -0.18347 0.49962
 C278 C 0.89842 -0.16780 0.46698
 C279 C 0.87116 -0.14153 0.46711
 C280 C 0.96615 -0.22785 0.49974
 C281 C 0.86632 -0.14700 0.53257
 C282 C 0.89358 -0.17328 0.53236
 C283 C 0.94004 -0.20821 0.49973
 C284 C 0.85511 -0.13048 0.49998
 H285 H 0.91110 -0.17528 0.44151
 H286 H 0.86351 -0.12900 0.44165
 H287 H 0.85419 -0.13940 0.55824
 H288 H 0.90235 -0.18518 0.55780
 C289 C 0.32048 0.41361 0.99638
 C290 C 0.35596 0.42165 0.98550
 C291 C 0.38224 0.39449 0.98478
 C292 C 0.27347 0.46753 0.99886
 C293 C 0.33761 0.35085 1.00575
 C294 C 0.31129 0.37815 1.00643
 C295 C 0.29412 0.44225 0.99783
 C296 C 0.37343 0.35877 0.99496
 H297 H 0.36343 0.44906 0.97789
 H298 H 0.40968 0.40165 0.97699
 H299 H 0.32993 0.32356 1.01345
 H300 H 0.28388 0.37164 1.01493
 C301 C 0.91456 0.17802 0.49766
 C302 C 0.87890 0.18680 0.50726
 C303 C 0.85184 0.16001 0.50684
 C304 C 0.96801 0.22606 0.49957
 C305 C 0.89613 0.11572 0.48710
 C306 C 0.92305 0.14247 0.48755
 C307 C 0.94293 0.20493 0.49876
 C308 C 0.86019 0.12414 0.49676
 H309 H 0.87205 0.21425 0.51516
 H310 H 0.82437 0.16739 0.51410
 H311 H 0.90360 0.08828 0.47983
 H312 H 0.95063 0.13533 0.48031
 C313 C 0.32166 0.58557 0.00280
 C314 C 0.31283 0.62097 -0.00756
 C315 C 0.33945 0.64819 -0.00702
 C316 C 0.27394 0.53185 0.00069
 C317 C 0.38366 0.60461 0.01441
 C318 C 0.35708 0.57751 0.01384
 C319 C 0.29494 0.55702 0.00155
 C320 C 0.37520 0.64027 0.00394
 H321 H 0.28548 0.62749 -0.01616
 H322 H 0.33203 0.67545 -0.01492
 H323 H 0.41103 0.59745 0.02236
 H324 H 0.36426 0.55015 0.02169
 C325 C 0.08417 -0.17816 0.49994
 C326 C 0.07584 -0.14249 0.49026
 C327 C 0.10298 -0.11596 0.48983
 C328 C 0.03070 -0.22622 0.50024
 C329 C 0.14714 -0.16069 0.50886
 C330 C 0.11987 -0.18726 0.50925
 C331 C 0.05572 -0.20501 0.50033
 C332 C 0.13898 -0.12474 0.49906
 H333 H 0.04827 -0.13511 0.48318
 H334 H 0.09566 -0.08844 0.48280
 H335 H 0.17465 -0.16833 0.51580
 H336 H 0.12660 -0.21483 0.51676
 C337 C 0.67789 0.41630 1.00137
 C338 C 0.68714 0.38053 0.99269
 C339 C 0.66054 0.35328 0.99306
 C340 C 0.72601 0.46969 1.00037
 C341 C 0.61549 0.39763 1.01086
 C342 C 0.64205 0.42474 1.01045
 C343 C 0.70474 0.44473 1.00071
 C344 C 0.62440 0.36156 1.00220
 H345 H 0.71483 0.37371 0.98563
 H346 H 0.66829 0.32572 0.98659
 H347 H 0.58784 0.40502 1.01738
 H348 H 0.63457 0.45238 1.01702
 C349 C 0.49843 0.09097 1.18306
 C350 C 0.53099 0.10244 1.16720
 C351 C 0.53080 0.12965 1.14080
 C352 C 0.49836 0.03474 1.22754
 C353 C 0.46544 0.13451 1.14652
 C354 C 0.46571 0.10729 1.17293
 C355 C 0.49838 0.06087 1.20787
 C356 C 0.49795 0.14569 1.12983
 H357 H 0.55643 0.08976 1.17461
 H358 H 0.55620 0.13726 1.12813
 H359 H 0.43979 0.14664 1.13897
 H360 H 0.44033 0.09854 1.18497
 C361 C -0.00172 0.67788 0.58469
 C362 C -0.01173 0.64222 0.57620
 C363 C -0.01215 0.61569 0.60321
 C364 C -0.00089 0.72584 0.53138
 C365 C 0.00750 0.66040 0.64755
 C366 C 0.00788 0.68697 0.62041
 C367 C -0.00109 0.70469 0.55634
 C368 C -0.00257 0.62444 0.63922
 H369 H -0.01902 0.63485 0.54859
 H370 H -0.01941 0.58817 0.59575
 H371 H 0.01469 0.66803 0.67508
 H372 H 0.01566 0.71452 0.62727
 C373 C 0.50066 0.90973 -0.18303
 C374 C 0.46794 0.89281 -0.17360
 C375 C 0.46754 0.86550 -0.14728
 C376 C 0.50083 0.96598 -0.22748
 C377 C 0.53275 0.87146 -0.14029
 C378 C 0.53308 0.89877 -0.16658
 C379 C 0.50072 0.93986 -0.20781
 C380 C 0.49990 0.85481 -0.13001
 H381 H 0.44267 0.90117 -0.18610
 H382 H 0.44189 0.85291 -0.14027
 H383 H 0.55804 0.86425 -0.12715
 H384 H 0.55852 0.91190 -0.17347
 C385 C 0.99923 0.32165 0.41547
 C386 C 1.00887 0.31259 0.37982
 C387 C 1.00853 0.33912 0.35264
 C388 C 1.00012 0.27371 0.46880
 C389 C 0.98881 0.38373 0.39680
 C390 C 0.98919 0.35724 0.42385
 C391 C 0.99987 0.29488 0.44386
 C392 C 0.99847 0.37501 0.36086
 H393 H 1.01667 0.28510 0.37304
 H394 H 1.01578 0.33151 0.32517
 H395 H 0.98156 0.41121 0.40417
 H396 H 0.98186 0.36459 0.45140
 C397 C 0.50038 0.91693 0.17763
 C398 C 0.49113 0.88123 0.18674
 C399 C 0.49194 0.85397 0.16021
 C400 C 0.49866 0.97030 0.22569
 C401 C 0.51136 0.89811 0.11549
 C402 C 0.51051 0.92526 0.14198
 C403 C 0.49927 0.94537 0.20442
 C404 C 0.50209 0.86213 0.12426
 H405 H 0.48328 0.87449 0.21428
 H406 H 0.48499 0.82647 0.16788
 H407 H 0.51867 0.90543 0.08797
 H408 H 0.51755 0.95284 0.13460
 C409 C -0.00071 0.31671 0.58979
 C410 C 0.03200 0.32692 0.60638
 C411 C 0.03226 0.35340 0.63364
 C412 C -0.00035 0.27213 0.53341
 C413 C -0.03309 0.35900 0.62833
 C414 C -0.03328 0.33253 0.60106
 C415 C -0.00058 0.29184 0.55961
 C416 C -0.00024 0.37008 0.64460
 H417 H 0.05738 0.31491 0.59779
 H418 H 0.05792 0.36102 0.64596
 H419 H -0.05849 0.37165 0.63580
 H420 H -0.05872 0.32504 0.58818
 C421 C 0.50329 0.08406 0.82203
 C422 C 0.49323 0.11945 0.81285
 C423 C 0.49364 0.14680 0.83931
 C424 C 0.50157 0.03045 0.77419
 C425 C 0.51435 0.10336 0.88408
 C426 C 0.51391 0.07613 0.85765
 C427 C 0.50226 0.05547 0.79536
 C428 C 0.50416 0.13902 0.87527
 H429 H 0.48498 0.12588 0.78533
 H430 H 0.48599 0.17405 0.83160
 H431 H 0.52198 0.09632 0.91161
 H432 H 0.52156 0.04878 0.86509
 C433 C 1.00017 0.68243 0.41055
 C434 C 1.03306 0.67249 0.39447
 C435 C 1.03362 0.64605 0.36718
 C436 C 0.99952 0.72717 0.46679
 C437 C 0.96822 0.63991 0.37148
 C438 C 0.96774 0.66634 0.39877
 C439 C 0.99988 0.70737 0.44067
 C440 C 1.00124 0.62914 0.35567
 H441 H 1.05834 0.68472 0.40346
 H442 H 1.05940 0.63866 0.35523
 H443 H 0.94290 0.62707 0.36361
 H444 H 0.94216 0.67362 0.41125
 C445 C 1.18251 0.49865 0.08832
 C446 C 1.17295 0.46601 0.10519
 C447 C 1.14676 0.46568 0.13266
 C448 C 1.22739 0.49907 0.03233
 C449 C 1.14008 0.53079 0.12686
 C450 C 1.16624 0.53105 0.09942
 C451 C 1.20745 0.49874 0.05828
 C452 C 1.12975 0.49804 0.14356
 H453 H 1.18532 0.44076 0.09675
 H454 H 1.13970 0.44010 0.14528
 H455 H 1.12713 0.55607 0.13422
 H456 H 1.17324 0.55643 0.08634
 C457 C 0.58869 -0.00071 0.68128
 C458 C 0.60566 0.03193 0.67177
 C459 C 0.63293 0.03227 0.64538
 C460 C 0.53317 -0.00094 0.72673
 C461 C 0.62672 -0.03285 0.63836
 C462 C 0.59947 -0.03312 0.66473
 C463 C 0.55890 -0.00078 0.70650
 C464 C 0.64352 -0.00009 0.62811
 H465 H 0.59746 0.05718 0.68437
 H466 H 0.64563 0.05785 0.63840
 H467 H 0.63385 -0.05813 0.62522
 H468 H 0.58631 -0.05850 0.67169
 C469 C -0.18172 0.50043 0.91198
 C470 C -0.16584 0.53294 0.90041
 C471 C -0.13940 0.53265 0.87322
 C472 C -0.22689 0.50083 0.96773
 C473 C -0.14504 0.46727 0.86864
 C474 C -0.17150 0.46764 0.89584
 C475 C -0.20685 0.50057 0.94185
 C476 C -0.12840 0.49975 0.85730
 H477 H -0.17335 0.55845 0.91294
 H478 H -0.12677 0.55804 0.86548
 H479 H -0.13749 0.44157 0.85660
 H480 H -0.18357 0.44230 0.90466
 C481 C 0.41029 0.00068 0.31819
 C482 C 0.39941 -0.03178 0.33462
 C483 C 0.37231 -0.03160 0.36116
 C484 C 0.46593 0.00117 0.27291
 C485 C 0.36645 0.03352 0.35451
 C486 C 0.39354 0.03326 0.32795
 C487 C 0.44011 0.00084 0.29300
 C488 C 0.35580 0.00113 0.37171
 H489 H 0.41241 -0.05711 0.32747
 H490 H 0.36510 -0.05690 0.37422
 H491 H 0.35395 0.05906 0.36172
 H492 H 0.40183 0.05856 0.31547
 C493 C 0.18141 0.50106 0.91196
 C494 C 0.16484 0.46864 0.90092
 C495 C 0.13844 0.46887 0.87358
 C496 C 0.22698 0.50058 0.96760
 C497 C 0.14546 0.53400 0.86779
 C498 C 0.17188 0.53370 0.89516
 C499 C 0.20671 0.50097 0.94181
 C500 C 0.12818 0.50161 0.85692
 H501 H 0.17181 0.44327 0.91394
 H502 H 0.12529 0.44357 0.86625
 H503 H 0.13847 0.55957 0.85521
 H504 H 0.18450 0.55897 0.90356
 C505 C 0.58624 0.00076 0.31882
 C506 C 0.59802 0.03305 0.33512
 C507 C 0.62541 0.03244 0.36146
 C508 C 0.53058 0.00154 0.27331
 C509 C 0.62974 -0.03284 0.35492
 C510 C 0.60235 -0.03215 0.32855
 C511 C 0.55637 0.00119 0.29357
 C512 C 0.64135 -0.00058 0.37193
 H513 H 0.58554 0.05864 0.32797
 H514 H 0.63336 0.05766 0.37440
 H515 H 0.64178 -0.05861 0.36207
 H516 H 0.59338 -0.05732 0.31614
 C517 C 0.81943 0.50026 0.08785
 C518 C 0.83502 0.46757 0.09904
 C519 C 0.86168 0.46751 0.12615
 C520 C 0.77362 0.50090 0.03242
 C521 C 0.85684 0.53286 0.13137
 C522 C 0.83016 0.53285 0.10428
 C523 C 0.79398 0.50057 0.05813
 C524 C 0.87319 0.50021 0.14235
 H525 H 0.82710 0.44222 0.08630
 H526 H 0.87407 0.44200 0.13363
 H527 H 0.86479 0.55841 0.14365
 H528 H 0.81832 0.55832 0.09577
 C529 C 0.41258 -0.00014 0.68185
 C530 C 0.40190 0.03229 0.66538
 C531 C 0.37450 0.03213 0.63902
 C532 C 0.46852 -0.00059 0.72702
 C533 C 0.36796 -0.03294 0.64591
 C534 C 0.39535 -0.03270 0.67228
 C535 C 0.44258 -0.00030 0.70695
 C536 C 0.35747 -0.00056 0.62870
 H537 H 0.41526 0.05761 0.67237
 H538 H 0.36743 0.05742 0.62594
 H539 H 0.35507 -0.05846 0.63887
 H540 H 0.40348 -0.05798 0.68481
   
