data_POSCAR
  _audit_creation_date              2014-09-24
  _audit_creation_method            'ToBaCCo'
  _symmetry_space_group_name_H-M    'P1'
  _symmetry_Int_Tables_number       1
  _symmetry_cell_setting            triclinic
  loop_
  _symmetry_equiv_pos_as_xyz
 x,y,z
_cell_length_a 28.7495
_cell_length_b 16.7178
_cell_length_c 11.7257
_cell_angle_alpha 88.707300
_cell_angle_beta 89.071200
_cell_angle_gamma 87.199100
loop_
  _atom_site_label
  _atom_site_type_symbol
  _atom_site_fract_x
  _atom_site_fract_y
  _atom_site_fract_z
C1 C 0.64865 0.23399 0.61628
 C2 C 0.62439 0.24129 0.51348
 C3 C 0.64845 0.24443 0.40790
 C4 C 0.69740 0.23707 0.40519
 C5 C 0.72224 0.23064 0.50838
 C6 C 0.69789 0.22955 0.61437
 C7 C 0.72345 0.22569 0.71594
 C8 C 0.77198 0.22501 0.71309
 C9 C 0.79657 0.22720 0.60859
 C10 C 0.77157 0.22866 0.50546
 C11 C 0.72211 0.23856 0.30073
 C12 C 0.77056 0.23506 0.29781
 C13 C 0.79587 0.23120 0.39936
 C14 C 0.84489 0.23170 0.39785
 C15 C 0.86911 0.23072 0.49952
 C16 C 0.84553 0.22977 0.60404
 H17 H 0.70603 0.22451 0.79849
 H18 H 0.79017 0.22314 0.79334
 H19 H 0.70408 0.24253 0.22026
 H20 H 0.78811 0.23662 0.21540
 H21 H 0.58673 0.24858 0.51618
 H22 H 0.90676 0.23352 0.49728
 C23 C 0.17159 0.78142 0.61364
 C24 C 0.14723 0.78125 0.51000
 C25 C 0.17068 0.78393 0.40341
 C26 C 0.21981 0.78325 0.40084
 C27 C 0.24482 0.78055 0.50429
 C28 C 0.22062 0.77975 0.61062
 C29 C 0.24602 0.77883 0.71216
 C30 C 0.29451 0.77870 0.70952
 C31 C 0.31908 0.78071 0.60515
 C32 C 0.29416 0.78173 0.50148
 C33 C 0.24452 0.78751 0.29673
 C34 C 0.29303 0.78749 0.29388
 C35 C 0.31865 0.78284 0.39514
 C36 C 0.36809 0.78097 0.39486
 C37 C 0.39135 0.78553 0.49690
 C38 C 0.36804 0.78219 0.60090
 H39 H 0.22849 0.77775 0.79460
 H40 H 0.31269 0.77783 0.78976
 H41 H 0.22643 0.79115 0.21634
 H42 H 0.30990 0.79408 0.21146
 H43 H 0.10956 0.78701 0.51228
 H44 H 0.42918 0.78262 0.49559
 C45 C 0.19025 0.12951 -0.40357
 C46 C 0.17559 0.09472 -0.50363
 C47 C 0.18726 0.12678 -0.61102
 C48 C 0.21452 0.19477 -0.61956
 C49 C 0.23152 0.22744 -0.51899
 C50 C 0.21977 0.19398 -0.41096
 C51 C 0.23761 0.22590 -0.31200
 C52 C 0.26772 0.28857 -0.31946
 C53 C 0.27904 0.32355 -0.42572
 C54 C 0.25993 0.29424 -0.52607
 C55 C 0.22542 0.23071 -0.72577
 C56 C 0.25238 0.29799 -0.73247
 C57 C 0.27015 0.33037 -0.63339
 C58 C 0.29836 0.39731 -0.63831
 C59 C 0.31762 0.42482 -0.53863
 C60 C 0.30941 0.38679 -0.43328
 H61 H 0.22935 0.20100 -0.22842
 H62 H 0.28143 0.31056 -0.24120
 H63 H 0.21276 0.20744 -0.80430
 H64 H 0.25967 0.32398 -0.81590
 H65 H 0.15256 0.04528 -0.49765
 H66 H 0.34170 0.47276 -0.54417
 C67 C -0.19984 0.87442 -0.59665
 C68 C -0.18390 0.90289 -0.49419
 C69 C -0.19543 0.86637 -0.39000
 C70 C -0.22471 0.80147 -0.38732
 C71 C -0.24300 0.77410 -0.49014
 C72 C -0.23059 0.81067 -0.59574
 C73 C -0.24880 0.78183 -0.69686
 C74 C -0.27826 0.71753 -0.69397
 C75 C -0.29016 0.67941 -0.58998
 C76 C -0.27216 0.70802 -0.48732
 C77 C -0.23541 0.76260 -0.28365
 C78 C -0.26333 0.69707 -0.28098
 C79 C -0.28167 0.66859 -0.38196
 C80 C -0.30839 0.60038 -0.38006
 C81 C -0.32705 0.57355 -0.48077
 C82 C -0.31828 0.61190 -0.58566
 H83 H -0.24017 0.80869 -0.77892
 H84 H -0.29136 0.69725 -0.77388
 H85 H -0.22212 0.78259 -0.20376
 H86 H -0.27033 0.66858 -0.19903
 H87 H -0.15962 0.95060 -0.49600
 H88 H -0.34678 0.51981 -0.47825
 O89 O -0.09541 0.91138 0.21340
 O90 O -0.12753 1.00964 0.09550
 C91 C -0.13067 0.95639 0.17604
 O92 O 0.08717 1.08830 0.19745
 O93 O 0.12065 0.98515 0.09344
 C94 C 0.12273 1.04172 0.16608
 O95 O -0.03839 1.17166 0.20146
 O96 O -0.10051 1.13594 0.09627
 C97 C -0.08150 1.18020 0.16983
 O98 O 0.02898 0.82760 0.22349
 O99 O 0.09331 0.86178 0.11761
 C100 C 0.07353 0.82416 0.20282
 Zr101 Zr -0.02462 0.90312 0.15066
 O102 O -0.02922 0.89427 0.33053
 O103 O -0.05103 0.78755 0.13873
 Zr104 Zr 0.01593 1.09072 0.14409
 O105 O 0.01815 1.09099 0.32458
 O106 O 0.03979 1.20821 0.13139
 O107 O -0.04364 1.02447 0.16907
 O108 O 0.03332 0.97146 0.16875
 O109 O 0.03137 0.82287 -0.19858
 O110 O 0.09451 0.85954 -0.09883
 C111 C 0.07552 0.82026 -0.17940
 O112 O -0.03643 1.17200 -0.20339
 O113 O -0.09989 1.13581 -0.09675
 C114 C -0.07990 1.18048 -0.17231
 O115 O 0.08619 1.09138 -0.19596
 O116 O 0.12027 0.98276 -0.10086
 C117 C 0.12103 1.04140 -0.17588
 O118 O -0.08773 0.90908 -0.20381
 O119 O -0.12393 1.01277 -0.10673
 C120 C -0.12310 0.95757 -0.18327
 Zr121 Zr -0.02145 0.90165 -0.13393
 O122 O -0.01978 0.89222 -0.31354
 O123 O -0.04935 0.78701 -0.11490
 Zr124 Zr 0.01662 1.09027 -0.14194
 O125 O 0.01649 1.08274 -0.32168
 O126 O 0.03893 1.20901 -0.15211
 Zr127 Zr -0.06887 1.04236 0.00180
 Zr128 Zr 0.06278 0.95085 0.00496
 O129 O 0.03538 0.97078 -0.15920
 O130 O -0.04110 1.02273 -0.16266
 O131 O 0.01443 0.85986 0.01043
 O132 O -0.01897 1.13043 0.00006
 O133 O -0.06459 0.91626 0.00656
 O134 O 0.05880 1.07723 0.00068
 H135 H 0.05191 0.96244 0.23858
 H136 H -0.02839 1.18824 -0.00206
 H137 H 0.05402 0.95967 -0.22930
 H138 H -0.09367 0.88683 0.00548
 H139 H 0.04358 1.22570 0.21076
 H140 H 0.05817 1.21650 -0.08434
 H141 H 0.02786 1.13417 -0.35192
 H142 H -0.02096 0.94755 -0.34548
 H143 H -0.02437 0.74936 -0.08612
 H144 H -0.02456 0.74963 0.12068
 H145 H -0.01337 0.94045 0.36012
 H146 H -0.01317 1.07810 0.35377
 O147 O 0.39619 0.42087 0.17506
 O148 O 0.37235 0.52071 0.04909
 C149 C 0.36451 0.46985 0.13106
 O150 O 0.58395 0.57672 0.20892
 O151 O 0.61739 0.46872 0.11557
 C152 C 0.61907 0.52695 0.18598
 O153 O 0.45858 0.66211 0.18939
 O154 O 0.40124 0.63751 0.06249
 C155 C 0.41645 0.67259 0.15043
 O156 O 0.51306 0.31833 0.21238
 O157 O 0.58311 0.34625 0.12782
 C158 C 0.55790 0.30911 0.20349
 Zr159 Zr 0.46756 0.40251 0.12865
 O160 O 0.45791 0.39261 0.30755
 O161 O 0.43561 0.29242 0.10717
 Zr162 Zr 0.51539 0.58395 0.13901
 O163 O 0.51230 0.58474 0.31954
 O164 O 0.54162 0.69994 0.13447
 O165 O 0.45296 0.52475 0.14402
 O166 O 0.52669 0.46315 0.16668
 O167 O 0.53704 0.31331 -0.19689
 O168 O 0.59407 0.33972 -0.07023
 C169 C 0.57762 0.29873 -0.15180
 O170 O 0.48417 0.67787 -0.21108
 O171 O 0.41428 0.64745 -0.12783
 C172 C 0.43999 0.69273 -0.19059
 O173 O 0.60239 0.57256 -0.18316
 O174 O 0.62596 0.46467 -0.06987
 C175 C 0.63373 0.52012 -0.14586
 O176 O 0.42161 0.41858 -0.24392
 O177 O 0.38581 0.52550 -0.15317
 C178 C 0.38743 0.47103 -0.23043
 Zr179 Zr 0.48437 0.40206 -0.15577
 O180 O 0.49739 0.39439 -0.33338
 O181 O 0.45026 0.29257 -0.15537
 Zr182 Zr 0.53026 0.58429 -0.14656
 O183 O 0.53988 0.57811 -0.32567
 O184 O 0.55955 0.69790 -0.14792
 Zr185 Zr 0.43641 0.54663 -0.02916
 Zr186 Zr 0.56228 0.43979 0.01178
 O187 O 0.54507 0.46234 -0.16022
 O188 O 0.47089 0.52521 -0.18622
 O189 O 0.51048 0.35578 -0.00135
 O190 O 0.48946 0.62814 -0.01278
 O191 O 0.43546 0.42084 -0.02681
 O192 O 0.56408 0.56571 0.00811
 H193 H 0.54192 0.45092 0.24065
 H194 H 0.48166 0.68648 -0.01068
 H195 H 0.56731 0.44588 -0.22173
 H196 H 0.40525 0.39585 -0.03638
 H197 H 0.54052 0.71812 0.21434
 H198 H 0.57506 0.70260 -0.07384
 H199 H 0.50896 0.58702 -0.36096
 H200 H 0.49300 0.44923 -0.36605
 H201 H 0.46919 0.25290 -0.10985
 H202 H 0.46058 0.25100 0.09192
 H203 H 0.44922 0.44688 0.33492
 H204 H 0.48136 0.56641 0.34324
 N205 N 0.30838 0.43311 0.26461
 N206 N 0.31784 0.46834 0.17450
 N207 N -0.18683 0.90983 0.30825
 N208 N -0.17691 0.94650 0.21973
 N209 N 0.67052 0.57567 0.32128
 N210 N 0.66355 0.53674 0.23572
 N211 N 0.17553 1.08951 0.29754
 N212 N 0.16786 1.05188 0.21139
 N213 N 0.62552 0.23369 -0.28617
 N214 N 0.60559 0.23204 -0.19226
 N215 N 0.14676 0.79976 -0.28156
 N216 N 0.10416 0.78436 -0.26713
 N217 N 0.39355 0.77487 -0.30808
 N218 N 0.42006 0.76854 -0.22698
 N219 N -0.13035 1.23743 -0.30403
 N220 N -0.10680 1.24613 -0.21927
 N221 N 0.68544 0.55940 -0.28515
 N222 N 0.67911 0.52102 -0.19594
 N223 N 0.16393 1.11628 -0.30135
 N224 N 0.15991 1.04835 -0.25199
 N225 N 0.33986 0.39919 -0.34127
 N226 N 0.34999 0.46786 -0.30782
 N227 N -0.16747 0.88096 -0.29425
 N228 N -0.16187 0.95022 -0.25551
 N229 N 0.39733 0.75378 0.30273
 N230 N 0.38328 0.71695 0.21768
 N231 N -0.13157 1.23837 0.30234
 N232 N -0.10905 1.24576 0.21321
 N233 N 0.62457 0.27002 0.30599
 N234 N 0.58085 0.26673 0.29510
 N235 N 0.14491 0.80262 0.30058
 N236 N 0.10185 0.78929 0.29240
   
