data_POSCAR
  _audit_creation_date              2014-09-24
  _audit_creation_method            'ToBaCCo'
  _symmetry_space_group_name_H-M    'P1'
  _symmetry_Int_Tables_number       1
  _symmetry_cell_setting            triclinic
  loop_
  _symmetry_equiv_pos_as_xyz
 x,y,z
_cell_length_a 30.0748
_cell_length_b 29.2503
_cell_length_c 30.6788
_cell_angle_alpha 91.534900
_cell_angle_beta 93.673800
_cell_angle_gamma 95.387900
loop_
  _atom_site_label
  _atom_site_type_symbol
  _atom_site_fract_x
  _atom_site_fract_y
  _atom_site_fract_z
C1 C 0.28265 0.43166 1.02198
 C2 C 0.25098 0.45636 1.04992
 C3 C 0.22347 0.48233 1.02673
 C4 C 0.22932 0.48096 0.97739
 C5 C 0.25159 0.40412 0.98715
 C6 C 0.22335 0.42972 0.96398
 C7 C 0.30716 0.47031 0.99721
 C8 C 0.27928 0.49606 0.97376
 H9 H 0.25168 0.45601 1.08514
 H10 H 0.20634 0.50167 0.95844
 H11 H 0.25096 0.36722 0.98292
 H12 H 0.34322 0.47772 0.99956
 C13 C 0.71880 0.57593 0.01313
 C14 C 0.76608 0.58381 0.03587
 C15 C 0.79406 0.55304 0.02300
 C16 C 0.77246 0.51680 -0.01075
 C17 C 0.72612 0.57565 -0.03608
 C18 C 0.75456 0.54470 -0.04839
 C19 C 0.70257 0.52609 0.02225
 C20 C 0.73070 0.49507 0.01003
 H21 H 0.77673 0.61199 0.05896
 H22 H 0.79541 0.49163 -0.02103
 H23 H 0.71198 0.59931 -0.05838
 H24 H 0.67158 0.51640 0.03727
 C25 C 0.03410 0.25877 0.47083
 C26 C 0.02595 0.29207 0.43756
 C27 C -0.01947 0.30251 0.43249
 C28 C -0.04851 0.27748 0.46187
 C29 C 0.01704 0.27878 0.51270
 C30 C -0.02652 0.28807 0.50823
 C31 C 0.00061 0.21651 0.45813
 C32 C -0.04257 0.22671 0.45292
 H33 H 0.05170 0.30679 0.41755
 H34 H -0.08395 0.28480 0.45886
 H35 H 0.03712 0.28344 0.54338
 H36 H 0.01031 0.18236 0.45170
 C37 C 0.97509 0.75019 0.53870
 C38 C 0.99032 0.72832 0.49699
 C39 C 1.03381 0.71898 0.50010
 C40 C 1.05792 0.73137 0.54522
 C41 C 0.98527 0.71646 0.57473
 C42 C 1.02868 0.70664 0.57816
 C43 C 1.00896 0.79249 0.54909
 C44 C 1.05214 0.78224 0.55310
 H45 H 0.96904 0.72268 0.46711
 H46 H 1.09328 0.72359 0.54780
 H47 H 0.96053 0.70254 0.59619
 H48 H 0.99954 0.82678 0.55536
 C49 C 0.49057 0.01318 0.24672
 C50 C 0.44908 0.01127 0.27368
 C51 C 0.43641 -0.03142 0.28778
 C52 C 0.46684 -0.06803 0.27417
 C53 C 0.52663 -0.00606 0.27665
 C54 C 0.51438 -0.04861 0.29103
 C55 C 0.47991 -0.02155 0.21167
 C56 C 0.46641 -0.06630 0.22668
 H57 H 0.43070 0.04068 0.27973
 H58 H 0.45744 -0.10219 0.28720
 H59 H 0.55926 0.01212 0.28500
 H60 H 0.48108 -0.01423 0.17731
 C61 C 0.52003 -0.01533 0.75092
 C62 C 0.48327 0.00238 0.72062
 C63 C 0.49372 0.04568 0.70699
 C64 C 0.54026 0.06705 0.72421
 C65 C 0.56211 -0.01056 0.72494
 C66 C 0.57276 0.03254 0.71111
 C67 C 0.52897 0.02146 0.78824
 C68 C 0.53982 0.06461 0.77404
 H69 H 0.45117 -0.01692 0.71234
 H70 H 0.54847 0.10185 0.71199
 H71 H 0.58195 -0.03878 0.71859
 H72 H 0.52669 0.01410 0.82247
 C73 C 0.30351 0.04889 0.43475
 H74 H 0.31330 0.08318 0.44803
 C75 C 0.32678 0.03150 0.40087
 H76 H 0.35374 0.05306 0.38788
 C77 C 0.25931 -0.02210 0.43784
 H78 H 0.23456 -0.04397 0.45323
 C79 C 0.28138 -0.04067 0.40398
 H80 H 0.27182 -0.07601 0.39367
 N81 N 0.27069 0.02189 0.45287
 C82 C 0.16987 0.09181 0.50515
 H83 H 0.15435 0.06069 0.51785
 C84 C 0.14472 0.12916 0.49986
 H85 H 0.11006 0.12592 0.50798
 C86 C 0.23381 0.13468 0.48087
 H87 H 0.26870 0.13688 0.47403
 C88 C 0.21004 0.17335 0.47599
 H89 H 0.22677 0.20476 0.46464
 Zn90 Zn 0.24648 0.04297 0.50492
 N91 N 0.21355 0.09487 0.49538
 C92 C 0.30195 0.09926 0.56821
 N93 N 0.29565 0.05816 0.54582
 C94 C 0.32461 0.02555 0.55202
 C95 C 0.36133 0.03330 0.58229
 C96 C 0.33873 0.10876 0.59836
 C97 C 0.17205 -0.02465 0.50253
 C98 C 0.14635 -0.06287 0.51689
 C99 C 0.19446 -0.05928 0.58325
 C100 C 0.21906 -0.02105 0.56774
 N101 N 0.20853 -0.00543 0.52737
 H102 H 0.27829 0.12451 0.56307
 H103 H 0.31876 -0.00681 0.53370
 H104 H 0.38387 0.00681 0.58700
 H105 H 0.34299 0.14146 0.61619
 H106 H 0.16384 -0.01117 0.47082
 H107 H 0.11853 -0.07881 0.49593
 H108 H 0.20416 -0.07163 0.61506
 H109 H 0.24710 -0.00451 0.58780
 C110 C 0.16485 0.17068 0.48559
 C111 C 0.31641 -0.01420 0.38564
 C112 C 0.15837 -0.08144 0.55713
 C113 C 0.36886 0.07539 0.60572
 C114 C 0.74937 0.02821 0.55998
 H115 H 0.77522 0.04990 0.54591
 C116 C 0.72701 0.04620 0.59396
 H117 H 0.73727 0.08096 0.60581
 C118 C 0.70329 -0.04195 0.56004
 H119 H 0.69276 -0.07553 0.54545
 C120 C 0.67986 -0.02520 0.59403
 H121 H 0.65211 -0.04663 0.60583
 N122 N 0.73725 -0.01515 0.54349
 C123 C 0.79077 0.02934 0.43058
 H124 H 0.76268 0.01361 0.41006
 C125 C 0.81558 0.06824 0.41644
 H126 H 0.80604 0.08185 0.38513
 C127 C 0.83741 0.03057 0.49587
 H128 H 0.84533 0.01602 0.52716
 C129 C 0.86332 0.06934 0.48287
 H130 H 0.89103 0.08454 0.50441
 Zn131 Zn 0.76258 -0.03639 0.49219
 N132 N 0.80100 0.01224 0.47040
 C133 C 0.68501 -0.02075 0.44287
 N134 N 0.71392 -0.05306 0.45085
 C135 C 0.70692 -0.09563 0.43123
 C136 C 0.66935 -0.10707 0.40237
 C137 C 0.64763 -0.03040 0.41369
 C138 C 0.83910 -0.08566 0.49367
 C139 C 0.86430 -0.12258 0.50155
 C140 C 0.79917 -0.16447 0.52838
 C141 C 0.77534 -0.12635 0.52068
 N142 N 0.79552 -0.08782 0.50368
 H143 H 0.69117 0.01268 0.45926
 H144 H 0.73035 -0.12079 0.43795
 H145 H 0.66435 -0.14101 0.38690
 H146 H 0.62509 -0.00414 0.40763
 H147 H 0.85447 -0.05558 0.47900
 H148 H 0.89893 -0.12009 0.49336
 H149 H 0.78250 -0.19470 0.54198
 H150 H 0.74055 -0.12793 0.52767
 C151 C 0.85158 0.08951 0.44335
 C152 C 0.69107 0.01977 0.61086
 C153 C 0.84431 -0.16268 0.51885
 C154 C 0.63922 -0.07410 0.39334
 C155 C 0.49150 0.16477 1.08218
 H156 H 0.46556 0.15971 1.05594
 C157 C 0.49040 0.13590 1.11771
 H158 H 0.46391 0.10820 1.11837
 C159 C 0.55618 0.20853 1.11443
 H160 H 0.58130 0.23735 1.11338
 C161 C 0.55570 0.18118 1.15102
 H162 H 0.58107 0.18874 1.17753
 N163 N 0.52417 0.20016 1.08106
 C164 C 0.45531 0.30059 1.00598
 H165 H 0.47230 0.30274 0.97610
 C166 C 0.41960 0.32712 1.01158
 H167 H 0.40938 0.34915 0.98572
 C168 C 0.44872 0.27092 1.07655
 H169 H 0.46068 0.24993 1.10238
 C170 C 0.41303 0.29675 1.08348
 H171 H 0.39763 0.29399 1.11429
 Zn172 Zn 0.52169 0.24177 1.03474
 N173 N 0.46944 0.27343 1.03845
 C174 C 0.53132 0.23887 0.94582
 N175 N 0.52281 0.21099 0.97962
 C176 C 0.52076 0.16443 0.97421
 C177 C 0.52723 0.14441 0.93341
 C178 C 0.53825 0.22043 0.90481
 C179 C 0.56870 0.33062 1.04555
 C180 C 0.60581 0.36267 1.04290
 C181 C 0.65084 0.30020 1.02949
 C182 C 0.61285 0.26938 1.03226
 N183 N 0.57272 0.28501 1.03947
 H184 H 0.53477 0.27572 0.95115
 H185 H 0.51559 0.14265 1.00160
 H186 H 0.52623 0.10739 0.92971
 H187 H 0.54511 0.24366 0.87871
 H188 H 0.53646 0.34233 1.05117
 H189 H 0.60172 0.39892 1.04671
 H190 H 0.68197 0.28677 1.02247
 H191 H 0.61494 0.23292 1.02713
 C192 C 0.39846 0.32599 1.05105
 C193 C 0.52227 0.14458 1.15301
 C194 C 0.64740 0.34768 1.03398
 C195 C 0.53698 0.17262 0.89835
 C196 C 0.48116 0.84419 -0.07993
 H197 H 0.47409 0.86021 -0.04940
 C198 C 0.48568 0.87117 -0.11664
 H199 H 0.48250 0.90769 -0.11370
 C200 C 0.49254 0.77746 -0.12147
 H201 H 0.49432 0.74080 -0.12353
 C202 C 0.49671 0.80301 -0.15905
 H203 H 0.50286 0.78553 -0.18927
 N204 N 0.48525 0.79822 -0.08271
 C205 C 0.43560 0.67512 -0.01760
 H206 H 0.46087 0.67578 0.00919
 C207 C 0.40323 0.63766 -0.02371
 H208 H 0.40390 0.60964 -0.00138
 C209 C 0.40380 0.71146 -0.07857
 H210 H 0.40396 0.74058 -0.09956
 C211 C 0.37071 0.67465 -0.08586
 H212 H 0.34597 0.67600 -0.11282
 Zn213 Zn 0.47959 0.76116 -0.03259
 N214 N 0.43520 0.71116 -0.04470
 C215 C 0.42649 0.78142 0.03676
 N216 N 0.46355 0.79650 0.01613
 C217 C 0.49118 0.83351 0.03227
 C218 C 0.48340 0.85509 0.07190
 C219 C 0.41785 0.80153 0.07669
 C220 C 0.55103 0.70582 -0.04506
 C221 C 0.58699 0.68135 -0.03151
 C222 C 0.58785 0.71804 0.03993
 C223 C 0.55207 0.74176 0.02508
 N224 N 0.53399 0.73512 -0.01669
 H225 H 0.40455 0.75243 0.02332
 H226 H 0.52072 0.84465 0.01558
 H227 H 0.50687 0.88304 0.08535
 H228 H 0.38912 0.78785 0.09337
 H229 H 0.53552 0.69964 -0.07763
 H230 H 0.59920 0.65717 -0.05416
 H231 H 0.60097 0.72371 0.07349
 H232 H 0.53768 0.76383 0.04786
 C233 C 0.36990 0.63719 -0.05793
 C234 C 0.49339 0.85060 -0.15690
 C235 C 0.60511 0.68651 0.01182
 C236 C 0.44732 0.83790 0.09533
 C237 C 1.10000 0.50379 0.19970
 H238 H 1.09237 0.47321 0.21790
 C239 C 1.12777 0.50249 0.16484
 H240 H 1.14227 0.47099 0.15708
 C241 C 1.08681 0.58061 0.18449
 H242 H 1.06896 0.61021 0.19113
 C243 C 1.11403 0.58076 0.14953
 H244 H 1.11812 0.61132 0.13054
 N245 N 1.07922 0.54214 0.20784
 C246 C 0.97189 0.46569 0.26112
 H247 H 0.94895 0.47825 0.23678
 C248 C 0.95678 0.42949 0.28655
 H249 H 0.92281 0.41396 0.28031
 C250 C 1.04294 0.47226 0.30010
 H251 H 1.07599 0.49021 0.30601
 C252 C 1.02914 0.43582 0.32637
 H253 H 1.05189 0.42559 0.35231
 Zn254 Zn 1.02821 0.54253 0.24034
 N255 N 1.01402 0.48686 0.26870
 C256 C 0.98290 0.51776 0.16412
 N257 N 0.98238 0.54976 0.19695
 C258 C 0.95419 0.58352 0.19441
 C259 C 0.92512 0.58585 0.15696
 C260 C 0.95553 0.51941 0.12627
 C261 C 1.07818 0.61190 0.29244
 C262 C 1.08780 0.64042 0.32962
 C263 C 1.01111 0.62466 0.34806
 C264 C 1.00290 0.59636 0.31036
 N265 N 1.03652 0.58994 0.28391
 H266 H 1.00553 0.49123 0.16713
 H267 H 0.95478 0.60889 0.22080
 H268 H 0.90286 0.61284 0.15468
 H269 H 0.95688 0.49355 0.10058
 H270 H 1.10478 0.60551 0.27172
 H271 H 1.12150 0.65660 0.33594
 H272 H 0.98442 0.62809 0.36964
 H273 H 0.97033 0.57769 0.30334
 C274 C 0.98505 0.41502 0.32055
 C275 C 1.13336 0.54070 0.13816
 C276 C 1.05440 0.64600 0.35874
 C277 C 0.92664 0.55404 0.12205
 C278 C -0.07661 0.47903 0.83999
 H279 H -0.04727 0.47123 0.85946
 C280 C -0.11351 0.49276 0.86081
 H281 H -0.11199 0.49540 0.89616
 C282 C -0.11430 0.48569 0.77070
 H283 H -0.11523 0.48188 0.73560
 C284 C -0.15170 0.49976 0.79010
 H285 H -0.18049 0.50697 0.76937
 N286 N -0.07713 0.47679 0.79557
 C287 C -0.00428 0.41539 0.69396
 H288 H 0.02763 0.43550 0.70055
 C289 C -0.01154 0.38686 0.65657
 H290 H 0.01505 0.38512 0.63457
 C291 C -0.07799 0.39458 0.71423
 H292 H -0.10372 0.39768 0.73686
 C293 C -0.08686 0.36584 0.67686
 H294 H -0.11952 0.34699 0.67133
 Zn295 Zn -0.02440 0.46462 0.76701
 N296 N -0.03748 0.41935 0.72151
 C297 C 0.03384 0.40246 0.80165
 N298 N 0.02076 0.44537 0.80730
 C299 C 0.04094 0.47467 0.83943
 C300 C 0.07690 0.46181 0.86611
 C301 C 0.06940 0.38815 0.82766
 C302 C -0.02959 0.53484 0.70734
 C303 C -0.01443 0.57151 0.68245
 C304 C 0.05780 0.57351 0.72192
 C305 C 0.04107 0.53694 0.74643
 N306 N -0.00205 0.51833 0.73883
 H307 H 0.01718 0.37933 0.77642
 H308 H 0.02996 0.50861 0.84349
 H309 H 0.09311 0.48596 0.89086
 H310 H 0.07945 0.35418 0.82153
 H311 H -0.06289 0.51850 0.70009
 H312 H -0.03684 0.58347 0.65709
 H313 H 0.09228 0.58744 0.72829
 H314 H 0.06317 0.52258 0.77035
 C315 C -0.05357 0.36246 0.64704
 C316 C -0.15127 0.50441 0.83574
 C317 C 0.02992 0.59087 0.68911
 C318 C 0.09192 0.41819 0.86010
 C319 C 0.08219 0.24805 0.47611
 C320 C 0.11871 0.28050 0.48140
 C321 C 0.15521 0.25607 0.48455
 C322 C 0.13821 0.21049 0.48154
 O323 O 0.09400 0.20566 0.47656
 H324 H 0.11856 0.31749 0.48274
 H325 H 0.18987 0.26987 0.48956
 C326 C 0.68777 0.60962 0.02831
 C327 C 0.68118 0.61835 0.07166
 C328 C 0.65024 0.64939 0.07155
 C329 C 0.63983 0.65720 0.02799
 O330 O 0.66254 0.63286 0.00168
 H331 H 0.69680 0.60333 0.09990
 H332 H 0.63610 0.66330 0.10000
 C333 C 0.92706 -0.23915 0.53449
 C334 C 0.89054 -0.27156 0.53328
 C335 C 0.85402 -0.24734 0.52833
 C336 C 0.87105 -0.20197 0.52630
 O337 O 0.91529 -0.19707 0.52989
 H338 H 0.89068 -0.30841 0.53547
 H339 H 0.81933 -0.26132 0.52535
 C340 C 0.31357 0.40193 1.04666
 C341 C 0.31333 0.39307 1.09070
 C342 C 0.34494 0.36352 1.09833
 C343 C 0.36236 0.35600 1.05849
 O344 O 0.34338 0.37939 1.02713
 H345 H 0.29259 0.40577 1.11489
 H346 H 0.35405 0.34959 1.12958
 C347 C 0.91996 0.19328 0.43725
 C348 C 0.88609 0.20335 0.40779
 C349 C 0.85686 0.16482 0.40423
 C350 C 0.87486 0.13411 0.43224
 O351 O 0.91336 0.15142 0.45227
 H352 H 0.88277 0.23531 0.39145
 H353 H 0.82519 0.16070 0.38508
 C354 C 0.29534 0.53764 -0.04898
 C355 C 0.27133 0.55694 -0.08231
 C356 C 0.29648 0.59631 -0.09141
 C357 C 0.33408 0.59843 -0.06274
 O358 O 0.33338 0.56262 -0.03711
 H359 H 0.23908 0.54420 -0.09786
 H360 H 0.28750 0.62087 -0.11537
 C361 C 0.08984 -0.18415 0.56736
 C362 C 0.12374 -0.19317 0.59724
 C363 C 0.15315 -0.15481 0.59923
 C364 C 0.13513 -0.12529 0.56997
 O365 O 0.09652 -0.14313 0.55065
 H366 H 0.12693 -0.22428 0.61497
 H367 H 0.18487 -0.15006 0.61824
 C368 C 0.72123 0.44534 1.01616
 C369 C 0.75176 0.41332 1.01267
 C370 C 0.72875 0.37211 1.01982
 C371 C 0.68570 0.38193 1.02713
 O372 O 0.68131 0.42644 1.02510
 H373 H 0.78665 0.41901 1.00588
 H374 H 0.74209 0.33906 1.01936
 C375 C 0.50483 0.06081 1.23204
 C376 C 0.52249 0.09651 1.26015
 C377 C 0.53235 0.13261 1.23422
 C378 C 0.51943 0.11652 1.19219
 O379 O 0.50252 0.07302 1.19078
 H380 H 0.52783 0.09596 1.29534
 H381 H 0.54642 0.16681 1.24481
 C382 C 0.04588 0.67633 0.61160
 C383 C 0.09053 0.67262 0.62288
 C384 C 0.09099 0.64090 0.65459
 C385 C 0.04654 0.62739 0.66021
 O386 O 0.01924 0.64893 0.63416
 H387 H 0.11951 0.69052 0.60971
 H388 H 0.12033 0.62841 0.67064
 C389 C 0.50860 0.93619 -0.23508
 C390 C 0.50004 0.89903 -0.26398
 C391 C 0.49305 0.86179 -0.23876
 C392 C 0.49779 0.87886 -0.19610
 O393 O 0.50708 0.92413 -0.19386
 H394 H 0.49938 0.89922 -0.29929
 H395 H 0.48513 0.82655 -0.25036
 C396 C 0.96593 0.33278 0.40112
 C397 C 0.92187 0.34098 0.39155
 C398 C 0.92309 0.37197 0.35935
 C399 C 0.96772 0.38082 0.35150
 O400 O 0.99377 0.35713 0.37688
 H401 H 0.89197 0.32648 0.40577
 H402 H 0.89470 0.38715 0.34436
 C403 C 0.45328 0.89585 0.19815
 C404 C 0.43310 0.85407 0.21029
 C405 C 0.42628 0.82767 0.17291
 C406 C 0.44314 0.85479 0.14058
 O407 O 0.45947 0.89622 0.15576
 H408 H 0.42402 0.84345 0.24224
 H409 H 0.41228 0.79219 0.17001
 C410 C -0.05050 0.30475 0.54507
 C411 C -0.09638 0.30028 0.54707
 C412 C -0.10405 0.32015 0.58624
 C413 C -0.06224 0.33547 0.60529
 O414 O -0.02977 0.32598 0.58030
 H415 H -0.12138 0.28430 0.52309
 H416 H -0.13640 0.32389 0.59867
 C417 C 0.54906 0.10594 0.80302
 C418 C 0.57154 0.14632 0.79072
 C419 C 0.57040 0.17649 0.82486
 C420 C 0.54714 0.15254 0.85575
 O421 O 0.53451 0.10940 0.84272
 H422 H 0.58714 0.15331 0.76054
 H423 H 0.58519 0.21170 0.82685
 C424 C 1.05596 0.70127 0.46253
 C425 C 1.10164 0.70348 0.45961
 C426 C 1.10749 0.68405 0.41983
 C427 C 1.06486 0.67132 0.40123
 O428 O 1.03359 0.68186 0.42721
 H429 H 1.12776 0.71777 0.48331
 H430 H 1.13927 0.67909 0.40672
 C431 C 1.19333 0.51109 0.04838
 C432 C 1.17491 0.54808 0.03013
 C433 C 1.15071 0.56521 0.06175
 C434 C 1.15613 0.53730 0.09703
 O435 O 1.18198 0.50443 0.08883
 H436 H 1.17885 0.56137 -0.00211
 H437 H 1.13072 0.59397 0.05879
 C438 C 0.61205 0.04491 0.68601
 C439 C 0.63242 0.08888 0.68366
 C440 C 0.66584 0.08543 0.65628
 C441 C 0.66344 0.03947 0.64365
 O442 O 0.63079 0.01484 0.66189
 H443 H 0.62399 0.11994 0.69972
 H444 H 0.68824 0.11362 0.64607
 C445 C -0.22952 0.54008 0.90738
 C446 C -0.24858 0.55711 0.86988
 C447 C -0.22247 0.54530 0.83737
 C448 C -0.18922 0.52204 0.85748
 O449 O -0.19362 0.51893 0.89992
 H450 H -0.27783 0.57594 0.86656
 H451 H -0.22680 0.55372 0.80335
 C452 C 0.39618 -0.04203 0.31205
 C453 C 0.37339 -0.08505 0.31277
 C454 C 0.33951 -0.08038 0.33931
 C455 C 0.34401 -0.03467 0.35317
 O456 O 0.37841 -0.01131 0.33633
 H457 H 0.38041 -0.11625 0.29596
 H458 H 0.31521 -0.10769 0.34786
 C459 C 0.18803 0.41000 0.93120
 C460 C 0.18273 0.36485 0.91605
 C461 C 0.14598 0.36151 0.88742
 C462 C 0.13128 0.40490 0.88700
 O463 O 0.15688 0.43431 0.91363
 H464 H 0.20303 0.33742 0.92471
 H465 H 0.13179 0.33074 0.86943
 C466 C 0.54487 -0.07305 0.31953
 C467 C 0.54202 -0.11994 0.32446
 C468 C 0.57761 -0.12726 0.35249
 C469 C 0.59926 -0.08420 0.36278
 O470 O 0.57942 -0.05141 0.34274
 H471 H 0.51750 -0.14578 0.30905
 H472 H 0.58625 -0.15998 0.36441
 C473 C 0.84123 0.55462 0.03874
 C474 C 0.87423 0.54175 0.01319
 C475 C 0.91147 0.54262 0.04073
 C476 C 0.89837 0.55573 0.08119
 O477 O 0.85570 0.56355 0.08002
 H478 H 0.87117 0.53171 -0.02116
 H479 H 0.94396 0.53315 0.03263
 C480 C 0.46209 0.07070 0.68035
 C481 C 0.46339 0.11792 0.67921
 C482 C 0.42812 0.12639 0.65146
 C483 C 0.40800 0.08368 0.63754
 O484 O 0.42855 0.04986 0.65514
 H485 H 0.48678 0.14327 0.69687
 H486 H 0.41875 0.15975 0.64210
   
