data_POSCAR
  _audit_creation_date              2014-09-24
  _audit_creation_method            'ToBaCCo'
  _symmetry_space_group_name_H-M    'P1'
  _symmetry_Int_Tables_number       1
  _symmetry_cell_setting            triclinic
  loop_
  _symmetry_equiv_pos_as_xyz
 x,y,z
_cell_length_a 31.3693
_cell_length_b 31.4172
_cell_length_c 31.5011
_cell_angle_alpha 88.811300
_cell_angle_beta 89.118600
_cell_angle_gamma 90.921000
loop_
  _atom_site_label
  _atom_site_type_symbol
  _atom_site_fract_x
  _atom_site_fract_y
  _atom_site_fract_z
N1 N 0.20710 0.09589 0.13596
 N2 N 0.21279 0.12529 0.10599
 C3 C 0.24945 0.11782 0.08475
 C4 C 0.26775 0.08207 0.10258
 C5 C 0.24003 0.06889 0.13500
 H6 H 0.26233 0.13730 0.05875
 H7 H 0.24348 0.04175 0.15629
 Cu8 Cu 0.17205 0.17092 0.09790
 Cu9 Cu 0.15668 0.09432 0.17300
 Cu10 Cu 0.10197 0.18921 0.17698
 N11 N 0.13328 0.21882 0.09526
 N12 N 0.10489 0.22490 0.12560
 C13 C 0.08335 0.26065 0.11671
 C14 C 0.09949 0.27824 0.07912
 C15 C 0.13119 0.25095 0.06633
 H16 H 0.05916 0.27400 0.13709
 H17 H 0.15175 0.25478 0.03861
 N18 N 0.09430 0.14309 0.22004
 N19 N 0.11452 0.10663 0.21803
 C20 C 0.10365 0.08231 0.25239
 C21 C 0.07529 0.10454 0.27717
 C22 C 0.06994 0.14288 0.25567
 H23 H 0.11663 0.05137 0.25970
 H24 H 0.05056 0.16906 0.26578
 H25 H 0.11575 0.13727 0.14262
 H26 H 0.16086 0.15875 0.17408
 N27 N 0.78757 -0.09534 0.13680
 N28 N 0.78509 -0.12278 0.10592
 C29 C 0.75047 -0.11421 0.08258
 C30 C 0.72988 -0.08009 0.10028
 C31 C 0.75433 -0.06883 0.13460
 H32 H 0.74000 -0.13235 0.05574
 H33 H 0.74806 -0.04375 0.15675
 Cu34 Cu 0.82564 -0.16893 0.10154
 Cu35 Cu 0.83258 -0.09706 0.17886
 Cu36 Cu 0.90169 -0.18183 0.17388
 N37 N 0.86694 -0.21447 0.09703
 N38 N 0.89786 -0.21825 0.12455
 C39 C 0.92124 -0.25245 0.11495
 C40 C 0.90353 -0.27156 0.08005
 C41 C 0.86918 -0.24657 0.06938
 H42 H 0.94783 -0.26381 0.13322
 H43 H 0.84703 -0.25188 0.04400
 N44 N 0.90600 -0.13752 0.21729
 N45 N 0.88013 -0.10478 0.21855
 C46 C 0.88975 -0.08108 0.25236
 C47 C 0.92289 -0.09996 0.27357
 C48 C 0.93256 -0.13560 0.25049
 H49 H 0.87272 -0.05317 0.26208
 H50 H 0.95635 -0.15897 0.25807
 H51 H 0.87696 -0.12956 0.14319
 H52 H 0.83884 -0.16168 0.17731
 N53 N 0.77937 0.09648 0.85777
 N54 N 0.77924 0.12052 0.89145
 C55 C 0.74558 0.10923 0.91657
 C56 C 0.72334 0.07668 0.89740
 C57 C 0.74569 0.06934 0.86013
 H58 H 0.73659 0.12483 0.94557
 H59 H 0.73723 0.04711 0.83577
 Cu60 Cu 0.82005 0.16762 0.89608
 Cu61 Cu 0.82054 0.10542 0.81129
 Cu62 Cu 0.90699 0.17196 0.83257
 N63 N 0.86170 0.21411 0.89931
 N64 N 0.89613 0.21532 0.87491
 C65 C 0.91977 0.25007 0.88404
 C66 C 0.89863 0.27213 0.91539
 C67 C 0.86187 0.24839 0.92432
 H68 H 0.94960 0.25909 0.86839
 H69 H 0.83708 0.25561 0.94715
 N70 N 0.90484 0.13508 0.78244
 N71 N 0.87223 0.10935 0.77489
 C72 C 0.88008 0.08854 0.73872
 C73 C 0.91900 0.10240 0.72224
 C74 C 0.93388 0.13200 0.75063
 H75 H 0.85860 0.06571 0.72472
 H76 H 0.96344 0.15012 0.74812
 H77 H 0.86573 0.12227 0.85339
 H78 H 0.84354 0.16741 0.82186
 N79 N 0.22397 -0.09924 0.86327
 N80 N 0.22327 -0.12304 0.89812
 C81 C 0.25702 -0.11236 0.92192
 C82 C 0.28013 -0.08044 0.90063
 C83 C 0.25824 -0.07289 0.86352
 H84 H 0.26528 -0.12785 0.95159
 H85 H 0.26721 -0.05082 0.83801
 Cu86 Cu 0.18080 -0.16862 0.90669
 Cu87 Cu 0.18259 -0.10676 0.81848
 Cu88 Cu 0.09483 -0.17132 0.84444
 N89 N 0.14069 -0.21682 0.90878
 N90 N 0.10651 -0.21716 0.88511
 C91 C 0.08370 -0.25310 0.89353
 C92 C 0.10507 -0.27693 0.92361
 C93 C 0.14116 -0.25294 0.93265
 H94 H 0.05425 -0.26168 0.87817
 H95 H 0.16590 -0.26114 0.95477
 N96 N 0.09744 -0.13353 0.79361
 N97 N 0.13073 -0.10876 0.78395
 C98 C 0.12319 -0.08737 0.74740
 C99 C 0.08370 -0.09991 0.73296
 C100 C 0.06821 -0.12927 0.76293
 H101 H 0.14524 -0.06511 0.73176
 H102 H 0.03817 -0.14660 0.76218
 H103 H 0.13678 -0.12212 0.86250
 H104 H 0.15839 -0.16804 0.83285
 N105 N 0.71597 -0.17378 0.79323
 N106 N 0.71634 -0.19802 0.82774
 C107 C 0.68802 -0.18330 0.85613
 C108 C 0.66842 -0.14855 0.83794
 C109 C 0.68657 -0.14347 0.79791
 H110 H 0.68201 -0.19694 0.88751
 H111 H 0.68020 -0.11864 0.77466
 Cu112 Cu 0.75291 -0.24715 0.83179
 Cu113 Cu 0.75639 -0.18150 0.74672
 Cu114 Cu 0.84620 -0.23537 0.77938
 N115 N 0.79903 -0.28635 0.84104
 N116 N 0.83632 -0.27981 0.82223
 C117 C 0.86412 -0.30820 0.83730
 C118 C 0.84280 -0.33457 0.86637
 C119 C 0.80137 -0.32010 0.86793
 H120 H 0.89724 -0.30982 0.82745
 H121 H 0.77552 -0.33195 0.88823
 N122 N 0.84462 -0.20059 0.72685
 N123 N 0.81063 -0.17951 0.71485
 C124 C 0.82035 -0.15651 0.67946
 C125 C 0.86198 -0.16464 0.66814
 C126 C 0.87652 -0.19275 0.69856
 H127 H 0.79895 -0.13502 0.66350
 H128 H 0.90840 -0.20511 0.70086
 H129 H 0.78460 -0.24094 0.76047
 H130 H 0.79707 -0.19403 0.79383
 N131 N 0.28971 0.16771 0.79042
 N132 N 0.28864 0.19166 0.82415
 C133 C 0.31583 0.17631 0.85302
 C134 C 0.33551 0.14147 0.83600
 C135 C 0.31854 0.13694 0.79613
 H136 H 0.32131 0.18980 0.88382
 H137 H 0.32555 0.11241 0.77357
 Cu138 Cu 0.25358 0.24187 0.82642
 Cu139 Cu 0.25149 0.17705 0.74326
 Cu140 Cu 0.16331 0.23613 0.77130
 N141 N 0.20869 0.28271 0.83411
 N142 N 0.17275 0.27909 0.81350
 C143 C 0.14532 0.30819 0.82751
 C144 C 0.16542 0.33167 0.85800
 C145 C 0.20572 0.31493 0.86148
 H146 H 0.11302 0.31176 0.81659
 H147 H 0.23013 0.32414 0.88352
 N148 N 0.16564 0.20113 0.72049
 N149 N 0.19877 0.17778 0.71039
 C150 C 0.18916 0.15462 0.67628
 C151 C 0.14865 0.16505 0.66382
 C152 C 0.13463 0.19468 0.69221
 H153 H 0.20976 0.13136 0.66212
 H154 H 0.10344 0.20880 0.69338
 H155 H 0.22621 0.23790 0.75417
 H156 H 0.20887 0.19166 0.78880
 N157 N 0.27660 -0.15394 0.20448
 N158 N 0.27705 -0.17864 0.17131
 C159 C 0.31068 -0.16788 0.14622
 C160 C 0.33266 -0.13514 0.16498
 C161 C 0.31045 -0.12701 0.20203
 H162 H 0.31801 -0.18196 0.11599
 H163 H 0.31673 -0.10162 0.22385
 Cu164 Cu 0.23283 -0.22107 0.16214
 Cu165 Cu 0.22823 -0.15402 0.24361
 Cu166 Cu 0.15515 -0.23685 0.23565
 N167 N 0.19777 -0.27248 0.16391
 N168 N 0.16635 -0.27778 0.19172
 C169 C 0.14341 -0.31261 0.18192
 C170 C 0.16205 -0.33040 0.14670
 C171 C 0.19658 -0.30440 0.13608
 H172 H 0.11431 -0.32319 0.19801
 H173 H 0.21715 -0.30672 0.10839
 N174 N 0.15442 -0.19688 0.28291
 N175 N 0.18138 -0.16427 0.28489
 C176 C 0.17009 -0.14002 0.31773
 C177 C 0.13499 -0.15869 0.33770
 C178 C 0.12587 -0.19480 0.31518
 H179 H 0.18556 -0.11040 0.32605
 H180 H 0.09903 -0.21638 0.32045
 H181 H 0.21856 -0.21879 0.23791
 H182 H 0.18247 -0.18308 0.20768
 N183 N 0.71345 0.16256 0.20318
 N184 N 0.71488 0.18579 0.16795
 C185 C 0.68554 0.17092 0.14112
 C186 C 0.66409 0.13725 0.16099
 C187 C 0.68228 0.13281 0.20046
 H188 H 0.68004 0.18363 0.10954
 H189 H 0.67452 0.10894 0.22472
 Cu190 Cu 0.75438 0.23359 0.16065
 Cu191 Cu 0.75378 0.17148 0.24860
 Cu192 Cu 0.84184 0.23462 0.21965
 N193 N 0.79550 0.28035 0.15602
 N194 N 0.83059 0.27937 0.17827
 C195 C 0.85666 0.31151 0.16538
 C196 C 0.83656 0.33424 0.13386
 C197 C 0.79768 0.31388 0.12863
 H198 H 0.88840 0.31719 0.17719
 H199 H 0.77420 0.32128 0.10492
 N200 N 0.83962 0.19825 0.27098
 N201 N 0.80667 0.17331 0.28144
 C202 C 0.81639 0.14993 0.31615
 C203 C 0.85673 0.16187 0.32859
 C204 C 0.87056 0.19261 0.29955
 H205 H 0.79587 0.12575 0.33098
 H206 H 0.90149 0.20833 0.29833
 H207 H 0.77868 0.23268 0.23388
 H208 H 0.79824 0.18637 0.20334
 C209 C 0.06388 -0.01927 0.39509
 C210 C 0.05209 0.02125 0.40815
 C211 C 0.04665 0.02855 0.45181
 C212 C 0.05461 -0.00377 0.48239
 C213 C 0.06500 -0.04454 0.46823
 C214 C 0.06952 -0.05235 0.42484
 C215 C 0.05702 0.00606 0.52853
 C216 C 0.04914 -0.02562 0.56031
 C217 C 0.05846 -0.01789 0.60308
 C218 C 0.07404 0.02232 0.61421
 C219 C 0.07951 0.05480 0.58349
 C220 C 0.07143 0.04650 0.54092
 H221 H 0.06821 -0.02531 0.36156
 H222 H 0.03750 0.05977 0.46203
 H223 H 0.07238 -0.06973 0.49074
 H224 H 0.03710 -0.05666 0.55170
 H225 H 0.08096 0.02871 0.64710
 H226 H 0.07879 0.07122 0.51742
 C227 C 0.93136 -0.01987 0.60870
 C228 C 0.94451 0.02093 0.59481
 C229 C 0.95144 0.02902 0.55110
 C230 C 0.94363 -0.00304 0.52123
 C231 C 0.93189 -0.04410 0.53633
 C232 C 0.92609 -0.05262 0.57976
 C233 C 0.94330 0.00685 0.47461
 C234 C 0.95159 -0.02497 0.44468
 C235 C 0.94429 -0.01776 0.40118
 C236 C 0.93018 0.02222 0.38748
 C237 C 0.92411 0.05488 0.41639
 C238 C 0.93047 0.04709 0.45972
 H239 H 0.92617 -0.02649 0.64232
 H240 H 0.96155 0.06059 0.54041
 H241 H 0.92473 -0.06922 0.51444
 H242 H 0.96263 -0.05571 0.45536
 H243 H 0.92458 0.02826 0.35403
 H244 H 0.92294 0.07190 0.48180
 C245 C 0.38572 0.06838 -0.01953
 C246 C 0.39782 0.05546 0.02131
 C247 C 0.44112 0.04781 0.02917
 C248 C 0.47251 0.05496 -0.00294
 C249 C 0.45919 0.06696 -0.04388
 C250 C 0.41606 0.07317 -0.05237
 C251 C 0.51906 0.05397 0.00673
 C252 C 0.54970 0.04576 -0.02530
 C253 C 0.59351 0.05199 -0.01818
 C254 C 0.60677 0.06474 0.02188
 C255 C 0.57709 0.07051 0.05478
 C256 C 0.53349 0.06542 0.04709
 H257 H 0.35243 0.07409 -0.02598
 H258 H 0.45039 0.03756 0.06062
 H259 H 0.48235 0.07397 -0.06893
 H260 H 0.53948 0.03569 -0.05617
 H261 H 0.64046 0.06950 0.02776
 H262 H 0.51103 0.07295 0.07211
 C263 C 0.61621 0.92709 -0.02074
 C264 C 0.60345 0.94163 0.01915
 C265 C 0.56010 0.94982 0.02694
 C266 C 0.52927 0.94190 -0.00423
 C267 C 0.54320 0.92842 -0.04436
 C268 C 0.58643 0.92153 -0.05285
 C269 C 0.48262 0.94383 0.00593
 C270 C 0.45265 0.95153 -0.02625
 C271 C 0.40866 0.94593 -0.01816
 C272 C 0.39459 0.93458 0.02294
 C273 C 0.42367 0.92926 0.05580
 C274 C 0.46742 0.93364 0.04723
 H275 H 0.64959 0.92104 -0.02718
 H276 H 0.55033 0.96130 0.05765
 H277 H 0.52044 0.92098 -0.06866
 H278 H 0.46356 0.96051 -0.05793
 H279 H 0.36076 0.93021 0.02953
 H280 H 0.48937 0.92633 0.07239
 C281 C -0.02118 0.39397 0.06220
 C282 C 0.02020 0.40757 0.05093
 C283 C 0.02882 0.45138 0.04491
 C284 C -0.00323 0.48166 0.05211
 C285 C -0.04486 0.46688 0.06219
 C286 C -0.05389 0.42329 0.06701
 C287 C 0.00736 0.52818 0.05407
 C288 C -0.02383 0.55926 0.04633
 C289 C -0.01597 0.60230 0.05546
 C290 C 0.02400 0.61452 0.07058
 C291 C 0.05613 0.58463 0.07594
 C292 C 0.04770 0.54169 0.06803
 H293 H -0.02812 0.36027 0.06691
 H294 H 0.06080 0.46183 0.03608
 H295 H -0.06991 0.48904 0.06922
 H296 H -0.05467 0.54988 0.03447
 H297 H 0.03044 0.64765 0.07747
 H298 H 0.07205 0.51880 0.07531
 C299 C -0.01734 0.60711 0.93224
 C300 C 0.02305 0.59374 0.94458
 C301 C 0.03021 0.54994 0.95059
 C302 C -0.00219 0.51946 0.94261
 C303 C -0.04284 0.53403 0.93156
 C304 C -0.05052 0.57756 0.92672
 C305 C 0.00717 0.47292 0.94171
 C306 C -0.02535 0.44184 0.94891
 C307 C -0.01803 0.39858 0.94125
 C308 C 0.02274 0.38614 0.92841
 C309 C 0.05606 0.41613 0.92361
 C310 C 0.04806 0.45928 0.92975
 H311 H -0.02330 0.64079 0.92778
 H312 H 0.06134 0.53967 0.96038
 H313 H -0.06821 0.51178 0.92424
 H314 H -0.05673 0.45136 0.95923
 H315 H 0.02877 0.35285 0.92273
 H316 H 0.07339 0.48221 0.92274
 C317 C 0.30872 0.06330 0.09016
 C318 C 0.33084 0.03438 0.11448
 C319 C 0.36766 0.02748 0.09220
 C320 C 0.36501 0.05220 0.05562
 O321 O 0.32926 0.07403 0.05446
 H322 H 0.32170 0.02072 0.14516
 H323 H 0.39331 0.00702 0.10162
 C324 C 0.69134 0.93720 0.08738
 C325 C 0.66887 0.96749 0.10916
 C326 C 0.63239 0.97307 0.08685
 C327 C 0.63563 0.94649 0.05266
 O328 O 0.67136 0.92463 0.05305
 H329 H 0.67736 0.98285 0.13834
 H330 H 0.60655 0.99388 0.09476
 C331 C 0.68197 0.05798 -0.08857
 C332 C 0.65721 0.03096 -0.11224
 C333 C 0.62047 0.02458 -0.08904
 C334 C 0.62571 0.04778 -0.05269
 O335 O 0.66305 0.06804 -0.05244
 H336 H 0.66449 0.01837 -0.14318
 H337 H 0.59309 0.00567 -0.09788
 C338 C 0.32152 0.93807 -0.08712
 C339 C 0.34704 0.96398 -0.11306
 C340 C 0.38334 0.97083 -0.09075
 C341 C 0.37713 0.94908 -0.05259
 O342 O 0.33959 0.92914 -0.05042
 H343 H 0.34052 0.97553 -0.14486
 H344 H 0.41112 0.98906 -0.10131
 C345 C 0.08772 0.31935 0.05963
 C346 C 0.11298 0.34301 0.03142
 C347 C 0.09141 0.37986 0.02442
 C348 C 0.05423 0.37557 0.04820
 O349 O 0.05212 0.33893 0.06974
 H350 H 0.14393 0.33498 0.01856
 H351 H 0.10168 0.40667 0.00460
 C352 C 0.09294 0.68284 0.93981
 C353 C 0.11657 0.65825 0.96732
 C354 C 0.09377 0.62110 0.97293
 C355 C 0.05764 0.62596 0.94895
 O356 O 0.05716 0.66341 0.92889
 H357 H 0.14706 0.66601 0.98106
 H358 H 0.10250 0.59385 0.99220
 C359 C -0.08383 0.69041 0.06182
 C360 C -0.10585 0.66908 0.03091
 C361 C -0.08377 0.63262 0.02458
 C362 C -0.04946 0.63475 0.05135
 O363 O -0.04957 0.66976 0.07406
 H364 H -0.13506 0.67827 0.01563
 H365 H -0.09184 0.60752 0.00317
 C366 C -0.08880 0.31076 0.93300
 C367 C -0.11280 0.33335 0.96164
 C368 C -0.08967 0.36957 0.96870
 C369 C -0.05293 0.36625 0.94439
 O370 O -0.05241 0.33055 0.92270
 H371 H -0.14381 0.32499 0.97516
 H372 H -0.09868 0.39530 0.98901
 C373 C 0.05793 0.09152 0.31932
 C374 C 0.03329 0.11673 0.34491
 C375 C 0.02718 0.09376 0.38179
 C376 C 0.04821 0.05601 0.37591
 O377 O 0.06684 0.05467 0.33794
 H378 H 0.02197 0.14843 0.33797
 H379 H 0.00985 0.10368 0.40968
 C380 C 0.93855 0.08932 0.68185
 C381 C 0.96963 0.11202 0.65922
 C382 C 0.97593 0.08983 0.62285
 C383 C 0.94879 0.05490 0.62639
 O384 O 0.92602 0.05469 0.66211
 H385 H 0.98500 0.14167 0.66768
 H386 H 0.99764 0.09808 0.59693
 C387 C 0.06412 -0.08628 0.69284
 C388 C 0.03213 -0.10819 0.67264
 C389 C 0.02582 -0.08588 0.63566
 C390 C 0.05389 -0.05166 0.63640
 O391 O 0.07726 -0.05200 0.67104
 H392 H 0.01612 -0.13742 0.68306
 H393 H 0.00353 -0.09365 0.61117
 C394 C 0.94045 -0.08689 0.31448
 C395 C 0.96672 -0.11128 0.33943
 C396 C 0.97204 -0.08877 0.37560
 C397 C 0.94910 -0.05200 0.36984
 O398 O 0.92985 -0.05096 0.33273
 H399 H 0.97940 -0.14229 0.33269
 H400 H 0.99000 -0.09844 0.40300
 C401 C 0.63642 0.87821 -0.14205
 C402 C 0.60721 0.90228 -0.16374
 C403 C 0.58346 0.92114 -0.13302
 C404 C 0.60061 0.90765 -0.09504
 O405 O 0.63269 0.88151 -0.10046
 H406 H 0.60346 0.90531 -0.19775
 H407 H 0.55742 0.94283 -0.13773
 C408 C 0.36720 0.11487 -0.14322
 C409 C 0.39770 0.09177 -0.16410
 C410 C 0.42120 0.07358 -0.13273
 C411 C 0.40255 0.08635 -0.09518
 O412 O 0.36990 0.11155 -0.10153
 H413 H 0.40263 0.08918 -0.19802
 H414 H 0.44817 0.05291 -0.13672
 C415 C 0.36808 0.88940 0.14559
 C416 C 0.39837 0.91227 0.16716
 C417 C 0.42478 0.92957 0.13628
 C418 C 0.40783 0.91648 0.09841
 O419 O 0.37361 0.89204 0.10407
 H420 H 0.40092 0.91570 0.20114
 H421 H 0.45220 0.95025 0.14070
 C422 C 0.63035 0.11118 0.14249
 C423 C 0.60004 0.08756 0.16517
 C424 C 0.57471 0.06979 0.13521
 C425 C 0.59211 0.08348 0.09668
 O426 O 0.62577 0.10861 0.10108
 H427 H 0.59661 0.08412 0.19931
 H428 H 0.54757 0.04858 0.14069
 C429 C -0.13935 0.63226 0.88947
 C430 C -0.16157 0.60254 0.91439
 C431 C -0.13120 0.57631 0.93042
 C432 C -0.09287 0.59272 0.91476
 O433 O -0.09779 0.62644 0.88982
 H434 H -0.19565 0.60012 0.92003
 H435 H -0.13616 0.54953 0.95220
 C436 C -0.14408 0.36894 0.10823
 C437 C -0.16579 0.39928 0.08534
 C438 C -0.13477 0.42512 0.06728
 C439 C -0.09671 0.40787 0.08006
 O440 O -0.10238 0.37395 0.10493
 H441 H -0.19994 0.40232 0.08249
 H442 H -0.13925 0.45248 0.04649
 C443 C 0.14596 0.36511 0.88297
 C444 C 0.16781 0.39630 0.90422
 C445 C 0.13693 0.42081 0.92180
 C446 C 0.09873 0.40209 0.91042
 O447 O 0.10423 0.36841 0.88679
 H448 H 0.20198 0.40083 0.90622
 H449 H 0.14168 0.44837 0.94133
 C450 C 0.14374 0.63570 0.12131
 C451 C 0.16671 0.60777 0.09718
 C452 C 0.13676 0.58308 0.07796
 C453 C 0.09798 0.59865 0.09128
 O454 O 0.10221 0.63044 0.11765
 H455 H 0.20101 0.60587 0.09387
 H456 H 0.14245 0.55791 0.05573
 C457 C 0.88690 -0.14373 0.63400
 C458 C 0.91312 -0.16434 0.60594
 C459 C 0.93008 -0.13288 0.58006
 C460 C 0.91360 -0.09554 0.59523
 O461 O 0.88726 -0.10209 0.62785
 H462 H 0.91901 -0.19813 0.60456
 H463 H 0.95300 -0.13644 0.55441
 C464 C 0.10986 -0.14031 0.37196
 C465 C 0.08619 -0.16307 0.40212
 C466 C 0.06869 -0.13303 0.42750
 C467 C 0.08242 -0.09440 0.41010
 O468 O 0.10750 -0.09881 0.37657
 H469 H 0.08243 -0.19729 0.40531
 H470 H 0.04747 -0.13851 0.45455
 C471 C 0.88152 0.14280 0.36271
 C472 C 0.90605 0.16543 0.39057
 C473 C 0.92412 0.13537 0.41610
 C474 C 0.90997 0.09678 0.40099
 O475 O 0.88396 0.10125 0.36870
 H476 H 0.91017 0.19963 0.39200
 H477 H 0.94610 0.14083 0.44164
 C478 C 0.12353 0.14476 0.63108
 C479 C 0.09838 0.16620 0.60258
 C480 C 0.07973 0.13520 0.57919
 C481 C 0.09424 0.09730 0.59610
 O482 O 0.12095 0.10306 0.62750
 H483 H 0.09410 0.20022 0.59946
 H484 H 0.05701 0.13956 0.55402
   
