data_POSCAR
  _audit_creation_date              2014-09-24
  _audit_creation_method            'ToBaCCo'
  _symmetry_space_group_name_H-M    'P1'
  _symmetry_Int_Tables_number       1
  _symmetry_cell_setting            triclinic
  loop_
  _symmetry_equiv_pos_as_xyz
 x,y,z
_cell_length_a 50.8232
_cell_length_b 50.7550
_cell_length_c 50.8314
_cell_angle_alpha 89.946500
_cell_angle_beta 89.974300
_cell_angle_gamma 89.978400
loop_
  _atom_site_label
  _atom_site_type_symbol
  _atom_site_fract_x
  _atom_site_fract_y
  _atom_site_fract_z
C1 C 0.25012 0.26973 0.23002
 C2 C 0.26973 0.26963 0.21059
 C3 C 0.28939 0.25012 0.21047
 C4 C 0.28924 0.23057 0.23011
 C5 C 0.26976 0.23042 0.24966
 C6 C 0.25014 0.25008 0.24966
 C7 C 0.23050 0.28917 0.23010
 C8 C 0.21086 0.28931 0.24960
 C9 C 0.21104 0.26967 0.26914
 C10 C 0.23053 0.25010 0.26931
 C11 C 0.23066 0.23048 0.28877
 C12 C 0.25016 0.21082 0.28892
 C13 C 0.26966 0.21095 0.26927
 H14 H 0.26949 0.28456 0.19533
 H15 H 0.30451 0.21566 0.23036
 H16 H 0.23073 0.30444 0.21518
 H17 H 0.19578 0.26942 0.28405
 H18 H 0.21536 0.23033 0.30364
 H19 H 0.28496 0.19608 0.26944
 C20 C 0.74973 -0.26954 0.23027
 C21 C 0.73016 -0.26943 0.21079
 C22 C 0.71016 -0.25002 0.21044
 C23 C 0.71048 -0.23060 0.23039
 C24 C 0.72997 -0.23049 0.24992
 C25 C 0.74970 -0.24998 0.24982
 C26 C 0.76933 -0.28904 0.23037
 C27 C 0.78930 -0.28940 0.24976
 C28 C 0.78893 -0.26944 0.26917
 C29 C 0.76941 -0.24990 0.26930
 C30 C 0.76923 -0.23035 0.28880
 C31 C 0.74965 -0.21076 0.28903
 C32 C 0.73010 -0.21098 0.26947
 H33 H 0.73010 -0.28533 0.19663
 H34 H 0.69626 -0.21472 0.23037
 H35 H 0.76943 -0.30320 0.21447
 H36 H 0.80312 -0.26948 0.28503
 H37 H 0.78417 -0.23054 0.30401
 H38 H 0.71514 -0.19576 0.26930
 C39 C 0.75006 0.26969 0.76951
 C40 C 0.73050 0.26954 0.78902
 C41 C 0.71054 0.25011 0.78939
 C42 C 0.71088 0.23071 0.76942
 C43 C 0.73035 0.23063 0.74986
 C44 C 0.75005 0.25015 0.74994
 C45 C 0.76962 0.28921 0.76939
 C46 C 0.78958 0.28961 0.74997
 C47 C 0.78923 0.26967 0.73054
 C48 C 0.76975 0.25010 0.73043
 C49 C 0.76958 0.23056 0.71091
 C50 C 0.75004 0.21096 0.71070
 C51 C 0.73051 0.21114 0.73029
 H52 H 0.73043 0.28543 0.80320
 H53 H 0.69670 0.21481 0.76945
 H54 H 0.76971 0.30336 0.78530
 H55 H 0.80341 0.26973 0.71466
 H56 H 0.78451 0.23078 0.69568
 H57 H 0.71557 0.19590 0.73048
 C58 C 0.24979 -0.26993 0.77010
 C59 C 0.26940 -0.26984 0.78954
 C60 C 0.28907 -0.25037 0.78967
 C61 C 0.28896 -0.23085 0.77002
 C62 C 0.26953 -0.23071 0.75044
 C63 C 0.24990 -0.25037 0.75044
 C64 C 0.23018 -0.28937 0.77005
 C65 C 0.21036 -0.28983 0.75050
 C66 C 0.21089 -0.27000 0.73091
 C67 C 0.23039 -0.25045 0.73077
 C68 C 0.23054 -0.23082 0.71131
 C69 C 0.25002 -0.21115 0.71115
 C70 C 0.26947 -0.21127 0.73081
 H71 H 0.26913 -0.28474 0.80483
 H72 H 0.30424 -0.21595 0.76976
 H73 H 0.23127 -0.30473 0.78479
 H74 H 0.19556 -0.26886 0.71619
 H75 H 0.21528 -0.23067 0.69641
 H76 H 0.28478 -0.19640 0.73065
 C77 C 0.74990 -0.26986 0.76989
 C78 C 0.73031 -0.26973 0.78937
 C79 C 0.71065 -0.25023 0.78952
 C80 C 0.71077 -0.23071 0.76988
 C81 C 0.73023 -0.23056 0.75032
 C82 C 0.74992 -0.25018 0.75036
 C83 C 0.76952 -0.28930 0.76985
 C84 C 0.78950 -0.28962 0.75044
 C85 C 0.78913 -0.26964 0.73100
 C86 C 0.76962 -0.25008 0.73087
 C87 C 0.76942 -0.23051 0.71135
 C88 C 0.74985 -0.21092 0.71111
 C89 C 0.73031 -0.21110 0.73071
 H90 H 0.73055 -0.28466 0.80464
 H91 H 0.69548 -0.21581 0.76962
 H92 H 0.76959 -0.30349 0.78575
 H93 H 0.80332 -0.26967 0.71513
 H94 H 0.78436 -0.23070 0.69612
 H95 H 0.71536 -0.19587 0.73090
 C96 C 0.25025 0.26952 0.76959
 C97 C 0.26985 0.26939 0.78901
 C98 C 0.28952 0.24989 0.78912
 C99 C 0.28938 0.23038 0.76948
 C100 C 0.26989 0.23023 0.74995
 C101 C 0.25024 0.24988 0.74998
 C102 C 0.23061 0.28895 0.76953
 C103 C 0.21092 0.28906 0.75009
 C104 C 0.21107 0.26942 0.73059
 C105 C 0.23059 0.24987 0.73039
 C106 C 0.23075 0.23032 0.71091
 C107 C 0.25029 0.21068 0.71073
 C108 C 0.26979 0.21081 0.73035
 H109 H 0.26960 0.28430 0.80427
 H110 H 0.30466 0.21548 0.76921
 H111 H 0.23045 0.30381 0.78483
 H112 H 0.19618 0.26956 0.71533
 H113 H 0.21544 0.23016 0.69608
 H114 H 0.28512 0.19595 0.73016
 C115 C 0.24992 -0.26974 0.23032
 C116 C 0.26957 -0.26970 0.21091
 C117 C 0.28949 -0.25022 0.21049
 C118 C 0.28904 -0.23070 0.23034
 C119 C 0.26953 -0.23058 0.24986
 C120 C 0.24994 -0.25021 0.24990
 C121 C 0.23024 -0.28914 0.23033
 C122 C 0.21034 -0.28960 0.24982
 C123 C 0.21084 -0.26980 0.26939
 C124 C 0.23037 -0.25028 0.26954
 C125 C 0.23048 -0.23068 0.28899
 C126 C 0.24999 -0.21104 0.28916
 C127 C 0.26947 -0.21118 0.26951
 H128 H 0.26843 -0.28436 0.19552
 H129 H 0.30443 -0.21602 0.23151
 H130 H 0.23134 -0.30450 0.21562
 H131 H 0.19547 -0.26865 0.28407
 H132 H 0.21518 -0.23052 0.30385
 H133 H 0.28478 -0.19632 0.26970
 C134 C 0.75015 0.27001 0.23023
 C135 C 0.73061 0.26985 0.21073
 C136 C 0.71096 0.25035 0.21059
 C137 C 0.71105 0.23086 0.23027
 C138 C 0.73048 0.23074 0.24985
 C139 C 0.75016 0.25035 0.24980
 C140 C 0.76971 0.28950 0.23033
 C141 C 0.78965 0.28985 0.24976
 C142 C 0.78928 0.26987 0.26919
 C143 C 0.76982 0.25028 0.26930
 C144 C 0.76963 0.23070 0.28882
 C145 C 0.75010 0.21108 0.28904
 C146 C 0.73059 0.21125 0.26942
 H147 H 0.73046 0.28516 0.19585
 H148 H 0.69618 0.21556 0.23013
 H149 H 0.76978 0.30369 0.21442
 H150 H 0.80345 0.26991 0.28508
 H151 H 0.78454 0.23091 0.30407
 H152 H 0.71567 0.19600 0.26922
 O153 O 0.22848 0.02544 0.47436
 O154 O 0.22848 -0.02584 0.52564
 O155 O 0.22851 0.02546 0.52558
 O156 O 0.22845 -0.02585 0.47442
 O157 O 0.27185 -0.02590 0.47438
 O158 O 0.27190 0.02541 0.52554
 O159 O 0.27187 -0.02588 0.52561
 O160 O 0.27188 0.02540 0.47432
 Cu161 Cu 0.22413 -0.00019 0.50001
 Cu162 Cu 0.27622 -0.00025 0.49996
 C163 C 0.25018 0.03421 0.46555
 C164 C 0.25017 -0.03465 0.53442
 C165 C 0.25022 0.03423 0.53433
 C166 C 0.25014 -0.03467 0.46563
 O167 O 0.77154 0.02559 0.52556
 O168 O 0.77146 -0.02568 0.47436
 O169 O 0.77153 0.02561 0.47434
 O170 O 0.77148 -0.02571 0.52558
 O171 O 0.72808 -0.02564 0.52562
 O172 O 0.72814 0.02569 0.47438
 O173 O 0.72806 -0.02561 0.47439
 O174 O 0.72815 0.02566 0.52559
 Cu175 Cu 0.77585 -0.00005 0.49996
 Cu176 Cu 0.72376 0.00003 0.50000
 C177 C 0.74986 0.03442 0.53435
 C178 C 0.74975 -0.03443 0.46559
 C179 C 0.74984 0.03445 0.46558
 C180 C 0.74977 -0.03446 0.53439
 O181 O 0.47476 0.22842 0.02539
 O182 O 0.52600 0.22838 -0.02584
 O183 O 0.52598 0.22844 0.02538
 O184 O 0.47477 0.22836 -0.02582
 O185 O 0.47474 0.27181 -0.02592
 O186 O 0.52595 0.27189 0.02529
 O187 O 0.52596 0.27184 -0.02593
 O188 O 0.47472 0.27188 0.02530
 Cu189 Cu 0.50038 0.22405 -0.00021
 Cu190 Cu 0.50034 0.27621 -0.00032
 C191 C 0.46595 0.25016 0.03413
 C192 C 0.53476 0.25010 -0.03467
 C193 C 0.53475 0.25018 0.03411
 C194 C 0.46597 0.25007 -0.03465
 O195 O 0.52546 0.77138 0.02595
 O196 O 0.47422 0.77132 -0.02523
 O197 O 0.47423 0.77133 0.02598
 O198 O 0.52545 0.77135 -0.02527
 O199 O 0.52550 0.72789 -0.02521
 O200 O 0.47428 0.72788 0.02605
 O201 O 0.47427 0.72787 -0.02517
 O202 O 0.52551 0.72793 0.02602
 Cu203 Cu 0.49984 0.77570 0.00035
 Cu204 Cu 0.49989 0.72354 0.00043
 C205 C 0.53427 0.74967 0.03476
 C206 C 0.46546 0.74958 -0.03398
 C207 C 0.46548 0.74961 0.03480
 C208 C 0.53425 0.74962 -0.03402
 O209 O 0.02546 0.47467 0.22782
 O210 O -0.02580 0.52596 0.22785
 O211 O 0.02543 0.52597 0.22781
 O212 O -0.02577 0.47467 0.22785
 O213 O -0.02576 0.47463 0.27124
 O214 O 0.02544 0.52593 0.27120
 O215 O -0.02579 0.52592 0.27123
 O216 O 0.02546 0.47463 0.27121
 Cu217 Cu -0.00017 0.50032 0.22349
 Cu218 Cu -0.00016 0.50027 0.27557
 C219 C 0.03425 0.46586 0.24951
 C220 C -0.03459 0.53473 0.24954
 C221 C 0.03421 0.53474 0.24950
 C222 C -0.03454 0.46585 0.24955
 O223 O 0.02549 0.52555 0.77216
 O224 O -0.02578 0.47430 0.77204
 O225 O 0.02546 0.47425 0.77209
 O226 O -0.02574 0.52559 0.77214
 O227 O -0.02569 0.52570 0.72875
 O228 O 0.02550 0.47436 0.72870
 O229 O -0.02572 0.47441 0.72866
 O230 O 0.02554 0.52565 0.72877
 Cu231 Cu -0.00015 0.49991 0.77645
 Cu232 Cu -0.00009 0.50004 0.72437
 C233 C 0.03430 0.53438 0.75049
 C234 C -0.03454 0.46557 0.75033
 C235 C 0.03426 0.46550 0.75038
 C236 C -0.03449 0.53445 0.75045
 C237 C 0.34929 0.25018 0.15069
 C238 C 0.33767 0.22646 0.15858
 C239 C 0.31820 0.22642 0.17802
 C240 C 0.31008 0.25014 0.18982
 C241 C 0.32188 0.27388 0.18173
 C242 C 0.34136 0.27388 0.16230
 C243 C 0.36934 0.25019 0.13069
 C244 C 0.38613 0.25019 0.11392
 C245 C 0.40616 0.25019 0.09391
 C246 C 0.41594 0.22633 0.08418
 C247 C 0.43540 0.22629 0.06473
 C248 C 0.44534 0.25017 0.05474
 C249 C 0.43537 0.27406 0.06465
 C250 C 0.41591 0.27404 0.08411
 H251 H 0.34361 0.20801 0.14967
 H252 H 0.30925 0.20787 0.18358
 H253 H 0.31630 0.29241 0.19068
 H254 H 0.35029 0.29234 0.15639
 H255 H 0.40852 0.20776 0.09163
 H256 H 0.44264 0.20757 0.05753
 H257 H 0.44260 0.29277 0.05739
 H258 H 0.40848 0.29262 0.09150
 C259 C 0.65090 0.74988 0.15125
 C260 C 0.67547 0.73864 0.14621
 C261 C 0.69496 0.73863 0.16560
 C262 C 0.69034 0.74996 0.19063
 C263 C 0.66527 0.76127 0.19524
 C264 C 0.64586 0.76117 0.17578
 C265 C 0.63087 0.74982 0.13125
 C266 C 0.61409 0.74978 0.11449
 C267 C 0.59406 0.74975 0.09449
 C268 C 0.58436 0.72589 0.08473
 C269 C 0.56490 0.72583 0.06530
 C270 C 0.55488 0.74970 0.05535
 C271 C 0.56477 0.77359 0.06530
 C272 C 0.58423 0.77359 0.08473
 H273 H 0.67967 0.73004 0.12716
 H274 H 0.71395 0.73062 0.16029
 H275 H 0.65996 0.76931 0.21420
 H276 H 0.62678 0.76974 0.17997
 H277 H 0.59184 0.70732 0.09215
 H278 H 0.55772 0.70710 0.05807
 H279 H 0.55749 0.79230 0.05807
 H280 H 0.59160 0.79218 0.09215
 C281 C 0.65134 0.25005 -0.15132
 C282 C 0.64630 0.23879 -0.17585
 C283 C 0.66569 0.23875 -0.19535
 C284 C 0.69073 0.25008 -0.19077
 C285 C 0.69536 0.26139 -0.16573
 C286 C 0.67588 0.26132 -0.14631
 C287 C 0.63133 0.25003 -0.13128
 C288 C 0.61456 0.25003 -0.11449
 C289 C 0.59454 0.25005 -0.09446
 C290 C 0.58476 0.22621 -0.08468
 C291 C 0.56531 0.22619 -0.06522
 C292 C 0.55537 0.25009 -0.05528
 C293 C 0.56534 0.27396 -0.06525
 C294 C 0.58480 0.27391 -0.08471
 H295 H 0.62724 0.23019 -0.18002
 H296 H 0.66038 0.23073 -0.21431
 H297 H 0.71433 0.26943 -0.16045
 H298 H 0.68008 0.26991 -0.12726
 H299 H 0.59217 0.20762 -0.09209
 H300 H 0.55807 0.20748 -0.05797
 H301 H 0.55812 0.29268 -0.05803
 H302 H 0.59223 0.29249 -0.09215
 C303 C 0.34887 0.74954 -0.15051
 C304 C 0.34095 0.72584 -0.16210
 C305 C 0.32150 0.72585 -0.18155
 C306 C 0.30973 0.74960 -0.18967
 C307 C 0.31784 0.77332 -0.17789
 C308 C 0.33728 0.77327 -0.15843
 C309 C 0.36889 0.74952 -0.13049
 C310 C 0.38566 0.74952 -0.11372
 C311 C 0.40568 0.74953 -0.09371
 C312 C 0.41547 0.72568 -0.08394
 C313 C 0.43493 0.72567 -0.06450
 C314 C 0.44485 0.74956 -0.05457
 C315 C 0.43486 0.77344 -0.06453
 C316 C 0.41541 0.77339 -0.08397
 H317 H 0.34984 0.70737 -0.15616
 H318 H 0.31591 0.70732 -0.19048
 H319 H 0.30891 0.79188 -0.18347
 H320 H 0.34322 0.79172 -0.14953
 H321 H 0.40808 0.70710 -0.09134
 H322 H 0.44219 0.70696 -0.05726
 H323 H 0.44206 0.79216 -0.05732
 H324 H 0.40795 0.79196 -0.09141
 C325 C 0.15094 0.34916 0.24951
 C326 C 0.16258 0.34128 0.27320
 C327 C 0.18205 0.32182 0.27325
 C328 C 0.19016 0.30998 0.24957
 C329 C 0.17834 0.31804 0.22586
 C330 C 0.15885 0.33750 0.22586
 C331 C 0.13090 0.36919 0.24949
 C332 C 0.11410 0.38598 0.24948
 C333 C 0.09406 0.40602 0.24948
 C334 C 0.08431 0.41579 0.27330
 C335 C 0.06484 0.43526 0.27334
 C336 C 0.05487 0.44523 0.24950
 C337 C 0.06481 0.43526 0.22565
 C338 C 0.08428 0.41579 0.22567
 H339 H 0.15665 0.35024 0.29161
 H340 H 0.19102 0.31628 0.29177
 H341 H 0.18392 0.30906 0.20737
 H342 H 0.14992 0.34340 0.20742
 H343 H 0.09176 0.40835 0.29185
 H344 H 0.05762 0.44249 0.29203
 H345 H 0.05756 0.44250 0.20696
 H346 H 0.09169 0.40836 0.20711
 C347 C 0.15103 0.65096 0.75059
 C348 C 0.15822 0.66329 0.72711
 C349 C 0.17768 0.68275 0.72701
 C350 C 0.19051 0.69036 0.75053
 C351 C 0.18287 0.67754 0.77409
 C352 C 0.16337 0.65813 0.77405
 C353 C 0.13098 0.63094 0.75062
 C354 C 0.11418 0.61418 0.75061
 C355 C 0.09414 0.59416 0.75059
 C356 C 0.08436 0.58433 0.77439
 C357 C 0.06488 0.56488 0.77439
 C358 C 0.05493 0.55499 0.75053
 C359 C 0.06490 0.56501 0.72670
 C360 C 0.08437 0.58446 0.72676
 H361 H 0.14893 0.65771 0.70876
 H362 H 0.18322 0.69088 0.70814
 H363 H 0.19101 0.68307 0.79294
 H364 H 0.15777 0.64884 0.79242
 H365 H 0.09179 0.59170 0.79296
 H366 H 0.05764 0.55759 0.79307
 H367 H 0.05766 0.55783 0.70799
 H368 H 0.09181 0.59194 0.70822
 C369 C -0.15136 0.65135 0.24965
 C370 C -0.14637 0.67591 0.26094
 C371 C -0.16581 0.69540 0.26103
 C372 C -0.19085 0.69077 0.24972
 C373 C -0.19542 0.66571 0.23838
 C374 C -0.17590 0.64630 0.23840
 C375 C -0.13130 0.63133 0.24961
 C376 C -0.11450 0.61456 0.24959
 C377 C -0.09444 0.59453 0.24958
 C378 C -0.08471 0.58475 0.22575
 C379 C -0.06522 0.56529 0.22571
 C380 C -0.05521 0.55536 0.24956
 C381 C -0.06514 0.56533 0.27341
 C382 C -0.08462 0.58479 0.27339
 H383 H -0.12731 0.68011 0.26953
 H384 H -0.16053 0.71438 0.26908
 H385 H -0.21438 0.66040 0.23036
 H386 H -0.18006 0.62723 0.22978
 H387 H -0.09218 0.59216 0.20721
 H388 H -0.05802 0.55805 0.20702
 H389 H -0.05786 0.55811 0.29209
 H390 H -0.09202 0.59223 0.29194
 C391 C -0.15119 0.34892 0.75004
 C392 C -0.17573 0.35393 0.76133
 C393 C -0.19522 0.33450 0.76136
 C394 C -0.19061 0.30946 0.74999
 C395 C -0.16557 0.30487 0.73863
 C396 C -0.14616 0.32438 0.73872
 C397 C -0.13117 0.36896 0.75007
 C398 C -0.11439 0.38575 0.75011
 C399 C -0.09436 0.40578 0.75017
 C400 C -0.08452 0.41558 0.72638
 C401 C -0.06506 0.43503 0.72640
 C402 C -0.05516 0.44496 0.75027
 C403 C -0.06519 0.43497 0.77409
 C404 C -0.08466 0.41551 0.77401
 H405 H -0.17992 0.37299 0.76997
 H406 H -0.21418 0.33979 0.76941
 H407 H -0.16026 0.28590 0.73056
 H408 H -0.12710 0.32021 0.73010
 H409 H -0.09190 0.40818 0.70780
 H410 H -0.05777 0.44229 0.70773
 H411 H -0.05800 0.44218 0.79280
 H412 H -0.09214 0.40806 0.79254
 C413 C 0.25018 0.15091 0.34881
 C414 C 0.25559 0.14426 0.32265
 C415 C 0.25561 0.16372 0.30316
 C416 C 0.25017 0.19013 0.30961
 C417 C 0.24475 0.19661 0.33597
 C418 C 0.24476 0.17712 0.35542
 C419 C 0.25016 0.13086 0.36884
 C420 C 0.25016 0.11407 0.38564
 C421 C 0.25017 0.09403 0.40569
 C422 C 0.27399 0.08422 0.41542
 C423 C 0.27403 0.06476 0.43490
 C424 C 0.25018 0.05484 0.44491
 C425 C 0.22633 0.06484 0.43499
 C426 C 0.22635 0.08430 0.41551
 H427 H 0.25974 0.12402 0.31730
 H428 H 0.25952 0.15806 0.28300
 H429 H 0.24083 0.21680 0.34160
 H430 H 0.24061 0.18249 0.37563
 H431 H 0.29255 0.09162 0.40795
 H432 H 0.29272 0.05749 0.44210
 H433 H 0.20764 0.05763 0.44227
 H434 H 0.20779 0.09176 0.40811
 C435 C 0.75001 0.15115 0.65084
 C436 C 0.72635 0.16286 0.65870
 C437 C 0.72633 0.18231 0.67816
 C438 C 0.75003 0.19031 0.69002
 C439 C 0.77372 0.17842 0.68197
 C440 C 0.77368 0.15896 0.66251
 C441 C 0.74999 0.13111 0.63082
 C442 C 0.74996 0.11433 0.61406
 C443 C 0.74994 0.09427 0.59406
 C444 C 0.72611 0.08455 0.58432
 C445 C 0.72605 0.06507 0.56488
 C446 C 0.74989 0.05505 0.55494
 C447 C 0.77375 0.06497 0.56488
 C448 C 0.77375 0.08445 0.58431
 H449 H 0.70791 0.15700 0.64974
 H450 H 0.70783 0.19133 0.68369
 H451 H 0.79223 0.18391 0.69096
 H452 H 0.79210 0.14997 0.65663
 H453 H 0.70756 0.09202 0.59173
 H454 H 0.70735 0.05786 0.55766
 H455 H 0.79244 0.05769 0.55765
 H456 H 0.79231 0.09184 0.59173
 C457 C 0.25010 -0.15130 0.65121
 C458 C 0.24472 -0.17751 0.64461
 C459 C 0.24469 -0.19699 0.66408
 C460 C 0.25005 -0.19048 0.69044
 C461 C 0.25545 -0.16406 0.69687
 C462 C 0.25546 -0.14462 0.67737
 C463 C 0.25011 -0.13127 0.63115
 C464 C 0.25013 -0.11449 0.61434
 C465 C 0.25014 -0.09446 0.59429
 C466 C 0.22633 -0.08468 0.58451
 C467 C 0.22631 -0.06522 0.56502
 C468 C 0.25016 -0.05528 0.55505
 C469 C 0.27401 -0.06525 0.56502
 C470 C 0.27397 -0.08471 0.58450
 H471 H 0.24062 -0.18291 0.62441
 H472 H 0.24080 -0.21719 0.65847
 H473 H 0.25932 -0.15839 0.71703
 H474 H 0.25957 -0.12437 0.68270
 H475 H 0.20777 -0.09210 0.59195
 H476 H 0.20762 -0.05798 0.55778
 H477 H 0.29270 -0.05802 0.55777
 H478 H 0.29252 -0.09215 0.59194
 C479 C 0.74962 -0.15095 0.34889
 C480 C 0.72596 -0.16266 0.34108
 C481 C 0.72594 -0.18210 0.32161
 C482 C 0.74964 -0.19009 0.30970
 C483 C 0.77332 -0.17819 0.31770
 C484 C 0.77328 -0.15874 0.33716
 C485 C 0.74961 -0.13094 0.36894
 C486 C 0.74962 -0.11419 0.38573
 C487 C 0.74965 -0.09418 0.40578
 C488 C 0.72585 -0.08440 0.41558
 C489 C 0.72585 -0.06496 0.43505
 C490 C 0.74971 -0.05504 0.44498
 C491 C 0.77355 -0.06502 0.43500
 C492 C 0.77349 -0.08446 0.41553
 H493 H 0.70753 -0.15682 0.35008
 H494 H 0.70745 -0.19113 0.31611
 H495 H 0.79182 -0.18368 0.30866
 H496 H 0.79170 -0.14975 0.34301
 H497 H 0.70728 -0.09179 0.40816
 H498 H 0.70717 -0.05770 0.44230
 H499 H 0.79225 -0.05782 0.44221
 H500 H 0.79203 -0.09190 0.40807
 C501 C 0.65081 0.74968 -0.15065
 C502 C 0.65873 0.72598 -0.16228
 C503 C 0.67819 0.72599 -0.18173
 C504 C 0.68998 0.74974 -0.18981
 C505 C 0.68187 0.77346 -0.17800
 C506 C 0.66242 0.77340 -0.15855
 C507 C 0.63079 0.74964 -0.13063
 C508 C 0.61402 0.74963 -0.11386
 C509 C 0.59400 0.74963 -0.09383
 C510 C 0.58426 0.72577 -0.08403
 C511 C 0.56482 0.72574 -0.06457
 C512 C 0.55485 0.74962 -0.05464
 C513 C 0.56478 0.77351 -0.06463
 C514 C 0.58422 0.77348 -0.08409
 H515 H 0.64982 0.70751 -0.15636
 H516 H 0.68378 0.70746 -0.19069
 H517 H 0.69081 0.79201 -0.18357
 H518 H 0.65648 0.79185 -0.14962
 H519 H 0.59170 0.70719 -0.09144
 H520 H 0.55760 0.70702 -0.05731
 H521 H 0.55753 0.79222 -0.05742
 H522 H 0.59163 0.79206 -0.09154
 C523 C 0.34940 0.24991 -0.15116
 C524 C 0.33779 0.22619 -0.15902
 C525 C 0.31833 0.22616 -0.17845
 C526 C 0.31020 0.24989 -0.19026
 C527 C 0.32200 0.27363 -0.18221
 C528 C 0.34147 0.27362 -0.16279
 C529 C 0.36943 0.24992 -0.13116
 C530 C 0.38620 0.24993 -0.11441
 C531 C 0.40622 0.24997 -0.09440
 C532 C 0.41598 0.22613 -0.08457
 C533 C 0.43543 0.22614 -0.06513
 C534 C 0.44538 0.25004 -0.05525
 C535 C 0.43542 0.27390 -0.06526
 C536 C 0.41597 0.27384 -0.08471
 H537 H 0.34374 0.20774 -0.15009
 H538 H 0.30938 0.20762 -0.18399
 H539 H 0.31640 0.29217 -0.19117
 H540 H 0.35038 0.29208 -0.15689
 H541 H 0.40857 0.20754 -0.09194
 H542 H 0.44267 0.20743 -0.05785
 H543 H 0.44264 0.29263 -0.05808
 H544 H 0.40854 0.29241 -0.09218
 C545 C 0.34884 0.74965 0.15136
 C546 C 0.33640 0.72618 0.15848
 C547 C 0.31689 0.72615 0.17788
 C548 C 0.30935 0.74973 0.19071
 C549 C 0.32228 0.77327 0.18316
 C550 C 0.34174 0.77316 0.16372
 C551 C 0.36888 0.74961 0.13136
 C552 C 0.38567 0.74960 0.11459
 C553 C 0.40570 0.74960 0.09458
 C554 C 0.41548 0.72574 0.08485
 C555 C 0.43494 0.72572 0.06539
 C556 C 0.44488 0.74960 0.05541
 C557 C 0.43491 0.77348 0.06534
 C558 C 0.41545 0.77345 0.08479
 H559 H 0.34193 0.70779 0.14918
 H560 H 0.30867 0.70729 0.18337
 H561 H 0.31682 0.79216 0.19131
 H562 H 0.35111 0.79151 0.15817
 H563 H 0.40806 0.70716 0.09229
 H564 H 0.44218 0.70700 0.05818
 H565 H 0.44213 0.79220 0.05809
 H566 H 0.40801 0.79203 0.09220
 C567 C 0.65124 0.25033 0.15070
 C568 C 0.67743 0.25571 0.14408
 C569 C 0.69686 0.25573 0.16354
 C570 C 0.69033 0.25035 0.18991
 C571 C 0.66395 0.24497 0.19636
 C572 C 0.64455 0.24497 0.17687
 C573 C 0.63126 0.25031 0.13066
 C574 C 0.61451 0.25029 0.11388
 C575 C 0.59450 0.25026 0.09386
 C576 C 0.58474 0.22640 0.08417
 C577 C 0.56529 0.22634 0.06472
 C578 C 0.55535 0.25021 0.05470
 C579 C 0.56530 0.27411 0.06458
 C580 C 0.58475 0.27410 0.08403
 H581 H 0.68283 0.25981 0.12387
 H582 H 0.71704 0.25962 0.15791
 H583 H 0.65826 0.24109 0.21653
 H584 H 0.62432 0.24086 0.18222
 H585 H 0.59215 0.20783 0.09164
 H586 H 0.55806 0.20761 0.05755
 H587 H 0.55808 0.29281 0.05730
 H588 H 0.59218 0.29269 0.09140
 C589 C -0.15114 0.65117 0.75052
 C590 C -0.14615 0.67575 0.73922
 C591 C -0.16559 0.69523 0.73915
 C592 C -0.19063 0.69057 0.75048
 C593 C -0.19519 0.66550 0.76184
 C594 C -0.17566 0.64609 0.76180
 C595 C -0.13108 0.63115 0.75051
 C596 C -0.11429 0.61437 0.75051
 C597 C -0.09426 0.59432 0.75050
 C598 C -0.08443 0.58464 0.72667
 C599 C -0.06498 0.56516 0.72663
 C600 C -0.05509 0.55509 0.75047
 C601 C -0.06511 0.56497 0.77432
 C602 C -0.08456 0.58445 0.77431
 H603 H -0.12710 0.67997 0.73062
 H604 H -0.16033 0.71423 0.73110
 H605 H -0.21415 0.66015 0.76988
 H606 H -0.17982 0.62700 0.77042
 H607 H -0.09181 0.59215 0.70813
 H608 H -0.05770 0.55799 0.70793
 H609 H -0.05793 0.55765 0.79301
 H610 H -0.09204 0.59182 0.79286
 C611 C -0.15111 0.34913 0.24968
 C612 C -0.17564 0.35418 0.23839
 C613 C -0.19513 0.33476 0.23837
 C614 C -0.19053 0.30969 0.24974
 C615 C -0.16550 0.30507 0.26109
 C616 C -0.14609 0.32457 0.26100
 C617 C -0.13108 0.36917 0.24964
 C618 C -0.11430 0.38596 0.24961
 C619 C -0.09429 0.40600 0.24960
 C620 C -0.08458 0.41583 0.22577
 C621 C -0.06513 0.43531 0.22573
 C622 C -0.05514 0.44522 0.24957
 C623 C -0.06504 0.43519 0.27342
 C624 C -0.08449 0.41571 0.27341
 H625 H -0.17981 0.37326 0.22976
 H626 H -0.21408 0.34007 0.23032
 H627 H -0.16021 0.28608 0.26915
 H628 H -0.12704 0.32038 0.26961
 H629 H -0.09203 0.40844 0.20723
 H630 H -0.05794 0.44260 0.20703
 H631 H -0.05778 0.44239 0.29211
 H632 H -0.09188 0.40824 0.29196
 C633 C 0.15095 0.34883 0.75024
 C634 C 0.17711 0.35554 0.75557
 C635 C 0.19662 0.33612 0.75554
 C636 C 0.19020 0.30970 0.75015
 C637 C 0.16384 0.30316 0.74481
 C638 C 0.14435 0.32261 0.74487
 C639 C 0.13088 0.36884 0.75027
 C640 C 0.11408 0.38561 0.75029
 C641 C 0.09404 0.40564 0.75032
 C642 C 0.08426 0.41537 0.77415
 C643 C 0.06480 0.43484 0.77420
 C644 C 0.05485 0.44486 0.75036
 C645 C 0.06482 0.43494 0.72650
 C646 C 0.08428 0.41546 0.72651
 H647 H 0.18244 0.37579 0.75968
 H648 H 0.21679 0.34181 0.75939
 H649 H 0.15823 0.28296 0.74093
 H650 H 0.12414 0.31720 0.74079
 H651 H 0.09168 0.40790 0.79269
 H652 H 0.05756 0.44205 0.79289
 H653 H 0.05759 0.44222 0.70782
 H654 H 0.09171 0.40806 0.70795
 C655 C 0.15093 0.65130 0.24959
 C656 C 0.15807 0.66357 0.27310
 C657 C 0.17755 0.68300 0.27324
 C658 C 0.19046 0.69063 0.24974
 C659 C 0.18287 0.67788 0.22616
 C660 C 0.16334 0.65850 0.22616
 C661 C 0.13087 0.63130 0.24953
 C662 C 0.11406 0.61454 0.24950
 C663 C 0.09401 0.59453 0.24949
 C664 C 0.08423 0.58476 0.27331
 C665 C 0.06476 0.56530 0.27334
 C666 C 0.05482 0.55536 0.24950
 C667 C 0.06479 0.56533 0.22565
 C668 C 0.08426 0.58479 0.22567
 H669 H 0.14872 0.65796 0.29143
 H670 H 0.18305 0.69108 0.29212
 H671 H 0.19108 0.68343 0.20733
 H672 H 0.15778 0.64926 0.20777
 H673 H 0.09165 0.59217 0.29186
 H674 H 0.05752 0.55806 0.29203
 H675 H 0.05757 0.55811 0.20696
 H676 H 0.09170 0.59223 0.20712
 C677 C 0.74976 -0.15111 0.65115
 C678 C 0.72611 -0.16283 0.65902
 C679 C 0.72611 -0.18227 0.67852
 C680 C 0.74981 -0.19026 0.69040
 C681 C 0.77349 -0.17835 0.68235
 C682 C 0.77343 -0.15890 0.66285
 C683 C 0.74973 -0.13109 0.63109
 C684 C 0.74972 -0.11431 0.61428
 C685 C 0.74973 -0.09429 0.59423
 C686 C 0.72592 -0.08449 0.58447
 C687 C 0.72590 -0.06503 0.56499
 C688 C 0.74976 -0.05510 0.55501
 C689 C 0.77360 -0.06509 0.56496
 C690 C 0.77356 -0.08455 0.58444
 H691 H 0.70767 -0.15699 0.65003
 H692 H 0.70762 -0.19131 0.68406
 H693 H 0.79200 -0.18383 0.69136
 H694 H 0.79184 -0.14989 0.65696
 H695 H 0.70736 -0.09190 0.59191
 H696 H 0.70721 -0.05777 0.55776
 H697 H 0.79230 -0.05787 0.55771
 H698 H 0.79211 -0.09200 0.59186
 C699 C 0.25003 -0.15128 0.34905
 C700 C 0.24461 -0.17749 0.35566
 C701 C 0.24458 -0.19694 0.33621
 C702 C 0.25001 -0.19040 0.30984
 C703 C 0.25544 -0.16399 0.30340
 C704 C 0.25544 -0.14457 0.32289
 C705 C 0.25003 -0.13127 0.36909
 C706 C 0.25005 -0.11451 0.38587
 C707 C 0.25007 -0.09448 0.40589
 C708 C 0.22626 -0.08471 0.41569
 C709 C 0.22625 -0.06524 0.43514
 C710 C 0.25012 -0.05529 0.44505
 C711 C 0.27396 -0.06526 0.43506
 C712 C 0.27390 -0.08473 0.41562
 H713 H 0.24047 -0.18290 0.37587
 H714 H 0.24066 -0.21714 0.34183
 H715 H 0.25936 -0.15829 0.28324
 H716 H 0.25959 -0.12432 0.31755
 H717 H 0.20770 -0.09213 0.40830
 H718 H 0.20757 -0.05800 0.44239
 H719 H 0.29266 -0.05804 0.44226
 H720 H 0.29245 -0.09216 0.40816
 C721 C 0.74999 0.15123 0.34895
 C722 C 0.77368 0.15905 0.33728
 C723 C 0.77374 0.17852 0.31781
 C724 C 0.75007 0.19042 0.30974
 C725 C 0.72635 0.18240 0.32159
 C726 C 0.72634 0.16294 0.34107
 C727 C 0.74995 0.13119 0.36899
 C728 C 0.74992 0.11439 0.38577
 C729 C 0.74991 0.09433 0.40580
 C730 C 0.77372 0.08450 0.41553
 C731 C 0.77373 0.06501 0.43498
 C732 C 0.74986 0.05509 0.44497
 C733 C 0.72602 0.06512 0.43505
 C734 C 0.72607 0.08461 0.41559
 H735 H 0.79210 0.15006 0.34319
 H736 H 0.79226 0.18403 0.30882
 H737 H 0.70786 0.19142 0.31603
 H738 H 0.70790 0.15707 0.35003
 H739 H 0.79228 0.09189 0.40808
 H740 H 0.79241 0.05772 0.44219
 H741 H 0.70732 0.05792 0.44230
 H742 H 0.70753 0.09209 0.40819
 C743 C 0.25032 0.15090 0.65085
 C744 C 0.24489 0.17711 0.64424
 C745 C 0.24487 0.19657 0.66369
 C746 C 0.25031 0.19003 0.69004
 C747 C 0.25577 0.16362 0.69648
 C748 C 0.25576 0.14420 0.67700
 C749 C 0.25030 0.13088 0.63082
 C750 C 0.25029 0.11411 0.61405
 C751 C 0.25027 0.09407 0.59404
 C752 C 0.22644 0.08435 0.58428
 C753 C 0.22639 0.06487 0.56485
 C754 C 0.25024 0.05486 0.55491
 C755 C 0.27410 0.06479 0.56485
 C756 C 0.27408 0.08426 0.58429
 H757 H 0.24073 0.18252 0.62404
 H758 H 0.24094 0.21677 0.65807
 H759 H 0.25969 0.15793 0.71664
 H760 H 0.25991 0.12395 0.68235
 H761 H 0.20789 0.09181 0.59170
 H762 H 0.20770 0.05766 0.55763
 H763 H 0.29278 0.05751 0.55763
 H764 H 0.29265 0.09166 0.59170
   
