data_POSCAR
  _audit_creation_date              2014-09-24
  _audit_creation_method            'ToBaCCo'
  _symmetry_space_group_name_H-M    'P1'
  _symmetry_Int_Tables_number       1
  _symmetry_cell_setting            triclinic
  loop_
  _symmetry_equiv_pos_as_xyz
 x,y,z
_cell_length_a 42.4991
_cell_length_b 39.5737
_cell_length_c 16.3243
_cell_angle_alpha 90.623300
_cell_angle_beta 89.774100
_cell_angle_gamma 121.663500
loop_
  _atom_site_label
  _atom_site_type_symbol
  _atom_site_fract_x
  _atom_site_fract_y
  _atom_site_fract_z
C1 C 0.18940 0.55272 0.53416
 C2 C 0.19266 0.53891 0.45650
 C3 C 0.21834 0.52663 0.44889
 C4 C 0.24074 0.52918 0.51547
 C5 C 0.23456 0.54085 0.59292
 C6 C 0.20874 0.55238 0.60297
 C7 C 0.27131 0.52114 0.50323
 C8 C 0.28589 0.51085 0.56978
 C9 C 0.31751 0.50840 0.56015
 C10 C 0.33266 0.51291 0.48162
 C11 C 0.31832 0.52210 0.41465
 C12 C 0.28811 0.52665 0.42551
 H13 H 0.16954 0.56111 0.54319
 H14 H 0.22033 0.51376 0.39215
 H15 H 0.25075 0.54286 0.64568
 H16 H 0.27344 0.50576 0.62949
 H17 H 0.35603 0.50937 0.47207
 H18 H 0.27905 0.53610 0.37351
 C19 C 0.59271 -0.30701 0.46349
 C20 C 0.59354 -0.28446 0.39689
 C21 C 0.58651 -0.25402 0.41119
 C22 C 0.57689 -0.24707 0.48968
 C23 C 0.57407 -0.27207 0.55417
 C24 C 0.58105 -0.30290 0.54198
 C25 C 0.56838 -0.21495 0.50327
 C26 C 0.56939 -0.19956 0.58259
 C27 C 0.56057 -0.17039 0.59451
 C28 C 0.55369 -0.15382 0.52703
 C29 C 0.55197 -0.16864 0.44806
 C30 C 0.55848 -0.19964 0.43685
 H31 H 0.59975 -0.32921 0.45291
 H32 H 0.58960 -0.23533 0.36026
 H33 H 0.56393 -0.26913 0.61223
 H34 H 0.57683 -0.20986 0.63584
 H35 H 0.54994 -0.12915 0.53684
 H36 H 0.55497 -0.21192 0.37581
 C37 C 1.32177 0.83607 0.50435
 C38 C 1.30344 0.83308 0.43061
 C39 C 1.26515 0.81776 0.43325
 C40 C 1.24447 0.80106 0.50558
 C41 C 1.26394 0.80400 0.57802
 C42 C 1.30255 0.82278 0.57838
 C43 C 1.20283 0.77896 0.50421
 C44 C 1.18221 0.77120 0.57699
 C45 C 1.14329 0.74617 0.57796
 C46 C 1.12477 0.73308 0.50179
 C47 C 1.14456 0.74078 0.42845
 C48 C 1.18325 0.76269 0.43054
 H49 H 1.35164 0.85141 0.50545
 H50 H 1.25142 0.81742 0.37754
 H51 H 1.24962 0.79141 0.63482
 H52 H 1.19638 0.78452 0.63361
 H53 H 1.09516 0.71296 0.49883
 H54 H 1.19764 0.76556 0.37395
 C55 C 0.81946 0.48148 0.47866
 C56 C 0.80106 0.48191 0.40847
 C57 C 0.76634 0.47736 0.41512
 C58 C 0.74743 0.46801 0.49081
 C59 C 0.76634 0.46681 0.56113
 C60 C 0.80253 0.47427 0.55548
 C61 C 0.70817 0.45873 0.49473
 C62 C 0.69184 0.46003 0.56970
 C63 C 0.65498 0.45082 0.57229
 C64 C 0.63595 0.44417 0.49786
 C65 C 0.65123 0.44319 0.42326
 C66 C 0.68654 0.44872 0.42240
 H67 H 0.84731 0.48764 0.47287
 H68 H 0.75435 0.48037 0.35964
 H69 H 0.75328 0.45939 0.62052
 H70 H 0.70721 0.46736 0.62618
 H71 H 0.61024 0.44340 0.49758
 H72 H 0.69666 0.44560 0.36389
 C73 C 0.38081 0.26686 0.54881
 C74 C 0.39322 0.26531 0.47007
 C75 C 0.40967 0.24297 0.45604
 C76 C 0.41324 0.22123 0.51953
 C77 C 0.40050 0.22360 0.59844
 C78 C 0.38624 0.24804 0.61491
 C79 C 0.43237 0.19855 0.50497
 C80 C 0.44649 0.18767 0.57138
 C81 C 0.46415 0.16619 0.55970
 C82 C 0.47095 0.15931 0.47899
 C83 C 0.45851 0.17071 0.41181
 C84 C 0.43777 0.18848 0.42483
 H85 H 0.37022 0.28615 0.55918
 H86 H 0.42145 0.24477 0.39637
 H87 H 0.40152 0.20667 0.64861
 H88 H 0.44544 0.19735 0.63267
 H89 H 0.48378 0.14254 0.46660
 H90 H 0.42661 0.19468 0.37176
 C91 C 0.70262 0.16351 0.53516
 C92 C 0.71837 0.16968 0.45767
 C93 C 0.75675 0.19343 0.44996
 C94 C 0.77968 0.21514 0.51723
 C95 C 0.76277 0.20885 0.59536
 C96 C 0.72437 0.18266 0.60427
 C97 C 0.82033 0.24475 0.50326
 C98 C 0.84636 0.26095 0.56824
 C99 C 0.88401 0.28999 0.55338
 C100 C 0.89592 0.29773 0.47123
 C101 C 0.87072 0.28395 0.40665
 C102 C 0.83317 0.25892 0.42340
 H103 H 0.67335 0.14273 0.54255
 H104 H 0.76811 0.19513 0.38992
 H105 H 0.77855 0.22449 0.64927
 H106 H 0.83700 0.25267 0.63020
 H107 H 0.92492 0.31709 0.45709
 H108 H 0.81434 0.25159 0.37282
 N109 N 0.94207 0.52973 0.07101
 N110 N 0.90999 0.52698 0.08345
 N111 N 1.02014 0.57212 0.14731
 N112 N 1.04378 0.59565 0.20373
 N113 N 1.01547 0.59278 0.09150
 N114 N 1.03569 0.63118 0.10923
 N115 N 0.94706 0.50871 0.12519
 N116 N 0.91853 0.49052 0.17452
 C117 C 0.89546 0.50172 0.14749
 C118 C 1.05308 0.63224 0.17962
 N119 N 1.05632 0.50115 0.09885
 N120 N 1.08676 0.50363 0.12657
 N121 N 0.97129 0.45388 0.12923
 N122 N 0.94551 0.42701 0.17714
 N123 N 0.98315 0.43744 0.07739
 N124 N 0.96607 0.39874 0.08993
 N125 N 1.04439 0.51711 0.15172
 N126 N 1.06614 0.53090 0.21616
 Mn127 Mn 0.99565 0.51294 0.13878
 C128 C 1.09260 0.52270 0.19980
 C129 C 0.94218 0.39274 0.15153
 N130 N 1.02474 0.59892 -0.08537
 N131 N 1.04038 0.63723 -0.10111
 N132 N 0.96277 0.51845 -0.15867
 N133 N 0.93787 0.49984 -0.21685
 N134 N 0.95156 0.53511 -0.10558
 N135 N 0.91885 0.52866 -0.12704
 N136 N 1.03624 0.58226 -0.13762
 N137 N 1.06036 0.60864 -0.18893
 Mn138 Mn 0.98331 0.56455 -0.00712
 C139 C 1.06319 0.64281 -0.16478
 C140 C 0.91063 0.50643 -0.19658
 N141 N 0.99284 0.44355 -0.09884
 N142 N 0.97833 0.40626 -0.12377
 N143 N 1.06118 0.52793 -0.13251
 N144 N 1.09087 0.54824 -0.17801
 N145 N 1.06629 0.50734 -0.07740
 N146 N 1.09963 0.51267 -0.08515
 N147 N 0.98829 0.46416 -0.15495
 N148 N 0.97104 0.44181 -0.21922
 Mn149 Mn 1.02484 0.47198 -0.00006
 Mn150 Mn 1.01213 0.52320 -0.14649
 Cl151 Cl 1.00398 0.51817 -0.00376
 C152 C 0.96448 0.40573 -0.19891
 C153 C 1.11480 0.53885 -0.14758
 N154 N 0.42766 0.41331 0.11780
 N155 N 0.40695 0.37729 0.14831
 N156 N 0.44483 0.49970 0.13789
 N157 N 0.43599 0.52026 0.18639
 N158 N 0.41737 0.47683 0.08791
 N159 N 0.38891 0.48101 0.10219
 N160 N 0.45459 0.43633 0.16868
 N161 N 0.45260 0.41694 0.23540
 C162 C 0.42315 0.38010 0.22157
 C163 C 0.40125 0.50875 0.16298
 N164 N 0.54810 0.56488 0.06674
 N165 N 0.57154 0.60363 0.07271
 N166 N 0.53355 0.48845 0.15465
 N167 N 0.54138 0.47015 0.21077
 N168 N 0.55833 0.50158 0.09594
 N169 N 0.58395 0.49318 0.11106
 N170 N 0.52343 0.55260 0.12546
 N171 N 0.52907 0.58271 0.17206
 Mn172 Mn 0.48918 0.49436 0.14745
 C173 C 0.55856 0.61443 0.13727
 C174 C 0.57297 0.47354 0.18283
 N175 N 0.41335 0.46004 -0.08758
 N176 N 0.38567 0.46392 -0.11192
 N177 N 0.44863 0.40876 -0.11285
 N178 N 0.44429 0.37873 -0.15766
 N179 N 0.42313 0.39641 -0.05596
 N180 N 0.40031 0.35746 -0.06155
 N181 N 0.43874 0.47231 -0.14477
 N182 N 0.42963 0.48548 -0.20830
 Mn183 Mn 0.41982 0.43635 0.01568
 C184 C 0.39670 0.48038 -0.18727
 C185 C 0.41462 0.34686 -0.12405
 N186 N 0.55476 0.48558 -0.07742
 N187 N 0.58444 0.48458 -0.09817
 N188 N 0.51698 0.52484 -0.15777
 N189 N 0.51868 0.54410 -0.22454
 N190 N 0.54341 0.54832 -0.10645
 N191 N 0.56362 0.58448 -0.13652
 N192 N 0.52671 0.46145 -0.12458
 N193 N 0.53625 0.44303 -0.17701
 Mn194 Mn 0.55155 0.52544 -0.00524
 Mn195 Mn 0.48272 0.46673 -0.13533
 Cl196 Cl 0.48573 0.48073 0.00572
 C197 C 0.57206 0.45706 -0.15937
 C198 C 0.54754 0.58128 -0.21004
 N199 N 0.43362 -0.03947 0.08787
 N200 N 0.39918 -0.06800 0.10388
 N201 N 0.49487 0.04658 0.13734
 N202 N 0.50180 0.07561 0.18872
 N203 N 0.47231 0.04360 0.07909
 N204 N 0.46270 0.07017 0.09027
 N205 N 0.45594 -0.03680 0.14634
 N206 N 0.43769 -0.06365 0.20271
 C207 C 0.40244 -0.08302 0.17552
 C208 C 0.48186 0.09028 0.15833
 N209 N 0.58680 0.04737 0.09997
 N210 N 0.62108 0.07256 0.12427
 N211 N 0.52407 -0.03457 0.15859
 N212 N 0.51483 -0.06092 0.21686
 N213 N 0.54752 -0.03556 0.10750
 N214 N 0.55528 -0.06231 0.13053
 N215 N 0.56321 0.04878 0.14991
 N216 N 0.58077 0.07534 0.20838
 Mn217 Mn 0.50952 0.00607 0.14859
 C218 C 0.61679 0.09035 0.19107
 C219 C 0.53432 -0.07816 0.19856
 N220 N 0.47538 0.03873 -0.09755
 N221 N 0.46699 0.06492 -0.12127
 N222 N 0.45999 -0.04528 -0.14044
 N223 N 0.44259 -0.07487 -0.19341
 N224 N 0.43645 -0.04459 -0.08909
 N225 N 0.40232 -0.07354 -0.10638
 N226 N 0.49909 0.03811 -0.14843
 N227 N 0.50760 0.06387 -0.20755
 Mn228 Mn 0.45399 -0.00048 -0.00510
 C229 C 0.48774 0.08068 -0.18959
 C230 C 0.40668 -0.09245 -0.17115
 N231 N 0.55086 -0.03997 -0.06944
 N232 N 0.56108 -0.06594 -0.08167
 N233 N 0.56792 0.04116 -0.13571
 N234 N 0.58640 0.07043 -0.18768
 N235 N 0.58970 0.04318 -0.07650
 N236 N 0.62377 0.07359 -0.08731
 N237 N 0.52866 -0.04259 -0.12820
 N238 N 0.52255 -0.07088 -0.18089
 Mn239 Mn 0.56906 0.00372 0.01537
 Mn240 Mn 0.51394 -0.00217 -0.13897
 Cl241 Cl 0.51161 0.00177 0.00496
 C242 C 0.54254 -0.08550 -0.15066
 C243 C 0.62118 0.09039 -0.15684
 C244 C 1.14093 0.54384 0.40256
 C245 C 1.17029 0.53748 0.38955
 C246 C 1.17657 0.53125 0.30633
 C247 C 1.15223 0.52747 0.24287
 C248 C 1.12136 0.53048 0.26032
 C249 C 1.11767 0.54079 0.34004
 C250 C 1.08424 0.52224 0.39322
 C251 C 1.10923 0.52496 0.46196
 H252 H 1.19980 0.52881 0.28874
 H253 H 1.15700 0.52110 0.18096
 H254 H 1.06346 0.49118 0.37465
 H255 H 1.07314 0.54194 0.40260
 H256 H 1.10312 0.49551 0.48328
 H257 H 1.11144 0.54564 0.51143
 C258 C 0.57430 0.70375 0.25280
 C259 C 0.59699 0.70447 0.31627
 C260 C 0.61735 0.68610 0.29920
 C261 C 0.60863 0.66079 0.23072
 C262 C 0.57925 0.65309 0.17885
 C263 C 0.56491 0.67771 0.18657
 C264 C 0.52599 0.66808 0.18431
 C265 C 0.53594 0.69642 0.25653
 H266 H 0.63746 0.68809 0.34264
 H267 H 0.62130 0.64320 0.22524
 H268 H 0.50550 0.63669 0.19993
 H269 H 0.51987 0.67886 0.12754
 H270 H 0.52111 0.68136 0.31373
 H271 H 0.53537 0.72342 0.24141
 C272 C 0.31256 -0.14032 0.28997
 C273 C 0.32334 -0.15471 0.35601
 C274 C 0.35599 -0.15555 0.34495
 C275 C 0.37984 -0.13589 0.27928
 C276 C 0.37193 -0.11474 0.22297
 C277 C 0.33658 -0.12036 0.22519
 C278 C 0.32512 -0.09073 0.22008
 C279 C 0.29889 -0.11234 0.29053
 H280 H 0.36428 -0.16971 0.38895
 H281 H 0.40603 -0.13429 0.27682
 H282 H 0.31062 -0.09341 0.16163
 H283 H 0.34780 -0.06013 0.23652
 H284 H 0.26930 -0.12730 0.27251
 H285 H 0.30628 -0.09425 0.34781
 C286 C 0.82892 0.51475 0.27409
 C287 C 0.81644 0.48265 0.32720
 C288 C 0.82108 0.45132 0.30323
 C289 C 0.84329 0.45551 0.23568
 C290 C 0.86140 0.49121 0.19150
 C291 C 0.85120 0.51907 0.20729
 C292 C 0.87478 0.56297 0.22011
 C293 C 0.85033 0.55818 0.29279
 H294 H 0.81035 0.42517 0.34096
 H295 H 0.84957 0.43270 0.22384
 H296 H 0.87221 0.57961 0.16880
 H297 H 0.90364 0.57291 0.23784
 H298 H 0.83359 0.57192 0.28318
 H299 H 0.86500 0.56534 0.35264
 C300 C 0.40350 0.33049 0.42604
 C301 C 0.39353 0.29167 0.40585
 C302 C 0.38608 0.28007 0.32253
 C303 C 0.39313 0.30834 0.26156
 C304 C 0.40869 0.34864 0.28315
 C305 C 0.41128 0.35828 0.36646
 C306 C 0.44177 0.39100 0.41597
 C307 C 0.43318 0.36035 0.48155
 H308 H 0.37676 0.24985 0.30421
 H309 H 0.38933 0.29933 0.19770
 H310 H 0.43530 0.41372 0.43523
 H311 H 0.46944 0.40293 0.38792
 H312 H 0.42177 0.36543 0.53853
 H313 H 0.45580 0.35448 0.49101
 C314 C 0.66588 0.15919 0.36835
 C315 C 0.69493 0.15304 0.38365
 C316 C 0.70311 0.13370 0.32143
 C317 C 0.67921 0.11590 0.25360
 C318 C 0.64683 0.11729 0.24686
 C319 C 0.64266 0.14193 0.30198
 C320 C 0.61032 0.13865 0.34583
 C321 C 0.63582 0.15764 0.41947
 H322 H 0.72648 0.13000 0.32786
 H323 H 0.68444 0.09834 0.21071
 H324 H 0.58784 0.10743 0.35687
 H325 H 0.60133 0.15789 0.31871
 H326 H 0.62691 0.13686 0.47162
 H327 H 0.64133 0.18771 0.43482
 C328 C 0.50020 0.13999 -0.37749
 C329 C 0.47326 0.15037 -0.37308
 C330 C 0.45349 0.14082 -0.29739
 C331 C 0.45909 0.11966 -0.23507
 C332 C 0.48529 0.10828 -0.24510
 C333 C 0.50637 0.12120 -0.31597
 C334 C 0.53508 0.11795 -0.36104
 C335 C 0.52882 0.13944 -0.43080
 H336 H 0.43153 0.14658 -0.28784
 H337 H 0.44176 0.11075 -0.18109
 H338 H 0.52601 0.08668 -0.37633
 H339 H 0.56275 0.13580 -0.33181
 H340 H 0.51732 0.12004 -0.48597
 H341 H 0.55294 0.16973 -0.44220
 C342 C 0.59805 0.42709 -0.35204
 C343 C 0.63677 0.44980 -0.35422
 C344 C 0.65502 0.47386 -0.28445
 C345 C 0.63447 0.47508 -0.21712
 C346 C 0.59551 0.45123 -0.21707
 C347 C 0.57818 0.42775 -0.28596
 C348 C 0.55091 0.38412 -0.29144
 C349 C 0.57275 0.38332 -0.36431
 H350 H 0.68476 0.49346 -0.28330
 H351 H 0.64890 0.49535 -0.16663
 H352 H 0.52281 0.37729 -0.30819
 H353 H 0.55202 0.36782 -0.23755
 H354 H 0.55715 0.37589 -0.42287
 H355 H 0.58662 0.36655 -0.35295
 C356 C 0.93973 0.35180 -0.40090
 C357 C 0.90876 0.31410 -0.38291
 C358 C 0.90254 0.30428 -0.29834
 C359 C 0.92297 0.33311 -0.23664
 C360 C 0.94937 0.37248 -0.25807
 C361 C 0.95879 0.38009 -0.34060
 C362 C 0.96505 0.41364 -0.39334
 C363 C 0.94416 0.38292 -0.45983
 H364 H 0.88111 0.27507 -0.27884
 H365 H 0.91583 0.32550 -0.17294
 H366 H 0.99478 0.43410 -0.40781
 H367 H 0.95012 0.42821 -0.37199
 H368 H 0.96201 0.38620 -0.51288
 H369 H 0.91737 0.37986 -0.47612
 C370 C 0.52138 -0.17008 -0.29189
 C371 C 0.55648 -0.15814 -0.32259
 C372 C 0.58735 -0.12889 -0.27792
 C373 C 0.58265 -0.10778 -0.21339
 C374 C 0.54711 -0.11528 -0.19443
 C375 C 0.51684 -0.14885 -0.23015
 C376 C 0.48127 -0.15639 -0.26517
 C377 C 0.48605 -0.18009 -0.33283
 H378 H 0.61503 -0.11951 -0.29826
 H379 H 0.60689 -0.08267 -0.18566
 H380 H 0.48299 -0.12913 -0.28813
 H381 H 0.45736 -0.17506 -0.22455
 H382 H 0.49003 -0.16655 -0.39408
 H383 H 0.46502 -0.21239 -0.33061
 C384 C 0.31768 0.47489 -0.30762
 C385 C 0.33660 0.50309 -0.36929
 C386 C 0.37556 0.52349 -0.36856
 C387 C 0.39460 0.51653 -0.30798
 C388 C 0.37553 0.48947 -0.24471
 C389 C 0.33684 0.46808 -0.24685
 C390 C 0.31065 0.46416 -0.18144
 C391 C 0.29000 0.47201 -0.24667
 H392 H 0.39162 0.54533 -0.41477
 H393 H 0.42452 0.53285 -0.31032
 H394 H 0.32388 0.48811 -0.13420
 H395 H 0.29459 0.43352 -0.15699
 H396 H 0.29147 0.50066 -0.23678
 H397 H 0.26183 0.44605 -0.25901
 C398 C 1.14187 0.72281 -0.28256
 C399 C 1.12406 0.72963 -0.34736
 C400 C 1.08511 0.71115 -0.34119
 C401 C 1.06541 0.68619 -0.27536
 C402 C 1.08379 0.67903 -0.21305
 C403 C 1.12207 0.69717 -0.21845
 C404 C 1.14973 0.72398 -0.15606
 C405 C 1.17107 0.75205 -0.22495
 H406 H 1.06940 0.71531 -0.38760
 H407 H 1.03549 0.67069 -0.27557
 H408 H 1.16441 0.71053 -0.12819
 H409 H 1.13831 0.73621 -0.11141
 H410 H 1.19827 0.75508 -0.23593
 H411 H 1.17186 0.78056 -0.22085
 C412 C 0.83879 0.45241 -0.36126
 C413 C 0.82319 0.47582 -0.37012
 C414 C 0.83039 0.50358 -0.30659
 C415 C 0.85706 0.51174 -0.24524
 C416 C 0.87692 0.49219 -0.24640
 C417 C 0.86457 0.46028 -0.30126
 C418 C 0.88301 0.44374 -0.35103
 C419 C 0.85433 0.43463 -0.41744
 H420 H 0.81794 0.52143 -0.30844
 H421 H 0.86431 0.53560 -0.20175
 H422 H 0.88002 0.41664 -0.32345
 H423 H 0.91158 0.46676 -0.36946
 H424 H 0.83480 0.40228 -0.42739
 H425 H 0.86727 0.45175 -0.47383
 C426 C 0.40717 0.26197 -0.24176
 C427 C 0.38235 0.25801 -0.30352
 C428 C 0.35846 0.27181 -0.28337
 C429 C 0.36527 0.29625 -0.21397
 C430 C 0.39621 0.30764 -0.16401
 C431 C 0.41450 0.28705 -0.17462
 C432 C 0.45471 0.30132 -0.17431
 C433 C 0.44701 0.27417 -0.24765
 H434 H 0.33666 0.26701 -0.32493
 H435 H 0.34964 0.31062 -0.20656
 H436 H 0.46293 0.29181 -0.11872
 H437 H 0.47273 0.33328 -0.18932
 H438 H 0.45106 0.24922 -0.23433
 H439 H 0.46048 0.29058 -0.30478
 C440 C 0.71461 0.15637 -0.25253
 C441 C 0.70575 0.17399 -0.31509
 C442 C 0.67234 0.17332 -0.30730
 C443 C 0.64574 0.14880 -0.24923
 C444 C 0.65238 0.12512 -0.19697
 C445 C 0.68842 0.13247 -0.19426
 C446 C 0.70128 0.10387 -0.19417
 C447 C 0.72977 0.12987 -0.25782
 H448 H 0.66478 0.18756 -0.35283
 H449 H 0.61873 0.14536 -0.25096
 H450 H 0.68007 0.07401 -0.21817
 H451 H 0.71378 0.10386 -0.13450
 H452 H 0.72505 0.11509 -0.31874
 H453 H 0.75867 0.14478 -0.23480
 C454 C 1.19010 0.58769 -0.30090
 C455 C 1.19848 0.55839 -0.31846
 C456 C 1.18835 0.52927 -0.25699
 C457 C 1.16370 0.52499 -0.19325
 C458 C 1.15015 0.55079 -0.18802
 C459 C 1.16783 0.58450 -0.23684
 C460 C 1.16000 0.61412 -0.27114
 C461 C 1.18575 0.61881 -0.34169
 H462 H 1.19463 0.50619 -0.26463
 H463 H 1.15210 0.49902 -0.15483
 H464 H 1.17108 0.64114 -0.23185
 H465 H 1.13083 0.60077 -0.29122
 H466 H 1.21196 0.64825 -0.34140
 H467 H 1.17086 0.61037 -0.40099
 C468 C 0.57957 0.67953 -0.31064
 C469 C 0.57560 0.66977 -0.39516
 C470 C 0.56718 0.63081 -0.41526
 C471 C 0.56004 0.60287 -0.35463
 C472 C 0.56174 0.61273 -0.27141
 C473 C 0.57406 0.65207 -0.25073
 C474 C 0.55833 0.66780 -0.19082
 C475 C 0.56325 0.69720 -0.25607
 H476 H 0.56248 0.61994 -0.47776
 H477 H 0.55123 0.57279 -0.37316
 H478 H 0.57673 0.68202 -0.13690
 H479 H 0.52890 0.64595 -0.17608
 H480 H 0.58376 0.72851 -0.23866
 H481 H 0.53624 0.69162 -0.27861
 C482 C 0.31409 -0.15451 -0.27435
 C483 C 0.32342 -0.16876 -0.34353
 C484 C 0.35706 -0.16789 -0.34029
 C485 C 0.38324 -0.14607 -0.27845
 C486 C 0.37605 -0.12516 -0.21828
 C487 C 0.33986 -0.13314 -0.21303
 C488 C 0.32610 -0.10559 -0.20145
 C489 C 0.29791 -0.12899 -0.26838
 H490 H 0.36477 -0.18050 -0.38988
 H491 H 0.41028 -0.14247 -0.28256
 H492 H 0.34684 -0.07457 -0.21914
 H493 H 0.31338 -0.10880 -0.14017
 H494 H 0.30230 -0.11153 -0.32477
 H495 H 0.26897 -0.14572 -0.24561
 C496 C 0.51259 -0.14846 0.37301
 C497 C 0.54389 -0.15161 0.37666
 C498 C 0.56768 -0.13800 0.30804
 C499 C 0.56321 -0.11629 0.24573
 C500 C 0.53462 -0.10819 0.25067
 C501 C 0.50798 -0.12778 0.31152
 C502 C 0.48678 -0.11604 0.36534
 C503 C 0.49178 -0.13883 0.43345
 H504 H 0.59135 -0.14140 0.30574
 H505 H 0.58374 -0.10330 0.19772
 H506 H 0.45757 -0.12992 0.34544
 H507 H 0.50160 -0.08352 0.37738
 H508 H 0.46539 -0.16565 0.45249
 H509 H 0.50883 -0.11870 0.48410
 C510 C 0.31908 0.50116 0.26952
 C511 C 0.33645 0.52824 0.33425
 C512 C 0.37447 0.55659 0.32656
 C513 C 0.39527 0.55302 0.26362
 C514 C 0.37842 0.52081 0.20780
 C515 C 0.33969 0.49746 0.20742
 C516 C 0.31451 0.45336 0.20376
 C517 C 0.29203 0.45746 0.27144
 H518 H 0.38879 0.57873 0.37427
 H519 H 0.42503 0.57284 0.26437
 H520 H 0.32825 0.43738 0.22329
 H521 H 0.29942 0.44309 0.14448
 H522 H 0.29276 0.44386 0.33012
 H523 H 0.26404 0.44964 0.25106
 C524 C 1.13776 0.70212 0.30052
 C525 C 1.12509 0.72140 0.35079
 C526 C 1.09173 0.71856 0.32793
 C527 C 1.06959 0.69244 0.26420
 C528 C 1.08022 0.66833 0.22390
 C529 C 1.11562 0.67573 0.23973
 C530 C 1.12915 0.64835 0.25590
 C531 C 1.15355 0.67743 0.32253
 H532 H 1.08151 0.73419 0.36303
 H533 H 1.04262 0.68809 0.25270
 H534 H 1.14513 0.64675 0.20353
 H535 H 1.10748 0.61918 0.28064
 H536 H 1.18354 0.69261 0.30837
 H537 H 1.14578 0.66510 0.38533
 C538 C 0.43912 0.13948 0.27128
 C539 C 0.46702 0.16259 0.32844
 C540 C 0.50297 0.17110 0.31065
 C541 C 0.50876 0.15046 0.24771
 C542 C 0.47885 0.12153 0.20053
 C543 C 0.44497 0.11935 0.20818
 C544 C 0.40680 0.08385 0.21592
 C545 C 0.40047 0.10582 0.28469
 H546 H 0.52571 0.18999 0.35152
 H547 H 0.53577 0.15409 0.24189
 H548 H 0.40656 0.05708 0.23695
 H549 H 0.38971 0.07917 0.16068
 H550 H 0.39661 0.09183 0.34558
 H551 H 0.37978 0.11383 0.26897
 C552 C 0.59492 0.41640 0.33022
 C553 C 0.63277 0.44284 0.34600
 C554 C 0.65208 0.47400 0.28941
 C555 C 0.63277 0.48212 0.23023
 C556 C 0.59382 0.45925 0.22682
 C557 C 0.57632 0.42442 0.27227
 C558 C 0.53996 0.40063 0.31374
 C559 C 0.56011 0.39104 0.37801
 H560 H 0.68152 0.49472 0.29650
 H561 H 0.64795 0.50855 0.19347
 H562 H 0.51981 0.37436 0.27670
 H563 H 0.52963 0.41933 0.33820
 H564 H 0.55161 0.35925 0.37713
 H565 H 0.55891 0.40276 0.43899
 C566 C 0.86529 0.31617 0.28115
 C567 C 0.88322 0.30043 0.32349
 C568 C 0.91650 0.30663 0.28968
 C569 C 0.93393 0.33340 0.22450
 C570 C 0.91873 0.35497 0.19395
 C571 C 0.88292 0.34338 0.21910
 C572 C 0.86601 0.36680 0.24441
 C573 C 0.84664 0.33689 0.31240
 H574 H 0.93072 0.29380 0.31839
 H575 H 0.96125 0.34076 0.20550
 H576 H 0.84663 0.36564 0.19736
 H577 H 0.88640 0.39697 0.26831
 H578 H 0.81614 0.31853 0.30439
 H579 H 0.85615 0.34977 0.37483
   
