data_POSCAR
  _audit_creation_date              2014-09-24
  _audit_creation_method            'ToBaCCo'
  _symmetry_space_group_name_H-M    'P1'
  _symmetry_Int_Tables_number       1
  _symmetry_cell_setting            triclinic
  loop_
  _symmetry_equiv_pos_as_xyz
 x,y,z
_cell_length_a 28.1437
_cell_length_b 26.3130
_cell_length_c 24.7638
_cell_angle_alpha 87.359400
_cell_angle_beta 88.727400
_cell_angle_gamma 88.411000
loop_
  _atom_site_label
  _atom_site_type_symbol
  _atom_site_fract_x
  _atom_site_fract_y
  _atom_site_fract_z
C1 C 0.33834 0.32854 1.41626
 C2 C 0.29599 0.33272 1.44714
 C3 C 0.25932 0.36772 1.43139
 C4 C 0.26533 0.39759 1.38296
 C5 C 0.30737 0.39389 1.35173
 C6 C 0.34437 0.36020 1.36922
 C7 C 0.37420 0.29220 1.43061
 C8 C 0.41620 0.28768 1.39859
 C9 C 0.42285 0.32214 1.35421
 C10 C 0.38704 0.35719 1.33870
 C11 C 0.39252 0.38713 1.29108
 C12 C 0.35511 0.41870 1.27181
 C13 C 0.31264 0.42236 1.30247
 H14 H 0.29174 0.30863 1.48355
 H15 H 0.23749 0.42383 1.36902
 H16 H 0.36861 0.26685 1.46572
 H17 H 0.45502 0.31992 1.32937
 H18 H 0.42501 0.38316 1.26716
 H19 H 0.28367 0.44679 1.28764
 C20 C 1.19983 0.68789 0.90295
 C21 C 1.24744 0.67296 0.90699
 C22 C 1.26445 0.62645 0.88768
 C23 C 1.23269 0.59523 0.86201
 C24 C 1.18499 0.61194 0.85403
 C25 C 1.16831 0.65810 0.87586
 C26 C 1.18382 0.73264 0.92598
 C27 C 1.13625 0.74973 0.92222
 C28 C 1.10453 0.72079 0.89342
 C29 C 1.12042 0.67486 0.87029
 C30 C 1.08968 0.64562 0.84120
 C31 C 1.10647 0.60102 0.81678
 C32 C 1.15392 0.58411 0.82387
 H33 H 1.27107 0.69721 0.92757
 H34 H 1.24545 0.55958 0.84603
 H35 H 1.20923 0.75441 0.94697
 H36 H 1.06776 0.73339 0.88942
 H37 H 1.05307 0.65844 0.83594
 H38 H 1.16657 0.54939 0.80575
 C39 C 0.68204 -0.18840 0.07038
 C40 C 0.71913 -0.16187 0.04548
 C41 C 0.73164 -0.11448 0.06300
 C42 C 0.70770 -0.09419 0.10802
 C43 C 0.66950 -0.12050 0.13327
 C44 C 0.65634 -0.16773 0.11372
 C45 C 0.66954 -0.23467 0.05071
 C46 C 0.63039 -0.26114 0.07237
 C47 C 0.60407 -0.24048 0.11571
 C48 C 0.61679 -0.19367 0.13627
 C49 C 0.58972 -0.17130 0.17748
 C50 C 0.60246 -0.12445 0.19721
 C51 C 0.64284 -0.09968 0.17591
 H52 H 0.73817 -0.17812 0.01152
 H53 H 0.71746 -0.05747 0.12179
 H54 H 0.69030 -0.24949 0.01722
 H55 H 0.57339 -0.25992 0.13273
 H56 H 0.55828 -0.18991 0.19383
 H57 H 0.65186 -0.06305 0.19059
 C58 C -0.19569 1.16643 -0.40523
 C59 C -0.23697 1.14198 -0.42210
 C60 C -0.24240 1.08903 -0.41105
 C61 C -0.20702 1.06196 -0.38146
 C62 C -0.16782 1.08597 -0.36221
 C63 C -0.16147 1.13802 -0.37452
 C64 C -0.18743 1.21841 -0.41832
 C65 C -0.14519 1.24098 -0.40227
 C66 C -0.11267 1.21236 -0.37049
 C67 C -0.12091 1.16153 -0.35550
 C68 C -0.08956 1.13395 -0.32096
 C69 C -0.09723 1.08250 -0.30730
 C70 C -0.13534 1.05838 -0.32964
 H71 H -0.26349 1.16351 -0.44531
 H72 H -0.21051 1.02164 -0.37148
 H73 H -0.21307 1.24092 -0.44186
 H74 H -0.08123 1.23015 -0.35635
 H75 H -0.05952 1.15244 -0.30443
 H76 H -0.14121 1.01851 -0.31925
 C77 C 0.66702 0.67371 0.58812
 C78 C 0.71381 0.67428 0.56736
 C79 C 0.74698 0.63610 0.58350
 C80 C 0.73281 0.59690 0.62031
 C81 C 0.68634 0.59582 0.64123
 C82 C 0.65315 0.63431 0.62519
 C83 C 0.63413 0.71224 0.57274
 C84 C 0.58717 0.71216 0.59368
 C85 C 0.57355 0.67222 0.63035
 C86 C 0.60636 0.63362 0.64664
 C87 C 0.59358 0.59497 0.68496
 C88 C 0.62710 0.55703 0.70184
 C89 C 0.67302 0.55725 0.67882
 H90 H 0.72448 0.70460 0.53889
 H91 H 0.75766 0.56679 0.63284
 H92 H 0.64557 0.74206 0.54424
 H93 H 0.53766 0.67156 0.64716
 H94 H 0.55783 0.59494 0.70206
 H95 H 0.69910 0.52832 0.69163
 C96 C 0.82587 0.34007 0.12978
 C97 C 0.77704 0.35113 0.12129
 C98 C 0.75275 0.38906 0.15071
 C99 C 0.77802 0.41551 0.18852
 C100 C 0.82677 0.40719 0.19487
 C101 C 0.85093 0.36947 0.16557
 C102 C 0.85046 0.30078 0.10284
 C103 C 0.90015 0.29363 0.10818
 C104 C 0.92459 0.32514 0.14191
 C105 C 0.90032 0.36162 0.17187
 C106 C 0.92490 0.39072 0.20777
 C107 C 0.90079 0.42863 0.23620
 C108 C 0.85188 0.43688 0.22954
 H109 H 0.75799 0.32968 0.09280
 H110 H 0.76026 0.44485 0.21153
 H111 H 0.83139 0.27752 0.07604
 H112 H 0.96267 0.31997 0.14670
 H113 H 0.96286 0.38475 0.21274
 H114 H 0.83339 0.46638 0.25163
 C115 C 0.33309 0.16234 0.90611
 C116 C 0.28981 0.15653 0.93414
 C117 C 0.25550 0.12354 0.91641
 C118 C 0.26520 0.09645 0.86930
 C119 C 0.30920 0.10086 0.84164
 C120 C 0.34326 0.13385 0.86026
 C121 C 0.36647 0.19624 0.92337
 C122 C 0.41037 0.20105 0.89604
 C123 C 0.42114 0.17143 0.85162
 C124 C 0.38764 0.13835 0.83314
 C125 C 0.39785 0.11004 0.78775
 C126 C 0.36427 0.07714 0.76871
 C127 C 0.31999 0.07258 0.79594
 H128 H 0.28285 0.17821 0.96981
 H129 H 0.23946 0.07067 0.85495
 H130 H 0.35847 0.21862 0.95828
 H131 H 0.45511 0.17525 0.83048
 H132 H 0.43221 0.11353 0.76760
 H133 H 0.29390 0.04718 0.78148
 C134 C 0.17677 0.85518 0.40712
 C135 C 0.21831 0.88263 0.41319
 C136 C 0.22368 0.93077 0.38692
 C137 C 0.18683 0.95128 0.35468
 C138 C 0.14527 0.92430 0.34826
 C139 C 0.13995 0.87615 0.37473
 C140 C 0.17195 0.80672 0.43224
 C141 C 0.13086 0.77840 0.42550
 C142 C 0.09388 0.80014 0.39355
 C143 C 0.09819 0.84873 0.36807
 C144 C 0.06209 0.86987 0.33474
 C145 C 0.06813 0.91719 0.30703
 C146 C 0.10950 0.94432 0.31457
 H147 H 0.24643 0.86616 0.43806
 H148 H 0.19065 0.98818 0.33395
 H149 H 0.20072 0.79092 0.45671
 H150 H 0.06188 0.77936 0.38770
 H151 H 0.03035 0.84866 0.32850
 H152 H 0.11410 0.98098 0.29357
 Zn153 Zn 0.00573 1.06909 -0.04244
 Zn154 Zn -0.02560 0.96440 -0.03803
 Zn155 Zn 0.04543 0.99955 0.03681
 Zn156 Zn -0.05387 1.03173 0.05223
 O157 O -0.00836 1.01566 0.00232
 O158 O -0.01910 1.06634 -0.10834
 O159 O 0.01527 0.91025 -0.03516
 O160 O 0.08798 1.04883 0.02954
 O161 O -0.02894 0.98317 -0.10798
 O162 O 0.06903 1.07364 -0.05355
 O163 O 0.07219 0.94276 0.01213
 O164 O -0.03907 1.00807 0.12000
 O165 O -0.08465 0.94589 -0.02023
 O166 O 0.03666 0.98657 0.10698
 O167 O -0.10884 1.00280 0.03902
 O168 O -0.06312 1.10002 0.05398
 O169 O -0.01476 1.12693 -0.01321
 C170 C -0.02835 1.02646 -0.13269
 C171 C 0.05660 0.90738 -0.01535
 C172 C 0.09845 1.07112 -0.01540
 C173 C 0.00014 0.98959 0.13758
 C174 C -0.11687 0.96585 0.00954
 C175 C -0.04302 1.13577 0.02633
 Zn176 Zn 0.54913 -0.04124 0.46735
 Zn177 Zn 0.45018 -0.04538 0.50724
 Zn178 Zn 0.50620 0.04750 0.52532
 Zn179 Zn 0.47457 0.02407 0.41928
 O180 O 0.49601 -0.00419 0.48103
 O181 O 0.54748 -0.10370 0.50032
 O182 O 0.42449 -0.02235 0.56778
 O183 O 0.56944 0.05221 0.54007
 O184 O 0.47175 -0.10789 0.52593
 O185 O 0.59966 -0.01158 0.49295
 O186 O 0.47078 0.04114 0.58714
 O187 O 0.49224 0.08847 0.40901
 O188 O 0.40246 -0.05048 0.46103
 O189 O 0.48786 0.10827 0.49483
 O190 O 0.41078 0.02429 0.41818
 O191 O 0.49527 -0.01009 0.36242
 O192 O 0.55822 -0.05189 0.39610
 C193 C 0.51328 -0.12763 0.52312
 C194 C 0.43595 0.01226 0.59865
 C195 C 0.60494 0.02562 0.52318
 C196 C 0.48822 0.12135 0.44484
 C197 C 0.38589 -0.01416 0.43088
 C198 C 0.53131 -0.03960 0.35669
 Zn199 Zn 1.00951 0.44480 0.49273
 Zn200 Zn 1.06865 0.51712 0.55222
 Zn201 Zn 0.99308 0.55809 0.47872
 Zn202 Zn 0.96668 0.50324 0.58282
 O203 O 1.00955 0.50563 0.52659
 O204 O 1.06781 0.41457 0.49093
 O205 O 1.09324 0.57538 0.52443
 O206 O 0.98092 0.53660 0.41362
 O207 O 1.11091 0.46767 0.53553
 O208 O 0.99126 0.45297 0.42329
 O209 O 1.03707 0.60553 0.46982
 O210 O 0.92100 0.55066 0.57494
 O211 O 1.06869 0.52383 0.62441
 O212 O 0.93996 0.59173 0.49802
 O213 O 0.99275 0.51418 0.64683
 O214 O 0.93483 0.44490 0.58835
 O215 O 0.96796 0.39980 0.52353
 C216 C 1.10730 0.42764 0.50927
 C217 C 1.07720 0.60949 0.49121
 C218 C 0.97967 0.49267 0.39486
 C219 C 0.91239 0.58491 0.53858
 C220 C 1.03504 0.52359 0.65952
 C221 C 0.93727 0.40489 0.56155
 Zn222 Zn 0.51103 0.52483 0.94785
 Zn223 Zn 0.44615 0.45178 0.98471
 Zn224 Zn 0.55226 0.42923 0.97339
 Zn225 Zn 0.51456 0.49767 1.05812
 O226 O 0.50553 0.47322 0.99299
 O227 O 0.45710 0.55962 0.94264
 O228 O 0.44866 0.38722 0.96319
 O229 O 0.58247 0.44994 0.91077
 O230 O 0.41112 0.49328 0.93820
 O231 O 0.52826 0.50677 0.88256
 O232 O 0.52687 0.37041 0.95934
 O233 O 0.56433 0.46567 1.08924
 O234 O 0.41344 0.45251 1.04797
 O235 O 0.59588 0.41720 1.02588
 O236 O 0.46388 0.48800 1.10205
 O237 O 0.52970 0.56456 1.05482
 O238 O 0.55483 0.56498 0.96973
 C239 C 0.41771 0.54092 0.93133
 C240 C 0.48412 0.35697 0.95494
 C241 C 0.56533 0.47985 0.87375
 C242 C 0.59644 0.43458 1.07306
 C243 C 0.42393 0.46847 1.09387
 C244 C 0.55460 0.58374 1.01590
 N245 N 1.16765 0.36180 0.53040
 N246 N 1.20916 0.34536 0.51050
 C247 C 1.21767 0.37260 0.46376
 C248 C 1.17945 0.40632 0.45579
 N249 N 1.14930 0.39806 0.49784
 H250 H 1.17424 0.43521 0.42381
 N251 N 0.38544 0.62517 0.91500
 N252 N 0.34494 0.64936 0.90419
 C253 C 0.31278 0.61390 0.89477
 C254 C 0.33549 0.56633 0.89979
 N255 N 0.38065 0.57547 0.91329
 H256 H 0.32005 0.52921 0.89827
 N257 N -0.18028 0.92455 -0.03360
 N258 N -0.22139 0.90369 -0.02093
 C259 C -0.23093 0.91236 0.03159
 C260 C -0.19434 0.93992 0.05077
 N261 N -0.16346 0.94621 0.00880
 H262 H -0.18847 0.94994 0.09196
 N263 N 0.68084 -0.00597 0.55332
 N264 N 0.72150 0.00946 0.57122
 C265 C 0.71930 0.06081 0.57115
 C266 C 0.67455 0.07651 0.55233
 N267 N 0.65188 0.03324 0.54215
 H268 H 0.65983 0.11483 0.54737
 N269 N 0.50706 0.19502 0.38719
 N270 N 0.48804 0.24020 0.37370
 C271 C 0.44980 0.24758 0.40676
 C272 C 0.44685 0.20536 0.44213
 N273 N 0.48302 0.17372 0.42825
 H274 H 0.41886 0.19605 0.47129
 N275 N 0.85725 0.37660 0.58397
 N276 N 0.83344 0.33394 0.59151
 C277 C 0.86488 0.29512 0.58439
 C278 C 0.90899 0.31561 0.57213
 N279 N 0.90262 0.36645 0.57245
 H280 H 0.94257 0.29553 0.56559
 N281 N 0.13092 0.86100 -0.00526
 N282 N 0.15323 0.81959 -0.02164
 C283 C 0.12302 0.79506 -0.05244
 C284 C 0.08053 0.82339 -0.05404
 N285 N 0.08739 0.86423 -0.02419
 H286 H 0.04864 0.81613 -0.07574
 N287 N 0.62030 0.63597 0.98962
 N288 N 0.64163 0.67707 1.00385
 C289 C 0.61835 0.69393 1.04810
 C290 C 0.58171 0.66090 1.06100
 N291 N 0.58442 0.62561 1.02319
 H292 H 0.55527 0.66272 1.09330
 N293 N 0.34421 0.45755 1.13304
 N294 N 0.32428 0.44559 1.18084
 C295 C 0.35945 0.44313 1.21714
 C296 C 0.40146 0.45458 1.19003
 N297 N 0.39051 0.46296 1.13792
 H298 H 0.43711 0.45280 1.20571
 N299 N 0.50639 -0.06657 0.26973
 N300 N 0.52374 -0.09003 0.22715
 C301 C 0.57035 -0.09917 0.23584
 C302 C 0.58120 -0.08075 0.28535
 N303 N 0.54017 -0.06077 0.30511
 H304 H 0.61512 -0.08230 0.30521
 N305 N -0.04416 0.98935 -0.21793
 N306 N -0.06174 1.00296 -0.26569
 C307 C -0.06827 1.05397 -0.26688
 C308 C -0.05407 1.07132 -0.21812
 N309 N -0.03961 1.02973 -0.18873
 H310 H -0.05833 1.10938 -0.20355
 N311 N 1.00991 0.54714 0.74982
 N312 N 1.02740 0.56872 0.79217
 C313 C 1.07450 0.57313 0.78263
 C314 C 1.08532 0.55346 0.73282
 N315 N 1.04401 0.53772 0.71364
 H316 H 1.11908 0.55419 0.71099
 N317 N 0.85553 0.65110 0.50727
 N318 N 0.81092 0.66554 0.51803
 C319 C 0.79605 0.63644 0.56118
 C320 C 0.83317 0.60435 0.57689
 N321 N 0.86930 0.61447 0.54235
 H322 H 0.83365 0.57469 0.60862
 N323 N 0.63742 0.44194 1.15648
 N324 N 0.67914 0.43118 1.17811
 C325 C 0.70445 0.40260 1.14322
 C326 C 0.67598 0.39569 1.09899
 N327 N 0.63471 0.42154 1.10889
 H328 H 0.68563 0.37771 1.06172
 N329 N 0.16406 1.11955 0.01476
 N330 N 0.20631 1.13468 -0.00284
 C331 C 0.21322 1.11732 -0.05304
 C332 C 0.17309 1.09146 -0.06592
 N333 N 0.14362 1.09390 -0.02261
 H334 H 0.16600 1.07203 -0.10235
 N335 N 0.31805 0.01961 0.38009
 N336 N 0.27473 0.00620 0.36776
 C337 C 0.26767 -0.04021 0.39176
 C338 C 0.30837 -0.05479 0.41935
 N339 N 0.33873 -0.01651 0.41096
 H340 H 0.31565 -0.08973 0.44281
 N341 N 0.48935 -0.20363 0.57541
 N342 N 0.50834 -0.24691 0.59549
 C343 C 0.55446 -0.24843 0.57914
 C344 C 0.56293 -0.20427 0.54805
 N345 N 0.52157 -0.17760 0.54691
 H346 H 0.59590 -0.19160 0.52937
 N347 N 1.14705 0.66131 0.49784
 N348 N 1.16217 0.70671 0.48113
 C349 C 1.12782 0.72920 0.45025
 C350 C 1.09098 0.69543 0.44851
 N351 N 1.10448 0.65381 0.47859
 H352 H 1.05739 0.70047 0.42826
 N353 N -0.01260 1.21701 0.04697
 N354 N -0.02632 1.25927 0.07033
 C355 C -0.07354 1.25650 0.08050
 C356 C -0.08840 1.21044 0.06256
 N357 N -0.04908 1.18708 0.04227
 H358 H -0.12329 1.19421 0.06681
 N359 N 0.51039 0.27562 0.92111
 N360 N 0.49209 0.23332 0.90470
 C361 C 0.44465 0.23797 0.91267
 C362 C 0.43429 0.28445 0.93421
 N363 N 0.47624 0.30668 0.93869
 H364 H 0.39973 0.30134 0.94349
 N365 N 0.62753 0.45945 0.80731
 N366 N 0.64485 0.47920 0.76099
 C367 C 0.61610 0.51923 0.74617
 C368 C 0.58044 0.52308 0.78486
 N369 N 0.58891 0.48540 0.82221
 H370 H 0.55333 0.55285 0.78812
 N371 N 0.37024 -0.00819 0.66042
 N372 N 0.34979 0.00825 0.70527
 C373 C 0.37549 0.04740 0.72062
 C374 C 0.41254 0.05441 0.68351
 N375 N 0.40793 0.01897 0.64683
 H376 H 0.43949 0.08301 0.68225
 N377 N -0.03089 0.95180 0.22312
 N378 N -0.01380 0.93060 0.26870
 C379 C 0.03366 0.93707 0.26667
 C380 C 0.04500 0.96260 0.21860
 N381 N 0.00401 0.97123 0.19267
 H382 H 0.08005 0.97175 0.20270
 N383 N 0.94470 0.52770 0.31230
 N384 N 0.92269 0.51216 0.26962
 C385 C 0.92640 0.46096 0.27188
 C386 C 0.95131 0.44542 0.31740
 N387 N 0.96200 0.48834 0.34156
 H388 H 0.95753 0.40694 0.33356
   
