data_POSCAR
  _audit_creation_date              2014-09-24
  _audit_creation_method            'ToBaCCo'
  _symmetry_space_group_name_H-M    'P1'
  _symmetry_Int_Tables_number       1
  _symmetry_cell_setting            triclinic
  loop_
  _symmetry_equiv_pos_as_xyz
 x,y,z
_cell_length_a 47.6029
_cell_length_b 47.6075
_cell_length_c 40.5356
_cell_angle_alpha 89.964200
_cell_angle_beta 89.965800
_cell_angle_gamma 89.995900
loop_
  _atom_site_label
  _atom_site_type_symbol
  _atom_site_fract_x
  _atom_site_fract_y
  _atom_site_fract_z
O1 O -0.02710 0.30496 0.03156
 O2 O 0.02795 0.30482 -0.03255
 O3 O -0.02691 0.30481 -0.03269
 O4 O 0.02776 0.30505 0.03172
 O5 O 0.02772 0.25860 0.03185
 O6 O -0.02680 0.25836 -0.03239
 O7 O 0.02790 0.25837 -0.03224
 O8 O -0.02697 0.25851 0.03169
 Cu9 Cu 0.00042 0.30961 -0.00052
 Cu10 Cu 0.00047 0.25379 -0.00025
 C11 C -0.03638 0.28172 0.04235
 C12 C 0.03727 0.28153 -0.04312
 C13 C -0.03614 0.28151 -0.04331
 C14 C 0.03702 0.28183 0.04257
 O15 O 0.47270 0.80442 0.53253
 O16 O 0.52741 0.80428 0.46807
 O17 O 0.47255 0.80435 0.46826
 O18 O 0.52757 0.80424 0.53233
 O19 O 0.52739 0.75779 0.53230
 O20 O 0.47253 0.75790 0.46840
 O21 O 0.52724 0.75782 0.46820
 O22 O 0.47267 0.75797 0.53250
 Cu23 Cu 0.50007 0.80902 0.50030
 Cu24 Cu 0.49994 0.75320 0.50036
 C25 C 0.46340 0.78118 0.54330
 C26 C 0.53661 0.78099 0.45736
 C27 C 0.46321 0.78110 0.45760
 C28 C 0.53683 0.78096 0.54302
 O29 O 0.97259 0.69636 -0.03320
 O30 O 1.02755 0.69615 0.03094
 O31 O 0.97269 0.69616 0.03107
 O32 O 1.02745 0.69630 -0.03333
 O33 O 1.02741 0.74274 -0.03311
 O34 O 0.97279 0.74261 0.03112
 O35 O 1.02750 0.74260 0.03099
 O36 O 0.97269 0.74281 -0.03298
 Cu37 Cu 1.00007 0.69154 -0.00115
 Cu38 Cu 1.00010 0.74736 -0.00098
 C39 C 0.96330 0.71966 -0.04382
 C40 C 1.03685 0.71938 0.04170
 C41 C 0.96345 0.71940 0.04187
 C42 C 1.03674 0.71958 -0.04399
 O43 O 0.52724 0.19453 0.53254
 O44 O 0.47257 0.19450 0.46813
 O45 O 0.52742 0.19464 0.46829
 O46 O 0.47238 0.19447 0.53239
 O47 O 0.47238 0.24092 0.53234
 O48 O 0.52726 0.24110 0.46841
 O49 O 0.47256 0.24096 0.46825
 O50 O 0.52708 0.24098 0.53250
 Cu51 Cu 0.49991 0.18983 0.50033
 Cu52 Cu 0.49981 0.24566 0.50038
 C53 C 0.53644 0.21780 0.54330
 C54 C 0.46329 0.21776 0.45740
 C55 C 0.53668 0.21794 0.45762
 C56 C 0.46303 0.21771 0.54309
 O57 O 0.69515 -0.02710 0.03149
 O58 O 0.69533 0.02792 -0.03264
 O59 O 0.69525 -0.02693 -0.03277
 O60 O 0.69517 0.02775 0.03162
 O61 O 0.74162 0.02764 0.03164
 O62 O 0.74171 -0.02689 -0.03259
 O63 O 0.74178 0.02780 -0.03245
 O64 O 0.74161 -0.02705 0.03150
 Cu65 Cu 0.69052 0.00042 -0.00058
 Cu66 Cu 0.74636 0.00037 -0.00047
 C67 C 0.71839 -0.03641 0.04222
 C68 C 0.71863 0.03721 -0.04328
 C69 C 0.71853 -0.03619 -0.04345
 C70 C 0.71842 0.03698 0.04241
 O71 O 0.19576 0.52737 0.46830
 O72 O 0.19581 0.47267 0.53276
 O73 O 0.19576 0.52753 0.53257
 O74 O 0.19590 0.47252 0.46850
 O75 O 0.24236 0.47267 0.46860
 O76 O 0.24222 0.52753 0.53250
 O77 O 0.24227 0.47282 0.53270
 O78 O 0.24222 0.52737 0.46839
 Cu79 Cu 0.19111 0.50002 0.50053
 Cu80 Cu 0.24694 0.50011 0.50055
 C81 C 0.21902 0.53666 0.45756
 C82 C 0.21908 0.46345 0.54351
 C83 C 0.21900 0.53687 0.54325
 C84 C 0.21919 0.46326 0.45783
 O85 O 0.30354 0.97253 -0.03310
 O86 O 0.30371 1.02750 0.03101
 O87 O 0.30381 0.97265 0.03116
 O88 O 0.30352 1.02739 -0.03325
 O89 O 0.25707 1.02727 -0.03291
 O90 O 0.25735 0.97267 0.03134
 O91 O 0.25726 1.02737 0.03118
 O92 O 0.25709 0.97256 -0.03276
 Cu93 Cu 0.30835 1.00002 -0.00108
 Cu94 Cu 0.25252 0.99997 -0.00076
 C95 C 0.28025 0.96320 -0.04366
 C96 C 0.28048 1.03676 0.04183
 C97 C 0.28059 0.96337 0.04203
 C98 C 0.28021 1.03664 -0.04385
 O99 O 0.80546 0.52722 0.53231
 O100 O 0.80528 0.47256 0.46790
 O101 O 0.80537 0.52740 0.46804
 O102 O 0.80527 0.47236 0.53215
 O103 O 0.75882 0.47257 0.53214
 O104 O 0.75891 0.52743 0.46821
 O105 O 0.75882 0.47275 0.46806
 O106 O 0.75900 0.52726 0.53230
 Cu107 Cu 0.81005 0.49987 0.50010
 Cu108 Cu 0.75421 0.50002 0.50019
 C109 C 0.78223 0.53652 0.54308
 C110 C 0.78198 0.46337 0.45720
 C111 C 0.78211 0.53675 0.45740
 C112 C 0.78199 0.46312 0.54286
 O113 O 0.23279 0.27136 0.20804
 O114 O 0.29420 0.25508 0.25985
 O115 O 0.27120 0.23258 0.20774
 O116 O 0.25577 0.29387 0.26015
 O117 O 0.22914 0.26731 0.29220
 O118 O 0.24457 0.20602 0.23979
 O119 O 0.26756 0.22852 0.29190
 O120 O 0.20615 0.24480 0.24010
 Cu121 Cu 0.26618 0.26590 0.23071
 Cu122 Cu 0.23417 0.23398 0.26923
 C123 C 0.20914 0.26069 0.21521
 C124 C 0.29121 0.23919 0.28474
 C125 C 0.26035 0.20899 0.21480
 C126 C 0.23998 0.29090 0.28513
 O127 O 0.70612 0.74453 0.25970
 O128 O 0.76761 0.72893 0.20766
 O129 O 0.74488 0.70608 0.25978
 O130 O 0.72886 0.76739 0.20759
 O131 O 0.75531 0.79408 0.23964
 O132 O 0.77133 0.73277 0.29182
 O133 O 0.79406 0.75562 0.23969
 O134 O 0.73257 0.77122 0.29175
 Cu135 Cu 0.73420 0.73404 0.23045
 Cu136 Cu 0.76598 0.76611 0.26896
 C137 C 0.70900 0.76037 0.28462
 C138 C 0.79117 0.73977 0.21478
 C139 C 0.76068 0.70911 0.28472
 C140 C 0.73952 0.79105 0.21470
 O141 O 0.73274 0.22892 0.29207
 O142 O 0.79403 0.24474 0.23973
 O143 O 0.77134 0.26753 0.29187
 O144 O 0.75542 0.20614 0.23991
 O145 O 0.72877 0.23271 0.20791
 O146 O 0.74469 0.29410 0.25987
 O147 O 0.76738 0.27131 0.20773
 O148 O 0.70609 0.25548 0.26007
 Cu149 Cu 0.76607 0.23415 0.26912
 Cu150 Cu 0.73404 0.26608 0.23067
 C151 C 0.70911 0.23966 0.28501
 C152 C 0.79102 0.26056 0.21479
 C153 C 0.76057 0.29114 0.28475
 C154 C 0.73954 0.20910 0.21503
 O155 O 0.27121 0.76752 0.20779
 O156 O 0.25537 0.70600 0.25969
 O157 O 0.23264 0.72890 0.20761
 O158 O 0.29394 0.74463 0.25988
 O159 O 0.26728 0.77111 0.29197
 O160 O 0.20598 0.75537 0.23970
 O161 O 0.22871 0.73247 0.29179
 O162 O 0.24455 0.79400 0.23988
 Cu163 Cu 0.26598 0.73409 0.23051
 Cu164 Cu 0.23394 0.76591 0.26907
 C165 C 0.26041 0.79111 0.21496
 C166 C 0.23950 0.70889 0.28462
 C167 C 0.20900 0.73963 0.21471
 C168 C 0.29092 0.76039 0.28486
 O169 O 0.70605 0.25479 0.74036
 O170 O 0.76761 0.27065 0.79208
 O171 O 0.74468 0.29338 0.74006
 O172 O 0.72899 0.23206 0.79240
 O173 O 0.75546 0.20543 0.76027
 O174 O 0.77114 0.26674 0.70792
 O175 O 0.79408 0.24402 0.75995
 O176 O 0.73252 0.22815 0.70823
 Cu177 Cu 0.73416 0.26541 0.76946
 Cu178 Cu 0.76597 0.23339 0.73085
 C179 C 0.70893 0.23892 0.71545
 C180 C 0.79120 0.25989 0.78485
 C181 C 0.76044 0.29037 0.71506
 C182 C 0.73971 0.20843 0.78528
 O183 O 0.29357 0.74525 0.74074
 O184 O 0.23188 0.72951 0.79242
 O185 O 0.25497 0.70665 0.74055
 O186 O 0.27048 0.76813 0.79261
 O187 O 0.24408 0.79466 0.76028
 O188 O 0.22858 0.73318 0.70822
 O189 O 0.20549 0.75604 0.76009
 O190 O 0.26718 0.77178 0.70841
 Cu191 Cu 0.26539 0.73471 0.76984
 Cu192 Cu 0.23367 0.76659 0.73099
 C193 C 0.29075 0.76103 0.71573
 C194 C 0.20831 0.74026 0.78510
 C195 C 0.23930 0.70957 0.71548
 C196 C 0.25976 0.79173 0.78535
 O197 O 0.20549 0.24437 0.76058
 O198 O 0.26679 0.22837 0.70837
 O199 O 0.24385 0.20552 0.76036
 O200 O 0.22843 0.26722 0.70859
 O201 O 0.25517 0.29349 0.74077
 O202 O 0.27059 0.23179 0.79254
 O203 O 0.29353 0.25464 0.74055
 O204 O 0.23223 0.27064 0.79277
 Cu205 Cu 0.23344 0.23372 0.73123
 Cu206 Cu 0.26558 0.26529 0.76991
 C207 C 0.20854 0.26007 0.78560
 C208 C 0.29047 0.23894 0.71554
 C209 C 0.25969 0.20827 0.78530
 C210 C 0.23933 0.29073 0.71583
 O211 O 0.72951 0.76759 0.79196
 O212 O 0.74560 0.70603 0.74033
 O213 O 0.76830 0.72916 0.79225
 O214 O 0.70683 0.74447 0.74006
 O215 O 0.73329 0.77100 0.70778
 O216 O 0.79476 0.75569 0.75997
 O217 O 0.77207 0.73256 0.70805
 O218 O 0.75598 0.79412 0.75968
 Cu219 Cu 0.73489 0.73413 0.76941
 Cu220 Cu 0.76670 0.76602 0.73061
 C221 C 0.74016 0.79121 0.78464
 C222 C 0.76141 0.70894 0.71536
 C223 C 0.79187 0.73998 0.78503
 C224 C 0.70972 0.76019 0.71501
 C225 C 0.27810 0.09946 0.11016
 N226 N 0.26332 0.09614 0.13852
 N227 N 0.26085 0.11732 0.15980
 C228 C 0.27308 0.14247 0.15338
 N229 N 0.28790 0.14577 0.12505
 N230 N 0.29037 0.12459 0.10377
 C231 C 0.27960 0.07709 0.08650
 C232 C 0.28031 0.05854 0.06628
 C233 C 0.26927 0.16568 0.17551
 C234 C 0.26550 0.18536 0.19369
 C235 C 0.77985 0.59906 0.61153
 N236 N 0.76451 0.59596 0.63950
 N237 N 0.76196 0.61719 0.66072
 C238 C 0.77468 0.64215 0.65460
 N239 N 0.79007 0.64522 0.62666
 N240 N 0.79262 0.62400 0.60545
 C241 C 0.78138 0.57671 0.58787
 C242 C 0.78207 0.55821 0.56762
 C243 C 0.77071 0.66544 0.67654
 C244 C 0.76679 0.68521 0.69453
 C245 C 0.72090 0.90078 0.11046
 N246 N 0.70899 0.87551 0.10387
 N247 N 0.71159 0.85428 0.12510
 C248 C 0.72618 0.85766 0.15355
 N249 N 0.73804 0.88294 0.16016
 N250 N 0.73544 0.90418 0.13894
 C251 C 0.71931 0.92319 0.08685
 C252 C 0.71857 0.94178 0.06665
 C253 C 0.73019 0.83441 0.17558
 C254 C 0.73413 0.81470 0.19368
 C255 C 0.22157 0.40082 0.61195
 N256 N 0.20822 0.37613 0.60624
 N257 N 0.21070 0.35487 0.62744
 C258 C 0.22659 0.35766 0.65500
 N259 N 0.23989 0.38237 0.66075
 N260 N 0.23742 0.40363 0.63954
 C261 C 0.22004 0.42320 0.58830
 C262 C 0.21931 0.44174 0.56805
 C263 C 0.23041 0.33432 0.67696
 C264 C 0.23418 0.31452 0.69496
 C265 C 0.90077 0.27916 0.11054
 N266 N 0.90417 0.26461 0.13904
 N267 N 0.88292 0.26199 0.16025
 C268 C 0.85763 0.27383 0.15360
 N269 N 0.85425 0.28842 0.12512
 N270 N 0.87550 0.29104 0.10391
 C271 C 0.92320 0.28077 0.08694
 C272 C 0.94180 0.28153 0.06677
 C273 C 0.83437 0.26983 0.17564
 C274 C 0.81466 0.26591 0.19375
 C275 C 0.40079 0.77888 0.61178
 N276 N 0.40372 0.76332 0.63960
 N277 N 0.38247 0.76086 0.66083
 C278 C 0.35765 0.77391 0.65489
 N279 N 0.35474 0.78952 0.62710
 N280 N 0.37599 0.79197 0.60587
 C281 C 0.42316 0.78035 0.58811
 C282 C 0.44169 0.78103 0.56784
 C283 C 0.33432 0.77007 0.67686
 C284 C 0.31452 0.76626 0.69486
 C285 C 0.09951 0.72171 0.11008
 N286 N 0.09612 0.73636 0.13849
 N287 N 0.11729 0.73884 0.15979
 C288 C 0.14250 0.72673 0.15333
 N289 N 0.14587 0.71203 0.12495
 N290 N 0.12469 0.70956 0.10365
 C291 C 0.07715 0.72021 0.08640
 C292 C 0.05861 0.71952 0.06617
 C293 C 0.16570 0.73058 0.17546
 C294 C 0.18538 0.73439 0.19363
 C295 C 0.59902 0.22040 0.61169
 N296 N 0.59598 0.23592 0.63951
 N297 N 0.61721 0.23852 0.66070
 C298 C 0.64213 0.22567 0.65471
 N299 N 0.64515 0.21010 0.62693
 N300 N 0.62391 0.20750 0.60574
 C301 C 0.57666 0.21880 0.58806
 C302 C 0.55814 0.21803 0.56782
 C303 C 0.66543 0.22966 0.67664
 C304 C 0.68520 0.23358 0.69461
 C305 C 0.72130 0.09878 0.88972
 N306 N 0.70905 0.12393 0.89606
 N307 N 0.71165 0.14514 0.87480
 C308 C 0.72658 0.14185 0.84656
 N309 N 0.73878 0.11668 0.84019
 N310 N 0.73618 0.09547 0.86144
 C311 C 0.71968 0.07640 0.91337
 C312 C 0.71890 0.05784 0.93360
 C313 C 0.73054 0.16509 0.82448
 C314 C 0.73443 0.18479 0.80634
 C315 C 0.22144 0.59916 0.38895
 N316 N 0.20853 0.62405 0.39488
 N317 N 0.21102 0.64524 0.37358
 C318 C 0.22650 0.64218 0.34570
 N319 N 0.23936 0.61727 0.33974
 N320 N 0.23686 0.59608 0.36104
 C321 C 0.21993 0.57683 0.41268
 C322 C 0.21922 0.55834 0.43298
 C323 C 0.23038 0.66544 0.32365
 C324 C 0.23422 0.68518 0.30557
 C325 C 0.27768 0.90159 0.88944
 N326 N 0.26246 0.90470 0.86140
 N327 N 0.25995 0.88346 0.84020
 C328 C 0.27259 0.85847 0.84639
 N329 N 0.28785 0.85539 0.87440
 N330 N 0.29036 0.87662 0.89560
 C331 C 0.27924 0.92400 0.91305
 C332 C 0.27998 0.94257 0.93324
 C333 C 0.26873 0.83519 0.82438
 C334 C 0.26494 0.81544 0.80632
 C335 C 0.77924 0.40084 0.38876
 N336 N 0.76385 0.40399 0.36086
 N337 N 0.76122 0.38279 0.33964
 C338 C 0.77390 0.35780 0.34568
 N339 N 0.78934 0.35467 0.37355
 N340 N 0.79197 0.37587 0.39477
 C341 C 0.78088 0.42318 0.41242
 C342 C 0.78169 0.44168 0.43267
 C343 C 0.76989 0.33454 0.32370
 C344 C 0.76594 0.31482 0.30567
 C345 C 0.09887 0.27883 0.88990
 N346 N 0.12410 0.29087 0.89635
 N347 N 0.14532 0.28822 0.87511
 C348 C 0.14195 0.27346 0.84678
 N349 N 0.11670 0.26147 0.84030
 N350 N 0.09548 0.26412 0.86154
 C351 C 0.07648 0.28047 0.91354
 C352 C 0.05791 0.28126 0.93376
 C353 C 0.16519 0.26942 0.82472
 C354 C 0.18490 0.26546 0.80662
 C355 C 0.59919 0.77840 0.38885
 N356 N 0.62405 0.79137 0.39474
 N357 N 0.64527 0.78886 0.37348
 C358 C 0.64227 0.77329 0.34569
 N359 N 0.61739 0.76036 0.33978
 N360 N 0.59617 0.76288 0.36104
 C361 C 0.57684 0.77996 0.41254
 C362 C 0.55832 0.78072 0.43281
 C363 C 0.66554 0.76942 0.32366
 C364 C 0.68529 0.76559 0.30559
 C365 C 0.90170 0.72224 0.88926
 N366 N 0.87677 0.70947 0.89538
 N367 N 0.85553 0.71196 0.87416
 C368 C 0.85859 0.72730 0.84617
 N369 N 0.88355 0.74002 0.84002
 N370 N 0.90478 0.73753 0.86124
 C371 C 0.92411 0.72069 0.91287
 C372 C 0.94267 0.71994 0.93308
 C373 C 0.83531 0.73111 0.82414
 C374 C 0.81557 0.73486 0.80604
 C375 C 0.40083 0.22033 0.38885
 N376 N 0.37578 0.20781 0.39498
 N377 N 0.35460 0.21043 0.37372
 C378 C 0.35784 0.22566 0.34568
 N379 N 0.38291 0.23814 0.33952
 N380 N 0.40409 0.23551 0.36079
 C381 C 0.42314 0.21873 0.41256
 C382 C 0.44162 0.21798 0.43285
 C383 C 0.33460 0.22972 0.32367
 C384 C 0.31488 0.23372 0.30564
 C385 C 0.72125 0.90120 0.88821
 N386 N 0.70843 0.87628 0.89422
 N387 N 0.71109 0.85503 0.87307
 C388 C 0.72666 0.85806 0.84526
 N389 N 0.73944 0.88300 0.83921
 N390 N 0.73677 0.90425 0.86037
 C391 C 0.71960 0.92357 0.91182
 C392 C 0.71880 0.94210 0.93204
 C393 C 0.73073 0.83474 0.82338
 C394 C 0.73473 0.81496 0.80544
 C395 C 0.22190 0.40050 0.38960
 N396 N 0.20954 0.37540 0.39591
 N397 N 0.21210 0.35420 0.37466
 C398 C 0.22710 0.35745 0.34646
 N399 N 0.23941 0.38258 0.34011
 N400 N 0.23685 0.40378 0.36136
 C401 C 0.22028 0.42289 0.41322
 C402 C 0.21948 0.44146 0.43341
 C403 C 0.23099 0.33422 0.32437
 C404 C 0.23480 0.31453 0.30622
 C405 C 0.27760 0.09814 0.88908
 N406 N 0.26167 0.09536 0.86154
 N407 N 0.25916 0.11663 0.84036
 C408 C 0.27250 0.14132 0.84606
 N409 N 0.28848 0.14409 0.87357
 N410 N 0.29099 0.12282 0.89475
 C411 C 0.27916 0.07575 0.91272
 C412 C 0.27992 0.05721 0.93296
 C413 C 0.26865 0.16467 0.82413
 C414 C 0.26486 0.18448 0.80615
 C415 C 0.77948 0.59949 0.38907
 N416 N 0.76482 0.59607 0.36067
 N417 N 0.76217 0.61728 0.33942
 C418 C 0.77410 0.64254 0.34592
 N419 N 0.78880 0.64595 0.37428
 N420 N 0.79145 0.62474 0.39554
 C421 C 0.78112 0.57711 0.41272
 C422 C 0.78190 0.55854 0.43294
 C423 C 0.77005 0.66577 0.32385
 C424 C 0.76608 0.68547 0.30574
 C425 C 0.09823 0.72209 0.88891
 N426 N 0.09531 0.73776 0.86116
 N427 N 0.11657 0.74029 0.83996
 C428 C 0.14138 0.72722 0.84586
 N429 N 0.14428 0.71151 0.87357
 N430 N 0.12302 0.70898 0.89477
 C431 C 0.07584 0.72055 0.91256
 C432 C 0.05731 0.71982 0.93282
 C433 C 0.16472 0.73113 0.82392
 C434 C 0.18453 0.73498 0.80593
 C435 C 0.59946 0.22082 0.38936
 N436 N 0.59609 0.23565 0.36105
 N437 N 0.61730 0.23834 0.33981
 C438 C 0.64254 0.22629 0.34624
 N439 N 0.64589 0.21142 0.37452
 N440 N 0.62467 0.20873 0.39575
 C441 C 0.57706 0.21911 0.41298
 C442 C 0.55848 0.21825 0.43318
 C443 C 0.66577 0.23035 0.32417
 C444 C 0.68547 0.23430 0.30605
 C445 C 0.90122 0.27868 0.88839
 N446 N 0.90421 0.26303 0.86066
 N447 N 0.88295 0.26036 0.83952
 C448 C 0.85806 0.27327 0.84547
 N449 N 0.85509 0.28897 0.87316
 N450 N 0.87635 0.29163 0.89430
 C451 C 0.92361 0.28036 0.91198
 C452 C 0.94215 0.28120 0.93219
 C453 C 0.83473 0.26922 0.82359
 C454 C 0.81495 0.26526 0.80565
 C455 C 0.40049 0.77860 0.38931
 N456 N 0.40387 0.76391 0.36093
 N457 N 0.38267 0.76137 0.33966
 C458 C 0.35746 0.77343 0.34615
 N459 N 0.35409 0.78816 0.37450
 N460 N 0.37528 0.79071 0.39577
 C461 C 0.42286 0.78017 0.41296
 C462 C 0.44142 0.78091 0.43316
 C463 C 0.33424 0.76951 0.32405
 C464 C 0.31455 0.76566 0.30591
 C465 C 0.27838 0.90084 0.11061
 N466 N 0.26318 0.90399 0.13868
 N467 N 0.26072 0.88279 0.15998
 C468 C 0.27339 0.85781 0.15386
 N469 N 0.28864 0.85469 0.12583
 N470 N 0.29110 0.87588 0.10453
 C471 C 0.27983 0.92317 0.08689
 C472 C 0.28048 0.94167 0.06659
 C473 C 0.26953 0.83455 0.17592
 C474 C 0.26569 0.81481 0.19400
 C475 C 0.77917 0.40022 0.61098
 N476 N 0.76436 0.40352 0.63930
 N477 N 0.76168 0.38226 0.66047
 C478 C 0.77373 0.35705 0.65396
 N479 N 0.78860 0.35376 0.62567
 N480 N 0.79127 0.37503 0.60450
 C481 C 0.78087 0.42267 0.58742
 C482 C 0.78170 0.44128 0.56727
 C483 C 0.76970 0.33377 0.67596
 C484 C 0.76576 0.31404 0.69404
 C485 C 0.72095 0.09947 0.11090
 N486 N 0.70836 0.12449 0.10480
 N487 N 0.71096 0.14568 0.12606
 C488 C 0.72623 0.14248 0.15405
 N489 N 0.73877 0.11743 0.16018
 N490 N 0.73617 0.09624 0.13893
 C491 C 0.71936 0.07715 0.08722
 C492 C 0.71862 0.05866 0.06695
 C493 C 0.73024 0.16571 0.17606
 C494 C 0.73418 0.18543 0.19410
 C495 C 0.22143 0.59969 0.61141
 N496 N 0.20895 0.62474 0.60508
 N497 N 0.21144 0.64599 0.62627
 C498 C 0.22649 0.64283 0.65444
 N499 N 0.23892 0.61777 0.66080
 N500 N 0.23643 0.59653 0.63960
 C501 C 0.21990 0.57727 0.58782
 C502 C 0.21918 0.55868 0.56766
 C503 C 0.23033 0.66612 0.67644
 C504 C 0.23412 0.68587 0.69451
 C505 C 0.90090 0.72179 0.11042
 N506 N 0.87596 0.70901 0.10442
 N507 N 0.85476 0.71150 0.12571
 C508 C 0.85786 0.72686 0.15364
 N509 N 0.88282 0.73960 0.15967
 N510 N 0.90402 0.73710 0.13838
 C511 C 0.92323 0.72028 0.08671
 C512 C 0.94174 0.71957 0.06642
 C513 C 0.83461 0.73073 0.17570
 C514 C 0.81487 0.73455 0.19380
 C515 C 0.40021 0.22025 0.61131
 N516 N 0.37493 0.20839 0.60470
 N517 N 0.35369 0.21101 0.62592
 C518 C 0.35709 0.22558 0.65439
 N519 N 0.38239 0.23739 0.66102
 N520 N 0.40363 0.23477 0.63981
 C521 C 0.42263 0.21864 0.58770
 C522 C 0.44122 0.21789 0.56752
 C523 C 0.33383 0.22960 0.67642
 C524 C 0.31412 0.23356 0.69452
 C525 C 0.09950 0.27944 0.11110
 N526 N 0.12460 0.29183 0.10485
 N527 N 0.14578 0.28924 0.12611
 C528 C 0.14251 0.27418 0.15426
 N529 N 0.11739 0.26184 0.16055
 N530 N 0.09620 0.26443 0.13928
 C531 C 0.07718 0.28098 0.08740
 C532 C 0.05869 0.28169 0.06712
 C533 C 0.16575 0.27015 0.17627
 C534 C 0.18547 0.26615 0.19431
 C535 C 0.59973 0.77826 0.61108
 N536 N 0.62474 0.79084 0.60480
 N537 N 0.64601 0.78827 0.62595
 C538 C 0.64293 0.77304 0.65401
 N539 N 0.61791 0.76051 0.66031
 N540 N 0.59663 0.76308 0.63917
 C541 C 0.57727 0.77988 0.58754
 C542 C 0.55866 0.78068 0.56741
 C543 C 0.66624 0.76915 0.67598
 C544 C 0.68601 0.76535 0.69403
   
