data_POSCAR
  _audit_creation_date              2014-09-24
  _audit_creation_method            'ToBaCCo'
  _symmetry_space_group_name_H-M    'P1'
  _symmetry_Int_Tables_number       1
  _symmetry_cell_setting            triclinic
  loop_
  _symmetry_equiv_pos_as_xyz
 x,y,z
_cell_length_a 18.7173
_cell_length_b 15.0698
_cell_length_c 21.9976
_cell_angle_alpha 90.000000
_cell_angle_beta 90.000000
_cell_angle_gamma 89.593900
loop_
  _atom_site_label
  _atom_site_type_symbol
  _atom_site_fract_x
  _atom_site_fract_y
  _atom_site_fract_z
B1 B 0.28346 0.20869 0.19017
 B2 B 0.28342 0.31767 0.20226
 B3 B 0.20542 0.26754 0.18876
 B4 B 0.20850 0.16452 0.22127
 B5 B 0.28881 0.15423 0.25678
 B6 B 0.33539 0.25019 0.24506
 B7 B 0.21670 0.29131 0.30979
 B8 B 0.21674 0.18233 0.29771
 B9 B 0.29475 0.23246 0.31120
 B10 B 0.29166 0.33547 0.27869
 B11 B 0.21135 0.34576 0.24318
 B12 B 0.16477 0.24981 0.25490
 B13 B 0.70542 0.76754 0.31120
 B14 B 0.78342 0.81767 0.29771
 B15 B 0.78346 0.70869 0.30979
 B16 B 0.70850 0.66452 0.27869
 B17 B 0.66477 0.74981 0.24506
 B18 B 0.71135 0.84576 0.25678
 B19 B 0.79475 0.73246 0.18876
 B20 B 0.71674 0.68233 0.20226
 B21 B 0.71670 0.79131 0.19017
 B22 B 0.79167 0.83547 0.22127
 B23 B 0.83539 0.75019 0.25490
 B24 B 0.78881 0.65423 0.24318
 B25 B 0.72271 0.19791 0.80819
 B26 B 0.70040 0.30270 0.79522
 B27 B 0.78522 0.27975 0.81384
 B28 B 0.80635 0.17967 0.78111
 B29 B 0.73330 0.14539 0.74114
 B30 B 0.66778 0.22344 0.75027
 B31 B 0.77745 0.30209 0.69178
 B32 B 0.79976 0.19729 0.70474
 B33 B 0.71495 0.22025 0.68612
 B34 B 0.69381 0.32033 0.71886
 B35 B 0.76687 0.35461 0.75883
 B36 B 0.83238 0.27656 0.74970
 B37 B 0.28522 0.77975 0.68612
 B38 B 0.20040 0.80270 0.70474
 B39 B 0.22271 0.69791 0.69178
 B40 B 0.30635 0.67967 0.71886
 B41 B 0.33238 0.77656 0.75027
 B42 B 0.26687 0.85461 0.74114
 B43 B 0.21495 0.72025 0.81384
 B44 B 0.29976 0.69729 0.79522
 B45 B 0.27745 0.80209 0.80819
 B46 B 0.19381 0.82033 0.78111
 B47 B 0.16778 0.72343 0.74970
 B48 B 0.23330 0.64539 0.75883
 B49 B 0.21670 0.29131 0.69017
 B50 B 0.21674 0.18233 0.70226
 B51 B 0.29475 0.23246 0.68876
 B52 B 0.29167 0.33547 0.72127
 B53 B 0.21135 0.34576 0.75678
 B54 B 0.16477 0.24981 0.74506
 B55 B 0.28346 0.20869 0.80979
 B56 B 0.28342 0.31767 0.79771
 B57 B 0.20542 0.26754 0.81120
 B58 B 0.20850 0.16452 0.77869
 B59 B 0.28881 0.15423 0.74318
 B60 B 0.33539 0.25019 0.75490
 B61 B 0.78346 0.70869 0.69017
 B62 B 0.78342 0.81767 0.70226
 B63 B 0.70542 0.76754 0.68876
 B64 B 0.70850 0.66452 0.72127
 B65 B 0.78881 0.65423 0.75678
 B66 B 0.83539 0.75019 0.74506
 B67 B 0.71670 0.79131 0.80979
 B68 B 0.71674 0.68233 0.79771
 B69 B 0.79475 0.73246 0.81120
 B70 B 0.79166 0.83547 0.77869
 B71 B 0.71135 0.84576 0.74318
 B72 B 0.66477 0.74981 0.75490
 B73 B 0.22271 0.69791 0.30819
 B74 B 0.20040 0.80270 0.29522
 B75 B 0.28522 0.77975 0.31384
 B76 B 0.30635 0.67967 0.28111
 B77 B 0.23330 0.64539 0.24114
 B78 B 0.16778 0.72344 0.25027
 B79 B 0.27745 0.80209 0.19178
 B80 B 0.29976 0.69729 0.20474
 B81 B 0.21495 0.72025 0.18612
 B82 B 0.19381 0.82033 0.21886
 B83 B 0.26687 0.85461 0.25883
 B84 B 0.33238 0.77656 0.24970
 B85 B 0.78522 0.27975 0.18612
 B86 B 0.70040 0.30270 0.20474
 B87 B 0.72271 0.19791 0.19178
 B88 B 0.80635 0.17967 0.21886
 B89 B 0.83238 0.27656 0.25027
 B90 B 0.76687 0.35461 0.24114
 B91 B 0.71495 0.22025 0.31384
 B92 B 0.79976 0.19729 0.29522
 B93 B 0.77745 0.30209 0.30819
 B94 B 0.69381 0.32033 0.28111
 B95 B 0.66778 0.22343 0.24970
 B96 B 0.73330 0.14539 0.25883
 N97 N 0.63359 1.08562 0.06493
 N98 N 0.69309 1.12175 0.08634
 N99 N 0.57673 0.90297 0.10483
 N100 N 0.59891 0.86056 0.15358
 N101 N 0.62837 0.90266 0.06422
 N102 N 0.68606 0.86093 0.08472
 N103 N 0.58209 1.08812 0.10561
 N104 N 0.60618 1.12580 0.15523
 C105 C 0.67492 1.14761 0.14288
 C106 C 0.66646 0.83329 0.14021
 N107 N 0.36657 0.91438 0.06493
 N108 N 0.30707 0.87825 0.08634
 N109 N 0.42344 1.09703 0.10483
 N110 N 0.40126 1.13944 0.15358
 N111 N 0.37179 1.09733 0.06422
 N112 N 0.31410 1.13906 0.08472
 N113 N 0.41808 0.91188 0.10561
 N114 N 0.39398 0.87420 0.15523
 Mn115 Mn 0.50008 1.00000 0.10488
 C116 C 0.32524 0.85239 0.14288
 C117 C 0.33370 1.16671 0.14021
 N118 N 0.62837 0.90266 -0.06425
 N119 N 0.68606 0.86094 -0.08476
 N120 N 0.58209 1.08812 -0.10564
 N121 N 0.60618 1.12580 -0.15527
 N122 N 0.63359 1.08562 -0.06496
 N123 N 0.69309 1.12175 -0.08638
 N124 N 0.57673 0.90297 -0.10487
 N125 N 0.59891 0.86056 -0.15362
 Mn126 Mn 0.63017 0.99439 -0.00002
 C127 C 0.66646 0.83329 -0.14024
 C128 C 0.67492 1.14761 -0.14291
 N129 N 0.37179 1.09734 -0.06425
 N130 N 0.31410 1.13906 -0.08476
 N131 N 0.41808 0.91188 -0.10564
 N132 N 0.39398 0.87420 -0.15527
 N133 N 0.36657 0.91438 -0.06496
 N134 N 0.30707 0.87825 -0.08638
 N135 N 0.42344 1.09703 -0.10487
 N136 N 0.40126 1.13944 -0.15362
 Mn137 Mn 0.37000 1.00561 -0.00002
 Mn138 Mn 0.50008 1.00000 -0.10492
 Cl139 Cl 0.50008 1.00000 -0.00002
 C140 C 0.33370 1.16671 -0.14024
 C141 C 0.32524 0.85239 -0.14291
 N142 N 1.13359 0.58562 0.56493
 N143 N 1.19309 0.62175 0.58634
 N144 N 1.07673 0.40297 0.60483
 N145 N 1.09891 0.36056 0.65358
 N146 N 1.12837 0.40266 0.56422
 N147 N 1.18606 0.36093 0.58472
 N148 N 1.08209 0.58812 0.60561
 N149 N 1.10618 0.62580 0.65523
 C150 C 1.17492 0.64761 0.64288
 C151 C 1.16646 0.33329 0.64021
 N152 N 0.86657 0.41438 0.56493
 N153 N 0.80707 0.37825 0.58634
 N154 N 0.92344 0.59703 0.60483
 N155 N 0.90126 0.63944 0.65358
 N156 N 0.87179 0.59733 0.56422
 N157 N 0.81410 0.63906 0.58472
 N158 N 0.91808 0.41188 0.60561
 N159 N 0.89398 0.37420 0.65523
 Mn160 Mn 1.00008 0.50000 0.60488
 C161 C 0.82524 0.35239 0.64288
 C162 C 0.83370 0.66671 0.64021
 N163 N 1.12837 0.40266 0.43575
 N164 N 1.18606 0.36094 0.41524
 N165 N 1.08209 0.58812 0.39436
 N166 N 1.10618 0.62580 0.34473
 N167 N 1.13359 0.58562 0.43504
 N168 N 1.19309 0.62175 0.41362
 N169 N 1.07673 0.40297 0.39513
 N170 N 1.09891 0.36056 0.34638
 Mn171 Mn 1.13017 0.49439 0.49998
 C172 C 1.16646 0.33329 0.35976
 C173 C 1.17492 0.64761 0.35709
 N174 N 0.87179 0.59734 0.43575
 N175 N 0.81410 0.63906 0.41524
 N176 N 0.91808 0.41188 0.39436
 N177 N 0.89398 0.37420 0.34473
 N178 N 0.86657 0.41438 0.43504
 N179 N 0.80707 0.37825 0.41362
 N180 N 0.92344 0.59703 0.39513
 N181 N 0.90126 0.63944 0.34638
 Mn182 Mn 0.87000 0.50561 0.49998
 Mn183 Mn 1.00008 0.50000 0.39508
 Cl184 Cl 1.00008 0.50000 0.49998
 C185 C 0.83370 0.66671 0.35976
 C186 C 0.82524 0.35239 0.35709
 N187 N 1.13744 0.57157 0.06795
 N188 N 1.19111 0.62451 0.08411
 N189 N 1.06909 0.39369 0.10762
 N190 N 1.08771 0.34452 0.15492
 N191 N 1.11665 0.38342 0.06449
 N192 N 1.16817 0.32792 0.08185
 N193 N 1.08439 0.58262 0.10627
 N194 N 1.10004 0.64348 0.14717
 C195 C 1.16700 0.67127 0.13339
 C196 C 1.14947 0.30220 0.13829
 N197 N 0.86272 0.42843 0.06795
 N198 N 0.80906 0.37549 0.08411
 N199 N 0.93107 0.60631 0.10762
 N200 N 0.91246 0.65548 0.15492
 N201 N 0.88351 0.61658 0.06449
 N202 N 0.83200 0.67208 0.08186
 N203 N 0.91577 0.41737 0.10627
 N204 N 0.90012 0.35651 0.14717
 Mn205 Mn 1.00008 0.50000 0.10691
 C206 C 0.83316 0.32872 0.13339
 C207 C 0.85070 0.69779 0.13829
 N208 N 1.11665 0.38342 -0.06452
 N209 N 1.16817 0.32792 -0.08189
 N210 N 1.08439 0.58263 -0.10630
 N211 N 1.10004 0.64349 -0.14721
 N212 N 1.13744 0.57157 -0.06799
 N213 N 1.19111 0.62451 -0.08414
 N214 N 1.06909 0.39369 -0.10765
 N215 N 1.08771 0.34452 -0.15495
 Mn216 Mn 1.12658 0.47606 -0.00002
 C217 C 1.14947 0.30220 -0.13833
 C218 C 1.16700 0.67128 -0.13343
 N219 N 0.88351 0.61658 -0.06452
 N220 N 0.83199 0.67208 -0.08189
 N221 N 0.91577 0.41737 -0.10630
 N222 N 0.90012 0.35651 -0.14721
 N223 N 0.86272 0.42843 -0.06799
 N224 N 0.80906 0.37549 -0.08414
 N225 N 0.93107 0.60631 -0.10765
 N226 N 0.91246 0.65548 -0.15495
 Mn227 Mn 0.87358 0.52394 -0.00002
 Mn228 Mn 1.00008 0.50000 -0.10695
 Cl229 Cl 1.00008 0.50000 -0.00002
 C230 C 0.85070 0.69780 -0.13833
 C231 C 0.83316 0.32872 -0.13343
 N232 N 0.63744 1.07157 0.56795
 N233 N 0.69111 1.12451 0.58411
 N234 N 0.56909 0.89369 0.60762
 N235 N 0.58771 0.84452 0.65492
 N236 N 0.61665 0.88342 0.56449
 N237 N 0.66817 0.82792 0.58185
 N238 N 0.58439 1.08262 0.60627
 N239 N 0.60004 1.14348 0.64717
 C240 C 0.66700 1.17127 0.63339
 C241 C 0.64947 0.80220 0.63829
 N242 N 0.36272 0.92843 0.56795
 N243 N 0.30906 0.87549 0.58411
 N244 N 0.43107 1.10631 0.60762
 N245 N 0.41246 1.15548 0.65492
 N246 N 0.38351 1.11658 0.56449
 N247 N 0.33200 1.17208 0.58186
 N248 N 0.41577 0.91737 0.60627
 N249 N 0.40012 0.85651 0.64717
 Mn250 Mn 0.50008 1.00000 0.60691
 C251 C 0.33316 0.82872 0.63339
 C252 C 0.35070 1.19779 0.63829
 N253 N 0.61665 0.88342 0.43548
 N254 N 0.66817 0.82792 0.41811
 N255 N 0.58439 1.08263 0.39370
 N256 N 0.60004 1.14349 0.35279
 N257 N 0.63744 1.07157 0.43201
 N258 N 0.69111 1.12451 0.41586
 N259 N 0.56909 0.89369 0.39235
 N260 N 0.58771 0.84452 0.34505
 Mn261 Mn 0.62658 0.97606 0.49998
 C262 C 0.64947 0.80220 0.36167
 C263 C 0.66700 1.17128 0.36657
 N264 N 0.38351 1.11658 0.43548
 N265 N 0.33199 1.17208 0.41811
 N266 N 0.41577 0.91737 0.39370
 N267 N 0.40012 0.85651 0.35279
 N268 N 0.36272 0.92843 0.43201
 N269 N 0.30906 0.87549 0.41586
 N270 N 0.43107 1.10631 0.39235
 N271 N 0.41246 1.15548 0.34505
 Mn272 Mn 0.37358 1.02394 0.49998
 Mn273 Mn 0.50008 1.00000 0.39305
 Cl274 Cl 0.50008 1.00000 0.49998
 C275 C 0.35070 1.19780 0.36167
 C276 C 0.33316 0.82872 0.36657
 N277 N 1.14029 1.05832 0.57114
 N278 N 1.19915 1.08871 0.59831
 N279 N 1.06082 0.89321 0.60948
 N280 N 1.08332 0.86771 0.66368
 N281 N 1.11018 0.87876 0.56792
 N282 N 1.16674 0.84378 0.59484
 N283 N 1.08596 1.07315 0.60773
 N284 N 1.10545 1.11373 0.65775
 C285 C 1.17583 1.12405 0.65231
 C286 C 1.14999 0.83990 0.65425
 N287 N 0.85988 0.94168 0.57114
 N288 N 0.80101 0.91129 0.59831
 N289 N 0.93934 1.10679 0.60948
 N290 N 0.91685 1.13229 0.66368
 N291 N 0.88998 1.12124 0.56792
 N292 N 0.83342 1.15622 0.59484
 N293 N 0.91420 0.92685 0.60773
 N294 N 0.89471 0.88627 0.65775
 Mn295 Mn 1.00008 1.00000 0.60672
 C296 C 0.82434 0.87594 0.65231
 C297 C 0.85017 1.16010 0.65425
 N298 N 1.11018 0.87876 0.43205
 N299 N 1.16674 0.84378 0.40512
 N300 N 1.08596 1.07315 0.39223
 N301 N 1.10545 1.11373 0.34221
 N302 N 1.14029 1.05832 0.42883
 N303 N 1.19916 1.08871 0.40165
 N304 N 1.06082 0.89321 0.39048
 N305 N 1.08332 0.86771 0.33628
 Mn306 Mn 1.12438 0.96713 0.49998
 C307 C 1.15000 0.83990 0.34571
 C308 C 1.17583 1.12405 0.34765
 N309 N 0.88998 1.12124 0.43205
 N310 N 0.83342 1.15622 0.40512
 N311 N 0.91420 0.92685 0.39223
 N312 N 0.89471 0.88627 0.34221
 N313 N 0.85988 0.94168 0.42883
 N314 N 0.80101 0.91129 0.40165
 N315 N 0.93934 1.10679 0.39048
 N316 N 0.91685 1.13229 0.33628
 Mn317 Mn 0.87578 1.03287 0.49998
 Mn318 Mn 1.00008 1.00000 0.39324
 Cl319 Cl 1.00008 1.00000 0.49998
 C320 C 0.85017 1.16010 0.34571
 C321 C 0.82434 0.87595 0.34765
 N322 N 0.64029 0.55832 0.07114
 N323 N 0.69915 0.58871 0.09831
 N324 N 0.56082 0.39321 0.10948
 N325 N 0.58332 0.36771 0.16368
 N326 N 0.61018 0.37876 0.06792
 N327 N 0.66674 0.34378 0.09484
 N328 N 0.58596 0.57315 0.10773
 N329 N 0.60545 0.61373 0.15775
 C330 C 0.67583 0.62405 0.15231
 C331 C 0.64999 0.33990 0.15425
 N332 N 0.35988 0.44168 0.07114
 N333 N 0.30101 0.41129 0.09831
 N334 N 0.43934 0.60679 0.10948
 N335 N 0.41685 0.63229 0.16368
 N336 N 0.38998 0.62124 0.06792
 N337 N 0.33342 0.65622 0.09484
 N338 N 0.41420 0.42685 0.10773
 N339 N 0.39471 0.38627 0.15775
 Mn340 Mn 0.50008 0.50000 0.10672
 C341 C 0.32434 0.37594 0.15231
 C342 C 0.35017 0.66010 0.15425
 N343 N 0.61018 0.37876 -0.06795
 N344 N 0.66674 0.34378 -0.09488
 N345 N 0.58596 0.57315 -0.10777
 N346 N 0.60545 0.61373 -0.15779
 N347 N 0.64029 0.55832 -0.07117
 N348 N 0.69916 0.58871 -0.09835
 N349 N 0.56082 0.39321 -0.10952
 N350 N 0.58332 0.36771 -0.16372
 Mn351 Mn 0.62438 0.46713 -0.00002
 C352 C 0.65000 0.33990 -0.15429
 C353 C 0.67583 0.62405 -0.15235
 N354 N 0.38998 0.62124 -0.06795
 N355 N 0.33342 0.65622 -0.09488
 N356 N 0.41420 0.42685 -0.10777
 N357 N 0.39471 0.38627 -0.15779
 N358 N 0.35988 0.44168 -0.07117
 N359 N 0.30101 0.41129 -0.09835
 N360 N 0.43934 0.60679 -0.10952
 N361 N 0.41685 0.63229 -0.16372
 Mn362 Mn 0.37578 0.53287 -0.00002
 Mn363 Mn 0.50008 0.50000 -0.10676
 Cl364 Cl 0.50008 0.50000 -0.00002
 C365 C 0.35017 0.66010 -0.15429
 C366 C 0.32434 0.37595 -0.15235
   
