data_POSCAR
  _audit_creation_date              2014-09-24
  _audit_creation_method            'ToBaCCo'
  _symmetry_space_group_name_H-M    'P1'
  _symmetry_Int_Tables_number       1
  _symmetry_cell_setting            triclinic
  loop_
  _symmetry_equiv_pos_as_xyz
 x,y,z
_cell_length_a 18.5435
_cell_length_b 19.4804
_cell_length_c 51.1368
_cell_angle_alpha 89.215100
_cell_angle_beta 90.265300
_cell_angle_gamma 117.992200
loop_
  _atom_site_label
  _atom_site_type_symbol
  _atom_site_fract_x
  _atom_site_fract_y
  _atom_site_fract_z
Si1 Si -0.00807 0.00081 0.49945
 Si2 Si 1.00518 0.00323 0.17408
 Si3 Si 0.00118 0.99689 0.82646
 O4 O 0.59938 0.05808 -0.02606
 O5 O 0.45991 0.05816 0.02521
 O6 O 0.60572 0.07043 0.02464
 O7 O 0.46493 0.07045 -0.02583
 O8 O 0.40241 -0.05775 -0.02594
 O9 O 0.54239 -0.05778 0.02562
 O10 O 0.39592 -0.07004 0.02508
 O11 O 0.53614 -0.07013 -0.02511
 Cu12 Cu 0.53852 0.07685 -0.00061
 Cu13 Cu 0.46287 -0.07649 -0.00001
 C14 C 0.59166 -0.00653 -0.03425
 C15 C 0.40395 -0.00645 0.03396
 C16 C 0.59846 0.00682 0.03388
 C17 C 0.41006 0.00686 -0.03473
 O18 O 0.06043 0.59447 0.68780
 O19 O 0.05993 0.45632 0.63901
 O20 O 0.07166 0.59582 0.63707
 O21 O 0.07208 0.46570 0.68959
 O22 O -0.06256 0.40308 0.68903
 O23 O -0.06296 0.53800 0.63783
 O24 O -0.07479 0.39947 0.63835
 O25 O -0.07422 0.53185 0.68870
 Cu26 Cu 0.07932 0.53409 0.66334
 Cu27 Cu -0.08188 0.46229 0.66354
 C28 C -0.00726 0.58661 0.69658
 C29 C -0.00806 0.40407 0.63038
 C30 C 0.00469 0.59013 0.62865
 C31 C 0.00521 0.41119 0.69798
 O32 O 0.53314 0.59666 0.31127
 O33 O 0.39876 0.46267 0.36227
 O34 O 0.52470 0.60061 0.36188
 O35 O 0.39369 0.46858 0.31137
 O36 O 0.46541 0.40481 0.31268
 O37 O 0.60234 0.54267 0.36153
 O38 O 0.47527 0.40373 0.36348
 O39 O 0.60464 0.53266 0.31104
 Cu40 Cu 0.45513 0.53804 0.33660
 Cu41 Cu 0.54412 0.46479 0.33727
 C42 C 0.59239 0.58772 0.30254
 C43 C 0.41425 0.41010 0.37163
 C44 C 0.58673 0.59553 0.36997
 C45 C 0.40591 0.41334 0.30366
 C46 C -0.01901 0.17275 0.55945
 C47 C -0.08564 0.13583 0.54239
 C48 C -0.08627 0.08100 0.52460
 C49 C -0.02146 0.06264 0.52439
 C50 C 0.04372 0.09917 0.54198
 C51 C 0.04575 0.15465 0.55937
 C52 C -0.01594 0.23277 0.57735
 C53 C 0.05215 0.27130 0.59372
 C54 C 0.05528 0.32884 0.61051
 C55 C -0.00981 0.34677 0.61143
 C56 C -0.07788 0.30739 0.59497
 C57 C -0.08083 0.25080 0.57765
 C58 C 0.11233 0.19368 0.57623
 C59 C 0.11561 0.25126 0.59307
 C60 C -0.14921 0.15586 0.54315
 C61 C -0.14712 0.21195 0.56060
 H62 H 0.16270 0.18010 0.57624
 H63 H 0.16828 0.28034 0.60566
 H64 H -0.20101 0.12798 0.53015
 H65 H -0.19753 0.22545 0.56060
 H66 H -0.13507 0.05557 0.51057
 H67 H 0.09470 0.08645 0.54150
 H68 H 0.10740 0.35832 0.62331
 H69 H -0.12810 0.32115 0.59552
 C70 C 0.82251 0.81291 0.23052
 C71 C 0.88207 0.79862 0.21837
 C72 C 0.93913 0.85531 0.20129
 C73 C 0.93607 0.92517 0.19676
 C74 C 0.87701 0.93878 0.20941
 C75 C 0.81967 0.88278 0.22611
 C76 C 0.76214 0.75391 0.24831
 C77 C 0.70268 0.76854 0.26024
 C78 C 0.64602 0.71290 0.27737
 C79 C 0.64902 0.64336 0.28295
 C80 C 0.70882 0.62931 0.27066
 C81 C 0.76547 0.68444 0.25323
 C82 C 0.75938 0.89535 0.23838
 C83 C 0.70168 0.83905 0.25512
 C84 C 0.88297 0.72801 0.22363
 C85 C 0.82585 0.67203 0.24081
 H86 H 0.75674 0.94916 0.23499
 H87 H 0.65621 0.85102 0.26425
 H88 H 0.92836 0.71602 0.21447
 H89 H 0.82905 0.61860 0.24442
 H90 H 0.98530 0.84534 0.19172
 H91 H 0.87497 0.99292 0.20593
 H92 H 0.60078 0.72462 0.28681
 H93 H 0.71170 0.57594 0.27480
 C94 C 0.19433 0.00932 -0.11571
 C95 C 0.19059 0.07825 -0.12175
 C96 C 0.13412 0.07679 -0.14056
 C97 C 0.08305 0.00709 -0.15339
 C98 C 0.08803 -0.06112 -0.14693
 C99 C 0.14349 -0.06035 -0.12828
 C100 C 0.25051 0.00926 -0.09520
 C101 C 0.25192 -0.06044 -0.08871
 C102 C 0.30406 -0.06076 -0.06887
 C103 C 0.35500 0.00800 -0.05560
 C104 C 0.35325 0.07768 -0.06247
 C105 C 0.30061 0.07847 -0.08219
 C106 C 0.14730 -0.12869 -0.12149
 C107 C 0.20067 -0.12872 -0.10203
 C108 C 0.24206 0.14652 -0.10835
 C109 C 0.29633 0.14669 -0.08899
 H110 H 0.10812 -0.18279 -0.13114
 H111 H 0.20134 -0.18277 -0.09724
 H112 H 0.24006 0.20016 -0.11275
 H113 H 0.33469 0.20055 -0.07909
 H114 H 0.12843 0.12879 -0.14454
 H115 H 0.04667 -0.11617 -0.15565
 H116 H 0.30513 -0.11452 -0.06385
 H117 H 0.39205 0.13095 -0.05232
 C118 C 0.00438 0.81292 0.55351
 C119 C -0.07067 0.80659 0.54527
 C120 C -0.07124 0.86344 0.52853
 C121 C 0.00215 0.92592 0.51968
 C122 C 0.07730 0.93195 0.52791
 C123 C 0.07867 0.87513 0.54497
 C124 C 0.00491 0.75438 0.57200
 C125 C 0.07972 0.76143 0.58090
 C126 C 0.07961 0.70662 0.59907
 C127 C 0.00526 0.64551 0.60840
 C128 C -0.06903 0.63906 0.59892
 C129 C -0.06958 0.69337 0.58083
 C130 C 0.15239 0.87970 0.55411
 C131 C 0.15291 0.82383 0.57174
 C132 C -0.14388 0.74431 0.55428
 C133 C -0.14334 0.68852 0.57174
 H134 H 0.21016 0.92718 0.54775
 H135 H 0.21111 0.82994 0.57844
 H136 H -0.20210 0.73899 0.54794
 H137 H -0.20115 0.64168 0.57840
 H138 H -0.12932 0.85956 0.52271
 H139 H 0.13387 0.98135 0.52183
 H140 H 0.13723 0.71231 0.60625
 H141 H -0.12654 0.59246 0.60591
 C142 C 0.17934 0.18950 0.23209
 C143 C 0.18189 0.11944 0.22861
 C144 C 0.12658 0.06457 0.21155
 C145 C 0.07010 0.07961 0.19751
 C146 C 0.06675 0.14934 0.20134
 C147 C 0.12177 0.20491 0.21877
 C148 C 0.23813 0.24766 0.25004
 C149 C 0.23528 0.31748 0.25392
 C150 C 0.29090 0.37216 0.27131
 C151 C 0.34933 0.35738 0.28454
 C152 C 0.35164 0.28731 0.28010
 C153 C 0.29593 0.23210 0.26304
 C154 C 0.12100 0.27565 0.22313
 C155 C 0.17663 0.33087 0.24044
 C156 C 0.24022 0.10574 0.24203
 C157 C 0.29649 0.16127 0.25892
 H158 H 0.07708 0.28848 0.21308
 H159 H 0.17377 0.38456 0.24326
 H160 H 0.24261 0.05175 0.23938
 H161 H 0.34064 0.14856 0.26888
 H162 H 0.12864 0.01041 0.20875
 H163 H 0.02201 0.16022 0.19103
 H164 H 0.28862 0.42597 0.27457
 H165 H 0.39580 0.27504 0.29028
 C166 C 0.81271 -0.01060 -0.11227
 C167 C 0.87643 0.06017 -0.12117
 C168 C 0.93102 0.05943 -0.13968
 C169 C 0.92208 -0.01104 -0.14968
 C170 C 0.85872 -0.08191 -0.14044
 C171 C 0.80327 -0.08192 -0.12167
 C172 C 0.75557 -0.00979 -0.09246
 C173 C 0.69224 -0.08039 -0.08320
 C174 C 0.63842 -0.07913 -0.06421
 C175 C 0.64783 -0.00782 -0.05452
 C176 C 0.71172 0.06232 -0.06414
 C177 C 0.76579 0.06168 -0.08305
 C178 C 0.73896 -0.15143 -0.11192
 C179 C 0.68438 -0.15068 -0.09305
 C180 C 0.88474 0.13047 -0.11134
 C181 C 0.83023 0.13122 -0.09261
 H182 H 0.73077 -0.20688 -0.11892
 H183 H 0.63572 -0.20562 -0.08605
 H184 H 0.93387 0.18540 -0.11816
 H185 H 0.83878 0.18667 -0.08549
 H186 H 0.98092 0.11422 -0.14629
 H187 H 0.85349 -0.13631 -0.14730
 H188 H 0.58949 -0.13356 -0.05695
 H189 H 0.71973 0.11744 -0.05684
 C190 C 0.18777 -0.00935 0.11497
 C191 C 0.11636 -0.07844 0.12103
 C192 C 0.06191 -0.07714 0.13991
 C193 C 0.07983 -0.00748 0.15265
 C194 C 0.15168 0.06078 0.14631
 C195 C 0.20590 0.06027 0.12760
 C196 C 0.24345 -0.00911 0.09442
 C197 C 0.31333 0.06067 0.08793
 C198 C 0.36529 0.06112 0.06808
 C199 C 0.34819 -0.00761 0.05479
 C200 C 0.27799 -0.07735 0.06166
 C201 C 0.22508 -0.07828 0.08139
 C202 C 0.27680 0.12869 0.12080
 C203 C 0.32967 0.12889 0.10129
 C204 C 0.10027 -0.14664 0.10762
 C205 C 0.15383 -0.14662 0.08821
 H206 H 0.29116 0.18273 0.13049
 H207 H 0.38344 0.18300 0.09650
 H208 H 0.04561 -0.20036 0.11204
 H209 H 0.13893 -0.20043 0.07829
 H210 H 0.00518 -0.12908 0.14408
 H211 H 0.16438 0.11542 0.15523
 H212 H 0.41920 0.11493 0.06306
 H213 H 0.26409 -0.13060 0.05150
 C214 C 0.80828 0.82886 0.43983
 C215 C 0.77918 0.86642 0.45687
 C216 C 0.83370 0.92159 0.47445
 C217 C 0.91654 0.93961 0.47449
 C218 C 0.94458 0.90258 0.45688
 C219 C 0.89083 0.84674 0.43970
 C220 C 0.75100 0.76829 0.42223
 C221 C 0.77998 0.72903 0.40593
 C222 C 0.72528 0.67095 0.38942
 C223 C 0.64252 0.65317 0.38872
 C224 C 0.61440 0.69329 0.40512
 C225 C 0.66836 0.75042 0.42216
 C226 C 0.91779 0.80703 0.42288
 C227 C 0.86320 0.74894 0.40633
 C228 C 0.69587 0.84657 0.45634
 C229 C 0.64155 0.78999 0.43915
 H230 H 0.98149 0.82043 0.42271
 H231 H 0.88633 0.71931 0.39378
 H232 H 0.67243 0.87495 0.46932
 H233 H 0.57787 0.77664 0.43932
 H234 H 0.81083 0.94737 0.48851
 H235 H 1.00803 0.91502 0.45723
 H236 H 0.74748 0.64095 0.37666
 H237 H 0.55062 0.67968 0.40471
 C238 C 0.00884 0.18514 0.77100
 C239 C -0.06441 0.11761 0.77625
 C240 C -0.06357 0.06117 0.79311
 C241 C 0.00929 0.07198 0.80518
 C242 C 0.08283 0.13953 0.79970
 C243 C 0.08278 0.19665 0.78246
 C244 C 0.00795 0.24440 0.75293
 C245 C 0.08122 0.31145 0.74714
 C246 C 0.08006 0.36682 0.72947
 C247 C 0.00614 0.35533 0.71775
 C248 C -0.06678 0.28813 0.72415
 C249 C -0.06617 0.23234 0.74157
 C250 C 0.15484 0.26488 0.77632
 C251 C 0.15409 0.32120 0.75894
 C252 C -0.13731 0.10762 0.76455
 C253 C -0.13821 0.16416 0.74754
 H254 H 0.21233 0.27474 0.78494
 H255 H 0.21111 0.37273 0.75464
 H256 H -0.19417 0.05561 0.76858
 H257 H -0.19569 0.15417 0.73886
 H258 H -0.12039 0.00876 0.79702
 H259 H 0.13944 0.14738 0.80844
 H260 H 0.13662 0.41833 0.72469
 H261 H -0.12384 0.27835 0.71518
 C262 C 0.82288 0.01075 0.11285
 C263 C 0.81545 -0.06009 0.12235
 C264 C 0.87089 -0.05940 0.14100
 C265 C 0.93289 0.01113 0.15051
 C266 C 0.94071 0.08204 0.14072
 C267 C 0.88515 0.08209 0.12182
 C268 C 0.76509 0.00999 0.09280
 C269 C 0.77282 0.08064 0.08293
 C270 C 0.71792 0.07940 0.06370
 C271 C 0.65582 0.00807 0.05435
 C272 C 0.64914 -0.06211 0.06458
 C273 C 0.70361 -0.06150 0.08375
 C274 C 0.89078 0.15165 0.11148
 C275 C 0.83553 0.15094 0.09239
 C276 C 0.75316 -0.13041 0.11289
 C277 C 0.69805 -0.13110 0.09393
 H278 H 0.93834 0.20710 0.11814
 H279 H 0.84216 0.20591 0.08492
 H280 H 0.74708 -0.18538 0.12017
 H281 H 0.65094 -0.18658 0.08711
 H282 H 0.86598 -0.11424 0.14798
 H283 H 0.99027 0.13637 0.14723
 H284 H 0.72376 0.13387 0.05597
 H285 H 0.60183 -0.11725 0.05757
 C286 C 0.19140 0.18769 0.44592
 C287 C 0.12284 0.19468 0.45378
 C288 C 0.06554 0.13797 0.47031
 C289 C 0.07641 0.07499 0.47932
 C290 C 0.14533 0.06827 0.47146
 C291 C 0.20339 0.12494 0.45461
 C292 C 0.25044 0.24617 0.42769
 C293 C 0.31807 0.23849 0.41917
 C294 C 0.37275 0.29324 0.40122
 C295 C 0.35963 0.35493 0.39174
 C296 C 0.29195 0.36202 0.40084
 C297 C 0.23710 0.30777 0.41871
 C298 C 0.27239 0.11973 0.44586
 C299 C 0.32873 0.17552 0.42846
 C300 C 0.11203 0.25751 0.44463
 C301 C 0.16832 0.31323 0.42741
 H302 H 0.28261 0.07182 0.45234
 H303 H 0.38072 0.16892 0.42205
 H304 H 0.05925 0.26334 0.45067
 H305 H 0.15744 0.36051 0.42063
 H306 H 0.01157 0.14243 0.47589
 H307 H 0.15250 0.01852 0.47768
 H308 H 0.42455 0.28705 0.39432
 H309 H 0.28110 0.40904 0.39373
 C310 C -0.01110 0.81113 0.76787
 C311 C -0.08322 0.79546 0.78142
 C312 C -0.08281 0.85098 0.79891
 C313 C -0.01067 0.92089 0.80262
 C314 C 0.05989 0.93624 0.78827
 C315 C 0.06047 0.88145 0.77114
 C316 C -0.01019 0.75288 0.74994
 C317 C 0.06240 0.76863 0.73676
 C318 C 0.06322 0.71323 0.71979
 C319 C -0.00810 0.64281 0.71561
 C320 C -0.08058 0.62788 0.72898
 C321 C -0.08181 0.68272 0.74630
 C322 C 0.13170 0.89540 0.75750
 C323 C 0.13272 0.83979 0.74064
 C324 C -0.15371 0.72442 0.77728
 C325 C -0.15307 0.66913 0.75998
 H326 H 0.18727 0.94962 0.75998
 H327 H 0.18897 0.85268 0.73052
 H328 H -0.20981 0.71138 0.78751
 H329 H -0.20880 0.61518 0.75735
 H330 H -0.13777 0.83982 0.80942
 H331 H 0.11542 0.99049 0.79096
 H332 H 0.11905 0.72562 0.70947
 H333 H -0.13586 0.57378 0.72592
   
