data_POSCAR
  _audit_creation_date              2014-09-24
  _audit_creation_method            'ToBaCCo'
  _symmetry_space_group_name_H-M    'P1'
  _symmetry_Int_Tables_number       1
  _symmetry_cell_setting            triclinic
  loop_
  _symmetry_equiv_pos_as_xyz
 x,y,z
_cell_length_a 14.9002
_cell_length_b 15.1130
_cell_length_c 15.2146
_cell_angle_alpha 89.692300
_cell_angle_beta 89.971900
_cell_angle_gamma 90.031900
loop_
  _atom_site_label
  _atom_site_type_symbol
  _atom_site_fract_x
  _atom_site_fract_y
  _atom_site_fract_z
C1 C 0.28298 0.39000 1.40430
 C2 C 0.32159 0.31050 1.43418
 C3 C 0.39478 0.27262 1.38973
 C4 C 0.42600 0.31276 1.31238
 C5 C 0.39171 0.39491 1.28338
 C6 C 0.32203 0.43468 1.33174
 H7 H 0.29345 0.27719 1.49123
 H8 H 0.48010 0.28127 1.27662
 H9 H 0.29312 0.49623 1.30832
 C10 C 1.21419 0.60312 0.90196
 C11 C 1.18365 0.56991 0.82082
 C12 C 1.10781 0.60462 0.77975
 C13 C 1.06084 0.67476 0.81894
 C14 C 1.09155 0.71147 0.89808
 C15 C 1.16655 0.67293 0.94072
 H16 H 1.21869 0.51628 0.78850
 H17 H 1.00400 0.70393 0.78515
 H18 H 1.19105 0.70079 1.00166
 C19 C 0.71177 -0.10277 0.09801
 C20 C 0.67755 -0.06866 0.17713
 C21 C 0.60031 -0.10363 0.21587
 C22 C 0.55553 -0.17482 0.17606
 C23 C 0.59113 -0.21408 0.09977
 C24 C 0.66744 -0.17487 0.05947
 H25 H 0.71104 -0.01427 0.20983
 H26 H 0.49761 -0.20361 0.20853
 H27 H 0.69531 -0.20332 0.00018
 C28 C -0.21570 1.11269 -0.40374
 C29 C -0.17286 1.18854 -0.43677
 C30 C -0.10160 1.22748 -0.39021
 C31 C -0.07290 1.18828 -0.31145
 C32 C -0.10990 1.10756 -0.28133
 C33 C -0.18175 1.07029 -0.32805
 H34 H -0.19872 1.22008 -0.49573
 H35 H -0.01873 1.21933 -0.27540
 H36 H -0.21432 1.01109 -0.30319
 C37 C 0.70085 0.58503 0.58185
 C38 C 0.65849 0.65993 0.54619
 C39 C 0.58413 0.69831 0.58863
 C40 C 0.54941 0.65780 0.66456
 C41 C 0.59147 0.58290 0.70010
 C42 C 0.66584 0.54626 0.65849
 H43 H 0.68764 0.69239 0.48927
 H44 H 0.49477 0.68852 0.70020
 H45 H 0.69947 0.49055 0.68928
 C46 C 0.80647 0.41170 0.08430
 C47 C 0.84092 0.45284 0.15986
 C48 C 0.91333 0.41466 0.20585
 C49 C 0.95022 0.33498 0.17488
 C50 C 0.91919 0.29659 0.09733
 C51 C 0.84824 0.33594 0.05122
 H52 H 0.80676 0.51004 0.18650
 H53 H 1.00288 0.30172 0.21148
 H54 H 0.81977 0.30293 -0.00549
 C55 C 0.29765 0.09046 0.91467
 C56 C 0.33681 0.16972 0.94237
 C57 C 0.41617 0.20009 0.90394
 C58 C 0.45299 0.15469 0.83282
 C59 C 0.41164 0.07752 0.80017
 C60 C 0.33680 0.04263 0.84512
 H61 H 0.30478 0.20859 0.99331
 H62 H 0.51059 0.18314 0.79951
 H63 H 0.30292 -0.01532 0.81963
 C64 C 0.20301 0.91424 0.41730
 C65 C 0.16941 0.95128 0.33886
 C66 C 0.09460 0.91513 0.29759
 C67 C 0.05071 0.84193 0.33448
 C68 C 0.08363 0.80279 0.41173
 C69 C 0.15767 0.84154 0.45473
 H70 H 0.20362 1.00600 0.30680
 H71 H -0.00414 0.81134 0.29902
 H72 H 0.18451 0.81022 0.51332
 Zn73 Zn 0.03004 1.10643 -0.05122
 Zn74 Zn -0.07216 0.93479 -0.06690
 Zn75 Zn 0.10327 0.94442 0.02979
 Zn76 Zn -0.05572 1.03186 0.10559
 O77 O 0.00074 1.00372 0.00370
 O78 O -0.01975 1.11380 -0.15518
 O79 O -0.01753 0.83019 -0.09733
 O80 O 0.20197 0.99391 -0.01571
 O81 O -0.10331 0.99348 -0.16877
 O82 O 0.14825 1.12042 -0.06731
 O83 O 0.10496 0.83858 -0.01582
 O84 O -0.00243 0.98929 0.20089
 O85 O -0.17603 0.90483 -0.01000
 O86 O 0.11953 0.92751 0.14524
 O87 O -0.16345 0.98484 0.11075
 O88 O -0.06943 1.14785 0.12300
 O89 O -0.01138 1.20325 0.00101
 C90 C -0.07596 1.06832 -0.19783
 C91 C 0.05612 0.79712 -0.06948
 C92 C 0.21312 1.06752 -0.05429
 C93 C 0.06963 0.94633 0.21008
 C94 C -0.20688 0.93054 0.06394
 C95 C -0.05161 1.21312 0.07342
 Zn96 Zn 0.44771 0.01940 0.39950
 Zn97 Zn 0.42765 -0.07487 0.57145
 Zn98 Zn 0.60462 -0.05443 0.47907
 Zn99 Zn 0.51495 0.09989 0.55260
 O100 O 0.49855 -0.00499 0.50300
 O101 O 0.33186 -0.00394 0.40280
 O102 O 0.47891 -0.18213 0.58874
 O103 O 0.62849 -0.05987 0.36283
 O104 O 0.32036 -0.09328 0.51847
 O105 O 0.48978 -0.04875 0.31302
 O106 O 0.60788 -0.16503 0.51753
 O107 O 0.63231 0.13301 0.55239
 O108 O 0.40751 -0.02649 0.67997
 O109 O 0.69457 0.00096 0.53346
 O110 O 0.48302 0.09877 0.66401
 O111 O 0.44271 0.18207 0.50305
 O112 O 0.45932 0.13474 0.36772
 C113 C 0.28731 -0.05895 0.44877
 C114 C 0.55417 -0.21219 0.56249
 C115 C 0.57128 -0.06910 0.30148
 C116 C 0.69978 0.08115 0.55721
 C117 C 0.43663 0.04646 0.71093
 C118 C 0.43405 0.19435 0.42093
 Zn119 Zn 1.02189 0.40028 0.45112
 Zn120 Zn 1.10688 0.55525 0.51720
 Zn121 Zn 0.93022 0.57282 0.42845
 Zn122 Zn 0.95164 0.48153 0.60118
 O123 O 1.00108 0.50532 0.49754
 O124 O 1.14007 0.36813 0.46253
 O125 O 1.10695 0.66726 0.48438
 O126 O 0.91026 0.52017 0.32325
 O127 O 1.19233 0.50433 0.45092
 O128 O 0.99476 0.40002 0.33797
 O129 O 0.98003 0.68109 0.40934
 O130 O 0.83634 0.50751 0.60027
 O131 O 1.13568 0.55495 0.63344
 O132 O 0.82247 0.58973 0.47960
 O133 O 0.99680 0.55008 0.68460
 O134 O 0.96215 0.36577 0.63310
 O135 O 0.94756 0.31865 0.49763
 C136 C 1.20317 0.42160 0.44174
 C137 C 1.05367 0.71314 0.43792
 C138 C 0.94190 0.44810 0.29288
 C139 C 0.79042 0.55787 0.55071
 C140 C 1.07896 0.56823 0.69491
 C141 C 0.93783 0.30606 0.57947
 Zn142 Zn 0.44470 0.46820 0.89618
 Zn143 Zn 0.43022 0.56618 1.06770
 Zn144 Zn 0.53350 0.39490 1.05230
 Zn145 Zn 0.60480 0.55671 0.96746
 O146 O 0.50295 0.49700 0.99670
 O147 O 0.33889 0.51646 0.89147
 O148 O 0.39955 0.50825 1.17011
 O149 O 0.49635 0.29644 0.99744
 O150 O 0.32547 0.59680 1.01159
 O151 O 0.42662 0.35317 0.88199
 O152 O 0.48151 0.38697 1.15620
 O153 O 0.70591 0.50631 1.00807
 O154 O 0.48595 0.66999 1.09784
 O155 O 0.65158 0.38531 1.07142
 O156 O 0.60662 0.66324 1.01342
 O157 O 0.61742 0.57363 0.85199
 O158 O 0.49668 0.50780 0.79871
 C159 C 0.29511 0.57073 0.93757
 C160 C 0.42606 0.43324 1.19928
 C161 C 0.44994 0.28743 0.92829
 C162 C 0.71692 0.43569 1.05201
 C163 C 0.55873 0.70410 1.06874
 C164 C 0.56756 0.55237 0.78805
   
