data_POSCAR
  _audit_creation_date              2014-09-24
  _audit_creation_method            'ToBaCCo'
  _symmetry_space_group_name_H-M    'P1'
  _symmetry_Int_Tables_number       1
  _symmetry_cell_setting            triclinic
  loop_
  _symmetry_equiv_pos_as_xyz
 x,y,z
_cell_length_a 36.2276
_cell_length_b 36.1655
_cell_length_c 27.1445
_cell_angle_alpha 90.715800
_cell_angle_beta 89.923000
_cell_angle_gamma 120.035500
loop_
  _atom_site_label
  _atom_site_type_symbol
  _atom_site_fract_x
  _atom_site_fract_y
  _atom_site_fract_z
O1 O 0.02084 0.54866 -0.06312
 O2 O 0.05125 0.49445 0.02841
 O3 O 0.02145 0.47734 -0.06228
 O4 O 0.04718 0.56402 0.02822
 O5 O -0.01901 0.52925 0.05549
 O6 O -0.04455 0.44286 -0.03461
 O7 O -0.01493 0.45989 0.05566
 O8 O -0.04538 0.51450 -0.03591
 Cu9 Cu 0.04181 0.52449 -0.01990
 Cu10 Cu -0.03764 0.48310 0.01274
 C11 C -0.01742 0.54067 -0.06537
 C12 C 0.02360 0.46856 0.05823
 C13 C -0.01621 0.44554 -0.06436
 C14 C 0.01852 0.56103 0.05772
 O15 O 0.55609 0.50390 -0.02859
 O16 O 0.47141 0.44975 0.06304
 O17 O 0.48246 0.43438 -0.02835
 O18 O 0.54346 0.52099 0.06207
 O19 O 0.51170 0.55542 0.03496
 O20 O 0.45145 0.46942 -0.05580
 O21 O 0.43927 0.48376 0.03571
 O22 O 0.52476 0.53885 -0.05540
 Cu23 Cu 0.51659 0.47386 0.01975
 Cu24 Cu 0.47864 0.51538 -0.01269
 C25 C 0.55453 0.53004 -0.05813
 C26 C 0.44106 0.45764 0.06521
 C27 C 0.45709 0.43753 -0.05812
 C28 C 0.53748 0.55271 0.06433
 O29 O 0.48951 1.04883 -0.02943
 O30 O 0.54559 1.01762 0.05912
 O31 O 0.56094 1.04941 -0.02970
 O32 O 0.47384 1.01716 0.05952
 O33 O 0.44159 0.95176 0.02798
 O34 O 0.52880 0.98402 -0.06117
 O35 O 0.51302 0.95222 0.02757
 O36 O 0.45701 0.98344 -0.06100
 Cu37 Cu 0.52069 1.03979 0.01813
 Cu38 Cu 0.48185 0.96132 -0.01989
 C39 C 0.46442 1.02166 -0.06102
 C40 C 0.53822 0.97941 0.05907
 C41 C 0.55928 1.02242 -0.06138
 C42 C 0.44336 0.97879 0.05964
 O43 O 1.04745 0.55602 0.46577
 O44 O 1.01454 0.47013 0.55574
 O45 O 1.04333 0.48224 0.46581
 O46 O 1.01518 0.54189 0.55487
 O47 O 0.94966 0.50998 0.52465
 O48 O 0.97799 0.45116 0.43528
 O49 O 0.94895 0.43838 0.52569
 O50 O 0.98190 0.52479 0.43575
 Cu51 Cu 1.03672 0.51583 0.51347
 Cu52 Cu 0.95810 0.47794 0.47720
 C53 C 1.02050 0.55476 0.43494
 C54 C 0.97607 0.44012 0.55672
 C55 C 1.01554 0.45696 0.43480
 C56 C 0.97724 0.53517 0.55574
 O57 O 0.52580 0.54921 0.56471
 O58 O 0.43888 0.49019 0.47535
 O59 O 0.45612 0.47555 0.56439
 O60 O 0.50959 0.56189 0.47440
 O61 O 0.54371 0.53029 0.44450
 O62 O 0.49051 0.44432 0.53435
 O63 O 0.47272 0.45843 0.44516
 O64 O 0.56017 0.51803 0.53441
 Cu65 Cu 0.47918 0.52233 0.52286
 Cu66 Cu 0.52013 0.48451 0.48668
 C67 C 0.55756 0.54342 0.56518
 C68 C 0.44145 0.46507 0.44425
 C69 C 0.46477 0.44559 0.56519
 C70 C 0.53514 0.56024 0.44347
 O71 O 0.47694 0.01983 0.44113
 O72 O 0.56175 0.04635 0.53295
 O73 O 0.54831 0.01972 0.44101
 O74 O 0.49007 0.04683 0.53248
 O75 O 0.45671 -0.01982 0.55811
 O76 O 0.51514 -0.04684 0.46679
 O77 O 0.52793 -0.02029 0.55859
 O78 O 0.44324 -0.04682 0.46675
 Cu79 Cu 0.52271 0.03990 0.48446
 Cu80 Cu 0.48243 -0.04015 0.51500
 C81 C 0.44582 -0.01813 0.43803
 C82 C 0.55898 0.01768 0.56186
 C83 C 0.54121 -0.01834 0.43776
 C84 C 0.46372 0.01821 0.56112
 C85 C 0.12148 0.44216 0.25085
 C86 C 0.14361 0.44756 0.20664
 C87 C 0.18177 0.44649 0.20721
 C88 C 0.19681 0.43716 0.25066
 C89 C 0.17281 0.43010 0.29411
 C90 C 0.13623 0.43403 0.29493
 C91 C 0.23827 0.43697 0.25121
 C92 C 0.26186 0.44472 0.29532
 C93 C 0.30085 0.44532 0.29606
 C94 C 0.31820 0.44110 0.25156
 C95 C 0.29614 0.43458 0.20688
 C96 C 0.25581 0.43110 0.20732
 H97 H 0.09457 0.44733 0.25145
 H98 H 0.19992 0.45406 0.17353
 H99 H 0.18261 0.42230 0.32816
 H100 H 0.25088 0.45144 0.32948
 H101 H 0.35016 0.44595 0.25149
 H102 H 0.23879 0.42452 0.17272
 C103 C 0.55651 0.67920 0.24946
 C104 C 0.56449 0.70131 0.20500
 C105 C 0.56876 0.74212 0.20538
 C106 C 0.56237 0.76006 0.24890
 C107 C 0.55286 0.73620 0.29255
 C108 C 0.55149 0.69685 0.29349
 C109 C 0.56344 0.80223 0.24852
 C110 C 0.56948 0.82588 0.29257
 C111 C 0.56604 0.86281 0.29356
 C112 C 0.55984 0.87847 0.24914
 C113 C 0.55577 0.85682 0.20441
 C114 C 0.55612 0.81822 0.20466
 H115 H 0.55120 0.64701 0.24949
 H116 H 0.57639 0.75917 0.17107
 H117 H 0.54550 0.74732 0.32625
 H118 H 0.57599 0.81551 0.32699
 H119 H 0.55512 0.90570 0.24961
 H120 H 0.54952 0.80050 0.17036
 C121 C 0.32136 0.87752 0.25082
 C122 C 0.30390 0.85601 0.20608
 C123 C 0.26457 0.81793 0.20620
 C124 C 0.24069 0.80241 0.24987
 C125 C 0.25844 0.82564 0.29409
 C126 C 0.29912 0.86220 0.29516
 C127 C 0.19859 0.76129 0.24949
 C128 C 0.18268 0.73667 0.29249
 C129 C 0.14403 0.69774 0.29192
 C130 C 0.12231 0.68160 0.24704
 C131 C 0.13782 0.70483 0.20348
 C132 C 0.17483 0.74507 0.20544
 H133 H 0.35351 0.90440 0.25132
 H134 H 0.25350 0.80028 0.17186
 H135 H 0.24130 0.81530 0.32841
 H136 H 0.20049 0.74679 0.32666
 H137 H 0.09506 0.64965 0.24558
 H138 H 0.18518 0.76300 0.17176
 C139 C 0.87703 0.55821 0.74822
 C140 C 0.85572 0.55441 0.70371
 C141 C 0.81738 0.55512 0.70449
 C142 C 0.80135 0.56255 0.74871
 C143 C 0.82451 0.56802 0.79264
 C144 C 0.86130 0.56443 0.79299
 C145 C 0.75973 0.56241 0.74935
 C146 C 0.73514 0.55264 0.79272
 C147 C 0.69598 0.55169 0.79343
 C148 C 0.67953 0.55765 0.74940
 C149 C 0.70263 0.56625 0.70538
 C150 C 0.74306 0.57000 0.70607
 H151 H 0.90409 0.55327 0.74820
 H152 H 0.79988 0.54874 0.67029
 H153 H 0.81392 0.57437 0.82731
 H154 H 0.74550 0.54466 0.82623
 H155 H 0.64748 0.55256 0.74888
 H156 H 0.76084 0.57812 0.67209
 C157 C 0.44006 0.31866 0.75280
 C158 C 0.44530 0.30242 0.70774
 C159 C 0.44490 0.26342 0.70693
 C160 C 0.43641 0.23881 0.74989
 C161 C 0.42916 0.25512 0.79412
 C162 C 0.43259 0.29545 0.79631
 C163 C 0.43740 0.19767 0.74930
 C164 C 0.44571 0.18206 0.79288
 C165 C 0.44700 0.14400 0.79287
 C166 C 0.44307 0.12258 0.74809
 C167 C 0.43625 0.13798 0.70380
 C168 C 0.43208 0.17454 0.70499
 H169 H 0.44486 0.35065 0.75440
 H170 H 0.45236 0.25326 0.67259
 H171 H 0.42171 0.23721 0.82780
 H172 H 0.45226 0.19964 0.82728
 H173 H 0.44839 0.09571 0.74750
 H174 H 0.42537 0.18493 0.67070
 C175 C 0.68205 0.12214 0.75129
 C176 C 0.70415 0.13749 0.70689
 C177 C 0.74453 0.17437 0.70784
 C178 C 0.76197 0.19819 0.75181
 C179 C 0.73846 0.18241 0.79565
 C180 C 0.69947 0.14390 0.79597
 C181 C 0.80312 0.24028 0.75138
 C182 C 0.82723 0.25829 0.79494
 C183 C 0.86371 0.29909 0.79535
 C184 C 0.87812 0.32112 0.75086
 C185 C 0.85567 0.30339 0.70677
 C186 C 0.81770 0.26403 0.70767
 H187 H 0.65006 0.09501 0.75081
 H188 H 0.76160 0.18457 0.67348
 H189 H 0.74948 0.20025 0.82988
 H190 H 0.81762 0.24132 0.82930
 H191 H 0.90501 0.35330 0.75088
 H192 H 0.79939 0.25283 0.67392
 C193 C 0.03613 0.44941 0.09769
 C194 C 0.07679 0.46054 0.10615
 C195 C 0.08882 0.44567 0.15032
 C196 C 0.12968 0.45840 0.16034
 H197 H 0.10168 0.48267 0.08190
 H198 H 0.06397 0.42496 0.17547
 H199 H 0.01151 0.42766 0.12246
 H200 H 0.15387 0.47732 0.13353
 C201 C 0.55918 0.58534 0.10331
 C202 C 0.55550 0.62028 0.10692
 C203 C 0.56904 0.64705 0.15201
 C204 C 0.56247 0.68021 0.15698
 H205 H 0.53898 0.62712 0.07833
 H206 H 0.58138 0.63742 0.18255
 H207 H 0.57600 0.57881 0.13182
 H208 H 0.55214 0.69051 0.12510
 C209 C 0.41113 0.96556 0.09869
 C210 C 0.38196 0.92461 0.10588
 C211 C 0.35535 0.91176 0.15038
 C212 C 0.32797 0.87059 0.15942
 H213 H 0.37961 0.90008 0.08056
 H214 H 0.35927 0.93623 0.17675
 H215 H 0.41373 0.98978 0.12466
 H216 H 0.32281 0.84669 0.13157
 C217 C 0.96494 0.55525 0.59507
 C218 C 0.92431 0.54463 0.60250
 C219 C 0.91166 0.55869 0.64737
 C220 C 0.87059 0.54537 0.65657
 H221 H 0.89967 0.52291 0.57709
 H222 H 0.93608 0.57878 0.67388
 H223 H 0.98933 0.57642 0.62105
 H224 H 0.84685 0.52703 0.62855
 C225 C 0.44581 0.41316 0.60382
 C226 C 0.45691 0.38339 0.61026
 C227 C 0.44239 0.35573 0.65372
 C228 C 0.45543 0.32763 0.66198
 H229 H 0.47883 0.38101 0.58494
 H230 H 0.42181 0.35941 0.67988
 H231 H 0.42429 0.41566 0.62966
 H232 H 0.47424 0.32285 0.63420
 C233 C 0.59067 0.02848 0.60144
 C234 C 0.62490 0.06739 0.60663
 C235 C 0.65068 0.07976 0.65217
 C236 C 0.68349 0.11948 0.65849
 H237 H 0.63192 0.09139 0.57899
 H238 H 0.64076 0.05703 0.68182
 H239 H 0.58400 0.00455 0.62905
 H240 H 0.69405 0.14087 0.62739
 C241 C 0.44513 0.03461 0.90006
 C242 C 0.45661 0.07549 0.89291
 C243 C 0.44279 0.08824 0.84845
 C244 C 0.45646 0.12939 0.83947
 H245 H 0.47866 0.10008 0.91821
 H246 H 0.42235 0.06375 0.82208
 H247 H 0.42365 0.01031 0.87412
 H248 H 0.47511 0.15329 0.86733
 C249 C 0.58639 0.54939 0.90256
 C250 C 0.61586 0.53818 0.89396
 C251 C 0.64301 0.55336 0.84995
 C252 C 0.67100 0.54049 0.83965
 H253 H 0.61841 0.51580 0.91794
 H254 H 0.63915 0.57443 0.82513
 H255 H 0.58372 0.57139 0.87804
 H256 H 0.67601 0.52120 0.86614
 C257 C 0.97347 0.41452 0.89877
 C258 C 0.93441 0.38025 0.89388
 C259 C 0.92192 0.35346 0.84881
 C260 C 0.88226 0.32032 0.84342
 H261 H 0.91019 0.37384 0.92130
 H262 H 0.94430 0.36303 0.81864
 H263 H 0.99756 0.41988 0.87158
 H264 H 0.86124 0.31010 0.87501
 C265 C 0.56118 0.97128 0.40044
 C266 C 0.55530 0.93190 0.39403
 C267 C 0.56959 0.92010 0.34867
 C268 C 0.56266 0.88040 0.34197
 H269 H 0.53689 0.90716 0.42044
 H270 H 0.58305 0.94320 0.31945
 H271 H 0.58047 0.99581 0.37419
 H272 H 0.55120 0.85865 0.37274
 C273 C 0.40922 0.44496 0.40487
 C274 C 0.37923 0.45559 0.39728
 C275 C 0.35260 0.44138 0.35243
 C276 C 0.32484 0.45466 0.34311
 H277 H 0.37627 0.47740 0.42257
 H278 H 0.35693 0.42114 0.32607
 H279 H 0.41250 0.42371 0.37900
 H280 H 0.31946 0.47316 0.37100
 C281 C 0.03400 0.58719 0.39632
 C282 C 0.07488 0.61688 0.38971
 C283 C 0.08797 0.64456 0.34627
 C284 C 0.12911 0.67253 0.33770
 H285 H 0.09919 0.61917 0.41486
 H286 H 0.06365 0.64101 0.32036
 H287 H 0.00998 0.58477 0.37062
 H288 H 0.15277 0.67720 0.36525
 C289 C 0.97077 0.56083 0.89568
 C290 C 0.93162 0.55543 0.89152
 C291 C 0.91891 0.56893 0.84675
 C292 C 0.87904 0.56135 0.84100
 H293 H 0.90788 0.53803 0.91938
 H294 H 0.94167 0.58254 0.81708
 H295 H 0.99437 0.57851 0.86780
 H296 H 0.85750 0.54976 0.87209
 C297 C 0.43647 0.40706 0.90458
 C298 C 0.44137 0.37299 0.89849
 C299 C 0.42743 0.34745 0.85256
 C300 C 0.43475 0.31504 0.84533
 H301 H 0.45921 0.36612 0.92533
 H302 H 0.41433 0.35750 0.82322
 H303 H 0.41786 0.41292 0.87777
 H304 H 0.44589 0.30428 0.87607
 C305 C 0.58989 0.03488 0.90168
 C306 C 0.62082 0.07549 0.89586
 C307 C 0.64763 0.08816 0.85152
 C308 C 0.67554 0.12925 0.84274
 H309 H 0.62449 0.10009 0.92195
 H310 H 0.64323 0.06366 0.82495
 H311 H 0.58657 0.01092 0.87482
 H312 H 0.68100 0.15312 0.87077
 C313 C 0.02629 0.43665 0.39815
 C314 C 0.06541 0.44179 0.39396
 C315 C 0.07805 0.42822 0.34869
 C316 C 0.11794 0.43583 0.34320
 H317 H 0.08950 0.45957 0.42187
 H318 H 0.05553 0.41516 0.31835
 H319 H 0.00247 0.41812 0.37026
 H320 H 0.13924 0.44688 0.37482
 C321 C 0.55387 0.59198 0.40425
 C322 C 0.54132 0.62031 0.39553
 C323 C 0.55537 0.64640 0.35090
 C324 C 0.54110 0.67305 0.34019
 H325 H 0.51850 0.62235 0.41964
 H326 H 0.57671 0.64280 0.32584
 H327 H 0.57612 0.58969 0.37940
 H328 H 0.52156 0.67802 0.36676
 C329 C 0.41373 0.97108 0.39898
 C330 C 0.37912 0.93234 0.39458
 C331 C 0.35272 0.91989 0.34957
 C332 C 0.31992 0.88013 0.34349
 H333 H 0.37224 0.90850 0.42239
 H334 H 0.36227 0.94258 0.31991
 H335 H 0.42025 0.99486 0.37122
 H336 H 0.30962 0.85870 0.37455
 C337 C 0.55771 0.96648 0.09776
 C338 C 0.54660 0.92565 0.10449
 C339 C 0.56051 0.91280 0.14880
 C340 C 0.54676 0.87162 0.15767
 H341 H 0.52470 0.90112 0.07902
 H342 H 0.58091 0.93724 0.17523
 H343 H 0.57905 0.99072 0.12386
 H344 H 0.52811 0.84779 0.12974
 C345 C 0.40902 0.43748 0.10414
 C346 C 0.37525 0.44286 0.10825
 C347 C 0.34904 0.42956 0.15308
 C348 C 0.31683 0.43728 0.15882
 H349 H 0.36893 0.46018 0.08031
 H350 H 0.35819 0.41607 0.18284
 H351 H 0.41493 0.41987 0.13210
 H352 H 0.30688 0.44875 0.12766
 C353 C 0.02893 0.59323 0.09700
 C354 C 0.06767 0.62761 0.10198
 C355 C 0.07999 0.65317 0.14791
 C356 C 0.11987 0.68537 0.15460
 H357 H 0.09170 0.63457 0.07414
 H358 H 0.05720 0.64326 0.17769
 H359 H 0.00502 0.58654 0.12491
 H360 H 0.14144 0.69601 0.12350
 C361 C 0.44228 0.02913 0.60000
 C362 C 0.44653 0.06794 0.60437
 C363 C 0.43233 0.08038 0.64928
 C364 C 0.43934 0.12016 0.65543
 H365 H 0.46373 0.09180 0.57665
 H366 H 0.41897 0.05763 0.67887
 H367 H 0.42478 0.00534 0.62768
 H368 H 0.45069 0.14168 0.62446
 C369 C 0.59018 0.56478 0.60387
 C370 C 0.62457 0.56034 0.60699
 C371 C 0.65065 0.57313 0.65226
 C372 C 0.68283 0.56529 0.65723
 H373 H 0.63117 0.54354 0.57807
 H374 H 0.64113 0.58575 0.68304
 H375 H 0.58386 0.58173 0.63288
 H376 H 0.69316 0.55466 0.62524
 C377 C 0.96303 0.40841 0.59599
 C378 C 0.92218 0.38000 0.60471
 C379 C 0.91011 0.35398 0.64941
 C380 C 0.86920 0.32715 0.66003
 H381 H 0.89735 0.37784 0.58054
 H382 H 0.93501 0.35777 0.67458
 H383 H 0.98754 0.41081 0.62090
 H384 H 0.84477 0.32202 0.63335
   
