data_POSCAR
  _audit_creation_date              2014-09-24
  _audit_creation_method            'ToBaCCo'
  _symmetry_space_group_name_H-M    'P1'
  _symmetry_Int_Tables_number       1
  _symmetry_cell_setting            triclinic
  loop_
  _symmetry_equiv_pos_as_xyz
 x,y,z
_cell_length_a 57.2503
_cell_length_b 57.3475
_cell_length_c 32.7078
_cell_angle_alpha 90.027000
_cell_angle_beta 90.006400
_cell_angle_gamma 89.838300
loop_
  _atom_site_label
  _atom_site_type_symbol
  _atom_site_fract_x
  _atom_site_fract_y
  _atom_site_fract_z
C1 C -0.02231 0.26914 0.02114
 C2 C -0.02234 0.27000 -0.02258
 C3 C -0.00079 0.27163 -0.04330
 C4 C 0.02081 0.27148 -0.02269
 C5 C 0.02065 0.26973 0.02064
 C6 C -0.00067 0.26867 0.04159
 H7 H -0.00020 0.26805 0.07471
 H8 H -0.00081 0.27251 -0.07639
 C9 C 0.47843 0.76855 0.52147
 C10 C 0.47845 0.76983 0.47823
 C11 C 0.49983 0.77072 0.45735
 C12 C 0.52115 0.76969 0.47846
 C13 C 0.52112 0.76843 0.52169
 C14 C 0.49975 0.76780 0.54257
 H15 H 0.49971 0.76714 0.57571
 H16 H 0.49989 0.77119 0.42420
 C17 C 1.02154 0.72727 0.02243
 C18 C 1.02137 0.72780 -0.02106
 C19 C 1.00002 0.72778 -0.04215
 C20 C 0.97839 0.72743 -0.02163
 C21 C 0.97857 0.72752 0.02188
 C22 C 0.99992 0.72736 0.04296
 H23 H 0.99950 0.72703 0.07609
 H24 H 1.00045 0.72777 -0.07529
 C25 C 0.52088 0.23130 0.52176
 C26 C 0.52086 0.23249 0.47852
 C27 C 0.49948 0.23320 0.45762
 C28 C 0.47816 0.23259 0.47872
 C29 C 0.47818 0.23141 0.52196
 C30 C 0.49956 0.23044 0.54286
 H31 H 0.49961 0.23003 0.57601
 H32 H 0.49943 0.23378 0.42448
 C33 C 0.73548 -0.02209 0.02288
 C34 C 0.73739 -0.02213 -0.02059
 C35 C 0.73803 -0.00089 -0.04183
 C36 C 0.73652 0.02050 -0.02138
 C37 C 0.73443 0.02074 0.02166
 C38 C 0.73342 -0.00043 0.04306
 H39 H 0.73275 0.00020 0.07616
 H40 H 0.73893 -0.00102 -0.07495
 C41 C 0.23337 0.47981 0.52135
 C42 C 0.23429 0.47953 0.47808
 C43 C 0.23497 0.50072 0.45672
 C44 C 0.23447 0.52216 0.47737
 C45 C 0.23338 0.52245 0.52062
 C46 C 0.23258 0.50126 0.54199
 H47 H 0.23230 0.50146 0.57514
 H48 H 0.23540 0.50053 0.42358
 C49 C 0.26481 1.02265 0.02214
 C50 C 0.26649 1.02318 -0.02159
 C51 C 0.26822 1.00185 -0.04294
 C52 C 0.26708 0.98032 -0.02285
 C53 C 0.26446 0.97981 0.02002
 C54 C 0.26342 1.00081 0.04181
 H55 H 0.26242 0.99991 0.07487
 H56 H 0.26917 1.00179 -0.07605
 C57 C 0.76662 0.52058 0.52215
 C58 C 0.76757 0.52084 0.47890
 C59 C 0.76831 0.49964 0.45751
 C60 C 0.76750 0.47822 0.47816
 C61 C 0.76661 0.47797 0.52142
 C62 C 0.76608 0.49916 0.54279
 H63 H 0.76570 0.49898 0.57594
 H64 H 0.76852 0.49982 0.42436
 O65 O 0.24418 0.21243 0.25217
 O66 O 0.23555 0.26911 0.30324
 O67 O 0.21152 0.24404 0.25153
 O68 O 0.26800 0.23729 0.30395
 O69 O 0.28563 0.25495 0.25268
 O70 O 0.22915 0.26168 0.20023
 O71 O 0.25316 0.28673 0.25191
 O72 O 0.26182 0.23010 0.20092
 Cu73 Cu 0.23801 0.23898 0.28286
 Cu74 Cu 0.25917 0.26016 0.22129
 C75 C 0.25448 0.21156 0.21778
 C76 C 0.24304 0.28762 0.28645
 C77 C 0.21068 0.25387 0.21676
 C78 C 0.28649 0.24497 0.28732
 O79 O 0.75625 0.78774 0.25353
 O80 O 0.76343 0.73096 0.30460
 O81 O 0.78813 0.75542 0.25323
 O82 O 0.73145 0.76330 0.30461
 O83 O 0.71381 0.74599 0.25294
 O84 O 0.77044 0.73809 0.20164
 O85 O 0.74575 0.71364 0.25299
 O86 O 0.73859 0.77042 0.20189
 Cu87 Cu 0.76159 0.76107 0.28420
 Cu88 Cu 0.74038 0.74028 0.22221
 C89 C 0.74629 0.78880 0.21887
 C90 C 0.75574 0.71258 0.28763
 C91 C 0.78897 0.74553 0.21849
 C92 C 0.71292 0.75596 0.28759
 O93 O 0.78681 0.24561 0.24774
 O94 O 0.73050 0.23722 0.30019
 O95 O 0.75512 0.21309 0.24802
 O96 O 0.76218 0.26959 0.29986
 O97 O 0.74403 0.28712 0.24890
 O98 O 0.73698 0.23059 0.19703
 O99 O 0.71235 0.25473 0.24921
 O100 O 0.76866 0.26313 0.19677
 Cu101 Cu 0.76047 0.23959 0.27903
 Cu102 Cu 0.73868 0.26062 0.21784
 C103 C 0.78739 0.25584 0.21331
 C104 C 0.71178 0.24466 0.28379
 C105 C 0.74488 0.21216 0.21361
 C106 C 0.75427 0.28802 0.28332
 O107 O 0.21285 0.75431 0.24707
 O108 O 0.26927 0.76392 0.29856
 O109 O 0.24389 0.78734 0.24633
 O110 O 0.23801 0.73111 0.29941
 O111 O 0.25622 0.71351 0.24855
 O112 O 0.26206 0.76979 0.19540
 O113 O 0.28745 0.74637 0.24765
 O114 O 0.23105 0.73673 0.19620
 Cu115 Cu 0.23922 0.76096 0.27794
 Cu116 Cu 0.26105 0.73987 0.21685
 C117 C 0.21229 0.74387 0.21280
 C118 C 0.28802 0.75664 0.28206
 C119 C 0.25383 0.78819 0.21165
 C120 C 0.24610 0.71267 0.28310
 O121 O 0.76330 0.26761 0.69553
 O122 O 0.75563 0.21119 0.74751
 O123 O 0.73105 0.23572 0.69600
 O124 O 0.78787 0.24294 0.74701
 O125 O 0.77044 0.26077 0.79846
 O126 O 0.71364 0.25354 0.74746
 O127 O 0.73821 0.22903 0.79895
 O128 O 0.74588 0.28542 0.74700
 Cu129 Cu 0.76120 0.23760 0.71632
 Cu130 Cu 0.74029 0.25900 0.77810
 C131 C 0.75582 0.28618 0.71230
 C132 C 0.74571 0.21046 0.78224
 C133 C 0.71261 0.24342 0.71295
 C134 C 0.78886 0.25295 0.78163
 O135 O 0.28655 0.74619 0.74880
 O136 O 0.23010 0.73891 0.80106
 O137 O 0.25442 0.71425 0.74912
 O138 O 0.26250 0.77063 0.80112
 O139 O 0.24471 0.78851 0.75015
 O140 O 0.23665 0.73209 0.69808
 O141 O 0.21233 0.75676 0.75003
 O142 O 0.26874 0.76407 0.69783
 Cu143 Cu 0.26015 0.74069 0.78015
 Cu144 Cu 0.23880 0.76213 0.71892
 C145 C 0.28730 0.75635 0.71431
 C146 C 0.21156 0.74668 0.78457
 C147 C 0.24429 0.71351 0.71457
 C148 C 0.25499 0.78923 0.78457
 O149 O 0.26135 0.23170 0.80295
 O150 O 0.25546 0.28844 0.75112
 O151 O 0.23037 0.26499 0.80314
 O152 O 0.28674 0.25545 0.75145
 O153 O 0.26858 0.23836 0.70012
 O154 O 0.21215 0.24787 0.75190
 O155 O 0.23725 0.27129 0.69990
 O156 O 0.24318 0.21463 0.75161
 Cu157 Cu 0.26032 0.26183 0.78231
 Cu158 Cu 0.23849 0.24130 0.72076
 C159 C 0.25317 0.21345 0.78623
 C160 C 0.24536 0.28956 0.71657
 C161 C 0.21160 0.25806 0.78642
 C162 C 0.28732 0.24541 0.71682
 O163 O 0.73098 0.76201 0.69936
 O164 O 0.78726 0.75350 0.75207
 O165 O 0.76284 0.72962 0.69966
 O166 O 0.75546 0.78606 0.75161
 O167 O 0.73732 0.76855 0.80250
 O168 O 0.74468 0.71207 0.75049
 O169 O 0.76910 0.73597 0.80290
 O170 O 0.71285 0.74449 0.75023
 Cu171 Cu 0.76096 0.75957 0.72060
 Cu172 Cu 0.73917 0.73853 0.78164
 C173 C 0.71228 0.75461 0.71569
 C174 C 0.78783 0.74327 0.78651
 C175 C 0.75497 0.71118 0.71611
 C176 C 0.74517 0.78698 0.78599
 C177 C 0.26698 0.08413 0.09433
 C178 C 0.28190 0.08172 0.06075
 C179 C 0.28164 0.06128 0.03745
 C180 C 0.26610 0.04297 0.04691
 C181 C 0.25187 0.04533 0.08195
 C182 C 0.25219 0.06579 0.10517
 C183 C 0.26616 0.10572 0.11677
 C184 C 0.26499 0.12392 0.13514
 C185 C 0.26311 0.14577 0.15658
 C186 C 0.27160 0.16622 0.13870
 C187 C 0.26899 0.18761 0.15876
 C188 C 0.25780 0.18882 0.19702
 C189 C 0.24952 0.16812 0.21492
 C190 C 0.25215 0.14675 0.19479
 H191 H 0.29362 0.09573 0.05235
 H192 H 0.29371 0.05980 0.01210
 H193 H 0.23952 0.03187 0.09030
 H194 H 0.24054 0.06748 0.13111
 H195 H 0.28005 0.16568 0.10907
 H196 H 0.27557 0.20320 0.14414
 H197 H 0.24083 0.16844 0.24433
 H198 H 0.24545 0.13103 0.20886
 C199 C 0.76549 0.58405 0.59156
 C200 C 0.78355 0.57991 0.56362
 C201 C 0.78414 0.55912 0.54134
 C202 C 0.76654 0.54235 0.54659
 C203 C 0.74868 0.54646 0.57515
 C204 C 0.74813 0.56724 0.59743
 C205 C 0.76450 0.60569 0.61371
 C206 C 0.76343 0.62388 0.63205
 C207 C 0.76186 0.64567 0.65365
 C208 C 0.77089 0.66598 0.63615
 C209 C 0.76882 0.68729 0.65661
 C210 C 0.75765 0.68853 0.69488
 C211 C 0.74878 0.66796 0.71236
 C212 C 0.75087 0.64667 0.69182
 H213 H 0.79709 0.59279 0.55891
 H214 H 0.79823 0.55613 0.51986
 H215 H 0.73495 0.53375 0.57962
 H216 H 0.73407 0.57029 0.61898
 H217 H 0.77939 0.66539 0.60657
 H218 H 0.77584 0.70280 0.64233
 H219 H 0.74009 0.66832 0.74176
 H220 H 0.74379 0.63104 0.70559
 C221 C 0.73837 0.91585 0.09341
 C222 C 0.72320 0.93391 0.10457
 C223 C 0.72242 0.95447 0.08162
 C224 C 0.73659 0.95720 0.04659
 C225 C 0.75228 0.93903 0.03658
 C226 C 0.75301 0.91854 0.05958
 C227 C 0.73891 0.89448 0.11642
 C228 C 0.73954 0.87638 0.13512
 C229 C 0.74054 0.85457 0.15682
 C230 C 0.75100 0.85339 0.19543
 C231 C 0.75265 0.83204 0.21587
 C232 C 0.74387 0.81156 0.19788
 C233 C 0.73317 0.81298 0.15922
 C234 C 0.73154 0.83435 0.13885
 H235 H 0.71181 0.93203 0.13080
 H236 H 0.70999 0.96782 0.09044
 H237 H 0.76457 0.94085 0.01167
 H238 H 0.76511 0.90481 0.05106
 H239 H 0.75806 0.86894 0.20958
 H240 H 0.76099 0.83155 0.24558
 H241 H 0.72623 0.79756 0.14452
 H242 H 0.72344 0.83506 0.10893
 C243 C 0.23659 0.41666 0.59145
 C244 C 0.21824 0.43248 0.59759
 C245 C 0.21727 0.45314 0.57496
 C246 C 0.23457 0.45809 0.54580
 C247 C 0.25311 0.44229 0.54024
 C248 C 0.25405 0.42165 0.56283
 C249 C 0.23748 0.39520 0.61415
 C250 C 0.23839 0.37707 0.63271
 C251 C 0.23966 0.35525 0.65430
 C252 C 0.25053 0.35405 0.69257
 C253 C 0.25226 0.33271 0.71304
 C254 C 0.24314 0.31228 0.69541
 C255 C 0.23210 0.31372 0.65704
 C256 C 0.23039 0.33507 0.63666
 H257 H 0.20466 0.42878 0.61969
 H258 H 0.20288 0.46514 0.57976
 H259 H 0.26682 0.44595 0.51837
 H260 H 0.26836 0.40957 0.55793
 H261 H 0.25780 0.36958 0.70647
 H262 H 0.26086 0.33220 0.74252
 H263 H 0.22489 0.29834 0.64262
 H264 H 0.22198 0.33581 0.60701
 C265 C 0.91513 0.27021 0.09083
 C266 C 0.91744 0.28483 0.05687
 C267 C 0.93822 0.28496 0.03440
 C268 C 0.95699 0.27013 0.04509
 C269 C 0.95469 0.25622 0.08048
 C270 C 0.93390 0.25615 0.10287
 C271 C 0.89329 0.26898 0.11255
 C272 C 0.87496 0.26745 0.13053
 C273 C 0.85306 0.26511 0.15176
 C274 C 0.83239 0.27328 0.13388
 C275 C 0.81103 0.27038 0.15396
 C276 C 0.81005 0.25923 0.19225
 C277 C 0.83096 0.25120 0.21008
 C278 C 0.85229 0.25412 0.18993
 H279 H 0.90311 0.29600 0.04754
 H280 H 0.93960 0.29678 0.00872
 H281 H 0.96849 0.24441 0.08977
 H282 H 0.93230 0.24476 0.12913
 H283 H 0.83277 0.28175 0.10428
 H284 H 0.79527 0.27677 0.13939
 H285 H 0.83083 0.24256 0.23950
 H286 H 0.86818 0.24767 0.20402
 C287 C 0.41453 0.76707 0.58983
 C288 C 0.43139 0.74966 0.59558
 C289 C 0.45230 0.75030 0.57358
 C290 C 0.45648 0.76831 0.54545
 C291 C 0.43963 0.78593 0.54028
 C292 C 0.41871 0.78525 0.56227
 C293 C 0.39282 0.76605 0.61182
 C294 C 0.37460 0.76493 0.63010
 C295 C 0.35280 0.76331 0.65170
 C296 C 0.35193 0.75248 0.68999
 C297 C 0.33065 0.75036 0.71056
 C298 C 0.30993 0.75905 0.69302
 C299 C 0.31103 0.77006 0.65462
 C300 C 0.33234 0.77216 0.63412
 H301 H 0.42831 0.73551 0.61683
 H302 H 0.46506 0.73655 0.57798
 H303 H 0.44266 0.80013 0.51914
 H304 H 0.40579 0.79884 0.55768
 H305 H 0.36768 0.74554 0.70382
 H306 H 0.33040 0.74179 0.74005
 H307 H 0.29541 0.77693 0.64028
 H308 H 0.33283 0.78054 0.60446
 C309 C 0.08461 0.72789 0.09073
 C310 C 0.08279 0.71394 0.05583
 C311 C 0.06190 0.71328 0.03372
 C312 C 0.04248 0.72688 0.04575
 C313 C 0.04439 0.74019 0.08196
 C314 C 0.06530 0.74079 0.10398
 C315 C 0.10645 0.72950 0.11240
 C316 C 0.12476 0.73127 0.13036
 C317 C 0.14664 0.73382 0.15157
 C318 C 0.16735 0.72570 0.13375
 C319 C 0.18870 0.72881 0.15378
 C320 C 0.18962 0.74013 0.19195
 C321 C 0.16868 0.74808 0.20973
 C322 C 0.14735 0.74495 0.18964
 H323 H 0.09755 0.70360 0.04561
 H324 H 0.06089 0.70171 0.00765
 H325 H 0.03012 0.75112 0.09231
 H326 H 0.06651 0.75167 0.13099
 H327 H 0.16702 0.71711 0.10425
 H328 H 0.20449 0.72248 0.13925
 H329 H 0.16876 0.75685 0.23905
 H330 H 0.13143 0.75135 0.20366
 C331 C 0.58473 0.23389 0.59018
 C332 C 0.57931 0.25165 0.56239
 C333 C 0.55842 0.25093 0.54039
 C334 C 0.54281 0.23231 0.54572
 C335 C 0.54818 0.21471 0.57408
 C336 C 0.56909 0.21546 0.59612
 C337 C 0.60640 0.23460 0.61234
 C338 C 0.62468 0.23547 0.63051
 C339 C 0.64662 0.23682 0.65178
 C340 C 0.66692 0.22796 0.63364
 C341 C 0.68839 0.22991 0.65369
 C342 C 0.68981 0.24079 0.69218
 C343 C 0.66925 0.24946 0.71032
 C344 C 0.64780 0.24748 0.69020
 H345 H 0.59124 0.26603 0.55770
 H346 H 0.55442 0.26486 0.51914
 H347 H 0.53633 0.20025 0.57867
 H348 H 0.57312 0.20165 0.61761
 H349 H 0.66618 0.21971 0.60386
 H350 H 0.70387 0.22305 0.63891
 H351 H 0.66974 0.25792 0.73990
 H352 H 0.63218 0.25444 0.70446
 C353 C 0.73707 0.08382 0.90867
 C354 C 0.71873 0.07939 0.93586
 C355 C 0.71839 0.05868 0.95836
 C356 C 0.73650 0.04226 0.95411
 C357 C 0.75468 0.04667 0.92635
 C358 C 0.75499 0.06738 0.90384
 C359 C 0.73771 0.10535 0.88614
 C360 C 0.73845 0.12345 0.86749
 C361 C 0.73961 0.14515 0.84552
 C362 C 0.73078 0.16558 0.86317
 C363 C 0.73252 0.18680 0.84239
 C364 C 0.74315 0.18786 0.80365
 C365 C 0.75177 0.16717 0.78599
 C366 C 0.75001 0.14597 0.80684
 H367 H 0.70476 0.09198 0.93976
 H368 H 0.70404 0.05547 0.97917
 H369 H 0.76880 0.03424 0.92263
 H370 H 0.76926 0.07063 0.88288
 H371 H 0.72272 0.16514 0.89313
 H372 H 0.72572 0.20240 0.85685
 H373 H 0.76006 0.16738 0.75623
 H374 H 0.75693 0.13025 0.79292
 C375 C 0.23614 0.58565 0.40807
 C376 C 0.21792 0.58165 0.43572
 C377 C 0.21715 0.56085 0.45794
 C378 C 0.23472 0.54393 0.45293
 C379 C 0.25274 0.54789 0.42465
 C380 C 0.25347 0.56868 0.40242
 C381 C 0.23728 0.60729 0.38596
 C382 C 0.23842 0.62548 0.36765
 C383 C 0.23999 0.64727 0.34608
 C384 C 0.23087 0.66762 0.36355
 C385 C 0.23275 0.68890 0.34299
 C386 C 0.24382 0.69008 0.30462
 C387 C 0.25284 0.66949 0.28722
 C388 C 0.25093 0.64823 0.30786
 H389 H 0.20439 0.59465 0.44025
 H390 H 0.20294 0.55799 0.47919
 H391 H 0.26644 0.53506 0.42035
 H392 H 0.26764 0.57161 0.38110
 H393 H 0.22240 0.66707 0.39315
 H394 H 0.22563 0.70442 0.35722
 H395 H 0.26145 0.66980 0.25776
 H396 H 0.25808 0.63258 0.29410
 C397 C 0.26742 0.91676 0.90777
 C398 C 0.25091 0.93417 0.89945
 C399 C 0.25114 0.95503 0.92154
 C400 C 0.26783 0.95866 0.95236
 C401 C 0.28468 0.94132 0.96000
 C402 C 0.28441 0.92043 0.93790
 C403 C 0.26646 0.89494 0.88605
 C404 C 0.26521 0.87665 0.86797
 C405 C 0.26325 0.85480 0.84654
 C406 C 0.25228 0.85395 0.80832
 C407 C 0.24973 0.83265 0.78799
 C408 C 0.25811 0.81188 0.80568
 C409 C 0.26926 0.81295 0.84399
 C410 C 0.27179 0.83428 0.86426
 H411 H 0.23768 0.93151 0.87624
 H412 H 0.23798 0.96815 0.91526
 H413 H 0.29783 0.94388 0.98337
 H414 H 0.29728 0.90708 0.94457
 H415 H 0.24556 0.86973 0.79436
 H416 H 0.24107 0.83244 0.75856
 H417 H 0.27591 0.79730 0.85846
 H418 H 0.28026 0.83473 0.89388
 C419 C 0.76421 0.41500 0.40833
 C420 C 0.74665 0.42024 0.43669
 C421 C 0.74761 0.44093 0.45917
 C422 C 0.76625 0.45650 0.45374
 C423 C 0.78364 0.45132 0.42482
 C424 C 0.78265 0.43061 0.40230
 C425 C 0.76328 0.39352 0.38572
 C426 C 0.76229 0.37538 0.36720
 C427 C 0.76085 0.35360 0.34559
 C428 C 0.74993 0.35258 0.30736
 C429 C 0.74794 0.33127 0.28689
 C430 C 0.75685 0.31069 0.30448
 C431 C 0.76795 0.31195 0.34280
 C432 C 0.76992 0.33327 0.36320
 H433 H 0.73226 0.40833 0.44147
 H434 H 0.73384 0.44479 0.48086
 H435 H 0.79811 0.46315 0.42014
 H436 H 0.79631 0.42672 0.38038
 H437 H 0.74281 0.36822 0.29350
 H438 H 0.73930 0.33090 0.25744
 H439 H 0.77499 0.29644 0.35718
 H440 H 0.77836 0.33388 0.39282
 C441 C 0.08398 0.27270 0.90933
 C442 C 0.08187 0.28612 0.94485
 C443 C 0.06093 0.28621 0.96688
 C444 C 0.04176 0.27257 0.95410
 C445 C 0.04396 0.25982 0.91732
 C446 C 0.06491 0.25979 0.89540
 C447 C 0.10587 0.27157 0.88772
 C448 C 0.12418 0.27009 0.86967
 C449 C 0.14603 0.26777 0.84823
 C450 C 0.16674 0.27569 0.86614
 C451 C 0.18807 0.27271 0.84591
 C452 C 0.18896 0.26172 0.80744
 C453 C 0.16800 0.25399 0.78955
 C454 C 0.14670 0.25699 0.80984
 H455 H 0.09644 0.29645 0.95564
 H456 H 0.05967 0.29734 0.99351
 H457 H 0.02992 0.24884 0.90643
 H458 H 0.06635 0.24930 0.86794
 H459 H 0.16644 0.28400 0.89589
 H460 H 0.20386 0.27887 0.86053
 H461 H 0.16806 0.24547 0.75999
 H462 H 0.13078 0.25074 0.79574
 C463 C 0.58506 0.76675 0.41027
 C464 C 0.56948 0.78531 0.40438
 C465 C 0.54853 0.78618 0.42632
 C466 C 0.54309 0.76855 0.45452
 C467 C 0.55864 0.74979 0.45978
 C468 C 0.57956 0.74896 0.43789
 C469 C 0.60676 0.76590 0.38820
 C470 C 0.62506 0.76489 0.37008
 C471 C 0.64699 0.76333 0.34883
 C472 C 0.66738 0.77174 0.36715
 C473 C 0.68883 0.76955 0.34709
 C474 C 0.69014 0.75886 0.30841
 C475 C 0.66949 0.75064 0.29011
 C476 C 0.64807 0.75286 0.31023
 H477 H 0.57356 0.79914 0.38301
 H478 H 0.53671 0.80073 0.42179
 H479 H 0.55459 0.73585 0.48092
 H480 H 0.59146 0.73448 0.44254
 H481 H 0.66673 0.77983 0.39707
 H482 H 0.70440 0.77605 0.36200
 H483 H 0.66990 0.74234 0.26037
 H484 H 0.63238 0.74624 0.29583
 C485 C 0.91532 0.72837 0.91000
 C486 C 0.91725 0.71417 0.94457
 C487 C 0.93813 0.71344 0.96672
 C488 C 0.95745 0.72719 0.95506
 C489 C 0.95542 0.74077 0.91918
 C490 C 0.93452 0.74145 0.89712
 C491 C 0.89351 0.72996 0.88821
 C492 C 0.87522 0.73168 0.87014
 C493 C 0.85336 0.73410 0.84874
 C494 C 0.83269 0.72590 0.86640
 C495 C 0.81137 0.72876 0.84609
 C496 C 0.81045 0.73992 0.80779
 C497 C 0.83135 0.74799 0.79020
 C498 C 0.85264 0.74510 0.81057
 H499 H 0.90260 0.70369 0.95449
 H500 H 0.93924 0.70167 0.99249
 H501 H 0.96960 0.75183 0.90912
 H502 H 0.93322 0.75252 0.87037
 H503 H 0.83303 0.71740 0.89598
 H504 H 0.79562 0.72234 0.86048
 H505 H 0.83126 0.75664 0.76078
 H506 H 0.86853 0.75156 0.79665
 C507 C 0.41414 0.23424 0.41070
 C508 C 0.41843 0.21605 0.43825
 C509 C 0.43940 0.21530 0.46007
 C510 C 0.45620 0.23286 0.45475
 C511 C 0.45193 0.25086 0.42660
 C512 C 0.43097 0.25157 0.40477
 C513 C 0.39235 0.23535 0.38896
 C514 C 0.37405 0.23653 0.37090
 C515 C 0.35216 0.23819 0.34954
 C516 C 0.33178 0.22948 0.36742
 C517 C 0.31041 0.23155 0.34708
 C518 C 0.30917 0.24240 0.30856
 C519 C 0.32980 0.25098 0.29074
 C520 C 0.35115 0.24889 0.31115
 H521 H 0.40553 0.20252 0.44298
 H522 H 0.44251 0.20111 0.48124
 H523 H 0.46466 0.26455 0.42209
 H524 H 0.42781 0.26572 0.38352
 H525 H 0.33239 0.22119 0.39717
 H526 H 0.29486 0.22476 0.36163
 H527 H 0.32944 0.25942 0.26114
 H528 H 0.36683 0.25572 0.29709
 C529 C 0.73607 0.91453 0.90954
 C530 C 0.71808 0.91938 0.93729
 C531 C 0.71825 0.94018 0.95961
 C532 C 0.73657 0.95620 0.95465
 C533 C 0.75428 0.95144 0.92609
 C534 C 0.75407 0.93067 0.90378
 C535 C 0.73643 0.89278 0.88765
 C536 C 0.73714 0.87451 0.86948
 C537 C 0.73845 0.85267 0.84799
 C538 C 0.74927 0.85155 0.80968
 C539 C 0.75128 0.83021 0.78931
 C540 C 0.74250 0.80968 0.80707
 C541 C 0.73146 0.81102 0.84545
 C542 C 0.72948 0.83240 0.86576
 H543 H 0.70405 0.90702 0.94191
 H544 H 0.70428 0.94368 0.98109
 H545 H 0.76852 0.96359 0.92178
 H546 H 0.76806 0.92707 0.88237
 H547 H 0.75633 0.86714 0.79571
 H548 H 0.75987 0.82978 0.75982
 H549 H 0.72452 0.79555 0.85995
 H550 H 0.72112 0.83307 0.89546
 C551 C 0.23431 0.41526 0.41052
 C552 C 0.21659 0.41982 0.43893
 C553 C 0.21640 0.44083 0.46065
 C554 C 0.23406 0.45744 0.45440
 C555 C 0.25161 0.45287 0.42544
 C556 C 0.25176 0.43187 0.40371
 C557 C 0.23479 0.39345 0.38867
 C558 C 0.23546 0.37517 0.37046
 C559 C 0.23661 0.35332 0.34881
 C560 C 0.24699 0.35226 0.31012
 C561 C 0.24882 0.33094 0.28958
 C562 C 0.24029 0.31035 0.30752
 C563 C 0.22964 0.31164 0.34625
 C564 C 0.22784 0.33299 0.36673
 H565 H 0.20296 0.40712 0.44437
 H566 H 0.20252 0.44413 0.48241
 H567 H 0.26539 0.46542 0.42015
 H568 H 0.26556 0.42853 0.38180
 H569 H 0.25387 0.36788 0.29598
 H570 H 0.25712 0.33056 0.25984
 H571 H 0.22291 0.29613 0.36093
 H572 H 0.21979 0.33360 0.39670
 C573 C 0.26074 0.08571 0.90979
 C574 C 0.24624 0.08206 0.94355
 C575 C 0.24784 0.06134 0.96585
 C576 C 0.26429 0.04398 0.95516
 C577 C 0.27821 0.04762 0.92010
 C578 C 0.27655 0.06837 0.89788
 C579 C 0.25961 0.10739 0.88775
 C580 C 0.25874 0.12568 0.86965
 C581 C 0.25770 0.14762 0.84837
 C582 C 0.26702 0.16768 0.86638
 C583 C 0.26573 0.18909 0.84606
 C584 C 0.25506 0.19070 0.80739
 C585 C 0.24586 0.17039 0.78944
 C586 C 0.24718 0.14900 0.80983
 H587 H 0.23370 0.09525 0.95271
 H588 H 0.23596 0.05882 0.99121
 H589 H 0.29117 0.03488 0.91082
 H590 H 0.28784 0.07102 0.87171
 H591 H 0.27520 0.16680 0.89622
 H592 H 0.27296 0.20439 0.86072
 H593 H 0.23753 0.17102 0.75974
 H594 H 0.23991 0.13357 0.79562
 C595 C 0.76484 0.58487 0.41106
 C596 C 0.74724 0.57959 0.43927
 C597 C 0.74802 0.55867 0.46112
 C598 C 0.76652 0.54287 0.45522
 C599 C 0.78396 0.54811 0.42648
 C600 C 0.78316 0.56905 0.40460
 C601 C 0.76406 0.60655 0.38893
 C602 C 0.76320 0.62481 0.37072
 C603 C 0.76192 0.64671 0.34933
 C604 C 0.77078 0.66695 0.36742
 C605 C 0.76898 0.68836 0.34721
 C606 C 0.75824 0.68980 0.30857
 C607 C 0.74956 0.66930 0.29049
 C608 C 0.75139 0.64791 0.31078
 H609 H 0.73294 0.59165 0.44440
 H610 H 0.73420 0.55480 0.48266
 H611 H 0.79833 0.53613 0.42142
 H612 H 0.79684 0.57295 0.38278
 H613 H 0.77893 0.66622 0.39729
 H614 H 0.77583 0.70380 0.36198
 H615 H 0.74120 0.66980 0.26080
 H616 H 0.74444 0.63235 0.29652
 C617 C 0.08432 0.73521 0.90907
 C618 C 0.07846 0.75192 0.93860
 C619 C 0.05778 0.74973 0.96096
 C620 C 0.04289 0.73067 0.95425
 C621 C 0.04862 0.71425 0.92396
 C622 C 0.06929 0.71647 0.90159
 C623 C 0.10594 0.73708 0.88696
 C624 C 0.12416 0.73855 0.86873
 C625 C 0.14601 0.74029 0.84729
 C626 C 0.16644 0.73143 0.86498
 C627 C 0.18776 0.73334 0.84447
 C628 C 0.18891 0.74418 0.80593
 C629 C 0.16824 0.75292 0.78831
 C630 C 0.14694 0.75098 0.80889
 H631 H 0.08994 0.76652 0.94453
 H632 H 0.05350 0.76272 0.98383
 H633 H 0.03731 0.69949 0.91828
 H634 H 0.07366 0.70348 0.87877
 H635 H 0.16591 0.72311 0.89471
 H636 H 0.20335 0.72645 0.85888
 H637 H 0.16852 0.76137 0.75871
 H638 H 0.13121 0.75790 0.79494
 C639 C 0.58477 0.23386 0.40975
 C640 C 0.56781 0.25117 0.40383
 C641 C 0.54692 0.25056 0.42592
 C642 C 0.54281 0.23268 0.45436
 C643 C 0.55976 0.21516 0.45971
 C644 C 0.58066 0.21580 0.43763
 C645 C 0.60648 0.23484 0.38759
 C646 C 0.62468 0.23591 0.36913
 C647 C 0.64644 0.23750 0.34722
 C648 C 0.64713 0.24808 0.30870
 C649 C 0.66835 0.25022 0.28785
 C650 C 0.68920 0.24179 0.30532
 C651 C 0.68828 0.23100 0.34393
 C652 C 0.66704 0.22889 0.36471
 H653 H 0.57080 0.26522 0.38234
 H654 H 0.53410 0.26424 0.42134
 H655 H 0.55681 0.20104 0.48107
 H656 H 0.59364 0.20229 0.44238
 H657 H 0.63130 0.25484 0.29489
 H658 H 0.66843 0.25862 0.25821
 H659 H 0.70399 0.22433 0.35824
 H660 H 0.66671 0.22069 0.39454
 C661 C 0.91600 0.26248 0.90690
 C662 C 0.91967 0.24829 0.94104
 C663 C 0.94012 0.25048 0.96401
 C664 C 0.95716 0.26720 0.95356
 C665 C 0.95351 0.28082 0.91817
 C666 C 0.93303 0.27858 0.89529
 C667 C 0.89452 0.26088 0.88429
 C668 C 0.87637 0.25970 0.86577
 C669 C 0.85454 0.25840 0.84418
 C670 C 0.85347 0.24786 0.80565
 C671 C 0.83214 0.24628 0.78503
 C672 C 0.81159 0.25524 0.80278
 C673 C 0.81291 0.26597 0.84141
 C674 C 0.83425 0.26753 0.86194
 H675 H 0.90669 0.23557 0.95001
 H676 H 0.94270 0.23886 0.98972
 H677 H 0.96600 0.29400 0.90912
 H678 H 0.93034 0.28966 0.86886
 H679 H 0.86909 0.24075 0.79164
 H680 H 0.83172 0.23790 0.75537
 H681 H 0.79742 0.27303 0.85593
 H682 H 0.83490 0.27573 0.89176
 C683 C 0.41479 0.76744 0.40882
 C684 C 0.41998 0.74975 0.43689
 C685 C 0.44077 0.75043 0.45926
 C686 C 0.45653 0.76893 0.45405
 C687 C 0.45138 0.78648 0.42545
 C688 C 0.43057 0.78577 0.40304
 C689 C 0.39327 0.76669 0.38603
 C690 C 0.37515 0.76577 0.36726
 C691 C 0.35343 0.76430 0.34518
 C692 C 0.35275 0.75372 0.30664
 C693 C 0.33153 0.75150 0.28582
 C694 C 0.31065 0.75983 0.30335
 C695 C 0.31157 0.77069 0.34192
 C696 C 0.33282 0.77289 0.36267
 H697 H 0.40796 0.73543 0.44148
 H698 H 0.44457 0.73652 0.48065
 H699 H 0.46333 0.80086 0.42090
 H700 H 0.42675 0.79953 0.38133
 H701 H 0.36859 0.74697 0.29283
 H702 H 0.33144 0.74304 0.25621
 H703 H 0.29583 0.77728 0.35628
 H704 H 0.33312 0.78107 0.39252
 C705 C 0.26053 0.91525 0.08587
 C706 C 0.24401 0.92035 0.05558
 C707 C 0.24509 0.94147 0.03434
 C708 C 0.26283 0.95761 0.04302
 C709 C 0.27918 0.95250 0.07377
 C710 C 0.27807 0.93140 0.09502
 C711 C 0.25956 0.89345 0.10755
 C712 C 0.25880 0.87519 0.12577
 C713 C 0.25787 0.85342 0.14755
 C714 C 0.24747 0.85241 0.18621
 C715 C 0.24632 0.83122 0.20724
 C716 C 0.25558 0.81074 0.18983
 C717 C 0.26614 0.81198 0.15103
 C718 C 0.26726 0.83319 0.13006
 H719 H 0.23032 0.90801 0.04836
 H720 H 0.23216 0.94522 0.01106
 H721 H 0.29298 0.96473 0.08090
 H722 H 0.29092 0.92763 0.11844
 H723 H 0.24015 0.86797 0.20003
 H724 H 0.23806 0.83088 0.23702
 H725 H 0.27342 0.79654 0.13676
 H726 H 0.27537 0.83379 0.10015
 C727 C 0.76571 0.41371 0.58872
 C728 C 0.74840 0.43058 0.59540
 C729 C 0.74886 0.45159 0.57378
 C730 C 0.76657 0.45590 0.54507
 C731 C 0.78410 0.43904 0.53897
 C732 C 0.78361 0.41802 0.56058
 C733 C 0.76489 0.39189 0.61039
 C734 C 0.76395 0.37360 0.62846
 C735 C 0.76250 0.35175 0.64994
 C736 C 0.75206 0.35081 0.68859
 C737 C 0.75008 0.32952 0.70907
 C738 C 0.75850 0.30883 0.69110
 C739 C 0.76914 0.30999 0.65236
 C740 C 0.77110 0.33132 0.63194
 H741 H 0.73447 0.42742 0.61711
 H742 H 0.73518 0.46435 0.57893
 H743 H 0.79810 0.44214 0.51738
 H744 H 0.79713 0.40511 0.55525
 H745 H 0.74531 0.36652 0.70278
 H746 H 0.74179 0.32924 0.73883
 H747 H 0.77580 0.29440 0.63768
 H748 H 0.77919 0.33184 0.60201
 C749 C 0.73580 0.08477 0.08956
 C750 C 0.75392 0.07938 0.06240
 C751 C 0.75354 0.05847 0.04051
 C752 C 0.73492 0.04280 0.04531
 C753 C 0.71692 0.04816 0.07298
 C754 C 0.71733 0.06910 0.09492
 C755 C 0.73629 0.10639 0.11183
 C756 C 0.73704 0.12461 0.13016
 C757 C 0.73834 0.14645 0.15167
 C758 C 0.72933 0.16675 0.13387
 C759 C 0.73127 0.18813 0.15415
 C760 C 0.74229 0.18945 0.19254
 C761 C 0.75112 0.16890 0.21033
 C762 C 0.74916 0.14755 0.18998
 H763 H 0.76834 0.09133 0.05817
 H764 H 0.76778 0.05449 0.01983
 H765 H 0.70246 0.03626 0.07718
 H766 H 0.70325 0.07309 0.11594
 H767 H 0.72097 0.16610 0.10417
 H768 H 0.72429 0.20361 0.13963
 H769 H 0.75970 0.16931 0.23983
 H770 H 0.75624 0.13194 0.20398
 C771 C 0.23552 0.58650 0.58864
 C772 C 0.25326 0.58121 0.56065
 C773 C 0.25268 0.56029 0.53873
 C774 C 0.23423 0.54450 0.54433
 C775 C 0.21663 0.54976 0.57284
 C776 C 0.21725 0.57070 0.59479
 C777 C 0.23614 0.60813 0.61099
 C778 C 0.23688 0.62631 0.62951
 C779 C 0.23806 0.64807 0.65140
 C780 C 0.22919 0.66849 0.63377
 C781 C 0.23096 0.68976 0.65449
 C782 C 0.24167 0.69088 0.69318
 C783 C 0.25033 0.67020 0.71081
 C784 C 0.24853 0.64897 0.69003
 H785 H 0.26754 0.59325 0.55577
 H786 H 0.26662 0.55640 0.51738
 H787 H 0.20230 0.53779 0.57768
 H788 H 0.20345 0.57459 0.61644
 H789 H 0.22108 0.66802 0.60385
 H790 H 0.22413 0.70534 0.64004
 H791 H 0.25867 0.67045 0.74052
 H792 H 0.25548 0.63327 0.70395
 C793 C 0.91586 0.73435 0.09271
 C794 C 0.92146 0.75125 0.06346
 C795 C 0.94202 0.74922 0.04069
 C796 C 0.95705 0.73011 0.04672
 C797 C 0.95155 0.71346 0.07666
 C798 C 0.93100 0.71553 0.09944
 C799 C 0.89439 0.73609 0.11531
 C800 C 0.87627 0.73746 0.13390
 C801 C 0.85449 0.73907 0.15561
 C802 C 0.85360 0.74954 0.19422
 C803 C 0.83232 0.75145 0.21494
 C804 C 0.81164 0.74291 0.19721
 C805 C 0.81277 0.73224 0.15849
 C806 C 0.83406 0.73036 0.13787
 H807 H 0.90988 0.76591 0.05811
 H808 H 0.94613 0.76239 0.01811
 H809 H 0.96297 0.69866 0.08182
 H810 H 0.92683 0.70237 0.12202
 H811 H 0.86933 0.75634 0.20821
 H812 H 0.83204 0.75976 0.24467
 H813 H 0.79718 0.72550 0.14399
 H814 H 0.83456 0.72222 0.10797
 C815 C 0.41439 0.23418 0.59097
 C816 C 0.43018 0.21578 0.59692
 C817 C 0.45105 0.21496 0.57469
 C818 C 0.45626 0.23247 0.54610
 C819 C 0.44049 0.25105 0.54074
 C820 C 0.41965 0.25184 0.56293
 C821 C 0.39280 0.23502 0.61352
 C822 C 0.37462 0.23603 0.63210
 C823 C 0.35284 0.23760 0.65399
 C824 C 0.33223 0.22935 0.63615
 C825 C 0.31093 0.23161 0.65677
 C826 C 0.30997 0.24221 0.69557
 C827 C 0.33084 0.25022 0.71342
 C828 C 0.35211 0.24793 0.69274
 H829 H 0.42632 0.20205 0.61861
 H830 H 0.46300 0.20053 0.57934
 H831 H 0.44434 0.26492 0.51933
 H832 H 0.40763 0.26621 0.55820
 H833 H 0.33258 0.22136 0.60613
 H834 H 0.29521 0.22528 0.64216
 H835 H 0.33072 0.25846 0.74322
 H836 H 0.36794 0.25442 0.70681
 C837 C 0.08371 0.26298 0.09056
 C838 C 0.07851 0.24661 0.06012
 C839 C 0.05781 0.24856 0.03768
 C840 C 0.04225 0.26706 0.04525
 C841 C 0.04734 0.28313 0.07640
 C842 C 0.06802 0.28114 0.09883
 C843 C 0.10531 0.26139 0.11284
 C844 C 0.12349 0.26023 0.13131
 C845 C 0.14528 0.25894 0.15307
 C846 C 0.16561 0.26794 0.13545
 C847 C 0.18687 0.26649 0.15631
 C848 C 0.18806 0.25598 0.19513
 C849 C 0.16747 0.24711 0.21270
 C850 C 0.14623 0.24859 0.19177
 H851 H 0.09051 0.23246 0.05356
 H852 H 0.05403 0.23585 0.01412
 H853 H 0.03551 0.29745 0.08274
 H854 H 0.07187 0.29387 0.12235
 H855 H 0.16505 0.27600 0.10551
 H856 H 0.20239 0.27346 0.14192
 H857 H 0.16779 0.23891 0.24251
 H858 H 0.13058 0.24158 0.20568
 C859 C 0.58511 0.76648 0.59024
 C860 C 0.58098 0.78464 0.56254
 C861 C 0.56003 0.78549 0.54056
 C862 C 0.54308 0.76806 0.54584
 C863 C 0.54721 0.75009 0.57412
 C864 C 0.56814 0.74928 0.59611
 C865 C 0.60687 0.76529 0.61226
 C866 C 0.62510 0.76403 0.63060
 C867 C 0.64689 0.76223 0.65239
 C868 C 0.66748 0.77073 0.63488
 C869 C 0.68875 0.76845 0.65560
 C870 C 0.68969 0.75759 0.69416
 C871 C 0.66885 0.74926 0.71163
 C872 C 0.64762 0.75157 0.69085
 H873 H 0.59396 0.79808 0.55782
 H874 H 0.55708 0.79967 0.51932
 H875 H 0.53438 0.73648 0.57864
 H876 H 0.57115 0.73515 0.61747
 H877 H 0.66713 0.77899 0.60510
 H878 H 0.70445 0.77504 0.64129
 H879 H 0.66896 0.74082 0.74123
 H880 H 0.63179 0.74489 0.70467
   
