data_POSCAR
  _audit_creation_date              2014-09-24
  _audit_creation_method            'ToBaCCo'
  _symmetry_space_group_name_H-M    'P1'
  _symmetry_Int_Tables_number       1
  _symmetry_cell_setting            triclinic
  loop_
  _symmetry_equiv_pos_as_xyz
 x,y,z
_cell_length_a 17.3347
_cell_length_b 17.5183
_cell_length_c 17.7531
_cell_angle_alpha 87.786500
_cell_angle_beta 89.633600
_cell_angle_gamma 90.128900
loop_
  _atom_site_label
  _atom_site_type_symbol
  _atom_site_fract_x
  _atom_site_fract_y
  _atom_site_fract_z
C1 C 0.50008 0.96320 -0.72666
 C2 C 0.42579 0.94177 -0.70894
 C3 C 0.40912 0.97130 -0.63926
 N4 N 0.47139 1.00830 -0.61312
 C5 C 0.52669 1.00375 -0.66662
 C6 C 0.33736 0.96668 -0.60086
 C7 C 0.33316 0.98085 -0.52284
 C8 C 0.26744 1.00250 -0.48419
 C9 C 0.28573 1.00111 -0.40910
 C10 C 0.36312 0.98171 -0.40386
 N11 N 0.39182 0.97046 -0.47359
 C12 C 0.40350 0.96511 -0.33642
 C13 C 0.48465 0.96788 -0.33355
 C14 C 0.52954 0.93812 -0.27537
 C15 C 0.60446 0.95702 -0.29337
 C16 C 0.60275 1.00027 -0.36049
 N17 N 0.52928 1.00597 -0.38530
 C18 C 0.66704 1.03467 -0.39850
 C19 C 0.66105 1.05962 -0.47533
 C20 C 0.70787 1.11414 -0.51179
 C21 C 0.68923 1.11487 -0.58701
 C22 C 0.63054 1.06199 -0.59426
 N23 N 0.61276 1.02943 -0.52594
 C24 C 0.59901 1.04003 -0.66321
 H25 H 0.53132 0.94939 -0.77730
 H26 H 0.38919 0.90708 -0.74303
 H27 H 0.57642 0.98255 -0.51612
 H28 H 0.21154 1.01706 -0.50728
 H29 H 0.24551 1.01260 -0.36436
 H30 H 0.51086 0.90523 -0.22572
 H31 H 0.65422 0.93859 -0.26153
 H32 H 0.71615 1.14996 -0.63134
 H33 H 0.44563 0.94720 -0.48561
 H34 H 0.75175 1.14912 -0.48695
 C35 C -0.70906 1.47097 0.10043
 C36 C -0.68591 1.39621 0.10152
 C37 C -0.62475 1.39231 0.05107
 N38 N -0.60880 1.46247 0.02026
 C39 C -0.66121 1.51039 0.04951
 C40 C -0.58650 1.32468 0.03105
 C41 C -0.51227 1.32805 -0.00260
 C42 C -0.48057 1.27311 -0.04776
 C43 C -0.40667 1.29647 -0.06531
 C44 C -0.39535 1.36522 -0.03084
 N45 N -0.46040 1.38469 0.00632
 C46 C -0.32498 1.40606 -0.03011
 C47 C -0.32275 1.48423 -0.01473
 C48 C -0.25685 1.52580 -0.00042
 C49 C -0.27878 1.60075 0.00078
 C50 C -0.35798 1.60231 -0.01065
 N51 N -0.38453 1.53087 -0.02016
 C52 C -0.40337 1.66838 -0.02262
 C53 C -0.48469 1.66508 -0.02554
 C54 C -0.53172 1.72103 -0.05784
 C55 C -0.60638 1.69753 -0.04519
 C56 C -0.60350 1.62954 -0.00265
 N57 N -0.52885 1.60942 0.00787
 C58 C -0.66804 1.58859 0.02779
 H59 H -0.75521 1.49388 0.13407
 H60 H -0.71069 1.35030 0.13637
 H61 H -0.50913 1.56422 0.04247
 H62 H -0.50801 1.22192 -0.06699
 H63 H -0.36620 1.26641 -0.10005
 H64 H -0.19862 1.50490 0.00702
 H65 H -0.23954 1.64784 0.00749
 H66 H -0.65679 1.72717 -0.06598
 H67 H -0.46657 1.42994 0.04236
 H68 H -0.51488 1.77333 -0.08786
 C69 C -0.11758 0.52324 0.28586
 C70 C -0.10016 0.44685 0.28630
 C71 C -0.05649 0.43096 0.35042
 N72 N -0.04680 0.49494 0.38905
 C73 C -0.08383 0.55127 0.34952
 C74 C -0.01815 0.36096 0.36641
 C75 C 0.00887 0.33902 0.43954
 C76 C 0.05842 0.27845 0.45535
 C77 C 0.07585 0.28006 0.53069
 C78 C 0.03697 0.34181 0.55944
 N79 N -0.00491 0.37663 0.50380
 C80 C 0.04339 0.36589 0.63470
 C81 C 0.01788 0.43831 0.65794
 C82 C -0.00115 0.45486 0.73163
 C83 C -0.01967 0.53088 0.73167
 C84 C -0.01041 0.55885 0.65814
 N85 N 0.01182 0.50194 0.61291
 C86 C -0.02283 0.63525 0.63229
 C87 C -0.02218 0.65444 0.55438
 C88 C -0.00364 0.72596 0.52280
 C89 C -0.02158 0.72444 0.44777
 C90 C -0.04946 0.65176 0.43568
 N91 N -0.04829 0.60886 0.50055
 C92 C -0.08144 0.62860 0.36771
 H93 H -0.14956 0.55478 0.24280
 H94 H -0.11598 0.40756 0.24336
 H95 H -0.07430 0.55559 0.50989
 H96 H 0.08228 0.23871 0.41638
 H97 H 0.11553 0.24188 0.55999
 H98 H -0.00294 0.41561 0.78020
 H99 H -0.03932 0.56102 0.78016
 H100 H -0.01592 0.77173 0.40701
 H101 H -0.04228 0.42239 0.51011
 H102 H 0.01835 0.77481 0.55152
 O103 O -0.16227 1.04726 -0.14126
 O104 O 0.21136 0.94111 -0.05970
 O105 O 0.06519 1.09552 -0.19258
 O106 O 0.01438 0.89404 -0.18858
 O107 O -0.02979 0.80540 -0.09837
 O108 O 0.07475 1.18514 -0.10133
 O109 O 0.14245 0.96682 -0.16874
 O110 O -0.05323 1.02160 -0.21102
 Zr111 Zr 0.03120 0.99497 -0.12991
 O112 O 0.06542 0.91089 -0.05254
 O113 O -0.03044 1.08132 -0.08251
 C114 C -0.12534 1.03955 -0.20456
 C115 C 0.20443 0.94717 -0.13239
 C116 C 0.07910 1.16394 -0.17018
 C117 C -0.01221 0.82737 -0.16713
 H118 H 0.14770 1.06722 -0.07890
 O119 O 0.10172 1.04453 -0.05348
 H120 H -0.09996 0.92461 -0.11644
 O121 O -0.06594 0.94795 -0.07930
 O122 O 0.17004 0.95359 0.14009
 O123 O -0.20583 1.04906 0.05928
 O124 O 0.15351 1.15986 0.02034
 O125 O 0.05047 0.78111 0.01890
 O126 O -0.14852 0.83647 -0.01291
 O127 O -0.04259 1.21412 -0.02690
 O128 O -0.00704 1.10509 0.18947
 O129 O -0.06880 0.90498 0.18950
 O130 O 0.03796 1.18879 0.09580
 O131 O -0.06935 0.81038 0.10231
 O132 O 0.21789 1.04582 0.04056
 O133 O -0.15656 1.14808 -0.04156
 O134 O -0.21187 0.95039 -0.03823
 O135 O 0.16390 0.84643 0.03817
 O136 O 0.06107 0.97710 0.21116
 O137 O -0.13676 1.02749 0.16878
 Zr138 Zr 0.13145 0.96258 0.02736
 Zr139 Zr -0.12467 1.03296 -0.02776
 Zr140 Zr 0.03884 1.12680 -0.00207
 Zr141 Zr -0.03208 0.86811 0.00168
 Zr142 Zr -0.02439 1.00240 0.13018
 O143 O -0.09498 0.95126 0.05356
 O144 O 0.07360 1.04855 0.08013
 C145 C 0.13355 0.96078 0.20351
 C146 C -0.19956 1.04355 0.13206
 C147 C 0.21478 1.11979 0.03555
 C148 C 0.12399 0.78430 0.03138
 C149 C -0.20932 0.87679 -0.02912
 C150 C -0.11620 1.21016 -0.03937
 C151 C 0.01851 1.17155 0.16472
 C152 C -0.08122 0.83567 0.16915
 H153 H -0.08723 1.12526 0.07625
 O154 O -0.05835 1.08442 0.05159
 H155 H 0.05265 0.87629 0.11980
 O156 O 0.03658 0.91559 0.08165
 N157 N 0.14799 0.91587 0.33670
 N158 N 0.20558 0.91650 0.39104
 C159 C 0.26874 0.95052 0.35959
 C160 C 0.25299 0.97023 0.28441
 C161 C 0.17742 0.94814 0.27292
 H162 H 0.28943 1.00162 0.24428
 H163 H 0.09245 0.89376 0.34508
 H164 H 0.20011 0.89122 0.44506
 N165 N -0.33649 1.08331 0.14697
 N166 N -0.38936 1.08299 0.20088
 C167 C -0.35748 1.05588 0.26558
 C168 C -0.28062 1.03887 0.25243
 C169 C -0.26989 1.05659 0.17634
 H170 H -0.23963 1.01350 0.29168
 H171 H -0.34654 1.10041 0.09087
 H172 H -0.44657 1.09994 0.19294
 N173 N -0.13426 1.04112 -0.34374
 N174 N -0.19220 1.03840 -0.39747
 C175 C -0.26098 1.04259 -0.36164
 C176 C -0.24757 1.04985 -0.28455
 C177 C -0.16806 1.04740 -0.27586
 H178 H -0.28978 1.05461 -0.23985
 H179 H -0.07557 1.03379 -0.35495
 H180 H -0.18232 1.02607 -0.45379
 N181 N 0.30841 0.86516 -0.18154
 N182 N 0.36074 0.86985 -0.23602
 C183 C 0.35942 0.94103 -0.26771
 C184 C 0.30422 0.98351 -0.23150
 C185 C 0.27300 0.93310 -0.17789
 H186 H 0.28683 1.04186 -0.24426
 H187 H 0.29392 0.81516 -0.15088
 H188 H 0.39397 0.82402 -0.25344
 N189 N 0.35612 1.12847 0.05829
 N190 N 0.41195 1.18599 0.05570
 C191 C 0.37587 1.25323 0.04142
 C192 C 0.29706 1.23982 0.03493
 C193 C 0.28733 1.16164 0.04511
 H194 H 0.25276 1.28096 0.01972
 H195 H 0.36736 1.07020 0.06648
 H196 H 0.47059 1.17713 0.06590
 N197 N 0.13226 0.64283 0.02675
 N198 N 0.19073 0.58837 0.02545
 C199 C 0.25893 0.62458 0.03383
 C200 C 0.24459 0.70208 0.04276
 C201 C 0.16547 0.71115 0.03656
 H202 H 0.28625 0.74700 0.05112
 H203 H 0.07404 0.63195 0.01674
 H204 H 0.18204 0.53163 0.01156
 N205 N -0.31560 0.83523 -0.10947
 N206 N -0.36601 0.77860 -0.10874
 C207 C -0.36413 0.74203 -0.04057
 C208 C -0.31027 0.77702 0.00394
 C209 C -0.28036 0.83503 -0.04225
 H210 H -0.29108 0.75905 0.05975
 H211 H -0.30093 0.86900 -0.15711
 H212 H -0.39687 0.76226 -0.15584
 N213 N -0.13564 1.34419 -0.08796
 N214 N -0.19187 1.39510 -0.08753
 C215 C -0.25171 1.36563 -0.04668
 C216 C -0.23300 1.29252 -0.02126
 C217 C -0.15939 1.28128 -0.04862
 H218 H -0.26771 1.25309 0.01312
 H219 H -0.08307 1.35184 -0.11634
 H220 H -0.18939 1.44840 -0.11590
 N221 N 0.05205 1.30464 0.18842
 N222 N 0.03966 1.35764 0.24308
 C223 C 0.00676 1.32114 0.30321
 C224 C -0.00247 1.24363 0.28843
 C225 C 0.02517 1.23644 0.21492
 H226 H -0.03102 1.20027 0.32367
 H227 H 0.07423 1.31820 0.13469
 H228 H 0.05378 1.41558 0.23700
 N229 N 0.14193 1.28596 -0.20560
 N230 N 0.12893 1.34461 -0.25891
 C231 C 0.08033 1.31815 -0.31086
 C232 C 0.06283 1.24174 -0.29294
 C233 C 0.10067 1.22480 -0.22543
 H234 H 0.01897 1.20744 -0.31873
 H235 H 0.17040 1.29272 -0.15458
 H236 H 0.15011 1.40024 -0.25545
 N237 N -0.08509 0.80538 -0.28129
 N238 N -0.08812 0.75237 -0.33724
 C239 C -0.03995 0.69443 -0.31813
 C240 C -0.00667 0.70856 -0.24827
 C241 C -0.03578 0.77915 -0.22843
 H242 H 0.03821 0.67617 -0.21959
 H243 H -0.11376 0.85782 -0.28287
 H244 H -0.12243 0.75815 -0.38528
 N245 N -0.15667 0.80117 0.28436
 N246 N -0.15794 0.74528 0.33634
 C247 C -0.11091 0.68894 0.31458
 C248 C -0.07924 0.70942 0.24466
 C249 C -0.10926 0.78144 0.22809
 H250 H -0.03339 0.68086 0.21522
 H251 H -0.18424 0.85369 0.28963
 H252 H -0.18604 0.74826 0.38837
   
