data_POSCAR
  _audit_creation_date              2014-09-24
  _audit_creation_method            'ToBaCCo'
  _symmetry_space_group_name_H-M    'P1'
  _symmetry_Int_Tables_number       1
  _symmetry_cell_setting            triclinic
  loop_
  _symmetry_equiv_pos_as_xyz
 x,y,z
_cell_length_a 39.0921
_cell_length_b 39.0497
_cell_length_c 37.5994
_cell_angle_alpha 89.857500
_cell_angle_beta 90.028900
_cell_angle_gamma 90.015300
loop_
  _atom_site_label
  _atom_site_type_symbol
  _atom_site_fract_x
  _atom_site_fract_y
  _atom_site_fract_z
C1 C 1.27643 0.21371 0.26922
 C2 C 1.25121 0.23167 0.25033
 C3 C 1.22599 0.21362 0.23165
 C4 C 1.22613 0.17776 0.23151
 C5 C 1.25116 0.15982 0.25070
 C6 C 1.27625 0.17782 0.26974
 C7 C 1.25121 0.26933 0.25013
 C8 C 1.27640 0.28730 0.23125
 C9 C 1.27621 0.32320 0.23069
 C10 C 1.25110 0.34118 0.24969
 C11 C 1.22609 0.32322 0.26889
 C12 C 1.22598 0.28736 0.26878
 H13 H 1.29577 0.22775 0.28388
 H14 H 1.20663 0.22751 0.21682
 H15 H 1.29575 0.27327 0.21662
 H16 H 1.20663 0.27346 0.28360
 H17 H 1.25107 0.13204 0.25079
 H18 H 1.25099 0.36896 0.24958
 C19 C 0.77528 -0.28762 0.26901
 C20 C 0.74988 -0.26960 0.25048
 C21 C 0.72452 -0.28759 0.23193
 C22 C 0.72473 -0.32344 0.23156
 C23 C 0.74995 -0.34145 0.25042
 C24 C 0.77517 -0.32351 0.26933
 C25 C 0.74986 -0.23195 0.25046
 C26 C 0.77525 -0.21390 0.23196
 C27 C 0.77508 -0.17804 0.23164
 C28 C 0.74987 -0.16012 0.25047
 C29 C 0.72465 -0.17814 0.26930
 C30 C 0.72447 -0.21399 0.26897
 H31 H 0.79473 -0.27362 0.28357
 H32 H 0.70502 -0.27365 0.21735
 H33 H 0.79474 -0.22777 0.21741
 H34 H 0.70498 -0.22795 0.28353
 H35 H 0.74991 -0.36923 0.25033
 H36 H 0.74988 -0.13235 0.25047
 C37 C 0.77594 0.21419 -0.23193
 C38 C 0.75053 0.23215 -0.25051
 C39 C 0.72514 0.21410 -0.26894
 C40 C 0.72532 0.17824 -0.26911
 C41 C 0.75056 0.16032 -0.25020
 C42 C 0.77578 0.17833 -0.23144
 C43 C 0.75052 0.26981 -0.25069
 C44 C 0.77590 0.28779 -0.26928
 C45 C 0.77572 0.32368 -0.26980
 C46 C 0.75047 0.34165 -0.25102
 C47 C 0.72527 0.32368 -0.23210
 C48 C 0.72513 0.28783 -0.23227
 H49 H 0.79544 0.22815 -0.21743
 H50 H 0.70563 0.22798 -0.28357
 H51 H 0.79538 0.27377 -0.28375
 H52 H 0.70565 0.27392 -0.21766
 H53 H 0.75057 0.13255 -0.25007
 H54 H 0.75038 0.36944 -0.25109
 C55 C 1.27554 -0.28761 -0.23120
 C56 C 1.24993 -0.26957 -0.24939
 C57 C 1.22433 -0.28751 -0.26760
 C58 C 1.22451 -0.32335 -0.26799
 C59 C 1.24992 -0.34140 -0.24948
 C60 C 1.27537 -0.32349 -0.23089
 C61 C 1.24995 -0.23193 -0.24939
 C62 C 1.27555 -0.21390 -0.26759
 C63 C 1.27539 -0.17805 -0.26794
 C64 C 1.24999 -0.16011 -0.24943
 C65 C 1.22457 -0.17811 -0.23090
 C66 C 1.22436 -0.21396 -0.23121
 H67 H 1.29517 -0.27365 -0.21688
 H68 H 1.20468 -0.27355 -0.28194
 H69 H 1.29519 -0.22779 -0.28192
 H70 H 1.20471 -0.22789 -0.21687
 H71 H 1.24985 -0.36918 -0.24958
 H72 H 1.25000 -0.13234 -0.24945
 C73 C 0.21340 0.27506 0.73233
 C74 C 0.23143 0.24980 0.75109
 C75 C 0.21350 0.22444 0.76981
 C76 C 0.17764 0.22450 0.77009
 C77 C 0.15966 0.24963 0.75098
 C78 C 0.17759 0.27481 0.73195
 C79 C 0.26904 0.24991 0.75112
 C80 C 0.28696 0.27525 0.76977
 C81 C 0.32282 0.27520 0.77009
 C82 C 0.34081 0.25011 0.75109
 C83 C 0.32290 0.22495 0.73214
 C84 C 0.28708 0.22468 0.73248
 H85 H 0.22728 0.29453 0.71762
 H86 H 0.22753 0.20506 0.78453
 H87 H 0.27293 0.29460 0.78439
 H88 H 0.27322 0.20523 0.71782
 H89 H 0.13191 0.24963 0.75087
 H90 H 0.36857 0.25012 0.75102
 C91 C 0.71254 0.77557 0.73137
 C92 C 0.73052 0.75028 0.75015
 C93 C 0.71254 0.72502 0.76897
 C94 C 0.67669 0.72520 0.76935
 C95 C 0.65874 0.75034 0.75023
 C96 C 0.67669 0.77545 0.73107
 C97 C 0.76813 0.75025 0.75010
 C98 C 0.78619 0.77545 0.76882
 C99 C 0.82201 0.77526 0.76907
 C100 C 0.83989 0.75020 0.74996
 C101 C 0.82188 0.72516 0.73093
 C102 C 0.78606 0.72502 0.73131
 H103 H 0.72654 0.79494 0.71661
 H104 H 0.72654 0.70563 0.78370
 H105 H 0.77233 0.79482 0.78357
 H106 H 0.77210 0.70567 0.71660
 H107 H 0.63097 0.75036 0.75026
 H108 H 0.86763 0.75018 0.74991
 C109 C 0.71358 0.27534 0.23124
 C110 C 0.73154 0.24977 0.24961
 C111 C 0.71353 0.22417 0.26788
 C112 C 0.67772 0.22432 0.26811
 C113 C 0.65980 0.24971 0.24941
 C114 C 0.67777 0.27513 0.23081
 C115 C 0.76914 0.24981 0.24973
 C116 C 0.78705 0.27542 0.26799
 C117 C 0.82286 0.27528 0.26843
 C118 C 0.84088 0.24991 0.24995
 C119 C 0.82300 0.22449 0.23136
 C120 C 0.78719 0.22426 0.23159
 H121 H 0.72750 0.29500 0.21685
 H122 H 0.72741 0.20453 0.28235
 H123 H 0.77309 0.29504 0.28228
 H124 H 0.77334 0.20460 0.21720
 H125 H 0.63206 0.24969 0.24933
 H126 H 0.86862 0.24995 0.25003
 C127 C 0.21264 0.77526 0.23140
 C128 C 0.23062 0.74993 0.25011
 C129 C 0.21265 0.72463 0.26886
 C130 C 0.17681 0.72481 0.26925
 C131 C 0.15884 0.74999 0.25020
 C132 C 0.17680 0.77514 0.23110
 C133 C 0.26823 0.74991 0.25006
 C134 C 0.28626 0.77518 0.26868
 C135 C 0.32209 0.77502 0.26893
 C136 C 0.33998 0.74992 0.24990
 C137 C 0.32199 0.72481 0.23095
 C138 C 0.28616 0.72464 0.23135
 H139 H 0.22664 0.79466 0.21669
 H140 H 0.22666 0.70520 0.28354
 H141 H 0.27240 0.79459 0.28337
 H142 H 0.27222 0.70524 0.21671
 H143 H 0.13107 0.75001 0.25024
 H144 H 0.36772 0.74993 0.24984
 O145 O 1.05919 0.01762 0.04454
 O146 O 0.94205 -0.01786 0.04444
 O147 O 0.98296 0.05846 0.04440
 O148 O 1.01832 -0.05876 0.04457
 O149 O 0.93556 0.03971 0.02486
 O150 O 1.06574 -0.03993 0.02511
 O151 O 0.96081 -0.06529 0.02504
 O152 O 1.04046 0.06509 0.02495
 C153 C 1.05605 0.04872 0.04841
 C154 C 0.94525 -0.04896 0.04844
 C155 C 0.95191 0.05516 0.04835
 C156 C 1.04938 -0.05557 0.04853
 O157 O 1.05912 -0.01802 -0.04370
 O158 O 0.94222 0.01800 -0.04389
 O159 O 1.01869 0.05850 -0.04386
 O160 O 0.98260 -0.05857 -0.04375
 O161 O 0.93529 -0.03956 -0.02432
 O162 O 1.06599 0.03948 -0.02429
 O163 O 1.04006 -0.06539 -0.02418
 O164 O 0.96122 0.06534 -0.02442
 Co165 Co 1.05642 -0.00020 0.00041
 Co166 Co 0.94486 0.00006 0.00028
 Co167 Co 1.00081 0.05576 0.00027
 Co168 Co 1.00047 -0.05592 0.00041
 O169 O 1.00064 -0.00008 0.00034
 C170 C 1.05562 -0.04907 -0.04767
 C171 C 0.94558 0.04909 -0.04786
 C172 C 1.04974 0.05520 -0.04774
 C173 C 0.95155 -0.05524 -0.04770
 O174 O 1.05845 0.51807 0.54392
 O175 O 0.94147 0.48237 0.54385
 O176 O 0.98192 0.55880 0.54371
 O177 O 1.01797 0.44172 0.54395
 O178 O 0.93463 0.53991 0.52409
 O179 O 1.06530 0.46060 0.52437
 O180 O 0.96049 0.43497 0.52455
 O181 O 1.03943 0.56551 0.52446
 C182 C 1.05497 0.54912 0.54794
 C183 C 0.94481 0.45128 0.54790
 C184 C 0.95085 0.55555 0.54753
 C185 C 1.04903 0.44494 0.54784
 O186 O 1.05856 0.48260 0.45562
 O187 O 0.94146 0.51804 0.45545
 O188 O 1.01790 0.55893 0.45554
 O189 O 0.98219 0.44177 0.45568
 O190 O 0.93482 0.46050 0.47519
 O191 O 1.06524 0.54013 0.47523
 O192 O 1.03967 0.43511 0.47508
 O193 O 0.96036 0.56550 0.47477
 Co194 Co 1.05578 0.50035 0.49978
 Co195 Co 0.94419 0.50021 0.49965
 Co196 Co 0.99991 0.55611 0.49963
 Co197 Co 1.00007 0.44447 0.49980
 O198 O 0.99999 0.50029 0.49971
 C199 C 1.05535 0.45151 0.45170
 C200 C 0.94472 0.54913 0.45140
 C201 C 1.04897 0.55576 0.45173
 C202 C 0.95114 0.44504 0.45172
 O203 O 0.55844 0.01776 0.54445
 O204 O 0.44139 -0.01790 0.54448
 O205 O 0.48222 0.05851 0.54440
 O206 O 0.51764 -0.05873 0.54462
 O207 O 0.43479 0.03967 0.52501
 O208 O 0.56504 -0.03981 0.52517
 O209 O 0.46015 -0.06530 0.52501
 O210 O 0.53968 0.06519 0.52476
 C211 C 0.55525 0.04886 0.54826
 C212 C 0.44470 -0.04897 0.54849
 C213 C 0.45117 0.05527 0.54839
 C214 C 0.54870 -0.05550 0.54858
 O215 O 0.55836 -0.01807 0.45627
 O216 O 0.44141 0.01801 0.45616
 O217 O 0.51775 0.05849 0.45606
 O218 O 0.48196 -0.05860 0.45629
 O219 O 0.43463 -0.03956 0.47567
 O220 O 0.56510 0.03946 0.47554
 O221 O 0.53944 -0.06544 0.47591
 O222 O 0.46031 0.06536 0.47567
 Co223 Co 0.55566 -0.00015 0.50036
 Co224 Co 0.44413 0.00005 0.50033
 Co225 Co 0.49998 0.05578 0.50024
 Co226 Co 0.49981 -0.05592 0.50045
 O227 O 0.49990 -0.00006 0.50034
 C228 C 0.55505 -0.04915 0.45243
 C229 C 0.44465 0.04912 0.45225
 C230 C 0.54877 0.05502 0.45204
 C231 C 0.45092 -0.05523 0.45230
 O232 O 0.55817 0.51788 0.04344
 O233 O 0.44115 0.48217 0.04357
 O234 O 0.48154 0.55856 0.04339
 O235 O 0.51772 0.44156 0.04337
 O236 O 0.43424 0.53972 0.02376
 O237 O 0.56497 0.46045 0.02364
 O238 O 0.46021 0.43479 0.02424
 O239 O 0.53904 0.56536 0.02417
 C240 C 0.55475 0.54893 0.04752
 C241 C 0.44452 0.45109 0.04761
 C242 C 0.45048 0.55530 0.04724
 C243 C 0.54878 0.44488 0.04720
 O244 O 0.55809 0.48264 -0.04496
 O245 O 0.44098 0.51781 -0.04483
 O246 O 0.51748 0.55886 -0.04480
 O247 O 0.48163 0.44167 -0.04477
 O248 O 0.43431 0.46026 -0.02504
 O249 O 0.56483 0.54012 -0.02516
 O250 O 0.53919 0.43509 -0.02562
 O251 O 0.45996 0.56527 -0.02556
 Co252 Co 0.55541 0.50026 -0.00076
 Co253 Co 0.44379 0.50001 -0.00064
 Co254 Co 0.49951 0.55595 -0.00070
 Co255 Co 0.49968 0.44434 -0.00070
 O256 O 0.49960 0.50014 -0.00070
 C257 C 0.55479 0.45156 -0.04900
 C258 C 0.44438 0.54888 -0.04894
 C259 C 0.54856 0.55579 -0.04862
 C260 C 0.45054 0.44472 -0.04853
 C261 C 1.15597 0.12809 0.17001
 N262 N 1.13363 0.14669 0.15022
 N263 N 1.11225 0.13119 0.12780
 C264 C 1.11252 0.09662 0.12454
 N265 N 1.13479 0.07801 0.14440
 N266 N 1.15618 0.09351 0.16681
 C267 C 1.18027 0.14497 0.19260
 C268 C 1.20106 0.15960 0.21077
 C269 C 1.09122 0.08007 0.09864
 C270 C 1.07445 0.06595 0.07611
 C271 C 1.15379 0.62758 0.67088
 N272 N 1.15353 0.59299 0.66784
 N273 N 1.13220 0.57773 0.64522
 C274 C 1.11046 0.59658 0.62499
 N275 N 1.11064 0.63117 0.62811
 N276 N 1.13197 0.64643 0.65073
 C277 C 1.17821 0.64419 0.69348
 C278 C 1.19918 0.65863 0.71155
 C279 C 1.08943 0.58029 0.59875
 C280 C 1.07295 0.56629 0.57593
 C281 C 0.65493 0.12847 0.66983
 N282 N 0.63265 0.14703 0.64994
 N283 N 0.61127 0.13149 0.62755
 C284 C 0.61151 0.09690 0.62442
 N285 N 0.63372 0.07833 0.64439
 N286 N 0.65510 0.09388 0.66677
 C287 C 0.67928 0.14540 0.69230
 C288 C 0.70014 0.16005 0.71035
 C289 C 0.59027 0.08031 0.59852
 C290 C 0.57357 0.06614 0.57597
 C291 C 0.65434 0.62740 0.16997
 N292 N 0.63229 0.64622 0.15006
 N293 N 0.61091 0.63095 0.12749
 C294 C 0.61088 0.59638 0.12418
 N295 N 0.63286 0.57755 0.14416
 N296 N 0.65425 0.59282 0.16673
 C297 C 0.67871 0.64404 0.19265
 C298 C 0.69957 0.65850 0.21086
 C299 C 0.58965 0.58007 0.09808
 C300 C 0.57298 0.56608 0.07538
 C301 C 0.84552 -0.12836 0.17039
 N302 N 0.84538 -0.09377 0.16710
 N303 N 0.86678 -0.07827 0.14464
 C304 C 0.88899 -0.09689 0.12484
 N305 N 0.88919 -0.13147 0.12821
 N306 N 0.86780 -0.14696 0.15066
 C307 C 0.82114 -0.14523 0.19294
 C308 C 0.80027 -0.15986 0.21104
 C309 C 0.91023 -0.08035 0.09885
 C310 C 0.92693 -0.06622 0.07623
 C311 C 0.84487 0.37218 0.66990
 N312 N 0.84488 0.40677 0.66660
 N313 N 0.86634 0.42217 0.64413
 C314 C 0.88846 0.40346 0.62432
 N315 N 0.88851 0.36887 0.62769
 N316 N 0.86705 0.35348 0.65016
 C317 C 0.82044 0.35541 0.69248
 C318 C 0.79955 0.34083 0.71060
 C319 C 0.90976 0.41990 0.59832
 C320 C 0.92650 0.43400 0.57569
 C321 C 0.34601 -0.12840 0.67115
 N322 N 0.34592 -0.09381 0.66797
 N323 N 0.36720 -0.07830 0.64542
 C324 C 0.38922 -0.09691 0.62540
 N325 N 0.38938 -0.13150 0.62866
 N326 N 0.36811 -0.14701 0.65121
 C327 C 0.32164 -0.14528 0.69365
 C328 C 0.30071 -0.15990 0.71165
 C329 C 0.41021 -0.08037 0.59923
 C330 C 0.42668 -0.06623 0.57645
 C331 C 0.34490 0.37175 0.16982
 N332 N 0.34494 0.40635 0.16662
 N333 N 0.36629 0.42179 0.14408
 C334 C 0.38829 0.40312 0.12408
 N335 N 0.38831 0.36852 0.12734
 N336 N 0.36696 0.35308 0.14989
 C337 C 0.32062 0.35494 0.19256
 C338 C 0.29987 0.34034 0.21086
 C339 C 0.40954 0.41963 0.09805
 C340 C 0.42624 0.43377 0.07541
 C341 C 0.84618 0.12880 -0.16996
 N342 N 0.84645 0.09417 -0.16718
 N343 N 0.86781 0.07865 -0.14469
 C344 C 0.88956 0.09728 -0.12433
 N345 N 0.88936 0.13190 -0.12718
 N346 N 0.86801 0.14742 -0.14967
 C347 C 0.82184 0.14566 -0.19257
 C348 C 0.80098 0.16025 -0.21074
 C349 C 0.91074 0.08067 -0.09831
 C350 C 0.92737 0.06645 -0.07567
 C351 C 0.84448 0.62798 0.32944
 N352 N 0.84431 0.59341 0.33299
 N353 N 0.86583 0.57805 0.35543
 C354 C 0.88820 0.59678 0.37497
 N355 N 0.88842 0.63134 0.37135
 N356 N 0.86691 0.64670 0.34891
 C357 C 0.81998 0.64473 0.30692
 C358 C 0.79903 0.65931 0.28885
 C359 C 0.90958 0.58039 0.40096
 C360 C 0.92637 0.56635 0.42359
 C361 C 0.34494 0.12904 0.33046
 N362 N 0.36706 0.14758 0.35049
 N363 N 0.38839 0.13200 0.37296
 C364 C 0.38830 0.09739 0.37604
 N365 N 0.36625 0.07884 0.35594
 N366 N 0.34491 0.09443 0.33347
 C367 C 0.32068 0.14599 0.30779
 C368 C 0.29993 0.16066 0.28954
 C369 C 0.40955 0.08073 0.40197
 C370 C 0.42629 0.06649 0.42453
 C371 C 0.34492 0.62785 -0.17133
 N372 N 0.34462 0.59329 -0.16776
 N373 N 0.36607 0.57787 -0.14529
 C374 C 0.38847 0.59654 -0.12575
 N375 N 0.38884 0.63110 -0.12940
 N376 N 0.36739 0.64651 -0.15187
 C377 C 0.32039 0.64466 -0.19372
 C378 C 0.29937 0.65930 -0.21162
 C379 C 0.40965 0.58013 -0.09964
 C380 C 0.42625 0.56608 -0.07689
 C381 C 1.15404 -0.12854 -0.17009
 N382 N 1.13209 -0.14715 -0.14988
 N383 N 1.11085 -0.13164 -0.12737
 C384 C 1.11091 -0.09704 -0.12444
 N385 N 1.13278 -0.07842 -0.14473
 N386 N 1.15402 -0.09393 -0.16724
 C387 C 1.17837 -0.14541 -0.19255
 C388 C 1.19927 -0.16001 -0.21052
 C389 C 1.08998 -0.08048 -0.09833
 C390 C 1.07357 -0.06633 -0.07558
 C391 C 1.15573 0.37264 0.33028
 N392 N 1.13345 0.35391 0.34999
 N393 N 1.11196 0.36927 0.37237
 C394 C 1.11207 0.40385 0.37567
 N395 N 1.13429 0.42258 0.35589
 N396 N 1.15577 0.40722 0.33351
 C397 C 1.18013 0.35589 0.30772
 C398 C 1.20098 0.34135 0.28958
 C399 C 1.09066 0.42026 0.40153
 C400 C 1.07381 0.43431 0.42403
 C401 C 0.65435 -0.12864 0.33060
 N402 N 0.63245 -0.14729 0.35085
 N403 N 0.61114 -0.13180 0.37330
 C404 C 0.61104 -0.09719 0.37614
 N405 N 0.63287 -0.07854 0.35582
 N406 N 0.65419 -0.09403 0.33337
 C407 C 0.67866 -0.14548 0.30804
 C408 C 0.69949 -0.16005 0.28992
 C409 C 0.58989 -0.08063 0.40210
 C410 C 0.57327 -0.06646 0.42469
 C411 C 0.65471 0.37301 -0.17096
 N412 N 0.63238 0.35425 -0.15135
 N413 N 0.61093 0.36957 -0.12891
 C414 C 0.61112 0.40413 -0.12544
 N415 N 0.63339 0.42290 -0.14513
 N416 N 0.65485 0.40758 -0.16756
 C417 C 0.67915 0.35631 -0.19348
 C418 C 0.70006 0.34179 -0.21155
 C419 C 0.58982 0.42046 -0.09945
 C420 C 0.57309 0.43445 -0.07682
 C421 C 1.12911 0.15536 -0.16950
 N422 N 1.09454 0.15527 -0.16651
 N423 N 1.07909 0.13379 -0.14407
 C424 C 1.09773 0.11173 -0.12398
 N425 N 1.13229 0.11175 -0.12704
 N426 N 1.14774 0.13323 -0.14948
 C427 C 1.14593 0.17978 -0.19209
 C428 C 1.16052 0.20068 -0.21025
 C429 C 1.08121 0.09038 -0.09804
 C430 C 1.06706 0.07359 -0.07547
 C431 C 1.12826 0.65582 0.32983
 N432 N 1.09370 0.65586 0.33297
 N433 N 1.07826 0.63443 0.35546
 C434 C 1.09689 0.61228 0.37545
 N435 N 1.13144 0.61217 0.37224
 N436 N 1.14689 0.63360 0.34975
 C437 C 1.14507 0.68019 0.30718
 C438 C 1.15967 0.70104 0.28897
 C439 C 1.08040 0.59095 0.40142
 C440 C 1.06627 0.57417 0.42401
 C441 C 0.62811 0.15370 0.32919
 N442 N 0.64669 0.13157 0.34925
 N443 N 0.63119 0.11029 0.37185
 C444 C 0.59664 0.11048 0.37502
 N445 N 0.57806 0.13253 0.35487
 N446 N 0.59355 0.15382 0.33228
 C447 C 0.64498 0.17807 0.30663
 C448 C 0.65959 0.19900 0.28858
 C449 C 0.58012 0.08949 0.40122
 C450 C 0.56600 0.07303 0.42404
 C451 C 0.62802 0.65624 -0.17010
 N452 N 0.59347 0.65643 -0.16688
 N453 N 0.57797 0.63497 -0.14447
 C454 C 0.59653 0.61263 -0.12463
 N455 N 0.63108 0.61238 -0.12792
 N456 N 0.64658 0.63384 -0.15033
 C457 C 0.64490 0.68062 -0.19271
 C458 C 0.65954 0.70145 -0.21091
 C459 C 0.57998 0.59122 -0.09876
 C460 C 0.56583 0.57434 -0.07626
 C461 C 0.87179 -0.15472 -0.16938
 N462 N 0.85328 -0.13256 -0.14942
 N463 N 0.86884 -0.11124 -0.12699
 C464 C 0.90340 -0.11142 -0.12387
 N465 N 0.92192 -0.13353 -0.14389
 N466 N 0.90636 -0.15484 -0.16632
 C467 C 0.85486 -0.17897 -0.19198
 C468 C 0.84020 -0.19971 -0.21017
 C469 C 0.92002 -0.09022 -0.09796
 C470 C 0.93422 -0.07353 -0.07541
 C471 C 0.87214 0.34600 0.32937
 N472 N 0.85344 0.36791 0.34945
 N473 N 0.86884 0.38925 0.37196
 C474 C 0.90340 0.38934 0.37503
 N475 N 0.92210 0.36751 0.35487
 N476 N 0.90670 0.34617 0.33236
 C477 C 0.85539 0.32158 0.30687
 C478 C 0.84088 0.30062 0.28887
 C479 C 0.91984 0.41042 0.40112
 C480 C 0.93392 0.42695 0.42384
 C481 C 0.37164 -0.15476 0.33038
 N482 N 0.35301 -0.13265 0.35029
 N483 N 0.36846 -0.11129 0.37276
 C484 C 0.40301 -0.11136 0.37596
 N485 N 0.42164 -0.13341 0.35598
 N486 N 0.40620 -0.15477 0.33351
 C487 C 0.35482 -0.17908 0.30778
 C488 C 0.34024 -0.19988 0.28962
 C489 C 0.41951 -0.09015 0.40193
 C490 C 0.43364 -0.07348 0.42454
 C491 C 0.37128 0.34436 -0.16975
 N492 N 0.35262 0.36647 -0.14987
 N493 N 0.36804 0.38797 -0.12753
 C494 C 0.40260 0.38803 -0.12442
 N495 N 0.42127 0.36598 -0.14437
 N496 N 0.40585 0.34448 -0.16671
 C497 C 0.35449 0.31992 -0.19224
 C498 C 0.33993 0.29902 -0.21032
 C499 C 0.41910 0.40943 -0.09860
 C500 C 0.43323 0.42627 -0.07613
 C501 C 1.12829 -0.15576 0.17062
 N502 N 1.09376 -0.15601 0.16714
 N503 N 1.07837 -0.13454 0.14463
 C504 C 1.09704 -0.11215 0.12497
 N505 N 1.13156 -0.11184 0.12852
 N506 N 1.14694 -0.13331 0.15102
 C507 C 1.14507 -0.18018 0.19325
 C508 C 1.15965 -0.20106 0.21143
 C509 C 1.08062 -0.09079 0.09895
 C510 C 1.06658 -0.07399 0.07632
 C511 C 1.12816 0.34505 0.67006
 N512 N 1.14683 0.36714 0.65004
 N513 N 1.13143 0.38854 0.62748
 C514 C 1.09688 0.38853 0.62429
 N515 N 1.07820 0.36650 0.64437
 N516 N 1.09359 0.34510 0.66693
 C517 C 1.14492 0.32071 0.69280
 C518 C 1.15947 0.29990 0.71109
 C519 C 1.08041 0.40982 0.59825
 C520 C 1.06631 0.42658 0.57561
 C521 C 0.62803 -0.15559 0.67051
 N522 N 0.59348 -0.15585 0.66717
 N523 N 0.57800 -0.13442 0.64470
 C524 C 0.59658 -0.11205 0.62492
 N525 N 0.63112 -0.11173 0.62833
 N526 N 0.64660 -0.13315 0.65080
 C527 C 0.64490 -0.17995 0.69314
 C528 C 0.65953 -0.20079 0.71135
 C529 C 0.58006 -0.09071 0.59895
 C530 C 0.56594 -0.07391 0.57636
 C531 C 0.62831 0.34579 0.16962
 N532 N 0.64694 0.36761 0.14924
 N533 N 0.63145 0.38894 0.12669
 C534 C 0.59687 0.38913 0.12388
 N535 N 0.57824 0.36738 0.14433
 N536 N 0.59373 0.34604 0.16688
 C537 C 0.64513 0.32139 0.19219
 C538 C 0.65970 0.30045 0.21027
 C539 C 0.58031 0.41021 0.09777
 C540 C 0.56613 0.42676 0.07505
 C541 C 0.87267 0.15394 0.17064
 N542 N 0.85410 0.13164 0.15088
 N543 N 0.86959 0.11036 0.12840
 C544 C 0.90412 0.11072 0.12504
 N545 N 0.92270 0.13295 0.14488
 N546 N 0.90721 0.15424 0.16736
 C547 C 0.85580 0.17830 0.19307
 C548 C 0.84117 0.19921 0.21102
 C549 C 0.92062 0.08970 0.09896
 C550 C 0.93472 0.07321 0.07624
 C551 C 0.87130 0.65512 0.66918
 N552 N 0.85267 0.63334 0.64884
 N553 N 0.86815 0.61202 0.62638
 C554 C 0.90274 0.61179 0.62362
 N555 N 0.92137 0.63350 0.64403
 N556 N 0.90589 0.65483 0.66648
 C557 C 0.85448 0.67937 0.69184
 C558 C 0.83993 0.70012 0.71009
 C559 C 0.91931 0.59058 0.59771
 C560 C 0.93350 0.57388 0.57519
 C561 C 0.37233 0.15484 0.67049
 N562 N 0.35365 0.13258 0.65079
 N563 N 0.36902 0.11124 0.62827
 C564 C 0.40355 0.11149 0.62481
 N565 N 0.42223 0.13369 0.64458
 N566 N 0.40687 0.15503 0.66710
 C567 C 0.35558 0.17913 0.69316
 C568 C 0.34103 0.19990 0.71138
 C569 C 0.41995 0.09026 0.59879
 C570 C 0.43399 0.07356 0.57617
 C571 C 0.37128 0.65470 0.16923
 N572 N 0.35258 0.63292 0.14896
 N573 N 0.36798 0.61161 0.12644
 C574 C 0.40256 0.61139 0.12354
 N575 N 0.42126 0.63310 0.14388
 N576 N 0.40586 0.65442 0.16640
 C577 C 0.35454 0.67897 0.19192
 C578 C 0.34003 0.69974 0.21016
 C579 C 0.41904 0.59021 0.09755
 C580 C 0.43317 0.57356 0.07495
   
