data_POSCAR
  _audit_creation_date              2014-09-24
  _audit_creation_method            'ToBaCCo'
  _symmetry_space_group_name_H-M    'P1'
  _symmetry_Int_Tables_number       1
  _symmetry_cell_setting            triclinic
  loop_
  _symmetry_equiv_pos_as_xyz
 x,y,z
_cell_length_a 13.6162
_cell_length_b 14.5966
_cell_length_c 23.7740
_cell_angle_alpha 89.838200
_cell_angle_beta 90.657800
_cell_angle_gamma 117.566000
loop_
  _atom_site_label
  _atom_site_type_symbol
  _atom_site_fract_x
  _atom_site_fract_y
  _atom_site_fract_z
Zn1 Zn 0.94046 0.08134 1.02578
 Zn2 Zn 1.14768 0.06158 1.01634
 Zn3 Zn 0.92995 -0.12911 1.02475
 Zn4 Zn 0.98868 0.00117 0.92675
 O5 O 1.00179 0.00338 1.00080
 O6 O 1.03659 0.18549 1.07011
 O7 O 1.18472 -0.02415 1.05173
 O8 O 0.81196 -0.15130 1.06715
 O9 O 1.19064 0.17005 1.06238
 O10 O 0.81811 0.00374 1.06740
 O11 O 1.02224 -0.16187 1.06559
 O12 O 0.97496 -0.11621 0.89791
 O13 O 1.23180 0.10589 0.95509
 O14 O 0.88055 -0.22084 0.96701
 O15 O 1.10621 0.10335 0.89454
 O16 O 0.87156 0.01582 0.90500
 O17 O 0.89974 0.13819 0.96711
 C18 C 1.13811 0.21456 1.08274
 C19 C 1.12722 -0.11304 1.07225
 C20 C 0.77256 -0.09118 1.08202
 C21 C 0.91410 -0.20620 0.91645
 C22 C 1.20599 0.12852 0.90747
 C23 C 0.86123 0.09413 0.91990
 Zn24 Zn 0.07950 0.92979 0.51826
 Zn25 Zn -0.14038 0.92372 0.52349
 Zn26 Zn 0.06759 1.12866 0.52490
 Zn27 Zn 0.00316 1.00312 0.42532
 O28 O 0.00105 0.99630 0.50008
 O29 O 0.00706 0.82199 0.56168
 O30 O -0.18232 1.00664 0.56188
 O31 O 0.18755 1.15427 0.56755
 O32 O -0.15707 0.81746 0.56985
 O33 O 0.20167 1.00958 0.55709
 O34 O -0.02759 1.15649 0.56585
 O35 O 0.00705 1.11980 0.40016
 O36 O -0.23530 0.86502 0.46436
 O37 O 0.11576 1.22129 0.46758
 O38 O -0.11552 0.89889 0.39501
 O39 O 0.11996 0.99535 0.39651
 O40 O 0.11698 0.88121 0.45824
 C41 C -0.08935 0.78203 0.58169
 C42 C -0.12959 1.10080 0.57769
 C43 C 0.23695 1.09987 0.57710
 C44 C 0.07472 1.20879 0.41813
 C45 C -0.21349 0.85424 0.41345
 C46 C 0.14186 0.92277 0.41016
 O47 O 0.16551 0.46464 0.30677
 O48 O 0.16767 0.64188 0.32384
 C49 C 0.21027 0.73923 0.32678
 O50 O 0.27997 0.79855 0.29147
 O51 O 0.46982 0.80071 0.30951
 C52 C 0.52573 0.75436 0.32278
 O53 O 0.51752 0.67415 0.29701
 O54 O 0.34167 0.50112 0.31877
 C55 C 0.24074 0.45194 0.33189
 O56 O 0.14881 0.48734 0.19654
 O57 O 0.13595 0.65774 0.21262
 C58 C 0.19444 0.72848 0.17842
 O59 O 0.29969 0.77604 0.18105
 O60 O 0.50016 0.79470 0.19840
 C61 C 0.52363 0.73059 0.17358
 O62 O 0.47564 0.63500 0.18492
 O63 O 0.29756 0.46002 0.20646
 C64 C 0.20405 0.44068 0.18365
 Cr65 Cr 0.16046 0.56590 0.25967
 Cr66 Cr 0.38507 0.78703 0.24515
 Cr67 Cr 0.40478 0.57002 0.25165
 O68 O 0.31716 0.64040 0.25156
 O69 O 0.82777 0.54041 0.80376
 O70 O 0.84926 0.37172 0.81514
 C71 C 0.80530 0.27475 0.82322
 O72 O 0.72804 0.20939 0.79202
 O73 O 0.53437 0.19368 0.81060
 C74 C 0.47133 0.23173 0.82368
 O75 O 0.47638 0.31230 0.80098
 O76 O 0.65177 0.48381 0.82800
 C77 C 0.75422 0.54216 0.83560
 O78 O 0.82376 0.52022 0.69135
 O79 O 0.86015 0.35707 0.70235
 C80 C 0.80121 0.27609 0.67373
 O81 O 0.69762 0.22373 0.68048
 O82 O 0.49923 0.20551 0.69876
 C83 C 0.47099 0.27022 0.67711
 O84 O 0.51096 0.36359 0.69273
 O85 O 0.67856 0.54044 0.71879
 C86 C 0.76188 0.56411 0.68767
 Cr87 Cr 0.83460 0.44417 0.75294
 Cr88 Cr 0.61692 0.21364 0.74551
 Cr89 Cr 0.58332 0.42271 0.75987
 O90 O 0.67817 0.35979 0.75207
 C91 C 0.19771 0.30118 0.12221
 C92 C 0.15171 0.35802 0.14139
 H93 H 0.28021 0.31736 0.13618
 H94 H 0.06983 0.34209 0.12638
 C95 C 0.67344 0.86922 0.11840
 C96 C 0.61400 0.76863 0.13169
 H97 H 0.65094 0.92526 0.13596
 H98 H 0.63581 0.71256 0.11353
 C99 C 0.18669 0.84374 0.10581
 C100 C 0.13474 0.75913 0.13688
 H101 H 0.27615 0.88820 0.10842
 H102 H 0.04509 0.71607 0.13546
 C103 C 0.88072 0.69247 0.61891
 C104 C 0.78655 0.64871 0.64738
 H105 H 0.94100 0.66404 0.62442
 H106 H 0.72738 0.67869 0.64306
 C107 C 0.33547 0.13916 0.61378
 C108 C 0.38335 0.23550 0.63383
 H109 H 0.36627 0.08564 0.62639
 H110 H 0.35363 0.28942 0.62038
 C111 C 0.81034 0.14379 0.61164
 C112 C 0.85818 0.24009 0.63309
 H113 H 0.72474 0.09202 0.62150
 H114 H 0.94461 0.29111 0.62456
 C115 C 0.29267 0.18565 0.86671
 C116 C 0.38720 0.17881 0.86637
 H117 H 0.27560 0.22888 0.83429
 H118 H 0.40023 0.12863 0.89590
 C119 C 0.88433 0.70670 0.87777
 C120 C 0.78883 0.61946 0.88103
 H121 H 0.93757 0.71957 0.84189
 H122 H 0.73088 0.60976 0.91420
 C123 C 0.80820 0.13465 0.87984
 C124 C 0.84766 0.23603 0.87023
 H125 H 0.74469 0.07909 0.85233
 H126 H 0.91547 0.29144 0.89580
 C127 C 0.69797 0.79019 0.37370
 C128 C 0.60506 0.79908 0.36978
 H129 H 0.71652 0.74793 0.34169
 H130 H 0.59254 0.85017 0.39856
 C131 C 0.10508 0.29696 0.38008
 C132 C 0.20875 0.37399 0.37696
 H133 H 0.04358 0.29154 0.34910
 H134 H 0.27275 0.37455 0.40470
 C135 C 0.19132 0.88299 0.36888
 C136 C 0.17357 0.78488 0.37131
 H137 H 0.23349 0.93142 0.33336
 H138 H 0.12475 0.73478 0.40496
   
