data_POSCAR
  _audit_creation_date              2014-09-24
  _audit_creation_method            'ToBaCCo'
  _symmetry_space_group_name_H-M    'P1'
  _symmetry_Int_Tables_number       1
  _symmetry_cell_setting            triclinic
  loop_
  _symmetry_equiv_pos_as_xyz
 x,y,z
_cell_length_a 39.0281
_cell_length_b 39.0416
_cell_length_c 38.9794
_cell_angle_alpha 89.885500
_cell_angle_beta 89.873600
_cell_angle_gamma 90.042000
loop_
  _atom_site_label
  _atom_site_type_symbol
  _atom_site_fract_x
  _atom_site_fract_y
  _atom_site_fract_z
C1 C 0.17045 0.16909 0.21419
 C2 C 0.19999 0.15471 0.19915
 C3 C 0.21513 0.16925 0.16963
 C4 C 0.20005 0.19870 0.15516
 C5 C 0.17061 0.21351 0.16966
 C6 C 0.15605 0.19852 0.19906
 H7 H 0.21133 0.13208 0.21054
 H8 H 0.21127 0.21029 0.13251
 H9 H 0.13337 0.20998 0.21023
 C10 C -0.17011 0.82980 0.21591
 C11 C -0.19954 0.84426 0.20080
 C12 C -0.21443 0.82978 0.17140
 C13 C -0.19954 0.80039 0.15695
 C14 C -0.17021 0.78543 0.17145
 C15 C -0.15570 0.80031 0.20086
 H16 H -0.21104 0.86690 0.21194
 H17 H -0.21087 0.78907 0.13433
 H18 H -0.13311 0.78877 0.21205
 C19 C -0.17012 0.16991 -0.21540
 C20 C -0.19962 0.15542 -0.20025
 C21 C -0.21471 0.16984 -0.17074
 C22 C -0.19965 0.19929 -0.15637
 C23 C -0.17025 0.21424 -0.17095
 C24 C -0.15572 0.19937 -0.20037
 H25 H -0.21095 0.13278 -0.21156
 H26 H -0.21084 0.21079 -0.13371
 H27 H -0.13308 0.21091 -0.21160
 C28 C 0.17127 0.83086 -0.21390
 C29 C 0.20070 0.84535 -0.19907
 C30 C 0.21576 0.83087 -0.16957
 C31 C 0.20064 0.80139 -0.15504
 C32 C 0.17122 0.78652 -0.16950
 C33 C 0.15677 0.80149 -0.19888
 H34 H 0.21189 0.86798 -0.21067
 H35 H 0.21180 0.78983 -0.13240
 H36 H 0.13412 0.79017 -0.21018
 C37 C 0.17021 1.17021 0.78525
 C38 C 0.19961 1.15574 0.80015
 C39 C 0.21454 1.17023 0.82953
 C40 C 0.19960 1.19959 0.84403
 C41 C 0.17020 1.21449 0.82956
 C42 C 0.15571 1.19957 0.80019
 H43 H 0.21097 1.13315 0.78878
 H44 H 0.21095 1.21094 0.86664
 H45 H 0.13309 1.21090 0.78886
 C46 C 0.83099 0.82953 0.78563
 C47 C 0.80155 0.84394 0.80076
 C48 C 0.78660 0.82941 0.83020
 C49 C 0.80144 0.80001 0.84471
 C50 C 0.83089 0.78494 0.83024
 C51 C 0.84541 0.80003 0.80069
 H52 H 0.79006 0.86658 0.78958
 H53 H 0.78987 0.78883 0.86739
 H54 H 0.86804 0.78869 0.78929
 C55 C 0.16894 0.83019 1.21493
 C56 C 0.19843 0.84465 1.19979
 C57 C 0.21340 0.83014 1.17039
 C58 C 0.19851 0.80076 1.15596
 C59 C 0.16911 0.78582 1.17051
 C60 C 0.15453 0.80071 1.19992
 H61 H 0.20993 0.86728 1.21092
 H62 H 0.20991 0.78942 1.13334
 H63 H 0.13189 0.78918 1.21115
 C64 C 0.83043 1.16999 1.21491
 C65 C 0.80100 1.15558 1.19985
 C66 C 0.78614 1.17011 1.17044
 C67 C 0.80105 1.19952 1.15591
 C68 C 0.83048 1.21459 1.17032
 C69 C 0.84491 1.19950 1.19982
 H70 H 0.78945 1.13292 1.21104
 H71 H 0.78955 1.21071 1.13326
 H72 H 0.86754 1.21085 1.21116
 N73 N 0.53651 0.96325 0.93933
 N74 N 0.56269 0.95897 0.91827
 N75 N 0.46426 0.93954 0.96309
 N76 N 0.43814 0.91848 0.95886
 N77 N 0.46439 0.96332 0.93922
 N78 N 0.43834 0.95911 0.91808
 N79 N 0.53638 0.93948 0.96321
 N80 N 0.56244 0.91835 0.95906
 C81 C 0.57856 0.93085 0.93092
 C82 C 0.42227 0.93103 0.93067
 N83 N 0.46397 0.96334 1.06075
 N84 N 0.43778 0.95913 1.08183
 N85 N 0.53614 0.93949 1.03709
 N86 N 0.56218 0.91838 1.04143
 N87 N 0.53608 0.96328 1.06086
 N88 N 0.56209 0.95903 1.08204
 N89 N 0.46403 0.93956 1.03697
 N90 N 0.43788 0.91850 1.04121
 Mn91 Mn 0.50020 0.93910 1.00009
 C92 C 0.42181 0.93105 1.06929
 C93 C 0.57807 0.93091 1.06958
 N94 N 0.46454 1.03710 0.93907
 N95 N 0.43849 1.04133 0.91795
 N96 N 0.53661 1.06083 0.96294
 N97 N 0.56273 1.08193 0.95864
 N98 N 0.53665 1.03703 0.93918
 N99 N 0.56280 1.04128 0.91804
 N100 N 0.46449 1.06089 0.96285
 N101 N 0.43841 1.08196 0.95857
 Mn102 Mn 0.50053 1.00018 0.93878
 C103 C 0.42250 1.06942 0.93045
 C104 C 0.57877 1.06938 0.93052
 N105 N 0.53618 1.03705 1.06072
 N106 N 0.56221 1.04125 1.08186
 N107 N 0.46417 1.06090 1.03675
 N108 N 0.43807 1.08199 1.04094
 N109 N 0.46406 1.03710 1.06061
 N110 N 0.43790 1.04134 1.08169
 N111 N 0.53630 1.06083 1.03685
 N112 N 0.56243 1.08189 1.04108
 Mn113 Mn 0.50007 1.00019 1.06115
 Mn114 Mn 0.50040 1.06128 0.99985
 Cl115 Cl 0.50030 1.00019 0.99997
 C116 C 0.57828 1.06933 1.06927
 C117 C 0.42198 1.06945 1.06908
 N118 N -0.06107 0.46357 0.03701
 N119 N -0.08216 0.43743 0.04123
 N120 N -0.03733 0.53557 0.06103
 N121 N -0.04157 0.56156 0.08222
 N122 N -0.06109 0.53569 0.03723
 N123 N -0.08216 0.56177 0.04156
 N124 N -0.03730 0.46349 0.06079
 N125 N -0.04154 0.43732 0.08187
 C126 C -0.06962 0.42136 0.06933
 C127 C -0.06964 0.57761 0.06974
 N128 N 0.06028 0.53578 0.03714
 N129 N 0.08131 0.56191 0.04140
 N130 N 0.03650 0.46354 0.06074
 N131 N 0.04077 0.43735 0.08178
 N132 N 0.06032 0.46371 0.03689
 N133 N 0.08146 0.43766 0.04103
 N134 N 0.03645 0.53564 0.06098
 N135 N 0.04061 0.56166 0.08213
 Mn136 Mn -0.00042 0.49955 0.06130
 C137 C 0.06870 0.57775 0.06958
 C138 C 0.06892 0.42151 0.06913
 N139 N -0.06098 0.53607 -0.03671
 N140 N -0.08206 0.56217 -0.04090
 N141 N -0.03713 0.46410 -0.06075
 N142 N -0.04131 0.43810 -0.08195
 N143 N -0.06096 0.46395 -0.03692
 N144 N -0.08203 0.43785 -0.04124
 N145 N -0.03713 0.53619 -0.06053
 N146 N -0.04132 0.56236 -0.08159
 Mn147 Mn -0.06145 0.49982 0.00015
 C148 C -0.06945 0.57827 -0.06902
 C149 C -0.06944 0.42202 -0.06944
 N150 N 0.06043 0.46411 -0.03696
 N151 N 0.08152 0.43805 -0.04125
 N152 N 0.03667 0.53630 -0.06054
 N153 N 0.04100 0.56249 -0.08159
 N154 N 0.06041 0.53618 -0.03672
 N155 N 0.08154 0.56227 -0.04088
 N156 N 0.03668 0.46420 -0.06077
 N157 N 0.04095 0.43818 -0.08193
 Mn158 Mn 0.06076 0.49995 0.00009
 Mn159 Mn -0.00023 0.50020 -0.06107
 Cl160 Cl -0.00034 0.49988 0.00012
 C161 C 0.06903 0.42218 -0.06941
 C162 C 0.06910 0.57839 -0.06897
 N163 N 0.96289 -0.06063 0.53626
 N164 N 0.95873 -0.08172 0.56244
 N165 N 0.93892 -0.03702 0.46406
 N166 N 0.91779 -0.04134 0.43801
 N167 N 0.96272 -0.06078 0.46407
 N168 N 0.95844 -0.08193 0.43804
 N169 N 0.93907 -0.03689 0.53629
 N170 N 0.91803 -0.04117 0.56252
 C171 C 0.93064 -0.06924 0.57853
 C172 C 0.93031 -0.06946 0.42208
 N173 N 0.96271 0.06058 0.46360
 N174 N 0.95845 0.08164 0.43742
 N175 N 0.93904 0.03692 0.53599
 N176 N 0.91797 0.04121 0.56217
 N177 N 0.96283 0.06072 0.53580
 N178 N 0.95861 0.08188 0.56185
 N179 N 0.93891 0.03679 0.46376
 N180 N 0.91778 0.04100 0.43768
 Mn181 Mn 0.93856 -0.00005 0.50002
 C182 C 0.93032 0.06909 0.42156
 C183 C 0.93052 0.06936 0.57801
 N184 N 1.03651 -0.06071 0.46377
 N185 N 1.04069 -0.08185 0.43771
 N186 N 1.06045 -0.03673 0.53575
 N187 N 1.08163 -0.04086 0.56178
 N188 N 1.03668 -0.06055 0.53598
 N189 N 1.04103 -0.08156 0.56219
 N190 N 1.06029 -0.03690 0.46357
 N191 N 1.08133 -0.04117 0.43737
 Mn192 Mn 0.99970 -0.06108 0.50002
 C193 C 1.06876 -0.06931 0.42155
 C194 C 1.06918 -0.06893 0.57798
 N195 N 1.03664 0.06077 0.53545
 N196 N 1.04091 0.08188 0.56151
 N197 N 1.06029 0.03684 0.46326
 N198 N 1.08141 0.04104 0.43709
 N199 N 1.03652 0.06063 0.46323
 N200 N 1.04080 0.08169 0.43702
 N201 N 1.06043 0.03701 0.53544
 N202 N 1.08156 0.04127 0.56148
 Mn203 Mn 0.99967 0.06109 0.49952
 Mn204 Mn 1.06077 0.00005 0.49950
 Cl205 Cl 0.99967 0.00001 0.49977
 C206 C 1.06904 0.06937 0.57744
 C207 C 1.06891 0.06911 0.42101
 C208 C 1.12720 0.12643 0.30123
 N209 N 1.15554 0.11236 0.28679
 N210 N 1.16945 0.12608 0.25870
 C211 C 1.15565 0.15444 0.24385
 N212 N 1.12721 0.16838 0.25845
 N213 N 1.11328 0.15468 0.28654
 C214 C 1.11195 0.11145 0.33231
 N215 N 1.08368 0.12565 0.34683
 N216 N 1.06993 0.11215 0.37511
 C217 C 1.08396 0.08397 0.38987
 N218 N 1.11219 0.06973 0.37536
 N219 N 1.12595 0.08323 0.34709
 C220 C 0.87262 -0.12738 0.30276
 N221 N 0.84437 -0.11336 0.28819
 N222 N 0.83063 -0.12715 0.26017
 C223 C 0.84453 -0.15554 0.24551
 N224 N 0.87288 -0.16944 0.26025
 N225 N 0.88664 -0.15567 0.28827
 C226 C 0.88768 -0.11226 0.33374
 N227 N 0.91591 -0.12634 0.34838
 N228 N 0.92951 -0.11268 0.37654
 C229 C 0.91535 -0.08447 0.39109
 N230 N 0.88715 -0.07036 0.37647
 N231 N 0.87356 -0.08402 0.34831
 C232 C 0.87279 0.12719 0.69760
 N233 N 0.84450 0.11313 0.71223
 N234 N 0.83071 0.12688 0.74029
 C235 C 0.84459 0.15527 0.75495
 N236 N 0.87298 0.16922 0.74015
 N237 N 0.88679 0.15548 0.71208
 C238 C 0.88789 0.11210 0.66655
 N239 N 0.91613 0.12623 0.65180
 N240 N 0.92973 0.11259 0.62357
 C241 C 0.91559 0.08436 0.60909
 N242 N 0.88739 0.07020 0.62383
 N243 N 0.87378 0.08383 0.65205
 C244 C 1.12745 -0.12595 0.69760
 N245 N 1.11349 -0.15419 0.71239
 N246 N 1.12736 -0.16782 0.74046
 C247 C 1.15575 -0.15377 0.75489
 N248 N 1.16964 -0.12546 0.74001
 N249 N 1.15578 -0.11181 0.71193
 C250 C 1.11223 -0.11104 0.66656
 N251 N 1.12625 -0.08284 0.65166
 N252 N 1.11250 -0.06941 0.62342
 C253 C 1.08426 -0.08370 0.60906
 N254 N 1.07022 -0.11187 0.62395
 N255 N 1.08396 -0.12530 0.65219
 C256 C 0.30224 1.12682 1.12678
 N257 N 0.28767 1.15508 1.11274
 N258 N 0.25957 1.16872 1.12653
 C259 C 0.24482 1.15471 1.15494
 N260 N 0.25955 1.12634 1.16886
 N261 N 0.28766 1.11268 1.15509
 C262 C 0.33333 1.11185 1.11169
 N263 N 0.34794 1.08362 1.12584
 N264 N 0.37620 1.07011 1.11224
 C265 C 0.39087 1.08434 1.08401
 N266 N 0.37628 1.11253 1.06982
 N267 N 0.34801 1.12605 1.08342
 C268 C 0.30274 0.87352 0.87305
 N269 N 0.28823 0.88759 0.84475
 N270 N 0.26017 0.87386 0.83104
 C271 C 0.24540 0.84549 0.84503
 N272 N 0.26008 0.83154 0.87344
 N273 N 0.28814 0.84525 0.88716
 C274 C 0.33377 0.88855 0.88810
 N275 N 0.34832 0.87440 0.91638
 N276 N 0.37653 0.88795 0.92996
 C277 C 0.39121 0.91613 0.91573
 N278 N 0.37669 0.93031 0.88748
 N279 N 0.34847 0.91676 0.87390
 C280 C 0.69731 0.87326 1.12766
 N281 N 0.71188 0.84497 1.11368
 N282 N 0.73987 0.83124 1.12752
 C283 C 0.75444 0.84521 1.15589
 N284 N 0.73977 0.87356 1.16978
 N285 N 0.71178 0.88731 1.15596
 C286 C 0.66635 0.88832 1.11249
 N287 N 0.65171 0.91655 1.12654
 N288 N 0.62356 0.93014 1.11285
 C289 C 0.60905 0.91597 1.08462
 N290 N 0.62368 0.88777 1.07054
 N291 N 0.65183 0.87418 1.08423
 C292 C 0.69835 1.12707 0.87240
 N293 N 0.71290 1.15535 0.88635
 N294 N 0.74095 1.16909 0.87246
 C295 C 0.75566 1.15518 0.84404
 N296 N 0.74093 1.12679 0.83022
 N297 N 0.71288 1.11303 0.84409
 C298 C 0.66731 1.11199 0.88760
 N299 N 0.65269 1.08375 0.87356
 N300 N 0.62447 1.07016 0.88726
 C301 C 0.60985 1.08432 0.91549
 N302 N 0.62446 1.11254 0.92956
 N303 N 0.65268 1.12613 0.91586
 C304 C 0.12693 0.30194 0.12632
 N305 N 0.15528 0.28757 0.11220
 N306 N 0.16909 0.25951 0.12589
 C307 C 0.15513 0.24469 0.15425
 N308 N 0.12671 0.25917 0.16828
 N309 N 0.11289 0.28722 0.15461
 C310 C 0.11177 0.33297 0.11136
 N311 N 0.08348 0.34739 0.12562
 N312 N 0.06980 0.37562 0.11215
 C313 C 0.08393 0.39043 0.08394
 N314 N 0.11218 0.37603 0.06965
 N315 N 0.12587 0.34780 0.08313
 C316 C -0.12688 0.30264 -0.12741
 N317 N -0.11278 0.28820 -0.15575
 N318 N -0.12650 0.26016 -0.16952
 C319 C -0.15485 0.24543 -0.15551
 N320 N -0.16885 0.25998 -0.12711
 N321 N -0.15516 0.28801 -0.11333
 C322 C -0.11186 0.33364 -0.11228
 N323 N -0.12606 0.34812 -0.08398
 N324 N -0.11252 0.37630 -0.07031
 C325 C -0.08431 0.39101 -0.08447
 N326 N -0.07009 0.37655 -0.11275
 N327 N -0.08362 0.34837 -0.12641
 C328 C 0.12734 0.69805 -0.12616
 N329 N 0.11342 0.71276 -0.15443
 N330 N 0.12731 0.74083 -0.16811
 C331 C 0.15567 0.75533 -0.15408
 N332 N 0.16952 0.74052 -0.12574
 N333 N 0.15564 0.71245 -0.11204
 C334 C 0.11212 0.66700 -0.11120
 N335 N 0.12610 0.65218 -0.08298
 N336 N 0.11236 0.62393 -0.06951
 C337 C 0.08416 0.60949 -0.08378
 N338 N 0.07014 0.62429 -0.11198
 N339 N 0.08388 0.65254 -0.12545
 C340 C -0.12698 0.69700 0.12780
 N341 N -0.15520 0.71166 0.11380
 N342 N -0.16885 0.73971 0.12761
 C343 C -0.15486 0.75424 0.15598
 N344 N -0.12657 0.73948 0.16991
 N345 N -0.11290 0.71143 0.15611
 C346 C -0.11201 0.66600 0.11265
 N347 N -0.08383 0.65126 0.12672
 N348 N -0.07032 0.62307 0.11303
 C349 C -0.08452 0.60862 0.08479
 N350 N -0.11267 0.62334 0.07069
 N351 N -0.12618 0.65152 0.08438
 C352 C 1.12673 0.12686 0.69686
 N353 N 1.15501 0.11280 0.71137
 N354 N 1.16876 0.12652 0.73942
 C355 C 1.15479 0.15482 0.75409
 N356 N 1.12645 0.16880 0.73949
 N357 N 1.11269 0.15510 0.71144
 C358 C 1.11167 0.11185 0.66586
 N359 N 1.08344 0.12599 0.65129
 N360 N 1.06984 0.11244 0.62308
 C361 C 1.08399 0.08427 0.60845
 N362 N 1.11218 0.07010 0.62301
 N363 N 1.12579 0.08365 0.65121
 C364 C 0.87352 -0.12736 0.69847
 N365 N 0.84527 -0.11344 0.71318
 N366 N 0.83162 -0.12732 0.74130
 C367 C 0.84560 -0.15571 0.75593
 N368 N 0.87396 -0.16952 0.74106
 N369 N 0.88763 -0.15565 0.71293
 C370 C 0.88845 -0.11216 0.66735
 N371 N 0.91667 -0.12616 0.65255
 N372 N 0.93012 -0.11244 0.62423
 C373 C 0.91584 -0.08426 0.60971
 N374 N 0.88765 -0.07023 0.62449
 N375 N 0.87420 -0.08394 0.65281
 C376 C 1.12618 -0.12705 0.30190
 N377 N 1.11213 -0.15533 0.28745
 N378 N 1.12589 -0.16908 0.25938
 C379 C 1.15427 -0.15516 0.24455
 N380 N 1.16819 -0.12677 0.25917
 N381 N 1.15445 -0.11300 0.28724
 C382 C 1.11116 -0.11197 0.33294
 N383 N 1.12532 -0.08372 0.34743
 N384 N 1.11178 -0.07011 0.37568
 C385 C 1.08361 -0.08427 0.39046
 N386 N 1.06941 -0.11249 0.37599
 N387 N 1.08295 -0.12610 0.34773
 C388 C 0.87292 0.12697 0.30192
 N389 N 0.84466 0.11300 0.28734
 N390 N 0.83101 0.12685 0.25927
 C391 C 0.84500 0.15525 0.24456
 N392 N 0.87337 0.16910 0.25931
 N393 N 0.88704 0.15526 0.28738
 C394 C 0.88790 0.11182 0.33297
 N395 N 0.91613 0.12589 0.34758
 N396 N 0.92966 0.11224 0.37582
 C397 C 0.91542 0.08404 0.39047
 N398 N 0.88721 0.06994 0.37588
 N399 N 0.87369 0.08359 0.34763
 C400 C 0.12670 0.30283 -0.12702
 N401 N 0.11269 0.28830 -0.15531
 N402 N 0.12646 0.26027 -0.16902
 C403 C 0.15477 0.24563 -0.15503
 N404 N 0.16870 0.26025 -0.12668
 N405 N 0.15495 0.28829 -0.11294
 C406 C 0.11163 0.33381 -0.11198
 N407 N 0.12572 0.34839 -0.08374
 N408 N 0.11212 0.37658 -0.07016
 C409 C 0.08396 0.39119 -0.08435
 N410 N 0.06984 0.37663 -0.11257
 N411 N 0.08344 0.34844 -0.12615
 C412 C -0.12696 0.30163 0.12727
 N413 N -0.15520 0.28702 0.11331
 N414 N -0.16887 0.25893 0.12717
 C415 C -0.15491 0.24425 0.15557
 N416 N -0.12656 0.25902 0.16941
 N417 N -0.11287 0.28711 0.15557
 C418 C -0.11199 0.33270 0.11211
 N419 N -0.08378 0.34738 0.12616
 N420 N -0.07027 0.37564 0.11250
 C421 C -0.08449 0.39025 0.08430
 N422 N -0.11267 0.37558 0.07021
 N423 N -0.12618 0.34731 0.08388
 C424 C -0.12669 0.69793 -0.12682
 N425 N -0.11253 0.71246 -0.15514
 N426 N -0.12618 0.74054 -0.16895
 C427 C -0.15456 0.75529 -0.15505
 N428 N -0.16858 0.74059 -0.12661
 N429 N -0.15495 0.71252 -0.11279
 C430 C -0.11174 0.66687 -0.11169
 N431 N -0.12600 0.65223 -0.08343
 N432 N -0.11251 0.62397 -0.06980
 C433 C -0.08430 0.60936 -0.08395
 N434 N -0.07002 0.62399 -0.11218
 N435 N -0.08350 0.65224 -0.12581
 C436 C 0.12591 0.69732 0.12715
 N437 N 0.11178 0.71180 0.15546
 N438 N 0.12544 0.73988 0.16916
 C439 C 0.15377 0.75462 0.15513
 N440 N 0.16781 0.74004 0.12676
 N441 N 0.15417 0.71196 0.11304
 C442 C 0.11096 0.66628 0.11213
 N443 N 0.12518 0.65175 0.08387
 N444 N 0.11170 0.62351 0.07030
 C445 C 0.08352 0.60879 0.08452
 N446 N 0.06927 0.62330 0.11275
 N447 N 0.08276 0.65154 0.12632
 C448 C 0.30299 1.12688 0.87288
 N449 N 0.28843 1.15512 0.88695
 N450 N 0.26036 1.16882 0.87323
 C451 C 0.24572 1.15485 0.84491
 N452 N 0.26038 1.12655 0.83092
 N453 N 0.28845 1.11283 0.84462
 C454 C 0.33402 1.11187 0.88790
 N455 N 0.34866 1.08368 0.87376
 N456 N 0.37689 1.07014 0.88733
 C457 C 0.39147 1.08431 0.91552
 N458 N 0.37684 1.11247 0.92969
 N459 N 0.34862 1.12602 0.91612
 C460 C 0.30198 0.87355 1.12683
 N461 N 0.28736 0.88762 1.15509
 N462 N 0.25925 0.87389 1.16885
 C463 C 0.24462 0.84555 1.15491
 N464 N 0.25934 0.83157 1.12658
 N465 N 0.28745 0.84529 1.11281
 C466 C 0.33308 0.88858 1.11178
 N467 N 0.34779 0.87443 1.08358
 N468 N 0.37609 0.88799 1.07002
 C469 C 0.39068 0.91616 1.08419
 N470 N 0.37598 0.93034 1.11236
 N471 N 0.34768 0.91678 1.12592
 C472 C 0.69774 1.12673 1.12696
 N473 N 0.71220 1.11266 1.15529
 N474 N 0.74025 1.12637 1.16904
 C475 C 0.75497 1.15471 1.15502
 N476 N 0.74041 1.16870 1.12662
 N477 N 0.71236 1.15500 1.11286
 C478 C 0.66674 1.11173 1.11189
 N479 N 0.65223 1.12590 1.08360
 N480 N 0.62402 1.11237 1.07000
 C481 C 0.60931 1.08420 1.08422
 N482 N 0.62381 1.06999 1.11248
 N483 N 0.65202 1.08353 1.12608
 C484 C 0.69815 0.87300 0.87361
 N485 N 0.71282 0.88703 0.84529
 N486 N 0.74088 0.87324 0.83159
 C487 C 0.75542 0.84487 0.84563
 N488 N 0.74065 0.83092 0.87402
 N489 N 0.71258 0.84470 0.88775
 C490 C 0.66711 0.88811 0.88860
 N491 N 0.65234 0.87402 0.91687
 N492 N 0.62410 0.88767 0.93038
 C493 C 0.60963 0.91587 0.91608
 N494 N 0.62439 0.92999 0.88785
 N495 N 0.65263 0.91635 0.87434
   
