data_POSCAR
  _audit_creation_date              2014-09-24
  _audit_creation_method            'ToBaCCo'
  _symmetry_space_group_name_H-M    'P1'
  _symmetry_Int_Tables_number       1
  _symmetry_cell_setting            triclinic
  loop_
  _symmetry_equiv_pos_as_xyz
 x,y,z
_cell_length_a 44.7537
_cell_length_b 44.7546
_cell_length_c 31.1884
_cell_angle_alpha 89.988200
_cell_angle_beta 89.974800
_cell_angle_gamma 89.695500
loop_
  _atom_site_label
  _atom_site_type_symbol
  _atom_site_fract_x
  _atom_site_fract_y
  _atom_site_fract_z
O1 O 0.02897 0.28332 -0.03949
 O2 O -0.03026 0.28146 0.04340
 O3 O 0.02864 0.28257 0.04389
 O4 O -0.02985 0.28251 -0.03989
 O5 O -0.02844 0.23323 -0.04067
 O6 O 0.02931 0.23328 0.04255
 O7 O -0.02863 0.23226 0.04221
 O8 O 0.02942 0.23403 -0.04044
 Cu9 Cu -0.00071 0.28746 0.00211
 Cu10 Cu 0.00054 0.22833 0.00084
 C11 C 0.03943 0.25881 -0.05386
 C12 C -0.03988 0.25637 0.05658
 C13 C 0.03917 0.25780 0.05715
 C14 C -0.03934 0.25772 -0.05422
 O15 O 0.47032 0.78336 0.54069
 O16 O 0.52910 0.78254 0.45720
 O17 O 0.47024 0.78281 0.45736
 O18 O 0.52920 0.78302 0.54055
 O19 O 0.52875 0.73374 0.54101
 O20 O 0.47070 0.73352 0.45820
 O21 O 0.52866 0.73325 0.45804
 O22 O 0.47079 0.73407 0.54116
 Cu23 Cu 0.49972 0.78793 0.49889
 Cu24 Cu 0.49973 0.72877 0.49967
 C25 C 0.46031 0.75871 0.55481
 C26 C 0.53911 0.75761 0.44372
 C27 C 0.46020 0.75798 0.44394
 C28 C 0.53924 0.75826 0.55462
 O29 O 1.03072 0.71922 0.04055
 O30 O 0.97175 0.71823 -0.04266
 O31 O 1.03061 0.71960 -0.04270
 O32 O 0.97179 0.71786 0.04075
 O33 O 0.97090 0.76714 0.04102
 O34 O 1.02874 0.76880 -0.04204
 O35 O 0.97085 0.76752 -0.04199
 O36 O 1.02885 0.76842 0.04081
 Cu37 Cu 1.00133 0.71374 -0.00104
 Cu38 Cu 0.99967 0.77283 -0.00049
 C39 C 1.04022 0.74416 0.05447
 C40 C 0.96107 0.74287 -0.05623
 C41 C 1.04005 0.74466 -0.05625
 C42 C 0.96111 0.74236 0.05478
 O43 O 0.52974 0.21614 0.54249
 O44 O 0.47105 0.21644 0.45896
 O45 O 0.52991 0.21622 0.45916
 O46 O 0.47089 0.21637 0.54231
 O47 O 0.47129 0.26566 0.54218
 O48 O 0.52938 0.26551 0.45942
 O49 O 0.47144 0.26573 0.45922
 O50 O 0.52920 0.26543 0.54237
 Cu51 Cu 0.50040 0.21129 0.50071
 Cu52 Cu 0.50032 0.27046 0.50080
 C53 C 0.53967 0.24089 0.55635
 C54 C 0.46103 0.24129 0.44518
 C55 C 0.53992 0.24099 0.44546
 C56 C 0.46084 0.24120 0.55611
 O57 O 0.71722 -0.03006 0.04058
 O58 O 0.71850 0.02959 -0.04168
 O59 O 0.71771 -0.02929 -0.04278
 O60 O 0.71772 0.02878 0.04161
 O61 O 0.76701 0.02759 0.04208
 O62 O 0.76700 -0.02969 -0.04180
 O63 O 0.76772 0.02823 -0.04081
 O64 O 0.76651 -0.03030 0.04117
 Cu65 Cu 0.71279 -0.00017 -0.00066
 Cu66 Cu 0.77193 -0.00113 0.00021
 C67 C 0.74182 -0.04051 0.05462
 C68 C 0.74350 0.03941 -0.05493
 C69 C 0.74249 -0.03962 -0.05634
 C70 C 0.74251 0.03832 0.05588
 O71 O 0.21665 0.53031 0.45867
 O72 O 0.21704 0.47178 0.54251
 O73 O 0.21683 0.53066 0.54201
 O74 O 0.21684 0.47145 0.45918
 O75 O 0.26613 0.47179 0.45914
 O76 O 0.26612 0.53012 0.54157
 O77 O 0.26632 0.47214 0.54209
 O78 O 0.26595 0.52973 0.45860
 Cu79 Cu 0.21184 0.50106 0.50063
 Cu80 Cu 0.27101 0.50094 0.50033
 C81 C 0.24139 0.54020 0.44466
 C82 C 0.24189 0.46175 0.55624
 C83 C 0.24161 0.54071 0.55556
 C84 C 0.24164 0.46132 0.44536
 O85 O 0.28068 0.97142 -0.04366
 O86 O 0.28214 1.02999 0.04013
 O87 O 0.28200 0.97115 0.03966
 O88 O 0.28082 1.03041 -0.04318
 O89 O 0.23161 1.03029 -0.04134
 O90 O 0.23272 0.97199 0.04107
 O91 O 0.23286 1.02987 0.04156
 O92 O 0.23147 0.97230 -0.04185
 Cu93 Cu 0.28640 1.00070 -0.00198
 Cu94 Cu 0.22731 1.00115 -0.00003
 C95 C 0.25567 0.96150 -0.05666
 C96 C 0.25758 1.04010 0.05484
 C97 C 0.25740 0.96129 0.05419
 C98 C 0.25586 1.04083 -0.05599
 O99 O 0.78354 0.46931 0.45900
 O100 O 0.78337 0.52824 0.54217
 O101 O 0.78331 0.46938 0.54233
 O102 O 0.78350 0.52814 0.45882
 O103 O 0.73420 0.52792 0.45882
 O104 O 0.73402 0.47012 0.54197
 O105 O 0.73408 0.52807 0.54180
 O106 O 0.73424 0.47002 0.45903
 Cu107 Cu 0.78843 0.49874 0.50061
 Cu108 Cu 0.72925 0.49906 0.50040
 C109 C 0.75877 0.45942 0.44516
 C110 C 0.75855 0.53842 0.55582
 C111 C 0.75848 0.45951 0.55604
 C112 C 0.75872 0.53823 0.44488
 C113 C 0.23540 0.19685 0.19272
 C114 C 0.20776 0.20776 0.17893
 C115 C 0.19666 0.23521 0.19317
 C116 C 0.21350 0.25254 0.22212
 C117 C 0.24166 0.24170 0.23646
 C118 C 0.25269 0.21371 0.22172
 C119 C 0.28060 0.20339 0.23634
 C120 C 0.29744 0.22025 0.26498
 C121 C 0.28695 0.24802 0.27995
 C122 C 0.25881 0.25888 0.26557
 C123 C 0.20301 0.28031 0.23708
 C124 C 0.21988 0.29720 0.26566
 C125 C 0.24779 0.28689 0.28027
 C126 C 0.26511 0.30375 0.30924
 C127 C 0.29271 0.29281 0.32312
 C128 C 0.30377 0.26532 0.30896
 H129 H 0.28964 0.18215 0.22572
 H130 H 0.31879 0.21134 0.27532
 H131 H 0.18165 0.28920 0.22676
 H132 H 0.21085 0.31844 0.27626
 H133 H 0.19463 0.19461 0.15663
 H134 H 0.30584 0.30594 0.34544
 C135 C 0.73498 0.69488 0.30703
 C136 C 0.70740 0.70582 0.32104
 C137 C 0.69626 0.73325 0.30681
 C138 C 0.71298 0.75050 0.27758
 C139 C 0.74109 0.73963 0.26303
 C140 C 0.75218 0.71167 0.27781
 C141 C 0.78006 0.70135 0.26304
 C142 C 0.79682 0.71818 0.23424
 C143 C 0.78627 0.74590 0.21922
 C144 C 0.75814 0.75675 0.23371
 C145 C 0.70243 0.77823 0.26256
 C146 C 0.71918 0.79505 0.23374
 C147 C 0.74706 0.78472 0.21896
 C148 C 0.76428 0.80155 0.18982
 C149 C 0.79188 0.79063 0.17585
 C150 C 0.80304 0.76320 0.19009
 H151 H 0.78914 0.68014 0.27369
 H152 H 0.81817 0.70928 0.22381
 H153 H 0.68110 0.78714 0.27302
 H154 H 0.71011 0.81627 0.22311
 H155 H 0.69436 0.69272 0.34355
 H156 H 0.80496 0.80378 0.15346
 C157 C 0.80442 0.23318 0.19302
 C158 C 0.79354 0.20568 0.17911
 C159 C 0.76607 0.19485 0.19325
 C160 C 0.74871 0.21182 0.22226
 C161 C 0.75953 0.23984 0.23671
 C162 C 0.78753 0.25061 0.22204
 C163 C 0.79781 0.27841 0.23673
 C164 C 0.78089 0.29539 0.26536
 C165 C 0.75311 0.28517 0.28025
 C166 C 0.74230 0.25714 0.26581
 C167 C 0.72093 0.20159 0.23714
 C168 C 0.70401 0.21858 0.26575
 C169 C 0.71428 0.24638 0.28045
 C170 C 0.69737 0.26383 0.30942
 C171 C 0.70825 0.29132 0.32334
 C172 C 0.73573 0.30214 0.30923
 H173 H 0.81905 0.28724 0.22617
 H174 H 0.78976 0.31666 0.27575
 H175 H 0.71206 0.18033 0.22675
 H176 H 0.68276 0.20975 0.27630
 H177 H 0.80669 0.19245 0.15674
 H178 H 0.69506 0.30457 0.34565
 C179 C 0.30299 0.73504 0.30730
 C180 C 0.29194 0.70764 0.32140
 C181 C 0.26445 0.69689 0.30723
 C182 C 0.24724 0.71384 0.27801
 C183 C 0.25823 0.74176 0.26338
 C184 C 0.28625 0.75244 0.27807
 C185 C 0.29670 0.78013 0.26319
 C186 C 0.27995 0.79709 0.23434
 C187 C 0.25217 0.78694 0.21941
 C188 C 0.24117 0.75902 0.23403
 C189 C 0.21945 0.70369 0.26308
 C190 C 0.20268 0.72066 0.23424
 C191 C 0.21314 0.74835 0.21936
 C192 C 0.19639 0.76578 0.19016
 C193 C 0.20747 0.79317 0.17606
 C194 C 0.23496 0.80391 0.19021
 H195 H 0.31796 0.78890 0.27376
 H196 H 0.28895 0.81827 0.22381
 H197 H 0.21045 0.68251 0.27361
 H198 H 0.18142 0.71190 0.22367
 H199 H 0.30499 0.69443 0.34389
 H200 H 0.19441 0.80640 0.15360
 C201 C 0.80387 0.23395 0.80907
 C202 C 0.79307 0.20647 0.82323
 C203 C 0.76561 0.19552 0.80927
 C204 C 0.74818 0.21235 0.78020
 C205 C 0.75891 0.24036 0.76550
 C206 C 0.78690 0.25124 0.77999
 C207 C 0.79711 0.27901 0.76506
 C208 C 0.78014 0.29586 0.73635
 C209 C 0.75237 0.28552 0.72162
 C210 C 0.74163 0.25752 0.73631
 C211 C 0.72041 0.20201 0.76547
 C212 C 0.70344 0.21887 0.73676
 C213 C 0.71364 0.24665 0.72183
 C214 C 0.69668 0.26396 0.69276
 C215 C 0.70749 0.29144 0.67859
 C216 C 0.73495 0.30237 0.69255
 H217 H 0.81834 0.28793 0.77548
 H218 H 0.78896 0.31711 0.72578
 H219 H 0.71161 0.18076 0.77605
 H220 H 0.68220 0.20996 0.72634
 H221 H 0.80630 0.19336 0.84564
 H222 H 0.69426 0.30457 0.65620
 C223 C 0.30274 0.73687 0.69070
 C224 C 0.29190 0.70935 0.67679
 C225 C 0.26438 0.69853 0.69077
 C226 C 0.24693 0.71555 0.71962
 C227 C 0.25769 0.74361 0.73404
 C228 C 0.28574 0.75436 0.71953
 C229 C 0.29596 0.78219 0.73420
 C230 C 0.27895 0.79922 0.76268
 C231 C 0.25115 0.78900 0.77745
 C232 C 0.24038 0.76094 0.76301
 C233 C 0.21912 0.70532 0.73440
 C234 C 0.20213 0.72234 0.76291
 C235 C 0.21235 0.75016 0.77758
 C236 C 0.19538 0.76761 0.80648
 C237 C 0.20621 0.79514 0.82036
 C238 C 0.23370 0.80599 0.80634
 H239 H 0.31723 0.79102 0.72374
 H240 H 0.28777 0.82050 0.77307
 H241 H 0.21029 0.68404 0.72402
 H242 H 0.18086 0.71351 0.77340
 H243 H 0.30516 0.69608 0.65459
 H244 H 0.19299 0.80836 0.84265
 C245 C 0.23474 0.19767 0.80917
 C246 C 0.20734 0.20897 0.82332
 C247 C 0.19661 0.23664 0.80940
 C248 C 0.21359 0.25379 0.78036
 C249 C 0.24153 0.24258 0.76569
 C250 C 0.25220 0.21437 0.78016
 C251 C 0.27992 0.20370 0.76525
 C252 C 0.29691 0.22043 0.73660
 C253 C 0.28676 0.24838 0.72186
 C254 C 0.25882 0.25958 0.73652
 C255 C 0.20344 0.28174 0.76562
 C256 C 0.22041 0.29843 0.73692
 C257 C 0.24812 0.28777 0.72201
 C258 C 0.26554 0.30445 0.69292
 C259 C 0.29296 0.29319 0.67881
 C260 C 0.30373 0.26555 0.69281
 H261 H 0.28867 0.18230 0.77567
 H262 H 0.31811 0.21126 0.72604
 H263 H 0.18224 0.29091 0.77618
 H264 H 0.21163 0.31982 0.72648
 H265 H 0.19408 0.19595 0.84565
 H266 H 0.30618 0.30620 0.65642
 C267 C 0.73510 0.69617 0.69117
 C268 C 0.70759 0.70721 0.67709
 C269 C 0.69669 0.73485 0.69089
 C270 C 0.71361 0.75221 0.71974
 C271 C 0.74166 0.74122 0.73434
 C272 C 0.75249 0.71305 0.72000
 C273 C 0.78030 0.70261 0.73484
 C274 C 0.79724 0.71951 0.76330
 C275 C 0.78695 0.74744 0.77789
 C276 C 0.75890 0.75842 0.76329
 C277 C 0.70332 0.78014 0.73433
 C278 C 0.72025 0.79704 0.76280
 C279 C 0.74807 0.78659 0.77764
 C280 C 0.76545 0.80347 0.80648
 C281 C 0.79296 0.79243 0.82055
 C282 C 0.80387 0.76480 0.80673
 H283 H 0.78918 0.68123 0.72452
 H284 H 0.81851 0.71051 0.77382
 H285 H 0.68205 0.78914 0.72382
 H286 H 0.71137 0.81841 0.77313
 H287 H 0.69440 0.69404 0.65488
 H288 H 0.80614 0.80560 0.84277
 C289 C 0.25388 0.11603 0.13844
 C290 C 0.22893 0.09769 0.13347
 C291 C 0.23059 0.07227 0.10769
 C292 C 0.25731 0.06475 0.08645
 C293 C 0.28275 0.08251 0.09315
 C294 C 0.28098 0.10816 0.11885
 C295 C 0.25023 0.14431 0.15981
 C296 C 0.24476 0.16822 0.17588
 H297 H 0.20781 0.10365 0.14825
 H298 H 0.21065 0.05900 0.10337
 H299 H 0.30360 0.07734 0.07707
 H300 H 0.30037 0.12234 0.12220
 C301 C 0.75358 0.61494 0.63814
 C302 C 0.72857 0.59683 0.63216
 C303 C 0.73058 0.57123 0.60681
 C304 C 0.75773 0.56330 0.58703
 C305 C 0.78318 0.58086 0.59476
 C306 C 0.78105 0.60667 0.62003
 C307 C 0.74977 0.64334 0.65909
 C308 C 0.74430 0.66737 0.67476
 H309 H 0.70716 0.60310 0.64582
 H310 H 0.71062 0.55813 0.60167
 H311 H 0.80435 0.57537 0.57982
 H312 H 0.80050 0.62067 0.62419
 C313 C 0.74576 0.88269 0.13655
 C314 C 0.71858 0.89081 0.11743
 C315 C 0.71673 0.91672 0.09227
 C316 C 0.74218 0.93449 0.08566
 C317 C 0.76900 0.92670 0.10643
 C318 C 0.77073 0.90102 0.13167
 C319 C 0.74944 0.85425 0.15746
 C320 C 0.75493 0.83024 0.17321
 H321 H 0.69917 0.87664 0.12073
 H322 H 0.69582 0.92211 0.07654
 H323 H 0.78894 0.93997 0.10217
 H324 H 0.79190 0.89488 0.14611
 C325 C 0.24712 0.38549 0.63914
 C326 C 0.27211 0.40359 0.63283
 C327 C 0.27002 0.42911 0.60731
 C328 C 0.24281 0.43697 0.58766
 C329 C 0.21740 0.41943 0.59569
 C330 C 0.21960 0.39370 0.62115
 C331 C 0.25098 0.35718 0.66035
 C332 C 0.25643 0.33320 0.67624
 H333 H 0.29355 0.39738 0.64640
 H334 H 0.28996 0.44220 0.60193
 H335 H 0.19618 0.42486 0.58085
 H336 H 0.20016 0.37971 0.62556
 C337 C 0.88499 0.25076 0.13802
 C338 C 0.89545 0.27881 0.12527
 C339 C 0.92111 0.28095 0.09964
 C340 C 0.93634 0.25494 0.08600
 C341 C 0.92609 0.22697 0.10056
 C342 C 0.90069 0.22498 0.12625
 C343 C 0.85686 0.24751 0.15986
 C344 C 0.83301 0.24230 0.17612
 H345 H 0.88335 0.29892 0.13407
 H346 H 0.92829 0.30288 0.08929
 H347 H 0.93717 0.20640 0.09122
 H348 H 0.89274 0.20314 0.13584
 C349 C 0.38384 0.75476 0.63738
 C350 C 0.39192 0.78203 0.61874
 C351 C 0.41772 0.78384 0.59340
 C352 C 0.43546 0.75827 0.58612
 C353 C 0.42773 0.73133 0.60642
 C354 C 0.40214 0.72963 0.63184
 C355 C 0.35546 0.75122 0.65841
 C356 C 0.33146 0.74593 0.67418
 H357 H 0.37777 0.80157 0.62255
 H358 H 0.42305 0.80485 0.57805
 H359 H 0.44097 0.71128 0.60162
 H360 H 0.39603 0.70838 0.64590
 C361 C 0.11554 0.74884 0.13563
 C362 C 0.10510 0.72094 0.12216
 C363 C 0.07937 0.71909 0.09666
 C364 C 0.06402 0.74525 0.08386
 C365 C 0.07424 0.77303 0.09916
 C366 C 0.09971 0.77473 0.12473
 C367 C 0.14376 0.75184 0.15727
 C368 C 0.16770 0.75684 0.17340
 H369 H 0.11729 0.70074 0.13028
 H370 H 0.07223 0.69730 0.08573
 H371 H 0.06307 0.79370 0.09048
 H372 H 0.10764 0.79646 0.13486
 C373 C 0.61582 0.24549 0.63929
 C374 C 0.59740 0.27050 0.63349
 C375 C 0.57192 0.26859 0.60794
 C376 C 0.56441 0.24155 0.58778
 C377 C 0.58226 0.21609 0.59532
 C378 C 0.60796 0.21812 0.62079
 C379 C 0.64412 0.24926 0.66040
 C380 C 0.66804 0.25473 0.67620
 H381 H 0.60335 0.29183 0.64745
 H382 H 0.55858 0.28855 0.60295
 H383 H 0.57710 0.19501 0.58007
 H384 H 0.62221 0.19867 0.62480
 C385 C 0.74846 0.11481 0.86407
 C386 C 0.77436 0.09923 0.87561
 C387 C 0.77258 0.07376 0.90118
 C388 C 0.74471 0.06330 0.91584
 C389 C 0.71858 0.07843 0.90245
 C390 C 0.72050 0.10416 0.87695
 C391 C 0.75149 0.14299 0.84233
 C392 C 0.75657 0.16688 0.82612
 H393 H 0.79613 0.10733 0.86594
 H394 H 0.79324 0.06277 0.91033
 H395 H 0.69672 0.07110 0.91288
 H396 H 0.70030 0.11617 0.86833
 C397 C 0.24590 0.61618 0.36125
 C398 C 0.21854 0.60835 0.37988
 C399 C 0.21655 0.58271 0.40551
 C400 C 0.24202 0.56489 0.41310
 C401 C 0.26904 0.57236 0.39282
 C402 C 0.27092 0.59779 0.36711
 C403 C 0.24964 0.64442 0.33993
 C404 C 0.25512 0.66830 0.32395
 H405 H 0.19909 0.62257 0.37583
 H406 H 0.19548 0.57757 0.42084
 H407 H 0.28901 0.55905 0.39785
 H408 H 0.29224 0.60371 0.35307
 C409 C 0.25077 0.88666 0.86127
 C410 C 0.27873 0.89749 0.87380
 C411 C 0.28061 0.92308 0.89960
 C412 C 0.25444 0.93786 0.91367
 C413 C 0.22657 0.92726 0.89933
 C414 C 0.22482 0.90194 0.87344
 C415 C 0.24782 0.85854 0.83933
 C416 C 0.24277 0.83465 0.82308
 H417 H 0.29897 0.88572 0.86470
 H418 H 0.30247 0.93053 0.90978
 H419 H 0.20588 0.93799 0.90899
 H420 H 0.20306 0.89370 0.86405
 C421 C 0.75410 0.38308 0.36256
 C422 C 0.78149 0.39099 0.38094
 C423 C 0.78353 0.41674 0.40632
 C424 C 0.75807 0.43459 0.41388
 C425 C 0.73100 0.42701 0.39383
 C426 C 0.72908 0.40148 0.36839
 C427 C 0.75034 0.35476 0.34151
 C428 C 0.74491 0.33081 0.32575
 H429 H 0.80095 0.37677 0.37691
 H430 H 0.80464 0.42196 0.42146
 H431 H 0.71104 0.44034 0.39884
 H432 H 0.70773 0.39548 0.35452
 C433 C 0.11567 0.25535 0.86311
 C434 C 0.10776 0.28238 0.88281
 C435 C 0.08201 0.28410 0.90833
 C436 C 0.06420 0.25865 0.91473
 C437 C 0.07177 0.23200 0.89337
 C438 C 0.09728 0.23040 0.86777
 C439 C 0.14403 0.25170 0.84196
 C440 C 0.16798 0.24615 0.82607
 H441 H 0.12199 0.30177 0.87970
 H442 H 0.07679 0.30488 0.92452
 H443 H 0.05846 0.21206 0.89745
 H444 H 0.10327 0.20932 0.85288
 C445 C 0.61534 0.75201 0.36077
 C446 C 0.60714 0.77961 0.37852
 C447 C 0.58144 0.78192 0.40402
 C448 C 0.56392 0.75653 0.41235
 C449 C 0.57179 0.72923 0.39297
 C450 C 0.59728 0.72703 0.36740
 C451 C 0.64362 0.74807 0.33947
 C452 C 0.66755 0.74252 0.32352
 H453 H 0.62110 0.79904 0.37386
 H454 H 0.57600 0.80321 0.41864
 H455 H 0.55873 0.70931 0.39858
 H456 H 0.60350 0.70552 0.35403
 C457 C 0.88486 0.74667 0.86068
 C458 C 0.90268 0.77189 0.86667
 C459 C 0.92816 0.77025 0.89230
 C460 C 0.93629 0.74327 0.91236
 C461 C 0.91905 0.71761 0.90467
 C462 C 0.89333 0.71936 0.87912
 C463 C 0.85654 0.75015 0.83938
 C464 C 0.83257 0.75551 0.82342
 H465 H 0.89626 0.79318 0.85277
 H466 H 0.94102 0.79037 0.89740
 H467 H 0.92470 0.69656 0.91983
 H468 H 0.87956 0.69974 0.87497
 C469 C 0.38480 0.24654 0.36237
 C470 C 0.40304 0.27146 0.36836
 C471 C 0.42856 0.26934 0.39387
 C472 C 0.43626 0.24218 0.41380
 C473 C 0.41858 0.21683 0.40606
 C474 C 0.39285 0.21906 0.38063
 C475 C 0.35647 0.25049 0.34128
 C476 C 0.33250 0.25605 0.32549
 H477 H 0.39694 0.29287 0.35459
 H478 H 0.44176 0.28923 0.39901
 H479 H 0.42390 0.19566 0.42112
 H480 H 0.37875 0.19968 0.37647
 C481 C 0.74713 0.88453 0.86007
 C482 C 0.77226 0.90240 0.86650
 C483 C 0.77036 0.92782 0.89224
 C484 C 0.74321 0.93579 0.91198
 C485 C 0.71765 0.91851 0.90379
 C486 C 0.71966 0.89287 0.87812
 C487 C 0.75082 0.85622 0.83883
 C488 C 0.75624 0.83223 0.82299
 H489 H 0.79366 0.89607 0.85290
 H490 H 0.79040 0.94071 0.89774
 H491 H 0.69647 0.92404 0.91869
 H492 H 0.70012 0.87905 0.87362
 C493 C 0.24650 0.38474 0.36303
 C494 C 0.27152 0.40286 0.36894
 C495 C 0.26954 0.42845 0.39433
 C496 C 0.24243 0.43637 0.41423
 C497 C 0.21699 0.41877 0.40664
 C498 C 0.21908 0.39297 0.38132
 C499 C 0.25028 0.35639 0.34186
 C500 C 0.25578 0.33244 0.32596
 H501 H 0.29289 0.39663 0.35515
 H502 H 0.28950 0.44157 0.39937
 H503 H 0.19584 0.42424 0.42167
 H504 H 0.19962 0.37896 0.37722
 C505 C 0.25134 0.11644 0.86323
 C506 C 0.27924 0.10504 0.87554
 C507 C 0.28099 0.07922 0.90091
 C508 C 0.25475 0.06474 0.91477
 C509 C 0.22693 0.07592 0.90064
 C510 C 0.22532 0.10148 0.87519
 C511 C 0.24854 0.14475 0.84169
 C512 C 0.24364 0.16881 0.82569
 H513 H 0.29955 0.11655 0.86659
 H514 H 0.30282 0.07131 0.91093
 H515 H 0.20619 0.06544 0.91015
 H516 H 0.20359 0.11015 0.86595
 C517 C 0.75389 0.61419 0.36141
 C518 C 0.78126 0.60624 0.38007
 C519 C 0.78337 0.58061 0.40576
 C520 C 0.75799 0.56293 0.41335
 C521 C 0.73094 0.57054 0.39305
 C522 C 0.72895 0.59595 0.36729
 C523 C 0.75002 0.64242 0.33999
 C524 C 0.74442 0.66629 0.32390
 H525 H 0.80065 0.62035 0.37600
 H526 H 0.80446 0.57537 0.42110
 H527 H 0.71104 0.55733 0.39807
 H528 H 0.70762 0.60197 0.35322
 C529 C 0.11487 0.75009 0.86168
 C530 C 0.09913 0.77588 0.87328
 C531 C 0.07382 0.77395 0.89918
 C532 C 0.06371 0.74603 0.91412
 C533 C 0.07897 0.71999 0.90063
 C534 C 0.10453 0.72207 0.87480
 C535 C 0.14296 0.75329 0.83971
 C536 C 0.16679 0.75847 0.82338
 H537 H 0.10699 0.79770 0.86342
 H538 H 0.06271 0.79453 0.90839
 H539 H 0.07190 0.69810 0.91127
 H540 H 0.11667 0.70195 0.86615
 C541 C 0.61641 0.24564 0.36302
 C542 C 0.59812 0.27072 0.36901
 C543 C 0.57254 0.26881 0.39440
 C544 C 0.56482 0.24170 0.41424
 C545 C 0.58257 0.21620 0.40654
 C546 C 0.60836 0.21822 0.38122
 C547 C 0.64475 0.24934 0.34192
 C548 C 0.66870 0.25473 0.32608
 H549 H 0.60421 0.29209 0.35528
 H550 H 0.55929 0.28881 0.39952
 H551 H 0.57724 0.19506 0.42152
 H552 H 0.62250 0.19872 0.37705
 C553 C 0.88462 0.25269 0.86270
 C554 C 0.90326 0.22783 0.86834
 C555 C 0.92871 0.22988 0.89394
 C556 C 0.93595 0.25692 0.91433
 C557 C 0.91787 0.28223 0.90695
 C558 C 0.89221 0.28006 0.88142
 C559 C 0.85636 0.24877 0.84153
 C560 C 0.83247 0.24322 0.82568
 H561 H 0.89751 0.20650 0.85422
 H562 H 0.94222 0.21003 0.89881
 H563 H 0.92282 0.30332 0.92235
 H564 H 0.87779 0.29940 0.87754
 C565 C 0.38383 0.75309 0.36134
 C566 C 0.40193 0.72794 0.36790
 C567 C 0.42746 0.72991 0.39337
 C568 C 0.43533 0.75714 0.41271
 C569 C 0.41776 0.78268 0.40447
 C570 C 0.39202 0.78061 0.37907
 C571 C 0.35555 0.74942 0.34007
 C572 C 0.33164 0.74408 0.32409
 H573 H 0.39573 0.70650 0.35454
 H574 H 0.44056 0.70986 0.39891
 H575 H 0.42319 0.80392 0.41906
 H576 H 0.37803 0.80018 0.37446
 C577 C 0.25343 0.88480 0.13669
 C578 C 0.22849 0.90345 0.13183
 C579 C 0.23023 0.92902 0.10640
 C580 C 0.25702 0.93639 0.08542
 C581 C 0.28243 0.91830 0.09199
 C582 C 0.28057 0.89250 0.11734
 C583 C 0.24974 0.85645 0.15775
 C584 C 0.24427 0.83252 0.17358
 H585 H 0.20733 0.89763 0.14643
 H586 H 0.21031 0.94255 0.10217
 H587 H 0.30332 0.92335 0.07611
 H588 H 0.29996 0.87808 0.12062
 C589 C 0.75338 0.38320 0.63871
 C590 C 0.72839 0.40159 0.63262
 C591 C 0.73045 0.42712 0.60715
 C592 C 0.75762 0.43470 0.58736
 C593 C 0.78303 0.41685 0.59518
 C594 C 0.78086 0.39111 0.62058
 C595 C 0.74954 0.35491 0.65988
 C596 C 0.74408 0.33100 0.67579
 H597 H 0.70697 0.39561 0.64630
 H598 H 0.71051 0.44045 0.60194
 H599 H 0.80422 0.42206 0.58024
 H600 H 0.80030 0.37689 0.62483
 C601 C 0.74745 0.11411 0.13946
 C602 C 0.72006 0.10648 0.12084
 C603 C 0.71792 0.08088 0.09517
 C604 C 0.74328 0.06291 0.08755
 C605 C 0.77033 0.07018 0.10786
 C606 C 0.77236 0.09557 0.13360
 C607 C 0.75133 0.14234 0.16073
 C608 C 0.75684 0.16623 0.17662
 H609 H 0.70069 0.12082 0.12489
 H610 H 0.69682 0.07590 0.07982
 H611 H 0.79023 0.05675 0.10281
 H612 H 0.79370 0.10135 0.14765
 C613 C 0.24629 0.61745 0.63752
 C614 C 0.21883 0.60923 0.61962
 C615 C 0.21682 0.58338 0.59444
 C616 C 0.24236 0.56571 0.58660
 C617 C 0.26952 0.57360 0.60613
 C618 C 0.27142 0.59925 0.63138
 C619 C 0.24994 0.64583 0.65852
 C620 C 0.25528 0.66981 0.67426
 H621 H 0.19928 0.62329 0.62390
 H622 H 0.19564 0.57792 0.57970
 H623 H 0.28956 0.56043 0.60090
 H624 H 0.29282 0.60546 0.64487
 C625 C 0.88450 0.74551 0.13719
 C626 C 0.90246 0.77072 0.13203
 C627 C 0.92812 0.76926 0.10669
 C628 C 0.93626 0.74248 0.08609
 C629 C 0.91887 0.71680 0.09302
 C630 C 0.89299 0.71838 0.11828
 C631 C 0.85600 0.74888 0.15807
 C632 C 0.83189 0.75411 0.17371
 H633 H 0.89603 0.79188 0.14631
 H634 H 0.94108 0.78939 0.10218
 H635 H 0.92452 0.69591 0.07742
 H636 H 0.87911 0.69877 0.12178
 C637 C 0.38455 0.24637 0.63896
 C638 C 0.40286 0.27126 0.63311
 C639 C 0.42837 0.26916 0.60756
 C640 C 0.43601 0.24206 0.58744
 C641 C 0.41825 0.21673 0.59501
 C642 C 0.39252 0.21894 0.62048
 C643 C 0.35626 0.25034 0.66019
 C644 C 0.33235 0.25601 0.67611
 H645 H 0.39683 0.29263 0.64705
 H646 H 0.44163 0.28903 0.60255
 H647 H 0.42351 0.19559 0.57980
 H648 H 0.37836 0.19959 0.62454
 C649 C 0.11542 0.25331 0.14002
 C650 C 0.10684 0.28079 0.12225
 C651 C 0.08109 0.28274 0.09681
 C652 C 0.06393 0.25711 0.08857
 C653 C 0.07215 0.22993 0.10801
 C654 C 0.09768 0.22809 0.13353
 C655 C 0.14381 0.24971 0.16108
 C656 C 0.16785 0.24436 0.17679
 H657 H 0.12056 0.30041 0.12679
 H658 H 0.07537 0.30394 0.08213
 H659 H 0.05935 0.20983 0.10247
 H660 H 0.10419 0.20668 0.14692
 C661 C 0.61570 0.75351 0.63717
 C662 C 0.59745 0.72855 0.63153
 C663 C 0.57189 0.73051 0.60609
 C664 C 0.56412 0.75755 0.58586
 C665 C 0.58183 0.78294 0.59320
 C666 C 0.60761 0.78087 0.61857
 C667 C 0.64404 0.74970 0.65832
 C668 C 0.66800 0.74418 0.67421
 H669 H 0.60357 0.70723 0.64556
 H670 H 0.55868 0.71059 0.60126
 H671 H 0.57648 0.80403 0.57791
 H672 H 0.62171 0.80028 0.62245
   
