data_POSCAR
  _audit_creation_date              2014-09-24
  _audit_creation_method            'ToBaCCo'
  _symmetry_space_group_name_H-M    'P1'
  _symmetry_Int_Tables_number       1
  _symmetry_cell_setting            triclinic
  loop_
  _symmetry_equiv_pos_as_xyz
 x,y,z
_cell_length_a 21.7451
_cell_length_b 21.8404
_cell_length_c 50.2528
_cell_angle_alpha 89.086900
_cell_angle_beta 89.122200
_cell_angle_gamma 119.998900
loop_
  _atom_site_label
  _atom_site_type_symbol
  _atom_site_fract_x
  _atom_site_fract_y
  _atom_site_fract_z
C1 C -0.00112 0.08293 0.53898
 H2 H 0.04472 0.07595 0.53777
 C3 C 0.00109 0.13616 0.55440
 H4 H 0.04801 0.16757 0.56578
 C5 C -0.11722 0.04950 0.52521
 H6 H -0.16223 0.01658 0.51316
 C7 C -0.11648 0.10391 0.53989
 H8 H -0.16152 0.11216 0.53904
 N9 N -0.05946 0.04091 0.52481
 C10 C -0.01705 -0.12881 0.50629
 H11 H -0.01970 -0.12853 0.48481
 C12 C -0.00882 -0.18084 0.51959
 H13 H -0.00423 -0.22027 0.50831
 C14 C -0.02351 -0.08013 0.54736
 H15 H -0.03267 -0.04323 0.55830
 C16 C -0.01351 -0.12990 0.56138
 H17 H -0.01366 -0.12985 0.58293
 Zn18 Zn -0.04679 -0.01833 0.50125
 N19 N -0.02450 -0.07998 0.52028
 C20 C 0.09395 0.05019 0.47812
 N21 N 0.02912 0.04529 0.47843
 C22 C 0.01816 0.09314 0.46491
 C23 C 0.07250 0.14715 0.44957
 C24 C 0.15109 0.10567 0.46389
 C25 C -0.17989 -0.13687 0.49412
 C26 C -0.23632 -0.18821 0.47987
 C27 C -0.19112 -0.11129 0.44083
 C28 C -0.13412 -0.06298 0.45557
 N29 N -0.12941 -0.07622 0.48175
 H30 H 0.10222 0.01314 0.48986
 H31 H -0.03295 0.09014 0.46648
 H32 H 0.06012 0.18205 0.43839
 H33 H 0.20281 0.11027 0.46504
 H34 H -0.17472 -0.14671 0.51490
 H35 H -0.27501 -0.23587 0.49053
 H36 H -0.19007 -0.09902 0.41985
 H37 H -0.09248 -0.01638 0.44554
 C38 C -0.00685 -0.18141 0.54747
 C39 C -0.05594 0.14921 0.55433
 C40 C -0.24295 -0.17666 0.45255
 C41 C 0.14111 0.15576 0.44941
 C42 C 1.12209 0.03282 0.13193
 H43 H 1.11317 0.07721 0.13017
 C44 C 1.17729 0.03342 0.11736
 H45 H 1.20869 0.07773 0.10384
 C46 C 1.09008 -0.07873 0.15165
 H47 H 1.05663 -0.12151 0.16548
 C48 C 1.14610 -0.07960 0.13782
 H49 H 1.15510 -0.12353 0.14118
 N50 N 1.07953 -0.02272 0.14851
 C51 C 0.89867 0.01050 0.15771
 H52 H 0.89643 0.01408 0.17911
 C53 C 0.84605 0.01101 0.14221
 H54 H 0.80359 0.01587 0.15161
 C55 C 0.95449 -0.00398 0.11932
 H56 H 0.99481 -0.01288 0.11050
 C57 C 0.90368 -0.00270 0.10311
 H58 H 0.90608 -0.00910 0.08185
 Zn59 Zn 1.01291 -0.01013 0.16873
 N60 N 0.95127 0.00273 0.14611
 C61 C 1.06757 0.13212 0.18584
 N62 N 1.06799 0.07036 0.18909
 C63 C 1.11370 0.06489 0.20578
 C64 C 1.16193 0.12302 0.21995
 C65 C 1.11560 0.19202 0.19954
 C66 C 0.91007 -0.15172 0.17989
 C67 C 0.85339 -0.20603 0.19461
 C68 C 0.88885 -0.13070 0.23267
 C69 C 0.94488 -0.07807 0.21730
 N70 N 0.95337 -0.08873 0.19123
 H71 H 1.03153 0.13551 0.17211
 H72 H 1.11301 0.01516 0.20784
 H73 H 1.19643 0.11692 0.23364
 H74 H 1.11593 0.24140 0.19655
 H75 H 0.91691 -0.15815 0.15894
 H76 H 0.81728 -0.25454 0.18492
 H77 H 0.88161 -0.12026 0.25313
 H78 H 0.97851 -0.02713 0.22580
 C79 C 0.84840 0.00391 0.11465
 C80 C 1.19124 -0.02249 0.12055
 C81 C 0.84069 -0.19471 0.22108
 C82 C 1.16440 0.18794 0.21640
 C83 C 0.09724 0.97618 0.86870
 H84 H 0.04547 0.92920 0.86775
 C85 C 0.14934 0.97545 0.88423
 H86 H 0.13662 0.92790 0.89563
 C87 C 0.17606 1.09486 0.85460
 H88 H 0.18643 1.14058 0.84250
 C89 C 0.23002 1.09644 0.86994
 H90 H 0.28182 1.14378 0.86959
 N91 N 0.11151 1.03492 0.85408
 C92 C -0.10393 0.99081 0.83940
 H93 H -0.10855 0.98211 0.81822
 C94 C -0.15950 0.99065 0.85388
 H95 H -0.20673 0.98068 0.84348
 C96 C -0.03391 1.02073 0.87778
 H97 H 0.01575 1.03435 0.88695
 C98 C -0.08690 1.02337 0.89275
 H99 H -0.07760 1.03556 0.91359
 Zn100 Zn 0.03887 1.02358 0.83108
 N101 N -0.04257 1.00593 0.85149
 C102 C -0.04034 0.88920 0.80548
 N103 N 0.02370 0.94818 0.80891
 C104 C 0.08429 0.95429 0.79819
 C105 C 0.08250 0.89941 0.78386
 C106 C -0.04486 0.83348 0.79058
 C107 C 0.07030 1.16268 0.82392
 C108 C 0.07743 1.22169 0.80994
 C109 C 0.07787 1.16613 0.76879
 C110 C 0.06982 1.10767 0.78357
 N111 N 0.06533 1.10673 0.81062
 H112 H -0.08784 0.88459 0.81456
 H113 H 0.13470 1.00127 0.80160
 H114 H 0.13224 0.90507 0.77668
 H115 H -0.09664 0.78785 0.78777
 H116 H 0.06553 1.16004 0.84542
 H117 H 0.07918 1.26491 0.82083
 H118 H 0.07867 1.16495 0.74726
 H119 H 0.06418 1.06199 0.77339
 C120 C -0.15054 1.00994 0.88081
 C121 C 0.21732 1.03557 0.88457
 C122 C 0.08011 1.22340 0.78200
 C123 C 0.01738 0.83748 0.77983
 C124 C 0.32110 -0.02359 0.01584
 C125 C 0.32401 -0.01520 -0.01135
 C126 C 0.39110 -0.00064 -0.01974
 N127 N 0.42912 -0.00008 0.00139
 C128 C 0.38618 -0.01486 0.02316
 C129 C 0.41769 0.01672 -0.04628
 C130 C 0.48446 0.02683 -0.05478
 C131 C 0.51772 0.05746 -0.07908
 C132 C 0.57942 0.05458 -0.08034
 C133 C 0.58191 0.02169 -0.05688
 N134 N 0.52355 0.00451 -0.04150
 C135 C 0.63605 0.00636 -0.05058
 C136 C 0.64420 -0.01436 -0.02471
 C137 C 0.69000 -0.03893 -0.01828
 C138 C 0.68887 -0.04437 0.00894
 C139 C 0.64171 -0.02386 0.01820
 N140 N 0.61452 -0.00549 -0.00237
 C141 C 0.63024 -0.01528 0.04523
 C142 C 0.57369 -0.00627 0.05446
 C143 C 0.56692 0.01316 0.07998
 C144 C 0.50310 0.01200 0.08139
 C145 C 0.47320 -0.00703 0.05654
 N146 N 0.51613 -0.01895 0.04036
 C147 C 0.40681 -0.01498 0.04971
 H148 H 0.27664 -0.03340 0.02875
 H149 H 0.28210 -0.01782 -0.02349
 H150 H 0.50346 -0.04123 0.02170
 H151 H 0.49947 0.07966 -0.09435
 H152 H 0.61793 0.07443 -0.09671
 H153 H 0.72202 -0.05037 -0.03177
 H154 H 0.71998 -0.06058 0.02061
 H155 H 0.48155 0.02437 0.09870
 H156 H 0.50761 -0.02716 -0.02428
 H157 H 0.60390 0.02644 0.09598
 C158 C -0.03159 0.29605 0.65764
 C159 C -0.01375 0.30594 0.68390
 C160 C 0.00410 0.37484 0.68936
 N161 N -0.00260 0.40715 0.66733
 C162 C -0.02476 0.35898 0.64795
 C163 C 0.03090 0.40822 0.71378
 C164 C 0.03690 0.47385 0.72034
 C165 C 0.07214 0.51322 0.74218
 C166 C 0.06273 0.57100 0.74231
 C167 C 0.02293 0.56600 0.72033
 N168 N 0.00666 0.50630 0.70724
 C169 C 0.00092 0.61485 0.71331
 C170 C -0.02132 0.61985 0.68757
 C171 C -0.04733 0.66382 0.68008
 C172 C -0.05204 0.66114 0.65287
 C173 C -0.02980 0.61480 0.64479
 N174 N -0.01109 0.58966 0.66599
 C175 C -0.02030 0.60167 0.61809
 C176 C -0.01568 0.54186 0.61059
 C177 C 0.00159 0.53046 0.58515
 C178 C -0.00367 0.46511 0.58582
 C179 C -0.02209 0.43911 0.61180
 N180 N -0.03044 0.48556 0.62669
 C181 C -0.03154 0.37349 0.62101
 H182 H -0.04580 0.24862 0.64676
 H183 H -0.01311 0.26703 0.69733
 H184 H -0.05114 0.47616 0.64607
 H185 H 0.10160 0.50166 0.75662
 H186 H 0.08349 0.61235 0.75678
 H187 H -0.05903 0.69646 0.69280
 H188 H -0.06894 0.69058 0.64040
 H189 H 0.00647 0.44039 0.56914
 H190 H -0.02885 0.48570 0.69183
 H191 H 0.01644 0.56528 0.56778
 C192 C 0.67868 0.66249 0.35174
 C193 C 0.68687 0.66129 0.32467
 C194 C 0.62014 0.61552 0.31511
 N195 N 0.57169 0.58834 0.33540
 C196 C 0.60735 0.61704 0.35780
 C197 C 0.60351 0.60497 0.28792
 C198 C 0.53614 0.55342 0.27909
 C199 C 0.51067 0.55323 0.25396
 C200 C 0.44384 0.49476 0.25331
 C201 C 0.43051 0.46035 0.27797
 N202 N 0.48736 0.49629 0.29350
 C203 C 0.36823 0.39580 0.28501
 C204 C 0.35101 0.36728 0.31132
 C205 C 0.29685 0.29963 0.31828
 C206 C 0.29435 0.29441 0.34552
 C207 C 0.34769 0.35866 0.35437
 N208 N 0.38182 0.40334 0.33344
 C209 C 0.35962 0.37726 0.38136
 C210 C 0.41205 0.44472 0.38953
 C211 C 0.41046 0.47407 0.41361
 C212 C 0.47008 0.53993 0.41379
 C213 C 0.50775 0.54828 0.39018
 N214 N 0.47189 0.48976 0.37553
 C215 C 0.57515 0.60717 0.38332
 H216 H 0.72035 0.69356 0.36540
 H217 H 0.73606 0.69166 0.31327
 H218 H 0.49016 0.47795 0.35821
 H219 H 0.53707 0.59170 0.23787
 H220 H 0.40908 0.47947 0.23652
 H221 H 0.26210 0.25842 0.30514
 H222 H 0.25614 0.24910 0.35742
 H223 H 0.48382 0.57701 0.42969
 H224 H 0.49553 0.47949 0.31190
 H225 H 0.37000 0.45120 0.42927
 C226 C -0.11030 0.21433 0.57700
 C227 C -0.05021 0.21175 0.56809
 C228 C 0.01673 0.27218 0.57249
 C229 C 0.02257 0.32602 0.58905
 C230 C -0.03836 0.32179 0.60096
 C231 C -0.10458 0.26824 0.59289
 C232 C -0.17086 0.21971 0.60848
 C233 C -0.17672 0.16035 0.59127
 H234 H 0.06515 0.27701 0.56417
 H235 H 0.07476 0.36928 0.59352
 H236 H -0.21373 0.23234 0.60503
 H237 H -0.16155 0.21325 0.62974
 H238 H -0.22345 0.13847 0.57823
 H239 H -0.16937 0.12025 0.60248
 C240 C 0.74446 0.68056 0.23274
 C241 C 0.77446 0.75363 0.23569
 C242 C 0.73762 0.77658 0.25245
 C243 C 0.67925 0.72781 0.26841
 C244 C 0.65655 0.65512 0.26797
 C245 C 0.68695 0.63243 0.24858
 C246 C 0.71545 0.58317 0.25110
 C247 C 0.77850 0.63582 0.23378
 H248 H 0.75551 0.83235 0.25406
 H249 H 0.65453 0.74713 0.28222
 H250 H 0.68144 0.53229 0.24122
 H251 H 0.72975 0.57812 0.27185
 H252 H 0.78082 0.61514 0.21394
 H253 H 0.82947 0.66131 0.24445
 C254 C 0.32820 0.09326 -0.08844
 C255 C 0.27509 0.03347 -0.10080
 C256 C 0.27886 -0.02924 -0.09880
 C257 C 0.32741 -0.03375 -0.08182
 C258 C 0.37312 0.02426 -0.06656
 C259 C 0.37600 0.08878 -0.07169
 C260 C 0.37595 0.14154 -0.05321
 C261 C 0.32319 0.14620 -0.07150
 H262 H 0.24240 -0.07578 -0.10942
 H263 H 0.32660 -0.08354 -0.07950
 H264 H 0.42833 0.19107 -0.05324
 H265 H 0.35299 0.11865 -0.03315
 H266 H 0.34518 0.19854 -0.08190
 H267 H 0.26951 0.12531 -0.06212
 C268 C -0.04581 0.69148 0.55738
 C269 C -0.00041 0.76318 0.56218
 C270 C 0.04791 0.78050 0.58295
 C271 C 0.04405 0.72736 0.60027
 C272 C -0.00910 0.65612 0.59745
 C273 C -0.05041 0.63926 0.57475
 C274 C -0.12876 0.59490 0.57208
 C275 C -0.12394 0.65208 0.55303
 H276 H 0.08586 0.83529 0.58670
 H277 H 0.07952 0.74237 0.61686
 H278 H -0.15852 0.58980 0.59096
 H279 H -0.14388 0.54426 0.56222
 H280 H -0.15105 0.68013 0.56081
 H281 H -0.13645 0.63429 0.53221
 C282 C 0.29064 0.27857 0.22622
 C283 C 0.21742 0.25101 0.23028
 C284 C 0.19602 0.28564 0.24852
 C285 C 0.24602 0.33746 0.26522
 C286 C 0.31819 0.35580 0.26367
 C287 C 0.33957 0.33013 0.24229
 C288 C 0.38984 0.30270 0.24044
 C289 C 0.33623 0.24571 0.22267
 H290 H 0.14023 0.26859 0.25142
 H291 H 0.22756 0.35883 0.28069
 H292 H 0.39621 0.28173 0.25989
 H293 H 0.44020 0.34059 0.22973
 H294 H 0.31354 0.19208 0.23192
 H295 H 0.35600 0.25084 0.20177
 C296 C 0.72556 -0.01786 -0.11162
 C297 C 0.79763 0.01831 -0.10489
 C298 C 0.81589 0.06445 -0.08318
 C299 C 0.76321 0.06505 -0.06683
 C300 C 0.69084 0.01857 -0.07131
 C301 C 0.67353 -0.01836 -0.09502
 C302 C 0.62174 -0.09398 -0.09980
 C303 C 0.67832 -0.09402 -0.11794
 H304 H 0.87072 0.09927 -0.07824
 H305 H 0.77899 0.09791 -0.04951
 H306 H 0.57477 -0.10046 -0.11065
 H307 H 0.60940 -0.12816 -0.08159
 H308 H 0.66352 -0.10107 -0.13920
 H309 H 0.69871 -0.12842 -0.11031
 C310 C 0.25489 -0.08167 0.10027
 C311 C 0.25332 -0.02000 0.10641
 C312 C 0.31351 0.04507 0.09817
 C313 C 0.36549 0.04674 0.08065
 C314 C 0.35946 -0.01647 0.07150
 C315 C 0.30684 -0.07996 0.08339
 C316 C 0.25637 -0.14932 0.07176
 C317 C 0.19908 -0.15083 0.09003
 H318 H 0.31912 0.09497 0.10408
 H319 H 0.40811 0.09723 0.07309
 H320 H 0.26968 -0.19088 0.07702
 H321 H 0.24701 -0.14534 0.05031
 H322 H 0.17901 -0.19388 0.10551
 H323 H 0.15734 -0.14624 0.07916
 C324 C 0.66873 0.70052 0.44597
 C325 C 0.70425 0.77261 0.43793
 C326 C 0.68299 0.78859 0.41336
 C327 C 0.63725 0.73475 0.39649
 C328 C 0.61241 0.66322 0.40318
 C329 C 0.62529 0.64767 0.42884
 C330 C 0.64981 0.59848 0.43785
 C331 C 0.69790 0.65580 0.45659
 H332 H 0.70161 0.84250 0.40671
 H333 H 0.62472 0.74924 0.37746
 H334 H 0.67926 0.58813 0.42193
 H335 H 0.60678 0.55066 0.44836
 H336 H 0.75539 0.67856 0.45162
 H337 H 0.68289 0.64026 0.47790
 C338 C 0.03800 0.31039 0.77543
 C339 C 0.08022 0.28230 0.76686
 C340 C 0.11869 0.30914 0.74254
 C341 C 0.10681 0.35473 0.72596
 C342 C 0.05540 0.37331 0.73322
 C343 C 0.02565 0.35443 0.75897
 C344 C -0.04979 0.32232 0.76835
 C345 C -0.03648 0.27385 0.78643
 H346 H 0.15470 0.29173 0.73562
 H347 H 0.13366 0.37104 0.70666
 H348 H -0.08797 0.29397 0.75241
 H349 H -0.05957 0.36041 0.77944
 H350 H -0.06703 0.21728 0.78102
 H351 H -0.03883 0.28391 0.80793
 C352 C 0.72820 -0.06313 0.09546
 C353 C 0.79228 0.00035 0.09774
 C354 C 0.80538 0.05727 0.08053
 C355 C 0.75179 0.05257 0.06388
 C356 C 0.68450 -0.00927 0.06408
 C357 C 0.67551 -0.06802 0.07892
 C358 C 0.61780 -0.11619 0.09818
 C359 C 0.67569 -0.11058 0.11633
 H360 H 0.85632 0.10566 0.08040
 H361 H 0.76242 0.09737 0.05109
 H362 H 0.58480 -0.16998 0.09024
 H363 H 0.58733 -0.09233 0.10660
 H364 H 0.67582 -0.16116 0.11885
 H365 H 0.67905 -0.08286 0.13509
 C366 C 0.26618 0.22006 0.42918
 C367 C 0.20177 0.21788 0.43519
 C368 C 0.19799 0.27874 0.42753
 C369 C 0.25049 0.33177 0.41067
 C370 C 0.30947 0.32692 0.40186
 C371 C 0.31886 0.27343 0.41322
 C372 C 0.34115 0.22503 0.40146
 C373 C 0.28247 0.16601 0.41860
 H374 H 0.15363 0.28506 0.43351
 H375 H 0.24354 0.37501 0.40362
 H376 H 0.39529 0.23835 0.40755
 H377 H 0.33202 0.21749 0.37981
 H378 H 0.30336 0.14482 0.43408
 H379 H 0.23842 0.12540 0.40686
 C380 C 0.07223 0.78833 0.74817
 C381 C 0.01567 0.77754 0.76521
 C382 C -0.04091 0.70686 0.76853
 C383 C -0.04444 0.65277 0.75245
 C384 C 0.00869 0.66800 0.73292
 C385 C 0.06898 0.73522 0.73257
 C386 C 0.11076 0.78543 0.71019
 C387 C 0.11368 0.84387 0.72716
 H388 H -0.08375 0.69321 0.78283
 H389 H -0.09029 0.60012 0.75433
 H390 H 0.08011 0.77717 0.69184
 H391 H 0.16348 0.78964 0.70711
 H392 H 0.08341 0.86812 0.71888
 H393 H 0.16839 0.88204 0.73336
   
