data_POSCAR
  _audit_creation_date              2014-09-24
  _audit_creation_method            'ToBaCCo'
  _symmetry_space_group_name_H-M    'P1'
  _symmetry_Int_Tables_number       1
  _symmetry_cell_setting            triclinic
  loop_
  _symmetry_equiv_pos_as_xyz
 x,y,z
_cell_length_a 58.1907
_cell_length_b 58.2843
_cell_length_c 23.0222
_cell_angle_alpha 90.094300
_cell_angle_beta 89.982300
_cell_angle_gamma 119.972100
loop_
  _atom_site_label
  _atom_site_type_symbol
  _atom_site_fract_x
  _atom_site_fract_y
  _atom_site_fract_z
C1 C 0.18741 0.47291 0.44779
 C2 C 0.17570 0.47292 0.50076
 C3 C 0.18753 0.47292 0.55355
 C4 C 0.21181 0.47287 0.55402
 C5 C 0.22393 0.47283 0.50051
 C6 C 0.21170 0.47284 0.44710
 C7 C 0.22411 0.47284 0.39464
 C8 C 0.24806 0.47288 0.39456
 C9 C 0.26051 0.47294 0.44692
 C10 C 0.24837 0.47289 0.50041
 C11 C 0.22433 0.47292 0.60638
 C12 C 0.24829 0.47299 0.60626
 C13 C 0.26069 0.47300 0.55378
 C14 C 0.28510 0.47318 0.55298
 C15 C 0.29678 0.47320 0.49994
 C16 C 0.28485 0.47310 0.44729
 H17 H 0.21538 0.47282 0.35310
 H18 H 0.25676 0.47290 0.35298
 H19 H 0.21567 0.47293 0.64800
 H20 H 0.25707 0.47305 0.64777
 H21 H 0.15707 0.47304 0.50090
 H22 H 0.31556 0.47341 0.49951
 C23 C 0.52670 -0.28516 0.55289
 C24 C 0.52664 -0.29708 0.50021
 C25 C 0.52669 -0.28543 0.44719
 C26 C 0.52687 -0.26106 0.44642
 C27 C 0.52694 -0.24876 0.49982
 C28 C 0.52685 -0.26086 0.55331
 C29 C 0.52686 -0.24841 0.60567
 C30 C 0.52689 -0.22450 0.60561
 C31 C 0.52693 -0.21213 0.55314
 C32 C 0.52699 -0.22437 0.49975
 C33 C 0.52691 -0.24869 0.39396
 C34 C 0.52697 -0.22476 0.39390
 C35 C 0.52698 -0.21231 0.44626
 C36 C 0.52693 -0.18811 0.44667
 C37 C 0.52688 -0.17625 0.49935
 C38 C 0.52685 -0.18789 0.55238
 H39 H 0.52682 -0.25709 0.64725
 H40 H 0.52687 -0.21576 0.64714
 H41 H 0.52688 -0.25745 0.35243
 H42 H 0.52699 -0.21610 0.35232
 H43 H 0.52645 -0.31582 0.50061
 H44 H 0.52675 -0.15767 0.49895
 C45 C 1.18880 0.71468 0.44754
 C46 C 1.17698 0.70276 0.50016
 C47 C 1.18862 0.71443 0.55323
 C48 C 1.21283 0.73881 0.55411
 C49 C 1.22502 0.75112 0.50078
 C50 C 1.21295 0.73899 0.44725
 C51 C 1.22535 0.75143 0.39493
 C52 C 1.24921 0.77535 0.39508
 C53 C 1.26160 0.78775 0.44759
 C54 C 1.24937 0.77553 0.50096
 C55 C 1.22518 0.75119 0.60662
 C56 C 1.24904 0.77513 0.60682
 C57 C 1.26149 0.78763 0.55451
 C58 C 1.28579 0.81189 0.55412
 C59 C 1.29761 0.82372 0.50136
 C60 C 1.28591 0.81202 0.44836
 H61 H 1.21668 0.74274 0.35332
 H62 H 1.25792 0.78408 0.35357
 H63 H 1.21648 0.74243 0.64811
 H64 H 1.25769 0.78377 0.64848
 H65 H 1.15843 0.68401 0.49966
 H66 H 1.31632 0.84233 0.50156
 C67 C 0.81258 0.52714 0.55396
 C68 C 0.82424 0.52720 0.50085
 C69 C 0.81237 0.52729 0.44826
 C70 C 0.78813 0.52736 0.44811
 C71 C 0.77606 0.52734 0.50174
 C72 C 0.78832 0.52724 0.55499
 C73 C 0.77596 0.52719 0.60759
 C74 C 0.75203 0.52718 0.60793
 C75 C 0.73950 0.52721 0.55569
 C76 C 0.75164 0.52731 0.50210
 C77 C 0.77564 0.52738 0.39588
 C78 C 0.75168 0.52733 0.39623
 C79 C 0.73935 0.52727 0.44881
 C80 C 0.71501 0.52710 0.44964
 C81 C 0.70326 0.52704 0.50255
 C82 C 0.71511 0.52708 0.55535
 H83 H 0.78473 0.52714 0.64903
 H84 H 0.74337 0.52712 0.64962
 H85 H 0.78429 0.52742 0.35422
 H86 H 0.74287 0.52733 0.35481
 H87 H 0.84284 0.52706 0.50032
 H88 H 0.68449 0.52686 0.50250
 C89 C 0.47255 0.18790 0.44881
 C90 C 0.47250 0.17625 0.50178
 C91 C 0.47251 0.18814 0.55447
 C92 C 0.47255 0.21240 0.55476
 C93 C 0.47257 0.22444 0.50119
 C94 C 0.47256 0.21213 0.44792
 C95 C 0.47261 0.22439 0.39533
 C96 C 0.47272 0.24834 0.39500
 C97 C 0.47280 0.26091 0.44724
 C98 C 0.47271 0.24886 0.50086
 C99 C 0.47264 0.22495 0.60701
 C100 C 0.47280 0.24892 0.60673
 C101 C 0.47286 0.26125 0.55414
 C102 C 0.47313 0.28565 0.55315
 C103 C 0.47318 0.29726 0.50006
 C104 C 0.47303 0.28526 0.44743
 H105 H 0.47258 0.21555 0.35392
 H106 H 0.47277 0.25696 0.35335
 H107 H 0.47261 0.21632 0.64864
 H108 H 0.47289 0.25776 0.64819
 H109 H 0.47256 0.15765 0.50199
 H110 H 0.47345 0.31603 0.49956
 C111 C 0.71459 0.18877 0.55294
 C112 C 0.70290 0.17708 0.49997
 C113 C 0.71479 0.18884 0.44728
 C114 C 0.73911 0.21302 0.44699
 C115 C 0.75122 0.22510 0.50058
 C116 C 0.73892 0.21292 0.55384
 C117 C 0.75123 0.22522 0.60641
 C118 C 0.77517 0.24909 0.60674
 C119 C 0.78771 0.26156 0.55447
 C120 C 0.77562 0.24944 0.50088
 C121 C 0.75158 0.22544 0.39473
 C122 C 0.77550 0.24932 0.39501
 C123 C 0.78783 0.26165 0.44757
 C124 C 0.81203 0.28591 0.44837
 C125 C 0.82377 0.29765 0.50126
 C126 C 0.81199 0.28587 0.55409
 H127 H 0.74241 0.21648 0.64782
 H128 H 0.78380 0.25773 0.64842
 H129 H 0.74291 0.21677 0.35310
 H130 H 0.78428 0.25808 0.35357
 H131 H 0.68417 0.15854 0.49976
 H132 H 0.84237 0.31635 0.50119
 N133 N 0.97264 0.52726 0.06136
 N134 N 0.95406 0.53342 0.07212
 N135 N 1.02840 0.53900 0.10145
 N136 N 1.04708 0.55227 0.14032
 N137 N 1.02846 0.55500 0.06125
 N138 N 1.04721 0.57965 0.07173
 N139 N 0.97266 0.51129 0.10153
 N140 N 0.95413 0.50612 0.14063
 C141 C 0.94257 0.51980 0.12130
 C142 C 1.05875 0.57746 0.12079
 N143 N 1.02831 0.47337 0.06248
 N144 N 1.04678 0.46713 0.07385
 N145 N 0.97256 0.46185 0.10218
 N146 N 0.95398 0.44878 0.14130
 N147 N 0.97248 0.44563 0.06239
 N148 N 0.95382 0.42102 0.07342
 N149 N 1.02831 0.48957 0.10222
 N150 N 1.04676 0.49482 0.14164
 Mn151 Mn 1.00048 0.50043 0.10237
 C152 C 1.05824 0.48095 0.12294
 C153 C 0.94234 0.42347 0.12236
 N154 N 1.02843 0.55469 -0.06413
 N155 N 1.04702 0.57932 -0.07535
 N156 N 0.97259 0.51073 -0.10382
 N157 N 0.95397 0.50530 -0.14289
 N158 N 0.97260 0.52691 -0.06402
 N159 N 0.95397 0.53296 -0.07497
 N160 N 1.02835 0.53846 -0.10390
 N161 N 1.04685 0.55155 -0.14318
 Mn162 Mn 1.00053 0.54123 -0.00138
 C163 C 1.05846 0.57688 -0.12438
 C164 C 0.94241 0.51906 -0.12389
 N165 N 0.97244 0.44528 -0.06300
 N166 N 0.95375 0.42061 -0.07366
 N167 N 1.02823 0.48901 -0.10314
 N168 N 1.04687 0.49429 -0.14202
 N169 N 1.02825 0.47305 -0.06293
 N170 N 1.04693 0.46701 -0.07342
 N171 N 0.97249 0.46129 -0.10317
 N172 N 0.95388 0.44801 -0.14219
 Mn173 Mn 1.00037 0.45907 -0.00027
 Mn174 Mn 1.00042 0.49987 -0.10404
 Cl175 Cl 1.00045 0.50015 -0.00083
 C176 C 0.94224 0.42280 -0.12280
 C177 C 1.05848 0.48068 -0.12249
 N178 N 0.46108 0.48914 0.10168
 N179 N 0.44773 0.49446 0.14054
 N180 N 0.47303 0.44532 0.06150
 N181 N 0.46695 0.42064 0.07214
 N182 N 0.48899 0.46134 0.10179
 N183 N 0.49423 0.44805 0.14085
 N184 N 0.44509 0.47317 0.06137
 N185 N 0.42036 0.46716 0.07176
 C186 C 0.42250 0.48086 0.12088
 C187 C 0.48060 0.42283 0.12137
 N188 N 0.48957 0.46177 -0.10357
 N189 N 0.49504 0.44864 -0.14270
 N190 N 0.44541 0.47342 -0.06401
 N191 N 0.42072 0.46730 -0.07534
 N192 N 0.46164 0.48958 -0.10367
 N193 N 0.44848 0.49491 -0.14299
 N194 N 0.47339 0.44560 -0.06388
 N195 N 0.46738 0.42097 -0.07498
 Mn196 Mn 0.45896 0.45911 -0.00126
 C197 C 0.48131 0.42335 -0.12385
 C198 C 0.42312 0.48113 -0.12432
 N199 N 0.53841 0.51073 0.10278
 N200 N 0.55155 0.50533 0.14197
 N201 N 0.52669 0.55473 0.06314
 N202 N 0.53282 0.57939 0.07451
 N203 N 0.51049 0.53854 0.10279
 N204 N 0.50513 0.55168 0.14214
 N205 N 0.55463 0.52687 0.06310
 N206 N 0.57931 0.53293 0.07427
 Mn207 Mn 0.49974 0.49993 0.10279
 C208 C 0.57690 0.51907 0.12318
 C209 C 0.51894 0.57700 0.12350
 N210 N 0.51107 0.53896 -0.10257
 N211 N 0.50570 0.55223 -0.14138
 N212 N 0.55500 0.52714 -0.06228
 N213 N 0.57973 0.53322 -0.07283
 N214 N 0.53900 0.51117 -0.10258
 N215 N 0.55235 0.50591 -0.14156
 N216 N 0.52702 0.55496 -0.06224
 N217 N 0.53296 0.57962 -0.07258
 Mn218 Mn 0.50032 0.50037 -0.10363
 Mn219 Mn 0.54110 0.54119 0.00043
 Cl220 Cl 0.50003 0.50015 -0.00042
 C221 C 0.51924 0.57743 -0.12168
 C222 C 0.57760 0.51955 -0.12203
 N223 N 0.44486 -0.02862 0.06348
 N224 N 0.42020 -0.04718 0.07487
 N225 N 0.48879 0.02717 0.10326
 N226 N 0.49421 0.04575 0.14239
 N227 N 0.47255 0.02711 0.06357
 N228 N 0.46644 0.04568 0.07467
 N229 N 0.46115 -0.02849 0.10313
 N230 N 0.44808 -0.04693 0.14249
 C231 C 0.42269 -0.05855 0.12386
 C232 C 0.48037 0.05724 0.12356
 N233 N 0.55444 0.02752 0.06201
 N234 N 0.57913 0.04623 0.07263
 N235 N 0.51074 -0.02824 0.10204
 N236 N 0.50548 -0.04686 0.14080
 N237 N 0.52674 -0.02820 0.06173
 N238 N 0.53283 -0.04683 0.07201
 N239 N 0.53839 0.02741 0.10229
 N240 N 0.55165 0.04601 0.14133
 Mn241 Mn 0.49977 -0.00054 0.10321
 C242 C 0.57690 0.05769 0.12185
 C243 C 0.51915 -0.05840 0.12108
 N244 N 0.47219 0.02711 -0.06180
 N245 N 0.46604 0.04570 -0.07222
 N246 N 0.46058 -0.02849 -0.10225
 N247 N 0.44732 -0.04714 -0.14117
 N248 N 0.44454 -0.02861 -0.06193
 N249 N 0.41986 -0.04738 -0.07239
 N250 N 0.48821 0.02716 -0.10208
 N251 N 0.49343 0.04574 -0.14093
 Mn252 Mn 0.45827 -0.00076 0.00082
 C253 C 0.47971 0.05725 -0.12134
 C254 C 0.42209 -0.05886 -0.12156
 N255 N 0.52641 -0.02822 -0.06366
 N256 N 0.53264 -0.04668 -0.07506
 N257 N 0.53781 0.02741 -0.10305
 N258 N 0.55087 0.04604 -0.14201
 N259 N 0.55407 0.02752 -0.06335
 N260 N 0.57869 0.04625 -0.07427
 N261 N 0.51016 -0.02826 -0.10333
 N262 N 0.50488 -0.04671 -0.14272
 Mn263 Mn 0.54068 -0.00035 -0.00082
 Mn264 Mn 0.49919 -0.00054 -0.10321
 Cl265 Cl 0.49948 -0.00055 0.00000
 C266 C 0.51879 -0.05816 -0.12409
 C267 C 0.57621 0.05774 -0.12306
 C268 C 1.17466 0.47324 0.39814
 C269 C 1.16260 0.47367 0.35592
 C270 C 1.14721 0.47436 0.30768
 C271 C 1.12492 0.45098 0.28864
 C272 C 1.10817 0.45200 0.24640
 C273 C 1.11363 0.47639 0.22300
 C274 C 1.13634 0.49969 0.24087
 C275 C 1.15309 0.49867 0.28311
 C276 C 1.09477 0.47779 0.18482
 C277 C 1.07839 0.47913 0.15521
 H278 H 1.12005 0.43210 0.30771
 H279 H 1.09055 0.43389 0.23332
 H280 H 1.14063 0.51869 0.22349
 H281 H 1.17013 0.51690 0.29787
 C282 C 0.52632 0.70141 0.39759
 C283 C 0.52586 0.68885 0.35547
 C284 C 0.52516 0.67268 0.30739
 C285 C 0.54862 0.67400 0.28802
 C286 C 0.54764 0.65616 0.24600
 C287 C 0.52318 0.63691 0.22315
 C288 C 0.49979 0.63607 0.24133
 C289 C 0.50077 0.65392 0.28335
 C290 C 0.52187 0.61663 0.18517
 C291 C 0.52062 0.59891 0.15569
 H292 H 0.56756 0.68826 0.30669
 H293 H 0.56583 0.65685 0.23267
 H294 H 0.48075 0.62113 0.22436
 H295 H 0.48248 0.65254 0.29837
 C296 C 0.29898 -0.17522 0.39875
 C297 C 0.31144 -0.16315 0.35657
 C298 C 0.32748 -0.14774 0.30839
 C299 C 0.32607 -0.12567 0.28920
 C300 C 0.34378 -0.10889 0.24701
 C301 C 0.36299 -0.11409 0.22382
 C302 C 0.36391 -0.13657 0.24183
 C303 C 0.34620 -0.15336 0.28401
 C304 C 0.38317 -0.09518 0.18569
 C305 C 0.40082 -0.07875 0.15611
 H306 H 0.31184 -0.12100 0.30811
 H307 H 0.34303 -0.09144 0.23382
 H308 H 0.37882 -0.14067 0.22461
 H309 H 0.34763 -0.17023 0.29889
 C310 C 0.82573 0.52704 0.39553
 C311 C 0.83776 0.52669 0.35320
 C312 C 0.85313 0.52610 0.30483
 C313 C 0.84731 0.50183 0.27993
 C314 C 0.86411 0.50090 0.23768
 C315 C 0.88680 0.52424 0.22014
 C316 C 0.89219 0.54860 0.24379
 C317 C 0.87539 0.54953 0.28604
 C318 C 0.90578 0.52290 0.18225
 C319 C 0.92228 0.52160 0.15300
 H320 H 0.83029 0.48356 0.29450
 H321 H 0.85988 0.48192 0.22011
 H322 H 0.90981 0.56674 0.23097
 H323 H 0.88022 0.56838 0.30537
 C324 C 0.47338 0.29887 0.39474
 C325 C 0.47379 0.31126 0.35247
 C326 C 0.47443 0.32723 0.30420
 C327 C 0.49878 0.34589 0.28001
 C328 C 0.49973 0.36362 0.23791
 C329 C 0.47632 0.36277 0.21982
 C330 C 0.45189 0.34359 0.24277
 C331 C 0.45094 0.32586 0.28486
 C332 C 0.47762 0.38305 0.18209
 C333 C 0.47888 0.40082 0.15296
 H334 H 0.51709 0.34730 0.29502
 H335 H 0.51876 0.37853 0.22089
 H336 H 0.43369 0.34291 0.22952
 H337 H 0.43203 0.31168 0.30366
 C338 C 0.70110 0.17542 0.39466
 C339 C 0.68866 0.16332 0.35245
 C340 C 0.67263 0.14784 0.30427
 C341 C 0.65374 0.15326 0.28018
 C342 C 0.63597 0.13632 0.23818
 C343 C 0.63701 0.11389 0.22008
 C344 C 0.65641 0.10890 0.24291
 C345 C 0.67419 0.12585 0.28492
 C346 C 0.61670 0.09475 0.18244
 C347 C 0.59892 0.07812 0.15338
 H348 H 0.65220 0.17006 0.29521
 H349 H 0.62089 0.14023 0.22124
 H350 H 0.65724 0.09149 0.22965
 H351 H 0.68855 0.12133 0.30362
 C352 C 0.47276 0.17477 -0.39292
 C353 C 0.47310 0.16269 -0.35076
 C354 C 0.47366 0.14723 -0.30269
 C355 C 0.49797 0.15285 -0.27819
 C356 C 0.49887 0.13593 -0.23638
 C357 C 0.47546 0.11331 -0.21888
 C358 C 0.45106 0.10811 -0.24211
 C359 C 0.45016 0.12503 -0.28392
 C360 C 0.47673 0.09420 -0.18148
 C361 C 0.47798 0.07762 -0.15262
 H362 H 0.51629 0.16981 -0.29277
 H363 H 0.51787 0.14001 -0.21912
 H364 H 0.43286 0.09055 -0.22932
 H365 H 0.43128 0.12035 -0.30296
 C366 C 0.70212 0.52674 -0.39484
 C367 C 0.68970 0.52633 -0.35252
 C368 C 0.67366 0.52568 -0.30426
 C369 C 0.67503 0.54913 -0.28485
 C370 C 0.65720 0.54819 -0.24287
 C371 C 0.63792 0.52379 -0.22010
 C372 C 0.63707 0.50042 -0.23824
 C373 C 0.65490 0.50136 -0.28023
 C374 C 0.61753 0.52250 -0.18252
 C375 C 0.59969 0.52125 -0.15350
 H376 H 0.68929 0.56802 -0.30353
 H377 H 0.65788 0.56636 -0.22958
 H378 H 0.62209 0.48142 -0.22135
 H379 H 0.65350 0.48308 -0.29530
 C380 C 0.82469 0.29882 -0.39610
 C381 C 0.83674 0.31120 -0.35377
 C382 C 0.85217 0.32716 -0.30546
 C383 C 0.84665 0.34595 -0.28118
 C384 C 0.86357 0.36369 -0.23911
 C385 C 0.88607 0.36273 -0.22113
 C386 C 0.89115 0.34343 -0.24416
 C387 C 0.87424 0.32569 -0.28623
 C388 C 0.90520 0.38302 -0.18345
 C389 C 0.92181 0.40079 -0.15435
 H390 H 0.82979 0.34744 -0.29612
 H391 H 0.85958 0.37869 -0.22202
 H392 H 0.90863 0.34266 -0.23100
 H393 H 0.87884 0.31141 -0.30510
 C394 C 0.52647 -0.17510 -0.39803
 C395 C 0.52601 -0.16299 -0.35593
 C396 C 0.52529 -0.14752 -0.30788
 C397 C 0.54872 -0.12532 -0.28868
 C398 C 0.54770 -0.10847 -0.24669
 C399 C 0.52323 -0.11374 -0.22370
 C400 C 0.49988 -0.13634 -0.24171
 C401 C 0.50091 -0.15319 -0.28370
 C402 C 0.52186 -0.09479 -0.18575
 C403 C 0.52055 -0.07836 -0.15628
 H404 H 0.56766 -0.12060 -0.30745
 H405 H 0.56586 -0.09094 -0.23349
 H406 H 0.48083 -0.14049 -0.22464
 H407 H 0.48264 -0.17015 -0.29859
 C408 C 0.29829 0.47360 -0.39746
 C409 C 0.31090 0.47410 -0.35541
 C410 C 0.32714 0.47484 -0.30745
 C411 C 0.34601 0.49921 -0.28363
 C412 C 0.36393 0.50023 -0.24179
 C413 C 0.36306 0.47688 -0.22357
 C414 C 0.34371 0.45244 -0.24620
 C415 C 0.32579 0.45142 -0.28804
 C416 C 0.38341 0.47821 -0.18577
 C417 C 0.40117 0.47946 -0.15641
 H418 H 0.34741 0.51747 -0.29869
 H419 H 0.37896 0.51926 -0.22499
 H420 H 0.34299 0.43428 -0.23284
 H421 H 0.31145 0.43249 -0.30654
 C422 C 1.17585 0.70127 -0.39725
 C423 C 1.16373 0.68870 -0.35523
 C424 C 1.14823 0.67252 -0.30731
 C425 C 1.12621 0.67399 -0.28766
 C426 C 1.10930 0.65614 -0.24585
 C427 C 1.11432 0.63673 -0.22348
 C428 C 1.13677 0.63573 -0.24192
 C429 C 1.15368 0.65359 -0.28374
 C430 C 1.09529 0.61645 -0.18571
 C431 C 1.07876 0.59876 -0.15640
 H432 H 1.12166 0.68838 -0.30596
 H433 H 1.09188 0.65695 -0.23231
 H434 H 1.14073 0.62066 -0.22533
 H435 H 1.17050 0.65210 -0.29898
 C436 C 0.82535 0.52669 -0.39657
 C437 C 0.83739 0.52617 -0.35446
 C438 C 0.85275 0.52538 -0.30638
 C439 C 0.84725 0.50097 -0.28300
 C440 C 0.86408 0.49992 -0.24107
 C441 C 0.88648 0.52327 -0.22236
 C442 C 0.89155 0.54775 -0.24449
 C443 C 0.87472 0.54880 -0.28642
 C444 C 0.90551 0.52192 -0.18475
 C445 C 0.92206 0.52067 -0.15563
 H446 H 0.83046 0.48272 -0.29851
 H447 H 0.86011 0.48087 -0.22465
 H448 H 0.90895 0.56590 -0.23073
 H449 H 0.87930 0.56775 -0.30460
 C450 C 0.47362 0.29888 -0.39735
 C451 C 0.47418 0.31145 -0.35519
 C452 C 0.47500 0.32759 -0.30702
 C453 C 0.49947 0.34655 -0.28369
 C454 C 0.50053 0.36440 -0.24163
 C455 C 0.47714 0.36335 -0.22275
 C456 C 0.45261 0.34389 -0.24483
 C457 C 0.45155 0.32604 -0.28689
 C458 C 0.47849 0.38368 -0.18498
 C459 C 0.47972 0.40143 -0.15574
 H460 H 0.51774 0.34808 -0.29933
 H461 H 0.51962 0.37952 -0.22525
 H462 H 0.43442 0.34306 -0.23093
 H463 H 0.43254 0.31162 -0.30502
 C464 C 0.70070 0.17533 -0.39477
 C465 C 0.68811 0.16324 -0.35280
 C466 C 0.67193 0.14781 -0.30488
 C467 C 0.65268 0.15298 -0.28189
 C468 C 0.63481 0.13606 -0.24012
 C469 C 0.63614 0.11392 -0.22118
 C470 C 0.65589 0.10919 -0.24292
 C471 C 0.67376 0.12611 -0.28469
 C472 C 0.61582 0.09480 -0.18371
 C473 C 0.59809 0.07818 -0.15470
 H474 H 0.65094 0.16956 -0.29758
 H475 H 0.61946 0.13977 -0.22400
 H476 H 0.65694 0.09200 -0.22897
 H477 H 0.68841 0.12179 -0.30256
 C478 C 1.17491 0.47325 -0.39664
 C479 C 1.16302 0.47367 -0.35415
 C480 C 1.14784 0.47434 -0.30556
 C481 C 1.15361 0.49868 -0.28115
 C482 C 1.13690 0.49967 -0.23878
 C483 C 1.11438 0.47632 -0.22067
 C484 C 1.10907 0.45190 -0.24378
 C485 C 1.12578 0.45091 -0.28615
 C486 C 1.09539 0.47768 -0.18294
 C487 C 1.07885 0.47897 -0.15391
 H488 H 1.17048 0.51693 -0.29624
 H489 H 1.14104 0.51868 -0.22161
 H490 H 1.09157 0.43376 -0.23050
 H491 H 1.12101 0.43201 -0.30513
 C492 C 0.52634 0.70120 -0.39451
 C493 C 0.52590 0.68886 -0.35219
 C494 C 0.52523 0.67297 -0.30379
 C495 C 0.50084 0.65418 -0.28000
 C496 C 0.49988 0.63648 -0.23784
 C497 C 0.52332 0.63752 -0.21933
 C498 C 0.54779 0.65686 -0.24181
 C499 C 0.54874 0.67455 -0.28397
 C500 C 0.52205 0.61722 -0.18181
 C501 C 0.52084 0.59943 -0.15294
 H502 H 0.48252 0.65263 -0.29541
 H503 H 0.48084 0.62144 -0.22116
 H504 H 0.56600 0.65767 -0.22821
 H505 H 0.56768 0.68886 -0.30246
 C506 C 0.29870 -0.17548 -0.39603
 C507 C 0.31096 -0.16359 -0.35350
 C508 C 0.32674 -0.14841 -0.30484
 C509 C 0.32509 -0.12655 -0.28502
 C510 C 0.34271 -0.10982 -0.24259
 C511 C 0.36205 -0.11490 -0.21982
 C512 C 0.36316 -0.13724 -0.23833
 C513 C 0.34554 -0.15397 -0.28077
 C514 C 0.38231 -0.09587 -0.18205
 C515 C 0.40008 -0.07928 -0.15298
 H516 H 0.31079 -0.12194 -0.30374
 H517 H 0.34184 -0.09246 -0.22900
 H518 H 0.37821 -0.14121 -0.22144
 H519 H 0.34715 -0.17069 -0.29617
 C520 C 0.52661 -0.17481 0.39407
 C521 C 0.52621 -0.16290 0.35172
 C522 C 0.52555 -0.14771 0.30328
 C523 C 0.50118 -0.15349 0.27887
 C524 C 0.50019 -0.13678 0.23666
 C525 C 0.52357 -0.11424 0.21870
 C526 C 0.54802 -0.10893 0.24179
 C527 C 0.54901 -0.12563 0.28401
 C528 C 0.52220 -0.09527 0.18116
 C529 C 0.52089 -0.07874 0.15228
 H530 H 0.48290 -0.17037 0.29385
 H531 H 0.48115 -0.14093 0.21950
 H532 H 0.56619 -0.09141 0.22863
 H533 H 0.56793 -0.12085 0.30298
 C534 C 0.29853 0.47345 0.39466
 C535 C 0.31089 0.47388 0.35227
 C536 C 0.32678 0.47457 0.30375
 C537 C 0.34544 0.49892 0.27969
 C538 C 0.36315 0.49991 0.23736
 C539 C 0.36224 0.47655 0.21893
 C540 C 0.34304 0.45212 0.24169
 C541 C 0.32533 0.45113 0.28402
 C542 C 0.38259 0.47790 0.18124
 C543 C 0.40042 0.47917 0.15224
 H544 H 0.34688 0.51718 0.29502
 H545 H 0.37809 0.51893 0.22047
 H546 H 0.34234 0.43397 0.22816
 H547 H 0.31114 0.43223 0.30272
 C548 C 1.17548 0.70103 0.39487
 C549 C 1.16356 0.68871 0.35244
 C550 C 1.14835 0.67286 0.30388
 C551 C 1.12642 0.67446 0.28412
 C552 C 1.10968 0.65681 0.24174
 C553 C 1.11481 0.63751 0.21898
 C554 C 1.13720 0.63645 0.23743
 C555 C 1.15395 0.65410 0.27981
 C556 C 1.09578 0.61724 0.18124
 C557 C 1.07918 0.59946 0.15220
 H558 H 1.12178 0.68873 0.30283
 H559 H 1.09227 0.65763 0.22819
 H560 H 1.14121 0.62144 0.22053
 H561 H 1.17071 0.65255 0.29516
 C562 C 0.47292 0.17436 0.39651
 C563 C 0.47338 0.16224 0.35448
 C564 C 0.47410 0.14681 0.30643
 C565 C 0.45064 0.12475 0.28696
 C566 C 0.45166 0.10790 0.24498
 C567 C 0.47613 0.11306 0.22232
 C568 C 0.49952 0.13556 0.24056
 C569 C 0.49851 0.15240 0.28254
 C570 C 0.47748 0.09406 0.18461
 C571 C 0.47873 0.07754 0.15541
 H572 H 0.43169 0.12011 0.30552
 H573 H 0.43348 0.09043 0.23157
 H574 H 0.51857 0.13960 0.22373
 H575 H 0.51679 0.16928 0.29767
 C576 C 0.70114 0.52669 0.39728
 C577 C 0.68860 0.52620 0.35516
 C578 C 0.67251 0.52545 0.30696
 C579 C 0.67390 0.54885 0.28740
 C580 C 0.65611 0.54782 0.24521
 C581 C 0.63687 0.52336 0.22243
 C582 C 0.63599 0.50003 0.24077
 C583 C 0.65378 0.50107 0.28295
 C584 C 0.61658 0.52200 0.18452
 C585 C 0.59883 0.52073 0.15516
 H586 H 0.68815 0.56779 0.30605
 H587 H 0.65681 0.56596 0.23175
 H588 H 0.62104 0.48099 0.22384
 H589 H 0.65238 0.48282 0.29813
 C590 C 0.82548 0.29971 0.39599
 C591 C 0.83752 0.31218 0.35388
 C592 C 0.85287 0.32820 0.30570
 C593 C 0.84733 0.34703 0.28198
 C594 C 0.86411 0.36475 0.23986
 C595 C 0.88651 0.36370 0.22130
 C596 C 0.89161 0.34436 0.24378
 C597 C 0.87482 0.32664 0.28590
 C598 C 0.90549 0.38392 0.18348
 C599 C 0.92201 0.40161 0.15422
 H600 H 0.83054 0.34856 0.29735
 H601 H 0.86012 0.37978 0.22317
 H602 H 0.90900 0.34353 0.23013
 H603 H 0.87942 0.31231 0.30433
   
