data_POSCAR
  _audit_creation_date              2014-09-24
  _audit_creation_method            'ToBaCCo'
  _symmetry_space_group_name_H-M    'P1'
  _symmetry_Int_Tables_number       1
  _symmetry_cell_setting            triclinic
  loop_
  _symmetry_equiv_pos_as_xyz
 x,y,z
_cell_length_a 26.3878
_cell_length_b 24.7958
_cell_length_c 7.6883
_cell_angle_alpha 87.521200
_cell_angle_beta 90.377600
_cell_angle_gamma 90.173700
loop_
  _atom_site_label
  _atom_site_type_symbol
  _atom_site_fract_x
  _atom_site_fract_y
  _atom_site_fract_z
C1 C 0.13011 0.24975 -0.03158
 C2 C 0.15463 0.20126 0.01230
 C3 C 0.20546 0.20164 0.06660
 C4 C 0.23340 0.25060 0.06969
 C5 C 0.20778 0.29897 0.01889
 C6 C 0.15625 0.29853 -0.02518
 C7 C 0.28772 0.25151 0.13292
 C8 C 0.31084 0.30003 0.18504
 C9 C 0.36092 0.30051 0.24630
 C10 C 0.38800 0.25244 0.26523
 C11 C 0.36584 0.20389 0.21953
 C12 C 0.31681 0.20354 0.14845
 H13 H 0.09007 0.24977 -0.06517
 H14 H 0.22191 0.16359 0.11049
 H15 H 0.22672 0.33762 0.01605
 H16 H 0.29048 0.33772 0.18304
 H17 H 0.42612 0.25277 0.31930
 H18 H 0.30196 0.16540 0.10812
 C19 C 0.88763 0.24604 0.23203
 C20 C 0.86556 0.29442 0.27669
 C21 C 0.81678 0.29459 0.34700
 C22 C 0.78769 0.24647 0.36312
 C23 C 0.81076 0.19797 0.31248
 C24 C 0.86069 0.19778 0.25164
 C25 C 0.73349 0.24730 0.42549
 C26 C 0.70746 0.19889 0.47393
 C27 C 0.65603 0.19952 0.51811
 C28 C 0.63055 0.24850 0.52651
 C29 C 0.65551 0.29685 0.48450
 C30 C 0.70606 0.29636 0.43044
 H31 H 0.92558 0.24607 0.17845
 H32 H 0.80226 0.33281 0.38608
 H33 H 0.79054 0.16008 0.31539
 H34 H 0.72603 0.16016 0.47504
 H35 H 0.59065 0.24899 0.56014
 H36 H 0.72255 0.33455 0.38843
 C37 C 0.61258 0.74735 0.73365
 C38 C 0.63944 0.69918 0.75395
 C39 C 0.68946 0.69955 0.81596
 C40 C 0.71274 0.74812 0.86720
 C41 C 0.68377 0.79616 0.85024
 C42 C 0.63486 0.79584 0.77874
 C43 C 0.76703 0.74902 0.93099
 C44 C 0.79485 0.79804 0.93540
 C45 C 0.84562 0.79846 0.99026
 C46 C 0.87022 0.75000 1.03361
 C47 C 0.84424 0.70117 1.02587
 C48 C 0.79276 0.70064 0.98101
 H49 H 0.57453 0.74725 0.67914
 H50 H 0.70962 0.66174 0.81924
 H51 H 0.69853 0.83442 0.88958
 H52 H 0.77840 0.83613 0.89213
 H53 H 0.91023 0.75004 1.06765
 H54 H 0.77399 0.66191 0.98262
 C55 C 0.36814 0.75094 0.47088
 C56 C 0.34234 0.79970 0.47815
 C57 C 0.29105 0.80011 0.52355
 C58 C 0.26546 0.75166 0.57438
 C59 C 0.29316 0.70276 0.57044
 C60 C 0.34362 0.70249 0.51512
 C61 C 0.21144 0.75236 0.63830
 C62 C 0.18242 0.70422 0.65477
 C63 C 0.13376 0.70429 0.72652
 C64 C 0.11180 0.75275 0.77201
 C65 C 0.13876 0.80100 0.75195
 C66 C 0.18854 0.80081 0.68993
 H67 H 0.40796 0.75083 0.43644
 H68 H 0.27234 0.83875 0.52160
 H69 H 0.27696 0.66460 0.61431
 H70 H 0.19703 0.66613 0.61455
 H71 H 0.07394 0.75286 0.82648
 H72 H 0.20883 0.83867 0.68679
 O73 O 1.05529 -0.06161 0.06238
 O74 O 0.96410 0.03788 0.21504
 O75 O 0.95991 -0.06403 0.13829
 O76 O 1.05954 0.04040 0.13870
 O77 O 1.04040 0.06359 -0.13477
 O78 O 0.94076 -0.04080 -0.13516
 O79 O 0.94500 0.06102 -0.05841
 O80 O 1.03617 -0.03850 -0.21107
 Cu81 Cu 1.01169 -0.01428 0.16580
 Cu82 Cu 0.98866 0.01379 -0.16206
 C83 C 1.06044 -0.06764 -0.09946
 C84 C 0.93974 0.06693 0.10344
 C85 C 0.93414 -0.07068 0.00093
 C86 C 1.06614 0.07029 0.00261
 O87 O 0.54089 0.43628 0.63581
 O88 O 0.44090 0.53961 0.63852
 O89 O 0.44527 0.43793 0.55950
 O90 O 0.53662 0.53805 0.71476
 O91 O 0.55465 0.56193 0.44176
 O92 O 0.46331 0.46183 0.28650
 O93 O 0.45899 0.56357 0.36552
 O94 O 0.55896 0.46025 0.36280
 Cu95 Cu 0.48907 0.48544 0.66430
 Cu96 Cu 0.51083 0.51445 0.33701
 C97 C 0.56612 0.43012 0.49823
 C98 C 0.43371 0.56970 0.50303
 C99 C 0.43955 0.43221 0.39747
 C100 C 0.56041 0.56762 0.60378
 O101 O -0.03484 0.55863 0.15824
 O102 O 0.06450 0.45678 0.10581
 O103 O 0.05680 0.56091 0.04008
 O104 O -0.02702 0.45452 0.22479
 O105 O -0.05539 0.43972 -0.04027
 O106 O 0.02843 0.54618 -0.22500
 O107 O 0.03616 0.44184 -0.15924
 O108 O -0.06319 0.54364 -0.10676
 Cu109 Cu 0.01786 0.50926 0.15873
 Cu110 Cu -0.01644 0.49130 -0.15941
 C111 C -0.06532 0.56889 0.03298
 C112 C 0.06654 0.43144 -0.03382
 C113 C 0.05624 0.57214 -0.12245
 C114 C -0.05491 0.42861 0.12235
 O115 O 0.46310 0.94217 0.34031
 O116 O 0.56342 1.04405 0.38828
 O117 O 0.55520 0.94028 0.45860
 O118 O 0.47126 1.04621 0.27047
 O119 O 0.44419 1.06186 0.53511
 O120 O 0.52812 0.95600 0.72318
 O121 O 0.53636 1.05996 0.65281
 O122 O 0.43606 0.95805 0.60488
 Cu123 Cu 0.51609 0.99153 0.33795
 Cu124 Cu 0.48333 1.01062 0.65543
 C125 C 0.43316 0.93230 0.46615
 C126 C 0.56634 1.06979 0.52702
 C127 C 0.55537 0.92969 0.62151
 C128 C 0.44401 1.07250 0.37224
 C129 C 1.12757 0.15435 0.01015
 C130 C 1.10104 0.11471 0.00687
 C131 C 0.61515 0.64990 0.70521
 C132 C 0.59173 0.61089 0.66113
 C133 C -0.10800 0.34412 0.23518
 C134 C -0.08454 0.38389 0.18885
 C135 C 0.37085 0.84917 0.46083
 C136 C 0.39783 0.88848 0.45762
 C137 C -0.12729 0.65180 0.04169
 C138 C -0.10043 0.61258 0.04342
 C139 C 0.39092 1.15693 0.25884
 C140 C 0.41437 1.11713 0.30491
 C141 C 1.11476 -0.14978 -0.19953
 C142 C 1.09156 -0.11082 -0.15591
 C143 C 0.62742 0.34650 0.48833
 C144 C 0.60100 0.38598 0.49281
 C145 C 0.87263 -0.15462 -0.00699
 C146 C 0.89919 -0.11502 -0.00339
 C147 C 0.38505 0.34981 0.29565
 C148 C 0.40834 0.38888 0.34002
 C149 C 0.10885 0.65717 -0.23411
 C150 C 0.08563 0.61713 -0.18853
 C151 C 0.62874 1.15284 0.53279
 C152 C 0.60173 1.11355 0.53568
 C153 C 0.12798 0.34804 -0.04166
 C154 C 0.10137 0.38747 -0.04384
 C155 C 0.60847 0.84544 0.73640
 C156 C 0.58502 0.88512 0.68923
 C157 C 0.88487 0.14864 0.20349
 C158 C 0.90833 0.10986 0.15995
 C159 C 0.37203 0.65304 0.51216
 C160 C 0.39867 0.61370 0.50816
   
