data_POSCAR
  _audit_creation_date              2014-09-24
  _audit_creation_method            'ToBaCCo'
  _symmetry_space_group_name_H-M    'P1'
  _symmetry_Int_Tables_number       1
  _symmetry_cell_setting            triclinic
  loop_
  _symmetry_equiv_pos_as_xyz
 x,y,z
_cell_length_a 49.1371
_cell_length_b 50.6762
_cell_length_c 52.2349
_cell_angle_alpha 90.030500
_cell_angle_beta 89.860800
_cell_angle_gamma 89.942100
loop_
  _atom_site_label
  _atom_site_type_symbol
  _atom_site_fract_x
  _atom_site_fract_y
  _atom_site_fract_z
O1 O 0.32525 0.36031 0.02512
 O2 O 0.35835 0.32378 -0.02739
 O3 O 0.32257 0.36091 -0.02498
 O4 O 0.36197 0.32285 0.02190
 O5 O 0.32825 0.29426 0.02552
 O6 O 0.29005 0.33088 -0.02393
 O7 O 0.32672 0.29295 -0.02448
 O8 O 0.29164 0.33137 0.02545
 Cu9 Cu 0.34525 0.34505 -0.00136
 Cu10 Cu 0.30591 0.30929 0.00074
 C11 C 0.30256 0.35230 0.03387
 C12 C 0.34838 0.30190 -0.03454
 C13 C 0.29972 0.35234 -0.03265
 C14 C 0.35188 0.30214 0.03170
 O15 O 0.64475 0.68229 -0.02519
 O16 O 0.68213 0.64469 0.02353
 O17 O 0.64595 0.68191 0.02468
 O18 O 0.68046 0.64470 -0.02635
 O19 O 0.71372 0.67397 -0.02679
 O20 O 0.67845 0.71200 0.02374
 O21 O 0.71518 0.67422 0.02271
 O22 O 0.67739 0.71226 -0.02581
 Cu23 Cu 0.66004 0.66043 -0.00075
 Cu24 Cu 0.69950 0.69612 -0.00164
 C25 C 0.65455 0.70377 -0.03361
 C26 C 0.70509 0.65291 0.03126
 C27 C 0.65611 0.70338 0.03271
 C28 C 0.70313 0.65273 -0.03507
 O29 O 0.67839 0.35721 0.97591
 O30 O 0.64293 0.31987 1.02629
 O31 O 0.67836 0.35761 1.02591
 O32 O 0.64236 0.31981 0.97640
 O33 O 0.67496 0.28975 0.97660
 O34 O 0.71177 0.32843 1.02541
 O35 O 0.67584 0.29011 1.02610
 O36 O 0.71148 0.32765 0.97583
 Cu37 Cu 0.65721 0.34160 1.00112
 Cu38 Cu 0.69686 0.30602 1.00096
 C39 C 0.70107 0.34888 0.96744
 C40 C 0.65324 0.29856 1.03462
 C41 C 0.70130 0.34964 1.03398
 C42 C 0.65229 0.29823 0.96831
 O43 O 0.36295 0.67638 1.02213
 O44 O 0.32309 0.63864 0.97535
 O45 O 0.35919 0.67551 0.97288
 O46 O 0.32636 0.63890 1.02547
 O47 O 0.29262 0.66771 1.02587
 O48 O 0.32782 0.70660 0.97631
 O49 O 0.29088 0.66909 0.97648
 O50 O 0.32917 0.70491 1.02626
 Cu51 Cu 0.34609 0.65424 0.99890
 Cu52 Cu 0.30687 0.69014 1.00138
 C53 C 0.35287 0.69701 1.03217
 C54 C 0.30037 0.64757 0.96772
 C55 C 0.34937 0.69757 0.96603
 C56 C 0.30360 0.64675 1.03427
 O57 O -0.02707 0.36130 0.32413
 O58 O 0.02570 0.32587 0.36052
 O59 O 0.02607 0.36149 0.32469
 O60 O -0.02742 0.32622 0.36032
 O61 O -0.02660 0.29422 0.33161
 O62 O 0.02594 0.33026 0.29516
 O63 O 0.02590 0.29428 0.33135
 O64 O -0.02670 0.32968 0.29498
 Cu65 Cu -0.00069 0.34689 0.34533
 Cu66 Cu -0.00033 0.30895 0.31033
 C67 C -0.03570 0.35158 0.30326
 C68 C 0.03453 0.30389 0.35225
 C69 C 0.03485 0.35207 0.30371
 C70 C -0.03587 0.30404 0.35227
 O71 O 0.02645 0.67527 0.64010
 O72 O -0.02637 0.63946 0.67614
 O73 O -0.02669 0.67440 0.63991
 O74 O 0.02668 0.63993 0.67623
 O75 O 0.02569 0.67134 0.70558
 O76 O -0.02681 0.70650 0.66853
 O77 O -0.02684 0.67112 0.70524
 O78 O 0.02575 0.70705 0.66907
 Cu79 Cu 0.00012 0.65409 0.65517
 Cu80 Cu -0.00059 0.69221 0.69002
 C81 C 0.03483 0.69739 0.64831
 C82 C -0.03538 0.64909 0.69695
 C83 C -0.03564 0.69647 0.64785
 C84 C 0.03493 0.64953 0.69728
 O85 O 1.02946 0.64050 0.32529
 O86 O 0.97343 0.67237 0.36070
 O87 O 0.97713 0.63691 0.32402
 O88 O 1.02659 0.67517 0.36136
 O89 O 1.02549 0.70680 0.33231
 O90 O 0.97349 0.66964 0.29630
 O91 O 0.97311 0.70496 0.33261
 O92 O 1.02651 0.67127 0.29545
 Cu93 Cu 1.00163 0.65309 0.34582
 Cu94 Cu 0.99955 0.69133 0.31120
 C95 C 1.03712 0.65021 0.30407
 C96 C 0.96424 0.69443 0.35301
 C97 C 0.96703 0.64664 0.30378
 C98 C 1.03459 0.69745 0.35319
 O99 O 0.97381 0.32440 0.63974
 O100 O 1.02671 0.35940 0.67617
 O101 O 1.02694 0.32449 0.63976
 O102 O 0.97364 0.35949 0.67606
 O103 O 0.97392 0.32793 0.70523
 O104 O 1.02640 0.29232 0.66826
 O105 O 1.02647 0.32766 0.70516
 O106 O 0.97385 0.29246 0.66852
 Cu107 Cu 1.00028 0.34513 0.65503
 Cu108 Cu 1.00016 0.30688 0.68969
 C109 C 0.96505 0.30234 0.64780
 C110 C 1.03534 0.34964 0.69701
 C111 C 1.03549 0.30226 0.64761
 C112 C 0.96501 0.34986 0.69699
 O113 O 0.32182 -0.02617 0.35515
 O114 O 0.35684 0.02544 0.31821
 O115 O 0.32177 0.02527 0.35539
 O116 O 0.35714 -0.02603 0.31811
 O117 O 0.32395 -0.02579 0.28965
 O118 O 0.28808 0.02510 0.32746
 O119 O 0.32362 0.02523 0.28977
 O120 O 0.28817 -0.02597 0.32717
 Cu121 Cu 0.34275 -0.00038 0.33953
 Cu122 Cu 0.30257 -0.00036 0.30568
 C123 C 0.29890 -0.03464 0.34760
 C124 C 0.34635 0.03392 0.29760
 C125 C 0.29880 0.03373 0.34792
 C126 C 0.34675 -0.03443 0.29743
 O127 O 0.63880 0.02580 0.67724
 O128 O 0.67394 -0.02580 0.64041
 O129 O 0.63832 -0.02434 0.67752
 O130 O 0.67436 0.02607 0.63994
 O131 O 0.70820 0.02556 0.66771
 O132 O 0.67212 -0.02518 0.70537
 O133 O 0.70778 -0.02542 0.66819
 O134 O 0.67262 0.02648 0.70508
 Cu135 Cu 0.65316 0.00046 0.65573
 Cu136 Cu 0.69354 0.00037 0.68944
 C137 C 0.64943 0.03449 0.69768
 C138 C 0.69685 -0.03435 0.64799
 C139 C 0.64882 -0.03296 0.69805
 C140 C 0.69743 0.03432 0.64735
 O141 O 0.36010 0.97426 0.67742
 O142 O 0.32495 1.02606 0.64074
 O143 O 0.36051 1.02582 0.67745
 O144 O 0.32465 0.97461 0.64061
 O145 O 0.29114 0.97507 0.66890
 O146 O 0.32741 1.02579 0.70616
 O147 O 0.29148 1.02604 0.66907
 O148 O 0.32696 0.97470 0.70610
 Cu149 Cu 0.34591 1.00016 0.65621
 Cu150 Cu 0.30591 1.00042 0.69044
 C151 C 0.34962 0.96584 0.69810
 C152 C 0.30209 1.03463 0.64852
 C153 C 0.35018 1.03435 0.69817
 C154 C 0.30166 0.96636 0.64833
 O155 O 0.67189 1.02596 0.36332
 O156 O 0.63611 0.97468 0.32670
 O157 O 0.67198 0.97402 0.36358
 O158 O 0.63589 1.02493 0.32669
 O159 O 0.66952 1.02574 0.29852
 O160 O 0.70550 0.97432 0.33531
 O161 O 0.66966 0.97399 0.29844
 O162 O 0.70558 1.02525 0.33526
 Cu163 Cu 0.65080 0.99988 0.34815
 Cu164 Cu 0.69088 0.99982 0.31398
 C165 C 0.69489 1.03428 0.35562
 C166 C 0.64655 0.96599 0.30612
 C167 C 0.69488 0.96554 0.35578
 C168 C 0.64633 1.03367 0.30615
 O169 O 0.81899 0.85408 0.52590
 O170 O 0.85521 0.81676 0.47603
 O171 O 0.81896 0.85403 0.47606
 O172 O 0.85547 0.81724 0.52600
 O173 O 0.82332 0.78678 0.52590
 O174 O 0.78612 0.82428 0.47654
 O175 O 0.82289 0.78647 0.47639
 O176 O 0.78625 0.82421 0.52606
 Cu177 Cu 0.84044 0.83852 0.50094
 Cu178 Cu 0.80136 0.80239 0.50123
 C179 C 0.79636 0.84563 0.53430
 C180 C 0.84539 0.79518 0.46790
 C181 C 0.79619 0.84565 0.46806
 C182 C 0.84576 0.79568 0.53429
 O183 O 0.14145 0.17942 0.47508
 O184 O 0.17834 0.14223 0.52453
 O185 O 0.14194 0.17926 0.52506
 O186 O 0.17754 0.14205 0.47454
 O187 O 0.21047 0.17171 0.47434
 O188 O 0.17422 0.20959 0.52425
 O189 O 0.21114 0.17203 0.52396
 O190 O 0.17394 0.20955 0.47478
 Cu191 Cu 0.15655 0.15773 0.49984
 Cu192 Cu 0.19575 0.19371 0.49929
 C193 C 0.15129 0.20091 0.46668
 C194 C 0.20108 0.15072 0.53255
 C195 C 0.15185 0.20086 0.53305
 C196 C 0.20014 0.15041 0.46598
 O197 O 0.14088 0.82192 0.52462
 O198 O 0.17698 0.85881 0.47432
 O199 O 0.14054 0.82194 0.47461
 O200 O 0.17725 0.85905 0.52432
 O201 O 0.21005 0.82920 0.52387
 O202 O 0.17276 0.79148 0.47485
 O203 O 0.20968 0.82884 0.47427
 O204 O 0.17327 0.79164 0.52433
 Cu205 Cu 0.15565 0.84346 0.49951
 Cu206 Cu 0.19474 0.80727 0.49932
 C207 C 0.15079 0.80040 0.53286
 C208 C 0.19952 0.85017 0.46583
 C209 C 0.15029 0.80030 0.46645
 C210 C 0.19999 0.85057 0.53238
 O211 O 0.81977 0.14410 0.47362
 O212 O 0.85712 0.18043 0.52335
 O213 O 0.82054 0.14357 0.52350
 O214 O 0.85650 0.18080 0.47332
 O215 O 0.82445 0.21141 0.47436
 O216 O 0.78797 0.17367 0.52410
 O217 O 0.82499 0.21097 0.52391
 O218 O 0.78714 0.17413 0.47468
 Cu219 Cu 0.84175 0.15921 0.49836
 Cu220 Cu 0.80290 0.19562 0.49931
 C221 C 0.79695 0.15274 0.46595
 C222 C 0.84752 0.20195 0.53196
 C223 C 0.79801 0.15211 0.53213
 C224 C 0.84674 0.20254 0.46548
 O225 O 0.52534 0.82706 0.86107
 O226 O 0.47075 0.85979 0.82461
 O227 O 0.47216 0.82452 0.86041
 O228 O 0.52313 0.86309 0.82503
 O229 O 0.52771 0.83071 0.79699
 O230 O 0.47382 0.79355 0.83065
 O231 O 0.47479 0.82958 0.79431
 O232 O 0.52627 0.79480 0.83262
 Cu233 Cu 0.49772 0.84671 0.84582
 Cu234 Cu 0.50082 0.80902 0.81065
 C235 C 0.53464 0.80505 0.85330
 C236 C 0.46399 0.85056 0.80294
 C237 C 0.46420 0.80254 0.85151
 C238 C 0.53401 0.85357 0.80500
 O239 O 0.52923 0.17296 0.14145
 O240 O 0.47149 0.14034 0.17371
 O241 O 0.47688 0.17569 0.13753
 O242 O 0.52389 0.13714 0.17720
 O243 O 0.52654 0.17016 0.20473
 O244 O 0.47316 0.20539 0.16833
 O245 O 0.47362 0.16993 0.20472
 O246 O 0.52603 0.20608 0.16882
 Cu247 Cu 0.50043 0.15335 0.15453
 Cu248 Cu 0.49978 0.19108 0.18962
 C249 C 0.53672 0.19559 0.14915
 C250 C 0.46345 0.14911 0.19523
 C251 C 0.46679 0.19693 0.14624
 C252 C 0.53346 0.14714 0.19754
 O253 O 0.52416 0.13784 0.82541
 O254 O 0.47235 0.17588 0.86030
 O255 O 0.47174 0.14043 0.82468
 O256 O 0.52555 0.17384 0.86157
 O257 O 0.52632 0.20608 0.83311
 O258 O 0.47564 0.17059 0.79436
 O259 O 0.47388 0.20679 0.83051
 O260 O 0.52854 0.17023 0.79739
 Cu261 Cu 0.49836 0.15391 0.84603
 Cu262 Cu 0.50127 0.19156 0.81085
 C263 C 0.53506 0.14747 0.80545
 C264 C 0.46418 0.19773 0.85128
 C265 C 0.46502 0.14952 0.80296
 C266 C 0.53462 0.19594 0.85389
 O267 O 0.47793 0.82448 0.13659
 O268 O 0.52495 0.86317 0.17610
 O269 O 0.53034 0.82767 0.14000
 O270 O 0.47255 0.85995 0.17275
 O271 O 0.47512 0.83034 0.20369
 O272 O 0.52760 0.79444 0.16725
 O273 O 0.52801 0.83006 0.20346
 O274 O 0.47465 0.79475 0.16738
 Cu275 Cu 0.50145 0.84700 0.15341
 Cu276 Cu 0.50132 0.80919 0.18839
 C277 C 0.46805 0.80320 0.14536
 C278 C 0.53471 0.85312 0.19634
 C279 C 0.53811 0.80507 0.14757
 C280 C 0.46473 0.85115 0.19432
 O281 O 0.82347 0.47428 0.85841
 O282 O 0.85902 0.52537 0.82118
 O283 O 0.82360 0.52585 0.85800
 O284 O 0.85907 0.47388 0.82155
 O285 O 0.82608 0.47400 0.79288
 O286 O 0.79004 0.52526 0.82992
 O287 O 0.82594 0.52500 0.79260
 O288 O 0.79007 0.47420 0.83015
 Cu289 Cu 0.84462 0.49984 0.84264
 Cu290 Cu 0.80467 0.49958 0.80854
 C291 C 0.80062 0.46572 0.85074
 C292 C 0.84866 0.53370 0.80047
 C293 C 0.80069 0.53423 0.85027
 C294 C 0.84880 0.46535 0.80086
 O295 O 0.14497 0.52712 0.18135
 O296 O 0.18034 0.47507 0.14521
 O297 O 0.14407 0.47558 0.18145
 O298 O 0.18099 0.52638 0.14503
 O299 O 0.21420 0.52555 0.17348
 O300 O 0.17654 0.47550 0.21064
 O301 O 0.21331 0.47473 0.17393
 O302 O 0.17766 0.52666 0.21032
 Cu303 Cu 0.15927 0.50106 0.16040
 Cu304 Cu 0.19869 0.50056 0.19506
 C305 C 0.15521 0.53565 0.20204
 C306 C 0.20302 0.46635 0.15319
 C307 C 0.15387 0.46707 0.20234
 C308 C 0.20404 0.53429 0.15281
 O309 O 0.82765 0.52539 0.13913
 O310 O 0.85973 0.47211 0.17641
 O311 O 0.82483 0.47376 0.13961
 O312 O 0.86342 0.52285 0.17643
 O313 O 0.82904 0.52720 0.20346
 O314 O 0.79166 0.47553 0.16821
 O315 O 0.82743 0.47589 0.20570
 O316 O 0.79339 0.52641 0.16660
 Cu317 Cu 0.84720 0.49846 0.15495
 Cu318 Cu 0.80703 0.50144 0.18887
 C319 C 0.80475 0.53453 0.14625
 C320 C 0.84932 0.46537 0.19768
 C321 C 0.80179 0.46613 0.14773
 C322 C 0.85293 0.53325 0.19624
 O323 O 0.17459 0.52503 0.85910
 O324 O 0.13938 0.47354 0.82208
 O325 O 0.17469 0.47355 0.85899
 O326 O 0.13914 0.52511 0.82224
 O327 O 0.17226 0.52490 0.79354
 O328 O 0.20833 0.47412 0.83084
 O329 O 0.17261 0.47388 0.79351
 O330 O 0.20803 0.52504 0.83074
 Cu331 Cu 0.15358 0.49930 0.84343
 Cu332 Cu 0.19366 0.49949 0.80929
 C333 C 0.19745 0.53356 0.85135
 C334 C 0.14990 0.46513 0.80140
 C335 C 0.19774 0.46535 0.85134
 C336 C 0.14952 0.53357 0.80152
 C337 C 0.26104 0.39706 0.08860
 N338 N 0.28812 0.40068 0.08474
 N339 N 0.30150 0.38632 0.06741
 C340 C 0.28830 0.36764 0.05356
 N341 N 0.26131 0.36382 0.05765
 N342 N 0.24788 0.37838 0.07474
 C343 C 0.24588 0.41390 0.10647
 N344 N 0.21849 0.41646 0.10422
 N345 N 0.20475 0.43285 0.11944
 C346 C 0.21786 0.44698 0.13770
 N347 N 0.24521 0.44414 0.14021
 N348 N 0.25900 0.42799 0.12477
 C349 C 0.74840 0.60623 0.08296
 N350 N 0.76147 0.62460 0.06857
 N351 N 0.74760 0.63993 0.05246
 C352 C 0.72024 0.63718 0.04998
 N353 N 0.70722 0.61880 0.06435
 N354 N 0.72102 0.60372 0.08067
 C355 C 0.76354 0.58867 0.10014
 N356 N 0.75026 0.57519 0.11879
 N357 N 0.76360 0.55838 0.13379
 C358 C 0.79067 0.55418 0.13050
 N359 N 0.80401 0.56767 0.11185
 N360 N 0.79069 0.58474 0.09701
 C361 C 0.74324 0.39473 0.91408
 N362 N 0.71602 0.39787 0.91742
 N363 N 0.70251 0.38306 0.93424
 C364 C 0.71568 0.36435 0.94809
 N365 N 0.74284 0.36098 0.94453
 N366 N 0.75641 0.37602 0.92793
 C367 C 0.75835 0.41212 0.89669
 N368 N 0.78565 0.41519 0.89928
 N369 N 0.79918 0.43207 0.88443
 C370 C 0.78596 0.44623 0.86624
 N371 N 0.75872 0.44291 0.86342
 N372 N 0.74513 0.42627 0.87848
 C373 C 0.25610 0.60317 0.91487
 N374 N 0.28335 0.59968 0.91740
 N375 N 0.29745 0.61399 0.93413
 C376 C 0.28488 0.63254 0.94872
 N377 N 0.25767 0.63627 0.94600
 N378 N 0.24349 0.62172 0.92947
 C379 C 0.24049 0.58634 0.89740
 N380 N 0.21323 0.58331 0.90047
 N381 N 0.19939 0.56676 0.88555
 C382 C 0.21227 0.55292 0.86683
 N383 N 0.23946 0.55623 0.86355
 N384 N 0.25334 0.57254 0.87866
 C385 C 0.08854 0.26053 0.39731
 N386 N 0.08587 0.28698 0.40073
 N387 N 0.06892 0.30092 0.38614
 C388 C 0.05432 0.28897 0.36741
 N389 N 0.05728 0.26259 0.36378
 N390 N 0.07396 0.24860 0.37856
 C391 C 0.10581 0.24488 0.41441
 N392 N 0.10150 0.21858 0.41713
 N393 N 0.11619 0.20451 0.43362
 C394 C 0.13596 0.21617 0.44774
 N395 N 0.14051 0.24242 0.44481
 N396 N 0.12558 0.25656 0.42855
 C397 C 0.08877 0.74093 0.60314
 N398 N 0.07391 0.75287 0.62178
 N399 N 0.05727 0.73884 0.63663
 C400 C 0.05464 0.71241 0.63318
 N401 N 0.06953 0.70046 0.61456
 N402 N 0.08643 0.71444 0.59991
 C403 C 0.10593 0.75660 0.58588
 N404 N 0.12569 0.74491 0.57162
 N405 N 0.14044 0.75901 0.55514
 C406 C 0.13572 0.78522 0.55210
 N407 N 0.11597 0.79690 0.56637
 N408 N 0.10146 0.78287 0.58308
 C409 C 0.90869 0.73609 0.39822
 N410 N 0.91221 0.70975 0.40171
 N411 N 0.92962 0.69626 0.38707
 C412 C 0.94384 0.70860 0.36825
 N413 N 0.94000 0.73485 0.36457
 N414 N 0.92287 0.74837 0.37938
 C415 C 0.89115 0.75146 0.41542
 N416 N 0.89482 0.77789 0.41775
 N417 N 0.87998 0.79185 0.43428
 C418 C 0.86066 0.77994 0.44882
 N419 N 0.85671 0.75355 0.44626
 N420 N 0.87181 0.73952 0.42996
 C421 C 0.91069 0.25993 0.60229
 N422 N 0.92537 0.24761 0.62075
 N423 N 0.94216 0.26127 0.63570
 C424 C 0.94513 0.28770 0.63253
 N425 N 0.93043 0.30004 0.61410
 N426 N 0.91338 0.28642 0.59935
 C427 C 0.89330 0.24468 0.58496
 N428 N 0.87361 0.25675 0.57102
 N429 N 0.85859 0.24301 0.55452
 C430 C 0.86299 0.21679 0.55112
 N431 N 0.88268 0.20472 0.56505
 N432 N 0.89746 0.21839 0.58178
 C433 C 0.39077 0.08767 0.25373
 N434 N 0.37078 0.07300 0.24287
 N435 N 0.35609 0.05635 0.25700
 C436 C 0.36112 0.05356 0.28240
 N437 N 0.38108 0.06825 0.29325
 N438 N 0.39552 0.08513 0.27920
 C439 C 0.40804 0.10493 0.23810
 N440 N 0.42333 0.12395 0.24934
 N441 N 0.44036 0.13856 0.23546
 C442 C 0.44296 0.13448 0.20989
 N443 N 0.42759 0.11553 0.19860
 N444 N 0.41031 0.10111 0.21245
 C445 C 0.60398 0.08480 0.74434
 N446 N 0.59173 0.06585 0.73014
 N447 N 0.60633 0.05033 0.71482
 C448 C 0.63376 0.05288 0.71350
 N449 N 0.64613 0.07174 0.72783
 N450 N 0.63142 0.08765 0.74282
 C451 C 0.58756 0.10120 0.76147
 N452 N 0.59116 0.12773 0.76264
 N453 N 0.57467 0.14263 0.77693
 C454 C 0.55440 0.13138 0.79089
 N455 N 0.55114 0.10483 0.79000
 N456 N 0.56726 0.09004 0.77536
 C457 C 0.39329 0.91166 0.74212
 N458 N 0.37274 0.92594 0.75268
 N459 N 0.35836 0.94273 0.73847
 C460 C 0.36425 0.94608 0.71328
 N461 N 0.38476 0.93177 0.70271
 N462 N 0.39893 0.91475 0.71684
 C463 C 0.41021 0.89441 0.75808
 N464 N 0.42654 0.87586 0.74724
 N465 N 0.44308 0.86128 0.76165
 C466 C 0.44410 0.86494 0.78738
 N467 N 0.42771 0.88342 0.79822
 N468 N 0.41093 0.89777 0.78385
 C469 C 0.60120 0.91526 0.26005
 N470 N 0.62869 0.91272 0.26118
 N471 N 0.64334 0.92876 0.27599
 C472 C 0.63088 0.94746 0.29053
 N473 N 0.60340 0.94969 0.28962
 N474 N 0.58885 0.93404 0.27447
 C475 C 0.58492 0.89892 0.24280
 N476 N 0.56439 0.91006 0.22927
 N477 N 0.54887 0.89541 0.21403
 C478 C 0.55297 0.86901 0.21215
 N479 N 0.57342 0.85777 0.22581
 N480 N 0.58933 0.87255 0.24071
 C481 C 0.39165 0.25767 0.91156
 N482 N 0.39574 0.28406 0.91371
 N483 N 0.38158 0.29822 0.93060
 C484 C 0.36261 0.28657 0.94575
 N485 N 0.35820 0.26025 0.94333
 N486 N 0.37259 0.24602 0.92664
 C487 C 0.40888 0.24180 0.89452
 N488 N 0.41146 0.21542 0.89829
 N489 N 0.42873 0.20129 0.88415
 C490 C 0.44381 0.21297 0.86554
 N491 N 0.44092 0.23927 0.86148
 N492 N 0.42387 0.25346 0.87582
 C493 C 0.60765 0.74769 0.91522
 N494 N 0.60398 0.72127 0.91758
 N495 N 0.61917 0.70726 0.93369
 C496 C 0.63886 0.71910 0.94776
 N497 N 0.64279 0.74549 0.94519
 N498 N 0.62734 0.75958 0.92930
 C499 C 0.58987 0.76309 0.89835
 N500 N 0.58641 0.78943 0.90193
 N501 N 0.56899 0.80298 0.88744
 C502 C 0.55471 0.79070 0.86868
 N503 N 0.55845 0.76444 0.86493
 N504 N 0.57558 0.75086 0.87959
 C505 C 0.40025 0.74166 0.08222
 N506 N 0.37298 0.73968 0.08599
 N507 N 0.35772 0.72542 0.07005
 C508 C 0.36935 0.71228 0.05016
 N509 N 0.39664 0.71403 0.04664
 N510 N 0.41178 0.72867 0.06224
 C511 C 0.41711 0.75816 0.09884
 N512 N 0.43779 0.77243 0.08863
 N513 N 0.45360 0.78717 0.10353
 C514 C 0.44965 0.78778 0.12922
 N515 N 0.42907 0.77336 0.13953
 N516 N 0.41288 0.75899 0.12453
 C517 C 0.60897 0.25452 0.08785
 N518 N 0.60413 0.28071 0.08484
 N519 N 0.61849 0.29481 0.06809
 C520 C 0.63844 0.28330 0.05397
 N521 N 0.64356 0.25717 0.05720
 N522 N 0.62895 0.24299 0.07374
 C523 C 0.59182 0.23881 0.10505
 N524 N 0.58991 0.21224 0.10215
 N525 N 0.57274 0.19829 0.11656
 C526 C 0.55714 0.21039 0.13457
 N527 N 0.55939 0.23688 0.13772
 N528 N 0.57631 0.25086 0.12313
 C529 C 0.25952 0.08813 0.60282
 N530 N 0.28680 0.08502 0.59994
 N531 N 0.30047 0.06822 0.61474
 C532 C 0.28739 0.05418 0.63315
 N533 N 0.26018 0.05755 0.63626
 N534 N 0.24646 0.07411 0.62127
 C535 C 0.24419 0.10533 0.58547
 N536 N 0.21695 0.10212 0.58259
 N537 N 0.20317 0.11676 0.56587
 C538 C 0.21608 0.13537 0.55166
 N539 N 0.24327 0.13882 0.55476
 N540 N 0.25711 0.12394 0.57126
 C541 C 0.73678 0.08842 0.39865
 N542 N 0.71066 0.08218 0.40458
 N543 N 0.69696 0.06474 0.39053
 C544 C 0.70878 0.05315 0.36984
 N545 N 0.73479 0.05974 0.36371
 N546 N 0.74860 0.07689 0.37797
 C547 C 0.75244 0.10628 0.41506
 N548 N 0.78000 0.10461 0.41582
 N549 N 0.79423 0.11971 0.43180
 C550 C 0.78143 0.13732 0.44729
 N551 N 0.75390 0.13927 0.44627
 N552 N 0.73963 0.12389 0.43056
 C553 C 0.73858 0.91034 0.60344
 N554 N 0.71136 0.91382 0.60051
 N555 N 0.69795 0.93127 0.61489
 C556 C 0.71124 0.94562 0.63289
 N557 N 0.73838 0.94190 0.63603
 N558 N 0.75184 0.92468 0.62146
 C559 C 0.75370 0.89245 0.58653
 N560 N 0.78099 0.89523 0.58358
 N561 N 0.79463 0.88004 0.56717
 C562 C 0.78153 0.86128 0.55336
 N563 N 0.75429 0.85823 0.55655
 N564 N 0.74058 0.87365 0.57275
 C565 C 0.25680 0.91208 0.39399
 N566 N 0.28414 0.91497 0.39632
 N567 N 0.29764 0.93168 0.38126
 C568 C 0.28433 0.94585 0.36313
 N569 N 0.25704 0.94268 0.36056
 N570 N 0.24349 0.92621 0.37583
 C571 C 0.24171 0.89502 0.41170
 N572 N 0.21456 0.89846 0.41523
 N573 N 0.20107 0.88399 0.43233
 C574 C 0.21418 0.86534 0.44630
 N575 N 0.24127 0.86167 0.44255
 N576 N 0.25483 0.87637 0.42567
 C577 C 0.08907 0.39414 0.74125
 N578 N 0.08696 0.39844 0.71568
 N579 N 0.07016 0.38396 0.70147
 C580 C 0.05515 0.36441 0.71226
 N581 N 0.05756 0.35985 0.73776
 N582 N 0.07410 0.37456 0.75203
 C583 C 0.10603 0.41137 0.75715
 N584 N 0.10100 0.41378 0.78261
 N585 N 0.11522 0.43069 0.79681
 C586 C 0.13522 0.44552 0.78611
 N587 N 0.14051 0.44284 0.76072
 N588 N 0.12605 0.42619 0.74646
 C589 C 0.09325 0.60742 0.26058
 N590 N 0.07720 0.62593 0.24940
 N591 N 0.05993 0.64023 0.26340
 C592 C 0.05786 0.63629 0.28903
 N593 N 0.07399 0.61788 0.30023
 N594 N 0.09149 0.60381 0.28628
 C595 C 0.11075 0.59028 0.24501
 N596 N 0.13090 0.57592 0.25603
 N597 N 0.14561 0.55902 0.24217
 C598 C 0.14045 0.55565 0.21686
 N599 N 0.12038 0.57009 0.20582
 N600 N 0.10589 0.58720 0.21961
 C601 C 0.90963 0.39520 0.25914
 N602 N 0.92408 0.37509 0.24860
 N603 N 0.94097 0.36075 0.26286
 C604 C 0.94427 0.36621 0.28810
 N605 N 0.92976 0.38627 0.29867
 N606 N 0.91263 0.40043 0.28447
 C607 C 0.89248 0.41208 0.24305
 N608 N 0.89650 0.41291 0.21735
 N609 N 0.88234 0.42956 0.20283
 C610 C 0.86339 0.44574 0.21344
 N611 N 0.85904 0.44463 0.23909
 N612 N 0.87345 0.42820 0.25367
 C613 C 0.91034 0.60440 0.74060
 N614 N 0.92499 0.62410 0.75152
 N615 N 0.94174 0.63882 0.73743
 C616 C 0.94470 0.63416 0.71199
 N617 N 0.93002 0.61449 0.70105
 N618 N 0.91300 0.59998 0.71508
 C619 C 0.89315 0.58720 0.75636
 N620 N 0.87336 0.57226 0.74552
 N621 N 0.85867 0.55568 0.75972
 C622 C 0.86352 0.55320 0.78518
 N623 N 0.88329 0.56815 0.79601
 N624 N 0.89773 0.58498 0.78189
 C625 C 0.74370 0.60674 0.91251
 N626 N 0.71762 0.60120 0.91918
 N627 N 0.70441 0.61629 0.93600
 C628 C 0.71664 0.63773 0.94653
 N629 N 0.74260 0.64353 0.93951
 N630 N 0.75596 0.62818 0.92296
 C631 C 0.75868 0.58905 0.89524
 N632 N 0.78622 0.58733 0.89645
 N633 N 0.79966 0.57003 0.88192
 C634 C 0.78608 0.55411 0.86540
 N635 N 0.75858 0.55610 0.86394
 N636 N 0.74510 0.57312 0.87874
 C637 C 0.25666 0.39629 0.91527
 N638 N 0.28270 0.40264 0.92123
 N639 N 0.29662 0.38832 0.93809
 C640 C 0.28517 0.36687 0.94937
 N641 N 0.25920 0.36031 0.94314
 N642 N 0.24512 0.37489 0.92655
 C643 C 0.24110 0.41295 0.89760
 N644 N 0.21354 0.41417 0.89906
 N645 N 0.19962 0.43061 0.88407
 C646 C 0.21275 0.44612 0.86683
 N647 N 0.24027 0.44461 0.86512
 N648 N 0.25421 0.42846 0.88035
 C649 C 0.26310 0.60260 0.08810
 N650 N 0.28901 0.59636 0.08126
 N651 N 0.30227 0.61075 0.06390
 C652 C 0.29023 0.63210 0.05299
 N653 N 0.26446 0.63852 0.06016
 N654 N 0.25108 0.62392 0.07722
 C655 C 0.24783 0.58586 0.10596
 N656 N 0.22022 0.58530 0.10516
 N657 N 0.20625 0.56912 0.12038
 C658 C 0.21936 0.55323 0.13724
 N659 N 0.24695 0.55404 0.13830
 N660 N 0.26096 0.56995 0.12281
 C661 C 0.74285 0.39505 0.08595
 N662 N 0.75486 0.37363 0.07510
 N663 N 0.74122 0.35855 0.05863
 C664 C 0.71520 0.36458 0.05209
 N665 N 0.70322 0.38601 0.06299
 N666 N 0.71673 0.40086 0.07973
 C667 C 0.75821 0.41241 0.10313
 N668 N 0.74507 0.42866 0.11976
 N669 N 0.75900 0.44532 0.13449
 C670 C 0.78654 0.44659 0.13285
 N671 N 0.79967 0.43035 0.11622
 N672 N 0.78578 0.41343 0.10176
 C673 C 0.90958 0.73733 0.60380
 N674 N 0.91616 0.71200 0.59801
 N675 N 0.93374 0.69866 0.61245
 C676 C 0.94511 0.71003 0.63342
 N677 N 0.93813 0.73523 0.63944
 N678 N 0.92086 0.74871 0.62477
 C679 C 0.89175 0.75258 0.58684
 N680 N 0.89404 0.77923 0.58553
 N681 N 0.87912 0.79300 0.56898
 C682 C 0.86107 0.78065 0.55343
 N683 N 0.85848 0.75403 0.55499
 N684 N 0.87371 0.74022 0.57128
 C685 C 0.90983 0.26210 0.39609
 N686 N 0.92147 0.25100 0.37509
 N687 N 0.93857 0.26482 0.36048
 C688 C 0.94500 0.29012 0.36659
 N689 N 0.93327 0.30121 0.38758
 N690 N 0.91587 0.28752 0.40195
 C691 C 0.89218 0.24650 0.41298
 N692 N 0.87401 0.25855 0.42876
 N693 N 0.85897 0.24445 0.44501
 C694 C 0.86186 0.21784 0.44634
 N695 N 0.88004 0.20580 0.43058
 N696 N 0.89478 0.21986 0.41406
 C697 C 0.08938 0.26041 0.60312
 N698 N 0.08332 0.28588 0.59745
 N699 N 0.06607 0.29955 0.61205
 C700 C 0.05452 0.28839 0.63307
 N701 N 0.06099 0.26304 0.63898
 N702 N 0.07792 0.24924 0.62415
 C703 C 0.10683 0.24482 0.58599
 N704 N 0.10411 0.21820 0.58476
 N705 N 0.11871 0.20415 0.56808
 C706 C 0.13684 0.21617 0.55231
 N707 N 0.13986 0.24276 0.55378
 N708 N 0.12496 0.25685 0.57020
 C709 C 0.08748 0.74053 0.39727
 N710 N 0.08184 0.71503 0.40312
 N711 N 0.06484 0.70104 0.38868
 C712 C 0.05313 0.71188 0.36763
 N713 N 0.05913 0.73729 0.36155
 N714 N 0.07582 0.75143 0.37623
 C715 C 0.10492 0.75627 0.41414
 N716 N 0.12337 0.74432 0.42959
 N717 N 0.13832 0.75846 0.44582
 C718 C 0.13504 0.78501 0.44746
 N719 N 0.11657 0.79696 0.43203
 N720 N 0.10191 0.78287 0.41552
 C721 C 0.60286 0.91691 0.74443
 N722 N 0.59084 0.93631 0.73063
 N723 N 0.60558 0.95185 0.71549
 C724 C 0.63297 0.94888 0.71395
 N725 N 0.64512 0.92958 0.72791
 N726 N 0.63026 0.91366 0.74271
 C727 C 0.58627 0.90032 0.76126
 N728 N 0.59017 0.87381 0.76246
 N729 N 0.57369 0.85877 0.77660
 C730 C 0.55314 0.86982 0.79037
 N731 N 0.54957 0.89634 0.78943
 N732 N 0.56567 0.91128 0.77494
 C733 C 0.39180 0.91231 0.25326
 N734 N 0.37165 0.92688 0.24247
 N735 N 0.35677 0.94336 0.25667
 C736 C 0.36175 0.94609 0.28210
 N737 N 0.38186 0.93151 0.29287
 N738 N 0.39650 0.91480 0.27874
 C739 C 0.40923 0.89517 0.23754
 N740 N 0.42474 0.87624 0.24869
 N741 N 0.44181 0.86169 0.23473
 C742 C 0.44423 0.86573 0.20914
 N743 N 0.42866 0.88461 0.19794
 N744 N 0.41134 0.89896 0.21187
 C745 C 0.60057 0.08466 0.26055
 N746 N 0.58838 0.06567 0.27479
 N747 N 0.60307 0.04991 0.28973
 C748 C 0.63055 0.05220 0.29060
 N749 N 0.64285 0.07110 0.27623
 N750 N 0.62807 0.08725 0.26162
 C751 C 0.58411 0.10113 0.24354
 N752 N 0.58831 0.12755 0.24170
 N753 N 0.57223 0.14241 0.22702
 C754 C 0.55179 0.13122 0.21333
 N755 N 0.54788 0.10478 0.21496
 N756 N 0.56357 0.09006 0.22998
 C757 C 0.39452 0.08807 0.74217
 N758 N 0.40007 0.08490 0.71688
 N759 N 0.38572 0.06801 0.70277
 C760 C 0.36510 0.05391 0.71337
 N761 N 0.35932 0.05733 0.73859
 N762 N 0.37388 0.07399 0.75276
 C763 C 0.41153 0.10530 0.75808
 N764 N 0.41223 0.10206 0.78387
 N765 N 0.42895 0.11649 0.79822
 C766 C 0.44532 0.13493 0.78734
 N767 N 0.44434 0.13846 0.76160
 N768 N 0.42786 0.12380 0.74721
 C769 C 0.61142 0.74709 0.08610
 N770 N 0.60725 0.72077 0.08338
 N771 N 0.62181 0.70681 0.06663
 C772 C 0.64133 0.71858 0.05221
 N773 N 0.64580 0.74485 0.05517
 N774 N 0.63099 0.75889 0.07172
 C775 C 0.59396 0.76260 0.10331
 N776 N 0.59146 0.78911 0.10036
 N777 N 0.57403 0.80281 0.11478
 C778 C 0.55872 0.79052 0.13287
 N779 N 0.56154 0.76408 0.13606
 N780 N 0.57873 0.75035 0.12146
 C781 C 0.39905 0.25777 0.08227
 N782 N 0.41067 0.27070 0.06232
 N783 N 0.39559 0.28518 0.04652
 C784 C 0.36825 0.28683 0.04978
 N785 N 0.35652 0.27374 0.06963
 N786 N 0.37171 0.25965 0.08577
 C787 C 0.41589 0.24147 0.09912
 N788 N 0.41144 0.24077 0.12480
 N789 N 0.42763 0.22659 0.13999
 C790 C 0.44844 0.21225 0.12992
 N791 N 0.45262 0.21275 0.10425
 N792 N 0.43681 0.22729 0.08916
 C793 C 0.60636 0.25395 0.91660
 N794 N 0.62587 0.24218 0.93101
 N795 N 0.64102 0.25637 0.94707
 C796 C 0.63695 0.28277 0.94950
 N797 N 0.61743 0.29450 0.93511
 N798 N 0.60255 0.28038 0.91883
 C799 C 0.58889 0.23842 0.89954
 N800 N 0.57471 0.25052 0.88062
 N801 N 0.55789 0.23679 0.86577
 C802 C 0.55436 0.21051 0.86948
 N803 N 0.56855 0.19835 0.88839
 N804 N 0.58565 0.21205 0.90307
 C805 C 0.39265 0.74210 0.91238
 N806 N 0.37363 0.75369 0.92758
 N807 N 0.35926 0.73938 0.94421
 C808 C 0.36364 0.71303 0.94642
 N809 N 0.38260 0.70144 0.93116
 N810 N 0.39674 0.71569 0.91434
 C811 C 0.40976 0.75806 0.89529
 N812 N 0.42470 0.74649 0.87647
 N813 N 0.44149 0.76078 0.86199
 C814 C 0.44417 0.78712 0.86601
 N815 N 0.42915 0.79870 0.88476
 N816 N 0.41214 0.78446 0.89904
 C817 C 0.73741 0.91063 0.40003
 N818 N 0.71021 0.91406 0.40336
 N819 N 0.69657 0.93140 0.38912
 C820 C 0.70958 0.94573 0.37086
 N821 N 0.73670 0.94207 0.36735
 N822 N 0.75040 0.92496 0.38177
 C823 C 0.75278 0.89271 0.41669
 N824 N 0.78013 0.89542 0.41915
 N825 N 0.79400 0.88014 0.43526
 C826 C 0.78109 0.86135 0.44924
 N827 N 0.75378 0.85839 0.44654
 N828 N 0.73985 0.87389 0.43065
 C829 C 0.25863 0.91331 0.60248
 N830 N 0.28595 0.91608 0.59970
 N831 N 0.29974 0.93275 0.61453
 C832 C 0.28675 0.94700 0.63288
 N833 N 0.25948 0.94399 0.63587
 N834 N 0.24564 0.92755 0.62084
 C835 C 0.24321 0.89612 0.58514
 N836 N 0.21599 0.89950 0.58217
 N837 N 0.20218 0.88482 0.56551
 C838 C 0.21502 0.86600 0.55145
 N839 N 0.24218 0.86240 0.55463
 N840 N 0.25606 0.87731 0.57107
 C841 C 0.25690 0.08731 0.39444
 N842 N 0.24349 0.07313 0.37637
 N843 N 0.25695 0.05652 0.36110
 C844 C 0.28424 0.05327 0.36356
 N845 N 0.29765 0.06747 0.38160
 N846 N 0.28425 0.08431 0.39666
 C847 C 0.24194 0.10465 0.41209
 N848 N 0.25521 0.12334 0.42590
 N849 N 0.24179 0.13832 0.44269
 C850 C 0.21467 0.13494 0.44651
 N851 N 0.20141 0.11626 0.43270
 N852 N 0.21477 0.10149 0.41570
 C853 C 0.73995 0.08810 0.60173
 N854 N 0.71262 0.08521 0.59913
 N855 N 0.69899 0.06824 0.61382
 C856 C 0.71216 0.05380 0.63185
 N857 N 0.73942 0.05693 0.63465
 N858 N 0.75310 0.07366 0.61975
 C859 C 0.75521 0.10566 0.58458
 N860 N 0.78242 0.10240 0.58130
 N861 N 0.79612 0.11743 0.56479
 C862 C 0.78316 0.13648 0.55121
 N863 N 0.75601 0.13997 0.55472
 N864 N 0.74224 0.12472 0.57100
 C865 C 0.91635 0.60021 0.25825
 N866 N 0.93683 0.58920 0.27196
 N867 N 0.95251 0.60403 0.28691
 C868 C 0.94859 0.63048 0.28835
 N869 N 0.92820 0.64159 0.27452
 N870 N 0.91215 0.62665 0.25992
 C871 C 0.89972 0.58368 0.24144
 N872 N 0.87249 0.58766 0.23923
 N873 N 0.85744 0.57170 0.22471
 C874 C 0.86923 0.55160 0.21150
 N875 N 0.89648 0.54789 0.21347
 N876 N 0.91142 0.56350 0.22835
 C877 C 0.91081 0.39451 0.74106
 N878 N 0.91304 0.39867 0.71546
 N879 N 0.93001 0.38417 0.70133
 C880 C 0.94508 0.36473 0.71222
 N881 N 0.94256 0.36032 0.73775
 N882 N 0.92586 0.37505 0.75194
 C883 C 0.89357 0.41172 0.75687
 N884 N 0.89833 0.41424 0.78235
 N885 N 0.88381 0.43109 0.79645
 C886 C 0.86377 0.44576 0.78566
 N887 N 0.85875 0.44298 0.76025
 N888 N 0.87350 0.42638 0.74608
 C889 C 0.08847 0.60475 0.74160
 N890 N 0.07322 0.62413 0.75245
 N891 N 0.05675 0.63895 0.73819
 C892 C 0.05470 0.63470 0.71260
 N893 N 0.06999 0.61536 0.70173
 N894 N 0.08672 0.60077 0.71595
 C895 C 0.10541 0.58742 0.75746
 N896 N 0.12559 0.57276 0.74675
 N897 N 0.14008 0.55606 0.76095
 C898 C 0.13468 0.55316 0.78629
 N899 N 0.11452 0.56782 0.79701
 N900 N 0.10025 0.58477 0.78288
 C901 C 0.09000 0.39674 0.26084
 N902 N 0.08731 0.40073 0.28642
 N903 N 0.07001 0.38624 0.30016
 C904 C 0.05503 0.36700 0.28887
 N905 N 0.05799 0.36275 0.26335
 N906 N 0.07504 0.37747 0.24956
 C907 C 0.10769 0.41389 0.24543
 N908 N 0.10354 0.41646 0.21987
 N909 N 0.11849 0.43318 0.20609
 C910 C 0.13839 0.44769 0.21730
 N911 N 0.14279 0.44487 0.24281
 N912 N 0.12760 0.42839 0.25666
   
