data_POSCAR
  _audit_creation_date              2014-09-24
  _audit_creation_method            'ToBaCCo'
  _symmetry_space_group_name_H-M    'P1'
  _symmetry_Int_Tables_number       1
  _symmetry_cell_setting            triclinic
  loop_
  _symmetry_equiv_pos_as_xyz
 x,y,z
_cell_length_a 37.6240
_cell_length_b 10.7285
_cell_length_c 14.9702
_cell_angle_alpha 89.980500
_cell_angle_beta 89.674800
_cell_angle_gamma 92.160200
loop_
  _atom_site_label
  _atom_site_type_symbol
  _atom_site_fract_x
  _atom_site_fract_y
  _atom_site_fract_z
C1 C 0.64173 0.08400 0.51048
 C2 C 0.65880 0.08820 0.59404
 C3 C 0.69637 0.09532 0.59487
 C4 C 0.71613 0.11720 0.51536
 C5 C 0.69716 0.13332 0.43514
 C6 C 0.66005 0.11597 0.43143
 C7 C 0.75597 0.13930 0.51545
 C8 C 0.77547 0.12664 0.43488
 C9 C 0.81089 0.17167 0.42797
 C10 C 0.82587 0.23222 0.50303
 C11 C 0.81166 0.20908 0.58851
 C12 C 0.77530 0.17286 0.59379
 H13 H 0.61290 0.07720 0.50862
 H14 H 0.71010 0.08964 0.65724
 H15 H 0.71124 0.16726 0.37691
 H16 H 0.76284 0.08374 0.37759
 H17 H 0.85170 0.27927 0.49622
 H18 H 0.76289 0.17032 0.65890
 C19 C 0.17154 0.89609 0.48445
 C20 C 0.18875 0.91019 0.56648
 C21 C 0.22600 0.90352 0.56716
 C22 C 0.24509 0.87225 0.48849
 C23 C 0.22573 0.84576 0.40898
 C24 C 0.18887 0.85916 0.40633
 C25 C 0.28501 0.86799 0.48982
 C26 C 0.30520 0.88396 0.41043
 C27 C 0.34234 0.87585 0.41083
 C28 C 0.35950 0.86657 0.49351
 C29 C 0.34049 0.84226 0.57335
 C30 C 0.30306 0.84228 0.57002
 H31 H 0.14324 0.91067 0.48232
 H32 H 0.24010 0.92397 0.62806
 H33 H 0.23900 0.81704 0.34878
 H34 H 0.29206 0.89964 0.34808
 H35 H 0.38825 0.86178 0.49389
 H36 H 0.28769 0.81747 0.62842
 C37 C 0.32309 0.23894 -0.48986
 C38 C 0.30910 0.29050 -0.56795
 C39 C 0.27487 0.33773 -0.56352
 C40 C 0.25511 0.33646 -0.48273
 C41 C 0.27263 0.30164 -0.40353
 C42 C 0.30798 0.26386 -0.40583
 C43 C 0.21718 0.37682 -0.48222
 C44 C 0.19921 0.40732 -0.40241
 C45 C 0.16247 0.42826 -0.40239
 C46 C 0.14660 0.45285 -0.48555
 C47 C 0.16243 0.41460 -0.56560
 C48 C 0.19728 0.37234 -0.56189
 H49 H 0.34893 0.19782 -0.49305
 H50 H 0.26377 0.37678 -0.62287
 H51 H 0.25952 0.30489 -0.33952
 H52 H 0.21262 0.40689 -0.33904
 H53 H 0.11938 0.48149 -0.48711
 H54 H 0.20800 0.32789 -0.62015
 C55 C -0.14165 0.60204 -0.51264
 C56 C -0.15889 0.59977 -0.59587
 C57 C -0.19636 0.59282 -0.59583
 C58 C -0.21608 0.61372 -0.51684
 C59 C -0.19717 0.63492 -0.43676
 C60 C -0.16015 0.62627 -0.43326
 C61 C -0.25558 0.63124 -0.51864
 C62 C -0.27600 0.62387 -0.43878
 C63 C -0.31127 0.66234 -0.43641
 C64 C -0.32537 0.71074 -0.51534
 C65 C -0.30940 0.68689 -0.59830
 C66 C -0.27347 0.65726 -0.59921
 H67 H -0.11281 0.60546 -0.51130
 H68 H -0.21001 0.57642 -0.65761
 H69 H -0.21096 0.66738 -0.37870
 H70 H -0.26448 0.58929 -0.37831
 H71 H -0.35180 0.74754 -0.51411
 H72 H -0.26001 0.65685 -0.66278
 O73 O -0.03563 0.74868 0.14466
 O74 O -0.08117 0.84087 0.07089
 C75 C -0.06910 0.76255 0.12868
 O76 O 0.03736 1.24611 0.18392
 O77 O 0.08242 1.18253 0.09236
 C78 C 0.07054 1.24300 0.16125
 O79 O -0.05837 1.16293 0.18370
 O80 O -0.09233 1.03827 0.09021
 C81 C -0.08823 1.10821 0.16067
 O82 O 0.06198 0.81351 0.13445
 O83 O 0.09462 0.97307 0.06799
 C84 C 0.09152 0.87820 0.12199
 Zr85 Zr 0.00950 0.84763 0.09325
 O86 O 0.01222 0.79765 0.22960
 O87 O 0.01811 0.66175 0.05489
 Zr88 Zr -0.00722 1.15356 0.12734
 O89 O -0.00441 1.13279 0.26766
 O90 O -0.02086 1.34237 0.14068
 O91 O -0.02948 0.97298 0.12784
 O92 O 0.03126 1.02065 0.12816
 O93 O 0.05946 0.88057 -0.18023
 O94 O 0.09346 1.00729 -0.08808
 C95 C 0.08940 0.93518 -0.15761
 O96 O -0.05975 1.22409 -0.14325
 O97 O -0.09276 1.06776 -0.07336
 C98 C -0.08914 1.15859 -0.13064
 O99 O 0.03781 1.30669 -0.13424
 O100 O 0.08273 1.20806 -0.06338
 C101 C 0.07135 1.28790 -0.12039
 O102 O -0.03766 0.81434 -0.18617
 O103 O -0.08234 0.87087 -0.09096
 C104 C -0.07079 0.81636 -0.16241
 Zr105 Zr 0.00806 0.89382 -0.12545
 O106 O 0.01061 0.91240 -0.26611
 O107 O 0.01522 0.69945 -0.13668
 Zr108 Zr -0.00824 1.20084 -0.09120
 O109 O -0.00921 1.25502 -0.22670
 O110 O -0.02142 1.38408 -0.05408
 Zr111 Zr -0.05223 0.98242 -0.00017
 Zr112 Zr 0.05332 1.06466 0.00207
 O113 O 0.02948 1.07352 -0.12495
 O114 O -0.03080 1.02703 -0.12724
 O115 O 0.04212 0.87254 -0.01805
 O116 O -0.04028 1.17362 0.01937
 O117 O -0.02148 0.82468 -0.01879
 O118 O 0.02324 1.22503 0.02127
 H119 H 0.04650 1.02188 0.18183
 H120 H -0.06046 1.22984 0.02574
 H121 H 0.04339 1.09469 -0.17953
 H122 H -0.03412 0.74255 -0.02605
 H123 H -0.00090 1.39485 0.11638
 H124 H 0.00105 1.43179 -0.04188
 H125 H -0.00690 1.17789 -0.26193
 H126 H -0.00785 0.97084 -0.28350
 H127 H 0.03926 0.68244 -0.11418
 H128 H 0.02103 0.61508 0.11129
 H129 H 0.01314 0.87614 0.26410
 H130 H -0.01705 1.05307 0.28298
 O131 O 0.56125 0.68288 0.14383
 O132 O 0.59314 0.53836 0.06730
 C133 C 0.59045 0.62667 0.12590
 O134 O 0.43958 0.30159 0.17329
 O135 O 0.40621 0.42979 0.08722
 C136 C 0.40996 0.35279 0.15337
 O137 O 0.53663 0.26330 0.18085
 O138 O 0.58133 0.33755 0.08772
 C139 C 0.56982 0.27676 0.15817
 O140 O 0.46468 0.74531 0.14353
 O141 O 0.41821 0.64055 0.07390
 C142 C 0.43098 0.72422 0.12932
 Zr143 Zr 0.50896 0.64790 0.09673
 O144 O 0.51236 0.68952 0.23468
 O145 O 0.51987 0.83692 0.06328
 Zr146 Zr 0.49131 0.33594 0.12184
 O147 O 0.48916 0.35020 0.26269
 O148 O 0.48473 0.13917 0.12953
 O149 O 0.53095 0.47721 0.12654
 O150 O 0.47049 0.51104 0.12736
 O151 O 0.46118 0.69680 -0.17616
 O152 O 0.41630 0.61723 -0.08560
 C153 C 0.42792 0.68268 -0.15372
 O154 O 0.53375 0.21797 -0.15418
 O155 O 0.57974 0.31256 -0.07627
 C156 C 0.56731 0.23557 -0.13649
 O157 O 0.43603 0.26108 -0.14008
 O158 O 0.40459 0.41129 -0.06843
 C159 C 0.40703 0.31976 -0.12467
 O160 O 0.55753 0.63872 -0.18042
 O161 O 0.59123 0.51399 -0.09254
 C162 C 0.58720 0.58787 -0.16036
 Zr163 Zr 0.50650 0.61430 -0.12327
 O164 O 0.50327 0.60585 -0.26413
 O165 O 0.52009 0.80754 -0.12956
 Zr166 Zr 0.48889 0.30208 -0.09793
 O167 O 0.48357 0.25834 -0.23487
 O168 O 0.48222 0.10974 -0.06724
 Zr169 Zr 0.55149 0.44493 -0.00241
 Zr170 Zr 0.44632 0.50558 0.00105
 O171 O 0.46788 0.47270 -0.12683
 O172 O 0.52810 0.43825 -0.13012
 O173 O 0.47701 0.67302 -0.01411
 O174 O 0.52023 0.27954 0.01273
 O175 O 0.54014 0.63463 -0.01581
 O176 O 0.45676 0.31424 0.01467
 H177 H 0.45618 0.52534 0.18159
 H178 H 0.53285 0.20041 0.01785
 H179 H 0.45296 0.47320 -0.18091
 H180 H 0.56025 0.69656 -0.02176
 H181 H 0.46112 0.11531 0.10473
 H182 H 0.45684 0.09256 -0.05246
 H183 H 0.49189 0.33345 -0.26819
 H184 H 0.51435 0.52792 -0.28284
 H185 H 0.49997 0.85303 -0.10422
 H186 H 0.52390 0.88102 0.12066
 H187 H 0.49872 0.62303 0.26701
 H188 H 0.50716 0.41506 0.28024
 C189 C 0.33357 0.30909 0.35045
 C190 C 0.37045 0.35938 0.37945
 C191 C 0.39477 0.36808 0.31352
 C192 C 0.38036 0.33405 0.22083
 C193 C 0.36486 0.20070 0.23143
 C194 C 0.34049 0.18767 0.29924
 C195 C 0.32327 0.40243 0.27691
 C196 C 0.34773 0.41513 0.20930
 H197 H 0.37654 0.39557 0.44490
 H198 H 0.42180 0.40212 0.32630
 H199 H 0.37157 0.12429 0.18774
 H200 H 0.32617 0.10032 0.31271
 H201 H 0.30010 0.45927 0.27861
 H202 H 0.34457 0.47996 0.15449
 C203 C -0.13770 0.63244 0.32551
 C204 C -0.15617 0.64677 0.23366
 C205 C -0.13367 0.68555 0.16632
 C206 C -0.09483 0.70548 0.19561
 C207 C -0.09608 0.79550 0.27401
 C208 C -0.11876 0.76045 0.34004
 C209 C -0.10721 0.54346 0.30638
 C210 C -0.08498 0.58117 0.23820
 H211 H -0.18411 0.62852 0.22039
 H212 H -0.14265 0.69900 0.09833
 H213 H -0.07799 0.87548 0.27987
 H214 H -0.12140 0.81644 0.39991
 H215 H -0.10320 0.45872 0.34400
 H216 H -0.06251 0.52782 0.21706
 C217 C 0.66681 0.67308 0.31933
 C218 C 0.63133 0.60685 0.34519
 C219 C 0.60722 0.59956 0.27985
 C220 C 0.62050 0.64946 0.19020
 C221 C 0.63248 0.78528 0.20903
 C222 C 0.65672 0.79747 0.27671
 C223 C 0.67964 0.59425 0.23983
 C224 C 0.65531 0.58154 0.17237
 H225 H 0.62612 0.56027 0.40767
 H226 H 0.58057 0.56084 0.29108
 H227 H 0.62366 0.86423 0.17085
 H228 H 0.66881 0.88687 0.29581
 H229 H 0.70508 0.55027 0.23665
 H230 H 0.66049 0.52872 0.11219
 C231 C 0.13860 1.37861 0.35552
 C232 C 0.10760 1.46470 0.33591
 C233 C 0.08566 1.42333 0.26901
 C234 C 0.09623 1.29838 0.22838
 C235 C 0.13490 1.32183 0.19750
 C236 C 0.15702 1.36451 0.26361
 C237 C 0.12031 1.25111 0.37407
 C238 C 0.09804 1.21044 0.30895
 H239 H 0.10231 1.54801 0.37316
 H240 H 0.06259 1.47360 0.24835
 H241 H 0.14371 1.31233 0.12878
 H242 H 0.18442 1.39345 0.24971
 H243 H 0.12410 1.19771 0.43466
 H244 H 0.08277 1.12277 0.31465
 C245 C 0.63709 0.11626 -0.32849
 C246 C 0.65445 0.13057 -0.23512
 C247 C 0.63147 0.16628 -0.16952
 C248 C 0.59323 0.18289 -0.20213
 C249 C 0.59677 0.27428 -0.27963
 C250 C 0.61996 0.24252 -0.34370
 C251 C 0.60532 0.02309 -0.31234
 C252 C 0.58248 0.05781 -0.24625
 H253 H 0.68156 0.10911 -0.21914
 H254 H 0.63940 0.17610 -0.10020
 H255 H 0.58046 0.35438 -0.28568
 H256 H 0.62487 0.30126 -0.40183
 H257 H 0.60134 -0.06339 -0.34919
 H258 H 0.55931 0.00082 -0.22659
 C259 C 0.16624 0.92012 -0.35503
 C260 C 0.14285 0.79973 -0.34384
 C261 C 0.11836 0.80358 -0.27699
 C262 C 0.11897 0.92687 -0.22584
 C263 C 0.15766 0.94630 -0.19402
 C264 C 0.18250 0.94252 -0.26136
 C265 C 0.13942 1.02413 -0.36446
 C266 C 0.11434 1.02395 -0.29921
 H267 H 0.14460 0.71914 -0.38741
 H268 H 0.09918 0.72751 -0.26436
 H269 H 0.16487 0.96192 -0.12472
 H270 H 0.21060 0.95681 -0.24781
 H271 H 0.13903 1.08880 -0.42024
 H272 H 0.09157 1.08186 -0.30283
 C273 C 0.36039 0.80353 -0.34909
 C274 C 0.38141 0.68706 -0.37120
 C275 C 0.40329 0.65146 -0.30549
 C276 C 0.40195 0.73095 -0.22062
 C277 C 0.41035 0.86480 -0.25272
 C278 C 0.38889 0.90236 -0.31985
 C279 C 0.34058 0.76795 -0.26074
 C280 C 0.36242 0.72931 -0.19417
 H281 H 0.38000 0.63815 -0.43472
 H282 H 0.42135 0.57635 -0.31489
 H283 H 0.43122 0.92522 -0.22469
 H284 H 0.39184 0.99466 -0.34935
 H285 H 0.31236 0.77480 -0.24847
 H286 H 0.35249 0.70361 -0.12822
 C287 C -0.16305 1.19938 -0.33110
 C288 C -0.15936 1.31542 -0.27063
 C289 C -0.13578 1.30377 -0.20158
 C290 C -0.11815 1.17654 -0.19867
 C291 C -0.14942 1.07971 -0.19704
 C292 C -0.17266 1.09123 -0.26604
 C293 C -0.12443 1.17341 -0.35923
 C294 C -0.10161 1.16278 -0.29129
 H295 H -0.17394 1.39944 -0.28139
 H296 H -0.13039 1.37761 -0.15345
 H297 H -0.15302 1.00776 -0.14648
 H298 H -0.19548 1.02739 -0.27398
 H299 H -0.11477 1.16181 -0.42638
 H300 H -0.07376 1.14478 -0.30318
 C301 C 0.66392 0.64030 -0.35582
 C302 C 0.67391 0.54201 -0.28550
 C303 C 0.64939 0.52584 -0.21820
 C304 C 0.61699 0.60866 -0.22707
 C305 C 0.63291 0.74226 -0.23351
 C306 C 0.65737 0.75883 -0.30089
 C307 C 0.62680 0.59370 -0.38609
 C308 C 0.60255 0.58110 -0.32053
 H309 H 0.69707 0.48518 -0.28945
 H310 H 0.65239 0.45792 -0.16532
 H311 H 0.62613 0.81649 -0.18796
 H312 H 0.67148 0.84736 -0.31266
 H313 H 0.61995 0.56617 -0.45290
 H314 H 0.57530 0.55131 -0.33478
 C315 C 0.14023 1.39651 -0.32478
 C316 C 0.15433 1.29414 -0.26337
 C317 C 0.13255 1.26446 -0.19308
 C318 C 0.09769 1.33627 -0.19044
 C319 C 0.11048 1.47363 -0.18997
 C320 C 0.13337 1.50405 -0.25927
 C321 C 0.10308 1.34350 -0.35152
 C322 C 0.08124 1.31555 -0.28274
 H323 H 0.17908 1.24728 -0.27352
 H324 H 0.13994 1.19655 -0.14356
 H325 H 0.10605 1.53613 -0.13436
 H326 H 0.15001 1.58816 -0.25781
 H327 H 0.09533 1.31535 -0.41849
 H328 H 0.05542 1.27033 -0.29416
 C329 C 0.33229 0.27525 -0.32368
 C330 C 0.36964 0.32628 -0.35010
 C331 C 0.39293 0.33511 -0.28281
 C332 C 0.37758 0.29816 -0.19156
 C333 C 0.34465 0.37807 -0.18062
 C334 C 0.32107 0.36644 -0.24947
 C335 C 0.33875 0.15236 -0.27384
 C336 C 0.36244 0.16428 -0.20465
 H337 H 0.37749 0.35819 -0.41559
 H338 H 0.42031 0.36630 -0.29442
 H339 H 0.34024 0.43904 -0.12413
 H340 H 0.29727 0.42029 -0.25116
 H341 H 0.32538 0.06414 -0.29060
 H342 H 0.36926 0.08637 -0.16263
 C343 C -0.13855 0.67190 -0.35315
 C344 C -0.15777 0.69658 -0.26339
 C345 C -0.13579 0.74363 -0.19817
 C346 C -0.09672 0.75999 -0.22795
 C347 C -0.08693 0.63038 -0.26179
 C348 C -0.10871 0.58452 -0.32729
 C349 C -0.11945 0.79693 -0.37611
 C350 C -0.09746 0.84144 -0.31174
 H351 H -0.18535 0.67158 -0.24889
 H352 H -0.14502 0.76018 -0.13055
 H353 H -0.06523 0.57804 -0.23520
 H354 H -0.10550 0.49309 -0.35661
 H355 H -0.12267 0.84623 -0.43868
 H356 H -0.08113 0.92577 -0.32091
 C357 C 0.36406 0.84738 0.32705
 C358 C 0.39806 0.93077 0.31550
 C359 C 0.41983 0.89511 0.24757
 C360 C 0.40582 0.77871 0.19672
 C361 C 0.39919 0.68083 0.26936
 C362 C 0.37736 0.71465 0.33578
 C363 C 0.34654 0.84852 0.23348
 C364 C 0.36848 0.81206 0.16548
 H365 H 0.40401 1.01278 0.35594
 H366 H 0.44420 0.94702 0.23030
 H367 H 0.41193 0.59298 0.26998
 H368 H 0.37073 0.65247 0.39120
 H369 H 0.32006 0.87964 0.22000
 H370 H 0.36043 0.81155 0.09597
 C371 C -0.16619 1.14951 0.35182
 C372 C -0.17769 1.05430 0.27859
 C373 C -0.15258 1.04038 0.21279
 C374 C -0.11847 1.12271 0.22592
 C375 C -0.13162 1.25558 0.23372
 C376 C -0.15638 1.26979 0.29946
 C377 C -0.13071 1.09914 0.38374
 C378 C -0.10576 1.09093 0.31990
 H379 H -0.20216 0.99777 0.27927
 H380 H -0.15632 0.97465 0.15826
 H381 H -0.12331 1.33076 0.18885
 H382 H -0.16926 1.35735 0.31027
 H383 H -0.12622 1.06361 0.45016
 H384 H -0.07922 1.06229 0.33582
 C385 C 0.63810 0.15513 0.35104
 C386 C 0.61553 0.26610 0.37660
 C387 C 0.59307 0.30142 0.31215
 C388 C 0.59579 0.22820 0.22477
 C389 C 0.63535 0.23704 0.19873
 C390 C 0.65752 0.19782 0.26407
 C391 C 0.61071 0.05405 0.31966
 C392 C 0.58888 0.09170 0.25311
 H393 H 0.61517 0.30772 0.44256
 H394 H 0.57225 0.36549 0.32634
 H395 H 0.64504 0.26523 0.13307
 H396 H 0.68574 0.19196 0.25123
 H397 H 0.60806 -0.03835 0.34894
 H398 H 0.56813 0.03080 0.22501
 C399 C 0.16643 0.85096 0.32179
 C400 C 0.15912 0.98288 0.29006
 C401 C 0.13598 0.98740 0.22168
 C402 C 0.12092 0.86043 0.19000
 C403 C 0.15454 0.78857 0.16638
 C404 C 0.17864 0.78356 0.23581
 C405 C 0.12988 0.78858 0.34161
 C406 C 0.10629 0.79507 0.27477
 H407 H 0.17362 1.06578 0.31381
 H408 H 0.13222 1.07321 0.18602
 H409 H 0.15889 0.74517 0.10200
 H410 H 0.20329 0.73489 0.23011
 H411 H 0.12334 0.73997 0.40342
 H412 H 0.08007 0.75032 0.28115
   
