data_POSCAR
  _audit_creation_date              2014-09-24
  _audit_creation_method            'ToBaCCo'
  _symmetry_space_group_name_H-M    'P1'
  _symmetry_Int_Tables_number       1
  _symmetry_cell_setting            triclinic
  loop_
  _symmetry_equiv_pos_as_xyz
 x,y,z
_cell_length_a 35.2079
_cell_length_b 35.2079
_cell_length_c 35.2079
_cell_angle_alpha 90.000900
_cell_angle_beta 89.999700
_cell_angle_gamma 89.999700
loop_
  _atom_site_label
  _atom_site_type_symbol
  _atom_site_fract_x
  _atom_site_fract_y
  _atom_site_fract_z
O1 O 0.55187 0.50002 0.03119
 O2 O 0.44720 0.50002 0.03116
 O3 O 0.49954 0.44777 0.03117
 O4 O 0.49954 0.55226 0.03117
 O5 O 0.49954 0.55226 -0.03147
 O6 O 0.49954 0.44778 -0.03147
 O7 O 0.44720 0.50002 -0.03142
 O8 O 0.55188 0.50002 -0.03145
 Cu9 Cu 0.49954 0.50002 0.03744
 Cu10 Cu 0.49954 0.50002 -0.03772
 C11 C 0.56982 0.50003 -0.00013
 C12 C 0.42915 0.50003 -0.00013
 C13 C 0.49954 0.42986 -0.00015
 C14 C 0.49954 0.57017 -0.00015
 O15 O -0.03113 0.55290 0.49997
 O16 O -0.03116 0.44823 0.49997
 O17 O -0.03115 0.50056 0.55221
 O18 O -0.03115 0.50056 0.44772
 O19 O 0.03149 0.50056 0.44773
 O20 O 0.03149 0.50056 0.55221
 O21 O 0.03148 0.44823 0.49997
 O22 O 0.03145 0.55290 0.49997
 Cu23 Cu -0.03742 0.50057 0.49997
 Cu24 Cu 0.03775 0.50057 0.49997
 C25 C 0.00016 0.57095 0.49998
 C26 C 0.00016 0.43028 0.49998
 C27 C 0.00017 0.50056 0.57012
 C28 C 0.00017 0.50055 0.42981
 O29 O 0.50011 0.03121 0.55285
 O30 O 0.50011 0.03123 0.44818
 O31 O 0.44787 0.03123 0.50051
 O32 O 0.55236 0.03123 0.50051
 O33 O 0.55235 -0.03141 0.50051
 O34 O 0.44787 -0.03141 0.50051
 O35 O 0.50011 -0.03141 0.44818
 O36 O 0.50011 -0.03137 0.55285
 Cu37 Cu 0.50011 0.03750 0.50051
 Cu38 Cu 0.50011 -0.03767 0.50052
 C39 C 0.50010 -0.00008 0.57090
 C40 C 0.50010 -0.00009 0.43023
 C41 C 0.42996 -0.00010 0.50051
 C42 C 0.57027 -0.00010 0.50051
 O43 O 0.46858 0.00001 -0.05276
 O44 O 0.46858 0.00001 0.05192
 O45 O 0.46854 0.05225 -0.00041
 O46 O 0.46854 -0.05222 -0.00041
 O47 O 0.53119 -0.05223 -0.00041
 O48 O 0.53118 0.05226 -0.00041
 O49 O 0.53122 0.00001 0.05192
 O50 O 0.53122 0.00001 -0.05275
 Cu51 Cu 0.46229 0.00001 -0.00042
 Cu52 Cu 0.53748 0.00001 -0.00042
 C53 C 0.49991 0.00000 -0.07070
 C54 C 0.49991 0.00001 0.06986
 C55 C 0.49986 0.07017 -0.00040
 C56 C 0.49986 -0.07014 -0.00040
 O57 O -0.05187 0.53151 0.99996
 O58 O 0.05281 0.53151 0.99996
 O59 O 0.00046 0.53154 0.94773
 O60 O 0.00046 0.53154 1.05220
 O61 O 0.00046 0.46890 1.05221
 O62 O 0.00046 0.46890 0.94772
 O63 O 0.05280 0.46887 0.99996
 O64 O -0.05186 0.46887 0.99996
 Cu65 Cu 0.00047 0.53780 0.99996
 Cu66 Cu 0.00047 0.46261 0.99996
 C67 C -0.06981 0.50019 0.99996
 C68 C 0.07075 0.50019 0.99996
 C69 C 0.00046 0.50022 0.92981
 C70 C 0.00046 0.50022 1.07012
 O71 O 0.00012 -0.05270 0.46881
 O72 O 0.00012 0.05197 0.46880
 O73 O 0.05236 -0.00036 0.46884
 O74 O -0.05213 -0.00036 0.46885
 O75 O -0.05212 -0.00036 0.53149
 O76 O 0.05235 -0.00036 0.53149
 O77 O 0.00012 0.05197 0.53144
 O78 O 0.00012 -0.05271 0.53145
 Cu79 Cu 0.00012 -0.00037 0.46255
 Cu80 Cu 0.00012 -0.00037 0.53774
 C81 C 0.00012 -0.07065 0.50012
 C82 C 0.00012 0.06991 0.50012
 C83 C 0.07027 -0.00035 0.50017
 C84 C -0.07004 -0.00035 0.50017
 C85 C -0.30805 0.50011 0.99987
 C86 C -0.32800 0.50009 0.96549
 C87 C -0.36773 0.50007 0.96545
 C88 C -0.38808 0.50005 0.99987
 C89 C -0.36773 0.50007 1.03429
 C90 C -0.32800 0.50009 1.03425
 C91 C -0.26713 0.50012 0.99987
 C92 C -0.23286 0.50012 0.99989
 C93 C -0.19194 0.50014 0.99991
 C94 C -0.17197 0.46577 0.99992
 C95 C -0.13224 0.46574 0.99993
 C96 C -0.11191 0.50017 0.99994
 C97 C -0.13227 0.53459 0.99993
 C98 C -0.17200 0.53453 0.99992
 H99 H -0.31285 0.50010 0.93870
 H100 H -0.38249 0.50006 0.93847
 H101 H -0.38250 0.50006 1.06128
 H102 H -0.31286 0.50010 1.06104
 H103 H -0.18711 0.43898 0.99991
 H104 H -0.11747 0.43877 0.99994
 H105 H -0.11752 0.56158 0.99994
 H106 H -0.18716 0.56131 0.99991
 C107 C 0.30899 0.50011 0.99987
 C108 C 0.32894 0.50009 0.96551
 C109 C 0.36867 0.50006 0.96544
 C110 C 0.38918 0.50005 0.99987
 C111 C 0.36867 0.50007 1.03431
 C112 C 0.32894 0.50009 1.03423
 C113 C 0.26807 0.50012 0.99987
 C114 C 0.23380 0.50012 0.99989
 C115 C 0.19289 0.50014 0.99991
 C116 C 0.17294 0.53453 0.99991
 C117 C 0.13321 0.53459 0.99993
 C118 C 0.11286 0.50017 0.99994
 C119 C 0.13319 0.46575 0.99993
 C120 C 0.17292 0.46577 0.99991
 H121 H 0.31378 0.50010 0.93873
 H122 H 0.38321 0.50005 0.93832
 H123 H 0.38321 0.50006 1.06142
 H124 H 0.31378 0.50010 1.06101
 H125 H 0.18810 0.56131 0.99991
 H126 H 0.11846 0.56158 0.99994
 H127 H 0.11842 0.43877 0.99994
 H128 H 0.18805 0.43898 0.99991
 C129 C 0.00015 -0.30889 0.50004
 C130 C 0.03451 -0.32883 0.50003
 C131 C 0.03459 -0.36856 0.50000
 C132 C 0.00015 -0.38907 0.49999
 C133 C -0.03428 -0.36857 0.50000
 C134 C -0.03421 -0.32884 0.50003
 C135 C 0.00014 -0.26797 0.50006
 C136 C 0.00015 -0.23370 0.50006
 C137 C 0.00015 -0.19278 0.50008
 C138 C 0.00015 -0.17281 0.46571
 C139 C 0.00014 -0.13308 0.46568
 C140 C 0.00013 -0.11275 0.50011
 C141 C 0.00014 -0.13311 0.53453
 C142 C 0.00015 -0.17284 0.53447
 H143 H 0.06129 -0.31367 0.50003
 H144 H 0.06170 -0.38311 0.50000
 H145 H -0.06139 -0.38311 0.50000
 H146 H -0.06099 -0.31368 0.50003
 H147 H 0.00015 -0.18795 0.43892
 H148 H 0.00014 -0.11832 0.43870
 H149 H 0.00014 -0.11836 0.56151
 H150 H 0.00015 -0.18800 0.56125
 C151 C 0.00015 0.30815 0.50004
 C152 C 0.03453 0.32810 0.50003
 C153 C 0.03458 0.36783 0.50000
 C154 C 0.00016 0.38818 0.49999
 C155 C -0.03427 0.36784 0.50000
 C156 C -0.03423 0.32811 0.50003
 C157 C 0.00015 0.26723 0.50006
 C158 C 0.00016 0.23296 0.50006
 C159 C 0.00016 0.19204 0.50008
 C160 C 0.00015 0.17210 0.53447
 C161 C 0.00014 0.13237 0.53452
 C162 C 0.00014 0.11202 0.50011
 C163 C 0.00014 0.13235 0.46568
 C164 C 0.00015 0.17208 0.46571
 H165 H 0.06132 0.31295 0.50003
 H166 H 0.06156 0.38259 0.50000
 H167 H -0.06125 0.38260 0.50000
 H168 H -0.06102 0.31296 0.50003
 H169 H 0.00016 0.18726 0.56125
 H170 H 0.00014 0.11762 0.56151
 H171 H 0.00014 0.11758 0.43870
 H172 H 0.00016 0.18721 0.43891
 C173 C 0.50002 -0.00009 -0.30894
 C174 C 0.50004 0.03427 -0.32888
 C175 C 0.50007 0.03435 -0.36861
 C176 C 0.50008 -0.00008 -0.38912
 C177 C 0.50007 -0.03452 -0.36862
 C178 C 0.50004 -0.03445 -0.32889
 C179 C 0.49999 -0.00010 -0.26802
 C180 C 0.49996 -0.00008 -0.23375
 C181 C 0.49994 -0.00005 -0.19283
 C182 C 0.53432 -0.00004 -0.17287
 C183 C 0.53435 -0.00002 -0.13314
 C184 C 0.49992 -0.00001 -0.11280
 C185 C 0.46550 -0.00002 -0.13316
 C186 C 0.46556 -0.00004 -0.17289
 H187 H 0.50003 0.06105 -0.31371
 H188 H 0.50008 0.06147 -0.38315
 H189 H 0.50008 -0.06163 -0.38317
 H190 H 0.50003 -0.06123 -0.31373
 H191 H 0.56111 -0.00005 -0.18801
 H192 H 0.56132 -0.00001 -0.11837
 H193 H 0.43851 -0.00001 -0.11840
 H194 H 0.43877 -0.00005 -0.18804
 C195 C 0.50002 -0.00010 0.30810
 C196 C 0.50004 -0.03448 0.32806
 C197 C 0.50007 -0.03452 0.36779
 C198 C 0.50008 -0.00009 0.38813
 C199 C 0.50007 0.03433 0.36778
 C200 C 0.50004 0.03428 0.32805
 C201 C 0.49998 -0.00011 0.26718
 C202 C 0.49996 -0.00010 0.23291
 C203 C 0.49994 -0.00006 0.19199
 C204 C 0.53432 -0.00005 0.17203
 C205 C 0.53435 -0.00002 0.13230
 C206 C 0.49992 -0.00001 0.11197
 C207 C 0.46550 -0.00002 0.13232
 C208 C 0.46556 -0.00005 0.17205
 H209 H 0.50002 -0.06127 0.31292
 H210 H 0.50007 -0.06150 0.38255
 H211 H 0.50007 0.06131 0.38254
 H212 H 0.50002 0.06106 0.31290
 H213 H 0.56111 -0.00006 0.18717
 H214 H 0.56132 -0.00001 0.11753
 H215 H 0.43851 -0.00001 0.11757
 H216 H 0.43877 -0.00006 0.18721
 C217 C 0.49967 -0.30792 -0.00021
 C218 C 0.49964 -0.32784 -0.03459
 C219 C 0.49959 -0.36753 -0.03461
 C220 C 0.49957 -0.38781 -0.00016
 C221 C 0.49959 -0.36749 0.03426
 C222 C 0.49964 -0.32780 0.03420
 C223 C 0.49974 -0.26709 -0.00024
 C224 C 0.49978 -0.23288 -0.00026
 C225 C 0.49980 -0.19205 -0.00028
 C226 C 0.53421 -0.17217 -0.00030
 C227 C 0.53427 -0.13247 -0.00035
 C228 C 0.49984 -0.11216 -0.00037
 C229 C 0.46540 -0.13244 -0.00035
 C230 C 0.46542 -0.17214 -0.00030
 H231 H 0.49966 -0.31269 -0.06138
 H232 H 0.49957 -0.38231 -0.06159
 H233 H 0.49957 -0.38224 0.06125
 H234 H 0.49966 -0.31262 0.06097
 H235 H 0.56098 -0.18735 -0.00029
 H236 H 0.56126 -0.11773 -0.00036
 H237 H 0.43842 -0.11767 -0.00036
 H238 H 0.43863 -0.18728 -0.00029
 C239 C 0.49967 0.30795 -0.00021
 C240 C 0.49964 0.32783 0.03420
 C241 C 0.49959 0.36753 0.03426
 C242 C 0.49957 0.38784 -0.00016
 C243 C 0.49959 0.36756 -0.03461
 C244 C 0.49964 0.32787 -0.03459
 C245 C 0.49974 0.26712 -0.00024
 C246 C 0.49978 0.23291 -0.00027
 C247 C 0.49980 0.19208 -0.00030
 C248 C 0.53421 0.17220 -0.00032
 C249 C 0.53427 0.13250 -0.00036
 C250 C 0.49984 0.11219 -0.00038
 C251 C 0.46540 0.13247 -0.00036
 C252 C 0.46542 0.17216 -0.00032
 H253 H 0.49966 0.31265 0.06097
 H254 H 0.49957 0.38228 0.06125
 H255 H 0.49957 0.38233 -0.06159
 H256 H 0.49966 0.31272 -0.06138
 H257 H 0.56098 0.18737 -0.00030
 H258 H 0.56126 0.11775 -0.00037
 H259 H 0.43842 0.11770 -0.00037
 H260 H 0.43863 0.18731 -0.00030
 C261 C -0.30782 -0.00015 0.50037
 C262 C -0.32774 -0.03453 0.50040
 C263 C -0.36743 -0.03456 0.50046
 C264 C -0.38771 -0.00011 0.50048
 C265 C -0.36740 0.03432 0.50046
 C266 C -0.32770 0.03425 0.50040
 C267 C -0.26699 -0.00018 0.50030
 C268 C -0.23278 -0.00021 0.50026
 C269 C -0.19195 -0.00023 0.50023
 C270 C -0.17203 -0.00026 0.53461
 C271 C -0.13234 -0.00030 0.53463
 C272 C -0.11206 -0.00032 0.50019
 C273 C -0.13237 -0.00029 0.46576
 C274 C -0.17207 -0.00025 0.46583
 H275 H -0.31259 -0.06132 0.50038
 H276 H -0.38221 -0.06153 0.50047
 H277 H -0.38215 0.06130 0.50047
 H278 H -0.31252 0.06102 0.50038
 H279 H -0.18718 -0.00024 0.56140
 H280 H -0.11756 -0.00031 0.56161
 H281 H -0.11762 -0.00031 0.43877
 H282 H -0.18725 -0.00024 0.43905
 C283 C 0.30805 -0.00015 0.50036
 C284 C 0.32793 0.03426 0.50040
 C285 C 0.36762 0.03432 0.50046
 C286 C 0.38794 -0.00011 0.50048
 C287 C 0.36766 -0.03455 0.50046
 C288 C 0.32796 -0.03453 0.50040
 C289 C 0.26722 -0.00017 0.50029
 C290 C 0.23301 -0.00020 0.50025
 C291 C 0.19218 -0.00023 0.50023
 C292 C 0.17230 -0.00025 0.46582
 C293 C 0.13260 -0.00030 0.46576
 C294 C 0.11229 -0.00032 0.50019
 C295 C 0.13257 -0.00030 0.53463
 C296 C 0.17226 -0.00026 0.53461
 H297 H 0.31275 0.06103 0.50037
 H298 H 0.38237 0.06131 0.50047
 H299 H 0.38243 -0.06153 0.50048
 H300 H 0.31281 -0.06132 0.50038
 H301 H 0.18748 -0.00024 0.43905
 H302 H 0.11785 -0.00031 0.43877
 H303 H 0.11780 -0.00031 0.56161
 H304 H 0.18741 -0.00024 0.56140
 C305 C 0.00021 0.50042 1.30790
 C306 C 0.03459 0.50045 1.32781
 C307 C 0.03462 0.50050 1.36751
 C308 C 0.00018 0.50052 1.38779
 C309 C -0.03425 0.50050 1.36748
 C310 C -0.03419 0.50045 1.32779
 C311 C 0.00023 0.50036 1.26707
 C312 C 0.00026 0.50032 1.23286
 C313 C 0.00032 0.50029 1.19203
 C314 C 0.00035 0.46588 1.17215
 C315 C 0.00040 0.46582 1.13246
 C316 C 0.00042 0.50024 1.11214
 C317 C 0.00040 0.53469 1.13242
 C318 C 0.00035 0.53467 1.17211
 H319 H 0.06138 0.50043 1.31266
 H320 H 0.06160 0.50052 1.38228
 H321 H -0.06123 0.50051 1.38224
 H322 H -0.06097 0.50042 1.31262
 H323 H 0.00033 0.43911 1.18733
 H324 H 0.00042 0.43883 1.11771
 H325 H 0.00042 0.56166 1.11764
 H326 H 0.00033 0.56146 1.18726
 C327 C 0.00021 0.50042 0.69203
 C328 C 0.03460 0.50045 0.67212
 C329 C 0.03463 0.50050 0.63243
 C330 C 0.00018 0.50053 0.61215
 C331 C -0.03425 0.50050 0.63245
 C332 C -0.03419 0.50045 0.67215
 C333 C 0.00023 0.50036 0.73286
 C334 C 0.00026 0.50032 0.76707
 C335 C 0.00032 0.50029 0.80790
 C336 C 0.00035 0.53467 0.82782
 C337 C 0.00040 0.53469 0.86751
 C338 C 0.00042 0.50024 0.88779
 C339 C 0.00040 0.46582 0.86747
 C340 C 0.00035 0.46588 0.82778
 H341 H 0.06138 0.50043 0.68728
 H342 H 0.06160 0.50052 0.61766
 H343 H -0.06123 0.50052 0.61770
 H344 H -0.06097 0.50042 0.68732
 H345 H 0.00033 0.56146 0.81267
 H346 H 0.00042 0.56166 0.88229
 H347 H 0.00042 0.43883 0.88222
 H348 H 0.00033 0.43911 0.81260
   
