data_POSCAR
  _audit_creation_date              2014-09-24
  _audit_creation_method            'ToBaCCo'
  _symmetry_space_group_name_H-M    'P1'
  _symmetry_Int_Tables_number       1
  _symmetry_cell_setting            triclinic
  loop_
  _symmetry_equiv_pos_as_xyz
 x,y,z
_cell_length_a 30.7973
_cell_length_b 30.8410
_cell_length_c 31.1079
_cell_angle_alpha 89.517800
_cell_angle_beta 90.375900
_cell_angle_gamma 89.549800
loop_
  _atom_site_label
  _atom_site_type_symbol
  _atom_site_fract_x
  _atom_site_fract_y
  _atom_site_fract_z
C1 C 0.22092 0.38845 -0.00829
 C2 C 0.23155 0.37449 0.03381
 C3 C 0.26411 0.34196 0.03951
 C4 C 0.28173 0.32031 0.00336
 C5 C 0.26343 0.33008 -0.03720
 C6 C 0.23825 0.36690 -0.04363
 C7 C 0.32154 0.29127 0.00470
 C8 C 0.34630 0.28704 -0.03332
 C9 C 0.38025 0.25748 -0.03635
 C10 C 0.39355 0.23435 -0.00030
 C11 C 0.37348 0.24110 0.03974
 C12 C 0.33663 0.26884 0.04202
 H13 H 0.20081 0.41703 -0.01351
 H14 H 0.27603 0.33470 0.07157
 H15 H 0.27237 0.31211 -0.06555
 H16 H 0.34018 0.30716 -0.06136
 H17 H 0.42143 0.21295 -0.00318
 H18 H 0.32051 0.27299 0.07251
 C19 C 0.76156 0.60017 -0.01427
 C20 C 0.74659 0.61885 0.02356
 C21 C 0.71271 0.64970 0.02097
 C22 C 0.69571 0.66377 -0.01967
 C23 C 0.71273 0.64436 -0.05718
 C24 C 0.74461 0.61228 -0.05441
 C25 C 0.66086 0.69834 -0.02357
 C26 C 0.63629 0.70355 -0.06197
 C27 C 0.60504 0.73645 -0.06654
 C28 C 0.59573 0.76328 -0.03189
 C29 C 0.61790 0.75747 0.00742
 C30 C 0.65109 0.72624 0.01090
 H31 H 0.78597 0.57474 -0.01256
 H32 H 0.69992 0.66193 0.05076
 H33 H 0.70284 0.65448 -0.08906
 H34 H 0.63992 0.68157 -0.08855
 H35 H 0.56974 0.78702 -0.03492
 H36 H 0.66821 0.72370 0.04121
 C37 C 0.75405 0.41862 1.00051
 C38 C 0.74862 0.39364 0.96367
 C39 C 0.71724 0.36057 0.96391
 C40 C 0.69091 0.35345 1.00076
 C41 C 0.69536 0.38200 1.03592
 C42 C 0.72817 0.41254 1.03667
 C43 C 0.66026 0.31583 1.00427
 C44 C 0.64736 0.30055 1.04533
 C45 C 0.61583 0.26868 1.04975
 C46 C 0.59958 0.24850 1.01346
 C47 C 0.61349 0.26085 0.97210
 C48 C 0.64273 0.29532 0.96755
 H49 H 0.77858 0.44360 1.00131
 H50 H 0.71445 0.34025 0.93591
 H51 H 0.67495 0.37990 1.06393
 H52 H 0.66076 0.31369 1.07459
 H53 H 0.57460 0.22427 1.01749
 H54 H 0.65085 0.30619 0.93550
 C55 C 0.25036 0.58084 1.00806
 C56 C 0.26445 0.59831 0.96918
 C57 C 0.29581 0.63128 0.96995
 C58 C 0.31084 0.64861 1.00975
 C59 C 0.29392 0.63096 1.04838
 C60 C 0.26436 0.59708 1.04741
 C61 C 0.34286 0.68539 1.01165
 C62 C 0.36651 0.69379 1.04987
 C63 C 0.39497 0.72883 1.05267
 C64 C 0.40226 0.75476 1.01665
 C65 C 0.38108 0.74593 0.97755
 C66 C 0.35075 0.71231 0.97556
 H67 H 0.22754 0.55429 1.00806
 H68 H 0.30788 0.64293 0.93951
 H69 H 0.30166 0.64425 1.07946
 H70 H 0.36429 0.67269 1.07764
 H71 H 0.42615 0.78030 1.01861
 H72 H 0.33423 0.70733 0.94531
 C73 C -0.01854 0.20913 0.37538
 C74 C 0.01965 0.22539 0.35772
 C75 C 0.01758 0.26257 0.33180
 C76 C -0.02186 0.28613 0.32618
 C77 C -0.05913 0.27090 0.34838
 C78 C -0.05780 0.23218 0.37222
 C79 C -0.02373 0.32702 0.29904
 C80 C -0.06416 0.34510 0.28585
 C81 C -0.06632 0.38348 0.26166
 C82 C -0.02839 0.40304 0.24784
 C83 C 0.01239 0.38517 0.25869
 C84 C 0.01459 0.34848 0.28548
 H85 H -0.01666 0.18058 0.39577
 H86 H 0.04758 0.27304 0.31760
 H87 H -0.08908 0.28923 0.34890
 H88 H -0.09454 0.32998 0.29400
 H89 H -0.03074 0.43260 0.22883
 H90 H 0.04655 0.33729 0.29480
 C91 C 0.01303 0.78972 0.63313
 C92 C 0.05076 0.76480 0.64006
 C93 C 0.04791 0.72671 0.66467
 C94 C 0.00751 0.71345 0.68204
 C95 C -0.03031 0.73791 0.67109
 C96 C -0.02779 0.77466 0.64499
 C97 C 0.00425 0.67332 0.70947
 C98 C -0.03596 0.65219 0.71462
 C99 C -0.03990 0.61641 0.74193
 C100 C -0.00352 0.59929 0.76259
 C101 C 0.03743 0.61805 0.75639
 C102 C 0.04102 0.65545 0.73086
 H103 H 0.01473 0.81895 0.61382
 H104 H 0.07683 0.70694 0.66829
 H105 H -0.06223 0.72885 0.68179
 H106 H -0.06467 0.66238 0.69707
 H107 H -0.00705 0.57037 0.78224
 H108 H 0.07264 0.67013 0.72820
 C109 C 1.01872 0.75355 0.42176
 C110 C 0.97710 0.74669 0.40415
 C111 C 0.97211 0.71748 0.36997
 C112 C 1.00829 0.69411 0.35401
 C113 C 1.04880 0.69955 0.37484
 C114 C 1.05436 0.73012 0.40699
 C115 C 1.00512 0.66462 0.31577
 C116 C 1.04321 0.65344 0.29299
 C117 C 1.04273 0.62232 0.26084
 C118 C 1.00355 0.60503 0.24763
 C119 C 0.96416 0.61811 0.26681
 C120 C 0.96524 0.64658 0.30188
 H121 H 1.02328 0.77638 0.44768
 H122 H 0.94027 0.71425 0.35562
 H123 H 1.07683 0.68011 0.36667
 H124 H 1.07419 0.66790 0.30030
 H125 H 1.00398 0.58062 0.22276
 H126 H 0.93514 0.65394 0.31802
 C127 C 0.99878 0.26865 0.55953
 C128 C 0.96235 0.27977 0.58368
 C129 C 0.96661 0.30923 0.61715
 C130 C 1.00735 0.32829 0.62674
 C131 C 1.04360 0.31681 0.60099
 C132 C 1.03969 0.28549 0.56893
 C133 C 1.01239 0.35662 0.66560
 C134 C 1.05353 0.36351 0.68487
 C135 C 1.05779 0.38866 0.72194
 C136 C 1.02084 0.40485 0.74192
 C137 C 0.97946 0.39776 0.72396
 C138 C 0.97570 0.37582 0.68510
 H139 H 0.99565 0.24492 0.53422
 H140 H 0.93844 0.31448 0.63694
 H141 H 1.07542 0.33011 0.60659
 H142 H 1.08280 0.34964 0.67170
 H143 H 1.02443 0.42411 0.77069
 H144 H 0.94371 0.37382 0.67090
 C145 C 0.42272 -0.02349 0.23781
 C146 C 0.40977 0.01790 0.25168
 C147 C 0.38022 0.02160 0.28570
 C148 C 0.36101 -0.01554 0.30435
 C149 C 0.37267 -0.05636 0.28761
 C150 C 0.40463 -0.06045 0.25645
 C151 C 0.32958 -0.01254 0.34116
 C152 C 0.32018 -0.05000 0.36635
 C153 C 0.28715 -0.04923 0.39659
 C154 C 0.26646 -0.01020 0.40569
 C155 C 0.27641 0.02826 0.38367
 C156 C 0.30747 0.02688 0.35088
 H157 H 0.44762 -0.02701 0.21361
 H158 H 0.37316 0.05372 0.29746
 H159 H 0.35808 -0.08598 0.29894
 H160 H 0.33705 -0.08045 0.36237
 H161 H 0.24209 -0.01031 0.43064
 H162 H 0.31300 0.05630 0.33276
 C163 C 0.58167 -0.02025 0.76937
 C164 C 0.60218 0.02021 0.76628
 C165 C 0.63544 0.02612 0.73614
 C166 C 0.64745 -0.00728 0.70757
 C167 C 0.62513 -0.04697 0.71045
 C168 C 0.59317 -0.05370 0.74144
 C169 C 0.68187 -0.00081 0.67402
 C170 C 0.70436 -0.03723 0.65664
 C171 C 0.73522 -0.03183 0.62423
 C172 C 0.74443 0.01009 0.61013
 C173 C 0.72524 0.04668 0.62808
 C174 C 0.69264 0.04147 0.65882
 H175 H 0.55540 -0.02506 0.79187
 H176 H 0.65126 0.05726 0.73510
 H177 H 0.63120 -0.07269 0.68781
 H178 H 0.69882 -0.06976 0.66841
 H179 H 0.76745 0.01491 0.58438
 H180 H 0.67636 0.07016 0.67051
 C181 C 0.38824 1.01191 0.76273
 C182 C 0.36818 0.97405 0.74903
 C183 C 0.33722 0.97677 0.71580
 C184 C 0.32783 1.01705 0.69467
 C185 C 0.35143 1.05413 0.70794
 C186 C 0.37993 1.05180 0.74286
 C187 C 0.29406 1.02063 0.65926
 C188 C 0.27866 1.06159 0.64456
 C189 C 0.24926 1.06514 0.61027
 C190 C 0.23195 1.02796 0.59192
 C191 C 0.24532 0.98688 0.60666
 C192 C 0.27696 0.98342 0.63912
 H193 H 0.41230 1.01040 0.78824
 H194 H 0.32112 0.94717 0.70715
 H195 H 0.34811 1.08523 0.69218
 H196 H 0.28936 1.09147 0.65873
 H197 H 0.20929 1.03105 0.56525
 H198 H 0.28805 0.95120 0.64754
 C199 C 0.61015 1.01395 0.22878
 C200 C 0.61881 0.97154 0.24375
 C201 C 0.64448 0.96536 0.28102
 C202 C 0.66374 1.00092 0.30216
 C203 C 0.65754 1.04242 0.28373
 C204 C 0.62914 1.04925 0.24933
 C205 C 0.68774 0.99599 0.34436
 C206 C 0.69361 1.03268 0.37138
 C207 C 0.71780 1.02951 0.40928
 C208 C 0.73122 0.98867 0.42352
 C209 C 0.72862 0.95238 0.39725
 C210 C 0.70653 0.95564 0.35765
 H211 H 0.58781 1.01961 0.20223
 H212 H 0.64796 0.93283 0.29386
 H213 H 0.67309 1.07070 0.29678
 H214 H 0.68092 1.06438 0.36325
 H215 H 0.74832 0.98564 0.45399
 H216 H 0.70594 0.92764 0.33700
 O217 O 0.92312 0.86774 0.47257
 O218 O 0.85155 0.92924 0.54191
 O219 O 0.91715 0.87917 0.55344
 O220 O 0.85592 0.91744 0.46031
 O221 O 0.80847 0.86457 0.46725
 O222 O 0.87533 0.82150 0.55883
 O223 O 0.80756 0.87368 0.55090
 O224 O 0.87853 0.81203 0.47496
 Cu225 Cu 0.89106 0.90387 0.50624
 Cu226 Cu 0.83798 0.83693 0.51314
 C227 C 0.91383 0.82932 0.46248
 C228 C 0.81809 0.91272 0.55856
 C229 C 0.90772 0.84358 0.57138
 C230 C 0.82082 0.89953 0.44926
 O231 O 0.17445 0.11592 0.53596
 O232 O 0.09524 0.13193 0.44832
 O233 O 0.16378 0.08393 0.46023
 O234 O 0.10188 0.15811 0.52565
 O235 O 0.13725 0.21479 0.50015
 O236 O 0.20474 0.13706 0.43599
 O237 O 0.13215 0.18815 0.42411
 O238 O 0.20873 0.17487 0.51460
 Cu239 Cu 0.13040 0.11683 0.49480
 Cu240 Cu 0.17580 0.18278 0.46513
 C241 C 0.20466 0.14334 0.54066
 C242 C 0.09910 0.16385 0.42265
 C243 C 0.19513 0.09695 0.43787
 C244 C 0.10734 0.19866 0.52338
 O245 O 0.16575 0.88199 0.44004
 O246 O 0.10155 0.84701 0.53036
 O247 O 0.15081 0.91184 0.51521
 O248 O 0.11818 0.81364 0.45670
 O249 O 0.17799 0.78077 0.47974
 O250 O 0.20423 0.87493 0.54666
 O251 O 0.15525 0.80673 0.55671
 O252 O 0.22476 0.85390 0.47031
 Cu253 Cu 0.12843 0.86669 0.48254
 Cu254 Cu 0.19637 0.82474 0.51560
 C255 C 0.20654 0.87783 0.44175
 C256 C 0.11624 0.82058 0.55812
 C257 C 0.18299 0.91001 0.54096
 C258 C 0.14261 0.78031 0.45864
 O259 O 0.90321 0.15043 0.54702
 O260 O 0.83082 0.07940 0.48975
 O261 O 0.89153 0.13223 0.46871
 O262 O 0.84152 0.10050 0.56920
 O263 O 0.78780 0.14725 0.55872
 O264 O 0.84705 0.18850 0.46214
 O265 O 0.78391 0.13243 0.47621
 O266 O 0.85470 0.20357 0.54344
 Cu267 Cu 0.87104 0.11028 0.51950
 Cu268 Cu 0.81310 0.17365 0.51006
 C269 C 0.89234 0.18924 0.55389
 C270 C 0.79593 0.09303 0.47263
 C271 C 0.87982 0.16676 0.44953
 C272 C 0.80490 0.11571 0.57955
 O273 O 0.53712 0.81296 0.87147
 O274 O 0.46032 0.90108 0.84306
 O275 O 0.46836 0.84487 0.90630
 O276 O 0.53481 0.87676 0.81429
 O277 O 0.49851 0.83229 0.77214
 O278 O 0.43167 0.79995 0.86510
 O279 O 0.42539 0.85818 0.79826
 O280 O 0.50255 0.77040 0.82605
 Cu281 Cu 0.50362 0.86338 0.86299
 Cu282 Cu 0.45975 0.81064 0.81280
 C283 C 0.53254 0.77633 0.85347
 C284 C 0.43115 0.89523 0.81464
 C285 C 0.43990 0.81595 0.90183
 C286 C 0.52768 0.86072 0.77751
 O287 O 0.49560 0.09039 0.15037
 O288 O 0.55879 0.18529 0.11417
 O289 O 0.56986 0.12219 0.16981
 O290 O 0.48281 0.15389 0.09489
 O291 O 0.45106 0.19425 0.14405
 O292 O 0.53977 0.16375 0.21916
 O293 O 0.52763 0.22481 0.16441
 O294 O 0.46500 0.13014 0.20074
 Cu295 Cu 0.52946 0.13399 0.12701
 Cu296 Cu 0.49213 0.18213 0.18696
 C297 C 0.47085 0.09378 0.18263
 C298 C 0.55441 0.22106 0.13381
 C299 C 0.56959 0.13791 0.20735
 C300 C 0.45291 0.17987 0.10598
 O301 O 0.44891 0.18122 0.90637
 O302 O 0.51593 0.08747 0.87171
 O303 O 0.52655 0.15251 0.92469
 O304 O 0.43661 0.11171 0.86273
 O305 O 0.46106 0.14335 0.80373
 O306 O 0.54571 0.19603 0.87148
 O307 O 0.54253 0.12763 0.81918
 O308 O 0.46733 0.21590 0.84687
 Cu309 Cu 0.48029 0.12974 0.89710
 Cu310 Cu 0.50673 0.17459 0.82969
 C311 C 0.44616 0.21425 0.88159
 C312 C 0.53989 0.09148 0.83875
 C313 C 0.54957 0.18288 0.91028
 C314 C 0.43463 0.11805 0.82266
 O315 O 0.45708 0.81190 0.11334
 O316 O 0.52550 0.90583 0.14360
 O317 O 0.52305 0.85049 0.07857
 O318 O 0.45448 0.87316 0.17177
 O319 O 0.49408 0.82839 0.21210
 O320 O 0.56363 0.80675 0.11873
 O321 O 0.56339 0.86295 0.18724
 O322 O 0.49611 0.77035 0.15737
 Cu323 Cu 0.48632 0.86470 0.12250
 Cu324 Cu 0.53496 0.81306 0.17114
 C325 C 0.46502 0.77509 0.13083
 C326 C 0.55462 0.90049 0.17243
 C327 C 0.55380 0.82332 0.08233
 C328 C 0.46258 0.85491 0.20768
 O329 O 0.90192 0.54280 0.81388
 O330 O 0.86325 0.46847 0.89994
 O331 O 0.92407 0.46397 0.84063
 O332 O 0.86329 0.55046 0.88631
 O333 O 0.80332 0.53106 0.85219
 O334 O 0.87237 0.45154 0.79291
 O335 O 0.81078 0.44691 0.85679
 O336 O 0.84101 0.52985 0.77862
 Cu337 Cu 0.89348 0.50718 0.86333
 Cu338 Cu 0.82665 0.48678 0.81584
 C339 C 0.87631 0.55002 0.78206
 C340 C 0.82909 0.44627 0.89327
 C341 C 0.91106 0.44555 0.80719
 C342 C 0.82318 0.55464 0.87965
 O343 O 0.09533 0.55147 0.17538
 O344 O 0.12807 0.46927 0.09415
 O345 O 0.06825 0.47360 0.15496
 O346 O 0.13851 0.55062 0.10495
 O347 O 0.19542 0.52661 0.14213
 O348 O 0.11950 0.45278 0.20070
 O349 O 0.18102 0.44620 0.13688
 O350 O 0.15411 0.53272 0.21227
 Cu351 Cu 0.10206 0.51259 0.12897
 Cu352 Cu 0.16655 0.48608 0.17830
 C353 C 0.12134 0.55720 0.20687
 C354 C 0.16140 0.44516 0.10100
 C355 C 0.08032 0.45142 0.18699
 C356 C 0.17864 0.55093 0.11285
 O357 O 0.88145 0.45926 0.18607
 O358 O 0.85005 0.53646 0.09888
 O359 O 0.90669 0.53698 0.16213
 O360 O 0.84277 0.45502 0.11349
 O361 O 0.78267 0.48078 0.14268
 O362 O 0.85360 0.55631 0.20541
 O363 O 0.79557 0.56112 0.13771
 O364 O 0.81969 0.47610 0.21765
 Cu365 Cu 0.87586 0.49564 0.13719
 Cu366 Cu 0.80832 0.52172 0.18088
 C367 C 0.85392 0.45323 0.21593
 C368 C 0.81642 0.56054 0.10277
 C369 C 0.89298 0.55907 0.19295
 C370 C 0.80210 0.45543 0.11659
 O371 O 0.16155 0.51231 0.90104
 O372 O 0.12284 0.43933 0.81474
 O373 O 0.17461 0.43265 0.88140
 O374 O 0.09621 0.51323 0.84585
 O375 O 0.14349 0.54233 0.80125
 O376 O 0.22417 0.46053 0.83830
 O377 O 0.17458 0.46578 0.77349
 O378 O 0.21132 0.53946 0.85792
 Cu379 Cu 0.13386 0.47224 0.86482
 Cu380 Cu 0.19196 0.50610 0.81294
 C381 C 0.19407 0.53685 0.89466
 C382 C 0.14361 0.43968 0.77938
 C383 C 0.21276 0.43294 0.86668
 C384 C 0.10555 0.54074 0.81731
 N385 N 0.21301 0.39638 0.07031
 N386 N 0.17846 0.41943 0.06660
 N387 N 0.76379 0.60364 0.06429
 N388 N 0.79991 0.58295 0.06556
 N389 N 0.77289 0.40452 0.92566
 N390 N 0.80827 0.42567 0.92894
 N391 N 0.24694 0.58170 0.92950
 N392 N 0.21245 0.55896 0.93057
 N393 N 0.06083 0.20986 0.37371
 N394 N 0.06263 0.17542 0.39653
 N395 N 0.08931 0.77494 0.61598
 N396 N 0.08602 0.80625 0.58926
 N397 N 0.94013 0.76913 0.42144
 N398 N 0.94601 0.80533 0.43977
 N399 N 0.92251 0.25715 0.57639
 N400 N 0.92578 0.21681 0.56904
 N401 N 0.42797 0.05652 0.23337
 N402 N 0.45095 0.05562 0.19951
 N403 N 0.58597 0.05721 0.78910
 N404 N 0.56075 0.05397 0.82127
 N405 N 0.38274 0.93288 0.76626
 N406 N 0.40832 0.93245 0.79867
 N407 N 0.59924 0.93455 0.22380
 N408 N 0.57567 0.93763 0.19004
 N409 N 0.40078 0.25325 0.92725
 N410 N 0.41956 0.25058 0.89255
 N411 N 0.58233 0.73961 0.89779
 N412 N 0.56089 0.74089 0.86418
 N413 N 0.41752 0.73471 0.08797
 N414 N 0.43903 0.73811 0.12130
 N415 N 0.59780 0.26183 0.08719
 N416 N 0.57993 0.25787 0.12233
 N417 N 0.24113 0.10312 0.59287
 N418 N 0.23482 0.13863 0.57542
 N419 N 0.73554 0.06736 0.42953
 N420 N 0.77118 0.06187 0.44988
 N421 N 0.75786 0.93207 0.60504
 N422 N 0.79196 0.94090 0.58381
 N423 N 0.27152 0.91212 0.41689
 N424 N 0.23069 0.90654 0.41525
 N425 N 0.09652 0.39935 0.73576
 N426 N 0.13377 0.40962 0.74597
 N427 N 0.07950 0.60661 0.24658
 N428 N 0.11530 0.59212 0.23624
 N429 N 0.89620 0.40235 0.25391
 N430 N 0.86083 0.42049 0.24815
 N431 N 0.92248 0.59778 0.74636
 N432 N 0.88668 0.58067 0.74916
 N433 N 0.76081 0.59138 0.90801
 N434 N 0.80100 0.58229 0.90836
 N435 N 0.23929 0.38530 0.91839
 N436 N 0.24371 0.40252 0.88283
 N437 N 0.24504 0.58035 0.08569
 N438 N 0.20431 0.57492 0.08369
 N439 N 0.73995 0.43384 0.07554
 N440 N 0.77979 0.43057 0.08562
 N441 N 0.93426 0.79173 0.62335
 N442 N 0.93786 0.82702 0.60230
 N443 N 0.90622 0.21940 0.39873
 N444 N 0.90760 0.18203 0.41637
 N445 N 0.07725 0.26594 0.54966
 N446 N 0.07637 0.22499 0.54506
 N447 N 0.09314 0.73634 0.42317
 N448 N 0.13001 0.74122 0.43789
 N449 N 0.57199 0.90968 0.74194
 N450 N 0.55179 0.87535 0.74124
 N451 N 0.42080 0.90110 0.24884
 N452 N 0.43676 0.86475 0.24407
 N453 N 0.61596 0.08889 0.24125
 N454 N 0.60317 0.12660 0.23701
 N455 N 0.40180 0.08916 0.75898
 N456 N 0.40598 0.09090 0.79956
 N457 N 0.60300 0.77826 0.04567
 N458 N 0.57423 0.80805 0.04431
 N459 N 0.39387 0.22334 0.07786
 N460 N 0.42413 0.19538 0.07319
 N461 N 0.59453 0.24069 0.93511
 N462 N 0.57643 0.20419 0.94061
 N463 N 0.39428 0.76696 0.93856
 N464 N 0.42037 0.79867 0.93954
 N465 N 0.75426 0.91543 0.41030
 N466 N 0.79292 0.92436 0.42177
 N467 N 0.22927 0.94816 0.58729
 N468 N 0.19662 0.94854 0.56200
 N469 N 0.25434 0.06791 0.39520
 N470 N 0.22034 0.06402 0.41788
 N471 N 0.74047 0.08791 0.61285
 N472 N 0.78159 0.09062 0.61011
 N473 N 0.92396 0.60036 0.25135
 N474 N 0.92487 0.58446 0.21385
 N475 N 0.94144 0.41486 0.74418
 N476 N 0.94297 0.42195 0.78424
 N477 N 0.07561 0.59727 0.77350
 N478 N 0.07126 0.56757 0.80160
 N479 N 0.05125 0.40410 0.24168
 N480 N 0.04737 0.42714 0.20782
   
