data_POSCAR
  _audit_creation_date              2014-09-24
  _audit_creation_method            'ToBaCCo'
  _symmetry_space_group_name_H-M    'P1'
  _symmetry_Int_Tables_number       1
  _symmetry_cell_setting            triclinic
  loop_
  _symmetry_equiv_pos_as_xyz
 x,y,z
_cell_length_a 37.5091
_cell_length_b 35.9953
_cell_length_c 37.9189
_cell_angle_alpha 93.381900
_cell_angle_beta 90.163700
_cell_angle_gamma 90.031700
loop_
  _atom_site_label
  _atom_site_type_symbol
  _atom_site_fract_x
  _atom_site_fract_y
  _atom_site_fract_z
N1 N 0.58576 0.67358 0.60893
 N2 N 0.56977 0.65801 0.63511
 C3 C 0.54200 0.67930 0.64612
 C4 C 0.54004 0.70926 0.62513
 C5 C 0.56814 0.70485 0.60175
 H6 H 0.52420 0.67319 0.66741
 H7 H 0.57568 0.72348 0.58168
 Cu8 Cu 0.58550 0.61059 0.65137
 Cu9 Cu 0.62935 0.65324 0.58773
 Cu10 Cu 0.66541 0.57657 0.62585
 N11 N 0.60839 0.57095 0.67551
 N12 N 0.64050 0.55910 0.66678
 C13 C 0.65058 0.53303 0.68883
 C14 C 0.62290 0.52795 0.71225
 C15 C 0.59655 0.55228 0.70287
 H16 H 0.67564 0.51822 0.68720
 H17 H 0.57092 0.55654 0.71548
 N18 N 0.68635 0.59839 0.58417
 N19 N 0.67328 0.62839 0.57040
 C20 C 0.69377 0.63701 0.54294
 C21 C 0.72061 0.61084 0.53900
 C22 C 0.71499 0.58663 0.56529
 H23 H 0.68897 0.65992 0.52634
 H24 H 0.73075 0.56234 0.57028
 H25 H 0.62254 0.59818 0.59925
 H26 H 0.64460 0.62966 0.63382
 N27 N 0.91104 0.30113 0.11978
 N28 N 0.91941 0.31479 0.15165
 C29 C 0.94778 0.29620 0.16349
 C30 C 0.95819 0.27014 0.13734
 C31 C 0.93429 0.27404 0.10987
 H32 H 0.96057 0.30179 0.18885
 H33 H 0.93326 0.25788 0.08493
 Cu34 Cu 0.89409 0.35713 0.17382
 Cu35 Cu 0.86960 0.31812 0.09438
 Cu36 Cu 0.82415 0.39408 0.13203
 N37 N 0.87001 0.40185 0.19267
 N38 N 0.84166 0.41504 0.17723
 C39 C 0.82974 0.44512 0.19646
 C40 C 0.85234 0.45158 0.22491
 C41 C 0.87766 0.42372 0.22177
 H42 H 0.80705 0.46182 0.18968
 H43 H 0.89977 0.41964 0.23948
 N44 N 0.81050 0.36907 0.08641
 N45 N 0.82698 0.33922 0.07272
 C46 C 0.81044 0.32760 0.04245
 C47 C 0.78290 0.35180 0.03647
 C48 C 0.78363 0.37779 0.06477
 H49 H 0.81812 0.30366 0.02561
 H50 H 0.76543 0.40082 0.06948
 H51 H 0.87284 0.37237 0.11562
 H52 H 0.84186 0.34035 0.13770
 N53 N 0.41802 0.18931 -0.10528
 N54 N 0.43174 0.17352 -0.13431
 C55 C 0.46240 0.19095 -0.14165
 C56 C 0.46827 0.21871 -0.11550
 C57 C 0.43981 0.21676 -0.09273
 H58 H 0.47947 0.18377 -0.16395
 H59 H 0.43487 0.23460 -0.06930
 Cu60 Cu 0.40860 0.13101 -0.15888
 Cu61 Cu 0.37167 0.17508 -0.08751
 Cu62 Cu 0.33410 0.09444 -0.12578
 N63 N 0.38470 0.08856 -0.18269
 N64 N 0.35508 0.07505 -0.17005
 C65 C 0.34339 0.04691 -0.19205
 C66 C 0.36734 0.04204 -0.21947
 C67 C 0.39329 0.06886 -0.21278
 H68 H 0.31947 0.03086 -0.18823
 H69 H 0.41623 0.07399 -0.22900
 N70 N 0.31670 0.11893 -0.08128
 N71 N 0.32974 0.15081 -0.06786
 C72 C 0.31057 0.16201 -0.03919
 C73 C 0.28476 0.13561 -0.03402
 C74 C 0.28933 0.10864 -0.06109
 H75 H 0.31518 0.18731 -0.02301
 H76 H 0.27311 0.08408 -0.06630
 H77 H 0.37925 0.12000 -0.10344
 H78 H 0.35075 0.14742 -0.13297
 N79 N 0.07670 0.83665 0.40503
 N80 N 0.06203 0.84747 0.37583
 C81 C 0.03415 0.82514 0.36713
 C82 C 0.03085 0.79942 0.39273
 C83 C 0.05806 0.80778 0.41651
 H84 H 0.01717 0.82790 0.34436
 H85 H 0.06447 0.79315 0.43982
 Cu86 Cu 0.07997 0.89061 0.35286
 Cu87 Cu 0.12052 0.85880 0.42425
 Cu88 Cu 0.15512 0.93354 0.38177
 N89 N 0.09942 0.93284 0.32958
 N90 N 0.12960 0.94852 0.34011
 C91 C 0.13794 0.97552 0.31843
 C92 C 0.11124 0.97708 0.29334
 C93 C 0.08713 0.94990 0.30131
 H94 H 0.16130 0.99310 0.32103
 H95 H 0.06284 0.94272 0.28706
 N96 N 0.17703 0.91422 0.42431
 N97 N 0.16463 0.88483 0.43959
 C98 C 0.18660 0.87693 0.46628
 C99 C 0.21370 0.90296 0.46816
 C100 C 0.20671 0.92637 0.44149
 H101 H 0.18306 0.85422 0.48337
 H102 H 0.22268 0.94987 0.43462
 H103 H 0.11183 0.91131 0.40667
 H104 H 0.13867 0.87858 0.37741
 N105 N 0.07891 0.16826 0.10225
 N106 N 0.06619 0.15680 0.13201
 C107 C 0.03630 0.17604 0.14047
 C108 C 0.02976 0.20021 0.11420
 C109 C 0.05706 0.19438 0.09024
 H110 H 0.01995 0.17216 0.16340
 H111 H 0.06088 0.20838 0.06607
 Cu112 Cu 0.08892 0.11669 0.15594
 Cu113 Cu 0.12313 0.14913 0.08163
 Cu114 Cu 0.16103 0.07369 0.12020
 N115 N 0.11461 0.07875 0.18027
 N116 N 0.14369 0.06327 0.16687
 C117 C 0.15644 0.03875 0.18921
 C118 C 0.13377 0.03837 0.21778
 C119 C 0.10749 0.06406 0.21135
 H120 H 0.17985 0.02164 0.18454
 H121 H 0.08509 0.07157 0.22818
 N122 N 0.18091 0.09537 0.07804
 N123 N 0.16764 0.12545 0.06461
 C124 C 0.18822 0.13472 0.03743
 C125 C 0.21539 0.10894 0.03339
 C126 C 0.20986 0.08427 0.05931
 H127 H 0.18333 0.15785 0.02113
 H128 H 0.22613 0.06038 0.06445
 H129 H 0.11544 0.09712 0.09889
 H130 H 0.14518 0.12836 0.12699
 N131 N 0.42729 0.81943 0.59138
 N132 N 0.44168 0.83332 0.62096
 C133 C 0.47023 0.81264 0.62883
 C134 C 0.47409 0.78477 0.60245
 C135 C 0.44665 0.79003 0.57898
 H136 H 0.48726 0.81767 0.65167
 H137 H 0.44073 0.77310 0.55517
 Cu138 Cu 0.42226 0.87771 0.64557
 Cu139 Cu 0.38324 0.83896 0.57247
 Cu140 Cu 0.34782 0.91786 0.61609
 N141 N 0.40304 0.92292 0.66886
 N142 N 0.37309 0.93756 0.65808
 C143 C 0.36471 0.96716 0.67984
 C144 C 0.39112 0.97151 0.70525
 C145 C 0.41516 0.94327 0.69737
 H146 H 0.34148 0.98455 0.67709
 H147 H 0.43924 0.93762 0.71185
 N148 N 0.32621 0.89373 0.57316
 N149 N 0.33890 0.86280 0.55746
 C150 C 0.31695 0.85166 0.53070
 C151 C 0.28975 0.87721 0.52902
 C152 C 0.29635 0.90358 0.55620
 H153 H 0.32045 0.82686 0.51355
 H154 H 0.27992 0.92740 0.56372
 H155 H 0.39166 0.89326 0.59162
 H156 H 0.36402 0.86332 0.61943
 N157 N 0.91609 0.69332 0.38976
 N158 N 0.92702 0.67838 0.35921
 C159 C 0.95307 0.69973 0.34671
 C160 C 0.95926 0.72893 0.37115
 C161 C 0.93545 0.72410 0.39821
 H162 H 0.96693 0.69427 0.32199
 H163 H 0.93176 0.74228 0.42166
 Cu164 Cu 0.90739 0.63164 0.33943
 Cu165 Cu 0.87565 0.67347 0.41462
 Cu166 Cu 0.83951 0.59040 0.38014
 N167 N 0.88861 0.58355 0.32221
 N168 N 0.86098 0.56844 0.33714
 C169 C 0.85261 0.53628 0.31904
 C170 C 0.87673 0.53076 0.29175
 C171 C 0.89935 0.56100 0.29466
 H172 H 0.83128 0.51778 0.32576
 H173 H 0.92167 0.56628 0.27767
 N174 N 0.82157 0.61690 0.42346
 N175 N 0.83458 0.64917 0.43590
 C176 C 0.81532 0.66136 0.46420
 C177 C 0.78959 0.63516 0.47026
 C178 C 0.79424 0.60729 0.44404
 H179 H 0.81961 0.68736 0.47939
 H180 H 0.77813 0.58251 0.43970
 H181 H 0.88483 0.61857 0.39763
 H182 H 0.85215 0.64504 0.37157
 N183 N 0.58890 0.31947 -0.11854
 N184 N 0.57546 0.33572 -0.14575
 C185 C 0.54696 0.31622 -0.15811
 C186 C 0.54182 0.28679 -0.13696
 C187 C 0.56884 0.28961 -0.11207
 H188 H 0.53064 0.32338 -0.18027
 H189 H 0.57368 0.27114 -0.09108
 Cu190 Cu 0.59510 0.38180 -0.16146
 Cu191 Cu 0.63144 0.33813 -0.09379
 Cu192 Cu 0.66931 0.41812 -0.12400
 N193 N 0.62318 0.41884 -0.18419
 N194 N 0.65334 0.43149 -0.17043
 C195 C 0.66753 0.45621 -0.19173
 C196 C 0.64463 0.45965 -0.21991
 C197 C 0.61673 0.43559 -0.21437
 H198 H 0.69191 0.47163 -0.18640
 H199 H 0.59360 0.43062 -0.23109
 N200 N 0.68765 0.39334 -0.08278
 N201 N 0.67438 0.36183 -0.07233
 C202 C 0.69316 0.35148 -0.04421
 C203 C 0.71906 0.37805 -0.03644
 C204 C 0.71471 0.40426 -0.06118
 H205 H 0.68757 0.32729 -0.02954
 H206 H 0.73019 0.42939 -0.06324
 H207 H 0.62436 0.39281 -0.10372
 H208 H 0.65206 0.36486 -0.13630
 C209 C -0.01323 0.24549 0.13934
 C210 C -0.00052 0.22567 0.11116
 H211 H -0.00000 0.24364 0.16465
 H212 H -0.01077 0.22973 0.08495
 C213 C 0.51383 0.73959 0.62805
 C214 C 0.50138 0.75549 0.59956
 H215 H 0.50291 0.74729 0.65388
 H216 H 0.50961 0.74519 0.57341
 C217 C 1.00589 0.77085 0.39497
 C218 C 0.98478 0.75945 0.36794
 H219 H 1.00486 0.75632 0.41920
 H220 H 0.98782 0.77062 0.34223
 C221 C 0.49817 0.24508 -0.11214
 C222 C 0.51321 0.25890 -0.14045
 H223 H 0.50627 0.25523 -0.08586
 H224 H 0.50268 0.25163 -0.16659
 C225 C 0.10828 0.00223 0.26432
 C226 C 0.13701 0.01478 0.24798
 H227 H 0.08186 0.00853 0.25472
 H228 H 0.16336 0.00558 0.25532
 C229 C 0.62060 0.50347 -0.26063
 C230 C 0.64862 0.48479 -0.24879
 H231 H 0.59500 0.50073 -0.24781
 H232 H 0.67521 0.48970 -0.25853
 C233 C 0.36476 1.01447 0.75046
 C234 C 0.39375 1.00003 0.73453
 H235 H 0.33854 1.00430 0.74266
 H236 H 0.42003 1.00759 0.74449
 C237 C 0.84988 0.48219 0.25219
 C238 C 0.87903 0.49909 0.26560
 H239 H 0.82369 0.49262 0.25958
 H240 H 0.90511 0.49113 0.25551
 C241 C 0.25703 0.13752 -0.00668
 C242 C 0.24348 0.10689 0.00640
 H243 H 0.24864 0.16474 0.00386
 H244 H 0.25419 0.07979 -0.00176
 C245 C 0.74838 0.60788 0.51169
 C246 C 0.76193 0.63798 0.49766
 H247 H 0.75893 0.58055 0.50416
 H248 H 0.75370 0.66551 0.50753
 C249 C 0.75777 0.34949 0.00662
 C250 C 0.74430 0.38005 -0.00667
 H251 H 0.75159 0.32229 -0.00564
 H252 H 0.75312 0.40730 0.00349
 C253 C 0.24383 0.90551 0.49306
 C254 C 0.25926 0.87503 0.50457
 H255 H 0.25472 0.93276 0.50044
 H256 H 0.25054 0.84774 0.49445
   
