data_POSCAR
  _audit_creation_date              2014-09-24
  _audit_creation_method            'ToBaCCo'
  _symmetry_space_group_name_H-M    'P1'
  _symmetry_Int_Tables_number       1
  _symmetry_cell_setting            triclinic
  loop_
  _symmetry_equiv_pos_as_xyz
 x,y,z
_cell_length_a 27.8814
_cell_length_b 27.9434
_cell_length_c 27.9645
_cell_angle_alpha 91.118400
_cell_angle_beta 91.097900
_cell_angle_gamma 88.880800
loop_
  _atom_site_label
  _atom_site_type_symbol
  _atom_site_fract_x
  _atom_site_fract_y
  _atom_site_fract_z
C1 C 0.03290 0.43624 0.18180
 H2 H 0.06172 0.46130 0.17878
 C3 C 0.03573 0.39151 0.15836
 H4 H 0.06658 0.38239 0.13678
 C5 C -0.04127 0.41621 0.21560
 H6 H -0.07053 0.42500 0.23907
 C7 C -0.03993 0.37140 0.19282
 H8 H -0.06856 0.34654 0.19843
 N9 N -0.00513 0.44760 0.20997
 C10 C -0.01458 0.60203 0.23713
 H11 H -0.01969 0.60042 0.27531
 C12 C -0.01461 0.64622 0.21496
 H13 H -0.01993 0.67876 0.23606
 C14 C -0.00061 0.56149 0.16321
 H15 H 0.00497 0.52832 0.14338
 C16 C -0.00031 0.60522 0.13950
 H17 H 0.00553 0.60573 0.10134
 Zn18 Zn -0.00497 0.50466 0.24806
 N19 N -0.00698 0.56088 0.21134
 C20 C 0.08409 0.54001 0.28041
 N21 N 0.05241 0.50410 0.28578
 C22 C 0.06353 0.46593 0.31373
 C23 C 0.10821 0.46285 0.33738
 C24 C 0.12887 0.53837 0.30341
 C25 C -0.10243 0.51473 0.26024
 C26 C -0.14640 0.51487 0.28306
 C27 C -0.10431 0.50004 0.35786
 C28 C -0.06084 0.50023 0.33353
 N29 N -0.06089 0.50679 0.28541
 H30 H 0.07550 0.56938 0.25709
 H31 H 0.03824 0.43730 0.31655
 H32 H 0.11719 0.43203 0.35891
 H33 H 0.15401 0.56681 0.29819
 H34 H -0.10132 0.52003 0.22207
 H35 H -0.17928 0.52044 0.26247
 H36 H -0.10431 0.49402 0.39601
 H37 H -0.02737 0.49444 0.35286
 C38 C -0.00699 0.64795 0.16583
 C39 C -0.00089 0.35862 0.16439
 C40 C -0.14745 0.50703 0.33218
 C41 C 0.14128 0.49930 0.33175
 C42 C 0.04026 0.56340 0.81603
 H43 H 0.06947 0.53759 0.81962
 C44 C 0.04279 0.60795 0.83968
 H45 H 0.07381 0.61638 0.86197
 C46 C -0.03482 0.58534 0.78073
 H47 H -0.06434 0.57736 0.75657
 C48 C -0.03375 0.62999 0.80369
 H49 H -0.06277 0.65566 0.79764
 N50 N 0.00188 0.55307 0.78707
 C51 C -0.00410 0.39911 0.75992
 H52 H -0.00847 0.40069 0.72145
 C53 C -0.00476 0.35514 0.78236
 H54 H -0.00963 0.32265 0.76118
 C55 C 0.00746 0.43975 0.83446
 H56 H 0.01189 0.47292 0.85443
 C57 C 0.00703 0.39622 0.85847
 H58 H 0.01135 0.39580 0.89704
 Zn59 Zn 0.00198 0.49610 0.74915
 N60 N 0.00240 0.44018 0.78596
 C61 C 0.09102 0.46006 0.71740
 N62 N 0.05769 0.49581 0.71133
 C63 C 0.06618 0.53348 0.68273
 C64 C 0.10989 0.53629 0.65917
 C65 C 0.13492 0.46142 0.69451
 C66 C -0.09529 0.48755 0.73853
 C67 C -0.14048 0.48707 0.71659
 C68 C -0.10309 0.49965 0.64057
 C69 C -0.05828 0.49982 0.66413
 N70 N -0.05546 0.49448 0.71238
 H71 H 0.08450 0.43115 0.74130
 H72 H 0.03961 0.56201 0.67939
 H73 H 0.11685 0.56679 0.63720
 H74 H 0.16147 0.43320 0.70035
 H75 H -0.09182 0.48316 0.77680
 H76 H -0.17188 0.48217 0.73815
 H77 H -0.10524 0.50458 0.60222
 H78 H -0.02605 0.50475 0.64408
 C79 C 0.00099 0.35359 0.83199
 C80 C 0.00556 0.64165 0.83298
 C81 C -0.14458 0.49354 0.66725
 C82 C 0.14469 0.50006 0.66558
 C83 C 0.18287 0.04136 0.43691
 H84 H 0.17914 0.07052 0.46267
 C85 C 0.15924 0.04379 0.39235
 H86 H 0.13682 0.07468 0.38385
 C87 C 0.21854 -0.03348 0.41511
 H88 H 0.24286 -0.06285 0.42314
 C89 C 0.19561 -0.03252 0.37046
 H90 H 0.20183 -0.06147 0.34484
 N91 N 0.21202 0.00315 0.44730
 C92 C 0.23936 -0.00246 0.60104
 H93 H 0.27795 -0.00666 0.59939
 C94 C 0.21693 -0.00321 0.64501
 H95 H 0.23825 -0.00796 0.67744
 C96 C 0.16448 0.00870 0.56056
 H97 H 0.14438 0.01299 0.52744
 C98 C 0.14047 0.00818 0.60410
 H99 H 0.10177 0.01230 0.60460
 Zn100 Zn 0.25000 0.00346 0.50419
 N101 N 0.21314 0.00387 0.56006
 C102 C 0.28173 0.09234 0.54004
 N103 N 0.28781 0.05903 0.50437
 C104 C 0.31662 0.06733 0.46676
 C105 C 0.34046 0.11080 0.46400
 C106 C 0.30489 0.13601 0.53871
 C107 C 0.26103 -0.09353 0.51286
 C108 C 0.28330 -0.13848 0.51347
 C109 C 0.35934 -0.10084 0.50110
 C110 C 0.33550 -0.05625 0.50077
 N111 N 0.28707 -0.05368 0.50594
 H112 H 0.25765 0.08596 0.56887
 H113 H 0.31995 0.04076 0.43831
 H114 H 0.36266 0.11760 0.43359
 H115 H 0.29910 0.16255 0.56688
 H116 H 0.22261 -0.09027 0.51713
 H117 H 0.26206 -0.17003 0.51832
 H118 H 0.39778 -0.10304 0.49631
 H119 H 0.35548 -0.02401 0.49588
 C120 C 0.16714 0.00229 0.64664
 C121 C 0.16615 0.00663 0.35873
 C122 C 0.33276 -0.14226 0.50718
 C123 C 0.33411 0.14555 0.50019
 C124 C 0.81830 0.03228 0.56124
 H125 H 0.82089 0.06117 0.53628
 C126 C 0.84167 0.03537 0.60598
 H127 H 0.86279 0.06643 0.61530
 C128 C 0.78553 -0.04229 0.58109
 H129 H 0.76244 -0.07182 0.57225
 C130 C 0.80828 -0.04067 0.62588
 H131 H 0.80311 -0.06928 0.65077
 N132 N 0.79062 -0.00605 0.54981
 C133 C 0.76291 -0.01569 0.39561
 H134 H 0.72468 -0.02117 0.39734
 C135 C 0.78501 -0.01552 0.35138
 H136 H 0.76371 -0.02106 0.31897
 C137 C 0.83699 -0.00100 0.43591
 H138 H 0.85688 0.00479 0.46901
 C139 C 0.86066 -0.00048 0.39216
 H140 H 0.89889 0.00575 0.39167
 Zn141 Zn 0.75219 -0.00608 0.49298
 N142 N 0.78880 -0.00784 0.43665
 C143 C 0.71901 0.08261 0.45781
 N144 N 0.71413 0.05103 0.49381
 C145 C 0.68669 0.06219 0.53237
 C146 C 0.66320 0.10686 0.53585
 C147 C 0.69614 0.12738 0.45983
 C148 C 0.74037 -0.10336 0.48270
 C149 C 0.71777 -0.14736 0.48296
 C150 C 0.64279 -0.10579 0.49910
 C151 C 0.66690 -0.06228 0.49848
 N152 N 0.71502 -0.06205 0.49110
 H153 H 0.74193 0.07398 0.42809
 H154 H 0.68427 0.03698 0.56106
 H155 H 0.64217 0.11591 0.56703
 H156 H 0.70104 0.15248 0.43136
 H157 H 0.77855 -0.10205 0.47680
 H158 H 0.73853 -0.18006 0.47707
 H159 H 0.60466 -0.10601 0.50582
 H160 H 0.64742 -0.02899 0.50468
 C161 C 0.83423 -0.00741 0.34949
 C162 C 0.83610 -0.00130 0.63874
 C163 C 0.66868 -0.14869 0.49169
 C164 C 0.66843 0.13989 0.49937
 C165 C 0.56158 0.18326 0.95951
 H166 H 0.53586 0.17987 0.93025
 C167 C 0.60625 0.15961 0.95702
 H168 H 0.61484 0.13751 0.92599
 C169 C 0.58325 0.21817 1.03466
 H170 H 0.57514 0.24220 1.06418
 C171 C 0.62800 0.19519 1.03364
 H172 H 0.65360 0.20110 1.06270
 N173 N 0.55109 0.21207 0.99788
 C174 C 0.39691 0.23991 1.00328
 H175 H 0.39861 0.27840 1.00758
 C176 C 0.35276 0.21761 1.00392
 H177 H 0.32030 0.23904 1.00869
 C178 C 0.43744 0.16516 0.99201
 H179 H 0.47065 0.14508 0.98773
 C180 C 0.39375 0.14125 0.99243
 H181 H 0.39335 0.10263 0.98822
 Zn182 Zn 0.49420 0.25025 0.99757
 N183 N 0.43800 0.21370 0.99696
 C184 C 0.45860 0.28243 0.90876
 N185 N 0.49439 0.28807 0.94209
 C186 C 0.53247 0.31634 0.93383
 C187 C 0.53565 0.34001 0.89037
 C188 C 0.46033 0.30545 0.86510
 C189 C 0.48519 0.26122 1.09451
 C190 C 0.48498 0.28334 1.13949
 C191 C 0.49865 0.35905 1.10206
 C192 C 0.49854 0.33537 1.05744
 N193 N 0.49257 0.28716 1.05474
 H194 H 0.42937 0.25878 0.91513
 H195 H 0.56102 0.31932 0.96041
 H196 H 0.56645 0.36174 0.88359
 H197 H 0.43206 0.29997 0.83853
 H198 H 0.48033 0.22298 1.09116
 H199 H 0.47982 0.26216 1.17097
 H200 H 0.50415 0.39729 1.10435
 H201 H 0.50384 0.35528 1.02528
 C202 C 0.35105 0.16789 0.99832
 C203 C 0.63986 0.16613 0.99431
 C204 C 0.49217 0.33255 1.14340
 C205 C 0.49937 0.33406 0.85558
 C206 C 0.43589 0.81607 0.96853
 H207 H 0.46115 0.81886 0.93988
 C208 C 0.39115 0.83966 0.96541
 H209 H 0.38222 0.86110 0.93450
 C210 C 0.41542 0.78281 1.04262
 H211 H 0.42406 0.75951 1.07198
 C212 C 0.37058 0.80573 1.04099
 H213 H 0.34553 0.80041 1.06950
 N214 N 0.44705 0.78814 1.00668
 C215 C 0.60180 0.76167 1.01703
 H216 H 0.60037 0.72351 1.02250
 C217 C 0.64596 0.78409 1.01689
 H218 H 0.67868 0.76321 1.02245
 C219 C 0.56080 0.83528 1.00222
 H220 H 0.52748 0.85488 0.99636
 C221 C 0.60449 0.85922 1.00174
 H222 H 0.60481 0.89734 0.99547
 Zn223 Zn 0.50430 0.75017 1.00703
 N224 N 0.56045 0.78718 1.00906
 C225 C 0.54032 0.71762 0.91855
 N226 N 0.50418 0.71217 0.94996
 C227 C 0.46601 0.68416 0.93866
 C228 C 0.46309 0.66068 0.89400
 C229 C 0.53885 0.69478 0.87381
 C230 C 0.51400 0.73875 1.10429
 C231 C 0.51423 0.71625 1.14829
 C232 C 0.49992 0.64098 1.10687
 C233 C 0.50001 0.66500 1.06334
 N234 N 0.50630 0.71319 1.06304
 H235 H 0.56970 0.74097 0.92728
 H236 H 0.43719 0.68127 0.96374
 H237 H 0.43221 0.63919 0.88483
 H238 H 0.56742 0.70015 0.84885
 H239 H 0.51908 0.77697 1.10290
 H240 H 0.51964 0.73715 1.18093
 H241 H 0.49417 0.60277 1.10715
 H242 H 0.49440 0.64537 1.03009
 C243 C 0.64743 0.83316 1.00873
 C244 C 0.35804 0.83400 1.00186
 C245 C 0.50673 0.66705 1.14971
 C246 C 0.49972 0.66650 0.86115
 B247 B 1.00024 1.05028 0.02982
 B248 B 0.99974 1.04952 -0.03041
 B249 B 1.04908 1.03082 0.00005
 B250 B 1.03119 1.00143 0.04839
 B251 B 0.97072 1.00190 0.04775
 B252 B 0.95128 1.03164 -0.00102
 B253 B 1.00089 0.95193 -0.03125
 B254 B 1.00138 0.95261 0.02904
 B255 B 0.95197 0.97130 -0.00150
 B256 B 0.96992 1.00078 -0.04984
 B257 B 1.03033 1.00031 -0.04911
 B258 B 1.04985 0.97054 -0.00043
 B259 B 0.54890 0.49837 0.47253
 B260 B 0.49949 0.52860 0.45346
 B261 B 0.50027 0.46832 0.45308
 B262 B 0.53103 0.45004 0.50209
 B263 B 0.54926 0.49914 0.53278
 B264 B 0.52975 0.54768 0.50275
 B265 B 0.45142 0.49978 0.53153
 B266 B 0.50086 0.46953 0.55059
 B267 B 0.50007 0.52985 0.55103
 B268 B 0.46934 0.54805 0.50195
 B269 B 0.45106 0.49900 0.47125
 B270 B 0.47057 0.45047 0.50130
 C271 C 1.00188 1.31363 0.14470
 C272 C 1.00299 1.27327 0.12854
 C273 C 1.00304 1.22572 0.11039
 C274 C 1.00242 1.18519 0.09475
 C275 C 1.00133 1.13815 0.07541
 C276 C 1.00052 1.09874 0.05714
 C277 C 0.99489 0.69383 0.14344
 C278 C 0.99656 0.73314 0.12657
 C279 C 0.99844 0.77974 0.10810
 C280 C 0.99985 0.81959 0.09251
 C281 C 1.00111 0.86597 0.07350
 C282 C 1.00168 0.90485 0.05566
 C283 C 1.00076 1.30796 -0.14514
 C284 C 1.00042 1.26875 -0.12802
 C285 C 0.99995 1.22222 -0.10942
 C286 C 0.99959 1.18238 -0.09381
 C287 C 0.99930 1.13603 -0.07483
 C288 C 0.99928 1.09718 -0.05700
 C289 C 1.00794 0.68899 -0.14602
 C290 C 1.00830 0.72929 -0.12987
 C291 C 1.00731 0.77680 -0.11180
 C292 C 1.00575 0.81729 -0.09622
 C293 C 1.00358 0.86428 -0.07692
 C294 C 1.00194 0.90363 -0.05862
 C295 C 1.14529 1.00894 0.31137
 C296 C 1.12928 1.00923 0.27104
 C297 C 1.11141 1.00813 0.22351
 C298 C 1.09599 1.00648 0.18299
 C299 C 1.07683 1.00421 0.13599
 C300 C 1.05860 1.00251 0.09664
 C301 C 1.14432 1.00192 -0.30773
 C302 C 1.12731 1.00146 -0.26848
 C303 C 1.10891 1.00085 -0.22191
 C304 C 1.09347 1.00038 -0.18201
 C305 C 1.07467 0.99998 -0.13562
 C306 C 1.05694 0.99989 -0.09674
 C307 C 0.85544 0.99460 0.30609
 C308 C 0.87250 0.99645 0.26687
 C309 C 0.89116 0.99853 0.22037
 C310 C 0.90690 1.00008 0.18060
 C311 C 0.92606 1.00148 0.13430
 C312 C 0.94401 1.00215 0.09547
 C313 C 0.85657 1.00188 -0.31363
 C314 C 0.87235 1.00310 -0.27316
 C315 C 0.89007 1.00327 -0.22547
 C316 C 0.90539 1.00276 -0.18486
 C317 C 0.92445 1.00178 -0.13773
 C318 C 0.94259 1.00103 -0.09828
 C319 C 1.30776 1.14625 -0.00140
 C320 C 1.26853 1.12896 -0.00100
 C321 C 1.22197 1.11020 -0.00045
 C322 C 1.18210 1.09445 -0.00001
 C323 C 1.13571 1.07536 0.00037
 C324 C 1.09681 1.05745 0.00046
 C325 C 0.68737 1.14532 -0.00809
 C326 C 0.72783 1.12937 -0.00845
 C327 C 0.77553 1.11156 -0.00745
 C328 C 0.81619 1.09621 -0.00588
 C329 C 0.86336 1.07713 -0.00369
 C330 C 0.90285 1.05896 -0.00205
 C331 C 1.31309 0.85396 -0.00112
 C332 C 1.27277 0.87043 -0.00244
 C333 C 1.22525 0.88897 -0.00273
 C334 C 1.18477 0.90495 -0.00230
 C335 C 1.13775 0.92464 -0.00140
 C336 C 1.09835 0.94313 -0.00069
 C337 C 0.69327 0.85577 0.00650
 C338 C 0.73255 0.87285 0.00454
 C339 C 0.77910 0.89157 0.00230
 C340 C 0.81894 0.90738 0.00061
 C341 C 0.86529 0.92662 -0.00094
 C342 C 0.90417 0.94461 -0.00169
 C343 C 0.80693 0.50519 0.35526
 C344 C 0.76784 0.50353 0.37279
 C345 C 0.72148 0.50162 0.39203
 C346 C 0.68180 0.50017 0.40823
 C347 C 0.63558 0.49884 0.42781
 C348 C 0.59677 0.49819 0.44594
 C349 C 0.18867 0.49635 0.35307
 C350 C 0.22891 0.49534 0.36970
 C351 C 0.27630 0.49542 0.38850
 C352 C 0.31667 0.49617 0.40474
 C353 C 0.36351 0.49743 0.42476
 C354 C 0.40275 0.49843 0.44353
 C355 C 0.81281 0.49458 0.64698
 C356 C 0.77270 0.49559 0.63017
 C357 C 0.72516 0.49675 0.61203
 C358 C 0.68449 0.49765 0.59676
 C359 C 0.63723 0.49851 0.57799
 C360 C 0.59765 0.49901 0.56006
 C361 C 0.19131 0.50298 0.64470
 C362 C 0.23106 0.50404 0.62857
 C363 C 0.27799 0.50403 0.61050
 C364 C 0.31804 0.50332 0.59500
 C365 C 0.36454 0.50201 0.57593
 C366 C 0.40350 0.50084 0.55803
 C367 C 0.50513 0.64430 0.19538
 C368 C 0.50371 0.62709 0.23453
 C369 C 0.50209 0.60823 0.28094
 C370 C 0.50087 0.59234 0.32065
 C371 C 0.49977 0.57308 0.36689
 C372 C 0.49925 0.55513 0.40569
 C373 C 0.49683 0.64561 0.81370
 C374 C 0.49590 0.62943 0.77339
 C375 C 0.49610 0.61121 0.72591
 C376 C 0.49696 0.59545 0.68548
 C377 C 0.49834 0.57591 0.63856
 C378 C 0.49942 0.55744 0.59928
 C379 C 0.49380 0.35479 0.19015
 C380 C 0.49523 0.37131 0.23023
 C381 C 0.49688 0.38922 0.27768
 C382 C 0.49815 0.40438 0.31827
 C383 C 0.49937 0.42309 0.36540
 C384 C 0.50007 0.44102 0.40486
 C385 C 0.50264 0.35513 0.80924
 C386 C 0.50401 0.37146 0.76973
 C387 C 0.50435 0.38978 0.72307
 C388 C 0.50390 0.40552 0.68325
 C389 C 0.50285 0.42483 0.63702
 C390 C 0.50184 0.44291 0.59827
 C391 C 0.64590 0.80564 0.49407
 C392 C 0.62865 0.76653 0.49617
 C393 C 0.60971 0.72016 0.49855
 C394 C 0.59374 0.68047 0.50035
 C395 C 0.57438 0.63427 0.50201
 C396 C 0.55635 0.59547 0.50285
 C397 C 0.64752 0.18735 0.50283
 C398 C 0.63126 0.22766 0.50426
 C399 C 0.61290 0.27515 0.50465
 C400 C 0.59701 0.31558 0.50426
 C401 C 0.57731 0.36250 0.50336
 C402 C 0.55872 0.40178 0.50258
 C403 C 0.35520 0.81102 0.50618
 C404 C 0.37187 0.77094 0.50526
 C405 C 0.38991 0.72349 0.50418
 C406 C 0.40516 0.68290 0.50334
 C407 C 0.42396 0.63575 0.50253
 C408 C 0.44196 0.59628 0.50207
 C409 C 0.35542 0.19185 0.49737
 C410 C 0.37193 0.23135 0.49642
 C411 C 0.39043 0.27799 0.49658
 C412 C 0.40630 0.31779 0.49743
 C413 C 0.42574 0.36402 0.49889
 C414 C 0.44389 0.40277 0.50016
   
