data_POSCAR
  _audit_creation_date              2014-09-24
  _audit_creation_method            'ToBaCCo'
  _symmetry_space_group_name_H-M    'P1'
  _symmetry_Int_Tables_number       1
  _symmetry_cell_setting            triclinic
  loop_
  _symmetry_equiv_pos_as_xyz
 x,y,z
_cell_length_a 40.3990
_cell_length_b 39.8619
_cell_length_c 40.3903
_cell_angle_alpha 90.001100
_cell_angle_beta 90.000300
_cell_angle_gamma 89.934100
loop_
  _atom_site_label
  _atom_site_type_symbol
  _atom_site_fract_x
  _atom_site_fract_y
  _atom_site_fract_z
C1 C 0.60023 0.62462 0.65090
 C2 C 0.57555 0.64941 0.65051
 C3 C 0.57543 0.67407 0.62580
 C4 C 0.59997 0.67416 0.60129
 C5 C 0.62483 0.64957 0.60130
 C6 C 0.62501 0.62465 0.62620
 C7 C 0.60058 0.59980 0.67552
 C8 C 0.62536 0.57514 0.67568
 C9 C 0.64996 0.57514 0.65119
 C10 C 0.64996 0.59978 0.62639
 C11 C 0.67446 0.60001 0.60177
 C12 C 0.67423 0.62473 0.57712
 C13 C 0.64952 0.64941 0.57687
 H14 H 0.55644 0.64956 0.66937
 H15 H 0.59966 0.69337 0.58227
 H16 H 0.58161 0.59967 0.69454
 H17 H 0.66908 0.55599 0.65144
 H18 H 0.69370 0.58100 0.60174
 H19 H 0.64956 0.66844 0.55767
 C20 C 0.90072 0.37472 0.14996
 C21 C 0.92537 0.34991 0.14957
 C22 C 0.92549 0.32524 0.12482
 C23 C 0.90094 0.32522 0.10029
 C24 C 0.87611 0.34986 0.10032
 C25 C 0.87595 0.37474 0.12524
 C26 C 0.90036 0.39952 0.17461
 C27 C 0.87562 0.42417 0.17476
 C28 C 0.85105 0.42425 0.15029
 C29 C 0.85102 0.39965 0.12545
 C30 C 0.82653 0.39948 0.10083
 C31 C 0.82674 0.37479 0.07616
 C32 C 0.85142 0.35007 0.07589
 H33 H 0.94444 0.34979 0.16850
 H34 H 0.90115 0.30606 0.08120
 H35 H 0.91927 0.39968 0.19367
 H36 H 0.83200 0.44345 0.15063
 H37 H 0.80731 0.41851 0.10082
 H38 H 0.85136 0.33106 0.05667
 C39 C 0.39983 0.12481 -0.15056
 C40 C 0.42450 0.14955 -0.15017
 C41 C 0.42468 0.17414 -0.12539
 C42 C 0.40021 0.17421 -0.10081
 C43 C 0.37536 0.14966 -0.10083
 C44 C 0.37512 0.12482 -0.12580
 C45 C 0.39942 0.10006 -0.17526
 C46 C 0.37466 0.07545 -0.17541
 C47 C 0.35012 0.07542 -0.15086
 C48 C 0.35018 0.09999 -0.12599
 C49 C 0.32575 0.10019 -0.10131
 C50 C 0.32604 0.12484 -0.07658
 C51 C 0.35073 0.14948 -0.07633
 H52 H 0.44356 0.14972 -0.16908
 H53 H 0.40057 0.19335 -0.08173
 H54 H 0.41835 0.09995 -0.19433
 H55 H 0.33102 0.05630 -0.15112
 H56 H 0.30651 0.08123 -0.10128
 H57 H 0.35074 0.16846 -0.05708
 C58 C 0.09925 0.87452 0.35036
 C59 C 0.07460 0.84976 0.35075
 C60 C 0.07443 0.82517 0.37557
 C61 C 0.09891 0.82517 0.40017
 C62 C 0.12374 0.84976 0.40013
 C63 C 0.12395 0.87457 0.37514
 C64 C 0.09966 0.89924 0.32564
 C65 C 0.12438 0.92386 0.32548
 C66 C 0.14889 0.92396 0.35001
 C67 C 0.14887 0.89943 0.37492
 C68 C 0.17329 0.89929 0.39961
 C69 C 0.17303 0.87467 0.42435
 C70 C 0.14836 0.85000 0.42463
 H71 H 0.05558 0.84963 0.33178
 H72 H 0.09864 0.80607 0.41932
 H73 H 0.08079 0.89939 0.30653
 H74 H 0.16793 0.94313 0.34967
 H75 H 0.19250 0.91828 0.39961
 H76 H 0.14838 0.83105 0.44390
 N77 N 0.08571 0.17819 0.10983
 N78 N 0.07237 0.16412 0.13610
 C79 C 0.04553 0.18195 0.14525
 C80 C 0.04208 0.20838 0.12353
 C81 C 0.06783 0.20540 0.10136
 H82 H 0.02969 0.17625 0.16608
 H83 H 0.07314 0.22177 0.08068
 Cu84 Cu 0.09141 0.12392 0.15575
 Cu85 Cu 0.12519 0.16022 0.08859
 Cu86 Cu 0.16042 0.08938 0.12387
 N87 N 0.11191 0.08462 0.17568
 N88 N 0.13890 0.07123 0.16308
 C89 C 0.14783 0.04453 0.18147
 C90 C 0.12523 0.04118 0.20679
 C91 C 0.10277 0.06687 0.20256
 H92 H 0.16912 0.02875 0.17680
 H93 H 0.08147 0.07214 0.21793
 N94 N 0.17857 0.11137 0.08414
 N95 N 0.16514 0.13837 0.07070
 C96 C 0.18308 0.14734 0.04400
 C97 C 0.20881 0.12492 0.04068
 C98 C 0.20539 0.10246 0.06634
 H99 H 0.17786 0.16853 0.02811
 H100 H 0.22126 0.08125 0.07156
 H101 H 0.11868 0.11103 0.10335
 H102 H 0.14449 0.13820 0.13075
 N103 N 0.41353 0.82210 0.61076
 N104 N 0.42685 0.83624 0.63699
 C105 C 0.45375 0.81848 0.64615
 C106 C 0.45724 0.79203 0.62446
 C107 C 0.43147 0.79491 0.60232
 H108 H 0.46960 0.82426 0.66696
 H109 H 0.42619 0.77850 0.58166
 Cu110 Cu 0.40773 0.87642 0.65659
 Cu111 Cu 0.37399 0.83993 0.58952
 Cu112 Cu 0.33864 0.91078 0.62469
 N113 N 0.38719 0.91573 0.67646
 N114 N 0.36017 0.92904 0.66386
 C115 C 0.35121 0.95578 0.68219
 C116 C 0.37382 0.95921 0.70748
 C117 C 0.39632 0.93356 0.70330
 H118 H 0.32989 0.97151 0.67749
 H119 H 0.41764 0.92835 0.71866
 N120 N 0.32051 0.88866 0.58502
 N121 N 0.33398 0.86166 0.57163
 C122 C 0.31605 0.85260 0.54495
 C123 C 0.29027 0.87496 0.54160
 C124 C 0.29366 0.89748 0.56722
 H125 H 0.32129 0.83140 0.52909
 H126 H 0.27776 0.91868 0.57240
 H127 H 0.38041 0.88917 0.60419
 H128 H 0.35467 0.86200 0.63165
 N129 N 0.91379 0.67888 0.39004
 N130 N 0.92640 0.66557 0.36302
 C131 C 0.95324 0.68337 0.35389
 C132 C 0.95742 0.70900 0.37640
 C133 C 0.93212 0.70557 0.39901
 H134 H 0.96859 0.67817 0.33257
 H135 H 0.92742 0.72130 0.42032
 Cu136 Cu 0.90651 0.62632 0.34246
 Cu137 Cu 0.87461 0.66066 0.41155
 Cu138 Cu 0.83941 0.58993 0.37617
 N139 N 0.88691 0.58620 0.32333
 N140 N 0.86065 0.57210 0.33664
 C141 C 0.85220 0.54495 0.31869
 C142 C 0.87436 0.54205 0.29293
 C143 C 0.89607 0.56845 0.29644
 H144 H 0.83154 0.52858 0.32396
 H145 H 0.91688 0.57421 0.28060
 N146 N 0.82151 0.61164 0.41618
 N147 N 0.83493 0.63860 0.42967
 C148 C 0.81712 0.64742 0.45651
 C149 C 0.79148 0.62496 0.45989
 C150 C 0.79483 0.60262 0.43410
 H151 H 0.82231 0.66859 0.47243
 H152 H 0.77896 0.58145 0.42884
 H153 H 0.88153 0.61189 0.39552
 H154 H 0.85412 0.63915 0.36976
 N155 N 0.58696 0.32142 -0.11088
 N156 N 0.57436 0.33481 -0.13786
 C157 C 0.54747 0.31709 -0.14700
 C158 C 0.54325 0.29143 -0.12454
 C159 C 0.56858 0.29475 -0.10194
 H160 H 0.53211 0.32236 -0.16830
 H161 H 0.57327 0.27898 -0.08066
 Cu162 Cu 0.59430 0.37406 -0.15836
 Cu163 Cu 0.62620 0.33951 -0.08937
 Cu164 Cu 0.66151 0.41025 -0.12464
 N165 N 0.61397 0.41419 -0.17742
 N166 N 0.64026 0.42821 -0.16411
 C167 C 0.64874 0.45538 -0.18200
 C168 C 0.62656 0.45838 -0.20774
 C169 C 0.60481 0.43201 -0.20427
 H170 H 0.66944 0.47171 -0.17672
 H171 H 0.58397 0.42634 -0.22010
 N172 N 0.67941 0.38841 -0.08469
 N173 N 0.66595 0.36145 -0.07125
 C174 C 0.68376 0.35253 -0.04444
 C175 C 0.70944 0.37494 -0.04104
 C176 C 0.70613 0.39733 -0.06678
 H177 H 0.67853 0.33135 -0.02856
 H178 H 0.72204 0.41848 -0.07200
 H179 H 0.61936 0.38834 -0.10530
 H180 H 0.64670 0.36108 -0.13114
 C181 C -0.05049 0.30122 0.12462
 C182 C -0.02925 0.27995 0.12441
 C183 C -0.00440 0.25504 0.12413
 C184 C 0.01682 0.23376 0.12387
 C185 C 0.55001 0.69941 0.62558
 C186 C 0.52874 0.72063 0.62537
 C187 C 0.50383 0.74548 0.62509
 C188 C 0.48257 0.76672 0.62482
 C189 C 1.05039 0.80122 0.37578
 C190 C 1.02910 0.78004 0.37595
 C191 C 1.00416 0.75528 0.37612
 C192 C 0.98285 0.73415 0.37625
 C193 C 0.45011 0.19940 -0.12518
 C194 C 0.47143 0.22053 -0.12501
 C195 C 0.49641 0.24525 -0.12484
 C196 C 0.51777 0.26633 -0.12470
 C197 C 0.12460 -0.05089 0.30001
 C198 C 0.12477 -0.02975 0.27867
 C199 C 0.12494 -0.00503 0.25366
 C200 C 0.12508 0.01607 0.23228
 C201 C 0.62554 0.55113 -0.30031
 C202 C 0.62573 0.52987 -0.27908
 C203 C 0.62598 0.50499 -0.25423
 C204 C 0.62623 0.48373 -0.23301
 C205 C 0.37445 1.05150 0.80051
 C206 C 0.37427 1.03032 0.77921
 C207 C 0.37410 1.00554 0.75425
 C208 C 0.37396 0.98439 0.73292
 C209 C 0.87543 0.44950 0.20017
 C210 C 0.87524 0.47071 0.22143
 C211 C 0.87497 0.49555 0.24633
 C212 C 0.87471 0.51677 0.26759
 C213 C 0.30087 0.12485 -0.05135
 C214 C 0.27978 0.12486 -0.03024
 C215 C 0.25508 0.12489 -0.00553
 C216 C 0.23398 0.12490 0.01556
 C217 C 0.69945 0.62475 0.55195
 C218 C 0.72057 0.62479 0.53086
 C219 C 0.74527 0.62484 0.50616
 C220 C 0.76636 0.62489 0.48505
 C221 C 0.80151 0.37480 0.05099
 C222 C 0.78038 0.37482 0.02991
 C223 C 0.75567 0.37486 0.00522
 C224 C 0.73457 0.37490 -0.01588
 C225 C 0.19820 0.87471 0.44958
 C226 C 0.21929 0.87476 0.47069
 C227 C 0.24399 0.87483 0.49540
 C228 C 0.26510 0.87489 0.51648
   
