data_POSCAR
  _audit_creation_date              2014-09-24
  _audit_creation_method            'ToBaCCo'
  _symmetry_space_group_name_H-M    'P1'
  _symmetry_Int_Tables_number       1
  _symmetry_cell_setting            triclinic
  loop_
  _symmetry_equiv_pos_as_xyz
 x,y,z
_cell_length_a 39.2051
_cell_length_b 39.4427
_cell_length_c 40.0076
_cell_angle_alpha 90.492600
_cell_angle_beta 91.565400
_cell_angle_gamma 88.311600
loop_
  _atom_site_label
  _atom_site_type_symbol
  _atom_site_fract_x
  _atom_site_fract_y
  _atom_site_fract_z
C1 C 0.78636 0.64624 1.01827
 C2 C 0.79187 0.62368 0.98749
 C3 C 0.76567 0.60256 0.98039
 C4 C 0.73610 0.60628 1.00480
 C5 C 0.75219 0.66508 1.01101
 C6 C 0.72575 0.64411 1.00381
 C7 C 0.77913 0.62180 1.04648
 C8 C 0.75271 0.60120 1.03976
 H9 H 0.81364 0.62599 0.97167
 H10 H 0.71482 0.58900 0.99904
 H11 H 0.74992 0.69244 1.01085
 H12 H 0.79243 0.62233 1.07058
 C13 C 0.77674 0.36414 0.47826
 C14 C 0.78568 0.38513 0.50953
 C15 C 0.76115 0.40873 0.51756
 C16 C 0.72993 0.40918 0.49368
 C17 C 0.74218 0.34893 0.48574
 C18 C 0.71758 0.37259 0.49389
 C19 C 0.76859 0.39011 0.45068
 C20 C 0.74391 0.41368 0.45859
 H21 H 0.80922 0.38147 0.52402
 H22 H 0.70998 0.42845 0.50046
 H23 H 0.73845 0.32188 0.48625
 H24 H 0.78065 0.38856 0.42673
 C25 C 0.28801 -0.14786 -0.00258
 C26 C 0.28721 -0.11961 0.02102
 C27 C 0.25347 -0.10810 0.02946
 C28 C 0.22686 -0.12722 0.01210
 C29 C 0.26836 -0.17400 0.01298
 C30 C 0.23424 -0.16293 0.02063
 C31 C 0.26767 -0.13637 -0.03148
 C32 C 0.23380 -0.12472 -0.02354
 H33 H 0.31000 -0.11153 0.03436
 H34 H 0.20100 -0.11747 0.01839
 H35 H 0.27840 -0.19924 0.01869
 H36 H 0.27816 -0.13491 -0.05616
 C37 C 0.26610 0.13341 0.52749
 C38 C 0.27098 0.11285 0.49521
 C39 C 0.24186 0.09859 0.48311
 C40 C 0.21067 0.10544 0.50486
 C41 C 0.23696 0.15890 0.51923
 C42 C 0.20785 0.14450 0.50739
 C43 C 0.25090 0.10861 0.55180
 C44 C 0.22186 0.09388 0.54016
 H45 H 0.29501 0.11050 0.48257
 H46 H 0.18754 0.09287 0.49498
 H47 H 0.23967 0.18610 0.52137
 H48 H 0.26118 0.10528 0.57696
 C49 C 0.18181 0.48888 0.29053
 C50 C 0.15774 0.45972 0.29610
 C51 C 0.13868 0.45121 0.26842
 C52 C 0.14544 0.47296 0.23764
 C53 C 0.20309 0.47729 0.26079
 C54 C 0.18432 0.46915 0.23294
 C55 C 0.15900 0.51808 0.27698
 C56 C 0.13988 0.50995 0.24924
 H57 H 0.15571 0.44745 0.32004
 H58 H 0.12948 0.46600 0.21546
 H59 H 0.23075 0.47581 0.26169
 H60 H 0.16012 0.54339 0.28748
 C61 C -0.14693 -0.02431 0.28085
 C62 C -0.12221 0.00418 0.28894
 C63 C -0.10362 0.01349 0.26232
 C64 C -0.11116 -0.00728 0.23025
 C65 C -0.16858 -0.01080 0.25114
 C66 C -0.15003 -0.00195 0.22456
 C67 C -0.12623 -0.05199 0.26743
 C68 C -0.10638 -0.04287 0.23955
 H69 H -0.12077 0.01676 0.31309
 H70 H -0.09591 0.00047 0.20873
 H71 H -0.19602 -0.00676 0.25178
 H72 H -0.12552 -0.07689 0.27856
 C73 C 0.38964 0.49176 0.78773
 C74 C 0.41108 0.52312 0.79379
 C75 C 0.42075 0.53820 0.76510
 C76 C 0.40855 0.52006 0.73296
 C77 C 0.35967 0.50398 0.76484
 C78 C 0.36949 0.51867 0.73602
 C79 C 0.41135 0.46856 0.76545
 C80 C 0.42094 0.48301 0.73663
 H81 H 0.41510 0.53418 0.81839
 H82 H 0.41744 0.53224 0.71002
 H83 H 0.33315 0.50114 0.77088
 H84 H 0.41770 0.44238 0.77158
 C85 C 0.64944 1.02661 0.76214
 C86 C 0.62750 0.99775 0.77411
 C87 C 0.60346 0.98759 0.75121
 C88 C 0.60406 1.00720 0.71821
 C89 C 0.66488 1.01269 0.72969
 C90 C 0.64094 1.00241 0.70657
 C91 C 0.62556 1.05349 0.75166
 C92 C 0.60073 1.04307 0.72703
 H93 H 0.63294 0.98464 0.79740
 H94 H 0.58466 0.99856 0.69945
 H95 H 0.69211 1.01006 0.72631
 H96 H 0.62847 1.07944 0.75994
 C97 C -0.01034 0.27279 -0.13782
 C98 C 0.02291 0.28145 -0.11947
 C99 C 0.04008 0.25406 -0.10595
 C100 C 0.02175 0.22036 -0.11154
 C101 C -0.00033 0.24550 -0.16350
 C102 C 0.01627 0.21793 -0.14984
 C103 C -0.03080 0.25416 -0.11214
 C104 C -0.01426 0.22674 -0.09821
 H105 H 0.03170 0.30716 -0.11720
 H106 H 0.03565 0.19827 -0.10007
 H107 H -0.00591 0.24780 -0.19006
 H108 H -0.05750 0.26026 -0.10816
 C109 C 0.53216 0.28098 0.15107
 C110 C 0.50132 0.28939 0.12791
 C111 C 0.48766 0.26173 0.11263
 C112 C 0.50632 0.22811 0.12171
 C113 C 0.51971 0.25469 0.17548
 C114 C 0.50579 0.22717 0.16028
 C115 C 0.55716 0.26123 0.12900
 C116 C 0.54387 0.23351 0.11363
 H117 H 0.49171 0.31503 0.12344
 H118 H 0.49560 0.20561 0.10884
 H119 H 0.52074 0.25817 0.20237
 H120 H 0.58384 0.26737 0.12780
 C121 C 0.99452 0.75771 0.65284
 C122 C 0.96448 0.76512 0.63157
 C123 C 0.95826 0.73957 0.60658
 C124 C 0.98332 0.71140 0.60794
 C125 C 0.98850 0.72455 0.66697
 C126 C 0.98189 0.69878 0.64216
 C127 C 1.02277 0.75216 0.63032
 C128 C 1.01689 0.72625 0.60563
 H129 H 0.94849 0.78777 0.63437
 H130 H 0.97835 0.69153 0.58861
 H131 H 0.98853 0.72028 0.69363
 H132 H 1.04628 0.76572 0.63308
 C133 C 0.46106 0.80654 0.34103
 C134 C 0.49325 0.81381 0.36207
 C135 C 0.50612 0.78642 0.37944
 C136 C 0.48546 0.75423 0.37384
 C137 C 0.47142 0.77643 0.31874
 C138 C 0.48421 0.74898 0.33562
 C139 C 0.43596 0.79210 0.36548
 C140 C 0.44861 0.76452 0.38270
 H141 H 0.50552 0.83798 0.36133
 H142 H 0.49588 0.73234 0.38842
 H143 H 0.46942 0.77706 0.29168
 H144 H 0.41053 0.80292 0.36821
 C145 C 0.37859 0.00928 0.29727
 H146 H 0.37702 0.03508 0.30661
 C147 C 0.39575 -0.01592 0.31621
 H148 H 0.40777 -0.00925 0.33997
 C149 C 0.36343 -0.03114 0.25577
 H150 H 0.34984 -0.03735 0.23280
 C151 C 0.38010 -0.05702 0.27386
 H152 H 0.37863 -0.08264 0.26425
 N153 N 0.36297 0.00129 0.26757
 C154 C 0.34683 0.09130 0.20658
 H155 H 0.32023 0.08791 0.19986
 C156 C 0.36508 0.11576 0.19044
 H157 H 0.35220 0.13152 0.17167
 C158 C 0.39629 0.07333 0.23772
 H159 H 0.40860 0.05588 0.25522
 C160 C 0.41557 0.09776 0.22225
 H161 H 0.44259 0.09874 0.22824
 Zn162 Zn 0.33590 0.03441 0.24412
 N163 N 0.36255 0.07057 0.22960
 C164 C 0.29733 0.08518 0.27723
 N165 N 0.30236 0.05108 0.27385
 C166 C 0.29068 0.02938 0.29690
 C167 C 0.27567 0.04193 0.32605
 C168 C 0.28223 0.09874 0.30569
 C169 C 0.34347 0.01017 0.18165
 C170 C 0.33641 -0.00334 0.15025
 C171 C 0.27771 -0.00937 0.16564
 C172 C 0.28587 0.00530 0.19695
 N173 N 0.31848 0.01443 0.20425
 H174 H 0.30729 0.10218 0.25918
 H175 H 0.29570 0.00241 0.29409
 H176 H 0.26899 0.02411 0.34498
 H177 H 0.28035 0.12605 0.30872
 H178 H 0.36922 0.01738 0.18815
 H179 H 0.35711 -0.00624 0.13293
 H180 H 0.25175 -0.01671 0.16040
 H181 H 0.26639 0.00908 0.21537
 C182 C 0.39989 0.11915 0.19799
 C183 C 0.39677 -0.04957 0.30452
 C184 C 0.30340 -0.01378 0.14176
 C185 C 0.27265 0.07723 0.33130
 C186 C 0.06040 1.00967 0.79339
 H187 H 0.05113 0.98431 0.79619
 C188 C 0.04533 1.03679 0.81088
 H189 H 0.02418 1.03226 0.82695
 C190 C 0.10034 1.04622 0.77030
 H191 H 0.12259 1.04955 0.75545
 C192 C 0.08590 1.07403 0.78704
 H193 H 0.09741 1.09846 0.78477
 N194 N 0.08754 1.01482 0.77380
 C195 C 0.07840 0.91423 0.74794
 H196 H 0.09461 0.90702 0.76907
 C197 C 0.05802 0.88986 0.73258
 H198 H 0.05994 0.86442 0.74230
 C199 C 0.05702 0.95615 0.71039
 H200 H 0.05610 0.98208 0.70212
 C201 C 0.03646 0.93257 0.69402
 H202 H 0.02047 0.94078 0.67291
 Zn203 Zn 0.11071 0.97729 0.75426
 N204 N 0.07855 0.94640 0.73598
 C205 C 0.15822 0.92772 0.77977
 N206 N 0.13798 0.95493 0.78807
 C207 C 0.13611 0.96579 0.82036
 C208 C 0.15449 0.94879 0.84583
 C209 C 0.17765 0.91043 0.80430
 C210 C 0.12337 1.01186 0.69454
 C211 C 0.14237 1.02398 0.66841
 C212 C 0.19296 0.99842 0.69439
 C213 C 0.17295 0.98674 0.72002
 N214 N 0.13862 0.99310 0.71947
 H215 H 0.15907 0.91928 0.75399
 H216 H 0.12018 0.98761 0.82657
 H217 H 0.15251 0.95858 0.87102
 H218 H 0.19363 0.88889 0.79697
 H219 H 0.09655 1.01856 0.69542
 H220 H 0.12950 1.03955 0.64958
 H221 H 0.22025 0.99320 0.69536
 H222 H 0.18513 0.97305 0.74050
 C223 C 0.03728 0.89863 0.70444
 C224 C 0.05805 1.06945 0.80777
 C225 C 0.17770 1.01697 0.66794
 C226 C 0.17563 0.92047 0.83800
 C227 C 0.57085 0.54743 0.29974
 H228 H 0.57365 0.52230 0.31026
 C229 C 0.55383 0.57315 0.31746
 H230 H 0.54307 0.56751 0.34137
 C231 C 0.58313 0.58579 0.25675
 H232 H 0.59545 0.59091 0.23359
 C233 C 0.56633 0.61221 0.27358
 H234 H 0.56636 0.63733 0.26298
 N235 N 0.58514 0.55414 0.26997
 C236 C 0.59804 0.46106 0.21285
 H237 H 0.62198 0.46694 0.20177
 C238 C 0.58123 0.43208 0.20255
 H239 H 0.59252 0.41624 0.18335
 C240 C 0.55335 0.47637 0.24917
 H241 H 0.54230 0.49391 0.26696
 C242 C 0.53559 0.44741 0.23961
 H243 H 0.51112 0.44275 0.25035
 Zn244 Zn 0.61130 0.51976 0.24816
 N245 N 0.58441 0.48218 0.23627
 C246 C 0.65343 0.52103 0.30695
 N247 N 0.64781 0.50482 0.27721
 C248 C 0.66701 0.47700 0.26853
 C249 C 0.69157 0.46331 0.29086
 C250 C 0.67758 0.50806 0.33013
 C251 C 0.60575 0.54318 0.18242
 C252 C 0.61711 0.55344 0.15143
 C253 C 0.67503 0.54989 0.17363
 C254 C 0.66255 0.53975 0.20423
 N255 N 0.62846 0.53645 0.20797
 H256 H 0.63890 0.54381 0.31303
 H257 H 0.66281 0.46485 0.24458
 H258 H 0.70589 0.44054 0.28391
 H259 H 0.68130 0.52123 0.35372
 H260 H 0.57877 0.54016 0.18608
 H261 H 0.59869 0.55863 0.13131
 H262 H 0.70220 0.55300 0.17164
 H263 H 0.68010 0.53444 0.22496
 C264 C 0.54994 0.42445 0.21662
 C265 C 0.55129 0.60600 0.30439
 C266 C 0.65215 0.55642 0.14653
 C267 C 0.69628 0.47818 0.32251
 C268 C 0.88305 0.42139 0.77111
 H269 H 0.85642 0.41987 0.77661
 C270 C 0.90473 0.39370 0.77804
 H271 H 0.89391 0.37074 0.78721
 C272 C 0.92951 0.45348 0.75401
 H273 H 0.93929 0.47706 0.74543
 C274 C 0.95230 0.42628 0.76088
 H275 H 0.97935 0.42910 0.75734
 N276 N 0.89555 0.45070 0.75953
 C277 C 0.88917 0.55380 0.76397
 H278 H 0.87639 0.55286 0.78750
 C279 C 0.90675 0.58271 0.75604
 H280 H 0.90695 0.60375 0.77364
 C281 C 0.90484 0.52747 0.71303
 H282 H 0.90453 0.50547 0.69670
 C283 C 0.92222 0.55617 0.70374
 H284 H 0.93514 0.55538 0.68024
 Zn285 Zn 0.86407 0.48814 0.75467
 N286 N 0.88819 0.52700 0.74241
 C287 C 0.86392 0.48711 0.82414
 N288 N 0.84456 0.49676 0.79695
 C289 C 0.81556 0.51620 0.80027
 C290 C 0.80570 0.52761 0.83199
 C291 C 0.85509 0.49788 0.85605
 C292 C 0.82941 0.49399 0.69143
 C293 C 0.81264 0.48033 0.66337
 C294 C 0.79442 0.43463 0.69771
 C295 C 0.81135 0.44933 0.72511
 N296 N 0.83045 0.47716 0.72103
 H297 H 0.88745 0.47264 0.82101
 H298 H 0.80112 0.52431 0.77819
 H299 H 0.78359 0.54450 0.83390
 H300 H 0.87170 0.49101 0.87715
 H301 H 0.84326 0.51697 0.68878
 H302 H 0.81478 0.49281 0.63960
 H303 H 0.78145 0.41105 0.70092
 H304 H 0.81058 0.43737 0.74918
 C305 C 0.92307 0.58459 0.72532
 C306 C 0.94002 0.39632 0.77400
 C307 C 0.79627 0.44928 0.66604
 C308 C 0.82616 0.51898 0.86032
 C309 C 0.29891 0.39520 -0.06393
 H310 H 0.29909 0.36799 -0.06767
 C311 C 0.31234 0.41586 -0.08810
 H312 H 0.32252 0.40401 -0.11032
 C313 C 0.28244 0.44323 -0.03161
 H314 H 0.27012 0.45378 -0.00987
 C315 C 0.29556 0.46494 -0.05530
 H316 H 0.29352 0.49213 -0.05144
 N317 N 0.28437 0.40901 -0.03632
 C318 C 0.20607 0.40286 0.02858
 H319 H 0.19142 0.39062 0.00890
 C320 C 0.18930 0.41741 0.05576
 H321 H 0.16177 0.41633 0.05675
 C322 C 0.25970 0.41845 0.05171
 H323 H 0.28720 0.41835 0.05005
 C324 C 0.24399 0.43314 0.07945
 H325 H 0.25970 0.44506 0.09855
 Zn326 Zn 0.26356 0.37874 -0.00676
 N327 N 0.24070 0.40317 0.02731
 C328 C 0.28845 0.33538 0.04382
 N329 N 0.29716 0.34990 0.01465
 C330 C 0.32987 0.34776 0.00404
 C331 C 0.35541 0.33123 0.02341
 C332 C 0.31332 0.31934 0.06432
 C333 C 0.21883 0.36749 -0.06083
 C334 C 0.19258 0.35246 -0.07913
 C335 C 0.19105 0.30878 -0.03733
 C336 C 0.21772 0.32465 -0.01980
 N337 N 0.23090 0.35358 -0.03172
 H338 H 0.26248 0.33801 0.05216
 H339 H 0.33671 0.36013 -0.01864
 H340 H 0.38150 0.33124 0.01524
 H341 H 0.30627 0.30946 0.08827
 H342 H 0.22872 0.39105 -0.06942
 H343 H 0.18307 0.36445 -0.10194
 H344 H 0.18086 0.28602 -0.02715
 H345 H 0.22733 0.31429 0.00366
 C346 C 0.20832 0.43192 0.08209
 C347 C 0.31093 0.45132 -0.08390
 C348 C 0.17787 0.32308 -0.06730
 C349 C 0.34732 0.31750 0.05438
 C350 C 0.78459 0.05076 1.02513
 H351 H 0.77583 0.03926 1.00194
 C352 C 0.80105 0.03073 1.04978
 H353 H 0.80440 0.00366 1.04575
 C354 C 0.79244 0.10021 1.05825
 H355 H 0.78976 0.12748 1.06087
 C356 C 0.80862 0.08124 1.08352
 H357 H 0.81841 0.09422 1.10555
 N358 N 0.78054 0.08481 1.02996
 C359 C 0.75465 0.09876 0.92781
 H360 H 0.77513 0.11594 0.92404
 C361 C 0.73650 0.08596 0.90014
 H362 H 0.74364 0.09347 0.87543
 C363 C 0.71847 0.07117 0.96479
 H364 H 0.71095 0.06653 0.99012
 C365 C 0.69965 0.05790 0.93794
 H366 H 0.67786 0.04260 0.94280
 Zn367 Zn 0.76295 0.11466 0.99692
 N368 N 0.74509 0.09150 0.95932
 C369 C 0.82751 0.12533 0.97218
 N370 N 0.79994 0.14154 0.98556
 C371 C 0.80027 0.17515 0.99327
 C372 C 0.82887 0.19396 0.98671
 C373 C 0.85668 0.14318 0.96517
 C374 C 0.71159 0.13412 1.04289
 C375 C 0.68344 0.15332 1.05385
 C376 C 0.68591 0.18741 1.00413
 C377 C 0.71349 0.16714 0.99379
 N378 N 0.72624 0.14159 1.01349
 H379 H 0.82681 0.09838 0.96701
 H380 H 0.77868 0.18734 1.00509
 H381 H 0.82856 0.22079 0.99279
 H382 H 0.87779 0.12961 0.95387
 H383 H 0.72147 0.11308 1.05771
 H384 H 0.67257 0.14749 1.07764
 H385 H 0.67658 0.20821 0.98857
 H386 H 0.72504 0.17195 0.97010
 C387 C 0.70818 0.06566 0.90512
 C388 C 0.81292 0.04598 1.07953
 C389 C 0.67042 0.18046 1.03436
 C390 C 0.85760 0.17810 0.97250
 C391 C 0.30451 0.58688 0.53818
 H392 H 0.31159 0.58419 0.51232
 C393 C 0.32352 0.56977 0.56314
 H394 H 0.34533 0.55397 0.55628
 C395 C 0.26762 0.61095 0.57844
 H396 H 0.24574 0.62692 0.58434
 C397 C 0.28589 0.59424 0.60423
 H398 H 0.27800 0.59844 0.62963
 N399 N 0.27754 0.60751 0.54623
 C400 C 0.24958 0.60014 0.44674
 H401 H 0.26724 0.61912 0.43968
 C402 C 0.23673 0.57802 0.42241
 H403 H 0.24415 0.58106 0.39679
 C404 C 0.21773 0.57411 0.48840
 H405 H 0.21030 0.57297 0.51420
 C406 C 0.20393 0.55168 0.46478
 H407 H 0.18579 0.53330 0.47250
 Zn408 Zn 0.25400 0.63098 0.51093
 N409 N 0.23923 0.59845 0.47884
 C410 C 0.26851 0.68266 0.46673
 N411 N 0.28297 0.66208 0.49060
 C412 C 0.31664 0.66401 0.49940
 C413 C 0.33747 0.68627 0.48288
 C414 C 0.28833 0.70532 0.44970
 C415 C 0.18358 0.64937 0.51687
 C416 C 0.15572 0.66758 0.52971
 C417 C 0.19503 0.70114 0.56252
 C418 C 0.22208 0.68212 0.54917
 N419 N 0.21594 0.65629 0.52734
 H420 H 0.24156 0.68100 0.46057
 H421 H 0.32750 0.64823 0.51913
 H422 H 0.36409 0.68738 0.49050
 H423 H 0.27644 0.72109 0.43037
 H424 H 0.17912 0.62973 0.49847
 H425 H 0.13058 0.66099 0.52065
 H426 H 0.20064 0.72120 0.58035
 H427 H 0.24810 0.68765 0.55653
 C428 C 0.21319 0.55366 0.43126
 C429 C 0.31446 0.57340 0.59670
 C430 C 0.16115 0.69365 0.55343
 C431 C 0.32340 0.70688 0.45718
 C432 C 0.80528 0.89304 0.47358
 H433 H 0.81509 0.88943 0.49887
 C434 C 0.82605 0.90668 0.44958
 H435 H 0.85171 0.91395 0.45661
 C436 C 0.76044 0.88681 0.43331
 H437 H 0.73522 0.87825 0.42674
 C438 C 0.78027 0.90029 0.40859
 H439 H 0.76986 0.90150 0.38331
 N440 N 0.77288 0.88400 0.46525
 C441 C 0.70871 0.89175 0.55129
 H442 H 0.69340 0.86992 0.54582
 C443 C 0.70069 0.91278 0.57822
 H444 H 0.67962 0.90617 0.59355
 C445 C 0.75569 0.92532 0.53857
 H446 H 0.77708 0.93021 0.52314
 C447 C 0.74857 0.94710 0.56542
 H448 H 0.76469 0.96848 0.57047
 Zn449 Zn 0.74517 0.86549 0.49825
 N450 N 0.73610 0.89792 0.53238
 C451 C 0.76206 0.82023 0.55021
 N452 N 0.76890 0.82781 0.51806
 C453 C 0.79679 0.81403 0.50295
 C454 C 0.82073 0.79416 0.52123
 C455 C 0.78542 0.80096 0.56949
 C456 C 0.68255 0.88167 0.46937
 C457 C 0.65016 0.87735 0.45523
 C458 C 0.65852 0.81672 0.46110
 C459 C 0.69103 0.82228 0.47530
 N460 N 0.70235 0.85441 0.47885
 H461 H 0.73975 0.83113 0.56181
 H462 H 0.80176 0.82036 0.47734
 H463 H 0.84366 0.78558 0.50895
 H464 H 0.78038 0.79717 0.59568
 H465 H 0.69212 0.90695 0.47281
 H466 H 0.63500 0.89954 0.44774
 H467 H 0.65015 0.79096 0.45853
 H468 H 0.70717 0.80104 0.48342
 C469 C 0.72077 0.94095 0.58560
 C470 C 0.81337 0.91103 0.41677
 C471 C 0.63766 0.84466 0.45074
 C472 C 0.81602 0.78896 0.55559
 C473 C -0.05776 0.25658 0.40719
 H474 H -0.05736 0.22919 0.40864
 C475 C -0.08228 0.27573 0.42442
 H476 H -0.10028 0.26264 0.43930
 C477 C -0.03362 0.30648 0.38698
 H478 H -0.01421 0.31856 0.37313
 C479 C -0.05755 0.32660 0.40390
 H480 H -0.05661 0.35395 0.40224
 N481 N -0.03468 0.27207 0.38811
 C482 C 0.02151 0.18384 0.39823
 H483 H 0.00494 0.17019 0.38126
 C484 C 0.04307 0.16569 0.42041
 H485 H 0.04332 0.13822 0.41976
 C486 C 0.04112 0.23590 0.42021
 H487 H 0.04021 0.26334 0.41987
 C488 C 0.06317 0.21878 0.44276
 H489 H 0.07861 0.23341 0.46006
 Zn490 Zn -0.00314 0.24375 0.36453
 N491 N 0.02201 0.21831 0.39751
 C492 C 0.06167 0.26558 0.34624
 N493 N 0.02759 0.27034 0.34011
 C494 C 0.01564 0.29514 0.31900
 C495 C 0.03797 0.31864 0.30619
 C496 C 0.08481 0.28818 0.33384
 C497 C -0.06150 0.21513 0.33338
 C498 C -0.07951 0.18885 0.31832
 C499 C -0.02598 0.16143 0.30397
 C500 C -0.00894 0.18849 0.31917
 N501 N -0.02681 0.21361 0.33515
 H502 H 0.07106 0.24488 0.36173
 H503 H -0.01151 0.29800 0.31378
 H504 H 0.02742 0.33923 0.29117
 H505 H 0.11167 0.28469 0.34042
 H506 H -0.07538 0.23587 0.34506
 H507 H -0.10714 0.18968 0.31889
 H508 H -0.01095 0.14072 0.29357
 H509 H 0.01867 0.18809 0.32047
 C510 C 0.06522 0.18312 0.44211
 C511 C -0.08277 0.31132 0.42233
 C512 C -0.06185 0.16077 0.30467
 C513 C 0.07307 0.31592 0.31461
 C514 C 1.03914 0.77603 0.08692
 H515 H 1.01222 0.78145 0.08306
 C516 C 1.06248 0.79307 0.06797
 H517 H 1.05294 0.81110 0.04941
 C518 C 1.08410 0.74742 0.11674
 H519 H 1.09261 0.73060 0.13661
 C520 C 1.10837 0.76348 0.09801
 H521 H 1.13497 0.75821 0.10417
 N522 N 1.05017 0.75378 0.11092
 C523 C 0.96054 0.73131 0.09377
 H524 H 0.96177 0.75861 0.09494
 C525 C 0.93445 0.71639 0.07476
 H526 H 0.91676 0.73259 0.06061
 C527 C 0.98135 0.67740 0.11179
 H528 H 0.99880 0.66204 0.12686
 C529 C 0.95590 0.66147 0.09305
 H530 H 0.95456 0.63408 0.09371
 Zn531 Zn 1.01767 0.73338 0.13841
 N532 N 0.98361 0.71176 0.11158
 C533 C 0.96842 0.75893 0.18249
 N534 N 0.99531 0.76769 0.16402
 C535 C 1.00470 0.80054 0.16213
 C536 C 0.98615 0.82627 0.17842
 C537 C 0.94956 0.78372 0.19970
 C538 C 1.05841 0.67482 0.15189
 C539 C 1.07382 0.64894 0.17106
 C540 C 1.05323 0.67713 0.22070
 C541 C 1.03797 0.70242 0.20051
 N542 N 1.04031 0.70055 0.16667
 H543 H 0.96133 0.73266 0.18342
 H544 H 1.02642 0.80700 0.14767
 H545 H 0.99457 0.85197 0.17627
 H546 H 0.92808 0.77606 0.21406
 H547 H 1.06047 0.67419 0.12498
 H548 H 1.08823 0.62901 0.15856
 H549 H 1.05092 0.67883 0.24758
 H550 H 1.02407 0.72333 0.21192
 C551 C 0.93183 0.68091 0.07447
 C552 C 1.09769 0.78698 0.07325
 C553 C 1.07082 0.64959 0.20598
 C554 C 0.95775 0.81809 0.19730
 C555 C 0.53702 0.30475 0.55725
 H556 H 0.51910 0.32383 0.56623
 C557 C 0.56468 0.31454 0.53868
 H558 H 0.56727 0.34116 0.53337
 C559 C 0.55443 0.24696 0.55240
 H560 H 0.55050 0.22067 0.55804
 C561 C 0.58245 0.25561 0.53378
 H562 H 0.59994 0.23580 0.52527
 N563 N 0.53298 0.27152 0.56457
 C564 C 0.44263 0.21803 0.58996
 H565 H 0.44776 0.21574 0.61656
 C566 C 0.41475 0.20202 0.57530
 H567 H 0.39954 0.18669 0.59105
 C568 C 0.45762 0.24017 0.53766
 H569 H 0.47443 0.25527 0.52328
 C570 C 0.42964 0.22482 0.52194
 H571 H 0.42509 0.22811 0.49533
 Zn572 Zn 0.49884 0.25908 0.59439
 N573 N 0.46323 0.23683 0.57117
 C574 C 0.44562 0.30320 0.61531
 N575 N 0.48013 0.29830 0.61611
 C576 C 0.50077 0.32061 0.63237
 C577 C 0.48674 0.34862 0.64942
 C578 C 0.43057 0.33043 0.63238
 C579 C 0.52151 0.19505 0.61664
 C580 C 0.53404 0.17041 0.63898
 C581 C 0.54018 0.21421 0.68106
 C582 C 0.52703 0.23793 0.65797
 N583 N 0.51813 0.22807 0.62635
 H584 H 0.42951 0.28562 0.60201
 H585 H 0.52817 0.31640 0.63248
 H586 H 0.50350 0.36538 0.66316
 H587 H 0.40300 0.33326 0.63233
 H588 H 0.51398 0.18767 0.59147
 H589 H 0.53661 0.14468 0.62978
 H590 H 0.54727 0.22275 0.70604
 H591 H 0.52394 0.26415 0.66547
 C592 C 0.40737 0.20597 0.54090
 C593 C 0.58853 0.28983 0.52766
 C594 C 0.54358 0.17977 0.67194
 C595 C 0.45110 0.35341 0.64985
 C596 C 0.45523 0.80029 0.90199
 H597 H 0.46577 0.82228 0.89089
 C598 C 0.42431 0.80398 0.91809
 H599 H 0.41218 0.82894 0.91851
 C600 C 0.45680 0.74117 0.91149
 H601 H 0.46929 0.71662 0.90820
 C602 C 0.42525 0.74355 0.92708
 H603 H 0.41407 0.72072 0.93622
 N604 N 0.47144 0.76945 0.89976
 C605 C 0.57996 0.77214 0.90545
 H606 H 0.58225 0.79076 0.88611
 C607 C 0.60830 0.76427 0.92596
 H608 H 0.63180 0.77747 0.92260
 C609 C 0.54771 0.73072 0.93190
 H610 H 0.52420 0.71740 0.93382
 C611 C 0.57578 0.72157 0.95259
 H612 H 0.57332 0.70164 0.97071
 Zn613 Zn 0.51380 0.76527 0.87753
 N614 N 0.55029 0.75553 0.90873
 C615 C 0.52848 0.83316 0.87830
 N616 N 0.52309 0.80705 0.85659
 C617 C 0.52619 0.81110 0.82306
 C618 C 0.53540 0.84255 0.81035
 C619 C 0.53747 0.86471 0.86682
 C620 C 0.53579 0.70348 0.84925
 C621 C 0.53023 0.67138 0.83567
 C622 C 0.47460 0.69134 0.81562
 C623 C 0.48114 0.72314 0.82985
 N624 N 0.51084 0.72815 0.84732
 H625 H 0.52642 0.82916 0.90488
 H626 H 0.52216 0.78985 0.80629
 H627 H 0.53837 0.84499 0.78372
 H628 H 0.54204 0.88485 0.88483
 H629 H 0.55916 0.70787 0.86334
 H630 H 0.54953 0.65143 0.83932
 H631 H 0.44978 0.68719 0.80408
 H632 H 0.46142 0.74291 0.82933
 C633 C 0.60667 0.73827 0.94934
 C634 C 0.40897 0.77542 0.93146
 C635 C 0.49893 0.66462 0.81963
 C636 C 0.54142 0.86982 0.83258
 C637 C 0.44703 -0.16383 0.32092
 C638 C 0.43843 -0.13382 0.33452
 C639 C 0.42399 -0.10652 0.31307
 C640 C 0.41354 -0.07648 0.32550
 H641 H 0.44160 -0.12975 0.36124
 H642 H 0.42194 -0.11146 0.28646
 H643 H 0.44308 -0.16745 0.29420
 H644 H 0.41742 -0.07139 0.35199
 C645 C 0.96984 0.30296 0.84842
 C646 C 0.97978 0.32138 0.82280
 C647 C 0.95758 0.34989 0.81141
 C648 C 0.96408 0.36869 0.78483
 H649 H 1.00324 0.31498 0.81018
 H650 H 0.93490 0.35565 0.82553
 H651 H 0.94640 0.31044 0.86067
 H652 H 0.98775 0.36466 0.77180
 C653 C 0.02830 1.18936 0.82922
 C654 C 0.03144 1.15765 0.84054
 C655 C 0.04429 1.13012 0.81878
 C656 C 0.04343 1.09765 0.82801
 H657 H 0.02427 1.15182 0.86577
 H658 H 0.05445 1.13667 0.79485
 H659 H 0.03359 1.19442 0.80330
 H660 H 0.03121 1.09142 0.85106
 C661 C 0.49672 0.71869 0.31719
 C662 C 0.50821 0.68999 0.33159
 C663 C 0.52206 0.66216 0.31078
 C664 C 0.53480 0.63345 0.32432
 H665 H 0.50821 0.68700 0.35842
 H666 H 0.52204 0.66557 0.28397
 H667 H 0.49685 0.72035 0.29013
 H668 H 0.53301 0.62983 0.35105
 C669 C 0.54829 0.31110 0.16769
 C670 C 0.53041 0.33582 0.18289
 C671 C 0.54829 0.36542 0.19630
 C672 C 0.53165 0.39344 0.20678
 H673 H 0.50285 0.33495 0.18382
 H674 H 0.57594 0.36447 0.19654
 H675 H 0.57587 0.31252 0.16735
 H676 H 0.50406 0.39368 0.20814
 C677 C 0.00151 0.78309 0.67779
 C678 C 0.00349 0.81747 0.67008
 C679 C 0.01649 0.84050 0.69336
 C680 C 0.01890 0.87478 0.68538
 H681 H -0.00378 0.82606 0.64514
 H682 H 0.02537 0.83104 0.71742
 H683 H 0.00987 0.77502 0.70266
 H684 H 0.00660 0.88332 0.66218
 C685 C 0.97226 0.66565 0.64908
 C686 C 0.96470 0.65471 0.68108
 C687 C 0.95142 0.62288 0.68626
 C688 C 0.93926 0.61475 0.71766
 H689 H 0.96710 0.67165 0.70231
 H690 H 0.94881 0.60572 0.66520
 H691 H 0.96830 0.64840 0.62817
 H692 H 0.94064 0.63411 0.73708
 C693 C 0.49063 0.20026 0.17990
 C694 C 0.46484 0.18206 0.16788
 C695 C 0.44835 0.15711 0.18880
 C696 C 0.41893 0.14370 0.17849
 H697 H 0.45454 0.18669 0.14288
 H698 H 0.45969 0.15079 0.21301
 H699 H 0.49928 0.19699 0.20568
 H700 H 0.40744 0.15209 0.15489
 C701 C 0.37979 0.47368 -0.18104
 C702 C 0.35739 0.48616 -0.15917
 C703 C 0.34770 0.46486 -0.13101
 C704 C 0.32333 0.47439 -0.10982
 H705 H 0.34532 0.51095 -0.16298
 H706 H 0.36045 0.44028 -0.12820
 H707 H 0.39151 0.44886 -0.17631
 H708 H 0.31194 0.49971 -0.11162
 C709 C 0.83164 0.96575 0.30965
 C710 C 0.84522 0.95324 0.33810
 C711 C 0.82288 0.94118 0.36411
 C712 C 0.83549 0.92547 0.39142
 H713 H 0.87271 0.95065 0.34144
 H714 H 0.79557 0.94490 0.36040
 H715 H 0.80408 0.96765 0.30651
 H716 H 0.86293 0.92346 0.39556
 C717 C 0.83355 0.01578 1.19600
 C718 C 0.84460 0.01302 1.16485
 C719 C 0.82682 0.03259 1.13819
 C720 C 0.83040 0.02522 1.10580
 H721 H 0.86611 -0.00368 1.15907
 H722 H 0.80965 0.05325 1.14545
 H723 H 0.81057 0.03087 1.20073
 H724 H 0.84538 0.00297 1.09849
 C725 C 0.34444 0.53219 0.71083
 C726 C 0.35240 0.53690 0.67893
 C727 C 0.32770 0.55218 0.65456
 C728 C 0.33649 0.55652 0.62277
 H729 H 0.37749 0.52951 0.67036
 H730 H 0.30267 0.56000 0.66294
 H731 H 0.31868 0.53809 0.71869
 H732 H 0.36147 0.54719 0.61529
 C733 C 0.20321 0.49913 0.32062
 C734 C 0.18934 0.50718 0.34990
 C735 C 0.20960 0.52371 0.37659
 C736 C 0.19579 0.53229 0.40579
 H737 H 0.16233 0.50368 0.35328
 H738 H 0.23565 0.53013 0.37166
 H739 H 0.23002 0.50374 0.31717
 H740 H 0.17033 0.52405 0.41097
 C741 C 0.67578 0.03786 0.78783
 C742 C 0.66763 0.04370 0.81965
 C743 C 0.69318 0.05393 0.84512
 C744 C 0.68517 0.05450 0.87742
 H745 H 0.64160 0.04023 0.82716
 H746 H 0.71838 0.06035 0.83733
 H747 H 0.70165 0.04179 0.78008
 H748 H 0.66012 0.04621 0.88410
 C749 C 0.64821 0.98630 0.67403
 C750 C 0.67889 0.98512 0.66025
 C751 C 0.68380 0.96626 0.62882
 C752 C 0.71444 0.96294 0.61510
 H753 H 0.70050 0.99710 0.67228
 H754 H 0.66191 0.95431 0.61721
 H755 H 0.62700 0.97460 0.66090
 H756 H 0.73571 0.97654 0.62601
 C757 C 0.20124 0.45772 0.20210
 C758 C 0.18583 0.45727 0.17190
 C759 C 0.20501 0.44596 0.14243
 C760 C 0.19028 0.44495 0.11188
 H761 H 0.15943 0.46562 0.16860
 H762 H 0.23131 0.43737 0.14615
 H763 H 0.22807 0.45032 0.20429
 H764 H 0.16341 0.45193 0.10896
 C765 C -0.19606 0.33825 0.46872
 C766 C -0.16451 0.34750 0.46166
 C767 C -0.13901 0.32299 0.44856
 C768 C -0.10865 0.33346 0.43885
 H769 H -0.15799 0.37395 0.46422
 H770 H -0.14602 0.29682 0.44527
 H771 H -0.20290 0.31196 0.46560
 H772 H -0.10327 0.36020 0.44129
 C773 C 0.32230 0.84277 0.98894
 C774 C 0.33224 0.81199 0.97402
 C775 C 0.36485 0.80847 0.96118
 C776 C 0.37771 0.77794 0.94794
 H777 H 0.31462 0.79139 0.97163
 H778 H 0.38092 0.83032 0.96235
 H779 H 0.34091 0.86269 0.98991
 H780 H 0.36377 0.75505 0.95201
 C781 C 1.21161 0.81503 0.03521
 C782 C 1.17661 0.82186 0.03776
 C783 C 1.15591 0.79990 0.05456
 C784 C 1.12051 0.80558 0.05461
 H785 H 1.16479 0.84400 0.02605
 H786 H 1.16777 0.77829 0.06716
 H787 H 1.22179 0.79072 0.04394
 H788 H 1.10986 0.82574 0.03885
 C789 C 0.68293 0.36495 0.50479
 C790 C 0.66846 0.33489 0.50034
 C791 C 0.63478 0.32876 0.51419
 C792 C 0.62030 0.29857 0.51079
 H793 H 0.68152 0.31454 0.48707
 H794 H 0.62284 0.34873 0.52889
 H795 H 0.66877 0.38520 0.51719
 H796 H 0.63368 0.27857 0.49721
 C797 C 0.29745 0.14974 0.54217
 C798 C 0.32095 0.16437 0.52393
 C799 C 0.35026 0.18030 0.54087
 C800 C 0.37714 0.19066 0.52414
 H801 H 0.31881 0.16422 0.49688
 H802 H 0.34942 0.18344 0.56771
 H803 H 0.29995 0.15105 0.56922
 H804 H 0.37673 0.18838 0.49710
 C805 C 0.81546 0.66914 0.02691
 C806 C 0.84701 0.65640 0.03267
 C807 C 0.87438 0.67745 0.04663
 C808 C 0.90439 0.66300 0.05600
 H809 H 0.85204 0.62945 0.02899
 H810 H 0.86896 0.70409 0.05130
 H811 H 0.81000 0.69586 0.03149
 H812 H 0.90813 0.63590 0.05215
 C813 C 0.69051 0.65524 0.99409
 C814 C 0.68012 0.68771 0.99130
 C815 C 0.64588 0.69671 0.97751
 C816 C 0.63802 0.72867 0.96875
 H817 H 0.69727 0.70796 0.99734
 H818 H 0.62821 0.67670 0.97191
 H819 H 0.67271 0.63558 0.98759
 H820 H 0.65701 0.74788 0.97263
 C821 C 0.17842 0.16574 0.49540
 C822 C 0.14763 0.15361 0.48801
 C823 C 0.12074 0.17571 0.47263
 C824 C 0.09076 0.16332 0.46247
 H825 H 0.14231 0.12727 0.49222
 H826 H 0.12671 0.20172 0.46742
 H827 H 0.18255 0.19253 0.49187
 H828 H 0.08617 0.13668 0.46642
 C829 C 0.57849 0.06517 0.70902
 C830 C 0.57635 0.10030 0.71411
 C831 C 0.55861 0.12120 0.69123
 C832 C 0.55708 0.15647 0.69569
 H833 H 0.58953 0.11192 0.73514
 H834 H 0.54653 0.10949 0.66964
 H835 H 0.56335 0.05445 0.68867
 H836 H 0.56702 0.16654 0.71922
 C837 C 1.11903 0.53475 0.22918
 C838 C 1.11129 0.56637 0.23962
 C839 C 1.09369 0.59114 0.21725
 C840 C 1.08677 0.62293 0.22770
 H841 H 1.11859 0.57465 0.26457
 H842 H 1.08678 0.58328 0.19203
 H843 H 1.11055 0.52681 0.20440
 H844 H 1.09251 0.62963 0.25355
 C845 C 0.91525 0.93452 0.22211
 C846 C 0.91695 0.89948 0.22765
 C847 C 0.93874 0.87777 0.20986
 C848 C 0.93729 0.84254 0.21385
 H849 H 0.90042 0.88829 0.24541
 H850 H 0.95575 0.88861 0.19231
 H851 H 0.93056 0.94468 0.20259
 H852 H 0.91786 0.83332 0.23002
 C853 C 0.43831 0.46342 0.71006
 C854 C 0.42994 0.43132 0.70363
 C855 C 0.44769 0.40934 0.67935
 C856 C 0.43427 0.37956 0.67087
 H857 H 0.40921 0.42055 0.71705
 H858 H 0.47163 0.41698 0.66930
 H859 H 0.45707 0.47561 0.69525
 H860 H 0.40930 0.37376 0.67998
 C861 C 0.43596 0.57201 0.76432
 C862 C 0.45619 0.58357 0.78901
 C863 C 0.46689 0.61910 0.79007
 C864 C 0.49082 0.62881 0.81229
 H865 H 0.46405 0.56696 0.80944
 H866 H 0.45415 0.63742 0.77364
 H867 H 0.42979 0.58799 0.74296
 H868 H 0.50441 0.60951 0.82702
 C869 C -0.08158 0.04329 0.26303
 C870 C -0.09095 0.07179 0.27919
 C871 C -0.06920 0.10167 0.28179
 C872 C -0.08186 0.13060 0.29502
 H873 H -0.11543 0.07311 0.29119
 H874 H -0.04296 0.09926 0.27426
 H875 H -0.05842 0.04234 0.24886
 H876 H -0.10868 0.13161 0.30114
 C877 C 0.11355 0.42386 0.26781
 C878 C 0.11748 0.39648 0.28724
 C879 C 0.09147 0.37020 0.28867
 C880 C 0.09808 0.34216 0.30672
 H881 H 0.14032 0.39344 0.30294
 H882 H 0.06699 0.37464 0.27614
 H883 H 0.09187 0.42602 0.25052
 H884 H 0.12343 0.33890 0.31804
 C885 C 0.58242 0.95743 0.75560
 C886 C 0.57521 0.94605 0.78591
 C887 C 0.55883 0.91336 0.79110
 C888 C 0.55370 0.90336 0.82241
 H889 H 0.58270 0.96064 0.80784
 H890 H 0.55270 0.89740 0.76979
 H891 H 0.57350 0.94396 0.73348
 H892 H 0.56015 0.92082 0.84258
 C893 C 0.73987 0.57942 0.06596
 C894 C 0.70661 0.57756 0.07168
 C895 C 0.69537 0.56228 0.10283
 C896 C 0.66364 0.56778 0.11354
 H897 H 0.68803 0.59036 0.05524
 H898 H 0.71390 0.54778 0.11778
 H899 H 0.75829 0.56882 0.08401
 H900 H 0.64527 0.58145 0.09755
 C901 C 0.20031 1.07254 0.56081
 C902 C 0.21159 1.05829 0.58947
 C903 C 0.18827 1.04182 0.61211
 C904 C 0.19975 1.03058 0.64199
 H905 H 0.23812 1.05991 0.59731
 H906 H 0.16165 1.04005 0.60463
 H907 H 0.17396 1.06963 0.55270
 H908 H 0.22684 1.03174 0.64803
 C909 C 0.20999 0.88934 0.95328
 C910 C 0.21447 0.88859 0.91872
 C911 C 0.19184 0.90572 0.89683
 C912 C 0.19528 0.90234 0.86220
 H913 H 0.23564 0.87426 0.90831
 H914 H 0.17139 0.92115 0.90714
 H915 H 0.18675 0.90101 0.96272
 H916 H 0.21392 0.88368 0.85337
 C917 C 0.72849 0.43916 0.43529
 C918 C 0.73618 0.44117 0.40298
 C919 C 0.71588 0.46333 0.38011
 C920 C 0.71985 0.46117 0.34703
 H921 H 0.75594 0.42496 0.39252
 H922 H 0.69568 0.47928 0.39030
 H923 H 0.70821 0.45552 0.44478
 H924 H 0.73899 0.44350 0.33744
 C925 C 0.76357 0.43125 0.54706
 C926 C 0.77506 0.41968 0.57668
 C927 C 0.77923 0.44234 0.60587
 C928 C 0.78524 0.42931 0.63631
 H929 H 0.78194 0.39298 0.57937
 H930 H 0.77855 0.46949 0.60207
 H931 H 0.75430 0.45729 0.54469
 H932 H 0.78373 0.40209 0.63935
 C933 C 0.24673 -0.08390 0.05467
 C934 C 0.27228 -0.06337 0.06788
 C935 C 0.26965 -0.04525 0.09788
 C936 C 0.29858 -0.02868 0.11003
 H937 H 0.29607 -0.06231 0.05489
 H938 H 0.24671 -0.04635 0.11220
 H939 H 0.22126 -0.08157 0.06445
 H940 H 0.32053 -0.02925 0.09398
 C941 C 0.23968 0.08096 0.45047
 C942 C 0.25425 0.09374 0.42371
 C943 C 0.25415 0.07639 0.39092
 C944 C 0.26468 0.09292 0.36416
 H945 H 0.26704 0.11770 0.42614
 H946 H 0.24705 0.05013 0.38934
 H947 H 0.22463 0.05843 0.44808
 H948 H 0.27008 0.11963 0.36712
 C949 C 0.76425 0.58062 0.95020
 C950 C 0.79264 0.56788 0.93646
 C951 C 0.79230 0.54934 0.90428
 C952 C 0.82125 0.53447 0.89379
 H953 H 0.81713 0.57186 0.94890
 H954 H 0.76905 0.54892 0.88906
 H955 H 0.73951 0.57504 0.93913
 H956 H 0.84341 0.53431 0.91066
 C957 C 0.04142 0.71318 0.58366
 C958 C 0.07555 0.72263 0.58424
 C959 C 0.09968 0.70512 0.56516
 C960 C 0.13443 0.71209 0.56879
 H961 H 0.08421 0.74247 0.60092
 H962 H 0.09104 0.68488 0.54897
 H963 H 0.03389 0.69294 0.56674
 H964 H 0.14139 0.73224 0.58611
 C965 C 0.56484 0.20875 1.09454
 C966 C 0.59247 0.21801 1.07836
 C967 C 0.61687 0.19299 1.06432
 C968 C 0.64258 0.20333 1.04598
 H969 H 0.59812 0.24466 1.07654
 H970 H 0.61450 0.16636 1.06998
 H971 H 0.55795 0.18236 1.09469
 H972 H 0.64331 0.22981 1.03901
 C973 C 0.96810 0.20237 0.92272
 C974 C 0.94104 0.21216 0.94049
 C975 C 0.91684 0.18785 0.95316
 C976 C 0.88671 0.19944 0.96432
 H977 H 0.93463 0.23896 0.94306
 H978 H 0.92279 0.16102 0.95091
 H979 H 0.97567 0.17578 0.92115
 H980 H 0.88241 0.22669 0.96629
 C981 C 0.42928 0.74445 0.40656
 C982 C 0.39600 0.74949 0.41226
 C983 C 0.37783 0.72679 0.43437
 C984 C 0.34401 0.73033 0.43774
 H985 H 0.38147 0.76964 0.39983
 H986 H 0.39209 0.70625 0.44655
 H987 H 0.44296 0.72367 0.41903
 H988 H 0.33035 0.75025 0.42392
 C989 C 0.53861 0.78588 0.39930
 C990 C 0.55430 0.81404 0.40924
 C991 C 0.58795 0.81277 0.42672
 C992 C 0.60308 0.84176 0.43503
 H993 H 0.54254 0.83867 0.40412
 H994 H 0.60031 0.78839 0.43164
 H995 H 0.55006 0.76136 0.40567
 H996 H 0.58942 0.86538 0.42913
 C997 C 0.07326 0.25661 -0.08772
 C998 C 0.09562 0.27990 -0.09599
 C999 C 0.12722 0.28607 -0.07631
 C1000 C 0.14815 0.30989 -0.08658
 H1001 H 0.09001 0.29576 -0.11756
 H1002 H 0.13185 0.27287 -0.05298
 H1003 H 0.07936 0.23909 -0.06757
 H1004 H 0.14180 0.32235 -0.11012
 C1005 C 0.45820 0.26405 0.08890
 C1006 C 0.43159 0.28511 0.09453
 C1007 C 0.40371 0.29065 0.06955
 C1008 C 0.37425 0.30562 0.07853
 H1009 H 0.43067 0.29927 0.11787
 H1010 H 0.40781 0.28370 0.04368
 H1011 H 0.45824 0.24790 0.06686
 H1012 H 0.36991 0.31028 0.10486
 C1013 C 0.93006 0.74010 0.58427
 C1014 C 0.90005 0.75854 0.59090
 C1015 C 0.87318 0.76168 0.56750
 C1016 C 0.84181 0.77575 0.57728
 H1017 H 0.89698 0.77015 0.61532
 H1018 H 0.87708 0.75351 0.54197
 H1019 H 0.93055 0.72349 0.56254
 H1020 H 0.83777 0.77818 0.60395
   
