data_POSCAR
  _audit_creation_date              2014-09-24
  _audit_creation_method            'ToBaCCo'
  _symmetry_space_group_name_H-M    'P1'
  _symmetry_Int_Tables_number       1
  _symmetry_cell_setting            triclinic
  loop_
  _symmetry_equiv_pos_as_xyz
 x,y,z
_cell_length_a 23.9460
_cell_length_b 23.8139
_cell_length_c 21.1171
_cell_angle_alpha 89.636000
_cell_angle_beta 89.723800
_cell_angle_gamma 89.591700
loop_
  _atom_site_label
  _atom_site_type_symbol
  _atom_site_fract_x
  _atom_site_fract_y
  _atom_site_fract_z
C1 C 0.35806 -0.00541 0.25280
 C2 C 0.13035 -0.00258 0.76207
 C3 C 0.64103 0.49554 0.23897
 C4 C 0.86274 0.50828 0.75192
 C5 C 0.24887 0.39251 0.99829
 C6 C 0.74393 0.10146 0.99096
 C7 C 0.25414 0.60534 0.48766
 C8 C 0.75400 0.88836 0.50264
 C9 C -0.00628 0.25572 0.37450
 C10 C 0.00207 0.74186 0.12879
 C11 C 0.50104 0.23945 0.62719
 C12 C 0.49620 0.75155 0.86819
 C13 C -0.24928 0.60566 1.00978
 C14 C -0.23576 0.38515 0.49686
 C15 C 0.24517 -0.10605 0.00764
 C16 C 0.25132 1.10781 0.50581
 C17 C 0.13463 0.49368 0.24656
 C18 C -0.14165 1.00216 0.26391
 C19 C 0.36480 0.49406 -0.25310
 C20 C 0.62989 0.00052 -0.25356
 C21 C 0.00097 0.24165 0.87738
 C22 C 0.49987 0.24973 0.12936
 C23 C 0.00337 0.75311 0.63541
 C24 C 0.50226 0.73570 0.37606
 B25 B -0.03690 0.02955 1.06530
 B26 B -0.06117 0.02470 0.99106
 B27 B -0.00443 0.06316 1.00520
 B28 B 0.03347 0.03093 1.06256
 B29 B -0.00083 -0.02911 1.08277
 B30 B -0.06022 -0.03240 1.03848
 B31 B 0.02885 -0.03602 0.95843
 B32 B 0.05349 -0.03082 1.03240
 B33 B -0.00335 -0.06973 1.01820
 B34 B -0.04138 -0.03736 0.96122
 B35 B -0.00693 0.02234 0.94106
 B36 B 0.05213 0.02591 0.98524
 B37 B 0.48439 0.50923 0.55393
 B38 B 0.44570 0.50922 0.48808
 B39 B 0.50464 0.54761 0.49083
 B40 B 0.55288 0.51118 0.53485
 B41 B 0.52225 0.45043 0.55758
 B42 B 0.45721 0.44953 0.52818
 B43 B 0.52749 0.45166 0.42856
 B44 B 0.56501 0.45056 0.49535
 B45 B 0.50540 0.41375 0.49247
 B46 B 0.45903 0.45003 0.44793
 B47 B 0.48925 0.51133 0.42520
 B48 B 0.55610 0.51154 0.45468
 B49 B 0.53147 0.95924 0.55073
 B50 B 0.56069 0.96687 0.47874
 B51 B 0.50408 0.92544 0.48780
 B52 B 0.46175 0.95561 0.54243
 B53 B 0.49228 1.01610 0.56616
 B54 B 0.55397 1.02257 0.52655
 B55 B 0.47056 1.02566 0.44005
 B56 B 0.44125 1.01749 0.51228
 B57 B 0.49762 1.05869 0.50314
 B58 B 0.54033 1.02885 0.44831
 B59 B 0.50960 0.96825 0.42441
 B60 B 0.44783 0.96210 0.46416
 B61 B 0.03085 0.45648 1.05788
 B62 B 0.05336 0.46431 0.98341
 B63 B -0.00109 0.42218 0.99925
 B64 B -0.03931 0.45138 1.05868
 B65 B -0.00773 0.51281 1.07824
 B66 B 0.05003 0.52018 1.03124
 B67 B -0.04081 0.51991 0.95578
 B68 B -0.06316 0.51273 1.03006
 B69 B -0.00868 0.55491 1.01423
 B70 B 0.02925 0.52539 0.95480
 B71 B -0.00219 0.46417 0.93536
 B72 B -0.06001 0.45681 0.98222
 B73 B 0.01889 0.54031 0.42990
 B74 B 0.06070 0.52748 0.49176
 B75 B 0.01109 0.57836 0.49729
 B76 B -0.04570 0.55512 0.45647
 B77 B -0.03052 0.49003 0.42782
 B78 B 0.03541 0.47388 0.44977
 B79 B -0.02515 0.48551 0.55680
 B80 B -0.06698 0.49752 0.49527
 B81 B -0.01723 0.44679 0.48978
 B82 B 0.03896 0.47032 0.53012
 B83 B 0.02404 0.53507 0.55870
 B84 B -0.04242 0.55138 0.53671
 B85 B 0.52240 0.03181 -0.06194
 B86 B 0.55742 0.01104 0.00206
 B87 B 0.51089 0.06474 0.00741
 B88 B 0.45691 0.05024 -0.04175
 B89 B 0.47078 -0.01357 -0.07585
 B90 B 0.53322 -0.03722 -0.04808
 B91 B 0.46303 -0.02889 0.05226
 B92 B 0.42770 -0.00902 -0.01391
 B93 B 0.47462 -0.06214 -0.01753
 B94 B 0.52832 -0.04763 0.03159
 B95 B 0.51497 0.01622 0.06535
 B96 B 0.45146 0.03956 0.03770
 B97 B 0.46233 0.47521 -0.04871
 B98 B 0.43189 0.49154 0.02044
 B99 B 0.48129 0.44048 0.01791
 B100 B 0.53025 0.45866 -0.03674
 B101 B 0.51105 0.52245 -0.06735
 B102 B 0.44964 0.54268 -0.03187
 B103 B 0.52939 0.53537 0.05776
 B104 B 0.55954 0.51802 -0.01079
 B105 B 0.51038 0.56893 -0.00871
 B106 B 0.46144 0.55135 0.04654
 B107 B 0.48071 0.48735 0.07729
 B108 B 0.54193 0.46712 0.04149
 B109 B -0.03200 0.97296 0.45437
 B110 B -0.06000 0.98091 0.52647
 B111 B -0.00410 0.93842 0.51647
 B112 B 0.03752 0.96764 0.46037
 B113 B 0.00728 1.02908 0.43693
 B114 B -0.05355 1.03665 0.47822
 B115 B 0.03153 1.03671 0.56281
 B116 B 0.05932 1.02867 0.48973
 B117 B 0.00343 1.07170 0.50004
 B118 B -0.03843 1.04215 0.55624
 B119 B -0.00825 0.98059 0.57954
 B120 B 0.05282 0.97311 0.53835
 B121 B 0.77156 0.20330 0.19495
 B122 B 0.76916 0.19259 0.27400
 B123 B 0.81690 0.23740 0.24363
 B124 B 0.78709 0.27166 0.18043
 B125 B 0.72043 0.24831 0.17431
 B126 B 0.70919 0.19908 0.23230
 B127 B 0.73137 0.29811 0.28963
 B128 B 0.73309 0.30907 0.21109
 B129 B 0.68612 0.26477 0.24114
 B130 B 0.71494 0.23014 0.30403
 B131 B 0.78188 0.25305 0.31002
 B132 B 0.79245 0.30258 0.25215
 B133 B 0.72298 0.79203 0.70496
 B134 B 0.73282 0.82154 0.77591
 B135 B 0.68590 0.77068 0.76813
 B136 B 0.71039 0.72367 0.71524
 B137 B 0.77468 0.74625 0.69084
 B138 B 0.78765 0.80799 0.72881
 B139 B 0.77876 0.72525 0.81777
 B140 B 0.76885 0.69663 0.74656
 B141 B 0.81663 0.74793 0.75438
 B142 B 0.79096 0.79457 0.80826
 B143 B 0.72719 0.77186 0.83220
 B144 B 0.71350 0.71102 0.79426
 B145 B 0.28629 0.26735 0.81972
 B146 B 0.27900 0.29713 0.74698
 B147 B 0.32235 0.24194 0.75651
 B148 B 0.29379 0.19778 0.81163
 B149 B 0.23129 0.22615 0.83469
 B150 B 0.22319 0.28752 0.79524
 B151 B 0.22586 0.20517 0.70816
 B152 B 0.23327 0.17584 0.78025
 B153 B 0.19013 0.23131 0.77029
 B154 B 0.21945 0.27444 0.71621
 B155 B 0.28097 0.24608 0.69286
 B156 B 0.28939 0.18391 0.73279
 B157 B 0.22853 0.70777 0.29220
 B158 B 0.23322 0.67875 0.21990
 B159 B 0.19413 0.73723 0.23095
 B160 B 0.22691 0.77815 0.28415
 B161 B 0.28699 0.74401 0.30477
 B162 B 0.29012 0.68244 0.26531
 B163 B 0.29281 0.76871 0.18039
 B164 B 0.28784 0.79654 0.25324
 B165 B 0.32730 0.73823 0.24144
 B166 B 0.29489 0.69782 0.18690
 B167 B 0.23446 0.73125 0.16597
 B168 B 0.23078 0.79295 0.20685
 B169 B 0.26893 0.72421 0.68869
 B170 B 0.26721 0.68793 0.75905
 B171 B 0.31471 0.73822 0.75014
 B172 B 0.28683 0.79101 0.70648
 B173 B 0.21983 0.77401 0.69248
 B174 B 0.20836 0.70865 0.72366
 B175 B 0.22749 0.78051 0.81660
 B176 B 0.23247 0.81632 0.74883
 B177 B 0.18391 0.76485 0.75825
 B178 B 0.21346 0.71258 0.80250
 B179 B 0.27933 0.73215 0.81952
 B180 B 0.29098 0.79684 0.78650
 B181 B 0.22019 0.28122 0.19637
 B182 B 0.23008 0.30979 0.26805
 B183 B 0.18326 0.25755 0.25997
 B184 B 0.20875 0.21184 0.20591
 B185 B 0.27198 0.23487 0.18138
 B186 B 0.28543 0.29680 0.21963
 B187 B 0.27784 0.21370 0.30781
 B188 B 0.26670 0.18430 0.23742
 B189 B 0.31419 0.23585 0.24429
 B190 B 0.28973 0.28295 0.29833
 B191 B 0.22606 0.25873 0.32303
 B192 B 0.21282 0.19809 0.28498
 B193 B 0.78558 0.77386 0.31463
 B194 B 0.77798 0.80589 0.24393
 B195 B 0.82089 0.74941 0.25130
 B196 B 0.79182 0.70395 0.30412
 B197 B 0.73007 0.73256 0.32844
 B198 B 0.72197 0.79584 0.29098
 B199 B 0.72399 0.71519 0.20137
 B200 B 0.73157 0.68290 0.27200
 B201 B 0.68893 0.73914 0.26458
 B202 B 0.71787 0.78468 0.21212
 B203 B 0.77955 0.75616 0.18764
 B204 B 0.78746 0.69272 0.22485
 B205 B 0.72429 0.22004 0.80340
 B206 B 0.73133 0.18236 0.73570
 B207 B 0.68986 0.23970 0.73753
 B208 B 0.72046 0.28877 0.78405
 B209 B 0.78122 0.26106 0.81154
 B210 B 0.78724 0.19405 0.78221
 B211 B 0.78824 0.26608 0.68256
 B212 B 0.78140 0.30524 0.74860
 B213 B 0.82276 0.24727 0.74902
 B214 B 0.79271 0.19850 0.70210
 B215 B 0.73157 0.22649 0.67477
 B216 B 0.72467 0.29132 0.70429
 C217 C 0.40173 1.02316 0.29420
 C218 C 0.44736 1.05361 0.27393
 C219 C 0.47359 1.07021 0.32789
 C220 C 0.44225 1.04910 0.37770
 O221 O 0.39734 1.02333 0.35670
 H222 H 0.46110 1.06185 0.22598
 H223 H 0.51440 1.08932 0.33024
 C224 C -0.11234 0.53215 0.81188
 C225 C -0.08526 0.58385 0.81140
 C226 C -0.06369 0.59076 0.86948
 C227 C -0.07664 0.54202 0.90068
 O228 O -0.10675 0.50650 0.86647
 H229 H -0.07816 0.61163 0.77148
 H230 H -0.03554 0.62353 0.88408
 C231 C 0.09341 -0.03180 0.81026
 C232 C 0.05647 -0.07419 0.79634
 C233 C 0.03471 -0.09087 0.85320
 C234 C 0.05973 -0.05713 0.89771
 O235 O 0.09624 -0.02254 0.87140
 H236 H 0.04595 -0.08958 0.74988
 H237 H -0.00010 -0.11901 0.86029
 C238 C 0.59841 0.46506 0.28152
 C239 C 0.55095 0.43911 0.25887
 C240 C 0.52168 0.42181 0.31096
 C241 C 0.55361 0.43675 0.36207
 O242 O 0.60026 0.46250 0.34382
 H243 H 0.53763 0.43641 0.21008
 H244 H 0.47951 0.40576 0.31169
 C245 C 0.60715 0.53181 0.19468
 C246 C 0.57264 0.57550 0.21342
 C247 C 0.54440 0.59149 0.16043
 C248 C 0.56436 0.55638 0.11377
 O249 O 0.60341 0.52172 0.13434
 H250 H 0.56677 0.59061 0.26111
 H251 H 0.50895 0.61984 0.15804
 C252 C 0.09454 1.02746 0.71275
 C253 C 0.05655 1.06917 0.72726
 C254 C 0.03558 1.08747 0.67074
 C255 C 0.06175 1.05507 0.62529
 O256 O 0.09829 1.01950 0.65117
 H257 H 0.04476 1.08250 0.77428
 H258 H 0.00044 1.11568 0.66417
 C259 C -0.08803 0.49862 0.70790
 C260 C -0.04210 0.46649 0.72628
 C261 C -0.01631 0.44989 0.67204
 C262 C -0.04845 0.47205 0.62410
 O263 O -0.09214 0.50086 0.64584
 H264 H -0.03026 0.45460 0.77395
 H265 H 0.02302 0.42748 0.66800
 C266 C 0.37945 -0.02396 0.18810
 C267 C 0.34661 -0.05364 0.14710
 C268 C 0.38175 -0.07559 0.10454
 C269 C 0.43112 -0.04950 0.11285
 O270 O 0.43117 -0.01995 0.16618
 H271 H 0.30220 -0.06011 0.14887
 H272 H 0.37089 -0.10144 0.06622
 C273 C 0.28848 0.43660 0.02760
 C274 C 0.27613 0.49331 0.03196
 C275 C 0.32619 0.52021 0.03618
 C276 C 0.36669 0.47888 0.03349
 O277 O 0.34383 0.42829 0.02955
 H278 H 0.23584 0.51350 0.02627
 H279 H 0.33251 0.56516 0.03530
 C280 C -0.20121 0.92675 0.52918
 C281 C -0.20453 0.95675 0.58483
 C282 C -0.15271 0.97880 0.59341
 C283 C -0.12127 0.96098 0.54233
 O284 O -0.15069 0.93007 0.50329
 H285 H -0.23947 0.95983 0.61698
 H286 H -0.13954 1.00514 0.63208
 C287 C -0.19968 0.08162 0.96594
 C288 C -0.18767 0.06833 0.90365
 C289 C -0.13433 0.04870 0.90399
 C290 C -0.11765 0.05040 0.96640
 O291 O -0.15706 0.07020 1.00396
 H292 H -0.21466 0.07069 0.86289
 H293 H -0.11114 0.03264 0.86379
 C294 C 0.30534 0.56981 0.49993
 C295 C 0.29974 0.52415 0.53918
 C296 C 0.34641 0.49512 0.53312
 C297 C 0.38178 0.52746 0.49572
 O298 O 0.35600 0.57331 0.47376
 H299 H 0.26227 0.50981 0.56283
 H300 H 0.35303 0.45461 0.55539
 C301 C 0.20475 0.56657 0.47438
 C302 C 0.20939 0.51162 0.45398
 C303 C 0.15946 0.48879 0.46723
 C304 C 0.12534 0.53274 0.48528
 O305 O 0.15272 0.57976 0.49006
 H306 H 0.24623 0.48916 0.43797
 H307 H 0.14905 0.44482 0.46426
 C308 C 0.70030 0.05595 -0.01365
 C309 C 0.71083 -0.00120 -0.01556
 C310 C 0.66031 -0.02572 -0.00604
 C311 C 0.62268 0.01803 0.00156
 O312 O 0.64694 0.06732 -0.00288
 H313 H 0.75067 -0.02240 -0.02097
 H314 H 0.65166 -0.07027 -0.00616
 C315 C 0.70615 0.92204 0.47200
 C316 C 0.69928 0.93389 0.40815
 C317 C 0.64498 0.95019 0.40143
 C318 C 0.62203 0.94759 0.46128
 O319 O 0.65907 0.93190 0.50397
 H320 H 0.72891 0.92946 0.36982
 H321 H 0.62452 0.96263 0.35790
 C322 C 0.19771 0.41993 0.96729
 C323 C 0.18386 0.41753 0.90371
 C324 C 0.12910 0.43325 0.90024
 C325 C 0.11310 0.44393 0.96174
 O326 O 0.15457 0.43670 1.00207
 H327 H 0.20939 0.40277 0.86493
 H328 H 0.10355 0.43536 0.85815
 C329 C 0.00167 0.30656 0.42004
 C330 C 0.03210 0.30057 0.47526
 C331 C 0.01898 0.34530 0.51209
 C332 C -0.01601 0.37943 0.47667
 O333 O -0.02704 0.35530 0.42043
 H334 H 0.05859 0.26549 0.48872
 H335 H 0.03735 0.35441 0.55760
 C336 C 0.47113 -0.20285 -0.08793
 C337 C 0.44572 -0.21574 -0.03072
 C338 C 0.44420 -0.16731 0.00295
 C339 C 0.46380 -0.12620 -0.03707
 O340 O 0.48199 -0.14812 -0.09171
 H341 H 0.43579 -0.25709 -0.01256
 H342 H 0.43485 -0.16435 0.05274
 C343 C -0.01435 -0.20911 1.08547
 C344 C -0.05629 -0.21291 1.04101
 C345 C -0.05281 -0.16549 1.00532
 C346 C -0.00970 -0.13493 1.03084
 O347 O 0.01386 -0.16150 1.07954
 H348 H -0.08513 -0.24712 1.03470
 H349 H -0.08092 -0.15303 0.96769
 C350 C 0.48294 0.28603 0.58140
 C351 C 0.43934 0.28035 0.53932
 C352 C 0.44609 0.32136 0.49466
 C353 C 0.49316 0.35036 0.51251
 O354 O 0.51528 0.32861 0.56519
 H355 H 0.40781 0.24834 0.54008
 H356 H 0.41778 0.33142 0.45636
 C357 C 0.51558 1.19104 0.58270
 C358 C 0.55546 1.19711 0.53559
 C359 C 0.54722 1.15440 0.49471
 C360 C 0.50397 1.12324 0.51993
 O361 O 0.48435 1.14583 0.57341
 H362 H 0.58544 1.23062 0.53035
 H363 H 0.57291 1.14467 0.45386
 C364 C 0.01261 0.69241 1.08391
 C365 C 0.04782 0.69721 1.03216
 C366 C 0.03772 0.65186 0.99558
 C367 C -0.00187 0.62053 1.02768
 O368 O -0.01736 0.64543 1.08159
 H369 H 0.07590 0.73139 1.02122
 H370 H 0.05986 0.64097 0.95252
 C371 C 0.51941 0.70497 -0.08796
 C372 C 0.55794 0.71475 -0.04050
 C373 C 0.55882 0.66740 -0.00369
 C374 C 0.52201 0.63140 -0.03135
 O375 O 0.49760 0.65415 -0.08212
 H376 H 0.57987 0.75345 -0.03150
 H377 H 0.58208 0.66016 0.03924
 C378 C -0.01906 1.20568 0.41908
 C379 C -0.06158 1.20827 0.46317
 C380 C -0.05190 1.16584 0.50493
 C381 C -0.00547 1.13704 0.48254
 O382 O 0.01483 1.16179 0.43026
 H383 H -0.09470 1.23909 0.46552
 H384 H -0.07902 1.15419 0.54394
 C385 C 0.78061 0.64170 0.95976
 C386 C 0.82808 0.67289 0.97184
 C387 C 0.83850 0.70330 0.91821
 C388 C 0.79643 0.68928 0.87727
 O389 O 0.76143 0.65194 0.90237
 H390 H 0.85095 0.67467 1.01584
 H391 H 0.87001 0.73521 0.91174
 C392 C 0.27741 0.14588 0.45635
 C393 C 0.32210 0.18063 0.46782
 C394 C 0.33529 0.20436 0.41095
 C395 C 0.29728 0.18262 0.36895
 O396 O 0.26267 0.14693 0.39653
 H397 H 0.34188 0.18746 0.51289
 H398 H 0.36529 0.23738 0.40244
 C399 C 0.76080 0.37712 0.42624
 C400 C 0.76831 0.41985 0.38273
 C401 C 0.74889 0.39999 0.32782
 C402 C 0.72926 0.34625 0.34045
 O403 O 0.73646 0.33300 0.40080
 H404 H 0.78638 0.46087 0.38954
 H405 H 0.75761 0.41994 0.28300
 C406 C 0.21708 0.86036 0.95667
 C407 C 0.17221 0.82484 0.96850
 C408 C 0.16654 0.79347 0.91591
 C409 C 0.20910 0.81093 0.87695
 O410 O 0.23972 0.85128 0.90106
 H411 H 0.14861 0.82017 1.01206
 H412 H 0.13777 0.75926 0.90881
 C413 C 0.28068 0.85112 0.04386
 C414 C 0.31315 0.80902 0.01689
 C415 C 0.33201 0.77682 0.06624
 C416 C 0.31094 0.80199 0.11987
 O417 O 0.28082 0.84705 0.10567
 H418 H 0.31921 0.80051 -0.03294
 H419 H 0.35256 0.73632 0.06292
 C420 C 0.79304 0.33693 0.53275
 C421 C 0.84873 0.32034 0.53079
 C422 C 0.85790 0.28969 0.58552
 C423 C 0.80704 0.28971 0.61607
 O424 O 0.76868 0.31655 0.58327
 H425 H 0.87976 0.33243 0.49620
 H426 H 0.89692 0.27181 0.60196
 C427 C 0.22559 0.14486 0.55689
 C428 C 0.18219 0.18259 0.54663
 C429 C 0.16847 0.20310 0.60474
 C430 C 0.20505 0.17729 0.64619
 O431 O 0.23907 0.14189 0.61704
 H432 H 0.16319 0.19378 0.50184
 H433 H 0.13956 0.23713 0.61452
 C434 C 0.72292 0.64641 0.05535
 C435 C 0.68856 0.69051 0.03754
 C436 C 0.67465 0.71731 0.09234
 C437 C 0.70194 0.68783 0.13958
 O438 O 0.73035 0.64494 0.11681
 H439 H 0.67754 0.70310 -0.01013
 H440 H 0.65296 0.75718 0.09626
 C441 C 0.17194 0.53884 0.21798
 C442 C 0.20898 0.53120 0.16876
 C443 C 0.23355 0.58224 0.15967
 C444 C 0.21042 0.61760 0.20455
 O445 O 0.17334 0.59110 0.24014
 H446 H 0.21744 0.49265 0.14364
 H447 H 0.26633 0.59197 0.12608
 C448 C 0.66554 0.04687 0.71962
 C449 C 0.69018 0.04854 0.66065
 C450 C 0.71883 0.09740 0.65944
 C451 C 0.70969 0.12228 0.71781
 O452 O 0.67785 0.09142 0.75440
 H453 H 0.68733 0.01883 0.62253
 H454 H 0.74274 0.11362 0.61981
 C455 C 0.82400 0.05056 0.29346
 C456 C 0.78608 0.04769 0.34274
 C457 C 0.76272 0.10059 0.34721
 C458 C 0.78888 0.13267 0.30127
 O459 O 0.82635 0.10251 0.27013
 H460 H 0.77610 0.01144 0.37114
 H461 H 0.72876 0.11333 0.37803
 C462 C 0.32727 0.54738 0.74528
 C463 C 0.29075 0.55163 0.69522
 C464 C 0.25689 0.59407 0.70707
 C465 C 0.28197 0.62277 0.75510
 O466 O 0.32517 0.59388 0.78038
 H467 H 0.28462 0.52127 0.65894
 H468 H 0.22099 0.60527 0.67870
 C469 C 0.32456 0.44370 0.73352
 C470 C 0.26773 0.44797 0.74737
 C471 C 0.24550 0.39820 0.73843
 C472 C 0.28997 0.36200 0.73086
 O473 O 0.33853 0.38944 0.72638
 H474 H 0.24396 0.48285 0.76634
 H475 H 0.20187 0.38887 0.74670
 C476 C 0.82201 0.95395 0.23847
 C477 C 0.79999 0.95060 0.17833
 C478 C 0.78292 0.89642 0.17159
 C479 C 0.79504 0.86954 0.22805
 O480 O 0.81790 0.90455 0.26880
 H481 H 0.79932 0.98248 0.14196
 H482 H 0.76392 0.87850 0.13001
 C483 C 0.66828 0.95803 0.77729
 C484 C 0.70475 0.96800 0.82629
 C485 C 0.73394 0.91896 0.83425
 C486 C 0.71332 0.88320 0.78896
 O487 O 0.67398 0.90683 0.75465
 H488 H 0.70983 1.00671 0.85191
 H489 H 0.76673 0.91059 0.86818
 C490 C 0.16916 0.44988 0.28246
 C491 C 0.15200 0.42655 0.33901
 C492 C 0.17889 0.37697 0.34502
 C493 C 0.20824 0.37007 0.28939
 O494 O 0.20302 0.41448 0.25155
 H495 H 0.11589 0.43749 0.36648
 H496 H 0.17067 0.34595 0.38149
 C497 C 0.05188 0.25476 0.83606
 C498 C 0.04931 0.29246 0.78627
 C499 C 0.09509 0.28174 0.75026
 C500 C 0.12460 0.23954 0.78125
 O501 O 0.09796 0.22301 0.83349
 H502 H 0.01605 0.32204 0.77567
 H503 H 0.10743 0.30519 0.70849
 C504 C 0.55074 0.75043 0.33204
 C505 C 0.54484 0.78875 0.28303
 C506 C 0.59120 0.78297 0.24671
 C507 C 0.62375 0.74276 0.27659
 O508 O 0.59901 0.72269 0.32851
 H509 H 0.50960 0.81631 0.27387
 H510 H 0.60175 0.80827 0.20567
 C511 C 0.54574 0.27057 0.17444
 C512 C 0.53575 0.30493 0.22603
 C513 C 0.58449 0.30626 0.25979
 C514 C 0.62138 0.27354 0.22635
 O515 O 0.59782 0.25140 0.17506
 H516 H 0.49640 0.32439 0.23885
 H517 H 0.59248 0.32832 0.30338
 C518 C 0.05196 0.74096 0.68166
 C519 C 0.04626 0.70488 0.73279
 C520 C 0.08646 0.71958 0.77489
 C521 C 0.11760 0.76157 0.74608
 O522 O 0.09548 0.77505 0.68976
 H523 H 0.01373 0.67422 0.74050
 H524 H 0.09578 0.69747 0.81855
 C525 C 0.95288 0.76487 0.67956
 C526 C 0.95794 0.80098 0.73013
 C527 C 0.91480 0.78978 0.76965
 C528 C 0.88258 0.75009 0.73964
 O529 O 0.90629 0.73437 0.68470
 H530 H 0.99191 0.82931 0.73932
 H531 H 0.90541 0.81219 0.81289
 C532 C 0.45302 0.22749 0.17273
 C533 C 0.46128 0.18794 0.22015
 C534 C 0.41302 0.18722 0.25508
 C535 C 0.37814 0.22565 0.22659
 O536 O 0.40241 0.25040 0.17692
 H537 H 0.49922 0.16453 0.22975
 H538 H 0.40410 0.16187 0.29646
 C539 C 0.45559 0.71921 0.32989
 C540 C 0.46125 0.67482 0.28854
 C541 C 0.42075 0.68169 0.24406
 C542 C 0.39136 0.72940 0.26113
 O543 O 0.41318 0.75238 0.31299
 H544 H 0.49236 0.64199 0.29018
 H545 H 0.41071 0.65238 0.20691
 C546 C 0.95439 0.22770 0.83011
 C547 C 0.96230 0.19011 0.78144
 C548 C 0.92000 0.19918 0.73987
 C549 C 0.88734 0.24112 0.76595
 O550 O 0.90850 0.25864 0.82082
 H551 H 0.99723 0.16213 0.77526
 H552 H 0.91188 0.17517 0.69759
 C553 C 0.59403 0.96881 0.69920
 C554 C 0.55052 0.93437 0.71674
 C555 C 0.52877 0.91479 0.66173
 C556 C 0.55985 0.93929 0.61388
 O557 O 0.60010 0.97106 0.63721
 H558 H 0.53495 0.92680 0.76421
 H559 H 0.49017 0.89182 0.65715
 C560 C 0.10450 0.45828 1.19834
 C561 C 0.07162 0.41225 1.21309
 C562 C 0.04768 0.39664 1.15773
 C563 C 0.06695 0.43479 1.11365
 O564 O 0.10261 0.47080 1.13803
 H565 H 0.06327 0.39477 1.25955
 H566 H 0.01420 0.36678 1.15224
 C567 C -0.10471 0.03012 1.21354
 C568 C -0.06685 0.07237 1.22598
 C569 C -0.04372 0.08649 1.16904
 C570 C -0.06810 0.05121 1.12579
 O571 O -0.10536 0.01775 1.15291
 H572 H -0.05658 0.08967 1.27171
 H573 H -0.00861 0.11415 1.16140
 C574 C 0.41015 0.51206 0.70067
 C575 C 0.44993 0.55195 0.71572
 C576 C 0.48076 0.56060 0.66237
 C577 C 0.45761 0.52545 0.61872
 O578 O 0.41514 0.49582 0.64200
 H579 H 0.45584 0.57147 0.76125
 H580 H 0.51712 0.58695 0.65689
 C581 C 0.39790 0.47187 -0.19769
 C582 C 0.43517 0.42738 -0.20555
 C583 C 0.45686 0.41651 -0.14809
 C584 C 0.43293 0.45614 -0.10928
 O585 O 0.39755 0.49046 -0.13946
 H586 H 0.44539 0.40564 -0.24899
 H587 H 0.48988 0.38675 -0.13717
 C588 C -0.10306 0.97363 0.31062
 C589 C -0.06512 0.93165 0.29510
 C590 C -0.03960 0.91728 0.35036
 C591 C -0.06363 0.95168 0.39531
 O592 O -0.10282 0.98481 0.37125
 H593 H -0.05610 0.91509 0.24850
 H594 H -0.00353 0.89002 0.35572
 C595 C 0.09047 0.52552 0.28527
 C596 C 0.04320 0.55107 0.26046
 C597 C 0.01339 0.57003 0.31144
 C598 C 0.04504 0.55613 0.36365
 O599 O 0.09260 0.53135 0.34713
 H600 H 0.03014 0.55197 0.21149
 H601 H -0.02928 0.58530 0.31101
 C602 C 0.59144 0.02944 -0.20733
 C603 C 0.55100 0.06801 -0.22452
 C604 C 0.52547 0.08317 -0.16947
 C605 C 0.55226 0.05252 -0.12297
 O606 O 0.59291 0.02084 -0.14603
 H607 H 0.53979 0.08028 -0.27222
 H608 H 0.48742 0.10748 -0.16475
 C609 C 0.70393 0.56908 -0.01659
 C610 C 0.70850 0.53214 -0.06646
 C611 C 0.65663 0.50850 -0.07218
 C612 C 0.62389 0.53224 -0.02521
 O613 O 0.65271 0.56871 0.00834
 H614 H 0.74514 0.52361 -0.09512
 H615 H 0.64423 0.47739 -0.10639
 C616 C 0.20333 1.07345 0.47998
 C617 C 0.20272 1.04483 0.42338
 C618 C 0.14888 1.02729 0.41679
 C619 C 0.12068 1.04567 0.47026
 O620 O 0.15386 1.07258 0.50871
 H621 H 0.23688 1.03876 0.39031
 H622 H 0.13243 1.00277 0.37824
 C623 C 0.19589 -0.08027 1.04443
 C624 C 0.18263 -0.08496 1.10830
 C625 C 0.12821 -0.06805 1.11343
 C626 C 0.11209 -0.05413 1.05284
 O627 O 0.15304 -0.05999 1.01179
 H628 H 0.20767 -0.09975 1.14723
 H629 H 0.10316 -0.06655 1.15619
 C630 C 0.70326 0.38845 0.51615
 C631 C 0.67220 0.33983 0.51323
 C632 C 0.62056 0.35638 0.49879
 C633 C 0.62049 0.41424 0.50052
 O634 O 0.67143 0.43407 0.50871
 H635 H 0.68740 0.29704 0.50932
 H636 H 0.58902 0.32816 0.48262
 C637 C -0.20149 0.43634 0.50911
 C638 C -0.21858 0.48946 0.52712
 C639 C -0.17150 0.52130 0.52272
 C640 C -0.13012 0.48507 0.50179
 O641 O -0.14833 0.43440 0.49337
 H642 H -0.25957 0.50377 0.54158
 H643 H -0.16755 0.56525 0.53452
 C644 C 0.28389 -0.05957 -0.01782
 C645 C 0.27245 -0.00255 -0.01334
 C646 C 0.32269 0.02386 -0.01719
 C647 C 0.36200 -0.01817 -0.02392
 O648 O 0.33832 -0.06836 -0.02678
 H649 H 0.23299 0.01750 -0.00212
 H650 H 0.33013 0.06816 -0.01019
 C651 C 0.29887 1.06988 0.52888
 C652 C 0.30411 1.04651 0.58858
 C653 C 0.35706 1.02567 0.59120
 C654 C 0.38070 1.03710 0.53281
 O655 O 0.34534 1.06295 0.49482
 H656 H 0.27451 1.04697 0.62711
 H657 H 0.37631 1.00470 0.63124
 C658 C -0.20368 0.56886 1.04054
 C659 C -0.19674 0.55578 1.10434
 C660 C -0.14445 0.53350 1.10979
 C661 C -0.12274 0.53444 1.04955
 O662 O -0.15849 0.55467 1.00777
 H663 H -0.22476 0.56230 1.14375
 H664 H -0.12432 0.51892 1.15269
 C665 C -0.00763 0.70655 0.58595
 C666 C -0.04325 0.71662 0.53565
 C667 C -0.02964 0.67880 0.49022
 C668 C 0.01077 0.64392 0.51612
 O669 O 0.02499 0.66188 0.57421
 H670 H -0.07275 0.75090 0.53080
 H671 H -0.05153 0.67347 0.44595
 C672 C 0.52178 0.20304 0.08439
 C673 C 0.56143 0.21159 0.03740
 C674 C 0.56282 0.16349 0.00196
 C675 C 0.52464 0.12794 0.02961
 O676 O 0.49943 0.15215 0.07929
 H677 H 0.58471 0.24961 0.02836
 H678 H 0.58787 0.15569 -0.03984
 C679 C 0.01464 0.19448 0.92425
 C680 C 0.05427 0.20091 0.97115
 C681 C 0.04598 0.15823 1.01284
 C682 C 0.00269 0.12734 0.98836
 O683 O -0.01672 0.14964 0.93467
 H684 H 0.08423 0.23445 0.97550
 H685 H 0.07153 0.14830 1.05361
 C686 C 0.51692 0.68759 0.42248
 C687 C 0.55595 0.69270 0.47013
 C688 C 0.55130 0.64545 0.50658
 C689 C 0.50998 0.61379 0.47912
 O690 O 0.48909 0.63953 0.42795
 H691 H 0.58398 0.72743 0.47775
 H692 H 0.57765 0.63378 0.54610
 C693 C 0.48690 0.78602 0.41823
 C694 C 0.44723 0.78240 0.46565
 C695 C 0.45377 0.82902 0.50164
 C696 C 0.49632 0.85960 0.47373
 O697 O 0.51653 0.83326 0.42277
 H698 H 0.41840 0.74837 0.47431
 H699 H 0.42800 0.84087 0.54169
 C700 C -0.01596 0.28996 0.92053
 C701 C -0.05788 0.28407 0.96532
 C702 C -0.05102 0.32678 1.00655
 C703 C -0.00673 0.35773 0.98331
 O704 O 0.01497 0.33499 0.93120
 H705 H -0.08792 0.25045 0.96922
 H706 H -0.07827 0.33679 1.04601
 C707 C 0.47779 0.29791 0.08678
 C708 C 0.43916 0.29008 0.03923
 C709 C 0.43567 0.33999 0.00733
 C710 C 0.47107 0.37596 0.03766
 O711 O 0.49724 0.35026 0.08572
 H712 H 0.41800 0.25154 0.02750
 H713 H 0.41148 0.34866 -0.03424
 C714 C 0.01738 0.80404 0.59358
 C715 C 0.05852 0.80070 0.54755
 C716 C 0.04871 0.84392 0.50718
 C717 C 0.00386 0.87340 0.53220
 O718 O -0.01558 0.84875 0.58472
 H719 H 0.08942 0.76777 0.54161
 H720 H 0.07443 0.85508 0.46680
 C721 C 0.22422 0.35199 0.04724
 C722 C 0.18215 0.31424 0.03371
 C723 C 0.16777 0.28990 0.08985
 C724 C 0.20244 0.31344 0.13414
 O725 O 0.23621 0.35164 0.10829
 H726 H 0.16421 0.30558 -0.01213
 H727 H 0.13938 0.25515 0.09650
 C728 C 0.72589 0.85316 0.55350
 C729 C 0.68211 0.81691 0.54252
 C730 C 0.66740 0.79647 0.60042
 C731 C 0.70371 0.82106 0.64248
 O732 O 0.73865 0.85560 0.61384
 H733 H 0.66387 0.80630 0.49738
 H734 H 0.63795 0.76312 0.60981
 C735 C 0.24141 0.63771 0.54839
 C736 C 0.19442 0.67112 0.54967
 C737 C 0.20908 0.71429 0.58402
 C738 C 0.25853 0.69994 0.61656
 O739 O 0.27970 0.65340 0.59112
 H740 H 0.15974 0.67306 0.51712
 H741 H 0.18199 0.75066 0.58770
 C742 C 0.75192 0.11461 0.06075
 C743 C 0.74196 0.07568 0.10773
 C744 C 0.75710 0.10006 0.16165
 C745 C 0.77666 0.15306 0.14578
 O746 O 0.77396 0.16147 0.08345
 H747 H 0.72256 0.03500 0.10428
 H748 H 0.74465 0.08355 0.20707
 C749 C 0.72192 0.15029 0.95146
 C750 C 0.69929 0.20024 0.97277
 C751 C 0.68673 0.23028 0.91913
 C752 C 0.70234 0.19653 0.86886
 O753 O 0.72205 0.14781 0.88900
 H754 H 0.69427 0.21407 1.02116
 H755 H 0.67375 0.27388 0.91716
 C756 C 0.25712 0.64670 0.43217
 C757 C 0.25394 0.70371 0.44344
 C758 C 0.21135 0.72233 0.40693
 C759 C 0.20921 0.68337 0.35844
 O760 O 0.23219 0.63526 0.37760
 H761 H 0.27226 0.72686 0.48191
 H762 H 0.19767 0.76578 0.40572
 C763 C 0.78409 0.84791 0.45826
 C764 C 0.82463 0.80930 0.47621
 C765 C 0.83835 0.78054 0.42239
 C766 C 0.80562 0.80418 0.37562
 O767 O 0.77353 0.84486 0.39764
 H768 H 0.83991 0.80148 0.52360
 H769 H 0.86448 0.74340 0.41911
 C770 C 0.28283 0.36050 0.94846
 C771 C 0.32157 0.38606 0.91009
 C772 C 0.33957 0.34683 0.86863
 C773 C 0.30553 0.30214 0.87816
 O774 O 0.27143 0.30964 0.92758
 H775 H 0.33123 0.42990 0.91006
 H776 H 0.36719 0.35244 0.82917
 C777 C 0.83272 0.45168 0.74318
 C778 C 0.80386 0.44699 0.68706
 C779 C 0.77812 0.39898 0.68928
 C780 C 0.79868 0.37040 0.74138
 O781 O 0.83229 0.40324 0.77609
 H782 H 0.79815 0.47840 0.65055
 H783 H 0.74700 0.38768 0.65519
 C784 C 0.33715 0.93929 0.28391
 C785 C 0.36366 0.91134 0.33311
 C786 C 0.34597 0.85760 0.33169
 C787 C 0.31234 0.85399 0.27932
 O788 O 0.30448 0.90375 0.25272
 H789 H 0.39721 0.92506 0.36225
 H790 H 0.35874 0.82454 0.36381
 C791 C 0.16827 0.95262 0.73587
 C792 C 0.20211 0.95773 0.68342
 C793 C 0.23290 0.90956 0.68238
 C794 C 0.21555 0.87871 0.73466
 O795 O 0.17672 0.90488 0.76698
 H796 H 0.20314 0.99187 0.64968
 H797 H 0.26296 0.89752 0.64644
 C798 C 0.67372 0.44940 0.20382
 C799 C 0.70831 0.45553 0.15176
 C800 C 0.73307 0.40387 0.14246
 C801 C 0.71067 0.36929 0.18847
 O802 O 0.67404 0.39673 0.22418
 H803 H 0.71439 0.49300 0.12394
 H804 H 0.76520 0.39349 0.10820
 C805 C 0.67966 0.53805 0.27148
 C806 C 0.69209 0.54093 0.33532
 C807 C 0.71299 0.59364 0.34456
 C808 C 0.71202 0.61988 0.28613
 O809 O 0.69312 0.58595 0.24201
 H810 H 0.68500 0.50986 0.37187
 H811 H 0.72628 0.61128 0.38907
 C812 C 0.16722 0.04133 0.79118
 C813 C 0.20363 0.03288 0.84089
 C814 C 0.23235 0.08189 0.84559
 C815 C 0.21170 0.11607 0.79792
 O816 O 0.17262 0.09159 0.76511
 H817 H 0.20958 -0.00502 0.86865
 H818 H 0.26546 0.09107 0.87854
 C819 C 0.31297 0.03872 0.24203
 C820 C 0.25960 0.02915 0.22053
 C821 C 0.23684 0.08114 0.21123
 C822 C 0.27770 0.11909 0.22784
 O823 O 0.32365 0.09328 0.24650
 H824 H 0.23937 -0.01064 0.21290
 H825 H 0.19442 0.09024 0.19675
 C826 C 0.81848 0.55374 0.73525
 C827 C 0.76185 0.54520 0.74719
 C828 C 0.73679 0.59514 0.74247
 C829 C 0.77937 0.63281 0.73340
 O830 O 0.82892 0.60816 0.72793
 H831 H 0.74101 0.50737 0.76286
 H832 H 0.69312 0.60347 0.75241
 C833 C 0.95579 0.73024 0.17732
 C834 C 0.96347 0.69549 0.22914
 C835 C 0.91918 0.70517 0.26814
 C836 C 0.88598 0.74427 0.23724
 O837 O 0.90849 0.75966 0.18205
 H838 H 0.99883 0.66825 0.23833
 H839 H 0.91018 0.68304 0.31191
 C840 C 0.45525 0.22579 0.67614
 C841 C 0.46527 0.19190 0.72815
 C842 C 0.42199 0.20037 0.76890
 C843 C 0.38700 0.23830 0.73924
 O844 O 0.40738 0.25403 0.68286
 H845 H 0.50228 0.16730 0.73696
 H846 H 0.41503 0.17872 0.81342
 C847 C 0.45198 0.72923 0.82222
 C848 C 0.46148 0.68915 0.77601
 C849 C 0.41422 0.68836 0.73927
 C850 C 0.37929 0.72831 0.76488
 O851 O 0.40243 0.75309 0.81472
 H852 H 0.49921 0.66466 0.76903
 H853 H 0.40569 0.66133 0.69956
 C854 C 0.94653 0.26418 0.32501
 C855 C 0.95398 0.29740 0.27171
 C856 C 0.91538 0.28055 0.22881
 C857 C 0.88283 0.24066 0.25921
 O858 O 0.90306 0.22984 0.31733
 H859 H 0.98662 0.32772 0.26357
 H860 H 0.90749 0.30048 0.18347
 C861 C 0.04568 0.24247 0.33334
 C862 C 0.04267 0.20244 0.28638
 C863 C 0.08640 0.21180 0.24730
 C864 C 0.11717 0.25427 0.27448
 O865 O 0.09178 0.27354 0.32693
 H866 H 0.00964 0.17244 0.27901
 H867 H 0.09711 0.18652 0.20653
 C868 C 0.54331 0.77487 0.82689
 C869 C 0.53500 0.80740 0.77326
 C870 C 0.58556 0.80958 0.74328
 C871 C 0.62155 0.77983 0.78113
 O872 O 0.59603 0.75811 0.83140
 H873 H 0.49579 0.82429 0.75613
 H874 H 0.59508 0.82938 0.69852
 C875 C 0.55173 0.25620 0.66725
 C876 C 0.54816 0.29771 0.71247
 C877 C 0.59403 0.29119 0.74940
 C878 C 0.62437 0.24706 0.72388
 O879 O 0.59842 0.22565 0.67378
 H880 H 0.51427 0.32734 0.71957
 H881 H 0.60562 0.31806 0.78826
 C882 C 0.05374 0.75591 0.16824
 C883 C 0.05242 0.79700 0.21415
 C884 C 0.10004 0.79023 0.24785
 C885 C 0.12877 0.74627 0.21989
 O886 O 0.10048 0.72522 0.17131
 H887 H 0.01925 0.82704 0.22330
 H888 H 0.11375 0.81676 0.28611
   
