data_POSCAR
  _audit_creation_date              2014-09-24
  _audit_creation_method            'ToBaCCo'
  _symmetry_space_group_name_H-M    'P1'
  _symmetry_Int_Tables_number       1
  _symmetry_cell_setting            triclinic
  loop_
  _symmetry_equiv_pos_as_xyz
 x,y,z
_cell_length_a 49.3986
_cell_length_b 49.4009
_cell_length_c 40.1345
_cell_angle_alpha 89.956500
_cell_angle_beta 89.964700
_cell_angle_gamma 88.618000
loop_
  _atom_site_label
  _atom_site_type_symbol
  _atom_site_fract_x
  _atom_site_fract_y
  _atom_site_fract_z
O1 O 0.00170 0.32083 -0.04221
 O2 O -0.04971 0.32077 0.02484
 O3 O 0.00327 0.32467 0.02272
 O4 O -0.05122 0.31728 -0.03955
 O5 O -0.04670 0.27274 -0.03560
 O6 O 0.00739 0.28009 0.02611
 O7 O -0.04504 0.27622 0.02830
 O8 O 0.00571 0.27626 -0.03826
 Cu9 Cu -0.02433 0.32544 -0.00892
 Cu10 Cu -0.01913 0.27188 -0.00448
 C11 C 0.01243 0.29843 -0.05139
 C12 C -0.05636 0.29829 0.03740
 C13 C 0.01462 0.30351 0.03475
 C14 C -0.05842 0.29367 -0.04759
 O15 O 0.49339 0.80456 0.52486
 O16 O 0.54495 0.79714 0.45838
 O17 O 0.49201 0.80152 0.45991
 O18 O 0.54640 0.80099 0.52300
 O19 O 0.54407 0.75643 0.52649
 O20 O 0.48991 0.75697 0.46378
 O21 O 0.54247 0.75261 0.46226
 O22 O 0.49143 0.75998 0.52832
 Cu23 Cu 0.51937 0.80558 0.49117
 Cu24 Cu 0.51671 0.75204 0.49560
 C25 C 0.48365 0.78339 0.53768
 C26 C 0.55255 0.77352 0.44937
 C27 C 0.48173 0.77929 0.45132
 C28 C 0.55458 0.77852 0.53512
 O29 O 0.99767 0.68048 -0.04358
 O30 O 1.04918 0.68009 0.02328
 O31 O 0.99620 0.67628 0.02133
 O32 O 1.05060 0.68399 -0.04109
 O33 O 1.04612 0.72850 -0.03684
 O34 O 0.99213 0.72085 0.02504
 O35 O 1.04458 0.72464 0.02706
 O36 O 0.99369 0.72503 -0.03931
 Cu37 Cu 1.02374 0.67566 -0.01042
 Cu38 Cu 1.01861 0.72920 -0.00560
 C39 C 0.98692 0.70293 -0.05256
 C40 C 1.05587 0.70250 0.03597
 C41 C 0.98490 0.69739 0.03355
 C42 C 1.05781 0.70763 -0.04901
 O43 O 0.50664 0.19465 0.52424
 O44 O 0.45522 0.20206 0.45767
 O45 O 0.50817 0.19783 0.45931
 O46 O 0.45363 0.19808 0.52229
 O47 O 0.45584 0.24264 0.52584
 O48 O 0.51012 0.24239 0.46323
 O49 O 0.45756 0.24659 0.46161
 O50 O 0.50847 0.23923 0.52775
 Cu51 Cu 0.48075 0.19362 0.49049
 Cu52 Cu 0.48325 0.24717 0.49500
 C53 C 0.51629 0.21582 0.53710
 C54 C 0.44757 0.22568 0.44868
 C55 C 0.51840 0.22011 0.45077
 C56 C 0.44538 0.22051 0.53443
 O57 O 0.70248 -0.04500 0.04211
 O58 O 0.69551 0.00657 -0.02445
 O59 O 0.69868 -0.04645 -0.02253
 O60 O 0.69843 0.00797 0.04049
 O61 O 0.74301 0.00976 0.03672
 O62 O 0.74327 -0.04441 -0.02591
 O63 O 0.74011 0.00822 -0.02780
 O64 O 0.74704 -0.04282 0.03833
 Cu65 Cu 0.69424 -0.01938 0.00927
 Cu66 Cu 0.74782 -0.01708 0.00496
 C67 C 0.72605 -0.05275 0.05118
 C68 C 0.71676 0.01616 -0.03724
 C69 C 0.72112 -0.05476 -0.03459
 C70 C 0.72072 0.01811 0.04910
 O71 O 0.17919 0.54954 0.47582
 O72 O 0.17941 0.49815 0.54288
 O73 O 0.18264 0.55111 0.54022
 O74 O 0.17572 0.49654 0.47795
 O75 O 0.22033 0.49273 0.47466
 O76 O 0.22721 0.54689 0.53639
 O77 O 0.22400 0.49444 0.53904
 O78 O 0.22378 0.54519 0.47246
 Cu79 Cu 0.17468 0.52415 0.50959
 Cu80 Cu 0.22828 0.51932 0.50527
 C81 C 0.20164 0.55633 0.46330
 C82 C 0.20185 0.48756 0.55210
 C83 C 0.20619 0.55848 0.54833
 C84 C 0.19697 0.48535 0.46596
 O85 O 0.30369 0.99376 -0.02579
 O86 O 0.29701 1.04537 0.04068
 O87 O 0.30115 0.99241 0.03919
 O88 O 0.30044 1.04678 -0.02399
 O89 O 0.25584 1.04467 -0.02692
 O90 O 0.25655 0.99054 0.03589
 O91 O 0.25243 1.04312 0.03736
 O92 O 0.25907 0.99203 -0.02868
 Cu93 Cu 0.30510 1.01974 0.00784
 Cu94 Cu 0.25152 1.01735 0.00409
 C95 C 0.28238 0.98413 -0.03833
 C96 C 0.27348 1.05309 0.04997
 C97 C 0.27893 0.98224 0.04807
 C98 C 0.27793 1.05506 -0.03586
 O99 O 0.82135 0.50148 0.54336
 O100 O 0.82155 0.45024 0.47623
 O101 O 0.82514 0.50322 0.47843
 O102 O 0.81798 0.44854 0.54062
 O103 O 0.77342 0.45288 0.53674
 O104 O 0.78054 0.50715 0.47510
 O105 O 0.77697 0.45470 0.47283
 O106 O 0.77676 0.50531 0.53947
 Cu107 Cu 0.82606 0.47555 0.51003
 Cu108 Cu 0.77247 0.48052 0.50566
 C109 C 0.79891 0.51210 0.55257
 C110 C 0.79910 0.44353 0.46368
 C111 C 0.80393 0.51449 0.46643
 C112 C 0.79439 0.44122 0.54869
 C113 C 0.19764 0.24224 0.17854
 C114 C 0.21857 0.22874 0.19545
 C115 C 0.22986 0.24035 0.22386
 C116 C 0.22131 0.26645 0.23482
 C117 C 0.20034 0.27997 0.21681
 C118 C 0.18824 0.26759 0.18936
 C119 C 0.23426 0.27935 0.26461
 C120 C 0.22076 0.30026 0.28275
 C121 C 0.23322 0.31232 0.31020
 C122 C 0.25861 0.30292 0.32086
 C123 C 0.27207 0.28204 0.30382
 C124 C 0.26040 0.27081 0.27542
 H125 H 0.18860 0.23295 0.15686
 H126 H 0.24515 0.22868 0.23717
 H127 H 0.19333 0.30011 0.22358
 H128 H 0.20059 0.30726 0.27609
 H129 H 0.26795 0.31190 0.34255
 H130 H 0.27204 0.25556 0.26202
 C131 C 0.80251 0.75798 0.17903
 C132 C 0.78163 0.77142 0.19611
 C133 C 0.77042 0.75971 0.22455
 C134 C 0.77900 0.73358 0.23537
 C135 C 0.79992 0.72012 0.21720
 C136 C 0.81193 0.73259 0.18970
 C137 C 0.76612 0.72059 0.26518
 C138 C 0.77972 0.69971 0.28328
 C139 C 0.76734 0.68758 0.31076
 C140 C 0.74192 0.69687 0.32150
 C141 C 0.72836 0.71771 0.30449
 C142 C 0.73997 0.72902 0.27605
 H143 H 0.81147 0.76733 0.15732
 H144 H 0.75516 0.77133 0.23798
 H145 H 0.80693 0.69995 0.22388
 H146 H 0.79991 0.69280 0.27655
 H147 H 0.73263 0.68782 0.34321
 H148 H 0.72826 0.74425 0.26268
 C149 C 0.76928 0.21338 0.17479
 C150 C 0.77690 0.23878 0.18605
 C151 C 0.76520 0.24976 0.21489
 C152 C 0.74655 0.23486 0.23380
 C153 C 0.73931 0.20900 0.22222
 C154 C 0.75034 0.19859 0.19257
 C155 C 0.73515 0.24618 0.26555
 C156 C 0.70926 0.23892 0.27709
 C157 C 0.69882 0.24983 0.30679
 C158 C 0.71361 0.26867 0.32466
 C159 C 0.73904 0.27631 0.31345
 C160 C 0.75004 0.26473 0.28456
 H161 H 0.77827 0.20500 0.15226
 H162 H 0.77082 0.26990 0.22234
 H163 H 0.72550 0.19670 0.23625
 H164 H 0.69697 0.22517 0.26300
 H165 H 0.70522 0.27758 0.34724
 H166 H 0.77020 0.27035 0.27716
 C167 C 0.23147 0.78702 0.17447
 C168 C 0.22384 0.76160 0.18571
 C169 C 0.23553 0.75058 0.21454
 C170 C 0.25416 0.76545 0.23346
 C171 C 0.26141 0.79132 0.22189
 C172 C 0.25039 0.80178 0.19225
 C173 C 0.26553 0.75407 0.26522
 C174 C 0.29139 0.76133 0.27679
 C175 C 0.30179 0.75036 0.30649
 C176 C 0.28698 0.73147 0.32432
 C177 C 0.26158 0.72383 0.31307
 C178 C 0.25062 0.73547 0.28419
 H179 H 0.22249 0.79544 0.15196
 H180 H 0.22990 0.73042 0.22197
 H181 H 0.27521 0.80361 0.23593
 H182 H 0.30370 0.77512 0.26273
 H183 H 0.29535 0.72252 0.34689
 H184 H 0.23047 0.72985 0.27677
 C185 C 0.70492 0.25929 0.67526
 C186 C 0.69048 0.23967 0.69233
 C187 C 0.70076 0.22862 0.72208
 C188 C 0.72628 0.23641 0.73437
 C189 C 0.74089 0.25563 0.71591
 C190 C 0.72991 0.26748 0.68715
 C191 C 0.73757 0.22503 0.76633
 C192 C 0.75670 0.23964 0.78488
 C193 C 0.76845 0.22864 0.81367
 C194 C 0.76026 0.20362 0.82552
 C195 C 0.74073 0.18917 0.80837
 C196 C 0.72977 0.19948 0.77857
 H197 H 0.69657 0.26836 0.65274
 H198 H 0.68858 0.21437 0.73555
 H199 H 0.76084 0.26166 0.72356
 H200 H 0.76272 0.25962 0.77728
 H201 H 0.76925 0.19527 0.84807
 H202 H 0.71559 0.18730 0.76503
 C203 C 0.29466 0.74035 0.67550
 C204 C 0.30898 0.76003 0.69253
 C205 C 0.29849 0.77122 0.72210
 C206 C 0.27288 0.76350 0.73422
 C207 C 0.25840 0.74420 0.71578
 C208 C 0.26958 0.73221 0.68723
 C209 C 0.26134 0.77504 0.76596
 C210 C 0.24202 0.76058 0.78443
 C211 C 0.23007 0.77173 0.81302
 C212 C 0.23827 0.79676 0.82478
 C213 C 0.25798 0.81108 0.80772
 C214 C 0.26913 0.80062 0.77810
 H215 H 0.30315 0.73119 0.65313
 H216 H 0.31059 0.78553 0.73556
 H217 H 0.23839 0.73821 0.72329
 H218 H 0.23599 0.74060 0.77692
 H219 H 0.22914 0.80522 0.84719
 H220 H 0.28348 0.81270 0.76464
 C221 C 0.26522 0.29532 0.67902
 C222 C 0.24479 0.30919 0.69643
 C223 C 0.23324 0.29752 0.72467
 C224 C 0.24115 0.27110 0.73500
 C225 C 0.26154 0.25718 0.71654
 C226 C 0.27384 0.26952 0.68920
 C227 C 0.22819 0.25824 0.76469
 C228 C 0.24196 0.23772 0.78311
 C229 C 0.22955 0.22554 0.81047
 C230 C 0.20384 0.23439 0.82071
 C231 C 0.19012 0.25494 0.80334
 C232 C 0.20185 0.26639 0.77507
 H233 H 0.27444 0.30463 0.65745
 H234 H 0.21827 0.30931 0.73841
 H235 H 0.26791 0.23674 0.72295
 H236 H 0.26234 0.23118 0.77665
 H237 H 0.19449 0.22524 0.84231
 H238 H 0.19017 0.28147 0.76137
 C239 C 0.73504 0.70389 0.67956
 C240 C 0.75556 0.69013 0.69695
 C241 C 0.76708 0.70189 0.72512
 C242 C 0.75902 0.72826 0.73540
 C243 C 0.73854 0.74207 0.71696
 C244 C 0.72628 0.72964 0.68968
 C245 C 0.77190 0.74120 0.76503
 C246 C 0.75798 0.76159 0.78347
 C247 C 0.77031 0.77387 0.81079
 C248 C 0.79609 0.76524 0.82096
 C249 C 0.80998 0.74480 0.80357
 C250 C 0.79831 0.73326 0.77535
 H251 H 0.72584 0.69451 0.65804
 H252 H 0.78213 0.69019 0.73884
 H253 H 0.73206 0.76248 0.72333
 H254 H 0.73754 0.76797 0.77707
 H255 H 0.80539 0.77446 0.84251
 H256 H 0.81009 0.71827 0.76164
 C257 C 0.26602 0.15858 0.12232
 C258 C 0.27936 0.13213 0.13606
 C259 C 0.25955 0.11571 0.11514
 C260 C 0.24636 0.14182 0.10116
 C261 C 0.24556 0.15829 0.15118
 C262 C 0.22583 0.14182 0.13022
 C263 C 0.25875 0.13224 0.16532
 C264 C 0.23908 0.11539 0.14399
 C265 C 0.26615 0.09260 0.09349
 C266 C 0.27025 0.07421 0.07428
 C267 C 0.23684 0.18267 0.16942
 C268 C 0.22886 0.20335 0.18242
 H269 H 0.27701 0.17660 0.11359
 H270 H 0.30146 0.12788 0.13821
 H271 H 0.24133 0.14557 0.07457
 H272 H 0.20373 0.14602 0.12799
 H273 H 0.26373 0.12859 0.19193
 H274 H 0.22809 0.09737 0.15268
 C275 C 0.76260 0.60838 0.62513
 C276 C 0.78871 0.60374 0.60453
 C277 C 0.79114 0.57484 0.61855
 C278 C 0.76506 0.57921 0.63895
 C279 C 0.77982 0.61823 0.65438
 C280 C 0.78222 0.58938 0.66855
 C281 C 0.80591 0.61390 0.63399
 C282 C 0.80846 0.58457 0.64778
 C283 C 0.79593 0.55144 0.59681
 C284 C 0.79822 0.53299 0.57732
 C285 C 0.77231 0.64312 0.67224
 C286 C 0.76510 0.66425 0.68472
 H287 H 0.74366 0.61838 0.61598
 H288 H 0.79143 0.60944 0.57799
 H289 H 0.74831 0.56470 0.64076
 H290 H 0.77946 0.58378 0.69510
 H291 H 0.82262 0.62844 0.63218
 H292 H 0.82739 0.57449 0.65681
 C293 C 0.72668 0.84613 0.13543
 C294 C 0.72567 0.87580 0.14818
 C295 C 0.74028 0.88460 0.11629
 C296 C 0.74115 0.85535 0.10328
 C297 C 0.75443 0.84197 0.15220
 C298 C 0.76895 0.85088 0.12030
 C299 C 0.75359 0.87119 0.16532
 C300 C 0.76802 0.88040 0.13307
 C301 C 0.73357 0.90774 0.09470
 C302 C 0.72938 0.92614 0.07550
 C303 C 0.76325 0.81756 0.17033
 C304 C 0.77129 0.79684 0.18322
 H305 H 0.70977 0.83177 0.13662
 H306 H 0.70777 0.88632 0.15939
 H307 H 0.73597 0.84904 0.07757
 H308 H 0.78685 0.84042 0.10898
 H309 H 0.75881 0.87742 0.19105
 H310 H 0.78496 0.89473 0.13188
 C311 C 0.23816 0.39118 0.62469
 C312 C 0.21217 0.39581 0.60390
 C313 C 0.20958 0.42466 0.61799
 C314 C 0.23555 0.42030 0.63857
 C315 C 0.22080 0.38120 0.65378
 C316 C 0.21824 0.41001 0.66801
 C317 C 0.19482 0.38553 0.63321
 C318 C 0.19211 0.41480 0.64705
 C319 C 0.20482 0.44812 0.59627
 C320 C 0.20255 0.46661 0.57682
 C321 C 0.22824 0.35627 0.67165
 C322 C 0.23536 0.33511 0.68415
 H323 H 0.25718 0.38124 0.61566
 H324 H 0.20962 0.39017 0.57733
 H325 H 0.25225 0.43485 0.64054
 H326 H 0.22083 0.41554 0.69460
 H327 H 0.17815 0.37094 0.63123
 H328 H 0.17311 0.42482 0.65597
 C329 C 0.83867 0.29703 0.11032
 C330 C 0.86609 0.30630 0.12480
 C331 C 0.88103 0.28810 0.09941
 C332 C 0.85403 0.27900 0.08463
 C333 C 0.83914 0.27312 0.13484
 C334 C 0.85417 0.25505 0.10940
 C335 C 0.86611 0.28221 0.14970
 C336 C 0.88140 0.26421 0.12394
 C337 C 0.90430 0.29434 0.07842
 C338 C 0.92312 0.29726 0.05977
 C339 C 0.81620 0.26289 0.15374
 C340 C 0.79790 0.25273 0.16869
 H341 H 0.82082 0.31039 0.10494
 H342 H 0.87131 0.32746 0.13090
 H343 H 0.84930 0.27775 0.05765
 H344 H 0.84905 0.23388 0.10320
 H345 H 0.87078 0.28342 0.17670
 H346 H 0.89921 0.25079 0.12937
 C347 C 0.38444 0.80355 0.62315
 C348 C 0.41440 0.80332 0.63489
 C349 C 0.42184 0.78426 0.60586
 C350 C 0.39231 0.78457 0.59384
 C351 C 0.37955 0.77856 0.64498
 C352 C 0.38712 0.75960 0.61591
 C353 C 0.40905 0.77823 0.65712
 C354 C 0.41689 0.75930 0.62770
 C355 C 0.44471 0.78587 0.58271
 C356 C 0.46285 0.78560 0.56259
 C357 C 0.35520 0.77378 0.66482
 C358 C 0.33445 0.76830 0.67885
 H359 H 0.37084 0.82172 0.62154
 H360 H 0.42591 0.82134 0.64241
 H361 H 0.38561 0.78717 0.56761
 H362 H 0.37570 0.74154 0.60826
 H363 H 0.41566 0.77559 0.68337
 H364 H 0.43045 0.74109 0.62933
 C365 C 0.13213 0.72855 0.14685
 C366 C 0.12341 0.74117 0.11313
 C367 C 0.11970 0.71258 0.09906
 C368 C 0.12808 0.69977 0.13251
 C369 C 0.16158 0.72745 0.13449
 C370 C 0.15800 0.69882 0.12049
 C371 C 0.15310 0.74017 0.10104
 C372 C 0.14916 0.71148 0.08672
 C373 C 0.09641 0.70638 0.07813
 C374 C 0.07756 0.70345 0.05958
 C375 C 0.18453 0.73760 0.15340
 C376 C 0.20284 0.74770 0.16836
 H377 H 0.12538 0.73569 0.17180
 H378 H 0.10896 0.75854 0.10994
 H379 H 0.11750 0.68308 0.14519
 H380 H 0.17253 0.68153 0.12375
 H381 H 0.16360 0.75687 0.08826
 H382 H 0.15591 0.70437 0.06176
 C383 C 0.61518 0.19577 0.62316
 C384 C 0.58516 0.19629 0.63477
 C385 C 0.57795 0.21508 0.60537
 C386 C 0.60753 0.21448 0.59348
 C387 C 0.62013 0.22095 0.64456
 C388 C 0.61278 0.23965 0.61512
 C389 C 0.59058 0.22158 0.65657
 C390 C 0.58296 0.24024 0.62679
 C391 C 0.55513 0.21340 0.58219
 C392 C 0.53704 0.21363 0.56204
 C393 C 0.64441 0.22582 0.66444
 C394 C 0.66509 0.23136 0.67853
 H395 H 0.62868 0.17751 0.62192
 H396 H 0.57352 0.17842 0.64256
 H397 H 0.61431 0.21156 0.56732
 H398 H 0.62434 0.25755 0.60720
 H399 H 0.58388 0.22453 0.68274
 H400 H 0.56951 0.25854 0.62805
 C401 C 0.72283 0.08924 0.84443
 C402 C 0.74142 0.08177 0.87430
 C403 C 0.71621 0.07669 0.89566
 C404 C 0.69749 0.08375 0.86617
 C405 C 0.72202 0.11881 0.85628
 C406 C 0.69679 0.11379 0.87763
 C407 C 0.74065 0.11161 0.88582
 C408 C 0.71543 0.10629 0.90741
 C409 C 0.71456 0.05390 0.91895
 C410 C 0.71482 0.03583 0.93917
 C411 C 0.72687 0.14307 0.83630
 C412 C 0.73240 0.16376 0.82216
 H413 H 0.72590 0.08249 0.81829
 H414 H 0.75978 0.06839 0.87318
 H415 H 0.67970 0.07202 0.85838
 H416 H 0.67847 0.12721 0.87874
 H417 H 0.75848 0.12326 0.89374
 H418 H 0.71240 0.11312 0.93352
 C419 C 0.21680 0.66353 0.40052
 C420 C 0.19348 0.64445 0.39131
 C421 C 0.21196 0.61998 0.39991
 C422 C 0.23510 0.63874 0.40941
 C423 C 0.22710 0.66178 0.36446
 C424 C 0.24549 0.63727 0.37315
 C425 C 0.20394 0.64311 0.35481
 C426 C 0.22227 0.61823 0.36385
 C427 C 0.20564 0.59675 0.42093
 C428 C 0.20263 0.57795 0.43956
 C429 C 0.23740 0.68466 0.34550
 C430 C 0.24760 0.70291 0.33050
 H431 H 0.21468 0.68240 0.41540
 H432 H 0.17198 0.64708 0.39899
 H433 H 0.24788 0.63672 0.43206
 H434 H 0.26700 0.63455 0.36555
 H435 H 0.19124 0.64523 0.33211
 H436 H 0.22443 0.59935 0.34899
 C437 C 0.27583 0.91100 0.84357
 C438 C 0.25738 0.91841 0.87362
 C439 C 0.28269 0.92355 0.89472
 C440 C 0.30126 0.91656 0.86505
 C441 C 0.27679 0.88143 0.85546
 C442 C 0.30212 0.88652 0.87655
 C443 C 0.25830 0.88856 0.88517
 C444 C 0.28363 0.89395 0.90650
 C445 C 0.28441 0.94635 0.91795
 C446 C 0.28422 0.96444 0.93812
 C447 C 0.27190 0.85716 0.83554
 C448 C 0.26634 0.83647 0.82146
 H449 H 0.27259 0.91775 0.81746
 H450 H 0.23897 0.93173 0.87266
 H451 H 0.31898 0.92835 0.85706
 H452 H 0.32049 0.87315 0.87749
 H453 H 0.24056 0.87685 0.89330
 H454 H 0.28683 0.88712 0.93259
 C455 C 0.79761 0.33768 0.38907
 C456 C 0.80675 0.36519 0.37463
 C457 C 0.78870 0.37997 0.40033
 C458 C 0.77974 0.35289 0.41507
 C459 C 0.77354 0.33825 0.36485
 C460 C 0.75562 0.35312 0.39059
 C461 C 0.78249 0.36529 0.35003
 C462 C 0.76465 0.38044 0.37608
 C463 C 0.79506 0.40317 0.42132
 C464 C 0.79809 0.42194 0.43995
 C465 C 0.76322 0.31541 0.34591
 C466 C 0.75301 0.29720 0.33091
 H467 H 0.81103 0.31982 0.39420
 H468 H 0.82786 0.37046 0.36831
 H469 H 0.77868 0.34803 0.44204
 H470 H 0.73450 0.34794 0.39701
 H471 H 0.78350 0.37010 0.32304
 H472 H 0.75117 0.39825 0.37091
 C473 C 0.10876 0.26234 0.87588
 C474 C 0.10410 0.28855 0.89623
 C475 C 0.07513 0.29077 0.88243
 C476 C 0.07953 0.26459 0.86228
 C477 C 0.11841 0.27942 0.84635
 C478 C 0.08948 0.28160 0.83241
 C479 C 0.11405 0.30561 0.86649
 C480 C 0.08466 0.30795 0.85293
 C481 C 0.05177 0.29556 0.90429
 C482 C 0.03334 0.29782 0.92383
 C483 C 0.14323 0.27186 0.82833
 C484 C 0.16430 0.26459 0.81571
 H485 H 0.11889 0.24349 0.88515
 H486 H 0.10991 0.29145 0.92269
 H487 H 0.06508 0.24776 0.86078
 H488 H 0.08377 0.27866 0.80594
 H489 H 0.12853 0.32240 0.86799
 H490 H 0.07445 0.32679 0.84378
 C491 C 0.62934 0.75019 0.33414
 C492 C 0.61733 0.73324 0.36288
 C493 C 0.61516 0.75896 0.38434
 C494 C 0.62676 0.77608 0.35597
 C495 C 0.65779 0.74474 0.34848
 C496 C 0.65564 0.77046 0.36993
 C497 C 0.64610 0.72771 0.37687
 C498 C 0.64365 0.75349 0.39854
 C499 C 0.59204 0.76574 0.40590
 C500 C 0.57365 0.77003 0.42508
 C501 C 0.68220 0.73593 0.33035
 C502 C 0.70292 0.72793 0.31744
 H503 H 0.62375 0.74872 0.30743
 H504 H 0.60132 0.71801 0.36021
 H505 H 0.61854 0.79607 0.34763
 H506 H 0.67166 0.78568 0.37261
 H507 H 0.65427 0.70772 0.38530
 H508 H 0.64934 0.75492 0.42523
 C509 C 0.91110 0.72189 0.83331
 C510 C 0.91935 0.73742 0.86512
 C511 C 0.92527 0.71025 0.88265
 C512 C 0.91746 0.69455 0.85119
 C513 C 0.88193 0.72110 0.84651
 C514 C 0.88781 0.69391 0.86401
 C515 C 0.88989 0.73670 0.87798
 C516 C 0.89607 0.70950 0.89572
 C517 C 0.94866 0.70570 0.90453
 C518 C 0.96708 0.70359 0.92409
 C519 C 0.85705 0.72837 0.82847
 C520 C 0.83590 0.73540 0.81588
 H521 H 0.91699 0.72706 0.80743
 H522 H 0.93256 0.75528 0.86581
 H523 H 0.92909 0.67714 0.84046
 H524 H 0.87456 0.67609 0.86332
 H525 H 0.87834 0.75412 0.88885
 H526 H 0.89010 0.70436 0.92160
 C527 C 0.34469 0.22881 0.36891
 C528 C 0.37363 0.22338 0.35499
 C529 C 0.38509 0.24032 0.38356
 C530 C 0.35654 0.24560 0.39773
 C531 C 0.34253 0.25469 0.34770
 C532 C 0.35408 0.27154 0.37630
 C533 C 0.37104 0.24944 0.33341
 C534 C 0.38292 0.26620 0.36236
 C535 C 0.40817 0.23348 0.40514
 C536 C 0.42652 0.22917 0.42434
 C537 C 0.31816 0.26360 0.32959
 C538 C 0.29747 0.27169 0.31671
 H539 H 0.32871 0.21353 0.37139
 H540 H 0.38194 0.20348 0.34649
 H541 H 0.35078 0.24395 0.42438
 H542 H 0.34583 0.29143 0.38490
 H543 H 0.37671 0.25112 0.30673
 H544 H 0.39888 0.28150 0.35989
 C545 C 0.75927 0.85029 0.88990
 C546 C 0.75213 0.87899 0.87678
 C547 C 0.72854 0.88077 0.90170
 C548 C 0.73563 0.85232 0.91507
 C549 C 0.73992 0.83842 0.86407
 C550 C 0.71631 0.84011 0.88897
 C551 C 0.73284 0.86685 0.85064
 C552 C 0.70908 0.86901 0.87592
 C553 C 0.72396 0.90420 0.92349
 C554 C 0.72186 0.92317 0.94223
 C555 C 0.74829 0.81496 0.84397
 C556 C 0.75725 0.79596 0.82833
 H557 H 0.78000 0.84237 0.89549
 H558 H 0.76682 0.89519 0.87199
 H559 H 0.73675 0.84658 0.94179
 H560 H 0.70167 0.82386 0.89372
 H561 H 0.73176 0.87255 0.82390
 H562 H 0.68837 0.87701 0.87044
 C563 C 0.19954 0.40687 0.35048
 C564 C 0.17679 0.41001 0.37706
 C565 C 0.19768 0.42087 0.40175
 C566 C 0.22026 0.41811 0.37555
 C567 C 0.20587 0.37816 0.36352
 C568 C 0.22664 0.38915 0.38828
 C569 C 0.18326 0.38082 0.38971
 C570 C 0.20402 0.39214 0.41471
 C571 C 0.19514 0.44443 0.42385
 C572 C 0.19499 0.46340 0.44274
 C573 C 0.21276 0.35435 0.34316
 C574 C 0.22081 0.33495 0.32748
 H575 H 0.19773 0.41267 0.32384
 H576 H 0.15625 0.41889 0.37270
 H577 H 0.23548 0.43365 0.36993
 H578 H 0.24722 0.38037 0.39275
 H579 H 0.16809 0.36523 0.39528
 H580 H 0.20587 0.38629 0.44134
 C581 C 0.27114 0.16221 0.89920
 C582 C 0.25036 0.14122 0.91072
 C583 C 0.27058 0.11832 0.90149
 C584 C 0.29154 0.13895 0.89027
 C585 C 0.25945 0.16074 0.86381
 C586 C 0.27969 0.13790 0.85444
 C587 C 0.23859 0.14004 0.87512
 C588 C 0.25888 0.11686 0.86610
 C589 C 0.27505 0.09489 0.92335
 C590 C 0.27710 0.07594 0.94216
 C591 C 0.25124 0.18426 0.84367
 C592 C 0.24243 0.20333 0.82801
 H593 H 0.27611 0.18110 0.91258
 H594 H 0.23830 0.14236 0.93405
 H595 H 0.31338 0.13819 0.89676
 H596 H 0.29169 0.13684 0.83106
 H597 H 0.21672 0.14072 0.86871
 H598 H 0.25388 0.09797 0.85273
 C599 C 0.80554 0.62284 0.40002
 C600 C 0.78362 0.60267 0.41046
 C601 C 0.80330 0.57903 0.40224
 C602 C 0.82537 0.59885 0.39210
 C603 C 0.79497 0.62179 0.36406
 C604 C 0.81467 0.59823 0.35569
 C605 C 0.77300 0.60189 0.37431
 C606 C 0.79271 0.57799 0.36628
 C607 C 0.80586 0.55546 0.42433
 C608 C 0.80598 0.53646 0.44322
 C609 C 0.78799 0.64560 0.34370
 C610 C 0.77985 0.66498 0.32803
 H611 H 0.81077 0.64153 0.41369
 H612 H 0.77084 0.60430 0.43316
 H613 H 0.84696 0.59731 0.39967
 H614 H 0.82739 0.59669 0.33293
 H615 H 0.75138 0.60334 0.36684
 H616 H 0.78745 0.55931 0.35262
 C617 C 0.13878 0.73081 0.84467
 C618 C 0.13758 0.70542 0.86739
 C619 C 0.12257 0.72255 0.89380
 C620 C 0.12340 0.74775 0.87140
 C621 C 0.16567 0.73823 0.86117
 C622 C 0.15058 0.75527 0.88761
 C623 C 0.16492 0.71302 0.88356
 C624 C 0.14948 0.72998 0.91024
 C625 C 0.09860 0.71535 0.91308
 C626 C 0.07917 0.71098 0.93024
 C627 C 0.18933 0.74845 0.84362
 C628 C 0.20827 0.75832 0.82956
 H629 H 0.13467 0.73125 0.81748
 H630 H 0.13193 0.68483 0.85928
 H631 H 0.10608 0.76195 0.86656
 H632 H 0.15615 0.77586 0.89579
 H633 H 0.18227 0.69887 0.88837
 H634 H 0.15362 0.72957 0.93743
 C635 C 0.59846 0.22664 0.33636
 C636 C 0.59467 0.20354 0.36211
 C637 C 0.58295 0.22439 0.38695
 C638 C 0.58631 0.24738 0.36158
 C639 C 0.62671 0.23150 0.35087
 C640 C 0.61489 0.25227 0.37574
 C641 C 0.62336 0.20850 0.37624
 C642 C 0.61124 0.22925 0.40132
 C643 C 0.55920 0.22154 0.40842
 C644 C 0.54026 0.22032 0.42724
 C645 C 0.65173 0.23665 0.33259
 C646 C 0.67294 0.24206 0.31962
 H647 H 0.59351 0.22561 0.30943
 H648 H 0.58607 0.18345 0.35677
 H649 H 0.57082 0.26335 0.35580
 H650 H 0.62343 0.27237 0.38117
 H651 H 0.63886 0.19255 0.38204
 H652 H 0.61628 0.23031 0.42823
 C653 C 0.83386 0.26642 0.89977
 C654 C 0.86166 0.25135 0.90010
 C655 C 0.87560 0.27843 0.89430
 C656 C 0.84811 0.29367 0.89424
 C657 C 0.83256 0.26250 0.86185
 C658 C 0.84642 0.28961 0.85594
 C659 C 0.86008 0.24731 0.86198
 C660 C 0.87434 0.27451 0.85638
 C661 C 0.89955 0.28575 0.91348
 C662 C 0.91901 0.29021 0.93052
 C663 C 0.80897 0.25214 0.84433
 C664 C 0.79012 0.24216 0.83027
 H665 H 0.81699 0.26298 0.91743
 H666 H 0.86817 0.23566 0.91842
 H667 H 0.84348 0.31285 0.90770
 H668 H 0.83982 0.30523 0.83758
 H669 H 0.86476 0.22812 0.84856
 H670 H 0.89124 0.27793 0.83875
 C671 C 0.40250 0.77093 0.33660
 C672 C 0.40720 0.79524 0.36026
 C673 C 0.41740 0.77536 0.38719
 C674 C 0.41314 0.75116 0.36390
 C675 C 0.37379 0.76850 0.35084
 C676 C 0.38410 0.74869 0.37780
 C677 C 0.37803 0.79270 0.37413
 C678 C 0.38865 0.77291 0.40131
 C679 C 0.44107 0.77807 0.40880
 C680 C 0.45995 0.77920 0.42771
 C681 C 0.34882 0.76346 0.33243
 C682 C 0.32765 0.75810 0.31938
 H683 H 0.40790 0.77008 0.30976
 H684 H 0.41699 0.81443 0.35332
 H685 H 0.42782 0.73410 0.35994
 H686 H 0.37437 0.72948 0.38485
 H687 H 0.36334 0.80974 0.37811
 H688 H 0.38317 0.77374 0.42813
 C689 C 0.29391 0.87959 0.12758
 C690 C 0.27562 0.88876 0.09815
 C691 C 0.27519 0.91774 0.11202
 C692 C 0.29356 0.90900 0.14119
 C693 C 0.26842 0.87396 0.14817
 C694 C 0.26796 0.90291 0.16215
 C695 C 0.25013 0.88282 0.11897
 C696 C 0.24971 0.91209 0.13262
 C697 C 0.27784 0.94149 0.09051
 C698 C 0.27891 0.96042 0.07165
 C699 C 0.26342 0.84891 0.16646
 C700 C 0.25810 0.82769 0.17943
 H701 H 0.31204 0.86595 0.12574
 H702 H 0.27879 0.88316 0.07163
 H703 H 0.31147 0.92006 0.15006
 H704 H 0.26477 0.90843 0.18869
 H705 H 0.23220 0.87183 0.11000
 H706 H 0.23156 0.92569 0.13445
 C707 C 0.78882 0.33262 0.61674
 C708 C 0.77187 0.34819 0.59014
 C709 C 0.77937 0.37503 0.60670
 C710 C 0.79649 0.35989 0.63303
 C711 C 0.76362 0.33185 0.63914
 C712 C 0.77111 0.35867 0.65576
 C713 C 0.74659 0.34707 0.61279
 C714 C 0.75419 0.37418 0.62912
 C715 C 0.78661 0.39905 0.58755
 C716 C 0.79101 0.41857 0.57054
 C717 C 0.75334 0.30818 0.65663
 C718 C 0.74341 0.28925 0.67064
 H719 H 0.80294 0.31526 0.61184
 H720 H 0.77225 0.34412 0.56293
 H721 H 0.81709 0.36547 0.64115
 H722 H 0.77070 0.36270 0.68296
 H723 H 0.72598 0.34156 0.60459
 H724 H 0.74002 0.39150 0.63405
 C725 C 0.70662 0.12108 0.12794
 C726 C 0.72495 0.11161 0.09869
 C727 C 0.72498 0.08268 0.11274
 C728 C 0.70655 0.09172 0.14174
 C729 C 0.73207 0.12647 0.14865
 C730 C 0.73212 0.09757 0.16282
 C731 C 0.75041 0.11732 0.11963
 C732 C 0.75042 0.08810 0.13346
 C733 C 0.72214 0.05891 0.09136
 C734 C 0.72092 0.03996 0.07259
 C735 C 0.73721 0.15151 0.16683
 C736 C 0.74261 0.17272 0.17974
 H737 H 0.68865 0.13491 0.12590
 H738 H 0.72199 0.11717 0.07211
 H739 H 0.68847 0.08089 0.15056
 H740 H 0.73510 0.09210 0.18942
 H741 H 0.76852 0.12808 0.11071
 H742 H 0.76841 0.07430 0.13550
 C743 C 0.21141 0.66704 0.61618
 C744 C 0.22870 0.65135 0.59002
 C745 C 0.22083 0.62458 0.60654
 C746 C 0.20337 0.63985 0.63242
 C747 C 0.23626 0.66775 0.63913
 C748 C 0.22840 0.64100 0.65570
 C749 C 0.25363 0.65241 0.61322
 C750 C 0.24567 0.62537 0.62950
 C751 C 0.21375 0.60057 0.58731
 C752 C 0.20947 0.58108 0.57024
 C753 C 0.24638 0.69144 0.65668
 C754 C 0.25619 0.71040 0.67072
 H755 H 0.19744 0.68446 0.61090
 H756 H 0.22876 0.65536 0.56280
 H757 H 0.18262 0.63437 0.64012
 H758 H 0.22838 0.63703 0.68293
 H759 H 0.27439 0.65781 0.60545
 H760 H 0.25968 0.60799 0.63481
 C761 C 0.88085 0.68235 0.11074
 C762 C 0.89160 0.70289 0.08501
 C763 C 0.92050 0.69743 0.09792
 C764 C 0.91021 0.67678 0.12333
 C765 C 0.87778 0.70540 0.13626
 C766 C 0.90667 0.69995 0.14923
 C767 C 0.88820 0.72594 0.11078
 C768 C 0.91733 0.72045 0.12345
 C769 C 0.94405 0.69507 0.07577
 C770 C 0.96300 0.69512 0.05683
 C771 C 0.85397 0.71220 0.15667
 C772 C 0.83457 0.72021 0.17238
 H773 H 0.86559 0.66673 0.10577
 H774 H 0.88562 0.70411 0.05838
 H775 H 0.91957 0.65651 0.12823
 H776 H 0.91260 0.69878 0.17587
 H777 H 0.87895 0.74624 0.10576
 H778 H 0.93253 0.73612 0.12848
 C779 C 0.35057 0.25877 0.61034
 C780 C 0.37918 0.25124 0.62343
 C781 C 0.38083 0.22792 0.59815
 C782 C 0.35247 0.23539 0.58482
 C783 C 0.33846 0.23924 0.63584
 C784 C 0.34003 0.21590 0.61059
 C785 C 0.36680 0.23178 0.64924
 C786 C 0.36883 0.20828 0.62361
 C787 C 0.40428 0.22336 0.57635
 C788 C 0.42328 0.22125 0.55761
 C789 C 0.31497 0.24757 0.65598
 C790 C 0.29595 0.25648 0.67164
 H791 H 0.34284 0.27962 0.60504
 H792 H 0.39550 0.26574 0.62849
 H793 H 0.34682 0.23686 0.55810
 H794 H 0.32366 0.20145 0.60556
 H795 H 0.37241 0.23035 0.67598
 H796 H 0.37664 0.18745 0.62880
 C797 C 0.11115 0.27428 0.11175
 C798 C 0.08222 0.28046 0.12470
 C799 C 0.07924 0.30315 0.09866
 C800 C 0.10795 0.29700 0.08548
 C801 C 0.12215 0.29499 0.13657
 C802 C 0.11927 0.31771 0.11055
 C803 C 0.09346 0.30113 0.14982
 C804 C 0.09010 0.32398 0.12342
 C805 C 0.05560 0.30562 0.07671
 C806 C 0.03658 0.30566 0.05791
 C807 C 0.14606 0.28809 0.15673
 C808 C 0.16553 0.28002 0.17225
 H809 H 0.12001 0.25376 0.10709
 H810 H 0.06678 0.26514 0.13032
 H811 H 0.11368 0.29530 0.05880
 H812 H 0.13477 0.33297 0.10498
 H813 H 0.08777 0.30279 0.17652
 H814 H 0.08114 0.34446 0.12796
 C815 C 0.63430 0.77092 0.64956
 C816 C 0.63354 0.79175 0.62053
 C817 C 0.61912 0.77095 0.59878
 C818 C 0.61949 0.75029 0.62741
 C819 C 0.66153 0.75968 0.63639
 C820 C 0.64701 0.73900 0.61457
 C821 C 0.66122 0.78035 0.60776
 C822 C 0.64638 0.75971 0.58571
 C823 C 0.59566 0.77552 0.57701
 C824 C 0.57666 0.77767 0.55829
 C825 C 0.68505 0.75141 0.65649
 C826 C 0.70410 0.74257 0.67213
 H827 H 0.62962 0.77547 0.67605
 H828 H 0.62769 0.81351 0.62273
 H829 H 0.60211 0.73797 0.63528
 H830 H 0.65277 0.71721 0.61228
 H831 H 0.67864 0.79263 0.59993
 H832 H 0.65112 0.75512 0.55923
   
