data_POSCAR
  _audit_creation_date              2014-09-24
  _audit_creation_method            'ToBaCCo'
  _symmetry_space_group_name_H-M    'P1'
  _symmetry_Int_Tables_number       1
  _symmetry_cell_setting            triclinic
  loop_
  _symmetry_equiv_pos_as_xyz
 x,y,z
_cell_length_a 24.3051
_cell_length_b 24.3409
_cell_length_c 20.2698
_cell_angle_alpha 89.644100
_cell_angle_beta 89.984700
_cell_angle_gamma 88.828100
loop_
  _atom_site_label
  _atom_site_type_symbol
  _atom_site_fract_x
  _atom_site_fract_y
  _atom_site_fract_z
C1 C 0.34280 -0.00203 0.25253
 C2 C 0.15576 -0.00004 0.74387
 C3 C 0.65939 0.49625 0.25183
 C4 C 0.84223 0.50236 0.75307
 C5 C 0.24645 0.40497 0.99803
 C6 C 0.75522 0.09336 1.00195
 C7 C 0.25312 0.59210 0.50625
 C8 C 0.75082 0.90816 0.49771
 C9 C -0.00022 0.25156 0.37605
 C10 C 0.00371 0.74815 0.12616
 C11 C 0.49942 0.24981 0.62565
 C12 C 0.49907 0.75118 0.88102
 C13 C -0.24877 0.59256 0.99769
 C14 C -0.25360 0.40866 0.49656
 C15 C 0.25025 -0.09402 0.00625
 C16 C 0.25253 1.09427 0.50271
 C17 C 0.15737 0.49843 0.25191
 C18 C -0.15987 1.00359 0.24317
 C19 C 0.34003 0.50639 -0.25241
 C20 C 0.65489 -0.00294 -0.24691
 C21 C -0.00092 0.25088 0.87409
 C22 C 0.50096 0.25093 0.12407
 C23 C -0.00086 0.75266 0.62233
 C24 C 0.50187 0.74962 0.37488
 B25 B -0.04222 0.02484 1.04584
 B26 B -0.06093 0.01001 0.96907
 B27 B -0.01637 0.06087 0.98284
 B28 B 0.02480 0.04275 1.04755
 B29 B 0.00491 -0.02121 1.07231
 B30 B -0.04851 -0.04116 1.02338
 B31 B 0.04062 -0.02794 0.94465
 B32 B 0.05945 -0.01399 1.02207
 B33 B 0.01494 -0.06429 1.00838
 B34 B -0.02609 -0.04639 0.94386
 B35 B -0.00689 0.01804 0.91886
 B36 B 0.04736 0.03784 0.96818
 B37 B 0.45886 0.52670 0.55036
 B38 B 0.43850 0.50887 0.47510
 B39 B 0.48171 0.56130 0.48432
 B40 B 0.52495 0.54691 0.54795
 B41 B 0.50838 0.48308 0.57735
 B42 B 0.45405 0.45983 0.53154
 B43 B 0.54066 0.47279 0.44893
 B44 B 0.56086 0.49068 0.52440
 B45 B 0.51776 0.43814 0.51505
 B46 B 0.47444 0.45255 0.45139
 B47 B 0.49099 0.51640 0.42203
 B48 B 0.54535 0.53964 0.46787
 B49 B 0.53951 0.97256 0.55301
 B50 B 0.56004 0.98795 0.47671
 B51 B 0.51530 0.93710 0.48847
 B52 B 0.47295 0.95408 0.55183
 B53 B 0.49166 1.01800 0.57811
 B54 B 0.54638 1.03881 0.53061
 B55 B 0.45898 1.02674 0.44954
 B56 B 0.43864 1.01086 0.52679
 B57 B 0.48301 1.06197 0.51425
 B58 B 0.52558 1.04505 0.45044
 B59 B 0.50719 0.98096 0.42466
 B60 B 0.45203 0.96058 0.47163
 B61 B 0.03710 0.47080 1.05681
 B62 B 0.05837 0.48834 0.98036
 B63 B 0.01473 0.43639 0.99036
 B64 B -0.02896 0.45128 1.05375
 B65 B -0.01222 0.51535 1.08178
 B66 B 0.04330 0.53733 1.03641
 B67 B -0.04308 0.52561 0.95317
 B68 B -0.06411 0.50809 1.02857
 B69 B -0.02003 0.56016 1.01879
 B70 B 0.02334 0.54495 0.95591
 B71 B 0.00605 0.48149 0.92746
 B72 B -0.04871 0.45878 0.97325
 B73 B 0.03441 0.52841 0.44486
 B74 B 0.06058 0.51426 0.51961
 B75 B 0.01287 0.56446 0.51084
 B76 B -0.03290 0.54602 0.45213
 B77 B -0.01245 0.48190 0.42585
 B78 B 0.04649 0.46269 0.46804
 B79 B -0.03588 0.47499 0.55729
 B80 B -0.06212 0.48905 0.48251
 B81 B -0.01424 0.43890 0.49101
 B82 B 0.03136 0.45737 0.54987
 B83 B 0.01097 0.52157 0.57615
 B84 B -0.04803 0.54076 0.53407
 B85 B 0.53669 0.02699 -0.05127
 B86 B 0.56435 0.01398 0.02284
 B87 B 0.51613 0.06338 0.01475
 B88 B 0.46955 0.04411 -0.04243
 B89 B 0.48988 -0.02033 -0.06867
 B90 B 0.54981 -0.03829 -0.02772
 B91 B 0.46923 -0.02602 0.06322
 B92 B 0.44123 -0.01261 -0.01054
 B93 B 0.48995 -0.06237 -0.00249
 B94 B 0.53643 -0.04235 0.05476
 B95 B 0.51574 0.02128 0.08079
 B96 B 0.45612 0.03951 0.03998
 B97 B 0.46317 0.47510 -0.05760
 B98 B 0.43752 0.48440 0.01831
 B99 B 0.48645 0.43611 0.00598
 B100 B 0.53088 0.45895 -0.05225
 B101 B 0.50842 0.52406 -0.07421
 B102 B 0.44965 0.53905 -0.03005
 B103 B 0.53349 0.52402 0.05717
 B104 B 0.55899 0.51496 -0.01890
 B105 B 0.50988 0.56302 -0.00590
 B106 B 0.46559 0.53967 0.05204
 B107 B 0.48811 0.47538 0.07376
 B108 B 0.54702 0.46028 0.02955
 B109 B -0.03218 0.97514 0.43417
 B110 B -0.05931 0.98975 0.50786
 B111 B -0.01257 0.93835 0.50153
 B112 B 0.03466 0.95586 0.44357
 B113 B 0.01620 1.02063 0.41590
 B114 B -0.04307 1.04122 0.45606
 B115 B 0.03676 1.02662 0.54775
 B116 B 0.06438 1.01214 0.47414
 B117 B 0.01760 1.06300 0.48121
 B118 B -0.02975 1.04566 0.53835
 B119 B -0.01120 0.98129 0.56610
 B120 B 0.04829 0.96082 0.52599
 B121 B 0.77814 0.20930 0.19929
 B122 B 0.75939 0.18884 0.27466
 B123 B 0.81215 0.23185 0.26556
 B124 B 0.79848 0.27526 0.20160
 B125 B 0.73476 0.25895 0.17192
 B126 B 0.71095 0.20465 0.21783
 B127 B 0.72336 0.29093 0.30007
 B128 B 0.74198 0.31121 0.22465
 B129 B 0.68924 0.26824 0.23393
 B130 B 0.70292 0.22489 0.29783
 B131 B 0.76659 0.24116 0.32747
 B132 B 0.79046 0.29547 0.28150
 B133 B 0.72139 0.78856 0.69490
 B134 B 0.73637 0.80846 0.77254
 B135 B 0.68562 0.76360 0.75973
 B136 B 0.70407 0.72200 0.69569
 B137 B 0.76780 0.74094 0.67010
 B138 B 0.78725 0.79578 0.71750
 B139 B 0.77577 0.70748 0.79818
 B140 B 0.76044 0.68771 0.72184
 B141 B 0.81116 0.73257 0.73386
 B142 B 0.79346 0.77419 0.79757
 B143 B 0.72941 0.75479 0.82395
 B144 B 0.70966 0.70074 0.77614
 B145 B 0.27515 0.28723 0.80284
 B146 B 0.26049 0.31425 0.72881
 B147 B 0.31082 0.26644 0.73635
 B148 B 0.29295 0.22013 0.79515
 B149 B 0.22890 0.24012 0.82273
 B150 B 0.20910 0.29933 0.78118
 B151 B 0.22122 0.21791 0.69166
 B152 B 0.23585 0.19103 0.76583
 B153 B 0.18558 0.23872 0.75821
 B154 B 0.20337 0.28501 0.69930
 B155 B 0.26752 0.26510 0.67174
 B156 B 0.28723 0.20585 0.71335
 B157 B 0.22722 0.71254 0.30754
 B158 B 0.24372 0.68420 0.23518
 B159 B 0.19197 0.73062 0.23864
 B160 B 0.20767 0.77864 0.29500
 B161 B 0.27176 0.76129 0.32521
 B162 B 0.29387 0.70153 0.28777
 B163 B 0.28152 0.77946 0.19278
 B164 B 0.26424 0.80803 0.26520
 B165 B 0.31604 0.76187 0.26141
 B166 B 0.30052 0.71333 0.20518
 B167 B 0.23645 0.73090 0.17490
 B168 B 0.21466 0.79081 0.21214
 B169 B 0.27413 0.71180 0.70275
 B170 B 0.25905 0.69263 0.77975
 B171 B 0.31028 0.73726 0.76610
 B172 B 0.29204 0.77829 0.70153
 B173 B 0.22854 0.75939 0.67618
 B174 B 0.20788 0.70590 0.72541
 B175 B 0.22094 0.79433 0.80428
 B176 B 0.23633 0.81325 0.72622
 B177 B 0.18501 0.76960 0.73992
 B178 B 0.20224 0.72792 0.80509
 B179 B 0.26706 0.74621 0.83026
 B180 B 0.28674 0.80035 0.78143
 B181 B 0.22324 0.28749 0.19751
 B182 B 0.23773 0.30907 0.27351
 B183 B 0.18777 0.26361 0.26249
 B184 B 0.20608 0.22061 0.20035
 B185 B 0.26988 0.24017 0.17400
 B186 B 0.28917 0.29599 0.21990
 B187 B 0.27812 0.20964 0.30325
 B188 B 0.26354 0.18792 0.22741
 B189 B 0.31350 0.23358 0.23819
 B190 B 0.29516 0.27647 0.30044
 B191 B 0.23134 0.25686 0.32681
 B192 B 0.21199 0.20112 0.28100
 B193 B 0.77867 0.78382 0.30529
 B194 B 0.76455 0.81031 0.23061
 B195 B 0.81494 0.76260 0.23906
 B196 B 0.79640 0.71658 0.29788
 B197 B 0.73218 0.73679 0.32454
 B198 B 0.71292 0.79585 0.28248
 B199 B 0.72542 0.71418 0.19314
 B200 B 0.73938 0.68752 0.26776
 B201 B 0.68926 0.73534 0.25959
 B202 B 0.70770 0.78121 0.20070
 B203 B 0.77206 0.76109 0.17399
 B204 B 0.79119 0.70191 0.21593
 B205 B 0.72307 0.21466 0.80640
 B206 B 0.73689 0.18782 0.73213
 B207 B 0.68635 0.23519 0.73996
 B208 B 0.70465 0.28160 0.79771
 B209 B 0.76925 0.26210 0.82413
 B210 B 0.78876 0.20298 0.78318
 B211 B 0.77493 0.28460 0.69235
 B212 B 0.76110 0.31115 0.76669
 B213 B 0.81177 0.26382 0.75879
 B214 B 0.79342 0.21745 0.70094
 B215 B 0.72886 0.23694 0.67451
 B216 B 0.70919 0.29605 0.71553
 N217 N 0.36475 1.04924 0.41466
 N218 N 0.33243 1.03433 0.36617
 C219 C 0.36524 1.02036 0.31589
 C220 C 0.41888 1.02993 0.33470
 N221 N 0.41718 1.04631 0.39823
 H222 H 0.45603 1.01993 0.30755
 N223 N -0.06532 0.58096 0.85335
 N224 N -0.09192 0.57242 0.79763
 C225 C -0.12735 0.53129 0.80834
 C226 C -0.12241 0.51628 0.87359
 N227 N -0.08233 0.54719 0.90005
 H228 H -0.14044 0.48069 0.89662
 N229 N 0.06529 -0.08232 0.84498
 N230 N 0.09087 -0.07242 0.78861
 C231 C 0.12295 -0.02845 0.79770
 C232 C 0.11575 -0.01210 0.86143
 N233 N 0.07986 -0.04666 0.89039
 H234 H 0.12969 0.02633 0.88122
 N235 N 0.56576 0.41693 0.35076
 N236 N 0.59413 0.42490 0.29599
 C237 C 0.62885 0.46650 0.30687
 C238 C 0.62154 0.48245 0.37128
 N239 N 0.58099 0.45152 0.39700
 H240 H 0.63831 0.51867 0.39377
 N241 N 0.54441 0.56350 0.16922
 N242 N 0.57319 0.55124 0.22295
 C243 C 0.61591 0.51857 0.20424
 C244 C 0.61340 0.51349 0.13682
 N245 N 0.56765 0.54135 0.11632
 H246 H 0.63968 0.48765 0.10638
 N247 N 0.04437 1.06843 0.65803
 N248 N 0.07120 1.05583 0.71295
 C249 C 0.11443 1.02338 0.69555
 C250 C 0.11462 1.01897 0.62838
 N251 N 0.06945 1.04640 0.60624
 H252 H 0.14169 0.99292 0.59916
 N253 N -0.04495 0.43397 0.66909
 N254 N -0.07208 0.44703 0.72362
 C255 C -0.11470 0.48019 0.70553
 C256 C -0.11423 0.48424 0.63801
 N257 N -0.06932 0.45596 0.61644
 H258 H -0.14117 0.51003 0.60794
 N259 N 0.45996 -0.06781 0.17446
 N260 N 0.43105 -0.05574 0.22795
 C261 C 0.38824 -0.02345 0.20820
 C262 C 0.38974 -0.01996 0.14100
 N263 N 0.43602 -0.04645 0.12124
 H264 H 0.36260 0.00488 0.11008
 N265 N 0.34459 0.49557 0.07560
 N266 N 0.29394 0.47625 0.07095
 C267 C 0.29549 0.43669 0.02447
 C268 C 0.34892 0.43275 0.00176
 N269 N 0.37826 0.46956 0.03426
 H270 H 0.36457 0.40734 -0.03769
 N271 N -0.15375 1.00932 0.55693
 N272 N -0.20419 0.98948 0.55423
 C273 C -0.20139 0.94438 0.51570
 C274 C -0.14764 0.93735 0.49597
 N275 N -0.11927 0.97818 0.52217
 H276 H -0.13087 0.90679 0.46289
 N277 N -0.15750 -0.02040 0.95386
 N278 N -0.20751 -0.00007 0.96542
 C279 C -0.20330 0.05499 0.96801
 C280 C -0.14919 0.06720 0.95369
 N281 N -0.12114 0.01928 0.94855
 H282 H -0.13090 0.10695 0.95557
 N283 N 0.34167 0.47701 0.46492
 N284 N 0.29152 0.49740 0.47574
 C285 C 0.29513 0.55261 0.47488
 C286 C 0.34908 0.56468 0.45956
 N287 N 0.37757 0.51676 0.45669
 H288 H 0.36689 0.60475 0.45919
 N289 N 0.15293 0.49963 0.57714
 N290 N 0.20365 0.51904 0.57490
 C291 C 0.20310 0.56073 0.53063
 C292 C 0.15011 0.56593 0.50661
 N293 N 0.12016 0.52743 0.53609
 H294 H 0.13525 0.59345 0.46840
 N295 N 0.65871 -0.00174 0.07466
 N296 N 0.70921 0.01791 0.07008
 C297 C 0.70647 0.06111 0.02802
 C298 C 0.65244 0.06719 0.00806
 N299 N 0.62406 0.02753 0.03742
 H300 H 0.63573 0.09577 -0.02792
 N301 N 0.65582 1.01481 0.44241
 N302 N 0.70710 0.99535 0.44747
 C303 C 0.70418 0.94204 0.46578
 C304 C 0.64904 0.92981 0.47014
 N305 N 0.62000 0.97615 0.45666
 H306 H 0.63267 0.89283 0.49112
 N307 N 0.15523 0.52020 0.96728
 N308 N 0.20601 0.49978 0.97231
 C309 C 0.20316 0.44464 0.96783
 C310 C 0.14823 0.43289 0.95563
 N311 N 0.11917 0.48066 0.95949
 H312 H 0.13051 0.39275 0.95468
 N313 N -0.05717 0.34351 0.50196
 N314 N -0.05537 0.29540 0.47115
 C315 C -0.01986 0.29961 0.41984
 C316 C 0.00001 0.35216 0.42122
 N317 N -0.02392 0.37849 0.47280
 H318 H 0.03011 0.36944 0.38806
 N319 N 0.51911 -0.15795 0.01909
 N320 N 0.52992 -0.20306 -0.01459
 C321 C 0.50239 -0.19943 -0.07232
 C322 C 0.47344 -0.14940 -0.07167
 N323 N 0.48526 -0.12434 -0.01363
 H324 H 0.44922 -0.13150 -0.11145
 N325 N 0.06238 -0.15969 1.00190
 N326 N 0.06067 -0.20806 1.03285
 C327 C 0.02262 -0.20403 1.08165
 C328 C 0.00090 -0.15128 1.07827
 N329 N 0.02638 -0.12473 1.02830
 H330 H -0.03139 -0.13389 1.10898
 N331 N 0.54994 0.33931 0.49461
 N332 N 0.54476 0.28996 0.52209
 C333 C 0.51936 0.29684 0.58105
 C334 C 0.51061 0.35263 0.58884
 N335 N 0.53009 0.37793 0.53421
 H336 H 0.48869 0.37274 0.62874
 N337 N 0.44968 1.16116 0.49436
 N338 N 0.45362 1.21012 0.52257
 C339 C 0.48062 1.20298 0.58060
 C340 C 0.49204 1.14744 0.58684
 N341 N 0.47215 1.12253 0.53250
 H342 H 0.51522 1.12730 0.62601
 N343 N -0.04537 0.66015 0.99405
 N344 N -0.03735 0.70941 1.01986
 C345 C -0.01533 0.70182 1.08066
 C346 C -0.01201 0.64574 1.09146
 N347 N -0.03088 0.62088 1.03644
 H348 H 0.00616 0.62499 1.13381
 N349 N 0.47872 0.65745 0.01752
 N350 N 0.46774 0.70316 -0.01559
 C351 C 0.49650 0.70126 -0.07253
 C352 C 0.52643 0.65191 -0.07197
 N353 N 0.51385 0.62528 -0.01489
 H354 H 0.55159 0.63530 -0.11147
 N355 N 0.03831 1.16117 0.51262
 N356 N 0.03318 1.21110 0.48635
 C357 C 0.01995 1.20515 0.42193
 C358 C 0.01871 1.14959 0.40980
 N359 N 0.02978 1.12338 0.46733
 H360 H 0.00562 1.13016 0.36472
 N361 N 0.83138 0.68441 0.89743
 N362 N 0.82260 0.65758 0.95321
 C363 C 0.78115 0.62261 0.94258
 C364 C 0.76641 0.62786 0.87738
 N365 N 0.79751 0.66789 0.85088
 H366 H 0.73074 0.61017 0.85443
 N367 N 0.33086 0.19041 0.40600
 N368 N 0.32127 0.16386 0.46184
 C369 C 0.28149 0.12734 0.44974
 C370 C 0.26794 0.13217 0.38426
 N371 N 0.29917 0.17213 0.35818
 H372 H 0.23410 0.11245 0.35978
 N373 N 0.66712 0.31566 0.39817
 N374 N 0.67513 0.34363 0.45290
 C375 C 0.71683 0.37833 0.44174
 C376 C 0.73274 0.37151 0.37721
 N377 N 0.70177 0.33114 0.35170
 H378 H 0.76901 0.38841 0.35448
 N379 N 0.20328 0.88963 0.83974
 N380 N 0.21747 0.92019 0.89018
 C381 C 0.22772 0.88601 0.94101
 C382 C 0.21630 0.83336 0.92004
 N383 N 0.20264 0.83692 0.85534
 H384 H 0.22326 0.79535 0.94695
 N385 N 0.31662 0.78529 0.07827
 N386 N 0.30113 0.81425 0.02567
 C387 C 0.27455 0.85950 0.04820
 C388 C 0.27988 0.85960 0.11555
 N389 N 0.30308 0.81121 0.13353
 H390 H 0.26184 0.88942 0.14872
 N391 N 0.81469 0.29476 0.58006
 N392 N 0.80161 0.32269 0.52585
 C393 C 0.76862 0.36522 0.54421
 C394 C 0.76449 0.36368 0.61170
 N395 N 0.79288 0.31846 0.63287
 H396 H 0.73871 0.39020 0.64193
 N397 N 0.18098 0.20749 0.58055
 N398 N 0.19483 0.17905 0.52752
 C399 C 0.22651 0.13609 0.54828
 C400 C 0.22896 0.13769 0.61539
 N401 N 0.20146 0.18376 0.63438
 H402 H 0.25457 0.11148 0.64658
 N403 N 0.68457 0.70595 0.08166
 N404 N 0.69723 0.67877 0.02721
 C405 C 0.72962 0.63557 0.04531
 C406 C 0.73393 0.63597 0.11273
 N407 N 0.70624 0.68118 0.13423
 H408 H 0.75956 0.60878 0.14268
 N409 N 0.26316 0.58832 0.19134
 N410 N 0.24156 0.53877 0.19556
 C411 C 0.19509 0.54424 0.23185
 C412 C 0.18893 0.59838 0.24850
 N413 N 0.23171 0.62447 0.22306
 H414 H 0.15752 0.61707 0.27907
 N415 N 0.75177 0.09301 0.68030
 N416 N 0.73134 0.04276 0.68470
 C417 C 0.68836 0.04556 0.72701
 C418 C 0.68341 0.09959 0.74717
 N419 N 0.72334 0.12781 0.71784
 H420 H 0.65505 0.11650 0.78298
 N421 N 0.72617 0.09263 0.28586
 N422 N 0.74599 0.04229 0.27558
 C423 C 0.80133 0.04506 0.27672
 C424 C 0.81401 0.09882 0.29178
 N425 N 0.76641 0.12795 0.29386
 H426 H 0.85436 0.11615 0.29203
 N427 N 0.22792 0.59625 0.79693
 N428 N 0.24754 0.54595 0.78583
 C429 C 0.30267 0.54944 0.78091
 C430 C 0.31570 0.60383 0.79299
 N431 N 0.26809 0.63223 0.79987
 H432 H 0.35536 0.62249 0.78847
 N433 N 0.24328 0.40948 0.67832
 N434 N 0.26268 0.46008 0.68268
 C435 C 0.30693 0.45744 0.72294
 C436 C 0.31385 0.40303 0.74189
 N437 N 0.27368 0.37444 0.71378
 H438 H 0.34351 0.38618 0.77642
 N439 N 0.74776 0.90296 0.17455
 N440 N 0.76619 0.95396 0.17699
 C441 C 0.80860 0.95351 0.21997
 C442 C 0.81533 0.90026 0.24295
 N443 N 0.77698 0.87007 0.21408
 H444 H 0.84375 0.88531 0.28014
 N445 N 0.76789 0.90456 0.79080
 N446 N 0.74801 0.95545 0.78507
 C447 C 0.69265 0.95276 0.78493
 C448 C 0.67997 0.89761 0.79519
 N449 N 0.72778 0.86858 0.79466
 H450 H 0.64001 0.87940 0.79237
 N451 N 0.26283 0.40412 0.31024
 N452 N 0.24291 0.45515 0.30563
 C453 C 0.19027 0.45189 0.28487
 C454 C 0.17878 0.39694 0.27872
 N455 N 0.22502 0.36841 0.29330
 H456 H 0.14271 0.38048 0.25591
 N457 N 0.08795 0.20331 0.74022
 N458 N 0.03943 0.20510 0.77060
 C459 C 0.04591 0.23246 0.82804
 C460 C 0.10023 0.24687 0.83134
 N461 N 0.12532 0.22816 0.77616
 H462 H 0.11942 0.27083 0.86950
 N463 N 0.59354 0.69335 0.24825
 N464 N 0.54529 0.69521 0.27922
 C465 C 0.54987 0.72967 0.33117
 C466 C 0.60269 0.74879 0.33010
 N467 N 0.62886 0.72552 0.27804
 H468 H 0.62022 0.77814 0.36363
 N469 N 0.59070 0.30247 0.25303
 N470 N 0.54139 0.29777 0.22560
 C471 C 0.54819 0.27056 0.16798
 C472 C 0.60386 0.26024 0.16081
 N473 N 0.62919 0.28067 0.21452
 H474 H 0.62381 0.23694 0.12192
 N475 N 0.08561 0.80515 0.75457
 N476 N 0.03731 0.80152 0.72417
 C477 C 0.04534 0.77246 0.66797
 C478 C 0.10064 0.75924 0.66530
 N479 N 0.12465 0.78027 0.71968
 H480 H 0.12121 0.73423 0.62843
 N481 N 0.91070 0.70035 0.75322
 N482 N 0.95973 0.70564 0.72509
 C483 C 0.95236 0.73360 0.66761
 C484 C 0.89672 0.74407 0.66142
 N485 N 0.87188 0.72272 0.71538
 H486 H 0.87640 0.76739 0.62248
 N487 N 0.41351 0.20259 0.25840
 N488 N 0.46231 0.20674 0.22932
 C489 C 0.45447 0.23225 0.17031
 C490 C 0.39869 0.24249 0.16444
 N491 N 0.37431 0.22339 0.21987
 H492 H 0.37788 0.26441 0.12478
 N493 N 0.41454 0.78927 0.23620
 N494 N 0.46348 0.78696 0.26534
 C495 C 0.45589 0.76967 0.32833
 C496 C 0.40028 0.76259 0.33646
 N497 N 0.37576 0.77485 0.27828
 H498 H 0.38005 0.74550 0.37930
 N499 N 0.90768 0.30575 0.74545
 N500 N 0.95604 0.30420 0.77631
 C501 C 0.95136 0.27067 0.82961
 C502 C 0.89839 0.25189 0.82949
 N503 N 0.87219 0.27432 0.77667
 H504 H 0.88076 0.22319 0.86420
 N505 N 0.56027 0.91925 0.65462
 N506 N 0.58604 0.92889 0.71063
 C507 C 0.62146 0.96995 0.69939
 C508 C 0.61660 0.98447 0.63410
 N509 N 0.57786 0.95221 0.60734
 H510 H 0.63556 1.01917 0.61016
 N511 N 0.13006 0.44244 1.09255
 N512 N 0.16373 0.45668 1.14013
 C513 C 0.13256 0.47575 1.18965
 C514 C 0.07819 0.47024 1.17138
 N515 N 0.07815 0.45091 1.10892
 H516 H 0.04219 0.48468 1.19796
 N517 N -0.06963 0.08329 1.14095
 N518 N -0.09833 0.07655 1.19567
 C519 C -0.13140 0.03328 1.18675
 C520 C -0.12274 0.01487 1.12365
 N521 N -0.08309 0.04619 1.09682
 H522 H -0.13774 -0.02299 1.10326
 N523 N 0.43427 0.58363 0.64741
 N524 N 0.40587 0.57655 0.70226
 C525 C 0.37071 0.53517 0.69208
 C526 C 0.37799 0.51819 0.62811
 N527 N 0.41876 0.54852 0.60194
 H528 H 0.36104 0.48173 0.60637
 N529 N 0.45386 0.43719 -0.17038
 N530 N 0.42614 0.45098 -0.22438
 C531 C 0.38323 0.48325 -0.20539
 C532 C 0.38438 0.48631 -0.13786
 N533 N 0.42969 0.45796 -0.11724
 H534 H 0.35753 0.51136 -0.10715
 N535 N -0.04268 0.93717 0.32155
 N536 N -0.07173 0.95057 0.26840
 C537 C -0.11481 0.98206 0.28870
 C538 C -0.11251 0.98481 0.35608
 N539 N -0.06627 0.95726 0.37540
 H540 H -0.13921 1.00945 0.38739
 N541 N 0.04528 0.57061 0.33370
 N542 N 0.07267 0.55713 0.27946
 C543 C 0.11370 0.52204 0.29781
 C544 C 0.11278 0.51819 0.36516
 N545 N 0.06848 0.54748 0.38638
 H546 H 0.13897 0.49176 0.39541
 N547 N 0.54411 0.06751 -0.16281
 N548 N 0.57048 0.05352 -0.21742
 C549 C 0.61351 0.02095 -0.19911
 C550 C 0.61441 0.01844 -0.13180
 N551 N 0.56941 0.04651 -0.11028
 H552 H 0.64184 -0.00688 -0.10179
 N553 N 0.65196 0.50043 -0.07362
 N554 N 0.70276 0.51931 -0.06999
 C555 C 0.70126 0.56176 -0.02743
 C556 C 0.64737 0.56832 -0.00622
 N557 N 0.61814 0.52947 -0.03546
 H558 H 0.63111 0.59666 0.03010
 N559 N 0.16139 0.99436 0.42983
 N560 N 0.21132 1.01501 0.43653
 C561 C 0.20576 1.06066 0.47387
 C562 C 0.15062 1.06746 0.48781
 N563 N 0.12439 1.02552 0.46077
 H564 H 0.13144 1.09799 0.51911
 N565 N 0.12399 -0.06760 1.09456
 N566 N 0.17387 -0.09010 1.09189
 C567 C 0.20120 -0.06623 1.04162
 C568 C 0.16538 -0.02697 1.01473
 N569 N 0.11708 -0.03030 1.04743
 H570 H 0.17237 -0.00323 0.97082
 N571 N 0.65730 0.52325 0.53583
 N572 N 0.70775 0.50305 0.52679
 C573 C 0.70453 0.44781 0.52869
 C574 C 0.65036 0.43559 0.54289
 N575 N 0.62157 0.48333 0.54377
 H576 H 0.63264 0.39547 0.54354
 N577 N -0.15461 0.50195 0.42433
 N578 N -0.20502 0.48170 0.42655
 C579 C -0.20404 0.44056 0.47161
 C580 C -0.15122 0.43677 0.49631
 N581 N -0.12168 0.47533 0.46629
 H582 H -0.13626 0.41003 0.53525
 N583 N 0.34320 0.01464 -0.03961
 N584 N 0.29253 -0.00391 -0.03243
 C585 C 0.29749 -0.05551 -0.00821
 C586 C 0.35332 -0.06812 -0.00321
 N587 N 0.38039 -0.02352 -0.02263
 H588 H 0.37273 -0.10529 0.01595
 N589 N 0.34201 0.98041 0.54538
 N590 N 0.29144 1.00100 0.53873
 C591 C 0.29489 1.05627 0.53780
 C592 C 0.34989 1.06811 0.54925
 N593 N 0.37847 1.01998 0.54922
 H594 H 0.36812 1.10792 0.54662
 N595 N -0.16115 0.47695 1.04007
 N596 N -0.21128 0.49774 1.03005
 C597 C -0.20722 0.55291 1.03010
 C598 C -0.15288 0.56456 1.04405
 N599 N -0.12487 0.51644 1.04694
 H600 H -0.13440 0.60438 1.04314
 N601 N 0.05409 0.66036 0.49574
 N602 N 0.05222 0.70903 0.52536
 C603 C 0.01897 0.70467 0.57876
 C604 C 0.00074 0.65145 0.58003
 N605 N 0.02321 0.62493 0.52791
 H606 H -0.02768 0.63385 0.61504
 N607 N 0.55158 0.16055 -0.00604
 N608 N 0.54894 0.20948 0.02274
 C609 C 0.52040 0.20377 0.07977
 C610 C 0.50614 0.14967 0.08453
 N611 N 0.52603 0.12383 0.03056
 H612 H 0.48158 0.13106 0.12290
 N613 N -0.04973 0.15946 1.00410
 N614 N -0.04615 0.20896 0.97655
 C615 C -0.01916 0.20305 0.91844
 C616 C -0.00736 0.14771 0.91141
 N617 N -0.02712 0.12170 0.96539
 H618 H 0.01587 0.12840 0.87198
 N619 N 0.45002 0.66014 0.50507
 N620 N 0.45567 0.70948 0.47779
 C621 C 0.48096 0.70256 0.41876
 C622 C 0.48910 0.64673 0.41072
 N623 N 0.46944 0.62149 0.46527
 H624 H 0.51092 0.62643 0.37091
 N625 N 0.54804 0.83763 0.50861
 N626 N 0.54525 0.78889 0.47966
 C627 C 0.51995 0.79632 0.42062
 C628 C 0.50835 0.85190 0.41460
 N629 N 0.52656 0.87653 0.47003
 H630 H 0.48608 0.87217 0.37476
 N631 N 0.04960 0.33728 1.00710
 N632 N 0.04582 0.28889 0.97749
 C633 C 0.01832 0.29697 0.91993
 C634 C 0.00648 0.35247 0.91541
 N635 N 0.02654 0.37645 0.97028
 H636 H -0.01726 0.37319 0.87717
 N637 N 0.44346 0.34057 -0.00482
 N638 N 0.44497 0.29280 0.02760
 C639 C 0.48149 0.29732 0.07774
 C640 C 0.50273 0.34890 0.07342
 N641 N 0.47837 0.37501 0.02187
 H642 H 0.53333 0.36617 0.10564
 N643 N -0.04956 0.84055 0.48639
 N644 N -0.04808 0.79249 0.51823
 C645 C -0.02012 0.79927 0.57541
 C646 C -0.00489 0.85343 0.57674
 N647 N -0.02378 0.87814 0.52090
 H648 H 0.01987 0.87270 0.61412
 N649 N 0.16953 0.30807 0.09549
 N650 N 0.17827 0.33526 0.03985
 C651 C 0.21905 0.37087 0.05125
 C652 C 0.23418 0.36477 0.11606
 N653 N 0.20259 0.32524 0.14256
 H654 H 0.26878 0.38369 0.13989
 N655 N 0.69633 0.88255 0.65911
 N656 N 0.71102 0.91576 0.61091
 C657 C 0.72815 0.88412 0.56096
 C658 C 0.72088 0.82997 0.57980
 N659 N 0.70237 0.83042 0.64284
 H660 H 0.73361 0.79360 0.55300
 N661 N 0.33171 0.68498 0.60591
 N662 N 0.32483 0.65611 0.55156
 C663 C 0.28194 0.62262 0.56160
 C664 C 0.26389 0.63133 0.62508
 N665 N 0.29517 0.67123 0.65107
 H666 H 0.22652 0.61572 0.64661
 N667 N 0.83434 0.18598 0.10083
 N668 N 0.82627 0.15860 0.04568
 C669 C 0.78508 0.12333 0.05673
 C670 C 0.76954 0.12922 0.12156
 N671 N 0.80018 0.16961 0.14740
 H672 H 0.73357 0.11175 0.14436
 N673 N 0.68521 0.20643 0.91943
 N674 N 0.70010 0.17960 0.97376
 C675 C 0.73203 0.13651 0.95485
 C676 C 0.73328 0.13634 0.88722
 N677 N 0.70488 0.18149 0.86620
 H678 H 0.75766 0.10893 0.85650
 N679 N 0.18664 0.70530 0.41958
 N680 N 0.19948 0.67850 0.47467
 C681 C 0.23179 0.63511 0.45758
 C682 C 0.23551 0.63485 0.39003
 N683 N 0.20793 0.68005 0.36747
 H684 H 0.26080 0.60724 0.36063
 N685 N 0.82057 0.79462 0.41636
 N686 N 0.80757 0.82234 0.47038
 C687 C 0.77265 0.86355 0.45206
 C688 C 0.76829 0.86222 0.38475
 N689 N 0.79739 0.81777 0.36368
 H690 H 0.74196 0.88852 0.35453
 N691 N 0.31721 0.29554 0.91273
 N692 N 0.30330 0.32154 0.96744
 C693 C 0.26985 0.36406 0.94963
 C694 C 0.26657 0.36502 0.88244
 N695 N 0.29516 0.32050 0.86059
 H696 H 0.24043 0.39205 0.85289
 N697 N 0.74744 0.40381 0.82349
 N698 N 0.76792 0.45408 0.82151
 C699 C 0.80955 0.45303 0.77730
 C700 C 0.81330 0.40030 0.75279
 N701 N 0.77431 0.37090 0.78213
 H702 H 0.84039 0.38524 0.71451
 N703 N 0.23762 0.90363 0.30305
 N704 N 0.25657 0.95425 0.29920
 C705 C 0.30656 0.95031 0.27029
 C706 C 0.31795 0.89569 0.25881
 N707 N 0.27414 0.86807 0.27874
 H708 H 0.35288 0.87780 0.23352
 N709 N 0.26942 0.90875 0.70866
 N710 N 0.24971 0.95960 0.71436
 C711 C 0.19440 0.95706 0.71209
 C712 C 0.18171 0.90251 0.69990
 N713 N 0.22917 0.87317 0.70255
 H714 H 0.14146 0.88495 0.69904
 N715 N 0.77458 0.40762 0.21293
 N716 N 0.75420 0.45795 0.22171
 C717 C 0.69888 0.45470 0.21967
 C718 C 0.68686 0.40065 0.20560
 N719 N 0.73471 0.37191 0.20499
 H720 H 0.64668 0.38303 0.20482
 N721 N 0.75278 0.59428 0.32428
 N722 N 0.73274 0.54391 0.32137
 C723 C 0.69118 0.54554 0.27711
 C724 C 0.68674 0.59877 0.25381
 N725 N 0.72553 0.62789 0.28366
 H726 H 0.65955 0.61428 0.21569
 N727 N 0.25242 0.09553 0.81613
 N728 N 0.23265 0.04512 0.81117
 C729 C 0.18839 0.04848 0.77080
 C730 C 0.18158 0.10307 0.75313
 N731 N 0.22217 0.13105 0.78116
 H732 H 0.15204 0.12040 0.71885
 N733 N 0.23814 0.09262 0.19190
 N734 N 0.25745 0.04146 0.19805
 C735 C 0.30990 0.04454 0.21945
 C736 C 0.32198 0.09952 0.22433
 N737 N 0.27616 0.12831 0.20830
 H738 H 0.35809 0.11607 0.24707
 N739 N 0.72894 0.59161 0.70723
 N740 N 0.74882 0.54128 0.71791
 C741 C 0.80404 0.54484 0.72018
 C742 C 0.81680 0.59903 0.70679
 N743 N 0.76908 0.62750 0.70222
 H744 H 0.85677 0.61708 0.70867
 N745 N 0.91092 0.80407 0.25234
 N746 N 0.95979 0.80160 0.22267
 C747 C 0.95574 0.76703 0.17080
 C748 C 0.90247 0.74882 0.17028
 N749 N 0.87562 0.77247 0.22153
 H750 H 0.88497 0.72004 0.13601
 N751 N 0.40815 0.30241 0.75466
 N752 N 0.45727 0.29916 0.72582
 C753 C 0.45177 0.26981 0.66966
 C754 C 0.39734 0.25580 0.66547
 N755 N 0.37128 0.27664 0.71894
 H756 H 0.37871 0.23068 0.62802
 N757 N 0.40536 0.76317 0.74266
 N758 N 0.45007 0.77670 0.77500
 C759 C 0.44784 0.75406 0.83579
 C760 C 0.39828 0.72567 0.83855
 N761 N 0.37266 0.73242 0.77912
 H762 H 0.38133 0.70459 0.88086
 N763 N 0.91099 0.19844 0.24701
 N764 N 0.96009 0.20384 0.27471
 C765 C 0.95279 0.23064 0.33257
 C766 C 0.89696 0.24004 0.33948
 N767 N 0.87209 0.21949 0.28548
 H768 H 0.87647 0.26312 0.37812
 N769 N 0.08824 0.29520 0.24066
 N770 N 0.03928 0.29307 0.26974
 C771 C 0.04654 0.26937 0.32987
 C772 C 0.10213 0.25800 0.33636
 N773 N 0.12696 0.27471 0.28015
 H774 H 0.12228 0.23679 0.37710
 N775 N 0.59044 0.73579 0.74069
 N776 N 0.54635 0.72316 0.77505
 C777 C 0.54930 0.74814 0.83410
 C778 C 0.59866 0.77689 0.83372
 N779 N 0.62341 0.76815 0.77414
 H780 H 0.61617 0.79933 0.87430
 N781 N 0.58842 0.20023 0.75943
 N782 N 0.53967 0.20278 0.72950
 C783 C 0.54615 0.23000 0.67152
 C784 C 0.60069 0.24339 0.66743
 N785 N 0.62594 0.22448 0.72270
 H786 H 0.61991 0.26711 0.62870
 N787 N 0.09271 0.70338 0.26240
 N788 N 0.04357 0.70766 0.23379
 C789 C 0.05070 0.72760 0.17183
 C790 C 0.10664 0.73430 0.16393
 N791 N 0.13163 0.71894 0.22108
 H792 H 0.12710 0.75255 0.12205
   
