data_POSCAR
  _audit_creation_date              2014-09-24
  _audit_creation_method            'ToBaCCo'
  _symmetry_space_group_name_H-M    'P1'
  _symmetry_Int_Tables_number       1
  _symmetry_cell_setting            triclinic
  loop_
  _symmetry_equiv_pos_as_xyz
 x,y,z
_cell_length_a 44.3335
_cell_length_b 46.5584
_cell_length_c 34.4111
_cell_angle_alpha 89.973300
_cell_angle_beta 89.314700
_cell_angle_gamma 89.970100
loop_
  _atom_site_label
  _atom_site_type_symbol
  _atom_site_fract_x
  _atom_site_fract_y
  _atom_site_fract_z
C1 C 0.27434 0.27951 0.23301
 C2 C 0.25012 0.26434 0.24985
 C3 C 0.22593 0.27955 0.26670
 C4 C 0.22611 0.30963 0.26706
 C5 C 0.25017 0.32461 0.24987
 C6 C 0.27420 0.30959 0.23266
 C7 C 0.25010 0.23263 0.24985
 C8 C 0.27422 0.21741 0.26611
 C9 C 0.27403 0.18733 0.26649
 C10 C 0.25004 0.17235 0.24989
 C11 C 0.22607 0.18740 0.23326
 C12 C 0.22594 0.21748 0.23361
 H13 H 0.29296 0.26791 0.21962
 H14 H 0.20729 0.26798 0.28008
 H15 H 0.29281 0.22897 0.27904
 H16 H 0.20738 0.22909 0.22067
 H17 H 0.25019 0.34791 0.24988
 H18 H 0.25001 0.14905 0.24991
 C19 C 0.77415 0.78083 0.23285
 C20 C 0.75001 0.76563 0.24982
 C21 C 0.72584 0.78078 0.26682
 C22 C 0.72596 0.81088 0.26723
 C23 C 0.74996 0.82592 0.24989
 C24 C 0.77398 0.81093 0.23251
 C25 C 0.75004 0.73393 0.24980
 C26 C 0.77415 0.71874 0.26619
 C27 C 0.77401 0.68867 0.26655
 C28 C 0.75011 0.67365 0.24980
 C29 C 0.72617 0.68866 0.23305
 C30 C 0.72597 0.71874 0.23342
 H31 H 0.79272 0.76918 0.21938
 H32 H 0.70730 0.76910 0.28027
 H33 H 0.79266 0.73034 0.27923
 H34 H 0.70743 0.73032 0.22039
 H35 H 0.74994 0.84924 0.24992
 H36 H 0.75013 0.65035 0.24980
 C37 C 0.77406 0.27960 0.73429
 C38 C 0.74987 0.26443 0.75119
 C39 C 0.72566 0.27963 0.76804
 C40 C 0.72581 0.30973 0.76835
 C41 C 0.74986 0.32471 0.75106
 C42 C 0.77389 0.30968 0.73386
 C43 C 0.74989 0.23273 0.75123
 C44 C 0.77400 0.21754 0.76759
 C45 C 0.77387 0.18744 0.76797
 C46 C 0.74992 0.17244 0.75122
 C47 C 0.72598 0.18747 0.73451
 C48 C 0.72580 0.21754 0.73488
 H49 H 0.79268 0.26800 0.72090
 H50 H 0.70707 0.26799 0.78145
 H51 H 0.79251 0.22920 0.78058
 H52 H 0.70726 0.22913 0.72186
 H53 H 0.74993 0.34802 0.75095
 H54 H 0.74986 0.14913 0.75115
 C55 C 0.27466 0.78041 0.73269
 C56 C 0.25045 0.76522 0.74953
 C57 C 0.22623 0.78040 0.76635
 C58 C 0.22636 0.81048 0.76670
 C59 C 0.25040 0.82550 0.74951
 C60 C 0.27449 0.81051 0.73230
 C61 C 0.25046 0.73351 0.74955
 C62 C 0.27461 0.71831 0.76580
 C63 C 0.27445 0.68823 0.76618
 C64 C 0.25047 0.67323 0.74959
 C65 C 0.22648 0.68825 0.73298
 C66 C 0.22632 0.71833 0.73332
 H67 H 0.29327 0.76875 0.71933
 H68 H 0.20761 0.76882 0.77973
 H69 H 0.29318 0.72989 0.77872
 H70 H 0.20774 0.72992 0.72038
 H71 H 0.25030 0.84881 0.74955
 H72 H 0.25047 0.64994 0.74961
 C73 C 0.04047 0.04547 0.01417
 H74 H 0.04067 0.04698 -0.01721
 C75 C 0.05886 0.06351 0.03597
 H76 H 0.07337 0.07893 0.02138
 C77 C 0.02142 0.02345 0.07160
 H78 H 0.00662 0.00802 0.08540
 C79 C 0.03948 0.04110 0.09450
 H80 H 0.03875 0.03900 0.12585
 N81 N 0.02264 0.02559 0.03214
 C82 C 0.01169 -0.04225 -0.05408
 H83 H -0.01264 -0.04359 -0.05544
 C84 C 0.02959 -0.06071 -0.07660
 H85 H 0.01907 -0.07626 -0.09553
 C86 C 0.05524 -0.02071 -0.02734
 H87 H 0.06522 -0.00548 -0.00766
 C88 C 0.07393 -0.03874 -0.04932
 H89 H 0.09820 -0.03709 -0.04678
 Zn90 Zn -0.00076 0.00152 -0.00004
 N91 N 0.02471 -0.02251 -0.03042
 C92 C -0.02295 0.02367 -0.07158
 N93 N -0.02419 0.02568 -0.03212
 C94 C -0.04204 0.04551 -0.01407
 C95 C -0.06043 0.06363 -0.03578
 C96 C -0.04101 0.04141 -0.09441
 C97 C -0.01313 -0.04242 0.05381
 C98 C -0.03098 -0.06093 0.07630
 C99 C -0.07538 -0.03888 0.04917
 C100 C -0.05673 -0.02079 0.02722
 N101 N -0.02619 -0.02260 0.03025
 H102 H -0.00813 0.00828 -0.08545
 H103 H -0.04225 0.04691 0.01732
 H104 H -0.07495 0.07902 -0.02114
 H105 H -0.04026 0.03942 -0.12578
 H106 H 0.01120 -0.04376 0.05513
 H107 H -0.02043 -0.07652 0.09516
 H108 H -0.09965 -0.03721 0.04668
 H109 H -0.06673 -0.00550 0.00762
 C110 C 0.06100 -0.05884 -0.07425
 C111 C 0.05853 0.06114 0.07647
 C112 C -0.06240 -0.05905 0.07400
 C113 C -0.06007 0.06140 -0.07630
 C114 C 0.04118 0.54556 0.51433
 H115 H 0.04136 0.54701 0.48295
 C116 C 0.05956 0.56366 0.53604
 H117 H 0.07405 0.57907 0.52139
 C118 C 0.02216 0.52366 0.57185
 H119 H 0.00736 0.50825 0.58573
 C120 C 0.04021 0.54138 0.59468
 H121 H 0.03948 0.53935 0.62604
 N122 N 0.02336 0.52572 0.53239
 C123 C 0.01221 0.45775 0.44642
 H124 H -0.01212 0.45644 0.44515
 C125 C 0.03003 0.43921 0.42392
 H126 H 0.01946 0.42363 0.40510
 C127 C 0.05585 0.47930 0.47292
 H128 H 0.06589 0.49456 0.49250
 C129 C 0.07447 0.46119 0.45096
 H130 H 0.09875 0.46281 0.45340
 Zn131 Zn -0.00009 0.50162 0.50032
 N132 N 0.02532 0.47753 0.46995
 C133 C -0.02228 0.52371 0.42876
 N134 N -0.02353 0.52574 0.46822
 C135 C -0.04138 0.54559 0.48624
 C136 C -0.05973 0.56373 0.46449
 C137 C -0.04029 0.54146 0.40590
 C138 C -0.01236 0.45774 0.55426
 C139 C -0.03017 0.43920 0.57677
 C140 C -0.07462 0.46121 0.54974
 C141 C -0.05602 0.47933 0.52777
 N142 N -0.02548 0.47754 0.53073
 H143 H -0.00746 0.50830 0.41492
 H144 H -0.04160 0.54702 0.51763
 H145 H -0.07423 0.57914 0.47910
 H146 H -0.03952 0.53946 0.37454
 H147 H 0.01197 0.45642 0.55552
 H148 H -0.01958 0.42361 0.59559
 H149 H -0.09890 0.46285 0.54730
 H150 H -0.06607 0.49461 0.50819
 C151 C 0.06145 0.44104 0.42617
 C152 C 0.05923 0.56139 0.57656
 C153 C -0.06159 0.44104 0.57453
 C154 C -0.05934 0.56148 0.42397
 C155 C 0.54155 0.04479 0.51456
 H156 H 0.54183 0.04624 0.48318
 C157 C 0.55985 0.06290 0.53638
 H158 H 0.57438 0.07831 0.52182
 C159 C 0.52235 0.02287 0.57197
 H160 H 0.50751 0.00746 0.58576
 C161 C 0.54031 0.04059 0.59490
 H162 H 0.53948 0.03856 0.62626
 N163 N 0.52368 0.02494 0.53252
 C164 C 0.51284 -0.04300 0.44641
 H165 H 0.48851 -0.04435 0.44503
 C166 C 0.53075 -0.06146 0.42390
 H167 H 0.52024 -0.07701 0.40497
 C168 C 0.55638 -0.02142 0.47313
 H169 H 0.56634 -0.00617 0.49279
 C170 C 0.57508 -0.03945 0.45117
 H171 H 0.59935 -0.03778 0.45369
 Zn172 Zn 0.50034 0.00083 0.50032
 N173 N 0.52585 -0.02324 0.47004
 C174 C 0.47829 0.02289 0.42865
 N175 N 0.47697 0.02495 0.46811
 C176 C 0.45908 0.04479 0.48606
 C177 C 0.44072 0.06288 0.46424
 C178 C 0.46027 0.04059 0.40572
 C179 C 0.48786 -0.04303 0.55424
 C180 C 0.46996 -0.06152 0.57672
 C181 C 0.42563 -0.03951 0.54936
 C182 C 0.44432 -0.02145 0.52744
 N183 N 0.47485 -0.02325 0.53059
 H184 H 0.49314 0.00749 0.41487
 H185 H 0.45880 0.04624 0.51744
 H186 H 0.42616 0.07828 0.47880
 H187 H 0.46108 0.03856 0.37437
 H188 H 0.51219 -0.04437 0.55566
 H189 H 0.48047 -0.07708 0.59566
 H190 H 0.40135 -0.03785 0.54678
 H191 H 0.43436 -0.00619 0.50776
 C192 C 0.56215 -0.05957 0.42625
 C193 C 0.55939 0.06061 0.57690
 C194 C 0.43855 -0.05964 0.57430
 C195 C 0.44116 0.06059 0.42373
 C196 C 0.54193 0.54530 0.01358
 H197 H 0.54218 0.54669 -0.01781
 C198 C 0.56024 0.56346 0.03531
 H199 H 0.57475 0.57885 0.02066
 C200 C 0.52279 0.52349 0.07110
 H201 H 0.50797 0.50810 0.08496
 C202 C 0.54076 0.54126 0.09394
 H203 H 0.53996 0.53930 0.12530
 N204 N 0.52408 0.52548 0.03163
 C205 C 0.51302 0.45740 -0.05421
 H206 H 0.48868 0.45610 -0.05553
 C207 C 0.53085 0.43881 -0.07661
 H208 H 0.52029 0.42320 -0.09540
 C209 C 0.55664 0.47897 -0.02769
 H210 H 0.56665 0.49426 -0.00814
 C211 C 0.57527 0.46081 -0.04955
 H212 H 0.59955 0.46242 -0.04706
 Zn213 Zn 0.50067 0.50134 -0.00044
 N214 N 0.52610 0.47721 -0.03072
 C215 C 0.47850 0.52335 -0.07207
 N216 N 0.47726 0.52544 -0.03262
 C217 C 0.45942 0.54531 -0.01464
 C218 C 0.44108 0.56343 -0.03644
 C219 C 0.46049 0.54107 -0.09498
 C220 C 0.48831 0.45753 0.05357
 C221 C 0.47047 0.43901 0.07608
 C222 C 0.42606 0.46100 0.04889
 C223 C 0.44470 0.47909 0.02693
 N224 N 0.47523 0.47730 0.02997
 H225 H 0.49331 0.50791 -0.08587
 H226 H 0.45920 0.54678 0.01674
 H227 H 0.42658 0.57886 -0.02186
 H228 H 0.46126 0.53902 -0.12633
 H229 H 0.51265 0.45620 0.05490
 H230 H 0.48103 0.42344 0.09496
 H231 H 0.40179 0.46263 0.04638
 H232 H 0.43469 0.49435 0.00729
 C233 C 0.56227 0.44062 -0.07430
 C234 C 0.55981 0.56126 0.07583
 C235 C 0.43906 0.44086 0.07375
 C236 C 0.44146 0.56112 -0.07695
 C237 C 0.20223 -0.17396 -0.21451
 C238 C 0.18248 -0.16057 -0.19833
 C239 C 0.15949 -0.14415 -0.17853
 C240 C 0.15057 -0.11746 -0.19333
 C241 C 0.12941 -0.10078 -0.17300
 C242 C 0.11709 -0.11071 -0.13780
 C243 C 0.12571 -0.13756 -0.12327
 C244 C 0.14687 -0.15425 -0.14359
 C245 C 0.09664 -0.09282 -0.11583
 C246 C 0.08007 -0.07750 -0.09706
 H247 H 0.16028 -0.10939 -0.22023
 H248 H 0.12301 -0.07999 -0.18442
 H249 H 0.11643 -0.14539 -0.09599
 H250 H 0.15370 -0.17481 -0.13181
 C251 C 0.20203 0.32523 0.28589
 C252 C 0.18234 0.33869 0.30209
 C253 C 0.15944 0.35519 0.32193
 C254 C 0.15025 0.38168 0.30679
 C255 C 0.12920 0.39848 0.32712
 C256 C 0.11726 0.38885 0.36269
 C257 C 0.12614 0.36218 0.37758
 C258 C 0.14719 0.34538 0.35724
 C259 C 0.09692 0.40687 0.38464
 C260 C 0.08044 0.42228 0.40339
 H261 H 0.15967 0.38953 0.27960
 H262 H 0.12259 0.41913 0.31543
 H263 H 0.11715 0.35459 0.40513
 H264 H 0.15424 0.32498 0.36929
 C265 C 0.70319 -0.17441 0.28522
 C266 C 0.68347 -0.16106 0.30152
 C267 C 0.66051 -0.14470 0.32148
 C268 C 0.65137 -0.11810 0.30665
 C269 C 0.63026 -0.10145 0.32710
 C270 C 0.61821 -0.11133 0.36248
 C271 C 0.62706 -0.13811 0.37706
 C272 C 0.64817 -0.15476 0.35660
 C273 C 0.59778 -0.09348 0.38455
 C274 C 0.58123 -0.07820 0.40339
 H275 H 0.66087 -0.11006 0.27960
 H276 H 0.62367 -0.08072 0.31564
 H277 H 0.61798 -0.14590 0.40447
 H278 H 0.65518 -0.17524 0.36842
 C279 C 0.70300 0.32451 -0.21385
 C280 C 0.68327 0.33796 -0.19772
 C281 C 0.66033 0.35448 -0.17799
 C282 C 0.64827 0.34489 -0.14247
 C283 C 0.62721 0.36174 -0.12223
 C284 C 0.61811 0.38824 -0.13744
 C285 C 0.62986 0.39765 -0.17321
 C286 C 0.65093 0.38081 -0.19345
 C287 C 0.59776 0.40632 -0.11560
 C288 C 0.58127 0.42179 -0.09696
 H289 H 0.65549 0.32463 -0.13017
 H290 H 0.61837 0.35432 -0.09451
 H291 H 0.62309 0.41817 -0.18516
 H292 H 0.66020 0.38849 -0.22080
 C293 C -0.20339 0.17273 -0.21467
 C294 C -0.18363 0.15948 -0.19887
 C295 C -0.16056 0.14337 -0.17945
 C296 C -0.14623 0.15498 -0.14696
 C297 C -0.12484 0.13878 -0.12695
 C298 C -0.11769 0.11091 -0.13936
 C299 C -0.13176 0.09943 -0.17212
 C300 C -0.15316 0.11563 -0.19212
 C301 C -0.09681 0.09372 -0.11766
 C302 C -0.07979 0.07910 -0.09904
 H303 H -0.15188 0.17637 -0.13682
 H304 H -0.11419 0.14782 -0.10157
 H305 H -0.12649 0.07786 -0.18187
 H306 H -0.16418 0.10640 -0.21712
 C307 C -0.20200 0.67313 0.28495
 C308 C -0.18232 0.65985 0.30086
 C309 C -0.15935 0.64369 0.32040
 C310 C -0.14526 0.65518 0.35315
 C311 C -0.12398 0.63893 0.37327
 C312 C -0.11669 0.61113 0.36072
 C313 C -0.13052 0.59977 0.32771
 C314 C -0.15180 0.61602 0.30759
 C315 C -0.09591 0.59388 0.38251
 C316 C -0.07898 0.57922 0.40119
 H317 H -0.15101 0.67652 0.36339
 H318 H -0.11351 0.64788 0.39884
 H319 H -0.12514 0.57825 0.31784
 H320 H -0.16264 0.60688 0.28240
 C321 C 0.29806 0.17177 0.28479
 C322 C 0.31778 0.15850 0.30062
 C323 C 0.34082 0.14239 0.32011
 C324 C 0.35537 0.15416 0.35232
 C325 C 0.37673 0.13799 0.37241
 C326 C 0.38363 0.10998 0.36036
 C327 C 0.36934 0.09833 0.32787
 C328 C 0.34797 0.11451 0.30779
 C329 C 0.40448 0.09282 0.38217
 C330 C 0.42147 0.07824 0.40088
 H331 H 0.34992 0.17567 0.36219
 H332 H 0.38756 0.14716 0.39759
 H333 H 0.37442 0.07665 0.31840
 H334 H 0.33677 0.10516 0.28300
 C335 C 0.29850 0.67268 -0.21555
 C336 C 0.31823 0.65940 -0.19976
 C337 C 0.34126 0.64325 -0.18033
 C338 C 0.34851 0.61544 -0.19288
 C339 C 0.36985 0.59919 -0.17285
 C340 C 0.38402 0.61070 -0.14018
 C341 C 0.37704 0.63864 -0.12791
 C342 C 0.35570 0.65488 -0.14794
 C343 C 0.40484 0.59347 -0.11843
 C344 C 0.42180 0.57883 -0.09976
 H345 H 0.33739 0.60619 -0.21780
 H346 H 0.37500 0.57757 -0.18250
 H347 H 0.38778 0.64770 -0.10259
 H348 H 0.35018 0.67632 -0.13790
 C349 C -0.20327 -0.17432 0.21458
 C350 C -0.18355 -0.16093 0.19833
 C351 C -0.16062 -0.14450 0.17845
 C352 C -0.14829 -0.15444 0.14326
 C353 C -0.12720 -0.13773 0.12287
 C354 C -0.11834 -0.11101 0.13760
 C355 C -0.13037 -0.10126 0.17305
 C356 C -0.15146 -0.11797 0.19343
 C357 C -0.09795 -0.09309 0.11559
 C358 C -0.08143 -0.07775 0.09681
 H359 H -0.15531 -0.17487 0.13133
 H360 H -0.11814 -0.14542 0.09541
 H361 H -0.12378 -0.08058 0.18462
 H362 H -0.16095 -0.11002 0.22053
 C363 C -0.20203 0.32524 0.71497
 C364 C -0.18235 0.33867 0.69873
 C365 C -0.15946 0.35516 0.67886
 C366 C -0.15018 0.38159 0.69407
 C367 C -0.12916 0.39839 0.67371
 C368 C -0.11734 0.38884 0.63804
 C369 C -0.12632 0.36224 0.62308
 C370 C -0.14734 0.34543 0.64345
 C371 C -0.09702 0.40686 0.61607
 C372 C -0.08056 0.42228 0.59731
 H373 H -0.15951 0.38937 0.72134
 H374 H -0.12247 0.41898 0.68546
 H375 H -0.11742 0.35470 0.59545
 H376 H -0.15446 0.32509 0.63135
 C377 C 0.29730 -0.17475 0.71448
 C378 C 0.31706 -0.16136 0.69832
 C379 C 0.34006 -0.14496 0.67852
 C380 C 0.35263 -0.15502 0.64355
 C381 C 0.37379 -0.13834 0.62322
 C382 C 0.38245 -0.11152 0.63780
 C383 C 0.37017 -0.10163 0.67304
 C384 C 0.34902 -0.11832 0.69336
 C385 C 0.40290 -0.09363 0.61584
 C386 C 0.41947 -0.07831 0.59709
 H387 H 0.34577 -0.17554 0.63173
 H388 H 0.38304 -0.14613 0.59592
 H389 H 0.37661 -0.08088 0.68449
 H390 H 0.33934 -0.11027 0.72029
 C391 C 0.29831 0.32516 0.21385
 C392 C 0.31802 0.33859 0.19768
 C393 C 0.34096 0.35508 0.17788
 C394 C 0.35331 0.34523 0.14266
 C395 C 0.37438 0.36202 0.12235
 C396 C 0.38318 0.38872 0.13718
 C397 C 0.37113 0.39838 0.17266
 C398 C 0.35006 0.38160 0.19297
 C399 C 0.40354 0.40671 0.11525
 C400 C 0.42004 0.42211 0.09651
 H401 H 0.34632 0.32482 0.13065
 H402 H 0.38345 0.35440 0.09485
 H403 H 0.37768 0.41904 0.18431
 H404 H 0.34055 0.38947 0.22009
 C405 C 0.20200 0.17190 0.21502
 C406 C 0.18224 0.15869 0.19924
 C407 C 0.15914 0.14264 0.17982
 C408 C 0.15202 0.11474 0.19211
 C409 C 0.13060 0.09862 0.17208
 C410 C 0.11621 0.11035 0.13969
 C411 C 0.12308 0.13837 0.12768
 C412 C 0.14450 0.15449 0.14771
 C413 C 0.09530 0.09326 0.11795
 C414 C 0.07827 0.07873 0.09927
 H415 H 0.16330 0.10533 0.21681
 H416 H 0.12555 0.07693 0.18153
 H417 H 0.11217 0.14761 0.10258
 H418 H 0.14991 0.17601 0.13787
 C419 C 0.20243 0.67272 0.71475
 C420 C 0.18268 0.65947 0.69899
 C421 C 0.15963 0.64335 0.67960
 C422 C 0.15228 0.61560 0.69230
 C423 C 0.13090 0.59939 0.67233
 C424 C 0.11679 0.61088 0.63957
 C425 C 0.12388 0.63876 0.62715
 C426 C 0.14526 0.65496 0.64713
 C427 C 0.09593 0.59369 0.61790
 C428 C 0.07893 0.57907 0.59929
 H429 H 0.16334 0.60637 0.71729
 H430 H 0.12567 0.57782 0.68209
 H431 H 0.11319 0.64781 0.60177
 H432 H 0.15085 0.67636 0.63698
 C433 C 0.70200 0.17194 0.71611
 C434 C 0.68232 0.15869 0.70021
 C435 C 0.65935 0.14258 0.68066
 C436 C 0.65196 0.11481 0.69327
 C437 C 0.63068 0.09861 0.67314
 C438 C 0.61669 0.11010 0.64030
 C439 C 0.62382 0.13800 0.62795
 C440 C 0.64510 0.15420 0.64809
 C441 C 0.59592 0.09291 0.61847
 C442 C 0.57900 0.07830 0.59975
 H443 H 0.66293 0.10558 0.71832
 H444 H 0.62542 0.07702 0.68285
 H445 H 0.61323 0.14705 0.60251
 H446 H 0.65073 0.17561 0.63800
 C447 C 0.70221 0.67310 0.21465
 C448 C 0.68255 0.65981 0.19877
 C449 C 0.65962 0.64363 0.17924
 C450 C 0.65197 0.61603 0.19227
 C451 C 0.63073 0.59975 0.17219
 C452 C 0.61704 0.61100 0.13899
 C453 C 0.62442 0.63873 0.12622
 C454 C 0.64567 0.65501 0.14631
 C455 C 0.59630 0.59372 0.11724
 C456 C 0.57941 0.57903 0.09859
 H457 H 0.66271 0.60698 0.21761
 H458 H 0.62527 0.57829 0.18223
 H459 H 0.61406 0.64759 0.10050
 H460 H 0.65150 0.67629 0.13590
   
