data_POSCAR
  _audit_creation_date              2014-09-24
  _audit_creation_method            'ToBaCCo'
  _symmetry_space_group_name_H-M    'P1'
  _symmetry_Int_Tables_number       1
  _symmetry_cell_setting            triclinic
  loop_
  _symmetry_equiv_pos_as_xyz
 x,y,z
_cell_length_a 37.9059
_cell_length_b 42.4668
_cell_length_c 41.5481
_cell_angle_alpha 89.307000
_cell_angle_beta 89.017700
_cell_angle_gamma 89.978000
loop_
  _atom_site_label
  _atom_site_type_symbol
  _atom_site_fract_x
  _atom_site_fract_y
  _atom_site_fract_z
C1 C 0.27764 0.29619 0.23363
 C2 C 0.25975 0.27976 0.25839
 C3 C 0.24494 0.29628 0.28429
 C4 C 0.24774 0.32923 0.28555
 C5 C 0.26700 0.34529 0.26135
 C6 C 0.28157 0.32906 0.23505
 C7 C 0.25631 0.24523 0.25726
 C8 C 0.27054 0.22637 0.28171
 C9 C 0.26666 0.19350 0.28118
 C10 C 0.24718 0.17976 0.25661
 C11 C 0.23252 0.19851 0.23205
 C12 C 0.23793 0.23118 0.23223
 H13 H 0.28944 0.28311 0.21399
 H14 H 0.23124 0.28333 0.30332
 H15 H 0.28451 0.23740 0.30112
 H16 H 0.22684 0.24589 0.21344
 H17 H 0.26975 0.37067 0.26247
 H18 H 0.24454 0.15439 0.25626
 C19 C 0.75695 0.77258 0.21861
 C20 C 0.74023 0.75745 0.24486
 C21 C 0.72561 0.77539 0.26990
 C22 C 0.72725 0.80856 0.26883
 C23 C 0.74547 0.82319 0.24289
 C24 C 0.76101 0.80545 0.21789
 C25 C 0.73976 0.72268 0.24708
 C26 C 0.75442 0.70748 0.27388
 C27 C 0.75543 0.67446 0.27593
 C28 C 0.74013 0.65686 0.25148
 C29 C 0.72467 0.67163 0.22478
 C30 C 0.72524 0.70473 0.22242
 H31 H 0.76859 0.75844 0.19962
 H32 H 0.71315 0.76293 0.28983
 H33 H 0.76509 0.72163 0.29288
 H34 H 0.71447 0.71681 0.20175
 H35 H 0.74639 0.84864 0.24190
 H36 H 0.74027 0.63136 0.25325
 C37 C 0.77161 0.26808 0.71444
 C38 C 0.75506 0.25261 0.74054
 C39 C 0.73989 0.27014 0.76561
 C40 C 0.74022 0.30338 0.76436
 C41 C 0.75726 0.31842 0.73800
 C42 C 0.77375 0.30101 0.71337
 C43 C 0.75421 0.21789 0.74189
 C44 C 0.77273 0.20166 0.76588
 C45 C 0.77313 0.16845 0.76683
 C46 C 0.75390 0.15210 0.74369
 C47 C 0.73461 0.16803 0.72001
 C48 C 0.73539 0.20112 0.71893
 H49 H 0.78376 0.25435 0.69542
 H50 H 0.72776 0.25733 0.78548
 H51 H 0.78740 0.21536 0.78282
 H52 H 0.72170 0.21413 0.70043
 H53 H 0.75717 0.34388 0.73653
 H54 H 0.75366 0.12655 0.74419
 C55 C 0.26160 0.78963 0.72953
 C56 C 0.24396 0.77194 0.75347
 C57 C 0.22267 0.78699 0.77635
 C58 C 0.21873 0.81975 0.77566
 C59 C 0.23658 0.83748 0.75163
 C60 C 0.25846 0.82279 0.72847
 C61 C 0.24702 0.73742 0.75430
 C62 C 0.26767 0.72261 0.77764
 C63 C 0.26952 0.68964 0.77965
 C64 C 0.24933 0.67162 0.75847
 C65 C 0.22876 0.68624 0.73479
 C66 C 0.22789 0.71929 0.73277
 H67 H 0.27723 0.77695 0.71202
 H68 H 0.20883 0.77301 0.79456
 H69 H 0.28234 0.73687 0.79425
 H70 H 0.21120 0.73115 0.71554
 H71 H 0.23294 0.86276 0.75048
 H72 H 0.24892 0.64620 0.76052
 C73 C 0.04505 0.05683 0.03430
 H74 H 0.04908 0.06119 0.00879
 C75 C 0.06313 0.07490 0.05655
 H76 H 0.08073 0.09321 0.04774
 C77 C 0.01583 0.02861 0.07639
 H78 H -0.00296 0.01091 0.08420
 C79 C 0.03316 0.04621 0.09943
 H80 H 0.02782 0.04152 0.12473
 N81 N 0.02262 0.03359 0.04447
 C82 C 0.02222 -0.03779 -0.03049
 H83 H -0.00526 -0.04451 -0.02929
 C84 C 0.04539 -0.05396 -0.05091
 H85 H 0.03505 -0.07289 -0.06510
 C86 C 0.06900 -0.00672 -0.01130
 H87 H 0.07847 0.01122 0.00449
 C88 C 0.09308 -0.02223 -0.03138
 H89 H 0.12068 -0.01565 -0.03104
 Zn90 Zn 0.00002 0.00794 0.01361
 N91 N 0.03405 -0.01403 -0.01185
 C92 C -0.04439 0.02050 -0.03900
 N93 N -0.02831 0.03370 -0.01347
 C94 C -0.03247 0.06483 -0.00706
 C95 C -0.05268 0.08403 -0.02711
 C96 C -0.06490 0.03875 -0.05965
 C97 C -0.01223 -0.04415 0.05411
 C98 C -0.03204 -0.06551 0.07270
 C99 C -0.08515 -0.04315 0.05054
 C100 C -0.06426 -0.02176 0.03291
 N101 N -0.02855 -0.02238 0.03532
 H102 H -0.04163 -0.00436 -0.04332
 H103 H -0.02029 0.07490 0.01374
 H104 H -0.05535 0.10879 -0.02151
 H105 H -0.07728 0.02687 -0.07928
 H106 H 0.01625 -0.04420 0.05545
 H107 H -0.01845 -0.08198 0.08829
 H108 H -0.11346 -0.04114 0.04881
 H109 H -0.07672 -0.00413 0.01797
 C110 C 0.08130 -0.04568 -0.05208
 C111 C 0.05775 0.06917 0.08967
 C112 C -0.06906 -0.06517 0.07132
 C113 C -0.06904 0.07127 -0.05413
 C114 C 0.07068 0.53833 0.51544
 H115 H 0.08091 0.52298 0.49697
 C116 C 0.09387 0.55749 0.53213
 H117 H 0.12189 0.55640 0.52666
 C118 C 0.02187 0.55932 0.54441
 H119 H -0.00634 0.56009 0.54875
 C120 C 0.04414 0.57862 0.56190
 H121 H 0.03273 0.59449 0.57941
 N122 N 0.03547 0.53906 0.52234
 C123 C 0.02079 0.48449 0.44083
 H124 H 0.00052 0.49954 0.43109
 C125 C 0.03923 0.46414 0.42046
 H126 H 0.03328 0.46396 0.39505
 C127 C 0.05244 0.46549 0.48577
 H128 H 0.05703 0.46593 0.51139
 C129 C 0.07181 0.44504 0.46620
 H130 H 0.09100 0.42953 0.47708
 Zn131 Zn 0.00346 0.51272 0.50072
 N132 N 0.02809 0.48519 0.47276
 C133 C -0.01162 0.55871 0.45460
 N134 N -0.02695 0.53929 0.47697
 C135 C -0.06244 0.53951 0.48228
 C136 C -0.08417 0.55886 0.46372
 C137 C -0.03226 0.57839 0.43548
 C138 C -0.01510 0.48794 0.56256
 C139 C -0.03430 0.46925 0.58443
 C140 C -0.06760 0.44884 0.54025
 C141 C -0.04752 0.46781 0.51920
 N142 N -0.02240 0.48735 0.53066
 H143 H 0.01675 0.55849 0.45128
 H144 H -0.07406 0.52473 0.50094
 H145 H -0.11216 0.55818 0.46887
 H146 H -0.01933 0.59321 0.41744
 H147 H 0.00579 0.50272 0.57118
 H148 H -0.02810 0.47041 0.60976
 H149 H -0.08766 0.43420 0.52998
 H150 H -0.05224 0.46727 0.49361
 C151 C 0.06553 0.44455 0.43298
 C152 C 0.08075 0.57739 0.55618
 C153 C -0.06128 0.44950 0.57360
 C154 C -0.06918 0.57842 0.43942
 C155 C 0.54728 0.04213 0.50217
 H156 H 0.54911 0.04172 0.47616
 C157 C 0.56838 0.06280 0.51932
 H158 H 0.58661 0.07819 0.50637
 C159 C 0.52085 0.02291 0.55061
 H160 H 0.50167 0.00794 0.56270
 C161 C 0.54142 0.04318 0.56869
 H162 H 0.53747 0.04349 0.59452
 N163 N 0.52452 0.02236 0.51800
 C164 C 0.50787 -0.05375 0.45040
 H165 H 0.47935 -0.05348 0.44970
 C166 C 0.52689 -0.07549 0.43214
 H167 H 0.51280 -0.09188 0.41728
 C168 C 0.56072 -0.03287 0.47101
 H169 H 0.57375 -0.01665 0.48673
 C170 C 0.58083 -0.05431 0.45318
 H171 H 0.60915 -0.05421 0.45572
 Zn172 Zn 0.49642 -0.00472 0.49317
 N173 N 0.52494 -0.03272 0.46899
 C174 C 0.47586 0.02047 0.43293
 N175 N 0.46955 0.02102 0.46523
 C176 C 0.44562 0.04124 0.47825
 C177 C 0.42575 0.06105 0.45850
 C178 C 0.45715 0.04029 0.41232
 C179 C 0.48355 -0.05005 0.54081
 C180 C 0.46404 -0.06939 0.56183
 C181 C 0.41056 -0.04783 0.53971
 C182 C 0.43121 -0.02890 0.51906
 N183 N 0.46701 -0.02991 0.52039
 H184 H 0.49587 0.00506 0.42308
 H185 H 0.44199 0.04198 0.50412
 H186 H 0.40728 0.07696 0.46989
 H187 H 0.46277 0.03947 0.38668
 H188 H 0.51208 -0.05086 0.54091
 H189 H 0.47799 -0.08496 0.57810
 H190 H 0.38227 -0.04633 0.53762
 H191 H 0.41848 -0.01363 0.50185
 C192 C 0.56386 -0.07579 0.43308
 C193 C 0.56600 0.06315 0.55303
 C194 C 0.42698 -0.06830 0.56189
 C195 C 0.43129 0.06068 0.42485
 C196 C 0.55951 0.53702 -0.00423
 H197 H 0.56296 0.53541 -0.03006
 C198 C 0.57968 0.55839 0.01302
 H199 H 0.59883 0.57310 0.00036
 C200 C 0.52997 0.52019 0.04363
 H201 H 0.50989 0.50598 0.05545
 C202 C 0.54952 0.54116 0.06177
 H203 H 0.54392 0.54272 0.08732
 N204 N 0.53575 0.51799 0.01134
 C205 C 0.52203 0.43794 -0.05223
 H206 H 0.49351 0.43745 -0.05273
 C207 C 0.54157 0.41570 -0.06936
 H208 H 0.52787 0.39818 -0.08317
 C209 C 0.57437 0.46131 -0.03332
 H210 H 0.58701 0.47873 -0.01872
 C211 C 0.59500 0.43943 -0.05010
 H212 H 0.62334 0.44041 -0.04788
 Zn213 Zn 0.50904 0.48927 -0.01300
 N214 N 0.53858 0.46048 -0.03512
 C215 C 0.48708 0.50925 -0.07494
 N216 N 0.48214 0.51294 -0.04274
 C217 C 0.45835 0.53403 -0.03103
 C218 C 0.43721 0.55147 -0.05193
 C219 C 0.46676 0.52633 -0.09673
 C220 C 0.49503 0.44680 0.03732
 C221 C 0.47483 0.42865 0.05890
 C222 C 0.42227 0.44674 0.03227
 C223 C 0.44356 0.46482 0.01139
 N224 N 0.47919 0.46493 0.01459
 H225 H 0.50682 0.49308 -0.08388
 H226 H 0.45542 0.53692 -0.00528
 H227 H 0.41830 0.56745 -0.04136
 H228 H 0.47103 0.52267 -0.12228
 H229 H 0.52349 0.44687 0.03895
 H230 H 0.48813 0.41486 0.07715
 H231 H 0.39406 0.44799 0.02931
 H232 H 0.43148 0.47873 -0.00735
 C233 C 0.57853 0.41648 -0.06884
 C234 C 0.57527 0.56021 0.04653
 C235 C 0.43787 0.42837 0.05672
 C236 C 0.44103 0.54759 -0.08551
 C237 C 0.19434 -0.16567 -0.20064
 C238 C 0.19661 -0.13432 -0.19115
 C239 C 0.17127 -0.12021 -0.16796
 C240 C 0.18194 -0.09463 -0.14943
 C241 C 0.15853 -0.08073 -0.12742
 C242 C 0.12381 -0.09210 -0.12372
 C243 C 0.11291 -0.11713 -0.14290
 C244 C 0.13635 -0.13113 -0.16473
 C245 C 0.09782 -0.07774 -0.10129
 C246 C 0.10723 -0.06099 -0.07398
 H247 H 0.21876 -0.12011 -0.19938
 H248 H 0.20852 -0.08544 -0.15192
 H249 H 0.16758 -0.06074 -0.11397
 H250 H 0.08613 -0.12594 -0.14095
 H251 H 0.12678 -0.15004 -0.17945
 H252 H 0.07026 -0.08106 -0.10657
 H253 H 0.17490 -0.18083 -0.18900
 H254 H 0.13488 -0.05809 -0.06868
 C255 C 0.23054 0.34740 0.31160
 C256 C 0.19880 0.33779 0.32621
 C257 C 0.17920 0.35709 0.34990
 C258 C 0.14247 0.35357 0.35267
 C259 C 0.12289 0.37181 0.37428
 C260 C 0.13980 0.39380 0.39380
 C261 C 0.17667 0.39650 0.39189
 C262 C 0.19624 0.37847 0.37002
 C263 C 0.11976 0.41370 0.41664
 C264 C 0.08520 0.42347 0.41104
 H265 H 0.18603 0.31671 0.31778
 H266 H 0.12883 0.33688 0.33779
 H267 H 0.09463 0.36837 0.37591
 H268 H 0.19031 0.41291 0.40709
 H269 H 0.22464 0.38104 0.36923
 H270 H 0.13362 0.42297 0.43704
 H271 H 0.24112 0.37040 0.31690
 H272 H 0.07303 0.41756 0.38851
 C273 C 0.71158 -0.17206 0.29245
 C274 C 0.69069 -0.18257 0.31861
 C275 C 0.67347 -0.16073 0.34163
 C276 C 0.64287 -0.17064 0.35831
 C277 C 0.62517 -0.15041 0.37941
 C278 C 0.63779 -0.11969 0.38428
 C279 C 0.66922 -0.11027 0.36865
 C280 C 0.68694 -0.13051 0.34757
 C281 C 0.61927 -0.09706 0.40560
 C282 C 0.58330 -0.09918 0.41334
 H283 H 0.68413 -0.20719 0.32139
 H284 H 0.63234 -0.19403 0.35471
 H285 H 0.60187 -0.15910 0.39197
 H286 H 0.67994 -0.08699 0.37249
 H287 H 0.71127 -0.12243 0.33631
 H288 H 0.63407 -0.07681 0.41327
 H289 H 0.71483 -0.14688 0.28933
 H290 H 0.56788 -0.11768 0.40276
 C291 C 0.72434 0.32243 -0.21188
 C292 C 0.70530 0.31150 -0.18476
 C293 C 0.68824 0.33305 -0.16136
 C294 C 0.65890 0.32234 -0.14332
 C295 C 0.64131 0.34231 -0.12187
 C296 C 0.65277 0.37354 -0.11803
 C297 C 0.68307 0.38377 -0.13497
 C298 C 0.70068 0.36380 -0.15638
 C299 C 0.63409 0.39600 -0.09664
 C300 C 0.59850 0.39285 -0.08779
 H301 H 0.70030 0.28667 -0.18123
 H302 H 0.64924 0.29854 -0.14616
 H303 H 0.61897 0.33303 -0.10830
 H304 H 0.69293 0.40748 -0.13194
 H305 H 0.72413 0.37254 -0.16869
 H306 H 0.64818 0.41704 -0.09008
 H307 H 0.72618 0.34767 -0.21546
 H308 H 0.58361 0.37340 -0.09721
 C309 C -0.20750 0.15066 -0.21074
 C310 C -0.18808 0.16287 -0.18537
 C311 C -0.16643 0.14242 -0.16437
 C312 C -0.16089 0.15109 -0.13238
 C313 C -0.14087 0.13196 -0.11197
 C314 C -0.12545 0.10399 -0.12345
 C315 C -0.13068 0.09563 -0.15559
 C316 C -0.15070 0.11467 -0.17590
 C317 C -0.10475 0.08238 -0.10278
 C318 C -0.08884 0.09143 -0.07412
 H319 H -0.18980 0.18748 -0.17930
 H320 H -0.17265 0.17241 -0.12298
 H321 H -0.13830 0.13893 -0.08719
 H322 H -0.11902 0.07431 -0.16512
 H323 H -0.15336 0.10776 -0.20072
 H324 H -0.10081 0.05894 -0.11188
 H325 H -0.20796 0.12529 -0.21312
 H326 H -0.09093 0.11586 -0.06722
 C327 C -0.22820 0.65745 0.30324
 C328 C -0.20210 0.67052 0.32235
 C329 C -0.18367 0.65250 0.34780
 C330 C -0.15021 0.66261 0.35726
 C331 C -0.13137 0.64566 0.38033
 C332 C -0.14570 0.61813 0.39448
 C333 C -0.17980 0.60882 0.38606
 C334 C -0.19864 0.62576 0.36296
 C335 C -0.12613 0.59878 0.41815
 C336 C -0.08917 0.59775 0.41881
 H337 H -0.19245 0.69395 0.31672
 H338 H -0.13838 0.68350 0.34645
 H339 H -0.10580 0.65440 0.38714
 H340 H -0.19175 0.58808 0.39708
 H341 H -0.22492 0.61790 0.35732
 H342 H -0.14171 0.58327 0.43347
 H343 H -0.23491 0.63285 0.30650
 H344 H -0.07475 0.61189 0.40118
 C345 C 0.28236 0.17311 0.30619
 C346 C 0.31494 0.17985 0.31963
 C347 C 0.33187 0.15871 0.34326
 C348 C 0.36879 0.15652 0.34335
 C349 C 0.38558 0.13657 0.36527
 C350 C 0.36569 0.11889 0.38790
 C351 C 0.32883 0.12186 0.38850
 C352 C 0.31198 0.14135 0.36616
 C353 C 0.38294 0.09799 0.41157
 C354 C 0.41288 0.08032 0.40341
 H355 H 0.32994 0.19985 0.31051
 H356 H 0.38464 0.17002 0.32619
 H357 H 0.41412 0.13539 0.36484
 H358 H 0.31305 0.10878 0.40605
 H359 H 0.28350 0.14323 0.36719
 H360 H 0.36986 0.09474 0.43469
 H361 H 0.26957 0.15090 0.31197
 H362 H 0.42163 0.08091 0.37842
 C363 C 0.29180 0.67509 -0.19522
 C364 C 0.30405 0.64405 -0.19641
 C365 C 0.32684 0.62949 -0.17164
 C366 C 0.34482 0.60156 -0.17914
 C367 C 0.36644 0.58683 -0.15660
 C368 C 0.37075 0.59987 -0.12593
 C369 C 0.35212 0.62740 -0.11816
 C370 C 0.33037 0.64208 -0.14067
 C371 C 0.39311 0.58490 -0.10107
 C372 C 0.42025 0.56355 -0.10832
 H373 H 0.29845 0.63008 -0.21731
 H374 H 0.34207 0.59101 -0.20258
 H375 H 0.37904 0.56497 -0.16325
 H376 H 0.35439 0.63762 -0.09451
 H377 H 0.31607 0.66288 -0.13337
 H378 H 0.38815 0.59195 -0.07654
 H379 H 0.30054 0.69021 -0.17618
 H380 H 0.42590 0.55888 -0.13343
 C381 C -0.21945 -0.18054 0.19238
 C382 C -0.20538 -0.15011 0.19336
 C383 C -0.18404 -0.13641 0.16666
 C384 C -0.15553 -0.11686 0.17386
 C385 C -0.13554 -0.10260 0.14921
 C386 C -0.14423 -0.10711 0.11686
 C387 C -0.17311 -0.12627 0.10961
 C388 C -0.19264 -0.14118 0.13431
 C389 C -0.12482 -0.09033 0.09075
 C390 C -0.08839 -0.08539 0.09205
 H391 H -0.20647 -0.13694 0.21547
 H392 H -0.14872 -0.11260 0.19866
 H393 H -0.11396 -0.08728 0.15551
 H394 H -0.18053 -0.12968 0.08484
 H395 H -0.21501 -0.15563 0.12818
 H396 H -0.13955 -0.08280 0.06997
 H397 H -0.21245 -0.19488 0.17182
 H398 H -0.07412 -0.09811 0.11052
 C399 C -0.20675 0.31647 0.68626
 C400 C -0.19154 0.34635 0.68869
 C401 C -0.17056 0.36230 0.66279
 C402 C -0.15227 0.38988 0.67042
 C403 C -0.13214 0.40601 0.64710
 C404 C -0.12954 0.39473 0.61546
 C405 C -0.14843 0.36754 0.60757
 C406 C -0.16874 0.35144 0.63091
 C407 C -0.10863 0.41130 0.58993
 C408 C -0.08074 0.43176 0.59664
 H409 H -0.19342 0.35831 0.71150
 H410 H -0.15365 0.39914 0.69460
 H411 H -0.11934 0.42758 0.65399
 H412 H -0.14741 0.35865 0.58324
 H413 H -0.18308 0.33084 0.62359
 H414 H -0.11518 0.40615 0.56537
 H415 H -0.20219 0.30277 0.66484
 H416 H -0.07332 0.43415 0.62153
 C417 C 0.27580 -0.15810 0.70511
 C418 C 0.29997 -0.16887 0.68180
 C419 C 0.31771 -0.14779 0.65787
 C420 C 0.34992 -0.15738 0.64402
 C421 C 0.36764 -0.13823 0.62145
 C422 C 0.35341 -0.10896 0.61219
 C423 C 0.32063 -0.09983 0.62522
 C424 C 0.30293 -0.11896 0.64786
 C425 C 0.37153 -0.08789 0.58849
 C426 C 0.40824 -0.08785 0.58385
 H427 H 0.30834 -0.19315 0.68183
 H428 H 0.36154 -0.17976 0.65081
 H429 H 0.39212 -0.14673 0.61100
 H430 H 0.30877 -0.07768 0.61800
 H431 H 0.27750 -0.11127 0.65696
 H432 H 0.35530 -0.07078 0.57627
 H433 H 0.27085 -0.13301 0.70595
 H434 H 0.42361 -0.10329 0.59908
 C435 C 0.30154 0.34693 0.21001
 C436 C 0.30389 0.33744 0.17798
 C437 C 0.32418 0.35526 0.15311
 C438 C 0.35427 0.37282 0.16076
 C439 C 0.37326 0.38903 0.13668
 C440 C 0.36262 0.38790 0.10445
 C441 C 0.33247 0.37053 0.09688
 C442 C 0.31369 0.35402 0.12093
 C443 C 0.38182 0.40535 0.07859
 C444 C 0.41829 0.41041 0.07942
 H445 H 0.28858 0.31742 0.17036
 H446 H 0.36350 0.37375 0.18523
 H447 H 0.39593 0.40278 0.14344
 H448 H 0.32365 0.36947 0.07225
 H449 H 0.29069 0.34052 0.11444
 H450 H 0.36687 0.41245 0.05782
 H451 H 0.31287 0.36928 0.21665
 H452 H 0.43265 0.39905 0.09869
 C453 C 0.21196 0.18479 0.20567
 C454 C 0.19379 0.15628 0.20884
 C455 C 0.17224 0.14278 0.18300
 C456 C 0.14637 0.12039 0.19137
 C457 C 0.12566 0.10677 0.16780
 C458 C 0.13042 0.11529 0.13517
 C459 C 0.15681 0.13718 0.12672
 C460 C 0.17752 0.15085 0.15032
 C461 C 0.10971 0.10078 0.10931
 C462 C 0.07691 0.08645 0.11469
 H463 H 0.19333 0.14419 0.23192
 H464 H 0.14220 0.11335 0.21630
 H465 H 0.10665 0.08909 0.17531
 H466 H 0.16149 0.14369 0.10171
 H467 H 0.19799 0.16717 0.14272
 H468 H 0.12112 0.10132 0.08527
 H469 H 0.20901 0.19886 0.18401
 H470 H 0.06531 0.08635 0.13865
 C471 C 0.20670 0.66650 0.71402
 C472 C 0.19549 0.67627 0.68364
 C473 C 0.17127 0.65741 0.66406
 C474 C 0.17197 0.66128 0.63047
 C475 C 0.14885 0.64430 0.61136
 C476 C 0.12431 0.62334 0.62562
 C477 C 0.12307 0.62006 0.65925
 C478 C 0.14638 0.63679 0.67832
 C479 C 0.09893 0.60541 0.60635
 C480 C 0.10565 0.59672 0.57453
 H481 H 0.20593 0.69786 0.67315
 H482 H 0.19049 0.67746 0.61898
 H483 H 0.14980 0.64817 0.58557
 H484 H 0.10402 0.60443 0.67082
 H485 H 0.14426 0.63404 0.70420
 H486 H 0.07530 0.59674 0.61850
 H487 H 0.20012 0.64300 0.72256
 H488 H 0.13117 0.60182 0.56360
 C489 C 0.71430 0.14887 0.69715
 C490 C 0.68695 0.16035 0.67814
 C491 C 0.66479 0.13941 0.65861
 C492 C 0.64791 0.15173 0.63142
 C493 C 0.62631 0.13263 0.61287
 C494 C 0.62101 0.10077 0.62137
 C495 C 0.63724 0.08871 0.64898
 C496 C 0.65888 0.10773 0.66741
 C497 C 0.59782 0.07969 0.60303
 C498 C 0.58876 0.08496 0.57096
 H499 H 0.68125 0.18528 0.67731
 H500 H 0.65149 0.17622 0.62451
 H501 H 0.61334 0.14311 0.59239
 H502 H 0.63309 0.06443 0.65641
 H503 H 0.67017 0.09765 0.68894
 H504 H 0.58936 0.05808 0.61488
 H505 H 0.72041 0.12400 0.69635
 H506 H 0.60052 0.10452 0.55775
 C507 C 0.70842 0.65134 0.20028
 C508 C 0.68390 0.66171 0.17772
 C509 C 0.66481 0.63980 0.15662
 C510 C 0.65080 0.65116 0.12766
 C511 C 0.63159 0.63129 0.10779
 C512 C 0.62586 0.59960 0.11670
 C513 C 0.63945 0.58842 0.14588
 C514 C 0.65867 0.60821 0.16564
 C515 C 0.60451 0.57784 0.09735
 C516 C 0.59711 0.58250 0.06480
 H517 H 0.67791 0.68650 0.17539
 H518 H 0.65460 0.67554 0.12045
 H519 H 0.62067 0.64109 0.08599
 H520 H 0.63492 0.56428 0.15360
 H521 H 0.66770 0.59879 0.18835
 H522 H 0.59564 0.55631 0.10911
 H523 H 0.71505 0.62657 0.20119
 H524 H 0.60933 0.60188 0.05167
   
