data_POSCAR
  _audit_creation_date              2014-09-24
  _audit_creation_method            'ToBaCCo'
  _symmetry_space_group_name_H-M    'P1'
  _symmetry_Int_Tables_number       1
  _symmetry_cell_setting            triclinic
  loop_
  _symmetry_equiv_pos_as_xyz
 x,y,z
_cell_length_a 56.0392
_cell_length_b 42.1231
_cell_length_c 28.6023
_cell_angle_alpha 89.999800
_cell_angle_beta 90.000000
_cell_angle_gamma 90.000600
loop_
  _atom_site_label
  _atom_site_type_symbol
  _atom_site_fract_x
  _atom_site_fract_y
  _atom_site_fract_z
O1 O 0.23326 0.27685 0.19379
 O2 O 0.27989 0.22055 0.23060
 O3 O 0.23611 0.21534 0.20029
 O4 O 0.27710 0.28173 0.22419
 O5 O 0.26375 0.28422 0.29677
 O6 O 0.22262 0.21799 0.27273
 O7 O 0.26651 0.22269 0.30319
 O8 O 0.21997 0.27915 0.26644
 Cu9 Cu 0.25790 0.24837 0.20491
 Cu10 Cu 0.24191 0.25124 0.29210
 C11 C 0.21854 0.28734 0.22381
 C12 C 0.28129 0.21229 0.27321
 C13 C 0.22214 0.20562 0.23222
 C14 C 0.27758 0.29403 0.26470
 O15 O 0.77700 0.28117 0.27551
 O16 O 0.73600 0.21478 0.29941
 O17 O 0.77979 0.21999 0.26910
 O18 O 0.73315 0.27630 0.30591
 O19 O 0.71987 0.27859 0.23326
 O20 O 0.76641 0.22214 0.19651
 O21 O 0.72252 0.21742 0.22697
 O22 O 0.76364 0.28366 0.20293
 Cu23 Cu 0.75779 0.24781 0.29479
 Cu24 Cu 0.74180 0.25068 0.20760
 C25 C 0.77748 0.29347 0.23499
 C26 C 0.72203 0.20506 0.26747
 C27 C 0.78119 0.21174 0.22649
 C28 C 0.71844 0.28679 0.27589
 O29 O 0.76672 0.77687 0.80551
 O30 O 0.72008 0.72057 0.76870
 O31 O 0.76384 0.71536 0.79907
 O32 O 0.72285 0.78174 0.77517
 O33 O 0.73621 0.78424 0.70258
 O34 O 0.77734 0.71800 0.72664
 O35 O 0.73347 0.72271 0.69612
 O36 O 0.78000 0.77917 0.73286
 Cu37 Cu 0.74207 0.74840 0.79442
 Cu38 Cu 0.75806 0.75126 0.70724
 C39 C 0.78144 0.78736 0.77549
 C40 C 0.71869 0.71231 0.72610
 C41 C 0.77780 0.70562 0.76714
 C42 C 0.72236 0.79403 0.73465
 O43 O 0.27936 0.78013 0.76786
 O44 O 0.23271 0.72383 0.80468
 O45 O 0.27658 0.71896 0.77435
 O46 O 0.23561 0.78535 0.79826
 O47 O 0.22209 0.78271 0.72584
 O48 O 0.26323 0.71647 0.70175
 O49 O 0.21943 0.72153 0.73202
 O50 O 0.26596 0.77800 0.69528
 Cu51 Cu 0.25737 0.75231 0.79359
 Cu52 Cu 0.24137 0.74945 0.70641
 C53 C 0.28074 0.78840 0.72526
 C54 C 0.21799 0.71335 0.77465
 C55 C 0.27707 0.70667 0.73383
 C56 C 0.22163 0.79508 0.76634
 C57 C 1.00492 0.05073 0.10042
 C58 C 1.02631 0.03683 0.08536
 C59 C 1.02593 0.01616 0.04687
 C60 C 1.00482 0.01093 0.02112
 C61 C 0.98380 0.02649 0.03575
 C62 C 0.98355 0.04569 0.07594
 C63 C 1.00479 -0.01030 -0.02107
 C64 C 0.98378 -0.02598 -0.03546
 C65 C 0.98348 -0.04518 -0.07565
 C66 C 1.00479 -0.05009 -0.10037
 C67 C 1.02619 -0.03607 -0.08554
 C68 C 1.02586 -0.01541 -0.04704
 H69 H 1.00507 0.06654 0.13027
 H70 H 1.04228 0.00419 0.03737
 H71 H 0.96752 0.02397 0.01583
 H72 H 0.96755 -0.02356 -0.01537
 H73 H 1.00492 -0.06590 -0.13022
 H74 H 1.04220 -0.00336 -0.03772
 C75 C 0.49516 0.55087 0.60023
 C76 C 0.51651 0.54581 0.57573
 C77 C 0.51625 0.52656 0.53559
 C78 C 0.49522 0.51097 0.52106
 C79 C 0.47411 0.51625 0.54681
 C80 C 0.47376 0.53695 0.58527
 C81 C 0.49525 0.48965 0.47898
 C82 C 0.47419 0.48450 0.45299
 C83 C 0.47389 0.46380 0.41453
 C84 C 0.49529 0.44977 0.39980
 C85 C 0.51658 0.45470 0.42455
 C86 C 0.51626 0.47394 0.46468
 H87 H 0.49503 0.56671 0.63005
 H88 H 0.53252 0.52401 0.51566
 H89 H 0.45775 0.50427 0.53737
 H90 H 0.45784 0.49656 0.46226
 H91 H 0.49519 0.43392 0.36998
 H92 H 0.53248 0.47639 0.48480
 C93 C -0.00490 0.44952 0.09974
 C94 C -0.02633 0.46346 0.08500
 C95 C -0.02607 0.48415 0.04653
 C96 C -0.00502 0.48938 0.02055
 C97 C 0.01603 0.47376 0.03485
 C98 C 0.01639 0.45452 0.07500
 C99 C -0.00510 0.51070 -0.02154
 C100 C 0.01589 0.52640 -0.03603
 C101 C 0.01611 0.54568 -0.07614
 C102 C -0.00525 0.55063 -0.10067
 C103 C -0.02661 0.53660 -0.08573
 C104 C -0.02622 0.51588 -0.04731
 H105 H -0.00496 0.43368 0.12957
 H106 H -0.04244 0.49615 0.03725
 H107 H 0.03225 0.47627 0.01474
 H108 H 0.03216 0.52393 -0.01607
 H109 H -0.00543 0.56650 -0.13046
 H110 H -0.04254 0.50382 -0.03788
 C111 C 0.50438 0.94967 0.59992
 C112 C 0.48308 0.95469 0.57524
 C113 C 0.48342 0.97386 0.53502
 C114 C 0.50448 0.98942 0.52059
 C115 C 0.52554 0.98421 0.54655
 C116 C 0.52581 0.96357 0.58507
 C117 C 0.50455 1.01066 0.47840
 C118 C 0.52568 1.01582 0.45266
 C119 C 0.52610 1.03649 0.41418
 C120 C 0.50473 1.05047 0.39913
 C121 C 0.48336 1.04551 0.42361
 C122 C 0.48356 1.02630 0.46379
 H123 H 0.50446 0.93388 0.62980
 H124 H 0.46719 0.97636 0.51495
 H125 H 0.54191 0.99619 0.53721
 H126 H 0.54201 1.00378 0.46214
 H127 H 0.50492 1.06630 0.36929
 H128 H 0.46728 1.02385 0.48371
 C129 C 1.17120 0.13890 0.20086
 N130 N 1.17224 0.15206 0.24414
 N131 N 1.18918 0.17305 0.25473
 C132 C 1.20562 0.18187 0.22231
 N133 N 1.20475 0.16838 0.17921
 N134 N 1.18788 0.14725 0.16872
 C135 C 1.15130 0.11801 0.18785
 N136 N 1.15089 0.10355 0.14543
 N137 N 1.13191 0.08683 0.13197
 C138 C 1.11260 0.08409 0.16034
 N139 N 1.11311 0.09823 0.20298
 N140 N 1.13215 0.11480 0.21654
 C141 C 1.09073 0.06865 0.14343
 N142 N 1.06996 0.07179 0.16739
 N143 N 1.04961 0.06069 0.14973
 C144 C 1.04923 0.04585 0.10755
 N145 N 1.07015 0.04215 0.08411
 N146 N 1.09048 0.05341 0.10163
 C147 C 0.66187 0.65518 0.68277
 N148 N 0.66361 0.66490 0.72789
 N149 N 0.68199 0.68255 0.74185
 C150 C 0.69929 0.69120 0.71119
 N151 N 0.69765 0.68133 0.66610
 N152 N 0.67929 0.66357 0.65216
 C153 C 0.64096 0.63705 0.66710
 N154 N 0.63946 0.62603 0.62257
 N155 N 0.62005 0.61058 0.60811
 C156 C 0.60142 0.60573 0.63762
 N157 N 0.60298 0.61665 0.68215
 N158 N 0.62240 0.63198 0.69664
 C159 C 0.57964 0.58968 0.62155
 N160 N 0.56021 0.58818 0.64973
 N161 N 0.54024 0.57425 0.63510
 C162 C 0.53889 0.56117 0.59177
 N163 N 0.55843 0.56254 0.56368
 N164 N 0.57841 0.57661 0.57823
 C165 C -0.17069 0.36137 0.20291
 N166 N -0.18810 0.35417 0.17164
 N167 N -0.20499 0.33311 0.18227
 C168 C -0.20513 0.31856 0.22463
 N169 N -0.18792 0.32609 0.25613
 N170 N -0.17098 0.34705 0.24543
 C171 C -0.15083 0.38226 0.18962
 N172 N -0.13135 0.38489 0.21757
 N173 N -0.11240 0.40150 0.20372
 C174 C -0.11227 0.41624 0.16151
 N175 N -0.13191 0.41406 0.13389
 N176 N -0.15083 0.39732 0.14765
 C177 C -0.09050 0.43169 0.14421
 N178 N -0.09047 0.44714 0.10256
 N179 N -0.07021 0.45838 0.08467
 C180 C -0.04916 0.45448 0.10759
 N181 N -0.04933 0.43946 0.14963
 N182 N -0.06959 0.42836 0.16765
 C183 C 0.33758 0.84551 0.68195
 N184 N 0.33581 0.83583 0.72709
 N185 N 0.31742 0.81818 0.74104
 C186 C 0.30014 0.80950 0.71035
 N187 N 0.30181 0.81934 0.66525
 N188 N 0.32018 0.83709 0.65132
 C189 C 0.35850 0.86363 0.66631
 N190 N 0.36005 0.87458 0.62174
 N191 N 0.37947 0.89001 0.60732
 C192 C 0.39807 0.89491 0.63689
 N193 N 0.39646 0.88405 0.68145
 N194 N 0.37703 0.86874 0.69591
 C195 C 0.41987 0.91092 0.62087
 N196 N 0.43926 0.91247 0.64915
 N197 N 0.45926 0.92637 0.63459
 C198 C 0.46068 0.93937 0.59120
 N199 N 0.44117 0.93794 0.56301
 N200 N 0.42117 0.92391 0.57750
 C201 C -0.17138 0.63875 -0.20148
 N202 N -0.18805 0.64714 -0.16935
 N203 N -0.20488 0.66833 -0.17984
 C204 C -0.20571 0.68184 -0.22294
 N205 N -0.18928 0.67298 -0.25535
 N206 N -0.17237 0.65193 -0.24475
 C207 C -0.15152 0.61779 -0.18846
 N208 N -0.13237 0.61452 -0.21714
 N209 N -0.11336 0.59790 -0.20355
 C210 C -0.11287 0.58377 -0.16090
 N211 N -0.13219 0.58657 -0.13255
 N212 N -0.15114 0.60334 -0.14604
 C213 C -0.09103 0.56831 -0.14396
 N214 N -0.09079 0.55310 -0.10213
 N215 N -0.07046 0.54187 -0.08456
 C216 C -0.04954 0.54555 -0.10798
 N217 N -0.04990 0.56035 -0.15019
 N218 N -0.07025 0.57143 -0.16790
 C219 C 0.33813 1.15519 0.31651
 N220 N 0.32070 1.16356 0.34712
 N221 N 0.30234 1.18131 0.33319
 C222 C 0.30069 1.19120 0.28811
 N223 N 0.31800 1.18257 0.25745
 N224 N 0.33639 1.16492 0.27140
 C225 C 0.35904 1.13705 0.33217
 N226 N 0.37761 1.13201 0.30265
 N227 N 0.39702 1.11666 0.31713
 C228 C 0.39856 1.10569 0.36165
 N229 N 0.37992 1.11053 0.39114
 N230 N 0.36052 1.12600 0.37669
 C231 C 0.42032 1.08959 0.37772
 N232 N 0.42151 1.07649 0.42102
 N233 N 0.44146 1.06236 0.43559
 C234 C 0.46102 1.06096 0.40753
 N235 N 0.45971 1.07408 0.36422
 N236 N 0.43977 1.08807 0.34958
 C237 C 1.17082 -0.13807 -0.20216
 N238 N 1.17178 -0.15125 -0.24543
 N239 N 1.18869 -0.17229 -0.25607
 C240 C 1.20515 -0.18114 -0.22371
 N241 N 1.20434 -0.16762 -0.18062
 N242 N 1.18752 -0.14644 -0.17008
 C243 C 1.15096 -0.11712 -0.18906
 N244 N 1.15065 -0.10263 -0.14666
 N245 N 1.13171 -0.08588 -0.13308
 C246 C 1.11234 -0.08313 -0.16131
 N247 N 1.11277 -0.09729 -0.20394
 N248 N 1.13177 -0.11390 -0.21762
 C249 C 1.09051 -0.06769 -0.14424
 N250 N 1.06969 -0.07086 -0.16801
 N251 N 1.04937 -0.05981 -0.15016
 C252 C 1.04907 -0.04499 -0.10796
 N253 N 1.07003 -0.04126 -0.08471
 N254 N 1.09034 -0.05247 -0.10242
 C255 C 0.66172 0.34421 0.31894
 N256 N 0.67904 0.33564 0.34967
 N257 N 0.69736 0.31777 0.33584
 C258 C 0.69907 0.30796 0.29073
 N259 N 0.68187 0.31677 0.25995
 N260 N 0.66353 0.33453 0.27381
 C261 C 0.64086 0.36249 0.33445
 N262 N 0.62241 0.36776 0.30471
 N263 N 0.60303 0.38325 0.31903
 C264 C 0.60140 0.39414 0.36357
 N265 N 0.61992 0.38908 0.39327
 N266 N 0.63929 0.37347 0.37899
 C267 C 0.57966 0.41036 0.37941
 N268 N 0.57834 0.42340 0.42275
 N269 N 0.55839 0.43762 0.43708
 C270 C 0.53894 0.43919 0.40875
 N271 N 0.54037 0.42614 0.36541
 N272 N 0.56032 0.41206 0.35100
 C273 C 0.83824 -0.15537 -0.18146
 N274 N 0.83642 -0.16503 -0.22659
 N275 N 0.81805 -0.18274 -0.24045
 C276 C 0.80084 -0.19151 -0.20967
 N277 N 0.80256 -0.18170 -0.16456
 N278 N 0.82091 -0.16389 -0.15072
 C279 C 0.85913 -0.13715 -0.16594
 N280 N 0.86071 -0.12617 -0.12140
 N281 N 0.88011 -0.11061 -0.10710
 C282 C 0.89865 -0.10562 -0.13679
 N283 N 0.89701 -0.11651 -0.18133
 N284 N 0.87760 -0.13194 -0.19566
 C285 C 0.92040 -0.08944 -0.12092
 N286 N 0.93976 -0.08779 -0.14929
 N287 N 0.95971 -0.07373 -0.13485
 C288 C 0.96113 -0.06067 -0.09150
 N289 N 0.94166 -0.06220 -0.06322
 N290 N 0.92170 -0.07639 -0.07759
 C291 C 0.32943 0.36192 0.29676
 N292 N 0.32912 0.34762 0.25423
 N293 N 0.31217 0.32666 0.24353
 C294 C 0.29497 0.31912 0.27506
 N295 N 0.29513 0.33365 0.31743
 N296 N 0.31203 0.35472 0.32805
 C297 C 0.34929 0.38281 0.31003
 N298 N 0.34932 0.39785 0.35202
 N299 N 0.36825 0.41457 0.36576
 C300 C 0.38787 0.41676 0.33810
 N301 N 0.38772 0.40205 0.29587
 N302 N 0.36876 0.38545 0.28204
 C303 C 0.40966 0.43218 0.35538
 N304 N 0.43055 0.42883 0.33190
 N305 N 0.45084 0.43989 0.34989
 C306 C 0.45103 0.45489 0.39196
 N307 N 0.43000 0.45880 0.41491
 N308 N 0.40972 0.44760 0.39704
 C309 C 0.16121 0.65606 -0.18226
 N310 N 0.17856 0.66455 -0.15155
 N311 N 0.19690 0.68237 -0.16541
 C312 C 0.19860 0.69221 -0.21050
 N313 N 0.18137 0.68347 -0.24125
 N314 N 0.16300 0.66576 -0.22738
 C315 C 0.14033 0.63782 -0.16672
 N316 N 0.12183 0.63267 -0.19637
 N317 N 0.10244 0.61721 -0.18202
 C318 C 0.10085 0.60625 -0.13750
 N319 N 0.11942 0.61120 -0.10788
 N320 N 0.13880 0.62678 -0.12221
 C321 C 0.07911 0.59004 -0.12159
 N322 N 0.07788 0.57692 -0.07830
 N323 N 0.05794 0.56269 -0.06388
 C324 C 0.03844 0.56121 -0.09206
 N325 N 0.03978 0.57435 -0.13536
 N326 N 0.05972 0.58844 -0.14986
 C327 C 0.67109 1.13834 0.29880
 N328 N 0.68776 1.14670 0.33096
 N329 N 0.70463 1.16782 0.32048
 C330 C 0.70551 1.18131 0.27737
 N331 N 0.68908 1.17249 0.24494
 N332 N 0.67214 1.15150 0.25552
 C333 C 0.65118 1.11746 0.31179
 N334 N 0.63204 1.11425 0.28307
 N335 N 0.61299 1.09770 0.29662
 C336 C 0.61245 1.08357 0.33927
 N337 N 0.63176 1.08631 0.36766
 N338 N 0.65075 1.10302 0.35422
 C339 C 0.59057 1.06816 0.35615
 N340 N 0.59030 1.05294 0.39797
 N341 N 0.56994 1.04173 0.41547
 C342 C 0.54904 1.04545 0.39200
 N343 N 0.54944 1.06027 0.34981
 N344 N 0.56981 1.07133 0.33217
 C345 C 0.16176 0.34464 0.18073
 N346 N 0.16359 0.33500 0.22587
 N347 N 0.18195 0.31728 0.23974
 C348 C 0.19915 0.30848 0.20896
 N349 N 0.19742 0.31827 0.16384
 N350 N 0.17908 0.33609 0.14999
 C351 C 0.14087 0.36285 0.16521
 N352 N 0.13927 0.37379 0.12064
 N353 N 0.11987 0.38933 0.10635
 C354 C 0.10134 0.39434 0.13605
 N355 N 0.10300 0.38349 0.18061
 N356 N 0.12241 0.36808 0.19494
 C357 C 0.07957 0.41048 0.12019
 N358 N 0.06023 0.41211 0.14860
 N359 N 0.04024 0.42610 0.13418
 C360 C 0.03878 0.43912 0.09081
 N361 N 0.05823 0.43761 0.06248
 N362 N 0.07822 0.42348 0.07684
 C363 C 0.67040 0.86176 0.70259
 N364 N 0.67075 0.84748 0.74513
 N365 N 0.68774 0.82659 0.75583
 C366 C 0.70494 0.81908 0.72429
 N367 N 0.70474 0.83359 0.68191
 N368 N 0.68781 0.85460 0.67129
 C369 C 0.65050 0.88258 0.68933
 N370 N 0.65043 0.89763 0.64735
 N371 N 0.63148 0.91431 0.63363
 C372 C 0.61186 0.91643 0.66130
 N373 N 0.61204 0.90171 0.70352
 N374 N 0.63103 0.88516 0.71733
 C375 C 0.59005 0.93184 0.64406
 N376 N 0.56916 0.92847 0.66755
 N377 N 0.54887 0.93954 0.64961
 C378 C 0.54867 0.95459 0.60758
 N379 N 0.56969 0.95852 0.58460
 N380 N 0.58998 0.94729 0.60242
 C381 C 0.83809 0.15476 0.18316
 N382 N 0.83633 0.16446 0.22828
 N383 N 0.81792 0.18206 0.24225
 C384 C 0.80061 0.19067 0.21159
 N385 N 0.80227 0.18081 0.16650
 N386 N 0.82066 0.16311 0.15255
 C387 C 0.85903 0.13669 0.16748
 N388 N 0.86054 0.12568 0.12295
 N389 N 0.87997 0.11028 0.10848
 C390 C 0.89862 0.10549 0.13797
 N391 N 0.89705 0.11641 0.18250
 N392 N 0.87761 0.13168 0.19701
 C393 C 0.92041 0.08949 0.12188
 N394 N 0.93986 0.08802 0.15002
 N395 N 0.95984 0.07412 0.13536
 C396 C 0.96118 0.06103 0.09203
 N397 N 0.94162 0.06238 0.06398
 N398 N 0.92164 0.07642 0.07856
 C399 C 0.32904 0.63893 0.70188
 N400 N 0.32864 0.65317 0.74445
 N401 N 0.31165 0.67407 0.75510
 C402 C 0.29450 0.68162 0.72349
 N403 N 0.29474 0.66715 0.68108
 N404 N 0.31168 0.64613 0.67050
 C405 C 0.34895 0.61809 0.68870
 N406 N 0.34908 0.60309 0.64668
 N407 N 0.36804 0.58640 0.63306
 C408 C 0.38761 0.58420 0.66088
 N409 N 0.38736 0.59888 0.70313
 N410 N 0.36836 0.61544 0.71684
 C411 C 0.40943 0.56877 0.64378
 N412 N 0.43027 0.57209 0.66744
 N413 N 0.45059 0.56099 0.64964
 C414 C 0.45087 0.54597 0.60760
 N415 N 0.42989 0.54209 0.58445
 N416 N 0.40958 0.55334 0.60212
   
