data_POSCAR
  _audit_creation_date              2014-09-24
  _audit_creation_method            'ToBaCCo'
  _symmetry_space_group_name_H-M    'P1'
  _symmetry_Int_Tables_number       1
  _symmetry_cell_setting            triclinic
  loop_
  _symmetry_equiv_pos_as_xyz
 x,y,z
_cell_length_a 26.9861
_cell_length_b 26.9877
_cell_length_c 26.9939
_cell_angle_alpha 90.011700
_cell_angle_beta 89.906300
_cell_angle_gamma 89.923200
loop_
  _atom_site_label
  _atom_site_type_symbol
  _atom_site_fract_x
  _atom_site_fract_y
  _atom_site_fract_z
C1 C -0.06694 0.51208 0.27178
 C2 C -0.02056 0.52130 0.25003
 C3 C -0.01117 0.56759 0.22827
 C4 C -0.04805 0.60420 0.22776
 C5 C -0.09408 0.59500 0.25000
 C6 C -0.10346 0.54906 0.27227
 C7 C 0.01804 0.48254 0.24996
 C8 C 0.00870 0.43629 0.22807
 C9 C 0.04553 0.39970 0.22750
 C10 C 0.09145 0.40880 0.24976
 C11 C 0.10079 0.45464 0.27212
 C12 C 0.06436 0.49166 0.27174
 H13 H -0.07414 0.47648 0.28898
 H14 H 0.02447 0.57463 0.21102
 H15 H -0.02684 0.42918 0.21079
 H16 H 0.07165 0.52714 0.28909
 H17 H -0.12251 0.62351 0.24998
 H18 H 0.11982 0.38029 0.24969
 C19 C -0.06609 0.49009 0.73131
 C20 C -0.01975 0.48074 0.75297
 C21 C -0.01038 0.43436 0.77462
 C22 C -0.04725 0.39783 0.77507
 C23 C -0.09321 0.40722 0.75289
 C24 C -0.10252 0.45321 0.73078
 C25 C 0.01890 0.51933 0.75276
 C26 C 0.00964 0.56576 0.77441
 C27 C 0.04653 0.60227 0.77452
 C28 C 0.09239 0.59282 0.75200
 C29 C 0.10159 0.54679 0.72989
 C30 C 0.06513 0.50993 0.73075
 H31 H -0.07336 0.52565 0.71408
 H32 H 0.02526 0.42717 0.79173
 H33 H -0.02591 0.57300 0.79179
 H34 H 0.07233 0.47432 0.71354
 H35 H -0.12168 0.37885 0.75272
 H36 H 0.12089 0.62116 0.75162
 C37 C 0.27221 -0.06669 0.50816
 C38 C 0.25035 -0.02032 0.51724
 C39 C 0.22848 -0.01079 0.56351
 C40 C 0.22796 -0.04750 0.60016
 C41 C 0.25026 -0.09349 0.59111
 C42 C 0.27266 -0.10305 0.54523
 C43 C 0.25044 0.01818 0.47845
 C44 C 0.22879 0.00874 0.43214
 C45 C 0.22837 0.04555 0.39551
 C46 C 0.25061 0.09151 0.40473
 C47 C 0.27272 0.10090 0.45066
 C48 C 0.27216 0.06451 0.48764
 H49 H 0.28956 -0.07400 0.47261
 H50 H 0.21119 0.02481 0.57061
 H51 H 0.21155 -0.02687 0.42510
 H52 H 0.28931 0.07187 0.52318
 H53 H 0.25016 -0.12170 0.61976
 H54 H 0.25072 0.11996 0.37633
 C55 C 0.72868 -0.06752 0.49164
 C56 C 0.75037 -0.02118 0.48227
 C57 C 0.77199 -0.01185 0.43587
 C58 C 0.77242 -0.04869 0.39934
 C59 C 0.75027 -0.09464 0.40865
 C60 C 0.72814 -0.10402 0.45468
 C61 C 0.75032 0.01753 0.52087
 C62 C 0.77224 0.00836 0.56712
 C63 C 0.77279 0.04541 0.60352
 C64 C 0.75042 0.09134 0.59414
 C65 C 0.72802 0.10044 0.54829
 C66 C 0.72844 0.06381 0.51154
 H67 H 0.71151 -0.07467 0.52729
 H68 H 0.78917 0.02372 0.42856
 H69 H 0.78957 -0.02721 0.57429
 H70 H 0.71108 0.07095 0.47604
 H71 H 0.75027 -0.12294 0.38008
 H72 H 0.75041 0.11997 0.62237
 C73 C 0.48964 0.26910 1.06541
 C74 C 0.48035 0.24726 1.01915
 C75 C 0.43397 0.22566 1.00989
 C76 C 0.39737 0.22543 1.04679
 C77 C 0.40670 0.24779 1.09268
 C78 C 0.45270 0.26986 1.10189
 C79 C 0.51905 0.24716 0.98047
 C80 C 0.56542 0.22544 0.98977
 C81 C 0.60204 0.22504 0.95289
 C82 C 0.59274 0.24736 0.90697
 C83 C 0.54676 0.26956 0.89771
 C84 C 0.50979 0.26898 0.93418
 H85 H 0.52522 0.28627 1.07261
 H86 H 0.42683 0.20838 0.97432
 H87 H 0.57254 0.20821 1.02537
 H88 H 0.47424 0.28626 0.92695
 H89 H 0.37829 0.24810 1.12119
 H90 H 0.62117 0.24756 0.87848
 C91 C 0.51037 0.73101 1.06553
 C92 C 0.51966 0.75298 1.01931
 C93 C 0.56594 0.77486 1.01006
 C94 C 0.60244 0.77524 1.04694
 C95 C 0.59312 0.75275 1.09279
 C96 C 0.54723 0.73041 1.10198
 C97 C 0.48108 0.75294 0.98066
 C98 C 0.43461 0.77449 0.99000
 C99 C 0.39811 0.77477 0.95312
 C100 C 0.40763 0.75253 0.90717
 C101 C 0.45371 0.73051 0.89788
 C102 C 0.49056 0.73120 0.93434
 H103 H 0.47488 0.71363 1.07272
 H104 H 0.57308 0.79222 0.97451
 H105 H 0.42732 0.79168 1.02561
 H106 H 0.52621 0.71405 0.92709
 H107 H 0.62147 0.75254 1.12126
 H108 H 0.37929 0.75226 0.87869
 B109 B 1.00002 1.05050 0.03105
 B110 B 1.03125 1.00000 0.05026
 B111 B 0.96888 1.00012 0.05032
 B112 B 0.94963 1.03128 -0.00006
 B113 B 1.00011 1.05050 -0.03131
 B114 B 1.05053 1.03119 -0.00021
 B115 B 1.00009 0.94961 -0.03132
 B116 B 0.96894 1.00006 -0.05054
 B117 B 1.03130 1.00005 -0.05061
 B118 B 1.05054 0.96882 -0.00017
 B119 B 1.00011 0.94962 0.03103
 B120 B 0.94966 0.96893 -0.00012
 B121 B 0.55067 0.49992 0.46865
 B122 B 0.50020 0.53119 0.44945
 B123 B 0.50029 0.46883 0.44936
 B124 B 0.53138 0.44948 0.49974
 B125 B 0.55055 0.49990 0.53100
 B126 B 0.53132 0.55036 0.49992
 B127 B 0.44967 0.49993 0.53101
 B128 B 0.50007 0.46872 0.55022
 B129 B 0.50010 0.53108 0.55030
 B130 B 0.46895 0.55042 0.49988
 B131 B 0.44976 0.50005 0.46867
 B132 B 0.46901 0.44954 0.49979
 C133 C 1.02302 1.26720 0.15604
 C134 C 0.98462 1.23294 0.18032
 C135 C 0.97829 1.18921 0.15584
 C136 C 1.01098 1.18416 0.10954
 C137 C 1.06415 1.19231 0.12789
 C138 C 1.07048 1.23598 0.15234
 C139 C 1.00539 1.27354 0.10236
 C140 C 0.99907 1.22986 0.07789
 C141 C 1.03016 1.31429 0.18215
 C142 C 1.03676 1.35315 0.20312
 C143 C 1.00475 1.13735 0.08301
 C144 C 1.00129 1.09903 0.06059
 H145 H 0.96425 1.24219 0.21379
 H146 H 0.95253 1.16095 0.16830
 H147 H 1.09417 1.16606 0.12221
 H148 H 1.10594 1.24717 0.16761
 H149 H 0.99845 1.30921 0.08509
 H150 H 0.98672 1.22806 0.03967
 C151 C 0.97493 0.73390 0.15726
 C152 C 1.01012 0.76986 0.18373
 C153 C 1.01699 0.81334 0.15896
 C154 C 0.98799 0.81648 0.11020
 C155 C 0.93380 0.80686 0.12460
 C156 C 0.92693 0.76344 0.14935
 C157 C 0.99701 0.72722 0.10522
 C158 C 1.00387 0.77066 0.08046
 C159 C 0.96726 0.68703 0.18362
 C160 C 0.96036 0.64825 0.20466
 C161 C 0.99480 0.86302 0.08335
 C162 C 0.99863 0.90117 0.06069
 H163 H 1.02800 0.76189 0.21885
 H164 H 1.04073 0.84267 0.17281
 H165 H 0.90350 0.83199 0.11614
 H166 H 0.89074 0.75135 0.16212
 H167 H 1.00640 0.69151 0.08922
 H168 H 1.01913 0.77220 0.04324
 C169 C 0.97539 1.26739 -0.15564
 C170 C 1.00763 1.27190 -0.10904
 C171 C 1.01433 1.22815 -0.08477
 C172 C 0.98815 1.18422 -0.10951
 C173 C 1.00740 1.18360 -0.16304
 C174 C 1.00070 1.22739 -0.18732
 C175 C 0.92690 1.24363 -0.13774
 C176 C 0.93361 1.19991 -0.11348
 C177 C 0.96791 1.31459 -0.18148
 C178 C 0.96112 1.35359 -0.20215
 C179 C 0.99484 1.13737 -0.08317
 C180 C 0.99863 1.09903 -0.06082
 H181 H 1.02376 1.30642 -0.09623
 H182 H 1.03620 1.22515 -0.05116
 H183 H 1.02467 1.15160 -0.18034
 H184 H 1.01225 1.23294 -0.22546
 H185 H 0.89049 1.25972 -0.14363
 H186 H 0.90296 1.17851 -0.09857
 C187 C 1.02431 0.73271 -0.15592
 C188 C 0.99728 0.77215 -0.18676
 C189 C 0.99071 0.81594 -0.16239
 C190 C 1.01181 0.81586 -0.10963
 C191 C 1.06643 0.80103 -0.11561
 C192 C 1.07299 0.75731 -0.13995
 C193 C 0.99378 0.72789 -0.10811
 C194 C 0.98722 0.77164 -0.08376
 C195 C 1.03163 0.68552 -0.18186
 C196 C 1.03830 0.64652 -0.20262
 C197 C 1.00527 0.86272 -0.08322
 C198 C 1.00155 0.90106 -0.06084
 H199 H 0.98451 0.76624 -0.22441
 H200 H 0.97235 0.84758 -0.17914
 H201 H 1.09723 0.82298 -0.10195
 H202 H 1.10943 0.74178 -0.14717
 H203 H 0.97867 0.69317 -0.09456
 H204 H 0.96651 0.77443 -0.04933
 C205 C 1.15781 1.02330 0.26582
 C206 C 1.17051 0.97452 0.23935
 C207 C 1.14565 0.96810 0.19588
 C208 C 1.11060 1.01109 0.18328
 C209 C 1.14325 1.05760 0.18405
 C210 C 1.16809 1.06403 0.22746
 C211 C 1.10124 1.02265 0.27187
 C212 C 1.07641 1.01624 0.22847
 C213 C 1.18423 1.03054 0.31269
 C214 C 1.20529 1.03723 0.35147
 C215 C 1.08365 1.00478 0.13676
 C216 C 1.06093 1.00128 0.09866
 H217 H 1.19671 0.94745 0.25348
 H218 H 1.15052 0.93554 0.17273
 H219 H 1.14661 1.08320 0.15319
 H220 H 1.19274 1.09514 0.23382
 H221 H 1.08234 1.02683 0.30717
 H222 H 1.03623 1.01490 0.22654
 C223 C 1.15648 0.97574 -0.26729
 C224 C 1.18592 1.00574 -0.22901
 C225 C 1.16140 1.01235 -0.18530
 C226 C 1.10990 0.98832 -0.18427
 C227 C 1.11886 0.93368 -0.19731
 C228 C 1.14336 0.92707 -0.24096
 C229 C 1.10700 1.00336 -0.27277
 C230 C 1.08249 1.00996 -0.22910
 C231 C 1.18262 0.96832 -0.31438
 C232 C 1.20359 0.96150 -0.35326
 C233 C 1.08334 0.99489 -0.13747
 C234 C 1.06088 0.99860 -0.09915
 H235 H 1.22277 1.02042 -0.23563
 H236 H 1.17722 1.03268 -0.15442
 H237 H 1.10698 0.90289 -0.17428
 H238 H 1.15252 0.89060 -0.25533
 H239 H 1.09247 1.01651 -0.30788
 H240 H 1.04694 1.02873 -0.22674
 C241 C 0.84350 0.97466 0.26666
 C242 C 0.80915 0.98631 0.22287
 C243 C 0.83369 0.99320 0.17923
 C244 C 0.89012 0.98779 0.18377
 C245 C 0.89827 0.93628 0.20647
 C246 C 0.87377 0.92939 0.25005
 C247 C 0.88077 1.01759 0.26801
 C248 C 0.90530 1.02449 0.22440
 C249 C 0.81740 0.96701 0.31371
 C250 C 0.79656 0.96017 0.35263
 C251 C 0.91673 0.99468 0.13708
 C252 C 0.93926 0.99861 0.09883
 H253 H 0.76909 0.98877 0.22585
 H254 H 0.81470 1.00150 0.14478
 H255 H 0.92122 0.90772 0.18972
 H256 H 0.87571 0.89490 0.27067
 H257 H 0.88733 1.04053 0.30039
 H258 H 0.93291 1.05330 0.21938
 C259 C 0.84334 1.02364 -0.26667
 C260 C 0.89183 0.99428 -0.27203
 C261 C 0.91647 0.98790 -0.22848
 C262 C 0.89016 1.01149 -0.18388
 C263 C 0.83788 0.98918 -0.18379
 C264 C 0.81324 0.99556 -0.22738
 C265 C 0.85827 1.07247 -0.24164
 C266 C 0.88290 1.06608 -0.19811
 C267 C 0.81706 1.03079 -0.31365
 C268 C 0.79600 1.03732 -0.35245
 C269 C 0.91684 1.00511 -0.13722
 C270 C 0.93937 1.00148 -0.09900
 H271 H 0.90563 0.97983 -0.30698
 H272 H 0.95140 0.96802 -0.22607
 H273 H 0.82164 0.97016 -0.15227
 H274 H 0.77586 0.98198 -0.23325
 H275 H 0.85019 1.10886 -0.25676
 H276 H 0.89594 1.09699 -0.17592
 C277 C 1.26711 1.15588 0.02437
 C278 C 1.26033 1.13552 -0.02831
 C279 C 1.21665 1.11113 -0.03501
 C280 C 1.18413 1.10954 0.01164
 C281 C 1.17756 1.16387 0.02717
 C282 C 1.22123 1.18827 0.03385
 C283 C 1.26068 1.11087 0.05853
 C284 C 1.21705 1.08651 0.05184
 C285 C 1.31422 1.18185 0.03182
 C286 C 1.35317 1.20260 0.03855
 C287 C 1.13735 1.08309 0.00498
 C288 C 1.09905 1.06070 0.00122
 H289 H 1.28744 1.13987 -0.05774
 H290 H 1.20631 1.09454 -0.07015
 H291 H 1.14179 1.18159 0.03246
 H292 H 1.22290 1.22691 0.04490
 H293 H 1.28797 1.09919 0.08564
 H294 H 1.20695 1.05394 0.07320
 C295 C 0.73251 1.15560 -0.02459
 C296 C 0.77042 1.18513 0.00578
 C297 C 0.81426 1.16086 0.01243
 C298 C 0.81576 1.10949 -0.01190
 C299 C 0.80302 1.11863 -0.06654
 C300 C 0.75925 1.14289 -0.07321
 C301 C 0.72715 1.10596 0.00268
 C302 C 0.77094 1.08170 0.00933
 C303 C 0.68528 1.18146 -0.03203
 C304 C 0.64627 1.20219 -0.03879
 C305 C 0.86267 1.08317 -0.00526
 C306 C 0.90105 1.06083 -0.00149
 H307 H 0.76349 1.22188 0.02064
 H308 H 0.84492 1.17680 0.03296
 H309 H 0.82634 1.10708 -0.09729
 H310 H 0.74507 1.15214 -0.10967
 H311 H 0.69203 1.09113 0.01555
 H312 H 0.77338 1.04606 0.02787
 C313 C 1.26749 0.84405 -0.02442
 C314 C 1.22804 0.81308 0.00247
 C315 C 1.18422 0.83743 0.00906
 C316 C 1.18426 0.89029 -0.01187
 C317 C 1.19917 0.88456 -0.06647
 C318 C 1.24293 0.86024 -0.07306
 C319 C 1.27222 0.89173 0.00626
 C320 C 1.22843 0.91606 0.01285
 C321 C 1.31473 0.81817 -0.03180
 C322 C 1.35379 0.79750 -0.03855
 C323 C 1.13739 0.91674 -0.00532
 C324 C 1.09906 0.93919 -0.00163
 H325 H 1.23398 0.77536 0.01512
 H326 H 1.15257 0.82060 0.02735
 H327 H 1.17724 0.89834 -0.09724
 H328 H 1.25851 0.85317 -0.10950
 H329 H 1.30691 0.90520 0.02144
 H330 H 1.22557 0.95039 0.03367
 C331 C 0.73267 0.84491 0.02453
 C332 C 0.75762 0.86050 0.07316
 C333 C 0.80135 0.88475 0.06649
 C334 C 0.81583 0.89101 0.01184
 C335 C 0.77149 0.91720 -0.01223
 C336 C 0.72773 0.89294 -0.00557
 C337 C 0.77189 0.81411 -0.00301
 C338 C 0.81567 0.83838 -0.00968
 C339 C 0.68551 0.81902 0.03195
 C340 C 0.64658 0.79821 0.03867
 C341 C 0.86271 0.91727 0.00519
 C342 C 0.90109 0.93951 0.00139
 H343 H 0.74228 0.85315 0.10963
 H344 H 0.82350 0.89819 0.09725
 H345 H 0.77420 0.95178 -0.03262
 H346 H 0.69293 0.90671 -0.02028
 H347 H 0.76582 0.77656 -0.01606
 H348 H 0.84716 0.82164 -0.02841
 C349 C 0.76657 0.52614 0.34256
 C350 C 0.72346 0.51087 0.30878
 C351 C 0.67994 0.50382 0.33351
 C352 C 0.68391 0.51271 0.38952
 C353 C 0.70459 0.56541 0.39465
 C354 C 0.74806 0.57247 0.36996
 C355 C 0.76930 0.48556 0.38233
 C356 C 0.72581 0.47850 0.40704
 C357 C 0.81351 0.53392 0.31626
 C358 C 0.85238 0.54079 0.29529
 C359 C 0.63734 0.50561 0.41634
 C360 C 0.59917 0.50154 0.43899
 H361 H 0.72679 0.50617 0.26897
 H362 H 0.64594 0.49313 0.31491
 H363 H 0.68659 0.59466 0.41571
 H364 H 0.76732 0.60776 0.36987
 H365 H 0.80247 0.46424 0.39037
 H366 H 0.72169 0.45116 0.43626
 C367 C 0.23334 0.47665 0.34353
 C368 C 0.22876 0.50922 0.38997
 C369 C 0.27239 0.51557 0.41447
 C370 C 0.31627 0.48874 0.39011
 C371 C 0.31745 0.50766 0.33651
 C372 C 0.27379 0.50131 0.31199
 C373 C 0.25653 0.42800 0.36178
 C374 C 0.30014 0.43436 0.38627
 C375 C 0.18627 0.46958 0.31740
 C376 C 0.14740 0.46315 0.29645
 C377 C 0.36301 0.49509 0.41667
 C378 C 0.40127 0.49869 0.43912
 H379 H 0.19428 0.52583 0.40250
 H380 H 0.27533 0.53762 0.44799
 H381 H 0.34972 0.52448 0.31934
 H382 H 0.26862 0.51271 0.27378
 H383 H 0.24016 0.39174 0.35594
 H384 H 0.32116 0.40354 0.40142
 C385 C 0.76555 0.47596 0.65845
 C386 C 0.77015 0.46698 0.60247
 C387 C 0.72688 0.47351 0.57742
 C388 C 0.68327 0.48839 0.61080
 C389 C 0.70071 0.53500 0.63824
 C390 C 0.74404 0.52845 0.66333
 C391 C 0.72386 0.44129 0.67564
 C392 C 0.68057 0.44783 0.65057
 C393 C 0.81228 0.46864 0.68510
 C394 C 0.85098 0.46196 0.70631
 C395 C 0.63690 0.49486 0.58362
 C396 C 0.59890 0.49848 0.56075
 H397 H 0.80440 0.45643 0.58411
 H398 H 0.72403 0.46856 0.53760
 H399 H 0.68082 0.56999 0.63799
 H400 H 0.76131 0.55786 0.68461
 H401 H 0.72797 0.41403 0.70492
 H402 H 0.64756 0.42617 0.65835
 C403 C 0.23367 0.52378 0.65749
 C404 C 0.26676 0.48317 0.67974
 C405 C 0.31030 0.47661 0.65486
 C406 C 0.31634 0.51132 0.61024
 C407 C 0.30976 0.56377 0.63125
 C408 C 0.26629 0.57033 0.65610
 C409 C 0.22684 0.50898 0.60300
 C410 C 0.27033 0.50243 0.57815
 C411 C 0.18678 0.53115 0.68400
 C412 C 0.14805 0.53791 0.70525
 C413 C 0.36295 0.50487 0.58332
 C414 C 0.40116 0.50128 0.56066
 H415 H 0.25689 0.46151 0.71216
 H416 H 0.33776 0.44936 0.66594
 H417 H 0.33689 0.59317 0.62701
 H418 H 0.25614 0.60535 0.67315
 H419 H 0.19099 0.50405 0.58549
 H420 H 0.27178 0.49188 0.53935
 C421 C 0.52452 0.65793 0.23393
 C422 C 0.49520 0.60955 0.22822
 C423 C 0.48861 0.58462 0.27162
 C424 C 0.51199 0.61057 0.31642
 C425 C 0.48964 0.66289 0.31674
 C426 C 0.49623 0.68782 0.27331
 C427 C 0.57323 0.64271 0.25902
 C428 C 0.56664 0.61780 0.30240
 C429 C 0.53186 0.68450 0.18712
 C430 C 0.53852 0.70576 0.14843
 C431 C 0.50541 0.58359 0.36292
 C432 C 0.50168 0.56089 0.40104
 H433 H 0.48091 0.59603 0.19316
 H434 H 0.46870 0.54975 0.27378
 H435 H 0.47042 0.67893 0.34827
 H436 H 0.48264 0.72526 0.26760
 H437 H 0.60970 0.65081 0.24405
 H438 H 0.59746 0.60452 0.32460
 C439 C 0.47656 0.65821 0.76581
 C440 C 0.47518 0.60164 0.77166
 C441 C 0.48163 0.57665 0.72829
 C442 C 0.48884 0.61068 0.68333
 C443 C 0.53272 0.64413 0.69686
 C444 C 0.52627 0.66915 0.74029
 C445 C 0.43699 0.67001 0.72674
 C446 C 0.44345 0.64502 0.68335
 C447 C 0.46929 0.68481 0.81263
 C448 C 0.46259 0.70601 0.85137
 C449 C 0.49518 0.58357 0.63685
 C450 C 0.49872 0.56077 0.59875
 H451 H 0.46966 0.58286 0.80680
 H452 H 0.48165 0.53646 0.72624
 H453 H 0.56589 0.64783 0.67434
 H454 H 0.55391 0.69433 0.75502
 H455 H 0.40661 0.69579 0.73260
 H456 H 0.41863 0.64938 0.65202
 C457 C 0.47569 0.34212 0.23387
 C458 C 0.42737 0.35173 0.26243
 C459 C 0.43408 0.37664 0.30578
 C460 C 0.48845 0.38947 0.31631
 C461 C 0.50600 0.41834 0.27060
 C462 C 0.49931 0.39343 0.22723
 C463 C 0.50945 0.31490 0.27068
 C464 C 0.51615 0.33982 0.31409
 C465 C 0.46820 0.31558 0.18708
 C466 C 0.46146 0.29439 0.14837
 C467 C 0.49513 0.41647 0.36278
 C468 C 0.49889 0.43918 0.40090
 H469 H 0.39109 0.33995 0.24975
 H470 H 0.40355 0.38622 0.33027
 H471 H 0.52221 0.45512 0.27215
 H472 H 0.50981 0.40885 0.19159
 H473 H 0.52651 0.27918 0.26333
 H474 H 0.53892 0.32549 0.34398
 C475 C 0.52413 0.34186 0.76568
 C476 C 0.54504 0.39473 0.76637
 C477 C 0.53848 0.41965 0.72301
 C478 C 0.51164 0.38926 0.68322
 C479 C 0.46293 0.37279 0.70753
 C480 C 0.46951 0.34783 0.75093
 C481 C 0.54897 0.31676 0.72101
 C482 C 0.54242 0.34171 0.67763
 C483 C 0.53145 0.31530 0.81249
 C484 C 0.53808 0.29409 0.85122
 C485 C 0.50511 0.41627 0.63674
 C486 C 0.50144 0.43901 0.59863
 H487 H 0.56343 0.41114 0.79811
 H488 H 0.55129 0.45739 0.71756
 H489 H 0.42654 0.38012 0.69205
 H490 H 0.43872 0.33375 0.77268
 H491 H 0.56992 0.28246 0.72327
 H492 H 0.55775 0.32882 0.64269
 C493 C 0.65771 0.76614 0.47673
 C494 C 0.60900 0.77170 0.50569
 C495 C 0.58422 0.72822 0.51205
 C496 C 0.61061 0.68347 0.48883
 C497 C 0.66270 0.68336 0.51156
 C498 C 0.68750 0.72689 0.50520
 C499 C 0.64313 0.74093 0.42790
 C500 C 0.61836 0.69746 0.43426
 C501 C 0.68406 0.81307 0.46956
 C502 C 0.70508 0.85190 0.46294
 C503 C 0.58371 0.63690 0.49513
 C504 C 0.56100 0.59878 0.49864
 H505 H 0.59518 0.80673 0.51993
 H506 H 0.54916 0.72594 0.53172
 H507 H 0.67871 0.65188 0.53083
 H508 H 0.72479 0.73275 0.51904
 H509 H 0.65159 0.75587 0.39151
 H510 H 0.60559 0.67513 0.40334
 C511 C 0.65657 0.23296 0.52496
 C512 C 0.66692 0.25713 0.47450
 C513 C 0.64240 0.30079 0.46762
 C514 C 0.60998 0.31588 0.51189
 C515 C 0.64514 0.31639 0.55652
 C516 C 0.66965 0.27277 0.56340
 C517 C 0.59996 0.22802 0.52769
 C518 C 0.57546 0.27163 0.52083
 C519 C 0.68271 0.18591 0.53259
 C520 C 0.70367 0.14704 0.53942
 C521 C 0.58342 0.36263 0.50505
 C522 C 0.56096 0.40093 0.50119
 H523 H 0.69133 0.24134 0.44664
 H524 H 0.64576 0.32244 0.43389
 H525 H 0.65030 0.34820 0.58062
 H526 H 0.69583 0.26719 0.59339
 H527 H 0.58079 0.19331 0.53442
 H528 H 0.53531 0.27431 0.52167
 C529 C 0.34313 0.76685 0.52356
 C530 C 0.36110 0.75839 0.47021
 C531 C 0.38580 0.71476 0.46380
 C532 C 0.39004 0.68395 0.51137
 C533 C 0.33659 0.67739 0.52973
 C534 C 0.31190 0.72101 0.53614
 C535 C 0.38979 0.76210 0.55569
 C536 C 0.41444 0.71852 0.54928
 C537 C 0.31684 0.81390 0.53070
 C538 C 0.29581 0.85280 0.53720
 C539 C 0.41678 0.63722 0.50499
 C540 C 0.43934 0.59895 0.50135
 H541 H 0.35499 0.78440 0.44015
 H542 H 0.40088 0.70335 0.42826
 H543 H 0.31965 0.64165 0.53707
 H544 H 0.27379 0.72268 0.54899
 H545 H 0.40232 0.79047 0.58128
 H546 H 0.44811 0.70951 0.56938
 C547 C 0.34384 0.23342 0.47389
 C548 C 0.37270 0.25090 0.42808
 C549 C 0.39717 0.29444 0.43505
 C550 C 0.39037 0.31622 0.48715
 C551 C 0.40681 0.27499 0.52266
 C552 C 0.38232 0.23143 0.51569
 C553 C 0.30960 0.27692 0.48730
 C554 C 0.33410 0.32051 0.49426
 C555 C 0.31776 0.18642 0.46621
 C556 C 0.29691 0.14755 0.45941
 C557 C 0.41694 0.36287 0.49414
 C558 C 0.43943 0.40107 0.49816
 H559 H 0.37376 0.23089 0.39320
 H560 H 0.41921 0.31174 0.40614
 H561 H 0.43518 0.27960 0.55076
 H562 H 0.38970 0.19868 0.53784
 H563 H 0.26964 0.27379 0.49084
 H564 H 0.31517 0.35476 0.50373
   
