data_POSCAR
  _audit_creation_date              2014-09-24
  _audit_creation_method            'ToBaCCo'
  _symmetry_space_group_name_H-M    'P1'
  _symmetry_Int_Tables_number       1
  _symmetry_cell_setting            triclinic
  loop_
  _symmetry_equiv_pos_as_xyz
 x,y,z
_cell_length_a 46.4653
_cell_length_b 45.3792
_cell_length_c 40.5447
_cell_angle_alpha 89.356100
_cell_angle_beta 89.823300
_cell_angle_gamma 96.608700
loop_
  _atom_site_label
  _atom_site_type_symbol
  _atom_site_fract_x
  _atom_site_fract_y
  _atom_site_fract_z
C1 C -0.04902 0.28894 0.02584
 C2 C -0.06213 0.29084 -0.00522
 C3 C -0.04622 0.29223 -0.03492
 C4 C -0.01553 0.29347 -0.03330
 C5 C -0.00175 0.29051 -0.00244
 C6 C -0.01844 0.28823 0.02719
 C7 C -0.00372 0.28666 0.05741
 C8 C 0.02587 0.28514 0.05849
 C9 C 0.04256 0.28624 0.02955
 C10 C 0.02897 0.29018 -0.00117
 C11 C 0.00197 0.29891 -0.06163
 C12 C 0.03188 0.29946 -0.06024
 C13 C 0.04603 0.29409 -0.03049
 C14 C 0.07674 0.29397 -0.02882
 C15 C 0.08915 0.28849 0.00194
 C16 C 0.07263 0.28430 0.03085
 H17 H -0.01442 0.28707 0.08100
 H18 H 0.03565 0.28404 0.08259
 H19 H -0.00700 0.30402 -0.08529
 H20 H 0.04349 0.30475 -0.08300
 H21 H -0.08546 0.28785 -0.00633
 H22 H 0.11178 0.28509 0.00326
 C23 C 0.44266 0.81894 0.52759
 C24 C 0.42834 0.81557 0.49736
 C25 C 0.44356 0.81539 0.46747
 C26 C 0.47426 0.81853 0.46795
 C27 C 0.48911 0.82135 0.49853
 C28 C 0.47326 0.82202 0.52843
 C29 C 0.48838 0.82453 0.55844
 C30 C 0.51845 0.82565 0.55918
 C31 C 0.53457 0.82436 0.52993
 C32 C 0.51983 0.82257 0.49929
 C33 C 0.49058 0.81910 0.43864
 C34 C 0.52060 0.82034 0.43938
 C35 C 0.53564 0.82103 0.46945
 C36 C 0.56605 0.82037 0.47045
 C37 C 0.58010 0.82161 0.50101
 C38 C 0.56489 0.82359 0.53057
 H39 H 0.47705 0.82510 0.58175
 H40 H 0.52891 0.82704 0.58302
 H41 H 0.48039 0.81870 0.41469
 H42 H 0.53183 0.82082 0.41594
 H43 H 0.40487 0.81207 0.49738
 H44 H 0.60318 0.81996 0.50207
 C45 C 0.93728 0.73954 0.02954
 C46 C 0.92218 0.74150 -0.00005
 C47 C 0.93582 0.73970 -0.03071
 C48 C 0.96572 0.73610 -0.03185
 C49 C 0.98145 0.73417 -0.00209
 C50 C 0.96700 0.73545 0.02863
 C51 C 0.98235 0.73148 0.05774
 C52 C 1.01151 0.72765 0.05694
 C53 C 1.02707 0.72821 0.02696
 C54 C 1.01160 0.73058 -0.00301
 C55 C 0.98007 0.73330 -0.06193
 C56 C 1.00933 0.72956 -0.06293
 C57 C 1.02592 0.72888 -0.03387
 C58 C 1.05595 0.72517 -0.03473
 C59 C 1.07080 0.72334 -0.00466
 C60 C 1.05725 0.72524 0.02618
 H61 H 0.97185 0.73053 0.08164
 H62 H 1.02115 0.72336 0.08042
 H63 H 0.96872 0.73332 -0.08517
 H64 H 1.01827 0.72644 -0.08705
 H65 H 0.89969 0.74569 0.00079
 H66 H 1.09403 0.72364 -0.00542
 C67 C 0.44162 0.20360 0.53738
 C68 C 0.42569 0.20315 0.50804
 C69 C 0.43904 0.20198 0.47712
 C70 C 0.46945 0.20152 0.47534
 C71 C 0.48591 0.20178 0.50478
 C72 C 0.47189 0.20225 0.53586
 C73 C 0.48845 0.20089 0.56467
 C74 C 0.51828 0.20035 0.56307
 C75 C 0.53295 0.20167 0.53258
 C76 C 0.51654 0.20190 0.50313
 C77 C 0.48385 0.20035 0.44488
 C78 C 0.51381 0.20108 0.44326
 C79 C 0.53069 0.20255 0.47203
 C80 C 0.56127 0.20421 0.47047
 C81 C 0.57711 0.20383 0.49980
 C82 C 0.56349 0.20235 0.53076
 H83 H 0.47850 0.19973 0.58887
 H84 H 0.52957 0.19873 0.58616
 H85 H 0.47219 0.19869 0.42183
 H86 H 0.52349 0.19998 0.41908
 H87 H 0.40278 0.20554 0.50916
 H88 H 0.60055 0.20654 0.49861
 C89 C 0.67368 -0.06837 0.03270
 C90 C 0.67210 -0.08198 0.00172
 C91 C 0.66907 -0.06610 -0.02783
 C92 C 0.66739 -0.03504 -0.02617
 C93 C 0.67012 -0.02051 0.00472
 C94 C 0.67261 -0.03723 0.03427
 C95 C 0.67557 -0.02196 0.06437
 C96 C 0.67591 0.00859 0.06556
 C97 C 0.67403 0.02561 0.03671
 C98 C 0.67070 0.01099 0.00599
 C99 C 0.66158 -0.01820 -0.05428
 C100 C 0.66148 0.01237 -0.05279
 C101 C 0.66811 0.02780 -0.02344
 C102 C 0.67013 0.05934 -0.02204
 C103 C 0.67198 0.07298 0.00885
 C104 C 0.67496 0.05683 0.03801
 H105 H 0.67825 -0.03305 0.08763
 H106 H 0.67754 0.01860 0.08965
 H107 H 0.65615 -0.02841 -0.07774
 H108 H 0.65545 0.02364 -0.07490
 H109 H 0.67356 -0.10551 0.00081
 H110 H 0.67406 0.09700 0.00991
 C111 C 0.20164 0.55043 0.46193
 C112 C 0.20098 0.56261 0.49352
 C113 C 0.19929 0.54480 0.52209
 C114 C 0.19735 0.51358 0.51896
 C115 C 0.19896 0.50087 0.48725
 C116 C 0.20139 0.51935 0.45865
 C117 C 0.20304 0.50614 0.42756
 C118 C 0.20351 0.47565 0.42466
 C119 C 0.20162 0.45698 0.45265
 C120 C 0.19840 0.46960 0.48416
 C121 C 0.19363 0.49466 0.54675
 C122 C 0.19243 0.46406 0.54366
 C123 C 0.19499 0.45106 0.51266
 C124 C 0.19506 0.42008 0.50952
 C125 C 0.19902 0.40811 0.47845
 C126 C 0.20234 0.42598 0.44995
 H127 H 0.20402 0.51914 0.40501
 H128 H 0.20491 0.46684 0.40010
 H129 H 0.19121 0.50320 0.57126
 H130 H 0.18985 0.45075 0.56600
 H131 H 0.20340 0.58653 0.49584
 H132 H 0.20002 0.38444 0.47661
 C133 C 0.32695 0.93582 0.01988
 C134 C 0.32405 0.92035 -0.00969
 C135 C 0.31864 0.93436 -0.03984
 C136 C 0.31663 0.96557 -0.03987
 C137 C 0.32012 0.98167 -0.00990
 C138 C 0.32596 0.96679 0.01986
 C139 C 0.33155 0.98337 0.04866
 C140 C 0.33009 1.01376 0.04875
 C141 C 0.32273 1.02882 0.02011
 C142 C 0.31815 1.01283 -0.00970
 C143 C 0.31270 0.98160 -0.06915
 C144 C 0.31034 1.01184 -0.06887
 C145 C 0.31212 1.02797 -0.03935
 C146 C 0.30975 1.05904 -0.03893
 C147 C 0.31465 1.07417 -0.00896
 C148 C 0.32080 1.05966 0.02023
 H149 H 0.33770 0.97309 0.07138
 H150 H 0.33516 1.02536 0.07153
 H151 H 0.31221 0.97150 -0.09311
 H152 H 0.30820 1.02236 -0.09260
 H153 H 0.32384 0.89652 -0.00817
 H154 H 0.31179 1.09742 -0.00721
 C155 C 0.78315 0.56706 0.53812
 C156 C 0.78261 0.58320 0.50849
 C157 C 0.78433 0.56960 0.47780
 C158 C 0.78693 0.53884 0.47658
 C159 C 0.78719 0.52206 0.50630
 C160 C 0.78559 0.53625 0.53714
 C161 C 0.78693 0.51930 0.56623
 C162 C 0.78834 0.48890 0.56511
 C163 C 0.78858 0.47408 0.53485
 C164 C 0.78878 0.49094 0.50516
 C165 C 0.78979 0.52449 0.44641
 C166 C 0.79150 0.49414 0.44530
 C167 C 0.79026 0.47673 0.47431
 C168 C 0.79084 0.44560 0.47325
 C169 C 0.79038 0.42927 0.50286
 C170 C 0.78909 0.44297 0.53358
 H171 H 0.78720 0.52932 0.59031
 H172 H 0.78960 0.47726 0.58839
 H173 H 0.79111 0.53659 0.42322
 H174 H 0.79414 0.48465 0.42130
 H175 H 0.77909 0.60637 0.50926
 H176 H 0.78917 0.40531 0.50194
 O177 O 0.24104 0.17365 0.23707
 O178 O 0.21755 0.23175 0.28924
 O179 O 0.20894 0.21667 0.22828
 O180 O 0.25244 0.19147 0.29727
 O181 O 0.28980 0.22212 0.27966
 O182 O 0.24671 0.24745 0.21187
 O183 O 0.25501 0.26298 0.27287
 O184 O 0.27845 0.20424 0.21939
 Cu185 Cu 0.22630 0.20021 0.26461
 Cu186 Cu 0.27134 0.23719 0.24430
 C187 C 0.26343 0.17895 0.21910
 C188 C 0.23201 0.25716 0.29002
 C189 C 0.22054 0.23662 0.20854
 C190 C 0.27860 0.20285 0.30023
 O191 O 0.76734 0.81339 0.23569
 O192 O 0.78847 0.76220 0.29977
 O193 O 0.80057 0.77180 0.23731
 O194 O 0.75419 0.80378 0.29805
 O195 O 0.71776 0.77050 0.28465
 O196 O 0.76362 0.73955 0.22288
 O197 O 0.75221 0.72908 0.28546
 O198 O 0.72979 0.78123 0.22275
 Cu199 Cu 0.78131 0.79107 0.26924
 Cu200 Cu 0.73717 0.75172 0.25265
 C201 C 0.74517 0.80596 0.21817
 C202 C 0.77402 0.73691 0.30350
 C203 C 0.78978 0.75069 0.21922
 C204 C 0.72808 0.79246 0.30177
 O205 O 0.79587 0.25338 0.22249
 O206 O 0.74390 0.22438 0.28669
 O207 O 0.75082 0.21356 0.22464
 O208 O 0.78738 0.26560 0.28471
 O209 O 0.75870 0.29892 0.26981
 O210 O 0.72205 0.24706 0.21050
 O211 O 0.71499 0.25776 0.27252
 O212 O 0.76706 0.28658 0.20763
 Cu213 Cu 0.77252 0.23597 0.25598
 Cu214 Cu 0.73795 0.27606 0.23868
 C215 C 0.79018 0.27453 0.20376
 C216 C 0.72064 0.23608 0.29059
 C217 C 0.73009 0.22147 0.20750
 C218 C 0.77878 0.29100 0.28787
 O219 O 0.27595 0.77731 0.21426
 O220 O 0.25441 0.71053 0.26506
 O221 O 0.24047 0.72938 0.20644
 O222 O 0.28985 0.75876 0.27236
 O223 O 0.25463 0.78092 0.29441
 O224 O 0.20528 0.75140 0.22873
 O225 O 0.21928 0.73264 0.28733
 O226 O 0.24062 0.79928 0.23636
 Cu227 Cu 0.26865 0.74167 0.23732
 Cu228 Cu 0.22634 0.76814 0.26398
 C229 C 0.26187 0.79961 0.21657
 C230 C 0.23342 0.71038 0.28518
 C231 C 0.21461 0.73585 0.20605
 C232 C 0.28064 0.77493 0.29454
 O233 O 0.79368 0.24864 0.70598
 O234 O 0.76768 0.18678 0.76164
 O235 O 0.75434 0.20337 0.70222
 O236 O 0.80538 0.23391 0.76655
 O237 O 0.77181 0.26003 0.78569
 O238 O 0.72114 0.22927 0.72259
 O239 O 0.73443 0.21280 0.78172
 O240 O 0.76008 0.27472 0.72513
 Cu241 Cu 0.78365 0.21553 0.73223
 Cu242 Cu 0.74358 0.24682 0.75585
 C243 C 0.78107 0.27198 0.70563
 C244 C 0.74671 0.18917 0.78115
 C245 C 0.72905 0.21145 0.70140
 C246 C 0.79710 0.25224 0.78707
 O247 O 0.29654 0.72346 0.73054
 O248 O 0.23650 0.70404 0.78858
 O249 O 0.24802 0.68934 0.72822
 O250 O 0.28419 0.73994 0.79003
 O251 O 0.26146 0.77639 0.77017
 O252 O 0.22595 0.72618 0.70818
 O253 O 0.21382 0.74055 0.76875
 O254 O 0.27484 0.76076 0.71093
 Cu255 Cu 0.26853 0.71053 0.76136
 Cu256 Cu 0.24173 0.75460 0.73743
 C257 C 0.29596 0.74524 0.71082
 C258 C 0.21513 0.71906 0.78888
 C259 C 0.23109 0.69934 0.70739
 C260 C 0.27872 0.76673 0.79079
 O261 O 0.20635 0.24954 0.76748
 O262 O 0.25820 0.22033 0.71199
 O263 O 0.24372 0.21079 0.77355
 O264 O 0.22487 0.26241 0.70731
 O265 O 0.25961 0.29573 0.72510
 O266 O 0.27777 0.24530 0.79040
 O267 O 0.29299 0.25396 0.72902
 O268 O 0.24054 0.28337 0.78540
 Cu269 Cu 0.22973 0.23246 0.73844
 Cu270 Cu 0.27105 0.27305 0.75920
 C271 C 0.21452 0.27102 0.78620
 C272 C 0.28427 0.23207 0.71081
 C273 C 0.26423 0.21955 0.79315
 C274 C 0.23974 0.28772 0.70473
 O275 O 0.69952 0.75055 0.79883
 O276 O 0.73479 0.70688 0.73794
 O277 O 0.74442 0.72127 0.79930
 O278 O 0.68956 0.73506 0.73779
 O279 O 0.71622 0.77617 0.72157
 O280 O 0.77215 0.76145 0.78242
 O281 O 0.76169 0.74749 0.72076
 O282 O 0.72711 0.79098 0.78242
 Cu283 Cu 0.71437 0.72440 0.77022
 Cu284 Cu 0.74710 0.77309 0.75015
 C285 C 0.70736 0.77819 0.80103
 C286 C 0.75395 0.71983 0.71866
 C287 C 0.76759 0.73887 0.80139
 C288 C 0.69349 0.75783 0.71919
 C289 C 0.32421 0.07810 0.05019
 C290 C 0.30570 0.07268 0.07723
 C291 C 0.30395 0.09460 0.10348
 N292 N 0.28389 0.08915 0.12782
 N293 N 0.28081 0.10944 0.15066
 C294 C 0.29766 0.13598 0.15007
 N295 N 0.31794 0.14132 0.12591
 N296 N 0.32102 0.12102 0.10304
 C297 C 0.29326 0.15922 0.17411
 C298 C 0.27113 0.15518 0.19756
 H299 H 0.29052 0.05267 0.07794
 H300 H 0.30667 0.18034 0.17222
 H301 H 0.33783 0.09910 0.04834
 H302 H 0.25768 0.13406 0.19913
 C303 C 0.77823 0.58220 0.56957
 C304 C 0.78982 0.61134 0.57570
 C305 C 0.78253 0.62690 0.60570
 N306 N 0.79342 0.65562 0.61014
 N307 N 0.78609 0.67030 0.63659
 C308 C 0.76761 0.65675 0.65959
 N309 N 0.75689 0.62798 0.65526
 N310 N 0.76421 0.61333 0.62882
 C311 C 0.75805 0.67294 0.68807
 C312 C 0.76691 0.70297 0.69289
 H313 H 0.80425 0.62327 0.55782
 H314 H 0.74242 0.66115 0.70481
 H315 H 0.76454 0.57027 0.58810
 H316 H 0.78261 0.71483 0.67628
 C317 C 0.67652 0.91399 0.06124
 C318 C 0.69213 0.88943 0.06148
 C319 C 0.69664 0.87284 0.09192
 N320 N 0.72220 0.86178 0.09677
 N321 N 0.72680 0.84681 0.12430
 C322 C 0.70583 0.84196 0.14776
 N323 N 0.68005 0.85260 0.14270
 N324 N 0.67562 0.86803 0.11536
 C325 C 0.71075 0.82479 0.17769
 C326 C 0.73829 0.82587 0.19133
 H327 H 0.70471 0.88464 0.04007
 H328 H 0.69258 0.81149 0.18933
 H329 H 0.66846 0.92054 0.08474
 H330 H 0.75559 0.84172 0.18171
 C331 C 0.19208 0.39962 0.53833
 C332 C 0.21305 0.38077 0.54466
 C333 C 0.21201 0.36106 0.57367
 N334 N 0.23693 0.35204 0.58518
 N335 N 0.23667 0.33433 0.61157
 C336 C 0.21142 0.32462 0.62722
 N337 N 0.18634 0.33319 0.61538
 N338 N 0.18664 0.35127 0.58915
 C339 C 0.21154 0.30539 0.65664
 C340 C 0.23560 0.30797 0.67717
 H341 H 0.23205 0.38203 0.52890
 H342 H 0.19274 0.28980 0.66251
 H343 H 0.17444 0.40073 0.55562
 H344 H 0.25283 0.32578 0.67256
 C345 C 0.93328 0.28547 0.05455
 C346 C 0.90557 0.29467 0.05708
 C347 C 0.88776 0.28936 0.08719
 N348 N 0.86255 0.30157 0.09010
 N349 N 0.84604 0.29655 0.11699
 C350 C 0.85414 0.27909 0.14194
 N351 N 0.87932 0.26689 0.13901
 N352 N 0.89585 0.27196 0.11219
 C353 C 0.83571 0.27220 0.17124
 C354 C 0.81008 0.28474 0.17658
 H355 H 0.89702 0.30739 0.03743
 H356 H 0.84218 0.25597 0.18869
 H357 H 0.94121 0.27545 0.07642
 H358 H 0.80381 0.30148 0.15966
 C359 C 0.42476 0.81708 0.55789
 C360 C 0.40634 0.79137 0.56492
 C361 C 0.38639 0.78844 0.59319
 N362 N 0.37514 0.76102 0.60360
 N363 N 0.35601 0.75774 0.62824
 C364 C 0.34712 0.78178 0.64316
 N365 N 0.35820 0.80928 0.63259
 N366 N 0.37762 0.81256 0.60813
 C367 C 0.32509 0.77807 0.66947
 C368 C 0.31978 0.75143 0.68700
 H369 H 0.40685 0.77234 0.54910
 H370 H 0.31300 0.79642 0.67516
 H371 H 0.42670 0.83544 0.57488
 H372 H 0.33367 0.73416 0.68306
 C373 C 0.07410 0.72660 0.05542
 C374 C 0.10149 0.71672 0.05854
 C375 C 0.11843 0.72070 0.08922
 N376 N 0.14457 0.71022 0.09154
 N377 N 0.16035 0.71423 0.11888
 C378 C 0.15053 0.72885 0.14493
 N379 N 0.12437 0.73922 0.14264
 N380 N 0.10861 0.73522 0.11533
 C381 C 0.16808 0.73468 0.17483
 C382 C 0.19571 0.72590 0.17829
 H383 H 0.11063 0.70487 0.03883
 H384 H 0.15944 0.74758 0.19405
 H385 H 0.06579 0.73615 0.07721
 H386 H 0.20445 0.71298 0.15917
 C387 C 0.58182 0.20441 0.56077
 C388 C 0.60712 0.19070 0.56348
 C389 C 0.62598 0.19471 0.59256
 N390 N 0.65145 0.18276 0.59341
 N391 N 0.66909 0.18710 0.61923
 C392 C 0.66179 0.20350 0.64514
 N393 N 0.63624 0.21522 0.64436
 N394 N 0.61867 0.21092 0.61858
 C395 C 0.68131 0.20991 0.67322
 C396 C 0.70890 0.20070 0.67508
 H397 H 0.61348 0.17697 0.54366
 H398 H 0.67410 0.22377 0.69245
 H399 H 0.57556 0.21762 0.58106
 H400 H 0.71633 0.18670 0.65614
 C401 C 0.67226 0.07865 0.95028
 C402 C 0.68756 0.07381 0.92145
 C403 C 0.69351 0.09706 0.89588
 N404 N 0.71286 0.09371 0.87147
 N405 N 0.71954 0.11517 0.84911
 C406 C 0.70707 0.14080 0.85029
 N407 N 0.68745 0.14400 0.87445
 N408 N 0.68082 0.12257 0.89685
 C409 C 0.71509 0.16522 0.82661
 C410 C 0.73706 0.16410 0.80333
 H411 H 0.69836 0.05404 0.91906
 H412 H 0.70414 0.18498 0.82836
 H413 H 0.66638 0.10087 0.95367
 H414 H 0.74819 0.14445 0.80182
 C415 C 0.20438 0.57098 0.43303
 C416 C 0.18845 0.59517 0.43089
 C417 C 0.19228 0.61722 0.40389
 N418 N 0.21230 0.61560 0.37969
 N419 N 0.21611 0.63643 0.35613
 C420 C 0.20002 0.65961 0.35590
 N421 N 0.17992 0.66109 0.37999
 N422 N 0.17613 0.64029 0.40353
 C423 C 0.20478 0.68361 0.33109
 C424 C 0.22614 0.68429 0.30677
 H425 H 0.17275 0.59830 0.44998
 H426 H 0.19197 0.70201 0.33308
 H427 H 0.21925 0.56720 0.41334
 H428 H 0.23898 0.66593 0.30466
 C429 C 0.31330 0.91695 0.93145
 C430 C 0.32167 0.88846 0.92743
 C431 C 0.31299 0.87004 0.89864
 N432 N 0.32171 0.84261 0.89610
 N433 N 0.31333 0.82526 0.87078
 C434 C 0.29590 0.83473 0.84701
 N435 N 0.28729 0.86221 0.84946
 N436 N 0.29566 0.87954 0.87479
 C437 C 0.28545 0.81556 0.81950
 C438 C 0.29209 0.78649 0.81642
 H439 H 0.33553 0.87922 0.94521
 H440 H 0.27110 0.82431 0.80182
 H441 H 0.30178 0.92552 0.91110
 H442 H 0.30639 0.77758 0.83402
 C443 C 0.78867 0.42945 0.44155
 C444 C 0.80264 0.40440 0.43557
 C445 C 0.79834 0.38789 0.40457
 N446 N 0.81083 0.36260 0.40011
 N447 N 0.80609 0.34696 0.37262
 C448 C 0.78875 0.35612 0.34855
 N449 N 0.77650 0.38151 0.35291
 N450 N 0.78121 0.39711 0.38036
 C451 C 0.78150 0.33834 0.31902
 C452 C 0.79145 0.31093 0.31372
 H453 H 0.81675 0.39651 0.45409
 H454 H 0.76611 0.34626 0.30199
 H455 H 0.77509 0.43726 0.42246
 H456 H 0.80712 0.30297 0.33034
 C457 C 0.09482 0.29713 0.94279
 C458 C 0.12465 0.30645 0.94387
 C459 C 0.14375 0.30595 0.91490
 N460 N 0.13409 0.29312 0.88629
 N461 N 0.15217 0.29127 0.86102
 C462 C 0.18057 0.30221 0.86336
 N463 N 0.19012 0.31531 0.89182
 N464 N 0.17206 0.31711 0.91712
 C465 C 0.20124 0.29833 0.83655
 C466 C 0.19328 0.28062 0.80950
 H467 H 0.13460 0.31493 0.96646
 H468 H 0.22366 0.30739 0.83961
 H469 H 0.08571 0.29246 0.91872
 H470 H 0.17099 0.27087 0.80709
 C471 C 0.58303 0.81525 0.44039
 C472 C 0.61152 0.82802 0.43552
 C473 C 0.62915 0.81995 0.40754
 N474 N 0.65702 0.83235 0.40416
 N475 N 0.67354 0.82435 0.37964
 C476 C 0.66276 0.80363 0.35762
 N477 N 0.63486 0.79136 0.36090
 N478 N 0.61836 0.79936 0.38539
 C479 C 0.68085 0.79356 0.33116
 C480 C 0.70983 0.80477 0.32662
 H481 H 0.62141 0.84393 0.45302
 H482 H 0.67117 0.77612 0.31530
 H483 H 0.57312 0.80020 0.42207
 H484 H 0.71957 0.82247 0.34209
 C485 C 0.91856 0.74318 0.93899
 C486 C 0.89030 0.72935 0.93604
 C487 C 0.87159 0.73428 0.90776
 N488 N 0.84508 0.71847 0.90571
 N489 N 0.82734 0.72316 0.88095
 C490 C 0.83538 0.74395 0.85731
 N491 N 0.86194 0.75980 0.85933
 N492 N 0.87974 0.75504 0.88409
 C493 C 0.81550 0.74982 0.83036
 C494 C 0.78882 0.73270 0.82663
 H495 H 0.88139 0.71432 0.95540
 H496 H 0.82182 0.76807 0.81344
 H497 H 0.92813 0.75689 0.91888
 H498 H 0.78294 0.71405 0.84317
 C499 C 0.42124 0.20414 0.44704
 C500 C 0.39315 0.18978 0.44419
 C501 C 0.37552 0.19335 0.41461
 N502 N 0.34800 0.17965 0.41287
 N503 N 0.33172 0.18331 0.38643
 C504 C 0.34244 0.20078 0.36077
 N505 N 0.36996 0.21433 0.36249
 N506 N 0.38619 0.21069 0.38888
 C507 C 0.32480 0.20617 0.33180
 C508 C 0.29602 0.19405 0.32818
 H509 H 0.38384 0.17559 0.46407
 H510 H 0.33476 0.22120 0.31300
 H511 H 0.43041 0.21772 0.42665
 H512 H 0.28586 0.17874 0.34658
 C513 C 0.67021 0.91917 0.94162
 C514 C 0.66376 0.88848 0.93794
 C515 C 0.67143 0.87291 0.90816
 N516 N 0.66384 0.84323 0.90595
 N517 N 0.67241 0.82825 0.88036
 C518 C 0.68899 0.84239 0.85606
 N519 N 0.69640 0.87212 0.85812
 N520 N 0.68779 0.88712 0.88371
 C521 C 0.70015 0.82584 0.82878
 C522 C 0.69358 0.79522 0.82598
 H523 H 0.65293 0.87500 0.95747
 H524 H 0.71480 0.83793 0.81122
 H525 H 0.67711 0.93188 0.91973
 H526 H 0.67847 0.78317 0.84309
 C527 C 0.20850 0.41171 0.41829
 C528 C 0.19441 0.38400 0.41005
 C529 C 0.20425 0.36569 0.38352
 N530 N 0.18971 0.33855 0.37817
 N531 N 0.19926 0.32050 0.35605
 C532 C 0.22381 0.32883 0.33843
 N533 N 0.23827 0.35613 0.34352
 N534 N 0.22870 0.37424 0.36572
 C535 C 0.23509 0.30821 0.31505
 C536 C 0.22134 0.27947 0.31143
 H537 H 0.17631 0.37440 0.42506
 H538 H 0.25474 0.31538 0.30134
 H539 H 0.22540 0.42236 0.40231
 H540 H 0.20175 0.27257 0.32538
 C541 C 0.30100 0.07455 0.93293
 C542 C 0.30625 0.10536 0.92882
 C543 C 0.29487 0.12157 0.90108
 N544 N 0.30284 0.15113 0.89804
 N545 N 0.29263 0.16662 0.87358
 C546 C 0.27393 0.15322 0.85119
 N547 N 0.26582 0.12359 0.85424
 N548 N 0.27611 0.10802 0.87877
 C549 C 0.26288 0.17061 0.82403
 C550 C 0.27308 0.20052 0.81984
 H551 H 0.32030 0.11851 0.94564
 H552 H 0.24722 0.15984 0.80703
 H553 H 0.28962 0.06247 0.91321
 H554 H 0.28927 0.21072 0.83664
 C555 C 0.78053 0.58732 0.44746
 C556 C 0.79296 0.61663 0.44364
 C557 C 0.78712 0.63487 0.41472
 N558 N 0.80095 0.66274 0.41128
 N559 N 0.79529 0.67983 0.38571
 C560 C 0.77551 0.66969 0.36267
 N561 N 0.76171 0.64181 0.36610
 N562 N 0.76742 0.62470 0.39163
 C563 C 0.76830 0.68862 0.33489
 C564 C 0.78265 0.71697 0.32956
 H565 H 0.80733 0.62657 0.46247
 H566 H 0.75089 0.68020 0.31862
 H567 H 0.76728 0.57714 0.42783
 H568 H 0.80044 0.72517 0.34542
 C569 C 0.07171 0.72548 0.93522
 C570 C 0.09761 0.71282 0.93156
 C571 C 0.11510 0.71599 0.90114
 N572 N 0.13806 0.70030 0.89792
 N573 N 0.15493 0.70368 0.87123
 C574 C 0.14955 0.72295 0.84676
 N575 N 0.12654 0.73864 0.84993
 N576 N 0.10958 0.73518 0.87661
 C577 C 0.16909 0.72798 0.81806
 C578 C 0.19239 0.71157 0.81383
 H579 H 0.10512 0.69915 0.95105
 H580 H 0.16589 0.74574 0.80088
 H581 H 0.06370 0.73574 0.91349
 H582 H 0.19516 0.69350 0.83078
 C583 C 0.57725 0.20968 0.43879
 C584 C 0.60315 0.19807 0.43221
 C585 C 0.62088 0.20700 0.40288
 N586 N 0.64602 0.19520 0.39773
 N587 N 0.66293 0.20396 0.37204
 C588 C 0.65536 0.22490 0.35055
 N589 N 0.63016 0.23662 0.35562
 N590 N 0.61323 0.22784 0.38130
 C591 C 0.67433 0.23555 0.32275
 C592 C 0.70048 0.22427 0.31678
 H593 H 0.61107 0.18251 0.44945
 H594 H 0.66785 0.25311 0.30710
 H595 H 0.56891 0.22417 0.42067
 H596 H 0.70677 0.20648 0.33223
 C597 C 0.93897 0.28936 0.93453
 C598 C 0.91023 0.29488 0.92984
 C599 C 0.89406 0.28639 0.89960
 N600 N 0.86677 0.29372 0.89591
 N601 N 0.85115 0.28494 0.86959
 C602 C 0.86217 0.26838 0.84597
 N603 N 0.88953 0.26113 0.84957
 N604 N 0.90519 0.26997 0.87591
 C605 C 0.84453 0.25751 0.81753
 C606 C 0.81638 0.26462 0.81335
 H607 H 0.89893 0.30594 0.94855
 H608 H 0.85354 0.24305 0.80016
 H609 H 0.94995 0.28161 0.91333
 H610 H 0.80764 0.27938 0.83060
 C611 C 0.42694 0.80901 0.43658
 C612 C 0.40017 0.81922 0.43086
 C613 C 0.38212 0.80985 0.40225
 N614 N 0.35536 0.81877 0.39925
 N615 N 0.33829 0.80964 0.37416
 C616 C 0.34736 0.79125 0.35109
 N617 N 0.37420 0.78249 0.35396
 N618 N 0.39126 0.79157 0.37909
 C619 C 0.32849 0.78036 0.32368
 C620 C 0.29999 0.78690 0.32101
 H621 H 0.39176 0.83402 0.44830
 H622 H 0.33706 0.76621 0.30562
 H623 H 0.43547 0.79500 0.41841
 H624 H 0.29131 0.80080 0.33924
 C625 C 0.32912 0.91790 0.05031
 C626 C 0.30900 0.91836 0.07581
 C627 C 0.30608 0.89587 0.10236
 N628 N 0.28461 0.89600 0.12508
 N629 N 0.28052 0.87473 0.14808
 C630 C 0.29775 0.85251 0.14919
 N631 N 0.31941 0.85253 0.12668
 N632 N 0.32351 0.87382 0.10368
 C633 C 0.29240 0.82786 0.17310
 C634 C 0.26958 0.82604 0.19571
 H635 H 0.29341 0.93436 0.07492
 H636 H 0.30596 0.81002 0.17181
 H637 H 0.34320 0.90046 0.04990
 H638 H 0.25618 0.84399 0.19728
 C639 C 0.78532 0.42406 0.56376
 C640 C 0.79989 0.39917 0.56855
 C641 C 0.79443 0.37947 0.59754
 N642 N 0.80950 0.35579 0.60141
 N643 N 0.80417 0.33724 0.62698
 C644 C 0.78355 0.34168 0.64965
 N645 N 0.76857 0.36544 0.64586
 N646 N 0.77393 0.38401 0.62031
 C647 C 0.77644 0.32059 0.67713
 C648 C 0.79073 0.29547 0.68147
 H649 H 0.81567 0.39387 0.55049
 H650 H 0.75864 0.32421 0.69335
 H651 H 0.77039 0.42974 0.58257
 H652 H 0.80859 0.29194 0.66531
 C653 C 0.68306 0.07328 0.06869
 C654 C 0.67267 0.09993 0.07667
 C655 C 0.68469 0.11811 0.10425
 N656 N 0.67546 0.14490 0.10980
 N657 N 0.68720 0.16224 0.13366
 C658 C 0.70863 0.15341 0.15285
 N659 N 0.71770 0.12652 0.14748
 N660 N 0.70597 0.10920 0.12360
 C661 C 0.72259 0.17278 0.17841
 C662 C 0.71509 0.20120 0.18353
 H663 H 0.65609 0.10826 0.06164
 H664 H 0.73973 0.16476 0.19286
 H665 H 0.69904 0.06496 0.08458
 H666 H 0.69794 0.20919 0.16909
 C667 C 0.20267 0.55927 0.55483
 C668 C 0.19205 0.58607 0.56188
 C669 C 0.19924 0.60218 0.59268
 N670 N 0.18987 0.62905 0.59748
 N671 N 0.19742 0.64457 0.62444
 C672 C 0.21460 0.63378 0.64763
 N673 N 0.22374 0.60679 0.64298
 N674 N 0.21623 0.59128 0.61601
 C675 C 0.22451 0.65135 0.67664
 C676 C 0.21771 0.68016 0.68127
 H677 H 0.17881 0.59606 0.54395
 H678 H 0.23885 0.64192 0.69381
 H679 H 0.21504 0.54913 0.57351
 H680 H 0.20348 0.68967 0.66403
 C681 C 0.92215 0.74390 0.06106
 C682 C 0.89406 0.73084 0.06766
 C683 C 0.87918 0.73579 0.09886
 N684 N 0.85223 0.72183 0.10487
 N685 N 0.83828 0.72667 0.13271
 C686 C 0.85081 0.74565 0.15558
 N687 N 0.87780 0.75951 0.14962
 N688 N 0.89175 0.75463 0.12182
 C689 C 0.83519 0.75260 0.18559
 C690 C 0.80719 0.73960 0.19275
 H691 H 0.88278 0.71639 0.04963
 H692 H 0.84547 0.76969 0.20151
 H693 H 0.93368 0.75738 0.07973
 H694 H 0.79696 0.72229 0.17709
 C695 C 0.42674 0.20866 0.56894
 C696 C 0.39853 0.19612 0.57580
 C697 C 0.38222 0.20460 0.60465
 N698 N 0.35481 0.19162 0.60997
 N699 N 0.33913 0.20006 0.63496
 C700 C 0.35022 0.22186 0.65557
 N701 N 0.37771 0.23474 0.65038
 N702 N 0.39343 0.22627 0.62538
 C703 C 0.33246 0.23235 0.68220
 C704 C 0.30390 0.22007 0.68734
 H705 H 0.38768 0.18017 0.55897
 H706 H 0.34159 0.25079 0.69704
 H707 H 0.43794 0.22346 0.58668
 H708 H 0.29497 0.20156 0.67247
 C709 C 0.08672 0.27500 0.06151
 C710 C 0.11509 0.28561 0.06979
 C711 C 0.13007 0.27373 0.09800
 N712 N 0.15812 0.28398 0.10387
 N713 N 0.17236 0.27289 0.12868
 C714 C 0.15910 0.25111 0.14856
 N715 N 0.13098 0.24092 0.14279
 N716 N 0.11673 0.25199 0.11792
 C717 C 0.17485 0.23857 0.17582
 C718 C 0.20401 0.24794 0.18134
 H719 H 0.12700 0.30277 0.05475
 H720 H 0.16336 0.22177 0.19169
 H721 H 0.07468 0.25867 0.07748
 H722 H 0.21536 0.26467 0.16528
 C723 C 0.58123 0.82262 0.56172
 C724 C 0.59552 0.79805 0.56915
 C725 C 0.61369 0.79606 0.59846
 N726 N 0.62080 0.76921 0.60839
 N727 N 0.63831 0.76691 0.63398
 C728 C 0.64966 0.79143 0.65039
 N729 N 0.64271 0.81836 0.64036
 N730 N 0.62492 0.82064 0.61492
 C731 C 0.67003 0.78900 0.67775
 C732 C 0.67158 0.76206 0.69409
 H733 H 0.59296 0.77920 0.55280
 H734 H 0.68391 0.80861 0.68518
 H735 H 0.58122 0.84062 0.57903
 H736 H 0.65603 0.74317 0.68833
   
