data_POSCAR
  _audit_creation_date              2014-09-24
  _audit_creation_method            'ToBaCCo'
  _symmetry_space_group_name_H-M    'P1'
  _symmetry_Int_Tables_number       1
  _symmetry_cell_setting            triclinic
  loop_
  _symmetry_equiv_pos_as_xyz
 x,y,z
_cell_length_a 24.0113
_cell_length_b 25.6031
_cell_length_c 23.5616
_cell_angle_alpha 90.664000
_cell_angle_beta 91.044500
_cell_angle_gamma 91.174500
loop_
  _atom_site_label
  _atom_site_type_symbol
  _atom_site_fract_x
  _atom_site_fract_y
  _atom_site_fract_z
C1 C 0.33319 0.33078 0.22589
 H2 H 0.33034 0.33840 0.27099
 C3 C 0.36396 0.36466 0.19220
 H4 H 0.38318 0.39874 0.21231
 C5 C 0.30775 0.27845 0.14577
 H6 H 0.28564 0.24467 0.12803
 C7 C 0.34010 0.31009 0.11077
 H8 H 0.34278 0.29907 0.06655
 N9 N 0.30413 0.28989 0.20199
 C10 C 0.18148 0.27467 0.33518
 H11 H 0.18316 0.23362 0.34523
 C12 C 0.14953 0.30799 0.36815
 H13 H 0.12709 0.29269 0.40400
 C14 C 0.20672 0.34456 0.27519
 H15 H 0.22790 0.35859 0.23817
 C16 C 0.17402 0.37881 0.30591
 H17 H 0.17115 0.41917 0.29305
 Zn18 Zn 0.25901 0.24932 0.25000
 N19 N 0.21145 0.29390 0.29131
 C20 C 0.30422 0.21257 0.35603
 N21 N 0.30787 0.21186 0.29841
 C22 C 0.34684 0.18285 0.27207
 C23 C 0.38126 0.15017 0.30337
 C24 C 0.33704 0.17963 0.38888
 C25 C 0.17224 0.22298 0.17314
 C26 C 0.13624 0.19028 0.14093
 C27 C 0.18598 0.11593 0.17627
 C28 C 0.22023 0.14990 0.20865
 N29 N 0.21319 0.20242 0.20617
 H30 H 0.27530 0.23771 0.37682
 H31 H 0.34977 0.18375 0.22633
 H32 H 0.41044 0.12570 0.28147
 H33 H 0.33221 0.17908 0.43449
 H34 H 0.16738 0.26487 0.17215
 H35 H 0.10385 0.20718 0.11484
 H36 H 0.19216 0.07422 0.17869
 H37 H 0.25219 0.13410 0.23584
 C38 C 0.14629 0.36082 0.35380
 C39 C 0.36770 0.35507 0.13341
 C40 C 0.14315 0.13603 0.14216
 C41 C 0.37521 0.14711 0.36232
 C42 C 0.83758 0.81370 0.23091
 H43 H 0.84424 0.81097 0.27632
 C44 C 0.87167 0.84668 0.19923
 H45 H 0.90511 0.86729 0.22172
 C46 C 0.78722 0.78672 0.14823
 H47 H 0.75435 0.76324 0.12834
 C48 C 0.81968 0.81980 0.11495
 H49 H 0.80915 0.82178 0.07030
 N50 N 0.79584 0.78513 0.20531
 C51 C 0.67142 0.76559 0.33666
 H52 H 0.67113 0.72376 0.34267
 C53 C 0.63744 0.79710 0.36961
 H54 H 0.61108 0.77943 0.40121
 C55 C 0.70542 0.83955 0.28742
 H56 H 0.73156 0.85592 0.25500
 C57 C 0.67124 0.87224 0.31843
 H58 H 0.67199 0.91379 0.31022
 Zn59 Zn 0.75021 0.74369 0.25265
 N60 N 0.70531 0.78733 0.29730
 C61 C 0.79834 0.70815 0.35660
 N62 N 0.79789 0.70331 0.29898
 C63 C 0.83182 0.66927 0.27239
 C64 C 0.86453 0.63535 0.30394
 C65 C 0.83155 0.67582 0.38982
 C66 C 0.66176 0.72280 0.17585
 C67 C 0.62709 0.69264 0.13957
 C68 C 0.67388 0.61552 0.17190
 C69 C 0.70693 0.64697 0.20815
 N70 N 0.70173 0.69979 0.20810
 H71 H 0.77275 0.73673 0.37700
 H72 H 0.83198 0.66732 0.22650
 H73 H 0.88996 0.60721 0.28230
 H74 H 0.83068 0.67916 0.43565
 H75 H 0.65772 0.76480 0.17741
 H76 H 0.59654 0.71156 0.11290
 H77 H 0.67934 0.57363 0.17152
 H78 H 0.73700 0.62890 0.23572
 C79 C 0.63715 0.85113 0.36048
 C80 C 0.86260 0.85139 0.14003
 C81 C 0.63402 0.63846 0.13651
 C82 C 0.86403 0.63815 0.36332
 C83 C 0.83997 0.31744 0.72897
 H84 H 0.84848 0.31639 0.77418
 C85 C 0.87334 0.34842 0.69429
 H86 H 0.90773 0.37114 0.71287
 C87 C 0.78462 0.28940 0.64956
 H88 H 0.75025 0.26619 0.63212
 C89 C 0.81600 0.32087 0.61364
 H90 H 0.80574 0.32143 0.56870
 N91 N 0.79687 0.28834 0.70615
 C92 C 0.66368 0.27043 0.82834
 H93 H 0.65704 0.22860 0.82888
 C94 C 0.62854 0.30256 0.85912
 H95 H 0.59619 0.28529 0.88477
 C96 C 0.71134 0.34434 0.79181
 H97 H 0.74326 0.36067 0.76525
 C98 C 0.67616 0.37783 0.82061
 H99 H 0.68179 0.41971 0.81666
 Zn100 Zn 0.75217 0.24708 0.75488
 N101 N 0.70519 0.29162 0.79677
 C102 C 0.77678 0.18483 0.85061
 N103 N 0.79880 0.20733 0.80398
 C104 C 0.85283 0.19959 0.79043
 C105 C 0.88692 0.16860 0.82443
 C106 C 0.80908 0.15353 0.88568
 C107 C 0.66066 0.22014 0.68382
 C108 C 0.62704 0.18755 0.64912
 C109 C 0.68744 0.11597 0.67137
 C110 C 0.71988 0.14991 0.70569
 N111 N 0.70630 0.20101 0.71081
 H112 H 0.73392 0.19087 0.86099
 H113 H 0.86936 0.21619 0.75214
 H114 H 0.92867 0.16223 0.80993
 H115 H 0.78974 0.13852 0.92335
 H116 H 0.65098 0.26103 0.68853
 H117 H 0.59185 0.20384 0.62674
 H118 H 0.69887 0.07539 0.66779
 H119 H 0.75635 0.13561 0.72761
 C120 C 0.63481 0.35689 0.85534
 C121 C 0.86119 0.35045 0.63595
 C122 C 0.64053 0.13478 0.64226
 C123 C 0.86539 0.14392 0.87311
 C124 C 0.31585 0.83501 0.72563
 H125 H 0.30922 0.84452 0.76982
 C126 C 0.34959 0.86755 0.69319
 H127 H 0.36708 0.90269 0.71286
 C128 C 0.29962 0.77801 0.64709
 H129 H 0.28122 0.74231 0.62970
 C130 C 0.33446 0.80866 0.61346
 H131 H 0.34199 0.79564 0.57053
 N132 N 0.28993 0.79229 0.70175
 C133 C 0.16490 0.77223 0.83373
 H134 H 0.16839 0.73109 0.84277
 C135 C 0.13140 0.80356 0.86747
 H136 H 0.10941 0.78630 0.90255
 C137 C 0.18819 0.84439 0.77625
 H138 H 0.20939 0.86011 0.74003
 C139 C 0.15459 0.87689 0.80824
 H140 H 0.15164 0.91766 0.79707
 Zn141 Zn 0.24400 0.75095 0.74919
 N142 N 0.19443 0.79350 0.79064
 C143 C 0.29142 0.71515 0.85497
 N144 N 0.29318 0.71426 0.79725
 C145 C 0.33046 0.68453 0.76940
 C146 C 0.36617 0.65220 0.79940
 C147 C 0.32562 0.68240 0.88666
 C148 C 0.17390 0.71634 0.65785
 C149 C 0.14382 0.67955 0.62472
 C150 C 0.16531 0.61396 0.69429
 C151 C 0.19621 0.65163 0.72528
 N152 N 0.20070 0.70150 0.70622
 H153 H 0.26289 0.74022 0.87657
 H154 H 0.33122 0.68486 0.72352
 H155 H 0.39428 0.62748 0.77638
 H156 H 0.32263 0.68202 0.93246
 H157 H 0.17693 0.75653 0.64439
 H158 H 0.12373 0.69145 0.58556
 H159 H 0.16255 0.57426 0.70955
 H160 H 0.21659 0.64099 0.76464
 C161 C 0.12681 0.85690 0.85545
 C162 C 0.35921 0.85497 0.63593
 C163 C 0.13969 0.62764 0.64285
 C164 C 0.36287 0.64986 0.85862
 C165 C -0.00323 -0.00422 0.00172
 C166 C 0.00042 0.48980 0.49591
 C167 C 0.50039 -0.00667 0.49586
 C168 C 0.49595 0.49907 -0.01236
 C169 C 0.06562 -0.06614 -0.13016
 C170 C 0.09508 -0.10771 -0.10739
 C171 C 0.09642 -0.11230 -0.04787
 C172 C 0.06527 -0.07878 -0.01348
 C173 C 0.03163 -0.03933 -0.03729
 C174 C 0.03449 -0.03326 -0.09654
 C175 C -0.01026 -0.03029 -0.14152
 C176 C 0.02405 -0.06638 -0.17780
 H177 H 0.12094 -0.14217 -0.02780
 H178 H 0.06642 -0.08438 0.03201
 H179 H -0.01335 0.00933 -0.15990
 H180 H -0.05056 -0.04797 -0.12859
 H181 H 0.04073 -0.04724 -0.21622
 H182 H 0.00400 -0.10546 -0.18528
 C183 C 0.06975 0.42438 0.36333
 C184 C 0.11331 0.39706 0.38790
 C185 C 0.12305 0.40331 0.44621
 C186 C 0.08699 0.43280 0.47934
 C187 C 0.03798 0.45593 0.45630
 C188 C 0.03219 0.45237 0.39617
 C189 C -0.01447 0.43084 0.35820
 C190 C 0.02742 0.40323 0.32251
 H191 H 0.15819 0.38468 0.46644
 H192 H 0.09892 0.43799 0.52344
 H193 H -0.03578 0.46155 0.33347
 H194 H -0.04248 0.40289 0.38036
 H195 H 0.03220 0.42015 0.27959
 H196 H 0.02307 0.35991 0.32357
 C197 C 0.57217 -0.07451 0.36866
 C198 C 0.60217 -0.11406 0.39464
 C199 C 0.59960 -0.11812 0.45395
 C200 C 0.56610 -0.08446 0.48552
 C201 C 0.53439 -0.04498 0.45918
 C202 C 0.53847 -0.04147 0.39968
 C203 C 0.49360 -0.04518 0.35444
 C204 C 0.53111 -0.08028 0.32085
 H205 H 0.62336 -0.14741 0.47596
 H206 H 0.56542 -0.08907 0.53095
 H207 H 0.48650 -0.00758 0.33270
 H208 H 0.45514 -0.06547 0.36886
 H209 H 0.54661 -0.06208 0.28139
 H210 H 0.51439 -0.12092 0.31560
 C211 C 0.56977 0.43135 -0.13861
 C212 C 0.59935 0.39198 -0.11182
 C213 C 0.59577 0.38785 -0.05273
 C214 C 0.56179 0.42144 -0.02187
 C215 C 0.53034 0.46083 -0.04876
 C216 C 0.53533 0.46439 -0.10820
 C217 C 0.49093 0.45975 -0.15385
 C218 C 0.52917 0.42482 -0.18672
 H219 H 0.61907 0.35843 -0.03039
 H220 H 0.56040 0.41665 0.02348
 H221 H 0.48354 0.49704 -0.17610
 H222 H 0.45259 0.43919 -0.13943
 H223 H 0.54481 0.44287 -0.22621
 H224 H 0.51295 0.38399 -0.19177
 C225 C -0.12784 0.07674 -0.05524
 C226 C -0.10316 0.11172 -0.09364
 C227 C -0.04413 0.11078 -0.09557
 C228 C -0.01340 0.07359 -0.06537
 C229 C -0.03962 0.03393 -0.03323
 C230 C -0.09754 0.03875 -0.02685
 C231 C -0.14434 -0.00039 -0.03456
 C232 C -0.17733 0.04113 -0.06404
 H233 H -0.02049 0.13906 -0.11942
 H234 H 0.03153 0.07512 -0.06824
 H235 H -0.16269 -0.01222 0.00645
 H236 H -0.13434 -0.03287 -0.06402
 H237 H -0.21379 0.05351 -0.03918
 H238 H -0.18631 0.03213 -0.10963
 C239 C -0.06549 0.61750 0.43890
 C240 C -0.10342 0.60114 0.39713
 C241 C -0.10932 0.54675 0.38899
 C242 C -0.07739 0.51184 0.42181
 C243 C -0.03538 0.52923 0.46155
 C244 C -0.03242 0.58418 0.46857
 C245 C -0.00553 0.62946 0.50073
 C246 C -0.04323 0.66576 0.46675
 H247 H -0.14000 0.53106 0.35877
 H248 H -0.08820 0.47095 0.41799
 H249 H 0.03890 0.63618 0.49036
 H250 H -0.01474 0.62911 0.54675
 H251 H -0.02039 0.69125 0.43679
 H252 H -0.07484 0.68538 0.49294
 C253 C 0.46153 0.09767 0.38527
 C254 C 0.40559 0.10742 0.39495
 C255 C 0.37796 0.07508 0.43386
 C256 C 0.40711 0.03740 0.46508
 C257 C 0.46535 0.03054 0.45862
 C258 C 0.49059 0.06244 0.41769
 C259 C 0.54295 0.09485 0.41707
 C260 C 0.51081 0.13377 0.38138
 H261 H 0.33391 0.07963 0.44111
 H262 H 0.38377 0.01629 0.49645
 H263 H 0.57655 0.07540 0.39344
 H264 H 0.55542 0.11114 0.45940
 H265 H 0.52600 0.13670 0.33722
 H266 H 0.50452 0.17177 0.40345
 C267 C 0.45066 0.60145 -0.12247
 C268 C 0.39517 0.61070 -0.11003
 C269 C 0.36969 0.57802 -0.07007
 C270 C 0.40068 0.54068 -0.04030
 C271 C 0.45871 0.53457 -0.04933
 C272 C 0.48161 0.56658 -0.09149
 C273 C 0.53353 0.59940 -0.09487
 C274 C 0.49926 0.63797 -0.12893
 H275 H 0.32597 0.58210 -0.06080
 H276 H 0.37902 0.51946 -0.00781
 H277 H 0.56605 0.58021 -0.12026
 H278 H 0.54800 0.61590 -0.05326
 H279 H 0.51219 0.64095 -0.17385
 H280 H 0.49367 0.67594 -0.10656
 C281 C -0.10676 -0.11434 0.04752
 C282 C -0.10609 -0.11244 0.10712
 C283 C -0.07418 -0.07071 0.13206
 C284 C -0.04168 -0.03649 0.09920
 C285 C -0.03953 -0.04112 0.03908
 C286 C -0.07362 -0.08155 0.01533
 C287 C -0.06598 -0.12283 -0.02924
 C288 C -0.10211 -0.15869 0.00625
 H289 H -0.07372 -0.06332 0.17725
 H290 H -0.01721 -0.00769 0.12274
 H291 H -0.02299 -0.13734 -0.03212
 H292 H -0.08613 -0.11342 -0.07050
 H293 H -0.07924 -0.19213 0.02441
 H294 H -0.14248 -0.16908 -0.01524
 C295 C -0.12832 0.41664 0.55959
 C296 C -0.10418 0.38253 0.59806
 C297 C -0.04593 0.37982 0.59941
 C298 C -0.01326 0.41338 0.56619
 C299 C -0.03725 0.45159 0.53033
 C300 C -0.09624 0.45067 0.52744
 C301 C -0.13827 0.49293 0.53452
 C302 C -0.17257 0.45527 0.56947
 H303 H -0.02545 0.35285 0.62762
 H304 H 0.03101 0.41093 0.57213
 H305 H -0.16025 0.50276 0.49430
 H306 H -0.12218 0.52726 0.55923
 H307 H -0.21275 0.44321 0.54858
 H308 H -0.17532 0.46723 0.61484
 C309 C 0.42994 -0.07174 0.62504
 C310 C 0.39351 -0.10925 0.60023
 C311 C 0.38876 -0.10920 0.54033
 C312 C 0.42321 -0.07657 0.50763
 C313 C 0.46248 -0.04112 0.53324
 C314 C 0.46337 -0.03911 0.59298
 C315 C 0.51017 -0.04091 0.63580
 C316 C 0.47350 -0.07694 0.67046
 H317 H 0.35905 -0.13464 0.51808
 H318 H 0.41916 -0.07900 0.46189
 H319 H 0.51831 -0.00255 0.65723
 H320 H 0.54785 -0.06019 0.61989
 H321 H 0.46114 -0.05898 0.71138
 H322 H 0.48933 -0.11735 0.67342
 C323 C 0.43344 0.43220 0.11976
 C324 C 0.39812 0.39292 0.09642
 C325 C 0.39027 0.39340 0.03675
 C326 C 0.42143 0.42763 0.00271
 C327 C 0.46009 0.46449 0.02672
 C328 C 0.46331 0.46664 0.08640
 C329 C 0.51167 0.46820 0.12749
 C330 C 0.47913 0.42993 0.16346
 H331 H 0.36095 0.36700 0.01541
 H332 H 0.41568 0.42503 -0.04291
 H333 H 0.51744 0.50705 0.14854
 H334 H 0.55031 0.45161 0.11043
 H335 H 0.46733 0.44717 0.20493
 H336 H 0.49808 0.39072 0.16571
 C337 C 0.12772 0.05798 0.07888
 C338 C 0.10592 0.10004 0.10872
 C339 C 0.04790 0.10626 0.10639
 C340 C 0.01369 0.07281 0.07238
 C341 C 0.03601 0.03144 0.03962
 C342 C 0.09420 0.02512 0.04463
 C343 C 0.13793 0.02416 -0.00019
 C344 C 0.17414 0.05918 0.03797
 H345 H 0.02898 0.13741 0.13024
 H346 H -0.03072 0.07935 0.07153
 H347 H 0.12454 0.04335 -0.04011
 H348 H 0.15619 -0.01499 -0.00610
 H349 H 0.18188 0.09868 0.02021
 H350 H 0.21172 0.03958 0.05491
 C351 C 0.06839 0.55544 0.63046
 C352 C 0.10980 0.58764 0.60775
 C353 C 0.12135 0.58131 0.54984
 C354 C 0.08739 0.54851 0.51488
 C355 C 0.04014 0.52161 0.53654
 C356 C 0.03392 0.52408 0.59581
 C357 C -0.01571 0.53515 0.63104
 C358 C 0.02237 0.56884 0.66920
 H359 H 0.15479 0.60377 0.53098
 H360 H 0.09585 0.54697 0.46992
 H361 H -0.03215 0.49971 0.65240
 H362 H -0.04725 0.55841 0.60821
 H363 H 0.02867 0.55233 0.71221
 H364 H 0.01234 0.61105 0.66842
 C365 C 0.54901 0.10218 0.60000
 C366 C 0.60674 0.09970 0.60417
 C367 C 0.63140 0.06157 0.56926
 C368 C 0.59846 0.02762 0.53370
 C369 C 0.53906 0.02934 0.53282
 C370 C 0.51724 0.06907 0.56673
 C371 C 0.46403 0.09251 0.58517
 C372 C 0.50006 0.12941 0.62325
 H373 H 0.67627 0.05844 0.56852
 H374 H 0.62052 0.00099 0.50687
 H375 H 0.43754 0.06504 0.60953
 H376 H 0.44232 0.11301 0.55012
 H377 H 0.49507 0.12238 0.66936
 H378 H 0.49827 0.17090 0.61019
 C379 C 0.54383 0.61006 0.08920
 C380 C 0.60110 0.60582 0.09573
 C381 C 0.62621 0.56756 0.06150
 C382 C 0.59372 0.53424 0.02495
 C383 C 0.53438 0.53656 0.02294
 C384 C 0.51233 0.57723 0.05542
 C385 C 0.45901 0.59976 0.07494
 C386 C 0.49493 0.63627 0.11364
 H387 H 0.67099 0.56335 0.06289
 H388 H 0.61601 0.50689 -0.00080
 H389 H 0.43312 0.57144 0.09886
 H390 H 0.43675 0.62069 0.04057
 H391 H 0.49042 0.62808 0.15957
 H392 H 0.49298 0.67808 0.10177
   
