data_POSCAR
  _audit_creation_date              2014-09-24
  _audit_creation_method            'ToBaCCo'
  _symmetry_space_group_name_H-M    'P1'
  _symmetry_Int_Tables_number       1
  _symmetry_cell_setting            triclinic
  loop_
  _symmetry_equiv_pos_as_xyz
 x,y,z
_cell_length_a 30.2144
_cell_length_b 30.3289
_cell_length_c 24.4893
_cell_angle_alpha 90.080300
_cell_angle_beta 89.936800
_cell_angle_gamma 119.882200
loop_
  _atom_site_label
  _atom_site_type_symbol
  _atom_site_fract_x
  _atom_site_fract_y
  _atom_site_fract_z
C1 C 0.03726 0.49035 0.02366
 C2 C 0.03119 0.53291 0.03331
 C3 C -0.00095 0.54167 -0.00085
 C4 C -0.02875 0.50780 -0.04378
 C5 C -0.02609 0.46201 -0.04978
 C6 C 0.00798 0.45509 -0.01632
 H7 H 0.01103 0.42115 -0.01905
 H8 H -0.00346 0.57544 0.00639
 C9 C 0.50579 0.53402 0.03447
 C10 C 0.46086 0.48596 0.03836
 C11 C 0.45614 0.44580 0.00550
 C12 C 0.49522 0.45240 -0.03050
 C13 C 0.54050 0.50070 -0.03450
 C14 C 0.54492 0.54062 -0.00103
 H15 H 0.57802 0.57817 -0.00300
 H16 H 0.42317 0.40821 0.00997
 C17 C 0.45862 0.96807 0.02889
 C18 C 0.50356 0.96425 0.02730
 C19 C 0.54280 0.99537 -0.00888
 C20 C 0.53921 1.03112 -0.04211
 C21 C 0.49346 1.03393 -0.04192
 C22 C 0.45459 1.00314 -0.00468
 H23 H 0.41906 1.00347 -0.00310
 H24 H 0.57742 0.99293 -0.00993
 C25 C 0.96799 0.51495 0.53186
 C26 C 0.96520 0.46709 0.52682
 C27 C 0.99723 0.46159 0.48946
 C28 C 1.03060 0.50182 0.45557
 C29 C 1.03094 0.54905 0.45725
 C30 C 1.00068 0.55505 0.49726
 H31 H 1.00256 0.59112 0.50287
 H32 H 0.99654 0.42553 0.48706
 C33 C 0.49403 0.46103 0.53483
 C34 C 0.53891 0.50923 0.53835
 C35 C 0.54243 0.54971 0.50685
 C36 C 0.50200 0.54305 0.47298
 C37 C 0.45559 0.49591 0.47363
 C38 C 0.45268 0.45522 0.50349
 H39 H 0.41785 0.41874 0.50245
 H40 H 0.57648 0.58677 0.50862
 C41 C 0.54315 0.03092 0.53069
 C42 C 0.49410 0.02573 0.53535
 C43 C 0.45354 -0.01227 0.50474
 C44 C 0.46087 -0.04462 0.46896
 C45 C 0.50968 -0.04130 0.46802
 C46 C 0.55012 -0.00286 0.49773
 H47 H 0.58737 0.00020 0.49595
 H48 H 0.41587 -0.01653 0.50834
 O49 O 0.17683 0.43337 0.19447
 O50 O 0.26379 0.43934 0.30354
 O51 O 0.17530 0.43626 0.30080
 O52 O 0.26495 0.43727 0.19723
 O53 O 0.30504 0.52126 0.19646
 O54 O 0.21535 0.52016 0.29848
 O55 O 0.30295 0.52325 0.30166
 O56 O 0.21741 0.51729 0.19201
 Cu57 Cu 0.21616 0.42807 0.24941
 Cu58 Cu 0.26393 0.52886 0.24704
 C59 C 0.18270 0.47449 0.17437
 C60 C 0.29859 0.48238 0.32062
 C61 C 0.18005 0.47819 0.31709
 C62 C 0.30045 0.47965 0.17952
 O63 O 0.57007 0.74056 0.19017
 O64 O 0.56841 0.82476 0.29876
 O65 O 0.57312 0.74113 0.29679
 O66 O 0.57364 0.82888 0.19252
 O67 O 0.48941 0.78958 0.19559
 O68 O 0.48898 0.69644 0.29224
 O69 O 0.48418 0.77945 0.30002
 O70 O 0.48593 0.70155 0.18679
 Cu71 Cu 0.57980 0.78803 0.24450
 Cu72 Cu 0.47876 0.73744 0.24332
 C73 C 0.52793 0.70654 0.17009
 C74 C 0.52558 0.81607 0.31782
 C75 C 0.53107 0.70327 0.31140
 C76 C 0.53175 0.82541 0.17800
 O77 O 0.25680 0.84024 0.19775
 O78 O 0.16961 0.75060 0.30253
 O79 O 0.25730 0.83636 0.30452
 O80 O 0.16458 0.76260 0.19720
 O81 O 0.19807 0.71258 0.19066
 O82 O 0.29642 0.79214 0.29146
 O83 O 0.20961 0.70663 0.29503
 O84 O 0.28966 0.79015 0.18607
 Cu85 Cu 0.20845 0.80215 0.25173
 Cu86 Cu 0.25190 0.74561 0.24005
 C87 C 0.28769 0.82965 0.17353
 C88 C 0.17530 0.71326 0.31656
 C89 C 0.29358 0.82809 0.31506
 C90 C 0.16514 0.72476 0.17605
 O91 O 0.82303 0.55979 0.69716
 O92 O 0.73642 0.55793 0.80474
 O93 O 0.82487 0.56105 0.80389
 O94 O 0.73642 0.55969 0.69794
 O95 O 0.69557 0.47572 0.69870
 O96 O 0.78394 0.47709 0.80248
 O97 O 0.69662 0.47397 0.80455
 O98 O 0.78169 0.47578 0.69727
 Cu99 Cu 0.78432 0.56820 0.75102
 Cu100 Cu 0.73542 0.46749 0.75070
 C101 C 0.81701 0.51778 0.67922
 C102 C 0.70166 0.51532 0.82281
 C103 C 0.81953 0.51901 0.82072
 C104 C 0.70077 0.51722 0.68052
 O105 O 0.44426 0.26251 0.69094
 O106 O 0.44395 0.17634 0.79723
 O107 O 0.44351 0.26242 0.79690
 O108 O 0.44322 0.17511 0.69033
 O109 O 0.52749 0.21668 0.69155
 O110 O 0.52782 0.30383 0.79604
 O111 O 0.52827 0.21861 0.79724
 O112 O 0.52857 0.30311 0.69070
 Cu113 Cu 0.43511 0.21468 0.74369
 Cu114 Cu 0.53620 0.26449 0.74373
 C115 C 0.48677 0.29813 0.67354
 C116 C 0.48630 0.18311 0.81537
 C117 C 0.48600 0.29839 0.81408
 C118 C 0.48561 0.18095 0.67330
 O119 O 0.74109 0.17550 0.69064
 O120 O 0.83120 0.26153 0.79485
 O121 O 0.74572 0.17372 0.79647
 O122 O 0.82838 0.26144 0.68855
 O123 O 0.78561 0.30281 0.69295
 O124 O 0.70304 0.21523 0.80041
 O125 O 0.78706 0.30158 0.79934
 O126 O 0.69896 0.21759 0.69497
 Cu127 Cu 0.79100 0.21391 0.74214
 Cu128 Cu 0.73962 0.26348 0.74720
 C129 C 0.70425 0.18171 0.67571
 C130 C 0.82409 0.29624 0.81480
 C131 C 0.71008 0.17937 0.81658
 C132 C 0.82124 0.29723 0.67255
 C133 C 0.07264 0.48044 0.05643
 C134 C 0.12148 0.51660 0.06361
 C135 C 0.15691 0.51392 0.10318
 C136 C 0.14800 0.47222 0.13091
 H137 H 0.13547 0.55262 0.04272
 H138 H 0.19177 0.54941 0.11091
 H139 H 0.05741 0.44336 0.07494
 H140 H 0.11469 0.43577 0.12259
 C141 C 0.51429 0.57853 0.06763
 C142 C 0.48009 0.59437 0.06954
 C143 C 0.48426 0.63515 0.10599
 C144 C 0.52786 0.67124 0.12858
 H145 H 0.44503 0.57387 0.04640
 H146 H 0.44881 0.63445 0.11503
 H147 H 0.54989 0.59856 0.08976
 H148 H 0.56404 0.67421 0.11817
 C149 C 0.41404 0.93563 0.06372
 C150 C 0.39133 0.88486 0.06243
 C151 C 0.35119 0.85097 0.10102
 C152 C 0.32254 0.86414 0.13141
 H153 H 0.40595 0.86712 0.03490
 H154 H 0.34594 0.81308 0.10491
 H155 H 0.40019 0.95463 0.09027
 H156 H 0.32491 0.90066 0.12629
 C157 C 0.93911 0.52391 0.57530
 C158 C 0.91940 0.55467 0.56929
 C159 C 0.88579 0.55780 0.61087
 C160 C 0.85137 0.51650 0.63780
 H161 H 0.92696 0.57764 0.53302
 H162 H 0.88722 0.59390 0.61664
 H163 H 0.93192 0.50261 0.61288
 H164 H 0.84733 0.47971 0.62857
 C165 C 0.49144 0.41616 0.56188
 C166 C 0.44961 0.38074 0.58772
 C167 C 0.44762 0.33859 0.62009
 C168 C 0.48896 0.33586 0.63461
 H169 H 0.41524 0.38349 0.58742
 H170 H 0.41057 0.31068 0.63578
 H171 H 0.52613 0.41420 0.56164
 H172 H 0.52669 0.36424 0.62157
 C173 C 0.58757 0.07254 0.55927
 C174 C 0.62297 0.06558 0.58464
 C175 C 0.66489 0.10474 0.61816
 C176 C 0.66570 0.14664 0.63696
 H177 H 0.62066 0.02883 0.58251
 H178 H 0.69438 0.09655 0.63085
 H179 H 0.58934 0.10897 0.56067
 H180 H 0.63548 0.15451 0.62708
 C181 C 0.48658 0.06481 0.91957
 C182 C 0.44873 0.07610 0.91968
 C183 C 0.44612 0.11049 0.87882
 C184 C 0.48805 0.14956 0.85727
 H185 H 0.41827 0.06051 0.94926
 H186 H 0.40875 0.10451 0.86810
 H187 H 0.51368 0.08031 0.88645
 H188 H 0.52554 0.15773 0.87067
 C189 C 0.57902 0.50808 0.92745
 C190 C 0.62594 0.54941 0.92376
 C191 C 0.66418 0.55319 0.88346
 C192 C 0.66570 0.51242 0.86485
 H193 H 0.63785 0.58228 0.94947
 H194 H 0.69265 0.59087 0.87014
 H195 H 0.56996 0.47819 0.89811
 H196 H 0.63929 0.47489 0.88034
 C197 C 0.93967 0.42213 0.91527
 C198 C 0.94419 0.38204 0.89896
 C199 C 0.90676 0.34154 0.86252
 C200 C 0.85868 0.33175 0.85596
 H201 H 0.97798 0.37986 0.90806
 H202 H 0.91993 0.31961 0.83975
 H203 H 0.90702 0.42372 0.90056
 H204 H 0.84405 0.35197 0.87931
 C205 C 0.51771 0.91894 0.44249
 C206 C 0.55840 0.93018 0.41104
 C207 C 0.56286 0.89253 0.37645
 C208 C 0.52235 0.84915 0.35957
 H209 H 0.58893 0.96925 0.40781
 H210 H 0.60026 0.90362 0.35998
 H211 H 0.48726 0.88003 0.44686
 H212 H 0.48432 0.83899 0.37292
 C213 C 0.40937 0.49007 0.44591
 C214 C 0.37827 0.44883 0.41634
 C215 C 0.33697 0.44537 0.38097
 C216 C 0.33579 0.48613 0.36165
 H217 H 0.38428 0.41650 0.41584
 H218 H 0.30907 0.40781 0.36668
 H219 H 0.40346 0.52239 0.44715
 H220 H 0.36498 0.52412 0.37294
 C221 C 0.06027 0.58807 0.41896
 C222 C 0.06691 0.63553 0.41844
 C223 C 0.10059 0.67469 0.37856
 C224 C 0.14212 0.67598 0.35749
 H225 H 0.04736 0.64739 0.44648
 H226 H 0.09189 0.70425 0.36822
 H227 H 0.07824 0.57889 0.38625
 H228 H 0.15248 0.64808 0.37001
 C229 C 0.94260 0.51942 0.91864
 C230 C 0.92710 0.55374 0.92556
 C231 C 0.89237 0.55815 0.88588
 C232 C 0.85479 0.51716 0.86094
 H233 H 0.93806 0.57849 0.96067
 H234 H 0.89609 0.59520 0.87966
 H235 H 0.93200 0.49919 0.88028
 H236 H 0.84895 0.47976 0.87059
 C237 C 0.49045 0.40735 0.94006
 C238 C 0.44931 0.37617 0.91028
 C239 C 0.44677 0.33560 0.87411
 C240 C 0.48826 0.33558 0.85444
 H241 H 0.41630 0.38128 0.91092
 H242 H 0.40931 0.30699 0.86010
 H243 H 0.52315 0.40187 0.94113
 H244 H 0.52604 0.36551 0.86559
 C245 C 0.58453 0.06534 0.92420
 C246 C 0.60459 0.11603 0.92554
 C247 C 0.64344 0.15210 0.88696
 C248 C 0.67582 0.14304 0.85810
 H249 H 0.58776 0.13189 0.95272
 H250 H 0.64483 0.18829 0.88223
 H251 H 0.60067 0.04812 0.89813
 H252 H 0.67728 0.10850 0.86448
 C253 C 0.06511 0.49278 0.41994
 C254 C 0.11581 0.52406 0.42069
 C255 C 0.15184 0.52064 0.38249
 C256 C 0.14353 0.47789 0.35731
 H257 H 0.13159 0.55688 0.44748
 H258 H 0.18749 0.55556 0.37560
 H259 H 0.04819 0.45944 0.39402
 H260 H 0.10971 0.44196 0.36632
 C261 C 0.50960 0.58598 0.43736
 C262 C 0.49297 0.57835 0.38553
 C263 C 0.49378 0.61804 0.35033
 C264 C 0.53140 0.66649 0.35028
 H265 H 0.47421 0.54029 0.36870
 H266 H 0.46345 0.60555 0.32042
 H267 H 0.52957 0.62413 0.45402
 H268 H 0.56442 0.67847 0.37631
 C269 C 0.41876 0.92136 0.43630
 C270 C 0.42282 0.90239 0.38797
 C271 C 0.37930 0.86543 0.35468
 C272 C 0.33327 0.86173 0.35406
 H273 H 0.45966 0.91420 0.37004
 H274 H 0.38738 0.84315 0.32594
 H275 H 0.38106 0.91253 0.44973
 H276 H 0.32572 0.88668 0.37909
 C277 C 0.51114 0.92815 0.06165
 C278 C 0.49770 0.91995 0.11443
 C279 C 0.49791 0.87927 0.14711
 C280 C 0.53255 0.86434 0.14161
 H281 H 0.48164 0.94091 0.13381
 H282 H 0.46971 0.86304 0.17940
 H283 H 0.52809 0.90789 0.04249
 H284 H 0.56416 0.88372 0.11347
 C285 C 0.42140 0.47718 0.07990
 C286 C 0.37141 0.44425 0.07367
 C287 C 0.33312 0.44070 0.11371
 C288 C 0.33782 0.48179 0.13957
 H289 H 0.35763 0.41927 0.03860
 H290 H 0.29910 0.40407 0.11940
 H291 H 0.43399 0.50024 0.11652
 H292 H 0.36991 0.51903 0.13047
 C293 C 0.05659 0.56597 0.08123
 C294 C 0.07761 0.61648 0.08110
 C295 C 0.11226 0.64609 0.12587
 C296 C 0.12744 0.69509 0.13370
 H297 H 0.07289 0.63610 0.04663
 H298 H 0.12640 0.62740 0.15269
 H299 H 0.06266 0.54826 0.11669
 H300 H 0.11135 0.71347 0.10934
 C301 C 0.48562 0.05820 0.57499
 C302 C 0.45050 0.07271 0.56944
 C303 C 0.44663 0.10811 0.60852
 C304 C 0.48781 0.14596 0.63296
 H305 H 0.42351 0.05843 0.53606
 H306 H 0.40938 0.10411 0.61526
 H307 H 0.51055 0.07169 0.61020
 H308 H 0.52542 0.15207 0.62307
 C309 C 0.57952 0.51688 0.57816
 C310 C 0.62920 0.55176 0.57360
 C311 C 0.66772 0.55548 0.61376
 C312 C 0.66379 0.51465 0.63957
 H313 H 0.64248 0.57892 0.54050
 H314 H 0.70107 0.59247 0.62024
 H315 H 0.56750 0.49189 0.61323
 H316 H 0.63239 0.47714 0.63001
 C317 C 0.93110 0.42258 0.56143
 C318 C 0.88160 0.40791 0.56897
 C319 C 0.84714 0.36847 0.60820
 C320 C 0.85564 0.33304 0.63070
 H321 H 0.86583 0.42844 0.54810
 H322 H 0.81272 0.36920 0.61894
 H323 H 0.94765 0.40202 0.58049
 H324 H 0.88842 0.32991 0.61870
   
