data_POSCAR
  _audit_creation_date              2014-09-24
  _audit_creation_method            'ToBaCCo'
  _symmetry_space_group_name_H-M    'P1'
  _symmetry_Int_Tables_number       1
  _symmetry_cell_setting            triclinic
  loop_
  _symmetry_equiv_pos_as_xyz
 x,y,z
_cell_length_a 35.7753
_cell_length_b 36.2121
_cell_length_c 44.6166
_cell_angle_alpha 89.931900
_cell_angle_beta 89.962100
_cell_angle_gamma 90.032300
loop_
  _atom_site_label
  _atom_site_type_symbol
  _atom_site_fract_x
  _atom_site_fract_y
  _atom_site_fract_z
Zr1 Zr 0.24706 0.25094 0.30200
 O2 O 0.27602 0.28080 0.33553
 O3 O 0.20944 0.21954 0.32757
 O4 O 0.21101 0.28733 0.32482
 O5 O 0.31454 0.18313 0.29402
 O6 O 0.18214 0.31980 0.28750
 O7 O 0.28115 0.21626 0.32840
 O8 O 0.17462 0.18966 0.29221
 O9 O 0.19859 0.25305 0.27580
 O10 O 0.24552 0.20161 0.27776
 O11 O 0.25260 0.29861 0.27534
 O12 O 0.29780 0.24918 0.27783
 Zr13 Zr 0.25230 0.24881 0.19760
 Zr14 Zr 0.20536 0.29887 0.24762
 Zr15 Zr 0.29413 0.20086 0.25202
 Zr16 Zr 0.19848 0.20465 0.25059
 O17 O 0.35327 0.20227 0.25203
 O18 O 0.14061 0.21697 0.24835
 O19 O 0.24692 0.20065 0.22401
 O20 O 0.20207 0.25050 0.22207
 O21 O 0.25397 0.29848 0.22150
 O22 O 0.30043 0.24671 0.22414
 C23 C 0.18292 0.19784 0.31946
 C24 C 0.30587 0.19210 0.32105
 C25 C 0.18795 0.31186 0.31519
 O26 O 0.14643 0.29731 0.24377
 O27 O 0.18961 0.32101 0.20581
 O28 O 0.22118 0.28640 0.17132
 C29 C 0.19853 0.31245 0.17877
 O30 O 0.32584 0.31552 0.28893
 Zr31 Zr 0.30093 0.29513 0.24900
 O32 O 0.28957 0.28046 0.17199
 O33 O 0.21334 0.35674 0.24902
 O34 O 0.29496 0.35338 0.24832
 O35 O 0.35933 0.28511 0.24825
 O36 O 0.32115 0.31399 0.20715
 C37 C 0.31360 0.30487 0.17995
 O38 O 0.22143 0.22100 0.16401
 O39 O 0.28610 0.14304 0.25448
 O40 O 0.28538 0.20981 0.17468
 O41 O 0.31267 0.17597 0.21202
 O42 O 0.20192 0.14634 0.25414
 O43 O 0.17784 0.17962 0.21083
 C44 C 0.30657 0.18364 0.18429
 H45 H 0.24431 0.17942 0.29071
 H46 H 0.18018 0.25088 0.20850
 H47 H 0.32372 0.24463 0.21227
 H48 H 0.25378 0.32109 0.28791
 H49 H 0.12680 0.19428 0.25403
 H50 H 0.13769 0.32328 0.24393
 H51 H 0.18828 0.36816 0.24715
 H52 H 0.31964 0.36402 0.24307
 H53 H 0.17651 0.13704 0.25879
 H54 H 0.31126 0.13179 0.25608
 H55 H 0.36187 0.17626 0.25226
 H56 H 0.37179 0.30867 0.24291
 H57 H 0.15547 0.16463 0.21566
 H58 H 0.23185 0.22872 0.14436
 H59 H 0.26572 0.27294 0.35519
 H60 H 0.34390 0.33529 0.28385
 Zr61 Zr 0.75317 0.74925 0.30214
 O62 O 0.72450 0.71923 0.33583
 O63 O 0.79069 0.78090 0.32756
 O64 O 0.78946 0.71307 0.32495
 O65 O 0.68508 0.81648 0.29414
 O66 O 0.81850 0.68080 0.28762
 O67 O 0.71882 0.78367 0.32854
 O68 O 0.82523 0.81099 0.29204
 O69 O 0.80161 0.74749 0.27583
 O70 O 0.75429 0.79859 0.27781
 O71 O 0.74795 0.70154 0.27558
 O72 O 0.70239 0.75059 0.27806
 Zr73 Zr 0.74775 0.75127 0.19773
 Zr74 Zr 0.79515 0.70161 0.24776
 Zr75 Zr 0.70563 0.79893 0.25215
 Zr76 Zr 0.80130 0.79589 0.25052
 O77 O 0.64651 0.79710 0.25225
 O78 O 0.85927 0.78404 0.24811
 O79 O 0.75279 0.79948 0.22404
 O80 O 0.79802 0.75000 0.22210
 O81 O 0.74650 0.70159 0.22172
 O82 O 0.69964 0.75303 0.22436
 C83 C 0.81709 0.80273 0.31933
 C84 C 0.69384 0.80760 0.32119
 C85 C 0.81264 0.68867 0.31531
 O86 O 0.85406 0.70363 0.24386
 O87 O 0.81112 0.67965 0.20596
 O88 O 0.77918 0.71396 0.17146
 C89 C 0.80211 0.68814 0.17892
 O90 O 0.67487 0.68401 0.28934
 Zr91 Zr 0.69955 0.70461 0.24932
 O92 O 0.71067 0.71932 0.17225
 O93 O 0.78760 0.64368 0.24922
 O94 O 0.70599 0.64641 0.24874
 O95 O 0.64108 0.71423 0.24871
 O96 O 0.67936 0.68560 0.20756
 C97 C 0.68679 0.69475 0.18031
 O98 O 0.77831 0.77930 0.16400
 O99 O 0.71323 0.85681 0.25450
 O100 O 0.71435 0.79002 0.17481
 O101 O 0.68689 0.82369 0.21213
 O102 O 0.79738 0.85416 0.25402
 O103 O 0.82161 0.82111 0.21066
 C104 C 0.69300 0.81605 0.18442
 H105 H 0.75536 0.82078 0.29072
 H106 H 0.81989 0.74980 0.20850
 H107 H 0.67632 0.75493 0.21254
 H108 H 0.74695 0.67905 0.28819
 H109 H 0.87291 0.80684 0.25369
 H110 H 0.86301 0.67774 0.24405
 H111 H 0.81275 0.63246 0.24733
 H112 H 0.68139 0.63558 0.24356
 H113 H 0.82273 0.86366 0.25859
 H114 H 0.68798 0.86788 0.25613
 H115 H 0.63771 0.82304 0.25243
 H116 H 0.62877 0.69060 0.24343
 H117 H 0.84384 0.83632 0.21541
 H118 H 0.76791 0.77150 0.14439
 H119 H 0.73479 0.72718 0.35544
 H120 H 0.65693 0.66413 0.28433
 Zr121 Zr 0.75350 0.25056 -0.30191
 O122 O 0.72484 0.28040 -0.33566
 O123 O 0.79098 0.21881 -0.32727
 O124 O 0.78981 0.28665 -0.32484
 O125 O 0.68547 0.18326 -0.29365
 O126 O 0.81882 0.31913 -0.28764
 O127 O 0.71920 0.21595 -0.32818
 O128 O 0.82551 0.18890 -0.29169
 O129 O 0.80193 0.25253 -0.27565
 O130 O 0.75464 0.20135 -0.27742
 O131 O 0.74826 0.29839 -0.27550
 O132 O 0.70270 0.24928 -0.27780
 Zr133 Zr 0.74805 0.24906 -0.19750
 Zr134 Zr 0.79544 0.29852 -0.24770
 Zr135 Zr 0.70598 0.20107 -0.25174
 Zr136 Zr 0.80165 0.20425 -0.25019
 O137 O 0.64685 0.20284 -0.25180
 O138 O 0.85960 0.21624 -0.24794
 O139 O 0.75312 0.20073 -0.22366
 O140 O 0.79833 0.25027 -0.22190
 O141 O 0.74678 0.29861 -0.22164
 O142 O 0.69995 0.24709 -0.22408
 C143 C 0.81735 0.19700 -0.31900
 C144 C 0.69425 0.19200 -0.32073
 C145 C 0.81299 0.31110 -0.31529
 O146 O 0.85435 0.29663 -0.24382
 O147 O 0.81135 0.32076 -0.20600
 O148 O 0.77943 0.28656 -0.17136
 C149 C 0.80233 0.31240 -0.17892
 O150 O 0.67518 0.31577 -0.28926
 Zr151 Zr 0.69985 0.29539 -0.24920
 O152 O 0.71093 0.28106 -0.17209
 O153 O 0.78788 0.35644 -0.24939
 O154 O 0.70626 0.35360 -0.24881
 O155 O 0.64138 0.28568 -0.24849
 O156 O 0.67964 0.31458 -0.20748
 C157 C 0.68706 0.30557 -0.18021
 O158 O 0.77862 0.22125 -0.16369
 O159 O 0.71357 0.14319 -0.25391
 O160 O 0.71468 0.21034 -0.17444
 O161 O 0.68726 0.17647 -0.21166
 O162 O 0.79775 0.14595 -0.25343
 O163 O 0.82200 0.17929 -0.21027
 C164 C 0.69337 0.18424 -0.18397
 H165 H 0.75571 0.17909 -0.29025
 H166 H 0.82020 0.25058 -0.20831
 H167 H 0.67663 0.24521 -0.21224
 H168 H 0.74726 0.32082 -0.28818
 H169 H 0.87325 0.19344 -0.25347
 H170 H 0.86328 0.32254 -0.24410
 H171 H 0.81302 0.36771 -0.24755
 H172 H 0.68165 0.36442 -0.24364
 H173 H 0.82310 0.13647 -0.25800
 H174 H 0.68832 0.13208 -0.25548
 H175 H 0.63805 0.17688 -0.25188
 H176 H 0.62905 0.30932 -0.24328
 H177 H 0.84428 0.16415 -0.21499
 H178 H 0.76820 0.22913 -0.14410
 H179 H 0.73513 0.27237 -0.35526
 H180 H 0.65720 0.33563 -0.28429
 Zr181 Zr 0.24580 0.75080 -0.30229
 O182 O 0.27446 0.72111 -0.33610
 O183 O 0.20858 0.78296 -0.32764
 O184 O 0.20947 0.71496 -0.32543
 O185 O 0.31424 0.81764 -0.29363
 O186 O 0.18009 0.68236 -0.28838
 O187 O 0.28057 0.78544 -0.32835
 O188 O 0.17405 0.81275 -0.29208
 O189 O 0.19720 0.74887 -0.27616
 O190 O 0.24480 0.79983 -0.27766
 O191 O 0.25060 0.70276 -0.27597
 O192 O 0.29644 0.75159 -0.27801
 Zr193 Zr 0.25062 0.75144 -0.19778
 Zr194 Zr 0.20325 0.70264 -0.24830
 Zr195 Zr 0.29330 0.79962 -0.25182
 Zr196 Zr 0.19762 0.79696 -0.25055
 O197 O 0.35241 0.79752 -0.25171
 O198 O 0.13958 0.78529 -0.24849
 O199 O 0.24599 0.79998 -0.22386
 O200 O 0.20050 0.75073 -0.22237
 O201 O 0.25175 0.70206 -0.22208
 O202 O 0.29887 0.75337 -0.22426
 C203 C 0.18225 0.80486 -0.31942
 C204 C 0.30566 0.80919 -0.32080
 C205 C 0.18615 0.69050 -0.31601
 O206 O 0.14432 0.70488 -0.24465
 O207 O 0.18683 0.68021 -0.20669
 O208 O 0.21877 0.71388 -0.17187
 C209 C 0.19569 0.68823 -0.17952
 O210 O 0.32362 0.68495 -0.28955
 Zr211 Zr 0.29886 0.70526 -0.24951
 O212 O 0.28746 0.71904 -0.17238
 O213 O 0.21051 0.64470 -0.25007
 O214 O 0.29209 0.64709 -0.24926
 O215 O 0.35737 0.71469 -0.24869
 O216 O 0.31883 0.68570 -0.20780
 C217 C 0.31132 0.69454 -0.18052
 O218 O 0.22003 0.77914 -0.16396
 O219 O 0.28603 0.85756 -0.25383
 O220 O 0.28409 0.78985 -0.17453
 O221 O 0.31193 0.82382 -0.21158
 O222 O 0.20191 0.85526 -0.25361
 O223 O 0.17716 0.82177 -0.21064
 C224 C 0.30562 0.81591 -0.18393
 H225 H 0.24394 0.82218 -0.29043
 H226 H 0.17854 0.75044 -0.20885
 H227 H 0.32214 0.75504 -0.21235
 H228 H 0.25157 0.68040 -0.28870
 H229 H 0.12609 0.80820 -0.25399
 H230 H 0.13523 0.67903 -0.24504
 H231 H 0.18529 0.63355 -0.24835
 H232 H 0.31659 0.63608 -0.24405
 H233 H 0.17665 0.86493 -0.25825
 H234 H 0.31134 0.86854 -0.25531
 H235 H 0.36136 0.82343 -0.25167
 H236 H 0.36957 0.69096 -0.24351
 H237 H 0.15501 0.83708 -0.21538
 H238 H 0.23030 0.77103 -0.14437
 H239 H 0.26433 0.72938 -0.35569
 H240 H 0.34146 0.66497 -0.28457
 Zr241 Zr 1.25361 1.24923 0.80202
 O242 O 1.22484 1.21947 0.83580
 O243 O 1.29147 1.28061 0.82731
 O244 O 1.28975 1.21281 0.82474
 O245 O 1.18621 1.31712 0.79421
 O246 O 1.31831 1.18026 0.78734
 O247 O 1.21978 1.28400 0.82851
 O248 O 1.32609 1.31042 0.79168
 O249 O 1.30190 1.24702 0.77557
 O250 O 1.25507 1.29854 0.77765
 O251 O 1.24780 1.20155 0.77553
 O252 O 1.20271 1.25104 0.77812
 Zr253 Zr 1.24764 1.25126 0.69766
 Zr254 Zr 1.29484 1.20119 0.74755
 Zr255 Zr 1.20628 1.29932 0.75217
 Zr256 Zr 1.30192 1.29540 0.75023
 O257 O 1.14714 1.29801 0.75252
 O258 O 1.35975 1.28297 0.74772
 O259 O 1.25330 1.29945 0.72391
 O260 O 1.29804 1.24952 0.72185
 O261 O 1.24606 1.20162 0.72169
 O262 O 1.19969 1.25345 0.72444
 C263 C 1.31796 1.30228 0.81900
 C264 C 1.19505 1.30818 0.82122
 C265 C 1.31271 1.18824 0.81504
 O266 O 1.35374 1.20263 0.74334
 O267 O 1.31021 1.17896 0.70571
 O268 O 1.27848 1.21360 0.67131
 C269 C 1.30111 1.18751 0.67871
 O270 O 1.17459 1.18477 0.78954
 Zr271 Zr 1.19929 1.20506 0.74943
 O272 O 1.21017 1.21963 0.67232
 O273 O 1.28679 1.14333 0.74917
 O274 O 1.20517 1.14680 0.74889
 O275 O 1.14090 1.21518 0.74895
 O276 O 1.17879 1.18614 0.70772
 C277 C 1.18618 1.19522 0.68046
 O278 O 1.27833 1.27899 0.66383
 O279 O 1.21441 1.35714 0.75442
 O280 O 1.21446 1.29027 0.67481
 O281 O 1.18749 1.32420 0.71221
 O282 O 1.29858 1.35371 0.75364
 O283 O 1.32234 1.32034 0.71030
 C284 C 1.19338 1.31647 0.68448
 H285 H 1.25640 1.32074 0.79052
 H286 H 1.31983 1.24909 0.70816
 H287 H 1.17633 1.25555 0.71269
 H288 H 1.24666 1.17908 0.78816
 H289 H 1.37364 1.30563 0.75327
 H290 H 1.36243 1.17665 0.74352
 H291 H 1.31181 1.13187 0.74716
 H292 H 1.18044 1.13619 0.74380
 H293 H 1.32404 1.36298 0.75812
 H294 H 1.18928 1.36843 0.75614
 H295 H 1.13858 1.32403 0.75272
 H296 H 1.12837 1.19164 0.74372
 H297 H 1.34477 1.33530 0.71497
 H298 H 1.26777 1.27128 0.64426
 H299 H 1.23529 1.22733 0.85538
 H300 H 1.15646 1.16503 0.78461
 Zr301 Zr 0.74667 0.75117 0.80188
 O302 O 0.77560 0.78108 0.83540
 O303 O 0.70880 0.72008 0.82745
 O304 O 0.71064 0.78778 0.82449
 O305 O 0.81386 0.68304 0.79432
 O306 O 0.68208 0.82018 0.78698
 O307 O 0.78047 0.71649 0.82850
 O308 O 0.67397 0.69021 0.79209
 O309 O 0.69833 0.75334 0.77554
 O310 O 0.74501 0.70170 0.77782
 O311 O 0.75256 0.79867 0.77511
 O312 O 0.79751 0.74903 0.77788
 Zr313 Zr 0.75240 0.74844 0.69754
 Zr314 Zr 0.70545 0.79898 0.74725
 Zr315 Zr 0.79374 0.70059 0.75221
 Zr316 Zr 0.69812 0.70480 0.75049
 O317 O 0.85288 0.70170 0.75241
 O318 O 0.64031 0.71735 0.74800
 O319 O 0.74666 0.70043 0.72407
 O320 O 0.70206 0.75050 0.72184
 O321 O 0.75418 0.79823 0.72127
 O322 O 0.80039 0.74628 0.72422
 C323 C 0.68219 0.69850 0.81933
 C324 C 0.80512 0.69220 0.82129
 C325 C 0.68770 0.81233 0.81472
 O326 O 0.64654 0.79769 0.74319
 O327 O 0.69006 0.82097 0.70532
 O328 O 0.72161 0.78602 0.67104
 C329 C 0.69907 0.81222 0.67835
 O330 O 0.82582 0.81529 0.78886
 Zr331 Zr 0.80100 0.79483 0.74892
 O332 O 0.78992 0.77978 0.67193
 O333 O 0.71369 0.85683 0.74851
 O334 O 0.79529 0.85310 0.74801
 O335 O 0.85935 0.78457 0.74839
 O336 O 0.82150 0.81336 0.70707
 C337 C 0.81403 0.80412 0.67988
 O338 O 0.72154 0.72059 0.66396
 O339 O 0.78541 0.64282 0.75484
 O340 O 0.78544 0.70922 0.67483
 O341 O 0.81240 0.67544 0.71234
 O342 O 0.70127 0.64650 0.75430
 O343 O 0.67757 0.67965 0.71076
 C344 C 0.80649 0.68302 0.68458
 H345 H 0.74364 0.67959 0.79084
 H346 H 0.68024 0.75091 0.70821
 H347 H 0.82373 0.74404 0.71243
 H348 H 0.75378 0.82121 0.78761
 H349 H 0.62638 0.69476 0.75373
 H350 H 0.63793 0.82369 0.74322
 H351 H 0.68869 0.86834 0.74651
 H352 H 0.82004 0.86360 0.74280
 H353 H 0.67578 0.63736 0.75890
 H354 H 0.81051 0.63146 0.75657
 H355 H 0.86136 0.67565 0.75277
 H356 H 0.87194 0.80805 0.74302
 H357 H 0.65513 0.66475 0.71557
 H358 H 0.73209 0.72815 0.64431
 H359 H 0.76518 0.77338 0.85505
 H360 H 0.84395 0.83500 0.78378
 Zr361 Zr 1.25384 0.75120 0.19816
 O362 O 1.22524 0.78131 0.16453
 O363 O 1.29157 0.71988 0.17270
 O364 O 1.29017 0.78764 0.17562
 O365 O 1.18618 0.68344 0.20561
 O366 O 1.31882 0.81986 0.21315
 O367 O 1.21995 0.71673 0.17148
 O368 O 1.32601 0.68970 0.20817
 O369 O 1.30211 0.75310 0.22460
 O370 O 1.25507 0.70172 0.22229
 O371 O 1.24819 0.79872 0.22487
 O372 O 1.20289 0.74939 0.22203
 Zr373 Zr 1.24772 0.74846 0.30247
 Zr374 Zr 1.29520 0.79875 0.25284
 Zr375 Zr 1.20623 0.70090 0.24775
 Zr376 Zr 1.30190 0.70454 0.24971
 O377 O 1.14710 0.70239 0.24739
 O378 O 1.35977 0.71681 0.25223
 O379 O 1.25322 0.70045 0.27600
 O380 O 1.29817 0.75022 0.27831
 O381 O 1.24637 0.79828 0.27869
 O382 O 1.19980 0.74659 0.27570
 C383 C 1.31795 0.69805 0.18089
 C384 C 1.19512 0.69255 0.17865
 C385 C 1.31321 0.81207 0.18542
 O386 O 1.35408 0.79712 0.25706
 O387 O 1.31055 0.82067 0.29479
 O388 O 1.27862 0.78586 0.32902
 C389 C 1.30134 0.81196 0.32174
 O390 O 1.17508 0.81582 0.21093
 Zr391 Zr 1.19962 0.79517 0.25094
 O392 O 1.21034 0.77999 0.32798
 O393 O 1.28739 0.85665 0.25147
 O394 O 1.20574 0.85340 0.25175
 O395 O 1.14120 0.78522 0.25139
 O396 O 1.17915 0.81383 0.29275
 C397 C 1.18646 0.80453 0.31997
 O398 O 1.27827 0.72040 0.33615
 O399 O 1.21412 0.64308 0.24524
 O400 O 1.21437 0.70940 0.32513
 O401 O 1.18729 0.67582 0.28759
 O402 O 1.29835 0.64625 0.24607
 O403 O 1.32217 0.67927 0.28952
 C404 C 1.19319 0.68335 0.31535
 H405 H 1.25633 0.67960 0.20931
 H406 H 1.31994 0.75051 0.29200
 H407 H 1.17641 0.74448 0.28744
 H408 H 1.24717 0.82128 0.21233
 H409 H 1.37357 0.69415 0.24657
 H410 H 1.36287 0.82308 0.25700
 H411 H 1.31246 0.86801 0.25353
 H412 H 1.18105 0.86405 0.25691
 H413 H 1.32378 0.63695 0.24154
 H414 H 1.18894 0.63188 0.24346
 H415 H 1.13843 0.67640 0.24707
 H416 H 1.12875 0.80876 0.25673
 H417 H 1.34459 0.66434 0.28479
 H418 H 1.26771 0.72799 0.35577
 H419 H 1.23569 0.77358 0.14491
 H420 H 1.15700 0.83557 0.21596
 Zr421 Zr 0.74683 1.24898 0.19788
 O422 O 0.77552 1.21925 0.16412
 O423 O 0.70927 1.28074 0.17255
 O424 O 0.71053 1.21286 0.17500
 O425 O 0.81476 1.31642 0.20603
 O426 O 0.68157 1.18028 0.21227
 O427 O 0.78110 1.28373 0.17155
 O428 O 0.67472 1.31052 0.20815
 O429 O 0.69840 1.24689 0.22421
 O430 O 0.74562 1.29815 0.22235
 O431 O 0.75215 1.20112 0.22434
 O432 O 0.79762 1.25029 0.22196
 Zr433 Zr 0.75229 1.25031 0.30234
 Zr434 Zr 0.70496 1.20085 0.25218
 Zr435 Zr 0.79429 1.29845 0.24799
 Zr436 Zr 0.69863 1.29512 0.24964
 O437 O 0.85342 1.29675 0.24784
 O438 O 0.64069 1.28305 0.25197
 O439 O 0.74714 1.29867 0.27612
 O440 O 0.70201 1.24906 0.27796
 O441 O 0.75362 1.20080 0.27821
 O442 O 0.80038 1.25239 0.27568
 C443 C 0.68287 1.30250 0.18083
 C444 C 0.80601 1.30772 0.17896
 C445 C 0.68736 1.18836 0.18460
 O446 O 0.64605 1.20267 0.25614
 O447 O 0.68906 1.17850 0.29393
 O448 O 0.72093 1.21268 0.32852
 C449 C 0.69807 1.18681 0.32100
 O450 O 0.82524 1.18382 0.21055
 Zr451 Zr 0.80055 1.20414 0.25061
 O452 O 0.78948 1.21832 0.32773
 O453 O 0.71262 1.14296 0.25052
 O454 O 0.79419 1.14592 0.25108
 O455 O 0.85900 1.21394 0.25121
 O456 O 0.82083 1.18492 0.29234
 C457 C 0.81341 1.19388 0.31961
 O458 O 0.72167 1.27800 0.33615
 O459 O 0.78660 1.35633 0.24581
 O460 O 0.78562 1.28907 0.32533
 O461 O 0.81301 1.32301 0.28806
 O462 O 0.70245 1.35343 0.24635
 O463 O 0.67823 1.31999 0.28956
 C464 C 0.80691 1.31522 0.31576
 H465 H 0.74452 1.32043 0.20951
 H466 H 0.68015 1.24869 0.29157
 H467 H 0.82370 1.25429 0.28750
 H468 H 0.75317 1.17871 0.21168
 H469 H 0.62700 1.30584 0.24644
 H470 H 0.63715 1.17675 0.25587
 H471 H 0.68749 1.13164 0.25239
 H472 H 0.81881 1.13511 0.25624
 H473 H 0.67709 1.36290 0.24180
 H474 H 0.81183 1.36748 0.24420
 H475 H 0.86219 1.32271 0.24774
 H476 H 0.87137 1.19032 0.25644
 H477 H 0.65594 1.33511 0.28485
 H478 H 0.73211 1.27009 0.35574
 H479 H 0.76522 1.22731 0.14453
 H480 H 0.84323 1.16396 0.21553
 O481 O 0.45654 1.07002 0.02080
 O482 O 0.54330 0.92941 0.02052
 O483 O 0.42884 0.95681 0.02045
 O484 O 0.57104 1.04259 0.02061
 O485 O 0.48048 0.93635 0.03699
 O486 O 0.51941 1.06291 0.03727
 O487 O 0.56381 0.98049 0.03714
 O488 O 0.43578 1.01884 0.03716
 C489 C 0.43944 1.05237 0.04050
 C490 C 0.56019 0.94693 0.04035
 C491 C 0.44659 0.94032 0.04037
 C492 C 0.55334 1.05911 0.04053
 O493 O 0.54299 1.07036 -0.02070
 O494 O 0.45690 0.92930 -0.02097
 O495 O 0.42862 1.04238 -0.02064
 O496 O 0.57125 0.95733 -0.02076
 O497 O 0.51972 0.93683 -0.03747
 O498 O 0.48018 1.06318 -0.03717
 O499 O 0.56385 1.01938 -0.03724
 O500 O 0.43597 0.98037 -0.03735
 Co501 Co 0.49980 1.06005 0.00004
 Co502 Co 0.50008 0.93954 -0.00023
 Co503 Co 0.43893 0.99962 -0.00010
 Co504 Co 0.56084 0.99992 -0.00006
 O505 O 0.49991 0.99978 -0.00009
 C506 C 0.56007 1.05291 -0.04047
 C507 C 0.43969 0.94684 -0.04064
 C508 C 0.44629 1.05912 -0.04050
 C509 C 0.55364 0.94084 -0.04074
 O510 O 0.95659 0.56982 0.52099
 O511 O 1.04321 0.42971 0.52096
 O512 O 0.92873 0.45654 0.52009
 O513 O 1.07112 0.54297 0.52026
 O514 O 0.98030 0.43644 0.53695
 O515 O 1.01950 0.56298 0.53709
 O516 O 1.06386 0.48094 0.53728
 O517 O 0.93567 0.51854 0.53715
 C518 C 0.93945 0.55206 0.54062
 C519 C 1.06017 0.44740 0.54068
 C520 C 0.94635 0.44012 0.54010
 C521 C 1.05347 0.55949 0.54019
 O522 O 1.04270 0.57022 0.47888
 O523 O 0.95726 0.42938 0.47874
 O524 O 0.92841 0.54242 0.47957
 O525 O 1.07153 0.45723 0.47967
 O526 O 1.02015 0.43684 0.46270
 O527 O 0.97987 0.56301 0.46279
 O528 O 1.06391 0.51915 0.46269
 O529 O 0.93602 0.48046 0.46252
 Co530 Co 0.99970 0.55999 0.49994
 Co531 Co 1.00020 0.43961 0.49984
 Co532 Co 0.93888 0.49952 0.49984
 Co533 Co 1.06092 0.50004 0.49997
 O534 O 0.99992 0.49979 0.49990
 C535 C 1.05988 0.55263 0.45922
 C536 C 0.94000 0.44697 0.45910
 C537 C 0.94596 0.55909 0.45962
 C538 C 1.05409 0.44072 0.45962
 O539 O 1.04792 0.48271 0.05103
 O540 O 1.04767 0.51943 -0.05210
 O541 O 1.04661 0.43760 -0.01727
 O542 O 1.04693 0.56405 0.01641
 O543 O 1.02434 0.45740 -0.05814
 O544 O 1.02460 0.54453 0.05735
 O545 O 1.02861 0.57077 -0.03435
 O546 O 1.02869 0.43128 0.03356
 C547 C 1.05259 0.44916 0.04790
 C548 C 1.05224 0.55305 -0.04912
 C549 C 1.04930 0.44031 -0.04468
 C550 C 1.04965 0.56146 0.04382
 O551 O 0.95394 0.51922 0.05114
 O552 O 0.95374 0.48253 -0.05183
 O553 O 0.95473 0.43776 0.01694
 O554 O 0.95483 0.56417 -0.01720
 O555 O 0.97695 0.54447 -0.05813
 O556 O 0.97729 0.45740 0.05770
 O557 O 0.97308 0.57064 0.03348
 O558 O 0.97277 0.43119 -0.03395
 Co559 Co 1.00092 0.50097 0.04870
 Co560 Co 1.00070 0.50096 -0.04947
 Co561 Co 1.00070 0.44091 -0.00019
 Co562 Co 1.00087 0.56095 -0.00040
 O563 O 1.00081 0.50094 -0.00035
 C564 C 0.94923 0.55277 0.04794
 C565 C 0.94900 0.44899 -0.04851
 C566 C 0.95223 0.44029 0.04438
 C567 C 0.95198 0.56143 -0.04458
 O568 O 0.54655 0.98166 0.55220
 O569 O 0.54641 1.01673 0.44891
 O570 O 0.54461 0.93573 0.48342
 O571 O 0.54532 1.06212 0.51790
 O572 O 0.52166 0.95499 0.44274
 O573 O 0.52224 1.04336 0.55869
 O574 O 0.52822 1.06832 0.46703
 O575 O 0.52788 0.93007 0.53438
 C576 C 0.55166 0.94820 0.54870
 C577 C 0.55161 1.05022 0.45226
 C578 C 0.54684 0.93802 0.45597
 C579 C 0.54753 1.06009 0.54536
 O580 O 0.45225 1.01717 0.55228
 O581 O 0.45192 0.98140 0.44925
 O582 O 0.45326 0.93631 0.51874
 O583 O 0.45375 1.06241 0.48321
 O584 O 0.47654 1.04304 0.44253
 O585 O 0.47662 0.95552 0.55923
 O586 O 0.47083 1.06861 0.53399
 O587 O 0.47007 0.92992 0.46773
 Co588 Co 0.49940 0.99941 0.54990
 Co589 Co 0.49915 0.99906 0.45154
 Co590 Co 0.49897 0.93932 0.50104
 Co591 Co 0.49951 1.05905 0.50057
 O592 O 0.49926 0.99921 0.50075
 C593 C 0.44716 1.05062 0.54861
 C594 C 0.44664 0.94798 0.45296
 C595 C 0.45127 0.93854 0.54621
 C596 C 0.45144 1.06010 0.45578
 O597 O 1.07090 1.02803 0.46695
 O598 O 0.93044 1.02777 0.53357
 O599 O 0.95650 1.02192 0.44230
 O600 O 1.04489 1.02200 0.55820
 O601 O 0.93698 1.04476 0.48284
 O602 O 1.06452 1.04483 0.51762
 O603 O 0.98260 1.04592 0.55172
 O604 O 1.01864 1.04609 0.44894
 C605 C 1.05241 1.05136 0.45254
 C606 C 0.94881 1.05105 0.54811
 C607 C 0.93996 1.04719 0.45548
 C608 C 1.06130 1.04735 0.54495
 O609 O 1.07083 0.97123 0.53392
 O610 O 0.93077 0.97112 0.46665
 O611 O 1.04536 0.97722 0.44258
 O612 O 0.95615 0.97692 0.55798
 O613 O 0.93682 0.95423 0.51731
 O614 O 1.06465 0.95435 0.48320
 O615 O 1.01854 0.95297 0.55185
 O616 O 0.98313 0.95298 0.44889
 Co617 Co 1.06138 0.99959 0.50040
 Co618 Co 0.94010 0.99949 0.50011
 Co619 Co 1.00089 0.99954 0.45123
 Co620 Co 1.00056 0.99945 0.54940
 O621 O 1.00073 0.99951 0.50029
 C622 C 1.05241 0.94797 0.54852
 C623 C 0.94930 0.94781 0.45228
 C624 C 1.06165 0.95186 0.45586
 C625 C 0.93988 0.95160 0.54464
 O626 O 0.56976 0.52937 -0.03333
 O627 O 0.42990 0.52904 0.03294
 O628 O 0.45539 0.52232 -0.05830
 O629 O 0.54434 0.52224 0.05787
 O630 O 0.43614 0.54542 -0.01783
 O631 O 0.56361 0.54549 0.01739
 O632 O 0.48217 0.54678 0.05131
 O633 O 0.51743 0.54709 -0.05155
 C634 C 0.55115 0.55259 -0.04778
 C635 C 0.44843 0.55216 0.04756
 C636 C 0.43883 0.54762 -0.04521
 C637 C 0.56075 0.54768 0.04476
 O638 O 0.56974 0.47153 0.03314
 O639 O 0.43017 0.47146 -0.03359
 O640 O 0.54470 0.47861 -0.05813
 O641 O 0.45516 0.47818 0.05767
 O642 O 0.43606 0.45515 0.01712
 O643 O 0.56373 0.45536 -0.01762
 O644 O 0.51740 0.45361 0.05132
 O645 O 0.48260 0.45378 -0.05167
 Co646 Co 0.56043 0.50042 -0.00012
 Co647 Co 0.43935 0.50028 -0.00032
 Co648 Co 0.50002 0.50044 -0.04931
 Co649 Co 0.49978 0.50021 0.04895
 O650 O 0.49989 0.50033 -0.00019
 C651 C 0.55120 0.44833 0.04773
 C652 C 0.44883 0.44832 -0.04807
 C653 C 0.56103 0.45317 -0.04499
 C654 C 0.43891 0.45276 0.04447
 C655 C 0.32605 1.16200 0.16242
 C656 C 0.34325 1.14421 0.14425
 C657 C 0.36398 1.12386 0.12305
 C658 C 0.38185 1.10687 0.10479
 C659 C 0.40261 1.08742 0.08304
 C660 C 0.41986 1.07120 0.06397
 C661 C 0.82605 0.66127 0.66280
 C662 C 0.84329 0.64348 0.64467
 C663 C 0.86406 0.62316 0.62345
 C664 C 0.88194 0.60625 0.60515
 C665 C 0.90269 0.58691 0.58333
 C666 C 0.91992 0.57079 0.56419
 C667 C 0.67338 0.83756 0.16254
 C668 C 0.65611 0.85523 0.14434
 C669 C 0.63534 0.87545 0.12308
 C670 C 0.61749 0.89236 0.10477
 C671 C 0.59678 0.91175 0.08296
 C672 C 0.57962 0.92799 0.06384
 C673 C 1.17376 0.33809 0.66266
 C674 C 1.15645 0.35583 0.64453
 C675 C 1.13561 0.37612 0.62335
 C676 C 1.11768 0.39305 0.60510
 C677 C 1.09688 0.41242 0.58334
 C678 C 1.07965 0.42860 0.56422
 C679 C 0.67378 1.16276 -0.16206
 C680 C 0.65646 1.14506 -0.14390
 C681 C 0.63560 1.12476 -0.12275
 C682 C 0.61764 1.10776 -0.10455
 C683 C 0.59682 1.08827 -0.08289
 C684 C 0.57956 1.07194 -0.06387
 C685 C 1.17345 0.66170 0.33707
 C686 C 1.15606 0.64398 0.35518
 C687 C 1.13515 0.62378 0.37637
 C688 C 1.11719 0.60694 0.39466
 C689 C 1.09641 0.58765 0.41648
 C690 C 1.07923 0.57150 0.43565
 C691 C 0.32525 0.83719 -0.16190
 C692 C 0.34261 0.85479 -0.14372
 C693 C 0.36355 0.87505 -0.12259
 C694 C 0.38160 0.89204 -0.10446
 C695 C 0.40257 0.91155 -0.08289
 C696 C 0.41998 0.92787 -0.06397
 C697 C 0.82649 0.33675 0.33765
 C698 C 0.84377 0.35453 0.35577
 C699 C 0.86458 0.37496 0.37687
 C700 C 0.88249 0.39206 0.39502
 C701 C 0.90327 0.41166 0.41665
 C702 C 0.92050 0.42801 0.43566
 C703 C 1.18122 0.33361 0.15528
 C704 C 1.16534 0.35187 0.13653
 C705 C 1.14515 0.37349 0.11565
 C706 C 1.12648 0.39183 0.09870
 C707 C 1.10280 0.41285 0.07987
 C708 C 1.08090 0.43004 0.06471
 C709 C 0.68193 0.83330 0.65478
 C710 C 0.66607 0.85151 0.63603
 C711 C 0.64575 0.87308 0.61523
 C712 C 0.62685 0.89136 0.59844
 C713 C 0.60278 0.91227 0.57990
 C714 C 0.58047 0.92931 0.56507
 C715 C 1.17957 0.66899 -0.15831
 C716 C 1.16356 0.65077 -0.13951
 C717 C 1.14336 0.62916 -0.11846
 C718 C 1.12486 0.61081 -0.10129
 C719 C 1.10154 0.58970 -0.08207
 C720 C 1.08005 0.57239 -0.06650
 C721 C 0.68059 1.16557 0.34445
 C722 C 0.66458 1.14728 0.36316
 C723 C 0.64428 1.12563 0.38405
 C724 C 0.62557 1.10730 0.40104
 C725 C 0.60187 1.08631 0.41999
 C726 C 0.57997 1.06919 0.43527
 C727 C 0.81968 0.66721 0.15543
 C728 C 0.83579 0.64918 0.13668
 C729 C 0.85624 0.62783 0.11577
 C730 C 0.87509 0.60972 0.09881
 C731 C 0.89894 0.58892 0.07995
 C732 C 0.92091 0.57186 0.06478
 C733 C 0.31818 1.16629 0.65520
 C734 C 0.33392 1.14797 0.63646
 C735 C 0.35403 1.12628 0.61562
 C736 C 0.37272 1.10789 0.59876
 C737 C 0.39652 1.08685 0.58010
 C738 C 0.41859 1.06967 0.56514
 C739 C 0.81982 0.33353 -0.15552
 C740 C 0.83586 0.35174 -0.13685
 C741 C 0.85623 0.37330 -0.11604
 C742 C 0.87502 0.39159 -0.09916
 C743 C 0.89879 0.41258 -0.08039
 C744 C 0.92072 0.42979 -0.06528
 C745 C 0.31836 0.83301 0.34538
 C746 C 0.33401 0.85119 0.36425
 C747 C 0.35397 0.87273 0.38528
 C748 C 0.37252 0.89099 0.40232
 C749 C 0.39617 0.91191 0.42119
 C750 C 0.41815 0.92900 0.43630
 C751 C 1.16150 1.18042 0.34261
 C752 C 1.14383 1.16461 0.36168
 C753 C 1.12355 1.14453 0.38332
 C754 C 1.10658 1.12581 0.40101
 C755 C 1.08717 1.10193 0.42052
 C756 C 1.07102 1.07978 0.43595
 C757 C 0.66056 0.68135 -0.15752
 C758 C 0.64273 0.66576 -0.13844
 C759 C 0.62230 0.64587 -0.11678
 C760 C 0.60524 0.62724 -0.09910
 C761 C 0.58579 0.60337 -0.07963
 C762 C 0.56965 0.58116 -0.06426
 C763 C 0.83880 1.17940 0.65796
 C764 C 0.85654 1.16353 0.63900
 C765 C 0.87696 1.14346 0.61745
 C766 C 0.89408 1.12484 0.59982
 C767 C 0.91370 1.10116 0.58030
 C768 C 0.93002 1.07923 0.56483
 C769 C 0.33944 0.68067 0.15779
 C770 C 0.35711 0.66491 0.13873
 C771 C 0.37737 0.64490 0.11705
 C772 C 0.39431 0.62627 0.09932
 C773 C 0.41368 0.60252 0.07972
 C774 C 0.42981 0.58048 0.06422
 C775 C 1.16286 0.82102 0.65965
 C776 C 1.14510 0.83683 0.64061
 C777 C 1.12458 0.85671 0.61894
 C778 C 1.10736 0.87508 0.60115
 C779 C 1.08761 0.89842 0.58138
 C780 C 1.07121 0.92006 0.56562
 C781 C 0.66134 0.32008 0.15781
 C782 C 0.64352 0.33593 0.13885
 C783 C 0.62299 0.35595 0.11730
 C784 C 0.60581 0.37452 0.09964
 C785 C 0.58616 0.39816 0.08006
 C786 C 0.56986 0.42008 0.06452
 C787 C 0.83867 0.82012 0.34238
 C788 C 0.85659 0.83581 0.36134
 C789 C 0.87724 0.85568 0.38286
 C790 C 0.89454 0.87415 0.40048
 C791 C 0.91430 0.89771 0.42000
 C792 C 0.93065 0.91960 0.43550
 C793 C 0.33958 0.31969 -0.15799
 C794 C 0.35738 0.33545 -0.13901
 C795 C 0.37778 0.35545 -0.11743
 C796 C 0.39482 0.37408 -0.09976
 C797 C 0.41425 0.39785 -0.08022
 C798 C 0.43036 0.41992 -0.06474
 C799 C 1.17608 0.32730 -0.15502
 C800 C 1.15958 0.34399 -0.13571
 C801 C 1.13932 0.36411 -0.11395
 C802 C 1.12097 0.38158 -0.09625
 C803 C 1.09795 0.40222 -0.07669
 C804 C 1.07673 0.41977 -0.06125
 C805 C 0.67444 0.82642 0.34492
 C806 C 0.65761 0.84282 0.36424
 C807 C 0.63702 0.86257 0.38607
 C808 C 0.61848 0.87973 0.40387
 C809 C 0.59534 0.90008 0.42360
 C810 C 0.57414 0.91748 0.43921
 C811 C 0.82416 0.67327 -0.15488
 C812 C 0.84075 0.65675 -0.13553
 C813 C 0.86115 0.63685 -0.11372
 C814 C 0.87966 0.61957 -0.09600
 C815 C 0.90291 0.59915 -0.07646
 C816 C 0.92433 0.58178 -0.06106
 C817 C 0.32504 1.17305 0.34479
 C818 C 0.34165 1.15643 0.36411
 C819 C 0.36195 1.13640 0.38594
 C820 C 0.38028 1.11900 0.40374
 C821 C 0.40319 1.09839 0.42345
 C822 C 0.42425 1.08080 0.43904
 C823 C 1.17619 0.67364 0.15477
 C824 C 1.15977 0.65712 0.13532
 C825 C 1.13963 0.63721 0.11338
 C826 C 1.12136 0.61990 0.09553
 C827 C 1.09839 0.59941 0.07583
 C828 C 1.07716 0.58195 0.06033
 C829 C 0.67494 1.17296 0.65562
 C830 C 0.65818 1.15633 0.63640
 C831 C 0.63767 1.13630 0.61470
 C832 C 0.61918 1.11890 0.59702
 C833 C 0.59608 1.09831 0.57745
 C834 C 0.57488 1.08075 0.56197
 C835 C 0.82529 0.32690 0.15526
 C836 C 0.84200 0.34364 0.13600
 C837 C 0.86243 0.36380 0.11423
 C838 C 0.88082 0.38129 0.09646
 C839 C 0.90380 0.40198 0.07675
 C840 C 0.92492 0.41960 0.06114
 C841 C 0.32355 0.82647 0.65779
 C842 C 0.34055 0.84297 0.63852
 C843 C 0.36128 0.86284 0.61671
 C844 C 0.37986 0.88008 0.59887
 C845 C 0.40296 0.90050 0.57901
 C846 C 0.42407 0.91794 0.56323
 C847 C 0.33375 1.16797 -0.16319
 C848 C 0.35155 1.15075 -0.14505
 C849 C 0.37233 1.13058 -0.12380
 C850 C 0.38991 1.11350 -0.10544
 C851 C 0.41014 1.09389 -0.08351
 C852 C 0.42697 1.07764 -0.06424
 C853 C 0.83362 0.66843 0.33713
 C854 C 0.85134 0.65119 0.35530
 C855 C 0.87203 0.63094 0.37654
 C856 C 0.88954 0.61377 0.39488
 C857 C 0.90971 0.59405 0.41676
 C858 C 0.92655 0.57771 0.43598
 C859 C 0.66628 1.16826 0.16275
 C860 C 0.64842 1.15111 0.14462
 C861 C 0.62753 1.13093 0.12345
 C862 C 0.60986 1.11381 0.10519
 C863 C 0.58953 1.09410 0.08338
 C864 C 0.57265 1.07775 0.06419
 C865 C 1.16530 0.67040 0.66201
 C866 C 1.14768 0.65311 0.64382
 C867 C 1.12708 0.63267 0.62265
 C868 C 1.10965 0.61525 0.60443
 C869 C 1.08955 0.59515 0.58273
 C870 C 1.07278 0.57848 0.56367
 C871 C 0.66664 0.83268 -0.16356
 C872 C 0.64881 0.84989 -0.14544
 C873 C 0.62794 0.86999 -0.12419
 C874 C 0.61028 0.88695 -0.10582
 C875 C 0.58995 0.90641 -0.08385
 C876 C 0.57303 0.92250 -0.06454
 C877 C 1.16700 0.33211 0.33702
 C878 C 1.14926 0.34931 0.35521
 C879 C 1.12849 0.36945 0.37648
 C880 C 1.11089 0.38649 0.39484
 C881 C 1.09058 0.40605 0.41674
 C882 C 1.07363 0.42226 0.43597
 C883 C 0.33435 0.83236 0.16373
 C884 C 0.35218 0.84954 0.14558
 C885 C 0.37296 0.86960 0.12426
 C886 C 0.39051 0.88653 0.10579
 C887 C 0.41064 0.90593 0.08369
 C888 C 0.42739 0.92200 0.06426
 C889 C 0.83400 0.33121 0.66284
 C890 C 0.85176 0.34836 0.64463
 C891 C 0.87250 0.36851 0.62335
 C892 C 0.89004 0.38560 0.60498
 C893 C 0.91022 0.40524 0.58305
 C894 C 0.92703 0.42154 0.56379
 C895 C 1.16614 1.17647 0.65725
 C896 C 1.14966 1.16004 0.63790
 C897 C 1.13068 1.13969 0.61574
 C898 C 1.11462 1.12101 0.59754
 C899 C 1.09596 1.09736 0.57746
 C900 C 1.08008 1.07548 0.56167
 C901 C 0.66687 0.67595 0.15706
 C902 C 0.65035 0.65953 0.13772
 C903 C 0.63121 0.63924 0.11560
 C904 C 0.61495 0.62066 0.09745
 C905 C 0.59599 0.59720 0.07738
 C906 C 0.57985 0.57552 0.06158
 C907 C 1.16648 0.82316 0.34327
 C908 C 1.15004 0.83948 0.36271
 C909 C 1.13110 0.85972 0.38497
 C910 C 1.11506 0.87832 0.40324
 C911 C 1.09640 0.90189 0.42338
 C912 C 1.08050 0.92375 0.43917
 C913 C 0.66714 0.32446 -0.15701
 C914 C 0.65063 0.34097 -0.13771
 C915 C 0.63150 0.36138 -0.11564
 C916 C 0.61525 0.38004 -0.09753
 C917 C 0.59629 0.40358 -0.07753
 C918 C 0.58015 0.42531 -0.06177
 C919 C 0.83342 1.17505 0.34284
 C920 C 0.85000 1.15865 0.36220
 C921 C 0.86920 1.13845 0.38440
 C922 C 0.88551 1.11998 0.40263
 C923 C 0.90455 1.09664 0.42280
 C924 C 0.92076 1.07503 0.43867
 C925 C 0.33123 0.67551 -0.15732
 C926 C 0.34782 0.65897 -0.13805
 C927 C 0.36716 0.63863 -0.11600
 C928 C 0.38365 0.62010 -0.09790
 C929 C 0.40294 0.59679 -0.07786
 C930 C 0.41938 0.57527 -0.06206
 C931 C 0.83415 0.82260 0.65656
 C932 C 0.85076 0.83885 0.63716
 C933 C 0.86994 0.85908 0.61500
 C934 C 0.88617 0.87774 0.59686
 C935 C 0.90502 0.90142 0.57690
 C936 C 0.92102 0.92339 0.56124
 C937 C 0.33354 0.32357 0.15663
 C938 C 0.35001 0.33999 0.13723
 C939 C 0.36906 0.36036 0.11508
 C940 C 0.38521 0.37908 0.09693
 C941 C 0.40400 0.40277 0.07692
 C942 C 0.41999 0.42468 0.06119
   
