data_POSCAR
  _audit_creation_date              2014-09-24
  _audit_creation_method            'ToBaCCo'
  _symmetry_space_group_name_H-M    'P1'
  _symmetry_Int_Tables_number       1
  _symmetry_cell_setting            triclinic
  loop_
  _symmetry_equiv_pos_as_xyz
 x,y,z
_cell_length_a 27.1764
_cell_length_b 27.1639
_cell_length_c 35.1915
_cell_angle_alpha 88.578000
_cell_angle_beta 89.942700
_cell_angle_gamma 90.260200
loop_
  _atom_site_label
  _atom_site_type_symbol
  _atom_site_fract_x
  _atom_site_fract_y
  _atom_site_fract_z
C1 C 0.00921 0.54507 1.02197
 C2 C 0.00198 0.54683 0.98167
 C3 C -0.00509 0.50206 0.96287
 C4 C -0.00266 0.45616 0.98188
 C5 C 0.00653 0.45402 1.02159
 C6 C 0.01296 0.49860 1.04057
 H7 H 0.01580 0.49701 1.07129
 H8 H -0.00840 0.50224 0.93218
 C9 C 0.45262 -0.00307 0.52135
 C10 C 0.45258 -0.00180 0.48126
 C11 C 0.49740 -0.00384 0.46164
 C12 C 0.54292 -0.00703 0.48082
 C13 C 0.54259 -0.00662 0.52137
 C14 C 0.49743 -0.00576 0.54084
 H15 H 0.49718 -0.00460 0.57163
 H16 H 0.49613 -0.00555 0.43092
 C17 C 0.09765 0.00635 0.26578
 H18 H 0.09911 0.01290 0.23535
 C19 C 0.14058 0.00919 0.28732
 H20 H 0.17515 0.01731 0.27313
 C21 C 0.05065 -0.01269 0.32102
 H22 H 0.01545 -0.02069 0.33408
 C23 C 0.09277 -0.01032 0.34367
 H24 H 0.08949 -0.01636 0.37409
 N25 N 0.05393 -0.00492 0.28276
 C26 C -0.04231 -0.07803 0.20284
 H27 H -0.07528 -0.05613 0.20514
 C28 C -0.04291 -0.12090 0.18165
 H29 H -0.07681 -0.13191 0.16809
 C30 C 0.04115 -0.09120 0.21935
 H31 H 0.07376 -0.07994 0.23434
 C32 C 0.04240 -0.13379 0.19808
 H33 H 0.07652 -0.15402 0.19644
 Zn34 Zn -0.00245 -0.00728 0.25129
 N35 N -0.00070 -0.06414 0.22124
 C36 C -0.00716 0.04811 0.18162
 N37 N -0.00184 0.05031 0.21997
 C38 C 0.00611 0.09387 0.23719
 C39 C 0.00846 0.13768 0.21575
 C40 C -0.00517 0.09115 0.15904
 C41 C -0.07155 -0.05216 0.30079
 C42 C -0.11441 -0.05561 0.32272
 C43 C -0.13341 0.02834 0.30412
 C44 C -0.09056 0.03000 0.28228
 N45 N -0.06039 -0.00974 0.28126
 H46 H -0.01268 0.01300 0.16845
 H47 H 0.01068 0.09446 0.26771
 H48 H 0.01419 0.17204 0.23010
 H49 H -0.00895 0.08874 0.12852
 H50 H -0.04723 -0.08345 0.29911
 H51 H -0.12298 -0.08998 0.33754
 H52 H -0.15609 0.06093 0.30519
 H53 H -0.08148 0.06322 0.26629
 C54 C -0.00012 -0.14956 0.17911
 C55 C 0.13852 0.00067 0.32681
 C56 C -0.14604 -0.01493 0.32465
 C57 C 0.00288 0.13669 0.17611
 C58 C -0.01469 0.10831 0.76485
 H59 H -0.02203 0.11012 0.73464
 C60 C -0.01645 0.15103 0.78600
 H61 H -0.02478 0.18583 0.77180
 C62 C 0.00552 0.06062 0.81993
 H63 H 0.01365 0.02523 0.83305
 C64 C 0.00456 0.10256 0.84212
 H65 H 0.01178 0.09906 0.87232
 N66 N -0.00362 0.06433 0.78197
 C67 C 0.06498 -0.03088 0.69991
 H68 H 0.04077 -0.06258 0.70169
 C69 C 0.10724 -0.03209 0.67734
 H70 H 0.11521 -0.06474 0.66145
 C71 C 0.08404 0.05024 0.71861
 H72 H 0.07530 0.08199 0.73514
 C73 C 0.12639 0.05078 0.69612
 H74 H 0.14996 0.08304 0.69564
 Zn75 Zn -0.00265 0.00839 0.75107
 N76 N 0.05415 0.00992 0.71988
 C77 C -0.05675 0.00928 0.68207
 N78 N -0.06017 0.00999 0.72063
 C79 C -0.10454 0.01345 0.73826
 C80 C -0.14795 0.01406 0.71707
 C81 C -0.09921 0.01057 0.65974
 C82 C 0.04248 -0.06235 0.79885
 C83 C 0.04638 -0.10595 0.82056
 C84 C -0.03879 -0.12355 0.80668
 C85 C -0.04078 -0.08014 0.78473
 N86 N -0.00065 -0.05025 0.78150
 H87 H -0.02115 0.00766 0.66851
 H88 H -0.10617 0.01528 0.76891
 H89 H -0.18303 0.01626 0.73153
 H90 H -0.09596 0.00925 0.62911
 H91 H 0.07410 -0.03830 0.79541
 H92 H 0.08143 -0.11529 0.83333
 H93 H -0.07176 -0.14581 0.80959
 H94 H -0.07456 -0.07057 0.77039
 C95 C 0.13848 0.00920 0.67521
 C96 C -0.00660 0.14849 0.82514
 C97 C 0.00531 -0.13732 0.82479
 C98 C -0.14551 0.01242 0.67730
 C99 C 0.00632 -0.32869 0.09175
 C100 C -0.02438 -0.33106 0.05944
 C101 C -0.02424 -0.37316 0.03704
 C102 C 0.00818 -0.41251 0.04491
 C103 C 0.03903 -0.40929 0.07692
 C104 C 0.03815 -0.36826 0.09991
 C105 C 0.00433 -0.28360 0.11542
 C106 C 0.03054 -0.27937 0.14968
 C107 C 0.02836 -0.23629 0.17033
 C108 C 0.00036 -0.19593 0.15738
 C109 C -0.02692 -0.20031 0.12369
 C110 C -0.02565 -0.24391 0.10301
 C111 C -0.05448 -0.29111 0.04931
 C112 C -0.05444 -0.24815 0.07023
 H113 H -0.07775 -0.29269 0.02437
 H114 H -0.07775 -0.21797 0.06083
 H115 H -0.04992 -0.37531 0.01360
 H116 H 0.06548 -0.43792 0.08362
 H117 H 0.04844 -0.23487 0.19683
 H118 H -0.04873 -0.16958 0.11320
 H119 H 0.06347 -0.36791 0.12346
 H120 H 0.05252 -0.30902 0.16132
 C121 C 0.01049 0.32025 0.08757
 C122 C -0.02455 0.32651 0.05818
 C123 C -0.02602 0.37070 0.03662
 C124 C 0.00762 0.40918 0.04324
 C125 C 0.04188 0.40271 0.07291
 C126 C 0.04348 0.35907 0.09457
 C127 C 0.01036 0.27280 0.11032
 C128 C 0.04361 0.26309 0.14026
 C129 C 0.04126 0.21886 0.16118
 C130 C 0.00588 0.18298 0.15287
 C131 C -0.02691 0.19189 0.12270
 C132 C -0.02501 0.23640 0.10151
 C133 C -0.05831 0.28886 0.05069
 C134 C -0.05855 0.24480 0.07188
 H135 H -0.08513 0.29357 0.02812
 H136 H -0.08557 0.21693 0.06505
 H137 H -0.05469 0.37560 0.01552
 H138 H 0.06888 0.43098 0.07876
 H139 H 0.06757 0.21256 0.18386
 H140 H -0.05469 0.16459 0.11623
 H141 H 0.07099 0.35661 0.11656
 H142 H 0.07167 0.28907 0.14813
 C143 C 0.31774 0.00733 0.58493
 C144 C 0.34817 -0.03467 0.58917
 C145 C 0.39249 -0.03735 0.56882
 C146 C 0.40660 0.00081 0.54359
 C147 C 0.37650 0.04224 0.53919
 C148 C 0.33259 0.04559 0.55955
 C149 C 0.27097 0.00897 0.60757
 C150 C 0.23910 0.04980 0.60659
 C151 C 0.19622 0.04966 0.62847
 C152 C 0.18374 0.00880 0.65167
 C153 C 0.21509 -0.03209 0.65280
 C154 C 0.25863 -0.03215 0.63128
 C155 C 0.33400 -0.07390 0.61337
 C156 C 0.29006 -0.07282 0.63377
 H157 H 0.35718 -0.10612 0.61647
 H158 H 0.28070 -0.10422 0.65201
 H159 H 0.41572 -0.06955 0.57199
 H160 H 0.38706 0.07209 0.51983
 H161 H 0.17242 0.08153 0.62697
 H162 H 0.20608 -0.06352 0.67115
 H163 H 0.31082 0.07823 0.55481
 H164 H 0.24666 0.08232 0.58936
 C165 C -0.32423 0.00823 0.58693
 C166 C -0.35971 -0.02813 0.59707
 C167 C -0.40292 -0.03275 0.57560
 C168 C -0.41188 -0.00108 0.54432
 C169 C -0.37785 0.03641 0.53542
 C170 C -0.33438 0.04085 0.55617
 C171 C -0.27768 0.01064 0.60970
 C172 C -0.23843 0.04279 0.60019
 C173 C -0.19565 0.04326 0.62214
 C174 C -0.19107 0.01211 0.65427
 C175 C -0.22979 -0.02013 0.66395
 C176 C -0.27258 -0.02162 0.64167
 C177 C -0.35203 -0.05946 0.62869
 C178 C -0.30972 -0.05583 0.65081
 H179 H -0.37935 -0.08703 0.63664
 H180 H -0.30569 -0.08072 0.67514
 H181 H -0.42950 -0.06133 0.58295
 H182 H -0.38479 0.06213 0.51204
 H183 H -0.16614 0.06840 0.61417
 H184 H -0.22601 -0.04499 0.68835
 H185 H -0.30951 0.07022 0.54785
 H186 H -0.23973 0.06744 0.57572
 C187 C 0.01193 -0.31975 0.91539
 C188 C -0.02098 -0.35756 0.90501
 C189 C -0.02403 -0.40133 0.92694
 C190 C 0.00606 -0.40908 0.95913
 C191 C 0.04105 -0.37251 0.96760
 C192 C 0.04358 -0.32839 0.94645
 C193 C 0.01194 -0.27244 0.89245
 C194 C 0.03963 -0.23077 0.90254
 C195 C 0.03757 -0.18724 0.88060
 C196 C 0.00826 -0.18408 0.84778
 C197 C -0.01921 -0.22564 0.83748
 C198 C -0.01842 -0.26910 0.85987
 C199 C -0.05068 -0.35160 0.87274
 C200 C -0.04874 -0.30870 0.85026
 H201 H -0.07555 -0.38076 0.86452
 H202 H -0.07221 -0.30607 0.82541
 H203 H -0.05143 -0.42859 0.91956
 H204 H 0.06717 -0.37813 0.99049
 H205 H 0.05829 -0.15563 0.88992
 H206 H -0.04155 -0.22429 0.81200
 H207 H 0.07102 -0.30185 0.95458
 H208 H 0.06223 -0.23067 0.92771
 C209 C -0.00909 0.32650 0.91354
 C210 C 0.03104 0.33399 0.93842
 C211 C 0.03347 0.37668 0.96004
 C212 C -0.00437 0.41160 0.95819
 C213 C -0.04405 0.40420 0.93358
 C214 C -0.04651 0.36227 0.91152
 C215 C -0.00992 0.28072 0.89054
 C216 C -0.04717 0.27067 0.86394
 C217 C -0.04600 0.22776 0.84295
 C218 C -0.00794 0.19358 0.84802
 C219 C 0.02922 0.20305 0.87454
 C220 C 0.02874 0.24638 0.89552
 C221 C 0.06828 0.29871 0.94183
 C222 C 0.06699 0.25571 0.92104
 H223 H 0.09884 0.30431 0.96104
 H224 H 0.09665 0.22950 0.92480
 H225 H 0.06456 0.38259 0.97870
 H226 H -0.07361 0.43078 0.93180
 H227 H -0.07530 0.22106 0.82286
 H228 H 0.05918 0.17715 0.87823
 H229 H -0.07817 0.35850 0.89339
 H230 H -0.07737 0.29549 0.85868
 C231 C -0.32484 -0.01835 0.41613
 C232 C -0.36449 0.01061 0.40251
 C233 C -0.40783 0.01405 0.42395
 C234 C -0.41320 -0.01142 0.45912
 C235 C -0.37441 -0.04210 0.47144
 C236 C -0.33086 -0.04523 0.45056
 C237 C -0.27840 -0.01930 0.39303
 C238 C -0.23561 -0.04422 0.40520
 C239 C -0.19299 -0.04308 0.38294
 C240 C -0.19186 -0.01734 0.34785
 C241 C -0.23452 0.00719 0.33540
 C242 C -0.27722 0.00703 0.35783
 C243 C -0.36077 0.03611 0.36754
 C244 C -0.31832 0.03385 0.34547
 H245 H -0.39128 0.05803 0.35695
 H246 H -0.31737 0.05414 0.31856
 H247 H -0.43668 0.03837 0.41369
 H248 H -0.37802 -0.06500 0.49690
 H249 H -0.16047 -0.06158 0.39369
 H250 H -0.23457 0.02665 0.30814
 H251 H -0.30267 -0.06940 0.46165
 H252 H -0.23395 -0.06403 0.43210
 C253 C 0.31898 0.00565 0.41540
 C254 C 0.32525 -0.03195 0.44357
 C255 C 0.36884 -0.03431 0.46491
 C256 C 0.40634 0.00065 0.45892
 C257 C 0.40015 0.03782 0.43109
 C258 C 0.35708 0.04045 0.40960
 C259 C 0.27227 0.00628 0.39270
 C260 C 0.26271 0.04169 0.36372
 C261 C 0.21921 0.03999 0.34276
 C262 C 0.18394 0.00311 0.35011
 C263 C 0.19273 -0.03189 0.37930
 C264 C 0.23649 -0.03067 0.40048
 C265 C 0.28819 -0.06714 0.45011
 C266 C 0.24478 -0.06651 0.42904
 H267 H 0.29292 -0.09579 0.47176
 H268 H 0.21736 -0.09474 0.43507
 H269 H 0.37385 -0.06360 0.48603
 H270 H 0.42876 0.06513 0.42612
 H271 H 0.21300 0.06790 0.32080
 H272 H 0.16596 -0.06088 0.38496
 H273 H 0.35454 0.06994 0.38865
 H274 H 0.28831 0.07091 0.35660
   
