data_POSCAR
  _audit_creation_date              2014-09-24
  _audit_creation_method            'ToBaCCo'
  _symmetry_space_group_name_H-M    'P1'
  _symmetry_Int_Tables_number       1
  _symmetry_cell_setting            triclinic
  loop_
  _symmetry_equiv_pos_as_xyz
 x,y,z
_cell_length_a 26.5531
_cell_length_b 20.7591
_cell_length_c 19.9708
_cell_angle_alpha 90.134500
_cell_angle_beta 89.844000
_cell_angle_gamma 89.971300
loop_
  _atom_site_label
  _atom_site_type_symbol
  _atom_site_fract_x
  _atom_site_fract_y
  _atom_site_fract_z
C1 C 0.21976 0.22635 0.20330
 C2 C 0.22144 0.29489 0.19960
 C3 C 0.25543 0.32880 0.24009
 C4 C 0.28880 0.29725 0.28332
 C5 C 0.28945 0.22866 0.28509
 C6 C 0.25440 0.19495 0.24543
 H7 H 0.25401 0.14266 0.24753
 H8 H 0.25588 0.38098 0.23801
 C9 C 0.80013 0.27151 0.23250
 C10 C 0.79999 0.20309 0.23817
 C11 C 0.76364 0.17298 0.27889
 C12 C 0.72663 0.20835 0.31290
 C13 C 0.72712 0.27640 0.30876
 C14 C 0.76346 0.30680 0.26861
 H15 H 0.76203 0.35862 0.26550
 H16 H 0.76422 0.12116 0.28505
 C17 C 0.71096 0.72916 0.71953
 C18 C 0.71017 0.79742 0.71664
 C19 C 0.74709 0.83229 0.75136
 C20 C 0.78312 0.80173 0.79194
 C21 C 0.78520 0.73307 0.79213
 C22 C 0.74828 0.69826 0.75700
 H23 H 0.74995 0.64617 0.75512
 H24 H 0.74601 0.88453 0.74933
 C25 C 0.26395 0.76989 0.68010
 C26 C 0.26928 0.70302 0.69045
 C27 C 0.23666 0.67149 0.73500
 C28 C 0.19787 0.70444 0.76896
 C29 C 0.19499 0.77283 0.76184
 C30 C 0.22700 0.80386 0.71610
 H31 H 0.22367 0.85551 0.70945
 H32 H 0.24000 0.61967 0.74041
 O33 O 1.05484 -0.07973 -0.01043
 O34 O 0.95712 0.00688 0.08559
 O35 O 0.95648 -0.07785 -0.00913
 O36 O 1.05533 0.00729 0.08538
 O37 O 1.05424 0.08520 0.01029
 O38 O 0.95715 -0.00107 -0.08550
 O39 O 0.95733 0.08433 0.00984
 O40 O 1.05525 -0.00192 -0.08560
 Cu41 Cu 1.00630 -0.04376 0.04536
 Cu42 Cu 1.00633 0.04924 -0.04551
 C43 C 1.07127 -0.05590 -0.06482
 C44 C 0.94049 0.06026 0.06380
 C45 C 0.93968 -0.05368 -0.06307
 C46 C 1.07050 0.06176 0.06481
 O47 O 0.55299 0.41446 0.50684
 O48 O 0.45447 0.51130 0.58883
 O49 O 0.45517 0.41922 0.50042
 O50 O 0.55258 0.51010 0.59197
 O51 O 0.55650 0.58050 0.50942
 O52 O 0.45891 0.49044 0.41861
 O53 O 0.45848 0.58241 0.50692
 O54 O 0.55686 0.48490 0.42432
 Cu55 Cu 0.50353 0.45671 0.55531
 Cu56 Cu 0.50817 0.54163 0.45655
 C57 C 0.57155 0.43286 0.45153
 C58 C 0.43954 0.56320 0.56182
 C59 C 0.44031 0.43964 0.44392
 C60 C 0.57100 0.56089 0.56635
 O61 O 0.03803 0.48075 -0.11414
 O62 O -0.04817 0.38681 -0.00643
 O63 O -0.05980 0.46622 -0.10493
 O64 O 0.04930 0.39637 -0.01805
 O65 O 0.04783 0.47637 0.05499
 O66 O -0.06029 0.54749 -0.03324
 O67 O -0.04974 0.46748 0.06580
 O68 O 0.03588 0.56060 -0.04089
 Cu69 Cu -0.00475 0.42452 -0.06830
 Cu70 Cu -0.00659 0.52088 0.01914
 C71 C 0.05097 0.53712 -0.09609
 C72 C -0.06392 0.41164 0.04793
 C73 C -0.07848 0.51881 -0.08400
 C74 C 0.06676 0.42389 0.03367
 O75 O 0.54480 1.00586 0.43188
 O76 O 0.43784 0.94073 0.52874
 O77 O 0.44699 1.01474 0.42451
 O78 O 0.53494 0.92802 0.53428
 O79 O 0.54084 1.01365 0.59965
 O80 O 0.44938 1.09846 0.49293
 O81 O 0.44241 1.02363 0.59793
 O82 O 0.54555 1.09164 0.49760
 Cu83 Cu 0.49094 0.96380 0.47315
 Cu84 Cu 0.49478 1.06505 0.55422
 C85 C 0.56232 1.06088 0.44727
 C86 C 0.42221 0.97094 0.58020
 C87 C 0.43354 1.07157 0.43974
 C88 C 0.55297 0.95602 0.58545
 C89 C 1.18625 0.18641 0.16671
 C90 C 1.14094 0.20434 0.14335
 C91 C 1.10882 0.16309 0.10100
 C92 C 1.10639 0.09878 0.10569
 H93 H 1.12542 0.25113 0.15433
 H94 H 1.08335 0.18794 0.06752
 H95 H 1.19725 0.13659 0.15955
 H96 H 1.12791 0.07345 0.14332
 C97 C 0.67495 0.68710 0.68379
 C98 C 0.66648 0.69191 0.61787
 C99 C 0.62985 0.65176 0.58068
 C100 C 0.60913 0.59728 0.60418
 H101 H 0.68577 0.72905 0.58973
 H102 H 0.61985 0.66843 0.53111
 H103 H 0.65702 0.64997 0.71318
 H104 H 0.61976 0.57819 0.65239
 C105 C -0.16493 0.30309 0.18969
 C106 C -0.15375 0.36633 0.19245
 C107 C -0.11718 0.39901 0.14796
 C108 C -0.09930 0.37499 0.09013
 H109 H -0.16889 0.39658 0.23163
 H110 H -0.10571 0.44682 0.16355
 H111 H -0.14490 0.27434 0.15340
 H112 H -0.11128 0.32843 0.07186
 C113 C 0.29809 0.80465 0.63361
 C114 C 0.31890 0.86143 0.64883
 C115 C 0.35718 0.89001 0.60447
 C116 C 0.38085 0.94454 0.62098
 H117 H 0.30992 0.88504 0.69584
 H118 H 0.36737 0.86482 0.55876
 H119 H 0.30917 0.78118 0.58741
 H120 H 0.37052 0.96971 0.66662
 C121 C -0.17066 0.69803 -0.17995
 C122 C -0.17261 0.63810 -0.15567
 C123 C -0.12828 0.61008 -0.12283
 C124 C -0.12195 0.54648 -0.11886
 H125 H -0.20699 0.61019 -0.15736
 H126 H -0.09995 0.64215 -0.10235
 H127 H -0.13493 0.72317 -0.17808
 H128 H -0.14810 0.51429 -0.14367
 C129 C 0.32215 1.19100 0.32516
 C130 C 0.36756 1.20966 0.34771
 C131 C 0.39846 1.17121 0.39407
 C132 C 0.39981 1.10674 0.39437
 H133 H 0.38393 1.25499 0.33319
 H134 H 0.42366 1.19787 0.42651
 H135 H 0.31030 1.14224 0.33629
 H136 H 0.37857 1.07930 0.35796
 C137 C 1.16256 -0.18449 -0.19694
 C138 C 1.16111 -0.18804 -0.12988
 C139 C 1.12725 -0.14848 -0.08745
 C140 C 1.10828 -0.09134 -0.10596
 H141 H 1.18305 -0.22481 -0.10493
 H142 H 1.11795 -0.16774 -0.03860
 H143 H 1.14103 -0.14821 -0.22309
 H144 H 1.11928 -0.06984 -0.15306
 C145 C 0.69230 0.31658 0.34948
 C146 C 0.66891 0.36843 0.32417
 C147 C 0.63160 0.40843 0.36060
 C148 C 0.61019 0.39241 0.41912
 H149 H 0.67669 0.38255 0.27301
 H150 H 0.62009 0.45249 0.33602
 H151 H 0.68471 0.30082 0.40000
 H152 H 0.61981 0.34792 0.44396
 C153 C 0.81562 -0.15809 -0.17053
 C154 C 0.83638 -0.17492 -0.11174
 C155 C 0.87393 -0.13621 -0.07480
 C156 C 0.89986 -0.08685 -0.10093
 H157 H 0.82478 -0.21891 -0.08727
 H158 H 0.88238 -0.15205 -0.02441
 H159 H 0.82057 -0.10906 -0.18765
 H160 H 0.89272 -0.07043 -0.15135
 C161 C 0.31869 0.33755 0.32977
 C162 C 0.34692 0.38657 0.30741
 C163 C 0.38285 0.42349 0.34886
 C164 C 0.40143 0.40316 0.40756
 H165 H 0.34490 0.39982 0.25505
 H166 H 0.39688 0.46783 0.32729
 H167 H 0.31968 0.32347 0.38183
 H168 H 0.38941 0.35794 0.42906
 C169 C 0.16424 0.66593 -0.19333
 C170 C 0.11657 0.68154 -0.17765
 C171 C 0.08431 0.64023 -0.13564
 C172 C 0.08380 0.57577 -0.13976
 H173 H 0.09991 0.72615 -0.19401
 H174 H 0.05813 0.66454 -0.10240
 H175 H 0.17707 0.61825 -0.17924
 H176 H 0.10621 0.55114 -0.17731
 C177 C 0.68897 1.17173 0.35273
 C178 C 0.63996 1.18697 0.35386
 C179 C 0.60319 1.15417 0.39714
 C180 C 0.60169 1.09023 0.40542
 H181 H 0.62631 1.22779 0.32567
 H182 H 0.57402 1.18394 0.41935
 H183 H 0.70192 1.12990 0.38013
 H184 H 0.62726 1.05924 0.37786
 C185 C 0.19178 0.33232 0.15044
 C186 C 0.16484 0.38412 0.16901
 C187 C 0.12804 0.41776 0.12592
 C188 C 0.10852 0.39281 0.06970
 H189 H 0.16792 0.40173 0.21994
 H190 H 0.11356 0.46308 0.14487
 H191 H 0.18971 0.31377 0.09992
 H192 H 0.12092 0.34653 0.05103
 C193 C 0.67266 0.83534 0.67821
 C194 C 0.62349 0.82115 0.67609
 C195 C 0.58781 0.85735 0.63411
 C196 C 0.58863 0.92163 0.62880
 H197 H 0.60909 0.77935 0.70205
 H198 H 0.55849 0.83006 0.60928
 H199 H 0.68618 0.87789 0.65246
 H200 H 0.61467 0.94971 0.65862
 C201 C 0.83982 0.16313 0.20575
 C202 C 0.83195 0.10350 0.18209
 C203 C 0.87158 0.06741 0.14624
 C204 C 0.90173 0.09579 0.10128
 H205 H 0.79599 0.07993 0.18888
 H206 H 0.87343 0.01577 0.15352
 H207 H 0.87710 0.18364 0.20053
 H208 H 0.89656 0.14631 0.08950
 C209 C 0.30829 0.66539 0.65416
 C210 C 0.33712 0.62148 0.68486
 C211 C 0.37729 0.58411 0.65104
 C212 C 0.39964 0.60196 0.59366
 H213 H 0.33086 0.61137 0.73741
 H214 H 0.38998 0.54099 0.67636
 H215 H 0.31340 0.67475 0.60145
 H216 H 0.38923 0.64637 0.56912
   
