data_POSCAR
  _audit_creation_date              2014-09-24
  _audit_creation_method            'ToBaCCo'
  _symmetry_space_group_name_H-M    'P1'
  _symmetry_Int_Tables_number       1
  _symmetry_cell_setting            triclinic
  loop_
  _symmetry_equiv_pos_as_xyz
 x,y,z
_cell_length_a 27.3706
_cell_length_b 27.0819
_cell_length_c 27.4175
_cell_angle_alpha 89.354300
_cell_angle_beta 90.616600
_cell_angle_gamma 90.596500
loop_
  _atom_site_label
  _atom_site_type_symbol
  _atom_site_fract_x
  _atom_site_fract_y
  _atom_site_fract_z
N1 N 0.19766 1.29370 0.16234
 N2 N 0.16359 1.29260 0.19582
 C3 C 0.12814 1.32455 0.18315
 C4 C 0.14120 1.34685 0.13967
 C5 C 0.18536 1.32667 0.12730
 H6 H 0.09492 1.33006 0.20334
 H7 H 0.20622 1.33413 0.09468
 Cu8 Cu 0.16774 1.24782 0.25149
 Cu9 Cu 0.25418 1.25066 0.16596
 Cu10 Cu 0.24002 1.14894 0.24303
 N11 N 0.15989 1.19112 0.29463
 N12 N 0.18789 1.15219 0.29074
 C13 C 0.17282 1.11706 0.32246
 C14 C 0.13346 1.13521 0.34729
 C15 C 0.12588 1.18213 0.32885
 H16 H 0.18830 1.08059 0.32606
 H17 H 0.09684 1.20702 0.33817
 N18 N 0.29082 1.15340 0.19262
 N19 N 0.29670 1.19250 0.16394
 C20 C 0.33254 1.18355 0.13202
 C21 C 0.34996 1.13682 0.14142
 C22 C 0.32290 1.11858 0.17979
 H23 H 0.34358 1.20825 0.10279
 H24 H 0.32526 1.08203 0.19586
 H25 H 0.20852 1.19687 0.19254
 H26 H 0.25281 1.22319 0.23754
 N27 N 0.82099 0.71504 0.14226
 N28 N 0.85084 0.71112 0.18003
 C29 C 0.88083 0.67271 0.17327
 C30 C 0.86886 0.65173 0.12904
 C31 C 0.83104 0.67946 0.11011
 H32 H 0.91079 0.66247 0.19723
 H33 H 0.81384 0.67569 0.07462
 Cu34 Cu 0.85138 0.76111 0.23040
 Cu35 Cu 0.77573 0.76986 0.13486
 Cu36 Cu 0.75323 0.83213 0.24244
 N37 N 0.84839 0.80984 0.28173
 N38 N 0.80965 0.83774 0.28628
 C39 C 0.81747 0.86985 0.32277
 C40 C 0.86362 0.86154 0.34162
 C41 C 0.88245 0.82350 0.31488
 H42 H 0.79231 0.89829 0.33330
 H43 H 0.91876 0.80829 0.31808
 N44 N 0.71058 0.83687 0.18417
 N45 N 0.71985 0.81418 0.14292
 C46 C 0.68673 0.82803 0.10893
 C47 C 0.65542 0.86095 0.12988
 C48 C 0.67143 0.86602 0.17742
 H49 H 0.68645 0.81645 0.07130
 H50 H 0.65718 0.89084 0.20431
 H51 H 0.80029 0.82069 0.18709
 H52 H 0.76523 0.76483 0.20726
 N53 N 0.81268 1.28500 -0.15980
 N54 N 0.85037 1.28014 -0.18870
 C55 C 0.88571 1.31238 -0.17535
 C56 C 0.86889 1.33885 -0.13639
 C57 C 0.82253 1.32080 -0.12735
 H58 H 0.92148 1.31530 -0.19157
 H59 H 0.79849 1.33153 -0.09833
 Cu60 Cu 0.85020 1.22980 -0.23866
 Cu61 Cu 0.75480 1.24260 -0.16500
 Cu62 Cu 0.77190 1.13521 -0.23079
 N63 N 0.84645 1.18060 -0.28974
 N64 N 0.81556 1.14319 -0.28619
 C65 C 0.82365 1.11141 -0.32255
 C66 C 0.86124 1.13032 -0.35041
 C67 C 0.87520 1.17402 -0.32867
 H68 H 0.80548 1.07600 -0.32665
 H69 H 0.90580 1.19749 -0.33864
 N70 N 0.71781 1.14355 -0.18487
 N71 N 0.71059 1.18479 -0.16079
 C72 C 0.67230 1.17817 -0.13086
 C73 C 0.65470 1.13072 -0.13683
 C74 C 0.68418 1.10969 -0.17112
 H75 H 0.65976 1.20496 -0.10497
 H76 H 0.68236 1.07202 -0.18375
 H77 H 0.79968 1.18555 -0.17964
 H78 H 0.76357 1.20889 -0.23300
 N79 N 0.18532 0.71148 -0.15906
 N80 N 0.14682 0.71555 -0.18794
 C81 C 0.11350 0.68089 -0.17537
 C82 C 0.13250 0.65366 -0.13697
 C83 C 0.17803 0.67381 -0.12740
 H84 H 0.07745 0.67699 -0.19151
 H85 H 0.20306 0.66336 -0.09836
 Cu86 Cu 0.14298 0.76832 -0.23639
 Cu87 Cu 0.24059 0.75748 -0.16288
 Cu88 Cu 0.21573 0.86694 -0.22541
 N89 N 0.14286 0.82023 -0.28599
 N90 N 0.17159 0.85920 -0.28118
 C91 C 0.16129 0.89211 -0.31686
 C92 C 0.12454 0.87235 -0.34560
 C93 C 0.11334 0.82692 -0.32512
 H94 H 0.17758 0.92857 -0.32008
 H95 H 0.08423 0.80202 -0.33621
 N96 N 0.27133 0.85943 -0.17984
 N97 N 0.28156 0.81749 -0.15703
 C98 C 0.32056 0.82469 -0.12745
 C99 C 0.33543 0.87327 -0.13234
 C100 C 0.30366 0.89434 -0.16564
 H101 H 0.33567 0.79726 -0.10276
 H102 H 0.30329 0.93254 -0.17754
 H103 H 0.19206 0.81233 -0.17589
 H104 H 0.22837 0.79409 -0.22985
 C105 C 0.49757 1.00173 0.00272
 C106 C 0.00350 0.49396 1.00114
 C107 C 0.99226 0.00135 0.49473
 C108 C 0.11388 0.37857 1.11226
 C109 C 0.08931 0.40603 1.08757
 C110 C 0.06010 0.43733 1.05818
 C111 C 0.03477 0.46333 1.03265
 C112 C -0.10405 0.61492 1.10385
 C113 C -0.08058 0.58530 1.08177
 C114 C -0.05230 0.55213 1.05490
 C115 C -0.02746 0.52510 1.03109
 C116 C -0.10376 0.37378 0.89228
 C117 C -0.08018 0.40228 0.91669
 C118 C -0.05189 0.43478 0.94562
 C119 C -0.02717 0.46186 0.97057
 C120 C 0.10714 0.61687 0.89149
 C121 C 0.08493 0.58708 0.91584
 C122 C 0.05785 0.55349 0.94484
 C123 C 0.03382 0.52594 0.97004
 C124 C 1.10475 0.10979 0.37923
 C125 C 1.07921 0.08640 0.40681
 C126 C 1.04922 0.05801 0.43816
 C127 C 1.02353 0.03290 0.46416
 C128 C 1.09880 -0.10348 0.61899
 C129 C 1.07541 -0.08108 0.58870
 C130 C 1.04734 -0.05371 0.55468
 C131 C 1.02278 -0.02936 0.52688
 C132 C 0.88809 -0.11066 0.37506
 C133 C 0.91057 -0.08564 0.40383
 C134 C 0.93786 -0.05594 0.43640
 C135 C 0.96197 -0.03023 0.46328
 C136 C 0.88591 0.10602 0.61458
 C137 C 0.90868 0.08358 0.58483
 C138 C 0.93644 0.05622 0.55173
 C139 C 0.96111 0.03194 0.52504
 C140 C 0.38422 1.10993 0.11290
 C141 C 0.41187 1.08650 0.08853
 C142 C 0.44294 1.05811 0.05946
 C143 C 0.46831 1.03307 0.03414
 C144 C 0.61825 1.10577 -0.10811
 C145 C 0.58883 1.08374 -0.08350
 C146 C 0.55577 1.05668 -0.05416
 C147 C 0.52877 1.03248 -0.02868
 C148 C 0.37238 0.89852 -0.10429
 C149 C 0.40242 0.92070 -0.08041
 C150 C 0.43646 0.94773 -0.05207
 C151 C 0.46459 0.97167 -0.02752
 C152 C 0.61869 0.88954 0.10505
 C153 C 0.58908 0.91415 0.08320
 C154 C 0.55586 0.94369 0.05647
 C155 C 0.52877 0.96955 0.03271
   
