data_POSCAR
  _audit_creation_date              2014-09-24
  _audit_creation_method            'ToBaCCo'
  _symmetry_space_group_name_H-M    'P1'
  _symmetry_Int_Tables_number       1
  _symmetry_cell_setting            triclinic
  loop_
  _symmetry_equiv_pos_as_xyz
 x,y,z
_cell_length_a 23.9966
_cell_length_b 24.0015
_cell_length_c 23.7452
_cell_angle_alpha 90.145300
_cell_angle_beta 90.191500
_cell_angle_gamma 89.844900
loop_
  _atom_site_label
  _atom_site_type_symbol
  _atom_site_fract_x
  _atom_site_fract_y
  _atom_site_fract_z
N1 N 0.19777 0.19901 0.19460
 N2 N -0.18844 0.80959 0.19125
 N3 N -0.19775 0.19164 -0.19326
 N4 N 0.19471 0.80202 -0.19429
 N5 N 0.19112 1.18987 0.81441
 N6 N 0.80794 0.80969 0.80566
 N7 N 0.19235 0.80385 1.19220
 N8 N 0.80416 1.19488 1.19344
 O9 O 0.42136 1.10002 1.09828
 O10 O 0.35958 1.04512 1.04943
 C11 C 0.37119 1.08463 1.08501
 O12 O 0.57536 1.09581 0.89934
 O13 O 0.63750 1.04499 0.95210
 C14 C 0.62565 1.08190 0.91413
 O15 O 0.41902 1.09981 0.90526
 O16 O 0.35873 1.04569 0.95603
 C17 C 0.36922 1.08505 0.92031
 O18 O 0.57739 1.09520 1.10338
 O19 O 0.63854 1.04537 1.04876
 C20 C 0.62743 1.08135 1.08800
 Zr21 Zr 0.49920 1.06714 1.07331
 O22 O 0.50462 1.15497 1.07823
 O23 O 0.49352 1.06278 1.16219
 Zr24 Zr 0.49770 1.06823 0.93062
 O25 O 0.50309 1.15626 0.93008
 O26 O 0.49067 1.06714 0.84171
 O27 O 0.44895 1.07859 1.00239
 O28 O 0.54647 1.07833 1.00171
 O29 O 0.57923 0.89990 1.10205
 O30 O 0.63924 0.95185 1.04866
 C31 C 0.62899 0.91469 1.08666
 O32 O 0.42053 0.89567 0.90390
 O33 O 0.35923 0.94864 0.95549
 C34 C 0.37046 0.90972 0.91920
 O35 O 0.57745 0.90091 0.89804
 O36 O 0.63847 0.95165 0.95210
 C37 C 0.62752 0.91565 0.91288
 O38 O 0.42200 0.89353 1.09713
 O39 O 0.36031 0.94833 1.04809
 C40 C 0.37169 0.90890 1.08351
 Zr41 Zr 0.50014 0.92665 1.07200
 O42 O 0.50705 0.83875 1.07331
 O43 O 0.49450 0.92820 1.16096
 Zr44 Zr 0.49892 0.92762 0.92935
 O45 O 0.50548 0.83968 0.92684
 O46 O 0.49197 0.93002 0.84046
 Zr47 Zr 0.41627 0.99718 1.00184
 Zr48 Zr 0.58185 0.99799 1.00074
 O49 O 0.54782 0.91718 1.00030
 O50 O 0.45011 0.91598 1.00085
 O51 O 0.54974 0.99711 1.08330
 O52 O 0.44964 0.99773 0.92004
 O53 O 0.45111 0.99667 1.08325
 O54 O 0.54809 0.99828 0.91864
 H55 H 0.57099 1.11147 1.00177
 H56 H 0.42374 0.99779 0.88744
 H57 H 0.57298 0.88439 0.99988
 H58 H 0.42570 0.99641 1.11605
 H59 H 0.52306 1.04628 0.82682
 H60 H 0.52487 0.95008 0.82594
 H61 H 0.47616 0.82458 0.95162
 H62 H 0.47859 0.82388 1.04713
 H63 H 0.52742 0.94846 1.17545
 H64 H 0.52821 1.04527 1.17633
 H65 H 0.47952 1.17023 1.04897
 H66 H 0.47262 1.17084 0.95393
 O67 O -0.09816 0.57842 0.10028
 O68 O -0.04830 0.63884 0.04535
 C69 C -0.08375 0.62827 0.08489
 O70 O 0.10036 0.42133 0.09456
 O71 O 0.04567 0.35955 0.04560
 C72 C 0.08548 0.37118 0.08078
 O73 O 0.09597 0.57716 0.09872
 O74 O 0.04503 0.63847 0.04520
 C75 C 0.08196 0.62722 0.08353
 O76 O -0.10295 0.42126 0.09589
 O77 O -0.05058 0.35933 0.04437
 C78 C -0.08903 0.37096 0.08085
 Zr79 Zr -0.07175 0.49966 0.06937
 O80 O -0.06951 0.49410 0.15833
 O81 O -0.15973 0.50608 0.07129
 Zr82 Zr 0.06891 0.49907 0.06764
 O83 O 0.06997 0.49357 0.15661
 O84 O 0.15696 0.50480 0.06655
 O85 O -0.00115 0.54922 0.07947
 O86 O -0.00139 0.45097 0.07907
 O87 O -0.10741 0.42043 -0.09686
 O88 O -0.05063 0.35936 -0.04932
 C89 C -0.09119 0.37033 -0.08377
 O90 O 0.09432 0.57605 -0.10548
 O91 O 0.04458 0.63784 -0.05141
 C92 C 0.08047 0.62625 -0.09040
 O93 O 0.09999 0.42054 -0.10050
 O94 O 0.04696 0.35992 -0.04911
 C95 C 0.08559 0.37068 -0.08559
 O96 O -0.10131 0.57753 -0.10372
 O97 O -0.04879 0.63842 -0.05127
 C98 C -0.08637 0.62760 -0.08899
 Zr99 Zr -0.07389 0.49885 -0.07303
 O100 O -0.07267 0.49171 -0.16192
 O101 O -0.16181 0.50555 -0.07473
 Zr102 Zr 0.06664 0.49816 -0.07486
 O103 O 0.06119 0.49149 -0.16368
 O104 O 0.15447 0.50364 -0.07955
 Zr105 Zr -0.00218 0.58179 -0.00287
 Zr106 Zr -0.00252 0.41588 -0.00223
 O107 O -0.00381 0.44969 -0.08394
 O108 O -0.00364 0.54841 -0.08511
 O109 O -0.08382 0.44968 -0.00150
 O110 O 0.07828 0.54671 -0.00383
 O111 O -0.08290 0.54758 -0.00187
 O112 O 0.07875 0.44896 -0.00345
 H113 H -0.00118 0.42593 0.11219
 H114 H 0.11131 0.57139 -0.00402
 H115 H -0.00417 0.42387 -0.11657
 H116 H -0.11577 0.57266 -0.00161
 H117 H 0.17135 0.47252 0.04502
 H118 H 0.16987 0.47884 -0.05017
 H119 H 0.04370 0.52609 -0.17793
 H120 H -0.05334 0.52489 -0.17680
 H121 H -0.17643 0.47872 -0.04696
 H122 H -0.17491 0.47506 0.04849
 H123 H -0.04851 0.52664 0.17261
 H124 H 0.04711 0.52466 0.17138
 O125 O 0.90154 0.09842 0.58021
 O126 O 0.95531 0.04802 0.64209
 C127 C 0.91595 0.08348 0.63078
 O128 O 0.90745 -0.09746 0.41991
 O129 O 0.95719 -0.04331 0.35854
 C130 C 0.92110 -0.08183 0.36950
 O131 O 0.90228 -0.09375 0.57808
 O132 O 0.95586 -0.04429 0.64075
 C133 C 0.91745 -0.08037 0.62891
 O134 O 0.90415 0.10388 0.42227
 O135 O 0.95608 0.05254 0.35981
 C136 C 0.91861 0.08988 0.37148
 Zr137 Zr 0.93352 0.07405 0.50091
 O138 O 0.84555 0.07759 0.49572
 O139 O 0.93695 0.16201 0.50745
 Zr140 Zr 0.93353 -0.06689 0.49936
 O141 O 0.84550 -0.06677 0.49284
 O142 O 0.93368 -0.15495 0.50468
 O143 O 0.92255 0.00312 0.55023
 O144 O 0.92312 0.00391 0.45142
 O145 O 1.10175 0.10457 0.42276
 O146 O 1.05047 0.05267 0.35994
 C147 C 1.08721 0.09058 0.37189
 O148 O 1.10380 -0.09652 0.57821
 O149 O 1.05179 -0.04536 0.64079
 C150 C 1.08940 -0.08253 0.62898
 O151 O 1.09991 -0.09826 0.42049
 O152 O 1.05101 -0.04304 0.35884
 C153 C 1.08586 -0.08297 0.36993
 O154 O 1.10426 0.10133 0.58088
 O155 O 1.05178 0.04929 0.64184
 C156 C 1.08969 0.08630 0.63128
 Zr157 Zr 1.07407 0.07381 0.50141
 O158 O 1.16217 0.07306 0.49678
 O159 O 1.07337 0.16185 0.50724
 Zr160 Zr 1.07435 -0.06688 0.49972
 O161 O 1.16239 -0.06392 0.49442
 O162 O 1.07705 -0.15491 0.50396
 Zr163 Zr 1.00389 0.00262 0.58416
 Zr164 Zr 1.00360 0.00419 0.41643
 O165 O 1.08427 0.00381 0.45162
 O166 O 1.08526 0.00294 0.55110
 O167 O 1.00370 0.08530 0.45071
 O168 O 1.00391 -0.07760 0.54816
 O169 O 1.00367 0.08359 0.55032
 O170 O 1.00388 -0.07744 0.44914
 H171 H 0.89004 0.00381 0.42633
 H172 H 1.00363 -0.11083 0.57283
 H173 H 1.11704 0.00370 0.42633
 H174 H 1.00321 0.11604 0.57620
 H175 H 0.95572 -0.16941 0.47267
 H176 H 1.05041 -0.16932 0.47564
 H177 H 1.17644 -0.04615 0.52931
 H178 H 1.17618 0.05049 0.52865
 H179 H 1.05063 0.17610 0.47555
 H180 H 0.95391 0.17632 0.47244
 H181 H 0.83083 0.04964 0.52228
 H182 H 0.83079 -0.04501 0.52497
 C183 C 1.17006 0.16730 0.24140
 C184 C 1.20110 0.11631 0.26747
 C185 C 1.17312 0.09148 0.31046
 C186 C 1.11696 0.11869 0.32396
 C187 C 1.13099 0.18006 0.33531
 C188 C 1.15998 0.20471 0.29318
 C189 C 1.11293 0.14330 0.22470
 C190 C 1.08541 0.11828 0.26760
 H191 H 1.24000 0.09840 0.25368
 H192 H 1.18929 0.05525 0.33237
 H193 H 1.12086 0.20183 0.37409
 H194 H 1.17489 0.24727 0.29635
 H195 H 1.09705 0.14292 0.18186
 H196 H 1.04724 0.09571 0.26049
 C197 C 0.84388 -0.16293 0.23790
 C198 C 0.86470 -0.10412 0.22283
 C199 C 0.88943 -0.07655 0.26633
 C200 C 0.89301 -0.11065 0.32098
 C201 C 0.83278 -0.12798 0.33357
 C202 C 0.80784 -0.15626 0.29093
 C203 C 0.89718 -0.19242 0.26092
 C204 C 0.92249 -0.16473 0.30403
 H205 H 0.86092 -0.08606 0.18114
 H206 H 0.90600 -0.03476 0.26172
 H207 H 0.81177 -0.11992 0.37319
 H208 H 0.76591 -0.17273 0.29446
 H209 H 0.91584 -0.23037 0.24531
 H210 H 0.96068 -0.17957 0.32363
 C211 C 0.83598 0.16345 0.76145
 C212 C 0.89004 0.19232 0.74034
 C213 C 0.91574 0.16499 0.69739
 C214 C 0.88648 0.11137 0.67903
 C215 C 0.88186 0.07677 0.73327
 C216 C 0.85651 0.10426 0.77656
 C217 C 0.80096 0.15727 0.70744
 C218 C 0.82659 0.12929 0.66514
 H219 H 0.91051 0.22795 0.75880
 H220 H 0.95490 0.17904 0.67979
 H221 H 0.89858 0.03494 0.73787
 H222 H 0.85249 0.08604 0.81812
 H223 H 0.75893 0.17361 0.70317
 H224 H 0.80610 0.12142 0.62509
 C225 C 1.16376 -0.16923 0.75883
 C226 C 1.14120 -0.11160 0.77603
 C227 C 1.11698 -0.08278 0.73334
 C228 C 1.11648 -0.11372 0.67674
 C229 C 1.17746 -0.12967 0.66548
 C230 C 1.20135 -0.15995 0.70733
 C231 C 1.11205 -0.19851 0.73214
 C232 C 1.08766 -0.16911 0.68957
 H233 H 1.14110 -0.09630 0.81906
 H234 H 1.09543 -0.04405 0.74076
 H235 H 1.19946 -0.11991 0.62688
 H236 H 1.24342 -0.17638 0.70411
 H237 H 1.09411 -0.23773 0.74468
 H238 H 1.05077 -0.18374 0.66749
 C239 C 0.24318 1.17017 1.16207
 C240 C 0.29617 1.16386 1.19809
 C241 C 0.33751 1.13411 1.17327
 C242 C 0.32399 1.11539 1.11284
 C243 C 0.26945 1.08255 1.11733
 C244 C 0.22730 1.11107 1.14238
 C245 C 0.26586 1.19814 1.10757
 C246 C 0.30773 1.16908 1.08214
 H247 H 0.30071 1.18181 1.23987
 H248 H 0.37700 1.12629 1.19429
 H249 H 0.26324 1.04172 1.09929
 H250 H 0.18565 1.09397 1.14545
 H251 H 0.25130 1.23637 1.08867
 H252 H 0.32720 1.18293 1.04342
 C253 C 0.24045 0.83344 0.83552
 C254 C 0.29240 0.79640 0.84338
 C255 C 0.33458 0.82065 0.87275
 C256 C 0.32260 0.88111 0.89013
 C257 C 0.30715 0.91047 0.83524
 C258 C 0.26444 0.88635 0.80665
 C259 C 0.22486 0.85455 0.89489
 C260 C 0.26785 0.87864 0.92362
 H261 H 0.29551 0.75425 0.82699
 H262 H 0.37333 0.79895 0.88175
 H263 H 0.32773 0.94771 0.82028
 H264 H 0.24906 0.90661 0.76921
 H265 H 0.18331 0.85151 0.91248
 H266 H 0.26295 0.89527 0.96588
 C267 C 0.76360 0.84046 1.16475
 C268 C 0.77524 0.85967 1.10407
 C269 C 0.73053 0.88301 1.07771
 C270 C 0.67813 0.88719 1.11474
 C271 C 0.66721 0.82743 1.13467
 C272 C 0.71125 0.80365 1.16158
 C273 C 0.74170 0.89438 1.19405
 C274 C 0.69738 0.91840 1.16755
 H275 H 0.81555 0.85586 1.08384
 H276 H 0.73280 0.89826 1.03477
 H277 H 0.62783 0.80589 1.12922
 H278 H 0.70917 0.76211 1.17941
 H279 H 0.75885 0.91434 1.23098
 H280 H 0.67829 0.95675 1.18247
 C281 C 0.75592 1.15951 0.83397
 C282 C 0.70213 1.19440 0.83677
 C283 C 0.65954 1.16954 0.86450
 C284 C 0.67324 1.11049 0.88530
 C285 C 0.69295 1.07924 0.83276
 C286 C 0.73562 1.10464 0.80537
 C287 C 0.76900 1.14176 0.89498
 C288 C 0.72575 1.11710 0.92191
 H289 H 0.69798 1.23539 0.81796
 H290 H 0.61935 1.18972 0.86975
 H291 H 0.67435 1.04072 0.81777
 H292 H 0.75136 1.08625 0.76705
 H293 H 0.80927 1.14716 0.91508
 H294 H 0.72922 1.10243 0.96500
 C295 C 0.16459 0.24352 0.16495
 C296 C 0.20001 0.29630 0.15750
 C297 C 0.17473 0.33758 0.12798
 C298 C 0.11471 0.32405 0.11019
 C299 C 0.11893 0.26937 0.07662
 C300 C 0.14410 0.22714 0.10542
 C301 C 0.11089 0.26622 0.19370
 C302 C 0.08547 0.30810 0.16491
 H303 H 0.24196 0.30057 0.17421
 H304 H 0.19546 0.37673 0.11913
 H305 H 0.10227 0.26381 0.03442
 H306 H 0.14799 0.18555 0.08787
 H307 H 0.09131 0.25063 0.23129
 H308 H 0.04745 0.32771 0.17958
 C309 C -0.17181 0.23900 -0.16105
 C310 C -0.16090 0.28945 -0.19928
 C311 C -0.13289 0.33174 -0.17399
 C312 C -0.12080 0.32202 -0.11129
 C313 C -0.17774 0.30892 -0.08558
 C314 C -0.20474 0.26565 -0.11120
 C315 C -0.11553 0.22328 -0.13432
 C316 C -0.08908 0.26630 -0.10854
 H317 H -0.17474 0.29173 -0.24279
 H318 H -0.12250 0.36980 -0.19617
 H319 H -0.19474 0.33073 -0.04936
 H320 H -0.24425 0.25197 -0.09475
 H321 H -0.09974 0.18092 -0.13240
 H322 H -0.05210 0.25953 -0.08335
 C323 C 0.16542 0.75609 -0.16336
 C324 C 0.19219 0.73298 -0.10838
 C325 C 0.16314 0.69043 -0.08470
 C326 C 0.11063 0.67385 -0.11754
 C327 C 0.07665 0.72796 -0.12248
 C328 C 0.10544 0.77103 -0.14534
 C329 C 0.16073 0.70371 -0.20057
 C330 C 0.13124 0.66146 -0.17740
 H331 H 0.22956 0.74781 -0.08790
 H332 H 0.17626 0.67056 -0.04579
 H333 H 0.03411 0.73259 -0.10772
 H334 H 0.08748 0.81238 -0.14910
 H335 H 0.17944 0.70032 -0.24201
 H336 H 0.12442 0.62235 -0.19938
 C337 C -0.16225 0.76175 0.16005
 C338 C -0.19271 0.73784 0.10736
 C339 C -0.16594 0.69394 0.08294
 C340 C -0.11181 0.67703 0.11283
 C341 C -0.07677 0.73057 0.11445
 C342 C -0.10339 0.77487 0.13802
 C343 C -0.15615 0.71026 0.19817
 C344 C -0.12887 0.66668 0.17412
 H345 H -0.23110 0.75292 0.08903
 H346 H -0.18181 0.67326 0.04547
 H347 H -0.03501 0.73386 0.09733
 H348 H -0.08456 0.81587 0.14019
 H349 H -0.17237 0.70840 0.24074
 H350 H -0.12144 0.62792 0.19641
 C351 C 1.16319 0.16639 0.76706
 C352 C 1.11309 0.19846 0.73930
 C353 C 1.08965 0.17160 0.69446
 C354 C 1.11679 0.11550 0.68068
 C355 C 1.17863 0.12931 0.67226
 C356 C 1.20211 0.15746 0.71608
 C357 C 1.13737 0.10935 0.78080
 C358 C 1.11386 0.08303 0.73616
 H359 H 1.09488 0.23746 0.75264
 H360 H 1.05462 0.18871 0.67118
 H361 H 1.20134 0.12041 0.63380
 H362 H 1.24459 0.17282 0.71450
 H363 H 1.13445 0.09284 0.82321
 H364 H 1.08957 0.04573 0.74165
 C365 C 0.83570 -0.15794 0.75942
 C366 C 0.89459 -0.13734 0.77502
 C367 C 0.92228 -0.11258 0.73189
 C368 C 0.88828 -0.10869 0.67698
 C369 C 0.87075 -0.16881 0.66378
 C370 C 0.84239 -0.19382 0.70608
 C371 C 0.80644 -0.10447 0.73662
 C372 C 0.83426 -0.07913 0.69389
 H373 H 0.91262 -0.14126 0.81679
 H374 H 0.96413 -0.09616 0.73696
 H375 H 0.87875 -0.18970 0.62401
 H376 H 0.82585 -0.23570 0.70208
 H377 H 0.76863 -0.08565 0.75226
 H378 H 0.81957 -0.04081 0.67459
 C379 C 1.16483 -0.16267 0.23816
 C380 C 1.10569 -0.14165 0.22345
 C381 C 1.07870 -0.11639 0.26709
 C382 C 1.11368 -0.11232 0.32138
 C383 C 1.13130 -0.17244 0.33445
 C384 C 1.15877 -0.19802 0.29174
 C385 C 1.19432 -0.10904 0.26002
 C386 C 1.16743 -0.08336 0.30331
 H387 H 1.08709 -0.14536 0.18190
 H388 H 1.03691 -0.09944 0.26275
 H389 H 1.12364 -0.19311 0.37429
 H390 H 1.17487 -0.24017 0.29546
 H391 H 1.23051 -0.08924 0.24224
 H392 H 1.18217 -0.04469 0.32173
 C393 C 0.83271 0.16417 0.24066
 C394 C 0.89006 0.14076 0.22389
 C395 C 0.91858 0.11648 0.26683
 C396 C 0.88770 0.11699 0.32336
 C397 C 0.87256 0.17825 0.33424
 C398 C 0.84258 0.20214 0.29207
 C399 C 0.80285 0.11307 0.26739
 C400 C 0.83192 0.08879 0.31030
 H401 H 0.90527 0.14003 0.18091
 H402 H 0.95686 0.09401 0.25959
 H403 H 0.88259 0.20045 0.37283
 H404 H 0.82670 0.24444 0.29503
 H405 H 0.76361 0.09524 0.25443
 H406 H 0.81691 0.05219 0.33230
 C407 C 0.16708 0.23625 -0.15731
 C408 C 0.10644 0.22501 -0.13929
 C409 C 0.07972 0.26968 -0.11723
 C410 C 0.11570 0.32205 -0.11202
 C411 C 0.16692 0.30323 -0.07845
 C412 C 0.19433 0.25897 -0.10168
 C413 C 0.16595 0.28900 -0.19436
 C414 C 0.13791 0.33289 -0.17160
 H415 H 0.08656 0.18455 -0.14212
 H416 H 0.03752 0.26689 -0.10199
 H417 H 0.18107 0.32357 -0.04009
 H418 H 0.23180 0.24410 -0.08128
 H419 H 0.18622 0.29156 -0.23508
 H420 H 0.13403 0.37248 -0.19327
 C421 C -0.16452 0.24072 0.16405
 C422 C -0.14409 0.22540 0.10442
 C423 C -0.12040 0.26852 0.07598
 C424 C -0.11736 0.32313 0.11002
 C425 C -0.17756 0.33511 0.12799
 C426 C -0.20155 0.29279 0.15699
 C427 C -0.11116 0.26437 0.19282
 C428 C -0.08729 0.30723 0.16453
 H429 H -0.14722 0.18390 0.08646
 H430 H -0.10425 0.26374 0.03358
 H431 H -0.19929 0.37395 0.11961
 H432 H -0.24352 0.29587 0.17364
 H433 H -0.09031 0.24840 0.22972
 H434 H -0.04952 0.32731 0.17919
 C435 C -0.16110 0.76179 -0.16768
 C436 C -0.19780 0.70935 -0.16474
 C437 C -0.17391 0.66543 -0.13776
 C438 C -0.11415 0.67651 -0.11743
 C439 C -0.08302 0.69563 -0.17007
 C440 C -0.10716 0.73978 -0.19669
 C441 C -0.14189 0.77367 -0.10686
 C442 C -0.11847 0.72911 -0.08041
 H443 H -0.23935 0.70711 -0.18282
 H444 H -0.19535 0.62603 -0.13254
 H445 H -0.04471 0.67646 -0.18489
 H446 H -0.08740 0.75664 -0.23365
 H447 H -0.14573 0.81405 -0.08657
 H448 H -0.10322 0.73163 -0.03738
 C449 C 0.15991 0.75765 0.16461
 C450 C 0.19482 0.70393 0.16117
 C451 C 0.16980 0.66147 0.13305
 C452 C 0.11050 0.67508 0.11256
 C453 C 0.07971 0.69458 0.16543
 C454 C 0.10529 0.73723 0.19315
 C455 C 0.14154 0.77095 0.10378
 C456 C 0.11667 0.72775 0.07647
 H457 H 0.23600 0.69976 0.17978
 H458 H 0.19006 0.62138 0.12726
 H459 H 0.04123 0.67602 0.18024
 H460 H 0.08705 0.75308 0.23148
 H461 H 0.14675 0.81133 0.08413
 H462 H 0.10156 0.73135 0.03347
 C463 C 0.23601 1.16044 0.84000
 C464 C 0.22325 1.14045 0.90053
 C465 C 0.26755 1.11739 0.92794
 C466 C 0.32059 1.11334 0.89204
 C467 C 0.30240 1.08225 0.83893
 C468 C 0.25840 1.10580 0.81171
 C469 C 0.28882 1.19682 0.84407
 C470 C 0.33208 1.17298 0.87220
 H471 H 0.18238 1.14332 0.91979
 H472 H 0.26436 1.10157 0.97060
 H473 H 0.32155 1.04382 0.82466
 H474 H 0.24088 1.08364 0.77626
 H475 H 0.29173 1.23822 0.82600
 H476 H 0.37145 1.19435 0.87839
 C477 C 0.23990 0.82946 1.16034
 C478 C 0.29098 0.83895 1.19854
 C479 C 0.33364 0.86640 1.17355
 C480 C 0.32342 0.87965 1.11118
 C481 C 0.30890 0.82343 1.08432
 C482 C 0.26542 0.79686 1.10961
 C483 C 0.22496 0.88639 1.13491
 C484 C 0.26827 0.91248 1.10963
 H485 H 0.29337 0.82461 1.24181
 H486 H 0.37212 0.87579 1.19574
 H487 H 0.33000 0.80657 1.04763
 H488 H 0.25090 0.75787 1.09235
 H489 H 0.18294 0.90317 1.13388
 H490 H 0.26220 0.95050 1.08610
 C491 C 0.75793 1.16578 1.16220
 C492 C 0.73492 1.19256 1.10717
 C493 C 0.69225 1.16368 1.08303
 C494 C 0.67533 1.11133 1.11550
 C495 C 0.72926 1.07709 1.12072
 C496 C 0.77248 1.10565 1.14410
 C497 C 0.70547 1.16148 1.19901
 C498 C 0.66306 1.13218 1.17540
 H499 H 0.74950 1.23018 1.08731
 H500 H 0.67224 1.17706 1.04424
 H501 H 0.73366 1.03449 1.10585
 H502 H 0.81369 1.08741 1.14823
 H503 H 0.70213 1.18032 1.24048
 H504 H 0.62388 1.12566 1.19710
 C505 C 0.76035 0.83628 0.83700
 C506 C 0.70872 0.84307 0.79887
 C507 C 0.66543 0.87062 0.82316
 C508 C 0.67610 0.88728 0.88468
 C509 C 0.69268 0.83285 0.91394
 C510 C 0.73628 0.80580 0.88930
 C511 C 0.77400 0.89492 0.85969
 C512 C 0.73000 0.92180 0.88353
 H513 H 0.70654 0.82708 0.75612
 H514 H 0.62663 0.87848 0.80089
 H515 H 0.67200 0.81695 0.95118
 H516 H 0.75107 0.76720 0.90724
 H517 H 0.81515 0.91344 0.85775
 H518 H 0.73373 0.96345 0.90108
   
