data_POSCAR
  _audit_creation_date              2014-09-24
  _audit_creation_method            'ToBaCCo'
  _symmetry_space_group_name_H-M    'P1'
  _symmetry_Int_Tables_number       1
  _symmetry_cell_setting            triclinic
  loop_
  _symmetry_equiv_pos_as_xyz
 x,y,z
_cell_length_a 35.1535
_cell_length_b 36.4576
_cell_length_c 17.2391
_cell_angle_alpha 89.837900
_cell_angle_beta 89.820000
_cell_angle_gamma 118.956800
loop_
  _atom_site_label
  _atom_site_type_symbol
  _atom_site_fract_x
  _atom_site_fract_y
  _atom_site_fract_z
C1 C 0.48427 0.99193 0.46670
 C2 C 0.48572 0.99225 0.54564
 C3 C 0.46502 0.95249 0.59051
 C4 C 0.50750 1.03143 0.59239
 C5 C 0.50347 1.03088 0.41915
 C6 C 0.46435 0.95192 0.42316
 C7 C 0.41970 0.92855 0.59584
 C8 C 0.40063 0.89397 0.64592
 C9 C 0.42651 0.88264 0.69211
 C10 C 0.47211 0.90520 0.68110
 C11 C 0.49103 0.94025 0.63245
 C12 C 0.48681 1.03502 0.65963
 C13 C 0.50734 1.07010 0.70719
 C14 C 0.54882 1.10281 0.68813
 C15 C 0.56900 1.10008 0.61951
 C16 C 0.54925 1.06412 0.57362
 C17 C 0.53364 1.03617 0.36070
 C18 C 0.55270 1.07262 0.31577
 C19 C 0.54195 1.10443 0.32858
 C20 C 0.51135 1.09915 0.38608
 C21 C 0.49197 1.06242 0.43087
 C22 C 0.48106 0.92398 0.42914
 C23 C 0.46325 0.88726 0.38530
 C24 C 0.42855 0.87804 0.33485
 C25 C 0.41213 0.90617 0.32834
 C26 C 0.42993 0.94285 0.37217
 H27 H 0.39918 0.93736 0.56283
 H28 H 0.36547 0.87585 0.64795
 H29 H 0.49365 0.89802 0.71479
 H30 H 0.52614 0.95845 0.62864
 H31 H 0.45474 1.01038 0.67591
 H32 H 0.49094 1.07153 0.75946
 H33 H 0.56681 1.06184 0.52387
 H34 H 0.54280 1.01217 0.35043
 H35 H 0.57593 1.07614 0.27100
 H36 H 0.50233 1.12328 0.39573
 H37 H 0.46819 1.05863 0.47471
 H38 H 0.50835 0.93099 0.46672
 H39 H 0.47673 0.86620 0.39012
 H40 H 0.38592 0.89991 0.28853
 H41 H 0.41705 0.96435 0.36611
 H42 H 0.60058 1.12536 0.60255
 C43 C -0.00256 0.48022 0.46767
 C44 C -0.00247 0.48012 0.54656
 C45 C 0.03830 0.50172 0.59210
 C46 C -0.04336 0.45871 0.59211
 C47 C -0.04356 0.46047 0.42247
 C48 C 0.03831 0.50103 0.42141
 C49 C 0.04662 0.47940 0.64999
 C50 C 0.08382 0.49935 0.69557
 C51 C 0.11335 0.54189 0.68384
 C52 C 0.10523 0.56443 0.62624
 C53 C 0.06775 0.54453 0.58093
 C54 C -0.07144 0.41541 0.58505
 C55 C -0.10925 0.39569 0.63028
 C56 C -0.11938 0.41913 0.68260
 C57 C -0.09109 0.46224 0.69019
 C58 C -0.05329 0.48186 0.64544
 C59 C -0.07479 0.47378 0.42999
 C60 C -0.11044 0.45854 0.37981
 C61 C -0.11476 0.43066 0.31960
 C62 C -0.08490 0.41529 0.31645
 C63 C -0.04947 0.43047 0.36646
 C64 C 0.04310 0.53077 0.36486
 C65 C 0.08060 0.55003 0.31924
 C66 C 0.11400 0.53996 0.32943
 C67 C 0.10937 0.51011 0.38557
 C68 C 0.07163 0.49060 0.43114
 H69 H 0.02416 0.44649 0.65998
 H70 H 0.08954 0.48172 0.74037
 H71 H 0.12753 0.59748 0.61737
 H72 H 0.06144 0.56259 0.53790
 H73 H -0.06384 0.39696 0.54514
 H74 H -0.13067 0.36230 0.62439
 H75 H -0.03179 0.51520 0.65207
 H76 H -0.07064 0.49719 0.47259
 H77 H -0.13289 0.47082 0.38496
 H78 H -0.08857 0.39187 0.27420
 H79 H -0.02608 0.41934 0.36054
 H80 H 0.01771 0.53907 0.35610
 H81 H 0.08356 0.57273 0.27561
 H82 H 0.13466 0.50158 0.39322
 H83 H 0.06820 0.46711 0.47333
 H84 H -0.09833 0.48060 0.73098
 C85 C 0.50902 0.50486 0.46762
 C86 C 0.50960 0.50594 0.54652
 C87 C 0.49331 0.53015 0.59249
 C88 C 0.52788 0.48331 0.59099
 C89 C 0.52612 0.48112 0.42309
 C90 C 0.49105 0.52679 0.42032
 C91 C 0.51837 0.55505 0.65425
 C92 C 0.50380 0.57753 0.69928
 C93 C 0.46437 0.57691 0.68218
 C94 C 0.43906 0.55174 0.62059
 C95 C 0.45293 0.52792 0.57739
 C96 C 0.57254 0.49659 0.58890
 C97 C 0.58940 0.47507 0.63138
 C98 C 0.56169 0.43906 0.67505
 C99 C 0.51694 0.42649 0.67768
 C100 C 0.50032 0.44854 0.63640
 C101 C 0.50765 0.43742 0.43083
 C102 C 0.52159 0.41525 0.38301
 C103 C 0.55369 0.43649 0.32632
 C104 C 0.57288 0.48019 0.32003
 C105 C 0.55906 0.50231 0.36780
 C106 C 0.45666 0.50329 0.36960
 C107 C 0.44019 0.52312 0.32187
 C108 C 0.45817 0.56677 0.32358
 C109 C 0.49227 0.59047 0.37475
 C110 C 0.50879 0.57055 0.42282
 H111 H 0.54941 0.55713 0.66785
 H112 H 0.52390 0.59621 0.74677
 H113 H 0.40749 0.54880 0.60838
 H114 H 0.43178 0.50738 0.53286
 H115 H 0.59426 0.52371 0.55460
 H116 H 0.62400 0.48587 0.62814
 H117 H 0.46583 0.43835 0.63943
 H118 H 0.48164 0.42042 0.47214
 H119 H 0.50647 0.38147 0.38841
 H120 H 0.59766 0.49699 0.27650
 H121 H 0.57348 0.53597 0.36074
 H122 H 0.44275 0.46954 0.36676
 H123 H 0.41410 0.50457 0.28214
 H124 H 0.50664 0.62428 0.37599
 H125 H 0.53570 0.58917 0.46097
 H126 H 0.49491 0.40027 0.71358
 O127 O 0.40208 0.68008 -0.08938
 O128 O 0.39108 0.74449 -0.05627
 C129 C 0.36078 0.74735 -0.09110
 O130 O 0.32083 0.72244 -0.07819
 O131 O 0.25478 0.64748 -0.05503
 C132 C 0.25444 0.61897 -0.09790
 O133 O 0.27996 0.60399 -0.08803
 O134 O 0.35732 0.61230 -0.06548
 C135 C 0.38808 0.64156 -0.10346
 O136 O 0.40704 0.66640 0.06329
 O137 O 0.39270 0.72832 0.09574
 C138 C 0.36761 0.74289 0.11335
 O139 O 0.33295 0.73368 0.07628
 O140 O 0.26965 0.65750 0.09910
 C141 C 0.25450 0.61847 0.10887
 O142 O 0.26468 0.59629 0.06595
 O143 O 0.34399 0.60892 0.08797
 C144 C 0.38446 0.63193 0.09899
 Cr145 Cr 0.39590 0.70346 0.00329
 Cr146 Cr 0.29593 0.68934 0.01033
 Cr147 Cr 0.31230 0.60764 0.00024
 O148 O 0.33477 0.66689 0.00438
 O149 O 0.59510 0.33097 -0.06683
 O150 O 0.59989 0.26253 -0.08753
 C151 C 0.61960 0.24144 -0.09524
 O152 O 0.64824 0.24444 -0.04727
 O153 O 0.72042 0.31399 -0.07771
 C154 C 0.73967 0.35248 -0.09682
 O155 O 0.73452 0.38038 -0.06099
 O156 O 0.66266 0.38177 -0.08625
 C157 C 0.62296 0.36252 -0.10456
 O158 O 0.59319 0.31967 0.08719
 O159 O 0.59295 0.24815 0.06776
 C160 C 0.61872 0.24316 0.11290
 O161 O 0.65973 0.26292 0.10441
 O162 O 0.73500 0.32957 0.07376
 C163 C 0.74280 0.36343 0.10707
 O164 O 0.72105 0.38206 0.09427
 O165 O 0.64906 0.38429 0.06747
 C166 C 0.61370 0.35871 0.10135
 Cr167 Cr 0.59757 0.29128 0.00052
 Cr168 Cr 0.68969 0.28893 0.01325
 Cr169 Cr 0.69065 0.37990 0.00395
 O170 O 0.65937 0.32037 0.00666
 C171 C 0.37378 0.84451 -0.20310
 C172 C 0.40857 0.85078 -0.25478
 C173 C 0.42581 0.82310 -0.24886
 C174 C 0.40857 0.78935 -0.19786
 C175 C 0.37381 0.78174 -0.14873
 C176 C 0.35617 0.80954 -0.15048
 C177 C 0.35972 0.87484 -0.19510
 C178 C 0.32691 0.86910 -0.14306
 C179 C 0.30864 0.83424 -0.09477
 C180 C 0.32363 0.80525 -0.09705
 H181 H 0.37499 0.90433 -0.22595
 H182 H 0.31647 0.89251 -0.13865
 H183 H 0.28377 0.83039 -0.05328
 H184 H 0.31022 0.78047 -0.05455
 H185 H 0.45179 0.82615 -0.28693
 H186 H 0.42277 0.76876 -0.19678
 C187 C 0.19423 0.57469 -0.28960
 C188 C 0.15140 0.56309 -0.26484
 C189 C 0.14392 0.57088 -0.18851
 C190 C 0.17799 0.58967 -0.13632
 C191 C 0.22065 0.60081 -0.15838
 C192 C 0.22929 0.59385 -0.23599
 C193 C 0.20288 0.56734 -0.36632
 C194 C 0.24521 0.57918 -0.39019
 C195 C 0.27955 0.59856 -0.33845
 C196 C 0.27191 0.60612 -0.26221
 H197 H 0.17712 0.55243 -0.40839
 H198 H 0.25142 0.57342 -0.44924
 H199 H 0.31230 0.60777 -0.35762
 H200 H 0.29970 0.62194 -0.22465
 H201 H 0.11126 0.56211 -0.16907
 H202 H 0.17079 0.59474 -0.07740
 C203 C 0.43147 0.62349 -0.29588
 C204 C 0.44849 0.59735 -0.26855
 C205 C 0.44769 0.58967 -0.18854
 C206 C 0.42792 0.60438 -0.13702
 C207 C 0.41011 0.62921 -0.16240
 C208 C 0.41240 0.63973 -0.24203
 C209 C 0.43515 0.63588 -0.37454
 C210 C 0.41884 0.66189 -0.39992
 C211 C 0.39910 0.67657 -0.34770
 C212 C 0.39582 0.66568 -0.26945
 H213 H 0.45147 0.62645 -0.41684
 H214 H 0.42179 0.67095 -0.46043
 H215 H 0.38641 0.69666 -0.36787
 H216 H 0.38040 0.67793 -0.23085
 H217 H 0.46000 0.56970 -0.16580
 H218 H 0.42594 0.59565 -0.07646
 C219 C 0.61325 0.15530 -0.23173
 C220 C 0.57030 0.13985 -0.26007
 C221 C 0.54668 0.16009 -0.23870
 C222 C 0.56388 0.19380 -0.18794
 C223 C 0.60603 0.20962 -0.15825
 C224 C 0.63222 0.19206 -0.18480
 C225 C 0.63762 0.13466 -0.24755
 C226 C 0.68094 0.15209 -0.22518
 C227 C 0.70083 0.19026 -0.18681
 C228 C 0.67692 0.21017 -0.16687
 H229 H 0.62357 0.10478 -0.27668
 H230 H 0.69935 0.13621 -0.23878
 H231 H 0.73491 0.20442 -0.17186
 H232 H 0.69441 0.24033 -0.13952
 H233 H 0.51404 0.14908 -0.26030
 H234 H 0.54334 0.20687 -0.17020
 C235 C 0.80660 0.40835 -0.27726
 C236 C 0.84094 0.39880 -0.26898
 C237 C 0.83877 0.37114 -0.21049
 C238 C 0.80456 0.35494 -0.15733
 C239 C 0.77164 0.36606 -0.16100
 C240 C 0.77145 0.39153 -0.22323
 C241 C 0.80611 0.43371 -0.33894
 C242 C 0.77161 0.44210 -0.34735
 C243 C 0.73686 0.42503 -0.29538
 C244 C 0.73655 0.39978 -0.23423
 H245 H 0.83194 0.44669 -0.38176
 H246 H 0.77157 0.46145 -0.39504
 H247 H 0.70977 0.43100 -0.30292
 H248 H 0.70829 0.38588 -0.19719
 H249 H 0.86472 0.36340 -0.20405
 H250 H 0.80483 0.33501 -0.11080
 C251 C 0.55898 0.37318 -0.27627
 C252 C 0.57873 0.41778 -0.28026
 C253 C 0.61568 0.44175 -0.23491
 C254 C 0.62991 0.42298 -0.18050
 C255 C 0.60849 0.37940 -0.16996
 C256 C 0.57406 0.35390 -0.22094
 C257 C 0.52686 0.34737 -0.33008
 C258 C 0.50869 0.30391 -0.32741
 C259 C 0.52296 0.28519 -0.27300
 C260 C 0.55565 0.30977 -0.22104
 H261 H 0.51646 0.36043 -0.37648
 H262 H 0.48410 0.28471 -0.36899
 H263 H 0.50942 0.25145 -0.27231
 H264 H 0.56717 0.29366 -0.18345
 H265 H 0.63196 0.47570 -0.23701
 H266 H 0.65694 0.44311 -0.14373
 C267 C 0.85943 0.41547 0.18278
 C268 C 0.85187 0.41828 0.26348
 C269 C 0.80935 0.40716 0.28803
 C270 C 0.77449 0.38998 0.23658
 C271 C 0.78080 0.38320 0.15896
 C272 C 0.82355 0.39669 0.13096
 C273 C 0.90202 0.43377 0.15115
 C274 C 0.90895 0.43037 0.07250
 C275 C 0.87384 0.40990 0.02298
 C276 C 0.83161 0.39368 0.05145
 H277 H 0.93047 0.45208 0.18604
 H278 H 0.94175 0.44425 0.04968
 H279 H 0.87935 0.40757 -0.03819
 H280 H 0.80558 0.37972 0.01011
 H281 H 0.80239 0.40946 0.34853
 H282 H 0.74206 0.38059 0.25816
 C283 C 0.59525 0.18135 0.30411
 C284 C 0.56144 0.14217 0.27864
 C285 C 0.54663 0.13786 0.20235
 C286 C 0.56509 0.17137 0.15072
 C287 C 0.59933 0.21026 0.17336
 C288 C 0.61424 0.21587 0.25115
 C289 C 0.61085 0.18686 0.38085
 C290 C 0.64370 0.22575 0.40550
 C291 C 0.66146 0.25973 0.35452
 C292 C 0.64691 0.25506 0.27812
 H293 H 0.59776 0.16130 0.42237
 H294 H 0.65524 0.22960 0.46464
 H295 H 0.68660 0.28994 0.37431
 H296 H 0.66112 0.28252 0.24113
 H297 H 0.52083 0.10801 0.18230
 H298 H 0.55323 0.16650 0.09163
 C299 C 0.53768 0.38876 0.21027
 C300 C 0.56594 0.41325 0.27042
 C301 C 0.60813 0.41869 0.27388
 C302 C 0.62269 0.40026 0.21917
 C303 C 0.59549 0.37577 0.15930
 C304 C 0.55261 0.36997 0.15399
 C305 C 0.49546 0.38391 0.20299
 C306 C 0.46851 0.36092 0.14216
 C307 C 0.48318 0.34293 0.08684
 C308 C 0.52486 0.34760 0.09206
 H309 H 0.48301 0.39814 0.24349
 H310 H 0.43625 0.35748 0.13739
 H311 H 0.46232 0.32563 0.03909
 H312 H 0.53512 0.33411 0.04632
 H313 H 0.63017 0.43783 0.31896
 H314 H 0.65563 0.40530 0.22337
 C315 C 0.19431 0.58909 0.30371
 C316 C 0.15243 0.55914 0.27769
 C317 C 0.14607 0.54806 0.19924
 C318 C 0.18007 0.56669 0.14613
 C319 C 0.22137 0.59729 0.16970
 C320 C 0.22921 0.60811 0.24920
 C321 C 0.20216 0.60111 0.38231
 C322 C 0.24369 0.63030 0.40693
 C323 C 0.27803 0.64796 0.35406
 C324 C 0.27104 0.63700 0.27589
 H325 H 0.17641 0.58812 0.42527
 H326 H 0.24930 0.63915 0.46743
 H327 H 0.31023 0.67038 0.37365
 H328 H 0.29864 0.65113 0.23678
 H329 H 0.11421 0.52516 0.17876
 H330 H 0.17373 0.55809 0.08553
 C331 C 0.36729 0.80849 0.28754
 C332 C 0.41133 0.84047 0.28488
 C333 C 0.43978 0.83774 0.23125
 C334 C 0.42499 0.80517 0.17812
 C335 C 0.38114 0.77426 0.17636
 C336 C 0.35193 0.77515 0.23269
 C337 C 0.33844 0.80842 0.34482
 C338 C 0.29537 0.77649 0.34775
 C339 C 0.28032 0.74400 0.29433
 C340 C 0.30820 0.74315 0.23754
 H341 H 0.34903 0.83255 0.38859
 H342 H 0.27367 0.77675 0.39216
 H343 H 0.24697 0.71901 0.29743
 H344 H 0.29520 0.71672 0.19898
 H345 H 0.47359 0.86183 0.22893
 H346 H 0.44785 0.80498 0.13604
 C347 C 0.46605 0.60533 0.19766
 C348 C 0.44297 0.58732 0.26730
 C349 C 0.40256 0.58491 0.28024
 C350 C 0.38459 0.59997 0.22528
 C351 C 0.40640 0.61779 0.15545
 C352 C 0.44763 0.62050 0.14080
 C353 C 0.50648 0.60722 0.18232
 C354 C 0.52831 0.62351 0.11251
 C355 C 0.51021 0.63775 0.05642
 C356 C 0.47031 0.63614 0.06990
 H357 H 0.52146 0.59585 0.22372
 H358 H 0.55922 0.62468 0.10154
 H359 H 0.52700 0.64981 0.00178
 H360 H 0.45762 0.64666 0.02325
 H361 H 0.38447 0.57063 0.33296
 H362 H 0.35316 0.59751 0.23733
   
