data_POSCAR
  _audit_creation_date              2014-09-24
  _audit_creation_method            'ToBaCCo'
  _symmetry_space_group_name_H-M    'P1'
  _symmetry_Int_Tables_number       1
  _symmetry_cell_setting            triclinic
  loop_
  _symmetry_equiv_pos_as_xyz
 x,y,z
_cell_length_a 21.1801
_cell_length_b 21.3754
_cell_length_c 49.7443
_cell_angle_alpha 85.869300
_cell_angle_beta 91.970000
_cell_angle_gamma 119.218600
loop_
  _atom_site_label
  _atom_site_type_symbol
  _atom_site_fract_x
  _atom_site_fract_y
  _atom_site_fract_z
C1 C 0.02971 0.12383 0.52971
 H2 H 0.08512 0.13525 0.52781
 C3 C 0.01358 0.16414 0.54621
 H4 H 0.05715 0.20584 0.55707
 C5 C -0.09432 0.05158 0.51929
 H6 H -0.13617 0.00720 0.50899
 C7 C -0.11305 0.09003 0.53595
 H8 H -0.16946 0.07473 0.53846
 N9 N -0.02394 0.06818 0.51695
 C10 C 0.02920 -0.10344 0.51447
 H11 H 0.02992 -0.10875 0.49304
 C12 C 0.03302 -0.15434 0.53276
 H13 H 0.03761 -0.19832 0.52530
 C14 C 0.01818 -0.04210 0.55029
 H15 H 0.01010 0.00026 0.55713
 C16 C 0.02220 -0.09140 0.56922
 H17 H 0.01653 -0.08608 0.59034
 Zn18 Zn 0.00552 0.01258 0.49823
 N19 N 0.02173 -0.04878 0.52349
 C20 C 0.14477 0.06113 0.47500
 N21 N 0.09084 0.07683 0.47874
 C22 C 0.09224 0.13628 0.46630
 C23 C 0.14882 0.18219 0.44896
 C24 C 0.20201 0.10516 0.45746
 C25 C -0.13003 -0.10191 0.48210
 C26 C -0.17656 -0.15186 0.46408
 C27 C -0.08831 -0.08707 0.42886
 C28 C -0.04469 -0.03781 0.44730
 N29 N -0.06504 -0.04675 0.47351
 H30 H 0.14214 0.01313 0.48478
 H31 H 0.04781 0.14660 0.46910
 H32 H 0.14685 0.22732 0.43846
 H33 H 0.24335 0.09079 0.45390
 H34 H -0.14456 -0.10887 0.50316
 H35 H -0.22735 -0.19618 0.47156
 H36 H -0.06953 -0.07642 0.40825
 H37 H 0.00685 0.00632 0.44069
 C38 C 0.02966 -0.14861 0.56053
 C39 C -0.05879 0.14681 0.54976
 C40 C -0.15461 -0.14709 0.43724
 C41 C 0.20427 0.16631 0.44410
 C42 C 1.16118 0.09828 0.12778
 H43 H 1.17537 0.15369 0.12970
 C44 C 1.20160 0.08224 0.11085
 H45 H 1.24616 0.12560 0.09954
 C46 C 1.08669 -0.02504 0.14058
 H47 H 1.04228 -0.06656 0.15240
 C48 C 1.12569 -0.04365 0.12371
 H49 H 1.11092 -0.09960 0.12308
 N50 N 1.10419 0.04495 0.14188
 C51 C 0.92149 0.07165 0.14716
 H52 H 0.90328 0.04750 0.16720
 C53 C 0.87150 0.07255 0.12829
 H54 H 0.81563 0.04991 0.13434
 C55 C 1.01629 0.13069 0.11523
 H56 H 1.07233 0.15198 0.10993
 C57 C 0.96818 0.13288 0.09576
 H58 H 0.98802 0.15614 0.07570
 Zn59 Zn 1.05220 0.07483 0.16311
 N60 N 0.99182 0.09767 0.14003
 C61 C 1.10559 0.20626 0.18900
 N62 N 1.12035 0.15470 0.18159
 C63 C 1.17954 0.15116 0.19111
 C64 C 1.22519 0.19879 0.20966
 C65 C 1.15005 0.25517 0.20770
 C66 C 0.93514 -0.06048 0.18231
 C67 C 0.88525 -0.10760 0.20183
 C68 C 0.95731 -0.02661 0.23572
 C69 C 1.00558 0.01848 0.21573
 N70 N 0.99308 0.00205 0.18948
 H71 H 1.05731 0.20691 0.18156
 H72 H 1.18924 0.10875 0.18536
 H73 H 1.27138 0.19413 0.21718
 H74 H 1.13629 0.29419 0.21434
 H75 H 0.92539 -0.07180 0.16126
 H76 H 0.83770 -0.15514 0.19555
 H77 H 0.96711 -0.01107 0.25635
 H78 H 1.05133 0.06822 0.22125
 C79 C 0.89425 0.10052 0.10179
 C80 C 1.18330 0.01058 0.10819
 C81 C 0.89558 -0.08971 0.22889
 C82 C 1.20895 0.24975 0.21904
 C83 C 0.03261 0.91061 0.86927
 H84 H -0.00890 0.85672 0.86539
 C85 C 0.08802 0.92057 0.88735
 H86 H 0.08711 0.87382 0.89765
 C87 C 0.08162 1.03632 0.86120
 H88 H 0.07890 1.08132 0.85111
 C89 C 0.13781 1.04878 0.87937
 H90 H 0.17773 1.10347 0.88318
 N91 N 0.02973 0.96798 0.85683
 C92 C -0.17150 0.95990 0.85212
 H93 H -0.16303 0.99364 0.83388
 C94 C -0.22177 0.95347 0.87111
 H95 H -0.25089 0.98309 0.86717
 C96 C -0.14360 0.88122 0.87928
 H97 H -0.11298 0.85317 0.88244
 C98 C -0.19300 0.87344 0.89887
 H99 H -0.19975 0.83773 0.91633
 Zn100 Zn -0.05175 0.94790 0.83448
 N101 N -0.13157 0.92617 0.85697
 C102 C -0.13962 0.82305 0.80641
 N103 N -0.07111 0.86874 0.81435
 C104 C -0.01353 0.86405 0.80560
 C105 C -0.02350 0.81209 0.78801
 C106 C -0.15200 0.77064 0.78851
 C107 C -0.02485 1.08992 0.81899
 C108 C -0.01654 1.14634 0.80072
 C109 C -0.02475 1.07408 0.76423
 C110 C -0.03338 1.01905 0.78313
 N111 N -0.03350 1.02756 0.80996
 H112 H -0.18425 0.82907 0.81317
 H113 H 0.04062 0.90262 0.81148
 H114 H 0.02365 0.81176 0.78049
 H115 H -0.20652 0.73603 0.78163
 H116 H -0.02645 1.09513 0.84039
 H117 H -0.01089 1.19519 0.80818
 H118 H -0.02724 1.06472 0.74304
 H119 H -0.04133 0.96898 0.77620
 C120 C -0.23094 0.91241 0.89551
 C121 C 0.14138 0.99054 0.89275
 C122 C -0.01602 1.13893 0.77296
 C123 C -0.09350 0.76491 0.77901
 C124 C 0.60405 -0.06604 -0.01701
 C125 C 0.64224 -0.05050 0.00755
 C126 C 0.61514 -0.03781 0.03054
 C127 C 0.54672 -0.04166 0.02961
 C128 C 0.50791 -0.05429 0.00496
 C129 C 0.53670 -0.06567 -0.01855
 C130 C 0.49558 -0.07897 -0.04249
 C131 C 0.43013 -0.07852 -0.04363
 C132 C 0.40108 -0.06729 -0.02072
 C133 C 0.43984 -0.05579 0.00391
 C134 C 0.51679 -0.03173 0.05264
 C135 C 0.44981 -0.03466 0.05169
 C136 C 0.41069 -0.04568 0.02750
 C137 C 0.34265 -0.04806 0.02635
 C138 C 0.30647 -0.05726 0.00165
 C139 C 0.33483 -0.06611 -0.02187
 H140 H 0.51229 -0.09041 -0.06088
 H141 H 0.40231 -0.08760 -0.06279
 H142 H 0.54474 -0.02168 0.07178
 H143 H 0.42932 -0.02807 0.07027
 H144 H 0.69542 -0.04597 0.00897
 H145 H 0.25530 -0.05715 0.00065
 C146 C -0.01409 0.36478 0.63512
 C147 C -0.01836 0.32082 0.65802
 C148 C -0.02005 0.34078 0.68409
 C149 C -0.02067 0.40573 0.68741
 C150 C -0.01619 0.45115 0.66439
 C151 C -0.01183 0.43108 0.63821
 C152 C -0.00637 0.47735 0.61577
 C153 C -0.00457 0.54236 0.61891
 C154 C -0.00960 0.56316 0.64458
 C155 C -0.01536 0.51716 0.66757
 C156 C -0.02408 0.42731 0.71312
 C157 C -0.02438 0.49135 0.71620
 C158 C -0.01972 0.53726 0.69375
 C159 C -0.02039 0.60223 0.69675
 C160 C -0.01429 0.64701 0.67388
 C161 C -0.00750 0.62936 0.64795
 H162 H -0.00351 0.46381 0.59548
 H163 H 0.00085 0.57603 0.60088
 H164 H -0.02660 0.39500 0.73123
 H165 H -0.02835 0.50436 0.73647
 H166 H -0.01922 0.27046 0.65547
 H167 H -0.01400 0.69712 0.67639
 C168 C 0.38891 0.41569 0.31086
 C169 C 0.35821 0.38588 0.33626
 C170 C 0.39361 0.41644 0.36002
 C171 C 0.46200 0.47926 0.35853
 C172 C 0.49442 0.51006 0.33303
 C173 C 0.45756 0.47831 0.30911
 C174 C 0.49122 0.50890 0.28408
 C175 C 0.55934 0.56920 0.28248
 C176 C 0.59728 0.60104 0.30583
 C177 C 0.56437 0.57195 0.33144
 C178 C 0.49987 0.51058 0.38191
 C179 C 0.56804 0.57114 0.38044
 C180 C 0.60150 0.60378 0.35543
 C181 C 0.67215 0.66483 0.35365
 C182 C 0.70279 0.69195 0.32788
 C183 C 0.66684 0.66177 0.30416
 H184 H 0.46584 0.48622 0.26535
 H185 H 0.58184 0.59043 0.26258
 H186 H 0.47777 0.48772 0.40176
 H187 H 0.59434 0.59023 0.39939
 H188 H 0.30486 0.33895 0.33757
 H189 H 0.75517 0.73940 0.32576
 C190 C -0.07916 0.18164 0.56988
 C191 C -0.03501 0.24841 0.57718
 C192 C -0.05084 0.27508 0.60111
 C193 C -0.00708 0.34178 0.60848
 H194 H 0.01534 0.28227 0.56650
 H195 H -0.09615 0.23831 0.61389
 H196 H -0.13110 0.14997 0.57984
 H197 H 0.03692 0.37931 0.59535
 C198 C 0.84163 0.86899 0.25033
 C199 C 0.79126 0.79981 0.24987
 C200 C 0.74331 0.76558 0.27339
 C201 C 0.70497 0.69432 0.27801
 H202 H 0.78788 0.76813 0.23331
 H203 H 0.74230 0.80003 0.28815
 H204 H 0.84539 0.89711 0.26816
 H205 H 0.70452 0.65962 0.26308
 C206 C 0.19732 0.00432 -0.08631
 C207 C 0.22003 -0.04260 -0.07841
 C208 C 0.26840 -0.02969 -0.05505
 C209 C 0.29302 -0.07501 -0.04717
 H210 H 0.20143 -0.09172 -0.08857
 H211 H 0.28216 0.01636 -0.04346
 H212 H 0.21981 0.05479 -0.07670
 H213 H 0.28140 -0.11982 -0.05914
 C214 C 0.02889 0.79477 0.57980
 C215 C 0.05082 0.80707 0.60544
 C216 C 0.04562 0.75154 0.62608
 C217 C 0.00049 0.68082 0.62485
 H218 H 0.07540 0.86121 0.61198
 H219 H 0.07781 0.77101 0.64408
 H220 H 0.01078 0.74226 0.57242
 H221 H -0.03280 0.66015 0.60724
 C222 C 0.25039 0.29468 0.24142
 C223 C 0.27816 0.26975 0.26138
 C224 C 0.31701 0.30910 0.28510
 C225 C 0.34785 0.38037 0.28654
 H226 H 0.26889 0.21526 0.26142
 H227 H 0.32373 0.27734 0.30178
 H228 H 0.25292 0.34625 0.24246
 H229 H 0.34587 0.41362 0.26946
 C230 C 0.72470 -0.08587 -0.08434
 C231 C 0.72104 -0.11381 -0.05764
 C232 C 0.68323 -0.10644 -0.03664
 C233 C 0.63488 -0.07901 -0.03940
 H234 H 0.75297 -0.13918 -0.05155
 H235 H 0.69103 -0.12646 -0.01690
 H236 H 0.69637 -0.05615 -0.08953
 H237 H 0.61879 -0.07063 -0.05945
 C238 C 0.22556 -0.00427 0.08896
 C239 C 0.20077 -0.06727 0.07774
 C240 C 0.23875 -0.07876 0.05582
 C241 C 0.30947 -0.03753 0.05022
 H242 H 0.14732 -0.11089 0.08276
 H243 H 0.20626 -0.12395 0.04374
 H244 H 0.27636 0.04091 0.08210
 H245 H 0.34395 0.00469 0.06312
 C246 C 0.80333 0.80052 0.42061
 C247 C 0.82836 0.79159 0.39613
 C248 C 0.78681 0.74407 0.37669
 C249 C 0.71113 0.70100 0.37661
 H250 H 0.88543 0.82182 0.39146
 H251 H 0.81783 0.74237 0.36022
 H252 H 0.74959 0.76087 0.42740
 H253 H 0.68205 0.69629 0.39465
 C254 C -0.01021 0.19752 0.75356
 C255 C 0.01809 0.20800 0.72887
 C256 C 0.02142 0.26245 0.70809
 C257 C -0.02171 0.29220 0.70734
 H258 H 0.04228 0.17631 0.72338
 H259 H 0.05888 0.27521 0.69166
 H260 H -0.02800 0.23356 0.76016
 H261 H -0.06009 0.27957 0.72337
 C262 C 0.84292 0.09354 0.07965
 C263 C 0.77353 0.04184 0.07985
 C264 C 0.72839 0.03006 0.05554
 C265 C 0.65935 -0.02200 0.05547
 H266 H 0.75074 0.00468 0.09728
 H267 H 0.75227 0.06310 0.03721
 H268 H 0.86475 0.12780 0.06141
 H269 H 0.63468 -0.05368 0.07394
 C270 C 0.25999 0.20784 0.42317
 C271 C 0.28272 0.27718 0.41612
 C272 C 0.32859 0.31238 0.39216
 C273 C 0.35608 0.38277 0.38600
 H274 H 0.26514 0.30754 0.42733
 H275 H 0.33750 0.27978 0.37867
 H276 H 0.28155 0.17961 0.41268
 H277 H 0.34982 0.41616 0.39990
 C278 C -0.10571 0.71555 0.75758
 C279 C -0.06097 0.68985 0.75302
 C280 C -0.06752 0.65309 0.72833
 C281 C -0.02309 0.62729 0.72351
 H282 H -0.01677 0.69928 0.76672
 H283 H -0.10629 0.65092 0.71309
 H284 H -0.15181 0.70222 0.74439
 H285 H 0.01420 0.62737 0.73900
   
