data_POSCAR
  _audit_creation_date              2014-09-24
  _audit_creation_method            'ToBaCCo'
  _symmetry_space_group_name_H-M    'P1'
  _symmetry_Int_Tables_number       1
  _symmetry_cell_setting            triclinic
  loop_
  _symmetry_equiv_pos_as_xyz
 x,y,z
_cell_length_a 47.8407
_cell_length_b 46.2204
_cell_length_c 46.0896
_cell_angle_alpha 90.212300
_cell_angle_beta 89.986100
_cell_angle_gamma 89.931800
loop_
  _atom_site_label
  _atom_site_type_symbol
  _atom_site_fract_x
  _atom_site_fract_y
  _atom_site_fract_z
C1 C 0.27231 0.37522 0.00105
 C2 C 0.28841 0.37058 0.02591
 C3 C 0.31170 0.35229 0.02450
 C4 C 0.31886 0.33801 -0.00163
 C5 C 0.30197 0.34277 -0.02632
 C6 C 0.27914 0.36206 -0.02561
 C7 C 0.34443 0.31922 -0.00353
 C8 C 0.35828 0.31489 -0.03033
 C9 C 0.38275 0.29796 -0.03243
 C10 C 0.39404 0.28661 -0.00667
 C11 C 0.38092 0.29081 0.02015
 C12 C 0.35575 0.30622 0.02149
 H13 H 0.25537 0.39069 0.00250
 H14 H 0.32463 0.35034 0.04363
 H15 H 0.30603 0.33084 -0.04607
 H16 H 0.35096 0.32593 -0.04949
 H17 H 0.41229 0.27278 -0.00728
 H18 H 0.34543 0.30825 0.04227
 C19 C 0.72684 0.62185 0.00205
 C20 C 0.71346 0.62725 0.02848
 C21 C 0.69017 0.64568 0.02913
 C22 C 0.68144 0.66089 0.00406
 C23 C 0.69563 0.65507 -0.02232
 C24 C 0.71777 0.63513 -0.02350
 C25 C 0.65849 0.68331 0.00582
 C26 C 0.64431 0.69324 -0.01930
 C27 C 0.62457 0.71605 -0.01786
 C28 C 0.61739 0.72691 0.00974
 C29 C 0.63018 0.71671 0.03494
 C30 C 0.65115 0.69578 0.03282
 H31 H 0.74396 0.60648 0.00126
 H32 H 0.67946 0.64823 0.04958
 H33 H 0.69030 0.66623 -0.04209
 H34 H 0.64936 0.68410 -0.04016
 H35 H 0.60053 0.74238 0.01212
 H36 H 0.66183 0.69001 0.05259
 C37 C 0.72694 0.37767 0.99940
 C38 C 0.71743 0.36832 0.97225
 C39 C 0.69507 0.34876 0.97082
 C40 C 0.68085 0.33977 0.99618
 C41 C 0.69023 0.35069 1.02321
 C42 C 0.71377 0.36873 1.02495
 C43 C 0.65656 0.31911 0.99437
 C44 C 0.64838 0.30235 1.01859
 C45 C 0.62580 0.28273 1.01708
 C46 C 0.61205 0.27941 0.99025
 C47 C 0.61988 0.29544 0.96590
 C48 C 0.64157 0.31557 0.96819
 H49 H 0.74411 0.39289 1.00069
 H50 H 0.68935 0.34048 0.94971
 H51 H 0.67961 0.34527 1.04315
 H52 H 0.66049 0.30329 1.03831
 H53 H 0.59443 0.26493 0.98812
 H54 H 0.64613 0.32862 0.94939
 C55 C 0.28857 0.60757 0.99956
 C56 C 0.29938 0.61712 0.97309
 C57 C 0.31725 0.64114 0.97273
 C58 C 0.32339 0.65665 0.99848
 C59 C 0.31099 0.64729 1.02467
 C60 C 0.29449 0.62227 1.02540
 C61 C 0.34309 0.68192 0.99813
 C62 C 0.35811 0.68993 1.02335
 C63 C 0.37739 0.71303 1.02322
 C64 C 0.38182 0.72767 0.99689
 C65 C 0.36772 0.71976 0.97152
 C66 C 0.34802 0.69746 0.97235
 H67 H 0.27475 0.58900 1.00001
 H68 H 0.32666 0.64700 0.95227
 H69 H 0.31431 0.65897 1.04473
 H70 H 0.35624 0.67698 1.04269
 H71 H 0.39613 0.74573 0.99579
 H72 H 0.33668 0.69257 0.95265
 C73 C 0.00408 0.27409 0.38242
 C74 C 0.02878 0.28828 0.37459
 C75 C 0.02796 0.30940 0.35284
 C76 C 0.00286 0.31583 0.33798
 C77 C -0.02160 0.30068 0.34596
 C78 C -0.02123 0.28034 0.36850
 C79 C 0.00215 0.33847 0.31466
 C80 C -0.02296 0.35308 0.30768
 C81 C -0.02385 0.37472 0.28615
 C82 C 0.00136 0.38212 0.27223
 C83 C 0.02654 0.36828 0.27898
 C84 C 0.02672 0.34617 0.29962
 H85 H 0.00454 0.25820 0.39964
 H86 H 0.04696 0.32118 0.34833
 H87 H -0.04106 0.30416 0.33459
 H88 H -0.04160 0.34888 0.32017
 H89 H 0.00165 0.39835 0.25539
 H90 H 0.04619 0.33494 0.30347
 C91 C 0.00477 0.73034 0.62387
 C92 C 0.02999 0.71678 0.63112
 C93 C 0.02968 0.69318 0.65017
 C94 C 0.00465 0.68421 0.66380
 C95 C -0.02037 0.69883 0.65647
 C96 C -0.02055 0.72116 0.63593
 C97 C 0.00465 0.65999 0.68559
 C98 C -0.02017 0.64473 0.69220
 C99 C -0.02069 0.62250 0.71311
 C100 C 0.00473 0.61472 0.72640
 C101 C 0.02970 0.62902 0.71987
 C102 C 0.02946 0.65189 0.70006
 H103 H 0.00481 0.74751 0.60792
 H104 H 0.04922 0.68222 0.65427
 H105 H -0.03994 0.69344 0.66680
 H106 H -0.03899 0.64906 0.68007
 H107 H 0.00534 0.59802 0.74276
 H108 H 0.04877 0.66347 0.69669
 C109 C 0.99976 0.72334 0.38308
 C110 C 0.97468 0.71696 0.36895
 C111 C 0.97445 0.69638 0.34664
 C112 C 0.99898 0.68120 0.33886
 C113 C 1.02413 0.68805 0.35357
 C114 C 1.02491 0.70930 0.37567
 C115 C 0.99806 0.65789 0.31602
 C116 C 1.02236 0.64982 0.30048
 C117 C 1.02184 0.62761 0.27935
 C118 C 0.99601 0.61430 0.27323
 C119 C 0.97163 0.62201 0.28813
 C120 C 0.97282 0.64335 0.30969
 H121 H 0.99948 0.74008 0.39955
 H122 H 0.95498 0.69273 0.33532
 H123 H 1.04283 0.67571 0.34912
 H124 H 1.04152 0.66170 0.30382
 H125 H 0.99468 0.59685 0.25760
 H126 H 0.95398 0.64780 0.32187
 C127 C 1.00105 0.27286 0.62012
 C128 C 0.97552 0.27847 0.63384
 C129 C 0.97436 0.29912 0.65616
 C130 C 0.99827 0.31520 0.66411
 C131 C 1.02372 0.30930 0.64963
 C132 C 1.02521 0.28799 0.62795
 C133 C 0.99644 0.33854 0.68672
 C134 C 1.02034 0.34712 0.70257
 C135 C 1.01921 0.36983 0.72309
 C136 C 0.99317 0.38306 0.72834
 C137 C 0.96917 0.37468 0.71323
 C138 C 0.97089 0.35279 0.69231
 H139 H 1.00206 0.25687 0.60289
 H140 H 0.95467 0.30228 0.66725
 H141 H 1.04234 0.32172 0.65428
 H142 H 1.03966 0.33532 0.69983
 H143 H 0.99136 0.40100 0.74338
 H144 H 0.95230 0.34774 0.67997
 C145 C 0.37836 -0.00134 0.26966
 C146 C 0.36710 0.02519 0.27859
 C147 C 0.34720 0.02577 0.30091
 C148 C 0.33946 0.00018 0.31551
 C149 C 0.35250 -0.02606 0.30709
 C150 C 0.37111 -0.02744 0.28337
 C151 C 0.31771 0.00060 0.33913
 C152 C 0.30273 -0.02478 0.34629
 C153 C 0.28313 -0.02495 0.36889
 C154 C 0.27725 0.00082 0.38368
 C155 C 0.29103 0.02654 0.37659
 C156 C 0.31151 0.02625 0.35475
 H157 H 0.39440 -0.00114 0.25309
 H158 H 0.33769 0.04631 0.30627
 H159 H 0.34744 -0.04572 0.31839
 H160 H 0.30558 -0.04459 0.33415
 H161 H 0.26183 0.00086 0.40091
 H162 H 0.32281 0.04606 0.35067
 C163 C 0.61059 0.00867 0.71883
 C164 C 0.62037 0.03330 0.70466
 C165 C 0.64284 0.03090 0.68546
 C166 C 0.65683 0.00426 0.68123
 C167 C 0.64711 -0.02016 0.69677
 C168 C 0.62303 -0.01863 0.71452
 C169 C 0.68019 0.00181 0.65939
 C170 C 0.68740 -0.02514 0.64663
 C171 C 0.70751 -0.02686 0.62454
 C172 C 0.71984 -0.00154 0.61420
 C173 C 0.71312 0.02536 0.62621
 C174 C 0.69442 0.02681 0.64957
 H175 H 0.59374 0.01133 0.73430
 H176 H 0.64845 0.04997 0.67336
 H177 H 0.65741 -0.04070 0.69398
 H178 H 0.67694 -0.04491 0.65267
 H179 H 0.73503 -0.00278 0.59677
 H180 H 0.69060 0.04778 0.65917
 C181 C 0.38963 1.00634 0.71441
 C182 C 0.37613 0.97976 0.71043
 C183 C 0.35273 0.97821 0.69208
 C184 C 0.34311 1.00289 0.67699
 C185 C 0.35775 1.02921 0.68091
 C186 C 0.38043 1.03120 0.70006
 C187 C 0.31767 1.00151 0.65783
 C188 C 0.30213 1.02682 0.65177
 C189 C 0.27859 1.02638 0.63339
 C190 C 0.26936 0.99937 0.62297
 C191 C 0.28389 0.97382 0.62911
 C192 C 0.30847 0.97508 0.64566
 H193 H 0.40734 1.00773 0.72901
 H194 H 0.34178 0.95782 0.69050
 H195 H 0.35200 1.04839 0.66897
 H196 H 0.30757 1.04693 0.66229
 H197 H 0.25186 0.99800 0.60816
 H198 H 0.32008 0.95530 0.64896
 C199 C 0.60579 0.98972 0.28991
 C200 C 0.61575 0.96523 0.30418
 C201 C 0.63891 0.96758 0.32243
 C202 C 0.65338 0.99403 0.32552
 C203 C 0.64354 1.01829 0.30979
 C204 C 0.61887 1.01681 0.29295
 C205 C 0.67751 0.99646 0.34634
 C206 C 0.68507 1.02342 0.35872
 C207 C 0.70590 1.02517 0.38002
 C208 C 0.71868 0.99987 0.38994
 C209 C 0.71160 0.97294 0.37826
 C210 C 0.69208 0.97146 0.35565
 H211 H 0.58843 0.98702 0.27508
 H212 H 0.64482 0.94861 0.33458
 H213 H 0.65430 1.03867 0.31166
 H214 H 0.67429 1.04313 0.35303
 H215 H 0.73443 1.00117 0.40681
 H216 H 0.68786 0.95048 0.34625
 O217 O 0.81528 0.85458 0.53197
 O218 O 0.85797 0.81833 0.47645
 O219 O 0.81710 0.85511 0.47630
 O220 O 0.85770 0.81889 0.53288
 O221 O 0.82827 0.78205 0.53243
 O222 O 0.78693 0.81888 0.47547
 O223 O 0.82826 0.78172 0.47555
 O224 O 0.78546 0.81805 0.53155
 Cu225 Cu 0.84011 0.84026 0.50459
 Cu226 Cu 0.80433 0.79632 0.50377
 C227 C 0.79278 0.84289 0.54053
 C228 C 0.85027 0.79401 0.46647
 C229 C 0.79497 0.84353 0.46667
 C230 C 0.85013 0.79434 0.54209
 O231 O 0.15009 0.18942 0.47196
 O232 O 0.18423 0.14921 0.53030
 O233 O 0.14720 0.19019 0.52760
 O234 O 0.18898 0.14949 0.47446
 O235 O 0.22199 0.18286 0.47659
 O236 O 0.18016 0.22362 0.53037
 O237 O 0.21755 0.18224 0.53303
 O238 O 0.18257 0.22334 0.47437
 Cu239 Cu 0.16440 0.16620 0.50071
 Cu240 Cu 0.20403 0.20632 0.50366
 C241 C 0.15982 0.21359 0.46401
 C242 C 0.20663 0.15867 0.54146
 C243 C 0.15637 0.21394 0.53764
 C244 C 0.21277 0.15895 0.46697
 O245 O 0.14824 0.81260 0.52575
 O246 O 0.18415 0.85144 0.46769
 O247 O 0.14712 0.81015 0.47004
 O248 O 0.18672 0.85228 0.52377
 O249 O 0.22001 0.81906 0.52372
 O250 O 0.18023 0.77671 0.46941
 O251 O 0.21772 0.81852 0.46708
 O252 O 0.18106 0.77885 0.52566
 Cu253 Cu 0.16331 0.83498 0.49679
 Cu254 Cu 0.20320 0.79497 0.49639
 C255 C 0.15810 0.78900 0.53518
 C256 C 0.20708 0.84193 0.45779
 C257 C 0.15659 0.78605 0.46114
 C258 C 0.21011 0.84295 0.53272
 O259 O 0.85838 0.17807 0.52523
 O260 O 0.81472 0.14333 0.46977
 O261 O 0.85742 0.17861 0.46887
 O262 O 0.81707 0.14204 0.52541
 O263 O 0.78732 0.17870 0.52723
 O264 O 0.82834 0.21581 0.47029
 O265 O 0.78522 0.18020 0.47118
 O266 O 0.82907 0.21507 0.52708
 Cu267 Cu 0.83995 0.15692 0.49700
 Cu268 Cu 0.80462 0.20133 0.49898
 C269 C 0.85103 0.20231 0.53568
 C270 C 0.79221 0.15540 0.46175
 C271 C 0.85002 0.20344 0.46022
 C272 C 0.79524 0.15384 0.53559
 O273 O 0.47515 0.86074 0.81880
 O274 O 0.52615 0.81825 0.86010
 O275 O 0.52903 0.85890 0.82096
 O276 O 0.47209 0.82058 0.85751
 O277 O 0.47214 0.78708 0.82312
 O278 O 0.52949 0.82588 0.78612
 O279 O 0.52673 0.78473 0.82576
 O280 O 0.47514 0.82765 0.78401
 Cu281 Cu 0.50073 0.84287 0.84285
 Cu282 Cu 0.50107 0.80289 0.80128
 C283 C 0.46654 0.85152 0.79446
 C284 C 0.53482 0.79422 0.85026
 C285 C 0.53843 0.84936 0.79706
 C286 C 0.46239 0.79750 0.84656
 O287 O 0.53074 0.17567 0.13812
 O288 O 0.47447 0.13902 0.17749
 O289 O 0.47684 0.17875 0.13786
 O290 O 0.52858 0.13675 0.17886
 O291 O 0.52984 0.17083 0.21263
 O292 O 0.47774 0.21297 0.17152
 O293 O 0.47528 0.17290 0.21147
 O294 O 0.53201 0.21015 0.17148
 Cu295 Cu 0.50261 0.15410 0.15475
 Cu296 Cu 0.50390 0.19514 0.19524
 C297 C 0.54057 0.19928 0.14771
 C298 C 0.46538 0.14955 0.20109
 C299 C 0.46875 0.20305 0.14758
 C300 C 0.53771 0.14647 0.20281
 O301 O 0.47069 0.20211 0.83645
 O302 O 0.52520 0.16244 0.79712
 O303 O 0.52435 0.20245 0.83713
 O304 O 0.47150 0.16163 0.79662
 O305 O 0.47125 0.19496 0.76232
 O306 O 0.52459 0.23632 0.80336
 O307 O 0.52541 0.19578 0.76282
 O308 O 0.47047 0.23602 0.80272
 Cu309 Cu 0.49788 0.17881 0.82021
 Cu310 Cu 0.49787 0.21919 0.77932
 C311 C 0.46197 0.22612 0.82682
 C312 C 0.53409 0.17195 0.77309
 C313 C 0.53297 0.22651 0.82756
 C314 C 0.46300 0.17085 0.77231
 O315 O 0.47499 0.80616 0.15434
 O316 O 0.52438 0.84376 0.20211
 O317 O 0.52867 0.80708 0.15962
 O318 O 0.47112 0.84507 0.19510
 O319 O 0.46736 0.81029 0.22769
 O320 O 0.52554 0.77124 0.19112
 O321 O 0.52122 0.80843 0.23419
 O322 O 0.47115 0.77078 0.18625
 Cu323 Cu 0.50010 0.82900 0.17457
 Cu324 Cu 0.49590 0.78651 0.21302
 C325 C 0.46497 0.78197 0.16199
 C326 C 0.53084 0.83273 0.22636
 C327 C 0.53675 0.78277 0.16897
 C328 C 0.45992 0.83470 0.21764
 O329 O 0.85449 0.53138 0.81317
 O330 O 0.81522 0.47723 0.85417
 O331 O 0.85194 0.47606 0.81260
 O332 O 0.81664 0.53346 0.85390
 O333 O 0.78301 0.53500 0.82105
 O334 O 0.81848 0.47708 0.77949
 O335 O 0.78143 0.47817 0.82147
 O336 O 0.82134 0.53275 0.77976
 Cu337 Cu 0.83778 0.50447 0.83689
 Cu338 Cu 0.79747 0.50598 0.79727
 C339 C 0.84517 0.54050 0.78916
 C340 C 0.79181 0.46842 0.84486
 C341 C 0.84161 0.46736 0.78878
 C342 C 0.79383 0.54386 0.84459
 O343 O 0.14488 0.52807 0.17919
 O344 O 0.18820 0.47327 0.14304
 O345 O 0.14606 0.47195 0.17875
 O346 O 0.18673 0.52887 0.14321
 O347 O 0.21638 0.52968 0.18002
 O348 O 0.17526 0.47233 0.21593
 O349 O 0.21785 0.47368 0.17985
 O350 O 0.17406 0.52897 0.21638
 Cu351 Cu 0.16344 0.50047 0.15743
 Cu352 Cu 0.19877 0.50123 0.20192
 C353 C 0.15199 0.53774 0.20387
 C354 C 0.21058 0.46464 0.15492
 C355 C 0.15361 0.46258 0.20333
 C356 C 0.20870 0.53846 0.15520
 O357 O 0.84989 0.46780 0.18963
 O358 O 0.81031 0.52287 0.15009
 O359 O 0.84918 0.52329 0.18979
 O360 O 0.81084 0.46704 0.15011
 O361 O 0.77831 0.46643 0.18419
 O362 O 0.81704 0.52324 0.22429
 O363 O 0.77768 0.52283 0.18408
 O364 O 0.81788 0.46730 0.22425
 Cu365 Cu 0.83320 0.49527 0.16643
 Cu366 Cu 0.79435 0.49491 0.20762
 C367 C 0.84112 0.45883 0.21392
 C368 C 0.78720 0.53191 0.16005
 C369 C 0.84007 0.53224 0.21405
 C370 C 0.78797 0.45751 0.16010
 O371 O 0.18970 0.52282 0.85780
 O372 O 0.14237 0.47164 0.82191
 O373 O 0.18291 0.46751 0.85847
 O374 O 0.14782 0.52738 0.82166
 O375 O 0.17713 0.52359 0.78473
 O376 O 0.21289 0.46315 0.82216
 O377 O 0.17192 0.46735 0.78522
 O378 O 0.21952 0.51904 0.82132
 Cu379 Cu 0.16272 0.49793 0.84358
 Cu380 Cu 0.19839 0.49308 0.79958
 C381 C 0.21285 0.52910 0.84603
 C382 C 0.14916 0.46069 0.79766
 C383 C 0.20374 0.45521 0.84675
 C384 C 0.15608 0.53532 0.79683
 C385 C 0.25849 0.41613 0.10061
 C386 C 0.26661 0.43129 0.07579
 C387 C 0.27782 0.41652 0.05205
 C388 C 0.28115 0.38635 0.05285
 C389 C 0.27448 0.37135 0.07839
 C390 C 0.26297 0.38619 0.10217
 C391 C 0.24278 0.43129 0.12257
 C392 C 0.22850 0.44566 0.13868
 H393 H 0.26313 0.45441 0.07427
 H394 H 0.28293 0.42849 0.03260
 H395 H 0.27673 0.34805 0.07932
 H396 H 0.25656 0.37422 0.12119
 C397 C 0.74703 0.58521 0.10378
 C398 C 0.76459 0.60010 0.08473
 C399 C 0.75347 0.61434 0.06072
 C400 C 0.72455 0.61390 0.05535
 C401 C 0.70683 0.59980 0.07513
 C402 C 0.71807 0.58535 0.09916
 C403 C 0.75942 0.56753 0.12601
 C404 C 0.77137 0.55180 0.14275
 H405 H 0.78703 0.60000 0.08796
 H406 H 0.76753 0.62536 0.04605
 H407 H 0.68450 0.59903 0.07139
 H408 H 0.70431 0.57363 0.11360
 C409 C 0.75367 0.41133 0.89903
 C410 C 0.72475 0.40679 0.90014
 C411 C 0.71302 0.39130 0.92319
 C412 C 0.73010 0.38045 0.94552
 C413 C 0.75922 0.38400 0.94348
 C414 C 0.77089 0.39934 0.92041
 C415 C 0.76569 0.43054 0.87788
 C416 C 0.77691 0.44750 0.86183
 H417 H 0.71120 0.41614 0.88384
 H418 H 0.69051 0.38914 0.92437
 H419 H 0.77288 0.37565 0.96022
 H420 H 0.79328 0.40277 0.91983
 C421 C 0.26510 0.57447 0.89868
 C422 C 0.26718 0.60469 0.89913
 C423 C 0.28010 0.61865 0.92257
 C424 C 0.29071 0.60248 0.94590
 C425 C 0.28986 0.57212 0.94447
 C426 C 0.27713 0.55823 0.92101
 C427 C 0.24778 0.56000 0.87765
 C428 C 0.23222 0.54661 0.86203
 H429 H 0.25772 0.61747 0.88209
 H430 H 0.28028 0.64208 0.92331
 H431 H 0.29807 0.55919 0.96208
 H432 H 0.27553 0.53485 0.92097
 C433 C 0.10361 0.25927 0.41676
 C434 C 0.10349 0.26337 0.38666
 C435 C 0.07951 0.27420 0.37295
 C436 C 0.05538 0.28064 0.38923
 C437 C 0.05614 0.27751 0.41952
 C438 C 0.08009 0.26693 0.43315
 C439 C 0.12629 0.24450 0.43100
 C440 C 0.14308 0.23091 0.44493
 H441 H 0.12148 0.25729 0.37372
 H442 H 0.07936 0.27625 0.34955
 H443 H 0.03795 0.28260 0.43258
 H444 H 0.07989 0.26375 0.45643
 C445 C 0.10406 0.74952 0.59024
 C446 C 0.09952 0.71959 0.59135
 C447 C 0.07591 0.70865 0.60560
 C448 C 0.05649 0.72762 0.61851
 C449 C 0.06180 0.75752 0.61810
 C450 C 0.08539 0.76835 0.60408
 C451 C 0.12569 0.76153 0.57220
 C452 C 0.14180 0.77326 0.55594
 H453 H 0.11365 0.70483 0.58040
 H454 H 0.07221 0.68554 0.60547
 H455 H 0.04734 0.77256 0.62817
 H456 H 0.08855 0.79154 0.60317
 C457 C 0.90344 0.75660 0.40846
 C458 C 0.92566 0.77372 0.39886
 C459 C 0.94811 0.76108 0.38419
 C460 C 0.94861 0.73110 0.37898
 C461 C 0.92543 0.71429 0.38706
 C462 C 0.90299 0.72699 0.40190
 C463 C 0.88301 0.76901 0.42775
 C464 C 0.86735 0.78006 0.44502
 H465 H 0.92626 0.79664 0.40387
 H466 H 0.96567 0.77449 0.37799
 H467 H 0.92548 0.69112 0.38352
 H468 H 0.88596 0.71352 0.40940
 C469 C 0.90498 0.23844 0.59349
 C470 C 0.90368 0.26764 0.60154
 C471 C 0.92601 0.28035 0.61644
 C472 C 0.94992 0.26397 0.62315
 C473 C 0.95037 0.23431 0.61634
 C474 C 0.92803 0.22165 0.60157
 C475 C 0.88440 0.22631 0.57431
 C476 C 0.86848 0.21567 0.55710
 H477 H 0.88601 0.28086 0.59520
 H478 H 0.92529 0.30330 0.62119
 H479 H 0.96846 0.22119 0.62150
 H480 H 0.92926 0.19904 0.59538
 C481 C 0.40761 0.09837 0.24053
 C482 C 0.39604 0.07684 0.22281
 C483 C 0.38121 0.05393 0.23508
 C484 C 0.37774 0.05222 0.26531
 C485 C 0.38791 0.07483 0.28287
 C486 C 0.40294 0.09772 0.27054
 C487 C 0.42688 0.11877 0.22801
 C488 C 0.44405 0.13393 0.21637
 H489 H 0.39959 0.07702 0.19959
 H490 H 0.37346 0.03686 0.22108
 H491 H 0.38575 0.07385 0.30624
 H492 H 0.41197 0.11412 0.28451
 C493 C 0.58035 0.11253 0.72939
 C494 C 0.60958 0.11114 0.72822
 C495 C 0.62278 0.08580 0.71854
 C496 C 0.60680 0.06157 0.71038
 C497 C 0.57751 0.06370 0.71038
 C498 C 0.56441 0.08901 0.71979
 C499 C 0.56629 0.13623 0.74352
 C500 C 0.55262 0.15393 0.75655
 H501 H 0.62212 0.12912 0.73585
 H502 H 0.64539 0.08456 0.71890
 H503 H 0.56477 0.04540 0.70397
 H504 H 0.54178 0.08978 0.72075
 C505 C 0.41457 0.90750 0.75281
 C506 C 0.40817 0.93262 0.76849
 C507 C 0.39446 0.95560 0.75502
 C508 C 0.38693 0.95380 0.72559
 C509 C 0.39220 0.92798 0.71027
 C510 C 0.40611 0.90498 0.72380
 C511 C 0.43182 0.88572 0.76616
 C512 C 0.44726 0.86915 0.77846
 H513 H 0.41462 0.93484 0.79093
 H514 H 0.39038 0.97512 0.76739
 H515 H 0.38679 0.92617 0.68753
 H516 H 0.41108 0.88569 0.71140
 C517 C 0.57539 0.88742 0.27733
 C518 C 0.55962 0.91016 0.28902
 C519 C 0.57292 0.93484 0.29965
 C520 C 0.60218 0.93702 0.29874
 C521 C 0.61801 0.91331 0.28888
 C522 C 0.60463 0.88864 0.27800
 C523 C 0.56127 0.86542 0.26086
 C524 C 0.54809 0.84921 0.24563
 H525 H 0.53698 0.90952 0.28840
 H526 H 0.56034 0.95283 0.30728
 H527 H 0.64059 0.91467 0.28777
 H528 H 0.61700 0.87128 0.26870
 C529 C 0.41947 0.27117 0.88813
 C530 C 0.39112 0.27854 0.88895
 C531 C 0.37917 0.28900 0.91474
 C532 C 0.39534 0.29155 0.94036
 C533 C 0.42425 0.28554 0.93843
 C534 C 0.43606 0.27548 0.91267
 C535 C 0.43170 0.25669 0.86350
 C536 C 0.44425 0.24322 0.84523
 H537 H 0.37803 0.27517 0.87007
 H538 H 0.35687 0.29289 0.91493
 H539 H 0.43805 0.28867 0.95676
 H540 H 0.45813 0.27017 0.91219
 C541 C 0.58441 0.75252 0.90835
 C542 C 0.58935 0.76917 0.93310
 C543 C 0.60297 0.75728 0.95695
 C544 C 0.61205 0.72813 0.95687
 C545 C 0.60790 0.71183 0.93114
 C546 C 0.59396 0.72389 0.90723
 C547 C 0.56808 0.76503 0.88528
 C548 C 0.55339 0.77747 0.86806
 H549 H 0.58233 0.79146 0.93415
 H550 H 0.60690 0.77149 0.97521
 H551 H 0.61386 0.68929 0.92980
 H552 H 0.59009 0.71069 0.88819
 C553 C 0.42032 0.74201 0.09856
 C554 C 0.39452 0.72811 0.10135
 C555 C 0.38065 0.71763 0.07667
 C556 C 0.39222 0.72135 0.04865
 C557 C 0.41881 0.73452 0.04662
 C558 C 0.43255 0.74473 0.07124
 C559 C 0.43429 0.75474 0.12310
 C560 C 0.44752 0.76666 0.14189
 H561 H 0.38483 0.72595 0.12248
 H562 H 0.36016 0.70821 0.07963
 H563 H 0.42963 0.73650 0.02612
 H564 H 0.45274 0.75508 0.06887
 C565 C 0.59184 0.23902 0.08993
 C566 C 0.60641 0.26495 0.09393
 C567 C 0.61893 0.27876 0.07019
 C568 C 0.61650 0.26713 0.04183
 C569 C 0.60295 0.24013 0.03869
 C570 C 0.59078 0.22638 0.06240
 C571 C 0.57576 0.22616 0.11296
 C572 C 0.56053 0.21439 0.13012
 H573 H 0.60726 0.27504 0.11517
 H574 H 0.62868 0.29954 0.07398
 H575 H 0.60182 0.22919 0.01794
 H576 H 0.57983 0.20612 0.05907
 C577 C 0.24145 0.10164 0.59773
 C578 C 0.26896 0.10264 0.60788
 C579 C 0.28079 0.07839 0.62128
 C580 C 0.26542 0.05238 0.62419
 C581 C 0.23711 0.05258 0.61540
 C582 C 0.22538 0.07688 0.60228
 C583 C 0.23038 0.12430 0.57973
 C584 C 0.22012 0.14125 0.56300
 H585 H 0.28168 0.12166 0.60426
 H586 H 0.30267 0.07955 0.62709
 H587 H 0.22376 0.03397 0.61852
 H588 H 0.20394 0.07595 0.59474
 C589 C 0.74056 0.10182 0.41724
 C590 C 0.73806 0.09951 0.38703
 C591 C 0.72490 0.07534 0.37472
 C592 C 0.71457 0.05321 0.39258
 C593 C 0.71586 0.05649 0.42284
 C594 C 0.72872 0.08067 0.43507
 C595 C 0.75805 0.12347 0.43040
 C596 C 0.77348 0.13936 0.44356
 H597 H 0.74736 0.11564 0.37305
 H598 H 0.72430 0.07306 0.35133
 H599 H 0.70795 0.03971 0.43698
 H600 H 0.73066 0.08216 0.45846
 C601 C 0.74200 0.89684 0.58614
 C602 C 0.72942 0.91789 0.56872
 C603 C 0.71654 0.94189 0.58138
 C604 C 0.71601 0.94513 0.61168
 C605 C 0.72711 0.92307 0.62918
 C606 C 0.74026 0.89907 0.61642
 C607 C 0.75932 0.87527 0.57244
 C608 C 0.77448 0.85930 0.55896
 H609 H 0.73074 0.91646 0.54528
 H610 H 0.70806 0.95861 0.56750
 H611 H 0.72712 0.92531 0.65258
 H612 H 0.75011 0.88301 0.63010
 C613 C 0.24461 0.89887 0.40336
 C614 C 0.27299 0.89843 0.39591
 C615 C 0.28529 0.92274 0.38313
 C616 C 0.26935 0.94783 0.37803
 C617 C 0.24062 0.94753 0.38435
 C618 C 0.22837 0.92322 0.39693
 C619 C 0.23262 0.87620 0.42070
 C620 C 0.22156 0.85924 0.43686
 H621 H 0.28583 0.87982 0.40105
 H622 H 0.30752 0.92252 0.37868
 H623 H 0.22783 0.96646 0.38038
 H624 H 0.20643 0.92387 0.40274
 C625 C 0.09050 0.40777 0.76222
 C626 C 0.09321 0.39305 0.73581
 C627 C 0.07007 0.37910 0.72352
 C628 C 0.04361 0.38019 0.73724
 C629 C 0.04188 0.39380 0.76471
 C630 C 0.06502 0.40745 0.77693
 C631 C 0.11291 0.42510 0.77360
 C632 C 0.13023 0.44088 0.78406
 H633 H 0.11291 0.39323 0.72422
 H634 H 0.07269 0.36944 0.70228
 H635 H 0.02268 0.39388 0.77712
 H636 H 0.06281 0.41844 0.79762
 C637 C 0.09414 0.59123 0.24025
 C638 C 0.09630 0.60517 0.26715
 C639 C 0.07285 0.61868 0.27946
 C640 C 0.04660 0.61786 0.26530
 C641 C 0.04544 0.60511 0.23739
 C642 C 0.06888 0.59194 0.22515
 C643 C 0.11671 0.57402 0.22876
 C644 C 0.13383 0.55810 0.21801
 H645 H 0.11580 0.60467 0.27910
 H646 H 0.07503 0.62774 0.30102
 H647 H 0.02645 0.60531 0.22465
 H648 H 0.06705 0.58155 0.20411
 C649 C 0.90120 0.41470 0.25728
 C650 C 0.92643 0.42981 0.25678
 C651 C 0.95083 0.41707 0.26716
 C652 C 0.95072 0.38862 0.27832
 C653 C 0.92469 0.37417 0.28013
 C654 C 0.90021 0.38703 0.26941
 C655 C 0.87723 0.42766 0.24359
 C656 C 0.85933 0.44070 0.23065
 H657 H 0.92738 0.45144 0.24782
 H658 H 0.96966 0.42998 0.26676
 H659 H 0.92329 0.35220 0.28802
 H660 H 0.88075 0.37508 0.26983
 C661 C 0.90472 0.58314 0.74358
 C662 C 0.90372 0.61094 0.73176
 C663 C 0.92802 0.62354 0.72042
 C664 C 0.95394 0.60870 0.72127
 C665 C 0.95402 0.58012 0.73207
 C666 C 0.92976 0.56762 0.74307
 C667 C 0.88102 0.57058 0.75810
 C668 C 0.86327 0.55802 0.77170
 H669 H 0.88442 0.62321 0.73213
 H670 H 0.92664 0.64564 0.71289
 H671 H 0.97273 0.56695 0.73179
 H672 H 0.93071 0.54589 0.75181
 C673 C 0.75595 0.60031 0.90006
 C674 C 0.77261 0.61110 0.92258
 C675 C 0.76025 0.62428 0.94669
 C676 C 0.73102 0.62681 0.94861
 C677 C 0.71451 0.61765 0.92509
 C678 C 0.72693 0.60428 0.90098
 C679 C 0.76848 0.58195 0.87834
 C680 C 0.77970 0.56518 0.86194
 H681 H 0.79506 0.60803 0.92219
 H682 H 0.77343 0.63135 0.96445
 H683 H 0.69193 0.61911 0.92618
 H684 H 0.71381 0.59578 0.88380
 C685 C 0.23911 0.39629 0.90034
 C686 C 0.26606 0.38484 0.89784
 C687 C 0.27866 0.37142 0.92171
 C688 C 0.26468 0.37004 0.94875
 C689 C 0.23668 0.37971 0.94999
 C690 C 0.22414 0.39273 0.92607
 C691 C 0.22783 0.41508 0.87848
 C692 C 0.21740 0.43267 0.86258
 H693 H 0.27789 0.38764 0.87801
 H694 H 0.30022 0.36468 0.91946
 H695 H 0.22438 0.37767 0.96957
 H696 H 0.20312 0.40127 0.92814
 C697 C 0.25712 0.58625 0.10149
 C698 C 0.27388 0.56915 0.08340
 C699 C 0.28692 0.58129 0.05933
 C700 C 0.28344 0.61077 0.05301
 C701 C 0.26775 0.62825 0.07201
 C702 C 0.25443 0.61595 0.09610
 C703 C 0.24039 0.57210 0.12310
 C704 C 0.22600 0.55790 0.13906
 H705 H 0.27596 0.54613 0.08725
 H706 H 0.29912 0.56748 0.04510
 H707 H 0.26470 0.65100 0.06743
 H708 H 0.24126 0.62932 0.10980
 C709 C 0.74779 0.40451 0.10326
 C710 C 0.71880 0.40491 0.09881
 C711 C 0.70734 0.39195 0.07397
 C712 C 0.72487 0.37886 0.05323
 C713 C 0.75376 0.37749 0.05857
 C714 C 0.76511 0.39021 0.08339
 C715 C 0.76044 0.42172 0.12580
 C716 C 0.77241 0.43738 0.14269
 H717 H 0.70522 0.41621 0.11387
 H718 H 0.68504 0.39344 0.07023
 H719 H 0.76767 0.36729 0.04303
 H720 H 0.78757 0.38995 0.08646
 C721 C 0.90569 0.75759 0.59778
 C722 C 0.90697 0.72787 0.60347
 C723 C 0.93034 0.71617 0.61747
 C724 C 0.95282 0.73405 0.62565
 C725 C 0.95071 0.76403 0.62107
 C726 C 0.92732 0.77568 0.60722
 C727 C 0.88404 0.76931 0.57955
 C728 C 0.86755 0.78012 0.56302
 H729 H 0.89047 0.71362 0.59604
 H730 H 0.93154 0.69297 0.62046
 H731 H 0.96758 0.77833 0.62739
 H732 H 0.92663 0.79869 0.60285
 C733 C 0.90590 0.24129 0.40572
 C734 C 0.90544 0.27057 0.39805
 C735 C 0.92865 0.28303 0.38443
 C736 C 0.95265 0.26634 0.37865
 C737 C 0.95239 0.23668 0.38526
 C738 C 0.92918 0.22428 0.39871
 C739 C 0.88411 0.22910 0.42343
 C740 C 0.86752 0.21795 0.43960
 H741 H 0.88763 0.28401 0.40359
 H742 H 0.92841 0.30598 0.37980
 H743 H 0.97048 0.22328 0.38078
 H744 H 0.92983 0.20162 0.40463
 C745 C 0.09940 0.25935 0.58473
 C746 C 0.07607 0.26799 0.56864
 C747 C 0.05243 0.27879 0.58268
 C748 C 0.05182 0.28114 0.61307
 C749 C 0.07584 0.27395 0.62907
 C750 C 0.09952 0.26289 0.61494
 C751 C 0.12164 0.24429 0.57008
 C752 C 0.13851 0.23073 0.55615
 H753 H 0.07572 0.26528 0.54527
 H754 H 0.03423 0.28442 0.56990
 H755 H 0.07573 0.27540 0.65253
 H756 H 0.11742 0.25611 0.62761
 C757 C 0.09867 0.73956 0.41676
 C758 C 0.07346 0.73863 0.43193
 C759 C 0.04954 0.72749 0.41887
 C760 C 0.05012 0.71700 0.39003
 C761 C 0.07624 0.71619 0.37561
 C762 C 0.10025 0.72775 0.38879
 C763 C 0.12182 0.75454 0.42993
 C764 C 0.13899 0.76846 0.44309
 H765 H 0.07207 0.74726 0.45379
 H766 H 0.03062 0.72699 0.43172
 H767 H 0.07793 0.70864 0.35343
 H768 H 0.11973 0.72835 0.37683
 C769 C 0.58548 0.90769 0.75346
 C770 C 0.61418 0.90751 0.74760
 C771 C 0.62678 0.93151 0.73437
 C772 C 0.61084 0.95633 0.72720
 C773 C 0.58178 0.95554 0.73282
 C774 C 0.56940 0.93163 0.74576
 C775 C 0.57183 0.88434 0.76837
 C776 C 0.55780 0.86700 0.78131
 H777 H 0.62688 0.88908 0.75367
 H778 H 0.64916 0.93092 0.73121
 H779 H 0.56805 0.97299 0.72640
 H780 H 0.54710 0.93190 0.74990
 C781 C 0.40788 0.89421 0.25317
 C782 C 0.39977 0.89670 0.28222
 C783 C 0.38693 0.92214 0.29224
 C784 C 0.38249 0.94585 0.27339
 C785 C 0.39010 0.94235 0.24393
 C786 C 0.40259 0.91692 0.23406
 C787 C 0.42424 0.87010 0.24294
 C788 C 0.43964 0.85229 0.23236
 H789 H 0.40415 0.87938 0.29733
 H790 H 0.38225 0.92362 0.31515
 H791 H 0.38597 0.95901 0.22806
 H792 H 0.40873 0.91523 0.21148
 C793 C 0.58234 0.08900 0.25047
 C794 C 0.61115 0.08872 0.25574
 C795 C 0.62339 0.06533 0.27039
 C796 C 0.60698 0.04158 0.27951
 C797 C 0.57780 0.04298 0.27467
 C798 C 0.56578 0.06630 0.26033
 C799 C 0.56915 0.11152 0.23391
 C800 C 0.55582 0.12852 0.21976
 H801 H 0.62420 0.10622 0.24805
 H802 H 0.64585 0.06538 0.27298
 H803 H 0.56381 0.02642 0.28259
 H804 H 0.54339 0.06646 0.25669
 C805 C 0.41940 0.11033 0.72704
 C806 C 0.43578 0.08671 0.71838
 C807 C 0.42315 0.06143 0.70817
 C808 C 0.39389 0.05942 0.70644
 C809 C 0.37758 0.08375 0.71373
 C810 C 0.39029 0.10904 0.72415
 C811 C 0.43268 0.13421 0.74172
 C812 C 0.44550 0.15224 0.75520
 H813 H 0.45832 0.08740 0.72062
 H814 H 0.43620 0.04311 0.70246
 H815 H 0.35499 0.08266 0.71284
 H816 H 0.37738 0.12709 0.73101
 C817 C 0.59343 0.74737 0.11395
 C818 C 0.60288 0.76705 0.09313
 C819 C 0.61628 0.75717 0.06810
 C820 C 0.62049 0.72742 0.06357
 C821 C 0.61248 0.70784 0.08534
 C822 C 0.59880 0.71778 0.11036
 C823 C 0.57497 0.75761 0.13641
 C824 C 0.55809 0.76803 0.15283
 H825 H 0.59864 0.78997 0.09557
 H826 H 0.62242 0.77266 0.05171
 H827 H 0.61529 0.68479 0.08220
 H828 H 0.59130 0.70233 0.12616
 C829 C 0.42107 0.25113 0.09293
 C830 C 0.43619 0.26902 0.07426
 C831 C 0.42279 0.28275 0.05126
 C832 C 0.39403 0.27876 0.04658
 C833 C 0.37864 0.26175 0.06612
 C834 C 0.39218 0.24783 0.08915
 C835 C 0.43604 0.23440 0.11409
 C836 C 0.45022 0.22015 0.13024
 H837 H 0.45855 0.27165 0.07694
 H838 H 0.43502 0.29599 0.03666
 H839 H 0.35649 0.25824 0.06282
 H840 H 0.38033 0.23385 0.10338
 C841 C 0.57837 0.27102 0.88724
 C842 C 0.56277 0.27918 0.91165
 C843 C 0.57624 0.28867 0.93679
 C844 C 0.60555 0.29018 0.93786
 C845 C 0.62106 0.28353 0.91277
 C846 C 0.60752 0.27380 0.88761
 C847 C 0.56431 0.25674 0.86358
 C848 C 0.55093 0.24347 0.84581
 H849 H 0.54022 0.27700 0.91168
 H850 H 0.56383 0.29388 0.95576
 H851 H 0.64369 0.28431 0.91317
 H852 H 0.61982 0.26732 0.86894
 C853 C 0.40358 0.75893 0.89678
 C854 C 0.39916 0.72899 0.89717
 C855 C 0.38514 0.71632 0.92055
 C856 C 0.37579 0.73351 0.94384
 C857 C 0.37860 0.76371 0.94225
 C858 C 0.39242 0.77633 0.91884
 C859 C 0.42297 0.77146 0.87659
 C860 C 0.44051 0.78283 0.86176
 H861 H 0.40794 0.71530 0.88035
 H862 H 0.38347 0.69297 0.92148
 H863 H 0.37148 0.77736 0.95993
 H864 H 0.39587 0.79950 0.91884
 C865 C 0.74863 0.89842 0.41796
 C866 C 0.74840 0.90065 0.38763
 C867 C 0.73560 0.92450 0.37435
 C868 C 0.72336 0.94641 0.39141
 C869 C 0.72302 0.94344 0.42173
 C870 C 0.73554 0.91965 0.43486
 C871 C 0.76434 0.87626 0.43252
 C872 C 0.77806 0.85992 0.44703
 H873 H 0.75870 0.88445 0.37436
 H874 H 0.73612 0.92638 0.35094
 H875 H 0.71335 0.95982 0.43531
 H876 H 0.73570 0.91822 0.45833
 C877 C 0.25055 0.89831 0.58740
 C878 C 0.23346 0.91576 0.60481
 C879 C 0.24471 0.93947 0.61952
 C880 C 0.27327 0.94613 0.61706
 C881 C 0.29067 0.92770 0.60075
 C882 C 0.27930 0.90397 0.58583
 C883 C 0.23776 0.87684 0.56894
 C884 C 0.22572 0.86047 0.55278
 H885 H 0.21118 0.91171 0.60610
 H886 H 0.23091 0.95324 0.63212
 H887 H 0.31270 0.93252 0.59833
 H888 H 0.29271 0.89076 0.57222
 C889 C 0.25964 0.10171 0.42047
 C890 C 0.26395 0.10244 0.39040
 C891 C 0.27583 0.07854 0.37617
 C892 C 0.28317 0.05363 0.39188
 C893 C 0.27996 0.05369 0.42219
 C894 C 0.26830 0.07756 0.43635
 C895 C 0.24403 0.12412 0.43506
 C896 C 0.23007 0.14109 0.44878
 H897 H 0.25719 0.12095 0.37786
 H898 H 0.27788 0.07890 0.35277
 H899 H 0.28565 0.03485 0.43480
 H900 H 0.26504 0.07672 0.45960
 C901 C 0.74937 0.09955 0.58540
 C902 C 0.73532 0.07868 0.56895
 C903 C 0.72298 0.05503 0.58248
 C904 C 0.72448 0.05188 0.61275
 C905 C 0.73764 0.07348 0.62939
 C906 C 0.75025 0.09717 0.61570
 C907 C 0.76497 0.12141 0.57033
 C908 C 0.77855 0.13755 0.55549
 H909 H 0.73463 0.08022 0.54550
 H910 H 0.71262 0.03887 0.56924
 H911 H 0.73906 0.07143 0.65274
 H912 H 0.76131 0.11310 0.62861
 C913 C 0.89703 0.57957 0.25912
 C914 C 0.89716 0.60967 0.26281
 C915 C 0.92100 0.62352 0.27381
 C916 C 0.94499 0.60735 0.28082
 C917 C 0.94418 0.57707 0.27820
 C918 C 0.92038 0.56332 0.26745
 C919 C 0.87449 0.56512 0.24429
 C920 C 0.85755 0.55116 0.23086
 H921 H 0.87929 0.62249 0.25627
 H922 H 0.92122 0.64689 0.27548
 H923 H 0.96229 0.56413 0.28371
 H924 H 0.92056 0.54003 0.26463
 C925 C 0.89513 0.41808 0.74151
 C926 C 0.89553 0.38779 0.74003
 C927 C 0.91906 0.37346 0.72892
 C928 C 0.94241 0.38937 0.71965
 C929 C 0.94119 0.41971 0.71982
 C930 C 0.91768 0.43395 0.73065
 C931 C 0.87361 0.43323 0.75719
 C932 C 0.85773 0.44781 0.77132
 H933 H 0.87827 0.37531 0.74861
 H934 H 0.91971 0.35003 0.72915
 H935 H 0.95893 0.43237 0.71265
 H936 H 0.91766 0.45738 0.73182
 C937 C 0.10289 0.59208 0.75842
 C938 C 0.10278 0.59872 0.72879
 C939 C 0.07954 0.61244 0.71644
 C940 C 0.05609 0.61927 0.73358
 C941 C 0.05702 0.61382 0.76354
 C942 C 0.08026 0.60033 0.77584
 C943 C 0.12419 0.57373 0.77059
 C944 C 0.14001 0.55687 0.78193
 H945 H 0.12005 0.59219 0.71504
 H946 H 0.07921 0.61623 0.69326
 H947 H 0.03932 0.61910 0.77724
 H948 H 0.08003 0.59517 0.79876
 C949 C 0.09911 0.40616 0.24032
 C950 C 0.09911 0.39948 0.26993
 C951 C 0.07612 0.38542 0.28229
 C952 C 0.05279 0.37823 0.26515
 C953 C 0.05363 0.38368 0.23519
 C954 C 0.07663 0.39757 0.22288
 C955 C 0.12030 0.42462 0.22824
 C956 C 0.13643 0.44139 0.21733
 H957 H 0.11630 0.40622 0.28368
 H958 H 0.07586 0.38167 0.30547
 H959 H 0.03603 0.37812 0.22148
 H960 H 0.07635 0.40272 0.19996
   
