data_POSCAR
  _audit_creation_date              2014-09-24
  _audit_creation_method            'ToBaCCo'
  _symmetry_space_group_name_H-M    'P1'
  _symmetry_Int_Tables_number       1
  _symmetry_cell_setting            triclinic
  loop_
  _symmetry_equiv_pos_as_xyz
 x,y,z
_cell_length_a 49.8111
_cell_length_b 50.0586
_cell_length_c 49.9012
_cell_angle_alpha 89.997200
_cell_angle_beta 89.949900
_cell_angle_gamma 89.971100
loop_
  _atom_site_label
  _atom_site_type_symbol
  _atom_site_fract_x
  _atom_site_fract_y
  _atom_site_fract_z
N1 N 0.15032 0.16899 0.22527
 N2 N 0.16930 0.15067 0.22514
 C3 C 0.16537 0.13389 0.24593
 C4 C 0.14285 0.14233 0.25960
 C5 C 0.13371 0.16455 0.24611
 H6 H 0.17788 0.11690 0.25079
 H7 H 0.11637 0.17659 0.25110
 Cu8 Cu 0.19707 0.15084 0.19762
 Cu9 Cu 0.14859 0.19738 0.19857
 Cu10 Cu 0.19821 0.19762 0.14958
 N11 N 0.22478 0.15075 0.17000
 N12 N 0.22507 0.16923 0.15123
 C13 C 0.24598 0.16480 0.13467
 C14 C 0.25936 0.14239 0.14361
 C15 C 0.24552 0.13386 0.16598
 H16 H 0.25104 0.17692 0.11745
 H17 H 0.25020 0.11670 0.17829
 N18 N 0.16931 0.22464 0.15129
 N19 N 0.15038 0.22447 0.16987
 C20 C 0.13373 0.24530 0.16568
 C21 C 0.14268 0.25906 0.14351
 C22 C 0.16518 0.24559 0.13482
 H23 H 0.11640 0.25017 0.17780
 H24 H 0.17755 0.25074 0.11777
 H25 H 0.16773 0.17672 0.16834
 H26 H 0.18904 0.19835 0.19000
 N27 N -0.15078 0.83074 0.22456
 N28 N -0.16975 0.84903 0.22445
 C29 C -0.16589 0.86573 0.24530
 C30 C -0.14338 0.85731 0.25897
 C31 C -0.13423 0.83513 0.24542
 H32 H -0.17840 0.88271 0.25020
 H33 H -0.11690 0.82309 0.25040
 Cu34 Cu -0.19749 0.84909 0.19697
 Cu35 Cu -0.14905 0.80245 0.19784
 Cu36 Cu -0.19868 0.80214 0.14897
 N37 N -0.22516 0.84899 0.16940
 N38 N -0.22550 0.83049 0.15067
 C39 C -0.24643 0.83492 0.13416
 C40 C -0.25976 0.85734 0.14312
 C41 C -0.24590 0.86587 0.16545
 H42 H -0.25152 0.82280 0.11695
 H43 H -0.25057 0.88303 0.17778
 N44 N -0.16977 0.77520 0.15064
 N45 N -0.15081 0.77542 0.16916
 C46 C -0.13415 0.75460 0.16498
 C47 C -0.14313 0.74081 0.14289
 C48 C -0.16564 0.75422 0.13421
 H49 H -0.11684 0.74973 0.17709
 H50 H -0.17802 0.74902 0.11720
 H51 H -0.16827 0.82309 0.16757
 H52 H -0.18957 0.80153 0.18938
 N53 N -0.15092 0.16978 -0.22497
 N54 N -0.16967 0.15128 -0.22460
 C55 C -0.16568 0.13444 -0.24533
 C56 C -0.14332 0.14299 -0.25919
 C57 C -0.13439 0.16538 -0.24587
 H58 H -0.17799 0.11729 -0.25000
 H59 H -0.11716 0.17750 -0.25100
 Cu60 Cu -0.19731 0.15111 -0.19696
 Cu61 Cu -0.14919 0.19810 -0.19824
 Cu62 Cu -0.19818 0.19766 -0.14864
 N63 N -0.22489 0.15106 -0.16924
 N64 N -0.22503 0.16934 -0.15028
 C65 C -0.24595 0.16489 -0.13373
 C66 C -0.25950 0.14270 -0.14290
 C67 C -0.24576 0.13432 -0.16539
 H68 H -0.25094 0.17691 -0.11641
 H69 H -0.25061 0.11738 -0.17793
 N70 N -0.16941 0.22475 -0.15041
 N71 N -0.15087 0.22499 -0.16937
 C72 C -0.13435 0.24592 -0.16527
 C73 C -0.14299 0.25932 -0.14277
 C74 C -0.16516 0.24555 -0.13377
 H75 H -0.11732 0.25109 -0.17768
 H76 H -0.17727 0.25041 -0.11645
 H77 H -0.16770 0.17708 -0.16800
 H78 H -0.18957 0.19865 -0.18921
 N79 N 0.15078 0.83087 -0.22463
 N80 N 0.16930 0.84961 -0.22407
 C81 C 0.16550 0.86626 -0.24498
 C82 C 0.14346 0.85738 -0.25912
 C83 C 0.13456 0.83497 -0.24580
 H84 H 0.17775 0.88347 -0.24964
 H85 H 0.11758 0.82261 -0.25112
 Cu86 Cu 0.19652 0.84971 -0.19606
 Cu87 Cu 0.14902 0.80241 -0.19797
 Cu88 Cu 0.19833 0.80245 -0.14869
 N89 N 0.22457 0.84967 -0.16884
 N90 N 0.22510 0.83093 -0.15033
 C91 C 0.24628 0.83506 -0.13408
 C92 C 0.25960 0.85751 -0.14297
 C93 C 0.24547 0.86637 -0.16502
 H94 H 0.25157 0.82269 -0.11711
 H95 H 0.25011 0.88358 -0.17728
 N96 N 0.16951 0.77538 -0.15046
 N97 N 0.15077 0.77538 -0.16920
 C98 C 0.13417 0.75452 -0.16504
 C99 C 0.14295 0.74092 -0.14273
 C100 C 0.16529 0.75451 -0.13390
 H101 H 0.11698 0.74953 -0.17728
 H102 H 0.17750 0.74950 -0.11671
 H103 H 0.16755 0.82279 -0.16740
 H104 H 0.18952 0.80198 -0.18926
 N105 N 0.16945 1.15089 0.77502
 N106 N 0.15097 1.16969 0.77520
 C107 C 0.13413 1.16573 0.75444
 C108 C 0.14267 1.14336 0.74074
 C109 C 0.16504 1.13437 0.75420
 H110 H 0.11699 1.17809 0.74961
 H111 H 0.17718 1.11716 0.74920
 Cu112 Cu 0.15105 1.19729 0.80272
 Cu113 Cu 0.19793 1.14919 0.80168
 Cu114 Cu 0.19821 1.19860 0.85055
 N115 N 0.15104 1.22486 0.83026
 N116 N 0.16971 1.22524 0.84889
 C117 C 0.16531 1.24604 0.86543
 C118 C 0.14273 1.25928 0.85663
 C119 C 0.13406 1.24546 0.83435
 H120 H 0.17754 1.25113 0.88258
 H121 H 0.11674 1.25008 0.82216
 N122 N 0.22525 1.16989 0.84885
 N123 N 0.22506 1.15101 0.83034
 C124 C 0.24580 1.13429 0.83470
 C125 C 0.25949 1.14317 0.85691
 C126 C 0.24613 1.16567 0.86547
 H127 H 0.25063 1.11695 0.82271
 H128 H 0.25124 1.17791 0.88257
 H129 H 0.17717 1.16820 0.83199
 H130 H 0.19877 1.18942 0.81015
 N131 N 0.83054 0.84829 0.77483
 N132 N 0.84938 0.82986 0.77535
 C133 C 0.86634 0.83391 0.75468
 C134 C 0.85758 0.85604 0.74074
 C135 C 0.83490 0.86474 0.75393
 H136 H 0.88371 0.82178 0.75007
 H137 H 0.82261 0.88180 0.74879
 Cu138 Cu 0.84945 0.80252 0.80308
 Cu139 Cu 0.80204 0.84997 0.80153
 Cu140 Cu 0.80281 0.80174 0.85159
 N141 N 0.84950 0.77505 0.83068
 N142 N 0.83120 0.77506 0.84972
 C143 C 0.83546 0.75415 0.86613
 C144 C 0.85756 0.74047 0.85683
 C145 C 0.86607 0.75408 0.83436
 H146 H 0.82337 0.74921 0.88344
 H147 H 0.88297 0.74901 0.82173
 N148 N 0.77568 0.83033 0.84975
 N149 N 0.77514 0.84844 0.83048
 C150 C 0.75413 0.86490 0.83460
 C151 C 0.74099 0.85660 0.85738
 C152 C 0.75496 0.83473 0.86655
 H153 H 0.74878 0.88171 0.82208
 H154 H 0.75027 0.82291 0.88408
 H155 H 0.82325 0.83187 0.83205
 H156 H 0.80172 0.80965 0.81118
 N157 N 0.16902 0.84872 1.22428
 N158 N 0.15067 0.82983 1.22425
 C159 C 0.13398 0.83363 1.24519
 C160 C 0.14247 0.85602 1.25883
 C161 C 0.16468 0.86516 1.24519
 H162 H 0.11697 0.82115 1.25018
 H163 H 0.17677 0.88241 1.25013
 Cu164 Cu 0.15074 0.80228 1.19676
 Cu165 Cu 0.19739 0.85047 1.19748
 Cu166 Cu 0.19782 0.80104 1.14864
 N167 N 0.15082 0.77474 1.16927
 N168 N 0.16941 0.77441 1.15052
 C169 C 0.16506 0.75354 1.13409
 C170 C 0.14264 0.74022 1.14311
 C171 C 0.13400 0.75402 1.16541
 H172 H 0.17725 0.74845 1.11689
 H173 H 0.11680 0.74927 1.17776
 N174 N 0.22472 0.82984 1.15024
 N175 N 0.22446 0.84874 1.16874
 C176 C 0.24529 0.86535 1.16448
 C177 C 0.25910 0.85640 1.14235
 C178 C 0.24572 0.83396 1.13372
 H179 H 0.25017 0.88261 1.17655
 H180 H 0.25094 0.82163 1.11670
 H181 H 0.17673 0.83116 1.16714
 H182 H 0.19843 0.81002 1.18895
 N183 N 0.83106 1.15106 1.22424
 N184 N 0.84928 1.17009 1.22428
 C185 C 0.86594 1.16635 1.24524
 C186 C 0.85754 1.14388 1.25884
 C187 C 0.83543 1.13463 1.24515
 H188 H 0.88282 1.17894 1.25029
 H189 H 0.82338 1.11735 1.25009
 Cu190 Cu 0.84912 1.19771 1.19686
 Cu191 Cu 0.80266 1.14932 1.19748
 Cu192 Cu 0.80171 1.19926 1.14916
 N193 N 0.84897 1.22530 1.16943
 N194 N 0.83017 1.22583 1.15092
 C195 C 0.83451 1.24668 1.13446
 C196 C 0.85716 1.25979 1.14320
 C197 C 0.86594 1.24588 1.16536
 H198 H 0.82221 1.25188 1.11739
 H199 H 0.88331 1.25046 1.17750
 N200 N 0.77487 1.17039 1.15072
 N201 N 0.77546 1.15116 1.16887
 C202 C 0.75476 1.13441 1.16447
 C203 C 0.74073 1.14360 1.14259
 C204 C 0.75384 1.16632 1.13427
 H205 H 0.75012 1.11691 1.17629
 H206 H 0.74844 1.17885 1.11746
 H207 H 0.82304 1.16903 1.16714
 H208 H 0.80142 1.18975 1.18945
 N209 N 0.47171 0.95262 0.97126
 N210 N 0.45126 0.93616 0.96795
 N211 N 0.52827 0.97118 0.95267
 N212 N 0.54876 0.96788 0.93621
 N213 N 0.52824 0.95263 0.97129
 N214 N 0.54869 0.93619 0.96805
 N215 N 0.47172 0.97117 0.95263
 N216 N 0.45127 0.96784 0.93613
 C217 C 0.43878 0.94594 0.94598
 C218 C 0.56119 0.94600 0.94612
 N219 N 0.52835 1.04729 0.97128
 N220 N 0.54880 1.06376 0.96798
 N221 N 0.47187 1.02872 0.95264
 N222 N 0.45143 1.03199 0.93616
 N223 N 0.47183 1.04726 0.97126
 N224 N 0.45137 1.06369 0.96799
 N225 N 0.52840 1.02873 0.95267
 N226 N 0.54889 1.03206 0.93618
 Mn227 Mn 0.50007 0.99995 0.95232
 C228 C 0.56134 1.05397 0.94603
 C229 C 0.43895 1.05385 0.94604
 N230 N 0.52832 0.95266 1.02898
 N231 N 0.54879 0.93620 1.03229
 N232 N 0.47177 0.97120 1.04757
 N233 N 0.45128 0.96791 1.06402
 N234 N 0.47182 0.95266 1.02895
 N235 N 0.45137 0.93622 1.03218
 N236 N 0.52830 0.97122 1.04759
 N237 N 0.54875 0.96791 1.06409
 Mn238 Mn 0.50002 0.95233 1.00012
 C239 C 0.56126 0.94601 1.05425
 C240 C 0.43887 0.94604 1.05411
 N241 N 0.47157 1.04730 1.02898
 N242 N 0.45110 1.06376 1.03231
 N243 N 0.52814 1.02877 1.04760
 N244 N 0.54860 1.03207 1.06405
 N245 N 0.52812 1.04731 1.02897
 N246 N 0.54855 1.06376 1.03221
 N247 N 0.47158 1.02875 1.04760
 N248 N 0.45110 1.03207 1.06411
 Mn249 Mn 0.49996 1.04761 1.00012
 Mn250 Mn 0.49995 0.99998 1.04792
 Cl251 Cl 0.50000 0.99997 1.00012
 C252 C 0.43860 1.05396 1.05428
 C253 C 0.56103 1.05396 1.05415
 N254 N 0.02877 0.47178 0.04764
 N255 N 0.03198 0.45136 0.06408
 N256 N 0.04747 0.52801 0.02905
 N257 N 0.06390 0.54844 0.03226
 N258 N 0.02880 0.52802 0.04765
 N259 N 0.03199 0.54845 0.06406
 N260 N 0.04744 0.47175 0.02903
 N261 N 0.06388 0.45130 0.03229
 C262 C 0.05393 0.43887 0.05421
 C263 C 0.05394 0.56088 0.05416
 N264 N 0.02890 0.52816 -0.04725
 N265 N 0.03212 0.54865 -0.06361
 N266 N 0.04752 0.47183 -0.02870
 N267 N 0.06396 0.45138 -0.03195
 N268 N 0.02889 0.47189 -0.04732
 N269 N 0.03213 0.45147 -0.06376
 N270 N 0.04754 0.52812 -0.02864
 N271 N 0.06396 0.54859 -0.03182
 Mn272 Mn 0.04783 0.49993 0.00018
 C273 C 0.05405 0.56110 -0.05370
 C274 C 0.05406 0.43898 -0.05389
 N275 N -0.02898 0.52813 0.04765
 N276 N -0.03222 0.54854 0.06410
 N277 N -0.04763 0.47194 0.02899
 N278 N -0.06411 0.45155 0.03220
 N279 N -0.02901 0.47192 0.04761
 N280 N -0.03228 0.45151 0.06403
 N281 N -0.04761 0.52816 0.02904
 N282 N -0.06406 0.54860 0.03230
 Mn283 Mn -0.00010 0.49996 0.04796
 C284 C -0.05417 0.56101 0.05422
 C285 C -0.05423 0.43912 0.05411
 N286 N -0.02892 0.47192 -0.04731
 N287 N -0.03214 0.45151 -0.06375
 N288 N -0.04757 0.52815 -0.02863
 N289 N -0.06402 0.54859 -0.03182
 N290 N -0.02891 0.52816 -0.04724
 N291 N -0.03213 0.54861 -0.06364
 N292 N -0.04759 0.47192 -0.02870
 N293 N -0.06404 0.45150 -0.03195
 Mn294 Mn -0.00001 0.50004 -0.04761
 Mn295 Mn -0.04793 0.50004 0.00017
 Cl296 Cl -0.00005 0.49999 0.00017
 C297 C -0.05411 0.43907 -0.05388
 C298 C -0.05409 0.56105 -0.05371
 N299 N 0.95264 0.02891 0.52797
 N300 N 0.93617 0.03221 0.54845
 N301 N 0.97125 0.04738 0.47150
 N302 N 0.96797 0.06380 0.45106
 N303 N 0.95259 0.02885 0.47154
 N304 N 0.93607 0.03214 0.45111
 N305 N 0.97129 0.04745 0.52791
 N306 N 0.96805 0.06389 0.54834
 C307 C 0.94608 0.05408 0.56086
 C308 C 0.94598 0.05400 0.43863
 N309 N 1.04770 0.02878 0.47137
 N310 N 1.06421 0.03205 0.45091
 N311 N 1.02910 0.04741 0.52781
 N312 N 1.03237 0.06384 0.54823
 N313 N 1.04775 0.02885 0.52781
 N314 N 1.06424 0.03213 0.54825
 N315 N 1.02906 0.04735 0.47139
 N316 N 1.03235 0.06378 0.45095
 Mn317 Mn 1.00018 0.04772 0.49965
 C318 C 1.05433 0.05394 0.43846
 C319 C 1.05435 0.05402 0.56069
 N320 N 0.95258 -0.02869 0.47163
 N321 N 0.93610 -0.03197 0.45119
 N322 N 0.97128 -0.04718 0.52805
 N323 N 0.96800 -0.06364 0.54846
 N324 N 0.95262 -0.02863 0.52808
 N325 N 0.93611 -0.03194 0.54853
 N326 N 0.97123 -0.04725 0.47164
 N327 N 0.96797 -0.06369 0.45122
 Mn328 Mn 0.95227 0.00011 0.49980
 C329 C 0.94600 -0.05386 0.43876
 C330 C 0.94602 -0.05383 0.56095
 N331 N 1.04773 -0.02869 0.52790
 N332 N 1.06424 -0.03198 0.54832
 N333 N 1.02900 -0.04729 0.47155
 N334 N 1.03223 -0.06376 0.45115
 N335 N 1.04766 -0.02876 0.47147
 N336 N 1.06413 -0.03210 0.45099
 N337 N 1.02906 -0.04722 0.52795
 N338 N 1.03235 -0.06364 0.54839
 Mn339 Mn 1.04804 0.00004 0.49964
 Mn340 Mn 1.00014 -0.04755 0.49980
 Cl341 Cl 1.00016 0.00008 0.49972
 C342 C 1.05435 -0.05384 0.56080
 C343 C 1.05419 -0.05399 0.43862
 C344 C 1.13188 0.13113 0.28190
 C345 C 1.12206 0.12129 0.30167
 C346 C 1.11024 0.10960 0.32526
 C347 C 1.09869 0.08411 0.32401
 C348 C 1.08719 0.07276 0.34692
 C349 C 1.08718 0.08685 0.37119
 C350 C 1.09868 0.11236 0.37242
 C351 C 1.11018 0.12371 0.34952
 C352 C 1.07551 0.07513 0.39483
 C353 C 1.06582 0.06541 0.41472
 H354 H 1.09860 0.07304 0.30536
 H355 H 1.07833 0.05303 0.34572
 H356 H 1.09876 0.12344 0.39107
 H357 H 1.11902 0.14345 0.35072
 C358 C 0.86822 -0.13085 0.28248
 C359 C 0.87809 -0.12101 0.30219
 C360 C 0.88996 -0.10933 0.32572
 C361 C 0.87355 -0.09931 0.34621
 C362 C 0.88507 -0.08796 0.36907
 C363 C 0.91305 -0.08658 0.37156
 C364 C 0.92947 -0.09662 0.35109
 C365 C 0.91794 -0.10798 0.32821
 C366 C 0.92483 -0.07499 0.39517
 C367 C 0.93454 -0.06532 0.41503
 H368 H 0.85189 -0.10028 0.34451
 H369 H 0.87220 -0.08028 0.38480
 H370 H 0.95113 -0.09569 0.35282
 H371 H 0.93082 -0.11571 0.31251
 C372 C 0.86833 0.13105 0.71735
 C373 C 0.87822 0.12116 0.69764
 C374 C 0.89009 0.10949 0.67408
 C375 C 0.88887 0.12302 0.64952
 C376 C 0.90042 0.11173 0.62662
 C377 C 0.91325 0.08686 0.62816
 C378 C 0.91453 0.07335 0.65272
 C379 C 0.90298 0.08465 0.67563
 C380 C 0.92495 0.07521 0.60452
 C381 C 0.93464 0.06553 0.58462
 H382 H 0.87900 0.14226 0.64809
 H383 H 0.89934 0.12234 0.60773
 H384 H 0.92443 0.05413 0.65414
 H385 H 0.90408 0.07404 0.69453
 C386 C 1.13191 -0.13087 0.71728
 C387 C 1.12205 -0.12108 0.69753
 C388 C 1.11017 -0.10938 0.67399
 C389 C 1.11698 -0.08332 0.66636
 C390 C 1.10545 -0.07193 0.64350
 C391 C 1.08706 -0.08657 0.62816
 C392 C 1.08018 -0.11262 0.63584
 C393 C 1.09172 -0.12400 0.65870
 C394 C 1.07544 -0.07496 0.60447
 C395 C 1.06580 -0.06528 0.58456
 H396 H 1.13119 -0.07182 0.67805
 H397 H 1.11088 -0.05178 0.63776
 H398 H 1.06597 -0.12411 0.62414
 H399 H 1.08627 -0.14416 0.66444
 C400 C 0.28165 1.13108 1.13257
 C401 C 0.30143 1.12116 1.12268
 C402 C 0.32505 1.10944 1.11074
 C403 C 0.33653 1.08640 1.12185
 C404 C 0.35946 1.07506 1.11024
 C405 C 0.37107 1.08670 1.08746
 C406 C 0.35958 1.10973 1.07634
 C407 C 0.33665 1.12107 1.08795
 C408 C 0.39483 1.07513 1.07564
 C409 C 0.41478 1.06546 1.06585
 H410 H 0.32778 1.07723 1.13947
 H411 H 0.36815 1.05726 1.11904
 H412 H 0.36835 1.11893 1.05874
 H413 H 0.32798 1.13889 1.07918
 C414 C 0.28198 0.86870 0.86798
 C415 C 0.30177 0.87854 0.87785
 C416 C 0.32538 0.89027 0.88974
 C417 C 0.34204 0.90697 0.87453
 C418 C 0.36494 0.91835 0.88608
 C419 C 0.37134 0.91310 0.91291
 C420 C 0.35466 0.89641 0.92815
 C421 C 0.33176 0.88502 0.91659
 C422 C 0.39506 0.92472 0.92471
 C423 C 0.41498 0.93442 0.93446
 H424 H 0.33734 0.91118 0.85376
 H425 H 0.37766 0.93122 0.87409
 H426 H 0.35937 0.89218 0.94891
 H427 H 0.31904 0.87214 0.92857
 C428 C 0.71800 0.86871 1.13212
 C429 C 0.69826 0.87867 1.12227
 C430 C 0.67465 0.89042 1.11043
 C431 C 0.64935 0.87908 1.11508
 C432 C 0.62642 0.89040 1.10352
 C433 C 0.62865 0.91312 1.08726
 C434 C 0.65396 0.92444 1.08258
 C435 C 0.67690 0.91311 1.09413
 C436 C 0.60497 0.92481 1.07550
 C437 C 0.58505 0.93452 1.06577
 H438 H 0.64735 0.86152 1.12760
 H439 H 0.60697 0.88146 1.10727
 H440 H 0.65595 0.94198 1.07002
 H441 H 0.69635 0.92203 1.09036
 C442 C 0.71817 1.13141 0.86807
 C443 C 0.69839 1.12148 0.87791
 C444 C 0.67478 1.10970 0.88978
 C445 C 0.65504 1.09814 0.87349
 C446 C 0.63211 1.08675 0.88503
 C447 C 0.62877 1.08687 0.91292
 C448 C 0.64851 1.09844 0.92921
 C449 C 0.67144 1.10982 0.91767
 C450 C 0.60506 1.07523 0.92474
 C451 C 0.58514 1.06551 0.93450
 H452 H 0.65736 1.09794 0.85190
 H453 H 0.61699 1.07789 0.87222
 H454 H 0.64617 1.09868 0.95080
 H455 H 0.68654 1.11873 0.93048
 C456 C 0.13093 0.28258 0.13184
 C457 C 0.12107 0.30230 0.12202
 C458 C 0.10931 0.32583 0.11026
 C459 C 0.08877 0.32341 0.09124
 C460 C 0.07742 0.34627 0.07974
 C461 C 0.08657 0.37167 0.08722
 C462 C 0.10708 0.37409 0.10626
 C463 C 0.11842 0.35124 0.11775
 C464 C 0.07495 0.39526 0.07542
 C465 C 0.06533 0.41512 0.06568
 H466 H 0.08156 0.30387 0.08530
 H467 H 0.06157 0.34415 0.06505
 H468 H 0.11429 0.39363 0.11220
 H469 H 0.13428 0.35337 0.13244
 C470 C -0.13129 0.28283 -0.13111
 C471 C -0.12145 0.30255 -0.12130
 C472 C -0.10970 0.32608 -0.10957
 C473 C -0.12617 0.34710 -0.10096
 C474 C -0.11478 0.36994 -0.08952
 C475 C -0.08687 0.37188 -0.08663
 C476 C -0.07039 0.35085 -0.09522
 C477 C -0.08179 0.32800 -0.10668
 C478 C -0.07519 0.39548 -0.07499
 C479 C -0.06553 0.41535 -0.06532
 H480 H -0.14777 0.34584 -0.10311
 H481 H -0.12770 0.38608 -0.08295
 H482 H -0.04879 0.35212 -0.09310
 H483 H -0.06887 0.31187 -0.11327
 C484 C 0.13122 0.71740 -0.13107
 C485 C 0.12137 0.69768 -0.12126
 C486 C 0.10960 0.67416 -0.10949
 C487 C 0.10662 0.67232 -0.08163
 C488 C 0.09519 0.64948 -0.07017
 C489 C 0.08670 0.62836 -0.08654
 C490 C 0.08966 0.63022 -0.11440
 C491 C 0.10108 0.65306 -0.12586
 C492 C 0.07512 0.60474 -0.07479
 C493 C 0.06548 0.58486 -0.06509
 H494 H 0.11313 0.68852 -0.06879
 H495 H 0.09301 0.64828 -0.04860
 H496 H 0.08317 0.61402 -0.12725
 H497 H 0.10329 0.65425 -0.14743
 C498 C -0.13140 0.71728 0.13129
 C499 C -0.12153 0.69756 0.12153
 C500 C -0.10976 0.67405 0.10981
 C501 C -0.08497 0.66457 0.11905
 C502 C -0.07352 0.64174 0.10761
 C503 C -0.08683 0.62828 0.08689
 C504 C -0.11161 0.63779 0.07763
 C505 C -0.12305 0.66062 0.08907
 C506 C -0.07522 0.60463 0.07530
 C507 C -0.06558 0.58474 0.06565
 H508 H -0.07452 0.67481 0.13508
 H509 H -0.05435 0.63456 0.11492
 H510 H -0.12207 0.62755 0.06162
 H511 H -0.14223 0.66778 0.08178
 C512 C 1.13083 0.13177 0.71723
 C513 C 1.12103 0.12191 0.69749
 C514 C 1.10942 0.11006 0.67393
 C515 C 1.11450 0.08321 0.66780
 C516 C 1.10322 0.07169 0.64490
 C517 C 1.08683 0.08697 0.62801
 C518 C 1.08174 0.11382 0.63414
 C519 C 1.09302 0.12534 0.65704
 C520 C 1.07536 0.07520 0.60434
 C521 C 1.06578 0.06547 0.58444
 H522 H 1.12718 0.07122 0.68071
 H523 H 1.10729 0.05091 0.64035
 H524 H 1.06909 0.12582 0.62122
 H525 H 1.08898 0.14613 0.66157
 C526 C 0.86955 -0.13225 0.71734
 C527 C 0.87944 -0.12229 0.69768
 C528 C 0.89110 -0.11029 0.67419
 C529 C 0.91129 -0.12370 0.65997
 C530 C 0.92252 -0.11208 0.63707
 C531 C 0.91363 -0.08701 0.62829
 C532 C 0.89347 -0.07358 0.64254
 C533 C 0.88224 -0.08519 0.66544
 C534 C 0.92504 -0.07516 0.60460
 C535 C 0.93459 -0.06535 0.58470
 H536 H 0.91829 -0.14311 0.66656
 H537 H 0.93809 -0.12265 0.62620
 H538 H 0.88643 -0.05419 0.63592
 H539 H 0.86664 -0.07465 0.67628
 C540 C 1.13062 -0.13239 0.28233
 C541 C 1.12078 -0.12247 0.30203
 C542 C 1.10911 -0.11050 0.32551
 C543 C 1.09003 -0.12454 0.34057
 C544 C 1.07876 -0.11290 0.36344
 C545 C 1.08653 -0.08718 0.37132
 C546 C 1.10556 -0.07311 0.35622
 C547 C 1.11684 -0.08475 0.33335
 C548 C 1.07511 -0.07533 0.39498
 C549 C 1.06557 -0.06551 0.41488
 H550 H 1.08392 -0.14446 0.33467
 H551 H 1.06405 -0.12395 0.37498
 H552 H 1.11171 -0.05321 0.36214
 H553 H 1.13158 -0.07372 0.32183
 C554 C 0.86941 0.13232 0.28236
 C555 C 0.87927 0.12244 0.30206
 C556 C 0.89096 0.11052 0.32556
 C557 C 0.89273 0.12518 0.34941
 C558 C 0.90396 0.11356 0.37228
 C559 C 0.91346 0.08722 0.37143
 C560 C 0.91172 0.07256 0.34757
 C561 C 0.90049 0.08419 0.32468
 C562 C 0.92493 0.07530 0.39504
 C563 C 0.93452 0.06548 0.41490
 H564 H 0.88541 0.14554 0.35031
 H565 H 0.90521 0.12507 0.39062
 H566 H 0.91901 0.05218 0.34668
 H567 H 0.89920 0.07267 0.30635
 C568 C 0.13080 0.28270 -0.13170
 C569 C 0.12094 0.30237 -0.12180
 C570 C 0.10928 0.32589 -0.10991
 C571 C 0.08587 0.33703 -0.12074
 C572 C 0.07455 0.35988 -0.10919
 C573 C 0.08659 0.37170 -0.08676
 C574 C 0.10999 0.36054 -0.07591
 C575 C 0.12131 0.33769 -0.08747
 C576 C 0.07507 0.39536 -0.07504
 C577 C 0.06547 0.41524 -0.06533
 H578 H 0.07641 0.32809 -0.13810
 H579 H 0.05646 0.36834 -0.11775
 H580 H 0.11947 0.36951 -0.05858
 H581 H 0.13942 0.32926 -0.07893
 C582 C -0.13092 0.28312 0.13154
 C583 C -0.12104 0.30275 0.12166
 C584 C -0.10935 0.32619 0.10984
 C585 C -0.09504 0.34425 0.12581
 C586 C -0.08375 0.36710 0.11433
 C587 C -0.08672 0.37197 0.08685
 C588 C -0.10101 0.35390 0.07087
 C589 C -0.11231 0.33104 0.08235
 C590 C -0.07524 0.39557 0.07515
 C591 C -0.06564 0.41543 0.06548
 H592 H -0.09267 0.34068 0.14709
 H593 H -0.07276 0.38098 0.12685
 H594 H -0.10344 0.35751 0.04960
 H595 H -0.12336 0.31720 0.06984
 C596 C -0.13065 0.71700 -0.13161
 C597 C -0.12084 0.69735 -0.12170
 C598 C -0.10919 0.67391 -0.10978
 C599 C -0.10045 0.65283 -0.12606
 C600 C -0.08917 0.63001 -0.11448
 C601 C -0.08660 0.62818 -0.08659
 C602 C -0.09534 0.64926 -0.07030
 C603 C -0.10662 0.67209 -0.08188
 C604 C -0.07511 0.60462 -0.07477
 C605 C -0.06550 0.58476 -0.06508
 H606 H -0.10237 0.65403 -0.14765
 H607 H -0.08248 0.61381 -0.12724
 H608 H -0.09346 0.64804 -0.04870
 H609 H -0.11335 0.68828 -0.06912
 C610 C 0.13073 0.71684 0.13154
 C611 C 0.12083 0.69721 0.12171
 C612 C 0.10909 0.67378 0.10991
 C613 C 0.11203 0.66894 0.08241
 C614 C 0.10068 0.64611 0.07094
 C615 C 0.08636 0.62805 0.08694
 C616 C 0.08340 0.63292 0.11443
 C617 C 0.09475 0.65574 0.12590
 C618 C 0.07488 0.60445 0.07524
 C619 C 0.06530 0.58459 0.06556
 H620 H 0.12310 0.68277 0.06989
 H621 H 0.10309 0.64252 0.04966
 H622 H 0.07239 0.61906 0.12697
 H623 H 0.09239 0.65931 0.14719
 C624 C 0.28284 1.13133 0.86876
 C625 C 0.30248 1.12141 0.87868
 C626 C 0.32597 1.10963 0.89044
 C627 C 0.32337 1.08953 0.90980
 C628 C 0.34627 1.07808 0.92121
 C629 C 0.37181 1.08671 0.91327
 C630 C 0.37440 1.10681 0.89392
 C631 C 0.35152 1.11825 0.88252
 C632 C 0.39538 1.07499 0.92493
 C633 C 0.41524 1.06529 0.93460
 H634 H 0.30369 1.08273 0.91605
 H635 H 0.34407 1.06255 0.93618
 H636 H 0.39408 1.11361 0.88767
 H637 H 0.35373 1.13379 0.86756
 C638 C 0.28262 0.86808 1.13068
 C639 C 0.30235 0.87796 1.12090
 C640 C 0.32587 0.88979 1.10926
 C641 C 0.35103 0.88574 1.12110
 C642 C 0.37391 0.89731 1.10981
 C643 C 0.37171 0.91296 1.08666
 C644 C 0.34656 0.91700 1.07479
 C645 C 0.32366 0.90543 1.08609
 C646 C 0.39528 0.92478 1.07510
 C647 C 0.41515 0.93456 1.06550
 H648 H 0.35293 0.87367 1.13903
 H649 H 0.39329 0.89406 1.11911
 H650 H 0.34466 0.92907 1.05687
 H651 H 0.30428 0.90867 1.07680
 C652 C 0.71726 1.13188 1.13085
 C653 C 0.69756 1.12199 1.12102
 C654 C 0.67406 1.11012 1.10935
 C655 C 0.65755 1.09356 1.12485
 C656 C 0.63469 1.08199 1.11353
 C657 C 0.62827 1.08695 1.08666
 C658 C 0.64479 1.10350 1.07114
 C659 C 0.66766 1.11507 1.08247
 C660 C 0.60463 1.07521 1.07512
 C661 C 0.58475 1.06545 1.06554
 H662 H 0.66233 1.08963 1.14566
 H663 H 0.62202 1.06924 1.12569
 H664 H 0.63998 1.10746 1.05034
 H665 H 0.68031 1.12786 1.07033
 C666 C 0.71751 0.86832 0.86914
 C667 C 0.69780 0.87817 0.87900
 C668 C 0.67426 0.88994 0.89073
 C669 C 0.67639 0.90513 0.91421
 C670 C 0.65348 0.91664 0.92557
 C671 C 0.62839 0.91299 0.91346
 C672 C 0.62626 0.89778 0.89000
 C673 C 0.64916 0.88627 0.87865
 C674 C 0.60480 0.92477 0.92508
 C675 C 0.58492 0.93452 0.93471
 H676 H 0.69573 0.90806 0.92369
 H677 H 0.65533 0.92836 0.94373
 H678 H 0.60693 0.89484 0.88052
 H679 H 0.64731 0.87455 0.86049
   
