data_POSCAR
  _audit_creation_date              2014-09-24
  _audit_creation_method            'ToBaCCo'
  _symmetry_space_group_name_H-M    'P1'
  _symmetry_Int_Tables_number       1
  _symmetry_cell_setting            triclinic
  loop_
  _symmetry_equiv_pos_as_xyz
 x,y,z
_cell_length_a 55.0865
_cell_length_b 41.4676
_cell_length_c 21.3221
_cell_angle_alpha 89.899200
_cell_angle_beta 90.150700
_cell_angle_gamma 90.009800
loop_
  _atom_site_label
  _atom_site_type_symbol
  _atom_site_fract_x
  _atom_site_fract_y
  _atom_site_fract_z
C1 C 0.73318 0.27080 0.53284
 C2 C 0.73304 0.26780 0.46632
 C3 C 0.74999 0.24781 0.43671
 C4 C 0.76829 0.23133 0.47010
 C5 C 0.76808 0.23318 0.53714
 C6 C 0.75134 0.25402 0.56643
 H7 H 0.75138 0.25528 0.61718
 H8 H 0.74969 0.24699 0.38587
 C9 C 0.23319 0.77043 0.53205
 C10 C 0.23356 0.76898 0.46564
 C11 C 0.25072 0.74939 0.43585
 C12 C 0.26804 0.73165 0.46985
 C13 C 0.26770 0.73262 0.53673
 C14 C 0.25064 0.75289 0.56620
 H15 H 0.24984 0.75351 0.61695
 H16 H 0.25128 0.74912 0.38500
 C17 C 0.26876 0.26629 -0.52919
 C18 C 0.26643 0.26931 -0.46333
 C19 C 0.24800 0.25252 -0.43215
 C20 C 0.23141 0.23258 -0.46410
 C21 C 0.23214 0.23191 -0.53129
 C22 C 0.25154 0.24771 -0.56187
 H23 H 0.25291 0.24651 -0.61249
 H24 H 0.24735 0.25414 -0.38140
 C25 C -0.23291 0.76971 -0.53254
 C26 C -0.23240 0.76644 -0.46644
 C27 C -0.24924 0.74622 -0.43688
 C28 C -0.26764 0.72996 -0.47048
 C29 C -0.26755 0.73215 -0.53760
 C30 C -0.25081 0.75311 -0.56664
 H31 H -0.25047 0.75471 -0.61738
 H32 H -0.24887 0.74515 -0.38607
 N33 N -0.02630 0.94381 -0.06523
 N34 N -0.04387 0.92255 -0.07367
 N35 N 0.02394 0.96599 -0.11327
 N36 N 0.04056 0.96014 -0.15621
 N37 N 0.02483 0.94423 -0.06850
 N38 N 0.04230 0.92318 -0.07935
 N39 N -0.02697 0.96602 -0.10915
 N40 N -0.04503 0.96061 -0.14850
 C41 C -0.05545 0.93352 -0.12560
 C42 C 0.05197 0.93356 -0.13409
 N43 N 0.02441 1.05825 -0.07265
 N44 N 0.04253 1.07840 -0.08291
 N45 N -0.02711 1.03531 -0.11155
 N46 N -0.04572 1.03927 -0.14987
 N47 N -0.02669 1.05804 -0.06882
 N48 N -0.04501 1.07817 -0.07688
 N49 N 0.02397 1.03551 -0.11541
 N50 N 0.04177 1.03957 -0.15604
 Mn51 Mn -0.00154 1.00073 -0.11302
 C52 C 0.05318 1.06640 -0.13503
 C53 C -0.05672 1.06605 -0.12753
 N54 N 0.02634 0.94525 0.06661
 N55 N 0.04407 0.92436 0.07618
 N56 N -0.02405 0.96762 0.11322
 N57 N -0.04091 0.96247 0.15595
 N58 N -0.02477 0.94517 0.06987
 N59 N -0.04235 0.92437 0.08144
 N60 N 0.02692 0.96812 0.10912
 N61 N 0.04506 0.96347 0.14868
 Mn62 Mn 0.00003 0.94424 0.00073
 C63 C 0.05563 0.93617 0.12732
 C64 C -0.05226 0.93557 0.13516
 N65 N -0.02510 1.05915 0.06614
 N66 N -0.04223 1.08062 0.07751
 N67 N 0.02647 1.03766 0.10701
 N68 N 0.04348 1.04441 0.14862
 N69 N 0.02606 1.05947 0.06228
 N70 N 0.04302 1.08146 0.07186
 N71 N -0.02433 1.03734 0.11087
 N72 N -0.04070 1.04361 0.15428
 Mn73 Mn -0.00033 1.05910 -0.00332
 Mn74 Mn 0.00126 1.00266 0.11069
 Cl75 Cl -0.00014 1.00168 -0.00120
 C76 C -0.05186 1.07047 0.13245
 C77 C 0.05381 1.07154 0.12563
 N78 N 0.52508 0.55816 -0.06819
 N79 N 0.54223 0.57961 -0.07958
 N80 N 0.47360 0.53576 -0.10865
 N81 N 0.45540 0.54055 -0.14786
 N82 N 0.47392 0.55798 -0.06488
 N83 N 0.45587 0.57856 -0.07314
 N84 N 0.52449 0.53617 -0.11242
 N85 N 0.54100 0.54229 -0.15559
 C86 C 0.55204 0.56926 -0.13407
 C87 C 0.44446 0.56722 -0.12500
 N88 N 0.47412 0.44390 -0.06657
 N89 N 0.45618 0.42325 -0.07540
 N90 N 0.52464 0.46646 -0.11336
 N91 N 0.54156 0.46129 -0.15591
 N92 N 0.52524 0.44398 -0.06991
 N93 N 0.54276 0.42308 -0.08135
 N94 N 0.47368 0.46656 -0.10961
 N95 N 0.45543 0.46207 -0.14880
 Mn96 Mn 0.49913 0.50123 -0.11164
 C97 C 0.44466 0.43506 -0.12671
 C98 C 0.55279 0.43429 -0.13501
 N99 N 0.47552 0.55718 0.07021
 N100 N 0.45807 0.57812 0.08173
 N101 N 0.52731 0.53488 0.10974
 N102 N 0.54580 0.53928 0.14825
 N103 N 0.52669 0.55758 0.06676
 N104 N 0.54479 0.57808 0.07486
 N105 N 0.47639 0.53497 0.11417
 N106 N 0.45978 0.54050 0.15738
 Mn107 Mn 0.50029 0.55811 0.00101
 C108 C 0.44839 0.56731 0.13609
 C109 C 0.55655 0.56625 0.12578
 N110 N 0.52668 0.44316 0.06511
 N111 N 0.54445 0.42219 0.07328
 N112 N 0.47642 0.46517 0.11313
 N113 N 0.46009 0.45889 0.15672
 N114 N 0.47562 0.44330 0.06864
 N115 N 0.45855 0.42179 0.08038
 N116 N 0.52740 0.46552 0.10859
 N117 N 0.54573 0.46052 0.14734
 Mn118 Mn 0.50040 0.44322 -0.00069
 Mn119 Mn 0.50188 0.50014 0.11209
 Cl120 Cl 0.50042 0.50067 0.00021
 C121 C 0.55622 0.43349 0.12454
 C122 C 0.44896 0.43195 0.13527
 C123 C 0.32418 0.31192 0.36769
 N124 N 0.32768 0.30409 0.42885
 N125 N 0.31034 0.28919 0.46128
 C126 C 0.28861 0.28205 0.43436
 N127 N 0.28536 0.28942 0.37273
 N128 N 0.30279 0.30399 0.34001
 C129 C 0.34295 0.32941 0.33257
 N130 N 0.34238 0.33052 0.26893
 N131 N 0.35921 0.34685 0.23723
 C132 C 0.37704 0.36302 0.26805
 N133 N 0.37756 0.36200 0.33168
 N134 N 0.36089 0.34538 0.36335
 C135 C 0.39548 0.38129 0.23322
 N136 N 0.40918 0.40396 0.26256
 N137 N 0.42599 0.42045 0.23110
 C138 C 0.42987 0.41463 0.16932
 N139 N 0.41623 0.39190 0.13999
 N140 N 0.39923 0.37567 0.17128
 C141 C -0.17973 0.82036 0.36562
 N142 N -0.20199 0.81488 0.34046
 N143 N -0.21887 0.79911 0.37302
 C144 C -0.21414 0.78805 0.43189
 N145 N -0.19160 0.79291 0.45610
 N146 N -0.17482 0.80904 0.42398
 C147 C -0.16122 0.83826 0.33058
 N148 N -0.14238 0.85234 0.36120
 N149 N -0.12552 0.86865 0.32964
 C150 C -0.12673 0.87111 0.26623
 N151 N -0.14551 0.85689 0.23553
 N152 N -0.16255 0.84094 0.26719
 C153 C -0.10783 0.88849 0.23160
 N154 N -0.10411 0.88263 0.16974
 N155 N -0.08642 0.89772 0.13886
 C156 C -0.07207 0.91951 0.16858
 N157 N -0.07594 0.92562 0.23024
 N158 N -0.09342 0.91023 0.26130
 C159 C 0.68900 0.67635 0.34709
 N160 N 0.69675 0.70586 0.32819
 N161 N 0.71106 0.72355 0.36502
 C162 C 0.71786 0.71277 0.42278
 N163 N 0.71097 0.68256 0.44010
 N164 N 0.69668 0.66482 0.40332
 C165 C 0.67142 0.65806 0.30931
 N166 N 0.66285 0.62926 0.32998
 N167 N 0.64565 0.61369 0.29812
 C168 C 0.63633 0.62635 0.24446
 N169 N 0.64506 0.65501 0.22342
 N170 N 0.66229 0.67059 0.25529
 C171 C 0.61632 0.61005 0.21162
 N172 N 0.60612 0.62328 0.15952
 N173 N 0.58724 0.60915 0.13159
 C174 C 0.57787 0.58133 0.15485
 N175 N 0.58815 0.56800 0.20666
 N176 N 0.60702 0.58211 0.23455
 C177 C 0.17759 1.19267 0.35867
 N178 N 0.19973 1.19904 0.33388
 N179 N 0.21722 1.21185 0.36926
 C180 C 0.21339 1.21862 0.43096
 N181 N 0.19077 1.21362 0.45428
 N182 N 0.17335 1.20052 0.41930
 C183 C 0.15887 1.17595 0.32207
 N184 N 0.14045 1.16064 0.35193
 N185 N 0.12393 1.14413 0.31960
 C186 C 0.12507 1.14258 0.25613
 N187 N 0.14335 1.15817 0.22606
 N188 N 0.16008 1.17439 0.25853
 C189 C 0.10695 1.12386 0.22127
 N190 N 0.10291 1.12925 0.15927
 N191 N 0.08601 1.11251 0.12846
 C192 C 0.07284 1.08952 0.15844
 N193 N 0.07707 1.08394 0.22019
 N194 N 0.09372 1.10092 0.25112
 C195 C 0.68073 0.32036 -0.36630
 N196 N 0.67893 0.31762 -0.42945
 N197 N 0.69572 0.30167 -0.46178
 C198 C 0.71526 0.28816 -0.43293
 N199 N 0.71679 0.29085 -0.36934
 N200 N 0.69990 0.30653 -0.33672
 C201 C 0.66216 0.33797 -0.33085
 N202 N 0.66070 0.33513 -0.26751
 N203 N 0.64361 0.35086 -0.23568
 C204 C 0.62752 0.37024 -0.26599
 N205 N 0.62908 0.37322 -0.32925
 N206 N 0.64602 0.35728 -0.36112
 C207 C 0.60851 0.38739 -0.23123
 N208 N 0.59560 0.41133 -0.25920
 N209 N 0.57805 0.42657 -0.22819
 C210 C 0.57264 0.41821 -0.16828
 N211 N 0.58552 0.39425 -0.14027
 N212 N 0.60322 0.37921 -0.17110
 C213 C 0.17915 0.81877 -0.36552
 N214 N 0.17463 0.80839 -0.42468
 N215 N 0.19169 0.79300 -0.45707
 C216 C 0.21412 0.78800 -0.43225
 N217 N 0.21845 0.79810 -0.37263
 N218 N 0.20130 0.81314 -0.33984
 C219 C 0.16039 0.83599 -0.33022
 N220 N 0.16166 0.83824 -0.26677
 N221 N 0.14453 0.85385 -0.23490
 C222 C 0.12572 0.86812 -0.26546
 N223 N 0.12455 0.86603 -0.32891
 N224 N 0.14151 0.85009 -0.36069
 C225 C 0.10688 0.88548 -0.23074
 N226 N 0.09243 0.90715 -0.26057
 N227 N 0.07513 0.92277 -0.22942
 C228 C 0.07149 0.91698 -0.16752
 N229 N 0.08587 0.89524 -0.13764
 N230 N 0.10337 0.87989 -0.16864
 C231 C 0.31310 0.67741 -0.35139
 N232 N 0.30242 0.70439 -0.32848
 N233 N 0.28753 0.72183 -0.36435
 C234 C 0.28298 0.71337 -0.42494
 N235 N 0.29313 0.68572 -0.44675
 N236 N 0.30795 0.66819 -0.41094
 C237 C 0.33085 0.65933 -0.31369
 N238 N 0.34116 0.63212 -0.33677
 N239 N 0.35826 0.61663 -0.30436
 C240 C 0.36576 0.62781 -0.24773
 N241 N 0.35534 0.65491 -0.22438
 N242 N 0.33818 0.67038 -0.25676
 C243 C 0.38553 0.61149 -0.21389
 N244 N 0.39465 0.62383 -0.15974
 N245 N 0.41329 0.60960 -0.13080
 C246 C 0.42343 0.58252 -0.15503
 N247 N 0.41421 0.57010 -0.20887
 N248 N 0.39563 0.58433 -0.23780
 C249 C -0.18917 1.17620 -0.34784
 N250 N -0.19668 1.20571 -0.32866
 N251 N -0.21073 1.22383 -0.36547
 C252 C -0.21749 1.21345 -0.42347
 N253 N -0.21082 1.18324 -0.44112
 N254 N -0.19678 1.16509 -0.40436
 C255 C -0.17184 1.15754 -0.31003
 N256 N -0.16325 1.12886 -0.33109
 N257 N -0.14614 1.11307 -0.29922
 C258 C -0.13696 1.12540 -0.24520
 N259 N -0.14574 1.15391 -0.22377
 N260 N -0.16286 1.16970 -0.25563
 C261 C -0.11694 1.10909 -0.21253
 N262 N -0.10682 1.12225 -0.16036
 N263 N -0.08780 1.10831 -0.13270
 C264 C -0.07821 1.08075 -0.15631
 N265 N -0.08842 1.06747 -0.20816
 N266 N -0.10743 1.08140 -0.23581
 C267 C 0.67761 0.68699 -0.36681
 N268 N 0.67391 0.69497 -0.42774
 N269 N 0.69140 0.70908 -0.46088
 C270 C 0.71357 0.71506 -0.43529
 N271 N 0.71685 0.70788 -0.37347
 N272 N 0.69929 0.69409 -0.33996
 C273 C 0.65872 0.67008 -0.33128
 N274 N 0.65947 0.66893 -0.26766
 N275 N 0.64250 0.65297 -0.23571
 C276 C 0.62439 0.63725 -0.26632
 N277 N 0.62371 0.63833 -0.32992
 N278 N 0.64050 0.65458 -0.36180
 C279 C 0.60588 0.61926 -0.23148
 N280 N 0.59211 0.59669 -0.26085
 N281 N 0.57518 0.58041 -0.22949
 C282 C 0.57124 0.58639 -0.16782
 N283 N 0.58494 0.60902 -0.13842
 N284 N 0.60208 0.62503 -0.16962
 C285 C 0.18589 1.17598 -0.35590
 N286 N 0.19341 1.16559 -0.41292
 N287 N 0.20832 1.18358 -0.44754
 C288 C 0.21599 1.21294 -0.42717
 N289 N 0.20922 1.22252 -0.36875
 N290 N 0.19434 1.20457 -0.33408
 C291 C 0.16791 1.15753 -0.31980
 N292 N 0.15956 1.16895 -0.26426
 N293 N 0.14218 1.15335 -0.23324
 C294 C 0.13248 1.12576 -0.25661
 N295 N 0.14097 1.11418 -0.31189
 N296 N 0.15836 1.12979 -0.34295
 C297 C 0.11245 1.10954 -0.22385
 N298 N 0.10222 1.08241 -0.24780
 N299 N 0.08346 1.06845 -0.21920
 C300 C 0.07423 1.08117 -0.16571
 N301 N 0.08452 1.10820 -0.14160
 N302 N 0.10328 1.12213 -0.17015
 C303 C 0.31410 0.32364 -0.35245
 N304 N 0.30313 0.33722 -0.40315
 N305 N 0.28779 0.32014 -0.43833
 C306 C 0.28311 0.28876 -0.42443
 N307 N 0.29371 0.27545 -0.37302
 N308 N 0.30897 0.29254 -0.33780
 C309 C 0.33190 0.34176 -0.31523
 N310 N 0.34238 0.32810 -0.26398
 N311 N 0.35935 0.34383 -0.23165
 C312 C 0.36651 0.37377 -0.24950
 N313 N 0.35593 0.38753 -0.30053
 N314 N 0.33890 0.37182 -0.33280
 C315 C 0.38610 0.39038 -0.21577
 N316 N 0.39469 0.41910 -0.23677
 N317 N 0.41318 0.43350 -0.20782
 C318 C 0.42372 0.41973 -0.15680
 N319 N 0.41504 0.39114 -0.13545
 N320 N 0.39656 0.37670 -0.16449
 C321 C -0.18455 0.81888 -0.35213
 N322 N -0.19711 0.83379 -0.39875
 N323 N -0.21248 0.81723 -0.43472
 C324 C -0.21564 0.78505 -0.42594
 N325 N -0.20348 0.77030 -0.37841
 N326 N -0.18816 0.78688 -0.34229
 C327 C -0.16674 0.83683 -0.31449
 N328 N -0.15492 0.82238 -0.26604
 N329 N -0.13807 0.83832 -0.23354
 C330 C -0.13236 0.86925 -0.24849
 N331 N -0.14426 0.88372 -0.29675
 N332 N -0.16117 0.86783 -0.32908
 C333 C -0.11301 0.88641 -0.21471
 N334 N -0.10544 0.91582 -0.23473
 N335 N -0.08726 0.93094 -0.20582
 C336 C -0.07604 0.91726 -0.15567
 N337 N -0.08371 0.88796 -0.13525
 N338 N -0.10185 0.87277 -0.16435
 C339 C 0.32217 0.68518 0.36516
 N340 N 0.32794 0.70118 0.41861
 N341 N 0.31084 0.71626 0.45143
 C342 C 0.28722 0.71517 0.43306
 N343 N 0.28159 0.69980 0.37868
 N344 N 0.29875 0.68511 0.34531
 C345 C 0.34088 0.66764 0.33030
 N346 N 0.33800 0.66125 0.26830
 N347 N 0.35496 0.64503 0.23696
 C348 C 0.37518 0.63417 0.26677
 N349 N 0.37797 0.64038 0.32884
 N350 N 0.36119 0.65700 0.35996
 C351 C 0.39382 0.61620 0.23250
 N352 N 0.40906 0.59588 0.26337
 N353 N 0.42619 0.57981 0.23241
 C354 C 0.42889 0.58386 0.16965
 N355 N 0.41372 0.60426 0.13880
 N356 N 0.39636 0.61996 0.16961
 C357 C -0.17701 1.18839 0.36624
 N358 N -0.17335 1.19600 0.42733
 N359 N -0.19081 1.21011 0.46052
 C360 C -0.21291 1.21647 0.43482
 N361 N -0.21614 1.20966 0.37287
 N362 N -0.19862 1.19587 0.33932
 C363 C -0.15814 1.17150 0.33057
 N364 N -0.15890 1.17053 0.26693
 N365 N -0.14198 1.15459 0.23487
 C366 C -0.12390 1.13870 0.26535
 N367 N -0.12320 1.13960 0.32896
 N368 N -0.13994 1.15582 0.36096
 C369 C -0.10543 1.12069 0.23034
 N370 N -0.09161 1.09811 0.25967
 N371 N -0.07477 1.08180 0.22819
 C372 C -0.07096 1.08771 0.16638
 N373 N -0.08471 1.11035 0.13702
 N374 N -0.10176 1.12642 0.16836
 C375 C 0.68611 0.31956 0.34861
 N376 N 0.70114 0.33528 0.38880
 N377 N 0.71626 0.31887 0.42580
 C378 C 0.71659 0.28613 0.42470
 N379 N 0.70201 0.27045 0.38338
 N380 N 0.68699 0.28687 0.34612
 C381 C 0.66847 0.33748 0.31045
 N382 N 0.65500 0.32218 0.26617
 N383 N 0.63815 0.33812 0.23367
 C384 C 0.63405 0.36990 0.24457
 N385 N 0.64760 0.38524 0.28864
 N386 N 0.66455 0.36934 0.32087
 C387 C 0.61456 0.38701 0.21133
 N388 N 0.60763 0.41692 0.22990
 N389 N 0.58918 0.43187 0.20175
 C390 C 0.57708 0.41752 0.15381
 N391 N 0.58413 0.38776 0.13481
 N392 N 0.60250 0.37271 0.16321
 C393 C 0.18588 0.82272 0.35281
 N394 N 0.19776 0.83690 0.40136
 N395 N 0.21315 0.82000 0.43679
 C396 C 0.21702 0.78818 0.42544
 N397 N 0.20556 0.77422 0.37598
 N398 N 0.19023 0.79115 0.34044
 C399 C 0.16793 0.84084 0.31575
 N400 N 0.15663 0.82688 0.26606
 N401 N 0.13960 0.84278 0.23405
 C402 C 0.13318 0.87319 0.25068
 N403 N 0.14457 0.88722 0.30018
 N404 N 0.16165 0.87135 0.33208
 C405 C 0.11364 0.89016 0.21709
 N406 N 0.10560 0.91927 0.23741
 N407 N 0.08727 0.93409 0.20839
 C408 C 0.07636 0.92038 0.15790
 N409 N 0.08449 0.89139 0.13728
 N410 N 0.10278 0.87653 0.16641
   
