data_POSCAR
  _audit_creation_date              2014-09-24
  _audit_creation_method            'ToBaCCo'
  _symmetry_space_group_name_H-M    'P1'
  _symmetry_Int_Tables_number       1
  _symmetry_cell_setting            triclinic
  loop_
  _symmetry_equiv_pos_as_xyz
 x,y,z
_cell_length_a 30.2985
_cell_length_b 31.1458
_cell_length_c 28.2562
_cell_angle_alpha 88.170800
_cell_angle_beta 87.640700
_cell_angle_gamma 90.892700
loop_
  _atom_site_label
  _atom_site_type_symbol
  _atom_site_fract_x
  _atom_site_fract_y
  _atom_site_fract_z
C1 C 0.18936 0.18707 0.21931
 C2 C 0.16715 0.22037 0.19572
 C3 C 0.18017 0.23390 0.14929
 C4 C 0.21430 0.21274 0.12527
 C5 C 0.23664 0.17886 0.14723
 C6 C 0.22522 0.16769 0.19496
 H7 H 0.13990 0.23625 0.21356
 H8 H 0.22485 0.22446 0.09010
 H9 H 0.24146 0.14063 0.21114
 C10 C -0.18743 0.81245 0.26528
 C11 C -0.17470 0.77539 0.24086
 C12 C -0.19930 0.75998 0.20380
 C13 C -0.23811 0.78087 0.19196
 C14 C -0.25218 0.81775 0.21532
 C15 C -0.22702 0.83273 0.25264
 H16 H -0.14550 0.75807 0.25007
 H17 H -0.25719 0.76851 0.16366
 H18 H -0.23635 0.86198 0.26969
 C19 C -0.16780 0.22247 -0.25491
 C20 C -0.20316 0.20146 -0.22933
 C21 C -0.22772 0.22223 -0.19401
 C22 C -0.21628 0.26458 -0.18329
 C23 C -0.18091 0.28649 -0.20796
 C24 C -0.15754 0.26533 -0.24440
 H25 H -0.21163 0.16843 -0.23659
 H26 H -0.23458 0.28024 -0.15516
 H27 H -0.12846 0.28055 -0.26117
 C28 C 0.19183 0.80338 -0.24312
 C29 C 0.17724 0.76955 -0.21166
 C30 C 0.20118 0.75793 -0.17212
 C31 C 0.24104 0.77908 -0.16393
 C32 C 0.25769 0.81220 -0.19520
 C33 C 0.23284 0.82369 -0.23483
 H34 H 0.14697 0.75185 -0.21675
 H35 H 0.25844 0.77014 -0.13246
 H36 H 0.24382 0.85040 -0.25778
 C37 C 0.18159 1.15707 0.79508
 C38 C 0.22099 1.14882 0.81835
 C39 C 0.23287 1.17223 0.85747
 C40 C 0.20607 1.20561 0.87320
 C41 C 0.16748 1.21553 0.84957
 C42 C 0.15566 1.19154 0.81061
 H43 H 0.24314 1.12405 0.80674
 H44 H 0.21469 1.22311 0.90414
 H45 H 0.12517 1.19909 0.79363
 C46 C 0.80425 0.77793 0.72949
 C47 C 0.76706 0.79763 0.75068
 C48 C 0.74728 0.78138 0.79315
 C49 C 0.76223 0.74308 0.81347
 C50 C 0.79822 0.72112 0.79290
 C51 C 0.81846 0.73881 0.75046
 H52 H 0.75535 0.82797 0.73665
 H53 H 0.74704 0.73280 0.84721
 H54 H 0.84601 0.72210 0.73492
 C55 C 0.20038 0.82028 1.24352
 C56 C 0.17077 0.79004 1.22566
 C57 C 0.18424 0.76238 1.19004
 C58 C 0.22744 0.76522 1.17091
 C59 C 0.25666 0.79722 1.18527
 C60 C 0.24378 0.82312 1.22321
 H61 H 0.13699 0.78733 1.23977
 H62 H 0.23714 0.74456 1.14228
 H63 H 0.26609 0.84850 1.23292
 C64 C 0.78109 1.19064 1.25473
 C65 C 0.74621 1.17811 1.22642
 C66 C 0.73298 1.20454 1.18898
 C67 C 0.75229 1.24515 1.18116
 C68 C 0.78457 1.25994 1.21113
 C69 C 0.79809 1.23308 1.24861
 H70 H 0.73033 1.14687 1.23135
 H71 H 0.74343 1.26451 1.15053
 H72 H 0.82544 1.24361 1.26914
 O73 O 0.54329 0.95591 0.88879
 O74 O 0.48253 0.94506 1.06279
 O75 O 0.59390 0.94528 1.01267
 O76 O 0.45452 0.93711 0.96710
 O77 O 0.55782 0.96736 1.07468
 O78 O 0.46280 0.96980 0.89990
 O79 O 0.41806 0.95631 1.03259
 O80 O 0.60324 0.96776 0.92770
 C81 C 0.58293 0.94844 0.89644
 C82 C 0.44218 0.93357 1.06154
 C83 C 0.58371 0.94101 1.05562
 C84 C 0.44751 0.93833 0.92434
 O85 O 0.48151 1.05254 0.90991
 O86 O 0.53739 1.05117 1.05670
 O87 O 0.60188 1.04887 0.95186
 O88 O 0.40833 0.99830 1.02909
 O89 O 0.46353 1.03804 1.05016
 O90 O 0.56205 1.03848 0.89019
 O91 O 0.43134 1.02073 0.95586
 O92 O 0.60065 1.02694 1.03629
 Co93 Co 0.51310 1.00367 0.90460
 Co94 Co 0.51066 0.99966 1.05446
 Co95 Co 0.59330 0.99713 0.98225
 Co96 Co 0.46127 0.98665 0.99835
 O97 O 0.52312 0.99709 0.97986
 C98 C 0.44329 1.05159 0.92811
 C99 C 0.57794 1.05500 1.05578
 C100 C 0.59276 1.05801 0.91001
 C101 C 0.42211 1.03201 1.05178
 O102 O 0.03144 0.45945 0.09782
 O103 O 0.06528 0.53179 -0.05170
 O104 O 0.00691 0.39972 -0.02815
 O105 O 0.01692 0.59405 0.05450
 O106 O 0.04870 0.45390 -0.05612
 O107 O 0.04005 0.54069 0.10082
 O108 O 0.02984 0.58924 -0.03158
 O109 O 0.05025 0.44148 0.02700
 C110 C 0.05658 0.43967 0.07020
 C111 C 0.06464 0.57163 -0.04714
 C112 C 0.03845 0.41400 -0.05811
 C113 C 0.04197 0.57945 0.08624
 O114 O -0.04371 0.54759 0.10773
 O115 O -0.03474 0.47360 -0.08046
 O116 O -0.02820 0.41828 0.05704
 O117 O -0.05897 0.56455 -0.03693
 O118 O -0.01028 0.55035 -0.08848
 O119 O -0.05629 0.46904 0.09771
 O120 O -0.06963 0.57559 0.04464
 O121 O -0.06148 0.44568 -0.01552
 Co122 Co -0.00689 0.50400 0.09284
 Co123 Co 0.01449 0.50285 -0.06094
 Co124 Co -0.00567 0.44693 0.00466
 Co125 Co -0.01916 0.57519 0.00735
 O126 O -0.00599 0.50974 0.01496
 C127 C -0.07045 0.57178 0.08839
 C128 C -0.06563 0.45344 -0.05825
 C129 C -0.05741 0.43097 0.08534
 C130 C -0.04711 0.56517 -0.07890
 O131 O 1.08309 0.05377 0.45249
 O132 O 0.95130 0.06641 0.54720
 O133 O 0.95643 0.03079 0.39296
 O134 O 1.04776 0.01305 0.59962
 O135 O 0.94268 0.06430 0.45983
 O136 O 1.08541 0.05197 0.54421
 O137 O 0.96830 0.01994 0.60194
 O138 O 1.01702 0.06650 0.43085
 C139 C 1.05725 0.07550 0.42862
 C140 C 0.95509 0.05685 0.59003
 C141 C 0.93324 0.05925 0.41654
 C142 C 1.07296 0.04473 0.58684
 O143 O 1.09635 -0.02914 0.54194
 O144 O 0.91295 -0.01709 0.47106
 O145 O 1.03820 -0.00872 0.40249
 O146 O 0.96218 -0.05921 0.55910
 O147 O 0.91391 -0.01157 0.55700
 O148 O 1.08677 -0.02963 0.45375
 O149 O 1.03921 -0.06673 0.56326
 O150 O 0.96866 -0.04256 0.43506
 Co151 Co 1.08006 0.01134 0.49860
 Co152 Co 0.93732 0.02355 0.50852
 Co153 Co 0.99222 0.01167 0.43828
 Co154 Co 1.00401 -0.02118 0.57534
 O155 O 1.00735 0.00444 0.50666
 C156 C 1.07988 -0.06239 0.56129
 C157 C 0.92878 -0.04544 0.44542
 C158 C 1.07093 -0.03090 0.41332
 C159 C 0.92323 -0.04969 0.56537
 C160 C 1.11203 0.15641 0.31822
 C161 C 1.13877 0.13131 0.34695
 N162 N 1.18237 0.12803 0.33531
 C163 C 1.20041 0.14741 0.29519
 C164 C 1.17351 0.17120 0.26452
 N165 N 1.13000 0.17597 0.27803
 N166 N 1.06793 0.15803 0.32902
 C167 C 1.04925 0.13471 0.36655
 C168 C 1.07593 0.10835 0.39445
 N169 N 1.12021 0.10803 0.38413
 H170 H 1.23549 0.14430 0.28792
 H171 H 1.01384 0.13534 0.37328
 C172 C 0.84666 -0.12096 0.36288
 C173 C 0.89215 -0.12832 0.36327
 N174 N 0.91027 -0.15674 0.33311
 C175 C 0.88522 -0.17789 0.30214
 C176 C 0.83948 -0.16941 0.29988
 N177 N 0.82175 -0.14098 0.33096
 N178 N 0.82838 -0.09272 0.39327
 C179 C 0.85376 -0.07062 0.42315
 C180 C 0.89986 -0.07602 0.42176
 N181 N 0.91784 -0.10524 0.39198
 H182 H 0.90199 -0.19883 0.27788
 H183 H 0.83834 -0.04738 0.44591
 C184 C 0.88621 0.13206 0.68898
 C185 C 0.90899 0.15195 0.64979
 N186 N 0.90680 0.19522 0.64316
 C187 C 0.88285 0.21949 0.67386
 C188 C 0.85843 0.19941 0.71242
 N189 N 0.86102 0.15593 0.71846
 N190 N 0.88953 0.08914 0.69701
 C191 C 0.91404 0.06493 0.66708
 C192 C 0.93516 0.08423 0.62634
 N193 N 0.93216 0.12753 0.61864
 H194 H 0.88140 0.25373 0.66665
 H195 H 0.91520 0.03056 0.67386
 C196 C 1.15997 -0.13464 0.65144
 C197 C 1.11460 -0.14368 0.65049
 N198 N 1.09582 -0.17217 0.68283
 C199 C 1.12005 -0.19156 0.71666
 C200 C 1.16565 -0.18123 0.71941
 N201 N 1.18403 -0.15310 0.68582
 N202 N 1.17891 -0.10587 0.61947
 C203 C 1.15422 -0.08471 0.58743
 C204 C 1.10817 -0.09188 0.58796
 N205 N 1.08957 -0.12182 0.61925
 H206 H 1.10261 -0.21266 0.74225
 H207 H 1.17014 -0.06101 0.56331
 C208 C 0.33139 1.11030 1.12343
 C209 C 0.33030 1.10629 1.07420
 N210 N 0.29938 1.12746 1.04978
 C211 C 0.26926 1.15243 1.07216
 C212 C 0.26905 1.15558 1.12203
 N213 N 0.30042 1.13401 1.14615
 N214 N 0.36332 1.09031 1.14776
 C215 C 0.39397 1.06611 1.12497
 C216 C 0.39179 1.06077 1.07599
 N217 N 0.35993 1.08097 1.05165
 H218 H 0.24443 1.16744 1.05112
 H219 H 0.41896 1.05013 1.14505
 C220 C 0.34929 0.85466 0.87548
 C221 C 0.36951 0.88588 0.84463
 N222 N 0.35502 0.89087 0.80001
 C223 C 0.32058 0.86683 0.78516
 C224 C 0.29855 0.83672 0.81683
 N225 N 0.31444 0.83130 0.86107
 N226 N 0.36377 0.84916 0.91998
 C227 C 0.39701 0.87414 0.93546
 C228 C 0.41630 0.90685 0.90542
 N229 N 0.40226 0.91160 0.86030
 H230 H 0.31089 0.87170 0.74911
 H231 H 0.40725 0.86937 0.97145
 C232 C 0.66575 0.85668 1.12987
 C233 C 0.64566 0.89068 1.15331
 N234 N 0.65701 0.89891 1.19823
 C235 C 0.68823 0.87534 1.22031
 C236 C 0.70991 0.84219 1.19605
 N237 N 0.69716 0.83370 1.15154
 N238 N 0.65533 0.84848 1.08483
 C239 C 0.62651 0.87353 1.06150
 C240 C 0.60747 0.90886 1.08395
 N241 N 0.61709 0.91627 1.12983
 H242 H 0.69598 0.88289 1.25609
 H243 H 0.61980 0.86688 1.02509
 C244 C 0.67780 1.14656 0.83321
 C245 C 0.67534 1.14574 0.88291
 N246 N 0.70253 1.17190 0.90650
 C247 C 0.73255 1.19841 0.88266
 C248 C 0.73634 1.19810 0.83287
 N249 N 0.70853 1.17216 0.80943
 N250 N 0.65042 1.12067 0.80957
 C251 C 0.62114 1.09339 0.83339
 C252 C 0.61982 1.09112 0.88323
 N253 N 0.64693 1.11772 0.90675
 H254 H 0.75448 1.21815 0.90244
 H255 H 0.60034 1.07257 0.81356
 C256 C 0.13011 0.34089 0.13135
 C257 C 0.12103 0.34097 0.08301
 N258 N 0.13125 0.30626 0.05720
 C259 C 0.15017 0.27137 0.07753
 C260 C 0.15899 0.27096 0.12611
 N261 N 0.14869 0.30595 0.15178
 N262 N 0.11911 0.37527 0.15738
 C263 C 0.09834 0.40932 0.13754
 C264 C 0.08775 0.40883 0.08955
 N265 N 0.09989 0.37473 0.06332
 H266 H 0.15752 0.24398 0.05613
 H267 H 0.08859 0.43569 0.15950
 C268 C -0.15343 0.37252 -0.12512
 C269 C -0.12204 0.39736 -0.15216
 N270 N -0.11489 0.38929 -0.19871
 C271 C -0.13612 0.35618 -0.21895
 C272 C -0.16466 0.32854 -0.19087
 N273 N -0.17347 0.33856 -0.14484
 N274 N -0.16053 0.38038 -0.07851
 C275 C -0.13604 0.41052 -0.05713
 C276 C -0.10168 0.43271 -0.08308
 N277 N -0.09643 0.42639 -0.13047
 H278 H -0.12949 0.35095 -0.25617
 H279 H -0.14140 0.41501 -0.01954
 C280 C 0.15904 0.65507 -0.11655
 C281 C 0.12979 0.67001 -0.08116
 N282 N 0.12806 0.71271 -0.07328
 C283 C 0.15349 0.74135 -0.10001
 C284 C 0.18117 0.72677 -0.13698
 N285 N 0.18354 0.68381 -0.14424
 N286 N 0.16029 0.61234 -0.12464
 C287 C 0.13271 0.58400 -0.09993
 C288 C 0.10147 0.59922 -0.06652
 N289 N 0.10135 0.64195 -0.05760
 H290 H 0.15053 0.77538 -0.09408
 H291 H 0.13346 0.55034 -0.10829
 C292 C -0.14199 0.65934 0.17152
 C293 C -0.14482 0.66025 0.12204
 N294 N -0.16710 0.69228 0.10045
 C295 C -0.18632 0.72377 0.12597
 C296 C -0.18261 0.72374 0.17555
 N297 N -0.16051 0.69118 0.19701
 N298 N -0.11921 0.62761 0.19307
 C299 C -0.09824 0.59728 0.16732
 C300 C -0.09944 0.59906 0.11751
 N301 N -0.12322 0.63044 0.09619
 H302 H -0.20272 0.74947 0.10741
 H303 H -0.07940 0.57306 0.18548
 C304 C 1.12011 0.12210 0.69373
 C305 C 1.13686 0.08098 0.68682
 N306 N 1.16836 0.06575 0.71520
 C307 C 1.18421 0.08973 0.75022
 C308 C 1.16739 0.13125 0.75799
 N309 N 1.13535 0.14590 0.72921
 N310 N 1.08883 0.13753 0.66488
 C311 C 1.07351 0.11347 0.62949
 C312 C 1.08984 0.07204 0.62317
 N313 N 1.12110 0.05670 0.65209
 H314 H 1.20811 0.07510 0.77264
 H315 H 1.04839 0.12619 0.60701
 C316 C 0.83761 -0.13508 0.64456
 C317 C 0.87902 -0.14841 0.62770
 N318 N 0.89350 -0.18775 0.64103
 C319 C 0.86915 -0.21400 0.67179
 C320 C 0.82832 -0.19985 0.69156
 N321 N 0.81369 -0.16079 0.67592
 N322 N 0.82320 -0.09546 0.63183
 C323 C 0.84901 -0.06807 0.60385
 C324 C 0.89154 -0.08059 0.58870
 N325 N 0.90520 -0.12086 0.60053
 H326 H 0.88309 -0.24451 0.68128
 H327 H 0.83718 -0.03627 0.59521
 C328 C 1.12327 -0.11678 0.31433
 C329 C 1.15136 -0.09479 0.34379
 N330 N 1.19557 -0.10106 0.33968
 C331 C 1.21306 -0.12818 0.30727
 C332 C 1.18483 -0.15106 0.27799
 N333 N 1.14051 -0.14454 0.28300
 N334 N 1.07924 -0.10962 0.31691
 C335 C 1.06186 -0.08140 0.34789
 C336 C 1.08968 -0.06002 0.37837
 N337 N 1.13394 -0.06735 0.37575
 H338 H 1.24836 -0.13273 0.30596
 H339 H 1.02655 -0.07640 0.34944
 C340 C 0.85432 0.14692 0.34340
 C341 C 0.85200 0.10284 0.33496
 N342 N 0.82425 0.08823 0.30261
 C343 C 0.79895 0.11563 0.27765
 C344 C 0.80225 0.16050 0.28430
 N345 N 0.83010 0.17460 0.31748
 N346 N 0.88143 0.16141 0.37670
 C347 C 0.90661 0.13367 0.40162
 C348 C 0.90545 0.08974 0.39181
 N349 N 0.87805 0.07534 0.35873
 H350 H 0.77907 0.10203 0.25090
 H351 H 0.92813 0.14590 0.42791
 C352 C 0.12467 0.32151 -0.11460
 C353 C 0.08085 0.31064 -0.10040
 N354 N 0.06626 0.26943 -0.10308
 C355 C 0.09353 0.23845 -0.11929
 C356 C 0.13765 0.24893 -0.13274
 N357 N 0.15225 0.29038 -0.13004
 N358 N 0.13882 0.36301 -0.11264
 C359 C 0.11130 0.39403 -0.09659
 C360 C 0.06779 0.38293 -0.08105
 N361 N 0.05373 0.34137 -0.08354
 H362 H 0.08110 0.20579 -0.12114
 H363 H 0.12365 0.42670 -0.09464
 C364 C -0.15111 0.33699 0.13324
 C365 C -0.13488 0.36646 0.16516
 N366 N -0.14666 0.36157 0.21202
 C367 C -0.17348 0.32827 0.22832
 C368 C -0.18947 0.29877 0.19618
 N369 N -0.17795 0.30431 0.14942
 N370 N -0.13795 0.33999 0.08691
 C371 C -0.10874 0.37094 0.07087
 C372 C -0.09225 0.40060 0.10242
 N373 N -0.10591 0.39798 0.14902
 H374 H -0.18197 0.32469 0.26583
 H375 H -0.09789 0.37190 0.03390
 C376 C -0.11946 0.64240 -0.17201
 C377 C -0.13935 0.62421 -0.13035
 N378 N -0.18128 0.63454 -0.11756
 C379 C -0.20380 0.66379 -0.14333
 C380 C -0.18291 0.68523 -0.18345
 N381 N -0.14146 0.67247 -0.19724
 N382 N -0.07744 0.63171 -0.18491
 C383 C -0.05406 0.60447 -0.15720
 C384 C -0.07323 0.58813 -0.11403
 N385 N -0.11574 0.59804 -0.10210
 H386 H -0.23745 0.66975 -0.13183
 H387 H -0.02023 0.59741 -0.16760
 C388 C 0.13345 0.66316 0.14592
 C389 C 0.09339 0.67852 0.12926
 N390 N 0.08343 0.72055 0.13362
 C391 C 0.11177 0.74801 0.15388
 C392 C 0.15219 0.73289 0.16990
 N393 N 0.16215 0.69074 0.16530
 N394 N 0.14278 0.62086 0.14286
 C395 C 0.11381 0.59313 0.12392
 C396 C 0.07402 0.60855 0.10655
 N397 N 0.06485 0.65102 0.10953
 H398 H 0.10327 0.78149 0.15665
 H399 H 0.12197 0.55950 0.12197
 C400 C 0.34571 1.13501 0.87832
 C401 C 0.33908 1.11215 0.92170
 N402 N 0.29949 1.11420 0.94576
 C403 C 0.26585 1.13729 0.92794
 C404 C 0.27159 1.15809 0.88323
 N405 N 0.31162 1.15660 0.85962
 N406 N 0.38519 1.13292 0.85412
 C407 C 0.41812 1.10824 0.87081
 C408 C 0.41083 1.08342 0.91298
 N409 N 0.37145 1.08640 0.93767
 H410 H 0.23408 1.13702 0.94694
 H411 H 0.44893 1.10654 0.85022
 C412 C 0.36476 0.84759 1.14661
 C413 C 0.36058 0.84991 1.09734
 N414 N 0.32598 0.83019 1.07779
 C415 C 0.29425 0.80940 1.10535
 C416 C 0.29631 0.80953 1.15511
 N417 N 0.33213 0.82819 1.17448
 N418 N 0.39922 0.86827 1.16590
 C419 C 0.42858 0.89256 1.13823
 C420 C 0.42198 0.89766 1.08949
 N421 N 0.38854 0.87556 1.07028
 H422 H 0.26604 0.79597 1.08845
 H423 H 0.45441 0.91050 1.15462
 C424 C 0.64074 1.14573 1.13827
 C425 C 0.66026 1.13366 1.09479
 N426 N 0.70086 1.14947 1.08084
 C427 C 0.72338 1.17586 1.10905
 C428 C 0.70500 1.18578 1.15375
 N429 N 0.66392 1.17066 1.16721
 N430 N 0.59995 1.13038 1.15202
 C431 C 0.57808 1.10276 1.12469
 C432 C 0.59860 1.08871 1.08255
 N433 N 0.63915 1.10482 1.06834
 H434 H 0.75642 1.18682 1.09804
 H435 H 0.54583 1.09040 1.13681
 C436 C 0.65616 0.85619 0.82193
 C437 C 0.66493 0.86563 0.86890
 N438 N 0.69829 0.84575 0.89080
 C439 C 0.72381 0.81706 0.86770
 C440 C 0.71618 0.80834 0.82015
 N441 N 0.68240 0.82826 0.79830
 N442 N 0.62215 0.87586 0.80054
 C443 C 0.59686 0.90488 0.82392
 C444 C 0.60678 0.91542 0.87035
 N445 N 0.64053 0.89525 0.89163
 H446 H 0.75092 0.80249 0.88573
 H447 H 0.57020 0.92041 0.80605
   
