data_POSCAR
  _audit_creation_date              2014-09-24
  _audit_creation_method            'ToBaCCo'
  _symmetry_space_group_name_H-M    'P1'
  _symmetry_Int_Tables_number       1
  _symmetry_cell_setting            triclinic
  loop_
  _symmetry_equiv_pos_as_xyz
 x,y,z
_cell_length_a 42.2096
_cell_length_b 41.2497
_cell_length_c 41.2770
_cell_angle_alpha 91.034300
_cell_angle_beta 88.757100
_cell_angle_gamma 89.658100
loop_
  _atom_site_label
  _atom_site_type_symbol
  _atom_site_fract_x
  _atom_site_fract_y
  _atom_site_fract_z
C1 C 0.34813 0.33854 0.30815
 N2 N 0.32457 0.35753 0.29650
 C3 C 0.30220 0.37063 0.31703
 N4 N 0.30396 0.36548 0.34914
 C5 C 0.32735 0.34696 0.36108
 N6 N 0.34938 0.33304 0.34059
 C7 C 0.39720 0.86977 -0.17023
 N8 N 0.39156 0.84744 -0.14690
 C9 C 0.36517 0.84968 -0.12776
 N10 N 0.34466 0.87449 -0.13171
 C11 C 0.34970 0.89662 -0.15506
 N12 N 0.37587 0.89407 -0.17473
 C13 C 0.87343 0.31526 -0.16362
 N14 N 0.85133 0.30935 -0.13994
 C15 C 0.82793 0.33144 -0.13341
 N16 N 0.82652 0.35897 -0.15080
 C17 C 0.84851 0.36519 -0.17420
 N18 N 0.87204 0.34327 -0.18051
 C19 C 0.86457 0.83433 0.32734
 N20 N 0.85782 0.81830 0.35491
 C21 C 0.82755 0.81409 0.36515
 N22 N 0.80359 0.82767 0.34852
 C23 C 0.81011 0.84447 0.32104
 N24 N 0.84063 0.84692 0.30989
 C25 C 0.62084 0.67423 0.31581
 N26 N 0.62888 0.69085 0.34311
 C27 C 0.65059 0.67807 0.36347
 N28 N 0.66394 0.64847 0.35651
 C29 C 0.65519 0.63175 0.32950
 N30 N 0.63389 0.64480 0.30949
 C31 C 0.64948 0.14974 -0.17556
 N32 N 0.67218 0.12816 -0.18563
 C33 C 0.69681 0.12106 -0.16639
 N34 N 0.69826 0.13507 -0.13656
 C35 C 0.67570 0.15662 -0.12615
 N36 N 0.65136 0.16426 -0.14574
 C37 C 0.12040 0.65071 -0.15587
 N38 N 0.13152 0.61991 -0.15651
 C39 C 0.16132 0.61300 -0.14691
 N40 N 0.18002 0.63732 -0.13545
 C41 C 0.16831 0.66822 -0.13340
 N42 N 0.13887 0.67480 -0.14435
 C43 C 0.13295 0.19478 0.34645
 N44 N 0.14496 0.16497 0.33718
 C45 C 0.17056 0.15281 0.35320
 N46 N 0.18379 0.17063 0.37746
 C47 C 0.17192 0.19998 0.38622
 N48 N 0.14662 0.21154 0.37088
 C49 C 0.65721 0.32375 0.66824
 N50 N 0.67918 0.34613 0.67670
 C51 C 0.70006 0.35760 0.65442
 N52 N 0.69876 0.34700 0.62341
 C53 C 0.67718 0.32464 0.61440
 N54 N 0.65611 0.31279 0.63679
 C55 C 0.58254 0.85528 1.16014
 N56 N 0.59470 0.83237 1.13928
 C57 C 0.62210 0.83791 1.12245
 N58 N 0.63767 0.86641 1.12691
 C59 C 0.62491 0.88963 1.14711
 N60 N 0.59754 0.88389 1.16356
 C61 C 0.10273 0.34698 1.16495
 N62 N 0.12238 0.32474 1.15048
 C63 C 0.15060 0.33394 1.13712
 N64 N 0.15989 0.36551 1.13962
 C65 C 0.13993 0.38791 1.15386
 N66 N 0.11132 0.37848 1.16573
 C67 C 0.14232 0.82874 0.69932
 N68 N 0.16171 0.85447 0.70401
 C69 C 0.18730 0.85892 0.68402
 N70 N 0.19350 0.83726 0.65930
 C71 C 0.17413 0.81141 0.65466
 N72 N 0.14868 0.80740 0.67467
 C73 C 0.36703 0.68704 0.70360
 N74 N 0.35787 0.68978 0.67225
 C75 C 0.33915 0.66634 0.65893
 N76 N 0.33009 0.64044 0.67694
 C77 C 0.33917 0.63797 0.70811
 N78 N 0.35747 0.66132 0.72112
 C79 C 0.35647 0.14668 1.18355
 N80 N 0.35364 0.16494 1.15687
 C81 C 0.32780 0.16291 1.13818
 N82 N 0.30416 0.14203 1.14623
 C83 C 0.30687 0.12309 1.17285
 N84 N 0.33303 0.12568 1.19153
 C85 C 0.86229 0.68701 1.16177
 N86 N 0.84141 0.69154 1.13762
 C87 C 0.81664 0.67091 1.13379
 N88 N 0.81278 0.64573 1.15428
 C89 C 0.83337 0.64116 1.17864
 N90 N 0.85804 0.66189 1.18225
 C91 C 0.88417 0.17758 0.62916
 N92 N 0.86762 0.15300 0.64347
 C93 C 0.84073 0.14174 0.62904
 N94 N 0.83066 0.15546 0.60138
 C95 C 0.84728 0.17935 0.58730
 N96 N 0.87388 0.19004 0.60112
 C97 C 0.35801 0.37850 0.67207
 N98 N 0.35492 0.36059 0.64443
 C99 C 0.37543 0.33599 0.63701
 N100 N 0.39922 0.32937 0.65735
 C101 C 0.40257 0.34717 0.68503
 N102 N 0.38179 0.37163 0.69257
 C103 C 0.29589 0.86796 0.17344
 N104 N 0.31529 0.85500 0.19567
 C105 C 0.33657 0.83145 0.18668
 N106 N 0.33864 0.82110 0.15522
 C107 C 0.31936 0.83423 0.13300
 N108 N 0.29815 0.85761 0.14216
 C109 C 0.84125 0.36792 0.17930
 N110 N 0.86231 0.34374 0.18454
 C111 C 0.86438 0.31759 0.16407
 N112 N 0.84503 0.31566 0.13815
 C113 C 0.82375 0.33987 0.13284
 N114 N 0.82195 0.36582 0.15351
 C115 C 0.84479 0.86526 0.64018
 N116 N 0.83591 0.84136 0.61943
 C117 C 0.85071 0.81200 0.61928
 N118 N 0.87454 0.80653 0.64034
 C119 C 0.88341 0.83058 0.66128
 N120 N 0.86835 0.85967 0.66112
 C121 C 0.65846 0.60906 0.66722
 N122 N 0.67147 0.62860 0.64409
 C123 C 0.65718 0.65763 0.63800
 N124 N 0.63090 0.66686 0.65532
 C125 C 0.61821 0.64763 0.67819
 N126 N 0.63192 0.61873 0.68395
 C127 C 0.67918 0.13274 0.17277
 N128 N 0.65294 0.13608 0.19250
 C129 C 0.63131 0.15986 0.18696
 N130 N 0.63618 0.18011 0.16192
 C131 C 0.66227 0.17715 0.14243
 N132 N 0.68376 0.15339 0.14780
 C133 C 0.18007 0.65316 0.15129
 N134 N 0.15299 0.65803 0.16902
 C135 C 0.13264 0.68226 0.16167
 N136 N 0.13939 0.70172 0.13624
 C137 C 0.16632 0.69667 0.11810
 N138 N 0.18661 0.67242 0.12576
 C139 C 0.17075 0.12783 0.65994
 N140 N 0.19465 0.13731 0.63993
 C141 C 0.19287 0.16612 0.62471
 N142 N 0.16721 0.18578 0.63000
 C143 C 0.14326 0.17634 0.65022
 N144 N 0.14513 0.14734 0.66500
 C145 C 0.33369 0.60085 0.34328
 N146 N 0.35994 0.60907 0.32601
 C147 C 0.37588 0.63635 0.33324
 N148 N 0.36576 0.65550 0.35829
 C149 C 0.33974 0.64755 0.37627
 N150 N 0.32315 0.62020 0.36855
 C151 C 0.32591 0.14950 0.83514
 N152 N 0.32110 0.17015 0.86072
 C153 C 0.34283 0.19310 0.86806
 N154 N 0.36978 0.19541 0.84957
 C155 C 0.37495 0.17470 0.82392
 N156 N 0.35290 0.15181 0.81675
 C157 C 0.81638 0.63524 0.84092
 N158 N 0.84183 0.64183 0.82170
 C159 C 0.86049 0.66755 0.82830
 N160 N 0.85359 0.68704 0.85441
 C161 C 0.82798 0.68073 0.87376
 N162 N 0.80936 0.65477 0.86695
 C163 C 0.84485 0.08812 0.32343
 N164 N 0.87357 0.10172 0.31928
 C165 C 0.87904 0.13240 0.32994
 N166 N 0.85536 0.14982 0.34537
 C167 C 0.82645 0.13576 0.35013
 N168 N 0.82139 0.10523 0.33870
 C169 C 0.65866 0.36804 0.32056
 N170 N 0.63378 0.36483 0.30015
 C171 C 0.61246 0.34045 0.30511
 N172 N 0.61647 0.31949 0.32970
 C173 C 0.64128 0.32244 0.34947
 N174 N 0.66211 0.34674 0.34488
 C175 C 0.70702 0.87542 0.82060
 N176 N 0.68441 0.86417 0.80053
 C177 C 0.66199 0.84323 0.81151
 N178 N 0.66211 0.83370 0.84301
 C179 C 0.68466 0.84536 0.86318
 N180 N 0.70684 0.86613 0.85183
 C181 C 0.16433 0.35347 0.83123
 N182 N 0.17570 0.35118 0.86182
 C183 C 0.16282 0.32929 0.88252
 N184 N 0.13926 0.30964 0.87251
 C185 C 0.12823 0.31144 0.84213
 N186 N 0.14057 0.33358 0.82158
 C187 C 0.16604 0.85963 0.35983
 N188 N 0.13873 0.85166 0.34435
 C189 C 0.12257 0.82462 0.35320
 N190 N 0.13374 0.80610 0.37720
 C191 C 0.16095 0.81329 0.39231
 N192 N 0.17712 0.84027 0.38373
 O193 O 0.25807 0.96859 0.25096
 O194 O 0.23385 1.03488 0.30675
 O195 O 0.23636 0.97179 0.30988
 O196 O 0.26228 1.03160 0.25059
 O197 O 0.21475 1.03256 0.22925
 O198 O 0.18880 0.97062 0.28883
 O199 O 0.18681 1.03762 0.28458
 O200 O 0.21143 0.97147 0.22783
 Cu201 Cu 0.25224 1.00171 0.28176
 Cu202 Cu 0.19533 1.00238 0.25680
 C203 C 0.23884 0.95886 0.22965
 C204 C 0.20672 1.04819 0.30475
 C205 C 0.20874 0.96009 0.30897
 C206 C 0.24331 1.04237 0.22986
 O207 O 0.29454 0.46038 0.75737
 O208 O 0.24699 0.51069 0.81638
 O209 O 0.24567 0.45054 0.79636
 O210 O 0.29564 0.52116 0.77761
 O211 O 0.26379 0.53499 0.73837
 O212 O 0.21464 0.46359 0.75615
 O213 O 0.21503 0.52309 0.77670
 O214 O 0.26275 0.47506 0.71839
 Cu215 Cu 0.27413 0.48440 0.79078
 Cu216 Cu 0.23592 0.50071 0.74353
 C217 C 0.28650 0.45916 0.72782
 C218 C 0.22232 0.52476 0.80633
 C219 C 0.22148 0.44511 0.77933
 C220 C 0.28830 0.54007 0.75496
 O221 O 0.73195 -0.05207 0.27345
 O222 O 0.71910 0.02696 0.23632
 O223 O 0.69512 -0.02843 0.22838
 O224 O 0.75965 0.00492 0.27608
 O225 O 0.79381 -0.00901 0.23688
 O226 O 0.72942 -0.04520 0.19039
 O227 O 0.75255 0.01294 0.19648
 O228 O 0.76780 -0.06548 0.23574
 Cu229 Cu 0.72312 -0.01140 0.25782
 Cu230 Cu 0.76425 -0.02829 0.21093
 C231 C 0.75248 -0.07181 0.26170
 C232 C 0.73304 0.03317 0.20966
 C233 C 0.70115 -0.04155 0.20088
 C234 C 0.78767 0.00437 0.26419
 O235 O 0.71685 0.50802 0.74124
 O236 O 0.77617 0.45955 0.78309
 O237 O 0.75133 0.51785 0.79304
 O238 O 0.73778 0.45008 0.73684
 O239 O 0.77357 0.46931 0.70245
 O240 O 0.78955 0.53560 0.76073
 O241 O 0.81305 0.47702 0.74904
 O242 O 0.75405 0.52894 0.70965
 Cu243 Cu 0.74194 0.48253 0.76727
 Cu244 Cu 0.78647 0.50482 0.72739
 C245 C 0.72509 0.52607 0.71790
 C246 C 0.80452 0.45878 0.77205
 C247 C 0.77281 0.53820 0.78666
 C248 C 0.75286 0.44830 0.70997
 O249 O 0.22226 0.47608 0.27009
 O250 O 0.21055 0.55173 0.22550
 O251 O 0.18708 0.49409 0.22237
 O252 O 0.24063 0.53545 0.27777
 O253 O 0.28102 0.51856 0.24684
 O254 O 0.22673 0.47799 0.19007
 O255 O 0.25091 0.53775 0.19326
 O256 O 0.26179 0.46185 0.23668
 Cu257 Cu 0.21110 0.51583 0.25199
 Cu258 Cu 0.25907 0.49873 0.21286
 C259 C 0.24435 0.45640 0.26132
 C260 C 0.22872 0.55732 0.20134
 C261 C 0.19731 0.47866 0.19742
 C262 C 0.27018 0.53255 0.27257
 O263 O 0.74518 0.97188 0.74237
 O264 O 0.76727 1.03875 0.68944
 O265 O 0.76847 0.97611 0.68419
 O266 O 0.74156 1.03471 0.74686
 O267 O 0.78935 1.03561 0.76765
 O268 O 0.81633 0.97660 0.70481
 O269 O 0.81526 1.04065 0.70961
 O270 O 0.79294 0.97321 0.76322
 Cu271 Cu 0.75085 1.00545 0.71362
 Cu272 Cu 0.80846 1.00674 0.73817
 C273 C 0.76534 0.96116 0.76196
 C274 C 0.79469 1.05115 0.69033
 C275 C 0.79681 0.96580 0.68426
 C276 C 0.76059 1.04486 0.76810
 O277 O 0.77008 0.53591 0.22414
 O278 O 0.72461 0.46703 0.25922
 O279 O 0.71777 0.52856 0.25991
 O280 O 0.77622 0.47181 0.22465
 O281 O 0.80409 0.47550 0.26920
 O282 O 0.74641 0.53548 0.30363
 O283 O 0.75237 0.47306 0.30367
 O284 O 0.79861 0.53869 0.26826
 Cu285 Cu 0.74470 0.50088 0.23715
 Cu286 Cu 0.77834 0.50631 0.29047
 C287 C 0.79222 0.54881 0.24033
 C288 C 0.73081 0.45878 0.28797
 C289 C 0.72146 0.54092 0.28791
 C290 C 0.79950 0.46294 0.24136
 O291 O 0.25983 -0.02508 0.71772
 O292 O 0.28262 0.04749 0.76402
 O293 O 0.29058 -0.01482 0.77160
 O294 O 0.24146 0.03597 0.71853
 O295 O 0.19991 0.02586 0.75017
 O296 O 0.24823 -0.02105 0.80329
 O297 O 0.24070 0.04176 0.79621
 O298 O 0.21894 -0.03302 0.75080
 Cu299 Cu 0.27269 0.01152 0.73964
 Cu300 Cu 0.22344 0.00353 0.77834
 C301 C 0.23598 -0.04165 0.72622
 C302 C 0.26578 0.05698 0.78816
 C303 C 0.27724 -0.02632 0.79691
 C304 C 0.21198 0.03920 0.72557
 O305 O 0.21829 0.25071 1.04157
 O306 O 0.27103 0.23005 0.97212
 O307 O 0.26736 0.21719 1.03592
 O308 O 0.21573 0.26229 0.98231
 O309 O 0.24542 0.30606 0.98658
 O310 O 0.29594 0.26141 1.04268
 O311 O 0.29911 0.27414 0.98090
 O312 O 0.24424 0.29652 1.04903
 Cu313 Cu 0.24132 0.23543 1.00581
 Cu314 Cu 0.27410 0.28898 1.01556
 C315 C 0.22213 0.27723 1.05706
 C316 C 0.29418 0.24825 0.96478
 C317 C 0.28997 0.23202 1.04928
 C318 C 0.22122 0.29170 0.97575
 O319 O 0.24185 0.76716 0.48776
 O320 O 0.29338 0.72818 0.54930
 O321 O 0.29403 0.73207 0.48534
 O322 O 0.24281 0.76455 0.55123
 O323 O 0.21500 0.71940 0.54942
 O324 O 0.26480 0.68809 0.48076
 O325 O 0.26569 0.68329 0.54356
 O326 O 0.21326 0.72254 0.48690
 Cu327 Cu 0.27106 0.75238 0.51852
 Cu328 Cu 0.23688 0.69894 0.51493
 C329 C 0.21830 0.75113 0.47735
 C330 C 0.28797 0.69882 0.55673
 C331 C 0.28815 0.70511 0.47147
 C332 C 0.22028 0.74725 0.56185
 O333 O 0.30524 0.75373 -0.04099
 O334 O 0.24298 0.72851 0.01733
 O335 O 0.25132 0.72174 -0.04615
 O336 O 0.29599 0.75959 0.02114
 O337 O 0.27084 0.80580 0.01295
 O338 O 0.22639 0.76832 -0.05246
 O339 O 0.21746 0.77468 0.01045
 O340 O 0.27900 0.79951 -0.04784
 Cu341 Cu 0.27623 0.73598 -0.01168
 Cu342 Cu 0.24551 0.79148 -0.01995
 C343 C 0.30300 0.78148 -0.05365
 C344 C 0.22007 0.74767 0.02440
 C345 C 0.23135 0.73899 -0.06090
 C346 C 0.29127 0.78946 0.02783
 O347 O 0.31539 0.27075 0.46620
 O348 O 0.28403 0.21478 0.52696
 O349 O 0.26670 0.23227 0.46955
 O350 O 0.32985 0.25709 0.52598
 O351 O 0.29742 0.29459 0.54675
 O352 O 0.23677 0.27223 0.48966
 O353 O 0.25150 0.25283 0.54649
 O354 O 0.28552 0.30991 0.48798
 Cu355 Cu 0.30222 0.23980 0.49518
 Cu356 Cu 0.26477 0.28625 0.51980
 C357 C 0.30580 0.29994 0.46681
 C358 C 0.26211 0.22394 0.54660
 C359 C 0.24094 0.24854 0.47009
 C360 C 0.32400 0.28022 0.54612
 O361 O 0.72971 0.80188 0.98491
 O362 O 0.76370 0.74694 1.04401
 O363 O 0.77703 0.76102 0.98385
 O364 O 0.71588 0.78770 1.04395
 O365 O 0.68418 0.74928 1.02595
 O366 O 0.74579 0.72148 0.96751
 O367 O 0.73150 0.70827 1.02766
 O368 O 0.69925 0.76285 0.96594
 Cu369 Cu 0.74983 0.77818 1.01594
 Cu370 Cu 0.71202 0.73149 0.99515
 C371 C 0.70896 0.79195 0.96533
 C372 C 0.75326 0.71825 1.04611
 C373 C 0.77175 0.73675 0.96539
 C374 C 0.68936 0.77330 1.04473
 O375 O 0.78270 0.24969 0.48573
 O376 O 0.72104 0.27284 0.43128
 O377 O 0.73073 0.28479 0.49135
 O378 O 0.76819 0.23206 0.42754
 O379 O 0.73639 0.19292 0.44370
 O380 O 0.70325 0.24347 0.51006
 O381 O 0.68958 0.23415 0.44915
 O382 O 0.75447 0.20795 0.50223
 Cu383 Cu 0.75365 0.26386 0.45748
 Cu384 Cu 0.71806 0.21545 0.47800
 C385 C 0.77972 0.22471 0.50274
 C386 C 0.69475 0.25830 0.43103
 C387 C 0.71056 0.27316 0.51135
 C388 C 0.75786 0.20328 0.42465
 O389 O 0.73270 0.30801 0.02969
 O390 O 0.69381 0.25157 -0.02808
 O391 O 0.68973 0.26384 0.03355
 O392 O 0.73138 0.30148 -0.03328
 O393 O 0.77146 0.26715 -0.03015
 O394 O 0.72929 0.22943 0.04014
 O395 O 0.73342 0.21722 -0.02156
 O396 O 0.77263 0.27354 0.03331
 Cu397 Cu 0.70820 0.28473 -0.00023
 Cu398 Cu 0.75576 0.24342 0.00567
 C399 C 0.75910 0.29992 0.04172
 C400 C 0.70694 0.22409 -0.03358
 C401 C 0.70199 0.24057 0.04849
 C402 C 0.75818 0.29130 -0.04334
 O403 O 0.70436 0.74825 0.47535
 O404 O 0.76609 0.77034 0.53290
 O405 O 0.75977 0.77346 0.47059
 O406 O 0.71044 0.74406 0.53789
 O407 O 0.73057 0.69472 0.53224
 O408 O 0.78252 0.72514 0.46640
 O409 O 0.78672 0.72108 0.52871
 O410 O 0.72603 0.69974 0.46820
 Cu411 Cu 0.73291 0.76378 0.50495
 Cu412 Cu 0.75837 0.70508 0.49830
 C413 C 0.70520 0.72075 0.46109
 C414 C 0.78693 0.74971 0.54066
 C415 C 0.77987 0.75426 0.45723
 C416 C 0.71201 0.71480 0.54676
 O417 O 0.96858 0.23163 0.20621
 O418 O 1.03731 0.21294 0.25810
 O419 O 0.97938 0.19334 0.25630
 O420 O 1.02551 0.25576 0.21401
 O421 O 1.00444 0.29257 0.24771
 O422 O 0.95798 0.23046 0.28939
 O423 O 1.01818 0.24986 0.29271
 O424 O 0.95091 0.26825 0.24196
 Cu425 Cu 1.00414 0.21958 0.22983
 Cu426 Cu 0.98199 0.26335 0.27211
 C427 C 0.94867 0.25362 0.21483
 C428 C 1.03923 0.22892 0.28454
 C429 C 0.96124 0.20114 0.28024
 C430 C 1.02257 0.28507 0.22379
 O431 O 0.49389 0.26456 0.71982
 O432 O 0.54954 0.20072 0.74392
 O433 O 0.48748 0.20642 0.74292
 O434 O 0.55477 0.25458 0.71291
 O435 O 0.55845 0.27726 0.76154
 O436 O 0.48903 0.23056 0.79102
 O437 O 0.55129 0.22339 0.79271
 O438 O 0.49776 0.28803 0.76809
 Cu439 Cu 0.52093 0.22912 0.72520
 Cu440 Cu 0.52453 0.25695 0.78315
 C441 C 0.48647 0.28726 0.73994
 C442 C 0.56040 0.20170 0.77242
 C443 C 0.47622 0.21059 0.77145
 C444 C 0.56836 0.27395 0.73224
 O445 O 0.03322 0.22625 0.78161
 O446 O -0.02474 0.20070 0.72063
 O447 O 0.03736 0.20559 0.72161
 O448 O -0.02837 0.22661 0.77919
 O449 O -0.02826 0.27631 0.76022
 O450 O 0.03681 0.25557 0.70323
 O451 O -0.02367 0.25048 0.70184
 O452 O 0.03364 0.27590 0.76240
 Cu453 Cu 0.00433 0.20976 0.75263
 Cu454 Cu 0.00422 0.26959 0.73024
 C455 C 0.04351 0.25511 0.78219
 C456 C -0.03356 0.22147 0.70037
 C457 C 0.04840 0.22716 0.70280
 C458 C -0.03933 0.25539 0.77948
 O459 O 0.45133 0.27550 0.22897
 O460 O 0.51971 0.22116 0.21189
 O461 O 0.45773 0.21564 0.20968
 O462 O 0.51265 0.28221 0.22681
 O463 O 0.51307 0.26717 0.27787
 O464 O 0.45684 0.20118 0.26093
 O465 O 0.51869 0.20572 0.26284
 O466 O 0.45124 0.26146 0.28034
 Cu467 Cu 0.48531 0.24985 0.21419
 Cu468 Cu 0.48501 0.23249 0.27563
 C469 C 0.43958 0.27771 0.25757
 C470 C 0.53107 0.20440 0.23453
 C471 C 0.44732 0.19764 0.23211
 C472 C 0.52258 0.28574 0.25538
 O473 O 0.97704 0.75999 0.71652
 O474 O 1.02841 0.70299 0.75762
 O475 O 0.97057 0.70983 0.74916
 O476 O 1.03941 0.76093 0.73019
 O477 O 1.03192 0.78881 0.77586
 O478 O 0.96411 0.73705 0.79548
 O479 O 1.02523 0.73237 0.80290
 O480 O 0.97199 0.78917 0.76178
 Cu481 Cu 1.00584 0.73173 0.73357
 Cu482 Cu 0.99769 0.76470 0.78858
 C483 C 0.96500 0.78382 0.73231
 C484 C 1.03511 0.70736 0.78715
 C485 C 0.95566 0.71485 0.77587
 C486 C 1.04733 0.78361 0.74964
 O487 O 0.49880 0.79732 0.25430
 O488 O 0.45724 0.72787 0.29016
 O489 O 0.51648 0.74474 0.28384
 O490 O 0.44001 0.78334 0.26708
 O491 O 0.43948 0.75964 0.21868
 O492 O 0.51591 0.72039 0.23575
 O493 O 0.45718 0.70386 0.24187
 O494 O 0.49858 0.77215 0.20659
 Cu495 Cu 0.47818 0.76578 0.27869
 Cu496 Cu 0.47765 0.73654 0.22096
 C497 C 0.50591 0.79625 0.22420
 C498 C 0.45033 0.70393 0.27185
 C499 C 0.52915 0.72579 0.26270
 C500 C 0.42687 0.77848 0.24012
 O501 O -0.02545 0.81227 0.24684
 O502 O 0.03363 0.75657 0.20774
 O503 O -0.02780 0.76904 0.19928
 O504 O 0.03335 0.79836 0.25693
 O505 O 0.01791 0.75970 0.28997
 O506 O -0.04055 0.72988 0.23276
 O507 O 0.01969 0.71832 0.24183
 O508 O -0.03951 0.77273 0.27953
 Cu509 Cu 0.00486 0.78763 0.22379
 Cu510 Cu -0.01199 0.74104 0.26397
 C511 C -0.04172 0.80193 0.27068
 C512 C 0.03720 0.72824 0.21876
 C513 C -0.04490 0.74476 0.20664
 C514 C 0.03481 0.78434 0.28412
 O515 O 0.47394 0.74379 0.76850
 O516 O 0.55204 0.77961 0.78420
 O517 O 0.49321 0.79713 0.79211
 O518 O 0.53239 0.72292 0.76281
 O519 O 0.53514 0.74261 0.71344
 O520 O 0.49216 0.81610 0.74241
 O521 O 0.55212 0.79972 0.73500
 O522 O 0.47557 0.76065 0.71798
 Cu523 Cu 0.51310 0.75874 0.78178
 Cu524 Cu 0.51418 0.78169 0.72216
 C525 C 0.46117 0.74658 0.74105
 C526 C 0.56513 0.79640 0.76222
 C527 C 0.48459 0.81845 0.77234
 C528 C 0.54072 0.72013 0.73324
 N529 N 0.39820 0.31479 0.24101
 N530 N 0.37358 0.33108 0.25354
 C531 C 0.37231 0.32478 0.28549
 C532 C 0.39708 0.30402 0.29221
 N533 N 0.41263 0.29843 0.26377
 H534 H 0.40307 0.29388 0.31532
 N535 N 0.45369 0.86843 0.76685
 N536 N 0.42923 0.88288 0.78202
 C537 C 0.42348 0.86598 0.80922
 C538 C 0.44543 0.84146 0.81068
 N539 N 0.46370 0.84361 0.78388
 H540 H 0.44626 0.82208 0.82803
 N541 N -0.07690 0.24557 0.82416
 N542 N -0.10020 0.26099 0.84026
 C543 C -0.10240 0.29075 0.82742
 C544 C -0.07984 0.29311 0.80300
 N545 N -0.06449 0.26449 0.80170
 H546 H -0.07547 0.31338 0.78723
 N547 N -0.05419 0.82760 0.32130
 N548 N -0.08006 0.83522 0.33833
 C549 C -0.10398 0.83630 0.31732
 C550 C -0.09183 0.82915 0.28661
 N551 N -0.06060 0.82360 0.29027
 H552 H -0.10512 0.82268 0.26531
 N553 N 0.57235 0.68911 0.24837
 N554 N 0.59688 0.67501 0.26179
 C555 C 0.59853 0.68699 0.29232
 C556 C 0.57410 0.70910 0.29729
 N557 N 0.55829 0.70953 0.26922
 H558 H 0.56741 0.72205 0.31946
 N559 N 0.59674 0.15681 0.76110
 N560 N 0.62142 0.14268 0.77437
 C561 C 0.62484 0.15679 0.80384
 C562 C 0.60128 0.17980 0.80842
 N563 N 0.58437 0.17909 0.78115
 H564 H 0.59780 0.19654 0.82872
 N565 N 1.05229 0.65204 0.79533
 N566 N 1.07445 0.63597 0.81072
 C567 C 1.09042 0.65801 0.82840
 C568 C 1.07719 0.68822 0.82356
 N569 N 1.05356 0.68333 0.80273
 H570 H 1.08540 0.71157 0.83222
 N571 N 1.07096 0.24679 0.32853
 N572 N 1.09576 0.23834 0.34527
 C573 C 1.10668 0.20981 0.33289
 C574 C 1.08741 0.20093 0.30726
 N575 N 1.06541 0.22496 0.30561
 H576 H 1.08896 0.17948 0.29181
 N577 N 0.61145 0.31161 0.74062
 N578 N 0.63528 0.32489 0.72441
 C579 C 0.63447 0.31335 0.69364
 C580 C 0.60907 0.29236 0.69147
 N581 N 0.59537 0.29206 0.72138
 H582 H 0.60126 0.27889 0.67039
 N583 N 0.52659 0.85123 0.22293
 N584 N 0.54713 0.86810 0.20544
 C585 C 0.55722 0.84843 0.18076
 C586 C 0.54198 0.81925 0.18327
 N587 N 0.52335 0.82193 0.20995
 H588 H 0.54580 0.79742 0.16869
 N589 N 1.03482 0.34140 0.21373
 N590 N 1.05604 0.35888 0.19786
 C591 C 1.07523 0.33779 0.18141
 C592 C 1.06493 0.30670 0.18744
 N593 N 1.03983 0.31012 0.20791
 H594 H 1.07567 0.28395 0.17943
 N595 N 1.08237 0.82953 0.75883
 N596 N 1.10816 0.84256 0.74571
 C597 C 1.11623 0.82384 0.71966
 C598 C 1.09462 0.79905 0.71711
 N599 N 1.07396 0.80348 0.74195
 H600 H 1.09406 0.77959 0.69916
 N601 N 0.40961 0.73142 0.76181
 N602 N 0.38354 0.71689 0.75226
 C603 C 0.38686 0.71102 0.72011
 C604 C 0.41628 0.72241 0.71016
 N605 N 0.42966 0.73475 0.73708
 H606 H 0.42800 0.71901 0.68675
 N607 N 0.41144 0.15303 0.24537
 N608 N 0.38634 0.13860 0.23277
 C609 C 0.38228 0.15170 0.20341
 C610 C 0.40581 0.17410 0.19823
 N611 N 0.42336 0.17437 0.22490
 H612 H 0.40858 0.19032 0.17802
 N613 N -0.07846 0.74882 0.15907
 N614 N -0.10344 0.73415 0.14655
 C615 C -0.11087 0.70935 0.16617
 C616 C -0.08959 0.70927 0.19106
 N617 N -0.06979 0.73420 0.18580
 H618 H -0.08896 0.69306 0.21139
 N619 N -0.05385 0.22923 0.64733
 N620 N -0.07537 0.21769 0.62766
 C621 C -0.08964 0.19271 0.64265
 C622 C -0.07567 0.18894 0.67251
 N623 N -0.05363 0.21256 0.67432
 H624 H -0.08188 0.17215 0.69144
 N625 N 0.23543 0.42216 0.30783
 N626 N 0.25057 0.39929 0.32356
 C627 C 0.27658 0.39128 0.30552
 C628 C 0.27690 0.40980 0.27813
 N629 N 0.25089 0.42884 0.28058
 H630 H 0.29555 0.41139 0.25981
 N631 N 0.28168 -0.05602 0.84624
 N632 N 0.30067 -0.07703 0.85990
 C633 C 0.32643 -0.08024 0.84023
 C634 C 0.32290 -0.06019 0.81404
 N635 N 0.29441 -0.04583 0.81872
 H636 H 0.33815 -0.05814 0.79275
 N637 N 0.85412 0.42807 0.77043
 N638 N 0.86650 0.40211 0.78400
 C639 C 0.84580 0.39306 0.80745
 C640 C 0.82051 0.41444 0.80802
 N641 N 0.82652 0.43579 0.78449
 H642 H 0.79890 0.41331 0.82259
 N643 N 0.73967 -0.11370 0.30046
 N644 N 0.75436 -0.13647 0.31680
 C645 C 0.78449 -0.13787 0.30525
 C646 C 0.78773 -0.11537 0.28101
 N647 N 0.75925 -0.10081 0.27885
 H648 H 0.80927 -0.10818 0.26844
 N649 N 0.33033 0.57759 0.76812
 N650 N 0.34427 0.60367 0.75641
 C651 C 0.33031 0.61022 0.72816
 C652 C 0.30712 0.58732 0.72290
 N653 N 0.30794 0.56748 0.74849
 H654 H 0.29116 0.58542 0.70279
 N655 N 0.23824 1.07658 0.18229
 N656 N 0.25499 1.09844 0.16618
 C657 C 0.28269 1.10180 0.18163
 C658 C 0.28241 1.08123 0.20764
 N659 N 0.25434 1.06598 0.20722
 H660 H 0.30069 1.07785 0.22530
 N661 N 0.83629 0.58616 0.24170
 N662 N 0.84807 0.61104 0.22574
 C663 C 0.82909 0.61599 0.20043
 C664 C 0.80518 0.59302 0.20128
 N665 N 0.81062 0.57496 0.22752
 H666 H 0.78555 0.59019 0.18504
 N667 N 0.78298 1.08406 0.64465
 N668 N 0.79475 1.10818 0.62778
 C669 C 0.82222 1.11684 0.64153
 C670 C 0.82708 1.09690 0.66771
 N671 N 0.80190 1.07679 0.66857
 H672 H 0.84671 1.09684 0.68415
 N673 N 0.66615 0.55363 0.29536
 N674 N 0.64761 0.57713 0.30699
 C675 C 0.66642 0.59888 0.32173
 C676 C 0.69744 0.58795 0.31879
 N677 N 0.69605 0.55968 0.30199
 H678 H 0.71885 0.60081 0.32486
 N679 N 0.76439 1.07325 0.82016
 N680 N 0.74735 1.09357 0.83881
 C681 C 0.72065 1.10001 0.82264
 C682 C 0.72175 1.08304 0.79360
 N683 N 0.74936 1.06673 0.79301
 H684 H 0.70428 1.08257 0.77476
 N685 N 0.17065 0.53240 0.83003
 N686 N 0.15293 0.55650 0.84184
 C687 C 0.17250 0.58147 0.84793
 C688 C 0.20316 0.57164 0.83979
 N689 N 0.20080 0.54084 0.82848
 H690 H 0.22392 0.58677 0.83739
 N691 N 0.21755 1.08315 0.35033
 N692 N 0.20872 1.11126 0.36341
 C693 C 0.18429 1.12247 0.34620
 C694 C 0.17806 1.09971 0.32193
 N695 N 0.19961 1.07563 0.32549
 H696 H 0.16092 1.10121 0.30288
 N697 N 0.75864 0.41907 0.65832
 N698 N 0.74494 0.39477 0.64265
 C699 C 0.72273 0.38278 0.66309
 C700 C 0.72317 0.40028 0.69167
 N701 N 0.74579 0.42269 0.68769
 H702 H 0.70764 0.39795 0.71271
 N703 N 0.64749 -0.03664 0.18272
 N704 N 0.62642 -0.05409 0.16702
 C705 C 0.64171 -0.08068 0.15515
 C706 C 0.67299 -0.07903 0.16403
 N707 N 0.67541 -0.05132 0.18139
 H708 H 0.69085 -0.09796 0.16207
 N709 N 0.14422 0.46747 0.18101
 N710 N 0.12774 0.44279 0.16975
 C711 C 0.14877 0.41989 0.15957
 C712 C 0.17902 0.43166 0.16439
 N713 N 0.17495 0.46126 0.17841
 H714 H 0.20114 0.41823 0.16278
 N715 N 0.24531 -0.08107 0.68236
 N716 N 0.23284 -0.10800 0.67031
 C717 C 0.20707 -0.11454 0.68888
 C718 C 0.20411 -0.09068 0.71280
 N719 N 0.22845 -0.07031 0.70782
 H720 H 0.18616 -0.08834 0.73185
 N721 N 0.31287 0.35360 0.44524
 N722 N 0.31927 0.36715 0.41708
 C723 C 0.32806 0.34309 0.39617
 C724 C 0.32676 0.31418 0.41238
 N725 N 0.31705 0.32185 0.44287
 H726 H 0.32860 0.28989 0.40209
 N727 N 0.35456 0.77770 -0.08217
 N728 N 0.37241 0.79574 -0.10159
 C729 C 0.35634 0.82373 -0.10558
 C730 C 0.32819 0.82222 -0.08840
 N731 N 0.32786 0.79324 -0.07427
 H732 H 0.30937 0.84018 -0.08693
 N733 N 0.76031 0.33497 -0.08106
 N734 N 0.77811 0.34640 -0.10485
 C735 C 0.80306 0.32612 -0.10874
 C736 C 0.80007 0.30160 -0.08630
 N737 N 0.77294 0.30823 -0.06953
 H738 H 0.81583 0.28128 -0.08254
 N739 N 0.82874 0.75352 0.42527
 N740 N 0.84235 0.76949 0.40124
 C741 C 0.82153 0.79243 0.39231
 C742 C 0.79464 0.79018 0.41168
 N743 N 0.80021 0.76562 0.43189
 H744 H 0.77321 0.80468 0.41107
 N745 N 0.68978 0.32519 0.53014
 N746 N 0.67859 0.33920 0.55712
 C747 C 0.67646 0.31612 0.57984
 C748 C 0.68724 0.28728 0.56581
 N749 N 0.69536 0.29412 0.53493
 H750 H 0.69224 0.26474 0.57778
 N751 N 0.63807 0.76849 1.07210
 N752 N 0.61947 0.78509 1.09273
 C753 C 0.63499 0.81255 1.10045
 C754 C 0.66383 0.81225 1.08406
 N755 N 0.66478 0.78433 1.06669
 H756 H 0.68206 0.83060 1.08438
 N757 N 0.18148 0.26355 1.09664
 N758 N 0.16227 0.27777 1.11835
 C759 C 0.16983 0.30947 1.11924
 C760 C 0.19456 0.31431 1.09730
 N761 N 0.20096 0.28499 1.08367
 H762 H 0.20528 0.33702 1.09041
 N763 N 0.17547 0.74385 0.59964
 N764 N 0.16256 0.76042 0.62439
 C765 C 0.18036 0.78714 0.62879
 C766 C 0.20465 0.78653 0.60589
 N767 N 0.20070 0.75912 0.58822
 H768 H 0.22346 0.80397 0.60261
 N769 N 0.30736 0.65027 0.58140
 N770 N 0.32066 0.64072 0.60833
 C771 C 0.32870 0.66763 0.62510
 C772 C 0.31992 0.69438 0.60723
 N773 N 0.30656 0.68229 0.58012
 H774 H 0.32036 0.71969 0.61460
 N775 N 0.33686 0.22626 1.08154
 N776 N 0.34765 0.20811 1.10502
 C777 C 0.32550 0.18544 1.11115
 C778 C 0.30069 0.19011 1.09044
 N779 N 0.30880 0.21586 1.07245
 H780 H 0.27845 0.17721 1.08958
 N781 N 0.75447 0.66814 1.07658
 N782 N 0.77081 0.65479 1.10002
 C783 C 0.79366 0.67601 1.10807
 C784 C 0.79079 0.70287 1.08890
 N785 N 0.76607 0.69701 1.06965
 H786 H 0.80496 0.72467 1.08921
 N787 N 0.83329 0.23048 0.52120
 N788 N 0.85224 0.21873 0.54324
 C789 C 0.83580 0.19556 0.55872
 C790 C 0.80611 0.19333 0.54558
 N791 N 0.80557 0.21568 0.52234
 H792 H 0.78649 0.17824 0.55312
 N793 N 0.66008 0.73480 0.42861
 N794 N 0.64523 0.72450 0.40247
 C795 C 0.65927 0.69641 0.39286
 C796 C 0.68323 0.68965 0.41417
 N797 N 0.68290 0.71427 0.43609
 H798 H 0.69998 0.66966 0.41306
 N799 N 0.69147 0.16888 -0.04345
 N800 N 0.68287 0.14990 -0.06779
 C801 C 0.67718 0.16929 -0.09293
 C802 C 0.68274 0.20102 -0.08327
 N803 N 0.69150 0.19958 -0.05215
 H804 H 0.68417 0.22221 -0.09833
 N805 N 0.19645 0.74441 -0.10602
 N806 N 0.17959 0.72639 -0.12594
 C807 C 0.18660 0.69521 -0.11988
 C808 C 0.20852 0.69461 -0.09537
 N809 N 0.21381 0.72594 -0.08736
 H810 H 0.21763 0.67374 -0.08296
 N811 N 0.19026 0.25893 0.44633
 N812 N 0.17127 0.24673 0.42428
 C813 C 0.18552 0.21970 0.41215
 C814 C 0.21408 0.21563 0.42739
 N815 N 0.21603 0.24076 0.44850
 H816 H 0.23170 0.19674 0.42331
 N817 N 0.29535 0.43642 0.67391
 N818 N 0.31383 0.41511 0.65824
 C819 C 0.33478 0.40425 0.67975
 C820 C 0.32859 0.41960 0.70932
 N821 N 0.30371 0.43942 0.70454
 H822 H 0.34015 0.41589 0.73212
 N823 N 0.23361 0.92651 0.18013
 N824 N 0.24833 0.90232 0.16439
 C825 C 0.27300 0.89357 0.18262
 C826 C 0.27313 0.91323 0.20995
 N827 N 0.24823 0.93345 0.20741
 H828 H 0.28980 0.91311 0.22952
 N829 N 0.84441 0.42559 0.24457
 N830 N 0.85615 0.39982 0.22866
 C831 C 0.83829 0.39545 0.20223
 C832 C 0.81539 0.41935 0.20231
 N833 N 0.81997 0.43760 0.22907
 H834 H 0.79629 0.42220 0.18547
 N835 N 0.78894 0.92990 0.63770
 N836 N 0.80116 0.90267 0.62512
 C837 C 0.82711 0.89590 0.64231
 C838 C 0.83062 0.91988 0.66557
 N839 N 0.80633 0.94054 0.66196
 H840 H 0.84751 0.92073 0.68494
 N841 N 0.67138 0.53189 0.69989
 N842 N 0.65319 0.55292 0.68513
 C843 C 0.67189 0.57745 0.67542
 C844 C 0.70249 0.57081 0.68502
 N845 N 0.70094 0.54222 0.70036
 H846 H 0.72286 0.58662 0.68407
 N847 N 0.74107 0.07344 0.16775
 N848 N 0.72723 0.10010 0.15728
 C849 C 0.70222 0.10640 0.17738
 C850 C 0.70123 0.08286 0.20066
 N851 N 0.72584 0.06280 0.19378
 H852 H 0.68370 0.07989 0.21990
 N853 N 0.24159 0.59413 0.15745
 N854 N 0.22915 0.61965 0.14320
 C855 C 0.20208 0.62712 0.15971
 C856 C 0.19837 0.60560 0.18462
 N857 N 0.22348 0.58545 0.18237
 H858 H 0.17890 0.60411 0.20203
 N859 N 0.16088 0.06084 0.71144
 N860 N 0.14881 0.08451 0.69430
 C861 C 0.17324 0.09778 0.67785
 C862 C 0.20072 0.08148 0.68524
 N863 N 0.19191 0.05872 0.70642
 H864 H 0.22484 0.08733 0.67816
 N865 N 0.31776 0.52738 0.30377
 N866 N 0.33412 0.54411 0.32524
 C867 C 0.31750 0.57140 0.33273
 C868 C 0.29032 0.57098 0.31455
 N869 N 0.29161 0.54328 0.29677
 H870 H 0.27346 0.59052 0.31151
 N871 N 0.25907 0.09696 0.83202
 N872 N 0.27453 0.12158 0.84521
 C873 C 0.30169 0.12501 0.82779
 C874 C 0.30236 0.10170 0.80334
 N875 N 0.27534 0.08474 0.80686
 H876 H 0.32083 0.09718 0.78517
 N877 N 0.76104 0.57058 0.83561
 N878 N 0.77190 0.59666 0.85092
 C879 C 0.79679 0.60715 0.83306
 C880 C 0.80089 0.58687 0.80645
 N881 N 0.77818 0.56443 0.80892
 H882 H 0.81865 0.58825 0.78719
 N883 N 0.84283 0.01789 0.27300
 N884 N 0.85919 0.04011 0.28893
 C885 C 0.83811 0.05703 0.30766
 C886 C 0.80845 0.04443 0.30299
 N887 N 0.81239 0.02024 0.28112
 H888 H 0.78592 0.05405 0.31194
 N889 N 0.72199 0.42290 0.33249
 N890 N 0.70333 0.39914 0.34183
 C891 C 0.68238 0.39399 0.31814
 C892 C 0.68892 0.41564 0.29350
 N893 N 0.71397 0.43315 0.30363
 H894 H 0.67710 0.41813 0.27067
 N895 N 0.77336 0.92708 0.80860
 N896 N 0.75833 0.90430 0.82500
 C897 C 0.73128 0.89812 0.80927
 C898 C 0.73007 0.91787 0.78274
 N899 N 0.75672 0.93559 0.78328
 H900 H 0.71131 0.91988 0.76540
 N901 N 0.17912 0.40775 0.76653
 N902 N 0.16355 0.38326 0.77953
 C903 C 0.17640 0.37789 0.80859
 C904 C 0.20060 0.39990 0.81301
 N905 N 0.20145 0.41805 0.78616
 H906 H 0.21551 0.40292 0.83384
 N907 N 0.21945 0.92597 0.35456
 N908 N 0.20927 0.89911 0.36824
 C909 C 0.18342 0.88956 0.35212
 C910 C 0.17783 0.91188 0.32806
 N911 N 0.20097 0.93421 0.33051
 H912 H 0.15972 0.91120 0.30989
 N913 N 0.45529 0.33647 0.75007
 N914 N 0.43262 0.35330 0.73615
 C915 C 0.42748 0.33848 0.70737
 C916 C 0.44761 0.31224 0.70397
 N917 N 0.46448 0.31179 0.73108
 H918 H 0.44891 0.29442 0.68439
 N919 N 0.38218 0.81324 0.25561
 N920 N 0.35783 0.82784 0.24222
 C921 C 0.35821 0.81858 0.21072
 C922 C 0.38352 0.79770 0.20518
 N923 N 0.39785 0.79509 0.23381
 H924 H 0.39150 0.78667 0.18241
 N925 N 0.91730 0.24943 0.16541
 N926 N 0.89473 0.26611 0.15096
 C927 C 0.88726 0.29158 0.17075
 C928 C 0.90570 0.28986 0.19772
 N929 N 0.92406 0.26333 0.19358
 H930 H 0.90634 0.30680 0.21805
 N931 N 0.93450 0.83366 0.72873
 N932 N 0.91294 0.84684 0.71015
 C933 C 0.90747 0.82538 0.68588
 C934 C 0.92654 0.79855 0.69002
 N935 N 0.94299 0.80477 0.71703
 H936 H 0.92775 0.77646 0.67546
 N937 N 0.55726 0.33120 0.24148
 N938 N 0.58166 0.34686 0.25409
 C939 C 0.58559 0.33472 0.28388
 C940 C 0.56290 0.31149 0.28915
 N941 N 0.54580 0.30989 0.26228
 H942 H 0.56046 0.29565 0.30969
 N943 N 0.61055 0.82844 0.74562
 N944 N 0.63651 0.84112 0.75787
 C945 C 0.63733 0.83233 0.78916
 C946 C 0.61090 0.81371 0.79576
 N947 N 0.59483 0.81195 0.76790
 H948 H 0.60370 0.80319 0.81859
 N949 N 0.07294 0.24752 0.83150
 N950 N 0.09537 0.26208 0.84824
 C951 C 0.10351 0.28891 0.83188
 C952 C 0.08532 0.29052 0.80465
 N953 N 0.06657 0.26428 0.80539
 H954 H 0.08577 0.30874 0.78609
 N955 N 0.04730 0.79021 0.34036
 N956 N 0.06962 0.80131 0.35941
 C957 C 0.09143 0.81584 0.34040
 C958 C 0.08162 0.81320 0.30848
 N959 N 0.05396 0.79677 0.30975
 H960 H 0.09443 0.81992 0.28664
 N961 N 0.55974 0.66482 0.73929
 N962 N 0.58030 0.64446 0.72503
 C963 C 0.59144 0.65930 0.69830
 C964 C 0.57700 0.68919 0.69641
 N965 N 0.55750 0.69170 0.72242
 H966 H 0.58186 0.70814 0.67921
 N967 N 0.57012 0.16293 0.24829
 N968 N 0.59703 0.15025 0.23636
 C969 C 0.60276 0.16458 0.20772
 C970 C 0.57846 0.18626 0.20243
 N971 N 0.55862 0.18453 0.22820
 H972 H 0.57603 0.20254 0.18232
 N973 N 0.06775 0.67829 0.21779
 N974 N 0.09323 0.66537 0.20335
 C975 C 0.10365 0.68695 0.18149
 C976 C 0.08368 0.71363 0.18288
 N977 N 0.06165 0.70721 0.20592
 H978 H 0.08565 0.73587 0.16946
 N979 N 0.08671 0.24036 0.66015
 N980 N 0.11223 0.22765 0.64541
 C981 C 0.11625 0.19791 0.65774
 C982 C 0.09241 0.19271 0.68043
 N983 N 0.07455 0.21976 0.68123
 H984 H 0.08913 0.17191 0.69576
 N985 N 0.43132 0.64866 0.26921
 N986 N 0.41168 0.62958 0.28529
 C987 C 0.40187 0.64643 0.31198
 C988 C 0.41616 0.67633 0.31199
 N989 N 0.43418 0.67674 0.28485
 H990 H 0.41195 0.69661 0.32859
 N991 N 0.43670 0.16872 0.76363
 N992 N 0.40968 0.15860 0.77674
 C993 C 0.40388 0.17721 0.80342
 C994 C 0.42851 0.19908 0.80639
 N995 N 0.44845 0.19291 0.78103
 H996 H 0.43108 0.21820 0.82443
 N997 N 0.91975 0.67015 0.76595
 N998 N 0.89434 0.65681 0.77937
 C999 C 0.88746 0.67415 0.80665
 C1000 C 0.90937 0.69854 0.80968
 N1001 N 0.92905 0.69515 0.78380
 H1002 H 0.91077 0.71697 0.82859
 N1003 N 0.95583 0.14598 0.29788
 N1004 N 0.93480 0.12719 0.31228
 C1005 C 0.90994 0.14619 0.32142
 C1006 C 0.91641 0.17754 0.31214
 N1007 N 0.94518 0.17614 0.29733
 H1008 H 0.90065 0.19836 0.31301
 N1009 N 0.37459 0.27580 0.57386
 N1010 N 0.38920 0.29037 0.59824
 C1011 C 0.37025 0.31514 0.60853
 C1012 C 0.34374 0.31532 0.58993
 N1013 N 0.34723 0.29048 0.56870
 H1014 H 0.32326 0.33118 0.59243
 N1015 N 0.32087 0.83504 0.04787
 N1016 N 0.32915 0.84785 0.07601
 C1017 C 0.32270 0.82562 0.09868
 C1018 C 0.30986 0.79875 0.08360
 N1019 N 0.30938 0.80559 0.05189
 H1020 H 0.29829 0.77836 0.09490
 N1021 N 0.76236 0.34891 0.07553
 N1022 N 0.77919 0.36026 0.09995
 C1023 C 0.80161 0.33777 0.10586
 C1024 C 0.79809 0.31231 0.08421
 N1025 N 0.77338 0.32019 0.06576
 H1026 H 0.81133 0.28974 0.08285
 N1027 N 0.83332 0.73977 0.57395
 N1028 N 0.85110 0.75567 0.59505
 C1029 C 0.83930 0.78611 0.59755
 C1030 C 0.81377 0.78834 0.57744
 N1031 N 0.81076 0.75902 0.56321
 H1032 H 0.79854 0.80914 0.57388
 N1033 N 0.33344 0.71099 0.43546
 N1034 N 0.34751 0.69644 0.41024
 C1035 C 0.33069 0.66959 0.40336
 C1036 C 0.30559 0.66802 0.42546
 N1037 N 0.30832 0.69443 0.44503
 H1038 H 0.28723 0.64988 0.42701
 N1039 N 0.34109 0.25499 0.92976
 N1040 N 0.35496 0.24082 0.90399
 C1041 C 0.33671 0.21536 0.89574
 C1042 C 0.31128 0.21434 0.91723
 N1043 N 0.31487 0.23940 0.93803
 H1044 H 0.29198 0.19715 0.91762
 N1045 N 0.82209 0.74191 0.93577
 N1046 N 0.83781 0.72759 0.91124
 C1047 C 0.81999 0.70238 0.90136
 C1048 C 0.79291 0.70164 0.92052
 N1049 N 0.79511 0.72667 0.94162
 H1050 H 0.77322 0.68503 0.91882
 N1051 N 0.75317 0.15715 0.38858
 N1052 N 0.77071 0.13882 0.36863
 C1053 C 0.79972 0.15226 0.36699
 C1054 C 0.79939 0.17993 0.38656
 N1055 N 0.76981 0.18188 0.39961
 H1056 H 0.81901 0.19558 0.39245
 N1057 N 0.64361 0.25610 0.40372
 N1058 N 0.62838 0.27302 0.38174
 C1059 C 0.64704 0.29847 0.37438
 C1060 C 0.67390 0.29667 0.39218
 N1061 N 0.67102 0.27003 0.41005
 H1062 H 0.69413 0.31271 0.39150
 N1063 N 0.69800 0.84606 0.94719
 N1064 N 0.69091 0.86118 0.92033
 C1065 C 0.68466 0.83818 0.89780
 C1066 C 0.68831 0.80816 0.91175
 N1067 N 0.69672 0.81429 0.94259
 H1068 H 0.68856 0.78458 0.89978
 N1069 N 0.16828 0.30994 0.96496
 N1070 N 0.15183 0.32058 0.94039
 C1071 C 0.17274 0.32666 0.91612
 C1072 C 0.20276 0.31919 0.92659
 N1073 N 0.19882 0.30899 0.95722
 H1074 H 0.22448 0.31736 0.91221
 N1075 N 0.16946 0.74975 0.44851
 N1076 N 0.15379 0.76540 0.42626
 C1077 C 0.17126 0.79128 0.41793
 C1078 C 0.19860 0.79108 0.43627
 N1079 N 0.19636 0.76454 0.45500
 H1080 H 0.21825 0.80780 0.43544
 N1081 N 0.67123 0.72492 0.58739
 N1082 N 0.65659 0.71060 0.61175
 C1083 C 0.66905 0.68056 0.61378
 C1084 C 0.69204 0.67674 0.58947
 N1085 N 0.69245 0.70513 0.57359
 H1086 H 0.70669 0.65568 0.58382
 N1087 N 0.65625 0.23909 0.08442
 N1088 N 0.64486 0.22286 0.10934
 C1089 C 0.66649 0.19989 0.11589
 C1090 C 0.69173 0.20250 0.09414
 N1091 N 0.68426 0.22735 0.07496
 H1092 H 0.71321 0.18804 0.09250
 N1093 N 0.17147 0.75612 0.05660
 N1094 N 0.15644 0.74328 0.08179
 C1095 C 0.17369 0.71732 0.09040
 C1096 C 0.19962 0.71448 0.06965
 N1097 N 0.19735 0.73910 0.04896
 H1098 H 0.21869 0.69683 0.07010
 N1099 N 0.26137 0.17210 0.57355
 N1100 N 0.24344 0.15593 0.59433
 C1101 C 0.21884 0.17553 0.60279
 C1102 C 0.22224 0.20435 0.58673
 N1103 N 0.24908 0.20116 0.56877
 H1104 H 0.20654 0.22521 0.58747
   
