data_POSCAR
  _audit_creation_date              2014-09-24
  _audit_creation_method            'ToBaCCo'
  _symmetry_space_group_name_H-M    'P1'
  _symmetry_Int_Tables_number       1
  _symmetry_cell_setting            triclinic
  loop_
  _symmetry_equiv_pos_as_xyz
 x,y,z
_cell_length_a 47.1175
_cell_length_b 47.2953
_cell_length_c 47.4579
_cell_angle_alpha 90.001900
_cell_angle_beta 90.007700
_cell_angle_gamma 90.011900
loop_
  _atom_site_label
  _atom_site_type_symbol
  _atom_site_fract_x
  _atom_site_fract_y
  _atom_site_fract_z
O1 O 0.36367 0.32471 -0.02750
 O2 O 0.32502 0.36338 0.02725
 O3 O 0.36356 0.32435 0.02704
 O4 O 0.32527 0.36397 -0.02723
 O5 O 0.29145 0.33180 -0.02776
 O6 O 0.33048 0.29134 0.02673
 O7 O 0.29129 0.33103 0.02701
 O8 O 0.33047 0.29182 -0.02809
 Cu9 Cu 0.34769 0.34732 -0.00009
 Cu10 Cu 0.30754 0.30818 -0.00059
 C11 C 0.35399 0.30153 -0.03697
 C12 C 0.30145 0.35412 0.03632
 C13 C 0.35388 0.30099 0.03602
 C14 C 0.30161 0.35512 -0.03657
 O15 O 0.63648 0.67522 -0.02782
 O16 O 0.67523 0.63677 0.02701
 O17 O 0.63675 0.67584 0.02671
 O18 O 0.67486 0.63594 -0.02747
 O19 O 0.70869 0.66810 -0.02823
 O20 O 0.66987 0.70881 0.02619
 O21 O 0.70901 0.66908 0.02654
 O22 O 0.66970 0.70809 -0.02862
 Cu23 Cu 0.65251 0.65273 -0.00035
 Cu24 Cu 0.69270 0.69183 -0.00112
 C25 C 0.64614 0.69836 -0.03739
 C26 C 0.69885 0.64604 0.03598
 C27 C 0.64648 0.69924 0.03557
 C28 C 0.69849 0.64474 -0.03692
 O29 O 0.67511 0.36323 0.97278
 O30 O 0.63643 0.32473 1.02763
 O31 O 0.67481 0.36401 1.02725
 O32 O 0.63659 0.32418 0.97308
 O33 O 0.66968 0.29119 0.97354
 O34 O 0.70863 0.33185 1.02792
 O35 O 0.66963 0.29186 1.02836
 O36 O 0.70886 0.33090 0.97316
 Cu37 Cu 0.65242 0.34725 1.00015
 Cu38 Cu 0.69258 0.30814 1.00082
 C39 C 0.69870 0.35395 0.96376
 C40 C 0.64610 0.30160 1.03719
 C41 C 0.69846 0.35519 1.03665
 C42 C 0.64629 0.30080 0.96419
 O43 O 0.36379 0.67534 1.02765
 O44 O 0.32496 0.63657 0.97307
 O45 O 0.36348 0.67564 0.97312
 O46 O 0.32540 0.63604 1.02756
 O47 O 0.29157 0.66818 1.02815
 O48 O 0.33038 0.70862 0.97351
 O49 O 0.29122 0.66890 0.97338
 O50 O 0.33057 0.70819 1.02833
 Cu51 Cu 0.34772 0.65269 1.00032
 Cu52 Cu 0.30755 0.69178 1.00091
 C53 C 0.35414 0.69852 1.03713
 C54 C 0.30135 0.64580 0.96406
 C55 C 0.35375 0.69899 0.96415
 C56 C 0.30177 0.64487 1.03695
 O57 O 0.02749 0.32541 0.36335
 O58 O -0.02775 0.36381 0.32483
 O59 O -0.02739 0.32555 0.36395
 O60 O 0.02718 0.36386 0.32449
 O61 O 0.02694 0.33092 0.29157
 O62 O -0.02785 0.29188 0.33187
 O63 O -0.02828 0.33075 0.29204
 O64 O 0.02731 0.29183 0.33109
 Cu65 Cu -0.00010 0.34796 0.34736
 Cu66 Cu -0.00052 0.30798 0.30834
 C67 C 0.03666 0.30194 0.35412
 C68 C -0.03727 0.35416 0.30173
 C69 C -0.03675 0.30198 0.35511
 C70 C 0.03623 0.35426 0.30119
 O71 O 0.02778 0.67428 0.63645
 O72 O -0.02758 0.63592 0.67485
 O73 O -0.02709 0.67412 0.63568
 O74 O 0.02736 0.63588 0.67536
 O75 O 0.02703 0.66886 0.70823
 O76 O -0.02765 0.70782 0.66772
 O77 O -0.02818 0.66902 0.70760
 O78 O 0.02751 0.70791 0.66866
 Cu79 Cu 0.00014 0.65174 0.65239
 Cu80 Cu -0.00038 0.69178 0.69135
 C81 C 0.03692 0.69777 0.64567
 C82 C -0.03715 0.64560 0.69792
 C83 C -0.03648 0.69770 0.64446
 C84 C 0.03635 0.64552 0.69867
 O85 O 0.97231 0.67431 0.36364
 O86 O 1.02758 0.63593 0.32515
 O87 O 1.02718 0.67410 0.36436
 O88 O 0.97265 0.63594 0.32470
 O89 O 0.97299 0.66894 0.29185
 O90 O 1.02774 0.70783 0.33234
 O91 O 1.02820 0.66905 0.29243
 O92 O 0.97258 0.70796 0.33144
 Cu93 Cu 0.99990 0.65176 0.34766
 Cu94 Cu 1.00044 0.69182 0.30872
 C95 C 0.96318 0.69781 0.35443
 C96 C 1.03715 0.64562 0.30209
 C97 C 1.03658 0.69768 0.35559
 C98 C 0.96365 0.64559 0.30141
 O99 O 0.97246 0.32578 0.63593
 O100 O 1.02763 0.36412 0.67466
 O101 O 1.02733 0.32597 0.63541
 O102 O 0.97270 0.36412 0.67493
 O103 O 0.97292 0.33109 0.70775
 O104 O 1.02774 0.29220 0.66739
 O105 O 1.02813 0.33095 0.70734
 O106 O 0.97259 0.29211 0.66810
 Cu107 Cu 1.00001 0.34831 0.65204
 Cu108 Cu 1.00039 0.30821 0.69094
 C109 C 0.96328 0.30227 0.64508
 C110 C 1.03713 0.35440 0.69774
 C111 C 1.03666 0.30236 0.64418
 C112 C 0.96362 0.35444 0.69819
 O113 O 0.32451 -0.02775 0.36306
 O114 O 0.36305 0.02739 0.32472
 O115 O 0.32438 0.02697 0.36354
 O116 O 0.36328 -0.02732 0.32432
 O117 O 0.33035 -0.02732 0.29128
 O118 O 0.29082 0.02728 0.33112
 O119 O 0.33013 0.02765 0.29167
 O120 O 0.29094 -0.02772 0.33065
 Cu121 Cu 0.34709 -0.00020 0.34715
 Cu122 Cu 0.30718 -0.00001 0.30786
 C123 C 0.30102 -0.03698 0.35373
 C124 C 0.35350 0.03676 0.30152
 C125 C 0.30085 0.03624 0.35435
 C126 C 0.35379 -0.03641 0.30098
 O127 O 0.63705 0.02743 0.67552
 O128 O 0.67570 -0.02743 0.63691
 O129 O 0.63694 -0.02728 0.67562
 O130 O 0.67572 0.02730 0.63667
 O131 O 0.70930 0.02751 0.66907
 O132 O 0.66987 -0.02734 0.70868
 O133 O 0.70926 -0.02750 0.66932
 O134 O 0.66999 0.02763 0.70856
 Cu135 Cu 0.65307 0.00000 0.65294
 Cu136 Cu 0.69298 0.00009 0.69222
 C137 C 0.64659 0.03671 0.69876
 C138 C 0.69919 -0.03668 0.64621
 C139 C 0.64645 -0.03647 0.69891
 C140 C 0.69924 0.03656 0.64589
 O141 O 0.36295 0.97266 0.67542
 O142 O 0.32426 1.02752 0.63682
 O143 O 0.36299 1.02737 0.67558
 O144 O 0.32435 0.97280 0.63650
 O145 O 0.29073 0.97250 0.66884
 O146 O 0.33003 1.02735 0.70859
 O147 O 0.29066 1.02749 0.66919
 O148 O 0.32995 0.97237 0.70840
 Cu149 Cu 0.34693 1.00010 0.65284
 Cu150 Cu 0.30696 0.99991 0.69207
 C151 C 0.35338 0.96333 0.69863
 C152 C 0.30075 1.03671 0.64610
 C153 C 0.35344 1.03652 0.69886
 C154 C 0.30083 0.96350 0.64567
 O155 O 0.67486 1.02722 0.36450
 O156 O 0.63675 0.97277 0.32483
 O157 O 0.67511 0.97255 0.36396
 O158 O 0.63647 1.02749 0.32537
 O159 O 0.66974 1.02818 0.29267
 O160 O 0.70895 0.97289 0.33184
 O161 O 0.66994 0.97318 0.29205
 O162 O 0.70873 1.02785 0.33250
 Cu163 Cu 0.65248 0.99997 0.34786
 Cu164 Cu 0.69273 1.00059 0.30898
 C165 C 0.69850 1.03666 0.35572
 C166 C 0.64651 0.96384 0.30155
 C167 C 0.69875 0.96351 0.35483
 C168 C 0.64618 1.03705 0.30231
 C169 C 0.87117 0.78583 0.47464
 C170 C 0.88143 0.77553 0.50023
 C171 C 0.87141 0.78586 0.52591
 C172 C 0.85050 0.80723 0.52629
 C173 C 0.83990 0.81794 0.50037
 C174 C 0.85029 0.80721 0.47439
 C175 C 0.83946 0.81805 0.44899
 C176 C 0.81871 0.83903 0.44905
 C177 C 0.80806 0.84988 0.47451
 C178 C 0.81876 0.83929 0.50043
 C179 C 0.83984 0.81807 0.55175
 C180 C 0.81905 0.83902 0.55181
 C181 C 0.80822 0.84986 0.52640
 C182 C 0.78702 0.87095 0.52615
 C183 C 0.77673 0.88121 0.50055
 C184 C 0.78688 0.87099 0.47488
 H185 H 0.84697 0.81035 0.42884
 H186 H 0.81102 0.84668 0.42894
 H187 H 0.84749 0.81037 0.57185
 H188 H 0.81148 0.84667 0.57196
 H189 H 0.89742 0.75899 0.50016
 H190 H 0.76032 0.89734 0.50060
 C191 C 0.12867 0.21395 0.47436
 C192 C 0.11850 0.22434 0.49995
 C193 C 0.12854 0.21404 0.52563
 C194 C 0.14939 0.19261 0.52602
 C195 C 0.15990 0.18180 0.50011
 C196 C 0.14949 0.19251 0.47412
 C197 C 0.16023 0.18158 0.44872
 C198 C 0.18093 0.16053 0.44879
 C199 C 0.19160 0.14971 0.47426
 C200 C 0.18097 0.16040 0.50017
 C201 C 0.16007 0.18180 0.55149
 C202 C 0.18081 0.16079 0.55155
 C203 C 0.19155 0.14986 0.52615
 C204 C 0.21269 0.12872 0.52591
 C205 C 0.22290 0.11837 0.50031
 C206 C 0.21272 0.12855 0.47464
 H207 H 0.15271 0.18926 0.42857
 H208 H 0.18855 0.15282 0.42869
 H209 H 0.15249 0.18957 0.57158
 H210 H 0.18839 0.15317 0.57171
 H211 H 0.10255 0.24093 0.49987
 H212 H 0.23927 0.10220 0.50038
 C213 C 0.12887 0.78582 0.52544
 C214 C 0.11864 0.77547 0.49985
 C215 C 0.12868 0.78579 0.47417
 C216 C 0.14958 0.80718 0.47378
 C217 C 0.16012 0.81795 0.49969
 C218 C 0.14972 0.80725 0.52567
 C219 C 0.16049 0.81815 0.55107
 C220 C 0.18122 0.83917 0.55101
 C221 C 0.19189 0.84999 0.52554
 C222 C 0.18124 0.83932 0.49963
 C223 C 0.16026 0.81798 0.44831
 C224 C 0.18104 0.83896 0.44824
 C225 C 0.19182 0.84986 0.47365
 C226 C 0.21300 0.87097 0.47389
 C227 C 0.22324 0.88131 0.49949
 C228 C 0.21304 0.87113 0.52516
 H229 H 0.15297 0.81047 0.57123
 H230 H 0.18886 0.84687 0.57111
 H231 H 0.15264 0.81024 0.42821
 H232 H 0.18863 0.84657 0.42809
 H233 H 0.10267 0.75891 0.49992
 H234 H 0.23963 0.89745 0.49943
 C235 C 0.78705 0.12872 0.52536
 C236 C 0.77675 0.11843 0.49978
 C237 C 0.78685 0.12863 0.47408
 C238 C 0.80803 0.14974 0.47364
 C239 C 0.81874 0.16040 0.49952
 C240 C 0.80821 0.14986 0.52554
 C241 C 0.81900 0.16080 0.55090
 C242 C 0.83973 0.18182 0.55078
 C243 C 0.85038 0.19260 0.52529
 C244 C 0.83986 0.18177 0.49940
 C245 C 0.81869 0.16052 0.44814
 C246 C 0.83948 0.18150 0.44801
 C247 C 0.85029 0.19242 0.47338
 C248 C 0.87119 0.21382 0.47359
 C249 C 0.88135 0.22424 0.49919
 C250 C 0.87124 0.21402 0.52487
 H251 H 0.81145 0.15320 0.57108
 H252 H 0.84734 0.18959 0.57087
 H253 H 0.81100 0.15281 0.42806
 H254 H 0.84700 0.18915 0.42785
 H255 H 0.76035 0.10228 0.49988
 H256 H 0.89732 0.24081 0.49912
 C257 C 0.52538 0.78732 0.87167
 C258 C 0.49953 0.77727 0.88194
 C259 C 0.47374 0.78766 0.87187
 C260 C 0.47350 0.80883 0.85090
 C261 C 0.49967 0.81932 0.84032
 C262 C 0.52577 0.80855 0.85077
 C263 C 0.55143 0.81917 0.83997
 C264 C 0.55150 0.83997 0.81918
 C265 C 0.52593 0.85084 0.80845
 C266 C 0.49975 0.84045 0.81912
 C267 C 0.44792 0.81968 0.84015
 C268 C 0.44800 0.84040 0.81928
 C269 C 0.47366 0.85101 0.80847
 C270 C 0.47405 0.87185 0.78718
 C271 C 0.49990 0.88193 0.77694
 C272 C 0.52569 0.87175 0.78722
 H273 H 0.57167 0.81143 0.84752
 H274 H 0.57180 0.84746 0.81151
 H275 H 0.42762 0.81216 0.84778
 H276 H 0.42775 0.84804 0.81163
 H277 H 0.49948 0.76084 0.89793
 H278 H 0.49994 0.89788 0.76048
 C279 C 0.52580 0.12903 0.21373
 C280 C 0.49999 0.11886 0.22398
 C281 C 0.47416 0.12881 0.21359
 C282 C 0.47380 0.14953 0.19219
 C283 C 0.49991 0.16007 0.18154
 C284 C 0.52607 0.14979 0.19236
 C285 C 0.55166 0.16061 0.18162
 C286 C 0.55161 0.18127 0.16068
 C287 C 0.52597 0.19178 0.14974
 C288 C 0.49986 0.18105 0.16020
 C289 C 0.44816 0.16004 0.18125
 C290 C 0.44811 0.18064 0.16025
 C291 C 0.47370 0.19144 0.14950
 C292 C 0.47397 0.21248 0.12840
 C293 C 0.49977 0.22282 0.11830
 C294 C 0.52561 0.21285 0.12868
 H295 H 0.57195 0.15321 0.18939
 H296 H 0.57187 0.18897 0.15312
 H297 H 0.42790 0.15241 0.18888
 H298 H 0.42782 0.18808 0.15253
 H299 H 0.50001 0.10299 0.24053
 H300 H 0.49974 0.23914 0.10220
 C301 C 0.52580 0.12797 0.78736
 C302 C 0.49995 0.11792 0.77710
 C303 C 0.47416 0.12810 0.78740
 C304 C 0.47393 0.14895 0.80868
 C305 C 0.50011 0.15930 0.81938
 C306 C 0.52620 0.14876 0.80870
 C307 C 0.55186 0.15935 0.81953
 C308 C 0.55195 0.18002 0.84045
 C309 C 0.52638 0.19085 0.85122
 C310 C 0.50020 0.18039 0.84063
 C311 C 0.44836 0.15980 0.81944
 C312 C 0.44845 0.18055 0.84028
 C313 C 0.47411 0.19115 0.85110
 C314 C 0.47451 0.21233 0.87205
 C315 C 0.50037 0.22235 0.88233
 C316 C 0.52615 0.21198 0.87223
 H317 H 0.57211 0.15171 0.81187
 H318 H 0.57225 0.18753 0.84810
 H319 H 0.42806 0.15233 0.81176
 H320 H 0.42820 0.18828 0.84784
 H321 H 0.49990 0.10201 0.76060
 H322 H 0.50043 0.23876 0.89835
 C323 C 0.52653 0.78842 0.12738
 C324 C 0.50072 0.77799 0.11738
 C325 C 0.47488 0.78805 0.12766
 C326 C 0.47452 0.80933 0.14851
 C327 C 0.50063 0.82016 0.15888
 C328 C 0.52679 0.80966 0.14829
 C329 C 0.55238 0.82056 0.15896
 C330 C 0.55234 0.84134 0.17978
 C331 C 0.52669 0.85196 0.19061
 C332 C 0.50058 0.84134 0.18003
 C333 C 0.44888 0.81995 0.15934
 C334 C 0.44883 0.84079 0.18009
 C335 C 0.47443 0.85171 0.19074
 C336 C 0.47469 0.87265 0.21195
 C337 C 0.50050 0.88290 0.22214
 C338 C 0.52634 0.87284 0.21186
 H339 H 0.57267 0.81304 0.15131
 H340 H 0.57259 0.84903 0.18736
 H341 H 0.42863 0.81217 0.15185
 H342 H 0.42855 0.84827 0.18779
 H343 H 0.50075 0.76151 0.10144
 H344 H 0.50048 0.89886 0.23860
 C345 C 0.78679 0.47422 0.87164
 C346 C 0.77649 0.49993 0.88178
 C347 C 0.78665 0.52567 0.87154
 C348 C 0.80785 0.52599 0.85052
 C349 C 0.81858 0.49995 0.84006
 C350 C 0.80803 0.47391 0.85067
 C351 C 0.81888 0.44839 0.83998
 C352 C 0.83969 0.44838 0.81913
 C353 C 0.85036 0.47390 0.80825
 C354 C 0.83974 0.49994 0.81881
 C355 C 0.81850 0.55151 0.83962
 C356 C 0.83927 0.55150 0.81871
 C357 C 0.85012 0.52597 0.80802
 C358 C 0.87101 0.52565 0.78670
 C359 C 0.88130 0.49993 0.77656
 C360 C 0.87129 0.47420 0.78696
 H361 H 0.81131 0.42819 0.84766
 H362 H 0.84736 0.42818 0.81155
 H363 H 0.81078 0.57170 0.84716
 H364 H 0.84676 0.57169 0.81095
 H365 H 0.76006 0.49991 0.89783
 H366 H 0.89728 0.49993 0.76006
 C367 C 0.21348 0.52593 0.12850
 C368 C 0.22367 0.50021 0.11825
 C369 C 0.21334 0.47448 0.12832
 C370 C 0.19204 0.47413 0.14923
 C371 C 0.18146 0.50015 0.15986
 C372 C 0.19222 0.52621 0.14947
 C373 C 0.18155 0.55170 0.16038
 C374 C 0.16073 0.55166 0.18123
 C375 C 0.14984 0.52611 0.19186
 C376 C 0.16024 0.50010 0.18104
 C377 C 0.18116 0.44859 0.15985
 C378 C 0.16028 0.44854 0.18063
 C379 C 0.14959 0.47404 0.19153
 C380 C 0.12860 0.47430 0.21275
 C381 C 0.11857 0.50000 0.22318
 C382 C 0.12890 0.52575 0.21312
 H383 H 0.18929 0.57191 0.15289
 H384 H 0.15321 0.57184 0.18901
 H385 H 0.18875 0.42840 0.15216
 H386 H 0.15258 0.42833 0.18815
 H387 H 0.24014 0.50022 0.10224
 H388 H 0.10254 0.49997 0.23964
 C389 C 0.87124 0.47425 0.21281
 C390 C 0.88155 0.49997 0.22295
 C391 C 0.87155 0.52570 0.21254
 C392 C 0.85062 0.52601 0.19126
 C393 C 0.83998 0.49997 0.18070
 C394 C 0.85034 0.47394 0.19150
 C395 C 0.83947 0.44841 0.18081
 C396 C 0.81869 0.44841 0.15991
 C397 C 0.80805 0.47393 0.14901
 C398 C 0.81881 0.49997 0.15946
 C399 C 0.83997 0.55153 0.18038
 C400 C 0.81913 0.55153 0.15955
 C401 C 0.80826 0.52601 0.14886
 C402 C 0.78701 0.52571 0.12790
 C403 C 0.77668 0.50000 0.11777
 C404 C 0.78684 0.47426 0.12801
 H405 H 0.84695 0.42822 0.18856
 H406 H 0.81095 0.42822 0.15237
 H407 H 0.84765 0.57173 0.18796
 H408 H 0.81157 0.57173 0.15187
 H409 H 0.89754 0.49997 0.23945
 H410 H 0.76023 0.50002 0.10173
 C411 C 0.12873 0.47414 0.78714
 C412 C 0.11843 0.49989 0.77705
 C413 C 0.12845 0.52560 0.78750
 C414 C 0.14939 0.52586 0.80878
 C415 C 0.16000 0.49980 0.81930
 C416 C 0.14962 0.47379 0.80846
 C417 C 0.16048 0.44824 0.81911
 C418 C 0.18126 0.44820 0.84002
 C419 C 0.19191 0.47370 0.85096
 C420 C 0.18118 0.49976 0.84054
 C421 C 0.16006 0.55136 0.81970
 C422 C 0.18089 0.55132 0.84054
 C423 C 0.19175 0.52578 0.85119
 C424 C 0.21300 0.52544 0.87215
 C425 C 0.22330 0.49970 0.88225
 C426 C 0.21312 0.47398 0.87197
 H427 H 0.15298 0.42806 0.81132
 H428 H 0.18897 0.42800 0.84753
 H429 H 0.15240 0.57157 0.81216
 H430 H 0.18847 0.57150 0.84825
 H431 H 0.10245 0.49991 0.76055
 H432 H 0.23974 0.49970 0.89829
 C433 C 0.25411 0.40811 0.09154
 C434 C 0.28320 0.41243 0.08758
 C435 C 0.29878 0.39413 0.07052
 C436 C 0.28549 0.37114 0.05712
 C437 C 0.25647 0.36617 0.06217
 C438 C 0.24082 0.38469 0.07920
 C439 C 0.23794 0.42951 0.10588
 C440 C 0.22587 0.44915 0.11675
 H441 H 0.29367 0.43056 0.09690
 H442 H 0.32110 0.39847 0.06717
 H443 H 0.24565 0.34870 0.05206
 H444 H 0.21825 0.38129 0.08195
 C445 C 0.74627 0.59214 0.09121
 C446 C 0.71714 0.58794 0.08744
 C447 C 0.70154 0.60622 0.07038
 C448 C 0.71485 0.62908 0.05680
 C449 C 0.74391 0.63396 0.06167
 C450 C 0.75958 0.61545 0.07869
 C451 C 0.76245 0.57073 0.10552
 C452 C 0.77450 0.55107 0.11636
 H453 H 0.70665 0.56989 0.09690
 H454 H 0.67918 0.60195 0.06717
 H455 H 0.75475 0.65133 0.05140
 H456 H 0.78218 0.61877 0.08129
 C457 C 0.74606 0.40782 0.90844
 C458 C 0.71696 0.41207 0.91230
 C459 C 0.70137 0.39381 0.92939
 C460 C 0.71468 0.37092 0.94292
 C461 C 0.74371 0.36599 0.93796
 C462 C 0.75937 0.38449 0.92091
 C463 C 0.76224 0.42922 0.89409
 C464 C 0.77429 0.44887 0.88321
 H465 H 0.70647 0.43015 0.90288
 H466 H 0.67903 0.39810 0.93267
 H467 H 0.75455 0.34860 0.94818
 H468 H 0.78195 0.38113 0.91823
 C469 C 0.25385 0.59177 0.90896
 C470 C 0.28293 0.58743 0.91290
 C471 C 0.29856 0.60573 0.92994
 C472 C 0.28533 0.62875 0.94332
 C473 C 0.25631 0.63374 0.93829
 C474 C 0.24061 0.61522 0.92130
 C475 C 0.23763 0.57040 0.89462
 C476 C 0.22554 0.55077 0.88374
 H477 H 0.29337 0.56928 0.90359
 H478 H 0.32088 0.60137 0.93327
 H479 H 0.24553 0.65123 0.94839
 H480 H 0.21805 0.61865 0.91855
 C481 C 0.09213 0.25475 0.40804
 C482 C 0.07976 0.24153 0.38466
 C483 C 0.06268 0.25714 0.36615
 C484 C 0.05760 0.28605 0.37110
 C485 C 0.07106 0.29927 0.39403
 C486 C 0.08818 0.28373 0.41232
 C487 C 0.10644 0.23859 0.42943
 C488 C 0.11724 0.22652 0.44905
 H489 H 0.08251 0.21904 0.38128
 H490 H 0.05252 0.24637 0.34872
 H491 H 0.06769 0.32151 0.39836
 H492 H 0.09752 0.29415 0.43042
 C493 C 0.09239 0.74499 0.59178
 C494 C 0.08850 0.71600 0.58753
 C495 C 0.07138 0.70044 0.60582
 C496 C 0.05787 0.71368 0.62871
 C497 C 0.06290 0.74260 0.63363
 C498 C 0.07997 0.75822 0.61512
 C499 C 0.10667 0.76115 0.57037
 C500 C 0.11745 0.77324 0.55074
 H501 H 0.09787 0.70558 0.56945
 H502 H 0.06805 0.67820 0.60152
 H503 H 0.05270 0.75338 0.65103
 H504 H 0.08268 0.78072 0.61847
 C505 C 0.90769 0.74501 0.40833
 C506 C 0.92010 0.75824 0.38497
 C507 C 0.93718 0.74262 0.36647
 C508 C 0.94223 0.71371 0.37140
 C509 C 0.92874 0.70047 0.39431
 C510 C 0.91162 0.71602 0.41259
 C511 C 0.89339 0.76116 0.42972
 C512 C 0.88260 0.77324 0.44934
 H513 H 0.91737 0.78073 0.38161
 H514 H 0.94737 0.75340 0.34907
 H515 H 0.93209 0.67823 0.39862
 H516 H 0.90225 0.70559 0.43067
 C517 C 0.90796 0.25504 0.59099
 C518 C 0.91207 0.28399 0.58661
 C519 C 0.92915 0.29955 0.60493
 C520 C 0.94241 0.28637 0.62801
 C521 C 0.93719 0.25750 0.63303
 C522 C 0.92015 0.24187 0.61450
 C523 C 0.89362 0.23885 0.56964
 C524 C 0.88277 0.22671 0.55007
 H525 H 0.90287 0.29436 0.56842
 H526 H 0.93263 0.32175 0.60054
 H527 H 0.94720 0.24676 0.65057
 H528 H 0.91727 0.21941 0.61796
 C529 C 0.40757 0.09213 0.25435
 C530 C 0.38391 0.07990 0.24127
 C531 C 0.36535 0.06285 0.25689
 C532 C 0.37053 0.05765 0.28564
 C533 C 0.39374 0.07096 0.29872
 C534 C 0.41208 0.08806 0.28318
 C535 C 0.42902 0.10646 0.23819
 C536 C 0.44873 0.11730 0.22613
 H537 H 0.38036 0.08275 0.21890
 H538 H 0.34771 0.05279 0.24623
 H539 H 0.39824 0.06751 0.32084
 H540 H 0.43040 0.09730 0.29348
 C541 C 0.59237 0.09161 0.74631
 C542 C 0.58782 0.08764 0.71746
 C543 C 0.60620 0.07070 0.70180
 C544 C 0.62950 0.05745 0.71478
 C545 C 0.63472 0.06254 0.74354
 C546 C 0.61611 0.07943 0.75927
 C547 C 0.57091 0.10579 0.76257
 C548 C 0.55121 0.11653 0.77472
 H549 H 0.56944 0.09684 0.70724
 H550 H 0.60167 0.06733 0.67968
 H551 H 0.65243 0.05252 0.75412
 H552 H 0.61970 0.08220 0.78165
 C553 C 0.40753 0.90832 0.74614
 C554 C 0.41213 0.91237 0.71732
 C555 C 0.39378 0.92936 0.70167
 C556 C 0.37045 0.94256 0.71463
 C557 C 0.36518 0.93740 0.74337
 C558 C 0.38376 0.92046 0.75909
 C559 C 0.42895 0.89409 0.76241
 C560 C 0.44864 0.88331 0.77456
 H561 H 0.43053 0.90320 0.70711
 H562 H 0.39836 0.93279 0.67957
 H563 H 0.34745 0.94738 0.75393
 H564 H 0.38012 0.91763 0.78145
 C565 C 0.59282 0.90915 0.25314
 C566 C 0.58834 0.91251 0.28207
 C567 C 0.60657 0.92939 0.29798
 C568 C 0.62965 0.94318 0.28518
 C569 C 0.63483 0.93870 0.25631
 C570 C 0.61636 0.92188 0.24032
 C571 C 0.57144 0.89502 0.23670
 C572 C 0.55176 0.88429 0.22448
 H573 H 0.57012 0.90289 0.29218
 H574 H 0.60208 0.93228 0.32017
 H575 H 0.65237 0.94915 0.24588
 H576 H 0.61990 0.91958 0.21788
 C577 C 0.40807 0.25377 0.90823
 C578 C 0.38414 0.24088 0.92014
 C579 C 0.36559 0.25670 0.93700
 C580 C 0.37104 0.28548 0.94232
 C581 C 0.39453 0.29839 0.92934
 C582 C 0.41286 0.28264 0.91243
 C583 C 0.42946 0.23737 0.89408
 C584 C 0.44912 0.22510 0.88339
 H585 H 0.38036 0.21848 0.91719
 H586 H 0.34773 0.24617 0.94681
 H587 H 0.39924 0.32051 0.93290
 H588 H 0.43138 0.29280 0.90344
 C589 C 0.59190 0.74595 0.90781
 C590 C 0.61587 0.75887 0.91961
 C591 C 0.63447 0.74310 0.93646
 C592 C 0.62904 0.71434 0.94188
 C593 C 0.60551 0.70140 0.92901
 C594 C 0.58713 0.71709 0.91211
 C595 C 0.57047 0.76231 0.89368
 C596 C 0.55078 0.77456 0.88300
 H597 H 0.61964 0.78126 0.91658
 H598 H 0.65237 0.75366 0.94618
 H599 H 0.60080 0.67928 0.93265
 H600 H 0.56857 0.70690 0.90320
 C601 C 0.40839 0.74644 0.09169
 C602 C 0.38437 0.75926 0.07988
 C603 C 0.36578 0.74339 0.06310
 C604 C 0.37126 0.71463 0.05776
 C605 C 0.39485 0.70179 0.07063
 C606 C 0.41322 0.71758 0.08746
 C607 C 0.42980 0.76290 0.10576
 C608 C 0.44947 0.77522 0.11639
 H609 H 0.38055 0.78165 0.08286
 H610 H 0.34784 0.75387 0.05338
 H611 H 0.39960 0.67967 0.06704
 H612 H 0.43181 0.70747 0.09636
 C613 C 0.59206 0.25409 0.09227
 C614 C 0.58728 0.28294 0.08793
 C615 C 0.60559 0.29860 0.07092
 C616 C 0.62906 0.28563 0.05798
 C617 C 0.63451 0.25688 0.06343
 C618 C 0.61597 0.24114 0.08040
 C619 C 0.57068 0.23776 0.10652
 C620 C 0.55101 0.22555 0.11728
 H621 H 0.56877 0.29314 0.09690
 H622 H 0.60087 0.32071 0.06726
 H623 H 0.65235 0.24631 0.05366
 H624 H 0.61975 0.21876 0.08345
 C625 C 0.25342 0.09203 0.59220
 C626 C 0.28251 0.08807 0.58793
 C627 C 0.29808 0.07097 0.60620
 C628 C 0.28479 0.05755 0.62910
 C629 C 0.25577 0.06262 0.63404
 C630 C 0.24012 0.07967 0.61554
 C631 C 0.23725 0.10636 0.57083
 C632 C 0.22520 0.11721 0.55121
 H633 H 0.29298 0.09740 0.56985
 H634 H 0.32040 0.06762 0.60189
 H635 H 0.24494 0.05248 0.65145
 H636 H 0.21755 0.08243 0.61891
 C637 C 0.74519 0.09099 0.40896
 C638 C 0.71749 0.08313 0.41595
 C639 C 0.70180 0.06592 0.39791
 C640 C 0.71354 0.05617 0.37236
 C641 C 0.74110 0.06522 0.36492
 C642 C 0.75687 0.08238 0.38323
 C643 C 0.76183 0.10581 0.42965
 C644 C 0.77417 0.11695 0.44894
 H645 H 0.70827 0.08960 0.43585
 H646 H 0.68066 0.05973 0.40443
 H647 H 0.75088 0.05828 0.34546
 H648 H 0.77838 0.08827 0.37769
 C649 C 0.74641 0.90785 0.59238
 C650 C 0.75973 0.92019 0.61573
 C651 C 0.74411 0.93730 0.63420
 C652 C 0.71512 0.94244 0.62923
 C653 C 0.70180 0.92905 0.60632
 C654 C 0.71734 0.91189 0.58808
 C655 C 0.76255 0.89343 0.57105
 C656 C 0.77457 0.88253 0.55144
 H657 H 0.78229 0.91736 0.61913
 H658 H 0.75495 0.94741 0.65162
 H659 H 0.67949 0.93246 0.60199
 H660 H 0.70685 0.90258 0.57000
 C661 C 0.25372 0.90762 0.40757
 C662 C 0.28283 0.91153 0.41180
 C663 C 0.29840 0.92864 0.39353
 C664 C 0.28508 0.94212 0.37067
 C665 C 0.25605 0.93709 0.36577
 C666 C 0.24040 0.92003 0.38426
 C667 C 0.23756 0.89330 0.42896
 C668 C 0.22551 0.88247 0.44859
 H669 H 0.29332 0.90217 0.42985
 H670 H 0.32073 0.93197 0.39781
 H671 H 0.24520 0.94727 0.34840
 H672 H 0.21782 0.91730 0.38092
 C673 C 0.09241 0.40802 0.74559
 C674 C 0.08036 0.38416 0.75833
 C675 C 0.06335 0.36576 0.74248
 C676 C 0.05802 0.37130 0.71382
 C677 C 0.07114 0.39473 0.70106
 C678 C 0.08820 0.41290 0.71683
 C679 C 0.10666 0.42927 0.76203
 C680 C 0.11739 0.44884 0.77434
 H681 H 0.08331 0.38031 0.78064
 H682 H 0.05344 0.34794 0.75290
 H683 H 0.06757 0.39951 0.67902
 H684 H 0.09729 0.43138 0.70678
 C685 C 0.09253 0.59192 0.25450
 C686 C 0.08825 0.58709 0.28326
 C687 C 0.07116 0.60529 0.29895
 C688 C 0.05807 0.62870 0.28611
 C689 C 0.06349 0.63419 0.25745
 C690 C 0.08052 0.61576 0.24168
 C691 C 0.10679 0.57064 0.23813
 C692 C 0.11754 0.55105 0.22588
 H693 H 0.09731 0.56863 0.29336
 H694 H 0.06754 0.60055 0.32099
 H695 H 0.05360 0.65198 0.24697
 H696 H 0.08353 0.61957 0.21937
 C697 C 0.90746 0.40796 0.25413
 C698 C 0.91162 0.41269 0.28292
 C699 C 0.92867 0.39444 0.29862
 C700 C 0.94183 0.37110 0.28573
 C701 C 0.93653 0.36571 0.25704
 C702 C 0.91953 0.38418 0.24127
 C703 C 0.89326 0.42930 0.23778
 C704 C 0.88256 0.44892 0.22555
 H705 H 0.90251 0.43110 0.29306
 H706 H 0.93221 0.39911 0.32068
 H707 H 0.94647 0.34796 0.24653
 H708 H 0.91662 0.38045 0.21893
 C709 C 0.90738 0.59189 0.74541
 C710 C 0.91165 0.58710 0.71665
 C711 C 0.92877 0.60531 0.70099
 C712 C 0.94189 0.62868 0.71387
 C713 C 0.93649 0.63413 0.74253
 C714 C 0.91942 0.61569 0.75827
 C715 C 0.89311 0.57058 0.76175
 C716 C 0.88236 0.55098 0.77398
 H717 H 0.90257 0.56866 0.70651
 H718 H 0.93238 0.60060 0.67894
 H719 H 0.94640 0.65190 0.75304
 H720 H 0.91643 0.61947 0.78059
 C721 C 0.74513 0.59115 0.90902
 C722 C 0.75682 0.61700 0.91752
 C723 C 0.74107 0.63543 0.93461
 C724 C 0.71353 0.62798 0.94369
 C725 C 0.70179 0.60230 0.93406
 C726 C 0.71746 0.58415 0.91694
 C727 C 0.76173 0.57035 0.89424
 C728 C 0.77403 0.55097 0.88314
 H729 H 0.77831 0.62257 0.91160
 H730 H 0.75085 0.65499 0.94145
 H731 H 0.68066 0.59575 0.94028
 H732 H 0.70822 0.56415 0.91056
 C733 C 0.25476 0.40852 0.90935
 C734 C 0.28248 0.41553 0.91712
 C735 C 0.29821 0.39744 0.93424
 C736 C 0.28650 0.37181 0.94401
 C737 C 0.25892 0.36433 0.93507
 C738 C 0.24309 0.38270 0.91799
 C739 C 0.23809 0.42929 0.89459
 C740 C 0.22576 0.44867 0.88352
 H741 H 0.29169 0.43549 0.91062
 H742 H 0.31937 0.40400 0.94034
 H743 H 0.24915 0.34481 0.94203
 H744 H 0.22157 0.37713 0.91219
 C745 C 0.25507 0.59144 0.09113
 C746 C 0.28278 0.58446 0.08332
 C747 C 0.29847 0.60257 0.06617
 C748 C 0.28672 0.62818 0.05641
 C749 C 0.25916 0.63563 0.06541
 C750 C 0.24338 0.61724 0.08251
 C751 C 0.23844 0.57064 0.10590
 C752 C 0.22612 0.55125 0.11696
 H753 H 0.29202 0.56450 0.08979
 H754 H 0.31962 0.59603 0.06002
 H755 H 0.24936 0.65514 0.05846
 H756 H 0.22186 0.62279 0.08835
 C757 C 0.74522 0.40876 0.09064
 C758 C 0.75689 0.38293 0.08210
 C759 C 0.74110 0.36450 0.06504
 C760 C 0.71354 0.37195 0.05603
 C761 C 0.70181 0.39760 0.06571
 C762 C 0.71752 0.41575 0.08280
 C763 C 0.76185 0.42957 0.10538
 C764 C 0.77418 0.44896 0.11644
 H765 H 0.77840 0.37737 0.08796
 H766 H 0.75087 0.34496 0.05816
 H767 H 0.68067 0.40414 0.05954
 H768 H 0.70830 0.43573 0.08922
 C769 C 0.90920 0.74440 0.59110
 C770 C 0.91786 0.75601 0.61684
 C771 C 0.93502 0.74025 0.63519
 C772 C 0.94403 0.71277 0.62776
 C773 C 0.93425 0.70111 0.60219
 C774 C 0.91705 0.71679 0.58412
 C775 C 0.89433 0.76098 0.57040
 C776 C 0.88314 0.77326 0.55109
 H777 H 0.91200 0.77745 0.62239
 H778 H 0.94199 0.74997 0.65467
 H779 H 0.94041 0.68004 0.59567
 H780 H 0.91055 0.70761 0.56421
 C781 C 0.90879 0.25522 0.40828
 C782 C 0.91657 0.28285 0.41527
 C783 C 0.93381 0.29855 0.39725
 C784 C 0.94370 0.28689 0.37173
 C785 C 0.93474 0.25939 0.36427
 C786 C 0.91754 0.24361 0.38257
 C787 C 0.89393 0.23861 0.42898
 C788 C 0.88280 0.22635 0.44832
 H789 H 0.90999 0.29202 0.43515
 H790 H 0.93992 0.31963 0.40379
 H791 H 0.94179 0.24967 0.34483
 H792 H 0.91174 0.22215 0.37702
 C793 C 0.09096 0.25564 0.59085
 C794 C 0.08323 0.28329 0.58392
 C795 C 0.06605 0.29899 0.60200
 C796 C 0.05618 0.28729 0.62752
 C797 C 0.06510 0.25978 0.63491
 C798 C 0.08224 0.24400 0.61656
 C799 C 0.10577 0.23903 0.57012
 C800 C 0.11689 0.22671 0.55081
 H801 H 0.08979 0.29249 0.56404
 H802 H 0.05996 0.32009 0.59551
 H803 H 0.05806 0.25003 0.65435
 H804 H 0.08801 0.22253 0.62207
 C805 C 0.09095 0.74431 0.40895
 C806 C 0.08311 0.71669 0.41590
 C807 C 0.06590 0.70103 0.39782
 C808 C 0.05610 0.71273 0.37227
 C809 C 0.06511 0.74021 0.36487
 C810 C 0.08229 0.75596 0.38323
 C811 C 0.10581 0.76088 0.42967
 C812 C 0.11698 0.77316 0.44899
 H813 H 0.08963 0.70749 0.43579
 H814 H 0.05974 0.67995 0.40432
 H815 H 0.05813 0.74996 0.34541
 H816 H 0.08815 0.77740 0.37770
 C817 C 0.59230 0.90843 0.74643
 C818 C 0.61596 0.92075 0.75944
 C819 C 0.63452 0.93774 0.74374
 C820 C 0.62935 0.94280 0.71496
 C821 C 0.60612 0.92944 0.70195
 C822 C 0.58779 0.91240 0.71758
 C823 C 0.57087 0.89408 0.76264
 C824 C 0.55117 0.88323 0.77471
 H825 H 0.61953 0.91799 0.78182
 H826 H 0.65218 0.94783 0.75434
 H827 H 0.60162 0.93278 0.67982
 H828 H 0.56947 0.90311 0.70732
 C829 C 0.40810 0.90898 0.25308
 C830 C 0.41267 0.91286 0.28193
 C831 C 0.39430 0.92973 0.29768
 C832 C 0.37095 0.94301 0.28481
 C833 C 0.36573 0.93805 0.25602
 C834 C 0.38434 0.92122 0.24019
 C835 C 0.42953 0.89478 0.23675
 C836 C 0.44923 0.88404 0.22457
 H837 H 0.43106 0.90362 0.29210
 H838 H 0.39885 0.93300 0.31981
 H839 H 0.34799 0.94808 0.24551
 H840 H 0.38071 0.91854 0.21781
 C841 C 0.59224 0.09240 0.25484
 C842 C 0.58739 0.08801 0.28358
 C843 C 0.60565 0.07090 0.29921
 C844 C 0.62915 0.05790 0.28634
 C845 C 0.63464 0.06338 0.25769
 C846 C 0.61616 0.08044 0.24198
 C847 C 0.57091 0.10678 0.23854
 C848 C 0.55125 0.11762 0.22636
 H849 H 0.56887 0.09702 0.29372
 H850 H 0.60089 0.06722 0.32123
 H851 H 0.65251 0.05357 0.24719
 H852 H 0.61999 0.08353 0.21968
 C853 C 0.40752 0.09156 0.74652
 C854 C 0.41200 0.08772 0.71765
 C855 C 0.39368 0.07071 0.70198
 C856 C 0.37049 0.05725 0.71496
 C857 C 0.36535 0.06218 0.74376
 C858 C 0.38390 0.07915 0.75951
 C859 C 0.42896 0.10585 0.76277
 C860 C 0.44868 0.11666 0.77486
 H861 H 0.43028 0.09708 0.70741
 H862 H 0.39815 0.06746 0.67983
 H863 H 0.34773 0.05201 0.75435
 H864 H 0.38036 0.08181 0.78191
 C865 C 0.59298 0.74752 0.09056
 C866 C 0.61637 0.76051 0.07771
 C867 C 0.63475 0.74458 0.06075
 C868 C 0.62965 0.71560 0.05625
 C869 C 0.60671 0.70264 0.07012
 C870 C 0.58857 0.71849 0.08713
 C871 C 0.57166 0.76388 0.10490
 C872 C 0.55199 0.77598 0.11580
 H873 H 0.61985 0.78302 0.08005
 H874 H 0.65219 0.75514 0.05025
 H875 H 0.60228 0.68036 0.06722
 H876 H 0.57046 0.70824 0.09684
 C877 C 0.40750 0.25308 0.09123
 C878 C 0.41190 0.28209 0.08761
 C879 C 0.39373 0.29781 0.07051
 C880 C 0.37076 0.28476 0.05676
 C881 C 0.36569 0.25581 0.06145
 C882 C 0.38410 0.24000 0.07850
 C883 C 0.42883 0.23683 0.10570
 C884 C 0.44850 0.22482 0.11670
 H885 H 0.43002 0.29240 0.09723
 H886 H 0.39815 0.32008 0.06746
 H887 H 0.34824 0.24517 0.05104
 H888 H 0.38063 0.21750 0.08099
 C889 C 0.59269 0.25270 0.90911
 C890 C 0.58837 0.28174 0.91256
 C891 C 0.60654 0.29752 0.92960
 C892 C 0.62944 0.28450 0.94349
 C893 C 0.63446 0.25551 0.93896
 C894 C 0.61604 0.23964 0.92197
 C895 C 0.57133 0.23641 0.89475
 C896 C 0.55164 0.22436 0.88384
 H897 H 0.57030 0.29204 0.90284
 H898 H 0.60218 0.31981 0.93252
 H899 H 0.65185 0.24490 0.94947
 H900 H 0.61945 0.21712 0.91962
 C901 C 0.40725 0.74696 0.90887
 C902 C 0.41162 0.71794 0.91242
 C903 C 0.39348 0.70219 0.92952
 C904 C 0.37057 0.71523 0.94337
 C905 C 0.36550 0.74420 0.93874
 C906 C 0.38389 0.76003 0.92168
 C907 C 0.42858 0.76324 0.89445
 C908 C 0.44826 0.77528 0.88349
 H909 H 0.42970 0.70763 0.90274
 H910 H 0.39788 0.67992 0.93253
 H911 H 0.34810 0.75482 0.94922
 H912 H 0.38044 0.78254 0.91926
 C913 C 0.74607 0.90813 0.40879
 C914 C 0.75936 0.92046 0.38542
 C915 C 0.74373 0.93755 0.36693
 C916 C 0.71472 0.94267 0.37187
 C917 C 0.70143 0.92930 0.39482
 C918 C 0.71700 0.91218 0.41308
 C919 C 0.76224 0.89364 0.43010
 C920 C 0.77431 0.88266 0.44964
 H921 H 0.78192 0.91764 0.38201
 H922 H 0.75456 0.94765 0.34950
 H923 H 0.67912 0.93270 0.39915
 H924 H 0.70651 0.90287 0.43117
 C925 C 0.25366 0.90834 0.59133
 C926 C 0.24036 0.92039 0.61484
 C927 C 0.25594 0.93742 0.63343
 C928 C 0.28490 0.94277 0.62845
 C929 C 0.29821 0.92969 0.60535
 C930 C 0.28270 0.91263 0.58698
 C931 C 0.23756 0.89386 0.56998
 C932 C 0.22554 0.88286 0.55040
 H933 H 0.21783 0.91737 0.61829
 H934 H 0.24511 0.94728 0.65099
 H935 H 0.32048 0.93326 0.60099
 H936 H 0.29319 0.90353 0.56879
 C937 C 0.25347 0.09129 0.40860
 C938 C 0.28247 0.08694 0.41311
 C939 C 0.29805 0.06989 0.39479
 C940 C 0.28485 0.05690 0.37157
 C941 C 0.25592 0.06229 0.36645
 C942 C 0.24027 0.07930 0.38500
 C943 C 0.23729 0.10579 0.42988
 C944 C 0.22523 0.11682 0.44941
 H945 H 0.29288 0.09598 0.43137
 H946 H 0.32030 0.06628 0.39926
 H947 H 0.24517 0.05249 0.34881
 H948 H 0.21777 0.08237 0.38142
 C949 C 0.74652 0.09173 0.59167
 C950 C 0.71747 0.08756 0.58735
 C951 C 0.70192 0.07049 0.60568
 C952 C 0.71521 0.05730 0.62873
 C953 C 0.74420 0.06254 0.63370
 C954 C 0.75982 0.07957 0.61513
 C955 C 0.76265 0.10617 0.57031
 C956 C 0.77464 0.11712 0.55069
 H957 H 0.70698 0.09673 0.56919
 H958 H 0.67963 0.06700 0.60134
 H959 H 0.75502 0.05258 0.65121
 H960 H 0.78236 0.08248 0.61856
 C961 C 0.90848 0.59199 0.25336
 C962 C 0.92129 0.61535 0.24040
 C963 C 0.93830 0.63377 0.25626
 C964 C 0.94288 0.62873 0.28514
 C965 C 0.92902 0.60581 0.29807
 C966 C 0.91197 0.58764 0.28230
 C967 C 0.89412 0.57068 0.23708
 C968 C 0.88319 0.55106 0.22501
 H969 H 0.91891 0.61879 0.21796
 H970 H 0.94879 0.65118 0.24572
 H971 H 0.93199 0.60143 0.32027
 H972 H 0.90229 0.56956 0.29252
 C973 C 0.90832 0.40798 0.74615
 C974 C 0.91196 0.41242 0.71725
 C975 C 0.92906 0.39428 0.70150
 C976 C 0.94281 0.37129 0.71442
 C977 C 0.93809 0.36617 0.74326
 C978 C 0.92103 0.38456 0.75909
 C979 C 0.89389 0.42925 0.76244
 C980 C 0.88294 0.44885 0.77451
 H981 H 0.90235 0.43055 0.70704
 H982 H 0.93213 0.39873 0.67933
 H983 H 0.94849 0.34871 0.75380
 H984 H 0.91853 0.38104 0.78151
 C985 C 0.09149 0.59189 0.74673
 C986 C 0.08796 0.58751 0.71780
 C987 C 0.07091 0.60568 0.70203
 C988 C 0.05710 0.62863 0.71495
 C989 C 0.06172 0.63369 0.74382
 C990 C 0.07872 0.61527 0.75967
 C991 C 0.10588 0.57059 0.76301
 C992 C 0.11681 0.55097 0.77507
 H993 H 0.09761 0.56941 0.70758
 H994 H 0.06792 0.60128 0.67983
 H995 H 0.05127 0.65112 0.75436
 H996 H 0.08114 0.61874 0.78211
 C997 C 0.09150 0.40797 0.25337
 C998 C 0.08789 0.41232 0.28228
 C999 C 0.07079 0.39412 0.29798
 C1000 C 0.05702 0.37117 0.28499
 C1001 C 0.06172 0.36615 0.25613
 C1002 C 0.07877 0.38459 0.24035
 C1003 C 0.10594 0.42929 0.23715
 C1004 C 0.11691 0.44892 0.22514
 H1005 H 0.09750 0.43041 0.29255
 H1006 H 0.06774 0.39849 0.32018
 H1007 H 0.05131 0.34872 0.24555
 H1008 H 0.08126 0.38115 0.21792
   
