data_POSCAR
  _audit_creation_date              2014-09-24
  _audit_creation_method            'ToBaCCo'
  _symmetry_space_group_name_H-M    'P1'
  _symmetry_Int_Tables_number       1
  _symmetry_cell_setting            triclinic
  loop_
  _symmetry_equiv_pos_as_xyz
 x,y,z
_cell_length_a 21.7134
_cell_length_b 21.7685
_cell_length_c 21.6631
_cell_angle_alpha 89.972600
_cell_angle_beta 89.996600
_cell_angle_gamma 90.054600
loop_
  _atom_site_label
  _atom_site_type_symbol
  _atom_site_fract_x
  _atom_site_fract_y
  _atom_site_fract_z
N1 N 0.56594 0.12463 0.02858
 N2 N 0.60938 0.16164 0.04948
 N3 N 0.43654 0.12386 -0.03175
 N4 N 0.39300 0.16012 -0.05362
 N5 N 0.43640 0.12434 0.02888
 N6 N 0.39278 0.16095 0.04994
 N7 N 0.56597 0.12379 -0.03204
 N8 N 0.60932 0.16026 -0.05407
 C9 C 0.63622 0.18303 -0.00263
 C10 C 0.36592 0.18244 -0.00208
 N11 N 0.43609 -0.03103 -0.12371
 N12 N 0.39227 -0.05274 -0.15989
 N13 N 0.56578 0.02899 -0.12500
 N14 N 0.60879 0.04958 -0.16291
 N15 N 0.56558 -0.03126 -0.12362
 N16 N 0.61101 -0.05397 -0.16275
 N17 N 0.43628 0.02928 -0.12451
 N18 N 0.39259 0.05032 -0.16117
 Mn19 Mn 0.50118 0.07695 -0.07879
 C20 C 0.36537 -0.00139 -0.18243
 C21 C 0.63629 -0.00172 -0.18526
 N22 N 0.43666 0.03172 0.12422
 N23 N 0.39286 0.05325 0.16053
 N24 N 0.56636 -0.02811 0.12482
 N25 N 0.60908 -0.04877 0.16296
 N26 N 0.56628 0.03216 0.12351
 N27 N 0.61156 0.05475 0.16300
 N28 N 0.43686 -0.02861 0.12492
 N29 N 0.39322 -0.04980 0.16162
 Mn30 Mn 0.50127 0.07869 0.07681
 C31 C 0.36600 0.00178 0.18305
 C32 C 0.63662 0.00244 0.18557
 N33 N 0.56570 -0.12351 -0.02897
 N34 N 0.60924 -0.15995 -0.05041
 N35 N 0.43661 -0.12320 0.03200
 N36 N 0.39322 -0.15979 0.05382
 N37 N 0.43632 -0.12349 -0.02862
 N38 N 0.39284 -0.16025 -0.04974
 N39 N 0.56617 -0.12287 0.03163
 N40 N 0.61004 -0.15897 0.05315
 Mn41 Mn 0.50086 -0.07776 -0.07669
 Mn42 Mn 0.50154 -0.07618 0.07884
 Cl43 Cl 0.50118 0.00044 0.00007
 C44 C 0.63667 -0.18127 0.00134
 C45 C 0.36613 -0.18205 0.00221
 N46 N 0.12461 0.43479 0.02958
 N47 N 0.16102 0.39112 0.05080
 N48 N 0.12594 0.56448 -0.02956
 N49 N 0.16257 0.60827 -0.05035
 N50 N 0.12557 0.56387 0.03105
 N51 N 0.16196 0.60714 0.05321
 N52 N 0.12473 0.43528 -0.03104
 N53 N 0.16128 0.39193 -0.05275
 C54 C 0.18305 0.36457 -0.00111
 C55 C 0.18425 0.63461 0.00186
 N56 N -0.02793 0.56702 -0.12441
 N57 N -0.04863 0.61012 -0.16203
 N58 N 0.03111 0.43719 -0.12547
 N59 N 0.05211 0.39341 -0.16197
 N60 N -0.02937 0.43785 -0.12568
 N61 N -0.05121 0.39456 -0.16229
 N62 N 0.03250 0.56647 -0.12366
 N63 N 0.05516 0.61180 -0.16300
 Mn64 Mn 0.07904 0.50081 -0.07795
 C65 C 0.00272 0.63739 -0.18489
 C66 C 0.00018 0.36709 -0.18417
 N67 N 0.03145 0.56353 0.12468
 N68 N 0.05296 0.60681 0.16154
 N69 N -0.02990 0.43471 0.12299
 N70 N -0.05166 0.39104 0.15926
 N71 N 0.03057 0.43442 0.12317
 N72 N 0.05167 0.39059 0.15952
 N73 N -0.02902 0.56384 0.12443
 N74 N -0.05037 0.60731 0.16103
 Mn75 Mn 0.07851 0.49917 0.07758
 C76 C 0.00131 0.63387 0.18339
 C77 C -0.00017 0.36373 0.18119
 N78 N -0.12344 0.43740 -0.03191
 N79 N -0.16003 0.39411 -0.05384
 N80 N -0.12237 0.56568 0.03026
 N81 N -0.15875 0.60895 0.05229
 N82 N -0.12216 0.56663 -0.03036
 N83 N -0.15848 0.61056 -0.05126
 N84 N -0.12338 0.43662 0.02871
 N85 N -0.15991 0.39289 0.04972
 Mn86 Mn -0.07622 0.50227 -0.07858
 Mn87 Mn -0.07663 0.50018 0.07704
 Cl88 Cl 0.00118 0.50059 -0.00050
 C89 C -0.18199 0.36660 -0.00231
 C90 C -0.18044 0.63675 0.00089
 N91 N 0.02883 0.12283 0.43472
 N92 N 0.05012 0.15920 0.39085
 N93 N -0.03123 0.12362 0.56467
 N94 N -0.05237 0.16068 0.60799
 N95 N 0.02924 0.12349 0.56448
 N96 N 0.05094 0.16041 0.60763
 N97 N -0.03164 0.12280 0.43489
 N98 N -0.05320 0.15914 0.39120
 C99 C -0.00164 0.18100 0.36392
 C100 C -0.00052 0.18277 0.63460
 N101 N -0.12533 -0.03024 0.56576
 N102 N -0.16217 -0.05123 0.60942
 N103 N -0.12554 0.02927 0.43560
 N104 N -0.16231 0.05041 0.39199
 N105 N -0.12566 -0.03106 0.43597
 N106 N -0.16258 -0.05264 0.39266
 N107 N -0.12520 0.03009 0.56534
 N108 N -0.16196 0.05184 0.60863
 Mn109 Mn -0.07886 0.07690 0.50013
 C110 C -0.18416 0.00054 0.63593
 C111 C -0.18460 -0.00124 0.36542
 N112 N 0.12290 0.02990 0.56480
 N113 N 0.15972 0.05144 0.60818
 N114 N 0.12264 -0.03099 0.43537
 N115 N 0.15959 -0.05243 0.39205
 N116 N 0.12254 0.02934 0.43503
 N117 N 0.15935 0.05062 0.39150
 N118 N 0.12273 -0.03042 0.56518
 N119 N 0.15939 -0.05163 0.60883
 Mn120 Mn 0.07633 0.07684 0.49975
 C121 C 0.18163 -0.00001 0.63545
 C122 C 0.18163 -0.00093 0.36486
 N123 N -0.03184 -0.12466 0.43631
 N124 N -0.05327 -0.16141 0.39286
 N125 N 0.02882 -0.12402 0.56597
 N126 N 0.05026 -0.16084 0.60937
 N127 N -0.03167 -0.12403 0.56610
 N128 N -0.05304 -0.16089 0.60954
 N129 N 0.02865 -0.12453 0.43619
 N130 N 0.05006 -0.16114 0.39269
 Mn131 Mn -0.07910 -0.07797 0.50104
 Mn132 Mn 0.07616 -0.07795 0.50068
 Cl133 Cl -0.00137 -0.00056 0.50041
 C134 C -0.00158 -0.18332 0.36587
 C135 C -0.00136 -0.18299 0.63637
 C136 C -0.29291 0.32347 -0.03208
 C137 C -0.28569 0.25910 -0.06153
 C138 C -0.31415 0.23039 -0.00322
 C139 C -0.32191 0.29417 0.02615
 C140 C -0.25014 0.22332 0.02623
 C141 C -0.22097 0.25279 -0.03207
 C142 C -0.22889 0.31654 -0.00265
 C143 C -0.25734 0.28777 0.05563
 H144 H -0.31003 0.36517 -0.05606
 H145 H -0.29778 0.24684 -0.10977
 H146 H -0.36393 0.31073 0.05010
 H147 H -0.23313 0.18159 0.05021
 H148 H -0.17890 0.23636 -0.05602
 H149 H -0.24526 0.29995 0.10389
 C150 C 0.22330 0.74850 -0.02660
 C151 C 0.25243 0.77771 0.03182
 C152 C 0.31645 0.77068 0.00240
 C153 C 0.28801 0.74221 -0.05600
 C154 C 0.32414 0.70679 0.03160
 C155 C 0.25950 0.71311 0.06104
 C156 C 0.23114 0.68463 0.00261
 C157 C 0.29518 0.67777 -0.02676
 H158 H 0.18128 0.76506 -0.05055
 H159 H 0.23545 0.81938 0.05591
 H160 H 0.30013 0.75461 -0.10421
 H161 H 0.36613 0.69013 0.05554
 H162 H 0.24731 0.70069 0.10922
 H163 H 0.31229 0.63615 -0.05085
 C164 C 0.25885 0.28605 0.05676
 C165 C 0.25205 0.22166 0.02709
 C166 C 0.31597 0.22937 -0.00242
 C167 C 0.32335 0.29308 0.02722
 C168 C 0.28727 0.25807 -0.06056
 C169 C 0.22262 0.25111 -0.03105
 C170 C 0.23017 0.31480 -0.00137
 C171 C 0.29411 0.32237 -0.03086
 H172 H 0.24673 0.29795 0.10508
 H173 H 0.23532 0.17968 0.05092
 H174 H 0.36530 0.30990 0.05117
 H175 H 0.29939 0.24611 -0.10887
 H176 H 0.18063 0.23443 -0.05501
 H177 H 0.31095 0.36431 -0.05468
 C178 C -0.25595 0.71486 0.05992
 C179 C -0.24929 0.77948 0.03060
 C180 C -0.31331 0.77191 0.00129
 C181 C -0.32058 0.70800 0.03058
 C182 C -0.28479 0.74360 -0.05712
 C183 C -0.22006 0.75042 -0.02782
 C184 C -0.22749 0.68653 0.00150
 C185 C -0.29153 0.67914 -0.02778
 H186 H -0.24363 0.70262 0.10811
 H187 H -0.23253 0.82131 0.05462
 H188 H -0.36244 0.69104 0.05459
 H189 H -0.29705 0.75586 -0.10532
 H190 H -0.17816 0.76727 -0.05184
 H191 H -0.30842 0.63735 -0.05179
 C192 C 0.02853 -0.29402 0.32404
 C193 C -0.02901 -0.32368 0.29429
 C194 C 0.00104 -0.31628 0.23048
 C195 C 0.05863 -0.28716 0.25965
 C196 C -0.02877 -0.25277 0.22235
 C197 C -0.05885 -0.25957 0.28686
 C198 C -0.00126 -0.23049 0.31607
 C199 C 0.02882 -0.22293 0.25228
 H200 H 0.05204 -0.31052 0.36641
 H201 H -0.05274 -0.36567 0.31110
 H202 H 0.10699 -0.29894 0.24800
 H203 H -0.05229 -0.23639 0.17994
 H204 H -0.10721 -0.24777 0.29847
 H205 H 0.05256 -0.18090 0.23558
 C206 C -0.02965 0.22373 0.74824
 C207 C 0.02865 0.25299 0.77737
 C208 C -0.00029 0.31687 0.76905
 C209 C -0.05859 0.28833 0.74066
 C210 C 0.02918 0.32336 0.70487
 C211 C 0.05815 0.25888 0.71250
 C212 C -0.00016 0.23037 0.68407
 C213 C -0.02907 0.29428 0.67591
 H214 H -0.05386 0.18220 0.76550
 H215 H 0.05241 0.23659 0.81964
 H216 H -0.10667 0.30086 0.75268
 H217 H 0.05337 0.36486 0.68749
 H218 H 0.10622 0.24632 0.70052
 H219 H -0.05281 0.31079 0.63367
 C220 C -0.05967 0.25682 0.28522
 C221 C -0.02995 0.32107 0.29227
 C222 C -0.00052 0.31375 0.22819
 C223 C -0.03020 0.25010 0.22043
 C224 C 0.05743 0.28490 0.25687
 C225 C 0.02794 0.29169 0.32153
 C226 C -0.00171 0.22802 0.31393
 C227 C 0.02775 0.22053 0.24987
 H228 H -0.10788 0.24480 0.29732
 H229 H -0.05367 0.36295 0.30923
 H230 H -0.05411 0.23360 0.17827
 H231 H 0.10566 0.29687 0.24477
 H232 H 0.05185 0.30832 0.36363
 H233 H 0.05148 0.17861 0.23304
 C234 C 0.02925 -0.29408 0.67831
 C235 C 0.05760 -0.28791 0.74341
 C236 C 0.00164 -0.31535 0.76998
 C237 C -0.02732 -0.32415 0.70935
 C238 C -0.02788 -0.25544 0.77970
 C239 C 0.02872 -0.22338 0.75036
 C240 C -0.00109 -0.23044 0.68605
 C241 C -0.05849 -0.26061 0.71538
 H242 H 0.05341 -0.31171 0.63679
 H243 H 0.10517 -0.30105 0.75684
 H244 H -0.05003 -0.36756 0.69486
 H245 H -0.05107 -0.24213 0.82340
 H246 H 0.05240 -0.18211 0.76890
 H247 H -0.10746 -0.25038 0.70489
 C248 C 0.29259 -0.03001 0.67748
 C249 C 0.32255 0.02765 0.70646
 C250 C 0.31520 -0.00155 0.77066
 C251 C 0.28579 -0.05926 0.74225
 C252 C 0.25163 0.02845 0.77854
 C253 C 0.25837 0.05766 0.71365
 C254 C 0.22899 -0.00005 0.68521
 C255 C 0.22149 -0.02928 0.74938
 H256 H 0.30897 -0.05402 0.63537
 H257 H 0.36466 0.05102 0.68927
 H258 H 0.29750 -0.10738 0.75447
 H259 H 0.23537 0.05246 0.82069
 H260 H 0.24665 0.10579 0.70148
 H261 H 0.17933 -0.05265 0.76644
 C262 C -0.26223 -0.05850 0.28645
 C263 C -0.32579 -0.02700 0.29182
 C264 C -0.31637 0.00139 0.23102
 C265 C -0.25642 -0.02847 0.22193
 C266 C -0.28874 0.05725 0.25733
 C267 C -0.29554 0.02948 0.32261
 C268 C -0.23187 -0.00119 0.31551
 C269 C -0.22417 0.02802 0.25102
 H270 H -0.25231 -0.10732 0.29740
 H271 H -0.36954 -0.04931 0.30619
 H272 H -0.24291 -0.05199 0.17850
 H273 H -0.30154 0.10467 0.24344
 H274 H -0.31337 0.05397 0.36383
 H275 H -0.18253 0.05127 0.23257
 C276 C 0.22183 0.02882 0.25111
 C277 C 0.28604 0.05907 0.25852
 C278 C 0.31570 0.00162 0.22994
 C279 C 0.25221 -0.02864 0.22178
 C280 C 0.32292 -0.02782 0.29404
 C281 C 0.29271 0.02958 0.32320
 C282 C 0.22920 -0.00065 0.31519
 C283 C 0.25884 -0.05809 0.28657
 H284 H 0.17967 0.05207 0.23400
 H285 H 0.29764 0.10730 0.24656
 H286 H 0.23612 -0.05254 0.17950
 H287 H 0.36504 -0.05106 0.31128
 H288 H 0.30893 0.05348 0.36544
 H289 H 0.24722 -0.10633 0.29850
 C290 C -0.29536 -0.02957 0.67830
 C291 C -0.28907 -0.05705 0.74373
 C292 C -0.31647 -0.00093 0.76960
 C293 C -0.32540 0.02720 0.70864
 C294 C -0.25639 0.02869 0.77891
 C295 C -0.22436 -0.02810 0.75026
 C296 C -0.23155 0.00083 0.68561
 C297 C -0.26167 0.05843 0.71422
 H298 H -0.31310 -0.05419 0.63710
 H299 H -0.30224 -0.10436 0.75777
 H300 H -0.36893 0.04965 0.69395
 H301 H -0.24299 0.05235 0.82230
 H302 H -0.18297 -0.05146 0.76902
 H303 H -0.25136 0.10714 0.70307
   
