data_POSCAR
  _audit_creation_date              2014-09-24
  _audit_creation_method            'ToBaCCo'
  _symmetry_space_group_name_H-M    'P1'
  _symmetry_Int_Tables_number       1
  _symmetry_cell_setting            triclinic
  loop_
  _symmetry_equiv_pos_as_xyz
 x,y,z
_cell_length_a 44.9056
_cell_length_b 44.9021
_cell_length_c 44.8385
_cell_angle_alpha 89.987100
_cell_angle_beta 90.013200
_cell_angle_gamma 89.840900
loop_
  _atom_site_label
  _atom_site_type_symbol
  _atom_site_fract_x
  _atom_site_fract_y
  _atom_site_fract_z
C1 C 0.19577 0.15597 0.19631
 C2 C 0.18287 0.14341 0.22187
 C3 C 0.15738 0.15627 0.23458
 C4 C 0.14459 0.18178 0.22180
 C5 C 0.15721 0.19461 0.19625
 C6 C 0.18291 0.18169 0.18341
 C7 C 0.22132 0.14332 0.18345
 C8 C 0.23407 0.15608 0.15794
 C9 C 0.22133 0.18159 0.14511
 C10 C 0.19578 0.19451 0.15769
 C11 C 0.18290 0.22007 0.14506
 C12 C 0.15743 0.23284 0.15784
 C13 C 0.14462 0.22017 0.18332
 H14 H 0.19268 0.12368 0.23188
 H15 H 0.12486 0.19164 0.23175
 H16 H 0.23130 0.12359 0.19329
 H17 H 0.23130 0.19138 0.12537
 H18 H 0.19266 0.23007 0.12534
 H19 H 0.12491 0.23024 0.19305
 C20 C -0.19577 0.84402 0.19617
 C21 C -0.18290 0.85659 0.22174
 C22 C -0.15738 0.84378 0.23446
 C23 C -0.14453 0.81831 0.22168
 C24 C -0.15712 0.80547 0.19611
 C25 C -0.18286 0.81834 0.18327
 C26 C -0.22135 0.85662 0.18330
 C27 C -0.23408 0.84384 0.15779
 C28 C -0.22128 0.81838 0.14496
 C29 C -0.19571 0.80550 0.15755
 C30 C -0.18277 0.77998 0.14492
 C31 C -0.15727 0.76725 0.15770
 C32 C -0.14448 0.77995 0.18319
 H33 H -0.19275 0.87629 0.23175
 H34 H -0.12478 0.80849 0.23163
 H35 H -0.23137 0.87633 0.19314
 H36 H -0.23125 0.80858 0.12522
 H37 H -0.19251 0.76996 0.12519
 H38 H -0.12474 0.76991 0.19292
 C39 C -0.19729 0.15746 -0.19518
 C40 C -0.18440 0.14479 -0.22072
 C41 C -0.15894 0.15751 -0.23346
 C42 C -0.14616 0.18296 -0.22079
 C43 C -0.15876 0.19591 -0.19526
 C44 C -0.18444 0.18314 -0.18236
 C45 C -0.22281 0.14495 -0.18227
 C46 C -0.23554 0.15782 -0.15678
 C47 C -0.22281 0.18329 -0.14401
 C48 C -0.19729 0.19608 -0.15665
 C49 C -0.18440 0.22160 -0.14410
 C50 C -0.15895 0.23421 -0.15694
 C51 C -0.14617 0.22143 -0.18241
 H52 H -0.19412 0.12509 -0.23072
 H53 H -0.12646 0.19263 -0.23083
 H54 H -0.23277 0.12524 -0.19205
 H55 H -0.23278 0.19316 -0.12429
 H56 H -0.19413 0.23168 -0.12438
 H57 H -0.12647 0.23138 -0.19219
 C58 C 0.19635 0.84253 -0.19670
 C59 C 0.18341 0.85519 -0.22223
 C60 C 0.15795 0.84244 -0.23497
 C61 C 0.14522 0.81695 -0.22225
 C62 C 0.15788 0.80402 -0.19672
 C63 C 0.18356 0.81683 -0.18385
 C64 C 0.22186 0.85508 -0.18380
 C65 C 0.23462 0.84223 -0.15833
 C66 C 0.22198 0.81675 -0.14555
 C67 C 0.19647 0.80391 -0.15816
 C68 C 0.18365 0.77838 -0.14557
 C69 C 0.15820 0.76572 -0.15837
 C70 C 0.14535 0.77848 -0.18384
 H71 H 0.19316 0.87492 -0.23218
 H72 H 0.12551 0.80717 -0.23222
 H73 H 0.23183 0.87479 -0.19353
 H74 H 0.23204 0.80697 -0.12584
 H75 H 0.19343 0.76832 -0.12586
 H76 H 0.12565 0.76849 -0.19359
 C77 C 0.15597 1.19577 0.80375
 C78 C 0.14339 1.18287 0.77820
 C79 C 0.15624 1.15737 0.76548
 C80 C 0.18175 1.14458 0.77825
 C81 C 0.19460 1.15720 0.80379
 C82 C 0.18169 1.18291 0.81664
 C83 C 0.14332 1.22133 0.81662
 C84 C 0.15611 1.23408 0.84211
 C85 C 0.18162 1.22134 0.85493
 C86 C 0.19453 1.19579 0.84234
 C87 C 0.22010 1.18291 0.85496
 C88 C 0.23286 1.15743 0.84218
 C89 C 0.22016 1.14461 0.81671
 H90 H 0.12365 1.19268 0.76820
 H91 H 0.19160 1.12485 0.76829
 H92 H 0.12359 1.23131 0.80679
 H93 H 0.19143 1.23133 0.87465
 H94 H 0.23011 1.19267 0.87467
 H95 H 0.23023 1.12490 0.80697
 C96 C 0.84400 0.80422 0.80384
 C97 C 0.85657 0.81709 0.77828
 C98 C 0.84377 0.84263 0.76556
 C99 C 0.81831 0.85548 0.77835
 C100 C 0.80546 0.84288 0.80391
 C101 C 0.81833 0.81714 0.81675
 C102 C 0.85660 0.77864 0.81671
 C103 C 0.84382 0.76591 0.84222
 C104 C 0.81836 0.77871 0.85505
 C105 C 0.80548 0.80429 0.84247
 C106 C 0.77996 0.81723 0.85510
 C107 C 0.76725 0.84274 0.84231
 C108 C 0.77994 0.85553 0.81683
 H109 H 0.87627 0.80724 0.76826
 H110 H 0.80849 0.87523 0.76839
 H111 H 0.87630 0.76862 0.80687
 H112 H 0.80856 0.76875 0.87479
 H113 H 0.76995 0.80749 0.87482
 H114 H 0.76991 0.87527 0.80710
 C115 C 0.15745 0.80276 1.19521
 C116 C 0.14481 0.81567 1.22076
 C117 C 0.15755 0.84113 1.23348
 C118 C 0.18298 0.85390 1.22077
 C119 C 0.19591 0.84129 1.19523
 C120 C 0.18312 0.81560 1.18236
 C121 C 0.14491 0.77724 1.18231
 C122 C 0.15775 0.76450 1.15681
 C123 C 0.18322 0.77721 1.14402
 C124 C 0.19603 0.80273 1.15665
 C125 C 0.22154 0.81560 1.14406
 C126 C 0.23418 0.84106 1.15689
 C127 C 0.22142 0.85386 1.18236
 H128 H 0.12512 0.80595 1.23078
 H129 H 0.19268 0.87360 1.23080
 H130 H 0.12521 0.76729 1.19212
 H131 H 0.19306 0.76723 1.12429
 H132 H 0.23161 0.80585 1.12435
 H133 H 0.23138 0.87356 1.19212
 C134 C 0.84250 1.19631 1.19674
 C135 C 0.85515 1.18337 1.22227
 C136 C 0.84239 1.15790 1.23501
 C137 C 0.81690 1.14518 1.22228
 C138 C 0.80398 1.15784 1.19675
 C139 C 0.81680 1.18352 1.18389
 C140 C 0.85505 1.22182 1.18383
 C141 C 0.84221 1.23458 1.15836
 C142 C 0.81674 1.22194 1.14558
 C143 C 0.80389 1.19643 1.15818
 C144 C 0.77836 1.18361 1.14559
 C145 C 0.76570 1.15816 1.15839
 C146 C 0.77845 1.14532 1.18386
 H147 H 0.87487 1.19313 1.23223
 H148 H 0.80712 1.12547 1.23225
 H149 H 0.87476 1.23179 1.19357
 H150 H 0.80696 1.23200 1.12586
 H151 H 0.76831 1.19339 1.12587
 H152 H 0.76846 1.12562 1.19361
 N153 N 0.53174 0.94748 1.03232
 N154 N 0.55444 0.92912 1.03613
 N155 N 0.46887 0.96781 1.05295
 N156 N 0.44626 0.96388 1.07135
 N157 N 0.46907 0.94718 1.03218
 N158 N 0.44661 0.92862 1.03586
 N159 N 0.53154 0.96811 1.05309
 N160 N 0.55410 0.96437 1.07162
 C161 C 0.56807 0.94000 1.06070
 C162 C 0.43271 0.93938 1.06035
 N163 N 0.46827 1.05271 1.03243
 N164 N 0.44557 1.07107 1.03625
 N165 N 0.53106 1.03227 1.05323
 N166 N 0.55360 1.03609 1.07174
 N167 N 0.53095 1.05300 1.03256
 N168 N 0.55341 1.07152 1.03642
 N169 N 0.46839 1.03197 1.05310
 N170 N 0.44577 1.03562 1.07156
 Mn171 Mn 0.49996 1.00004 1.05345
 C172 C 0.43186 1.06006 1.06071
 C173 C 0.56721 1.06063 1.06091
 N174 N 0.46918 0.94735 0.96794
 N175 N 0.44674 0.92882 0.96407
 N176 N 0.53174 0.96837 0.94740
 N177 N 0.55435 0.96469 0.92893
 N178 N 0.53185 0.94764 0.96808
 N179 N 0.55454 0.92926 0.96426
 N180 N 0.46907 0.96809 0.94727
 N181 N 0.44654 0.96426 0.92875
 Mn182 Mn 0.50047 0.94706 1.00013
 C183 C 0.43294 0.93971 0.93957
 C184 C 0.56825 0.94024 0.93979
 N185 N 0.53107 1.05317 0.96831
 N186 N 0.55351 1.07174 0.96459
 N187 N 0.46859 1.03225 0.94742
 N188 N 0.44602 1.03598 0.92890
 N189 N 0.46840 1.05288 0.96818
 N190 N 0.44570 1.07124 0.96438
 N191 N 0.53126 1.03253 0.94755
 N192 N 0.55383 1.03648 0.92911
 Mn193 Mn 0.49967 1.05329 1.00037
 Mn194 Mn 0.50017 1.00031 0.94706
 Cl195 Cl 0.50007 1.00018 1.00025
 C196 C 0.56739 1.06099 0.94008
 C197 C 0.43207 1.06036 0.93982
 N198 N 0.03225 0.46859 0.05262
 N199 N 0.03598 0.44600 0.07112
 N200 N 0.05314 0.53109 0.03176
 N201 N 0.07168 0.55356 0.03548
 N202 N 0.03250 0.53126 0.05251
 N203 N 0.03640 0.55385 0.07094
 N204 N 0.05289 0.46841 0.03186
 N205 N 0.07125 0.44571 0.03565
 C206 C 0.06037 0.43206 0.06020
 C207 C 0.06090 0.56743 0.05998
 N208 N 0.03228 0.53111 -0.05317
 N209 N 0.03610 0.55365 -0.07167
 N210 N 0.05275 0.46832 -0.03239
 N211 N 0.07111 0.44562 -0.03621
 N212 N 0.03202 0.46843 -0.05307
 N213 N 0.03568 0.44582 -0.07154
 N214 N 0.05300 0.53100 -0.03249
 N215 N 0.07152 0.55346 -0.03634
 Mn216 Mn 0.05330 0.49970 -0.00032
 C217 C 0.06064 0.56727 -0.06084
 C218 C 0.06013 0.43192 -0.06069
 N219 N -0.03166 0.53171 0.05264
 N220 N -0.03534 0.55431 0.07111
 N221 N -0.05264 0.46914 0.03206
 N222 N -0.07116 0.44668 0.03593
 N223 N -0.03191 0.46903 0.05274
 N224 N -0.03574 0.44650 0.07126
 N225 N -0.05238 0.53182 0.03196
 N226 N -0.07076 0.55450 0.03577
 Mn227 Mn 0.00030 0.50015 0.05298
 C228 C -0.05979 0.56821 0.06024
 C229 C -0.06028 0.43289 0.06043
 N230 N -0.03214 0.46887 -0.05294
 N231 N -0.03605 0.44628 -0.07136
 N232 N -0.05252 0.53173 -0.03229
 N233 N -0.07088 0.55443 -0.03609
 N234 N -0.03188 0.53155 -0.05305
 N235 N -0.03561 0.55413 -0.07156
 N236 N -0.05277 0.46905 -0.03218
 N237 N -0.07132 0.44659 -0.03588
 Mn238 Mn 0.00007 0.49999 -0.05341
 Mn239 Mn -0.05293 0.50044 -0.00011
 Cl240 Cl 0.00018 0.50007 -0.00021
 C241 C -0.06055 0.43271 -0.06038
 C242 C -0.06000 0.56808 -0.06064
 N243 N 1.03209 -0.05285 0.46863
 N244 N 1.03590 -0.07132 0.44604
 N245 N 1.05277 -0.03221 0.53139
 N246 N 1.07127 -0.03606 0.55396
 N247 N 1.03212 -0.05287 0.53139
 N248 N 1.03598 -0.07137 0.55396
 N249 N 1.05275 -0.03219 0.46862
 N250 N 1.07121 -0.03603 0.44602
 C251 C 1.06036 -0.06049 0.43226
 C252 C 1.06045 -0.06053 0.56772
 N253 N 1.03196 0.05266 0.53140
 N254 N 1.03572 0.07111 0.55401
 N255 N 1.05266 0.03197 0.46863
 N256 N 1.07110 0.03573 0.44603
 N257 N 1.03194 0.05268 0.46863
 N258 N 1.03571 0.07113 0.44602
 N259 N 1.05268 0.03195 0.53141
 N260 N 1.07113 0.03573 0.55402
 Mn261 Mn 1.05307 -0.00012 0.50001
 C262 C 1.06021 0.06021 0.56779
 C263 C 1.06019 0.06022 0.43224
 N264 N 0.96797 -0.05280 0.53140
 N265 N 0.96424 -0.07126 0.55400
 N266 N 0.94722 -0.03206 0.46864
 N267 N 0.92877 -0.03580 0.44603
 N268 N 0.96794 -0.05277 0.46862
 N269 N 0.96416 -0.07120 0.44600
 N270 N 0.94725 -0.03209 0.53141
 N271 N 0.92883 -0.03587 0.55403
 Mn272 Mn 1.00003 -0.05318 0.50001
 C273 C 0.93976 -0.06036 0.56780
 C274 C 0.93967 -0.06027 0.43224
 N275 N 0.96779 0.05276 0.46865
 N276 N 0.96394 0.07125 0.44607
 N277 N 0.94716 0.03207 0.53141
 N278 N 0.92868 0.03587 0.55400
 N279 N 0.96780 0.05273 0.53142
 N280 N 0.96396 0.07119 0.55402
 N281 N 0.94713 0.03210 0.46865
 N282 N 0.92864 0.03595 0.44606
 Mn283 Mn 0.99987 0.05306 0.50002
 Mn284 Mn 0.94684 0.00001 0.50003
 Cl285 Cl 0.99995 -0.00006 0.50002
 C286 C 0.93947 0.06042 0.43230
 C287 C 0.93951 0.06033 0.56778
 C288 C 1.12112 0.12048 0.30780
 N289 N 1.12586 0.09142 0.31462
 N290 N 1.11383 0.07959 0.33906
 C291 C 1.09670 0.09645 0.35741
 N292 N 1.09195 0.12551 0.35058
 N293 N 1.10398 0.13734 0.32614
 C294 C 1.13412 0.13324 0.28153
 C295 C 1.14504 0.14403 0.25948
 C296 C 1.08381 0.08372 0.38375
 C297 C 1.07301 0.07301 0.40589
 C298 C 0.87878 -0.12044 0.30773
 N299 N 0.89825 -0.13640 0.32449
 N300 N 0.91026 -0.12458 0.34895
 C301 C 0.90315 -0.09644 0.35738
 N302 N 0.88367 -0.08048 0.34062
 N303 N 0.87167 -0.09229 0.31616
 C304 C 0.86581 -0.13319 0.28144
 C305 C 0.85492 -0.14397 0.25937
 C306 C 0.91603 -0.08374 0.38374
 C307 C 0.92683 -0.07305 0.40588
 C308 C 0.87813 0.12073 0.69206
 N309 N 0.86333 0.09964 0.67633
 N310 N 0.87544 0.08777 0.65193
 C311 C 0.90272 0.09663 0.64251
 N312 N 0.91752 0.11772 0.65824
 N313 N 0.90541 0.12959 0.68265
 C314 C 0.86506 0.13358 0.71828
 C315 C 0.85410 0.14444 0.74029
 C316 C 0.91572 0.08389 0.61621
 C317 C 0.92661 0.07316 0.59410
 C318 C 1.12161 -0.12141 0.69193
 N319 N 1.10603 -0.13855 0.67256
 N320 N 1.09398 -0.12658 0.64816
 C321 C 1.09714 -0.09711 0.64240
 N322 N 1.11272 -0.07996 0.66177
 N323 N 1.12478 -0.09193 0.68617
 C324 C 1.13463 -0.13432 0.71815
 C325 C 1.14557 -0.14521 0.74017
 C326 C 1.08421 -0.08423 0.61611
 C327 C 1.07336 -0.07342 0.59402
 C328 C 0.30727 1.12008 1.12176
 N329 N 0.31438 1.12570 1.09291
 N330 N 0.33884 1.11388 1.08088
 C331 C 0.35694 1.09609 1.09735
 N332 N 0.34983 1.09046 1.12620
 N333 N 0.32536 1.10228 1.13822
 C334 C 0.28100 1.13291 1.13474
 C335 C 0.25895 1.14375 1.14564
 C336 C 0.38331 1.08341 1.08442
 C337 C 0.40547 1.07277 1.07359
 C338 C 0.30901 0.87895 0.87855
 N339 N 0.32622 0.89783 0.86245
 N340 N 0.35057 0.90977 0.87445
 C341 C 0.35845 0.90319 0.90291
 N342 N 0.34125 0.88432 0.91901
 N343 N 0.31689 0.87238 0.90700
 C344 C 0.28283 0.86606 0.86560
 C345 C 0.26085 0.85520 0.85471
 C346 C 0.38469 0.91603 0.91582
 C347 C 0.40672 0.92682 0.92666
 C348 C 0.69263 0.87975 1.12164
 N349 N 0.67563 0.86365 1.10257
 N350 N 0.65116 0.87551 1.09058
 C351 C 0.64296 0.90381 1.09729
 N352 N 0.65997 0.91991 1.11636
 N353 N 0.68444 0.90806 1.12835
 C354 C 0.71893 0.86695 1.13460
 C355 C 0.74101 0.85613 1.14549
 C356 C 0.61659 0.91656 1.08440
 C357 C 0.59444 0.92725 1.07359
 C358 C 0.69136 1.12197 0.87939
 N359 N 0.69368 1.10054 0.90059
 N360 N 0.66931 1.08860 0.91256
 C361 C 0.64189 1.09774 0.90369
 N362 N 0.63957 1.11917 0.88249
 N363 N 0.66393 1.13111 0.87052
 C364 C 0.71758 1.13480 0.86646
 C365 C 0.73960 1.14560 0.85557
 C366 C 0.61565 1.08484 0.91653
 C367 C 0.59361 1.07397 0.92729
 C368 C 0.12074 0.30747 0.12097
 N369 N 0.13136 0.31846 0.09490
 N370 N 0.11947 0.34293 0.08293
 C371 C 0.09659 0.35714 0.09669
 N372 N 0.08597 0.34615 0.12276
 N373 N 0.09786 0.32168 0.13473
 C374 C 0.13360 0.28119 0.13391
 C375 C 0.14445 0.25914 0.14480
 C376 C 0.08383 0.38351 0.08384
 C377 C 0.07311 0.40568 0.07305
 C378 C -0.12192 0.30864 -0.12046
 N379 N -0.09970 0.32312 -0.13487
 N380 N -0.08761 0.34749 -0.12306
 C381 C -0.09738 0.35812 -0.09648
 N382 N -0.11960 0.34364 -0.08207
 N383 N -0.13169 0.31926 -0.09388
 C384 C -0.13496 0.28244 -0.13321
 C385 C -0.14591 0.26045 -0.14399
 C386 C -0.08440 0.38438 -0.08379
 C387 C -0.07350 0.40645 -0.07312
 C388 C 0.12148 0.69128 -0.12159
 N389 N 0.09324 0.68323 -0.12854
 N390 N 0.08127 0.65886 -0.11660
 C391 C 0.09719 0.64180 -0.09734
 N392 N 0.12544 0.64986 -0.09038
 N393 N 0.13741 0.67423 -0.10233
 C394 C 0.13439 0.71748 -0.13449
 C395 C 0.14524 0.73947 -0.14536
 C396 C 0.08432 0.61555 -0.08451
 C397 C 0.07351 0.59350 -0.07371
 C398 C -0.12039 0.69270 0.12091
 N399 N -0.13260 0.68019 0.09626
 N400 N -0.12064 0.65574 0.08433
 C401 C -0.09612 0.64308 0.09669
 N402 N -0.08390 0.65560 0.12133
 N403 N -0.09586 0.68004 0.13327
 C404 C -0.13332 0.71896 0.13381
 C405 C -0.14422 0.74099 0.14468
 C406 C -0.08329 0.61673 0.08388
 C407 C -0.07255 0.59458 0.07310
 C408 C 1.12039 0.12117 0.69226
 N409 N 1.12559 0.09218 0.68545
 N410 N 1.11377 0.08017 0.66100
 C411 C 1.09641 0.09677 0.64262
 N412 N 1.09120 0.12575 0.64943
 N413 N 1.10302 0.13777 0.67388
 C414 C 1.13318 0.13413 0.71854
 C415 C 1.14398 0.14504 0.74059
 C416 C 1.08370 0.08385 0.61627
 C417 C 1.07300 0.07304 0.59414
 C418 C 0.87961 -0.12123 0.69232
 N419 N 0.90030 -0.13640 0.67630
 N420 N 0.91212 -0.12441 0.65184
 C421 C 0.90361 -0.09689 0.64266
 N422 N 0.88293 -0.08172 0.65868
 N423 N 0.87110 -0.09371 0.68314
 C424 C 0.86682 -0.13418 0.71860
 C425 C 0.85603 -0.14507 0.74066
 C426 C 0.91631 -0.08400 0.61630
 C427 C 0.92699 -0.07319 0.59416
 C428 C 1.12079 -0.12185 0.30799
 N429 N 1.12264 -0.09208 0.31277
 N430 N 1.11077 -0.07999 0.33719
 C431 C 1.09670 -0.09729 0.35755
 N432 N 1.09484 -0.12705 0.35277
 N433 N 1.10671 -0.13915 0.32835
 C434 C 1.13365 -0.13488 0.28176
 C435 C 1.14451 -0.14583 0.25974
 C436 C 1.08394 -0.08428 0.38385
 C437 C 1.07320 -0.07340 0.40595
 C438 C 0.87858 0.12155 0.30809
 N439 N 0.90619 0.12969 0.31720
 N440 N 0.91817 0.11764 0.34160
 C441 C 0.90290 0.09710 0.35761
 N442 N 0.87530 0.08897 0.34849
 N443 N 0.86332 0.10101 0.32410
 C444 C 0.86565 0.13457 0.28187
 C445 C 0.85475 0.14552 0.25986
 C446 C 0.91577 0.08417 0.38390
 C447 C 0.92658 0.07332 0.40600
 C448 C 0.12016 0.30732 -0.12170
 N449 N 0.12995 0.31747 -0.09497
 N450 N 0.11813 0.34194 -0.08295
 C451 C 0.09617 0.35699 -0.09730
 N452 N 0.08638 0.34683 -0.12404
 N453 N 0.09820 0.32236 -0.13606
 C454 C 0.13297 0.28103 -0.13469
 C455 C 0.14379 0.25898 -0.14559
 C456 C 0.08349 0.38337 -0.08439
 C457 C 0.07284 0.40553 -0.07356
 C458 C -0.12106 0.30897 0.12147
 N459 N -0.12939 0.31813 0.09387
 N460 N -0.11745 0.34248 0.08186
 C461 C -0.09682 0.35841 0.09710
 N462 N -0.08849 0.34925 0.12470
 N463 N -0.10043 0.32489 0.13671
 C464 C -0.13396 0.28279 0.13442
 C465 C -0.14481 0.26081 0.14533
 C466 C -0.08397 0.38464 0.08418
 C467 C -0.07317 0.40667 0.07334
 C468 C -0.12028 0.69262 -0.12161
 N469 N -0.13721 0.67408 -0.10486
 N470 N -0.12535 0.64961 -0.09285
 C471 C -0.09620 0.64296 -0.09724
 N472 N -0.07927 0.66151 -0.11399
 N473 N -0.09113 0.68597 -0.12600
 C474 C -0.13308 0.71892 -0.13458
 C475 C -0.14389 0.74100 -0.14548
 C476 C -0.08345 0.61660 -0.08435
 C477 C -0.07275 0.59444 -0.07353
 C478 C 0.12174 0.69148 0.12065
 N479 N 0.09867 0.67758 0.13428
 N480 N 0.08672 0.65322 0.12231
 C481 C 0.09749 0.64201 0.09637
 N482 N 0.12055 0.65591 0.08274
 N483 N 0.13250 0.68028 0.09470
 C484 C 0.13464 0.71767 0.13357
 C485 C 0.14549 0.73967 0.14447
 C486 C 0.08464 0.61575 0.08352
 C487 C 0.07383 0.59369 0.07276
 C488 C 0.30751 1.12078 0.87903
 N489 N 0.31574 1.09251 0.87218
 N490 N 0.34020 1.08061 0.88415
 C491 C 0.35718 1.09663 0.90331
 N492 N 0.34895 1.12490 0.91016
 N493 N 0.32449 1.13680 0.89819
 C494 C 0.28122 1.13362 0.86609
 C495 C 0.25916 1.14445 0.85520
 C496 C 0.38354 1.08384 0.91616
 C497 C 0.40570 1.07312 0.92695
 C498 C 0.30861 0.87801 1.12034
 N499 N 0.31647 0.90632 1.12730
 N500 N 0.34085 0.91839 1.11549
 C501 C 0.35811 0.90253 1.09639
 N502 N 0.35025 0.87422 1.08943
 N503 N 0.32586 0.86215 1.10124
 C504 C 0.28241 0.86499 1.13312
 C505 C 0.26041 0.85407 1.14391
 C506 C 0.38437 0.91551 1.08371
 C507 C 0.40644 0.92641 1.07306
 C508 C 0.69124 1.12146 1.12164
 N509 N 0.67475 1.13701 1.10160
 N510 N 0.65038 1.12505 1.08966
 C511 C 0.64176 1.09717 1.09740
 N512 N 0.65825 1.08162 1.11744
 N513 N 0.68262 1.09359 1.12938
 C514 C 0.71744 1.13436 1.13453
 C515 C 0.73945 1.14521 1.14539
 C516 C 0.61551 1.08430 1.08456
 C517 C 0.59345 1.07350 1.07378
 C518 C 0.69271 0.87960 0.87913
 N519 N 0.68402 0.90754 0.87150
 N520 N 0.65958 0.91950 0.88343
 C521 C 0.64310 0.90389 0.90335
 N522 N 0.65180 0.87596 0.91099
 N523 N 0.67623 0.86400 0.89906
 C524 C 0.71896 0.86668 0.86622
 C525 C 0.74099 0.85579 0.85534
 C526 C 0.61676 0.91674 0.91616
 C527 C 0.59461 0.92749 0.92693
   
