data_POSCAR
  _audit_creation_date              2014-09-24
  _audit_creation_method            'ToBaCCo'
  _symmetry_space_group_name_H-M    'P1'
  _symmetry_Int_Tables_number       1
  _symmetry_cell_setting            triclinic
  loop_
  _symmetry_equiv_pos_as_xyz
 x,y,z
_cell_length_a 26.0775
_cell_length_b 21.0078
_cell_length_c 7.4969
_cell_angle_alpha 95.287000
_cell_angle_beta 92.497600
_cell_angle_gamma 91.471100
loop_
  _atom_site_label
  _atom_site_type_symbol
  _atom_site_fract_x
  _atom_site_fract_y
  _atom_site_fract_z
C1 C 0.21052 0.22988 0.07843
 C2 C 0.20538 0.27417 0.23068
 C3 C 0.24705 0.28585 0.35505
 C4 C 0.29315 0.25377 0.33405
 C5 C 0.29760 0.20666 0.18844
 C6 C 0.25755 0.19939 0.05528
 H7 H 0.26064 0.16376 -0.05769
 H8 H 0.24474 0.32322 0.46417
 C9 C 0.78346 0.26976 0.03071
 C10 C 0.77296 0.20268 0.01668
 C11 C 0.73038 0.17814 0.09906
 C12 C 0.69551 0.21916 0.18369
 C13 C 0.70173 0.28552 0.17416
 C14 C 0.74647 0.31036 0.10644
 H15 H 0.75042 0.36164 0.10123
 H16 H 0.72531 0.12684 0.10134
 C17 C 0.70619 0.73575 0.69971
 C18 C 0.71091 0.79802 0.78824
 C19 C 0.75768 0.81811 0.87823
 C20 C 0.80053 0.77831 0.88026
 C21 C 0.79506 0.71557 0.79075
 C22 C 0.74819 0.69554 0.70251
 H23 H 0.74444 0.64781 0.63339
 H24 H 0.76019 0.86556 0.94857
 C25 C 0.30117 0.77987 0.81592
 C26 C 0.29617 0.71438 0.84136
 C27 C 0.25108 0.69028 0.90851
 C28 C 0.21194 0.73094 0.96752
 C29 C 0.22067 0.79800 0.96537
 C30 C 0.26387 0.82134 0.88327
 H31 H 0.26805 0.87217 0.87042
 H32 H 0.24831 0.63963 0.92528
 O33 O 1.05930 -0.01860 0.16406
 O34 O 0.94532 0.07383 0.07405
 O35 O 0.96055 -0.03976 0.16243
 O36 O 1.04431 0.09633 0.07346
 O37 O 1.04451 0.06232 -0.21404
 O38 O 0.96094 -0.07292 -0.12617
 O39 O 0.94442 0.04029 -0.21413
 O40 O 1.05903 -0.05229 -0.12394
 Cu41 Cu 1.00255 0.03220 0.14696
 Cu42 Cu 1.00229 -0.00897 -0.19856
 C43 C 1.07842 -0.05175 0.03450
 C44 C 0.92454 0.07144 -0.08257
 C45 C 0.94623 -0.07928 0.03022
 C46 C 1.05975 0.10176 -0.08285
 O47 O 0.56079 0.43148 0.53467
 O48 O 0.46816 0.53663 0.76403
 O49 O 0.46877 0.41492 0.65527
 O50 O 0.56025 0.55102 0.65752
 O51 O 0.52622 0.57687 0.40018
 O52 O 0.43655 0.43794 0.39246
 O53 O 0.43343 0.55908 0.50438
 O54 O 0.52704 0.45670 0.27632
 Cu55 Cu 0.51762 0.48119 0.67826
 Cu56 Cu 0.47751 0.50979 0.36742
 C57 C 0.55955 0.42667 0.36437
 C58 C 0.43539 0.56591 0.67436
 C59 C 0.43714 0.40303 0.52221
 C60 C 0.55874 0.58737 0.53156
 O61 O -0.06009 0.56317 0.05091
 O62 O 0.03390 0.45611 0.23806
 O63 O 0.03489 0.57761 0.17006
 O64 O -0.06212 0.44542 0.11314
 O65 O -0.03442 0.41632 -0.15555
 O66 O 0.06382 0.54688 -0.09556
 O67 O 0.06039 0.42687 -0.03180
 O68 O -0.03220 0.53596 -0.21840
 Cu69 Cu -0.01540 0.51309 0.17080
 Cu70 Cu 0.01714 0.47899 -0.15160
 C71 C -0.06249 0.56710 -0.11707
 C72 C 0.06273 0.42284 0.13615
 C73 C 0.06566 0.58502 0.04633
 C74 C -0.06538 0.40914 -0.03233
 O75 O 0.44160 1.07070 0.51105
 O76 O 0.54133 0.98106 0.73799
 O77 O 0.53901 1.08702 0.58228
 O78 O 0.44228 0.96450 0.67247
 O79 O 0.45960 0.90993 0.41737
 O80 O 0.55518 1.03373 0.32393
 O81 O 0.55800 0.92808 0.47981
 O82 O 0.45719 1.01577 0.25467
 Cu83 Cu 0.48944 1.03100 0.65180
 Cu84 Cu 0.50870 0.96630 0.34318
 C85 C 0.43312 1.05911 0.34281
 C86 C 0.56686 0.93970 0.64771
 C87 C 0.56305 1.08189 0.43819
 C88 C 0.43509 0.91557 0.56062
 N89 N 1.12932 0.14430 -0.24313
 N90 N 1.17224 0.17854 -0.20199
 C91 C 1.16836 0.20684 -0.03403
 C92 C 1.12120 0.18896 0.02533
 N93 N 1.09848 0.14914 -0.10731
 H94 H 1.10881 0.19501 0.16176
 N95 N 0.59626 0.68303 0.41932
 N96 N 0.63484 0.72481 0.46243
 C97 C 0.65736 0.70842 0.61641
 C98 C 0.63228 0.65465 0.66413
 N99 N 0.59430 0.64058 0.53900
 H100 H 0.64180 0.62726 0.77590
 N101 N -0.10018 0.30624 -0.16498
 N102 N -0.14016 0.26725 -0.15016
 C103 C -0.17090 0.29669 -0.02964
 C104 C -0.14804 0.35566 0.02876
 N105 N -0.10404 0.35923 -0.05743
 H106 H -0.16076 0.39127 0.12967
 N107 N 0.39717 0.80848 0.50336
 N108 N 0.36291 0.77074 0.56995
 C109 C 0.34345 0.80440 0.71211
 C110 C 0.36679 0.86481 0.72941
 N111 N 0.40010 0.86511 0.59688
 H112 H 0.36029 0.90442 0.82797
 N113 N -0.10193 0.61948 -0.36320
 N114 N -0.13950 0.65905 -0.39248
 C115 C -0.16169 0.67211 -0.23466
 C116 C -0.13723 0.63833 -0.10813
 N117 N -0.09974 0.60688 -0.19333
 H118 H -0.14521 0.63777 0.03227
 N119 N 0.38143 1.08210 0.07980
 N120 N 0.34569 1.12187 0.03346
 C121 C 0.33783 1.16273 0.17923
 C122 C 0.37028 1.14580 0.31800
 N123 N 0.39639 1.09534 0.25023
 H124 H 0.37247 1.16488 0.45713
 N125 N 1.14524 -0.09295 0.22651
 N126 N 1.18372 -0.13290 0.21329
 C127 C 1.18466 -0.15492 0.03877
 C128 C 1.14600 -0.12741 -0.05499
 N129 N 1.12223 -0.08920 0.06704
 H130 H 1.13567 -0.13520 -0.19693
 N131 N 0.58785 0.36896 0.09421
 N132 N 0.62528 0.33196 0.03876
 C133 C 0.65674 0.32605 0.18302
 C134 C 0.63744 0.36044 0.33001
 N135 N 0.59433 0.38650 0.26787
 H136 H 0.65277 0.36555 0.46727
 N137 N 0.92738 -0.19066 0.05197
 N138 N 0.88890 -0.23137 0.00015
 C139 C 0.84758 -0.19678 -0.03746
 C140 C 0.86225 -0.13290 -0.00203
 N141 N 0.91199 -0.13120 0.05340
 H142 H 0.84125 -0.09161 -0.03652
 N143 N 0.38559 0.32425 0.66180
 N144 N 0.34684 0.28288 0.61660
 C145 C 0.33858 0.28221 0.43750
 C146 C 0.37233 0.32537 0.37516
 N147 N 0.40108 0.35042 0.51853
 H148 H 0.37341 0.34032 0.24089
 N149 N 0.09337 0.69428 0.14995
 N150 N 0.13157 0.73530 0.12822
 C151 C 0.16610 0.70377 0.02663
 C152 C 0.14715 0.64149 -0.01375
 N153 N 0.10195 0.63783 0.06500
 H154 H 0.16326 0.60327 -0.09856
 N155 N 0.60378 1.18678 0.50655
 N156 N 0.63791 1.22488 0.44099
 C157 C 0.65468 1.19337 0.29068
 C158 C 0.62994 1.13391 0.26709
 N159 N 0.59844 1.13204 0.40436
 H160 H 0.63420 1.09605 0.16110
 N161 N 0.10500 0.37524 0.38589
 N162 N 0.14237 0.33548 0.41613
 C163 C 0.15986 0.31454 0.25501
 C164 C 0.13223 0.34351 0.12474
 N165 N 0.09842 0.38085 0.21209
 H166 H 0.13754 0.33981 -0.01823
 N167 N 0.61758 0.91400 0.91096
 N168 N 0.65537 0.87636 0.95321
 C169 C 0.66761 0.84230 0.80019
 C170 C 0.63661 0.86133 0.66175
 N171 N 0.60576 0.90563 0.73680
 H172 H 0.63781 0.84689 0.51984
 N173 N 0.84898 0.09956 -0.25979
 N174 N 0.80677 0.13269 -0.23650
 C175 C 0.80878 0.15679 -0.06311
 C176 C 0.85326 0.13832 0.01877
 N177 N 0.87736 0.10294 -0.10822
 H178 H 0.86730 0.15067 0.15599
 N179 N 0.40603 0.62539 0.94143
 N180 N 0.36981 0.66549 0.99001
 C181 C 0.34118 0.67379 0.84046
 C182 C 0.36055 0.63712 0.69816
 N183 N 0.40114 0.60783 0.76737
 H184 H 0.34669 0.63223 0.55921
   
