data_POSCAR
  _audit_creation_date              2014-09-24
  _audit_creation_method            'ToBaCCo'
  _symmetry_space_group_name_H-M    'P1'
  _symmetry_Int_Tables_number       1
  _symmetry_cell_setting            triclinic
  loop_
  _symmetry_equiv_pos_as_xyz
 x,y,z
_cell_length_a 20.5276
_cell_length_b 20.5454
_cell_length_c 20.4703
_cell_angle_alpha 88.415200
_cell_angle_beta 88.957200
_cell_angle_gamma 90.249600
loop_
  _atom_site_label
  _atom_site_type_symbol
  _atom_site_fract_x
  _atom_site_fract_y
  _atom_site_fract_z
N1 N 0.25244 0.22234 0.23399
 N2 N -0.20096 0.79168 0.19616
 N3 N -0.19148 0.21021 -0.19173
 N4 N 0.18313 0.81140 -0.20478
 N5 N 0.20092 1.19422 0.80572
 N6 N 0.78753 0.78733 0.78451
 N7 N 0.19773 0.79180 1.20874
 N8 N 0.78586 1.20221 1.19802
 N9 N 0.57738 1.03265 1.11330
 N10 N 0.62419 1.03429 1.15663
 N11 N 0.44411 1.09330 1.08408
 N12 N 0.40198 1.13650 1.10580
 N13 N 0.44089 1.03967 1.12050
 N14 N 0.39668 1.04469 1.16757
 N15 N 0.58012 1.08466 1.07447
 N16 N 0.62820 1.12339 1.09083
 C17 C 0.65558 1.09099 1.14178
 C18 C 0.37269 1.10514 1.15776
 N19 N 0.43261 1.08077 0.89410
 N20 N 0.38027 1.09664 0.86102
 N21 N 0.57616 1.10915 0.93373
 N22 N 0.62642 1.14912 0.92300
 N23 N 0.56783 1.07302 0.88265
 N24 N 0.61052 1.08762 0.83587
 N25 N 0.43852 1.11784 0.94491
 N26 N 0.38997 1.15966 0.94809
 Mn27 Mn 0.51008 1.10217 1.00934
 C28 C 0.35434 1.14607 0.89518
 C29 C 0.64724 1.13429 0.86161
 N30 N 0.43120 0.90143 1.09963
 N31 N 0.37918 0.89207 1.13783
 N32 N 0.56599 0.85924 1.04142
 N33 N 0.61745 0.82051 1.03994
 N34 N 0.56783 0.89561 1.09313
 N35 N 0.61965 0.88270 1.12808
 N36 N 0.42778 0.86536 1.04780
 N37 N 0.37296 0.83162 1.04860
 Mn38 Mn 0.50410 0.96711 1.10727
 C39 C 0.34365 0.84802 1.10533
 C40 C 0.65010 0.83558 1.09480
 N41 N 0.56051 0.93684 0.86386
 N42 N 0.61243 0.93878 0.82513
 N43 N 0.42257 0.89009 0.90922
 N44 N 0.37150 0.85393 0.89455
 N45 N 0.42420 0.94342 0.87245
 N46 N 0.37573 0.94473 0.83126
 N47 N 0.56032 0.88384 0.90124
 N48 N 0.61169 0.84755 0.88791
 Mn49 Mn 0.49599 1.00849 0.87790
 Mn50 Mn 0.49431 0.87351 0.97487
 Cl51 Cl 0.50114 0.98788 0.99245
 C52 C 0.64344 0.88268 0.84008
 C53 C 0.34285 0.88920 0.84581
 N54 N 0.10768 0.42766 -0.08425
 N55 N 0.14095 0.37442 -0.09721
 N56 N 0.06708 0.57125 -0.11821
 N57 N 0.07647 0.62338 -0.15694
 N58 N 0.11763 0.56275 -0.08056
 N59 N 0.16279 0.60687 -0.09287
 N60 N 0.05688 0.43286 -0.12212
 N61 N 0.05370 0.38253 -0.16098
 C62 C 0.10693 0.34683 -0.14553
 C63 C 0.13676 0.64442 -0.13999
 N64 N -0.11247 0.57632 -0.04498
 N65 N -0.15564 0.62374 -0.04790
 N66 N -0.08168 0.44057 -0.09973
 N67 N -0.09671 0.39120 -0.13662
 N68 N -0.11917 0.44009 -0.04710
 N69 N -0.16117 0.39159 -0.04690
 N70 N -0.07478 0.57778 -0.09768
 N71 N -0.09260 0.62557 -0.13846
 Mn72 Mn -0.00815 0.50604 -0.11061
 C73 C -0.14284 0.65432 -0.10622
 C74 C -0.14664 0.36162 -0.10284
 N75 N 0.13621 0.55816 0.05769
 N76 N 0.17992 0.60556 0.06048
 N77 N 0.09072 0.42278 0.10798
 N78 N 0.10916 0.37712 0.15036
 N79 N 0.12661 0.42183 0.05410
 N80 N 0.17065 0.37559 0.05582
 N81 N 0.09638 0.55948 0.10853
 N82 N 0.11120 0.60786 0.14671
 Mn83 Mn 0.12238 0.49242 -0.01334
 C84 C 0.16345 0.63623 0.11626
 C85 C 0.16131 0.34484 0.11778
 N86 N -0.09863 0.42972 0.09141
 N87 N -0.14023 0.38217 0.10719
 N88 N -0.04196 0.56522 0.13048
 N89 N -0.04101 0.61639 0.16817
 N90 N -0.09326 0.56684 0.09324
 N91 N -0.12887 0.61839 0.10457
 N92 N -0.04936 0.42879 0.13151
 N93 N -0.05747 0.38254 0.17715
 Mn94 Mn -0.10643 0.50306 0.02326
 Mn95 Mn 0.02409 0.49408 0.12040
 Cl96 Cl 0.00784 0.49893 0.00479
 C97 C -0.11387 0.35317 0.16094
 C98 C -0.09600 0.64855 0.15153
 N99 N 0.87569 -0.05140 0.41632
 N100 N 0.83478 -0.05353 0.36754
 N101 N 0.91990 -0.11985 0.54392
 N102 N 0.92027 -0.16582 0.58981
 N103 N 0.87232 -0.07836 0.55349
 N104 N 0.83826 -0.09654 0.60694
 N105 N 0.92306 -0.09347 0.40892
 N106 N 0.91442 -0.12686 0.35543
 C107 C 0.85937 -0.10071 0.33003
 C108 C 0.86920 -0.15171 0.62854
 N109 N 1.09773 -0.06592 0.56302
 N110 N 1.13111 -0.08010 0.61592
 N111 N 1.06490 -0.08757 0.41515
 N112 N 1.08175 -0.12315 0.36508
 N113 N 1.11010 -0.04408 0.42675
 N114 N 1.15861 -0.04845 0.38353
 N115 N 1.05757 -0.11349 0.54979
 N116 N 1.06268 -0.16156 0.59332
 Mn117 Mn 0.99133 -0.10396 0.47866
 C118 C 1.10854 -0.14001 0.63400
 C119 C 1.13994 -0.09792 0.34525
 N120 N 0.86483 0.06240 0.57181
 N121 N 0.82424 0.06057 0.62278
 N122 N 0.91726 0.12913 0.43907
 N123 N 0.92123 0.16803 0.38692
 N124 N 0.86989 0.08637 0.43430
 N125 N 0.83880 0.09719 0.37870
 N126 N 0.90652 0.11064 0.57583
 N127 N 0.89564 0.14288 0.62958
 Mn128 Mn 0.86945 0.00462 0.49456
 C129 C 0.84404 0.11150 0.65819
 C130 C 0.87145 0.14876 0.35016
 N131 N 1.10421 0.09312 0.44731
 N132 N 1.14986 0.10871 0.40361
 N133 N 1.04459 0.11746 0.58309
 N134 N 1.05311 0.16138 0.62779
 N135 N 1.09184 0.07446 0.58344
 N136 N 1.13380 0.08844 0.62967
 N137 N 1.05656 0.13561 0.44771
 N138 N 1.06718 0.18333 0.40425
 Mn139 Mn 1.10175 0.01423 0.50574
 Mn140 Mn 0.98089 0.12363 0.51109
 Cl141 Cl 0.98594 0.00960 0.49758
 C142 C 1.12779 0.16749 0.37401
 C143 C 1.10781 0.14217 0.65756
 C144 C 1.22392 0.19046 0.29117
 C145 C 1.16508 0.20819 0.31290
 H146 H 1.24863 0.15015 0.31510
 H147 H 1.14549 0.18783 0.34416
 C148 C 0.82942 -0.18446 0.25401
 C149 C 0.82743 -0.12223 0.27074
 H150 H 0.85588 -0.21837 0.28507
 H151 H 0.79998 -0.08692 0.24248
 C152 C 0.82821 0.18882 0.74446
 C153 C 0.81487 0.13008 0.72118
 H154 H 0.85882 0.22160 0.71475
 H155 H 0.78449 0.09533 0.74836
 C156 C 1.16265 -0.15039 0.73934
 C157 C 1.12930 -0.17736 0.69146
 H158 H 1.17521 -0.09915 0.73550
 H159 H 1.11594 -0.22840 0.69442
 C160 C 0.30592 1.19543 1.19693
 C161 C 0.32116 1.13224 1.19955
 H162 H 0.33223 1.22738 1.16252
 H163 H 0.29510 1.09863 1.23218
 C164 C 0.23983 0.82864 0.83229
 C165 C 0.28540 0.87016 0.80891
 H166 H 0.24618 0.80626 0.88035
 H167 H 0.28038 0.89333 0.76124
 C168 C 0.73870 0.81983 1.17324
 C169 C 0.71253 0.80659 1.11502
 H170 H 0.71293 0.85278 1.20492
 H171 H 0.73683 0.77481 1.08125
 C172 C 0.75752 1.17998 0.84813
 C173 C 0.69982 1.16634 0.82329
 H174 H 0.76490 1.17261 0.90011
 H175 H 0.69257 1.17376 0.77135
 C176 C 0.22151 0.27979 0.20880
 C177 C 0.20647 0.28416 0.14638
 H178 H 0.20271 0.31544 0.24244
 H179 H 0.18244 0.31526 0.13342
 C180 C -0.15689 0.26585 -0.16907
 C181 C -0.18076 0.30313 -0.12231
 H182 H -0.11126 0.27991 -0.19322
 H183 H -0.22621 0.29089 -0.09720
 C184 C 0.14428 0.75611 -0.18374
 C185 C 0.17264 0.70045 -0.16707
 H186 H 0.09157 0.75925 -0.18443
 H187 H 0.22534 0.69788 -0.16675
 C188 C -0.17780 0.73142 0.17021
 C189 C -0.11680 0.71008 0.17884
 H190 H -0.21124 0.70167 0.14349
 H191 H -0.08156 0.73766 0.20550
 C192 C 1.16388 0.15645 0.76090
 C193 C 1.13912 0.18235 0.70656
 H194 H 1.16322 0.10385 0.76744
 H195 H 1.13975 0.23463 0.69840
 C196 C 0.80030 -0.18131 0.72469
 C197 C 0.85645 -0.18830 0.68615
 H198 H 0.76456 -0.14914 0.70321
 H199 H 0.89338 -0.22310 0.69950
 C200 C 1.16232 -0.17974 0.26258
 C201 C 1.17947 -0.12395 0.29091
 H202 H 1.11857 -0.20456 0.28059
 H203 H 1.22248 -0.09701 0.27488
 C204 C 0.79962 0.17579 0.25902
 C205 C 0.86052 0.17640 0.28819
 H206 H 0.76181 0.14923 0.28620
 H207 H 0.90201 0.19895 0.26356
 C208 C 0.18337 0.25866 -0.17229
 C209 C 0.12285 0.28318 -0.17435
 H210 H 0.22082 0.28821 -0.15096
 H211 H 0.08393 0.25625 -0.19631
 C212 C -0.18445 0.25637 0.16834
 C213 C -0.14134 0.30036 0.19680
 H214 H -0.19630 0.26842 0.11791
 H215 H -0.12675 0.29504 0.24684
 C216 C -0.17441 0.73598 -0.19272
 C217 C -0.17955 0.70769 -0.12898
 H218 H -0.13811 0.71461 -0.22412
 H219 H -0.21366 0.72674 -0.09370
 C220 C 0.16707 0.73603 0.17958
 C221 C 0.19799 0.69348 0.14111
 H222 H 0.11606 0.72674 0.19132
 H223 H 0.24881 0.69960 0.12765
 C224 C 0.26165 1.16485 0.82424
 C225 C 0.29355 1.17953 0.87837
 H226 H 0.28122 1.12703 0.79362
 H227 H 0.27471 1.21509 0.91170
 C228 C 0.26118 0.81664 1.18874
 C229 C 0.27897 0.82359 1.12585
 H230 H 0.29442 0.83215 1.22583
 H231 H 0.24615 0.80890 1.08811
 C232 C 0.73608 1.17551 1.16321
 C233 C 0.70760 1.11417 1.17723
 H234 H 0.71858 1.20161 1.12015
 H235 H 0.72546 1.08254 1.21594
 C236 C 0.73267 0.80559 0.81937
 C237 C 0.70219 0.86625 0.81044
 H238 H 0.71013 0.77229 0.85489
 H239 H 0.72418 0.90401 0.77943
   
