data_POSCAR
  _audit_creation_date              2014-09-24
  _audit_creation_method            'ToBaCCo'
  _symmetry_space_group_name_H-M    'P1'
  _symmetry_Int_Tables_number       1
  _symmetry_cell_setting            triclinic
  loop_
  _symmetry_equiv_pos_as_xyz
 x,y,z
_cell_length_a 37.9312
_cell_length_b 37.9312
_cell_length_c 37.9312
_cell_angle_alpha 88.571400
_cell_angle_beta 88.571500
_cell_angle_gamma 88.571400
loop_
  _atom_site_label
  _atom_site_type_symbol
  _atom_site_fract_x
  _atom_site_fract_y
  _atom_site_fract_z
Si1 Si 0.75788 0.61628 0.99940
 Si2 Si 0.74954 0.37737 0.50520
 Si3 Si 0.24954 -0.12263 0.00520
 Si4 Si 0.25788 0.11628 0.49940
 Si5 Si 0.11628 0.49940 0.25788
 Si6 Si -0.12263 0.00520 0.24954
 Si7 Si 0.37737 0.50520 0.74954
 Si8 Si 0.61628 0.99940 0.75788
 Si9 Si 0.00520 0.24954 -0.12263
 Si10 Si 0.49940 0.25788 0.11628
 Si11 Si 0.99940 0.75788 0.61628
 Si12 Si 0.50520 0.74954 0.37737
 C13 C 0.43393 -0.03406 0.28517
 H14 H 0.43576 -0.00870 0.29734
 C15 C 0.45177 -0.06360 0.29950
 H16 H 0.46762 -0.06094 0.32261
 C17 C 0.40912 -0.06923 0.24177
 H18 H 0.39153 -0.07175 0.22010
 C19 C 0.42652 -0.09931 0.25519
 H20 H 0.42251 -0.12464 0.24352
 N21 N 0.41279 -0.03744 0.25704
 C22 C 0.38904 0.06611 0.20947
 H23 H 0.36082 0.06312 0.20808
 C24 C 0.40438 0.09682 0.19625
 H25 H 0.38798 0.11749 0.18444
 C26 C 0.44479 0.04281 0.22679
 H27 H 0.46029 0.02164 0.23875
 C28 C 0.46130 0.07331 0.21380
 H29 H 0.48959 0.07561 0.21567
 Zn30 Zn 0.38341 0.00126 0.24274
 N31 N 0.40917 0.04008 0.22474
 C32 C 0.36006 0.04919 0.29418
 N33 N 0.35652 0.01571 0.28288
 C34 C 0.33660 -0.00798 0.30156
 C35 C 0.31919 0.00185 0.33294
 C36 C 0.34314 0.06004 0.32519
 C37 C 0.37185 -0.01868 0.17467
 C38 C 0.35361 -0.03015 0.14584
 C39 C 0.29976 -0.02816 0.18129
 C40 C 0.31908 -0.01658 0.20959
 N41 N 0.35458 -0.01271 0.20589
 H42 H 0.37676 0.06741 0.27977
 H43 H 0.33485 -0.03467 0.29245
 H44 H 0.30372 -0.01718 0.34795
 H45 H 0.34652 0.08665 0.33409
 H46 H 0.40003 -0.01509 0.17245
 H47 H 0.36778 -0.03557 0.12134
 H48 H 0.27165 -0.03201 0.18450
 H49 H 0.30583 -0.01119 0.23449
 C50 C 0.44075 0.10062 0.19862
 C51 C 0.44758 -0.09662 0.28464
 C52 C 0.31734 -0.03526 0.14924
 C53 C 0.32273 0.03618 0.34488
 C54 C 0.07463 1.03230 0.79296
 H55 H 0.07130 1.00688 0.80601
 C56 C 0.05766 1.06235 0.80663
 H57 H 0.04100 1.06005 0.83014
 C58 C 0.10216 1.06695 0.74774
 H59 H 0.12045 1.06900 0.72557
 C60 C 0.08570 1.09754 0.76048
 H61 H 0.09108 1.12281 0.74779
 N62 N 0.09665 1.03516 0.76420
 C63 C 0.11591 0.93060 0.72120
 H64 H 0.14442 0.93130 0.72038
 C65 C 0.09899 0.90185 0.70784
 H66 H 0.11449 0.88031 0.69665
 C67 C 0.06095 0.95831 0.73608
 H68 H 0.04637 0.98064 0.74672
 C69 C 0.04286 0.92991 0.72283
 H70 H 0.01429 0.93030 0.72332
 Zn71 Zn 0.12437 0.99536 0.75031
 N72 N 0.09687 0.95798 0.73511
 C73 C 0.14611 0.94679 0.80330
 N74 N 0.15093 0.97989 0.78965
 C75 C 0.17234 1.00279 0.80539
 C76 C 0.19011 0.99248 0.83603
 C77 C 0.16334 0.93547 0.83369
 C78 C 0.13613 1.01530 0.68090
 C79 C 0.15451 1.02599 0.65043
 C80 C 0.20878 1.02086 0.68249
 C81 C 0.18930 1.01009 0.71252
 N82 N 0.15355 1.00817 0.71126
 H83 H 0.12822 0.92929 0.79121
 H84 H 0.17510 1.02922 0.79448
 H85 H 0.20685 1.01088 0.84865
 H86 H 0.15901 0.90917 0.84449
 H87 H 0.10775 1.01323 0.68065
 H88 H 0.14025 1.03237 0.62661
 H89 H 0.23712 1.02319 0.68371
 H90 H 0.20264 1.00376 0.73679
 C91 C 0.06218 0.90146 0.70855
 C92 C 0.06366 1.09532 0.79047
 C93 C 0.19108 1.02913 0.65128
 C94 C 0.18539 0.95850 0.85031
 C95 C 0.57463 0.53230 0.29296
 H96 H 0.57130 0.50687 0.30601
 C97 C 0.55767 0.56235 0.30663
 H98 H 0.54100 0.56004 0.33014
 C99 C 0.60216 0.56695 0.24774
 H100 H 0.62045 0.56899 0.22557
 C101 C 0.58570 0.59754 0.26048
 H102 H 0.59108 0.62281 0.24779
 N103 N 0.59665 0.53516 0.26420
 C104 C 0.61591 0.43060 0.22120
 H105 H 0.64442 0.43129 0.22038
 C106 C 0.59899 0.40185 0.20783
 H107 H 0.61449 0.38030 0.19665
 C108 C 0.56095 0.45831 0.23608
 H109 H 0.54637 0.48064 0.24672
 C110 C 0.54286 0.42990 0.22283
 H111 H 0.51429 0.43030 0.22332
 Zn112 Zn 0.62437 0.49536 0.25031
 N113 N 0.59687 0.45798 0.23511
 C114 C 0.64611 0.44678 0.30329
 N115 N 0.65094 0.47989 0.28965
 C116 C 0.67234 0.50278 0.30539
 C117 C 0.69012 0.49248 0.33602
 C118 C 0.66335 0.43546 0.33369
 C119 C 0.63613 0.51529 0.18090
 C120 C 0.65451 0.52599 0.15043
 C121 C 0.70878 0.52086 0.18248
 C122 C 0.68930 0.51009 0.21252
 N123 N 0.65355 0.50817 0.21126
 H124 H 0.62822 0.42929 0.29120
 H125 H 0.67510 0.52922 0.29448
 H126 H 0.70685 0.51088 0.34865
 H127 H 0.65902 0.40916 0.34449
 H128 H 0.60775 0.51323 0.18065
 H129 H 0.64025 0.53236 0.12661
 H130 H 0.73712 0.52319 0.18371
 H131 H 0.70264 0.50376 0.23678
 C132 C 0.56218 0.40146 0.20855
 C133 C 0.56366 0.59532 0.29047
 C134 C 0.69108 0.52913 0.15128
 C135 C 0.68540 0.45850 0.35031
 C136 C 0.93393 0.46594 0.78517
 H137 H 0.93576 0.49130 0.79734
 C138 C 0.95177 0.43640 0.79950
 H139 H 0.96761 0.43906 0.82261
 C140 C 0.90913 0.43077 0.74177
 H141 H 0.89153 0.42825 0.72010
 C142 C 0.92652 0.40069 0.75519
 H143 H 0.92251 0.37536 0.74352
 N144 N 0.91279 0.46256 0.75704
 C145 C 0.88904 0.56612 0.70947
 H146 H 0.86082 0.56313 0.70808
 C147 C 0.90438 0.59683 0.69625
 H148 H 0.88798 0.61749 0.68444
 C149 C 0.94479 0.54281 0.72679
 H150 H 0.96029 0.52164 0.73875
 C151 C 0.96130 0.57331 0.71380
 H152 H 0.98959 0.57561 0.71567
 Zn153 Zn 0.88341 0.50126 0.74274
 N154 N 0.90917 0.54008 0.72473
 C155 C 0.86006 0.54919 0.79418
 N156 N 0.85652 0.51571 0.78288
 C157 C 0.83660 0.49202 0.80155
 C158 C 0.81919 0.50185 0.83294
 C159 C 0.84314 0.56004 0.82519
 C160 C 0.87185 0.48132 0.67466
 C161 C 0.85361 0.46985 0.64584
 C162 C 0.79976 0.47184 0.68129
 C163 C 0.81908 0.48343 0.70958
 N164 N 0.85458 0.48730 0.70588
 H165 H 0.87675 0.56741 0.77977
 H166 H 0.83485 0.46533 0.79245
 H167 H 0.80372 0.48282 0.84795
 H168 H 0.84652 0.58665 0.83409
 H169 H 0.90003 0.48491 0.67244
 H170 H 0.86778 0.46443 0.62134
 H171 H 0.77165 0.46799 0.68449
 H172 H 0.80583 0.48881 0.73449
 C173 C 0.94075 0.60062 0.69862
 C174 C 0.94758 0.40339 0.78464
 C175 C 0.81734 0.46474 0.64924
 C176 C 0.82273 0.53618 0.84488
 C177 C 0.28517 0.43393 -0.03406
 H178 H 0.29735 0.43576 -0.00870
 C179 C 0.29950 0.45177 -0.06360
 H180 H 0.32261 0.46761 -0.06094
 C181 C 0.24177 0.40912 -0.06923
 H182 H 0.22010 0.39153 -0.07175
 C183 C 0.25519 0.42652 -0.09931
 H184 H 0.24352 0.42251 -0.12464
 N185 N 0.25704 0.41279 -0.03744
 C186 C 0.20947 0.38904 0.06612
 H187 H 0.20808 0.36082 0.06313
 C188 C 0.19625 0.40438 0.09682
 H189 H 0.18444 0.38798 0.11749
 C190 C 0.22679 0.44479 0.04281
 H191 H 0.23875 0.46029 0.02164
 C192 C 0.21380 0.46130 0.07331
 H193 H 0.21567 0.48959 0.07561
 Zn194 Zn 0.24274 0.38341 0.00126
 N195 N 0.22474 0.40917 0.04008
 C196 C 0.29418 0.36006 0.04919
 N197 N 0.28288 0.35652 0.01571
 C198 C 0.30156 0.33660 -0.00798
 C199 C 0.33294 0.31919 0.00185
 C200 C 0.32519 0.34314 0.06004
 C201 C 0.17466 0.37185 -0.01868
 C202 C 0.14584 0.35361 -0.03015
 C203 C 0.18129 0.29976 -0.02816
 C204 C 0.20959 0.31908 -0.01658
 N205 N 0.20589 0.35458 -0.01270
 H206 H 0.27977 0.37676 0.06741
 H207 H 0.29245 0.33485 -0.03467
 H208 H 0.34795 0.30372 -0.01718
 H209 H 0.33409 0.34652 0.08665
 H210 H 0.17245 0.40003 -0.01509
 H211 H 0.12134 0.36778 -0.03557
 H212 H 0.18449 0.27165 -0.03201
 H213 H 0.23449 0.30583 -0.01119
 C214 C 0.19862 0.44075 0.10062
 C215 C 0.28464 0.44758 -0.09661
 C216 C 0.14924 0.31734 -0.03526
 C217 C 0.34488 0.32273 0.03618
 C218 C 0.79296 0.07463 1.03230
 H219 H 0.80601 0.07130 1.00687
 C220 C 0.80663 0.05767 1.06235
 H221 H 0.83014 0.04100 1.06004
 C222 C 0.74774 0.10216 1.06695
 H223 H 0.72557 0.12045 1.06899
 C224 C 0.76048 0.08570 1.09754
 H225 H 0.74779 0.09108 1.12281
 N226 N 0.76420 0.09665 1.03516
 C227 C 0.72120 0.11591 0.93060
 H228 H 0.72038 0.14442 0.93129
 C229 C 0.70784 0.09899 0.90185
 H230 H 0.69665 0.11449 0.88030
 C231 C 0.73608 0.06095 0.95831
 H232 H 0.74672 0.04637 0.98064
 C233 C 0.72283 0.04286 0.92990
 H234 H 0.72332 0.01429 0.93030
 Zn235 Zn 0.75031 0.12437 0.99536
 N236 N 0.73511 0.09687 0.95798
 C237 C 0.80330 0.14611 0.94678
 N238 N 0.78965 0.15094 0.97989
 C239 C 0.80539 0.17234 1.00278
 C240 C 0.83603 0.19012 0.99248
 C241 C 0.83369 0.16335 0.93546
 C242 C 0.68090 0.13613 1.01529
 C243 C 0.65043 0.15451 1.02599
 C244 C 0.68248 0.20878 1.02085
 C245 C 0.71252 0.18930 1.01008
 N246 N 0.71126 0.15355 1.00817
 H247 H 0.79121 0.12822 0.92929
 H248 H 0.79448 0.17510 1.02922
 H249 H 0.84865 0.20685 1.01088
 H250 H 0.84449 0.15902 0.90916
 H251 H 0.68065 0.10775 1.01322
 H252 H 0.62661 0.14025 1.03236
 H253 H 0.68371 0.23712 1.02319
 H254 H 0.73678 0.20264 1.00376
 C255 C 0.70855 0.06218 0.90146
 C256 C 0.79047 0.06366 1.09532
 C257 C 0.65128 0.19108 1.02913
 C258 C 0.85031 0.18539 0.95850
 C259 C 0.29296 0.57463 0.53230
 H260 H 0.30601 0.57130 0.50688
 C261 C 0.30663 0.55766 0.56235
 H262 H 0.33014 0.54100 0.56005
 C263 C 0.24774 0.60216 0.56695
 H264 H 0.22557 0.62045 0.56900
 C265 C 0.26048 0.58570 0.59754
 H266 H 0.24779 0.59108 0.62281
 N267 N 0.26420 0.59665 0.53516
 C268 C 0.22120 0.61591 0.43060
 H269 H 0.22038 0.64442 0.43130
 C270 C 0.20784 0.59899 0.40185
 H271 H 0.19665 0.61449 0.38031
 C272 C 0.23608 0.56095 0.45831
 H273 H 0.24672 0.54637 0.48064
 C274 C 0.22283 0.54286 0.42991
 H275 H 0.22332 0.51429 0.43030
 Zn276 Zn 0.25031 0.62437 0.49536
 N277 N 0.23511 0.59687 0.45798
 C278 C 0.30330 0.64611 0.44679
 N279 N 0.28965 0.65093 0.47989
 C280 C 0.30539 0.67234 0.50279
 C281 C 0.33603 0.69011 0.49248
 C282 C 0.33369 0.66335 0.43547
 C283 C 0.18090 0.63613 0.51530
 C284 C 0.15043 0.65451 0.52599
 C285 C 0.18248 0.70878 0.52086
 C286 C 0.21252 0.68930 0.51009
 N287 N 0.21126 0.65355 0.50817
 H288 H 0.29121 0.62822 0.42929
 H289 H 0.29448 0.67510 0.52922
 H290 H 0.34865 0.70685 0.51088
 H291 H 0.34449 0.65901 0.40917
 H292 H 0.18065 0.60775 0.51323
 H293 H 0.12661 0.64025 0.53236
 H294 H 0.18371 0.73712 0.52319
 H295 H 0.23679 0.70264 0.50376
 C296 C 0.20855 0.56218 0.40146
 C297 C 0.29047 0.56366 0.59532
 C298 C 0.15128 0.69108 0.52913
 C299 C 0.35031 0.68539 0.45850
 C300 C 0.78517 0.93393 0.46594
 H301 H 0.79734 0.93576 0.49130
 C302 C 0.79950 0.95177 0.43640
 H303 H 0.82261 0.96761 0.43906
 C304 C 0.74177 0.90912 0.43077
 H305 H 0.72010 0.89153 0.42825
 C306 C 0.75519 0.92652 0.40069
 H307 H 0.74352 0.92251 0.37536
 N308 N 0.75704 0.91279 0.46256
 C309 C 0.70947 0.88903 0.56611
 H310 H 0.70808 0.86082 0.56313
 C311 C 0.69625 0.90438 0.59682
 H312 H 0.68444 0.88798 0.61749
 C313 C 0.72679 0.94479 0.54281
 H314 H 0.73875 0.96029 0.52164
 C315 C 0.71380 0.96129 0.57331
 H316 H 0.71567 0.98959 0.57561
 Zn317 Zn 0.74274 0.88341 0.50126
 N318 N 0.72474 0.90917 0.54008
 C319 C 0.79418 0.86006 0.54919
 N320 N 0.78288 0.85652 0.51571
 C321 C 0.80156 0.83660 0.49202
 C322 C 0.83294 0.81919 0.50185
 C323 C 0.82519 0.84314 0.56004
 C324 C 0.67467 0.87185 0.48132
 C325 C 0.64584 0.85361 0.46985
 C326 C 0.68129 0.79976 0.47184
 C327 C 0.70959 0.81908 0.48342
 N328 N 0.70589 0.85458 0.48729
 H329 H 0.77977 0.87675 0.56741
 H330 H 0.79245 0.83485 0.46533
 H331 H 0.84795 0.80372 0.48282
 H332 H 0.83409 0.84652 0.58665
 H333 H 0.67245 0.90003 0.48491
 H334 H 0.62134 0.86778 0.46443
 H335 H 0.68450 0.77165 0.46799
 H336 H 0.73449 0.80583 0.48881
 C337 C 0.69862 0.94075 0.60062
 C338 C 0.78464 0.94758 0.40338
 C339 C 0.64924 0.81734 0.46474
 C340 C 0.84488 0.82273 0.53618
 C341 C -0.03406 0.28517 0.43393
 H342 H -0.00870 0.29734 0.43576
 C343 C -0.06360 0.29950 0.45177
 H344 H -0.06094 0.32261 0.46761
 C345 C -0.06923 0.24177 0.40912
 H346 H -0.07175 0.22010 0.39153
 C347 C -0.09931 0.25519 0.42652
 H348 H -0.12464 0.24352 0.42251
 N349 N -0.03744 0.25704 0.41279
 C350 C 0.06612 0.20947 0.38903
 H351 H 0.06313 0.20808 0.36082
 C352 C 0.09683 0.19625 0.40438
 H353 H 0.11749 0.18444 0.38798
 C354 C 0.04281 0.22679 0.44479
 H355 H 0.02164 0.23875 0.46029
 C356 C 0.07331 0.21380 0.46129
 H357 H 0.07561 0.21567 0.48959
 Zn358 Zn 0.00126 0.24274 0.38341
 N359 N 0.04008 0.22473 0.40917
 C360 C 0.04919 0.29418 0.36006
 N361 N 0.01571 0.28288 0.35652
 C362 C -0.00798 0.30156 0.33659
 C363 C 0.00185 0.33294 0.31919
 C364 C 0.06004 0.32519 0.34314
 C365 C -0.01868 0.17466 0.37184
 C366 C -0.03015 0.14584 0.35361
 C367 C -0.02816 0.18129 0.29976
 C368 C -0.01657 0.20959 0.31908
 N369 N -0.01270 0.20589 0.35458
 H370 H 0.06741 0.27977 0.37675
 H371 H -0.03467 0.29245 0.33485
 H372 H -0.01718 0.34795 0.30372
 H373 H 0.08665 0.33409 0.34652
 H374 H -0.01509 0.17244 0.40003
 H375 H -0.03557 0.12134 0.36778
 H376 H -0.03201 0.18450 0.27165
 H377 H -0.01119 0.23449 0.30583
 C378 C 0.10062 0.19862 0.44075
 C379 C -0.09661 0.28464 0.44758
 C380 C -0.03526 0.14924 0.31734
 C381 C 0.03618 0.34488 0.32273
 C382 C 1.03230 0.79296 0.07463
 H383 H 1.00687 0.80601 0.07130
 C384 C 1.06235 0.80663 0.05767
 H385 H 1.06004 0.83014 0.04100
 C386 C 1.06695 0.74774 0.10216
 H387 H 1.06899 0.72557 0.12045
 C388 C 1.09754 0.76048 0.08570
 H389 H 1.12281 0.74779 0.09108
 N390 N 1.03516 0.76420 0.09665
 C391 C 0.93060 0.72120 0.11591
 H392 H 0.93130 0.72038 0.14442
 C393 C 0.90185 0.70784 0.09899
 H394 H 0.88031 0.69665 0.11449
 C395 C 0.95831 0.73608 0.06095
 H396 H 0.98064 0.74672 0.04637
 C397 C 0.92990 0.72283 0.04286
 H398 H 0.93030 0.72332 0.01429
 Zn399 Zn 0.99536 0.75031 0.12437
 N400 N 0.95798 0.73511 0.09687
 C401 C 0.94678 0.80330 0.14611
 N402 N 0.97989 0.78965 0.15094
 C403 C 1.00278 0.80539 0.17234
 C404 C 0.99248 0.83603 0.19012
 C405 C 0.93546 0.83369 0.16335
 C406 C 1.01529 0.68090 0.13613
 C407 C 1.02599 0.65043 0.15451
 C408 C 1.02086 0.68248 0.20878
 C409 C 1.01009 0.71252 0.18930
 N410 N 1.00817 0.71126 0.15355
 H411 H 0.92929 0.79121 0.12822
 H412 H 1.02922 0.79448 0.17510
 H413 H 1.01088 0.84865 0.20685
 H414 H 0.90916 0.84449 0.15901
 H415 H 1.01323 0.68065 0.10775
 H416 H 1.03236 0.62661 0.14025
 H417 H 1.02319 0.68371 0.23712
 H418 H 1.00376 0.73678 0.20264
 C419 C 0.90146 0.70855 0.06218
 C420 C 1.09532 0.79047 0.06366
 C421 C 1.02913 0.65128 0.19108
 C422 C 0.95850 0.85031 0.18539
 C423 C 0.53230 0.29296 0.57463
 H424 H 0.50688 0.30601 0.57130
 C425 C 0.56235 0.30663 0.55766
 H426 H 0.56005 0.33014 0.54100
 C427 C 0.56695 0.24774 0.60216
 H428 H 0.56899 0.22557 0.62045
 C429 C 0.59754 0.26048 0.58570
 H430 H 0.62281 0.24779 0.59108
 N431 N 0.53516 0.26420 0.59665
 C432 C 0.43060 0.22120 0.61591
 H433 H 0.43130 0.22038 0.64442
 C434 C 0.40185 0.20784 0.59899
 H435 H 0.38031 0.19665 0.61449
 C436 C 0.45831 0.23608 0.56095
 H437 H 0.48064 0.24672 0.54637
 C438 C 0.42990 0.22283 0.54286
 H439 H 0.43030 0.22332 0.51429
 Zn440 Zn 0.49536 0.25031 0.62437
 N441 N 0.45798 0.23511 0.59687
 C442 C 0.44678 0.30330 0.64611
 N443 N 0.47989 0.28965 0.65093
 C444 C 0.50279 0.30539 0.67234
 C445 C 0.49248 0.33603 0.69012
 C446 C 0.43547 0.33369 0.66335
 C447 C 0.51530 0.18090 0.63613
 C448 C 0.52599 0.15043 0.65451
 C449 C 0.52086 0.18248 0.70878
 C450 C 0.51009 0.21252 0.68930
 N451 N 0.50817 0.21126 0.65355
 H452 H 0.42929 0.29121 0.62822
 H453 H 0.52922 0.29448 0.67510
 H454 H 0.51088 0.34865 0.70685
 H455 H 0.40917 0.34449 0.65901
 H456 H 0.51323 0.18065 0.60775
 H457 H 0.53237 0.12661 0.64025
 H458 H 0.52319 0.18371 0.73712
 H459 H 0.50376 0.23678 0.70264
 C460 C 0.40146 0.20855 0.56218
 C461 C 0.59532 0.29047 0.56366
 C462 C 0.52913 0.15128 0.69108
 C463 C 0.45850 0.35031 0.68539
 C464 C 0.46594 0.78517 0.93393
 H465 H 0.49130 0.79734 0.93576
 C466 C 0.43640 0.79950 0.95177
 H467 H 0.43906 0.82261 0.96762
 C468 C 0.43077 0.74177 0.90912
 H469 H 0.42825 0.72010 0.89153
 C470 C 0.40069 0.75519 0.92652
 H471 H 0.37536 0.74352 0.92251
 N472 N 0.46256 0.75704 0.91279
 C473 C 0.56611 0.70947 0.88904
 H474 H 0.56313 0.70808 0.86082
 C475 C 0.59682 0.69625 0.90438
 H476 H 0.61749 0.68444 0.88798
 C477 C 0.54281 0.72679 0.94479
 H478 H 0.52164 0.73875 0.96029
 C479 C 0.57331 0.71380 0.96130
 H480 H 0.57561 0.71567 0.98959
 Zn481 Zn 0.50126 0.74274 0.88341
 N482 N 0.54008 0.72474 0.90917
 C483 C 0.54919 0.79418 0.86006
 N484 N 0.51571 0.78288 0.85652
 C485 C 0.49202 0.80156 0.83660
 C486 C 0.50185 0.83294 0.81919
 C487 C 0.56004 0.82519 0.84314
 C488 C 0.48132 0.67467 0.87185
 C489 C 0.46985 0.64584 0.85361
 C490 C 0.47184 0.68129 0.79976
 C491 C 0.48342 0.70959 0.81908
 N492 N 0.48729 0.70589 0.85458
 H493 H 0.56741 0.77977 0.87676
 H494 H 0.46533 0.79245 0.83485
 H495 H 0.48282 0.84795 0.80372
 H496 H 0.58665 0.83409 0.84652
 H497 H 0.48491 0.67245 0.90003
 H498 H 0.46443 0.62134 0.86778
 H499 H 0.46799 0.68450 0.77165
 H500 H 0.48881 0.73449 0.80583
 C501 C 0.60062 0.69862 0.94075
 C502 C 0.40338 0.78464 0.94758
 C503 C 0.46474 0.64924 0.81734
 C504 C 0.53618 0.84488 0.82273
 C505 C 0.49285 -0.21239 0.34995
 C506 C 0.48403 -0.18613 0.33356
 C507 C 0.47279 -0.15486 0.31569
 C508 C 0.46209 -0.12814 0.30124
 C509 C 0.99285 0.28761 0.84995
 C510 C 0.98403 0.31388 0.83356
 C511 C 0.97279 0.34514 0.81569
 C512 C 0.96209 0.37186 0.80124
 C513 C 0.01882 1.21162 0.85160
 C514 C 0.02799 1.18536 0.83625
 C515 C 0.03923 1.15402 0.81956
 C516 C 0.04969 1.12714 0.80605
 C517 C 0.51882 0.71162 0.35160
 C518 C 0.52799 0.68536 0.33625
 C519 C 0.53923 0.65402 0.31956
 C520 C 0.54969 0.62714 0.30605
 C521 C 0.51122 0.29378 0.14410
 C522 C 0.52038 0.31838 0.16086
 C523 C 0.53272 0.34753 0.17895
 C524 C 0.54501 0.37236 0.19314
 C525 C 0.01122 0.79378 0.64410
 C526 C 0.02038 0.81838 0.66086
 C527 C 0.03272 0.84754 0.67895
 C528 C 0.04501 0.87236 0.69314
 C529 C 0.98730 0.71873 0.64180
 C530 C 0.97863 0.69178 0.65673
 C531 C 0.96737 0.65980 0.67259
 C532 C 0.95628 0.63256 0.68498
 C533 C 0.48730 0.21872 0.14180
 C534 C 0.47863 0.19178 0.15673
 C535 C 0.46737 0.15980 0.17259
 C536 C 0.45628 0.13256 0.18498
 C537 C 0.34995 0.49285 -0.21239
 C538 C 0.33356 0.48403 -0.18612
 C539 C 0.31569 0.47279 -0.15486
 C540 C 0.30124 0.46209 -0.12814
 C541 C 0.84995 0.99285 0.28761
 C542 C 0.83356 0.98403 0.31388
 C543 C 0.81569 0.97279 0.34514
 C544 C 0.80124 0.96209 0.37186
 C545 C 0.85159 0.01882 1.21162
 C546 C 0.83625 0.02799 1.18536
 C547 C 0.81956 0.03923 1.15402
 C548 C 0.80605 0.04969 1.12714
 C549 C 0.35160 0.51882 0.71162
 C550 C 0.33625 0.52799 0.68536
 C551 C 0.31956 0.53923 0.65402
 C552 C 0.30605 0.54969 0.62714
 C553 C 0.14410 0.51122 0.29378
 C554 C 0.16086 0.52038 0.31838
 C555 C 0.17895 0.53272 0.34753
 C556 C 0.19314 0.54501 0.37236
 C557 C 0.64410 0.01122 0.79378
 C558 C 0.66086 0.02038 0.81838
 C559 C 0.67895 0.03272 0.84753
 C560 C 0.69314 0.04501 0.87236
 C561 C 0.64180 0.98730 0.71872
 C562 C 0.65673 0.97863 0.69178
 C563 C 0.67259 0.96737 0.65980
 C564 C 0.68498 0.95628 0.63256
 C565 C 0.14180 0.48730 0.21873
 C566 C 0.15673 0.47863 0.19178
 C567 C 0.17259 0.46737 0.15980
 C568 C 0.18498 0.45628 0.13256
 C569 C -0.21239 0.34995 0.49285
 C570 C -0.18612 0.33356 0.48403
 C571 C -0.15486 0.31569 0.47279
 C572 C -0.12814 0.30124 0.46209
 C573 C 0.28761 0.84995 0.99285
 C574 C 0.31388 0.83356 0.98403
 C575 C 0.34514 0.81569 0.97279
 C576 C 0.37186 0.80124 0.96209
 C577 C 1.21162 0.85160 0.01882
 C578 C 1.18536 0.83625 0.02799
 C579 C 1.15402 0.81956 0.03923
 C580 C 1.12714 0.80605 0.04969
 C581 C 0.71162 0.35159 0.51882
 C582 C 0.68536 0.33625 0.52799
 C583 C 0.65402 0.31956 0.53923
 C584 C 0.62714 0.30605 0.54969
 C585 C 0.29378 0.14410 0.51122
 C586 C 0.31838 0.16086 0.52038
 C587 C 0.34753 0.17895 0.53272
 C588 C 0.37236 0.19314 0.54501
 C589 C 0.79378 0.64410 0.01122
 C590 C 0.81838 0.66086 0.02038
 C591 C 0.84753 0.67895 0.03272
 C592 C 0.87236 0.69314 0.04501
 C593 C 0.71872 0.64180 0.98730
 C594 C 0.69178 0.65673 0.97863
 C595 C 0.65980 0.67259 0.96737
 C596 C 0.63256 0.68498 0.95628
 C597 C 0.21873 0.14180 0.48730
 C598 C 0.19178 0.15673 0.47863
 C599 C 0.15980 0.17259 0.46737
 C600 C 0.13256 0.18498 0.45628
 C601 C 0.58898 0.03749 0.74596
 C602 C 0.57289 0.06354 0.73620
 C603 C 0.55591 0.09434 0.72281
 C604 C 0.54290 0.12055 0.70947
 C605 C 1.08898 0.53749 0.24596
 C606 C 1.07289 0.56354 0.23620
 C607 C 1.05591 0.59434 0.22281
 C608 C 1.04290 0.62055 0.20947
 C609 C 0.90408 0.96705 0.23687
 C610 C 0.91954 0.94082 0.22706
 C611 C 0.93543 0.90953 0.21416
 C612 C 0.94705 0.88254 0.20182
 C613 C 0.40408 0.46705 0.73687
 C614 C 0.41954 0.44082 0.72706
 C615 C 0.43543 0.40953 0.71416
 C616 C 0.44705 0.38254 0.70182
 C617 C 0.40410 0.54158 0.76212
 C618 C 0.42003 0.56633 0.77220
 C619 C 0.43708 0.59551 0.78579
 C620 C 0.45036 0.62027 0.79914
 C621 C -0.09590 0.04158 0.26212
 C622 C -0.07997 0.06633 0.27220
 C623 C -0.06292 0.09551 0.28579
 C624 C -0.04964 0.12027 0.29914
 C625 C 0.09007 0.46206 0.27206
 C626 C 0.07471 0.43614 0.28214
 C627 C 0.05883 0.40493 0.29487
 C628 C 0.04729 0.37773 0.30684
 C629 C 0.59007 0.96206 0.77206
 C630 C 0.57471 0.93614 0.78214
 C631 C 0.55883 0.90493 0.79487
 C632 C 0.54729 0.87773 0.80684
 C633 C 0.74596 0.58898 0.03749
 C634 C 0.73620 0.57289 0.06354
 C635 C 0.72281 0.55591 0.09434
 C636 C 0.70947 0.54290 0.12055
 C637 C 0.24596 1.08898 0.53749
 C638 C 0.23620 1.07289 0.56354
 C639 C 0.22281 1.05591 0.59434
 C640 C 0.20947 1.04291 0.62055
 C641 C 0.23687 0.90408 0.96705
 C642 C 0.22706 0.91954 0.94082
 C643 C 0.21416 0.93543 0.90953
 C644 C 0.20182 0.94705 0.88254
 C645 C 0.73687 0.40408 0.46705
 C646 C 0.72706 0.41954 0.44082
 C647 C 0.71416 0.43543 0.40953
 C648 C 0.70182 0.44705 0.38254
 C649 C 0.76212 0.40410 0.54158
 C650 C 0.77220 0.42003 0.56633
 C651 C 0.78579 0.43708 0.59551
 C652 C 0.79914 0.45036 0.62026
 C653 C 0.26212 -0.09590 0.04158
 C654 C 0.27220 -0.07997 0.06633
 C655 C 0.28579 -0.06292 0.09551
 C656 C 0.29914 -0.04964 0.12027
 C657 C 0.27206 0.09007 0.46206
 C658 C 0.28214 0.07471 0.43614
 C659 C 0.29487 0.05883 0.40493
 C660 C 0.30684 0.04729 0.37773
 C661 C 0.77206 0.59007 0.96206
 C662 C 0.78214 0.57471 0.93614
 C663 C 0.79487 0.55883 0.90493
 C664 C 0.80684 0.54729 0.87773
 C665 C 0.03749 0.74596 0.58898
 C666 C 0.06354 0.73620 0.57289
 C667 C 0.09434 0.72281 0.55591
 C668 C 0.12055 0.70947 0.54290
 C669 C 0.53749 0.24596 1.08898
 C670 C 0.56354 0.23620 1.07289
 C671 C 0.59434 0.22281 1.05591
 C672 C 0.62055 0.20947 1.04290
 C673 C 0.96705 0.23687 0.90408
 C674 C 0.94082 0.22706 0.91954
 C675 C 0.90953 0.21416 0.93543
 C676 C 0.88254 0.20182 0.94705
 C677 C 0.46705 0.73687 0.40408
 C678 C 0.44082 0.72706 0.41954
 C679 C 0.40953 0.71416 0.43543
 C680 C 0.38254 0.70182 0.44705
 C681 C 0.54158 0.76212 0.40410
 C682 C 0.56633 0.77220 0.42003
 C683 C 0.59551 0.78579 0.43708
 C684 C 0.62027 0.79914 0.45036
 C685 C 0.04158 0.26212 -0.09590
 C686 C 0.06633 0.27220 -0.07997
 C687 C 0.09551 0.28579 -0.06292
 C688 C 0.12027 0.29914 -0.04964
 C689 C 0.46206 0.27206 0.09007
 C690 C 0.43614 0.28213 0.07471
 C691 C 0.40493 0.29487 0.05883
 C692 C 0.37773 0.30684 0.04729
 C693 C 0.96206 0.77206 0.59007
 C694 C 0.93614 0.78214 0.57471
 C695 C 0.90493 0.79487 0.55883
 C696 C 0.87773 0.80684 0.54729
   
