data_POSCAR
  _audit_creation_date              2014-09-24
  _audit_creation_method            'ToBaCCo'
  _symmetry_space_group_name_H-M    'P1'
  _symmetry_Int_Tables_number       1
  _symmetry_cell_setting            triclinic
  loop_
  _symmetry_equiv_pos_as_xyz
 x,y,z
_cell_length_a 47.3683
_cell_length_b 48.7386
_cell_length_c 26.6258
_cell_angle_alpha 90.009000
_cell_angle_beta 90.004800
_cell_angle_gamma 90.088900
loop_
  _atom_site_label
  _atom_site_type_symbol
  _atom_site_fract_x
  _atom_site_fract_y
  _atom_site_fract_z
C1 C 0.72180 0.30030 0.54279
 C2 C 0.71807 0.31299 0.49583
 C3 C 0.72261 0.29920 0.45063
 C4 C 0.73387 0.27236 0.45147
 C5 C 0.74007 0.25956 0.49810
 C6 C 0.73393 0.27344 0.54395
 C7 C 0.74122 0.26041 0.58920
 C8 C 0.75205 0.23399 0.58997
 C9 C 0.75866 0.21984 0.54545
 C10 C 0.75234 0.23273 0.49878
 C11 C 0.73934 0.25810 0.40681
 C12 C 0.75007 0.23168 0.40750
 C13 C 0.75793 0.21883 0.45272
 C14 C 0.76953 0.19188 0.45341
 C15 C 0.77290 0.17882 0.50004
 C16 C 0.76988 0.19268 0.54603
 H17 H 0.73925 0.27035 0.62514
 H18 H 0.75434 0.22486 0.62656
 H19 H 0.73534 0.26707 0.37043
 H20 H 0.75116 0.22139 0.37173
 H21 H 0.70868 0.33324 0.49385
 H22 H 0.78166 0.15831 0.50048
 C23 C 0.22341 0.80300 0.54545
 C24 C 0.21756 0.81598 0.49981
 C25 C 0.22382 0.80376 0.45366
 C26 C 0.23786 0.77812 0.45285
 C27 C 0.24468 0.76483 0.49883
 C28 C 0.23722 0.77722 0.54525
 C29 C 0.24392 0.76355 0.59004
 C30 C 0.25701 0.73805 0.58957
 C31 C 0.26563 0.72558 0.54436
 C32 C 0.25879 0.73899 0.49831
 C33 C 0.24560 0.76559 0.40743
 C34 C 0.25862 0.74011 0.40681
 C35 C 0.26563 0.72651 0.45163
 C36 C 0.27858 0.70043 0.45099
 C37 C 0.28413 0.68709 0.49632
 C38 C 0.27932 0.69947 0.54328
 H39 H 0.23904 0.77228 0.62630
 H40 H 0.25928 0.72815 0.62549
 H41 H 0.24178 0.77531 0.37161
 H42 H 0.26276 0.73111 0.37048
 H43 H 0.20632 0.83536 0.50018
 H44 H 0.29477 0.66743 0.49445
 C45 C 0.22228 0.20097 -0.45453
 C46 C 0.21719 0.18787 -0.50023
 C47 C 0.22146 0.20090 -0.54678
 C48 C 0.23421 0.22754 -0.54700
 C49 C 0.24092 0.24063 -0.50061
 C50 C 0.23458 0.22739 -0.45437
 C51 C 0.24129 0.24064 -0.40911
 C52 C 0.25317 0.26664 -0.40881
 C53 C 0.26023 0.28004 -0.45375
 C54 C 0.25414 0.26702 -0.50030
 C55 C 0.24172 0.24104 -0.59175
 C56 C 0.25377 0.26705 -0.59144
 C57 C 0.26118 0.28029 -0.54635
 C58 C 0.27418 0.30681 -0.54550
 C59 C 0.27819 0.31964 -0.49868
 C60 C 0.27269 0.30639 -0.45327
 H61 H 0.23771 0.23104 -0.37310
 H62 H 0.25650 0.27611 -0.37260
 H63 H 0.23909 0.23176 -0.62814
 H64 H 0.25649 0.27656 -0.62761
 H65 H 0.20713 0.16788 -0.49898
 H66 H 0.28840 0.33954 -0.49690
 C67 C -0.26895 0.69165 -0.45652
 C68 C -0.27217 0.67869 -0.50330
 C69 C -0.26920 0.69272 -0.54913
 C70 C -0.25819 0.71998 -0.54821
 C71 C -0.25199 0.73279 -0.50139
 C72 C -0.25749 0.71869 -0.45549
 C73 C -0.24973 0.73146 -0.41013
 C74 C -0.23918 0.75798 -0.40912
 C75 C -0.23381 0.77244 -0.45360
 C76 C -0.23991 0.75973 -0.50039
 C77 C -0.25170 0.73436 -0.59256
 C78 C -0.24107 0.76088 -0.59147
 C79 C -0.23385 0.77382 -0.54607
 C80 C -0.22186 0.80076 -0.54460
 C81 C -0.21824 0.81335 -0.49751
 C82 C -0.22274 0.79939 -0.45246
 H83 H -0.25073 0.72104 -0.37448
 H84 H -0.23524 0.76687 -0.37263
 H85 H -0.25392 0.72534 -0.62927
 H86 H -0.23922 0.77098 -0.62729
 H87 H -0.28078 0.65809 -0.50400
 H88 H -0.20898 0.83368 -0.49531
 N89 N 0.02888 1.03133 0.08720
 N90 N 0.04868 1.03628 0.12079
 N91 N -0.03098 1.04985 0.05392
 N92 N -0.05110 1.06784 0.06384
 N93 N -0.03051 1.03048 0.08819
 N94 N -0.05038 1.03455 0.12200
 N95 N 0.02833 1.05076 0.05305
 N96 N 0.04767 1.06963 0.06279
 C97 C 0.06035 1.06007 0.10491
 C98 C -0.06315 1.05778 0.10620
 N99 N -0.03129 1.03016 -0.08887
 N100 N -0.05127 1.03434 -0.12247
 N101 N 0.02784 1.05049 -0.05551
 N102 N 0.04735 1.06912 -0.06546
 N103 N 0.02814 1.03095 -0.08950
 N104 N 0.04798 1.03561 -0.12320
 N105 N -0.03143 1.04964 -0.05479
 N106 N -0.05138 1.06780 -0.06464
 Mn107 Mn -0.00158 1.05052 -0.00084
 C108 C -0.06373 1.05774 -0.10671
 C109 C 0.05988 1.05935 -0.10753
 N110 N -0.02976 0.97158 0.08864
 N111 N -0.04922 0.96681 0.12294
 N112 N 0.02952 0.95280 0.05362
 N113 N 0.04928 0.93445 0.06345
 N114 N 0.02966 0.97234 0.08759
 N115 N 0.04963 0.96798 0.12116
 N116 N -0.02975 0.95212 0.05453
 N117 N -0.04911 0.93340 0.06500
 Mn118 Mn -0.00041 1.00144 0.08833
 C119 C -0.06124 0.94309 0.10753
 C120 C 0.06181 0.94442 0.10539
 N121 N 0.02885 0.97190 -0.08915
 N122 N 0.04854 0.96734 -0.12316
 N123 N -0.03021 0.95189 -0.05406
 N124 N -0.04971 0.93316 -0.06344
 N125 N -0.03063 0.97120 -0.08846
 N126 N -0.05060 0.96632 -0.12183
 N127 N 0.02901 0.95255 -0.05482
 N128 N 0.04867 0.93415 -0.06483
 Mn129 Mn -0.00122 1.00106 -0.08947
 Mn130 Mn -0.00037 0.95204 -0.00019
 Cl131 Cl -0.00089 1.00127 -0.00055
 C132 C 0.06084 0.94386 -0.10727
 C133 C -0.06242 0.94266 -0.10554
 N134 N 0.53167 0.54896 -0.05705
 N135 N 0.55186 0.56685 -0.06735
 N136 N 0.47161 0.53063 -0.08967
 N137 N 0.45178 0.53550 -0.12319
 N138 N 0.47237 0.55019 -0.05578
 N139 N 0.45314 0.56908 -0.06563
 N140 N 0.53098 0.52946 -0.09108
 N141 N 0.55077 0.53338 -0.12515
 C142 C 0.56372 0.55663 -0.10971
 C143 C 0.44030 0.55940 -0.10755
 N144 N 0.47023 0.45228 -0.05502
 N145 N 0.45005 0.43421 -0.06418
 N146 N 0.52966 0.47054 -0.09071
 N147 N 0.54909 0.46561 -0.12494
 N148 N 0.52950 0.45117 -0.05642
 N149 N 0.54874 0.43236 -0.06672
 N150 N 0.47024 0.47169 -0.08924
 N151 N 0.44995 0.46753 -0.12229
 Mn152 Mn 0.50061 0.50058 -0.09061
 C153 C 0.43744 0.44422 -0.10598
 C154 C 0.56094 0.44188 -0.10934
 N155 N 0.47316 0.55036 0.05279
 N156 N 0.45375 0.56906 0.06250
 N157 N 0.53224 0.52983 0.08586
 N158 N 0.55232 0.53406 0.11926
 N159 N 0.53241 0.54921 0.05160
 N160 N 0.55250 0.56734 0.06111
 N161 N 0.47281 0.53098 0.08706
 N162 N 0.45300 0.53581 0.12072
 Mn163 Mn 0.50242 0.55001 -0.00211
 C164 C 0.44121 0.55951 0.10475
 C165 C 0.56490 0.55737 0.10317
 N166 N 0.53025 0.45139 0.05218
 N167 N 0.54958 0.43257 0.06166
 N168 N 0.47158 0.47195 0.08755
 N169 N 0.45207 0.46768 0.12200
 N170 N 0.47101 0.45246 0.05349
 N171 N 0.45117 0.43426 0.06411
 N172 N 0.53101 0.47087 0.08624
 N173 N 0.55103 0.46602 0.11948
 Mn174 Mn 0.50025 0.45151 -0.00144
 Mn175 Mn 0.50190 0.50092 0.08714
 Cl176 Cl 0.50130 0.50075 -0.00174
 C177 C 0.56254 0.44219 0.10346
 C178 C 0.43938 0.44425 0.10668
 C179 C 0.31133 0.34766 0.33506
 N180 N 0.30196 0.36149 0.37589
 N181 N 0.28931 0.34829 0.41337
 C182 C 0.28520 0.32066 0.41179
 N183 N 0.29464 0.30691 0.37060
 N184 N 0.30737 0.32010 0.33295
 C185 C 0.32717 0.36233 0.29592
 N186 N 0.33821 0.34891 0.25575
 N187 N 0.35418 0.36225 0.22242
 C188 C 0.35969 0.38944 0.22820
 N189 N 0.34839 0.40283 0.26806
 N190 N 0.33243 0.38955 0.30123
 C191 C 0.37898 0.40400 0.19415
 N192 N 0.38706 0.43007 0.20493
 N193 N 0.40590 0.44298 0.17634
 C194 C 0.41728 0.43038 0.13573
 N195 N 0.40900 0.40441 0.12444
 N196 N 0.39021 0.39140 0.15325
 C197 C -0.18608 0.84316 0.33646
 N198 N -0.19570 0.85657 0.37759
 N199 N -0.20790 0.84287 0.41497
 C200 C -0.21128 0.81516 0.41294
 N201 N -0.20153 0.80185 0.37151
 N202 N -0.18927 0.81552 0.33398
 C203 C -0.17080 0.85834 0.29729
 N204 N -0.15962 0.84527 0.25684
 N205 N -0.14416 0.85905 0.22338
 C206 C -0.13931 0.88635 0.22928
 N207 N -0.15075 0.89939 0.26941
 N208 N -0.16621 0.88566 0.30273
 C209 C -0.12052 0.90140 0.19508
 N210 N -0.11314 0.92766 0.20579
 N211 N -0.09468 0.94102 0.17712
 C212 C -0.08299 0.92869 0.13651
 N213 N -0.09059 0.90251 0.12527
 N214 N -0.10901 0.88907 0.15416
 C215 C 0.69481 0.65286 0.32919
 N216 N 0.69681 0.68063 0.32968
 N217 N 0.70923 0.69353 0.36796
 C218 C 0.72035 0.67930 0.40721
 N219 N 0.71825 0.65145 0.40618
 N220 N 0.70587 0.63852 0.36806
 C221 C 0.67904 0.63842 0.28967
 N222 N 0.67502 0.61092 0.29305
 N223 N 0.65893 0.59780 0.25984
 C224 C 0.64627 0.61165 0.22184
 N225 N 0.65057 0.63914 0.21793
 N226 N 0.66665 0.65231 0.25132
 C227 C 0.62666 0.59723 0.18818
 N228 N 0.61439 0.61022 0.14865
 N229 N 0.59520 0.59735 0.12048
 C230 C 0.58752 0.57112 0.13110
 N231 N 0.59995 0.55813 0.17030
 N232 N 0.61921 0.57091 0.19821
 C233 C 0.18611 1.15977 0.33242
 N234 N 0.19566 1.14598 0.37314
 N235 N 0.20773 1.15930 0.41108
 C236 C 0.21106 1.18703 0.41006
 N237 N 0.20146 1.20076 0.36897
 N238 N 0.18929 1.18744 0.33087
 C239 C 0.17084 1.14487 0.29285
 N240 N 0.15905 1.15820 0.25326
 N241 N 0.14349 1.14453 0.21974
 C242 C 0.13917 1.11709 0.22473
 N243 N 0.15126 1.10381 0.26397
 N244 N 0.16680 1.11742 0.29733
 C245 C 0.12021 1.10205 0.19079
 N246 N 0.11339 1.07561 0.20112
 N247 N 0.09475 1.06217 0.17293
 C248 C 0.08232 1.07462 0.13315
 N249 N 0.08935 1.10099 0.12225
 N250 N 0.10795 1.11451 0.15069
 C251 C 0.68602 0.34224 -0.33784
 N252 N 0.69565 0.35579 -0.37884
 N253 N 0.70786 0.34224 -0.41634
 C254 C 0.71124 0.31453 -0.41458
 N255 N 0.70150 0.30107 -0.37327
 N256 N 0.68922 0.31461 -0.33562
 C257 C 0.67070 0.35729 -0.29859
 N258 N 0.65933 0.34412 -0.25840
 N259 N 0.64382 0.35782 -0.22494
 C260 C 0.63912 0.38514 -0.23058
 N261 N 0.65076 0.39828 -0.27045
 N262 N 0.66626 0.38464 -0.30376
 C263 C 0.62028 0.40014 -0.19646
 N264 N 0.61307 0.42643 -0.20711
 N265 N 0.59458 0.43979 -0.17857
 C266 C 0.58269 0.42743 -0.13814
 N267 N 0.59011 0.40122 -0.12696
 N268 N 0.60856 0.38777 -0.15573
 C269 C 0.18812 0.84382 -0.33108
 N270 N 0.20367 0.85764 -0.36559
 N271 N 0.21585 0.84440 -0.40355
 C272 C 0.21305 0.81679 -0.40845
 N273 N 0.19745 0.80296 -0.37386
 N274 N 0.18536 0.81620 -0.33571
 C275 C 0.17260 0.85891 -0.29214
 N276 N 0.15794 0.84541 -0.25591
 N277 N 0.14218 0.85923 -0.22304
 C278 C 0.14037 0.88701 -0.22547
 N279 N 0.15523 0.90048 -0.26141
 N280 N 0.17111 0.88670 -0.29403
 C281 C 0.12117 0.90218 -0.19228
 N282 N 0.11480 0.92876 -0.20231
 N283 N 0.09593 0.94216 -0.17456
 C284 C 0.08291 0.92953 -0.13551
 N285 N 0.08952 0.90306 -0.12496
 N286 N 0.10825 0.88957 -0.15300
 C287 C 0.31505 0.65836 -0.33639
 N288 N 0.31090 0.68588 -0.33398
 N289 N 0.29865 0.69915 -0.37200
 C290 C 0.28996 0.68553 -0.41388
 N291 N 0.29432 0.65796 -0.41581
 N292 N 0.30645 0.64467 -0.37794
 C293 C 0.33025 0.64355 -0.29670
 N294 N 0.33473 0.61619 -0.30149
 N295 N 0.35017 0.60269 -0.26791
 C296 C 0.36174 0.61599 -0.22816
 N297 N 0.35700 0.64333 -0.22287
 N298 N 0.34152 0.65689 -0.25658
 C299 C 0.38060 0.60108 -0.19394
 N300 N 0.39277 0.61364 -0.15380
 N301 N 0.41131 0.60022 -0.12517
 C302 C 0.41837 0.57386 -0.13591
 N303 N 0.40602 0.56131 -0.17570
 N304 N 0.38745 0.57464 -0.20409
 C305 C -0.19365 1.15286 -0.33284
 N306 N -0.20461 1.13852 -0.37184
 N307 N -0.21714 1.15142 -0.40978
 C308 C -0.21950 1.17925 -0.41049
 N309 N -0.20848 1.19349 -0.37111
 N310 N -0.19591 1.18061 -0.33300
 C311 C -0.17776 1.13847 -0.29348
 N312 N -0.16548 1.15237 -0.25498
 N313 N -0.14934 1.13926 -0.22168
 C314 C -0.14487 1.11182 -0.22584
 N315 N -0.15741 1.09795 -0.26400
 N316 N -0.17357 1.11101 -0.29712
 C317 C -0.12526 1.09747 -0.19216
 N318 N -0.11776 1.07118 -0.20223
 N319 N -0.09856 1.05845 -0.17421
 C320 C -0.08624 1.07146 -0.13487
 N321 N -0.09395 1.09765 -0.12425
 N322 N -0.11309 1.11048 -0.15252
 C323 C 0.69413 0.65075 -0.33691
 N324 N 0.70412 0.63678 -0.37714
 N325 N 0.71678 0.64995 -0.41468
 C326 C 0.72025 0.67768 -0.41371
 N327 N 0.71015 0.69153 -0.37314
 N328 N 0.69746 0.67839 -0.33546
 C329 C 0.67814 0.63625 -0.29777
 N330 N 0.66692 0.64994 -0.25808
 N331 N 0.65071 0.63688 -0.22479
 C332 C 0.64512 0.60969 -0.23011
 N333 N 0.65660 0.59600 -0.26947
 N334 N 0.67283 0.60901 -0.30262
 C335 C 0.62545 0.59552 -0.19622
 N336 N 0.61707 0.56952 -0.20674
 N337 N 0.59781 0.55703 -0.17841
 C338 C 0.58628 0.57003 -0.13833
 N339 N 0.59487 0.59593 -0.12729
 N340 N 0.61408 0.60850 -0.15584
 C341 C 0.18725 1.15961 -0.33119
 N342 N 0.20315 1.14598 -0.36544
 N343 N 0.21525 1.15936 -0.40339
 C344 C 0.21199 1.18691 -0.40853
 N345 N 0.19601 1.20050 -0.37424
 N346 N 0.18402 1.18714 -0.33611
 C347 C 0.17185 1.14443 -0.29217
 N348 N 0.15703 1.15792 -0.25618
 N349 N 0.14130 1.14408 -0.22324
 C350 C 0.13969 1.11628 -0.22534
 N351 N 0.15473 1.10282 -0.26103
 N352 N 0.17057 1.11662 -0.29373
 C353 C 0.12047 1.10110 -0.19214
 N354 N 0.11433 1.07441 -0.20177
 N355 N 0.09539 1.06101 -0.17410
 C356 C 0.08203 1.07374 -0.13556
 N357 N 0.08842 1.10034 -0.12540
 N358 N 0.10723 1.11382 -0.15334
 C359 C 0.30756 0.34681 -0.32875
 N360 N 0.29194 0.36075 -0.36297
 N361 N 0.27986 0.34768 -0.40130
 C362 C 0.28286 0.32013 -0.40687
 N363 N 0.29855 0.30622 -0.37260
 N364 N 0.31051 0.31927 -0.33409
 C365 C 0.32305 0.36164 -0.28941
 N366 N 0.33769 0.34783 -0.25360
 N367 N 0.35364 0.36133 -0.22053
 C368 C 0.35565 0.38911 -0.22231
 N369 N 0.34077 0.40291 -0.25778
 N370 N 0.32471 0.38943 -0.29061
 C371 C 0.37527 0.40389 -0.18922
 N372 N 0.38192 0.43046 -0.19887
 N373 N 0.40134 0.44343 -0.17155
 C374 C 0.41467 0.43038 -0.13334
 N375 N 0.40775 0.40392 -0.12312
 N376 N 0.38846 0.39086 -0.15073
 C377 C -0.18884 0.84059 -0.32794
 N378 N -0.20576 0.85390 -0.36105
 N379 N -0.21753 0.84048 -0.39928
 C380 C -0.21292 0.81321 -0.40588
 N381 N -0.19592 0.79995 -0.37274
 N382 N -0.18427 0.81332 -0.33430
 C383 C -0.17374 0.85595 -0.28879
 N384 N -0.15820 0.84267 -0.25351
 N385 N -0.14267 0.85674 -0.22060
 C386 C -0.14197 0.88459 -0.22203
 N387 N -0.15773 0.89784 -0.25699
 N388 N -0.17339 0.88379 -0.28965
 C389 C -0.12289 0.90008 -0.18905
 N390 N -0.11723 0.92687 -0.19875
 N391 N -0.09834 0.94054 -0.17141
 C392 C -0.08457 0.92800 -0.13311
 N393 N -0.09049 0.90132 -0.12285
 N394 N -0.10924 0.88756 -0.15049
 C395 C 0.31329 0.65985 0.32671
 N396 N 0.31657 0.68737 0.33208
 N397 N 0.30463 0.70054 0.37045
 C398 C 0.28866 0.68674 0.40455
 N399 N 0.28530 0.65923 0.39888
 N400 N 0.29734 0.64606 0.36070
 C401 C 0.32877 0.64478 0.28770
 N402 N 0.32984 0.61696 0.28902
 N403 N 0.34579 0.60318 0.25652
 C404 C 0.36115 0.61668 0.22127
 N405 N 0.35975 0.64449 0.21938
 N406 N 0.34391 0.65830 0.25213
 C407 C 0.38049 0.60147 0.18841
 N408 N 0.39397 0.61413 0.14978
 N409 N 0.41285 0.60059 0.12214
 C410 C 0.41906 0.57399 0.13248
 N411 N 0.40547 0.56132 0.17088
 N412 N 0.38647 0.57478 0.19822
 C413 C -0.19364 1.15152 0.33321
 N414 N -0.19693 1.17916 0.33213
 N415 N -0.20960 1.19213 0.37001
 C416 C -0.21970 1.17811 0.41041
 N417 N -0.21626 1.15039 0.41100
 N418 N -0.20363 1.13738 0.37327
 C419 C -0.17768 1.13717 0.29389
 N420 N -0.17261 1.10989 0.29827
 N421 N -0.15640 1.09697 0.26503
 C422 C -0.14468 1.11081 0.22602
 N423 N -0.15004 1.13806 0.22115
 N424 N -0.16624 1.15102 0.25455
 C425 C -0.12500 1.09670 0.19215
 N426 N -0.11334 1.10977 0.15209
 N427 N -0.09409 1.09721 0.12365
 C428 C -0.08577 1.07122 0.13452
 N429 N -0.09760 1.05815 0.17426
 N430 N -0.11689 1.07062 0.20245
 C431 C 0.68853 0.34037 0.32638
 N432 N 0.68404 0.31307 0.33262
 N433 N 0.69573 0.29972 0.37100
 C434 C 0.71268 0.31305 0.40420
 N435 N 0.71720 0.34035 0.39775
 N436 N 0.70539 0.35374 0.35956
 C437 C 0.67345 0.35567 0.28720
 N438 N 0.67319 0.38351 0.28793
 N439 N 0.65758 0.39751 0.25520
 C440 C 0.64179 0.38419 0.22029
 N441 N 0.64239 0.35635 0.21900
 N442 N 0.65787 0.34233 0.25198
 C443 C 0.62278 0.39965 0.18720
 N444 N 0.60897 0.38704 0.14887
 N445 N 0.59029 0.40078 0.12114
 C446 C 0.58462 0.42753 0.13108
 N447 N 0.59855 0.44016 0.16915
 N448 N 0.61736 0.42650 0.19658
 C449 C 0.18880 0.84522 0.33060
 N450 N 0.18677 0.81749 0.33403
 N451 N 0.19873 0.80414 0.37217
 C452 C 0.21345 0.81796 0.40797
 N453 N 0.21549 0.84568 0.40434
 N454 N 0.20345 0.85905 0.36637
 C455 C 0.17349 0.86030 0.29140
 N456 N 0.17157 0.88805 0.29364
 N457 N 0.15585 0.90174 0.26067
 C458 C 0.14156 0.88822 0.22404
 N459 N 0.14380 0.86048 0.22128
 N460 N 0.15943 0.84675 0.25446
 C461 C 0.12242 0.90324 0.19053
 N462 N 0.10957 0.89047 0.15133
 N463 N 0.09077 0.90380 0.12318
 C464 C 0.08404 0.93027 0.13350
 N465 N 0.09703 0.94306 0.17242
 N466 N 0.11594 0.92982 0.20031
   
