data_POSCAR
  _audit_creation_date              2014-09-24
  _audit_creation_method            'ToBaCCo'
  _symmetry_space_group_name_H-M    'P1'
  _symmetry_Int_Tables_number       1
  _symmetry_cell_setting            triclinic
  loop_
  _symmetry_equiv_pos_as_xyz
 x,y,z
_cell_length_a 27.7662
_cell_length_b 27.7872
_cell_length_c 27.2159
_cell_angle_alpha 89.941800
_cell_angle_beta 90.120300
_cell_angle_gamma 89.438200
loop_
  _atom_site_label
  _atom_site_type_symbol
  _atom_site_fract_x
  _atom_site_fract_y
  _atom_site_fract_z
C1 C 0.16067 0.15903 0.22570
 N2 N 0.14128 0.19859 0.20346
 C3 C 0.16605 0.22194 0.16801
 N4 N 0.20955 0.20479 0.15351
 C5 C 0.23002 0.16576 0.17558
 N6 N 0.20533 0.14341 0.21215
 C7 C -0.17636 0.82295 0.23473
 N8 N -0.20923 0.84845 0.20835
 C9 C -0.22171 0.83561 0.16189
 N10 N -0.19978 0.79621 0.14121
 C11 C -0.16520 0.77110 0.16671
 N12 N -0.15535 0.78423 0.21346
 C13 C -0.16788 0.16058 -0.22011
 N14 N -0.20638 0.14085 -0.19715
 C15 C -0.22763 0.16352 -0.15845
 N16 N -0.21075 0.20707 -0.14449
 C17 C -0.17277 0.22746 -0.16739
 N18 N -0.15082 0.20365 -0.20485
 C19 C 0.17128 0.83301 -0.22335
 N20 N 0.20800 0.85333 -0.19773
 C21 C 0.22451 0.83403 -0.15472
 N22 N 0.20375 0.79304 -0.13842
 C23 C 0.16693 0.77201 -0.16295
 N24 N 0.15009 0.79284 -0.20482
 C25 C 0.16595 1.16647 0.76757
 N26 N 0.20812 1.14801 0.78550
 C27 C 0.22944 1.16731 0.82613
 N28 N 0.20795 1.20513 0.84948
 C29 C 0.16485 1.22228 0.83343
 N30 N 0.14482 1.20255 0.79295
 C31 C 0.84031 0.83062 0.78294
 N32 N 0.80235 0.85368 0.80417
 C33 C 0.77757 0.83274 0.84147
 N34 N 0.79052 0.78806 0.85743
 C35 C 0.82725 0.76386 0.83513
 N36 N 0.85115 0.78567 0.79824
 C37 C 0.16501 0.82641 1.22359
 N38 N 0.14827 0.78571 1.20204
 C39 C 0.17230 0.76463 1.16414
 N40 N 0.21237 0.78607 1.14613
 C41 C 0.22989 0.82629 1.16776
 N42 N 0.20681 0.84554 1.20723
 C43 C 0.83295 1.16629 1.23021
 N44 N 0.79234 1.14829 1.20973
 C45 C 0.77515 1.16572 1.16648
 N46 N 0.79962 1.20060 1.14226
 C47 C 0.84124 1.21833 1.16136
 N48 N 0.85678 1.20108 1.20544
 O49 O 0.57059 0.91928 0.91302
 O50 O 0.62160 0.96238 0.96210
 C51 C 0.61355 0.93230 0.92680
 O52 O 0.43053 1.08631 0.91553
 O53 O 0.37825 1.04079 0.96095
 C54 C 0.38757 1.07253 0.92728
 O55 O 0.56416 1.08937 0.91554
 O56 O 0.61790 1.04628 0.96282
 C57 C 0.60741 1.07819 0.92949
 O58 O 0.43377 0.91168 0.91821
 O59 O 0.37973 0.95723 0.96286
 C60 C 0.39023 0.92365 0.93151
 Zr61 Zr 0.50147 0.94021 0.94054
 O62 O 0.49576 0.94107 0.86295
 O63 O 0.50890 0.86434 0.93940
 Zr64 Zr 0.49818 1.06157 0.94109
 O65 O 0.49649 1.05798 0.86334
 O66 O 0.49298 1.13766 0.93843
 O67 O 0.54319 1.00175 0.93154
 O68 O 0.45790 1.00014 0.93192
 O69 O 0.43368 0.91271 1.08988
 O70 O 0.38017 0.95753 1.04414
 C71 C 0.39005 0.92559 1.07756
 O72 O 0.56565 1.08453 1.09340
 O73 O 0.61946 1.04117 1.04728
 C74 C 0.60930 1.07207 1.08152
 O75 O 0.43215 1.08683 1.09170
 O76 O 0.37965 1.04350 1.04424
 C77 C 0.38925 1.07478 1.07844
 O78 O 0.57013 0.91506 1.09045
 O79 O 0.62149 0.96199 1.04531
 C80 C 0.61296 0.92903 1.07776
 Zr81 Zr 0.50124 0.93918 1.06492
 O82 O 0.49726 0.93878 1.14262
 O83 O 0.50658 0.86312 1.06337
 Zr84 Zr 0.49854 1.06094 1.06551
 O85 O 0.49397 1.06207 1.14301
 O86 O 0.50075 1.13708 1.06366
 Zr87 Zr 0.57137 1.00188 1.00354
 Zr88 Zr 0.42803 0.99976 1.00293
 O89 O 0.45821 0.99952 1.07382
 O90 O 0.54279 1.00057 1.07523
 O91 O 0.45855 0.92983 1.00263
 O92 O 0.53965 1.07075 1.00373
 O93 O 0.54324 0.93172 1.00272
 O94 O 0.45513 1.07022 1.00327
 H95 H 0.43624 0.99918 0.90301
 H96 H 0.56048 1.09924 1.00518
 H97 H 0.43684 0.99908 1.10274
 H98 H 0.56549 0.90363 1.00216
 H99 H 0.51452 1.15091 0.96387
 H100 H 0.47436 1.14829 1.04184
 H101 H 0.51312 1.03440 1.15521
 H102 H 0.52681 0.95394 1.15547
 H103 H 0.47805 0.85096 1.04561
 H104 H 0.48385 0.85121 0.96128
 H105 H 0.52272 0.96040 0.85021
 H106 H 0.52693 1.04294 0.85199
 O107 O -0.08466 0.42637 0.08641
 O108 O -0.04091 0.37442 0.03790
 C109 C -0.07211 0.38338 0.07207
 O110 O -0.08708 0.56537 -0.08759
 O111 O -0.04284 0.61738 -0.04046
 C112 C -0.07463 0.60807 -0.07395
 O113 O -0.09206 0.43255 -0.08738
 O114 O -0.04633 0.37748 -0.04450
 C115 C -0.07958 0.38894 -0.07619
 O116 O -0.08251 0.56174 0.09176
 O117 O -0.03967 0.61519 0.04480
 C118 C -0.07054 0.60502 0.07892
 Zr119 Zr -0.05877 0.49469 0.06285
 O120 O -0.13477 0.49970 0.06712
 O121 O -0.05311 0.48865 0.14022
 Zr122 Zr -0.06460 0.49790 -0.06080
 O123 O -0.14030 0.50378 -0.05213
 O124 O -0.07367 0.49722 -0.13789
 O125 O -0.07133 0.45324 0.00032
 O126 O -0.07020 0.53836 0.00223
 O127 O 0.09018 0.56032 0.08163
 O128 O 0.04266 0.61480 0.03996
 C129 C 0.07746 0.60405 0.06993
 O130 O 0.08303 0.42861 -0.09359
 O131 O 0.03750 0.37589 -0.04894
 C132 C 0.06975 0.38540 -0.08179
 O133 O 0.08153 0.56418 -0.09205
 O134 O 0.03877 0.61682 -0.04342
 C135 C 0.07027 0.60735 -0.07732
 O136 O 0.09231 0.42481 0.07540
 O137 O 0.04227 0.37356 0.03425
 C138 C 0.07835 0.38182 0.06328
 Zr139 Zr 0.06242 0.49326 0.05724
 O140 O 0.13835 0.49333 0.06180
 O141 O 0.05943 0.48751 0.13482
 Zr142 Zr 0.05691 0.49610 -0.06726
 O143 O 0.13289 0.49833 -0.07294
 O144 O 0.05065 0.49391 -0.14483
 Zr145 Zr -0.00126 0.42372 -0.00400
 Zr146 Zr -0.00051 0.56740 -0.00061
 O147 O 0.06871 0.53586 -0.00451
 O148 O 0.06905 0.45177 -0.00647
 O149 O 0.00255 0.53722 0.07055
 O150 O -0.00449 0.45552 -0.07417
 O151 O 0.00223 0.45185 0.06766
 O152 O -0.00398 0.54023 -0.07286
 H153 H -0.09848 0.56034 0.00353
 H154 H -0.00581 0.43492 -0.10380
 H155 H 0.09766 0.55623 -0.00545
 H156 H 0.00392 0.42957 0.09588
 H157 H -0.04340 0.50911 -0.15223
 H158 H 0.03705 0.52517 -0.15586
 H159 H 0.14619 0.47233 -0.05192
 H160 H 0.15033 0.49421 0.02769
 H161 H 0.05042 0.51951 0.14805
 H162 H -0.03455 0.51655 0.15209
 H163 H -0.14813 0.47407 0.04607
 H164 H -0.15196 0.47290 -0.03875
 O165 O 1.09301 -0.08845 0.56541
 O166 O 1.04682 -0.04739 0.62165
 C167 C 1.08162 -0.07653 0.61019
 O168 O 1.07393 0.07911 0.42624
 O169 O 1.02892 0.03193 0.37488
 C170 C 1.05977 0.06589 0.38269
 O171 O 1.08371 0.07801 0.56490
 O172 O 1.04255 0.03293 0.62146
 C173 C 1.07324 0.06578 0.60973
 O174 O 1.08076 -0.09476 0.42740
 O175 O 1.03146 -0.05128 0.37570
 C176 C 1.06488 -0.08340 0.38391
 Zr177 Zr 1.05952 -0.06883 0.49760
 O178 O 1.13508 -0.06976 0.48801
 O179 O 1.06025 -0.14484 0.50404
 Zr180 Zr 1.05523 0.05265 0.49708
 O181 O 1.13100 0.05349 0.48830
 O182 O 1.05314 0.12875 0.50106
 O183 O 1.06928 -0.00759 0.54065
 O184 O 1.06354 -0.00804 0.45417
 O185 O 0.91269 -0.10141 0.43864
 O186 O 0.94898 -0.05302 0.38140
 C187 C 0.92069 -0.08796 0.39394
 O188 O 0.90963 0.07092 0.57563
 O189 O 0.96155 0.03017 0.62633
 C190 C 0.92548 0.05917 0.61913
 O191 O 0.90843 0.07940 0.43800
 O192 O 0.94636 0.03121 0.38115
 C193 C 0.91761 0.06638 0.39326
 O194 O 0.91561 -0.09653 0.57382
 O195 O 0.96416 -0.05285 0.62519
 C196 C 0.93077 -0.08421 0.61689
 Zr197 Zr 0.93798 -0.07163 0.50451
 O198 O 0.86168 -0.06972 0.50292
 O199 O 0.93754 -0.14751 0.50998
 Zr200 Zr 0.93345 0.04920 0.50460
 O201 O 0.85744 0.04367 0.50193
 O202 O 0.92669 0.12477 0.51111
 Zr203 Zr 1.00073 -0.00951 0.57395
 Zr204 Zr 0.99227 -0.00982 0.42742
 O205 O 0.92454 -0.01141 0.46193
 O206 O 0.92883 -0.01145 0.54923
 O207 O 0.99660 -0.07991 0.45719
 O208 O 0.99637 0.05981 0.54291
 O209 O 1.00164 -0.07906 0.54356
 O210 O 0.99153 0.06035 0.45711
 H211 H 1.09073 -0.00751 0.43067
 H212 H 0.99597 0.08862 0.56406
 H213 H 0.89520 -0.01185 0.44113
 H214 H 1.00447 -0.10721 0.56568
 H215 H 1.03322 0.14061 0.47331
 H216 H 0.95392 0.13878 0.49290
 H217 H 0.84678 0.02874 0.53303
 H218 H 0.85038 -0.05441 0.53367
 H219 H 0.96599 -0.15948 0.49188
 H220 H 1.04569 -0.15822 0.47384
 H221 H 1.14804 -0.04301 0.50775
 H222 H 1.14560 0.03844 0.51782
 C223 C 1.08408 0.12427 0.25594
 C224 C 1.13422 0.13349 0.26109
 C225 C 1.15819 0.11701 0.30336
 C226 C 1.13297 0.09634 0.34208
 C227 C 1.08306 0.08932 0.33950
 C228 C 1.05828 0.10269 0.29556
 C229 C 1.05968 0.13244 0.21085
 C230 C 1.01080 0.12292 0.20593
 C231 C 0.98510 0.10506 0.24546
 C232 C 1.00850 0.09499 0.28965
 H233 H 1.07813 0.14457 0.17829
 H234 H 0.99286 0.12928 0.17115
 H235 H 0.94699 0.09815 0.24162
 H236 H 0.98702 0.08099 0.31876
 H237 H 1.19656 0.12243 0.30778
 H238 H 1.15295 0.08533 0.37452
 C239 C 0.86981 -0.18773 0.31306
 C240 C 0.84119 -0.15938 0.28001
 C241 C 0.83583 -0.10980 0.28962
 C242 C 0.86263 -0.08745 0.32599
 C243 C 0.89462 -0.11382 0.35520
 C244 C 0.89811 -0.16440 0.34957
 C245 C 0.87006 -0.23868 0.31199
 C246 C 0.90100 -0.26535 0.34211
 C247 C 0.93159 -0.24214 0.37465
 C248 C 0.93005 -0.19220 0.37874
 H249 H 0.84545 -0.25867 0.28922
 H250 H 0.90114 -0.30426 0.34024
 H251 H 0.95601 -0.26298 0.39751
 H252 H 0.95439 -0.17566 0.40458
 H253 H 0.81315 -0.08700 0.26692
 H254 H 0.85862 -0.04899 0.33114
 C255 C 0.87906 0.08797 0.75039
 C256 C 0.85757 0.13347 0.74115
 C257 C 0.85947 0.15321 0.69405
 C258 C 0.88106 0.12808 0.65562
 C259 C 0.90193 0.08228 0.66275
 C260 C 0.90060 0.06155 0.71099
 C261 C 0.88007 0.06847 0.79843
 C262 C 0.89990 0.02316 0.80743
 C263 C 0.91870 -0.00372 0.76898
 C264 C 0.91901 0.01505 0.72151
 H265 H 0.86602 0.08813 0.82962
 H266 H 0.90047 0.00870 0.84435
 H267 H 0.93318 -0.03943 0.77591
 H268 H 0.93297 -0.00826 0.69381
 H269 H 0.84353 0.18826 0.68679
 H270 H 0.88188 0.14516 0.61984
 C271 C 1.18136 -0.11742 0.69967
 C272 C 1.15316 -0.14546 0.73306
 C273 C 1.10367 -0.15034 0.72336
 C274 C 1.08175 -0.12654 0.68433
 C275 C 1.10826 -0.09901 0.65146
 C276 C 1.15826 -0.09345 0.65921
 C277 C 1.23215 -0.11464 0.70326
 C278 C 1.25843 -0.08581 0.67126
 C279 C 1.23521 -0.05998 0.63426
 C280 C 1.18566 -0.06398 0.62787
 H281 H 1.25265 -0.13566 0.72937
 H282 H 1.29719 -0.08380 0.67500
 H283 H 1.25582 -0.03741 0.60980
 H284 H 1.16903 -0.04371 0.59831
 H285 H 1.08072 -0.17069 0.74777
 H286 H 1.04329 -0.12921 0.67992
 C287 C 0.30395 1.11323 1.18227
 C288 C 0.27296 1.14558 1.15598
 C289 C 0.28376 1.15549 1.10631
 C290 C 0.32080 1.13161 1.08185
 C291 C 0.34915 1.09735 1.10588
 C292 C 0.34148 1.08828 1.15663
 C293 C 0.30069 1.10689 1.23382
 C294 C 0.33014 1.07382 1.25837
 C295 C 0.36439 1.04730 1.23268
 C296 C 0.37051 1.05478 1.18254
 H297 H 0.27705 1.12848 1.25636
 H298 H 0.32671 1.06915 1.29769
 H299 H 0.38710 1.02155 1.25189
 H300 H 0.39822 1.03406 1.16449
 H301 H 0.26199 1.18041 1.08490
 H302 H 0.32758 1.14025 1.04374
 C303 C 0.28264 0.83965 0.91761
 C304 C 0.26399 0.85551 0.87073
 C305 C 0.28798 0.89376 0.84705
 C306 C 0.32919 0.91443 0.86666
 C307 C 0.34938 0.89722 0.91017
 C308 C 0.32707 0.85900 0.93543
 C309 C 0.25838 0.80677 0.94875
 C310 C 0.27992 0.78883 0.99139
 C311 C 0.32520 0.80433 1.00546
 C312 C 0.34808 0.84008 0.97872
 H313 H 0.22193 0.79557 0.94288
 H314 H 0.26111 0.76295 1.01390
 H315 H 0.34208 0.78941 1.03799
 H316 H 0.38254 0.85253 0.99204
 H317 H 0.27523 0.90821 0.81237
 H318 H 0.34553 0.94436 0.84756
 C319 C 0.72970 0.91078 1.14981
 C320 C 0.74164 0.86214 1.13710
 C321 C 0.71236 0.83862 1.10253
 C322 C 0.67008 0.86029 1.08476
 C323 C 0.65541 0.90592 1.10104
 C324 C 0.68499 0.93133 1.13419
 C325 C 0.76222 0.94070 1.17540
 C326 C 0.74823 0.98624 1.19166
 C327 C 0.70227 1.00367 1.18143
 C328 C 0.67117 0.97715 1.15196
 H329 H 0.79920 0.93001 1.18176
 H330 H 0.77319 1.00808 1.21233
 H331 H 0.69122 1.03835 1.19553
 H332 H 0.63619 0.99255 1.14351
 H333 H 0.72074 0.80223 1.09086
 H334 H 0.64841 0.84111 1.05818
 C335 C 0.71856 1.15551 0.91490
 C336 C 0.73296 1.14245 0.86615
 C337 C 0.70494 1.10878 0.84036
 C338 C 0.66314 1.09002 0.86056
 C339 C 0.64760 1.10425 0.90709
 C340 C 0.67389 1.13889 0.93363
 C341 C 0.74843 1.18186 0.94715
 C342 C 0.73139 1.19857 0.99220
 C343 C 0.68497 1.18773 1.00712
 C344 C 0.65691 1.15697 0.97891
 H345 H 0.78580 1.18790 0.93936
 H346 H 0.75451 1.21952 1.01587
 H347 H 0.67157 1.20112 1.04189
 H348 H 0.62194 1.14765 0.99284
 H349 H 0.71470 1.09731 0.80364
 H350 H 0.64322 1.06333 0.84007
 C351 C 0.12657 0.25391 0.09157
 C352 C 0.14319 0.26124 0.14002
 C353 C 0.14090 0.30711 0.16076
 C354 C 0.12137 0.34573 0.13447
 C355 C 0.10368 0.33982 0.08642
 C356 C 0.10797 0.29356 0.06393
 C357 C 0.12840 0.20767 0.06991
 C358 C 0.11408 0.20086 0.02146
 C359 C 0.09834 0.23982 -0.00638
 C360 C 0.09582 0.28565 0.01430
 H361 H 0.14091 0.17638 0.09012
 H362 H 0.11587 0.16535 0.00522
 H363 H 0.08822 0.23446 -0.04426
 H364 H 0.08585 0.31464 -0.00951
 H365 H 0.15405 0.31304 0.19777
 H366 H 0.11878 0.38034 0.15260
 C367 C -0.13325 0.30937 -0.17682
 C368 C -0.15203 0.27206 -0.14708
 C369 C -0.14774 0.27521 -0.09580
 C370 C -0.12443 0.31344 -0.07371
 C371 C -0.10434 0.34985 -0.10210
 C372 C -0.10796 0.34793 -0.15419
 C373 C -0.13834 0.30905 -0.22847
 C374 C -0.11624 0.34389 -0.25733
 C375 C -0.08899 0.37974 -0.23545
 C376 C -0.08484 0.38191 -0.18447
 H377 H -0.15953 0.28224 -0.24713
 H378 H -0.11987 0.34276 -0.29691
 H379 H -0.07103 0.40609 -0.25809
 H380 H -0.06235 0.40965 -0.16936
 H381 H -0.16099 0.24698 -0.07232
 H382 H -0.12158 0.31434 -0.03399
 C383 C 0.17196 0.68965 -0.12123
 C384 C 0.14449 0.72750 -0.14316
 C385 C 0.09404 0.72416 -0.14380
 C386 C 0.07065 0.68525 -0.12214
 C387 C 0.09684 0.64824 -0.09913
 C388 C 0.14793 0.65074 -0.09765
 C389 C 0.22289 0.68895 -0.12282
 C390 C 0.24939 0.65338 -0.09841
 C391 C 0.22594 0.61743 -0.07258
 C392 C 0.17582 0.61582 -0.07235
 H393 H 0.24298 0.71506 -0.14357
 H394 H 0.28835 0.65377 -0.09954
 H395 H 0.24669 0.59024 -0.05313
 H396 H 0.15944 0.58721 -0.05178
 H397 H 0.07237 0.75248 -0.16039
 H398 H 0.03167 0.68400 -0.12336
 C399 C -0.09198 0.71300 0.16258
 C400 C -0.13775 0.72987 0.14433
 C401 C -0.15924 0.70478 0.10536
 C402 C -0.13733 0.66400 0.08511
 C403 C -0.09407 0.64578 0.10419
 C404 C -0.07202 0.66902 0.14426
 C405 C -0.06430 0.73890 0.19731
 C406 C -0.02238 0.71927 0.21774
 C407 C -0.00593 0.67421 0.20305
 C408 C -0.02993 0.64953 0.16605
 H409 H -0.07297 0.77516 0.20812
 H410 H -0.00233 0.73935 0.24488
 H411 H 0.02654 0.65906 0.21914
 H412 H -0.01488 0.61538 0.15422
 H413 H -0.19358 0.71660 0.09045
 H414 H -0.15449 0.64626 0.05439
 C415 C 1.09677 0.16234 0.70673
 C416 C 1.14289 0.14632 0.72548
 C417 C 1.16488 0.10608 0.70270
 C418 C 1.14218 0.08088 0.66507
 C419 C 1.09559 0.09315 0.65017
 C420 C 1.07181 0.13289 0.67219
 C421 C 1.07439 0.20679 0.71987
 C422 C 1.02702 0.21752 0.70651
 C423 C 1.00126 0.18575 0.67769
 C424 C 1.02365 0.14446 0.65975
 H425 H 1.09283 0.23544 0.73822
 H426 H 1.01041 0.25102 0.71818
 H427 H 0.96433 0.19399 0.66775
 H428 H 1.00268 0.12163 0.63639
 H429 H 1.20012 0.09329 0.71415
 H430 H 1.16075 0.05064 0.64825
 C431 C 0.91068 -0.16820 0.72493
 C432 C 0.86716 -0.14767 0.74482
 C433 C 0.84830 -0.10555 0.72285
 C434 C 0.86918 -0.08588 0.68119
 C435 C 0.90885 -0.10803 0.65919
 C436 C 0.92840 -0.15072 0.67932
 C437 C 0.93861 -0.20409 0.74931
 C438 C 0.97683 -0.22733 0.72578
 C439 C 0.98924 -0.21454 0.67818
 C440 C 0.96587 -0.17601 0.65532
 H441 H 0.93331 -0.21346 0.78731
 H442 H 0.99705 -0.25525 0.74473
 H443 H 1.01857 -0.23302 0.65977
 H444 H 0.97803 -0.16567 0.61920
 H445 H 0.81636 -0.08784 0.73713
 H446 H 0.85385 -0.05324 0.66560
 C447 C 1.08704 -0.14674 0.25979
 C448 C 1.13829 -0.14992 0.26055
 C449 C 1.16321 -0.12840 0.29964
 C450 C 1.13864 -0.10811 0.33930
 C451 C 1.08821 -0.10734 0.34103
 C452 C 1.06200 -0.12708 0.30105
 C453 C 1.06005 -0.15887 0.21743
 C454 C 1.00999 -0.15625 0.21742
 C455 C 0.98564 -0.14178 0.25941
 C456 C 1.01132 -0.12753 0.30086
 H457 H 1.07702 -0.16832 0.18311
 H458 H 0.99005 -0.16544 0.18459
 H459 H 0.94673 -0.14058 0.25938
 H460 H 0.99128 -0.11686 0.33265
 H461 H 1.20224 -0.12894 0.30065
 H462 H 1.15938 -0.09248 0.36894
 C463 C 0.88681 0.16942 0.30483
 C464 C 0.85159 0.14638 0.27450
 C465 C 0.83677 0.09965 0.28766
 C466 C 0.85846 0.07445 0.32607
 C467 C 0.89520 0.09502 0.35359
 C468 C 0.90957 0.14278 0.34355
 C469 C 0.89885 0.21863 0.29959
 C470 C 0.93559 0.23903 0.32738
 C471 C 0.96010 0.21174 0.36230
 C472 C 0.94687 0.16434 0.37098
 H473 H 0.87928 0.24282 0.27573
 H474 H 0.94473 0.27646 0.32210
 H475 H 0.98878 0.22771 0.38358
 H476 H 0.96641 0.14469 0.39908
 H477 H 0.80961 0.08093 0.26662
 H478 H 0.84670 0.03825 0.33409
 C479 C 0.08919 0.26181 -0.14063
 C480 C 0.14037 0.25974 -0.14214
 C481 C 0.16663 0.29806 -0.12223
 C482 C 0.14321 0.33952 -0.10518
 C483 C 0.09288 0.34369 -0.10663
 C484 C 0.06553 0.30480 -0.12520
 C485 C 0.06086 0.22069 -0.15033
 C486 C 0.01090 0.22344 -0.15026
 C487 C -0.01194 0.26683 -0.14021
 C488 C 0.01488 0.30729 -0.12806
 H489 H 0.07674 0.18551 -0.15610
 H490 H -0.01017 0.19170 -0.15787
 H491 H -0.05062 0.26848 -0.14072
 H492 H -0.00421 0.34046 -0.12111
 H493 H 0.20564 0.29704 -0.12194
 H494 H 0.16457 0.36838 -0.09002
 C495 C -0.08491 0.26848 0.14857
 C496 C -0.13368 0.25599 0.13731
 C497 C -0.15901 0.28477 0.10297
 C498 C -0.13902 0.32642 0.08331
 C499 C -0.09306 0.34122 0.09711
 C500 C -0.06575 0.31253 0.13026
 C501 C -0.05346 0.23754 0.17533
 C502 C -0.00777 0.25240 0.18957
 C503 C 0.00868 0.29733 0.17577
 C504 C -0.01933 0.32667 0.14543
 H505 H -0.06249 0.20097 0.18429
 H506 H 0.01511 0.22885 0.21129
 H507 H 0.04370 0.30907 0.18791
 H508 H -0.00438 0.36058 0.13445
 H509 H -0.19555 0.27624 0.09230
 H510 H -0.15975 0.34741 0.05702
 C511 C -0.12372 0.68925 -0.17442
 C512 C -0.15440 0.72014 -0.14611
 C513 C -0.16015 0.71057 -0.09572
 C514 C -0.13252 0.67523 -0.07251
 C515 C -0.09888 0.64807 -0.09893
 C516 C -0.09410 0.65471 -0.15010
 C517 C -0.12301 0.69039 -0.22647
 C518 C -0.09022 0.66240 -0.25299
 C519 C -0.05833 0.63179 -0.22856
 C520 C -0.06044 0.62745 -0.17764
 H521 H -0.14845 0.71184 -0.24738
 H522 H -0.08963 0.66446 -0.29271
 H523 H -0.03256 0.61052 -0.24923
 H524 H -0.03553 0.60261 -0.16009
 H525 H -0.18380 0.73249 -0.07317
 H526 H -0.13735 0.66908 -0.03353
 C527 C 0.17928 0.68369 0.11901
 C528 C 0.15129 0.72195 0.13939
 C529 C 0.10101 0.72094 0.13437
 C530 C 0.07828 0.68330 0.11045
 C531 C 0.10466 0.64454 0.09147
 C532 C 0.15575 0.64563 0.09340
 C533 C 0.22999 0.68181 0.12369
 C534 C 0.25694 0.64604 0.10024
 C535 C 0.23414 0.61117 0.07224
 C536 C 0.18408 0.61069 0.06895
 H537 H 0.24955 0.70729 0.14573
 H538 H 0.29579 0.64559 0.10354
 H539 H 0.25531 0.58413 0.05322
 H540 H 0.16807 0.58347 0.04608
 H541 H 0.07880 0.74999 0.14854
 H542 H 0.03949 0.68442 0.10693
 C543 C 0.30993 1.12197 0.82174
 C544 C 0.27191 1.14345 0.84910
 C545 C 0.27227 1.13940 0.90057
 C546 C 0.30911 1.11500 0.92507
 C547 C 0.34698 1.09372 0.89910
 C548 C 0.34672 1.09544 0.84688
 C549 C 0.31287 1.12671 0.77011
 C550 C 0.34870 1.10277 0.74363
 C551 C 0.38245 1.07406 0.76788
 C552 C 0.38167 1.07042 0.81893
 H553 H 0.28825 1.14938 0.74960
 H554 H 0.35008 1.10630 0.70405
 H555 H 0.40964 1.05479 0.74705
 H556 H 0.40807 1.04710 0.83602
 H557 H 0.24330 1.15480 0.92225
 H558 H 0.30831 1.11320 0.96475
 C559 C 0.26438 0.90207 1.13167
 C560 C 0.26962 0.85290 1.14456
 C561 C 0.31369 0.82935 1.13650
 C562 C 0.35262 0.85383 1.11623
 C563 C 0.34879 0.90267 1.10348
 C564 C 0.30485 0.92767 1.11372
 C565 C 0.21953 0.92647 1.13584
 C566 C 0.21576 0.97573 1.12710
 C567 C 0.25635 1.00161 1.11436
 C568 C 0.30034 0.97790 1.10804
 H569 H 0.18684 0.90792 1.14542
 H570 H 0.18137 0.99401 1.13103
 H571 H 0.25373 1.04018 1.10924
 H572 H 0.33104 0.99944 1.10059
 H573 H 0.31801 0.79167 1.14597
 H574 H 0.38572 0.83403 1.10936
 C575 C 0.68744 1.14335 1.17311
 C576 C 0.73071 1.14540 1.14578
 C577 C 0.73350 1.12281 1.10013
 C578 C 0.69424 1.09836 1.08108
 C579 C 0.65050 1.09570 1.10685
 C580 C 0.64760 1.11677 1.15458
 C581 C 0.68317 1.16685 1.21894
 C582 C 0.64201 1.16171 1.24749
 C583 C 0.60476 1.13266 1.23139
 C584 C 0.60755 1.11008 1.18577
 H585 H 0.71150 1.18943 1.23311
 H586 H 0.63944 1.17956 1.28273
 H587 H 0.57358 1.12732 1.25452
 H588 H 0.57888 1.08596 1.17680
 H589 H 0.76668 1.12347 1.07925
 H590 H 0.69810 1.08205 1.04515
 C591 C 0.74254 0.90761 0.88045
 C592 C 0.73765 0.85925 0.86519
 C593 C 0.69304 0.83664 0.86967
 C594 C 0.65314 0.86138 0.88824
 C595 C 0.65629 0.90978 0.90242
 C596 C 0.70125 0.93373 0.89688
 C597 C 0.78787 0.93053 0.88034
 C598 C 0.79185 0.97894 0.89267
 C599 C 0.75099 1.00549 0.90465
 C600 C 0.70625 0.98330 0.90620
 H601 H 0.82075 0.91130 0.87156
 H602 H 0.82666 0.99606 0.89239
 H603 H 0.75395 1.04344 0.91289
 H604 H 0.67565 1.00567 0.91326
 H605 H 0.68892 0.79957 0.85820
 H606 H 0.61962 0.84215 0.89224
   
