data_POSCAR
  _audit_creation_date              2014-09-24
  _audit_creation_method            'ToBaCCo'
  _symmetry_space_group_name_H-M    'P1'
  _symmetry_Int_Tables_number       1
  _symmetry_cell_setting            triclinic
  loop_
  _symmetry_equiv_pos_as_xyz
 x,y,z
_cell_length_a 30.4646
_cell_length_b 30.5011
_cell_length_c 30.4748
_cell_angle_alpha 98.176100
_cell_angle_beta 82.277900
_cell_angle_gamma 99.864900
loop_
  _atom_site_label
  _atom_site_type_symbol
  _atom_site_fract_x
  _atom_site_fract_y
  _atom_site_fract_z
O1 O 0.54088 0.50054 0.04039
 O2 O 0.42005 0.48954 0.03037
 O3 O 0.47375 0.43579 0.04213
 O4 O 0.48636 0.55598 0.03210
 O5 O 0.50052 0.54172 -0.04095
 O6 O 0.48684 0.42085 -0.03099
 O7 O 0.43424 0.47602 -0.04270
 O8 O 0.55438 0.48587 -0.03269
 Cu9 Cu 0.47898 0.49709 0.04356
 Cu10 Cu 0.49547 0.47974 -0.04414
 C11 C 0.56822 0.49435 0.00553
 C12 C 0.40642 0.48104 -0.00807
 C13 C 0.47812 0.40771 0.00747
 C14 C 0.49513 0.56948 -0.00610
 O15 O -0.03443 0.55898 0.50530
 O16 O -0.02426 0.43928 0.49816
 O17 O -0.02567 0.50588 0.56244
 O18 O -0.03643 0.49255 0.44277
 O19 O 0.03687 0.51003 0.42786
 O20 O 0.04784 0.52200 0.54843
 O21 O 0.04909 0.45647 0.48354
 O22 O 0.03901 0.57576 0.49187
 Cu23 Cu -0.03750 0.49736 0.50378
 Cu24 Cu 0.05058 0.51761 0.48657
 C25 C 0.00056 0.58789 0.49916
 C26 C 0.01433 0.42742 0.48948
 C27 C 0.01277 0.51615 0.57606
 C28 C -0.00196 0.49984 0.41485
 O29 O 0.51158 0.03611 0.57602
 O30 O 0.51968 0.04660 0.45591
 O31 O 0.45630 0.04881 0.52196
 O32 O 0.57537 0.03650 0.51052
 O33 O 0.55713 -0.03683 0.49604
 O34 O 0.43754 -0.02445 0.50760
 O35 O 0.50168 -0.02676 0.44147
 O36 O 0.49350 -0.03712 0.56112
 Cu37 Cu 0.51746 0.04933 0.51754
 Cu38 Cu 0.49545 -0.03860 0.50008
 C39 C 0.50199 -0.00256 0.58909
 C40 C 0.51200 0.01166 0.42815
 C41 C 0.42653 0.01450 0.51642
 C42 C 0.58666 -0.00226 0.50187
 C43 C 0.50710 -0.09416 -0.08496
 C44 C 0.51013 -0.04974 -0.09343
 C45 C 0.50924 -0.01573 -0.05725
 C46 C 0.50127 -0.02563 -0.01266
 C47 C 0.49765 -0.07090 -0.00529
 C48 C 0.50222 -0.10492 -0.04118
 C49 C 0.49658 0.01128 0.02540
 C50 C 0.50319 0.00624 0.06940
 C51 C 0.49823 0.04094 0.10468
 C52 C 0.48928 0.08203 0.09523
 C53 C 0.48300 0.08808 0.05202
 C54 C 0.48511 0.05232 0.01788
 H55 H 0.50744 -0.12085 -0.11249
 H56 H 0.51529 0.01855 -0.06454
 H57 H 0.49161 -0.08024 0.02810
 H58 H 0.51187 -0.02456 0.07678
 H59 H 0.48826 0.10992 0.12149
 H60 H 0.47712 0.05707 -0.01442
 C61 C -0.09765 0.49625 1.08513
 C62 C -0.10746 0.49321 1.04107
 C63 C -0.07216 0.49378 1.00621
 C64 C -0.02700 0.49979 1.01505
 C65 C -0.01831 0.50458 1.06001
 C66 C -0.05335 0.50101 1.09479
 C67 C 0.01079 0.50010 0.97782
 C68 C 0.05260 0.48952 0.98437
 C69 C 0.08848 0.49084 0.95037
 C70 C 0.08217 0.50043 0.90834
 C71 C 0.04077 0.50993 0.90036
 C72 C 0.00564 0.51069 0.93532
 H73 H -0.12453 0.49581 1.11231
 H74 H -0.08051 0.48846 0.97231
 H75 H 0.01564 0.51032 1.06856
 H76 H 0.05780 0.47932 1.01556
 H77 H 0.10963 0.50045 0.88174
 H78 H -0.02525 0.52032 0.92903
 C79 C -0.08060 -0.08539 0.49398
 C80 C -0.03631 -0.09348 0.49031
 C81 C -0.00119 -0.05702 0.48979
 C82 C -0.00978 -0.01229 0.49595
 C83 C -0.05505 -0.00541 0.50093
 C84 C -0.09025 -0.04167 0.49816
 C85 C 0.02807 0.02677 0.49678
 C86 C 0.02145 0.06957 0.48879
 C87 C 0.05608 0.10635 0.49067
 C88 C 0.09881 0.10002 0.49806
 C89 C 0.10716 0.05769 0.50446
 C90 C 0.07139 0.02177 0.50524
 H91 H -0.10798 -0.11319 0.49459
 H92 H 0.03268 -0.06432 0.48372
 H93 H -0.06364 0.02797 0.50645
 H94 H -0.01028 0.07495 0.48017
 H95 H 0.12548 0.12848 0.49978
 H96 H 0.07804 -0.01007 0.51200
 C97 C -0.29255 0.49371 1.01678
 C98 C -0.30740 0.49149 0.97473
 C99 C -0.35249 0.49240 0.97109
 C100 C -0.38361 0.49589 1.00947
 C101 C -0.36852 0.49903 1.05155
 C102 C -0.32351 0.49782 1.05515
 C103 C -0.24502 0.49145 1.02079
 C104 C -0.23432 0.46533 1.05108
 C105 C -0.18967 0.46467 1.05651
 C106 C -0.15465 0.49034 1.03196
 C107 C -0.16531 0.51542 1.00065
 C108 C -0.21005 0.51590 0.99506
 H109 H -0.36306 0.48989 0.93817
 H110 H -0.39161 0.50175 1.08175
 H111 H -0.18255 0.44427 1.08022
 H112 H -0.13912 0.53594 0.98161
 H113 H -0.31285 0.50028 1.08803
 H114 H -0.26056 0.44540 1.07066
 H115 H -0.28434 0.48803 0.94459
 H116 H -0.21734 0.53655 0.97166
 C117 C 0.26886 0.47476 0.97801
 C118 C 0.28337 0.47935 1.02057
 C119 C 0.32868 0.48111 1.02529
 C120 C 0.36062 0.47773 0.98750
 C121 C 0.34578 0.47188 0.94492
 C122 C 0.30064 0.47077 0.94029
 C123 C 0.22123 0.47603 0.97279
 C124 C 0.20093 0.45057 0.93651
 C125 C 0.15748 0.45470 0.92960
 C126 C 0.13315 0.48376 0.95920
 C127 C 0.15262 0.50797 0.99631
 C128 C 0.19629 0.50439 1.00289
 H129 H 0.33858 0.48522 1.05865
 H130 H 0.36917 0.46923 0.91492
 H131 H 0.14289 0.43532 0.90101
 H132 H 0.13460 0.53097 1.01933
 H133 H 0.29095 0.46805 0.90700
 H134 H 0.21872 0.42765 0.91322
 H135 H 0.25972 0.48166 1.05036
 H136 H 0.21098 0.52509 1.03073
 C137 C -0.01118 -0.27647 0.49500
 C138 C 0.03123 -0.28969 0.49096
 C139 C 0.03517 -0.33433 0.49294
 C140 C -0.00330 -0.36680 0.49939
 C141 C -0.04575 -0.35308 0.50450
 C142 C -0.04959 -0.30852 0.50210
 C143 C -0.01553 -0.22944 0.49159
 C144 C -0.04736 -0.22015 0.46630
 C145 C -0.05297 -0.17598 0.46455
 C146 C -0.02714 -0.14009 0.48839
 C147 C 0.00559 -0.14937 0.51270
 C148 C 0.01143 -0.19360 0.51417
 H149 H 0.06848 -0.34337 0.48892
 H150 H -0.07620 -0.37684 0.50967
 H151 H -0.07781 -0.16993 0.44477
 H152 H 0.02561 -0.12253 0.53189
 H153 H -0.08269 -0.29903 0.50600
 H154 H -0.06795 -0.24713 0.44786
 H155 H 0.06137 -0.26566 0.48527
 H156 H 0.03602 -0.19987 0.53414
 C157 C 0.02885 0.28841 0.48293
 C158 C -0.01387 0.30081 0.48496
 C159 C -0.01869 0.34589 0.48696
 C160 C 0.01911 0.37955 0.48665
 C161 C 0.06180 0.36712 0.48413
 C162 C 0.06659 0.32218 0.48248
 C163 C 0.03418 0.24071 0.48246
 C164 C 0.07129 0.22371 0.45755
 C165 C 0.07796 0.17985 0.45950
 C166 C 0.04746 0.15181 0.48603
 C167 C 0.00964 0.16819 0.50983
 C168 C 0.00315 0.21219 0.50822
 H169 H -0.05202 0.35436 0.48863
 H170 H 0.09160 0.39224 0.48412
 H171 H 0.10706 0.16784 0.44032
 H172 H -0.01413 0.14742 0.53094
 H173 H 0.09991 0.31404 0.48183
 H174 H 0.09533 0.24438 0.43660
 H175 H -0.04360 0.27564 0.48474
 H176 H -0.02542 0.22428 0.52833
 C177 C 0.50677 -0.01799 -0.27577
 C178 C 0.51274 0.02500 -0.28920
 C179 C 0.51061 0.03028 -0.33370
 C180 C 0.50190 -0.00741 -0.36568
 C181 C 0.49479 -0.05040 -0.35164
 C182 C 0.49750 -0.05557 -0.30735
 C183 C 0.51007 -0.02394 -0.22896
 C184 C 0.53458 -0.05586 -0.21958
 C185 C 0.53590 -0.06321 -0.17559
 C186 C 0.51228 -0.03916 -0.13998
 C187 C 0.48859 -0.00646 -0.14944
 C188 C 0.48772 0.00123 -0.19344
 H189 H 0.51621 0.06394 -0.34302
 H190 H 0.48788 -0.08033 -0.37499
 H191 H 0.55524 -0.08794 -0.16952
 H192 H 0.46943 0.01218 -0.12296
 H193 H 0.49210 -0.08907 -0.29767
 H194 H 0.55272 -0.07518 -0.24638
 H195 H 0.52001 0.05451 -0.26544
 H196 H 0.46829 0.02578 -0.19982
 C197 C 0.51298 0.02295 0.28884
 C198 C 0.51342 0.06111 0.32070
 C199 C 0.51430 0.05762 0.36579
 C200 C 0.51416 0.01577 0.38005
 C201 C 0.51452 -0.02230 0.34804
 C202 C 0.51427 -0.01868 0.30282
 C203 C 0.50919 0.02647 0.24152
 C204 C 0.53698 0.00620 0.20672
 C205 C 0.53351 0.01054 0.16220
 C206 C 0.50180 0.03482 0.15165
 C207 C 0.47337 0.05406 0.18666
 C208 C 0.47725 0.05022 0.23098
 H209 H 0.51401 0.08755 0.38960
 H210 H 0.51458 -0.05498 0.35800
 H211 H 0.55626 -0.00430 0.13618
 H212 H 0.44776 0.07197 0.17982
 H213 H 0.51369 -0.04861 0.27893
 H214 H 0.56200 -0.01218 0.21406
 H215 H 0.51286 0.09367 0.31069
 H216 H 0.45481 0.06540 0.25713
 C217 C 0.50092 -0.29048 -0.01796
 C218 C 0.50747 -0.32157 -0.05609
 C219 C 0.50617 -0.36687 -0.05220
 C220 C 0.49822 -0.38221 -0.01008
 C221 C 0.49190 -0.35112 0.02810
 C222 C 0.49321 -0.30576 0.02419
 C223 C 0.50201 -0.24240 -0.02239
 C224 C 0.47115 -0.21742 0.00406
 C225 C 0.47140 -0.17258 -0.00145
 C226 C 0.50244 -0.15190 -0.03358
 C227 C 0.53378 -0.17665 -0.05935
 C228 C 0.53359 -0.22131 -0.05382
 H229 H 0.51091 -0.38996 -0.08228
 H230 H 0.48573 -0.36183 0.06106
 H231 H 0.44661 -0.15444 0.01860
 H232 H 0.55868 -0.16133 -0.08377
 H233 H 0.48859 -0.28257 0.05421
 H234 H 0.44608 -0.23288 0.02823
 H235 H 0.51283 -0.31099 -0.08909
 H236 H 0.55839 -0.23930 -0.07404
 C237 C 0.46910 0.26799 0.02212
 C238 C 0.46748 0.30047 0.05972
 C239 C 0.46962 0.34562 0.05486
 C240 C 0.47373 0.35950 0.01227
 C241 C 0.47471 0.32705 -0.02538
 C242 C 0.47231 0.28176 -0.02050
 C243 C 0.46945 0.22038 0.02754
 C244 C 0.49746 0.19472 -0.00209
 C245 C 0.50066 0.15121 0.00511
 C246 C 0.47615 0.13251 0.04223
 C247 C 0.44714 0.15756 0.07112
 C248 C 0.44367 0.20095 0.06375
 H249 H 0.46897 0.36977 0.08456
 H250 H 0.47760 0.33668 -0.05863
 H251 H 0.52368 0.13281 -0.01740
 H252 H 0.42740 0.14366 0.09963
 H253 H 0.47303 0.25751 -0.05011
 H254 H 0.51827 0.20883 -0.02991
 H255 H 0.46585 0.29122 0.09297
 H256 H 0.42109 0.21946 0.08669
 C257 C -0.27476 -0.01703 0.49846
 C258 C -0.30792 -0.05487 0.49232
 C259 C -0.35276 -0.05005 0.49279
 C260 C -0.36555 -0.00726 0.49952
 C261 C -0.33239 0.03062 0.50544
 C262 C -0.28749 0.02579 0.50491
 C263 C -0.22714 -0.02239 0.49809
 C264 C -0.19993 0.00481 0.52840
 C265 C -0.15537 -0.00110 0.52845
 C266 C -0.13722 -0.03442 0.49829
 C267 C -0.16430 -0.06120 0.46772
 C268 C -0.20867 -0.05525 0.46759
 H269 H -0.37749 -0.07992 0.48842
 H270 H -0.34112 0.06407 0.51067
 H271 H -0.13540 0.01975 0.55264
 H272 H -0.15095 -0.08656 0.44350
 H273 H -0.26267 0.05560 0.50914
 H274 H -0.21335 0.03006 0.55268
 H275 H -0.29932 -0.08835 0.48791
 H276 H -0.22842 -0.07613 0.44324
 C277 C 0.28886 0.03204 0.51892
 C278 C 0.32313 0.06921 0.52117
 C279 C 0.36757 0.06347 0.52148
 C280 C 0.37889 0.02035 0.51916
 C281 C 0.34449 -0.01685 0.51781
 C282 C 0.29984 -0.01102 0.51795
 C283 C 0.24220 0.03832 0.51576
 C284 C 0.20572 0.01593 0.54147
 C285 C 0.16187 0.02240 0.53831
 C286 C 0.15361 0.05102 0.50897
 C287 C 0.19028 0.07297 0.48301
 C288 C 0.23398 0.06688 0.48653
 H289 H 0.39320 0.09285 0.52262
 H290 H 0.35211 -0.05049 0.51608
 H291 H 0.13455 0.00543 0.55926
 H292 H 0.18519 0.09438 0.45929
 H293 H 0.27408 -0.04027 0.51594
 H294 H 0.21120 -0.00600 0.56453
 H295 H 0.31552 0.10282 0.52247
 H296 H 0.26140 0.08394 0.46573
 C297 C -0.02010 0.49726 1.27678
 C298 C 0.02329 0.50538 1.29014
 C299 C 0.02945 0.50553 1.33488
 C300 C -0.00767 0.49753 1.36707
 C301 C -0.05095 0.48905 1.35353
 C302 C -0.05708 0.48903 1.30902
 C303 C -0.02723 0.49765 1.22958
 C304 C -0.06100 0.46652 1.21029
 C305 C -0.06937 0.46790 1.16668
 C306 C -0.04402 0.50027 1.14116
 C307 C -0.00967 0.53096 1.16000
 C308 C -0.00142 0.52973 1.20386
 H309 H 0.06322 0.51220 1.34428
 H310 H -0.08032 0.48309 1.37748
 H311 H -0.09541 0.44324 1.15265
 H312 H 0.01019 0.55641 1.14112
 H313 H -0.09096 0.48345 1.30002
 H314 H -0.08085 0.44080 1.22885
 H315 H 0.05247 0.51134 1.26598
 H316 H 0.02446 0.55451 1.21796
 C317 C 0.02267 0.52481 0.71675
 C318 C 0.06129 0.52478 0.68569
 C319 C 0.05827 0.52292 0.64007
 C320 C 0.01653 0.52065 0.62445
 C321 C -0.02196 0.52146 0.65549
 C322 C -0.01890 0.52371 0.70110
 C323 C 0.02556 0.52415 0.76499
 C324 C -0.00803 0.49796 0.79069
 C325 C -0.00390 0.49481 0.83520
 C326 C 0.03407 0.51744 0.85489
 C327 C 0.06702 0.54467 0.82974
 C328 C 0.06273 0.54813 0.78533
 H329 H 0.08850 0.52216 0.61697
 H330 H -0.05458 0.52018 0.64453
 H331 H -0.02950 0.47316 0.85370
 H332 H 0.09635 0.56293 0.84435
 H333 H -0.04917 0.52450 0.72412
 H334 H -0.03677 0.47851 0.77597
 H335 H 0.09375 0.52489 0.69647
 H336 H 0.08873 0.56933 0.76682
   
