data_POSCAR
  _audit_creation_date              2014-09-24
  _audit_creation_method            'ToBaCCo'
  _symmetry_space_group_name_H-M    'P1'
  _symmetry_Int_Tables_number       1
  _symmetry_cell_setting            triclinic
  loop_
  _symmetry_equiv_pos_as_xyz
 x,y,z
_cell_length_a 23.4555
_cell_length_b 37.5171
_cell_length_c 33.2823
_cell_angle_alpha 90.080500
_cell_angle_beta 89.854200
_cell_angle_gamma 90.072500
loop_
  _atom_site_label
  _atom_site_type_symbol
  _atom_site_fract_x
  _atom_site_fract_y
  _atom_site_fract_z
O1 O 0.31072 0.21347 0.26510
 O2 O 0.24825 0.28459 0.20331
 O3 O 0.30936 0.28324 0.26798
 O4 O 0.24732 0.21516 0.20129
 O5 O 0.17124 0.21225 0.24012
 O6 O 0.23104 0.28264 0.30485
 O7 O 0.16889 0.28161 0.23912
 O8 O 0.23421 0.21335 0.30383
 Cu9 Cu 0.28675 0.24926 0.23073
 Cu10 Cu 0.19353 0.24753 0.27576
 C11 C 0.28326 0.20125 0.29502
 C12 C 0.19768 0.29479 0.21036
 C13 C 0.28064 0.29474 0.29770
 C14 C 0.19895 0.20158 0.20952
 O15 O 0.81273 0.28727 0.23513
 O16 O 0.76121 0.20966 0.29279
 O17 O 0.81658 0.21943 0.22523
 O18 O 0.75862 0.27975 0.30216
 O19 O 0.67917 0.28518 0.26698
 O20 O 0.73139 0.21600 0.19737
 O21 O 0.67552 0.21831 0.26759
 O22 O 0.73335 0.28630 0.19962
 Cu23 Cu 0.79545 0.24852 0.26737
 Cu24 Cu 0.69690 0.25098 0.22896
 C25 C 0.78220 0.29945 0.20685
 C26 C 0.70833 0.20223 0.29179
 C27 C 0.78371 0.20725 0.19831
 C28 C 0.70970 0.29344 0.29701
 O29 O 0.75534 0.78762 0.79062
 O30 O 0.69557 0.71587 0.72849
 O31 O 0.75515 0.71834 0.79527
 O32 O 0.69603 0.78418 0.72499
 O33 O 0.77647 0.78338 0.69016
 O34 O 0.83359 0.71534 0.75886
 O35 O 0.77519 0.71401 0.69282
 O36 O 0.83555 0.78555 0.75596
 Cu37 Cu 0.71773 0.75155 0.76363
 Cu38 Cu 0.81343 0.74936 0.72109
 C39 C 0.80531 0.79920 0.78373
 C40 C 0.72477 0.70324 0.69967
 C41 C 0.80425 0.70514 0.78891
 C42 C 0.72619 0.79490 0.69570
 O43 O 0.32299 0.78544 0.73752
 O44 O 0.26879 0.71780 0.80767
 O45 O 0.32514 0.71574 0.74041
 O46 O 0.26617 0.78738 0.80402
 O47 O 0.18333 0.78126 0.77353
 O48 O 0.24549 0.71470 0.70528
 O49 O 0.18901 0.71388 0.77259
 O50 O 0.24122 0.78438 0.70485
 Cu51 Cu 0.30401 0.75182 0.77566
 Cu52 Cu 0.20686 0.74858 0.73523
 C53 C 0.29125 0.79677 0.70949
 C54 C 0.21959 0.70457 0.80215
 C55 C 0.29545 0.70315 0.71182
 C56 C 0.21381 0.79553 0.80066
 C57 C 1.02526 0.02355 0.02538
 C58 C 0.96948 0.03316 0.01297
 C59 C 0.94334 0.01385 -0.01800
 C60 C 0.97109 -0.01463 -0.03705
 C61 C 1.02654 -0.02489 -0.02410
 C62 C 1.05285 -0.00521 0.00667
 H63 H 1.09502 -0.01273 0.01683
 H64 H 0.90084 0.02124 -0.02763
 C65 C 0.53001 0.52027 0.52914
 C66 C 0.46960 0.51868 0.53181
 C67 C 0.43961 0.49485 0.50708
 C68 C 0.46843 0.47145 0.48116
 C69 C 0.52893 0.47056 0.48166
 C70 C 0.55881 0.49552 0.50491
 H71 H 0.60501 0.49579 0.50395
 H72 H 0.39340 0.49467 0.50784
 C73 C -0.03547 0.48104 0.02918
 C74 C 0.02494 0.47859 0.02977
 C75 C 0.05714 0.50281 0.00701
 C76 C 0.03064 0.52802 -0.01779
 C77 C -0.02965 0.52748 -0.02209
 C78 C -0.06191 0.50452 0.00230
 H79 H -0.10803 0.50496 0.00049
 H80 H 0.10327 0.50214 0.00867
 C81 C 0.47130 0.97086 0.51926
 C82 C 0.53171 0.97219 0.51906
 C83 C 0.55953 0.99847 0.49631
 C84 C 0.52901 1.02192 0.47141
 C85 C 0.46880 1.01743 0.46806
 C86 C 0.44086 0.99271 0.49287
 H87 H 0.39477 0.99076 0.49192
 H88 H 0.60550 1.00058 0.49816
 C89 C 1.13109 0.12066 0.13558
 C90 C 1.10220 0.13024 0.17094
 C91 C 1.12463 0.15739 0.19529
 C92 C 1.17622 0.17463 0.18485
 C93 C 1.20477 0.16424 0.14929
 C94 C 1.18209 0.13761 0.12441
 C95 C 1.10688 0.09284 0.10931
 C96 C 1.13427 0.08459 0.07290
 C97 C 1.10884 0.06011 0.04662
 C98 C 1.05660 0.04390 0.05664
 C99 C 1.03192 0.05040 0.09459
 C100 C 1.05592 0.07580 0.12050
 C101 C 1.20911 0.12788 0.08830
 C102 C 1.18539 0.10200 0.06284
 C103 C 1.05129 0.11258 0.18115
 C104 C 1.02871 0.08568 0.15647
 H105 H 1.24849 0.14077 0.07933
 H106 H 1.20697 0.09580 0.03487
 H107 H 1.02857 0.11971 0.20837
 H108 H 0.98906 0.07300 0.16522
 H109 H 1.10202 0.16479 0.22250
 H110 H 1.24427 0.17716 0.14054
 H111 H 1.12805 0.05502 0.01750
 H112 H 0.99205 0.03755 0.10258
 C113 C 0.64751 0.62613 0.62315
 C114 C 0.69480 0.61623 0.64645
 C115 C 0.72109 0.64187 0.67100
 C116 C 0.69890 0.67659 0.67316
 C117 C 0.65119 0.68601 0.65011
 C118 C 0.62577 0.66099 0.62450
 C119 C 0.61974 0.59939 0.59725
 C120 C 0.57337 0.60956 0.57330
 C121 C 0.54679 0.58401 0.54905
 C122 C 0.56366 0.54800 0.55067
 C123 C 0.61097 0.53835 0.57427
 C124 C 0.63954 0.56408 0.59737
 C125 C 0.57902 0.67008 0.60030
 C126 C 0.55357 0.64486 0.57485
 C127 C 0.71425 0.58083 0.64506
 C128 C 0.68676 0.55512 0.62122
 H129 H 0.56203 0.69692 0.60101
 H130 H 0.51751 0.65290 0.55672
 H131 H 0.75055 0.57282 0.66296
 H132 H 0.70256 0.52800 0.62150
 H133 H 0.75773 0.63474 0.68908
 H134 H 0.63447 0.71291 0.65182
 H135 H 0.51143 0.59179 0.53010
 H136 H 0.62440 0.51075 0.57550
 C137 C -0.15086 0.38299 0.13340
 C138 C -0.19215 0.35983 0.11751
 C139 C -0.21516 0.33307 0.14208
 C140 C -0.19591 0.32887 0.18184
 C141 C -0.15453 0.35234 0.19729
 C142 C -0.13216 0.37965 0.17328
 C143 C -0.12556 0.41063 0.10747
 C144 C -0.08413 0.43367 0.12337
 C145 C -0.05839 0.45883 0.09818
 C146 C -0.07136 0.45961 0.05690
 C147 C -0.11454 0.43733 0.04169
 C148 C -0.14189 0.41273 0.06695
 C149 C -0.09094 0.40340 0.18817
 C150 C -0.06754 0.43010 0.16368
 C151 C -0.20867 0.36343 0.07717
 C152 C -0.18368 0.38929 0.05223
 H153 H -0.07632 0.40115 0.21891
 H154 H -0.03534 0.44761 0.17615
 H155 H -0.24045 0.34569 0.06456
 H156 H -0.19675 0.39068 0.02107
 H157 H -0.24670 0.31488 0.12995
 H158 H -0.13986 0.34936 0.22797
 H159 H -0.02571 0.47636 0.11003
 H160 H -0.12464 0.43793 0.00993
 C161 C 0.36042 0.87489 0.62955
 C162 C 0.31755 0.85181 0.61566
 C163 C 0.29356 0.82689 0.64228
 C164 C 0.31341 0.82445 0.68209
 C165 C 0.35635 0.84787 0.69545
 C166 C 0.37967 0.87333 0.66942
 C167 C 0.38642 0.90076 0.60164
 C168 C 0.42897 0.92394 0.61571
 C169 C 0.45425 0.94803 0.58899
 C170 C 0.43934 0.94792 0.54801
 C171 C 0.39577 0.92500 0.53450
 C172 C 0.36896 0.90141 0.56131
 C173 C 0.42230 0.89701 0.68236
 C174 C 0.44632 0.92204 0.65600
 C175 C 0.30037 0.85373 0.57529
 C176 C 0.32586 0.87796 0.54852
 H177 H 0.43739 0.89609 0.71308
 H178 H 0.47932 0.93970 0.66710
 H179 H 0.26744 0.83604 0.56415
 H180 H 0.31190 0.87822 0.51752
 H181 H 0.26084 0.80873 0.63175
 H182 H 0.37153 0.84627 0.72613
 H183 H 0.48689 0.96615 0.59971
 H184 H 0.38402 0.92486 0.50302
 C185 C -0.13030 0.62696 -0.13288
 C186 C -0.10343 0.63301 -0.16998
 C187 C -0.12463 0.65957 -0.19550
 C188 C -0.17389 0.67913 -0.18493
 C189 C -0.20092 0.67203 -0.14778
 C190 C -0.17856 0.64655 -0.12133
 C191 C -0.10708 0.59980 -0.10542
 C192 C -0.13183 0.59516 -0.06732
 C193 C -0.10738 0.57079 -0.04042
 C194 C -0.05948 0.55050 -0.05190
 C195 C -0.03802 0.55373 -0.09136
 C196 C -0.06008 0.57935 -0.11761
 C197 C -0.20312 0.64050 -0.08336
 C198 C -0.17975 0.61555 -0.05663
 C199 C -0.05596 0.61228 -0.18089
 C200 C -0.03504 0.58562 -0.15533
 H201 H -0.24026 0.65555 -0.07399
 H202 H -0.19941 0.61218 -0.02739
 H203 H -0.03494 0.61660 -0.20950
 H204 H 0.00166 0.57024 -0.16487
 H205 H -0.10347 0.66431 -0.22400
 H206 H -0.23848 0.68693 -0.13887
 H207 H -0.12447 0.56840 -0.01026
 H208 H -0.00235 0.53744 -0.10092
 C209 C 0.35490 1.11763 0.36616
 C210 C 0.37603 1.12364 0.32724
 C211 C 0.35285 1.15133 0.30419
 C212 C 0.30830 1.17252 0.31964
 C213 C 0.28732 1.16586 0.35861
 C214 C 0.31088 1.13868 0.38216
 C215 C 0.38010 1.08918 0.39092
 C216 C 0.36087 1.08436 0.43054
 C217 C 0.38785 1.05912 0.45496
 C218 C 0.43368 1.03885 0.43993
 C219 C 0.44963 1.04216 0.39926
 C220 C 0.42413 1.06811 0.37495
 C221 C 0.29173 1.13240 0.42155
 C222 C 0.31657 1.10584 0.44543
 C223 C 0.42001 1.10193 0.31224
 C224 C 0.44347 1.07451 0.33563
 H225 H 0.25782 1.14848 0.43424
 H226 H 0.30133 1.10233 0.47593
 H227 H 0.43663 1.10627 0.28224
 H228 H 0.47773 1.05863 0.32309
 H229 H 0.36898 1.15610 0.27413
 H230 H 0.25329 1.18216 0.37082
 H231 H 0.37543 1.05665 0.48623
 H232 H 0.48457 1.02632 0.38756
 C233 C 1.13916 -0.13267 -0.11773
 C234 C 1.10589 -0.15994 -0.13457
 C235 C 1.13041 -0.18266 -0.16324
 C236 C 1.18908 -0.18022 -0.17246
 C237 C 1.22245 -0.15373 -0.15366
 C238 C 1.19702 -0.12884 -0.12772
 C239 C 1.11253 -0.10714 -0.08977
 C240 C 1.14366 -0.07733 -0.07678
 C241 C 1.11590 -0.05096 -0.05410
 C242 C 1.05837 -0.05531 -0.04257
 C243 C 1.03067 -0.08780 -0.05135
 C244 C 1.05594 -0.11248 -0.07747
 C245 C 1.22783 -0.09975 -0.11225
 C246 C 1.20123 -0.07396 -0.08798
 C247 C 1.04892 -0.16405 -0.12217
 C248 C 1.02479 -0.14125 -0.09330
 H249 H 1.27241 -0.09632 -0.11995
 H250 H 1.22593 -0.05125 -0.07786
 H251 H 1.02291 -0.18521 -0.13465
 H252 H 0.98073 -0.14529 -0.08455
 H253 H 1.10450 -0.20340 -0.17677
 H254 H 1.26741 -0.15128 -0.16087
 H255 H 1.13836 -0.02654 -0.04679
 H256 H 0.98771 -0.09252 -0.04063
 C257 C 0.64058 0.36756 0.38060
 C258 C 0.62082 0.33217 0.38053
 C259 C 0.64413 0.30787 0.35306
 C260 C 0.68738 0.31873 0.32653
 C261 C 0.70761 0.35395 0.32730
 C262 C 0.68377 0.37873 0.35408
 C263 C 0.61473 0.39356 0.40839
 C264 C 0.63259 0.42930 0.40724
 C265 C 0.60567 0.45429 0.43225
 C266 C 0.56161 0.44358 0.45840
 C267 C 0.54644 0.40730 0.46066
 C268 C 0.57178 0.38233 0.43497
 C269 C 0.70141 0.41453 0.35444
 C270 C 0.67600 0.43944 0.38041
 C271 C 0.57781 0.32195 0.40762
 C272 C 0.55392 0.34658 0.43456
 H273 H 0.73459 0.42347 0.33410
 H274 H 0.69023 0.46691 0.37930
 H275 H 0.56235 0.29472 0.40788
 H276 H 0.52057 0.33770 0.45480
 H277 H 0.62877 0.28059 0.35218
 H278 H 0.74072 0.36213 0.30645
 H279 H 0.61752 0.48218 0.43044
 H280 H 0.51329 0.39885 0.48133
 C281 C 0.86889 -0.11421 -0.14524
 C282 C 0.89820 -0.12403 -0.18038
 C283 C 0.87765 -0.15263 -0.20349
 C284 C 0.82788 -0.17105 -0.19176
 C285 C 0.79895 -0.16058 -0.15653
 C286 C 0.81948 -0.13240 -0.13302
 C287 C 0.89117 -0.08496 -0.12013
 C288 C 0.86356 -0.07659 -0.08384
 C289 C 0.88783 -0.05118 -0.05822
 C290 C 0.93950 -0.03445 -0.06856
 C291 C 0.96411 -0.04082 -0.10657
 C292 C 0.94102 -0.06699 -0.13199
 C293 C 0.79196 -0.12241 -0.09721
 C294 C 0.81384 -0.09510 -0.07290
 C295 C 0.94763 -0.10520 -0.19149
 C296 C 0.96855 -0.07707 -0.16779
 H297 H 0.75377 -0.13625 -0.08752
 H298 H 0.79213 -0.08880 -0.04501
 H299 H 0.97066 -0.11248 -0.21853
 H300 H 1.00733 -0.06367 -0.17708
 H301 H 0.90007 -0.16035 -0.23065
 H302 H 0.76080 -0.17463 -0.14709
 H303 H 0.86876 -0.04619 -0.02903
 H304 H 1.00375 -0.02773 -0.11462
 C305 C 0.35420 0.37386 0.37466
 C306 C 0.37322 0.37083 0.33476
 C307 C 0.34899 0.34484 0.30974
 C308 C 0.30536 0.32238 0.32417
 C309 C 0.28613 0.32617 0.36410
 C310 C 0.31092 0.35162 0.38964
 C311 C 0.38072 0.40048 0.40142
 C312 C 0.36336 0.40259 0.44179
 C313 C 0.39076 0.42676 0.46760
 C314 C 0.43489 0.44878 0.45308
 C315 C 0.44952 0.44759 0.41201
 C316 C 0.42365 0.42287 0.38629
 C317 C 0.29389 0.35499 0.42999
 C318 C 0.31989 0.37989 0.45568
 C319 C 0.41631 0.39374 0.32074
 C320 C 0.44089 0.41945 0.34602
 H321 H 0.26062 0.33795 0.44196
 H322 H 0.30603 0.38126 0.48672
 H323 H 0.43127 0.39172 0.28999
 H324 H 0.47423 0.43646 0.33410
 H325 H 0.36374 0.34225 0.27898
 H326 H 0.25286 0.30881 0.37550
 H327 H 0.37926 0.42762 0.49915
 H328 H 0.48270 0.46498 0.40053
 C329 C 0.14871 0.63080 -0.11467
 C330 C 0.12795 0.66589 -0.11598
 C331 C 0.15169 0.68992 -0.14349
 C332 C 0.19647 0.67918 -0.16878
 C333 C 0.21782 0.64428 -0.16672
 C334 C 0.19338 0.61968 -0.13998
 C335 C 0.12221 0.60500 -0.08699
 C336 C 0.14066 0.56939 -0.08724
 C337 C 0.11244 0.54442 -0.06293
 C338 C 0.06645 0.55507 -0.03846
 C339 C 0.05126 0.59133 -0.03651
 C340 C 0.07774 0.61622 -0.06166
 C341 C 0.21183 0.58409 -0.13852
 C342 C 0.18562 0.55930 -0.11281
 C343 C 0.08353 0.67613 -0.09007
 C344 C 0.05909 0.65174 -0.06315
 H345 H 0.24615 0.57518 -0.15791
 H346 H 0.20034 0.53194 -0.11321
 H347 H 0.06732 0.70315 -0.09076
 H348 H 0.02452 0.66058 -0.04392
 H349 H 0.13562 0.71698 -0.14526
 H350 H 0.25219 0.63618 -0.18657
 H351 H 0.12434 0.51654 -0.06441
 H352 H 0.01648 0.59967 -0.01716
 C353 C 0.63814 1.12813 0.37250
 C354 C 0.60636 1.15809 0.36113
 C355 C 0.62904 1.18153 0.33256
 C356 C 0.68532 1.17712 0.31830
 C357 C 0.71783 1.14788 0.33175
 C358 C 0.69323 1.12229 0.35729
 C359 C 0.61285 1.10213 0.40049
 C360 C 0.64142 1.07004 0.40818
 C361 C 0.61427 1.04389 0.43161
 C362 C 0.56075 1.05076 0.44961
 C363 C 0.53674 1.08504 0.44547
 C364 C 0.56014 1.10962 0.41850
 C365 C 0.72195 1.09066 0.36734
 C366 C 0.69586 1.06457 0.39152
 C367 C 0.55282 1.16420 0.37889
 C368 C 0.53077 1.14083 0.40794
 H369 H 0.76426 1.08560 0.35553
 H370 H 0.71870 1.04006 0.39750
 H371 H 0.52813 1.18745 0.37068
 H372 H 0.48951 1.14657 0.42116
 H373 H 0.60410 1.20439 0.32322
 H374 H 0.76085 1.14398 0.32059
 H375 H 0.63421 1.01804 0.43492
 H376 H 0.49782 1.09183 0.46123
 C377 C 0.12656 0.37272 0.13224
 C378 C 0.17253 0.38211 0.15709
 C379 C 0.19584 0.35634 0.18275
 C380 C 0.17211 0.32196 0.18445
 C381 C 0.12531 0.31311 0.16013
 C382 C 0.10288 0.33829 0.13338
 C383 C 0.10280 0.39941 0.10447
 C384 C 0.05828 0.38962 0.07863
 C385 C 0.03593 0.41504 0.05227
 C386 C 0.05489 0.45071 0.05360
 C387 C 0.10026 0.45995 0.07926
 C388 C 0.12482 0.43425 0.10447
 C389 C 0.05773 0.32968 0.10745
 C390 C 0.03614 0.35483 0.08027
 C391 C 0.19414 0.41705 0.15574
 C392 C 0.17031 0.44277 0.13017
 H393 H 0.03919 0.30322 0.10797
 H394 H 0.00136 0.34711 0.06072
 H395 H 0.22944 0.42466 0.17486
 H396 H 0.18778 0.46952 0.13043
 H397 H 0.23194 0.36298 0.20164
 H398 H 0.10760 0.28642 0.16129
 H399 H 0.00215 0.40747 0.03180
 H400 H 0.11529 0.48727 0.08038
 C401 C 0.65103 0.86963 0.61580
 C402 C 0.63312 0.83387 0.61504
 C403 C 0.65834 0.80945 0.64134
 C404 C 0.70181 0.82051 0.66746
 C405 C 0.72028 0.85615 0.66745
 C406 C 0.69436 0.88106 0.64193
 C407 C 0.62310 0.89571 0.58928
 C408 C 0.63908 0.93177 0.59127
 C409 C 0.61026 0.95674 0.56740
 C410 C 0.56625 0.94565 0.54151
 C411 C 0.55300 0.90911 0.53842
 C412 C 0.58017 0.88416 0.56299
 C413 C 0.71008 0.91722 0.64245
 C414 C 0.68264 0.94218 0.61774
 C415 C 0.59002 0.82336 0.58830
 C416 C 0.56424 0.84806 0.56250
 H417 H 0.74333 0.92638 0.66252
 H418 H 0.69546 0.96989 0.61951
 H419 H 0.57599 0.79584 0.58739
 H420 H 0.53093 0.83893 0.54245
 H421 H 0.64436 0.78189 0.64157
 H422 H 0.75356 0.86451 0.68798
 H423 H 0.62070 0.98481 0.56987
 H424 H 0.51999 0.90035 0.51790
 C425 C 0.85554 0.13714 0.11081
 C426 C 0.80217 0.12889 0.12776
 C427 C 0.77764 0.15256 0.15555
 C428 C 0.80738 0.18335 0.16747
 C429 C 0.86091 0.19112 0.15041
 C430 C 0.88488 0.16835 0.12159
 C431 C 0.88198 0.11213 0.08212
 C432 C 0.93496 0.12061 0.06481
 C433 C 0.96089 0.09610 0.03875
 C434 C 0.93658 0.06214 0.03284
 C435 C 0.88246 0.05460 0.04921
 C436 C 0.85471 0.07966 0.07364
 C437 C 0.93784 0.17592 0.10367
 C438 C 0.96220 0.15261 0.07544
 C439 C 0.77518 0.09676 0.11729
 C440 C 0.80129 0.07238 0.09101
 H441 H 0.96078 0.19998 0.11168
 H442 H 1.00339 0.15924 0.06263
 H443 H 0.73411 0.09003 0.13020
 H444 H 0.77971 0.04748 0.08454
 H445 H 0.73660 0.14648 0.16897
 H446 H 0.88357 0.21504 0.15940
 H447 H 1.00187 0.10236 0.02537
 H448 H 0.86328 0.02864 0.04443
 C449 C 0.36348 0.62069 0.63688
 C450 C 0.38504 0.62528 0.67589
 C451 C 0.36304 0.65260 0.70018
 C452 C 0.31910 0.67475 0.68593
 C453 C 0.29754 0.66949 0.64690
 C454 C 0.32005 0.64273 0.62206
 C455 C 0.38740 0.59257 0.61087
 C456 C 0.36755 0.58893 0.57128
 C457 C 0.39277 0.56349 0.54594
 C458 C 0.43726 0.54177 0.56013
 C459 C 0.45419 0.54434 0.60063
 C460 C 0.43052 0.57036 0.62582
 C461 C 0.30042 0.63779 0.58258
 C462 C 0.32402 0.61149 0.55753
 C463 C 0.42821 0.60251 0.68976
 C464 C 0.45037 0.57539 0.66521
 H465 H 0.26698 0.65467 0.57078
 H466 H 0.30828 0.60893 0.52709
 H467 H 0.44511 0.60573 0.71981
 H468 H 0.48391 0.55855 0.67695
 H469 H 0.37952 0.65633 0.73030
 H470 H 0.26397 0.68659 0.63565
 H471 H 0.37960 0.56161 0.51481
 H472 H 0.48784 0.52726 0.61181
   
